# Generated by pormake.
# Topology gar, (4,6)-cn, num edge types: 1
# Building blocks:
#     Node 0, Type 0, BuildingBlock: UXUYUI_clean_sbu_0, # of connection points: 4
#     Node 1, Type 0, BuildingBlock: UXUYUI_clean_sbu_0, # of connection points: 4
#     Node 2, Type 0, BuildingBlock: UXUYUI_clean_sbu_0, # of connection points: 4
#     Node 3, Type 0, BuildingBlock: UXUYUI_clean_sbu_0, # of connection points: 4
#     Node 4, Type 0, BuildingBlock: UXUYUI_clean_sbu_0, # of connection points: 4
#     Node 5, Type 0, BuildingBlock: UXUYUI_clean_sbu_0, # of connection points: 4
#     Node 6, Type 0, BuildingBlock: UXUYUI_clean_sbu_0, # of connection points: 4
#     Node 7, Type 0, BuildingBlock: UXUYUI_clean_sbu_0, # of connection points: 4
#     Node 8, Type 0, BuildingBlock: UXUYUI_clean_sbu_0, # of connection points: 4
#     Node 9, Type 0, BuildingBlock: UXUYUI_clean_sbu_0, # of connection points: 4
#     Node 10, Type 0, BuildingBlock: UXUYUI_clean_sbu_0, # of connection points: 4
#     Node 11, Type 0, BuildingBlock: UXUYUI_clean_sbu_0, # of connection points: 4
#     Node 12, Type 0, BuildingBlock: UXUYUI_clean_sbu_0, # of connection points: 4
#     Node 13, Type 0, BuildingBlock: UXUYUI_clean_sbu_0, # of connection points: 4
#     Node 14, Type 0, BuildingBlock: UXUYUI_clean_sbu_0, # of connection points: 4
#     Node 15, Type 0, BuildingBlock: UXUYUI_clean_sbu_0, # of connection points: 4
#     Node 16, Type 0, BuildingBlock: UXUYUI_clean_sbu_0, # of connection points: 4
#     Node 17, Type 0, BuildingBlock: UXUYUI_clean_sbu_0, # of connection points: 4
#     Node 18, Type 0, BuildingBlock: UXUYUI_clean_sbu_0, # of connection points: 4
#     Node 19, Type 0, BuildingBlock: UXUYUI_clean_sbu_0, # of connection points: 4
#     Node 20, Type 0, BuildingBlock: UXUYUI_clean_sbu_0, # of connection points: 4
#     Node 21, Type 0, BuildingBlock: UXUYUI_clean_sbu_0, # of connection points: 4
#     Node 22, Type 0, BuildingBlock: UXUYUI_clean_sbu_0, # of connection points: 4
#     Node 23, Type 0, BuildingBlock: UXUYUI_clean_sbu_0, # of connection points: 4
#     Node 24, Type 1, BuildingBlock: BETDIP_clean_sbu_0, # of connection points: 6
#     Node 25, Type 1, BuildingBlock: BETDIP_clean_sbu_0, # of connection points: 6
#     Node 26, Type 1, BuildingBlock: BETDIP_clean_sbu_0, # of connection points: 6
#     Node 27, Type 1, BuildingBlock: BETDIP_clean_sbu_0, # of connection points: 6
#     Node 28, Type 1, BuildingBlock: BETDIP_clean_sbu_0, # of connection points: 6
#     Node 29, Type 1, BuildingBlock: BETDIP_clean_sbu_0, # of connection points: 6
#     Node 30, Type 1, BuildingBlock: BETDIP_clean_sbu_0, # of connection points: 6
#     Node 31, Type 1, BuildingBlock: BETDIP_clean_sbu_0, # of connection points: 6
#     Node 32, Type 1, BuildingBlock: BETDIP_clean_sbu_0, # of connection points: 6
#     Node 33, Type 1, BuildingBlock: BETDIP_clean_sbu_0, # of connection points: 6
#     Node 34, Type 1, BuildingBlock: BETDIP_clean_sbu_0, # of connection points: 6
#     Node 35, Type 1, BuildingBlock: BETDIP_clean_sbu_0, # of connection points: 6
#     Node 36, Type 1, BuildingBlock: BETDIP_clean_sbu_0, # of connection points: 6
#     Node 37, Type 1, BuildingBlock: BETDIP_clean_sbu_0, # of connection points: 6
#     Node 38, Type 1, BuildingBlock: BETDIP_clean_sbu_0, # of connection points: 6
#     Node 39, Type 1, BuildingBlock: BETDIP_clean_sbu_0, # of connection points: 6
#     Edge 40, Type (0, 1), BuildingBlock: XIVTED_clean_linker_0, # of connection points: 2
#     Edge 41, Type (0, 1), BuildingBlock: XIVTED_clean_linker_0, # of connection points: 2
#     Edge 42, Type (0, 1), BuildingBlock: XIVTED_clean_linker_0, # of connection points: 2
#     Edge 43, Type (0, 1), BuildingBlock: XIVTED_clean_linker_0, # of connection points: 2
#     Edge 44, Type (0, 1), BuildingBlock: XIVTED_clean_linker_0, # of connection points: 2
#     Edge 45, Type (0, 1), BuildingBlock: XIVTED_clean_linker_0, # of connection points: 2
#     Edge 46, Type (0, 1), BuildingBlock: XIVTED_clean_linker_0, # of connection points: 2
#     Edge 47, Type (0, 1), BuildingBlock: XIVTED_clean_linker_0, # of connection points: 2
#     Edge 48, Type (0, 1), BuildingBlock: XIVTED_clean_linker_0, # of connection points: 2
#     Edge 49, Type (0, 1), BuildingBlock: XIVTED_clean_linker_0, # of connection points: 2
#     Edge 50, Type (0, 1), BuildingBlock: XIVTED_clean_linker_0, # of connection points: 2
#     Edge 51, Type (0, 1), BuildingBlock: XIVTED_clean_linker_0, # of connection points: 2
#     Edge 52, Type (0, 1), BuildingBlock: XIVTED_clean_linker_0, # of connection points: 2
#     Edge 53, Type (0, 1), BuildingBlock: XIVTED_clean_linker_0, # of connection points: 2
#     Edge 54, Type (0, 1), BuildingBlock: XIVTED_clean_linker_0, # of connection points: 2
#     Edge 55, Type (0, 1), BuildingBlock: XIVTED_clean_linker_0, # of connection points: 2
#     Edge 56, Type (0, 1), BuildingBlock: XIVTED_clean_linker_0, # of connection points: 2
#     Edge 57, Type (0, 1), BuildingBlock: XIVTED_clean_linker_0, # of connection points: 2
#     Edge 58, Type (0, 1), BuildingBlock: XIVTED_clean_linker_0, # of connection points: 2
#     Edge 59, Type (0, 1), BuildingBlock: XIVTED_clean_linker_0, # of connection points: 2
#     Edge 60, Type (0, 1), BuildingBlock: XIVTED_clean_linker_0, # of connection points: 2
#     Edge 61, Type (0, 1), BuildingBlock: XIVTED_clean_linker_0, # of connection points: 2
#     Edge 62, Type (0, 1), BuildingBlock: XIVTED_clean_linker_0, # of connection points: 2
#     Edge 63, Type (0, 1), BuildingBlock: XIVTED_clean_linker_0, # of connection points: 2
#     Edge 64, Type (0, 1), BuildingBlock: XIVTED_clean_linker_0, # of connection points: 2
#     Edge 65, Type (0, 1), BuildingBlock: XIVTED_clean_linker_0, # of connection points: 2
#     Edge 66, Type (0, 1), BuildingBlock: XIVTED_clean_linker_0, # of connection points: 2
#     Edge 67, Type (0, 1), BuildingBlock: XIVTED_clean_linker_0, # of connection points: 2
#     Edge 68, Type (0, 1), BuildingBlock: XIVTED_clean_linker_0, # of connection points: 2
#     Edge 69, Type (0, 1), BuildingBlock: XIVTED_clean_linker_0, # of connection points: 2
#     Edge 70, Type (0, 1), BuildingBlock: XIVTED_clean_linker_0, # of connection points: 2
#     Edge 71, Type (0, 1), BuildingBlock: XIVTED_clean_linker_0, # of connection points: 2
#     Edge 72, Type (0, 1), BuildingBlock: XIVTED_clean_linker_0, # of connection points: 2
#     Edge 73, Type (0, 1), BuildingBlock: XIVTED_clean_linker_0, # of connection points: 2
#     Edge 74, Type (0, 1), BuildingBlock: XIVTED_clean_linker_0, # of connection points: 2
#     Edge 75, Type (0, 1), BuildingBlock: XIVTED_clean_linker_0, # of connection points: 2
#     Edge 76, Type (0, 1), BuildingBlock: XIVTED_clean_linker_0, # of connection points: 2
#     Edge 77, Type (0, 1), BuildingBlock: XIVTED_clean_linker_0, # of connection points: 2
#     Edge 78, Type (0, 1), BuildingBlock: XIVTED_clean_linker_0, # of connection points: 2
#     Edge 79, Type (0, 1), BuildingBlock: XIVTED_clean_linker_0, # of connection points: 2
#     Edge 80, Type (0, 1), BuildingBlock: XIVTED_clean_linker_0, # of connection points: 2
#     Edge 81, Type (0, 1), BuildingBlock: XIVTED_clean_linker_0, # of connection points: 2
#     Edge 82, Type (0, 1), BuildingBlock: XIVTED_clean_linker_0, # of connection points: 2
#     Edge 83, Type (0, 1), BuildingBlock: XIVTED_clean_linker_0, # of connection points: 2
#     Edge 84, Type (0, 1), BuildingBlock: XIVTED_clean_linker_0, # of connection points: 2
#     Edge 85, Type (0, 1), BuildingBlock: XIVTED_clean_linker_0, # of connection points: 2
#     Edge 86, Type (0, 1), BuildingBlock: XIVTED_clean_linker_0, # of connection points: 2
#     Edge 87, Type (0, 1), BuildingBlock: XIVTED_clean_linker_0, # of connection points: 2
#     Edge 88, Type (0, 1), BuildingBlock: XIVTED_clean_linker_0, # of connection points: 2
#     Edge 89, Type (0, 1), BuildingBlock: XIVTED_clean_linker_0, # of connection points: 2
#     Edge 90, Type (0, 1), BuildingBlock: XIVTED_clean_linker_0, # of connection points: 2
#     Edge 91, Type (0, 1), BuildingBlock: XIVTED_clean_linker_0, # of connection points: 2
#     Edge 92, Type (0, 1), BuildingBlock: XIVTED_clean_linker_0, # of connection points: 2
#     Edge 93, Type (0, 1), BuildingBlock: XIVTED_clean_linker_0, # of connection points: 2
#     Edge 94, Type (0, 1), BuildingBlock: XIVTED_clean_linker_0, # of connection points: 2
#     Edge 95, Type (0, 1), BuildingBlock: XIVTED_clean_linker_0, # of connection points: 2
#     Edge 96, Type (0, 1), BuildingBlock: XIVTED_clean_linker_0, # of connection points: 2
#     Edge 97, Type (0, 1), BuildingBlock: XIVTED_clean_linker_0, # of connection points: 2
#     Edge 98, Type (0, 1), BuildingBlock: XIVTED_clean_linker_0, # of connection points: 2
#     Edge 99, Type (0, 1), BuildingBlock: XIVTED_clean_linker_0, # of connection points: 2
#     Edge 100, Type (0, 1), BuildingBlock: XIVTED_clean_linker_0, # of connection points: 2
#     Edge 101, Type (0, 1), BuildingBlock: XIVTED_clean_linker_0, # of connection points: 2
#     Edge 102, Type (0, 1), BuildingBlock: XIVTED_clean_linker_0, # of connection points: 2
#     Edge 103, Type (0, 1), BuildingBlock: XIVTED_clean_linker_0, # of connection points: 2
#     Edge 104, Type (0, 1), BuildingBlock: XIVTED_clean_linker_0, # of connection points: 2
#     Edge 105, Type (0, 1), BuildingBlock: XIVTED_clean_linker_0, # of connection points: 2
#     Edge 106, Type (0, 1), BuildingBlock: XIVTED_clean_linker_0, # of connection points: 2
#     Edge 107, Type (0, 1), BuildingBlock: XIVTED_clean_linker_0, # of connection points: 2
#     Edge 108, Type (0, 1), BuildingBlock: XIVTED_clean_linker_0, # of connection points: 2
#     Edge 109, Type (0, 1), BuildingBlock: XIVTED_clean_linker_0, # of connection points: 2
#     Edge 110, Type (0, 1), BuildingBlock: XIVTED_clean_linker_0, # of connection points: 2
#     Edge 111, Type (0, 1), BuildingBlock: XIVTED_clean_linker_0, # of connection points: 2
#     Edge 112, Type (0, 1), BuildingBlock: XIVTED_clean_linker_0, # of connection points: 2
#     Edge 113, Type (0, 1), BuildingBlock: XIVTED_clean_linker_0, # of connection points: 2
#     Edge 114, Type (0, 1), BuildingBlock: XIVTED_clean_linker_0, # of connection points: 2
#     Edge 115, Type (0, 1), BuildingBlock: XIVTED_clean_linker_0, # of connection points: 2
#     Edge 116, Type (0, 1), BuildingBlock: XIVTED_clean_linker_0, # of connection points: 2
#     Edge 117, Type (0, 1), BuildingBlock: XIVTED_clean_linker_0, # of connection points: 2
#     Edge 118, Type (0, 1), BuildingBlock: XIVTED_clean_linker_0, # of connection points: 2
#     Edge 119, Type (0, 1), BuildingBlock: XIVTED_clean_linker_0, # of connection points: 2
#     Edge 120, Type (0, 1), BuildingBlock: XIVTED_clean_linker_0, # of connection points: 2
#     Edge 121, Type (0, 1), BuildingBlock: XIVTED_clean_linker_0, # of connection points: 2
#     Edge 122, Type (0, 1), BuildingBlock: XIVTED_clean_linker_0, # of connection points: 2
#     Edge 123, Type (0, 1), BuildingBlock: XIVTED_clean_linker_0, # of connection points: 2
#     Edge 124, Type (0, 1), BuildingBlock: XIVTED_clean_linker_0, # of connection points: 2
#     Edge 125, Type (0, 1), BuildingBlock: XIVTED_clean_linker_0, # of connection points: 2
#     Edge 126, Type (0, 1), BuildingBlock: XIVTED_clean_linker_0, # of connection points: 2
#     Edge 127, Type (0, 1), BuildingBlock: XIVTED_clean_linker_0, # of connection points: 2
#     Edge 128, Type (0, 1), BuildingBlock: XIVTED_clean_linker_0, # of connection points: 2
#     Edge 129, Type (0, 1), BuildingBlock: XIVTED_clean_linker_0, # of connection points: 2
#     Edge 130, Type (0, 1), BuildingBlock: XIVTED_clean_linker_0, # of connection points: 2
#     Edge 131, Type (0, 1), BuildingBlock: XIVTED_clean_linker_0, # of connection points: 2
#     Edge 132, Type (0, 1), BuildingBlock: XIVTED_clean_linker_0, # of connection points: 2
#     Edge 133, Type (0, 1), BuildingBlock: XIVTED_clean_linker_0, # of connection points: 2
#     Edge 134, Type (0, 1), BuildingBlock: XIVTED_clean_linker_0, # of connection points: 2
#     Edge 135, Type (0, 1), BuildingBlock: XIVTED_clean_linker_0, # of connection points: 2
# Relax obj value: 0.185
# Max RMSD: 0.269
# Mean RMSD: 0.185
data_MOF--net-gar--node1-UXUYUI_clean_sbu_0--node2-BETDIP_clean_sbu_0--edge1-XIVTED_clean_linker_0
_symmetry_space_group_name_H-M    P1
_symmetry_Int_Tables_number       1
_symmetry_cell_setting            triclinic
loop_
_symmetry_equiv_pos_as_xyz
'x, y, z'
_cell_length_a     76.19665
_cell_length_b     70.511587
_cell_length_c     68.354882
_cell_angle_alpha  96.614055
_cell_angle_beta   98.456848
_cell_angle_gamma 100.5496
loop_
_atom_site_label
_atom_site_type_symbol
_atom_site_fract_x
_atom_site_fract_y
_atom_site_fract_z
_atom_type_partial_charge
Li0 Li 1.00226 0.28868 0.36254 0.0
Li1 Li 0.0181 0.31116 0.3919 0.0
Li2 Li 0.03434 0.29342 0.36903 0.0
Li3 Li 0.01578 0.27691 0.39193 0.0
C4 C 0.01847 0.32804 0.35305 0.0
N5 N 0.01641 0.35895 0.33194 0.0
C6 C 0.00938 0.34253 0.35935 0.0
C7 C 0.02642 0.32923 0.33594 0.0
C8 C 1.00859 0.3581 0.34855 0.0
C9 C 0.02517 0.34491 0.32543 0.0
C10 C 0.98402 0.29229 0.40247 0.0
C11 C 0.97747 0.29389 0.43603 0.0
N12 N 0.96 0.29457 0.42887 0.0
C13 C 0.966 0.29304 0.39546 0.0
C14 C 0.98984 0.29278 0.42293 0.0
C15 C 0.95408 0.2942 0.40904 0.0
C16 C 0.96857 0.26967 0.34386 0.0
N17 N 0.98293 0.28333 0.34182 0.0
C18 C 0.96696 0.29107 0.31224 0.0
C19 C 0.98278 0.29329 0.32597 0.0
C20 C 0.95149 0.27825 0.31492 0.0
C21 C 0.95254 0.26675 0.33034 0.0
H22 H 0.96934 0.26186 0.35659 0.0
H23 H 0.99462 0.30354 0.3244 0.0
C24 C 0.03666 0.34413 0.41725 0.0
N25 N 0.01985 0.33395 0.40872 0.0
C26 C 0.03857 0.36042 0.4315 0.0
C27 C 1.00581 0.3556 0.42718 0.0
C28 C 1.00456 0.33944 0.41309 0.0
C29 C 0.02297 0.36613 0.43658 0.0
H30 H 0.04851 0.33943 0.41312 0.0
H31 H 0.99141 0.33131 0.40566 0.0
C32 C 0.00911 0.25251 0.34982 0.0
N33 N 0.99425 0.2202 0.32141 0.0
C34 C 1.00373 0.23429 0.35569 0.0
C35 C 1.00714 0.25426 0.3295 0.0
C36 C 0.9963 0.21812 0.3411 0.0
C37 C 0.9994 0.23779 0.31537 0.0
C38 C 0.05163 0.29919 0.41429 0.0
C39 C 0.06868 0.29642 0.41088 0.0
C40 C 0.04882 0.30408 0.43382 0.0
C41 C 0.08271 0.29864 0.42713 0.0
C42 C 0.06321 0.3062 0.44967 0.0
N43 N 0.07972 0.30347 0.44602 0.0
C44 C 0.06445 0.31164 0.35517 0.0
C45 C 0.0564 0.27714 0.34701 0.0
C46 C 0.0783 0.31231 0.34394 0.0
N47 N 0.05393 0.29423 0.35636 0.0
C48 C 0.07011 0.27709 0.33572 0.0
C49 C 0.08124 0.29485 0.33411 0.0
H50 H 0.06182 0.32495 0.36266 0.0
H51 H 0.04768 0.26357 0.34829 0.0
C52 C 0.99655 0.24812 0.40874 0.0
N53 N 0.01354 0.25753 0.40777 0.0
C54 C 0.99412 0.23221 0.41897 0.0
C55 C 0.02678 0.23624 0.42708 0.0
C56 C 0.02857 0.25216 0.41679 0.0
C57 C 0.00938 0.22591 0.42781 0.0
H58 H 0.98491 0.25246 0.40085 0.0
H59 H 0.04187 0.25971 0.41532 0.0
O60 O 0.02005 0.31306 0.36383 0.0
O61 O 0.99575 0.29095 0.38922 0.0
O62 O 0.01722 0.26827 0.36391 0.0
O63 O 0.03797 0.29761 0.39844 0.0
H64 H 1.00302 0.3418 0.37243 0.0
H65 H 0.03326 0.31799 0.33066 0.0
H66 H 1.00173 0.36949 0.35336 0.0
H67 H 0.03117 0.34594 0.3121 0.0
H68 H 0.98176 0.29418 0.45189 0.0
H69 H 0.9613 0.29278 0.37969 0.0
H70 H 1.00371 0.29218 0.42861 0.0
H71 H 0.94011 0.29479 0.40381 0.0
H72 H 0.96648 0.30012 0.30046 0.0
H73 H 0.94071 0.25691 0.333 0.0
H74 H 0.05199 0.36853 0.43831 0.0
H75 H 0.99353 0.35974 0.43082 0.0
H76 H 1.0056 0.23254 0.37132 0.0
H77 H 0.01153 0.26821 0.32471 0.0
H78 H 0.99224 0.2039 0.34543 0.0
H79 H 0.99762 0.23897 0.29959 0.0
H80 H 0.07107 0.29266 0.39584 0.0
H81 H 0.03574 0.30643 0.43669 0.0
H82 H 0.096 0.29658 0.42471 0.0
H83 H 0.06128 0.31008 0.46487 0.0
H84 H 0.08654 0.32628 0.3429 0.0
H85 H 0.07219 0.2633 0.3287 0.0
H86 H 0.98053 0.22427 0.419 0.0
H87 H 0.0388 0.23163 0.43378 0.0
Li88 Li 0.05975 0.76862 0.66952 0.0
Li89 Li 0.07412 0.7567 0.69805 0.0
Li90 Li 0.05696 0.73429 0.66876 0.0
Li91 Li 0.04203 0.75151 0.69281 0.0
C92 C 0.09153 0.75453 0.65817 0.0
N93 N 0.11647 0.75534 0.63259 0.0
C94 C 0.11009 0.75932 0.66582 0.0
C95 C 0.08564 0.75022 0.63751 0.0
C96 C 0.12248 0.75968 0.65264 0.0
C97 C 0.09847 0.75065 0.62482 0.0
C98 C 0.06379 0.7926 0.71198 0.0
C99 C 0.06829 0.80725 0.74644 0.0
N100 N 0.07448 0.82494 0.74111 0.0
C101 C 0.07 0.81096 0.7068 0.0
C102 C 0.06278 0.79071 0.73192 0.0
C103 C 0.07542 0.82712 0.72176 0.0
C104 C 0.04696 0.79428 0.64685 0.0
N105 N 0.06209 0.78842 0.65474 0.0
C106 C 0.08117 0.81299 0.64226 0.0
C107 C 0.07898 0.79743 0.65293 0.0
C108 C 0.06578 0.81926 0.63379 0.0
C109 C 0.0485 0.80983 0.63613 0.0
H110 H 0.03381 0.78705 0.6492 0.0
H111 H 0.09074 0.7928 0.66011 0.0
C112 C 0.10005 0.74803 0.72604 0.0
N113 N 0.09397 0.76253 0.71749 0.0
C114 C 0.11596 0.75234 0.73976 0.0
C115 C 0.11881 0.78643 0.7356 0.0
C116 C 0.10293 0.7814 0.72183 0.0
C117 C 0.12572 0.77164 0.74402 0.0
H118 H 0.09326 0.73304 0.72121 0.0
H119 H 0.09846 0.7923 0.71365 0.0
C120 C 0.02332 0.74432 0.64743 0.0
N121 N 0.99497 0.73587 0.61552 0.0
C122 C 1.00555 0.73839 0.65057 0.0
C123 C 0.0267 0.74597 0.62809 0.0
C124 C 0.9914 0.73416 0.63423 0.0
C125 C 0.01217 0.74164 0.61215 0.0
C126 C 0.05708 0.71825 0.70947 0.0
C127 C 0.05557 0.69872 0.70156 0.0
C128 C 0.05929 0.72362 0.73015 0.0
C129 C 0.05651 0.68487 0.71452 0.0
C130 C 0.06036 0.70935 0.74262 0.0
N131 N 0.05895 0.69044 0.73461 0.0
C132 C 0.07097 0.70613 0.64834 0.0
C133 C 0.03885 0.70192 0.6425 0.0
C134 C 0.07008 0.69008 0.63415 0.0
N135 N 0.05549 0.71183 0.65181 0.0
C136 C 0.03731 0.68574 0.62834 0.0
C137 C 0.05307 0.67988 0.62401 0.0
H138 H 0.08395 0.71411 0.65649 0.0
H139 H 0.02683 0.70659 0.64606 0.0
C140 C 0.01744 0.76836 0.70847 0.0
N141 N 0.02317 0.75127 0.70634 0.0
C142 C 1.00321 0.76997 0.71856 0.0
C143 C 1.0015 0.73648 0.72461 0.0
C144 C 0.01585 0.73552 0.71432 0.0
C145 C 0.99488 0.75375 0.7263 0.0
H146 H 0.02375 0.78057 0.70197 0.0
H147 H 0.02086 0.72218 0.7123 0.0
O148 O 0.07931 0.75397 0.671 0.0
O149 O 0.05901 0.77656 0.69756 0.0
O150 O 0.03723 0.74875 0.66337 0.0
O151 O 0.0568 0.73201 0.69695 0.0
H152 H 0.11485 0.76271 0.6818 0.0
H153 H 0.07133 0.74641 0.63136 0.0
H154 H 0.13688 0.76337 0.65836 0.0
H155 H 0.09412 0.74723 0.6088 0.0
H156 H 0.06772 0.80601 0.76197 0.0
H157 H 0.07085 0.8127 0.69143 0.0
H158 H 0.058 0.77658 0.73614 0.0
H159 H 0.08042 0.84138 0.71799 0.0
H160 H 0.09467 0.82009 0.64072 0.0
H161 H 0.0364 0.8147 0.63011 0.0
H162 H 0.12152 0.7405 0.74529 0.0
H163 H 0.12654 0.80127 0.73806 0.0
H164 H 1.00274 0.73709 0.66548 0.0
H165 H 0.04037 0.75068 0.62545 0.0
H166 H 0.97758 0.72955 0.63644 0.0
H167 H 0.01455 0.7429 0.59709 0.0
H168 H 0.05376 0.69429 0.68559 0.0
H169 H 0.06053 0.7387 0.73648 0.0
H170 H 0.05539 0.66971 0.7086 0.0
H171 H 0.06236 0.71332 0.75867 0.0
H172 H 0.08242 0.6855 0.63136 0.0
H173 H 0.02399 0.67793 0.6208 0.0
H174 H 0.99829 0.78346 0.71969 0.0
H175 H 0.9951 0.72371 0.73027 0.0
Li176 Li 0.50101 0.78982 0.86319 0.0
Li177 Li 0.51739 0.81203 0.89274 0.0
Li178 Li 0.53324 0.79427 0.8694 0.0
Li179 Li 0.51486 0.77765 0.89229 0.0
C180 C 0.51769 0.82894 0.85345 0.0
N181 N 0.51596 0.85933 0.83154 0.0
C182 C 0.50979 0.84434 0.86008 0.0
C183 C 0.52471 0.82901 0.83567 0.0
C184 C 0.50913 0.85962 0.84884 0.0
C185 C 0.52361 0.84444 0.82475 0.0
C186 C 0.48328 0.79316 0.90346 0.0
C187 C 0.4768 0.79408 0.93701 0.0
N188 N 0.45933 0.7949 0.93 0.0
C189 C 0.46528 0.79405 0.8966 0.0
C190 C 0.48913 0.79325 0.92384 0.0
C191 C 0.45338 0.79494 0.91025 0.0
C192 C 0.46707 0.7709 0.84435 0.0
N193 N 0.48161 0.78441 0.84246 0.0
C194 C 0.46666 0.79086 0.81164 0.0
C195 C 0.48199 0.79375 0.8262 0.0
C196 C 0.45102 0.77808 0.81393 0.0
C197 C 0.45146 0.76741 0.83009 0.0
H198 H 0.46744 0.76348 0.85737 0.0
H199 H 0.49395 0.8038 0.82471 0.0
C200 C 0.53643 0.84473 0.91829 0.0
N201 N 0.51951 0.8348 0.90983 0.0
C202 C 0.53863 0.86113 0.93249 0.0
C203 C 0.50593 0.85697 0.92827 0.0
C204 C 0.50438 0.84063 0.91428 0.0
C205 C 0.52321 0.86726 0.93758 0.0
H206 H 0.54816 0.83978 0.91411 0.0
H207 H 0.49114 0.83264 0.90694 0.0
C208 C 0.5086 0.75348 0.84998 0.0
N209 N 0.49526 0.72098 0.82141 0.0
C210 C 0.50434 0.73503 0.85574 0.0
C211 C 0.50632 0.75538 0.82969 0.0
C212 C 0.49768 0.71876 0.84107 0.0
C213 C 0.49933 0.7388 0.81548 0.0
C214 C 0.55089 0.79927 0.91445 0.0
C215 C 0.5678 0.79626 0.91072 0.0
C216 C 0.54833 0.80399 0.9341 0.0
C217 C 0.58193 0.79808 0.92677 0.0
C218 C 0.56283 0.80571 0.94975 0.0
N219 N 0.57918 0.80275 0.94579 0.0
C220 C 0.56246 0.81185 0.85361 0.0
C221 C 0.55619 0.77722 0.84956 0.0
C222 C 0.57628 0.81191 0.84241 0.0
N223 N 0.55277 0.79466 0.85672 0.0
C224 C 0.57002 0.77658 0.83854 0.0
C225 C 0.58021 0.79409 0.8348 0.0
H226 H 0.5592 0.82543 0.85954 0.0
H227 H 0.54816 0.76385 0.85244 0.0
C228 C 0.49597 0.74855 0.90918 0.0
N229 N 0.51284 0.7578 0.90752 0.0
C230 C 0.49383 0.73232 0.91898 0.0
C231 C 0.52648 0.73548 0.92488 0.0
C232 C 0.528 0.7518 0.91519 0.0
C233 C 0.50922 0.72555 0.92654 0.0
H234 H 0.48418 0.75333 0.90224 0.0
H235 H 0.54115 0.75919 0.91307 0.0
O236 O 0.51905 0.81416 0.86459 0.0
O237 O 0.49492 0.7919 0.89011 0.0
O238 O 0.51584 0.76941 0.86417 0.0
O239 O 0.53715 0.79819 0.8988 0.0
H240 H 0.50426 0.84454 0.87375 0.0
H241 H 0.53061 0.81706 0.83013 0.0
H242 H 0.50315 0.87169 0.85387 0.0
H243 H 0.52883 0.84457 0.81087 0.0
H244 H 0.4811 0.79403 0.95281 0.0
H245 H 0.46054 0.79408 0.88088 0.0
H246 H 0.50299 0.7925 0.92939 0.0
H247 H 0.43941 0.79562 0.90513 0.0
H248 H 0.46672 0.79924 0.79931 0.0
H249 H 0.43951 0.75762 0.8325 0.0
H250 H 0.55214 0.86903 0.93923 0.0
H251 H 0.49378 0.86144 0.93192 0.0
H252 H 0.50645 0.7332 0.87134 0.0
H253 H 0.50989 0.76952 0.82499 0.0
H254 H 0.49449 0.70437 0.84531 0.0
H255 H 0.49729 0.74007 0.79973 0.0
H256 H 0.57 0.79266 0.89558 0.0
H257 H 0.53538 0.80652 0.93722 0.0
H258 H 0.5951 0.79584 0.9241 0.0
H259 H 0.56109 0.80946 0.96505 0.0
H260 H 0.58373 0.8257 0.83969 0.0
H261 H 0.57289 0.76256 0.83333 0.0
H262 H 0.48035 0.7246 0.91981 0.0
H263 H 0.53854 0.73035 0.93053 0.0
Li264 Li 0.55924 0.26786 0.16731 0.0
Li265 Li 0.57429 0.25636 0.19614 0.0
Li266 Li 0.55692 0.23353 0.16702 0.0
Li267 Li 0.5417 0.25128 0.19096 0.0
C268 C 0.59127 0.25288 0.15605 0.0
N269 N 0.61611 0.25226 0.13047 0.0
C270 C 0.6098 0.25896 0.16348 0.0
C271 C 0.58534 0.2465 0.13561 0.0
C272 C 0.62215 0.25857 0.1503 0.0
C273 C 0.59813 0.24625 0.12293 0.0
C274 C 0.56392 0.29266 0.2095 0.0
C275 C 0.5646 0.30937 0.2425 0.0
N276 N 0.57466 0.32568 0.23776 0.0
C277 C 0.57416 0.30961 0.20488 0.0
C278 C 0.55891 0.29256 0.22836 0.0
C279 C 0.57945 0.32617 0.21939 0.0
C280 C 0.54533 0.29532 0.1484 0.0
N281 N 0.56032 0.2876 0.15205 0.0
C282 C 0.57751 0.31152 0.13687 0.0
C283 C 0.57619 0.29515 0.14644 0.0
C284 C 0.56242 0.32018 0.13348 0.0
C285 C 0.54606 0.31179 0.13898 0.0
H286 H 0.53304 0.28903 0.15344 0.0
H287 H 0.58802 0.28906 0.15018 0.0
C288 C 0.60248 0.24404 0.21479 0.0
N289 N 0.59411 0.25941 0.2159 0.0
C290 C 0.617 0.24355 0.22936 0.0
C291 C 0.61368 0.27456 0.24613 0.0
C292 C 0.5994 0.27457 0.23104 0.0
C293 C 0.62285 0.25907 0.2452 0.0
H294 H 0.59784 0.23225 0.20245 0.0
H295 H 0.59281 0.28677 0.23147 0.0
C296 C 0.52277 0.24504 0.14609 0.0
N297 N 0.49392 0.2395 0.115 0.0
C298 C 0.50504 0.23974 0.14957 0.0
C299 C 0.52587 0.2475 0.12681 0.0
C300 C 0.49063 0.23699 0.13365 0.0
C301 C 0.51108 0.24467 0.11129 0.0
C302 C 0.55838 0.21857 0.20799 0.0
C303 C 0.55424 0.19871 0.20043 0.0
C304 C 0.56419 0.22457 0.2285 0.0
C305 C 0.5562 0.18512 0.21351 0.0
C306 C 0.56614 0.21053 0.24108 0.0
N307 N 0.56212 0.19127 0.23338 0.0
C308 C 0.57061 0.20233 0.15218 0.0
C309 C 0.53997 0.20204 0.13871 0.0
C310 C 0.57007 0.18496 0.13997 0.0
N311 N 0.5557 0.21041 0.15114 0.0
C312 C 0.53886 0.18487 0.12613 0.0
C313 C 0.55403 0.17613 0.12671 0.0
H314 H 0.58285 0.20943 0.16247 0.0
H315 H 0.5283 0.2087 0.1385 0.0
C316 C 0.51425 0.26621 0.20339 0.0
N317 N 0.52259 0.25088 0.2044 0.0
C318 C 0.50069 0.26806 0.21453 0.0
C319 C 0.50471 0.23825 0.22749 0.0
C320 C 0.51816 0.23694 0.21597 0.0
C321 C 0.49591 0.25404 0.22691 0.0
H322 H 0.51834 0.27706 0.19408 0.0
H323 H 0.52522 0.22501 0.21648 0.0
O324 O 0.57909 0.25339 0.16884 0.0
O325 O 0.55894 0.2762 0.19566 0.0
O326 O 0.53696 0.24755 0.16153 0.0
O327 O 0.55665 0.232 0.19528 0.0
H328 H 0.61458 0.26404 0.17926 0.0
H329 H 0.57103 0.2418 0.12963 0.0
H330 H 0.63653 0.2633 0.15584 0.0
H331 H 0.59377 0.24131 0.10708 0.0
H332 H 0.56109 0.30943 0.25727 0.0
H333 H 0.57809 0.30994 0.19033 0.0
H334 H 0.55109 0.2795 0.23218 0.0
H335 H 0.58743 0.33938 0.21607 0.0
H336 H 0.59041 0.31788 0.13309 0.0
H337 H 0.53417 0.31817 0.13645 0.0
H338 H 0.62406 0.23161 0.22764 0.0
H339 H 0.61787 0.28685 0.25801 0.0
H340 H 0.50244 0.23764 0.1644 0.0
H341 H 0.53954 0.25155 0.12388 0.0
H342 H 0.47683 0.23284 0.13613 0.0
H343 H 0.51324 0.24654 0.09628 0.0
H344 H 0.54943 0.19379 0.18465 0.0
H345 H 0.56724 0.23989 0.23463 0.0
H346 H 0.55301 0.1697 0.20785 0.0
H347 H 0.5708 0.21495 0.25696 0.0
H348 H 0.58196 0.17851 0.14093 0.0
H349 H 0.52635 0.17868 0.11584 0.0
H350 H 0.49395 0.28023 0.21335 0.0
H351 H 0.50142 0.22724 0.23692 0.0
Li352 Li 0.05691 0.80122 0.11906 0.0
Li353 Li 0.07695 0.78486 0.14506 0.0
Li354 Li 0.05509 0.76536 0.11471 0.0
Li355 Li 0.04199 0.77945 0.14292 0.0
C356 C 0.08732 0.78268 0.10177 0.0
N357 N 0.10815 0.77343 0.07365 0.0
C358 C 0.10567 0.78268 0.10768 0.0
C359 C 0.0796 0.77826 0.08153 0.0
C360 C 0.11598 0.77795 0.09325 0.0
C361 C 0.09034 0.77347 0.06755 0.0
C362 C 0.06374 0.82001 0.16424 0.0
C363 C 0.0633 0.83344 0.19816 0.0
N364 N 0.06871 0.85169 0.1937 0.0
C365 C 0.06933 0.83886 0.15998 0.0
C366 C 0.06073 0.81721 0.18346 0.0
C367 C 0.07177 0.8547 0.17508 0.0
C368 C 0.03775 0.82728 0.09971 0.0
N369 N 0.05468 0.82396 0.1054 0.0
C370 C 0.0675 0.85239 0.09194 0.0
C371 C 0.06943 0.83605 0.10148 0.0
C372 C 0.05015 0.85639 0.08596 0.0
C373 C 0.03517 0.84323 0.08985 0.0
H374 H 0.02613 0.8175 0.10281 0.0
H375 H 0.08279 0.83317 0.10601 0.0
C376 C 0.10837 0.76937 0.15807 0.0
N377 N 0.10063 0.78504 0.16215 0.0
C378 C 0.12518 0.76809 0.16902 0.0
C379 C 0.12573 0.79873 0.18891 0.0
C380 C 0.10903 0.79962 0.17732 0.0
C381 C 0.13418 0.78286 0.1848 0.0
H382 H 0.1015 0.75779 0.14612 0.0
H383 H 0.10279 0.81197 0.1805 0.0
C384 C 0.02034 0.77364 0.09889 0.0
N385 N 0.9909 0.7602 0.06852 0.0
C386 C 1.00385 0.7641 0.1031 0.0
C387 C 0.0218 0.77652 0.07925 0.0
C388 C 0.98914 0.75739 0.08754 0.0
C389 C 1.00677 0.76955 0.06409 0.0
C390 C 0.05585 0.74553 0.1536 0.0
C391 C 0.04695 0.72684 0.14426 0.0
C392 C 0.06218 0.74881 0.17419 0.0
C393 C 0.04449 0.71171 0.15573 0.0
C394 C 0.05945 0.73329 0.18514 0.0
N395 N 0.05074 0.71522 0.17576 0.0
C396 C 0.06743 0.73438 0.09511 0.0
C397 C 0.03569 0.73164 0.08696 0.0
C398 C 0.06618 0.71597 0.08436 0.0
N399 N 0.05232 0.74183 0.0963 0.0
C400 C 0.03379 0.71314 0.07612 0.0
C401 C 0.04913 0.7049 0.07508 0.0
H402 H 0.08041 0.74233 0.10332 0.0
H403 H 0.02371 0.73725 0.08871 0.0
C404 C 0.01489 0.79123 0.16372 0.0
N405 N 0.02151 0.77545 0.15718 0.0
C406 C 0.9993 0.78896 0.17256 0.0
C407 C 0.99726 0.75416 0.16759 0.0
C408 C 0.01296 0.75711 0.15891 0.0
C409 C 0.99019 0.77022 0.17463 0.0
H410 H 0.02153 0.80563 0.16172 0.0
H411 H 0.01803 0.74467 0.15311 0.0
O412 O 0.07705 0.78699 0.11584 0.0
O413 O 0.06075 0.80444 0.14946 0.0
O414 O 0.03495 0.78005 0.11392 0.0
O415 O 0.05854 0.76048 0.14261 0.0
H416 H 0.11194 0.78644 0.12324 0.0
H417 H 0.06542 0.7782 0.07671 0.0
H418 H 0.1302 0.7779 0.09763 0.0
H419 H 0.08452 0.76977 0.05184 0.0
H420 H 0.06095 0.83154 0.2131 0.0
H421 H 0.0717 0.84125 0.14516 0.0
H422 H 0.05633 0.80268 0.18693 0.0
H423 H 0.07605 0.86939 0.17199 0.0
H424 H 0.07963 0.86196 0.08974 0.0
H425 H 0.02144 0.84501 0.08527 0.0
H426 H 0.13093 0.75544 0.16539 0.0
H427 H 0.1321 0.81052 0.20086 0.0
H428 H 1.00244 0.76179 0.1182 0.0
H429 H 0.03443 0.78397 0.07575 0.0
H430 H 0.97633 0.74991 0.09059 0.0
H431 H 1.00773 0.77156 0.04881 0.0
H432 H 0.04193 0.72405 0.12835 0.0
H433 H 0.06913 0.7632 0.1816 0.0
H434 H 0.0376 0.69719 0.14871 0.0
H435 H 0.06427 0.73559 0.20109 0.0
H436 H 0.0783 0.71001 0.08436 0.0
H437 H 0.02037 0.70507 0.06926 0.0
H438 H 0.99423 0.80179 0.17735 0.0
H439 H 0.99081 0.73944 0.16886 0.0
Li440 Li 0.5194 0.77954 0.44588 0.0
Li441 Li 0.49759 0.7605 0.41526 0.0
Li442 Li 0.51702 0.74343 0.44143 0.0
Li443 Li 0.53235 0.7643 0.41763 0.0
C444 C 0.48608 0.76144 0.45784 0.0
N445 N 0.4642 0.76932 0.48529 0.0
C446 C 0.47071 0.76904 0.45213 0.0
C447 C 0.49021 0.75759 0.47742 0.0
C448 C 0.45984 0.77297 0.46625 0.0
C449 C 0.479 0.76175 0.4911 0.0
C450 C 0.51821 0.79947 0.40717 0.0
C451 C 0.52299 0.81278 0.377 0.0
N452 N 0.52114 0.83047 0.38576 0.0
C453 C 0.51616 0.81772 0.41581 0.0
C454 C 0.52148 0.7969 0.38756 0.0
C455 C 0.51776 0.83323 0.40476 0.0
C456 C 0.53881 0.81682 0.46449 0.0
N457 N 0.52348 0.80335 0.46431 0.0
C458 C 0.51206 0.82639 0.48482 0.0
C459 C 0.51047 0.80772 0.47469 0.0
C460 C 0.52709 0.84094 0.48414 0.0
C461 C 0.54094 0.83583 0.47439 0.0
H462 H 0.54889 0.81312 0.45593 0.0
H463 H 0.49837 0.79717 0.47445 0.0
C464 C 0.4602 0.74438 0.39491 0.0
N465 N 0.47401 0.76026 0.39797 0.0
C466 C 0.44314 0.74465 0.38381 0.0
C467 C 0.45466 0.77744 0.37865 0.0
C468 C 0.47137 0.77664 0.39011 0.0
C469 C 0.43993 0.76136 0.37529 0.0
H470 H 0.46229 0.73153 0.40144 0.0
H471 H 0.4822 0.78933 0.3928 0.0
C472 C 0.55394 0.77099 0.46141 0.0
N473 N 0.58404 0.78458 0.49092 0.0
C474 C 0.57134 0.77334 0.45656 0.0
C475 C 0.55184 0.77538 0.48129 0.0
C476 C 0.58638 0.7802 0.4717 0.0
C477 C 0.56724 0.78235 0.49598 0.0
C478 C 0.51377 0.72547 0.39629 0.0
C479 C 0.52048 0.70917 0.40129 0.0
C480 C 0.50777 0.72679 0.37628 0.0
C481 C 0.52107 0.69438 0.3861 0.0
C482 C 0.50862 0.7117 0.36151 0.0
N483 N 0.51518 0.69594 0.36669 0.0
C484 C 0.50435 0.7092 0.46008 0.0
C485 C 0.53588 0.71714 0.46015 0.0
C486 C 0.50641 0.69291 0.46965 0.0
N487 N 0.51898 0.72085 0.45531 0.0
C488 C 0.53854 0.70103 0.46964 0.0
C489 C 0.52368 0.6884 0.47438 0.0
H490 H 0.49103 0.71242 0.45626 0.0
H491 H 0.54738 0.72662 0.45641 0.0
C492 C 0.56244 0.7869 0.40443 0.0
N493 N 0.55301 0.76834 0.40356 0.0
C494 C 0.57818 0.79054 0.3959 0.0
C495 C 0.57453 0.75592 0.38596 0.0
C496 C 0.55878 0.75295 0.39452 0.0
C497 C 0.58458 0.77492 0.38664 0.0
H498 H 0.55797 0.79892 0.41216 0.0
H499 H 0.55139 0.73829 0.39428 0.0
O500 O 0.4972 0.75818 0.44442 0.0
O501 O 0.517 0.78418 0.41787 0.0
O502 O 0.5391 0.76438 0.4467 0.0
O503 O 0.51249 0.73973 0.411 0.0
H504 H 0.46738 0.77217 0.43706 0.0
H505 H 0.50211 0.75177 0.48206 0.0
H506 H 0.448 0.77903 0.46211 0.0
H507 H 0.48212 0.75906 0.50636 0.0
H508 H 0.52565 0.81105 0.36185 0.0
H509 H 0.51323 0.81988 0.43081 0.0
H510 H 0.52293 0.7828 0.38062 0.0
H511 H 0.51628 0.84745 0.41128 0.0
H512 H 0.50124 0.82959 0.4925 0.0
H513 H 0.55274 0.84664 0.47341 0.0
H514 H 0.43254 0.73185 0.38241 0.0
H515 H 0.45353 0.79068 0.37247 0.0
H516 H 0.57323 0.76977 0.4413 0.0
H517 H 0.53847 0.77359 0.48528 0.0
H518 H 0.59992 0.78204 0.46815 0.0
H519 H 0.56584 0.78599 0.5114 0.0
H520 H 0.52508 0.7079 0.41673 0.0
H521 H 0.50245 0.73929 0.37223 0.0
H522 H 0.52617 0.68165 0.38975 0.0
H523 H 0.50401 0.71248 0.34594 0.0
H524 H 0.49448 0.68365 0.47282 0.0
H525 H 0.55217 0.69855 0.47325 0.0
H526 H 0.58556 0.80541 0.3971 0.0
H527 H 0.57881 0.7434 0.37888 0.0
Li528 Li 0.55665 0.30151 0.61952 0.0
Li529 Li 0.57645 0.28492 0.64555 0.0
Li530 Li 0.55445 0.2656 0.6152 0.0
Li531 Li 0.54124 0.28001 0.6435 0.0
C532 C 0.58687 0.28285 0.60226 0.0
N533 N 0.60773 0.27389 0.57405 0.0
C534 C 0.60514 0.28245 0.60818 0.0
C535 C 0.57924 0.27894 0.58197 0.0
C536 C 0.61546 0.27791 0.5937 0.0
C537 C 0.59 0.27429 0.56795 0.0
C538 C 0.56347 0.32042 0.66455 0.0
C539 C 0.56298 0.33421 0.69834 0.0
N540 N 0.56885 0.35233 0.6938 0.0
C541 C 0.56951 0.33915 0.6602 0.0
C542 C 0.56016 0.31787 0.68373 0.0
C543 C 0.57215 0.35511 0.67521 0.0
C544 C 0.53819 0.32931 0.60266 0.0
N545 N 0.5547 0.32432 0.60589 0.0
C546 C 0.56732 0.35114 0.59 0.0
C547 C 0.56912 0.33477 0.59955 0.0
C548 C 0.55046 0.35692 0.5867 0.0
C549 C 0.53575 0.34544 0.59305 0.0
H550 H 0.52681 0.32072 0.60756 0.0
H551 H 0.58212 0.33053 0.60209 0.0
C552 C 0.60722 0.26851 0.65961 0.0
N553 N 0.60013 0.28481 0.66271 0.0
C554 C 0.62397 0.26711 0.67065 0.0
C555 C 0.62597 0.2991 0.68844 0.0
C556 C 0.6092 0.29995 0.67694 0.0
C557 C 0.63386 0.28255 0.68541 0.0
H558 H 0.59992 0.25655 0.64828 0.0
H559 H 0.60346 0.31278 0.67944 0.0
C560 C 0.51986 0.2739 0.59943 0.0
N561 N 0.49041 0.25987 0.5692 0.0
C562 C 0.50363 0.26377 0.60371 0.0
C563 C 0.52106 0.27706 0.57982 0.0
C564 C 0.4889 0.25678 0.58822 0.0
C565 C 0.50603 0.26978 0.56473 0.0
C566 C 0.55578 0.24549 0.65371 0.0
C567 C 0.54609 0.2271 0.64436 0.0
C568 C 0.56349 0.24814 0.67392 0.0
C569 C 0.5443 0.21161 0.65544 0.0
C570 C 0.56135 0.2323 0.6845 0.0
N571 N 0.55189 0.21451 0.67512 0.0
C572 C 0.56678 0.23484 0.595 0.0
C573 C 0.53494 0.23168 0.58762 0.0
C574 C 0.56557 0.21657 0.58398 0.0
N575 N 0.5516 0.24205 0.59669 0.0
C576 C 0.53309 0.21324 0.57664 0.0
C577 C 0.54852 0.20532 0.57504 0.0
H578 H 0.5798 0.24287 0.60299 0.0
H579 H 0.52294 0.23709 0.58973 0.0
C580 C 0.5093 0.28946 0.65644 0.0
N581 N 0.52048 0.27646 0.65772 0.0
C582 C 0.49331 0.28673 0.66465 0.0
C583 C 0.50058 0.25739 0.67563 0.0
C584 C 0.51634 0.26061 0.66711 0.0
C585 C 0.48867 0.27047 0.67444 0.0
H586 H 0.51262 0.30182 0.64868 0.0
H587 H 0.52503 0.25016 0.66774 0.0
O588 O 0.57659 0.28699 0.61636 0.0
O589 O 0.56039 0.30473 0.64992 0.0
O590 O 0.53448 0.28061 0.61439 0.0
O591 O 0.55767 0.26085 0.64317 0.0
H592 H 0.6113 0.28571 0.6238 0.0
H593 H 0.56512 0.27916 0.57716 0.0
H594 H 0.62962 0.27756 0.59809 0.0
H595 H 0.58424 0.27098 0.55221 0.0
H596 H 0.56046 0.3325 0.71326 0.0
H597 H 0.57209 0.34133 0.64539 0.0
H598 H 0.55539 0.30343 0.68724 0.0
H599 H 0.57678 0.3697 0.67206 0.0
H600 H 0.5792 0.35939 0.58569 0.0
H601 H 0.52235 0.34873 0.59055 0.0
H602 H 0.62921 0.25408 0.66723 0.0
H603 H 0.63252 0.31135 0.69977 0.0
H604 H 0.50247 0.26111 0.61879 0.0
H605 H 0.5335 0.28495 0.57628 0.0
H606 H 0.47629 0.24883 0.59129 0.0
H607 H 0.5068 0.27199 0.54945 0.0
H608 H 0.53994 0.22481 0.62876 0.0
H609 H 0.57096 0.26232 0.68137 0.0
H610 H 0.53684 0.1973 0.6484 0.0
H611 H 0.56719 0.23414 0.70018 0.0
H612 H 0.57777 0.21081 0.58354 0.0
H613 H 0.51966 0.20498 0.57009 0.0
H614 H 0.48474 0.29735 0.66345 0.0
H615 H 0.49756 0.24448 0.68271 0.0
Li616 Li 0.02058 0.28006 0.94554 0.0
Li617 Li 0.99876 0.26087 0.91512 0.0
Li618 Li 0.01831 0.24401 0.94145 0.0
Li619 Li 0.03362 0.26469 0.91743 0.0
C620 C 0.98758 0.26245 0.95799 0.0
N621 N 0.9663 0.27142 0.98573 0.0
C622 C 0.97119 0.26807 0.9519 0.0
C623 C 0.99302 0.26106 0.97812 0.0
C624 C 0.96067 0.27264 0.96618 0.0
C625 C 0.98208 0.26573 0.99194 0.0
C626 C 0.01866 0.29968 0.90661 0.0
C627 C 0.02162 0.31265 0.87587 0.0
N628 N 0.02053 0.33051 0.88494 0.0
C629 C 0.01746 0.31814 0.9156 0.0
C630 C 0.02062 0.29685 0.88655 0.0
C631 C 0.01844 0.33354 0.9044 0.0
C632 C 0.04095 0.31619 0.9674 0.0
N633 N 0.0244 0.30394 0.96369 0.0
C634 C 0.01136 0.32841 0.97989 0.0
C635 C 0.00983 0.30969 0.96998 0.0
C636 C 0.02797 0.34164 0.98304 0.0
C637 C 0.04309 0.33523 0.97727 0.0
H638 H 0.05223 0.31159 0.96167 0.0
H639 H 0.99667 0.30034 0.96622 0.0
C640 C 0.96288 0.24381 0.89056 0.0
N641 N 0.97517 0.26068 0.89778 0.0
C642 C 0.94587 0.2441 0.87929 0.0
C643 C 0.9543 0.27906 0.88281 0.0
C644 C 0.97109 0.27811 0.89402 0.0
C645 C 0.94116 0.26193 0.87527 0.0
H646 H 0.96615 0.23006 0.8937 0.0
H647 H 0.98073 0.29147 0.9001 0.0
C648 C 0.05504 0.27102 0.96154 0.0
N649 N 0.08484 0.28369 0.99159 0.0
C650 C 0.07253 0.27382 0.95694 0.0
C651 C 0.0527 0.27453 0.98144 0.0
C652 C 0.08742 0.28018 0.97235 0.0
C653 C 0.06795 0.28105 0.99641 0.0
C654 C 0.01466 0.22573 0.89631 0.0
C655 C 0.02119 0.20933 0.90131 0.0
C656 C 1.00829 0.22688 0.87635 0.0
C657 C 0.02121 0.19426 0.88615 0.0
C658 C 1.00858 0.21152 0.86162 0.0
N659 N 0.01495 0.19565 0.86679 0.0
C660 C 1.0051 0.20969 0.95929 0.0
C661 C 0.03685 0.2175 0.961 0.0
C662 C 1.00658 0.19325 0.96879 0.0
N663 N 0.0201 0.22137 0.95538 0.0
C664 C 0.03893 0.20116 0.97042 0.0
C665 C 0.02367 0.18848 0.97432 0.0
H666 H 0.99192 0.21308 0.95494 0.0
H667 H 0.04865 0.22694 0.95783 0.0
C668 C 0.06249 0.28699 0.90181 0.0
N669 N 0.05434 0.26847 0.9034 0.0
C670 C 0.07817 0.29049 0.89317 0.0
C671 C 0.07737 0.2559 0.88858 0.0
C672 C 0.0615 0.25302 0.89698 0.0
C673 C 0.08595 0.27484 0.88655 0.0
H674 H 0.05705 0.29917 0.90764 0.0
H675 H 0.05513 0.23846 0.89876 0.0
O676 O 0.99838 0.25874 0.94432 0.0
O677 O 0.01818 0.28454 0.91748 0.0
O678 O 0.04035 0.26498 0.94656 0.0
O679 O 0.01376 0.24017 0.91101 0.0
H680 H 0.96682 0.26926 0.93638 0.0
H681 H 1.00564 0.25667 0.98304 0.0
H682 H 0.94808 0.27725 0.96172 0.0
H683 H 0.98617 0.2649 0.0076 0.0
H684 H 0.0233 0.31072 0.86037 0.0
H685 H 0.01572 0.3206 0.93102 0.0
H686 H 0.02155 0.28264 0.87939 0.0
H687 H 0.01756 0.3479 0.91118 0.0
H688 H 0.99941 0.33281 0.9842 0.0
H689 H 0.0561 0.34513 0.97924 0.0
H690 H 0.93657 0.23037 0.87373 0.0
H691 H 0.95152 0.29325 0.88062 0.0
H692 H 0.0746 0.27105 0.94164 0.0
H693 H 0.03925 0.27248 0.98524 0.0
H694 H 0.10103 0.28236 0.969 0.0
H695 H 0.06635 0.28402 0.01186 0.0
H696 H 0.02605 0.20819 0.91672 0.0
H697 H 1.00307 0.23946 0.87232 0.0
H698 H 0.02614 0.18143 0.88979 0.0
H699 H 1.00365 0.21216 0.84609 0.0
H700 H 0.99435 0.18442 0.97178 0.0
H701 H 0.05241 0.19828 0.97408 0.0
H702 H 0.08445 0.30535 0.89219 0.0
H703 H 0.08284 0.24339 0.88366 0.0
Li704 Li 0.4211 0.03858 0.28508 0.0
Li705 Li 0.39256 0.01713 0.25992 0.0
Li706 Li 0.41823 0.03686 0.24435 0.0
Li707 Li 0.39518 0.0565 0.26244 0.0
C708 C 0.42856 1.00186 0.25989 0.0
N709 N 0.44752 0.97269 0.25243 0.0
C710 C 0.42088 0.98248 0.26092 0.0
C711 C 0.44598 1.00642 0.25531 0.0
C712 C 0.43066 0.96795 0.25707 0.0
C713 C 0.45532 0.99145 0.2515 0.0
C714 C 0.38116 0.03251 0.29575 0.0
C715 C 0.35005 0.02526 0.30051 0.0
N716 N 0.35551 0.01985 0.31853 0.0
C717 C 0.38649 0.02705 0.31438 0.0
C718 C 0.36283 0.03174 0.28876 0.0
C719 C 0.3733 0.02062 0.32565 0.0
C720 C 0.44076 0.0532 0.32877 0.0
N721 N 0.43699 0.03781 0.31358 0.0
C722 C 0.45254 0.01959 0.33669 0.0
C723 C 0.44286 0.02116 0.31755 0.0
C724 C 0.4566 0.03519 0.35285 0.0
C725 C 0.45035 0.05221 0.34813 0.0
H726 H 0.43608 0.06642 0.32611 0.0
H727 H 0.43994 0.00873 0.30586 0.0
C728 C 0.37088 0.9774 0.24005 0.0
N729 N 0.3763 0.98997 0.25763 0.0
C730 C 0.36182 0.95782 0.23961 0.0
C731 C 0.36367 0.96418 0.27516 0.0
C732 C 0.37271 0.98345 0.27495 0.0
C733 C 0.35829 0.95065 0.25743 0.0
H734 H 0.37412 0.98227 0.22633 0.0
H735 H 0.37747 0.99292 0.28895 0.0
C736 C 0.43723 0.07465 0.26288 0.0
N737 N 0.46446 0.10184 0.25349 0.0
C738 C 0.43302 0.09046 0.25391 0.0
C739 C 0.45523 0.07262 0.26709 0.0
C740 C 0.44701 0.10408 0.24929 0.0
C741 C 0.46882 0.08653 0.2622 0.0
C742 C 0.37919 0.02836 0.22032 0.0
C743 C 0.38534 0.03054 0.20225 0.0
C744 C 0.36127 0.01917 0.22011 0.0
C745 C 0.37349 0.02329 0.18424 0.0
C746 C 0.34985 0.01207 0.20176 0.0
N747 N 0.35614 0.01425 0.18437 0.0
C748 C 0.43135 0.01672 0.20876 0.0
C749 C 0.44204 0.05059 0.21368 0.0
C750 C 0.44027 0.01448 0.19193 0.0
N751 N 0.4323 0.03461 0.21964 0.0
C752 C 0.4512 0.04898 0.19701 0.0
C753 C 0.45063 0.03071 0.18555 0.0
H754 H 0.42357 1.0039 0.21307 0.0
H755 H 0.4427 0.06488 0.2217 0.0
C756 C 0.38394 0.09464 0.27973 0.0
N757 N 0.38109 0.08109 0.26287 0.0
C758 C 0.37522 0.11103 0.28075 0.0
C759 C 0.36009 0.10003 0.24721 0.0
C760 C 0.36918 0.08383 0.24676 0.0
C761 C 0.36291 0.11443 0.26438 0.0
H762 H 0.39313 0.09289 0.29274 0.0
H763 H 0.36658 0.07344 0.2332 0.0
O764 O 0.41891 0.01622 0.26277 0.0
O765 O 0.39381 0.03813 0.28421 0.0
O766 O 0.42372 0.06107 0.26726 0.0
O767 O 0.39081 0.03482 0.23808 0.0
H768 H 0.40754 0.97864 0.26468 0.0
H769 H 0.45213 0.02134 0.25444 0.0
H770 H 0.42484 0.95289 0.25774 0.0
H771 H 0.46874 0.99475 0.24774 0.0
H772 H 0.3358 0.02447 0.29527 0.0
H773 H 0.40063 0.02746 0.31991 0.0
H774 H 0.35852 0.03589 0.27433 0.0
H775 H 0.3772 0.01616 0.34001 0.0
H776 H 0.45685 1.00604 0.33857 0.0
H777 H 0.45245 0.06485 0.35941 0.0
H778 H 0.35825 0.94822 0.22546 0.0
H779 H 0.36114 0.95995 0.28937 0.0
H780 H 0.4191 0.09214 0.2505 0.0
H781 H 0.45863 0.06036 0.27393 0.0
H782 H 0.44399 0.1164 0.24234 0.0
H783 H 0.48283 0.08514 0.2653 0.0
H784 H 0.39909 0.03781 0.20212 0.0
H785 H 0.35631 0.01733 0.23396 0.0
H786 H 0.37809 0.02485 0.17016 0.0
H787 H 0.33598 1.00478 0.20136 0.0
H788 H 0.43918 0.99994 0.18417 0.0
H789 H 0.45845 0.06224 0.19298 0.0
H790 H 0.37808 0.12089 0.29469 0.0
H791 H 0.35107 0.10131 0.23387 0.0
Li792 Li 0.27633 0.18326 0.53581 0.0
Li793 Li 0.28788 0.15556 0.52037 0.0
Li794 Li 0.27355 0.17874 0.499 0.0
Li795 Li 0.25284 0.15349 0.51706 0.0
C796 C 0.311 0.19825 0.52527 0.0
N797 N 0.34137 0.22765 0.53806 0.0
C798 C 0.32725 0.19397 0.53426 0.0
C799 C 0.31029 0.21746 0.52255 0.0
C800 C 0.34243 0.20904 0.54067 0.0
C801 C 0.32577 0.23213 0.52919 0.0
C802 C 0.27462 0.14607 0.55699 0.0
C803 C 0.27096 0.116 0.57094 0.0
N804 N 0.28019 0.12584 0.58888 0.0
C805 C 0.28402 0.15591 0.57558 0.0
C806 C 0.26797 0.12598 0.55463 0.0
C807 C 0.28672 0.14542 0.59151 0.0
C808 C 0.26543 0.20516 0.56696 0.0
N809 N 0.28032 0.20207 0.55932 0.0
C810 C 0.29979 0.22273 0.58734 0.0
C811 C 0.29731 0.21057 0.56914 0.0
C812 C 0.28462 0.22599 0.59559 0.0
C813 C 0.26726 0.21733 0.585 0.0
H814 H 0.2521 0.19754 0.55946 0.0
H815 H 0.30902 0.20722 0.56351 0.0
C816 C 0.31536 0.13586 0.50755 0.0
N817 N 0.3082 0.14187 0.52372 0.0
C818 C 0.33113 0.1281 0.50989 0.0
C819 C 0.33234 0.13321 0.54554 0.0
C820 C 0.31642 0.14061 0.54249 0.0
C821 C 0.34012 0.12681 0.52915 0.0
H822 H 0.30905 0.13747 0.49276 0.0
H823 H 0.31111 0.14615 0.55528 0.0
C824 C 0.24473 0.19653 0.51875 0.0
N825 N 0.22577 0.22543 0.52732 0.0
C826 C 0.22628 0.19164 0.51968 0.0
C827 C 0.2535 0.21613 0.52191 0.0
C828 C 0.21693 0.20646 0.52402 0.0
C829 C 0.2437 0.23052 0.52637 0.0
C830 C 0.26836 0.13545 0.47973 0.0
C831 C 0.26599 0.14024 0.46037 0.0
C832 C 0.27114 0.1169 0.48276 0.0
C833 C 0.26654 0.12636 0.44428 0.0
C834 C 0.27172 0.10345 0.46628 0.0
N835 N 0.26941 0.10842 0.44755 0.0
C836 C 0.29204 0.19855 0.4711 0.0
C837 C 0.26027 0.19609 0.46471 0.0
C838 C 0.29405 0.20865 0.45475 0.0
N839 N 0.27534 0.19243 0.47578 0.0
C840 C 0.26164 0.20582 0.448 0.0
C841 C 0.2787 0.21224 0.44277 0.0
H842 H 0.30387 0.19554 0.48004 0.0
H843 H 0.24715 0.19132 0.46877 0.0
C844 C 0.22029 0.14144 0.53375 0.0
N845 N 0.22831 0.13728 0.51761 0.0
C846 C 0.20292 0.13107 0.53511 0.0
C847 C 0.2023 0.11164 0.5036 0.0
C848 C 0.21956 0.12264 0.50264 0.0
C849 C 0.19358 0.11581 0.51996 0.0
H850 H 0.22735 0.153 0.54563 0.0
H851 H 0.22596 0.11941 0.48987 0.0
O852 O 0.2959 0.1837 0.51925 0.0
O853 O 0.27179 0.15608 0.54122 0.0
O854 O 0.25413 0.1821 0.5151 0.0
O855 O 0.26823 0.14903 0.49561 0.0
H856 H 0.32813 0.17923 0.53644 0.0
H857 H 0.29791 0.22102 0.51544 0.0
H858 H 0.35504 0.20593 0.54776 0.0
H859 H 0.32538 0.24707 0.5273 0.0
H860 H 0.26592 0.10043 0.56934 0.0
H861 H 0.2893 0.17144 0.57768 0.0
H862 H 0.26062 0.11819 0.54035 0.0
H863 H 0.29403 0.15283 0.60595 0.0
H864 H 0.31341 0.22892 0.59522 0.0
H865 H 0.25523 0.21896 0.59117 0.0
H866 H 0.33617 0.12321 0.49661 0.0
H867 H 0.33872 0.13315 0.56075 0.0
H868 H 0.21925 0.17657 0.51704 0.0
H869 H 0.26778 0.22015 0.52133 0.0
H870 H 0.20265 0.20287 0.52481 0.0
H871 H 0.25036 0.24574 0.52914 0.0
H872 H 0.26371 0.15449 0.45777 0.0
H873 H 0.27306 0.11303 0.49769 0.0
H874 H 0.26471 0.12986 0.42921 0.0
H875 H 0.27403 0.08908 0.46838 0.0
H876 H 0.30745 0.21321 0.45124 0.0
H877 H 0.24946 0.20844 0.43931 0.0
H878 H 0.19698 0.13474 0.54813 0.0
H879 H 0.19571 0.10011 0.49149 0.0
Li880 Li 0.14856 0.05807 0.79883 0.0
Li881 Li 0.12542 0.03671 0.81628 0.0
Li882 Li 0.14625 0.02173 0.7952 0.0
Li883 Li 0.12072 0.03487 0.7797 0.0
C884 C 0.16695 0.04401 0.83556 0.0
N885 N 0.19533 0.04848 0.86698 0.0
C886 C 0.16403 0.04747 0.85525 0.0
C887 C 0.18429 0.04296 0.8318 0.0
C888 C 0.17856 0.04969 0.87094 0.0
C889 C 0.19847 0.0452 0.84791 0.0
C890 C 0.11051 0.06964 0.79479 0.0
C891 C 0.07993 0.07366 0.78455 0.0
N892 N 0.08628 0.0929 0.78403 0.0
C893 C 0.11675 0.08943 0.79412 0.0
C894 C 0.09195 0.06167 0.79012 0.0
C895 C 0.10428 0.10096 0.78871 0.0
C896 C 0.16441 0.08945 0.78078 0.0
N897 N 0.16476 0.0826 0.79863 0.0
C898 C 0.18814 0.10998 0.81423 0.0
C899 C 0.1763 0.0925 0.81524 0.0
C900 C 0.18824 0.1174 0.79593 0.0
C901 C 0.17605 0.1068 0.77908 0.0
H902 H 0.15514 0.0813 0.76775 0.0
H903 H 0.17635 0.08682 0.82928 0.0
C904 C 0.11479 0.0194 0.8494 0.0
N905 N 0.11362 0.03478 0.8393 0.0
C906 C 0.10632 0.01735 0.86613 0.0
C907 C 0.09519 0.04673 0.86151 0.0
C908 C 0.10397 0.04828 0.84494 0.0
C909 C 0.0964 0.03117 0.8725 0.0
H910 H 0.12233 0.0087 0.84446 0.0
H911 H 0.10311 0.06031 0.83659 0.0
C912 C 0.15578 0.03747 0.75979 0.0
N913 N 0.17633 0.03421 0.72994 0.0
C914 C 0.1474 0.02958 0.74021 0.0
C915 C 0.1746 0.04373 0.76419 0.0
C916 C 0.15803 0.02803 0.72533 0.0
C917 C 0.18475 0.04196 0.74888 0.0
C918 C 0.10664 0.99692 0.79021 0.0
C919 C 0.11012 0.97999 0.78005 0.0
C920 C 0.08921 0.99727 0.79416 0.0
C921 C 0.09602 0.96376 0.77372 0.0
C922 C 0.07545 0.98074 0.78752 0.0
N923 N 0.07911 0.96449 0.77751 0.0
C924 C 0.16763 0.99477 0.80783 0.0
C925 C 0.1591 0.9927 0.77278 0.0
C926 C 0.17629 0.97904 0.80521 0.0
N927 N 0.15932 1.00129 0.79171 0.0
C928 C 0.1675 0.97691 0.76947 0.0
C929 C 0.17618 0.96976 0.7858 0.0
H930 H 0.16731 1.00158 0.82274 0.0
H931 H 0.15182 0.99763 0.76023 0.0
C932 C 0.10491 0.04781 0.74602 0.0
N933 N 0.10379 0.03194 0.75567 0.0
C934 C 0.09501 0.04648 0.7269 0.0
C935 C 0.08269 0.01261 0.72813 0.0
C936 C 0.09288 0.01458 0.74717 0.0
C937 C 0.08398 0.02859 0.71759 0.0
H938 H 0.11414 0.06126 0.75283 0.0
H939 H 0.09253 1.00195 0.7546 0.0
O940 O 0.15272 0.04117 0.82013 0.0
O941 O 0.12257 0.05833 0.80046 0.0
O942 O 0.14557 0.03919 0.77451 0.0
O943 O 0.1202 0.01308 0.79606 0.0
H944 H 0.15066 0.04837 0.85838 0.0
H945 H 0.18671 0.04022 0.81661 0.0
H946 H 0.17649 0.05233 0.88626 0.0
H947 H 0.21196 0.04427 0.84527 0.0
H948 H 0.06553 0.06769 0.78072 0.0
H949 H 0.13106 0.09585 0.79796 0.0
H950 H 0.08693 0.04638 0.79063 0.0
H951 H 0.10891 0.11633 0.78826 0.0
H952 H 0.19701 0.11767 0.82775 0.0
H953 H 0.1757 0.11161 0.76458 0.0
H954 H 0.10738 1.00493 0.87386 0.0
H955 H 0.08781 0.05781 0.86587 0.0
H956 H 0.13286 0.02458 0.73655 0.0
H957 H 0.18127 0.04989 0.77928 0.0
H958 H 0.15173 0.02191 0.71013 0.0
H959 H 0.19933 0.04676 0.75205 0.0
H960 H 0.12351 0.97941 0.77692 0.0
H961 H 0.08631 0.01027 0.802 0.0
H962 H 0.0985 0.95062 0.76574 0.0
H963 H 0.06185 0.98085 0.79027 0.0
H964 H 0.18295 0.9742 0.81827 0.0
H965 H 0.16669 0.97001 0.75427 0.0
H966 H 0.09674 0.05907 0.71914 0.0
H967 H 0.0743 0.99857 0.72153 0.0
Li968 Li 0.24561 0.86776 0.00574 0.0
Li969 Li 0.2566 0.84162 0.02221 0.0
Li970 Li 0.27675 0.86544 0.00771 0.0
Li971 Li 0.2537 0.83975 0.987 0.0
C972 C 0.27094 0.88386 0.04613 0.0
N973 N 0.28505 0.9122 0.07883 0.0
C974 C 0.2723 0.87891 0.06543 0.0
C975 C 0.2767 0.90322 0.04342 0.0
C976 C 0.27943 0.89346 0.08178 0.0
C977 C 0.28388 0.91733 0.06016 0.0
C978 C 0.22056 0.82436 1.00064 0.0
C979 C 0.20936 0.78961 0.99592 0.0
N980 N 0.19216 0.79266 0.9951 0.0
C981 C 0.2028 0.82717 0.99973 0.0
C982 C 0.22393 0.80546 0.99877 0.0
C983 C 0.18862 0.81094 0.99696 0.0
C984 C 0.21692 0.88364 0.99022 0.0
N985 N 0.2292 0.88332 0.00664 0.0
C986 C 0.21465 0.90206 0.02759 0.0
C987 C 0.22842 0.89226 0.02502 0.0
C988 C 0.20139 0.90216 0.01113 0.0
C989 C 0.2027 0.89319 0.99213 0.0
H990 H 0.21785 0.87587 0.97592 0.0
H991 H 0.23802 0.89115 0.03784 0.0
C992 C 0.27056 0.82162 0.04851 0.0
N993 N 0.25458 0.82612 0.04144 0.0
C994 C 0.27125 0.80873 0.06212 0.0
C995 C 0.23897 0.80603 0.06167 0.0
C996 C 0.23884 0.81865 0.04744 0.0
C997 C 0.25543 0.8012 0.06926 0.0
H998 H 0.28283 0.82841 0.04382 0.0
H999 H 0.22638 0.82288 0.04162 0.0
C1000 C 0.26258 0.87968 0.97003 0.0
N1001 N 0.26924 0.9045 0.94233 0.0
C1002 C 0.26566 0.8724 0.95121 0.0
C1003 C 0.2628 0.89955 0.97477 0.0
C1004 C 0.26904 0.8852 0.93742 0.0
C1005 C 0.26621 0.91187 0.96054 0.0
C1006 C 0.28771 0.82619 1.00335 0.0
C1007 C 0.30383 0.83417 0.99718 0.0
C1008 C 0.28484 0.8069 0.00718 0.0
C1009 C 0.31701 0.82294 0.99553 0.0
C1010 C 0.29832 0.79612 0.00529 0.0
N1011 N 0.31402 0.80432 0.99963 0.0
C1012 C 0.30998 0.88339 0.03057 0.0
C1013 C 0.3062 0.88892 0.99671 0.0
C1014 C 0.3267 0.89621 0.03488 0.0
N1015 N 0.29995 0.88057 0.01192 0.0
C1016 C 0.32295 0.90148 1.00022 0.0
C1017 C 0.33314 0.90545 0.01956 0.0
H1018 H 0.30478 0.87602 0.04217 0.0
H1019 H 0.29822 0.88593 0.98192 0.0
C1020 C 0.2288 0.81981 0.95518 0.0
N1021 N 0.24592 0.82135 0.96508 0.0
C1022 C 0.22199 0.80548 0.93878 0.0
C1023 C 0.25028 0.79416 0.94415 0.0
C1024 C 0.25649 0.80867 0.96031 0.0
C1025 C 0.23327 0.79327 0.93248 0.0
H1026 H 0.2207 0.83007 0.95972 0.0
H1027 H 0.27002 0.81033 0.96834 0.0
O1028 O 0.26345 0.86981 0.03008 0.0
O1029 O 0.23452 0.84014 1.00325 0.0
O1030 O 0.25915 0.86729 0.98361 0.0
O1031 O 0.27495 0.83726 0.00593 0.0
H1032 H 0.26772 0.864 0.06775 0.0
H1033 H 0.27563 0.90727 0.02855 0.0
H1034 H 0.28046 0.88986 0.09681 0.0
H1035 H 0.28846 0.93237 0.05832 0.0
H1036 H 0.21173 0.77489 0.99438 0.0
H1037 H 0.20003 0.84174 1.00118 0.0
H1038 H 0.23763 0.80308 0.99946 0.0
H1039 H 0.17479 0.81288 0.99627 0.0
H1040 H 0.21422 0.90921 0.04237 0.0
H1041 H 0.19259 0.89306 0.97916 0.0
H1042 H 0.28438 0.80613 0.06832 0.0
H1043 H 0.22674 0.80103 0.0675 0.0
H1044 H 0.26548 0.85703 0.94734 0.0
H1045 H 0.26039 0.90537 0.98926 0.0
H1046 H 0.2715 0.87979 0.92281 0.0
H1047 H 0.26643 0.92728 0.96396 0.0
H1048 H 0.3062 0.84882 0.99362 0.0
H1049 H 0.2723 0.80029 0.01153 0.0
H1050 H 0.3296 0.82903 0.99097 0.0
H1051 H 0.29631 0.78123 0.00834 0.0
H1052 H 0.33444 0.89896 0.0499 0.0
H1053 H 0.32765 0.9085 0.98811 0.0
H1054 H 0.20891 0.80523 0.92994 0.0
H1055 H 0.25963 0.78535 0.93957 0.0
Li1056 Li 0.28716 0.38972 0.04135 0.0
Li1057 Li 0.3018 0.36673 0.06207 0.0
Li1058 Li 0.32181 0.39233 0.04357 0.0
Li1059 Li 0.29885 0.36243 0.02502 0.0
C1060 C 0.30402 0.40974 0.0805 0.0
N1061 N 0.29805 0.43636 0.11043 0.0
C1062 C 0.29541 0.40328 0.09593 0.0
C1063 C 0.30962 0.42969 0.08027 0.0
C1064 C 0.29252 0.41698 0.11093 0.0
C1065 C 0.30645 0.44294 0.09554 0.0
C1066 C 0.26431 0.34707 0.03613 0.0
C1067 C 0.25007 0.31307 0.0268 0.0
N1068 N 0.23353 0.31802 0.02439 0.0
C1069 C 0.24715 0.3518 0.03365 0.0
C1070 C 0.26579 0.32752 0.03287 0.0
C1071 C 0.23177 0.33692 0.02772 0.0
C1072 C 0.25756 0.40184 0.01891 0.0
N1073 N 0.26666 0.4029 0.03785 0.0
C1074 C 0.24456 0.41862 0.05098 0.0
C1075 C 0.26039 0.41105 0.05378 0.0
C1076 C 0.23493 0.41782 0.03159 0.0
C1077 C 0.24175 0.40936 0.01542 0.0
H1078 H 0.26228 0.39463 0.00646 0.0
H1079 H 0.26736 0.41132 0.06875 0.0
C1080 C 0.31506 0.35274 0.09898 0.0
N1081 N 0.30017 0.35289 0.08533 0.0
C1082 C 0.3134 0.34329 0.11587 0.0
C1083 C 0.28123 0.33373 0.10411 0.0
C1084 C 0.28347 0.34348 0.0876 0.0
C1085 C 0.29625 0.33373 0.11887 0.0
H1086 H 0.32823 0.36023 0.09694 0.0
H1087 H 0.27175 0.3437 0.0767 0.0
C1088 C 0.30037 0.39959 0.00403 0.0
N1089 N 0.29554 0.4194 0.97168 0.0
C1090 C 0.29991 0.39028 0.9847 0.0
C1091 C 0.29855 0.41903 0.00693 0.0
C1092 C 0.29746 0.40054 0.96855 0.0
C1093 C 0.29602 0.42876 0.99036 0.0
C1094 C 0.33069 0.34969 0.04123 0.0
C1095 C 0.34729 0.35464 0.03478 0.0
C1096 C 0.32363 0.33023 0.04254 0.0
C1097 C 0.3564 0.3399 0.02931 0.0
C1098 C 0.33314 0.31592 0.0369 0.0
N1099 N 0.34917 0.32101 0.03043 0.0
C1100 C 0.3591 0.41358 0.0595 0.0
C1101 C 0.34957 0.41504 0.02537 0.0
C1102 C 0.37644 0.4245 0.05887 0.0
N1103 N 0.34596 0.40902 0.0429 0.0
C1104 C 0.36671 0.42603 0.0241 0.0
C1105 C 0.38064 0.43101 0.04098 0.0
H1106 H 0.35624 0.40852 0.07327 0.0
H1107 H 0.33918 0.41122 0.01219 0.0
C1108 C 0.27682 0.33904 0.99036 0.0
N1109 N 0.29393 0.34387 1.00113 0.0
C1110 C 0.27325 0.32705 0.97189 0.0
C1111 C 0.3049 0.32524 0.97592 0.0
C1112 C 0.30785 0.33732 0.99415 0.0
C1113 C 0.2875 0.32023 0.96435 0.0
H1114 H 0.26608 0.34512 0.99568 0.0
H1115 H 0.32149 0.34227 1.00207 0.0
O1116 O 0.30734 0.39655 0.06597 0.0
O1117 O 0.27952 0.36154 0.04175 0.0
O1118 O 0.30234 0.38963 0.01998 0.0
O1119 O 0.32123 0.36382 0.04574 0.0
H1120 H 0.29098 0.38788 0.0963 0.0
H1121 H 0.31636 0.43487 0.06844 0.0
H1122 H 0.28588 0.41221 0.12297 0.0
H1123 H 0.3107 0.45845 0.09558 0.0
H1124 H 0.25102 0.29791 0.02399 0.0
H1125 H 0.24568 0.36678 0.0364 0.0
H1126 H 0.27893 0.32359 0.0347 0.0
H1127 H 0.21842 0.34039 0.02577 0.0
H1128 H 0.23994 0.42509 0.06393 0.0
H1129 H 0.23467 0.40806 1.00023 0.0
H1130 H 0.32545 0.34398 0.12672 0.0
H1131 H 0.26775 0.32629 0.10522 0.0
H1132 H 0.30147 0.37532 0.98216 0.0
H1133 H 0.29886 0.42643 0.0218 0.0
H1134 H 0.29706 0.39351 0.95351 0.0
H1135 H 0.29442 0.44376 0.99235 0.0
H1136 H 0.3529 0.36965 0.03366 0.0
H1137 H 0.31085 0.32622 0.04763 0.0
H1138 H 0.36916 0.34347 0.02407 0.0
H1139 H 0.32776 0.30077 0.03761 0.0
H1140 H 0.38656 0.42745 0.07231 0.0
H1141 H 0.3689 0.43071 0.00996 0.0
H1142 H 0.25966 0.32373 0.9633 0.0
H1143 H 0.31642 0.32097 0.97036 0.0
Li1144 Li 0.82178 0.20544 0.07408 0.0
Li1145 Li 0.8298 0.17799 0.05526 0.0
Li1146 Li 0.81742 0.20351 0.03883 0.0
Li1147 Li 0.79838 0.17912 0.05395 0.0
C1148 C 0.8542 0.22152 0.06022 0.0
N1149 N 0.88246 0.25352 0.06845 0.0
C1150 C 0.87206 0.219 0.06432 0.0
C1151 C 0.85067 0.24029 0.06019 0.0
C1152 C 0.88617 0.23538 0.06848 0.0
C1153 C 0.86516 0.25629 0.0644 0.0
C1154 C 0.81348 0.16534 0.09107 0.0
C1155 C 0.80387 0.13289 0.0986 0.0
N1156 N 0.80733 0.14004 0.11844 0.0
C1157 C 0.81691 0.17239 0.11151 0.0
C1158 C 0.80694 0.14544 0.0845 0.0
C1159 C 0.81376 0.15936 0.12512 0.0
C1160 C 0.81495 0.23203 0.10155 0.0
N1161 N 0.82839 0.22375 0.09587 0.0
C1162 C 0.85083 0.24599 0.11953 0.0
C1163 C 0.84603 0.23014 0.10447 0.0
C1164 C 0.83712 0.25455 0.12605 0.0
C1165 C 0.81906 0.24786 0.11642 0.0
H1166 H 0.80102 0.22596 0.0949 0.0
H1167 H 0.85628 0.22271 0.09992 0.0
C1168 C 0.85233 0.16167 0.03627 0.0
N1169 N 0.84628 0.16256 0.05394 0.0
C1170 C 0.86481 0.1503 0.03279 0.0
C1171 C 0.86508 0.14161 0.06618 0.0
C1172 C 0.85238 0.15313 0.06898 0.0
C1173 C 0.8711 0.1401 0.0478 0.0
H1174 H 0.84729 0.16974 0.0249 0.0
H1175 H 0.84738 0.15453 0.08297 0.0
C1176 C 0.78699 0.21886 0.05494 0.0
N1177 N 0.76142 0.24215 0.05261 0.0
C1178 C 0.76854 0.21048 0.04924 0.0
C1179 C 0.79241 0.23916 0.05914 0.0
C1180 C 0.75585 0.22247 0.04818 0.0
C1181 C 0.77928 0.25066 0.05801 0.0
C1182 C 0.80643 0.16077 0.01511 0.0
C1183 C 0.8009 0.16541 0.99614 0.0
C1184 C 0.80674 0.14142 0.01752 0.0
C1185 C 0.79565 0.15052 0.97983 0.0
C1186 C 0.80149 0.12696 1.0008 0.0
N1187 N 0.79607 0.13177 0.98247 0.0
C1188 C 0.83485 0.22426 0.01232 0.0
C1189 C 0.80423 0.22627 0.01344 0.0
C1190 C 0.83569 0.23668 0.99791 0.0
N1191 N 0.81915 0.21919 0.01941 0.0
C1192 C 0.80461 0.23909 0.99969 0.0
C1193 C 0.82023 0.24383 0.99116 0.0
H1194 H 0.84646 0.21818 0.0174 0.0
H1195 H 0.79177 0.22129 0.01863 0.0
C1196 C 0.76805 0.16073 0.06804 0.0
N1197 N 0.77553 0.16385 0.05155 0.0
C1198 C 0.75123 0.14833 0.06604 0.0
C1199 C 0.74994 0.14371 0.03013 0.0
C1200 C 0.76664 0.15623 0.03283 0.0
C1201 C 0.74229 0.13929 0.04689 0.0
H1202 H 0.7753 0.16759 0.08268 0.0
H1203 H 0.77254 0.15973 0.01999 0.0
O1204 O 0.84026 0.20563 0.05681 0.0
O1205 O 0.81649 0.17802 0.07766 0.0
O1206 O 0.79961 0.20723 0.05644 0.0
O1207 O 0.81135 0.17522 0.03121 0.0
H1208 H 0.87496 0.20454 0.06448 0.0
H1209 H 0.8369 0.24246 0.05718 0.0
H1210 H 0.90007 0.23366 0.0718 0.0
H1211 H 0.86265 0.27091 0.06454 0.0
H1212 H 0.79873 0.11745 0.09377 0.0
H1213 H 0.822 0.18778 0.11679 0.0
H1214 H 0.80418 0.1398 0.06871 0.0
H1215 H 0.8164 0.1646 0.14099 0.0
H1216 H 0.86475 0.25041 0.12719 0.0
H1217 H 0.80798 0.25346 0.12164 0.0
H1218 H 0.86945 0.14935 0.01852 0.0
H1219 H 0.86989 0.13379 0.07794 0.0
H1220 H 0.76395 0.19492 0.0456 0.0
H1221 H 0.8066 0.24598 0.06338 0.0
H1222 H 0.74155 0.21612 0.04386 0.0
H1223 H 0.78329 0.26637 0.06141 0.0
H1224 H 0.80053 0.18034 0.99409 0.0
H1225 H 0.81099 0.13762 0.03213 0.0
H1226 H 0.79123 0.15387 0.96508 0.0
H1227 H 0.80169 0.11191 1.0024 0.0
H1228 H 0.84772 0.23959 0.99115 0.0
H1229 H 0.79212 0.24355 0.99429 0.0
H1230 H 0.74552 0.14545 0.07926 0.0
H1231 H 0.74351 0.13693 0.01513 0.0
Li1232 Li 0.18137 0.52757 0.30092 0.0
Li1233 Li 0.15623 0.50848 0.31691 0.0
Li1234 Li 0.1795 0.48865 0.29851 0.0
Li1235 Li 0.15325 0.506 0.27571 0.0
C1236 C 0.19577 0.51927 0.3399 0.0
N1237 N 0.21977 0.53658 0.37437 0.0
C1238 C 0.19009 0.53075 0.35486 0.0
C1239 C 0.21367 0.51668 0.34241 0.0
C1240 C 0.20241 0.5393 0.37222 0.0
C1241 C 0.22561 0.5256 0.35994 0.0
C1242 C 0.14659 0.54357 0.3017 0.0
C1243 C 0.11992 0.55759 0.29769 0.0
N1244 N 0.12913 0.57375 0.31046 0.0
C1245 C 0.15577 0.56026 0.31489 0.0
C1246 C 0.12852 0.54219 0.29303 0.0
C1247 C 0.14672 0.5754 0.31904 0.0
C1248 C 0.19431 0.5626 0.28467 0.0
N1249 N 0.19714 0.55462 0.30182 0.0
C1250 C 0.21782 0.58481 0.31741 0.0
C1251 C 0.20872 0.56549 0.31812 0.0
C1252 C 0.21523 0.59337 0.29974 0.0
C1253 C 0.20315 0.58169 0.2833 0.0
H1254 H 0.18484 0.55419 0.27193 0.0
H1255 H 0.21078 0.55939 0.33188 0.0
C1256 C 0.14349 0.49843 0.35603 0.0
N1257 N 0.14207 0.51047 0.34174 0.0
C1258 C 0.13501 0.50031 0.37326 0.0
C1259 C 0.12332 0.52688 0.36143 0.0
C1260 C 0.13207 0.52459 0.34451 0.0
C1261 C 0.12456 0.51473 0.37646 0.0
H1262 H 0.1514 0.48727 0.35427 0.0
H1263 H 0.13084 0.53444 0.3337 0.0
C1264 C 0.19309 0.51297 0.2653 0.0
N1265 N 0.21839 0.52556 0.2421 0.0
C1266 C 0.18774 0.51272 0.24482 0.0
C1267 C 0.21129 0.51959 0.27403 0.0
C1268 C 0.20075 0.51906 0.23331 0.0
C1269 C 0.22387 0.526 0.26204 0.0
C1270 C 0.13709 0.46963 0.29622 0.0
C1271 C 0.13945 0.45037 0.29502 0.0
C1272 C 0.12056 0.47405 0.29964 0.0
C1273 C 0.12508 0.43573 0.29712 0.0
C1274 C 0.10657 0.459 0.30179 0.0
N1275 N 0.10909 0.44032 0.30046 0.0
C1276 C 0.1948 0.45331 0.31362 0.0
C1277 C 0.20172 0.45871 0.28225 0.0
C1278 C 0.20375 0.43705 0.31341 0.0
N1279 N 0.19362 0.46408 0.29812 0.0
C1280 C 0.21083 0.44257 0.28149 0.0
C1281 C 0.21211 0.43093 0.29713 0.0
H1282 H 0.18871 0.45721 0.32646 0.0
H1283 H 0.20112 0.46689 0.26979 0.0
C1284 C 0.13524 0.52448 0.24182 0.0
N1285 N 0.1376 0.5068 0.24709 0.0
C1286 C 0.12575 0.52627 0.22268 0.0
C1287 C 0.12101 0.49174 0.21378 0.0
C1288 C 0.13047 0.49056 0.23317 0.0
C1289 C 0.11836 0.50982 0.20784 0.0
H1290 H 0.14096 0.53755 0.25243 0.0
H1291 H 0.13222 0.47645 0.2369 0.0
O1292 O 0.18371 0.51015 0.32315 0.0
O1293 O 0.15505 0.52843 0.29763 0.0
O1294 O 0.1805 0.50684 0.27673 0.0
O1295 O 0.15103 0.48412 0.29437 0.0
H1296 H 0.17631 0.53297 0.35314 0.0
H1297 H 0.21825 0.50782 0.33097 0.0
H1298 H 0.19817 0.5481 0.38399 0.0
H1299 H 0.23951 0.52372 0.3621 0.0
H1300 H 0.10591 0.55667 0.29118 0.0
H1301 H 0.16965 0.56144 0.32199 0.0
H1302 H 0.12118 0.52925 0.28299 0.0
H1303 H 0.15365 0.58842 0.32919 0.0
H1304 H 0.22693 0.59289 0.3306 0.0
H1305 H 0.20012 0.58736 0.26942 0.0
H1306 H 0.13653 0.49027 0.38393 0.0
H1307 H 0.11585 0.53849 0.36281 0.0
H1308 H 0.17369 0.50757 0.23787 0.0
H1309 H 0.21559 0.51995 0.28991 0.0
H1310 H 0.19683 0.51884 0.21741 0.0
H1311 H 0.23799 0.53132 0.26858 0.0
H1312 H 0.15222 0.44679 0.29244 0.0
H1313 H 0.11863 0.48895 0.30075 0.0
H1314 H 0.12666 0.42073 0.29613 0.0
H1315 H 0.0937 0.46218 0.30452 0.0
H1316 H 0.20418 0.42946 0.32629 0.0
H1317 H 0.21658 0.43914 0.2683 0.0
H1318 H 0.12463 0.54072 0.21949 0.0
H1319 H 0.11565 0.47835 0.20357 0.0
Li1320 Li 0.78687 0.88944 0.54107 0.0
Li1321 Li 0.80129 0.86619 0.56171 0.0
Li1322 Li 0.82186 0.89188 0.54363 0.0
Li1323 Li 0.79851 0.86214 0.52464 0.0
C1324 C 0.80407 0.90944 0.58036 0.0
N1325 N 0.79859 0.93652 0.61018 0.0
C1326 C 0.79519 0.90329 0.59571 0.0
C1327 C 0.81019 0.92932 0.58014 0.0
C1328 C 0.79256 0.91722 0.61067 0.0
C1329 C 0.80725 0.9428 0.59535 0.0
C1330 C 0.76403 0.84677 0.53545 0.0
C1331 C 0.74994 0.81294 0.52441 0.0
N1332 N 0.73334 0.81768 0.52336 0.0
C1333 C 0.74681 0.85127 0.53438 0.0
C1334 C 0.76563 0.82743 0.53061 0.0
C1335 C 0.73147 0.83637 0.52823 0.0
C1336 C 0.75564 0.89911 0.51879 0.0
N1337 N 0.76622 0.90252 0.53726 0.0
C1338 C 0.74592 0.92122 0.54998 0.0
C1339 C 0.7615 0.91324 0.55277 0.0
C1340 C 0.7348 0.91813 0.53105 0.0
C1341 C 0.73986 0.90677 0.51535 0.0
H1342 H 0.75931 0.89015 0.50672 0.0
H1343 H 0.76961 0.9154 0.56746 0.0
C1344 C 0.81433 0.84908 0.59645 0.0
N1345 N 0.79931 0.85219 0.58484 0.0
C1346 C 0.81282 0.83941 0.6132 0.0
C1347 C 0.78038 0.83583 0.60564 0.0
C1348 C 0.78251 0.84556 0.58904 0.0
C1349 C 0.79567 0.83276 0.61824 0.0
H1350 H 0.82755 0.8542 0.59278 0.0
H1351 H 0.77069 0.8481 0.57966 0.0
C1352 C 0.80008 0.89913 0.50381 0.0
N1353 N 0.79448 0.91802 0.47089 0.0
C1354 C 0.80155 0.89027 0.4849 0.0
C1355 C 0.79605 0.91773 0.50602 0.0
C1356 C 0.79857 0.90001 0.46843 0.0
C1357 C 0.79321 0.92702 0.48918 0.0
C1358 C 0.83034 0.84913 0.54092 0.0
C1359 C 0.84595 0.85377 0.53253 0.0
C1360 C 0.82439 0.83005 0.54439 0.0
C1361 C 0.85527 0.83911 0.52747 0.0
C1362 C 0.83405 0.81579 0.53904 0.0
N1363 N 0.84915 0.82057 0.53076 0.0
C1364 C 0.86135 0.90781 0.55663 0.0
C1365 C 0.84817 0.92002 0.52856 0.0
C1366 C 0.87866 0.91868 0.55553 0.0
N1367 N 0.84639 0.90858 0.54324 0.0
C1368 C 0.86515 0.93121 0.52704 0.0
C1369 C 0.88088 0.93076 0.5406 0.0
H1370 H 0.85993 0.89858 0.56813 0.0
H1371 H 0.8364 0.92041 0.51778 0.0
C1372 C 0.7773 0.84471 0.48774 0.0
N1373 N 0.7928 0.84411 0.50023 0.0
C1374 C 0.77365 0.83478 0.46821 0.0
C1375 C 0.80112 0.82246 0.47532 0.0
C1376 C 0.80445 0.83295 0.49447 0.0
C1377 C 0.7859 0.82385 0.4618 0.0
H1378 H 0.76835 0.85387 0.49258 0.0
H1379 H 0.81684 0.83288 0.50415 0.0
O1380 O 0.80705 0.89603 0.56581 0.0
O1381 O 0.77917 0.86128 0.54125 0.0
O1382 O 0.80238 0.88958 0.52003 0.0
O1383 O 0.82079 0.86317 0.54541 0.0
H1384 H 0.79036 0.88796 0.59607 0.0
H1385 H 0.8171 0.93426 0.56834 0.0
H1386 H 0.78573 0.91268 0.62266 0.0
H1387 H 0.81188 0.95825 0.59539 0.0
H1388 H 0.75097 0.79794 0.52043 0.0
H1389 H 0.74528 0.86608 0.53844 0.0
H1390 H 0.77885 0.82367 0.53145 0.0
H1391 H 0.71808 0.83966 0.52735 0.0
H1392 H 0.74246 0.92946 0.56271 0.0
H1393 H 0.73184 0.90397 0.50048 0.0
H1394 H 0.82503 0.83712 0.62206 0.0
H1395 H 0.76687 0.83124 0.60881 0.0
H1396 H 0.80504 0.87607 0.48294 0.0
H1397 H 0.79502 0.92486 0.52058 0.0
H1398 H 0.79955 0.89326 0.4537 0.0
H1399 H 0.78996 0.94136 0.49065 0.0
H1400 H 0.85067 0.86847 0.5297 0.0
H1401 H 0.81228 0.82626 0.55083 0.0
H1402 H 0.86731 0.84244 0.52084 0.0
H1403 H 0.82952 0.8009 0.5414 0.0
H1404 H 0.89016 0.9178 0.5665 0.0
H1405 H 0.86595 0.93992 0.51503 0.0
H1406 H 0.76184 0.83626 0.458 0.0
H1407 H 0.81103 0.81446 0.47066 0.0
Li1408 Li 0.95361 0.00879 0.28164 0.0
Li1409 Li 0.92556 0.98583 0.26226 0.0
Li1410 Li 0.9493 1.00716 0.24492 0.0
Li1411 Li 0.92882 0.02235 0.26523 0.0
C1412 C 0.96398 0.97427 0.2663 0.0
N1413 N 0.98883 0.95204 0.27807 0.0
C1414 C 0.95818 0.95621 0.27231 0.0
C1415 C 0.98235 0.98095 0.26603 0.0
C1416 C 0.97097 0.94521 0.27827 0.0
C1417 C 0.99472 0.9695 0.27211 0.0
C1418 C 0.9184 1.0071 0.30095 0.0
C1419 C 0.88976 0.009 0.31125 0.0
N1420 N 0.89781 0.01087 0.33069 0.0
C1421 C 0.92639 0.00903 0.32104 0.0
C1422 C 0.89992 1.00697 0.29597 0.0
C1423 C 0.91575 0.01087 0.33585 0.0
C1424 C 0.97606 0.03116 0.31585 0.0
N1425 N 0.97036 0.01272 0.30582 0.0
C1426 C 0.98486 0.99975 0.33309 0.0
C1427 C 0.97447 0.99712 0.31409 0.0
C1428 C 0.99086 0.01861 0.34382 0.0
C1429 C 0.98668 0.03449 0.33478 0.0
H1430 H 0.97169 0.04324 0.30963 0.0
H1431 H 0.96885 0.98255 0.30653 0.0
C1432 C 0.90207 0.94806 0.24557 0.0
N1433 N 0.90911 0.9612 0.26237 0.0
C1434 C 0.89028 0.93047 0.24662 0.0
C1435 C 0.89314 0.94029 0.28211 0.0
C1436 C 0.90503 0.95743 0.28044 0.0
C1437 C 0.88549 0.92648 0.26508 0.0
H1438 H 0.90558 0.95122 0.23135 0.0
H1439 H 0.9111 0.96768 0.29373 0.0
C1440 C 0.9681 0.04706 0.27076 0.0
N1441 N 0.99462 0.08061 0.28197 0.0
C1442 C 0.96334 0.06534 0.2727 0.0
C1443 C 0.98638 0.04587 0.27433 0.0
C1444 C 0.97694 0.08212 0.27837 0.0
C1445 C 0.99958 0.063 0.2801 0.0
C1446 C 0.90839 1.00469 0.22606 0.0
C1447 C 0.91265 0.01265 0.20913 0.0
C1448 C 0.89028 0.99873 0.22796 0.0
C1449 C 0.89863 0.01454 0.19431 0.0
C1450 C 0.87665 1.00089 0.21281 0.0
N1451 N 0.88107 0.00867 0.19643 0.0
C1452 C 0.95909 0.99366 0.20748 0.0
C1453 C 0.97236 0.0264 0.22112 0.0
C1454 C 0.96763 0.99543 0.19075 0.0
N1455 N 0.96147 0.00909 0.22217 0.0
C1456 C 0.98136 0.02872 0.20489 0.0
C1457 C 0.9789 0.01324 0.18916 0.0
H1458 H 0.95033 0.98004 0.20859 0.0
H1459 H 0.97399 0.03856 0.23277 0.0
C1460 C 0.91679 0.05182 0.28794 0.0
N1461 N 0.91664 0.04354 0.2689 0.0
C1462 C 0.90811 0.06736 0.29153 0.0
C1463 C 0.90054 0.06663 0.25585 0.0
C1464 C 0.90905 0.05087 0.25295 0.0
C1465 C 0.89962 0.07488 0.27536 0.0
H1466 H 0.92369 0.0464 0.30041 0.0
H1467 H 0.90981 0.04467 0.23798 0.0
O1468 O 0.95166 0.98531 0.26074 0.0
O1469 O 0.92867 1.00534 0.28627 0.0
O1470 O 0.95488 0.03048 0.26546 0.0
O1471 O 0.92191 1.00212 0.24035 0.0
H1472 H 0.94398 0.95085 0.27257 0.0
H1473 H 0.987 0.99488 0.26133 0.0
H1474 H 0.96671 0.93126 0.2831 0.0
H1475 H 0.00902 0.97451 0.27211 0.0
H1476 H 0.87547 0.00909 0.30764 0.0
H1477 H 0.94064 0.00903 0.32517 0.0
H1478 H 0.89355 1.00551 0.28049 0.0
H1479 H 0.92175 0.01233 0.35145 0.0
H1480 H 0.98719 0.98701 0.33972 0.0
H1481 H 0.99096 0.04929 0.34253 0.0
H1482 H 0.8847 0.9203 0.23307 0.0
H1483 H 0.89016 0.93777 0.29672 0.0
H1484 H 0.94931 0.06662 0.26979 0.0
H1485 H 0.9903 0.03184 0.27289 0.0
H1486 H 0.97343 0.09634 0.27992 0.0
H1487 H 0.01377 0.06229 0.28311 0.0
H1488 H 0.92662 0.01724 0.20743 0.0
H1489 H 0.88682 0.99241 0.24094 0.0
H1490 H 0.9017 0.02063 0.18109 0.0
H1491 H 0.86256 0.99633 0.21403 0.0
H1492 H 0.96502 0.98309 0.179 0.0
H1493 H 0.99015 0.04262 0.20478 0.0
H1494 H 0.90785 0.07315 0.30683 0.0
H1495 H 0.89485 0.07234 0.24286 0.0
Li1496 Li 0.32037 0.70506 0.5776 0.0
Li1497 Li 0.33037 0.67889 0.5584 0.0
Li1498 Li 0.32129 0.70613 0.54327 0.0
Li1499 Li 0.29889 0.68048 0.55248 0.0
C1500 C 0.35558 0.72154 0.56381 0.0
N1501 N 0.38428 0.75202 0.56457 0.0
C1502 C 0.37283 0.71786 0.56265 0.0
C1503 C 0.35292 0.74072 0.56539 0.0
C1504 C 0.38718 0.73348 0.56309 0.0
C1505 C 0.36759 0.75592 0.56567 0.0
C1506 C 0.31326 0.66407 0.59126 0.0
C1507 C 0.30514 0.6316 0.59943 0.0
N1508 N 0.31123 0.63865 0.61912 0.0
C1509 C 0.31948 0.671 0.61156 0.0
C1510 C 0.30602 0.64422 0.5851 0.0
C1511 C 0.31832 0.65792 0.62541 0.0
C1512 C 0.31085 0.72793 0.60738 0.0
N1513 N 0.32496 0.72187 0.60062 0.0
C1514 C 0.34629 0.74807 0.6209 0.0
C1515 C 0.34244 0.73093 0.60758 0.0
C1516 C 0.33199 0.75519 0.62777 0.0
C1517 C 0.31404 0.74475 0.62103 0.0
H1518 H 0.29714 0.72011 0.60154 0.0
H1519 H 0.35336 0.72517 0.60236 0.0
C1520 C 0.35501 0.66537 0.54117 0.0
N1521 N 0.34691 0.66336 0.55738 0.0
C1522 C 0.36821 0.65496 0.53767 0.0
C1523 C 0.3644 0.64056 0.56775 0.0
C1524 C 0.35132 0.65151 0.57079 0.0
C1525 C 0.37291 0.64235 0.551 0.0
H1526 H 0.35113 0.67512 0.53098 0.0
H1527 H 0.34474 0.65054 0.58371 0.0
C1528 C 0.28776 0.71994 0.55762 0.0
N1529 N 0.26105 0.74149 0.56042 0.0
C1530 C 0.26967 0.71173 0.54931 0.0
C1531 C 0.29225 0.73933 0.56696 0.0
C1532 C 0.25638 0.7228 0.55095 0.0
C1533 C 0.27856 0.74991 0.56836 0.0
C1534 C 0.30889 0.66354 0.51692 0.0
C1535 C 0.30381 0.66788 0.49771 0.0
C1536 C 0.30753 0.64413 0.52003 0.0
C1537 C 0.29729 0.65264 0.48188 0.0
C1538 C 0.30098 0.6293 0.50379 0.0
N1539 N 0.29602 0.63383 0.48523 0.0
C1540 C 0.33503 0.71659 0.51042 0.0
C1541 C 0.31939 0.739 0.52541 0.0
C1542 C 0.33431 0.72543 0.49328 0.0
N1543 N 0.32639 0.72266 0.5252 0.0
C1544 C 0.31847 0.74838 0.50868 0.0
C1545 C 0.32433 0.74021 0.49174 0.0
H1546 H 0.3407 0.70364 0.51106 0.0
H1547 H 0.31299 0.7436 0.53767 0.0
C1548 C 0.26861 0.65979 0.56268 0.0
N1549 N 0.27582 0.66492 0.54661 0.0
C1550 C 0.25209 0.6469 0.55996 0.0
C1551 C 0.25023 0.64574 0.52414 0.0
C1552 C 0.26688 0.65866 0.52759 0.0
C1553 C 0.24286 0.63948 0.54048 0.0
H1554 H 0.27592 0.66542 0.57761 0.0
H1555 H 0.27264 0.66363 0.51513 0.0
O1556 O 0.34163 0.70651 0.56458 0.0
O1557 O 0.31336 0.6769 0.5777 0.0
O1558 O 0.30083 0.70893 0.55692 0.0
O1559 O 0.31515 0.67832 0.53254 0.0
H1560 H 0.37518 0.70314 0.56182 0.0
H1561 H 0.33972 0.74383 0.56668 0.0
H1562 H 0.40064 0.73086 0.56238 0.0
H1563 H 0.36574 0.77084 0.56693 0.0
H1564 H 0.29953 0.6162 0.59491 0.0
H1565 H 0.32494 0.68635 0.61658 0.0
H1566 H 0.30101 0.63866 0.56946 0.0
H1567 H 0.32298 0.66309 0.64118 0.0
H1568 H 0.36027 0.75531 0.62631 0.0
H1569 H 0.30261 0.74909 0.6267 0.0
H1570 H 0.37435 0.65637 0.52445 0.0
H1571 H 0.36784 0.63088 0.57825 0.0
H1572 H 0.26583 0.69701 0.54158 0.0
H1573 H 0.30618 0.74611 0.57319 0.0
H1574 H 0.24235 0.71651 0.54467 0.0
H1575 H 0.28185 0.76484 0.57576 0.0
H1576 H 0.30471 0.68285 0.49509 0.0
H1577 H 0.31143 0.64057 0.53483 0.0
H1578 H 0.29321 0.65576 0.46695 0.0
H1579 H 0.29981 0.61419 0.50595 0.0
H1580 H 0.33902 0.71894 0.4804 0.0
H1581 H 0.31071 0.75979 0.50794 0.0
H1582 H 0.24695 0.64227 0.57297 0.0
H1583 H 0.24331 0.64058 0.50893 0.0
Li1584 Li 0.42595 0.48526 0.76195 0.0
Li1585 Li 0.45384 0.50869 0.78096 0.0
Li1586 Li 0.42863 0.52121 0.76413 0.0
Li1587 Li 0.44943 0.50633 0.7443 0.0
C1588 C 0.41906 0.50778 0.80054 0.0
N1589 N 0.39915 0.51318 0.83066 0.0
C1590 C 0.42714 0.50933 0.82055 0.0
C1591 C 0.40081 0.50882 0.79583 0.0
C1592 C 0.41684 0.51201 0.83556 0.0
C1593 C 0.39101 0.51169 0.81129 0.0
C1594 C 0.46434 0.47379 0.76624 0.0
C1595 C 0.49497 0.46865 0.77171 0.0
N1596 N 0.48906 0.45157 0.77839 0.0
C1597 C 0.45852 0.45612 0.77299 0.0
C1598 C 0.48266 0.48008 0.76541 0.0
C1599 C 0.47125 0.44511 0.77913 0.0
C1600 C 0.40241 0.44807 0.74543 0.0
N1601 N 0.40935 0.46112 0.76228 0.0
C1602 C 0.39222 0.44087 0.78162 0.0
C1603 C 0.40461 0.45771 0.78019 0.0
C1604 C 0.38474 0.42711 0.76452 0.0
C1605 C 0.39011 0.43084 0.74624 0.0
H1606 H 0.40636 0.45108 0.73136 0.0
H1607 H 0.4105 0.46803 0.79348 0.0
C1608 C 0.47473 0.53207 0.81524 0.0
N1609 N 0.47068 0.51362 0.80512 0.0
C1610 C 0.48517 0.53613 0.8343 0.0
C1611 C 0.48688 0.50208 0.83232 0.0
C1612 C 0.47649 0.49872 0.81329 0.0
C1613 C 0.49105 0.52092 0.84322 0.0
H1614 H 0.46915 0.54349 0.80893 0.0
H1615 H 0.47224 0.48402 0.80566 0.0
C1616 C 0.40843 0.5027 0.72507 0.0
N1617 N 0.38091 0.5062 0.69544 0.0
C1618 C 0.41253 0.51146 0.70853 0.0
C1619 C 0.39038 0.49562 0.72655 0.0
C1620 C 0.39841 0.51309 0.69369 0.0
C1621 C 0.37665 0.4976 0.71142 0.0
C1622 C 0.46783 0.54648 0.76919 0.0
C1623 C 0.46313 0.56479 0.77031 0.0
C1624 C 0.48606 0.54524 0.77352 0.0
C1625 C 0.4767 0.58157 0.77619 0.0
C1626 C 0.49924 0.56237 0.77947 0.0
N1627 N 0.49432 0.58002 0.78068 0.0
C1628 C 0.42021 0.55285 0.78611 0.0
C1629 C 0.40385 0.54571 0.75296 0.0
C1630 C 0.41216 0.56879 0.7901 0.0
N1631 N 0.41599 0.54176 0.76777 0.0
C1632 C 0.3954 0.5614 0.75632 0.0
C1633 C 0.39969 0.57333 0.77501 0.0
H1634 H 0.43014 0.54952 0.79753 0.0
H1635 H 0.40084 0.53695 0.73845 0.0
C1636 C 0.46455 0.49219 0.71081 0.0
N1637 N 0.46174 0.50835 0.72181 0.0
C1638 C 0.47351 0.49392 0.69441 0.0
C1639 C 0.47679 0.52888 0.70116 0.0
C1640 C 0.46775 0.52647 0.71738 0.0
C1641 C 0.47969 0.51247 0.68925 0.0
H1642 H 0.45979 0.47795 0.71476 0.0
H1643 H 0.46533 0.53911 0.72631 0.0
O1644 O 0.42894 0.50491 0.78567 0.0
O1645 O 0.45211 0.48488 0.76054 0.0
O1646 O 0.42207 0.50075 0.73957 0.0
O1647 O 0.45457 0.52992 0.76428 0.0
H1648 H 0.44115 0.50826 0.82449 0.0
H1649 H 0.39434 0.50754 0.7804 0.0
H1650 H 0.4229 0.51315 0.8511 0.0
H1651 H 0.37692 0.51268 0.80789 0.0
H1652 H 0.50923 0.47338 0.77131 0.0
H1653 H 0.44436 0.45108 0.77369 0.0
H1654 H 0.48732 0.49372 0.76016 0.0
H1655 H 0.46698 0.43147 0.78454 0.0
H1656 H 0.38875 0.43853 0.79608 0.0
H1657 H 0.38462 0.42071 0.73264 0.0
H1658 H 0.48801 0.55086 0.84225 0.0
H1659 H 0.49059 0.4898 0.83887 0.0
H1660 H 0.42646 0.51693 0.70717 0.0
H1661 H 0.38705 0.48878 0.73929 0.0
H1662 H 0.40136 0.51983 0.68078 0.0
H1663 H 0.3626 0.49227 0.71237 0.0
H1664 H 0.44915 0.56608 0.76663 0.0
H1665 H 0.48993 0.53119 0.77273 0.0
H1666 H 0.47322 0.59581 0.77719 0.0
H1667 H 0.51337 0.56164 0.78319 0.0
H1668 H 0.41605 0.57776 0.80462 0.0
H1669 H 0.38566 0.56421 0.74434 0.0
H1670 H 0.47563 0.48084 0.68592 0.0
H1671 H 0.48103 0.54345 0.69772 0.0
Li1672 Li 0.6567 0.00947 0.81714 0.0
Li1673 Li 0.68215 0.02869 0.80147 0.0
Li1674 Li 0.65379 1.00721 0.77618 0.0
Li1675 Li 0.67991 0.98961 0.79874 0.0
C1676 C 0.64663 0.04414 0.80259 0.0
N1677 N 0.6279 0.0731 0.81175 0.0
C1678 C 0.65577 0.06189 0.81401 0.0
C1679 C 0.62799 0.04113 0.79581 0.0
C1680 C 0.64606 0.07636 0.81846 0.0
C1681 C 0.61875 0.05594 0.80063 0.0
C1682 C 0.69663 0.01953 0.84014 0.0
C1683 C 0.72681 0.02514 0.85928 0.0
N1684 N 0.72146 0.03586 0.87432 0.0
C1685 C 0.69148 0.03071 0.85573 0.0
C1686 C 0.71445 0.01671 0.84189 0.0
C1687 C 0.70419 0.03878 0.87292 0.0
C1688 C 0.63502 0.99537 0.8495 0.0
N1689 N 0.64235 0.01149 0.84175 0.0
C1690 C 0.63196 0.03148 0.86772 0.0
C1691 C 0.64075 0.02937 0.8508 0.0
C1692 C 0.62415 0.01511 0.87597 0.0
C1693 C 0.62589 0.99683 0.86624 0.0
H1694 H 0.6363 0.98112 0.84283 0.0
H1695 H 0.64659 0.04234 0.84518 0.0
C1696 C 0.69617 0.06431 0.78599 0.0
N1697 N 0.69815 0.05576 0.80292 0.0
C1698 C 0.70501 0.0837 0.78568 0.0
C1699 C 0.71816 0.08573 0.8202 0.0
C1700 C 0.70905 0.06622 0.81989 0.0
C1701 C 0.71613 0.09486 0.80294 0.0
H1702 H 0.68732 0.05618 0.77267 0.0
H1703 H 0.71043 0.05969 0.83344 0.0
C1704 C 0.63747 0.97059 0.79608 0.0
N1705 N 0.60946 0.9411 0.79994 0.0
C1706 C 0.64007 0.95144 0.79544 0.0
C1707 C 0.62067 0.9748 0.79866 0.0
C1708 C 0.6257 0.93671 0.79734 0.0
C1709 C 0.60669 0.95967 0.80068 0.0
C1710 C 0.69353 0.01358 0.76539 0.0
C1711 C 0.68798 0.01267 0.74484 0.0
C1712 C 0.7118 0.02023 0.77381 0.0
C1713 C 0.70086 0.01841 0.73297 0.0
C1714 C 0.72425 0.02601 0.76145 0.0
N1715 N 0.71857 0.02494 0.74145 0.0
C1716 C 0.63937 0.02566 0.74057 0.0
C1717 C 0.6273 0.99212 0.73565 0.0
C1718 C 0.63 0.0275 0.72139 0.0
N1719 N 0.63815 0.00814 0.74765 0.0
C1720 C 0.61764 0.99334 0.71636 0.0
C1721 C 0.61872 0.01123 0.70835 0.0
H1722 H 0.64789 0.03852 0.74976 0.0
H1723 H 0.6261 0.97811 0.74087 0.0
C1724 C 0.69496 0.95421 0.81387 0.0
N1725 N 0.69393 0.96498 0.79836 0.0
C1726 C 0.70385 0.93792 0.81376 0.0
C1727 C 0.71118 0.9434 0.78192 0.0
C1728 C 0.70212 0.95957 0.78258 0.0
C1729 C 0.71231 0.93177 0.79758 0.0
H1730 H 0.6888 0.95814 0.82664 0.0
H1731 H 0.70164 0.96775 0.77012 0.0
O1732 O 0.65584 0.02972 0.79816 0.0
O1733 O 0.68417 0.01097 0.8235 0.0
O1734 O 0.65144 0.98519 0.79453 0.0
O1735 O 0.68108 0.00805 0.77717 0.0
H1736 H 0.67013 0.06439 0.81964 0.0
H1737 H 0.62073 0.02745 0.78699 0.0
H1738 H 0.65294 0.09014 0.82732 0.0
H1739 H 0.6043 0.05379 0.79555 0.0
H1740 H 0.74065 0.02309 0.86085 0.0
H1741 H 0.67781 0.03311 0.85461 0.0
H1742 H 0.71865 0.00808 0.82997 0.0
H1743 H 0.70034 0.04736 0.88513 0.0
H1744 H 0.63114 0.046 0.87412 0.0
H1745 H 0.6205 0.98357 0.87176 0.0
H1746 H 0.70295 0.09003 0.77203 0.0
H1747 H 0.72649 0.09371 0.83393 0.0
H1748 H 0.65304 0.94801 0.79346 0.0
H1749 H 0.61855 0.98961 0.79934 0.0
H1750 H 0.62748 0.92179 0.79679 0.0
H1751 H 0.59364 0.9627 0.80285 0.0
H1752 H 0.67388 1.00745 0.73812 0.0
H1753 H 0.71626 0.02109 0.78974 0.0
H1754 H 0.69677 0.01768 0.71701 0.0
H1755 H 0.73842 0.03132 0.76775 0.0
H1756 H 0.63194 0.04185 0.71701 0.0
H1757 H 0.6094 0.97999 0.70795 0.0
H1758 H 0.70417 0.93032 0.82664 0.0
H1759 H 0.71702 0.93993 0.7688 0.0
Li1760 Li 0.77651 0.68323 0.03649 0.0
Li1761 Li 0.78806 0.6556 0.02105 0.0
Li1762 Li 0.77383 0.67873 0.99966 0.0
Li1763 Li 0.75317 0.6535 0.01765 0.0
C1764 C 0.8112 0.69822 0.02599 0.0
N1765 N 0.84166 0.72752 0.03855 0.0
C1766 C 0.82731 0.69396 0.03541 0.0
C1767 C 0.81065 0.71734 0.0228 0.0
C1768 C 0.84255 0.70898 0.04167 0.0
C1769 C 0.82618 0.73196 0.02934 0.0
C1770 C 0.77466 0.64616 0.05773 0.0
C1771 C 0.76993 0.61643 0.07221 0.0
N1772 N 0.78013 0.6261 0.08976 0.0
C1773 C 0.78509 0.65582 0.0759 0.0
C1774 C 0.76698 0.62632 0.05584 0.0
C1775 C 0.78769 0.64541 0.09193 0.0
C1776 C 0.76551 0.7051 0.06761 0.0
N1777 N 0.78043 0.70199 0.06004 0.0
C1778 C 0.79985 0.72244 0.08822 0.0
C1779 C 0.79741 0.71041 0.06995 0.0
C1780 C 0.78465 0.72571 0.09643 0.0
C1781 C 0.76731 0.71717 0.08573 0.0
H1782 H 0.75219 0.69757 0.06002 0.0
H1783 H 0.80912 0.70708 0.06433 0.0
C1784 C 0.81873 0.64264 0.00936 0.0
N1785 N 0.80829 0.64198 0.0239 0.0
C1786 C 0.8347 0.63527 0.01136 0.0
C1787 C 0.829 0.62644 0.04321 0.0
C1788 C 0.8132 0.63409 0.04065 0.0
C1789 C 0.84013 0.62699 0.0285 0.0
H1790 H 0.8149 0.64942 0.99641 0.0
H1791 H 0.80512 0.63395 0.05231 0.0
C1792 C 0.74487 0.69635 0.01928 0.0
N1793 N 0.72561 0.72507 0.02734 0.0
C1794 C 0.72649 0.69131 0.02046 0.0
C1795 C 0.75345 0.71599 0.02204 0.0
C1796 C 0.71697 0.70604 0.02448 0.0
C1797 C 0.7435 0.7303 0.02625 0.0
C1798 C 0.76886 0.63566 0.9803 0.0
C1799 C 0.76557 0.64026 0.96093 0.0
C1800 C 0.77261 0.61744 0.98325 0.0
C1801 C 0.76611 0.62649 0.94474 0.0
C1802 C 0.77306 0.60407 0.96665 0.0
N1803 N 0.76982 0.60884 0.94791 0.0
C1804 C 0.79232 0.69758 0.97121 0.0
C1805 C 0.76079 0.69674 0.96582 0.0
C1806 C 0.79436 0.70747 0.95472 0.0
N1807 N 0.77571 0.69232 0.97641 0.0
C1808 C 0.76219 0.70641 0.94908 0.0
C1809 C 0.77915 0.71186 0.94319 0.0
H1810 H 0.80404 0.69401 0.97983 0.0
H1811 H 0.74774 0.69265 0.9703 0.0
C1812 C 0.72324 0.63657 0.03619 0.0
N1813 N 0.72883 0.63715 0.01816 0.0
C1814 C 0.70611 0.62573 0.0377 0.0
C1815 C 0.70041 0.61624 1.00205 0.0
C1816 C 0.71771 0.6272 1.00123 0.0
C1817 C 0.69419 0.61525 0.02049 0.0
H1818 H 0.7321 0.64459 0.04955 0.0
H1819 H 0.72216 0.62786 0.98696 0.0
O1820 O 0.79608 0.68372 0.01998 0.0
O1821 O 0.77198 0.65605 0.04184 0.0
O1822 O 0.75438 0.68204 0.0157 0.0
O1823 O 0.76858 0.64907 0.99627 0.0
H1824 H 0.82799 0.67929 0.03811 0.0
H1825 H 0.79835 0.72087 0.01543 0.0
H1826 H 0.85507 0.70591 0.04906 0.0
H1827 H 0.82591 0.74685 0.02708 0.0
H1828 H 0.76413 0.60105 0.07096 0.0
H1829 H 0.79122 0.67112 0.07761 0.0
H1830 H 0.75892 0.61865 0.04184 0.0
H1831 H 0.79574 0.65269 0.10607 0.0
H1832 H 0.81346 0.72856 0.09618 0.0
H1833 H 0.75526 0.71883 0.09184 0.0
H1834 H 0.84289 0.6365 0.99974 0.0
H1835 H 0.83235 0.62008 0.0566 0.0
H1836 H 0.71965 0.67615 0.01829 0.0
H1837 H 0.76769 0.72011 0.02129 0.0
H1838 H 0.70272 0.70235 0.02539 0.0
H1839 H 0.75 0.74556 0.02868 0.0
H1840 H 0.76257 0.65427 0.95841 0.0
H1841 H 0.77523 0.61371 0.99819 0.0
H1842 H 0.76357 0.62985 0.92965 0.0
H1843 H 0.77599 0.58991 0.96867 0.0
H1844 H 0.80769 0.7112 0.95077 0.0
H1845 H 0.7501 0.70969 0.94089 0.0
H1846 H 0.70242 0.62545 0.05237 0.0
H1847 H 0.69191 0.6089 0.98818 0.0
Li1848 Li 0.89264 0.51779 0.76034 0.0
Li1849 Li 0.92133 0.53922 0.7853 0.0
Li1850 Li 0.89544 0.55724 0.7627 0.0
Li1851 Li 0.9182 0.53735 0.7444 0.0
C1852 C 0.8816 0.53408 0.79645 0.0
N1853 N 0.85607 0.52228 0.81969 0.0
C1854 C 0.88694 0.52843 0.81499 0.0
C1855 C 0.86333 0.53397 0.78981 0.0
C1856 C 0.87381 0.52244 0.82649 0.0
C1857 C 0.85062 0.52791 0.80179 0.0
C1858 C 0.92829 0.50223 0.75984 0.0
C1859 C 0.95409 0.49097 0.7497 0.0
N1860 N 0.94651 0.47249 0.75192 0.0
C1861 C 0.92084 0.48315 0.7622 0.0
C1862 C 0.94512 0.50622 0.7537 0.0
C1863 C 0.93023 0.46831 0.75807 0.0
C1864 C 0.87258 0.47716 0.74134 0.0
N1865 N 0.87638 0.49067 0.75827 0.0
C1866 C 0.86206 0.46609 0.77606 0.0
C1867 C 0.87108 0.48521 0.77535 0.0
C1868 C 0.85852 0.45159 0.75918 0.0
C1869 C 0.86364 0.45763 0.74145 0.0
H1870 H 0.8771 0.48125 0.72785 0.0
H1871 H 0.87442 0.49541 0.7889 0.0
C1872 C 0.94158 0.55363 0.82894 0.0
N1873 N 0.93719 0.53818 0.81377 0.0
C1874 C 0.95112 0.55234 0.84825 0.0
C1875 C 0.95194 0.51929 0.83678 0.0
C1876 C 0.94238 0.52118 0.8177 0.0
C1877 C 0.95661 0.53493 0.85292 0.0
H1878 H 0.93744 0.56713 0.82632 0.0
H1879 H 0.93897 0.50871 0.80603 0.0
C1880 C 0.87926 0.52887 0.72062 0.0
N1881 N 0.85661 0.51443 0.68448 0.0
C1882 C 0.88518 0.53222 0.70267 0.0
C1883 C 0.86174 0.51837 0.7202 0.0
C1884 C 0.87356 0.52474 0.68456 0.0
C1885 C 0.8505 0.51115 0.70177 0.0
C1886 C 0.9376 0.57524 0.76322 0.0
C1887 C 0.9335 0.59055 0.75331 0.0
C1888 C 0.95564 0.57378 0.76873 0.0
C1889 C 0.94762 0.60426 0.74908 0.0
C1890 C 0.96937 0.58775 0.76416 0.0
N1891 N 0.96511 0.60257 0.75452 0.0
C1892 C 0.87594 0.58933 0.78011 0.0
C1893 C 0.87731 0.59034 0.74627 0.0
C1894 C 0.8668 0.60544 0.78081 0.0
N1895 N 0.88128 0.58178 0.76303 0.0
C1896 C 0.86829 0.60656 0.74639 0.0
C1897 C 0.86271 0.61482 0.76386 0.0
H1898 H 0.8788 0.58294 0.79358 0.0
H1899 H 0.88115 0.58467 0.73248 0.0
C1900 C 0.92733 0.51763 0.70608 0.0
N1901 N 0.93189 0.53461 0.71937 0.0
C1902 C 0.93571 0.51498 0.6889 0.0
C1903 C 0.95396 0.54699 0.6989 0.0
C1904 C 0.94507 0.54917 0.71573 0.0
C1905 C 0.94945 0.52971 0.68482 0.0
H1906 H 0.91698 0.50593 0.70868 0.0
H1907 H 0.9488 0.56275 0.72581 0.0
O1908 O 0.89411 0.539 0.78455 0.0
O1909 O 0.91897 0.51684 0.76293 0.0
O1910 O 0.89076 0.53536 0.73845 0.0
O1911 O 0.92398 0.56162 0.76732 0.0
H1912 H 0.90101 0.52829 0.82024 0.0
H1913 H 0.85902 0.53823 0.77544 0.0
H1914 H 0.8777 0.51779 0.84076 0.0
H1915 H 0.83641 0.52759 0.7968 0.0
H1916 H 0.96706 0.49383 0.7448 0.0
H1917 H 0.90799 0.47979 0.76722 0.0
H1918 H 0.95112 0.52092 0.75188 0.0
H1919 H 0.92457 0.45347 0.75974 0.0
H1920 H 0.85818 0.4627 0.79006 0.0
H1921 H 0.86143 0.44723 0.72794 0.0
H1922 H 0.95378 0.56503 0.85956 0.0
H1923 H 0.9557 0.50547 0.83866 0.0
H1924 H 0.89861 0.54053 0.70272 0.0
H1925 H 0.85694 0.51566 0.73396 0.0
H1926 H 0.87801 0.52713 0.67056 0.0
H1927 H 0.83695 0.50289 0.7012 0.0
H1928 H 0.91956 0.5918 0.74893 0.0
H1929 H 0.95897 0.5619 0.7763 0.0
H1930 H 0.94467 0.61621 0.74142 0.0
H1931 H 0.98341 0.58679 0.76823 0.0
H1932 H 0.86327 0.61071 0.79491 0.0
H1933 H 0.86556 0.61242 0.73257 0.0
H1934 H 0.93156 0.50122 0.67901 0.0
H1935 H 0.96416 0.55909 0.69679 0.0
Li1936 Li 0.75637 0.34591 0.52359 0.0
Li1937 Li 0.74385 0.36916 0.50379 0.0
Li1938 Li 0.75297 0.34051 0.48816 0.0
Li1939 Li 0.77544 0.368 0.5064 0.0
C1940 C 0.71986 0.32585 0.50066 0.0
N1941 N 0.69137 0.29407 0.49319 0.0
C1942 C 0.70202 0.3286 0.49819 0.0
C1943 C 0.72324 0.30695 0.49928 0.0
C1944 C 0.6878 0.31234 0.49449 0.0
C1945 C 0.70865 0.29107 0.49544 0.0
C1946 C 0.76967 0.38843 0.54424 0.0
C1947 C 0.7843 0.42153 0.558 0.0
N1948 N 0.784 0.41694 0.57676 0.0
C1949 C 0.76946 0.38405 0.56365 0.0
C1950 C 0.77703 0.40733 0.54133 0.0
C1951 C 0.77677 0.39866 0.57989 0.0
C1952 C 0.77336 0.33237 0.55316 0.0
N1953 N 0.75631 0.3324 0.5443 0.0
C1954 C 0.74422 0.30364 0.55665 0.0
C1955 C 0.74169 0.31909 0.54643 0.0
C1956 C 0.76188 0.30247 0.56491 0.0
C1957 C 0.77649 0.31747 0.56374 0.0
H1958 H 0.78459 0.34314 0.55071 0.0
H1959 H 0.72828 0.31985 0.53932 0.0
C1960 C 0.71669 0.3869 0.48611 0.0
N1961 N 0.72687 0.38412 0.5032 0.0
C1962 C 0.703 0.39743 0.48731 0.0
C1963 C 0.71082 0.40154 0.5235 0.0
C1964 C 0.72421 0.39101 0.52161 0.0
C1965 C 0.70013 0.4047 0.50624 0.0
H1966 H 0.71907 0.38074 0.47173 0.0
H1967 H 0.73228 0.38797 0.5348 0.0
C1968 C 0.78742 0.32954 0.50535 0.0
N1969 N 0.81468 0.30876 0.50305 0.0
C1970 C 0.80219 0.33652 0.49637 0.0
C1971 C 0.78635 0.31177 0.51277 0.0
C1972 C 0.8159 0.32588 0.49549 0.0
C1973 C 0.80028 0.30151 0.51152 0.0
C1974 C 0.76077 0.3794 0.46797 0.0
C1975 C 0.76491 0.37213 0.44968 0.0
C1976 C 0.75987 0.39906 0.47198 0.0
C1977 C 0.7682 0.38473 0.43568 0.0
C1978 C 0.76321 0.41117 0.45757 0.0
N1979 N 0.76728 0.40382 0.43988 0.0
C1980 C 0.7297 0.3217 0.45584 0.0
C1981 C 0.75502 0.30679 0.46309 0.0
C1982 C 0.72327 0.30877 0.43837 0.0
N1983 N 0.74567 0.32096 0.46716 0.0
C1984 C 0.74919 0.29367 0.44561 0.0
C1985 C 0.7339 0.29571 0.43249 0.0
H1986 H 0.72257 0.3331 0.45987 0.0
H1987 H 0.76751 0.30643 0.47261 0.0
C1988 C 0.80986 0.38215 0.5271 0.0
N1989 N 0.79874 0.38275 0.50982 0.0
C1990 C 0.82734 0.39342 0.5313 0.0
C1991 C 0.8215 0.40522 0.49955 0.0
C1992 C 0.80427 0.39365 0.49595 0.0
C1993 C 0.8332 0.40534 0.5175 0.0
H1994 H 0.80498 0.3731 0.53772 0.0
H1995 H 0.79532 0.39367 0.48223 0.0
O1996 O 0.73388 0.34168 0.50459 0.0
O1997 O 0.76221 0.37429 0.52825 0.0
O1998 O 0.7744 0.34032 0.50751 0.0
O1999 O 0.75743 0.3672 0.48174 0.0
H2000 H 0.69922 0.34316 0.49927 0.0
H2001 H 0.73701 0.30459 0.50127 0.0
H2002 H 0.67391 0.31424 0.49267 0.0
H2003 H 0.71105 0.27636 0.49433 0.0
H2004 H 0.79013 0.43622 0.55602 0.0
H2005 H 0.76351 0.36958 0.56615 0.0
H2006 H 0.77716 0.41098 0.52639 0.0
H2007 H 0.77664 0.39547 0.59499 0.0
H2008 H 0.73263 0.29264 0.55783 0.0
H2009 H 0.79024 0.31768 0.57077 0.0
H2010 H 0.69477 0.39978 0.47383 0.0
H2011 H 0.70869 0.40705 0.53826 0.0
H2012 H 0.80314 0.35003 0.49018 0.0
H2013 H 0.77484 0.30592 0.51937 0.0
H2014 H 0.82751 0.33124 0.4888 0.0
H2015 H 0.79965 0.2878 0.5173 0.0
H2016 H 0.7656 0.35692 0.44637 0.0
H2017 H 0.75674 0.4049 0.48611 0.0
H2018 H 0.77146 0.37932 0.42148 0.0
H2019 H 0.76259 0.42642 0.46045 0.0
H2020 H 0.71154 0.3107 0.42832 0.0
H2021 H 0.75781 0.28388 0.4412 0.0
H2022 H 0.83603 0.39303 0.54522 0.0
H2023 H 0.82533 0.4145 0.48866 0.0
Li2024 Li 0.62508 0.53682 0.31599 0.0
Li2025 Li 0.64854 0.55807 0.29903 0.0
Li2026 Li 0.62072 0.53489 0.2794 0.0
Li2027 Li 0.64605 0.52185 0.29531 0.0
C2028 C 0.61031 0.57011 0.29747 0.0
N2029 N 0.58583 0.59413 0.29129 0.0
C2030 C 0.61646 0.5899 0.29676 0.0
C2031 C 0.59174 0.56252 0.29521 0.0
C2032 C 0.60386 0.60182 0.29367 0.0
C2033 C 0.57956 0.5749 0.29196 0.0
C2034 C 0.66661 0.54388 0.3357 0.0
C2035 C 0.69818 0.54509 0.34785 0.0
N2036 N 0.69515 0.54842 0.36696 0.0
C2037 C 0.66379 0.54732 0.35542 0.0
C2038 C 0.68392 0.54281 0.33181 0.0
C2039 C 0.6784 0.5496 0.37103 0.0
C2040 C 0.60706 0.51634 0.3427 0.0
N2041 N 0.61282 0.53461 0.33854 0.0
C2042 C 0.60084 0.54832 0.36619 0.0
C2043 C 0.60972 0.55049 0.34975 0.0
C2044 C 0.59491 0.52958 0.3711 0.0
C2045 C 0.59796 0.51348 0.35879 0.0
H2046 H 0.60954 0.50392 0.33347 0.0
H2047 H 0.61432 0.56488 0.34605 0.0
C2048 C 0.66523 0.5892 0.28122 0.0
N2049 N 0.66479 0.58259 0.29912 0.0
C2050 C 0.67703 0.60653 0.2798 0.0
C2051 C 0.68757 0.61025 0.31536 0.0
C2052 C 0.67563 0.59275 0.31607 0.0
C2053 C 0.68852 0.6174 0.29701 0.0
H2054 H 0.65648 0.58087 0.26793 0.0
H2055 H 0.67503 0.58727 0.33015 0.0
C2056 C 0.6063 0.49727 0.28836 0.0
N2057 N 0.57882 0.46528 0.27325 0.0
C2058 C 0.61034 0.47989 0.27991 0.0
C2059 C 0.58831 0.49829 0.28936 0.0
C2060 C 0.59625 0.46391 0.27228 0.0
C2061 C 0.5746 0.48197 0.28157 0.0
C2062 C 0.6563 0.53794 0.26018 0.0
C2063 C 0.64828 0.53119 0.24024 0.0
C2064 C 0.67516 0.54327 0.26528 0.0
C2065 C 0.65929 0.5297 0.22574 0.0
C2066 C 0.6857 0.54164 0.25031 0.0
N2067 N 0.67762 0.53492 0.23103 0.0
C2068 C 0.59954 0.54759 0.24857 0.0
C2069 C 0.59865 0.51358 0.24393 0.0
C2070 C 0.58963 0.54625 0.22951 0.0
N2071 N 0.60389 0.53142 0.25538 0.0
C2072 C 0.5889 0.51159 0.22464 0.0
C2073 C 0.58471 0.52818 0.21704 0.0
H2074 H 0.6046 0.56174 0.25744 0.0
H2075 H 0.60311 0.50111 0.24912 0.0
C2076 C 0.66649 0.49425 0.30817 0.0
N2077 N 0.65906 0.50149 0.29206 0.0
C2078 C 0.6751 0.47849 0.30549 0.0
C2079 C 0.66825 0.47804 0.26974 0.0
C2080 C 0.65965 0.49363 0.2731 0.0
C2081 C 0.67602 0.47021 0.28605 0.0
H2082 H 0.66548 0.5005 0.32307 0.0
H2083 H 0.65294 0.49901 0.26052 0.0
O2084 O 0.62251 0.55824 0.30002 0.0
O2085 O 0.65233 0.54114 0.32034 0.0
O2086 O 0.61994 0.5131 0.29574 0.0
O2087 O 0.6457 0.53929 0.27459 0.0
H2088 H 0.63081 0.59597 0.29854 0.0
H2089 H 0.5868 0.5472 0.29562 0.0
H2090 H 0.60842 0.61718 0.2931 0.0
H2091 H 0.56513 0.56922 0.28994 0.0
H2092 H 0.71165 0.54418 0.34512 0.0
H2093 H 0.65043 0.54814 0.35862 0.0
H2094 H 0.68627 0.54004 0.3166 0.0
H2095 H 0.67642 0.55225 0.38638 0.0
H2096 H 0.59904 0.56127 0.37518 0.0
H2097 H 0.59333 0.4987 0.36143 0.0
H2098 H 0.67735 0.61112 0.26526 0.0
H2099 H 0.69587 0.61815 0.32913 0.0
H2100 H 0.62417 0.47875 0.27916 0.0
H2101 H 0.58497 0.51157 0.296 0.0
H2102 H 0.59918 0.45042 0.26559 0.0
H2103 H 0.5606 0.48257 0.28215 0.0
H2104 H 0.63373 0.52703 0.236 0.0
H2105 H 0.68156 0.54858 0.28063 0.0
H2106 H 0.65326 0.52441 0.21028 0.0
H2107 H 0.70032 0.5457 0.25403 0.0
H2108 H 0.5866 0.55941 0.22429 0.0
H2109 H 0.58577 0.49747 0.21538 0.0
H2110 H 0.68097 0.47286 0.31846 0.0
H2111 H 0.66831 0.4718 0.25452 0.0
Tb2112 Tb 0.01635 0.01466 0.0226 0.0
Tb2113 Tb 0.05636 0.0303 0.04053 0.0
C2114 C 0.9832 0.01054 0.02188 0.0
C2115 C 0.97242 0.02569 0.01963 0.0
C2116 C 0.97279 0.03969 0.03617 0.0
C2117 C 0.96465 0.05549 0.03384 0.0
C2118 C 0.95572 0.05754 0.01501 0.0
C2119 C 0.95515 0.04358 0.99843 0.0
C2120 C 0.96352 0.02776 1.00072 0.0
C2121 C 0.03562 0.01629 0.99321 0.0
C2122 C 0.03444 0.06003 0.02407 0.0
C2123 C 0.08971 0.03448 0.05049 0.0
C2124 C 0.10037 0.01951 0.04818 0.0
C2125 C 0.09489 1.00469 0.0317 0.0
C2126 C 0.10431 0.98981 0.0296 0.0
C2127 C 0.11928 0.98949 0.04398 0.0
C2128 C 0.12428 1.00363 0.06106 0.0
C2129 C 0.11478 0.01869 0.06316 0.0
C2130 C 0.03306 0.03281 0.06514 0.0
C2131 C 0.03891 0.98369 0.03416 0.0
O2132 O 0.99496 0.01354 0.03849 0.0
O2133 O 0.99002 1.00475 0.00624 0.0
O2134 O 0.04116 0.02068 0.0118 0.0
O2135 O 0.01825 0.00987 0.99068 0.0
O2136 O 0.01955 0.04659 0.02349 0.0
O2137 O 0.05084 0.05636 0.02875 0.0
O2138 O 0.08218 0.03931 0.03374 0.0
O2139 O 0.07847 0.03149 0.06307 0.0
O2140 O 0.03265 0.01904 0.05151 0.0
O2141 O 0.0473 0.04617 0.06539 0.0
O2142 O 0.05362 0.99801 0.03768 0.0
O2143 O 0.02248 0.98685 0.02838 0.0
H2144 H 0.97954 0.03862 0.05098 0.0
H2145 H 0.9648 0.06577 0.04697 0.0
H2146 H 0.94811 0.04483 0.98382 0.0
H2147 H 0.96319 0.0173 0.98769 0.0
H2148 H 0.08336 1.00461 0.02034 0.0
H2149 H 0.10025 0.97882 0.01643 0.0
H2150 H 0.13588 1.00344 0.07225 0.0
H2151 H 0.11873 0.02972 0.07628 0.0
Tb2152 Tb 0.29303 0.76349 0.26088 0.0
Tb2153 Tb 0.28405 0.77988 0.29723 0.0
C2154 C 0.30158 0.75758 0.22735 0.0
C2155 C 0.3074 0.77252 0.21521 0.0
C2156 C 0.29647 0.78587 0.21047 0.0
C2157 C 0.30239 0.80064 0.19981 0.0
C2158 C 0.31932 0.80227 0.19346 0.0
C2159 C 0.33099 0.79016 0.20009 0.0
C2160 C 0.32497 0.77522 0.21069 0.0
C2161 C 0.31703 0.76292 0.29291 0.0
C2162 C 0.30157 0.81044 0.27259 0.0
C2163 C 0.28456 0.78613 0.33365 0.0
C2164 C 0.27357 0.77388 0.34516 0.0
C2165 C 0.27817 0.75625 0.34956 0.0
C2166 C 0.26856 0.74509 0.36135 0.0
C2167 C 0.25449 0.75164 0.36956 0.0
C2168 C 0.24833 0.76781 0.36299 0.0
C2169 C 0.25796 0.77902 0.351 0.0
C2170 C 0.25413 0.7769 0.27039 0.0
C2171 C 0.27164 0.73347 0.28313 0.0
O2172 O 0.28466 0.75493 0.23 0.0
O2173 O 0.31284 0.75858 0.2439 0.0
O2174 O 0.30959 0.77703 0.28893 0.0
O2175 O 0.31004 0.74814 0.27924 0.0
O2176 O 0.29922 0.79527 0.25831 0.0
O2177 O 0.29762 0.80772 0.29034 0.0
O2178 O 0.29662 0.77806 0.3259 0.0
O2179 O 0.27582 0.79539 0.32118 0.0
O2180 O 0.2687 0.77188 0.26686 0.0
O2181 O 0.25639 0.78384 0.28907 0.0
O2182 O 0.27554 0.74811 0.29813 0.0
O2183 O 0.2755 0.73664 0.26541 0.0
H2184 H 0.28315 0.78472 0.21458 0.0
H2185 H 0.29287 0.80957 0.19508 0.0
H2186 H 0.34416 0.79122 0.19563 0.0
H2187 H 0.3339 0.76555 0.21505 0.0
H2188 H 0.28976 0.75142 0.34472 0.0
H2189 H 0.27373 0.73268 0.36596 0.0
H2190 H 0.23735 0.77297 0.3689 0.0
H2191 H 0.25372 0.79215 0.34714 0.0
Tb2192 Tb 0.55692 0.02499 0.52282 0.0
Tb2193 Tb 0.51877 0.02082 0.53769 0.0
C2194 C 0.58905 0.02239 0.51963 0.0
C2195 C 0.60084 1.00766 0.51984 0.0
C2196 C 0.60644 0.9999 0.53723 0.0
C2197 C 0.61908 0.98766 0.53733 0.0
C2198 C 0.62621 0.98271 0.52001 0.0
C2199 C 0.61999 0.98969 0.50241 0.0
C2200 C 0.60756 1.00212 0.50237 0.0
C2201 C 0.52963 0.026 0.49212 0.0
C2202 C 0.53236 0.98313 0.52408 0.0
C2203 C 0.48615 0.02279 0.53903 0.0
C2204 C 0.47443 0.03749 0.54 0.0
C2205 C 0.47518 0.05244 0.52801 0.0
C2206 C 0.46296 0.06517 0.52847 0.0
C2207 C 0.44962 0.06323 0.54087 0.0
C2208 C 0.44945 0.04863 0.55334 0.0
C2209 C 0.46168 0.03601 0.55291 0.0
C2210 C 0.54578 0.01937 0.56844 0.0
C2211 C 0.54415 0.06282 0.53871 0.0
O2212 O 0.58436 0.02915 0.5364 0.0
O2213 O 0.57571 0.01939 0.50453 0.0
O2214 O 0.52905 0.02381 0.51037 0.0
O2215 O 0.54674 0.02827 0.49124 0.0
O2216 O 0.54847 0.994 0.52393 0.0
O2217 O 0.51793 0.9904 0.52698 0.0
O2218 O 0.49227 0.01888 0.52238 0.0
O2219 O 0.49836 0.02356 0.55481 0.0
O2220 O 0.54668 0.0219 0.55028 0.0
O2221 O 0.52856 0.01672 0.56901 0.0
O2222 O 0.52823 0.05204 0.53982 0.0
O2223 O 0.55793 0.05559 0.53333 0.0
H2224 H 0.60148 1.00371 0.55092 0.0
H2225 H 0.62369 0.98247 0.5511 0.0
H2226 H 0.62542 0.98632 0.48893 0.0
H2227 H 0.60359 1.00791 0.48876 0.0
H2228 H 0.48503 0.05414 0.51809 0.0
H2229 H 0.46391 0.07644 0.51896 0.0
H2230 H 0.43942 0.04635 0.56296 0.0
H2231 H 0.46085 0.02469 0.56239 0.0
Tb2232 Tb 0.26841 0.27772 0.77756 0.0
Tb2233 Tb 0.30567 0.26681 0.78304 0.0
C2234 C 0.2364 0.28097 0.78104 0.0
C2235 C 0.22439 0.28328 0.79621 0.0
C2236 C 0.21988 0.26892 0.80835 0.0
C2237 C 0.20666 0.27028 0.82054 0.0
C2238 C 0.19753 0.28599 0.8209 0.0
C2239 C 0.20269 0.30074 0.80937 0.0
C2240 C 0.21587 0.29936 0.7972 0.0
C2241 C 0.29543 0.30479 0.77216 0.0
C2242 C 0.29217 0.28158 0.82116 0.0
C2243 C 0.33764 0.26333 0.77961 0.0
C2244 C 0.34977 0.26098 0.76455 0.0
C2245 C 0.35331 0.2745 0.75128 0.0
C2246 C 0.36657 0.2732 0.73913 0.0
C2247 C 0.37676 0.25842 0.74002 0.0
C2248 C 0.37259 0.24443 0.75268 0.0
C2249 C 0.35933 0.24571 0.76475 0.0
C2250 C 0.27871 0.2397 0.78858 0.0
C2251 C 0.28202 0.26345 0.73941 0.0
O2252 O 0.24141 0.26424 0.77765 0.0
O2253 O 0.24947 0.29575 0.78068 0.0
O2254 O 0.29605 0.29338 0.78506 0.0
O2255 O 0.2788 0.30262 0.76324 0.0
O2256 O 0.27618 0.27974 0.80976 0.0
O2257 O 0.30687 0.27902 0.81393 0.0
O2258 O 0.33275 0.28013 0.78303 0.0
O2259 O 0.32446 0.24862 0.77984 0.0
O2260 O 0.27801 0.25098 0.77548 0.0
O2261 O 0.29522 0.24265 0.79812 0.0
O2262 O 0.29793 0.26497 0.75085 0.0
O2263 O 0.26731 0.26604 0.7466 0.0
H2264 H 0.22613 0.2563 0.808 0.0
H2265 H 0.20309 0.25853 0.82902 0.0
H2266 H 0.19636 0.3133 0.80949 0.0
H2267 H 0.21903 0.31068 0.78806 0.0
H2268 H 0.34627 0.28645 0.75067 0.0
H2269 H 0.36937 0.28432 0.72969 0.0
H2270 H 0.37982 0.23259 0.75354 0.0
H2271 H 0.35692 0.23503 0.77475 0.0
Tb2272 Tb 0.03342 0.04461 0.53477 0.0
Tb2273 Tb 0.04147 1.00252 0.52653 0.0
C2274 C 0.03681 0.08049 0.53628 0.0
C2275 C 0.02869 0.09168 0.52196 0.0
C2276 C 0.03979 0.10171 0.51027 0.0
C2277 C 0.03229 0.11066 0.495 0.0
C2278 C 0.01358 0.11001 0.49136 0.0
C2279 C 1.00239 0.09994 0.50296 0.0
C2280 C 0.00989 0.0907 0.51811 0.0
C2281 C 1.00294 0.0173 0.53265 0.0
C2282 C 0.0275 0.02269 0.4903 0.0
C2283 C 0.0393 0.9669 0.52497 0.0
C2284 C 0.04657 0.95671 0.54082 0.0
C2285 C 0.03614 0.95139 0.55539 0.0
C2286 C 0.04288 0.94178 0.57047 0.0
C2287 C 0.05999 0.93712 0.57099 0.0
C2288 C 0.07101 0.94359 0.55745 0.0
C2289 C 0.06431 0.95336 0.54237 0.0
C2290 C 0.07205 0.02972 0.52916 0.0
C2291 C 0.04687 0.02425 0.57099 0.0
O2292 O 0.04806 0.07066 0.52924 0.0
O2293 O 0.02597 0.07032 0.54626 0.0
O2294 O 0.01882 0.01522 0.53059 0.0
O2295 O 1.00409 0.03603 0.53557 0.0
O2296 O 0.02838 0.03903 0.5024 0.0
O2297 O 0.03076 1.00639 0.49651 0.0
O2298 O 0.02623 0.97558 0.52897 0.0
O2299 O 0.05122 0.97774 0.51678 0.0
O2300 O 0.05615 0.03193 0.531 0.0
O2301 O 0.07076 0.01103 0.52612 0.0
O2302 O 0.04523 1.00763 0.559 0.0
O2303 O 0.04472 0.04079 0.56454 0.0
H2304 H 0.0543 0.10242 0.51279 0.0
H2305 H 0.04125 0.11868 0.4865 0.0
H2306 H 0.98792 0.09937 0.50039 0.0
H2307 H 1.00096 0.08273 0.52666 0.0
H2308 H 0.02253 0.95407 0.55481 0.0
H2309 H 0.03415 0.93648 0.58069 0.0
H2310 H 0.08412 0.93966 0.55753 0.0
H2311 H 0.07278 0.95766 0.53157 0.0
Tb2312 Tb 0.28605 0.74754 0.78121 0.0
Tb2313 Tb 0.28815 0.791 0.78055 0.0
C2314 C 0.29149 0.71353 0.77766 0.0
C2315 C 0.30701 0.70439 0.78309 0.0
C2316 C 0.32289 0.70892 0.77498 0.0
C2317 C 0.33654 0.69841 0.77847 0.0
C2318 C 0.33454 0.68322 0.79011 0.0
C2319 C 0.31934 0.67982 0.79957 0.0
C2320 C 0.30563 0.6903 0.796 0.0
C2321 C 0.27806 0.76658 0.81213 0.0
C2322 C 0.32349 0.77834 0.79521 0.0
C2323 C 0.28313 0.82532 0.78159 0.0
C2324 C 0.26817 0.83581 0.77805 0.0
C2325 C 0.25245 0.83153 0.78649 0.0
C2326 C 0.23935 0.84303 0.78429 0.0
C2327 C 0.24173 0.85903 0.77365 0.0
C2328 C 0.25701 0.86248 0.76426 0.0
C2329 C 0.27008 0.85099 0.76646 0.0
C2330 C 0.29705 0.77131 0.75055 0.0
C2331 C 0.25101 0.76002 0.76826 0.0
O2332 O 0.29235 0.72445 0.76338 0.0
O2333 O 0.28495 0.72116 0.79265 0.0
O2334 O 0.29039 0.77289 0.80296 0.0
O2335 O 0.27079 0.74854 0.80534 0.0
O2336 O 0.31482 0.76017 0.78857 0.0
O2337 O 0.31538 0.79336 0.79595 0.0
O2338 O 0.28442 0.81634 0.79737 0.0
O2339 O 0.28637 0.81516 0.76577 0.0
O2340 O 0.28393 0.76564 0.75886 0.0
O2341 O 0.30482 0.78909 0.75779 0.0
O2342 O 0.25939 0.77801 0.77604 0.0
O2343 O 0.25934 0.7455 0.7654 0.0
H2344 H 0.32451 0.72006 0.76533 0.0
H2345 H 0.34832 0.70156 0.77132 0.0
H2346 H 0.31744 0.6682 0.80861 0.0
H2347 H 0.2936 0.68682 0.80267 0.0
H2348 H 0.25049 0.81962 0.79516 0.0
H2349 H 0.22754 0.83967 0.79133 0.0
H2350 H 0.2594 0.87468 0.75605 0.0
H2351 H 0.28202 0.85439 0.75963 0.0
Tb2352 Tb 0.5211 0.02108 0.0163 0.0
Tb2353 Tb 0.55479 0.02535 0.04607 0.0
C2354 C 0.48985 0.00976 0.99716 0.0
C2355 C 0.47261 1.00793 0.00449 0.0
C2356 C 0.46926 0.99652 0.01961 0.0
C2357 C 0.45284 0.99472 0.0264 0.0
C2358 C 0.43949 1.00412 0.01806 0.0
C2359 C 0.44319 0.01644 1.00384 0.0
C2360 C 0.45975 0.01841 0.99714 0.0
C2361 C 0.5378 0.05683 0.03 0.0
C2362 C 0.5186 0.02164 0.06415 0.0
C2363 C 0.58586 0.03749 0.06541 0.0
C2364 C 0.60304 0.04022 0.05784 0.0
C2365 C 0.60939 0.05784 0.05111 0.0
C2366 C 0.6244 0.05987 0.04175 0.0
C2367 C 0.63359 0.04447 0.03924 0.0
C2368 C 0.62746 0.02689 0.04609 0.0
C2369 C 0.61219 0.02473 0.05527 0.0
C2370 C 0.53891 0.98957 0.03082 0.0
C2371 C 0.55733 0.02482 0.99813 0.0
O2372 O 0.50015 0.99775 1.00298 0.0
O2373 O 0.49887 0.02766 0.99845 0.0
O2374 O 0.53566 0.04281 0.03974 0.0
O2375 O 0.52871 0.05142 0.01205 0.0
O2376 O 0.51019 0.017 0.04505 0.0
O2377 O 0.53653 0.02721 0.06816 0.0
O2378 O 0.57509 0.04911 0.05977 0.0
O2379 O 0.57723 0.0194 0.06407 0.0
O2380 O 0.54069 1.00427 0.02217 0.0
O2381 O 0.54753 0.99428 0.04908 0.0
O2382 O 0.56578 0.02961 0.01727 0.0
O2383 O 0.53939 0.01894 0.9942 0.0
H2384 H 0.47905 0.98851 0.02584 0.0
H2385 H 0.45006 0.98473 0.03702 0.0
H2386 H 0.43287 0.02356 0.99709 0.0
H2387 H 0.46231 0.02763 0.98581 0.0
H2388 H 0.60271 0.07008 0.05294 0.0
H2389 H 0.6293 0.07385 0.03725 0.0
H2390 H 0.63467 0.01505 0.04467 0.0
H2391 H 0.60753 0.01094 0.06027 0.0
Tb2392 Tb 0.26815 0.25966 0.27697 0.0
Tb2393 Tb 0.30598 0.28511 0.28638 0.0
C2394 C 0.2388 0.24363 0.28539 0.0
C2395 C 0.22168 0.25026 0.28635 0.0
C2396 C 0.21732 0.25543 0.30523 0.0
C2397 C 0.20245 0.26394 0.30699 0.0
C2398 C 0.19144 0.26718 0.28989 0.0
C2399 C 0.19545 0.26158 0.27092 0.0
C2400 C 0.21057 0.2533 0.26915 0.0
C2401 C 0.27586 0.27445 0.24432 0.0
C2402 C 0.2729 0.30758 0.28649 0.0
C2403 C 0.338 0.29958 0.28448 0.0
C2404 C 0.35322 0.29064 0.2799 0.0
C2405 C 0.35643 0.28796 0.26016 0.0
C2406 C 0.37122 0.2803 0.25583 0.0
C2407 C 0.38302 0.27521 0.27115 0.0
C2408 C 0.37944 0.27694 0.29071 0.0
C2409 C 0.36466 0.28471 0.2951 0.0
C2410 C 0.29249 0.27358 0.31746 0.0
C2411 C 0.30132 0.23721 0.27402 0.0
O2412 O 0.25242 0.25371 0.29873 0.0
O2413 O 0.24329 0.2398 0.26771 0.0
O2414 O 0.28546 0.27664 0.26139 0.0
O2415 O 0.26067 0.26299 0.24519 0.0
O2416 O 0.26251 0.28979 0.28552 0.0
O2417 O 0.2905 0.30919 0.28547 0.0
O2418 O 0.32452 0.29791 0.26966 0.0
O2419 O 0.33248 0.29662 0.30133 0.0
O2420 O 0.29091 0.26383 0.30036 0.0
O2421 O 0.30241 0.29072 0.31766 0.0
O2422 O 0.31211 0.25504 0.27887 0.0
O2423 O 0.2833 0.23544 0.2723 0.0
H2424 H 0.22569 0.25328 0.31872 0.0
H2425 H 0.19945 0.26781 0.32177 0.0
H2426 H 0.18708 0.26394 0.25753 0.0
H2427 H 0.21369 0.24962 0.25441 0.0
H2428 H 0.34779 0.29223 0.2481 0.0
H2429 H 0.37387 0.27905 0.24063 0.0
H2430 H 0.3886 0.27328 0.30272 0.0
H2431 H 0.36249 0.28651 0.31046 0.0
Tb2432 Tb 0.53307 0.54068 0.03442 0.0
Tb2433 Tb 0.54156 0.50463 0.02491 0.0
C2434 C 0.52916 0.57518 0.03548 0.0
C2435 C 0.52268 0.58597 0.01976 0.0
C2436 C 0.53384 0.59256 0.00626 0.0
C2437 C 0.52776 0.60343 0.99191 0.0
C2438 C 0.51046 0.60785 0.99088 0.0
C2439 C 0.49894 0.6003 1.00357 0.0
C2440 C 0.50506 0.58955 0.01801 0.0
C2441 C 0.50607 0.51171 0.0374 0.0
C2442 C 0.52671 0.52193 0.98903 0.0
C2443 C 0.54621 0.47038 0.02398 0.0
C2444 C 0.55203 0.45956 0.03998 0.0
C2445 C 0.54 0.45221 0.05231 0.0
C2446 C 0.54569 0.44175 0.06723 0.0
C2447 C 0.56347 0.43852 0.07005 0.0
C2448 C 0.57573 0.44674 0.05842 0.0
C2449 C 0.57001 0.45703 0.04338 0.0
C2450 C 0.5685 0.53363 0.02182 0.0
C2451 C 0.54787 0.52363 0.0702 0.0
O2452 O 0.54463 0.56995 0.03453 0.0
O2453 O 0.51708 0.56127 0.03966 0.0
O2454 O 0.51543 0.51235 0.02348 0.0
O2455 O 0.51201 0.52746 0.05012 0.0
O2456 O 0.52956 0.53803 1.00187 0.0
O2457 O 0.52843 0.5053 0.99507 0.0
O2458 O 0.53033 0.47501 0.02356 0.0
O2459 O 0.55847 0.48479 0.02107 0.0
O2460 O 0.55919 0.53296 0.0358 0.0
O2461 O 0.56249 0.51789 0.00914 0.0
O2462 O 0.54391 0.5072 0.05765 0.0
O2463 O 0.54731 0.54022 0.06359 0.0
H2464 H 0.54744 0.58982 0.00707 0.0
H2465 H 0.53699 0.60926 0.98243 0.0
H2466 H 0.48545 0.60335 1.00284 0.0
H2467 H 0.49611 0.58439 0.02806 0.0
H2468 H 0.5261 0.45413 0.05019 0.0
H2469 H 0.53588 0.43534 0.07582 0.0
H2470 H 0.58957 0.4446 0.06049 0.0
H2471 H 0.5796 0.46278 0.03423 0.0
Tb2472 Tb 0.78721 0.25026 0.28104 0.0
Tb2473 Tb 0.78955 0.2942 0.28209 0.0
C2474 C 0.78819 0.21515 0.27265 0.0
C2475 C 0.80266 0.20419 0.27776 0.0
C2476 C 0.81781 0.20621 0.26807 0.0
C2477 C 0.83081 0.19493 0.27174 0.0
C2478 C 0.82901 0.18135 0.28514 0.0
C2479 C 0.81459 0.18016 0.29588 0.0
C2480 C 0.80144 0.19146 0.29215 0.0
C2481 C 0.78742 0.27005 0.31597 0.0
C2482 C 0.82366 0.27983 0.29789 0.0
C2483 C 0.7839 0.32821 0.2843 0.0
C2484 C 0.76818 0.33768 0.28075 0.0
C2485 C 0.75869 0.34209 0.29622 0.0
C2486 C 0.74519 0.35298 0.29338 0.0
C2487 C 0.74094 0.35974 0.27503 0.0
C2488 C 0.74982 0.3545 0.25925 0.0
C2489 C 0.76336 0.34368 0.26211 0.0
C2490 C 0.80071 0.27613 0.25258 0.0
C2491 C 0.75167 0.26468 0.26779 0.0
O2492 O 0.79145 0.22801 0.2605 0.0
O2493 O 0.78055 0.2216 0.28738 0.0
O2494 O 0.77991 0.27282 0.29931 0.0
O2495 O 0.79441 0.25472 0.3134 0.0
O2496 O 0.81583 0.26263 0.28741 0.0
O2497 O 0.81509 0.29434 0.30055 0.0
O2498 O 0.78559 0.31891 0.29986 0.0
O2499 O 0.78789 0.31887 0.26841 0.0
O2500 O 0.78712 0.26981 0.25989 0.0
O2501 O 0.80817 0.29366 0.26116 0.0
O2502 O 0.76129 0.28266 0.27028 0.0
O2503 O 0.75877 0.2494 0.27132 0.0
H2504 H 0.81943 0.21607 0.25714 0.0
H2505 H 0.8419 0.19618 0.26338 0.0
H2506 H 0.8129 0.1697 0.30624 0.0
H2507 H 0.79004 0.18978 0.30004 0.0
H2508 H 0.76211 0.33774 0.31075 0.0
H2509 H 0.73877 0.35694 0.30593 0.0
H2510 H 0.74667 0.35921 0.24484 0.0
H2511 H 0.77041 0.34052 0.24985 0.0
Tb2512 Tb 0.01997 0.52205 0.51538 0.0
Tb2513 Tb 0.05323 0.52282 0.54512 0.0
C2514 C 0.98874 0.51184 0.49593 0.0
C2515 C 0.97165 0.5079 0.50362 0.0
C2516 C 0.96687 0.49066 0.51174 0.0
C2517 C 0.95176 0.48771 0.52091 0.0
C2518 C 0.94095 0.50175 0.52186 0.0
C2519 C 0.94555 0.51896 0.51373 0.0
C2520 C 0.96092 0.52209 0.50474 0.0
C2521 C 0.03742 0.55645 0.53281 0.0
C2522 C 0.01684 0.51961 0.56302 0.0
C2523 C 0.08423 0.53378 0.56474 0.0
C2524 C 0.1015 0.53703 0.55748 0.0
C2525 C 0.10472 0.5502 0.54385 0.0
C2526 C 0.12105 0.55307 0.53686 0.0
C2527 C 0.13442 0.54291 0.54349 0.0
C2528 C 0.1309 0.529 0.55624 0.0
C2529 C 0.11445 0.52602 0.56317 0.0
C2530 C 0.03572 0.48832 0.52843 0.0
C2531 C 0.05638 0.52509 0.4975 0.0
O2532 O 0.99946 0.49959 0.49941 0.0
O2533 O 0.99746 0.53004 0.49946 0.0
O2534 O 0.03472 0.54108 0.54034 0.0
O2535 O 0.02909 0.55322 0.51439 0.0
O2536 O 1.00849 0.51721 0.54386 0.0
O2537 O 0.03485 0.5233 0.56716 0.0
O2538 O 0.0736 0.54592 0.56028 0.0
O2539 O 0.07562 0.51555 0.56194 0.0
O2540 O 0.0383 0.50343 0.52034 0.0
O2541 O 0.04445 0.49188 0.54671 0.0
O2542 O 0.06466 0.52686 0.5166 0.0
O2543 O 0.03838 0.52202 0.49328 0.0
H2544 H 0.97478 0.47937 0.51111 0.0
H2545 H 0.94803 0.47397 0.52641 0.0
H2546 H 0.93703 0.52969 0.51391 0.0
H2547 H 0.96441 0.53555 0.49869 0.0
H2548 H 0.09483 0.55866 0.53887 0.0
H2549 H 0.12371 0.56423 0.5274 0.0
H2550 H 0.14122 0.52123 0.56163 0.0
H2551 H 0.112 0.51547 0.5733 0.0
Tb2552 Tb 0.76742 0.77699 0.27913 0.0
Tb2553 Tb 0.8062 0.76551 0.28173 0.0
C2554 C 0.73439 0.77419 0.28212 0.0
C2555 C 0.72249 0.77837 0.29697 0.0
C2556 C 0.71529 0.76347 0.3073 0.0
C2557 C 0.70243 0.76606 0.31948 0.0
C2558 C 0.6962 0.78367 0.32182 0.0
C2559 C 0.7037 0.79883 0.31183 0.0
C2560 C 0.71663 0.7962 0.29953 0.0
C2561 C 0.79416 0.80779 0.27986 0.0
C2562 C 0.79394 0.78089 0.32082 0.0
C2563 C 0.83713 0.76016 0.27653 0.0
C2564 C 0.84946 0.75988 0.26149 0.0
C2565 C 0.85765 0.77708 0.25509 0.0
C2566 C 0.87131 0.77688 0.24341 0.0
C2567 C 0.87719 0.75952 0.23783 0.0
C2568 C 0.8683 0.74214 0.24333 0.0
C2569 C 0.85468 0.74236 0.2551 0.0
C2570 C 0.77896 0.73896 0.28779 0.0
C2571 C 0.78147 0.76586 0.23955 0.0
O2572 O 0.74363 0.76056 0.28523 0.0
O2573 O 0.74372 0.78874 0.27521 0.0
O2574 O 0.79478 0.79019 0.28027 0.0
O2575 O 0.77726 0.80877 0.27952 0.0
O2576 O 0.77717 0.77833 0.31093 0.0
O2577 O 0.80824 0.77934 0.31226 0.0
O2578 O 0.83403 0.777 0.28407 0.0
O2579 O 0.82266 0.74618 0.27346 0.0
O2580 O 0.77819 0.75092 0.27541 0.0
O2581 O 0.79564 0.74111 0.29659 0.0
O2582 O 0.79756 0.76616 0.25016 0.0
O2583 O 0.76701 0.76843 0.24743 0.0
H2584 H 0.71917 0.74942 0.30548 0.0
H2585 H 0.69684 0.75383 0.32644 0.0
H2586 H 0.69947 0.8127 0.31335 0.0
H2587 H 0.72172 0.80797 0.29168 0.0
H2588 H 0.85397 0.79083 0.25965 0.0
H2589 H 0.87761 0.79048 0.23914 0.0
H2590 H 0.87249 0.72853 0.23942 0.0
H2591 H 0.84872 0.72887 0.25988 0.0
Tb2592 Tb 0.79289 0.2655 0.766 0.0
Tb2593 Tb 0.78203 0.28157 0.79846 0.0
C2594 C 0.80268 0.25981 0.73297 0.0
C2595 C 0.80983 0.27444 0.72117 0.0
C2596 C 0.80247 0.29121 0.7198 0.0
C2597 C 0.80796 0.30392 0.70677 0.0
C2598 C 0.81849 0.29799 0.69298 0.0
C2599 C 0.829 0.28419 0.69749 0.0
C2600 C 0.82429 0.27195 0.71134 0.0
C2601 C 0.8164 0.26502 0.79868 0.0
C2602 C 0.80239 0.31235 0.7775 0.0
C2603 C 0.77366 0.2874 0.83212 0.0
C2604 C 0.76708 0.2723 0.84378 0.0
C2605 C 0.7773 0.25821 0.84815 0.0
C2606 C 0.77115 0.24393 0.85925 0.0
C2607 C 0.75476 0.24364 0.86653 0.0
C2608 C 0.74356 0.25627 0.86007 0.0
C2609 C 0.74979 0.27068 0.84893 0.0
C2610 C 0.7584 0.28239 0.76594 0.0
C2611 C 0.7724 0.23453 0.787 0.0
O2612 O 0.78568 0.25851 0.73487 0.0
O2613 O 0.81313 0.25987 0.74981 0.0
O2614 O 0.80912 0.27919 0.79447 0.0
O2615 O 0.80969 0.25035 0.78484 0.0
O2616 O 0.79901 0.29722 0.76319 0.0
O2617 O 0.79848 0.3094 0.79513 0.0
O2618 O 0.79046 0.28885 0.82939 0.0
O2619 O 0.76269 0.28784 0.81575 0.0
O2620 O 0.76572 0.26806 0.76973 0.0
O2621 O 0.7651 0.29682 0.78011 0.0
O2622 O 0.77451 0.24982 0.801 0.0
O2623 O 0.77753 0.23727 0.7698 0.0
H2624 H 0.79129 0.29357 0.72718 0.0
H2625 H 0.80029 0.31513 0.70395 0.0
H2626 H 0.83803 0.28016 0.6876 0.0
H2627 H 0.83076 0.25964 0.71301 0.0
H2628 H 0.79039 0.25852 0.84363 0.0
H2629 H 0.78028 0.23453 0.86379 0.0
H2630 H 0.73076 0.25618 0.86521 0.0
H2631 H 0.74138 0.28093 0.84489 0.0
Tb2632 Tb 0.76968 0.76109 0.77682 0.0
Tb2633 Tb 0.80505 0.78504 0.78607 0.0
C2634 C 0.73795 0.74591 0.77961 0.0
C2635 C 0.72187 0.75412 0.78219 0.0
C2636 C 0.72043 0.76385 0.80087 0.0
C2637 C 0.70509 0.77137 0.80327 0.0
C2638 C 0.6909 0.76927 0.78707 0.0
C2639 C 0.6925 0.75996 0.76831 0.0
C2640 C 0.70783 0.75238 0.76591 0.0
C2641 C 0.78147 0.77243 0.74459 0.0
C2642 C 0.77331 0.80863 0.78791 0.0
C2643 C 0.8373 0.80015 0.78559 0.0
C2644 C 0.85248 0.79116 0.7813 0.0
C2645 C 0.85112 0.77903 0.76309 0.0
C2646 C 0.86568 0.77094 0.7589 0.0
C2647 C 0.88186 0.77483 0.77277 0.0
C2648 C 0.88291 0.78599 0.79143 0.0
C2649 C 0.86829 0.79417 0.79564 0.0
C2650 C 0.79277 0.77344 0.81791 0.0
C2651 C 0.80142 0.73769 0.77412 0.0
O2652 O 0.75136 0.75041 0.79473 0.0
O2653 O 0.74352 0.74685 0.76246 0.0
O2654 O 0.78359 0.7826 0.76159 0.0
O2655 O 0.7718 0.75538 0.74515 0.0
O2656 O 0.76308 0.7907 0.78615 0.0
O2657 O 0.79082 0.81012 0.78687 0.0
O2658 O 0.82415 0.79878 0.77055 0.0
O2659 O 0.83133 0.79654 0.802 0.0
O2660 O 0.79124 0.76339 0.80101 0.0
O2661 O 0.80177 0.79081 0.81742 0.0
O2662 O 0.81141 0.75565 0.77524 0.0
O2663 O 0.7841 0.73617 0.77606 0.0
H2664 H 0.73101 0.76548 0.81376 0.0
H2665 H 0.7041 0.77824 0.81797 0.0
H2666 H 0.6818 0.75834 0.75555 0.0
H2667 H 0.70865 0.74505 0.75135 0.0
H2668 H 0.83894 0.77601 0.75189 0.0
H2669 H 0.86449 0.76211 0.74451 0.0
H2670 H 0.89531 0.78918 0.80232 0.0
H2671 H 0.86943 0.80315 0.80992 0.0
Tb2672 Tb 0.51845 0.51595 0.52173 0.0
Tb2673 Tb 0.55614 0.5299 0.5393 0.0
C2674 C 0.48495 0.51218 0.51265 0.0
C2675 C 0.47426 0.52737 0.51229 0.0
C2676 C 0.47877 0.5436 0.52739 0.0
C2677 C 0.4691 0.55844 0.52669 0.0
C2678 C 0.45473 0.55721 0.51094 0.0
C2679 C 0.45055 0.54131 0.49551 0.0
C2680 C 0.46036 0.52647 0.49614 0.0
C2681 C 0.54087 0.51345 0.49591 0.0
C2682 C 0.53593 0.56165 0.52631 0.0
C2683 C 0.58964 0.53356 0.5479 0.0
C2684 C 0.60008 0.51815 0.54836 0.0
C2685 C 0.59553 0.50202 0.53314 0.0
C2686 C 0.60494 0.48699 0.53387 0.0
C2687 C 0.61905 0.48782 0.54981 0.0
C2688 C 0.62316 0.50357 0.56543 0.0
C2689 C 0.61367 0.51867 0.56471 0.0
C2690 C 0.53391 0.53268 0.56525 0.0
C2691 C 0.53843 0.48414 0.5351 0.0
O2692 O 0.49302 0.51022 0.53035 0.0
O2693 O 0.4956 0.51214 0.49934 0.0
O2694 O 0.54181 0.52729 0.50964 0.0
O2695 O 0.52675 0.50017 0.49623 0.0
O2696 O 0.52111 0.54819 0.52565 0.0
O2697 O 0.55207 0.55723 0.52964 0.0
O2698 O 0.58138 0.53529 0.5302 0.0
O2699 O 0.57923 0.5341 0.56143 0.0
O2700 O 0.53274 0.51881 0.55144 0.0
O2701 O 0.54828 0.54569 0.56502 0.0
O2702 O 0.55334 0.49759 0.53597 0.0
O2703 O 0.52234 0.48859 0.53136 0.0
H2704 H 0.48964 0.54477 0.53989 0.0
H2705 H 0.47233 0.57042 0.53892 0.0
H2706 H 0.43946 0.54019 0.48326 0.0
H2707 H 0.45702 0.51424 0.48416 0.0
H2708 H 0.58483 0.50108 0.52051 0.0
H2709 H 0.60172 0.47519 0.52145 0.0
H2710 H 0.63401 0.50441 0.57787 0.0
H2711 H 0.617 0.5308 0.5768 0.0
Tb2712 Tb 0.05654 0.52391 0.02315 0.0
Tb2713 Tb 0.01836 0.52117 0.03753 0.0
C2714 C 0.08852 0.52108 0.01965 0.0
C2715 C 0.10075 0.50684 0.02022 0.0
C2716 C 0.10684 0.49962 0.03777 0.0
C2717 C 0.11953 0.4874 0.03782 0.0
C2718 C 0.12643 0.48215 0.02034 0.0
C2719 C 0.11973 0.48888 1.00269 0.0
C2720 C 0.10718 0.5011 1.00268 0.0
C2721 C 0.02956 0.52552 0.9922 0.0
C2722 C 0.03122 0.48284 0.0245 0.0
C2723 C 0.98564 0.52349 0.03738 0.0
C2724 C 0.97469 0.53878 0.03998 0.0
C2725 C 0.97417 0.55301 0.02719 0.0
C2726 C 0.96195 0.56561 0.02822 0.0
C2727 C 0.94991 0.56432 0.04205 0.0
C2728 C 0.95122 0.55084 0.05561 0.0
C2729 C 0.9634 0.5382 0.05452 0.0
C2730 C 0.04483 0.52016 0.06905 0.0
C2731 C 0.04456 0.56248 0.03871 0.0
O2732 O 0.08414 0.52853 0.03634 0.0
O2733 O 0.07484 0.51706 0.00484 0.0
O2734 O 0.02891 0.52298 0.01033 0.0
O2735 O 0.04672 0.52792 0.99163 0.0
O2736 O 0.04769 0.49313 0.02494 0.0
O2737 O 0.01699 0.49065 0.02684 0.0
O2738 O 0.99301 0.52211 0.02127 0.0
O2739 O 0.99648 0.52104 0.05317 0.0
O2740 O 0.04611 0.52129 0.05065 0.0
O2741 O 0.02779 0.51967 0.06956 0.0
O2742 O 0.02841 0.55225 0.03979 0.0
O2743 O 0.0581 0.55468 0.03351 0.0
H2744 H 0.10213 0.50371 0.05154 0.0
H2745 H 0.12438 0.48265 0.05175 0.0
H2746 H 0.1243 0.48487 0.98882 0.0
H2747 H 0.10271 0.50636 0.98889 0.0
H2748 H 0.98282 0.55407 0.01595 0.0
H2749 H 0.96164 0.57607 0.01782 0.0
H2750 H 0.94219 0.54934 0.06642 0.0
H2751 H 0.96353 0.52743 0.06461 0.0
H2752 H 0.05218 0.18145 1.00126 0.0
H2753 H 1.00351 0.07195 0.0086 0.0
H2754 H 0.99931 0.15313 0.9682 0.0
H2755 H 0.06113 0.09314 0.02696 0.0
H2756 H 1.00094 0.1034 0.9979 0.0
H2757 H 0.05496 0.15102 0.01437 0.0
C2758 C 0.04114 0.16895 0.99663 0.0
C2759 C 0.02545 0.17018 0.98339 0.0
C2760 C 0.01416 0.10121 0.00431 0.0
C2761 C 0.02851 0.13511 0.99892 0.0
C2762 C 0.01564 0.08321 0.01052 0.0
C2763 C 0.03259 0.07968 0.01864 0.0
C2764 C 0.02968 0.11605 0.00632 0.0
C2765 C 0.04777 0.09504 0.0207 0.0
C2766 C 0.04274 0.15154 0.00428 0.0
C2767 C 0.01155 0.15333 0.97854 0.0
N2768 N 0.04596 0.11248 0.0146 0.0
N2769 N 0.01341 0.13667 0.98626 0.0
H2770 H 0.14405 0.78824 0.22574 0.0
H2771 H 0.24668 0.77158 0.22837 0.0
H2772 H 0.16506 0.77414 0.17194 0.0
H2773 H 0.22164 0.7805 0.28033 0.0
H2774 H 0.21768 0.77259 0.20706 0.0
H2775 H 0.17283 0.7857 0.24557 0.0
C2776 C 0.15477 0.78476 0.21806 0.0
C2777 C 0.152 0.78149 0.19706 0.0
C2778 C 0.21854 0.7742 0.22313 0.0
C2779 C 0.18548 0.77861 0.21989 0.0
C2780 C 0.23511 0.77354 0.2353 0.0
C2781 C 0.23673 0.77595 0.25627 0.0
C2782 C 0.20343 0.77723 0.23195 0.0
C2783 C 0.22121 0.77865 0.26431 0.0
C2784 C 0.17126 0.78321 0.22942 0.0
C2785 C 0.16646 0.7767 0.18807 0.0
N2786 N 0.20543 0.77923 0.25227 0.0
N2787 N 0.18252 0.77553 0.19945 0.0
H2788 H 0.49901 0.86014 0.48046 0.0
H2789 H 0.55969 0.9635 0.53095 0.0
H2790 H 0.55583 0.86879 0.5053 0.0
H2791 H 0.50205 0.95426 0.5102 0.0
H2792 H 0.55816 0.92862 0.52317 0.0
H2793 H 0.49956 0.89417 0.49247 0.0
C2794 C 0.51157 0.86914 0.4887 0.0
C2795 C 0.52739 0.86154 0.492 0.0
C2796 C 0.54581 0.93415 0.52039 0.0
C2797 C 0.52815 0.90072 0.50554 0.0
C2798 C 0.54666 0.95409 0.52478 0.0
C2799 C 0.53097 0.96181 0.521 0.0
C2800 C 0.52918 0.92177 0.51193 0.0
C2801 C 0.51445 0.94891 0.51332 0.0
C2802 C 0.51188 0.88862 0.49546 0.0
C2803 C 0.54336 0.87405 0.50231 0.0
N2804 N 0.51401 0.9295 0.50884 0.0
N2805 N 0.54334 0.89304 0.50868 0.0
H2806 H 0.48362 0.25664 0.70975 0.0
H2807 H 0.37949 0.26708 0.70187 0.0
H2808 H 0.45469 0.2767 0.65968 0.0
H2809 H 0.40996 0.24964 0.75265 0.0
H2810 H 0.40599 0.26872 0.68514 0.0
H2811 H 0.45607 0.25195 0.72445 0.0
C2812 C 0.47146 0.25994 0.70172 0.0
C2813 C 0.47166 0.26721 0.68341 0.0
C2814 C 0.40685 0.26448 0.69992 0.0
C2815 C 0.43979 0.26196 0.70042 0.0
C2816 C 0.39171 0.2636 0.70955 0.0
C2817 C 0.39237 0.2583 0.72884 0.0
C2818 C 0.42294 0.26013 0.70963 0.0
C2819 C 0.4086 0.25361 0.73776 0.0
C2820 C 0.45569 0.25734 0.71022 0.0
C2821 C 0.45538 0.2714 0.67396 0.0
N2822 N 0.42315 0.25474 0.72818 0.0
N2823 N 0.44019 0.26874 0.68255 0.0
H2824 H 0.04682 0.82185 0.59793 0.0
H2825 H 0.08489 0.93597 0.60415 0.0
H2826 H 0.0889 0.85442 0.64548 0.0
H2827 H 0.04268 0.90075 0.55848 0.0
H2828 H 0.08894 0.90627 0.61872 0.0
H2829 H 0.04762 0.85075 0.58174 0.0
C2830 C 0.0563 0.83516 0.60484 0.0
C2831 C 0.06765 0.83601 0.62304 0.0
C2832 C 0.07889 0.90514 0.60545 0.0
C2833 C 0.0687 0.86909 0.60482 0.0
C2834 C 0.07659 0.92195 0.59729 0.0
C2835 C 0.06331 0.92045 0.58045 0.0
C2836 C 0.06788 0.8871 0.59637 0.0
C2837 C 0.05287 0.90227 0.57172 0.0
C2838 C 0.05683 0.85164 0.59563 0.0
C2839 C 0.07996 0.85337 0.63136 0.0
N2840 N 0.05535 0.88627 0.57983 0.0
N2841 N 0.08004 0.86944 0.62224 0.0
H2842 H 0.43851 0.81048 0.80597 0.0
H2843 H 0.34271 0.7541 0.81149 0.0
H2844 H 0.42355 0.7476 0.79677 0.0
H2845 H 0.34808 0.80893 0.78832 0.0
H2846 H 0.37431 0.75409 0.80987 0.0
H2847 H 0.40657 0.81209 0.79914 0.0
C2848 C 0.42854 0.797 0.80163 0.0
C2849 C 0.43349 0.77884 0.80239 0.0
C2850 C 0.36859 0.76614 0.80514 0.0
C2851 C 0.39736 0.7807 0.79539 0.0
C2852 C 0.35074 0.76633 0.80643 0.0
C2853 C 0.34301 0.78145 0.79985 0.0
C2854 C 0.37869 0.78123 0.79733 0.0
C2855 C 0.35381 0.7971 0.79359 0.0
C2856 C 0.41035 0.79797 0.79796 0.0
C2857 C 0.42013 0.76185 0.79679 0.0
N2858 N 0.3713 0.79656 0.79233 0.0
N2859 N 0.40251 0.76319 0.79402 0.0
H2860 H 0.57974 0.16676 0.10545 0.0
H2861 H 0.5117 0.07403 0.04122 0.0
H2862 H 0.52599 0.14482 0.11685 0.0
H2863 H 0.56941 0.08274 0.04302 0.0
H2864 H 0.51621 0.10366 0.06526 0.0
H2865 H 0.57618 0.13832 0.07998 0.0
C2866 C 0.5673 0.15585 0.10276 0.0
C2867 C 0.55303 0.1582 0.11302 0.0
C2868 C 0.52789 0.09928 0.06019 0.0
C2869 C 0.54875 0.12624 0.08376 0.0
C2870 C 0.52527 0.08264 0.04631 0.0
C2871 C 0.54023 0.07646 0.04016 0.0
C2872 C 0.54559 0.10963 0.06784 0.0
C2873 C 0.55763 0.08747 0.04742 0.0
C2874 C 0.56524 0.13978 0.08815 0.0
C2875 C 0.53714 0.14378 0.1089 0.0
N2876 N 0.5599 0.10366 0.06105 0.0
N2877 N 0.53536 0.12846 0.09442 0.0
H2878 H 0.08202 0.27323 0.29842 0.0
H2879 H 0.18968 0.29914 0.31548 0.0
H2880 H 0.11551 0.31631 0.34568 0.0
H2881 H 0.15691 0.25426 0.26956 0.0
H2882 H 0.16229 0.3097 0.3228 0.0
H2883 H 0.10891 0.26997 0.28384 0.0
C2884 C 0.09501 0.28216 0.30558 0.0
C2885 C 0.09664 0.29488 0.3234 0.0
C2886 C 0.16108 0.29772 0.31092 0.0
C2887 C 0.1273 0.29133 0.30681 0.0
C2888 C 0.17669 0.29169 0.30679 0.0
C2889 C 0.17544 0.27566 0.2921 0.0
C2890 C 0.14412 0.28753 0.3004 0.0
C2891 C 0.15839 0.26668 0.28101 0.0
C2892 C 0.11031 0.28036 0.29722 0.0
C2893 C 0.11366 0.30639 0.33188 0.0
N2894 N 0.14331 0.27256 0.28559 0.0
N2895 N 0.12838 0.30416 0.32363 0.0
H2896 H 0.99109 0.98609 0.16475 0.0
H2897 H 0.03121 0.06093 0.09533 0.0
H2898 H 0.98657 0.04662 0.17181 0.0
H2899 H 0.01554 0.99897 0.07562 0.0
H2900 H 0.01861 0.05622 0.12589 0.0
H2901 H 1.00388 0.99077 0.13444 0.0
C2902 C 0.99266 1.00034 0.15999 0.0
C2903 C 0.98753 0.01592 0.17102 0.0
C2904 C 0.01784 0.04368 0.11482 0.0
C2905 C 1.00265 0.02143 0.13642 0.0
C2906 C 0.02499 0.04637 0.09738 0.0
C2907 C 0.02426 0.03036 0.08286 0.0
C2908 C 0.0102 0.02478 0.11793 0.0
C2909 C 0.0162 0.01175 0.08634 0.0
C2910 C 1.00008 1.00299 0.1427 0.0
C2911 C 0.99049 0.03416 0.16419 0.0
N2912 N 0.00961 0.00945 0.10358 0.0
N2913 N 0.99785 0.03639 0.14743 0.0
H2914 H 0.32043 0.77271 0.47464 0.0
H2915 H 0.24965 0.71547 0.38205 0.0
H2916 H 0.30311 0.7101 0.46645 0.0
H2917 H 0.25502 0.77674 0.40288 0.0
H2918 H 0.26617 0.7119 0.41435 0.0
H2919 H 0.29627 0.77399 0.44717 0.0
C2920 C 0.3118 0.75927 0.46668 0.0
C2921 C 0.31389 0.7413 0.47236 0.0
C2922 C 0.26319 0.726 0.41204 0.0
C2923 C 0.28582 0.7426 0.4421 0.0
C2924 C 0.25342 0.72794 0.39376 0.0
C2925 C 0.25194 0.74663 0.38942 0.0
C2926 C 0.27104 0.74283 0.42583 0.0
C2927 C 0.25651 0.76217 0.40526 0.0
C2928 C 0.29781 0.75998 0.45141 0.0
C2929 C 0.30221 0.7242 0.46203 0.0
N2930 N 0.26664 0.76013 0.42256 0.0
N2931 N 0.28858 0.72528 0.4474 0.0
H2932 H 0.61611 0.04443 0.68841 0.0
H2933 H 0.54847 0.98726 0.58729 0.0
H2934 H 0.59705 0.98194 0.6775 0.0
H2935 H 0.57365 0.04779 0.59302 0.0
H2936 H 0.56587 0.98543 0.62012 0.0
H2937 H 0.60063 0.04627 0.65498 0.0
C2938 C 0.6089 0.03091 0.67939 0.0
C2939 C 0.60856 0.01286 0.68698 0.0
C2940 C 0.56795 0.9991 0.61419 0.0
C2941 C 0.58993 0.01523 0.64703 0.0
C2942 C 0.55808 1.00011 0.5951 0.0
C2943 C 0.55992 0.01748 0.5864 0.0
C2944 C 0.57973 0.01577 0.62567 0.0
C2945 C 0.57212 0.03378 0.59828 0.0
C2946 C 0.59987 0.03211 0.65987 0.0
C2947 C 0.59825 0.99637 0.67338 0.0
N2948 N 0.58132 0.03254 0.61701 0.0
N2949 N 0.58958 0.998 0.65459 0.0
H2950 H 0.30195 0.28961 0.94981 0.0
H2951 H 0.27591 0.30858 0.83735 0.0
H2952 H 0.26818 0.32946 0.93122 0.0
H2953 H 0.30945 0.26773 0.85313 0.0
H2954 H 0.27274 0.31561 0.87209 0.0
H2955 H 0.30338 0.27933 0.91469 0.0
C2956 C 0.29463 0.29597 0.93832 0.0
C2957 C 0.28514 0.31062 0.94345 0.0
C2958 C 0.28084 0.30512 0.86811 0.0
C2959 C 0.28688 0.29911 0.90347 0.0
C2960 C 0.28275 0.30121 0.84829 0.0
C2961 C 0.29295 0.28759 0.84253 0.0
C2962 C 0.2891 0.29522 0.88235 0.0
C2963 C 0.30163 0.27848 0.85717 0.0
C2964 C 0.29551 0.29015 0.91833 0.0
C2965 C 0.27562 0.31811 0.92802 0.0
N2966 N 0.29941 0.28238 0.87653 0.0
N2967 N 0.27692 0.31243 0.90876 0.0
H2968 H 0.01542 0.99907 0.36171 0.0
H2969 H 0.01483 0.05089 0.47161 0.0
H2970 H 0.98543 0.0441 0.37455 0.0
H2971 H 0.03032 0.99524 0.45978 0.0
H2972 H 1.0084 0.05159 0.43578 0.0
H2973 H 0.02572 1.00075 0.3976 0.0
C2974 C 0.01112 0.0094 0.37203 0.0
C2975 C 0.99942 0.02135 0.36509 0.0
C2976 C 0.01321 0.03923 0.44104 0.0
C2977 C 0.01127 0.02344 0.40598 0.0
C2978 C 0.01688 0.0388 0.46149 0.0
C2979 C 0.02305 0.02293 0.46868 0.0
C2980 C 0.01584 0.02376 0.4277 0.0
C2981 C 0.02546 1.00769 0.45486 0.0
C2982 C 0.01702 0.01035 0.39246 0.0
C2983 C 0.99459 0.03476 0.37911 0.0
N2984 N 0.02185 0.00849 0.43497 0.0
N2985 N 1.00046 0.03535 0.3989 0.0
H2986 H 0.31451 0.78525 0.63615 0.0
H2987 H 0.32339 0.7525 0.74356 0.0
H2988 H 0.35751 0.75838 0.66093 0.0
H2989 H 0.27734 0.7727 0.71526 0.0
H2990 H 0.33687 0.75494 0.71348 0.0
H2991 H 0.30417 0.78718 0.66824 0.0
C2992 C 0.32239 0.78076 0.64868 0.0
C2993 C 0.33566 0.76989 0.6456 0.0
C2994 C 0.32367 0.75855 0.71369 0.0
C2995 C 0.32417 0.77189 0.68165 0.0
C2996 C 0.31582 0.75659 0.73054 0.0
C2997 C 0.29952 0.76261 0.73151 0.0
C2998 C 0.31511 0.76691 0.69824 0.0
C2999 C 0.29005 0.76799 0.71471 0.0
C3000 C 0.31615 0.78128 0.66676 0.0
C3001 C 0.34627 0.76556 0.66238 0.0
N3002 N 0.29824 0.77051 0.69871 0.0
N3003 N 0.3397 0.7656 0.67965 0.0
H3004 H 0.59406 0.99037 0.88468 0.0
H3005 H 0.59248 0.04461 0.99557 0.0
H3006 H 0.63128 0.04429 0.90973 0.0
H3007 H 0.54671 1.00395 0.95998 0.0
H3008 H 0.6085 0.04322 0.96656 0.0
H3009 H 0.57863 0.99333 0.91365 0.0
C3010 C 0.5992 1.00282 0.89623 0.0
C3011 C 0.61433 0.017 0.89423 0.0
C3012 C 0.59495 0.03458 0.96507 0.0
C3013 C 0.59624 0.02048 0.92847 0.0
C3014 C 0.58573 0.03533 0.98178 0.0
C3015 C 0.56796 0.02442 0.98061 0.0
C3016 C 0.58672 0.02243 0.94685 0.0
C3017 C 0.56023 0.01277 0.96196 0.0
C3018 C 0.59018 1.00457 0.91291 0.0
C3019 C 0.61975 0.0329 0.91009 0.0
N3020 N 0.56957 0.01198 0.94621 0.0
N3021 N 0.61094 0.03408 0.92635 0.0
H3022 H 0.31997 0.3159 0.14186 0.0
H3023 H 0.25149 0.28406 0.21622 0.0
H3024 H 0.26702 0.3303 0.13887 0.0
H3025 H 0.30873 0.28595 0.23151 0.0
H3026 H 0.25665 0.29812 0.186 0.0
H3027 H 0.31587 0.30214 0.17265 0.0
C3028 C 0.30752 0.31632 0.1476 0.0
C3029 C 0.29387 0.32448 0.13746 0.0
C3030 C 0.26815 0.29558 0.19595 0.0
C3031 C 0.28901 0.30827 0.17282 0.0
C3032 C 0.26521 0.28752 0.21324 0.0
C3033 C 0.27971 0.28401 0.22659 0.0
C3034 C 0.28575 0.29987 0.19151 0.0
C3035 C 0.29719 0.28875 0.22187 0.0
C3036 C 0.30519 0.30834 0.16522 0.0
C3037 C 0.2779 0.324 0.14567 0.0
N3038 N 0.29972 0.29629 0.20465 0.0
N3039 N 0.27595 0.31607 0.16268 0.0
H3040 H 0.18114 0.89917 0.04062 0.0
H3041 H 0.13611 0.98776 0.01242 0.0
H3042 H 0.18814 0.92737 0.98867 0.0
H3043 H 0.12843 0.9609 0.06495 0.0
H3044 H 0.15414 0.96434 1.00284 0.0
H3045 H 0.15993 0.91971 0.04871 0.0
C3046 C 0.17801 0.90958 0.03082 0.0
C3047 C 0.18648 0.91191 0.01414 0.0
C3048 C 0.14852 0.96344 0.01644 0.0
C3049 C 0.16243 0.9352 0.0232 0.0
C3050 C 0.13832 0.97681 0.0219 0.0
C3051 C 0.13091 0.976 0.03937 0.0
C3052 C 0.15129 0.94918 0.02858 0.0
C3053 C 0.13411 0.96184 0.05139 0.0
C3054 C 0.16595 0.92124 0.03544 0.0
C3055 C 0.18183 0.92519 1.00165 0.0
N3056 N 0.14414 0.94881 0.04571 0.0
N3057 N 0.17019 0.93653 0.00658 0.0
H3058 H 0.67113 0.62137 0.0479 0.0
H3059 H 0.59131 0.53064 0.99497 0.0
H3060 H 0.67411 0.5817 0.99602 0.0
H3061 H 0.58798 0.56559 0.0498 0.0
H3062 H 0.62135 0.55004 0.99532 0.0
H3063 H 0.64118 0.60208 0.0492 0.0
C3064 C 0.6657 0.60862 0.03679 0.0
C3065 C 0.67557 0.60347 0.02172 0.0
C3066 C 0.61416 0.5536 0.00732 0.0
C3067 C 0.64058 0.58123 0.02305 0.0
C3068 C 0.59685 0.54247 0.00713 0.0
C3069 C 0.58687 0.54635 0.02237 0.0
C3070 C 0.6219 0.56908 0.02283 0.0
C3071 C 0.59504 0.56198 0.03769 0.0
C3072 C 0.64839 0.59762 0.03753 0.0
C3073 C 0.66723 0.58678 0.00772 0.0
N3074 N 0.61199 0.57274 0.03751 0.0
N3075 N 0.65042 0.57645 0.00873 0.0
H3076 H 0.69913 0.46408 0.25996 0.0
H3077 H 0.70932 0.35971 0.28989 0.0
H3078 H 0.67216 0.43745 0.30421 0.0
H3079 H 0.74484 0.3921 0.25614 0.0
H3080 H 0.69212 0.38576 0.29089 0.0
H3081 H 0.71285 0.43559 0.25436 0.0
C3082 C 0.69604 0.45219 0.26843 0.0
C3083 C 0.68459 0.45316 0.28266 0.0
C3084 C 0.7036 0.38707 0.28313 0.0
C3085 C 0.70017 0.42055 0.27631 0.0
C3086 C 0.71343 0.37222 0.28257 0.0
C3087 C 0.7287 0.37381 0.27316 0.0
C3088 C 0.70904 0.40361 0.27416 0.0
C3089 C 0.73313 0.39015 0.2635 0.0
C3090 C 0.7039 0.43597 0.26526 0.0
C3091 C 0.68114 0.43742 0.29332 0.0
N3092 N 0.72344 0.40449 0.2644 0.0
N3093 N 0.6889 0.42175 0.28993 0.0
H3094 H 0.84925 0.42757 0.55349 0.0
H3095 H 0.90889 0.49937 0.49846 0.0
H3096 H 0.85683 0.41498 0.49225 0.0
H3097 H 0.93293 0.48949 0.55662 0.0
H3098 H 0.88158 0.47603 0.50043 0.0
H3099 H 0.87471 0.45562 0.55865 0.0
C3100 C 0.85643 0.43047 0.54126 0.0
C3101 C 0.85067 0.41928 0.52223 0.0
C3102 C 0.89263 0.47953 0.51305 0.0
C3103 C 0.87873 0.4515 0.52786 0.0
C3104 C 0.90802 0.49306 0.5121 0.0
C3105 C 0.9231 0.49597 0.52728 0.0
C3106 C 0.8924 0.46921 0.52937 0.0
C3107 C 0.92147 0.48731 0.54458 0.0
C3108 C 0.8707 0.44656 0.54419 0.0
C3109 C 0.86043 0.42365 0.50693 0.0
N3110 N 0.90641 0.47383 0.54503 0.0
N3111 N 0.87379 0.43971 0.50997 0.0
H3112 H 0.37395 0.15138 0.28847 0.0
H3113 H 0.28604 0.19865 0.25476 0.0
H3114 H 0.32984 0.12048 0.2425 0.0
H3115 H 0.3367 0.23245 0.28774 0.0
H3116 H 0.30014 0.1697 0.2517 0.0
H3117 H 0.35931 0.17957 0.29019 0.0
C3118 C 0.36114 0.15015 0.27872 0.0
C3119 C 0.35351 0.13264 0.26533 0.0
C3120 C 0.30825 0.1834 0.25964 0.0
C3121 C 0.33603 0.16642 0.26735 0.0
C3122 C 0.30011 0.20018 0.26146 0.0
C3123 C 0.30992 0.21869 0.27155 0.0
C3124 C 0.32655 0.18441 0.26834 0.0
C3125 C 0.32826 0.21897 0.2797 0.0
C3126 C 0.35273 0.16668 0.27968 0.0
C3127 C 0.33676 0.13317 0.25309 0.0
N3128 N 0.3357 0.20244 0.27808 0.0
N3129 N 0.32876 0.14937 0.2545 0.0
H3130 H 0.35382 0.10823 0.56004 0.0
H3131 H 0.43377 0.07804 0.50849 0.0
H3132 H 0.3667 0.12779 0.50521 0.0
H3133 H 0.43224 0.07641 0.5712 0.0
H3134 H 0.40875 0.0953 0.50665 0.0
H3135 H 0.38165 0.09558 0.56408 0.0
C3136 C 0.36242 0.11008 0.54886 0.0
C3137 C 0.35745 0.11912 0.53209 0.0
C3138 C 0.41396 0.09127 0.52085 0.0
C3139 C 0.38949 0.10392 0.53652 0.0
C3140 C 0.42844 0.08148 0.52199 0.0
C3141 C 0.43527 0.07544 0.54001 0.0
C3142 C 0.40592 0.09494 0.53775 0.0
C3143 C 0.42729 0.0802 0.55681 0.0
C3144 C 0.37837 0.10268 0.55118 0.0
C3145 C 0.36937 0.12055 0.51811 0.0
N3146 N 0.413 0.08944 0.55521 0.0
N3147 N 0.38463 0.11292 0.52055 0.0
H3148 H 0.72283 0.63154 0.31871 0.0
H3149 H 0.74523 0.72578 0.26395 0.0
H3150 H 0.6843 0.64547 0.27238 0.0
H3151 H 0.77977 0.71379 0.31494 0.0
H3152 H 0.72263 0.69667 0.26625 0.0
H3153 H 0.74378 0.66155 0.31689 0.0
C3154 C 0.71863 0.64094 0.30825 0.0
C3155 C 0.70156 0.63582 0.29581 0.0
C3156 C 0.73512 0.70049 0.27699 0.0
C3157 C 0.72594 0.67043 0.29336 0.0
C3158 C 0.74797 0.71717 0.27575 0.0
C3159 C 0.76438 0.72229 0.28935 0.0
C3160 C 0.73879 0.68877 0.29183 0.0
C3161 C 0.76733 0.71042 0.30414 0.0
C3162 C 0.73073 0.65811 0.30713 0.0
C3163 C 0.69731 0.64856 0.28218 0.0
N3164 N 0.75475 0.69426 0.30492 0.0
N3165 N 0.70937 0.66521 0.28133 0.0
H3166 H 0.86379 0.4317 0.79137 0.0
H3167 H 0.79931 0.32826 0.74205 0.0
H3168 H 0.8349 0.42242 0.73076 0.0
H3169 H 0.82327 0.34319 0.8043 0.0
H3170 H 0.81274 0.36135 0.73651 0.0
H3171 H 0.85001 0.39869 0.79507 0.0
C3172 C 0.85439 0.4229 0.77879 0.0
C3173 C 0.8504 0.43047 0.7608 0.0
C3174 C 0.81514 0.35738 0.75136 0.0
C3175 C 0.83452 0.39152 0.76498 0.0
C3176 C 0.80756 0.33835 0.75453 0.0
C3177 C 0.81027 0.33262 0.77368 0.0
C3178 C 0.82577 0.37094 0.76742 0.0
C3179 C 0.82072 0.34675 0.78929 0.0
C3180 C 0.84655 0.40378 0.78093 0.0
C3181 C 0.83852 0.41755 0.74497 0.0
N3182 N 0.82808 0.36499 0.7858 0.0
N3183 N 0.83101 0.39887 0.74744 0.0
H3184 H 0.02235 0.8771 0.0862 0.0
H3185 H 0.06923 0.96699 0.03814 0.0
H3186 H 0.07232 0.87725 0.06329 0.0
H3187 H 0.01227 0.9549 0.04148 0.0
H3188 H 0.07154 0.93523 0.04876 0.0
H3189 H 0.01913 0.90624 0.07131 0.0
C3190 C 0.03263 0.88296 0.07793 0.0
C3191 C 0.04774 0.87428 0.07628 0.0
C3192 C 0.05852 0.93949 0.04702 0.0
C3193 C 0.04427 0.90868 0.05955 0.0
C3194 C 0.05719 0.95766 0.04096 0.0
C3195 C 0.04054 0.96376 0.03884 0.0
C3196 C 0.04317 0.92744 0.05149 0.0
C3197 C 0.0254 0.9509 0.04275 0.0
C3198 C 0.03079 0.89986 0.06951 0.0
C3199 C 0.06065 0.88335 0.0656 0.0
N3200 N 0.02713 0.93358 0.04906 0.0
N3201 N 0.0587 0.90003 0.05787 0.0
H3202 H 0.90803 0.23722 0.87395 0.0
H3203 H 0.84634 0.29574 0.80743 0.0
H3204 H 0.93133 0.28854 0.85049 0.0
H3205 H 0.8282 0.23685 0.81787 0.0
H3206 H 0.87686 0.29537 0.82549 0.0
H3207 H 0.87836 0.23864 0.85586 0.0
C3208 C 0.9071 0.24873 0.86489 0.0
C3209 C 0.92263 0.26269 0.8639 0.0
C3210 C 0.86614 0.28261 0.82402 0.0
C3211 C 0.88791 0.26468 0.84319 0.0
C3212 C 0.84866 0.28289 0.81387 0.0
C3213 C 0.83453 0.26639 0.81141 0.0
C3214 C 0.86952 0.26582 0.8321 0.0
C3215 C 0.83856 0.24996 0.81958 0.0
C3216 C 0.88995 0.2496 0.85461 0.0
C3217 C 0.91996 0.27751 0.85213 0.0
N3218 N 0.85549 0.25015 0.82959 0.0
N3219 N 0.90306 0.27813 0.84236 0.0
H3220 H 0.56893 0.18962 0.54988 0.0
H3221 H 0.52653 0.08096 0.56423 0.0
H3222 H 0.5244 0.17387 0.58115 0.0
H3223 H 0.56552 0.09292 0.52511 0.0
H3224 H 0.52672 0.11548 0.57099 0.0
H3225 H 0.56824 0.15483 0.54001 0.0
C3226 C 0.55892 0.17885 0.55451 0.0
C3227 C 0.54677 0.18464 0.56645 0.0
C3228 C 0.53523 0.11068 0.56086 0.0
C3229 C 0.54607 0.145 0.55549 0.0
C3230 C 0.53517 0.09092 0.55703 0.0
C3231 C 0.54594 0.08405 0.54397 0.0
C3232 C 0.54612 0.12388 0.55157 0.0
C3233 C 0.55708 0.09767 0.53534 0.0
C3234 C 0.55854 0.15904 0.54888 0.0
C3235 C 0.53394 0.17012 0.57183 0.0
N3236 N 0.55683 0.11702 0.53924 0.0
N3237 N 0.53406 0.15103 0.56648 0.0
H3238 H 0.59705 0.80366 0.36475 0.0
H3239 H 0.69016 0.7681 0.35607 0.0
H3240 H 0.61173 0.75404 0.38953 0.0
H3241 H 0.66808 0.80356 0.31522 0.0
H3242 H 0.66389 0.76746 0.37266 0.0
H3243 H 0.62517 0.80817 0.35064 0.0
C3244 C 0.60619 0.79376 0.36733 0.0
C3245 C 0.60183 0.77829 0.37823 0.0
C3246 C 0.66481 0.77545 0.3601 0.0
C3247 C 0.63416 0.7835 0.36219 0.0
C3248 C 0.67983 0.77577 0.3505 0.0
C3249 C 0.68133 0.78552 0.33378 0.0
C3250 C 0.65108 0.78513 0.35324 0.0
C3251 C 0.66766 0.79579 0.32795 0.0
C3252 C 0.62221 0.79631 0.35918 0.0
C3253 C 0.61426 0.76594 0.38098 0.0
N3254 N 0.6531 0.79522 0.33756 0.0
N3255 N 0.62978 0.76883 0.37308 0.0
H3256 H 0.98763 0.2139 0.45421 0.0
H3257 H 0.02002 0.11266 0.45343 0.0
H3258 H 0.02555 0.19583 0.41854 0.0
H3259 H 0.9916 0.13538 0.49801 0.0
H3260 H 0.01537 0.13945 0.43488 0.0
H3261 H 0.98339 0.18207 0.46592 0.0
C3262 C 0.99501 0.20317 0.44888 0.0
C3263 C 1.00712 0.20737 0.43569 0.0
C3264 C 0.00985 0.13834 0.44852 0.0
C3265 C 1.00214 0.1712 0.44854 0.0
C3266 C 0.01241 0.12305 0.459 0.0
C3267 C 1.00645 0.12215 0.47737 0.0
C3268 C 1.00138 0.15275 0.45662 0.0
C3269 C 0.99643 0.13567 0.4839 0.0
C3270 C 0.99255 0.18507 0.45544 0.0
C3271 C 0.01637 0.19315 0.42906 0.0
N3272 N 0.9945 0.15072 0.4737 0.0
N3273 N 0.01372 0.17565 0.43561 0.0
H3274 H 0.63717 0.23013 0.26129 0.0
H3275 H 0.73309 0.29236 0.25793 0.0
H3276 H 0.64885 0.2919 0.25791 0.0
H3277 H 0.72583 0.23295 0.27054 0.0
H3278 H 0.7019 0.29224 0.26029 0.0
H3279 H 0.66964 0.2313 0.27003 0.0
C3280 C 0.64651 0.24402 0.263 0.0
C3281 C 0.64042 0.26075 0.25804 0.0
C3282 C 0.70704 0.27918 0.26257 0.0
C3283 C 0.67712 0.26216 0.26789 0.0
C3284 C 0.72483 0.27913 0.26093 0.0
C3285 C 0.73208 0.2627 0.26432 0.0
C3286 C 0.69624 0.26252 0.26717 0.0
C3287 C 0.7207 0.24594 0.2679 0.0
C3288 C 0.66498 0.24465 0.26792 0.0
C3289 C 0.65288 0.27852 0.26122 0.0
N3290 N 0.70319 0.24626 0.26926 0.0
N3291 N 0.67074 0.27865 0.2655 0.0
H3292 H 0.50681 0.89762 0.93283 0.0
H3293 H 0.54517 0.95502 0.04283 0.0
H3294 H 0.54357 0.8762 0.97503 0.0
H3295 H 0.52371 0.98027 0.99219 0.0
H3296 H 0.54077 0.92371 0.02066 0.0
H3297 H 0.50887 0.92622 0.95721 0.0
C3298 C 0.51527 0.89899 0.94734 0.0
C3299 C 0.52499 0.8847 0.95211 0.0
C3300 C 0.53682 0.93615 0.01465 0.0
C3301 C 0.52751 0.91724 0.97999 0.0
C3302 C 0.53916 0.95384 0.02725 0.0
C3303 C 0.53443 0.97004 0.01935 0.0
C3304 C 0.52958 0.93495 0.99431 0.0
C3305 C 0.52707 0.96805 0.99904 0.0
C3306 C 0.51649 0.91528 0.96122 0.0
C3307 C 0.53597 0.88712 0.97093 0.0
N3308 N 0.52489 0.95084 0.98725 0.0
N3309 N 0.53694 0.9032 0.98435 0.0
H3310 H 0.96524 0.76151 0.70537 0.0
H3311 H 0.90715 0.75778 0.79346 0.0
H3312 H 0.98587 0.74671 0.76261 0.0
H3313 H 0.89375 0.78027 0.73825 0.0
H3314 H 0.93476 0.7503 0.78229 0.0
H3315 H 0.9371 0.76444 0.71672 0.0
C3316 C 0.96373 0.75892 0.72042 0.0
C3317 C 0.97777 0.75421 0.73327 0.0
C3318 C 0.92565 0.75676 0.77267 0.0
C3319 C 0.94571 0.75758 0.74649 0.0
C3320 C 0.91001 0.76103 0.77901 0.0
C3321 C 0.89814 0.76939 0.76659 0.0
C3322 C 0.92926 0.76102 0.75391 0.0
C3323 C 0.90232 0.77341 0.74806 0.0
C3324 C 0.94769 0.76056 0.72692 0.0
C3325 C 0.9752 0.75052 0.75245 0.0
N3326 N 0.91753 0.76921 0.74233 0.0
N3327 N 0.95939 0.75249 0.75866 0.0
H3328 H 0.06283 0.03792 0.8779 0.0
H3329 H 0.07253 0.02051 0.99278 0.0
H3330 H 0.10971 0.02055 0.90843 0.0
H3331 H 0.02156 0.01963 0.95543 0.0
H3332 H 0.08771 0.02433 0.96354 0.0
H3333 H 0.04875 0.03525 0.90769 0.0
C3334 C 0.07023 0.03364 0.89088 0.0
C3335 C 0.08753 0.02946 0.89056 0.0
C3336 C 0.0732 0.02335 0.96182 0.0
C3337 C 0.0714 0.02635 0.9249 0.0
C3338 C 0.06458 0.02123 0.97851 0.0
C3339 C 0.04576 0.01961 0.97651 0.0
C3340 C 0.06295 0.02427 0.94315 0.0
C3341 C 0.03609 0.02065 0.95763 0.0
C3342 C 0.06212 0.03201 0.90788 0.0
C3343 C 0.09629 0.02373 0.90786 0.0
N3344 N 0.04476 0.023 0.94179 0.0
N3345 N 0.08819 0.02243 0.9243 0.0
H3346 H 0.74209 0.28934 0.59231 0.0
H3347 H 0.83185 0.31029 0.66027 0.0
H3348 H 0.78956 0.28255 0.56684 0.0
H3349 H 0.78524 0.27704 0.67881 0.0
H3350 H 0.81628 0.30073 0.62524 0.0
H3351 H 0.7563 0.28139 0.62346 0.0
C3352 C 0.75513 0.28518 0.59291 0.0
C3353 C 0.7652 0.28769 0.57753 0.0
C3354 C 0.80973 0.29537 0.63713 0.0
C3355 C 0.78168 0.27957 0.61308 0.0
C3356 C 0.81839 0.30117 0.65691 0.0
C3357 C 0.8095 0.29498 0.6722 0.0
C3358 C 0.79235 0.28326 0.63304 0.0
C3359 C 0.79224 0.28272 0.66737 0.0
C3360 C 0.76338 0.28091 0.61082 0.0
C3361 C 0.78187 0.28173 0.57895 0.0
N3362 N 0.78414 0.2774 0.64818 0.0
N3363 N 0.79017 0.27896 0.59697 0.0
H3364 H 0.47493 0.06491 0.38463 0.0
H3365 H 0.50949 0.99556 0.4634 0.0
H3366 H 0.46279 1.00213 0.37119 0.0
H3367 H 0.51872 0.05793 0.47716 0.0
H3368 H 0.49212 0.99737 0.43038 0.0
H3369 H 0.49035 0.0624 0.41793 0.0
C3370 C 0.4752 0.05048 0.38837 0.0
C3371 C 0.46692 0.03376 0.37411 0.0
C3372 C 0.49756 0.0107 0.4407 0.0
C3373 C 0.48559 0.03083 0.41376 0.0
C3374 C 0.50736 0.00965 0.4599 0.0
C3375 C 0.51509 0.02652 0.47402 0.0
C3376 C 0.49548 0.02889 0.43484 0.0
C3377 C 0.51254 0.04436 0.46751 0.0
C3378 C 0.48431 0.04911 0.40776 0.0
C3379 C 0.46874 0.01571 0.38087 0.0
N3380 N 0.50311 0.04503 0.44878 0.0
N3381 N 0.47767 0.0148 0.39979 0.0
H3382 H 0.80739 0.72061 0.12913 0.0
H3383 H 0.76576 0.78302 0.20908 0.0
H3384 H 0.7662 0.75273 0.11091 0.0
H3385 H 0.7945 0.73721 0.22132 0.0
H3386 H 0.7682 0.77606 0.17342 0.0
H3387 H 0.80679 0.73212 0.1639 0.0
C3388 C 0.79849 0.73044 0.13244 0.0
C3389 C 0.78668 0.73557 0.11715 0.0
C3390 C 0.77381 0.76749 0.18398 0.0
C3391 C 0.78554 0.74837 0.15696 0.0
C3392 C 0.77226 0.77132 0.20416 0.0
C3393 C 0.77999 0.76067 0.21794 0.0
C3394 C 0.78314 0.75298 0.17789 0.0
C3395 C 0.78852 0.74586 0.21109 0.0
C3396 C 0.79797 0.73682 0.15231 0.0
C3397 C 0.77528 0.7482 0.12235 0.0
N3398 N 0.78992 0.7425 0.19158 0.0
N3399 N 0.77486 0.75407 0.14189 0.0
H3400 H 0.08117 0.99759 0.68845 0.0
H3401 H 0.04995 0.05485 0.60056 0.0
H3402 H 0.06729 0.05422 0.69833 0.0
H3403 H 0.05262 0.99383 0.59107 0.0
H3404 H 0.05621 0.05475 0.63645 0.0
H3405 H 0.06992 0.99544 0.65287 0.0
C3406 C 0.07545 0.00943 0.68321 0.0
C3407 C 0.07529 0.0262 0.69639 0.0
C3408 C 0.05533 0.04136 0.62653 0.0
C3409 C 0.06283 0.024 0.65558 0.0
C3410 C 0.05186 0.04141 0.60599 0.0
C3411 C 0.05088 0.02435 0.59275 0.0
C3412 C 0.05798 0.02416 0.63391 0.0
C3413 C 0.05337 1.00736 0.60071 0.0
C3414 C 0.06916 0.00824 0.66285 0.0
C3415 C 0.068 0.04121 0.68865 0.0
N3416 N 0.05691 1.00773 0.62082 0.0
N3417 N 0.06221 0.03984 0.6687 0.0
H3418 H 0.74083 0.32172 0.408 0.0
H3419 H 0.76011 0.24485 0.32439 0.0
H3420 H 0.72939 0.25983 0.41026 0.0
H3421 H 0.79277 0.30268 0.34284 0.0
H3422 H 0.74106 0.25133 0.34922 0.0
H3423 H 0.75148 0.31564 0.3765 0.0
C3424 C 0.7397 0.30676 0.40125 0.0
C3425 C 0.73402 0.29112 0.41132 0.0
C3426 C 0.75254 0.26246 0.34798 0.0
C3427 C 0.7465 0.28426 0.37595 0.0
C3428 C 0.76348 0.2587 0.3342 0.0
C3429 C 0.77829 0.27304 0.33258 0.0
C3430 C 0.75654 0.28065 0.35995 0.0
C3431 C 0.78174 0.29118 0.34443 0.0
C3432 C 0.74603 0.30338 0.38353 0.0
C3433 C 0.73348 0.2721 0.40261 0.0
N3434 N 0.77093 0.29449 0.35793 0.0
N3435 N 0.73986 0.26915 0.3853 0.0
H3436 H 0.48223 0.05421 0.17824 0.0
H3437 H 0.48394 1.00078 0.06685 0.0
H3438 H 0.44273 1.00265 0.1506 0.0
H3439 H 0.52857 0.04329 0.102 0.0
H3440 H 0.46768 1.002 0.09564 0.0
H3441 H 0.49779 0.05148 0.14949 0.0
C3442 C 0.47658 0.04233 0.16619 0.0
C3443 C 0.46071 0.02878 0.16743 0.0
C3444 C 0.48102 0.01111 0.09709 0.0
C3445 C 0.47919 0.02547 0.13344 0.0
C3446 C 0.49037 0.01047 0.08049 0.0
C3447 C 0.50789 0.02194 0.0816 0.0
C3448 C 0.48887 0.02368 0.11516 0.0
C3449 C 0.51526 0.03402 0.10009 0.0
C3450 C 0.48572 0.04071 0.14962 0.0
C3451 C 0.4548 0.01355 0.15092 0.0
N3452 N 0.5058 0.03466 0.11575 0.0
N3453 N 0.46384 0.01243 0.13484 0.0
H3454 H 0.75657 0.70323 0.90669 0.0
H3455 H 0.80785 0.78966 0.8566 0.0
H3456 H 0.80562 0.74236 0.93758 0.0
H3457 H 0.77315 0.73778 0.82209 0.0
H3458 H 0.80483 0.77508 0.88723 0.0
H3459 H 0.75973 0.71841 0.8766 0.0
C3460 C 0.76795 0.71511 0.90724 0.0
C3461 C 0.78083 0.72145 0.92483 0.0
C3462 C 0.79779 0.76695 0.87296 0.0
C3463 C 0.78455 0.739 0.89015 0.0
C3464 C 0.79943 0.77529 0.85546 0.0
C3465 C 0.79056 0.76504 0.83669 0.0
C3466 C 0.78688 0.74833 0.87181 0.0
C3467 C 0.78004 0.74635 0.83618 0.0
C3468 C 0.76981 0.72368 0.88995 0.0
C3469 C 0.79542 0.73682 0.92438 0.0
N3470 N 0.77838 0.73869 0.85343 0.0
N3471 N 0.79682 0.74511 0.90742 0.0
H3472 H 0.86277 0.1059 0.02354 0.0
H3473 H 0.96596 0.09623 0.03022 0.0
H3474 H 0.90724 0.14673 0.06123 0.0
H3475 H 0.92057 0.05258 0.99781 0.0
H3476 H 0.94515 0.11773 0.03728 0.0
H3477 H 0.8842 0.08764 0.01121 0.0
C3478 C 0.87712 0.1107 0.02941 0.0
C3479 C 0.88348 0.12747 0.04347 0.0
C3480 C 0.9398 0.10358 0.02833 0.0
C3481 C 0.90795 0.10735 0.02916 0.0
C3482 C 0.95165 0.09144 0.02416 0.0
C3483 C 0.94482 0.07258 0.01375 0.0
C3484 C 0.92112 0.09664 0.02204 0.0
C3485 C 0.92631 0.06702 0.00594 0.0
C3486 C 0.88932 0.10051 0.02226 0.0
C3487 C 0.90204 0.13359 0.05056 0.0
N3488 N 0.91501 0.07891 0.01057 0.0
N3489 N 0.91376 0.12349 0.04325 0.0
H3490 H 0.4044 0.45759 0.07061 0.0
H3491 H 0.48473 0.48348 0.00682 0.0
H3492 H 0.39993 0.43197 0.00917 0.0
H3493 H 0.48561 0.51029 0.06695 0.0
H3494 H 0.45433 0.46386 0.00702 0.0
H3495 H 0.43444 0.47606 0.06925 0.0
C3496 C 0.40967 0.45564 0.05681 0.0
C3497 C 0.39927 0.44285 0.04005 0.0
C3498 C 0.46121 0.474 0.02019 0.0
C3499 C 0.43429 0.46465 0.03831 0.0
C3500 C 0.47864 0.48518 0.02009 0.0
C3501 C 0.48791 0.49864 0.03691 0.0
C3502 C 0.45293 0.47614 0.03727 0.0
C3503 C 0.47913 0.5002 0.05361 0.0
C3504 C 0.42694 0.46642 0.05601 0.0
C3505 C 0.40711 0.44164 0.02252 0.0
N3506 N 0.46234 0.48919 0.05335 0.0
N3507 N 0.42401 0.45226 0.02215 0.0
H3508 H 0.39373 0.59887 0.74894 0.0
H3509 H 0.34954 0.6665 0.82133 0.0
H3510 H 0.38775 0.58782 0.80871 0.0
H3511 H 0.34641 0.66731 0.75787 0.0
H3512 H 0.36694 0.64044 0.81884 0.0
H3513 H 0.37962 0.62684 0.75378 0.0
C3514 C 0.38934 0.60226 0.76307 0.0
C3515 C 0.39168 0.5908 0.77833 0.0
C3516 C 0.36254 0.6465 0.80554 0.0
C3517 C 0.37577 0.62316 0.78414 0.0
C3518 C 0.35267 0.66133 0.80696 0.0
C3519 C 0.3467 0.66917 0.78981 0.0
C3520 C 0.36633 0.63953 0.78685 0.0
C3521 C 0.35109 0.66202 0.77155 0.0
C3522 C 0.38139 0.61834 0.76588 0.0
C3523 C 0.38623 0.59629 0.79656 0.0
N3524 N 0.36055 0.64758 0.77056 0.0
N3525 N 0.37842 0.61208 0.79895 0.0
H3526 H 0.2331 0.60641 0.51283 0.0
H3527 H 0.16211 0.55782 0.57329 0.0
H3528 H 0.21505 0.63805 0.56147 0.0
H3529 H 0.14804 0.54713 0.50894 0.0
H3530 H 0.18951 0.58064 0.57059 0.0
H3531 H 0.20761 0.57914 0.51178 0.0
C3532 C 0.22363 0.60776 0.52303 0.0
C3533 C 0.22626 0.62435 0.53747 0.0
C3534 C 0.18067 0.57283 0.55707 0.0
C3535 C 0.19799 0.59326 0.53676 0.0
C3536 C 0.16527 0.55963 0.55858 0.0
C3537 C 0.15302 0.55068 0.54129 0.0
C3538 C 0.18386 0.5768 0.53817 0.0
C3539 C 0.15735 0.55384 0.52254 0.0
C3540 C 0.2093 0.59218 0.5225 0.0
C3541 C 0.21377 0.62531 0.55048 0.0
N3542 N 0.17251 0.56692 0.52141 0.0
N3543 N 0.20028 0.6098 0.55002 0.0
H3544 H 0.70804 0.89892 0.81833 0.0
H3545 H 0.78454 0.84552 0.77675 0.0
H3546 H 0.73915 0.92188 0.77544 0.0
H3547 H 0.74228 0.81518 0.80378 0.0
H3548 H 0.77057 0.8745 0.77913 0.0
H3549 H 0.72258 0.87056 0.8166 0.0
C3550 C 0.71791 0.89836 0.80854 0.0
C3551 C 0.72183 0.91364 0.79694 0.0
C3552 C 0.76431 0.8616 0.78466 0.0
C3553 C 0.73917 0.87974 0.79488 0.0
C3554 C 0.77241 0.84481 0.78336 0.0
C3555 C 0.76484 0.82724 0.78999 0.0
C3556 C 0.74843 0.86163 0.79316 0.0
C3557 C 0.74886 0.82794 0.79827 0.0
C3558 C 0.72625 0.88174 0.80748 0.0
C3559 C 0.73501 0.91094 0.78461 0.0
N3560 N 0.74148 0.84454 0.79973 0.0
N3561 N 0.74302 0.89476 0.78402 0.0
H3562 H 0.70102 0.90261 0.50758 0.0
H3563 H 0.65964 0.99561 0.54213 0.0
H3564 H 0.73082 0.95423 0.54714 0.0
H3565 H 0.62825 0.94698 0.49976 0.0
H3566 H 0.68573 0.97993 0.54359 0.0
H3567 H 0.67427 0.91773 0.50381 0.0
C3568 C 0.70203 0.91713 0.5154 0.0
C3569 C 0.71831 0.92704 0.52789 0.0
C3570 C 0.67316 0.97251 0.53403 0.0
C3571 C 0.68761 0.94439 0.5237 0.0
C3572 C 0.65823 0.98147 0.53329 0.0
C3573 C 0.64174 0.9725 0.52101 0.0
C3574 C 0.67169 0.95421 0.52258 0.0
C3575 C 0.64075 0.95433 0.5095 0.0
C3576 C 0.68669 0.92571 0.51329 0.0
C3577 C 0.71861 0.94576 0.5377 0.0
N3578 N 0.65548 0.9457 0.51065 0.0
N3579 N 0.7036 0.95371 0.53542 0.0
H3580 H 0.35649 0.42346 0.7855 0.0
H3581 H 0.32642 0.30708 0.75648 0.0
H3582 H 0.3828 0.38951 0.7468 0.0
H3583 H 0.29557 0.3423 0.78717 0.0
H3584 H 0.34865 0.33671 0.75489 0.0
H3585 H 0.33537 0.39367 0.78825 0.0
C3586 C 0.35789 0.40973 0.77763 0.0
C3587 C 0.3715 0.40905 0.7659 0.0
C3588 C 0.33711 0.33799 0.76211 0.0
C3589 C 0.34723 0.37473 0.76897 0.0
C3590 C 0.32457 0.32107 0.76317 0.0
C3591 C 0.30942 0.32232 0.77223 0.0
C3592 C 0.33443 0.3563 0.77022 0.0
C3593 C 0.3072 0.34079 0.78019 0.0
C3594 C 0.34575 0.39271 0.77914 0.0
C3595 C 0.37243 0.3908 0.75584 0.0
N3596 N 0.31958 0.35705 0.77905 0.0
N3597 N 0.36053 0.3744 0.75767 0.0
H3598 H 0.2271 0.60786 0.26689 0.0
H3599 H 0.26407 0.72 0.31835 0.0
H3600 H 0.22573 0.6268 0.32883 0.0
H3601 H 0.26089 0.69964 0.25577 0.0
H3602 H 0.25143 0.6865 0.32328 0.0
H3603 H 0.24066 0.64117 0.26353 0.0
C3604 C 0.22946 0.61895 0.27985 0.0
C3605 C 0.22478 0.61408 0.29813 0.0
C3606 C 0.25345 0.68935 0.30846 0.0
C3607 C 0.24095 0.65313 0.29431 0.0
C3608 C 0.26068 0.70859 0.30558 0.0
C3609 C 0.26359 0.71299 0.28652 0.0
C3610 C 0.24898 0.67409 0.29218 0.0
C3611 C 0.25895 0.69726 0.27073 0.0
C3612 C 0.2374 0.63815 0.2779 0.0
C3613 C 0.22898 0.62948 0.31438 0.0
N3614 N 0.25196 0.67876 0.27391 0.0
N3615 N 0.23667 0.64815 0.31207 0.0
H3616 H 0.54715 0.66406 0.4669 0.0
H3617 H 0.51021 0.58357 0.53315 0.0
H3618 H 0.50589 0.67117 0.50255 0.0
H3619 H 0.55826 0.58434 0.50671 0.0
H3620 H 0.50778 0.61522 0.52212 0.0
H3621 H 0.55075 0.63453 0.48104 0.0
C3622 C 0.53894 0.6596 0.47787 0.0
C3623 C 0.52618 0.67037 0.48346 0.0
C3624 C 0.51887 0.60847 0.51878 0.0
C3625 C 0.53009 0.63592 0.49965 0.0
C3626 C 0.52024 0.59039 0.52506 0.0
C3627 C 0.53448 0.58128 0.5209 0.0
C3628 C 0.53159 0.6173 0.50783 0.0
C3629 C 0.54716 0.59087 0.51045 0.0
C3630 C 0.54096 0.64257 0.4859 0.0
C3631 C 0.51572 0.66334 0.49748 0.0
N3632 N 0.54532 0.60815 0.50414 0.0
N3633 N 0.51787 0.6466 0.50502 0.0
H3634 H 0.64758 0.24997 0.69549 0.0
H3635 H 0.74183 0.3126 0.75916 0.0
H3636 H 0.66292 0.31277 0.7027 0.0
H3637 H 0.73332 0.25027 0.74338 0.0
H3638 H 0.71202 0.3121 0.74012 0.0
H3639 H 0.67749 0.24906 0.71391 0.0
C3640 C 0.6571 0.26362 0.70074 0.0
C3641 C 0.65224 0.28153 0.69722 0.0
C3642 C 0.7166 0.29848 0.74062 0.0
C3643 C 0.68694 0.28044 0.719 0.0
C3644 C 0.73375 0.29874 0.75155 0.0
C3645 C 0.74038 0.28148 0.75288 0.0
C3646 C 0.70553 0.28078 0.73076 0.0
C3647 C 0.72898 0.264 0.74269 0.0
C3648 C 0.67428 0.26302 0.71144 0.0
C3649 C 0.66546 0.29855 0.70508 0.0
N3650 N 0.71217 0.26409 0.73217 0.0
N3651 N 0.68195 0.29755 0.71548 0.0
H3652 H 0.0529 0.36632 0.01263 0.0
H3653 H 1.00366 0.45667 1.00018 0.0
H3654 H 1.00482 0.36414 0.96962 0.0
H3655 H 0.05415 0.46103 0.03997 0.0
H3656 H 1.00262 0.42183 0.99076 0.0
H3657 H 0.05285 0.40056 0.02451 0.0
C3658 C 0.04239 0.37309 0.00569 0.0
C3659 C 0.02874 0.36241 0.99031 0.0
C3660 C 0.01382 0.43034 1.00175 0.0
C3661 C 0.02854 0.40131 1.0037 0.0
C3662 C 0.0143 0.45014 0.00722 0.0
C3663 C 0.02899 0.46156 0.02081 0.0
C3664 C 0.02805 0.42197 0.01013 0.0
C3665 C 0.04266 0.45261 0.0293 0.0
C3666 C 0.0423 0.39255 0.0125 0.0
C3667 C 0.0154 0.37178 0.98179 0.0
N3668 N 0.04187 0.43331 0.02381 0.0
N3669 N 0.01563 0.39067 0.98859 0.0
H3670 H 0.98367 0.79273 0.20716 0.0
H3671 H 0.88278 0.73351 0.20672 0.0
H3672 H 0.95869 0.7417 0.16419 0.0
H3673 H 0.90907 0.7863 0.24651 0.0
H3674 H 0.9102 0.73497 0.19136 0.0
H3675 H 0.9564 0.78936 0.22211 0.0
C3676 C 0.97241 0.78085 0.20074 0.0
C3677 C 0.97356 0.76763 0.1842 0.0
C3678 C 0.90992 0.74623 0.20343 0.0
C3679 C 0.94195 0.76351 0.20155 0.0
C3680 C 0.89428 0.74539 0.21224 0.0
C3681 C 0.89347 0.75996 0.22782 0.0
C3682 C 0.92494 0.76164 0.21038 0.0
C3683 C 0.90882 0.77498 0.2343 0.0
C3684 C 0.95679 0.77885 0.2094 0.0
C3685 C 0.95853 0.75222 0.17697 0.0
N3686 N 0.92381 0.77539 0.22561 0.0
N3687 N 0.94334 0.75064 0.18561 0.0
H3688 H 0.55177 0.35283 0.14824 0.0
H3689 H 0.5816 0.4099 0.06109 0.0
H3690 H 0.57767 0.32964 0.10144 0.0
H3691 H 0.55552 0.434 0.1073 0.0
H3692 H 0.58424 0.38238 0.07871 0.0
H3693 H 0.55578 0.38409 0.13566 0.0
C3694 C 0.55817 0.35435 0.1352 0.0
C3695 C 0.56424 0.33875 0.12564 0.0
C3696 C 0.5782 0.39381 0.08521 0.0
C3697 C 0.56915 0.37429 0.11149 0.0
C3698 C 0.57688 0.40966 0.07527 0.0
C3699 C 0.56823 0.42415 0.08273 0.0
C3700 C 0.57064 0.39236 0.1026 0.0
C3701 C 0.56203 0.42292 0.10094 0.0
C3702 C 0.56064 0.37219 0.12819 0.0
C3703 C 0.57283 0.34143 0.10916 0.0
N3704 N 0.56314 0.40708 0.11018 0.0
N3705 N 0.57495 0.3589 0.10251 0.0
H3706 H 0.92366 0.24891 0.29639 0.0
H3707 H 0.84856 0.31302 0.29815 0.0
H3708 H 0.93878 0.31144 0.31257 0.0
H3709 H 0.84248 0.2537 0.3105 0.0
H3710 H 0.88099 0.31402 0.29809 0.0
H3711 H 0.89182 0.25135 0.29199 0.0
C3712 C 0.92021 0.26317 0.29833 0.0
C3713 C 0.93362 0.27994 0.3051 0.0
C3714 C 0.8725 0.30094 0.30107 0.0
C3715 C 0.89772 0.2828 0.30092 0.0
C3716 C 0.85421 0.30049 0.30146 0.0
C3717 C 0.84308 0.28316 0.30406 0.0
C3718 C 0.87921 0.2839 0.30309 0.0
C3719 C 0.85074 0.2672 0.30813 0.0
C3720 C 0.90216 0.26456 0.29614 0.0
C3721 C 0.92868 0.29819 0.30735 0.0
N3722 N 0.86837 0.26784 0.3072 0.0
N3723 N 0.91096 0.29915 0.30568 0.0
H3724 H 0.06989 0.67598 0.59162 0.0
H3725 H 0.03395 0.56213 0.57139 0.0
H3726 H 0.03292 0.64446 0.62445 0.0
H3727 H 0.04836 0.59306 0.52315 0.0
H3728 H 0.03834 0.59266 0.59294 0.0
H3729 H 0.06658 0.64596 0.56789 0.0
C3730 C 0.06112 0.66271 0.59374 0.0
C3731 C 0.05158 0.66242 0.60976 0.0
C3732 C 0.04061 0.59287 0.57768 0.0
C3733 C 0.04787 0.62871 0.58324 0.0
C3734 C 0.03825 0.57542 0.56536 0.0
C3735 C 0.04091 0.5752 0.54551 0.0
C3736 C 0.04588 0.61028 0.57022 0.0
C3737 C 0.0462 0.59284 0.53844 0.0
C3738 C 0.05916 0.64579 0.58024 0.0
C3739 C 0.04033 0.64515 0.6121 0.0
N3740 N 0.04864 0.60991 0.55093 0.0
N3741 N 0.03884 0.6289 0.59898 0.0
H3742 H 0.61337 0.81858 0.84315 0.0
H3743 H 0.65642 0.74921 0.77306 0.0
H3744 H 0.58202 0.76855 0.80218 0.0
H3745 H 0.68682 0.80299 0.80856 0.0
H3746 H 0.62854 0.75777 0.78112 0.0
H3747 H 0.6398 0.81517 0.82802 0.0
C3748 C 0.61196 0.80709 0.83072 0.0
C3749 C 0.59555 0.79368 0.82407 0.0
C3750 C 0.64127 0.76786 0.78692 0.0
C3751 C 0.62582 0.78942 0.80704 0.0
C3752 C 0.65718 0.76302 0.78223 0.0
C3753 C 0.67392 0.77541 0.79019 0.0
C3754 C 0.64213 0.78514 0.79977 0.0
C3755 C 0.67418 0.79293 0.80233 0.0
C3756 C 0.62709 0.80507 0.82218 0.0
C3757 C 0.59455 0.77893 0.80807 0.0
N3758 N 0.65849 0.79722 0.8069 0.0
N3759 N 0.60957 0.77705 0.80025 0.0
H3760 H 0.47165 0.48875 0.65287 0.0
H3761 H 0.54178 0.55707 0.60101 0.0
H3762 H 0.50781 0.54137 0.68423 0.0
H3763 H 0.50786 0.50262 0.57116 0.0
H3764 H 0.52951 0.55176 0.63159 0.0
H3765 H 0.48512 0.4934 0.6231 0.0
C3766 C 0.48254 0.50119 0.65363 0.0
C3767 C 0.48848 0.5147 0.67122 0.0
C3768 C 0.52469 0.541 0.61834 0.0
C3769 C 0.50382 0.52035 0.63677 0.0
C3770 C 0.53162 0.54408 0.60084 0.0
C3771 C 0.52572 0.53035 0.58345 0.0
C3772 C 0.51168 0.52408 0.61847 0.0
C3773 C 0.51268 0.51367 0.58417 0.0
C3774 C 0.49015 0.50392 0.6365 0.0
C3775 C 0.5025 0.53072 0.67099 0.0
N3776 N 0.50611 0.51102 0.60135 0.0
N3777 N 0.50962 0.53312 0.65407 0.0
H3778 H 0.80711 0.27553 0.98077 0.0
H3779 H 0.76193 0.20884 0.87758 0.0
H3780 H 0.82573 0.22505 0.95673 0.0
H3781 H 0.74483 0.261 0.89982 0.0
H3782 H 0.78174 0.21124 0.90959 0.0
H3783 H 0.78414 0.27087 0.95081 0.0
C3784 C 0.80701 0.26413 0.96865 0.0
C3785 C 0.8176 0.25007 0.97148 0.0
C3786 C 0.77336 0.22196 0.90755 0.0
C3787 C 0.79124 0.24417 0.9379 0.0
C3788 C 0.76163 0.22026 0.88951 0.0
C3789 C 0.7532 0.23584 0.88547 0.0
C3790 C 0.77564 0.2388 0.92157 0.0
C3791 C 0.75222 0.24944 0.90177 0.0
C3792 C 0.79349 0.26101 0.95192 0.0
C3793 C 0.81732 0.23581 0.95532 0.0
N3794 N 0.76415 0.25126 0.91892 0.0
N3795 N 0.80378 0.23273 0.93941 0.0
H3796 H 0.1147 0.48588 0.17072 0.0
H3797 H 0.04683 0.54077 0.10598 0.0
H3798 H 0.09845 0.53772 0.19523 0.0
H3799 H 0.07357 0.49956 0.07724 0.0
H3800 H 0.06456 0.53865 0.13837 0.0
H3801 H 0.09888 0.48896 0.13749 0.0
C3802 C 0.10782 0.49792 0.16941 0.0
C3803 C 0.10831 0.51151 0.18663 0.0
C3804 C 0.06684 0.53018 0.12508 0.0
C3805 C 0.08963 0.51518 0.14729 0.0
C3806 C 0.0567 0.53148 0.10629 0.0
C3807 C 0.05873 0.52078 0.0882 0.0
C3808 C 0.07918 0.51753 0.12663 0.0
C3809 C 0.07162 0.50863 0.09031 0.0
C3810 C 0.09879 0.49973 0.15008 0.0
C3811 C 0.09899 0.52681 0.18296 0.0
N3812 N 0.08106 0.50724 0.10892 0.0
N3813 N 0.09015 0.52808 0.16413 0.0
H3814 H 0.78754 0.84517 0.43149 0.0
H3815 H 0.78148 0.757 0.34598 0.0
H3816 H 0.78276 0.7862 0.44437 0.0
H3817 H 0.80983 0.81532 0.34404 0.0
H3818 H 0.77884 0.76676 0.38091 0.0
H3819 H 0.79132 0.83398 0.39737 0.0
C3820 C 0.78687 0.82978 0.42691 0.0
C3821 C 0.78472 0.8165 0.44053 0.0
C3822 C 0.78592 0.77731 0.37296 0.0
C3823 C 0.78932 0.80371 0.40189 0.0
C3824 C 0.78755 0.77173 0.35319 0.0
C3825 C 0.79613 0.78537 0.3425 0.0
C3826 C 0.79246 0.7968 0.38174 0.0
C3827 C 0.80342 0.80438 0.35208 0.0
C3828 C 0.7893 0.82347 0.40761 0.0
C3829 C 0.78432 0.79679 0.43414 0.0
N3830 N 0.80121 0.80965 0.37117 0.0
N3831 N 0.78655 0.79093 0.41517 0.0
H3832 H 0.51855 0.50509 0.86095 0.0
H3833 H 0.51042 0.54844 0.97162 0.0
H3834 H 0.48213 0.54326 0.87412 0.0
H3835 H 0.53316 0.49769 0.9581 0.0
H3836 H 0.50382 0.5503 0.9359 0.0
H3837 H 0.52849 0.50627 0.89683 0.0
C3838 C 0.51279 0.51387 0.87137 0.0
C3839 C 0.4994 0.52397 0.86454 0.0
C3840 C 0.51029 0.53879 0.94076 0.0
C3841 C 0.51072 0.52543 0.90541 0.0
C3842 C 0.51404 0.53772 0.96109 0.0
C3843 C 0.52222 0.52283 0.96765 0.0
C3844 C 0.51504 0.52505 0.92703 0.0
C3845 C 0.52663 0.50926 0.95352 0.0
C3846 C 0.51844 0.51451 0.8918 0.0
C3847 C 0.49262 0.5354 0.87867 0.0
N3848 N 0.52304 0.51073 0.93379 0.0
N3849 N 0.49827 0.53571 0.89846 0.0
H3850 H 0.85257 0.24217 0.15866 0.0
H3851 H 0.78889 0.29171 0.22063 0.0
H3852 H 0.82618 0.28774 0.13955 0.0
H3853 H 0.81606 0.24675 0.23958 0.0
H3854 H 0.79945 0.28775 0.18868 0.0
H3855 H 0.83974 0.24421 0.18883 0.0
C3856 C 0.8449 0.25344 0.16135 0.0
C3857 C 0.83989 0.26444 0.14644 0.0
C3858 C 0.80289 0.27853 0.19968 0.0
C3859 C 0.82475 0.26637 0.18048 0.0
C3860 C 0.79674 0.28065 0.21767 0.0
C3861 C 0.80215 0.26978 0.2324 0.0
C3862 C 0.81476 0.26581 0.19702 0.0
C3863 C 0.81198 0.25547 0.22835 0.0
C3864 C 0.83706 0.25411 0.17829 0.0
C3865 C 0.83002 0.27883 0.1507 0.0
N3866 N 0.81834 0.25408 0.21095 0.0
N3867 N 0.8222 0.279 0.16721 0.0
H3868 H 0.13528 0.50816 0.4159 0.0
H3869 H 0.04466 0.52697 0.45743 0.0
H3870 H 0.09188 0.52685 0.3803 0.0
H3871 H 0.09296 0.52305 0.49697 0.0
H3872 H 0.06114 0.52538 0.42919 0.0
H3873 H 0.11984 0.51167 0.44493 0.0
C3874 C 0.12249 0.51289 0.41394 0.0
C3875 C 0.11513 0.51706 0.39501 0.0
C3876 C 0.06824 0.5249 0.444 0.0
C3877 C 0.09692 0.52114 0.42913 0.0
C3878 C 0.05875 0.52582 0.46035 0.0
C3879 C 0.06716 0.52514 0.48008 0.0
C3880 C 0.08652 0.52295 0.44683 0.0
C3881 C 0.08563 0.52366 0.48231 0.0
C3882 C 0.11365 0.51503 0.43079 0.0
C3883 C 0.09847 0.52349 0.39423 0.0
N3884 N 0.09449 0.52246 0.46609 0.0
N3885 N 0.09005 0.52512 0.4107 0.0
H3886 H 0.81835 0.84112 0.65487 0.0
H3887 H 0.76322 0.75801 0.70646 0.0
H3888 H 0.76867 0.80278 0.62434 0.0
H3889 H 0.80395 0.80611 0.7395 0.0
H3890 H 0.7663 0.77226 0.67567 0.0
H3891 H 0.81501 0.82621 0.68498 0.0
C3892 C 0.80679 0.82947 0.65435 0.0
C3893 C 0.79381 0.82331 0.63677 0.0
C3894 C 0.77467 0.77963 0.68962 0.0
C3895 C 0.78978 0.80617 0.67175 0.0
C3896 C 0.77298 0.77145 0.70724 0.0
C3897 C 0.78353 0.78072 0.72566 0.0
C3898 C 0.78729 0.79707 0.69027 0.0
C3899 C 0.7957 0.7983 0.7257 0.0
C3900 C 0.80481 0.82106 0.67172 0.0
C3901 C 0.77896 0.80829 0.63745 0.0
N3902 N 0.79735 0.80577 0.70834 0.0
N3903 N 0.7774 0.80024 0.65454 0.0
H3904 H 0.6654 0.39079 0.50939 0.0
H3905 H 0.65565 0.49642 0.55543 0.0
H3906 H 0.70457 0.44363 0.5108 0.0
H3907 H 0.60982 0.44814 0.53941 0.0
H3908 H 0.67508 0.47519 0.54424 0.0
H3909 H 0.64515 0.4102 0.52306 0.0
C3910 C 0.66935 0.40656 0.51198 0.0
C3911 C 0.68627 0.41589 0.50872 0.0
C3912 C 0.66081 0.46916 0.54337 0.0
C3913 C 0.664 0.43781 0.52502 0.0
C3914 C 0.64979 0.48118 0.55009 0.0
C3915 C 0.63114 0.47399 0.54813 0.0
C3916 C 0.65308 0.44989 0.53464 0.0
C3917 C 0.62415 0.4542 0.54086 0.0
C3918 C 0.65802 0.41755 0.52002 0.0
C3919 C 0.69136 0.43616 0.51283 0.0
N3920 N 0.63515 0.4428 0.53411 0.0
N3921 N 0.68027 0.44651 0.52096 0.0
H3922 H 0.16274 0.12883 0.52795 0.0
H3923 H 0.10488 0.02093 0.52762 0.0
H3924 H 0.18221 0.07589 0.51544 0.0
H3925 H 0.08 0.07108 0.53009 0.0
H3926 H 0.13349 0.04172 0.52544 0.0
H3927 H 0.13301 0.10916 0.53044 0.0
C3928 C 0.16083 0.11308 0.52581 0.0
C3929 C 0.17516 0.10409 0.52143 0.0
C3930 C 0.12184 0.04832 0.52642 0.0
C3931 C 0.14098 0.08132 0.52458 0.0
C3932 C 0.1053 0.03638 0.52774 0.0
C3933 C 0.08956 0.04398 0.52899 0.0
C3934 C 0.12314 0.06843 0.52636 0.0
C3935 C 0.09144 0.0643 0.52914 0.0
C3936 C 0.14378 0.10184 0.52719 0.0
C3937 C 0.17167 0.08357 0.51866 0.0
N3938 N 0.10782 0.07574 0.52783 0.0
N3939 N 0.15515 0.07303 0.52041 0.0
H3940 H 0.19493 0.95978 0.75594 0.0
H3941 H 0.22604 0.87183 0.8048 0.0
H3942 H 0.17644 0.93996 0.80829 0.0
H3943 H 0.22976 0.87903 0.74355 0.0
H3944 H 0.20862 0.89745 0.80659 0.0
H3945 H 0.20875 0.93122 0.75138 0.0
C3946 C 0.19365 0.9494 0.76641 0.0
C3947 C 0.18459 0.95243 0.78264 0.0
C3948 C 0.21306 0.89329 0.79267 0.0
C3949 C 0.2006 0.91985 0.77761 0.0
C3950 C 0.22291 0.8785 0.79157 0.0
C3951 C 0.22943 0.87317 0.77399 0.0
C3952 C 0.20981 0.90306 0.77617 0.0
C3953 C 0.22527 0.88282 0.75752 0.0
C3954 C 0.20158 0.93311 0.76379 0.0
C3955 C 0.18361 0.93855 0.79583 0.0
N3956 N 0.21586 0.89742 0.75907 0.0
N3957 N 0.1916 0.92297 0.79308 0.0
H3958 H 0.36187 0.90549 1.00078 0.0
H3959 H 0.42472 1.00305 0.05227 0.0
H3960 H 0.34194 0.93854 0.04672 0.0
H3961 H 0.41283 0.98616 0.98827 0.0
H3962 H 0.39757 0.97918 0.05522 0.0
H3963 H 0.38662 0.93327 1.00191 0.0
C3964 C 0.36297 0.91854 0.01133 0.0
C3965 C 0.34996 0.92004 0.02351 0.0
C3966 C 0.40073 0.98123 0.04057 0.0
C3967 C 0.37764 0.95164 0.02459 0.0
C3968 C 0.41596 0.99488 0.03886 0.0
C3969 C 0.42079 0.99645 0.02001 0.0
C3970 C 0.39098 0.96892 0.02336 0.0
C3971 C 0.40936 0.98547 1.00303 0.0
C3972 C 0.37687 0.93435 0.01183 0.0
C3973 C 0.35189 0.93705 0.03715 0.0
N3974 N 0.3952 0.97173 0.00515 0.0
N3975 N 0.36551 0.95246 0.03725 0.0
H3976 H 0.86434 0.64572 0.74051 0.0
H3977 H 0.79064 0.70089 0.78559 0.0
H3978 H 0.83833 0.62624 0.78853 0.0
H3979 H 0.83209 0.73106 0.75737 0.0
H3980 H 0.80467 0.67197 0.78301 0.0
H3981 H 0.84979 0.67418 0.74236 0.0
C3982 C 0.85558 0.64711 0.75146 0.0
C3983 C 0.8531 0.63284 0.76447 0.0
C3984 C 0.81075 0.68483 0.77728 0.0
C3985 C 0.83567 0.66665 0.76659 0.0
C3986 C 0.80261 0.70158 0.77868 0.0
C3987 C 0.80993 0.7191 0.7718 0.0
C3988 C 0.82639 0.68475 0.76837 0.0
C3989 C 0.82569 0.71835 0.7631 0.0
C3990 C 0.84724 0.66374 0.75257 0.0
C3991 C 0.84129 0.63644 0.77822 0.0
N3992 N 0.83309 0.70175 0.76151 0.0
N3993 N 0.83316 0.65253 0.77877 0.0
H3994 H 0.85494 0.60838 0.99929 0.0
H3995 H 0.93619 0.5822 0.07311 0.0
H3996 H 0.86431 0.62669 0.0631 0.0
H3997 H 0.92929 0.57201 0.00872 0.0
H3998 H 0.91017 0.59843 0.07044 0.0
H3999 H 0.88229 0.59506 1.00309 0.0
C4000 C 0.86278 0.60982 0.01412 0.0
C4001 C 0.85711 0.61883 0.03085 0.0
C4002 C 0.91446 0.59275 0.05692 0.0
C4003 C 0.88867 0.60302 0.03538 0.0
C4004 C 0.92929 0.58341 0.05842 0.0
C4005 C 0.93505 0.57567 0.0411 0.0
C4006 C 0.90516 0.59421 0.03796 0.0
C4007 C 0.92562 0.57792 0.02251 0.0
C4008 C 0.87844 0.60203 0.0163 0.0
C4009 C 0.86785 0.61967 0.04973 0.0
N4010 N 0.91117 0.58682 0.02147 0.0
N4011 N 0.88304 0.61185 0.05148 0.0
H4012 H 0.18279 0.14597 0.77232 0.0
H4013 H 0.28102 0.21342 0.81435 0.0
H4014 H 0.22326 0.13121 0.81588 0.0
H4015 H 0.2445 0.2264 0.76563 0.0
H4016 H 0.25901 0.1841 0.81592 0.0
H4017 H 0.20419 0.17584 0.77015 0.0
C4018 C 0.19616 0.14888 0.78139 0.0
C4019 C 0.20107 0.13587 0.7944 0.0
C4020 C 0.25569 0.19333 0.8049 0.0
C4021 C 0.22564 0.17043 0.79214 0.0
C4022 C 0.26828 0.21015 0.80401 0.0
C4023 C 0.26462 0.22245 0.78985 0.0
C4024 C 0.23912 0.18861 0.79157 0.0
C4025 C 0.24785 0.21741 0.77686 0.0
C4026 C 0.20835 0.16606 0.7802 0.0
C4027 C 0.21858 0.14079 0.80592 0.0
N4028 N 0.23571 0.20087 0.77802 0.0
N4029 N 0.23012 0.15758 0.80452 0.0
H4030 H 0.33269 0.92364 0.22878 0.0
H4031 H 0.32195 0.84042 0.30035 0.0
H4032 H 0.36451 0.92811 0.28742 0.0
H4033 H 0.30014 0.82738 0.2374 0.0
H4034 H 0.33553 0.87342 0.29574 0.0
H4035 H 0.31902 0.88965 0.23125 0.0
C4036 C 0.33693 0.91764 0.24215 0.0
C4037 C 0.34979 0.92935 0.25803 0.0
C4038 C 0.32777 0.86346 0.28285 0.0
C4039 C 0.3338 0.88999 0.26099 0.0
C4040 C 0.31989 0.84448 0.28551 0.0
C4041 C 0.30978 0.83083 0.26929 0.0
C4042 C 0.32541 0.86939 0.26383 0.0
C4043 C 0.30788 0.83722 0.25038 0.0
C4044 C 0.329 0.89812 0.24355 0.0
C4045 C 0.3544 0.9203 0.27492 0.0
N4046 N 0.31545 0.85597 0.24821 0.0
N4047 N 0.34644 0.9015 0.27594 0.0
H4048 H 0.56887 0.37359 0.55851 0.0
H4049 H 0.51318 0.45916 0.54935 0.0
H4050 H 0.52707 0.38199 0.59309 0.0
H4051 H 0.56639 0.46398 0.53353 0.0
H4052 H 0.51562 0.42789 0.56046 0.0
H4053 H 0.56588 0.40369 0.54479 0.0
C4054 C 0.55912 0.38166 0.56337 0.0
C4055 C 0.54832 0.37496 0.57726 0.0
C4056 C 0.52674 0.43569 0.55446 0.0
C4057 C 0.54456 0.4095 0.56099 0.0
C4058 C 0.52533 0.45356 0.54797 0.0
C4059 C 0.53963 0.46437 0.54049 0.0
C4060 C 0.54247 0.42819 0.55325 0.0
C4061 C 0.55508 0.45629 0.53931 0.0
C4062 C 0.55737 0.39887 0.55537 0.0
C4063 C 0.53559 0.38609 0.58231 0.0
N4064 N 0.55607 0.43869 0.54554 0.0
N4065 N 0.53409 0.40264 0.57421 0.0
H4066 H 0.41206 0.73058 0.35576 0.0
H4067 H 0.34289 0.79555 0.31209 0.0
H4068 H 0.42489 0.79365 0.36644 0.0
H4069 H 0.33173 0.73276 0.30433 0.0
H4070 H 0.37278 0.79583 0.33206 0.0
H4071 H 0.38266 0.7318 0.33746 0.0
C4072 C 0.40891 0.74478 0.35456 0.0
C4073 C 0.42155 0.76202 0.36323 0.0
C4074 C 0.36372 0.782 0.32611 0.0
C4075 C 0.38717 0.7634 0.34107 0.0
C4076 C 0.34659 0.78185 0.31478 0.0
C4077 C 0.33466 0.76409 0.30655 0.0
C4078 C 0.36896 0.76426 0.32935 0.0
C4079 C 0.3404 0.7468 0.31033 0.0
C4080 C 0.39193 0.74541 0.34375 0.0
C4081 C 0.41614 0.77979 0.3601 0.0
N4082 N 0.35697 0.74734 0.32136 0.0
N4083 N 0.39952 0.77999 0.34935 0.0
H4084 H 0.02354 0.67398 0.07967 0.0
H4085 H 0.06642 0.59166 0.02444 0.0
H4086 H 0.07054 0.68842 0.05172 0.0
H4087 H 0.02769 0.5817 0.06421 0.0
H4088 H 0.06686 0.6269 0.03105 0.0
H4089 H 0.02258 0.63959 0.06952 0.0
C4090 C 0.0335 0.66993 0.07108 0.0
C4091 C 0.04721 0.68413 0.06664 0.0
C4092 C 0.05837 0.61693 0.03836 0.0
C4093 C 0.04649 0.64457 0.05539 0.0
C4094 C 0.05822 0.59691 0.03472 0.0
C4095 C 0.04693 0.5838 0.04371 0.0
C4096 C 0.04717 0.62367 0.05107 0.0
C4097 C 0.03642 0.59126 0.05674 0.0
C4098 C 0.03308 0.65024 0.06549 0.0
C4099 C 0.0599 0.67792 0.05571 0.0
N4100 N 0.03677 0.61062 0.05995 0.0
N4101 N 0.05931 0.65855 0.05052 0.0
H4102 H 0.09418 0.29742 0.85757 0.0
H4103 H 0.1935 0.27367 0.85735 0.0
H4104 H 0.11666 0.26014 0.89576 0.0
H4105 H 0.16594 0.29928 0.81058 0.0
H4106 H 0.16714 0.27231 0.87415 0.0
H4107 H 0.12189 0.30189 0.84279 0.0
C4108 C 0.105 0.29028 0.86295 0.0
C4109 C 0.10299 0.27823 0.87782 0.0
C4110 C 0.16689 0.27827 0.86023 0.0
C4111 C 0.13491 0.28342 0.86105 0.0
C4112 C 0.18195 0.27899 0.85054 0.0
C4113 C 0.18207 0.28643 0.83229 0.0
C4114 C 0.15169 0.28508 0.85176 0.0
C4115 C 0.16672 0.29356 0.82463 0.0
C4116 C 0.1208 0.29278 0.85445 0.0
C4117 C 0.11748 0.2693 0.88413 0.0
N4118 N 0.15222 0.29263 0.83431 0.0
N4119 N 0.13277 0.2721 0.87577 0.0
H4120 H 0.51895 0.69275 0.91152 0.0
H4121 H 0.49529 0.63823 1.00247 0.0
H4122 H 0.4946 0.71693 0.95909 0.0
H4123 H 0.51546 0.61167 0.9525 0.0
H4124 H 0.49211 0.66583 0.98508 0.0
H4125 H 0.51564 0.66183 0.92487 0.0
C4126 C 0.51296 0.69142 0.92485 0.0
C4127 C 0.50718 0.70716 0.93448 0.0
C4128 C 0.49694 0.65384 0.97773 0.0
C4129 C 0.50331 0.67223 0.94973 0.0
C4130 C 0.49859 0.63798 0.98757 0.0
C4131 C 0.50564 0.62269 0.97886 0.0
C4132 C 0.50253 0.65448 0.95914 0.0
C4133 C 0.51014 0.62332 0.95976 0.0
C4134 C 0.51095 0.67384 0.93237 0.0
C4135 C 0.49922 0.70496 0.95143 0.0
N4136 N 0.50868 0.63913 0.95058 0.0
N4137 N 0.49766 0.68776 0.95868 0.0
H4138 H 0.15189 0.78519 0.72416 0.0
H4139 H 0.22996 0.75605 0.79588 0.0
H4140 H 0.14252 0.76298 0.77882 0.0
H4141 H 0.22941 0.75708 0.73287 0.0
H4142 H 0.19853 0.76011 0.79156 0.0
H4143 H 0.18251 0.77944 0.72989 0.0
C4144 C 0.15662 0.77987 0.73784 0.0
C4145 C 0.14498 0.77466 0.75124 0.0
C4146 C 0.20513 0.75894 0.77861 0.0
C4147 C 0.17935 0.76725 0.75731 0.0
C4148 C 0.22283 0.75642 0.78103 0.0
C4149 C 0.23172 0.75616 0.7646 0.0
C4150 C 0.19679 0.76159 0.75975 0.0
C4151 C 0.22257 0.75709 0.74569 0.0
C4152 C 0.17387 0.77612 0.74081 0.0
C4153 C 0.15137 0.76725 0.76837 0.0
N4154 N 0.20545 0.76007 0.74376 0.0
N4155 N 0.16827 0.76356 0.77089 0.0
H4156 H 0.04377 0.37553 0.47378 0.0
H4157 H 0.02196 0.48032 0.48921 0.0
H4158 H 1.00543 0.39571 0.43223 0.0
H4159 H 0.04013 0.45326 0.53993 0.0
H4160 H 0.01769 0.44966 0.46775 0.0
H4161 H 0.04521 0.40464 0.49798 0.0
C4162 C 0.0357 0.38612 0.46984 0.0
C4163 C 0.02442 0.3834 0.45118 0.0
C4164 C 0.02226 0.45025 0.48363 0.0
C4165 C 0.02586 0.41609 0.47841 0.0
C4166 C 0.0245 0.46772 0.49596 0.0
C4167 C 0.03095 0.46913 0.51642 0.0
C4168 C 0.0269 0.43414 0.49173 0.0
C4169 C 0.03486 0.45256 0.52421 0.0
C4170 C 0.03637 0.40248 0.48363 0.0
C4171 C 0.01412 0.39728 0.44661 0.0
N4172 N 0.03296 0.43562 0.51172 0.0
N4173 N 0.01514 0.41311 0.46015 0.0
H4174 H 0.46864 0.22507 0.23253 0.0
H4175 H 0.40828 0.29916 0.25725 0.0
H4176 H 0.49016 0.28698 0.24775 0.0
H4177 H 0.3972 0.24266 0.27645 0.0
H4178 H 0.43758 0.29347 0.25069 0.0
H4179 H 0.44192 0.2295 0.24719 0.0
C4180 C 0.46792 0.2395 0.23933 0.0
C4181 C 0.48137 0.25578 0.23855 0.0
C4182 C 0.42884 0.28236 0.2565 0.0
C4183 C 0.45098 0.26086 0.25481 0.0
C4184 C 0.41211 0.28552 0.26002 0.0
C4185 C 0.40047 0.27127 0.26721 0.0
C4186 C 0.43382 0.2647 0.25991 0.0
C4187 C 0.40596 0.2539 0.27083 0.0
C4188 C 0.4527 0.24199 0.24761 0.0
C4189 C 0.4798 0.27415 0.24749 0.0
N4190 N 0.4223 0.25093 0.26687 0.0
N4191 N 0.46469 0.27625 0.25494 0.0
H4192 H 0.5968 0.50115 0.39548 0.0
H4193 H 0.54872 0.54692 0.47951 0.0
H4194 H 0.57303 0.55164 0.3885 0.0
H4195 H 0.55019 0.48577 0.47031 0.0
H4196 H 0.56066 0.55068 0.44838 0.0
H4197 H 0.58276 0.49685 0.42486 0.0
C4198 C 0.58849 0.51126 0.39986 0.0
C4199 C 0.58615 0.52678 0.38916 0.0
C4200 C 0.55842 0.53646 0.4532 0.0
C4201 C 0.57043 0.52216 0.42357 0.0
C4202 C 0.55175 0.53432 0.47101 0.0
C4203 C 0.54865 0.51601 0.47754 0.0
C4204 C 0.56248 0.52027 0.44209 0.0
C4205 C 0.55247 0.50012 0.46581 0.0
C4206 C 0.58056 0.50882 0.41682 0.0
C4207 C 0.57558 0.53964 0.39628 0.0
N4208 N 0.55938 0.50265 0.44878 0.0
N4209 N 0.56824 0.53712 0.41307 0.0
H4210 H 0.27082 0.77065 0.07863 0.0
H4211 H 0.3109 0.8369 0.1832 0.0
H4212 H 0.24758 0.81715 0.1037 0.0
H4213 H 0.33208 0.78767 0.16075 0.0
H4214 H 0.29149 0.83393 0.15085 0.0
H4215 H 0.29373 0.77641 0.10875 0.0
C4216 C 0.26992 0.78129 0.09102 0.0
C4217 C 0.25802 0.79413 0.08848 0.0
C4218 C 0.30066 0.824 0.15292 0.0
C4219 C 0.28427 0.80135 0.12221 0.0
C4220 C 0.31217 0.82607 0.17117 0.0
C4221 C 0.32148 0.81114 0.1752 0.0
C4222 C 0.29964 0.8076 0.13871 0.0
C4223 C 0.32383 0.7985 0.1588 0.0
C4224 C 0.2834 0.78512 0.10784 0.0
C4225 C 0.25703 0.80742 0.10493 0.0
N4226 N 0.31212 0.79623 0.14141 0.0
N4227 N 0.27054 0.81128 0.12093 0.0
H4228 H 0.96 0.50149 0.87161 0.0
H4229 H 0.02455 0.55837 0.97526 0.0
H4230 H 0.97724 0.56405 0.88409 0.0
H4231 H 1.00391 0.49653 0.96589 0.0
H4232 H 1.00714 0.56052 0.94249 0.0
H4233 H 0.97586 0.4992 0.90496 0.0
C4234 C 0.96706 0.51488 0.88105 0.0
C4235 C 0.96677 0.5331 0.87411 0.0
C4236 C 1.00606 0.54645 0.94761 0.0
C4237 C 0.98542 0.53035 0.91383 0.0
C4238 C 0.01591 0.54524 0.96668 0.0
C4239 C 0.0153 0.52736 0.97433 0.0
C4240 C 0.99556 0.52956 0.93515 0.0
C4241 C 1.0044 0.51084 0.96145 0.0
C4242 C 0.97615 0.51347 0.90048 0.0
C4243 C 0.9764 0.54957 0.88809 0.0
N4244 N 0.99519 0.51233 0.94283 0.0
N4245 N 0.98512 0.54778 0.90681 0.0
H4246 H 0.26605 0.25284 0.61018 0.0
H4247 H 0.29959 0.23815 0.72233 0.0
H4248 H 0.30752 0.22101 0.6282 0.0
H4249 H 0.26344 0.27695 0.70806 0.0
H4250 H 0.30208 0.23184 0.68731 0.0
H4251 H 0.26549 0.26343 0.64551 0.0
C4252 C 0.27521 0.24833 0.62158 0.0
C4253 C 0.28668 0.23584 0.61631 0.0
C4254 C 0.29362 0.24179 0.69171 0.0
C4255 C 0.28591 0.24757 0.65648 0.0
C4256 C 0.2921 0.24528 0.71169 0.0
C4257 C 0.28132 0.25808 0.71794 0.0
C4258 C 0.28434 0.25124 0.6778 0.0
C4259 C 0.27175 0.26683 0.70365 0.0
C4260 C 0.27486 0.25433 0.64168 0.0
C4261 C 0.29848 0.23065 0.63157 0.0
N4262 N 0.27355 0.2633 0.68411 0.0
N4263 N 0.29761 0.23633 0.65095 0.0
H4264 H 0.55868 0.49936 0.19266 0.0
H4265 H 0.56298 0.55508 0.09807 0.0
H4266 H 0.59459 0.55436 0.19238 0.0
H4267 H 0.54293 0.49287 0.09154 0.0
H4268 H 0.57008 0.55603 0.13395 0.0
H4269 H 0.54856 0.49761 0.15654 0.0
C4270 C 0.56435 0.51108 0.18507 0.0
C4271 C 0.57736 0.52715 0.1956 0.0
C4272 C 0.56417 0.54214 0.12471 0.0
C4273 C 0.56582 0.52525 0.15466 0.0
C4274 C 0.56009 0.54157 0.1042 0.0
C4275 C 0.55253 0.52382 0.09183 0.0
C4276 C 0.56061 0.52486 0.133 0.0
C4277 C 0.54899 0.5068 0.10062 0.0
C4278 C 0.55857 0.51006 0.16454 0.0
C4279 C 0.5842 0.54196 0.18507 0.0
N4280 N 0.55307 0.50772 0.1208 0.0
N4281 N 0.57833 0.54064 0.16522 0.0
H4282 H 0.22583 0.81276 0.90168 0.0
H4283 H 0.28842 0.75487 0.84696 0.0
H4284 H 0.23784 0.7578 0.91559 0.0
H4285 H 0.2628 0.79743 0.82002 0.0
H4286 H 0.27526 0.76166 0.87683 0.0
H4287 H 0.24103 0.81001 0.87312 0.0
C4288 C 0.23077 0.79953 0.89811 0.0
C4289 C 0.23115 0.78572 0.91131 0.0
C4290 C 0.27277 0.76975 0.86452 0.0
C4291 C 0.249 0.78297 0.8793 0.0
C4292 C 0.28047 0.76613 0.84777 0.0
C4293 C 0.27627 0.77551 0.83137 0.0
C4294 C 0.2606 0.78245 0.86428 0.0
C4295 C 0.26612 0.79 0.83265 0.0
C4296 C 0.23993 0.79832 0.88213 0.0
C4297 C 0.23764 0.7689 0.90589 0.0
N4298 N 0.2582 0.79284 0.84887 0.0
N4299 N 0.24694 0.76827 0.89054 0.0
H4300 H 0.9356 0.50951 0.64597 0.0
H4301 H 0.03022 0.53061 0.60344 0.0
H4302 H 0.98535 0.54403 0.68059 0.0
H4303 H 0.97912 0.50972 0.56378 0.0
H4304 H 0.01413 0.53246 0.63184 0.0
H4305 H 0.95097 0.50641 0.61675 0.0
C4306 C 0.94976 0.51641 0.64766 0.0
C4307 C 0.95889 0.52722 0.66631 0.0
C4308 C 1.00632 0.52743 0.61699 0.0
C4309 C 0.97699 0.52351 0.63206 0.0
C4310 C 0.01559 0.52627 0.60052 0.0
C4311 C 1.0063 0.51998 0.58067 0.0
C4312 C 0.98726 0.52206 0.61421 0.0
C4313 C 0.98716 0.5147 0.57852 0.0
C4314 C 0.95856 0.51469 0.63072 0.0
C4315 C 0.97734 0.53578 0.66684 0.0
N4316 N 0.97842 0.51578 0.59488 0.0
N4317 N 0.9856 0.53366 0.6503 0.0
H4318 H 0.30149 0.24652 0.43955 0.0
H4319 H 0.27546 0.2363 0.32029 0.0
H4320 H 0.25994 0.20028 0.40459 0.0
H4321 H 0.3028 0.29066 0.35671 0.0
H4322 H 0.27154 0.2219 0.35074 0.0
H4323 H 0.30425 0.26194 0.40933 0.0
C4324 C 0.29298 0.23959 0.42551 0.0
C4325 C 0.28042 0.22208 0.42464 0.0
C4326 C 0.27829 0.23702 0.3521 0.0
C4327 C 0.28367 0.23954 0.38986 0.0
C4328 C 0.28047 0.2453 0.33468 0.0
C4329 C 0.28926 0.26484 0.33586 0.0
C4330 C 0.28528 0.24819 0.37098 0.0
C4331 C 0.29581 0.2756 0.35503 0.0
C4332 C 0.2945 0.24844 0.40827 0.0
C4333 C 0.26967 0.21384 0.40602 0.0
N4334 N 0.2938 0.26713 0.37177 0.0
N4335 N 0.27164 0.22252 0.38942 0.0
H4336 H 0.36835 0.60317 0.54919 0.0
H4337 H 0.46376 0.59702 0.51829 0.0
H4338 H 0.40628 0.65425 0.54178 0.0
H4339 H 0.41841 0.54829 0.50819 0.0
H4340 H 0.44381 0.6187 0.52809 0.0
H4341 H 0.38821 0.58273 0.53696 0.0
C4342 C 0.38104 0.61002 0.54528 0.0
C4343 C 0.38584 0.63027 0.54643 0.0
C4344 C 0.43821 0.60331 0.5234 0.0
C4345 C 0.40826 0.60723 0.53212 0.0
C4346 C 0.44951 0.59103 0.51776 0.0
C4347 C 0.44259 0.57096 0.51248 0.0
C4348 C 0.42008 0.59527 0.52406 0.0
C4349 C 0.42414 0.56374 0.512 0.0
C4350 C 0.39221 0.59842 0.53805 0.0
C4351 C 0.40221 0.6386 0.54095 0.0
N4352 N 0.41354 0.57589 0.51802 0.0
N4353 N 0.41291 0.62699 0.53398 0.0
H4354 H 0.88875 0.96823 0.53149 0.0
H4355 H 0.99643 0.97662 0.53517 0.0
H4356 H 0.91528 0.92158 0.54661 0.0
H4357 H 0.96916 0.02474 0.53147 0.0
H4358 H 0.9674 0.95526 0.53676 0.0
H4359 H 0.91808 0.98788 0.52902 0.0
C4360 C 0.90069 0.96197 0.53418 0.0
C4361 C 0.89922 0.943 0.53925 0.0
C4362 C 0.96778 0.9705 0.53551 0.0
C4363 C 0.93352 0.96588 0.53639 0.0
C4364 C 0.98448 0.98275 0.53436 0.0
C4365 C 0.98559 1.0027 0.53281 0.0
C4366 C 0.95186 0.97812 0.53509 0.0
C4367 C 0.96927 0.00955 0.53248 0.0
C4368 C 0.91759 0.97334 0.53286 0.0
C4369 C 0.91554 0.93611 0.54283 0.0
N4370 N 0.95334 0.99744 0.53356 0.0
N4371 N 0.93186 0.94741 0.54124 0.0
H4372 H 0.90685 0.10598 0.30625 0.0
H4373 H 0.83346 0.1582 0.25295 0.0
H4374 H 0.86894 0.08023 0.25218 0.0
H4375 H 0.84982 0.17037 0.31701 0.0
H4376 H 0.85098 0.13269 0.25182 0.0
H4377 H 0.88982 0.13215 0.31037 0.0
C4378 C 0.89496 0.10569 0.29529 0.0
C4379 C 0.88953 0.09088 0.27863 0.0
C4380 C 0.8508 0.14091 0.26617 0.0
C4381 C 0.87039 0.121 0.28313 0.0
C4382 C 0.84092 0.15556 0.2668 0.0
C4383 C 0.84029 0.1664 0.28507 0.0
C4384 C 0.86033 0.13705 0.28393 0.0
C4385 C 0.84999 0.16223 0.30263 0.0
C4386 C 0.88533 0.12069 0.29767 0.0
C4387 C 0.87409 0.09152 0.26491 0.0
N4388 N 0.85978 0.14786 0.30165 0.0
N4389 N 0.86522 0.10636 0.26739 0.0
H4390 H 0.71186 0.1329 0.01838 0.0
H4391 H 0.66534 0.03988 0.0595 0.0
H4392 H 0.73647 0.10987 0.06906 0.0
H4393 H 0.64211 0.05984 0.00619 0.0
H4394 H 0.6942 0.06105 0.05891 0.0
H4395 H 0.68764 0.10391 0.01117 0.0
C4396 C 0.71208 0.12174 0.02802 0.0
C4397 C 0.72616 0.12366 0.04427 0.0
C4398 C 0.68297 0.06041 0.04697 0.0
C4399 C 0.69877 0.0905 0.03603 0.0
C4400 C 0.66659 0.04803 0.04709 0.0
C4401 C 0.65136 0.04869 0.03321 0.0
C4402 C 0.68385 0.07344 0.03292 0.0
C4403 C 0.65359 0.05941 0.01742 0.0
C4404 C 0.69839 0.10515 0.02381 0.0
C4405 C 0.72575 0.10902 0.0565 0.0
N4406 N 0.66948 0.07193 0.01803 0.0
N4407 N 0.71225 0.093 0.0521 0.0
H4408 H 0.2083 0.3982 0.3181 0.0
H4409 H 0.28388 0.34437 0.27481 0.0
H4410 H 0.2386 0.42096 0.27447 0.0
H4411 H 0.2423 0.31443 0.303 0.0
H4412 H 0.27001 0.37344 0.27745 0.0
H4413 H 0.22284 0.36984 0.31611 0.0
C4414 C 0.21799 0.39759 0.30808 0.0
C4415 C 0.22167 0.41282 0.29636 0.0
C4416 C 0.26387 0.36059 0.28316 0.0
C4417 C 0.23901 0.3789 0.29398 0.0
C4418 C 0.27191 0.34375 0.2817 0.0
C4419 C 0.26449 0.32625 0.28856 0.0
C4420 C 0.24822 0.36075 0.29207 0.0
C4421 C 0.24874 0.3271 0.29726 0.0
C4422 C 0.22633 0.38097 0.30688 0.0
C4423 C 0.23463 0.41006 0.28375 0.0
N4424 N 0.24143 0.34374 0.29886 0.0
N4425 N 0.24264 0.39388 0.28301 0.0
H4426 H 0.22372 0.43883 1.00225 0.0
H4427 H 0.13168 0.45187 0.04156 0.0
H4428 H 0.20707 0.41462 0.05335 0.0
H4429 H 0.15514 0.48603 0.99982 0.0
H4430 H 0.15699 0.43477 0.04308 0.0
H4431 H 0.19637 0.45259 0.998 0.0
C4432 C 0.21428 0.43627 0.01251 0.0
C4433 C 0.2179 0.42568 0.02833 0.0
C4434 C 0.15654 0.44597 0.03355 0.0
C4435 C 0.18642 0.44152 0.02355 0.0
C4436 C 0.1421 0.45584 0.03273 0.0
C4437 C 0.14119 0.47062 0.02065 0.0
C4438 C 0.17023 0.45081 0.02217 0.0
C4439 C 0.155 0.47467 0.00921 0.0
C4440 C 0.19868 0.44424 0.01013 0.0
C4441 C 0.20509 0.42298 0.04118 0.0
N4442 N 0.16889 0.46491 0.01031 0.0
N4443 N 0.19 0.43084 0.03853 0.0
H4444 H 0.88339 0.88853 0.24756 0.0
H4445 H 0.79536 0.84576 0.29254 0.0
H4446 H 0.85778 0.92289 0.28666 0.0
H4447 H 0.82623 0.80812 0.26503 0.0
H4448 H 0.81782 0.87408 0.2891 0.0
H4449 H 0.86223 0.85901 0.25184 0.0
C4450 C 0.87329 0.88991 0.25695 0.0
C4451 C 0.87246 0.9083 0.26682 0.0
C4452 C 0.81986 0.85968 0.2839 0.0
C4453 C 0.8482 0.87453 0.27181 0.0
C4454 C 0.80701 0.84347 0.28591 0.0
C4455 C 0.809 0.82454 0.27925 0.0
C4456 C 0.83479 0.85714 0.27478 0.0
C4457 C 0.82434 0.82246 0.27067 0.0
C4458 C 0.8613 0.87302 0.2595 0.0
C4459 C 0.85915 0.90909 0.27894 0.0
N4460 N 0.83659 0.83857 0.2685 0.0
N4461 N 0.84759 0.89256 0.281 0.0
H4462 H 0.70239 0.12814 0.80986 0.0
H4463 H 0.78316 0.20033 0.77537 0.0
H4464 H 0.75024 0.10967 0.79525 0.0
H4465 H 0.74462 0.2219 0.80752 0.0
H4466 H 0.77057 0.16708 0.78094 0.0
H4467 H 0.71642 0.16205 0.80747 0.0
C4468 C 0.71591 0.13123 0.8063 0.0
C4469 C 0.72511 0.11589 0.80281 0.0
C4470 C 0.76478 0.17902 0.78676 0.0
C4471 C 0.74132 0.15499 0.7997 0.0
C4472 C 0.77196 0.19809 0.78351 0.0
C4473 C 0.76494 0.21412 0.79083 0.0
C4474 C 0.75 0.17555 0.79698 0.0
C4475 C 0.75054 0.21012 0.80156 0.0
C4476 C 0.72395 0.15065 0.80492 0.0
C4477 C 0.7426 0.12091 0.79809 0.0
N4478 N 0.74345 0.19136 0.80404 0.0
N4479 N 0.75001 0.13983 0.79655 0.0
loop_
_geom_bond_atom_site_label_1
_geom_bond_atom_site_label_2
_geom_bond_distance
_geom_bond_site_symmetry_2
_ccdc_geom_bond_type
Li0 N17 1.990 . S
Li0 O60 1.956 1_655 S
Li0 O61 1.970 . S
Li0 O62 1.961 . S
Li1 N25 1.990 . S
Li1 O60 1.970 . S
Li1 O61 1.956 1_455 S
Li1 O63 1.961 . S
Li2 N47 1.990 . S
Li2 O60 1.961 . S
Li2 O62 1.956 1_455 S
Li2 O63 1.970 . S
Li3 N53 1.990 . S
Li3 O61 1.961 1_455 S
Li3 O62 1.970 1_455 S
Li3 O63 1.956 . S
C4 C6 1.329 1_455 S
C4 C7 1.356 . S
C4 O60 1.325 . S
N5 C8 1.304 1_455 S
N5 C9 1.279 . S
C6 C4 1.329 1_655 S
C6 C8 1.353 . S
C6 H64 0.948 . S
C7 C4 1.356 . S
C7 C9 1.358 . S
C7 H65 0.930 . S
C8 N5 1.304 1_655 S
C8 C6 1.353 . S
C8 H66 0.945 . S
C9 N5 1.279 . S
C9 C7 1.358 . S
C9 H67 0.930 . S
C10 C13 1.348 . S
C10 C14 1.356 . S
C10 O61 1.325 . S
C11 N12 1.279 . S
C11 C14 1.358 . S
C11 H68 0.930 . S
N12 C11 1.279 . S
N12 C15 1.314 . S
C13 C10 1.348 . S
C13 C15 1.353 . S
C13 H69 0.929 . S
C14 C10 1.356 . S
C14 C11 1.358 . S
C14 H70 0.930 . S
C15 N12 1.314 . S
C15 C13 1.353 . S
C15 H71 0.930 . S
C16 N17 1.314 . S
C16 C21 1.353 . S
C16 H22 0.930 . S
N17 Li0 1.990 . S
N17 C16 1.314 . S
N17 C19 1.279 . S
C18 C19 1.358 . S
C18 C20 1.356 . S
C18 H72 0.930 . S
C19 N17 1.279 . S
C19 C18 1.358 . S
C19 H23 0.930 . S
C20 C18 1.356 . S
C20 C21 1.348 . S
C21 C16 1.353 . S
C21 C20 1.348 . S
C21 H73 0.929 . S
H22 C16 0.930 . S
H23 C19 0.930 . S
C24 N25 1.314 . S
C24 C26 1.353 . S
C24 H30 0.930 . S
N25 Li1 1.990 . S
N25 C24 1.314 . S
N25 C28 1.279 1_455 S
C26 C24 1.353 . S
C26 C29 1.348 . S
C26 H74 0.929 . S
C27 C28 1.358 . S
C27 C29 1.356 1_655 S
C27 H75 0.930 . S
C28 N25 1.279 1_655 S
C28 C27 1.358 . S
C28 H31 0.930 . S
C29 C26 1.348 . S
C29 C27 1.356 1_455 S
H30 C24 0.930 . S
H31 C28 0.930 . S
C32 C34 1.370 . S
C32 C35 1.356 . S
C32 O62 1.325 . S
N33 C36 1.314 . S
N33 C37 1.279 . S
C34 C32 1.370 . S
C34 C36 1.348 . S
C34 H76 0.917 1_655 S
C35 C32 1.356 . S
C35 C37 1.358 . S
C35 H77 0.930 . S
C36 N33 1.314 . S
C36 C34 1.348 . S
C36 H78 0.930 . S
C37 N33 1.279 . S
C37 C35 1.358 . S
C37 H79 0.930 . S
C38 C39 1.348 . S
C38 C40 1.356 . S
C38 O63 1.325 . S
C39 C38 1.348 . S
C39 C41 1.353 . S
C39 H80 0.929 . S
C40 C38 1.356 . S
C40 C42 1.358 . S
C40 H81 0.930 . S
C41 C39 1.353 . S
C41 N43 1.314 . S
C41 H82 0.930 . S
C42 C40 1.358 . S
C42 N43 1.279 . S
C42 H83 0.930 . S
N43 C41 1.314 . S
N43 C42 1.279 . S
C44 C46 1.353 . S
C44 N47 1.314 . S
C44 H50 0.930 . S
C45 N47 1.279 . S
C45 C48 1.358 . S
C45 H51 0.930 . S
C46 C44 1.353 . S
C46 C49 1.348 . S
C46 H84 0.929 . S
N47 Li2 1.990 . S
N47 C44 1.314 . S
N47 C45 1.279 . S
C48 C45 1.358 . S
C48 C49 1.356 . S
C48 H85 0.930 . S
C49 C46 1.348 . S
C49 C48 1.356 . S
H50 C44 0.930 . S
H51 C45 0.930 . S
C52 N53 1.314 1_655 S
C52 C54 1.353 . S
C52 H58 0.930 . S
N53 Li3 1.990 . S
N53 C52 1.314 1_455 S
N53 C56 1.279 . S
C54 C52 1.353 . S
C54 C57 1.364 . S
C54 H86 0.929 . S
C55 C56 1.358 . S
C55 C57 1.341 1_455 S
C55 H87 0.930 . S
C56 N53 1.279 . S
C56 C55 1.358 . S
C56 H59 0.930 . S
C57 C54 1.364 . S
C57 C55 1.341 1_655 S
H58 C52 0.930 . S
H59 C56 0.930 . S
O60 Li0 1.956 1_455 S
O60 Li1 1.970 . S
O60 Li2 1.961 . S
O60 C4 1.325 . S
O61 Li0 1.970 . S
O61 Li1 1.956 1_655 S
O61 Li3 1.961 1_655 S
O61 C10 1.325 . S
O62 Li0 1.961 . S
O62 Li2 1.956 1_655 S
O62 Li3 1.970 1_655 S
O62 C32 1.325 . S
O63 Li1 1.961 . S
O63 Li2 1.970 . S
O63 Li3 1.956 . S
O63 C38 1.325 . S
H64 C6 0.948 . S
H65 C7 0.930 . S
H66 C8 0.945 . S
H67 C9 0.930 . S
H68 C11 0.930 . S
H69 C13 0.929 . S
H70 C14 0.930 . S
H71 C15 0.930 . S
H72 C18 0.930 . S
H73 C21 0.929 . S
H74 C26 0.929 . S
H75 C27 0.930 . S
H76 C34 0.917 1_455 S
H77 C35 0.930 . S
H78 C36 0.930 . S
H79 C37 0.930 . S
H80 C39 0.929 . S
H81 C40 0.930 . S
H82 C41 0.930 . S
H83 C42 0.930 . S
H84 C46 0.929 . S
H85 C48 0.930 . S
H86 C54 0.929 . S
H87 C55 0.930 . S
Li88 N105 1.990 . S
Li88 O148 1.956 . S
Li88 O149 1.970 . S
Li88 O150 1.961 . S
Li89 N113 1.990 . S
Li89 O148 1.970 . S
Li89 O149 1.956 . S
Li89 O151 1.961 . S
Li90 N135 1.990 . S
Li90 O148 1.961 . S
Li90 O150 1.956 . S
Li90 O151 1.970 . S
Li91 N141 1.990 . S
Li91 O149 1.961 . S
Li91 O150 1.970 . S
Li91 O151 1.956 . S
C92 C94 1.348 . S
C92 C95 1.356 . S
C92 O148 1.325 . S
N93 C96 1.314 . S
N93 C97 1.279 . S
C94 C92 1.348 . S
C94 C96 1.353 . S
C94 H152 0.929 . S
C95 C92 1.356 . S
C95 C97 1.358 . S
C95 H153 0.930 . S
C96 N93 1.314 . S
C96 C94 1.353 . S
C96 H154 0.930 . S
C97 N93 1.279 . S
C97 C95 1.358 . S
C97 H155 0.930 . S
C98 C101 1.348 . S
C98 C102 1.356 . S
C98 O149 1.325 . S
C99 N100 1.279 . S
C99 C102 1.358 . S
C99 H156 0.930 . S
N100 C99 1.279 . S
N100 C103 1.314 . S
C101 C98 1.348 . S
C101 C103 1.353 . S
C101 H157 0.929 . S
C102 C98 1.356 . S
C102 C99 1.358 . S
C102 H158 0.930 . S
C103 N100 1.314 . S
C103 C101 1.353 . S
C103 H159 0.930 . S
C104 N105 1.314 . S
C104 C109 1.353 . S
C104 H110 0.930 . S
N105 Li88 1.990 . S
N105 C104 1.314 . S
N105 C107 1.279 . S
C106 C107 1.358 . S
C106 C108 1.356 . S
C106 H160 0.930 . S
C107 N105 1.279 . S
C107 C106 1.358 . S
C107 H111 0.930 . S
C108 C106 1.356 . S
C108 C109 1.348 . S
C109 C104 1.353 . S
C109 C108 1.348 . S
C109 H161 0.929 . S
H110 C104 0.930 . S
H111 C107 0.930 . S
C112 N113 1.314 . S
C112 C114 1.353 . S
C112 H118 0.930 . S
N113 Li89 1.990 . S
N113 C112 1.314 . S
N113 C116 1.279 . S
C114 C112 1.353 . S
C114 C117 1.348 . S
C114 H162 0.929 . S
C115 C116 1.358 . S
C115 C117 1.356 . S
C115 H163 0.930 . S
C116 N113 1.279 . S
C116 C115 1.358 . S
C116 H119 0.930 . S
C117 C114 1.348 . S
C117 C115 1.356 . S
H118 C112 0.930 . S
H119 C116 0.930 . S
C120 C122 1.348 . S
C120 C123 1.356 . S
C120 O150 1.325 . S
N121 C124 1.314 . S
N121 C125 1.279 1_655 S
C122 C120 1.348 . S
C122 C124 1.353 1_455 S
C122 H164 0.929 . S
C123 C120 1.356 . S
C123 C125 1.358 . S
C123 H165 0.930 . S
C124 N121 1.314 . S
C124 C122 1.353 1_655 S
C124 H166 0.930 . S
C125 N121 1.279 1_455 S
C125 C123 1.358 . S
C125 H167 0.930 . S
C126 C127 1.348 . S
C126 C128 1.356 . S
C126 O151 1.325 . S
C127 C126 1.348 . S
C127 C129 1.353 . S
C127 H168 0.929 . S
C128 C126 1.356 . S
C128 C130 1.358 . S
C128 H169 0.930 . S
C129 C127 1.353 . S
C129 N131 1.314 . S
C129 H170 0.930 . S
C130 C128 1.358 . S
C130 N131 1.279 . S
C130 H171 0.930 . S
N131 C129 1.314 . S
N131 C130 1.279 . S
C132 C134 1.353 . S
C132 N135 1.314 . S
C132 H138 0.930 . S
C133 N135 1.279 . S
C133 C136 1.358 . S
C133 H139 0.930 . S
C134 C132 1.353 . S
C134 C137 1.348 . S
C134 H172 0.929 . S
N135 Li90 1.990 . S
N135 C132 1.314 . S
N135 C133 1.279 . S
C136 C133 1.358 . S
C136 C137 1.356 . S
C136 H173 0.930 . S
C137 C134 1.348 . S
C137 C136 1.356 . S
H138 C132 0.930 . S
H139 C133 0.930 . S
C140 N141 1.314 . S
C140 C142 1.320 1_455 S
C140 H146 0.930 . S
N141 Li91 1.990 . S
N141 C140 1.314 . S
N141 C144 1.279 . S
C142 C140 1.320 1_655 S
C142 C145 1.360 . S
C142 H174 0.951 . S
C143 C144 1.409 . S
C143 C145 1.318 1_455 S
C143 H175 0.920 1_455 S
C144 N141 1.279 . S
C144 C143 1.409 . S
C144 H147 0.930 . S
C145 C142 1.360 . S
C145 C143 1.318 1_655 S
H146 C140 0.930 . S
H147 C144 0.930 . S
O148 Li88 1.956 . S
O148 Li89 1.970 . S
O148 Li90 1.961 . S
O148 C92 1.325 . S
O149 Li88 1.970 . S
O149 Li89 1.956 . S
O149 Li91 1.961 . S
O149 C98 1.325 . S
O150 Li88 1.961 . S
O150 Li90 1.956 . S
O150 Li91 1.970 . S
O150 C120 1.325 . S
O151 Li89 1.961 . S
O151 Li90 1.970 . S
O151 Li91 1.956 . S
O151 C126 1.325 . S
H152 C94 0.929 . S
H153 C95 0.930 . S
H154 C96 0.930 . S
H155 C97 0.930 . S
H156 C99 0.930 . S
H157 C101 0.929 . S
H158 C102 0.930 . S
H159 C103 0.930 . S
H160 C106 0.930 . S
H161 C109 0.929 . S
H162 C114 0.929 . S
H163 C115 0.930 . S
H164 C122 0.929 . S
H165 C123 0.930 . S
H166 C124 0.930 . S
H167 C125 0.930 . S
H168 C127 0.929 . S
H169 C128 0.930 . S
H170 C129 0.930 . S
H171 C130 0.930 . S
H172 C134 0.929 . S
H173 C136 0.930 . S
H174 C142 0.951 . S
H175 C143 0.920 1_655 S
Li176 N193 1.990 . S
Li176 O236 1.956 . S
Li176 O237 1.970 . S
Li176 O238 1.961 . S
Li177 N201 1.990 . S
Li177 O236 1.970 . S
Li177 O237 1.956 . S
Li177 O239 1.961 . S
Li178 N223 1.990 . S
Li178 O236 1.961 . S
Li178 O238 1.956 . S
Li178 O239 1.970 . S
Li179 N229 1.990 . S
Li179 O237 1.961 . S
Li179 O238 1.970 . S
Li179 O239 1.956 . S
C180 C182 1.348 . S
C180 C183 1.356 . S
C180 O236 1.325 . S
N181 C184 1.314 . S
N181 C185 1.279 . S
C182 C180 1.348 . S
C182 C184 1.353 . S
C182 H240 0.929 . S
C183 C180 1.356 . S
C183 C185 1.358 . S
C183 H241 0.930 . S
C184 N181 1.314 . S
C184 C182 1.353 . S
C184 H242 0.930 . S
C185 N181 1.279 . S
C185 C183 1.358 . S
C185 H243 0.930 . S
C186 C189 1.348 . S
C186 C190 1.356 . S
C186 O237 1.325 . S
C187 N188 1.279 . S
C187 C190 1.358 . S
C187 H244 0.930 . S
N188 C187 1.279 . S
N188 C191 1.314 . S
C189 C186 1.348 . S
C189 C191 1.353 . S
C189 H245 0.929 . S
C190 C186 1.356 . S
C190 C187 1.358 . S
C190 H246 0.930 . S
C191 N188 1.314 . S
C191 C189 1.353 . S
C191 H247 0.930 . S
C192 N193 1.314 . S
C192 C197 1.353 . S
C192 H198 0.930 . S
N193 Li176 1.990 . S
N193 C192 1.314 . S
N193 C195 1.279 . S
C194 C195 1.358 . S
C194 C196 1.356 . S
C194 H248 0.930 . S
C195 N193 1.279 . S
C195 C194 1.358 . S
C195 H199 0.930 . S
C196 C194 1.356 . S
C196 C197 1.348 . S
C197 C192 1.353 . S
C197 C196 1.348 . S
C197 H249 0.929 . S
H198 C192 0.930 . S
H199 C195 0.930 . S
C200 N201 1.314 . S
C200 C202 1.353 . S
C200 H206 0.930 . S
N201 Li177 1.990 . S
N201 C200 1.314 . S
N201 C204 1.279 . S
C202 C200 1.353 . S
C202 C205 1.348 . S
C202 H250 0.929 . S
C203 C204 1.358 . S
C203 C205 1.356 . S
C203 H251 0.930 . S
C204 N201 1.279 . S
C204 C203 1.358 . S
C204 H207 0.930 . S
C205 C202 1.348 . S
C205 C203 1.356 . S
H206 C200 0.930 . S
H207 C204 0.930 . S
C208 C210 1.348 . S
C208 C211 1.356 . S
C208 O238 1.325 . S
N209 C212 1.314 . S
N209 C213 1.279 . S
C210 C208 1.348 . S
C210 C212 1.353 . S
C210 H252 0.929 . S
C211 C208 1.356 . S
C211 C213 1.358 . S
C211 H253 0.930 . S
C212 N209 1.314 . S
C212 C210 1.353 . S
C212 H254 0.930 . S
C213 N209 1.279 . S
C213 C211 1.358 . S
C213 H255 0.930 . S
C214 C215 1.348 . S
C214 C216 1.356 . S
C214 O239 1.325 . S
C215 C214 1.348 . S
C215 C217 1.353 . S
C215 H256 0.929 . S
C216 C214 1.356 . S
C216 C218 1.358 . S
C216 H257 0.930 . S
C217 C215 1.353 . S
C217 N219 1.314 . S
C217 H258 0.930 . S
C218 C216 1.358 . S
C218 N219 1.279 . S
C218 H259 0.930 . S
N219 C217 1.314 . S
N219 C218 1.279 . S
C220 C222 1.353 . S
C220 N223 1.314 . S
C220 H226 0.930 . S
C221 N223 1.279 . S
C221 C224 1.358 . S
C221 H227 0.930 . S
C222 C220 1.353 . S
C222 C225 1.348 . S
C222 H260 0.929 . S
N223 Li178 1.990 . S
N223 C220 1.314 . S
N223 C221 1.279 . S
C224 C221 1.358 . S
C224 C225 1.356 . S
C224 H261 0.930 . S
C225 C222 1.348 . S
C225 C224 1.356 . S
H226 C220 0.930 . S
H227 C221 0.930 . S
C228 N229 1.314 . S
C228 C230 1.353 . S
C228 H234 0.930 . S
N229 Li179 1.990 . S
N229 C228 1.314 . S
N229 C232 1.279 . S
C230 C228 1.353 . S
C230 C233 1.348 . S
C230 H262 0.929 . S
C231 C232 1.358 . S
C231 C233 1.356 . S
C231 H263 0.930 . S
C232 N229 1.279 . S
C232 C231 1.358 . S
C232 H235 0.930 . S
C233 C230 1.348 . S
C233 C231 1.356 . S
H234 C228 0.930 . S
H235 C232 0.930 . S
O236 Li176 1.956 . S
O236 Li177 1.970 . S
O236 Li178 1.961 . S
O236 C180 1.325 . S
O237 Li176 1.970 . S
O237 Li177 1.956 . S
O237 Li179 1.961 . S
O237 C186 1.325 . S
O238 Li176 1.961 . S
O238 Li178 1.956 . S
O238 Li179 1.970 . S
O238 C208 1.325 . S
O239 Li177 1.961 . S
O239 Li178 1.970 . S
O239 Li179 1.956 . S
O239 C214 1.325 . S
H240 C182 0.929 . S
H241 C183 0.930 . S
H242 C184 0.930 . S
H243 C185 0.930 . S
H244 C187 0.930 . S
H245 C189 0.929 . S
H246 C190 0.930 . S
H247 C191 0.930 . S
H248 C194 0.930 . S
H249 C197 0.929 . S
H250 C202 0.929 . S
H251 C203 0.930 . S
H252 C210 0.929 . S
H253 C211 0.930 . S
H254 C212 0.930 . S
H255 C213 0.930 . S
H256 C215 0.929 . S
H257 C216 0.930 . S
H258 C217 0.930 . S
H259 C218 0.930 . S
H260 C222 0.929 . S
H261 C224 0.930 . S
H262 C230 0.929 . S
H263 C231 0.930 . S
Li264 N281 1.990 . S
Li264 O324 1.956 . S
Li264 O325 1.970 . S
Li264 O326 1.961 . S
Li265 N289 1.990 . S
Li265 O324 1.970 . S
Li265 O325 1.956 . S
Li265 O327 1.961 . S
Li266 N311 1.990 . S
Li266 O324 1.961 . S
Li266 O326 1.956 . S
Li266 O327 1.970 . S
Li267 N317 1.990 . S
Li267 O325 1.961 . S
Li267 O326 1.970 . S
Li267 O327 1.956 . S
C268 C270 1.348 . S
C268 C271 1.356 . S
C268 O324 1.325 . S
N269 C272 1.314 . S
N269 C273 1.279 . S
C270 C268 1.348 . S
C270 C272 1.353 . S
C270 H328 0.929 . S
C271 C268 1.356 . S
C271 C273 1.358 . S
C271 H329 0.930 . S
C272 N269 1.314 . S
C272 C270 1.353 . S
C272 H330 0.930 . S
C273 N269 1.279 . S
C273 C271 1.358 . S
C273 H331 0.930 . S
C274 C277 1.348 . S
C274 C278 1.356 . S
C274 O325 1.325 . S
C275 N276 1.279 . S
C275 C278 1.358 . S
C275 H332 0.930 . S
N276 C275 1.279 . S
N276 C279 1.314 . S
C277 C274 1.348 . S
C277 C279 1.353 . S
C277 H333 0.929 . S
C278 C274 1.356 . S
C278 C275 1.358 . S
C278 H334 0.930 . S
C279 N276 1.314 . S
C279 C277 1.353 . S
C279 H335 0.930 . S
C280 N281 1.314 . S
C280 C285 1.353 . S
C280 H286 0.930 . S
N281 Li264 1.990 . S
N281 C280 1.314 . S
N281 C283 1.279 . S
C282 C283 1.358 . S
C282 C284 1.356 . S
C282 H336 0.930 . S
C283 N281 1.279 . S
C283 C282 1.358 . S
C283 H287 0.930 . S
C284 C282 1.356 . S
C284 C285 1.348 . S
C285 C280 1.353 . S
C285 C284 1.348 . S
C285 H337 0.929 . S
H286 C280 0.930 . S
H287 C283 0.930 . S
C288 N289 1.314 . S
C288 C290 1.353 . S
C288 H294 0.930 . S
N289 Li265 1.990 . S
N289 C288 1.314 . S
N289 C292 1.279 . S
C290 C288 1.353 . S
C290 C293 1.348 . S
C290 H338 0.929 . S
C291 C292 1.358 . S
C291 C293 1.356 . S
C291 H339 0.930 . S
C292 N289 1.279 . S
C292 C291 1.358 . S
C292 H295 0.930 . S
C293 C290 1.348 . S
C293 C291 1.356 . S
H294 C288 0.930 . S
H295 C292 0.930 . S
C296 C298 1.348 . S
C296 C299 1.356 . S
C296 O326 1.325 . S
N297 C300 1.314 . S
N297 C301 1.279 . S
C298 C296 1.348 . S
C298 C300 1.353 . S
C298 H340 0.929 . S
C299 C296 1.356 . S
C299 C301 1.358 . S
C299 H341 0.930 . S
C300 N297 1.314 . S
C300 C298 1.353 . S
C300 H342 0.930 . S
C301 N297 1.279 . S
C301 C299 1.358 . S
C301 H343 0.930 . S
C302 C303 1.348 . S
C302 C304 1.356 . S
C302 O327 1.325 . S
C303 C302 1.348 . S
C303 C305 1.353 . S
C303 H344 0.929 . S
C304 C302 1.356 . S
C304 C306 1.358 . S
C304 H345 0.930 . S
C305 C303 1.353 . S
C305 N307 1.314 . S
C305 H346 0.930 . S
C306 C304 1.358 . S
C306 N307 1.279 . S
C306 H347 0.930 . S
N307 C305 1.314 . S
N307 C306 1.279 . S
C308 C310 1.353 . S
C308 N311 1.314 . S
C308 H314 0.930 . S
C309 N311 1.279 . S
C309 C312 1.358 . S
C309 H315 0.930 . S
C310 C308 1.353 . S
C310 C313 1.348 . S
C310 H348 0.929 . S
N311 Li266 1.990 . S
N311 C308 1.314 . S
N311 C309 1.279 . S
C312 C309 1.358 . S
C312 C313 1.356 . S
C312 H349 0.930 . S
C313 C310 1.348 . S
C313 C312 1.356 . S
H314 C308 0.930 . S
H315 C309 0.930 . S
C316 N317 1.314 . S
C316 C318 1.353 . S
C316 H322 0.930 . S
N317 Li267 1.990 . S
N317 C316 1.314 . S
N317 C320 1.279 . S
C318 C316 1.353 . S
C318 C321 1.348 . S
C318 H350 0.929 . S
C319 C320 1.358 . S
C319 C321 1.356 . S
C319 H351 0.930 . S
C320 N317 1.279 . S
C320 C319 1.358 . S
C320 H323 0.930 . S
C321 C318 1.348 . S
C321 C319 1.356 . S
H322 C316 0.930 . S
H323 C320 0.930 . S
O324 Li264 1.956 . S
O324 Li265 1.970 . S
O324 Li266 1.961 . S
O324 C268 1.325 . S
O325 Li264 1.970 . S
O325 Li265 1.956 . S
O325 Li267 1.961 . S
O325 C274 1.325 . S
O326 Li264 1.961 . S
O326 Li266 1.956 . S
O326 Li267 1.970 . S
O326 C296 1.325 . S
O327 Li265 1.961 . S
O327 Li266 1.970 . S
O327 Li267 1.956 . S
O327 C302 1.325 . S
H328 C270 0.929 . S
H329 C271 0.930 . S
H330 C272 0.930 . S
H331 C273 0.930 . S
H332 C275 0.930 . S
H333 C277 0.929 . S
H334 C278 0.930 . S
H335 C279 0.930 . S
H336 C282 0.930 . S
H337 C285 0.929 . S
H338 C290 0.929 . S
H339 C291 0.930 . S
H340 C298 0.929 . S
H341 C299 0.930 . S
H342 C300 0.930 . S
H343 C301 0.930 . S
H344 C303 0.929 . S
H345 C304 0.930 . S
H346 C305 0.930 . S
H347 C306 0.930 . S
H348 C310 0.929 . S
H349 C312 0.930 . S
H350 C318 0.929 . S
H351 C319 0.930 . S
Li352 N369 1.990 . S
Li352 O412 1.956 . S
Li352 O413 1.970 . S
Li352 O414 1.961 . S
Li353 N377 1.990 . S
Li353 O412 1.970 . S
Li353 O413 1.956 . S
Li353 O415 1.961 . S
Li354 N399 1.990 . S
Li354 O412 1.961 . S
Li354 O414 1.956 . S
Li354 O415 1.970 . S
Li355 N405 1.990 . S
Li355 O413 1.961 . S
Li355 O414 1.970 . S
Li355 O415 1.956 . S
C356 C358 1.348 . S
C356 C359 1.356 . S
C356 O412 1.325 . S
N357 C360 1.314 . S
N357 C361 1.279 . S
C358 C356 1.348 . S
C358 C360 1.353 . S
C358 H416 0.929 . S
C359 C356 1.356 . S
C359 C361 1.358 . S
C359 H417 0.930 . S
C360 N357 1.314 . S
C360 C358 1.353 . S
C360 H418 0.930 . S
C361 N357 1.279 . S
C361 C359 1.358 . S
C361 H419 0.930 . S
C362 C365 1.348 . S
C362 C366 1.356 . S
C362 O413 1.325 . S
C363 N364 1.279 . S
C363 C366 1.358 . S
C363 H420 0.930 . S
N364 C363 1.279 . S
N364 C367 1.314 . S
C365 C362 1.348 . S
C365 C367 1.353 . S
C365 H421 0.929 . S
C366 C362 1.356 . S
C366 C363 1.358 . S
C366 H422 0.930 . S
C367 N364 1.314 . S
C367 C365 1.353 . S
C367 H423 0.930 . S
C368 N369 1.314 . S
C368 C373 1.353 . S
C368 H374 0.930 . S
N369 Li352 1.990 . S
N369 C368 1.314 . S
N369 C371 1.279 . S
C370 C371 1.358 . S
C370 C372 1.356 . S
C370 H424 0.930 . S
C371 N369 1.279 . S
C371 C370 1.358 . S
C371 H375 0.930 . S
C372 C370 1.356 . S
C372 C373 1.348 . S
C373 C368 1.353 . S
C373 C372 1.348 . S
C373 H425 0.929 . S
H374 C368 0.930 . S
H375 C371 0.930 . S
C376 N377 1.314 . S
C376 C378 1.353 . S
C376 H382 0.930 . S
N377 Li353 1.990 . S
N377 C376 1.314 . S
N377 C380 1.279 . S
C378 C376 1.353 . S
C378 C381 1.348 . S
C378 H426 0.929 . S
C379 C380 1.358 . S
C379 C381 1.356 . S
C379 H427 0.930 . S
C380 N377 1.279 . S
C380 C379 1.358 . S
C380 H383 0.930 . S
C381 C378 1.348 . S
C381 C379 1.356 . S
H382 C376 0.930 . S
H383 C380 0.930 . S
C384 C386 1.348 1_455 S
C384 C387 1.356 . S
C384 O414 1.325 . S
N385 C388 1.314 . S
N385 C389 1.279 . S
C386 C384 1.348 1_655 S
C386 C388 1.353 . S
C386 H428 0.929 . S
C387 C384 1.356 . S
C387 C389 1.358 1_455 S
C387 H429 0.930 . S
C388 N385 1.314 . S
C388 C386 1.353 . S
C388 H430 0.930 . S
C389 N385 1.279 . S
C389 C387 1.358 1_655 S
C389 H431 0.930 . S
C390 C391 1.348 . S
C390 C392 1.356 . S
C390 O415 1.325 . S
C391 C390 1.348 . S
C391 C393 1.353 . S
C391 H432 0.929 . S
C392 C390 1.356 . S
C392 C394 1.358 . S
C392 H433 0.930 . S
C393 C391 1.353 . S
C393 N395 1.314 . S
C393 H434 0.930 . S
C394 C392 1.358 . S
C394 N395 1.279 . S
C394 H435 0.930 . S
N395 C393 1.314 . S
N395 C394 1.279 . S
C396 C398 1.353 . S
C396 N399 1.314 . S
C396 H402 0.930 . S
C397 N399 1.279 . S
C397 C400 1.358 . S
C397 H403 0.930 . S
C398 C396 1.353 . S
C398 C401 1.348 . S
C398 H436 0.929 . S
N399 Li354 1.990 . S
N399 C396 1.314 . S
N399 C397 1.279 . S
C400 C397 1.358 . S
C400 C401 1.356 . S
C400 H437 0.930 . S
C401 C398 1.348 . S
C401 C400 1.356 . S
H402 C396 0.930 . S
H403 C397 0.930 . S
C404 N405 1.314 . S
C404 C406 1.353 1_455 S
C404 H410 0.930 . S
N405 Li355 1.990 . S
N405 C404 1.314 . S
N405 C408 1.279 . S
C406 C404 1.353 1_655 S
C406 C409 1.348 . S
C406 H438 0.929 . S
C407 C408 1.358 1_655 S
C407 C409 1.356 . S
C407 H439 0.930 . S
C408 N405 1.279 . S
C408 C407 1.358 1_455 S
C408 H411 0.930 . S
C409 C406 1.348 . S
C409 C407 1.356 . S
H410 C404 0.930 . S
H411 C408 0.930 . S
O412 Li352 1.956 . S
O412 Li353 1.970 . S
O412 Li354 1.961 . S
O412 C356 1.325 . S
O413 Li352 1.970 . S
O413 Li353 1.956 . S
O413 Li355 1.961 . S
O413 C362 1.325 . S
O414 Li352 1.961 . S
O414 Li354 1.956 . S
O414 Li355 1.970 . S
O414 C384 1.325 . S
O415 Li353 1.961 . S
O415 Li354 1.970 . S
O415 Li355 1.956 . S
O415 C390 1.325 . S
H416 C358 0.929 . S
H417 C359 0.930 . S
H418 C360 0.930 . S
H419 C361 0.930 . S
H420 C363 0.930 . S
H421 C365 0.929 . S
H422 C366 0.930 . S
H423 C367 0.930 . S
H424 C370 0.930 . S
H425 C373 0.929 . S
H426 C378 0.929 . S
H427 C379 0.930 . S
H428 C386 0.929 . S
H429 C387 0.930 . S
H430 C388 0.930 . S
H431 C389 0.930 . S
H432 C391 0.929 . S
H433 C392 0.930 . S
H434 C393 0.930 . S
H435 C394 0.930 . S
H436 C398 0.929 . S
H437 C400 0.930 . S
H438 C406 0.929 . S
H439 C407 0.930 . S
Li440 N457 1.990 . S
Li440 O500 1.956 . S
Li440 O501 1.970 . S
Li440 O502 1.961 . S
Li441 N465 1.990 . S
Li441 O500 1.970 . S
Li441 O501 1.956 . S
Li441 O503 1.961 . S
Li442 N487 1.990 . S
Li442 O500 1.961 . S
Li442 O502 1.956 . S
Li442 O503 1.970 . S
Li443 N493 1.990 . S
Li443 O501 1.961 . S
Li443 O502 1.970 . S
Li443 O503 1.956 . S
C444 C446 1.348 . S
C444 C447 1.356 . S
C444 O500 1.325 . S
N445 C448 1.314 . S
N445 C449 1.279 . S
C446 C444 1.348 . S
C446 C448 1.353 . S
C446 H504 0.929 . S
C447 C444 1.356 . S
C447 C449 1.358 . S
C447 H505 0.930 . S
C448 N445 1.314 . S
C448 C446 1.353 . S
C448 H506 0.930 . S
C449 N445 1.279 . S
C449 C447 1.358 . S
C449 H507 0.930 . S
C450 C453 1.348 . S
C450 C454 1.356 . S
C450 O501 1.325 . S
C451 N452 1.279 . S
C451 C454 1.358 . S
C451 H508 0.930 . S
N452 C451 1.279 . S
N452 C455 1.314 . S
C453 C450 1.348 . S
C453 C455 1.353 . S
C453 H509 0.929 . S
C454 C450 1.356 . S
C454 C451 1.358 . S
C454 H510 0.930 . S
C455 N452 1.314 . S
C455 C453 1.353 . S
C455 H511 0.930 . S
C456 N457 1.314 . S
C456 C461 1.353 . S
C456 H462 0.930 . S
N457 Li440 1.990 . S
N457 C456 1.314 . S
N457 C459 1.279 . S
C458 C459 1.358 . S
C458 C460 1.356 . S
C458 H512 0.930 . S
C459 N457 1.279 . S
C459 C458 1.358 . S
C459 H463 0.930 . S
C460 C458 1.356 . S
C460 C461 1.348 . S
C461 C456 1.353 . S
C461 C460 1.348 . S
C461 H513 0.929 . S
H462 C456 0.930 . S
H463 C459 0.930 . S
C464 N465 1.314 . S
C464 C466 1.353 . S
C464 H470 0.930 . S
N465 Li441 1.990 . S
N465 C464 1.314 . S
N465 C468 1.279 . S
C466 C464 1.353 . S
C466 C469 1.348 . S
C466 H514 0.929 . S
C467 C468 1.358 . S
C467 C469 1.356 . S
C467 H515 0.930 . S
C468 N465 1.279 . S
C468 C467 1.358 . S
C468 H471 0.930 . S
C469 C466 1.348 . S
C469 C467 1.356 . S
H470 C464 0.930 . S
H471 C468 0.930 . S
C472 C474 1.348 . S
C472 C475 1.356 . S
C472 O502 1.325 . S
N473 C476 1.314 . S
N473 C477 1.279 . S
C474 C472 1.348 . S
C474 C476 1.353 . S
C474 H516 0.929 . S
C475 C472 1.356 . S
C475 C477 1.358 . S
C475 H517 0.930 . S
C476 N473 1.314 . S
C476 C474 1.353 . S
C476 H518 0.930 . S
C477 N473 1.279 . S
C477 C475 1.358 . S
C477 H519 0.930 . S
C478 C479 1.348 . S
C478 C480 1.356 . S
C478 O503 1.325 . S
C479 C478 1.348 . S
C479 C481 1.353 . S
C479 H520 0.929 . S
C480 C478 1.356 . S
C480 C482 1.358 . S
C480 H521 0.930 . S
C481 C479 1.353 . S
C481 N483 1.314 . S
C481 H522 0.930 . S
C482 C480 1.358 . S
C482 N483 1.279 . S
C482 H523 0.930 . S
N483 C481 1.314 . S
N483 C482 1.279 . S
C484 C486 1.353 . S
C484 N487 1.314 . S
C484 H490 0.930 . S
C485 N487 1.279 . S
C485 C488 1.358 . S
C485 H491 0.930 . S
C486 C484 1.353 . S
C486 C489 1.348 . S
C486 H524 0.929 . S
N487 Li442 1.990 . S
N487 C484 1.314 . S
N487 C485 1.279 . S
C488 C485 1.358 . S
C488 C489 1.356 . S
C488 H525 0.930 . S
C489 C486 1.348 . S
C489 C488 1.356 . S
H490 C484 0.930 . S
H491 C485 0.930 . S
C492 N493 1.314 . S
C492 C494 1.353 . S
C492 H498 0.930 . S
N493 Li443 1.990 . S
N493 C492 1.314 . S
N493 C496 1.279 . S
C494 C492 1.353 . S
C494 C497 1.348 . S
C494 H526 0.929 . S
C495 C496 1.358 . S
C495 C497 1.356 . S
C495 H527 0.930 . S
C496 N493 1.279 . S
C496 C495 1.358 . S
C496 H499 0.930 . S
C497 C494 1.348 . S
C497 C495 1.356 . S
H498 C492 0.930 . S
H499 C496 0.930 . S
O500 Li440 1.956 . S
O500 Li441 1.970 . S
O500 Li442 1.961 . S
O500 C444 1.325 . S
O501 Li440 1.970 . S
O501 Li441 1.956 . S
O501 Li443 1.961 . S
O501 C450 1.325 . S
O502 Li440 1.961 . S
O502 Li442 1.956 . S
O502 Li443 1.970 . S
O502 C472 1.325 . S
O503 Li441 1.961 . S
O503 Li442 1.970 . S
O503 Li443 1.956 . S
O503 C478 1.325 . S
H504 C446 0.929 . S
H505 C447 0.930 . S
H506 C448 0.930 . S
H507 C449 0.930 . S
H508 C451 0.930 . S
H509 C453 0.929 . S
H510 C454 0.930 . S
H511 C455 0.930 . S
H512 C458 0.930 . S
H513 C461 0.929 . S
H514 C466 0.929 . S
H515 C467 0.930 . S
H516 C474 0.929 . S
H517 C475 0.930 . S
H518 C476 0.930 . S
H519 C477 0.930 . S
H520 C479 0.929 . S
H521 C480 0.930 . S
H522 C481 0.930 . S
H523 C482 0.930 . S
H524 C486 0.929 . S
H525 C488 0.930 . S
H526 C494 0.929 . S
H527 C495 0.930 . S
Li528 N545 1.990 . S
Li528 O588 1.956 . S
Li528 O589 1.970 . S
Li528 O590 1.961 . S
Li529 N553 1.990 . S
Li529 O588 1.970 . S
Li529 O589 1.956 . S
Li529 O591 1.961 . S
Li530 N575 1.990 . S
Li530 O588 1.961 . S
Li530 O590 1.956 . S
Li530 O591 1.970 . S
Li531 N581 1.990 . S
Li531 O589 1.961 . S
Li531 O590 1.970 . S
Li531 O591 1.956 . S
C532 C534 1.348 . S
C532 C535 1.356 . S
C532 O588 1.325 . S
N533 C536 1.314 . S
N533 C537 1.279 . S
C534 C532 1.348 . S
C534 C536 1.353 . S
C534 H592 0.929 . S
C535 C532 1.356 . S
C535 C537 1.358 . S
C535 H593 0.930 . S
C536 N533 1.314 . S
C536 C534 1.353 . S
C536 H594 0.930 . S
C537 N533 1.279 . S
C537 C535 1.358 . S
C537 H595 0.930 . S
C538 C541 1.348 . S
C538 C542 1.356 . S
C538 O589 1.325 . S
C539 N540 1.279 . S
C539 C542 1.358 . S
C539 H596 0.930 . S
N540 C539 1.279 . S
N540 C543 1.314 . S
C541 C538 1.348 . S
C541 C543 1.353 . S
C541 H597 0.929 . S
C542 C538 1.356 . S
C542 C539 1.358 . S
C542 H598 0.930 . S
C543 N540 1.314 . S
C543 C541 1.353 . S
C543 H599 0.930 . S
C544 N545 1.314 . S
C544 C549 1.353 . S
C544 H550 0.930 . S
N545 Li528 1.990 . S
N545 C544 1.314 . S
N545 C547 1.279 . S
C546 C547 1.358 . S
C546 C548 1.356 . S
C546 H600 0.930 . S
C547 N545 1.279 . S
C547 C546 1.358 . S
C547 H551 0.930 . S
C548 C546 1.356 . S
C548 C549 1.348 . S
C549 C544 1.353 . S
C549 C548 1.348 . S
C549 H601 0.929 . S
H550 C544 0.930 . S
H551 C547 0.930 . S
C552 N553 1.314 . S
C552 C554 1.353 . S
C552 H558 0.930 . S
N553 Li529 1.990 . S
N553 C552 1.314 . S
N553 C556 1.279 . S
C554 C552 1.353 . S
C554 C557 1.348 . S
C554 H602 0.929 . S
C555 C556 1.358 . S
C555 C557 1.356 . S
C555 H603 0.930 . S
C556 N553 1.279 . S
C556 C555 1.358 . S
C556 H559 0.930 . S
C557 C554 1.348 . S
C557 C555 1.356 . S
H558 C552 0.930 . S
H559 C556 0.930 . S
C560 C562 1.348 . S
C560 C563 1.356 . S
C560 O590 1.325 . S
N561 C564 1.314 . S
N561 C565 1.279 . S
C562 C560 1.348 . S
C562 C564 1.353 . S
C562 H604 0.929 . S
C563 C560 1.356 . S
C563 C565 1.358 . S
C563 H605 0.930 . S
C564 N561 1.314 . S
C564 C562 1.353 . S
C564 H606 0.930 . S
C565 N561 1.279 . S
C565 C563 1.358 . S
C565 H607 0.930 . S
C566 C567 1.348 . S
C566 C568 1.356 . S
C566 O591 1.325 . S
C567 C566 1.348 . S
C567 C569 1.353 . S
C567 H608 0.929 . S
C568 C566 1.356 . S
C568 C570 1.358 . S
C568 H609 0.930 . S
C569 C567 1.353 . S
C569 N571 1.314 . S
C569 H610 0.930 . S
C570 C568 1.358 . S
C570 N571 1.279 . S
C570 H611 0.930 . S
N571 C569 1.314 . S
N571 C570 1.279 . S
C572 C574 1.353 . S
C572 N575 1.314 . S
C572 H578 0.930 . S
C573 N575 1.279 . S
C573 C576 1.358 . S
C573 H579 0.930 . S
C574 C572 1.353 . S
C574 C577 1.348 . S
C574 H612 0.929 . S
N575 Li530 1.990 . S
N575 C572 1.314 . S
N575 C573 1.279 . S
C576 C573 1.358 . S
C576 C577 1.356 . S
C576 H613 0.930 . S
C577 C574 1.348 . S
C577 C576 1.356 . S
H578 C572 0.930 . S
H579 C573 0.930 . S
C580 N581 1.314 . S
C580 C582 1.353 . S
C580 H586 0.930 . S
N581 Li531 1.990 . S
N581 C580 1.314 . S
N581 C584 1.279 . S
C582 C580 1.353 . S
C582 C585 1.348 . S
C582 H614 0.929 . S
C583 C584 1.358 . S
C583 C585 1.356 . S
C583 H615 0.930 . S
C584 N581 1.279 . S
C584 C583 1.358 . S
C584 H587 0.930 . S
C585 C582 1.348 . S
C585 C583 1.356 . S
H586 C580 0.930 . S
H587 C584 0.930 . S
O588 Li528 1.956 . S
O588 Li529 1.970 . S
O588 Li530 1.961 . S
O588 C532 1.325 . S
O589 Li528 1.970 . S
O589 Li529 1.956 . S
O589 Li531 1.961 . S
O589 C538 1.325 . S
O590 Li528 1.961 . S
O590 Li530 1.956 . S
O590 Li531 1.970 . S
O590 C560 1.325 . S
O591 Li529 1.961 . S
O591 Li530 1.970 . S
O591 Li531 1.956 . S
O591 C566 1.325 . S
H592 C534 0.929 . S
H593 C535 0.930 . S
H594 C536 0.930 . S
H595 C537 0.930 . S
H596 C539 0.930 . S
H597 C541 0.929 . S
H598 C542 0.930 . S
H599 C543 0.930 . S
H600 C546 0.930 . S
H601 C549 0.929 . S
H602 C554 0.929 . S
H603 C555 0.930 . S
H604 C562 0.929 . S
H605 C563 0.930 . S
H606 C564 0.930 . S
H607 C565 0.930 . S
H608 C567 0.929 . S
H609 C568 0.930 . S
H610 C569 0.930 . S
H611 C570 0.930 . S
H612 C574 0.929 . S
H613 C576 0.930 . S
H614 C582 0.929 . S
H615 C583 0.930 . S
Li616 N633 1.990 . S
Li616 O676 1.956 1_455 S
Li616 O677 1.970 . S
Li616 O678 1.961 . S
Li617 N641 1.990 . S
Li617 O676 1.970 . S
Li617 O677 1.956 1_655 S
Li617 O679 1.961 1_655 S
Li618 N663 1.990 . S
Li618 O676 1.961 1_455 S
Li618 O678 1.956 . S
Li618 O679 1.970 . S
Li619 N669 1.990 . S
Li619 O677 1.961 . S
Li619 O678 1.970 . S
Li619 O679 1.956 . S
C620 C622 1.348 . S
C620 C623 1.356 . S
C620 O676 1.325 . S
N621 C624 1.314 . S
N621 C625 1.279 . S
C622 C620 1.348 . S
C622 C624 1.353 . S
C622 H680 0.929 . S
C623 C620 1.356 . S
C623 C625 1.358 . S
C623 H681 0.930 . S
C624 N621 1.314 . S
C624 C622 1.353 . S
C624 H682 0.930 . S
C625 N621 1.279 . S
C625 C623 1.358 . S
C625 H683 0.930 . S
C626 C629 1.348 . S
C626 C630 1.356 . S
C626 O677 1.325 . S
C627 N628 1.279 . S
C627 C630 1.358 . S
C627 H684 0.930 . S
N628 C627 1.279 . S
N628 C631 1.314 . S
C629 C626 1.348 . S
C629 C631 1.353 . S
C629 H685 0.929 . S
C630 C626 1.356 . S
C630 C627 1.358 . S
C630 H686 0.930 . S
C631 N628 1.314 . S
C631 C629 1.353 . S
C631 H687 0.930 . S
C632 N633 1.314 . S
C632 C637 1.353 . S
C632 H638 0.930 . S
N633 Li616 1.990 . S
N633 C632 1.314 . S
N633 C635 1.279 . S
C634 C635 1.358 . S
C634 C636 1.356 . S
C634 H688 0.966 . S
C635 N633 1.279 . S
C635 C634 1.358 . S
C635 H639 0.930 1_455 S
C636 C634 1.356 . S
C636 C637 1.348 . S
C637 C632 1.353 . S
C637 C636 1.348 . S
C637 H689 0.929 . S
H638 C632 0.930 . S
H639 C635 0.930 1_655 S
C640 N641 1.314 . S
C640 C642 1.353 . S
C640 H646 0.930 . S
N641 Li617 1.990 . S
N641 C640 1.314 . S
N641 C644 1.279 . S
C642 C640 1.353 . S
C642 C645 1.348 . S
C642 H690 0.929 . S
C643 C644 1.358 . S
C643 C645 1.356 . S
C643 H691 0.930 . S
C644 N641 1.279 . S
C644 C643 1.358 . S
C644 H647 0.930 . S
C645 C642 1.348 . S
C645 C643 1.356 . S
H646 C640 0.930 . S
H647 C644 0.930 . S
C648 C650 1.348 . S
C648 C651 1.356 . S
C648 O678 1.325 . S
N649 C652 1.314 . S
N649 C653 1.279 . S
C650 C648 1.348 . S
C650 C652 1.353 . S
C650 H692 0.929 . S
C651 C648 1.356 . S
C651 C653 1.358 . S
C651 H693 0.930 . S
C652 N649 1.314 . S
C652 C650 1.353 . S
C652 H694 0.930 . S
C653 N649 1.279 . S
C653 C651 1.358 . S
C653 H695 0.930 1_556 S
C654 C655 1.348 . S
C654 C656 1.356 . S
C654 O679 1.325 . S
C655 C654 1.348 . S
C655 C657 1.353 . S
C655 H696 0.929 . S
C656 C654 1.356 . S
C656 C658 1.363 1_455 S
C656 H697 0.926 1_455 S
C657 C655 1.353 . S
C657 N659 1.314 . S
C657 H698 0.930 . S
C658 C656 1.363 1_655 S
C658 N659 1.270 1_655 S
C658 H699 0.937 . S
N659 C657 1.314 . S
N659 C658 1.270 1_455 S
C660 C662 1.353 . S
C660 N663 1.314 1_655 S
C660 H666 0.930 . S
C661 N663 1.279 . S
C661 C664 1.358 . S
C661 H667 0.930 . S
C662 C660 1.353 . S
C662 C665 1.348 1_655 S
C662 H700 0.929 . S
N663 Li618 1.990 . S
N663 C660 1.314 1_455 S
N663 C661 1.279 . S
C664 C661 1.358 . S
C664 C665 1.356 . S
C664 H701 0.930 . S
C665 C662 1.348 1_455 S
C665 C664 1.356 . S
H666 C660 0.930 . S
H667 C661 0.930 . S
C668 N669 1.314 . S
C668 C670 1.353 . S
C668 H674 0.930 . S
N669 Li619 1.990 . S
N669 C668 1.314 . S
N669 C672 1.279 . S
C670 C668 1.353 . S
C670 C673 1.348 . S
C670 H702 0.929 . S
C671 C672 1.358 . S
C671 C673 1.356 . S
C671 H703 0.930 . S
C672 N669 1.279 . S
C672 C671 1.358 . S
C672 H675 0.930 . S
C673 C670 1.348 . S
C673 C671 1.356 . S
H674 C668 0.930 . S
H675 C672 0.930 . S
O676 Li616 1.956 1_655 S
O676 Li617 1.970 . S
O676 Li618 1.961 1_655 S
O676 C620 1.325 . S
O677 Li616 1.970 . S
O677 Li617 1.956 1_455 S
O677 Li619 1.961 . S
O677 C626 1.325 . S
O678 Li616 1.961 . S
O678 Li618 1.956 . S
O678 Li619 1.970 . S
O678 C648 1.325 . S
O679 Li617 1.961 1_455 S
O679 Li618 1.970 . S
O679 Li619 1.956 . S
O679 C654 1.325 . S
H680 C622 0.929 . S
H681 C623 0.930 . S
H682 C624 0.930 . S
H683 C625 0.930 . S
H684 C627 0.930 . S
H685 C629 0.929 . S
H686 C630 0.930 . S
H687 C631 0.930 . S
H688 C634 0.966 . S
H689 C637 0.929 . S
H690 C642 0.929 . S
H691 C643 0.930 . S
H692 C650 0.929 . S
H693 C651 0.930 . S
H694 C652 0.930 . S
H695 C653 0.930 1_554 S
H696 C655 0.929 . S
H697 C656 0.926 1_655 S
H698 C657 0.930 . S
H699 C658 0.937 . S
H700 C662 0.929 . S
H701 C664 0.930 . S
H702 C670 0.929 . S
H703 C671 0.930 . S
Li704 N721 1.990 . S
Li704 O764 1.956 1_545 S
Li704 O765 1.970 . S
Li704 O766 1.961 . S
Li705 N729 1.990 . S
Li705 O764 1.970 . S
Li705 O765 1.956 1_565 S
Li705 O767 1.961 1_565 S
Li706 N751 1.990 . S
Li706 O764 1.961 1_545 S
Li706 O766 1.956 . S
Li706 O767 1.970 . S
Li707 N757 1.990 . S
Li707 O765 1.961 . S
Li707 O766 1.970 . S
Li707 O767 1.956 . S
C708 C710 1.348 . S
C708 C711 1.356 . S
C708 O764 1.325 . S
N709 C712 1.314 . S
N709 C713 1.279 . S
C710 C708 1.348 . S
C710 C712 1.353 . S
C710 H768 0.929 . S
C711 C708 1.356 . S
C711 C713 1.358 . S
C711 H769 0.931 . S
C712 N709 1.314 . S
C712 C710 1.353 . S
C712 H770 0.930 . S
C713 N709 1.279 . S
C713 C711 1.358 . S
C713 H771 0.930 . S
C714 C717 1.348 . S
C714 C718 1.356 . S
C714 O765 1.325 . S
C715 N716 1.279 . S
C715 C718 1.358 . S
C715 H772 0.930 . S
N716 C715 1.279 . S
N716 C719 1.314 . S
C717 C714 1.348 . S
C717 C719 1.353 . S
C717 H773 0.929 . S
C718 C714 1.356 . S
C718 C715 1.358 . S
C718 H774 0.930 . S
C719 N716 1.314 . S
C719 C717 1.353 . S
C719 H775 0.930 . S
C720 N721 1.314 . S
C720 C725 1.353 . S
C720 H726 0.930 . S
N721 Li704 1.990 . S
N721 C720 1.314 . S
N721 C723 1.279 . S
C722 C723 1.358 . S
C722 C724 1.356 . S
C722 H776 0.930 . S
C723 N721 1.279 . S
C723 C722 1.358 . S
C723 H727 0.930 1_545 S
C724 C722 1.356 . S
C724 C725 1.348 . S
C725 C720 1.353 . S
C725 C724 1.348 . S
C725 H777 0.929 . S
H726 C720 0.930 . S
H727 C723 0.930 1_565 S
C728 N729 1.314 . S
C728 C730 1.353 . S
C728 H734 0.930 . S
N729 Li705 1.990 . S
N729 C728 1.314 . S
N729 C732 1.279 . S
C730 C728 1.353 . S
C730 C733 1.348 . S
C730 H778 0.929 . S
C731 C732 1.358 . S
C731 C733 1.356 . S
C731 H779 0.930 . S
C732 N729 1.279 . S
C732 C731 1.358 . S
C732 H735 0.930 . S
C733 C730 1.348 . S
C733 C731 1.356 . S
H734 C728 0.930 . S
H735 C732 0.930 . S
C736 C738 1.348 . S
C736 C739 1.356 . S
C736 O766 1.325 . S
N737 C740 1.314 . S
N737 C741 1.279 . S
C738 C736 1.348 . S
C738 C740 1.353 . S
C738 H780 0.929 . S
C739 C736 1.356 . S
C739 C741 1.358 . S
C739 H781 0.930 . S
C740 N737 1.314 . S
C740 C738 1.353 . S
C740 H782 0.930 . S
C741 N737 1.279 . S
C741 C739 1.358 . S
C741 H783 0.930 . S
C742 C743 1.348 . S
C742 C744 1.356 . S
C742 O767 1.325 . S
C743 C742 1.348 . S
C743 C745 1.353 . S
C743 H784 0.929 . S
C744 C742 1.356 . S
C744 C746 1.358 . S
C744 H785 0.930 . S
C745 C743 1.353 . S
C745 N747 1.314 . S
C745 H786 0.930 . S
C746 C744 1.358 . S
C746 N747 1.279 . S
C746 H787 0.930 1_545 S
N747 C745 1.314 . S
N747 C746 1.279 . S
C748 C750 1.353 . S
C748 N751 1.314 . S
C748 H754 0.930 1_545 S
C749 N751 1.279 . S
C749 C752 1.358 . S
C749 H755 0.930 . S
C750 C748 1.353 . S
C750 C753 1.348 . S
C750 H788 0.929 1_545 S
N751 Li706 1.990 . S
N751 C748 1.314 . S
N751 C749 1.279 . S
C752 C749 1.358 . S
C752 C753 1.356 . S
C752 H789 0.930 . S
C753 C750 1.348 . S
C753 C752 1.356 . S
H754 C748 0.930 1_565 S
H755 C749 0.930 . S
C756 N757 1.314 . S
C756 C758 1.353 . S
C756 H762 0.930 . S
N757 Li707 1.990 . S
N757 C756 1.314 . S
N757 C760 1.279 . S
C758 C756 1.353 . S
C758 C761 1.348 . S
C758 H790 0.929 . S
C759 C760 1.358 . S
C759 C761 1.356 . S
C759 H791 0.930 . S
C760 N757 1.279 . S
C760 C759 1.358 . S
C760 H763 0.930 . S
C761 C758 1.348 . S
C761 C759 1.356 . S
H762 C756 0.930 . S
H763 C760 0.930 . S
O764 Li704 1.956 1_565 S
O764 Li705 1.970 . S
O764 Li706 1.961 1_565 S
O764 C708 1.325 . S
O765 Li704 1.970 . S
O765 Li705 1.956 1_545 S
O765 Li707 1.961 . S
O765 C714 1.325 . S
O766 Li704 1.961 . S
O766 Li706 1.956 . S
O766 Li707 1.970 . S
O766 C736 1.325 . S
O767 Li705 1.961 1_545 S
O767 Li706 1.970 . S
O767 Li707 1.956 . S
O767 C742 1.325 . S
H768 C710 0.929 . S
H769 C711 0.931 . S
H770 C712 0.930 . S
H771 C713 0.930 . S
H772 C715 0.930 . S
H773 C717 0.929 . S
H774 C718 0.930 . S
H775 C719 0.930 . S
H776 C722 0.930 . S
H777 C725 0.929 . S
H778 C730 0.929 . S
H779 C731 0.930 . S
H780 C738 0.929 . S
H781 C739 0.930 . S
H782 C740 0.930 . S
H783 C741 0.930 . S
H784 C743 0.929 . S
H785 C744 0.930 . S
H786 C745 0.930 . S
H787 C746 0.930 1_565 S
H788 C750 0.929 1_565 S
H789 C752 0.930 . S
H790 C758 0.929 . S
H791 C759 0.930 . S
Li792 N809 1.990 . S
Li792 O852 1.956 . S
Li792 O853 1.970 . S
Li792 O854 1.961 . S
Li793 N817 1.990 . S
Li793 O852 1.970 . S
Li793 O853 1.956 . S
Li793 O855 1.961 . S
Li794 N839 1.990 . S
Li794 O852 1.961 . S
Li794 O854 1.956 . S
Li794 O855 1.970 . S
Li795 N845 1.990 . S
Li795 O853 1.961 . S
Li795 O854 1.970 . S
Li795 O855 1.956 . S
C796 C798 1.348 . S
C796 C799 1.356 . S
C796 O852 1.325 . S
N797 C800 1.314 . S
N797 C801 1.279 . S
C798 C796 1.348 . S
C798 C800 1.353 . S
C798 H856 0.929 . S
C799 C796 1.356 . S
C799 C801 1.358 . S
C799 H857 0.930 . S
C800 N797 1.314 . S
C800 C798 1.353 . S
C800 H858 0.930 . S
C801 N797 1.279 . S
C801 C799 1.358 . S
C801 H859 0.930 . S
C802 C805 1.348 . S
C802 C806 1.356 . S
C802 O853 1.325 . S
C803 N804 1.279 . S
C803 C806 1.358 . S
C803 H860 0.930 . S
N804 C803 1.279 . S
N804 C807 1.314 . S
C805 C802 1.348 . S
C805 C807 1.353 . S
C805 H861 0.929 . S
C806 C802 1.356 . S
C806 C803 1.358 . S
C806 H862 0.930 . S
C807 N804 1.314 . S
C807 C805 1.353 . S
C807 H863 0.930 . S
C808 N809 1.314 . S
C808 C813 1.353 . S
C808 H814 0.930 . S
N809 Li792 1.990 . S
N809 C808 1.314 . S
N809 C811 1.279 . S
C810 C811 1.358 . S
C810 C812 1.356 . S
C810 H864 0.930 . S
C811 N809 1.279 . S
C811 C810 1.358 . S
C811 H815 0.930 . S
C812 C810 1.356 . S
C812 C813 1.348 . S
C813 C808 1.353 . S
C813 C812 1.348 . S
C813 H865 0.929 . S
H814 C808 0.930 . S
H815 C811 0.930 . S
C816 N817 1.314 . S
C816 C818 1.353 . S
C816 H822 0.930 . S
N817 Li793 1.990 . S
N817 C816 1.314 . S
N817 C820 1.279 . S
C818 C816 1.353 . S
C818 C821 1.348 . S
C818 H866 0.929 . S
C819 C820 1.358 . S
C819 C821 1.356 . S
C819 H867 0.930 . S
C820 N817 1.279 . S
C820 C819 1.358 . S
C820 H823 0.930 . S
C821 C818 1.348 . S
C821 C819 1.356 . S
H822 C816 0.930 . S
H823 C820 0.930 . S
C824 C826 1.348 . S
C824 C827 1.356 . S
C824 O854 1.325 . S
N825 C828 1.314 . S
N825 C829 1.279 . S
C826 C824 1.348 . S
C826 C828 1.353 . S
C826 H868 0.929 . S
C827 C824 1.356 . S
C827 C829 1.358 . S
C827 H869 0.930 . S
C828 N825 1.314 . S
C828 C826 1.353 . S
C828 H870 0.930 . S
C829 N825 1.279 . S
C829 C827 1.358 . S
C829 H871 0.930 . S
C830 C831 1.348 . S
C830 C832 1.356 . S
C830 O855 1.325 . S
C831 C830 1.348 . S
C831 C833 1.353 . S
C831 H872 0.929 . S
C832 C830 1.356 . S
C832 C834 1.358 . S
C832 H873 0.930 . S
C833 C831 1.353 . S
C833 N835 1.314 . S
C833 H874 0.930 . S
C834 C832 1.358 . S
C834 N835 1.279 . S
C834 H875 0.930 . S
N835 C833 1.314 . S
N835 C834 1.279 . S
C836 C838 1.353 . S
C836 N839 1.314 . S
C836 H842 0.930 . S
C837 N839 1.279 . S
C837 C840 1.358 . S
C837 H843 0.930 . S
C838 C836 1.353 . S
C838 C841 1.348 . S
C838 H876 0.929 . S
N839 Li794 1.990 . S
N839 C836 1.314 . S
N839 C837 1.279 . S
C840 C837 1.358 . S
C840 C841 1.356 . S
C840 H877 0.930 . S
C841 C838 1.348 . S
C841 C840 1.356 . S
H842 C836 0.930 . S
H843 C837 0.930 . S
C844 N845 1.314 . S
C844 C846 1.353 . S
C844 H850 0.930 . S
N845 Li795 1.990 . S
N845 C844 1.314 . S
N845 C848 1.279 . S
C846 C844 1.353 . S
C846 C849 1.348 . S
C846 H878 0.929 . S
C847 C848 1.358 . S
C847 C849 1.356 . S
C847 H879 0.930 . S
C848 N845 1.279 . S
C848 C847 1.358 . S
C848 H851 0.930 . S
C849 C846 1.348 . S
C849 C847 1.356 . S
H850 C844 0.930 . S
H851 C848 0.930 . S
O852 Li792 1.956 . S
O852 Li793 1.970 . S
O852 Li794 1.961 . S
O852 C796 1.325 . S
O853 Li792 1.970 . S
O853 Li793 1.956 . S
O853 Li795 1.961 . S
O853 C802 1.325 . S
O854 Li792 1.961 . S
O854 Li794 1.956 . S
O854 Li795 1.970 . S
O854 C824 1.325 . S
O855 Li793 1.961 . S
O855 Li794 1.970 . S
O855 Li795 1.956 . S
O855 C830 1.325 . S
H856 C798 0.929 . S
H857 C799 0.930 . S
H858 C800 0.930 . S
H859 C801 0.930 . S
H860 C803 0.930 . S
H861 C805 0.929 . S
H862 C806 0.930 . S
H863 C807 0.930 . S
H864 C810 0.930 . S
H865 C813 0.929 . S
H866 C818 0.929 . S
H867 C819 0.930 . S
H868 C826 0.929 . S
H869 C827 0.930 . S
H870 C828 0.930 . S
H871 C829 0.930 . S
H872 C831 0.929 . S
H873 C832 0.930 . S
H874 C833 0.930 . S
H875 C834 0.930 . S
H876 C838 0.929 . S
H877 C840 0.930 . S
H878 C846 0.929 . S
H879 C847 0.930 . S
Li880 N897 1.990 . S
Li880 O940 1.956 . S
Li880 O941 1.970 . S
Li880 O942 1.961 . S
Li881 N905 1.990 . S
Li881 O940 1.970 . S
Li881 O941 1.956 . S
Li881 O943 1.961 . S
Li882 N927 1.990 1_545 S
Li882 O940 1.961 . S
Li882 O942 1.956 . S
Li882 O943 1.970 . S
Li883 N933 1.990 . S
Li883 O941 1.961 . S
Li883 O942 1.970 . S
Li883 O943 1.956 . S
C884 C886 1.348 . S
C884 C887 1.356 . S
C884 O940 1.325 . S
N885 C888 1.314 . S
N885 C889 1.279 . S
C886 C884 1.348 . S
C886 C888 1.353 . S
C886 H944 0.929 . S
C887 C884 1.356 . S
C887 C889 1.358 . S
C887 H945 0.930 . S
C888 N885 1.314 . S
C888 C886 1.353 . S
C888 H946 0.930 . S
C889 N885 1.279 . S
C889 C887 1.358 . S
C889 H947 0.930 . S
C890 C893 1.348 . S
C890 C894 1.356 . S
C890 O941 1.325 . S
C891 N892 1.279 . S
C891 C894 1.358 . S
C891 H948 0.930 . S
N892 C891 1.279 . S
N892 C895 1.314 . S
C893 C890 1.348 . S
C893 C895 1.353 . S
C893 H949 0.929 . S
C894 C890 1.356 . S
C894 C891 1.358 . S
C894 H950 0.930 . S
C895 N892 1.314 . S
C895 C893 1.353 . S
C895 H951 0.930 . S
C896 N897 1.314 . S
C896 C901 1.353 . S
C896 H902 0.930 . S
N897 Li880 1.990 . S
N897 C896 1.314 . S
N897 C899 1.279 . S
C898 C899 1.358 . S
C898 C900 1.356 . S
C898 H952 0.930 . S
C899 N897 1.279 . S
C899 C898 1.358 . S
C899 H903 0.930 . S
C900 C898 1.356 . S
C900 C901 1.348 . S
C901 C896 1.353 . S
C901 C900 1.348 . S
C901 H953 0.929 . S
H902 C896 0.930 . S
H903 C899 0.930 . S
C904 N905 1.314 . S
C904 C906 1.353 . S
C904 H910 0.888 1_545 S
N905 Li881 1.990 . S
N905 C904 1.314 . S
N905 C908 1.279 . S
C906 C904 1.353 . S
C906 C909 1.348 . S
C906 H954 0.929 1_545 S
C907 C908 1.358 . S
C907 C909 1.356 . S
C907 H955 0.930 . S
C908 N905 1.279 . S
C908 C907 1.358 . S
C908 H911 0.930 . S
C909 C906 1.348 . S
C909 C907 1.356 . S
H910 C904 0.888 1_565 S
H911 C908 0.930 . S
C912 C914 1.348 . S
C912 C915 1.356 . S
C912 O942 1.325 . S
N913 C916 1.314 . S
N913 C917 1.279 . S
C914 C912 1.348 . S
C914 C916 1.353 . S
C914 H956 0.929 . S
C915 C912 1.356 . S
C915 C917 1.358 . S
C915 H957 0.930 . S
C916 N913 1.314 . S
C916 C914 1.353 . S
C916 H958 0.930 . S
C917 N913 1.279 . S
C917 C915 1.358 . S
C917 H959 0.930 . S
C918 C919 1.348 . S
C918 C920 1.356 . S
C918 O943 1.325 1_565 S
C919 C918 1.348 . S
C919 C921 1.353 . S
C919 H960 0.929 . S
C920 C918 1.356 . S
C920 C922 1.358 . S
C920 H961 0.930 . S
C921 C919 1.353 . S
C921 N923 1.314 . S
C921 H962 0.930 . S
C922 C920 1.358 . S
C922 N923 1.279 . S
C922 H963 0.930 . S
N923 C921 1.314 . S
N923 C922 1.279 . S
C924 C926 1.353 . S
C924 N927 1.314 . S
C924 H930 0.930 . S
C925 N927 1.279 . S
C925 C928 1.358 . S
C925 H931 0.930 . S
C926 C924 1.353 . S
C926 C929 1.348 . S
C926 H964 0.929 . S
N927 Li882 1.990 1_565 S
N927 C924 1.314 . S
N927 C925 1.279 . S
C928 C925 1.358 . S
C928 C929 1.356 . S
C928 H965 0.930 . S
C929 C926 1.348 . S
C929 C928 1.356 . S
H930 C924 0.930 . S
H931 C925 0.930 . S
C932 N933 1.314 . S
C932 C934 1.353 . S
C932 H938 0.930 . S
N933 Li883 1.990 . S
N933 C932 1.314 . S
N933 C936 1.293 . S
C934 C932 1.353 . S
C934 C937 1.348 . S
C934 H966 0.929 . S
C935 C936 1.360 1_565 S
C935 C937 1.356 1_565 S
C935 H967 0.930 . S
C936 N933 1.293 . S
C936 C935 1.360 1_545 S
C936 H939 0.913 1_545 S
C937 C934 1.348 . S
C937 C935 1.356 1_545 S
H938 C932 0.930 . S
H939 C936 0.913 1_565 S
O940 Li880 1.956 . S
O940 Li881 1.970 . S
O940 Li882 1.961 . S
O940 C884 1.325 . S
O941 Li880 1.970 . S
O941 Li881 1.956 . S
O941 Li883 1.961 . S
O941 C890 1.325 . S
O942 Li880 1.961 . S
O942 Li882 1.956 . S
O942 Li883 1.970 . S
O942 C912 1.325 . S
O943 Li881 1.961 . S
O943 Li882 1.970 . S
O943 Li883 1.956 . S
O943 C918 1.325 1_545 S
H944 C886 0.929 . S
H945 C887 0.930 . S
H946 C888 0.930 . S
H947 C889 0.930 . S
H948 C891 0.930 . S
H949 C893 0.929 . S
H950 C894 0.930 . S
H951 C895 0.930 . S
H952 C898 0.930 . S
H953 C901 0.929 . S
H954 C906 0.929 1_565 S
H955 C907 0.930 . S
H956 C914 0.929 . S
H957 C915 0.930 . S
H958 C916 0.930 . S
H959 C917 0.930 . S
H960 C919 0.929 . S
H961 C920 0.930 . S
H962 C921 0.930 . S
H963 C922 0.930 . S
H964 C926 0.929 . S
H965 C928 0.930 . S
H966 C934 0.929 . S
H967 C935 0.930 . S
Li968 N985 1.990 . S
Li968 O1028 1.973 . S
Li968 O1029 1.971 1_554 S
Li968 O1030 1.940 1_554 S
Li969 N993 1.990 . S
Li969 O1028 1.970 . S
Li969 O1029 1.956 1_554 S
Li969 O1031 1.961 . S
Li970 N1015 1.990 . S
Li970 O1028 1.961 . S
Li970 O1030 1.956 1_554 S
Li970 O1031 1.970 . S
Li971 N1021 1.990 . S
Li971 O1029 1.961 . S
Li971 O1030 1.970 . S
Li971 O1031 1.956 1_556 S
C972 C974 1.348 . S
C972 C975 1.356 . S
C972 O1028 1.325 . S
N973 C976 1.314 . S
N973 C977 1.279 . S
C974 C972 1.348 . S
C974 C976 1.353 . S
C974 H1032 0.929 . S
C975 C972 1.356 . S
C975 C977 1.358 . S
C975 H1033 0.930 . S
C976 N973 1.314 . S
C976 C974 1.353 . S
C976 H1034 0.930 . S
C977 N973 1.279 . S
C977 C975 1.358 . S
C977 H1035 0.930 . S
C978 C981 1.366 . S
C978 C982 1.356 . S
C978 O1029 1.325 . S
C979 N980 1.279 . S
C979 C982 1.358 . S
C979 H1036 0.930 . S
N980 C979 1.279 . S
N980 C983 1.314 . S
C981 C978 1.366 . S
C981 C983 1.349 . S
C981 H1037 0.918 1_556 S
C982 C978 1.356 . S
C982 C979 1.358 . S
C982 H1038 0.930 . S
C983 N980 1.314 . S
C983 C981 1.349 . S
C983 H1039 0.939 . S
C984 N985 1.285 1_556 S
C984 C989 1.353 . S
C984 H990 0.930 . S
N985 Li968 1.990 . S
N985 C984 1.285 1_554 S
N985 C987 1.310 . S
C986 C987 1.358 . S
C986 C988 1.313 1_554 S
C986 H1040 0.930 . S
C987 N985 1.310 . S
C987 C986 1.358 . S
C987 H991 0.930 . S
C988 C986 1.313 1_556 S
C988 C989 1.395 . S
C989 C984 1.353 . S
C989 C988 1.395 . S
C989 H1041 0.929 . S
H990 C984 0.930 . S
H991 C987 0.930 . S
C992 N993 1.314 . S
C992 C994 1.353 . S
C992 H998 0.930 . S
N993 Li969 1.990 . S
N993 C992 1.314 . S
N993 C996 1.279 . S
C994 C992 1.353 . S
C994 C997 1.348 . S
C994 H1042 0.929 . S
C995 C996 1.358 . S
C995 C997 1.356 . S
C995 H1043 0.930 . S
C996 N993 1.279 . S
C996 C995 1.358 . S
C996 H999 0.930 . S
C997 C994 1.348 . S
C997 C995 1.356 . S
H998 C992 0.930 . S
H999 C996 0.930 . S
C1000 C1002 1.348 . S
C1000 C1003 1.356 . S
C1000 O1030 1.325 . S
N1001 C1004 1.314 . S
N1001 C1005 1.279 . S
C1002 C1000 1.348 . S
C1002 C1004 1.353 . S
C1002 H1044 0.929 . S
C1003 C1000 1.356 . S
C1003 C1005 1.358 . S
C1003 H1045 0.930 . S
C1004 N1001 1.314 . S
C1004 C1002 1.353 . S
C1004 H1046 0.930 . S
C1005 N1001 1.279 . S
C1005 C1003 1.358 . S
C1005 H1047 0.930 . S
C1006 C1007 1.333 1_554 S
C1006 C1008 1.366 . S
C1006 O1031 1.328 . S
C1007 C1006 1.333 1_556 S
C1007 C1009 1.353 . S
C1007 H1048 0.929 . S
C1008 C1006 1.366 . S
C1008 C1010 1.358 . S
C1008 H1049 0.930 . S
C1009 C1007 1.353 . S
C1009 N1011 1.324 . S
C1009 H1050 0.930 . S
C1010 C1008 1.358 . S
C1010 N1011 1.268 1_554 S
C1010 H1051 0.930 . S
N1011 C1009 1.324 . S
N1011 C1010 1.268 1_556 S
C1012 C1014 1.353 . S
C1012 N1015 1.314 . S
C1012 H1018 0.930 . S
C1013 N1015 1.279 1_556 S
C1013 C1016 1.358 . S
C1013 H1019 0.930 . S
C1014 C1012 1.353 . S
C1014 C1017 1.348 . S
C1014 H1052 0.929 . S
N1015 Li970 1.990 . S
N1015 C1012 1.314 . S
N1015 C1013 1.279 1_554 S
C1016 C1013 1.358 . S
C1016 C1017 1.356 1_556 S
C1016 H1053 0.930 . S
C1017 C1014 1.348 . S
C1017 C1016 1.356 1_554 S
H1018 C1012 0.930 . S
H1019 C1013 0.930 . S
C1020 N1021 1.314 . S
C1020 C1022 1.353 . S
C1020 H1026 0.930 . S
N1021 Li971 1.990 . S
N1021 C1020 1.314 . S
N1021 C1024 1.279 . S
C1022 C1020 1.353 . S
C1022 C1025 1.348 . S
C1022 H1054 0.929 . S
C1023 C1024 1.358 . S
C1023 C1025 1.356 . S
C1023 H1055 0.930 . S
C1024 N1021 1.279 . S
C1024 C1023 1.358 . S
C1024 H1027 0.930 . S
C1025 C1022 1.348 . S
C1025 C1023 1.356 . S
H1026 C1020 0.930 . S
H1027 C1024 0.930 . S
O1028 Li968 1.973 . S
O1028 Li969 1.970 . S
O1028 Li970 1.961 . S
O1028 C972 1.325 . S
O1029 Li968 1.971 1_556 S
O1029 Li969 1.956 1_556 S
O1029 Li971 1.961 . S
O1029 C978 1.325 . S
O1030 Li968 1.940 1_556 S
O1030 Li970 1.956 1_556 S
O1030 Li971 1.970 . S
O1030 C1000 1.325 . S
O1031 Li969 1.961 . S
O1031 Li970 1.970 . S
O1031 Li971 1.956 1_554 S
O1031 C1006 1.328 . S
H1032 C974 0.929 . S
H1033 C975 0.930 . S
H1034 C976 0.930 . S
H1035 C977 0.930 . S
H1036 C979 0.930 . S
H1037 C981 0.918 1_554 S
H1038 C982 0.930 . S
H1039 C983 0.939 . S
H1040 C986 0.930 . S
H1041 C989 0.929 . S
H1042 C994 0.929 . S
H1043 C995 0.930 . S
H1044 C1002 0.929 . S
H1045 C1003 0.930 . S
H1046 C1004 0.930 . S
H1047 C1005 0.930 . S
H1048 C1007 0.929 . S
H1049 C1008 0.930 . S
H1050 C1009 0.930 . S
H1051 C1010 0.930 . S
H1052 C1014 0.929 . S
H1053 C1016 0.930 . S
H1054 C1022 0.929 . S
H1055 C1023 0.930 . S
Li1056 N1073 1.990 . S
Li1056 O1116 1.956 . S
Li1056 O1117 1.970 . S
Li1056 O1118 1.961 . S
Li1057 N1081 1.990 . S
Li1057 O1116 1.970 . S
Li1057 O1117 1.956 . S
Li1057 O1119 1.961 . S
Li1058 N1103 1.990 . S
Li1058 O1116 1.961 . S
Li1058 O1118 1.956 . S
Li1058 O1119 1.970 . S
Li1059 N1109 1.990 1_554 S
Li1059 O1117 1.961 . S
Li1059 O1118 1.970 . S
Li1059 O1119 1.956 . S
C1060 C1062 1.348 . S
C1060 C1063 1.356 . S
C1060 O1116 1.325 . S
N1061 C1064 1.314 . S
N1061 C1065 1.279 . S
C1062 C1060 1.348 . S
C1062 C1064 1.353 . S
C1062 H1120 0.929 . S
C1063 C1060 1.356 . S
C1063 C1065 1.358 . S
C1063 H1121 0.930 . S
C1064 N1061 1.314 . S
C1064 C1062 1.353 . S
C1064 H1122 0.930 . S
C1065 N1061 1.279 . S
C1065 C1063 1.358 . S
C1065 H1123 0.930 . S
C1066 C1069 1.348 . S
C1066 C1070 1.356 . S
C1066 O1117 1.325 . S
C1067 N1068 1.279 . S
C1067 C1070 1.358 . S
C1067 H1124 0.930 . S
N1068 C1067 1.279 . S
N1068 C1071 1.314 . S
C1069 C1066 1.348 . S
C1069 C1071 1.353 . S
C1069 H1125 0.929 . S
C1070 C1066 1.356 . S
C1070 C1067 1.358 . S
C1070 H1126 0.930 . S
C1071 N1068 1.314 . S
C1071 C1069 1.353 . S
C1071 H1127 0.930 . S
C1072 N1073 1.314 . S
C1072 C1077 1.353 . S
C1072 H1078 0.929 . S
N1073 Li1056 1.990 . S
N1073 C1072 1.314 . S
N1073 C1075 1.279 . S
C1074 C1075 1.358 . S
C1074 C1076 1.356 . S
C1074 H1128 0.930 . S
C1075 N1073 1.279 . S
C1075 C1074 1.358 . S
C1075 H1079 0.930 . S
C1076 C1074 1.356 . S
C1076 C1077 1.348 . S
C1077 C1072 1.353 . S
C1077 C1076 1.348 . S
C1077 H1129 0.929 1_554 S
H1078 C1072 0.929 . S
H1079 C1075 0.930 . S
C1080 N1081 1.314 . S
C1080 C1082 1.353 . S
C1080 H1086 0.930 . S
N1081 Li1057 1.990 . S
N1081 C1080 1.314 . S
N1081 C1084 1.279 . S
C1082 C1080 1.353 . S
C1082 C1085 1.348 . S
C1082 H1130 0.929 . S
C1083 C1084 1.358 . S
C1083 C1085 1.356 . S
C1083 H1131 0.930 . S
C1084 N1081 1.279 . S
C1084 C1083 1.358 . S
C1084 H1087 0.930 . S
C1085 C1082 1.348 . S
C1085 C1083 1.356 . S
H1086 C1080 0.930 . S
H1087 C1084 0.930 . S
C1088 C1090 1.348 . S
C1088 C1091 1.356 . S
C1088 O1118 1.325 1_556 S
N1089 C1092 1.314 . S
N1089 C1093 1.279 . S
C1090 C1088 1.348 . S
C1090 C1092 1.353 . S
C1090 H1132 0.929 . S
C1091 C1088 1.356 . S
C1091 C1093 1.358 . S
C1091 H1133 0.930 1_556 S
C1092 N1089 1.314 . S
C1092 C1090 1.353 . S
C1092 H1134 0.930 . S
C1093 N1089 1.279 . S
C1093 C1091 1.358 . S
C1093 H1135 0.930 . S
C1094 C1095 1.348 . S
C1094 C1096 1.356 . S
C1094 O1119 1.325 . S
C1095 C1094 1.348 . S
C1095 C1097 1.353 . S
C1095 H1136 0.929 . S
C1096 C1094 1.356 . S
C1096 C1098 1.358 . S
C1096 H1137 0.930 . S
C1097 C1095 1.353 . S
C1097 N1099 1.314 . S
C1097 H1138 0.930 . S
C1098 C1096 1.358 . S
C1098 N1099 1.279 . S
C1098 H1139 0.930 . S
N1099 C1097 1.314 . S
N1099 C1098 1.279 . S
C1100 C1102 1.353 . S
C1100 N1103 1.314 . S
C1100 H1106 0.930 . S
C1101 N1103 1.279 . S
C1101 C1104 1.358 . S
C1101 H1107 0.930 . S
C1102 C1100 1.353 . S
C1102 C1105 1.348 . S
C1102 H1140 0.929 . S
N1103 Li1058 1.990 . S
N1103 C1100 1.314 . S
N1103 C1101 1.279 . S
C1104 C1101 1.358 . S
C1104 C1105 1.356 . S
C1104 H1141 0.930 . S
C1105 C1102 1.348 . S
C1105 C1104 1.356 . S
H1106 C1100 0.930 . S
H1107 C1101 0.930 . S
C1108 N1109 1.314 . S
C1108 C1110 1.353 . S
C1108 H1114 0.930 . S
N1109 Li1059 1.990 1_556 S
N1109 C1108 1.314 . S
N1109 C1112 1.279 . S
C1110 C1108 1.353 . S
C1110 C1113 1.348 . S
C1110 H1142 0.929 . S
C1111 C1112 1.358 . S
C1111 C1113 1.356 . S
C1111 H1143 0.930 . S
C1112 N1109 1.279 . S
C1112 C1111 1.358 . S
C1112 H1115 0.930 . S
C1113 C1110 1.348 . S
C1113 C1111 1.356 . S
H1114 C1108 0.930 . S
H1115 C1112 0.930 . S
O1116 Li1056 1.956 . S
O1116 Li1057 1.970 . S
O1116 Li1058 1.961 . S
O1116 C1060 1.325 . S
O1117 Li1056 1.970 . S
O1117 Li1057 1.956 . S
O1117 Li1059 1.961 . S
O1117 C1066 1.325 . S
O1118 Li1056 1.961 . S
O1118 Li1058 1.956 . S
O1118 Li1059 1.970 . S
O1118 C1088 1.325 1_554 S
O1119 Li1057 1.961 . S
O1119 Li1058 1.970 . S
O1119 Li1059 1.956 . S
O1119 C1094 1.325 . S
H1120 C1062 0.929 . S
H1121 C1063 0.930 . S
H1122 C1064 0.930 . S
H1123 C1065 0.930 . S
H1124 C1067 0.930 . S
H1125 C1069 0.929 . S
H1126 C1070 0.930 . S
H1127 C1071 0.930 . S
H1128 C1074 0.930 . S
H1129 C1077 0.929 1_556 S
H1130 C1082 0.929 . S
H1131 C1083 0.930 . S
H1132 C1090 0.929 . S
H1133 C1091 0.930 1_554 S
H1134 C1092 0.930 . S
H1135 C1093 0.930 . S
H1136 C1095 0.929 . S
H1137 C1096 0.930 . S
H1138 C1097 0.930 . S
H1139 C1098 0.930 . S
H1140 C1102 0.929 . S
H1141 C1104 0.930 . S
H1142 C1110 0.929 . S
H1143 C1111 0.930 . S
Li1144 N1161 1.990 . S
Li1144 O1204 1.956 . S
Li1144 O1205 1.970 . S
Li1144 O1206 1.961 . S
Li1145 N1169 1.990 . S
Li1145 O1204 1.970 . S
Li1145 O1205 1.956 . S
Li1145 O1207 1.961 . S
Li1146 N1191 1.990 . S
Li1146 O1204 1.961 . S
Li1146 O1206 1.956 . S
Li1146 O1207 1.970 . S
Li1147 N1197 1.990 . S
Li1147 O1205 1.961 . S
Li1147 O1206 1.970 . S
Li1147 O1207 1.956 . S
C1148 C1150 1.348 . S
C1148 C1151 1.356 . S
C1148 O1204 1.325 . S
N1149 C1152 1.314 . S
N1149 C1153 1.279 . S
C1150 C1148 1.348 . S
C1150 C1152 1.353 . S
C1150 H1208 0.929 . S
C1151 C1148 1.356 . S
C1151 C1153 1.358 . S
C1151 H1209 0.930 . S
C1152 N1149 1.314 . S
C1152 C1150 1.353 . S
C1152 H1210 0.930 . S
C1153 N1149 1.279 . S
C1153 C1151 1.358 . S
C1153 H1211 0.930 . S
C1154 C1157 1.348 . S
C1154 C1158 1.356 . S
C1154 O1205 1.325 . S
C1155 N1156 1.279 . S
C1155 C1158 1.358 . S
C1155 H1212 0.930 . S
N1156 C1155 1.279 . S
N1156 C1159 1.314 . S
C1157 C1154 1.348 . S
C1157 C1159 1.353 . S
C1157 H1213 0.929 . S
C1158 C1154 1.356 . S
C1158 C1155 1.358 . S
C1158 H1214 0.930 . S
C1159 N1156 1.314 . S
C1159 C1157 1.353 . S
C1159 H1215 0.930 . S
C1160 N1161 1.314 . S
C1160 C1165 1.353 . S
C1160 H1166 0.930 . S
N1161 Li1144 1.990 . S
N1161 C1160 1.314 . S
N1161 C1163 1.279 . S
C1162 C1163 1.358 . S
C1162 C1164 1.356 . S
C1162 H1216 0.930 . S
C1163 N1161 1.279 . S
C1163 C1162 1.358 . S
C1163 H1167 0.930 . S
C1164 C1162 1.356 . S
C1164 C1165 1.348 . S
C1165 C1160 1.353 . S
C1165 C1164 1.348 . S
C1165 H1217 0.929 . S
H1166 C1160 0.930 . S
H1167 C1163 0.930 . S
C1168 N1169 1.314 . S
C1168 C1170 1.353 . S
C1168 H1174 0.930 . S
N1169 Li1145 1.990 . S
N1169 C1168 1.314 . S
N1169 C1172 1.279 . S
C1170 C1168 1.353 . S
C1170 C1173 1.348 . S
C1170 H1218 0.929 . S
C1171 C1172 1.358 . S
C1171 C1173 1.356 . S
C1171 H1219 0.930 . S
C1172 N1169 1.279 . S
C1172 C1171 1.358 . S
C1172 H1175 0.930 . S
C1173 C1170 1.348 . S
C1173 C1171 1.356 . S
H1174 C1168 0.930 . S
H1175 C1172 0.930 . S
C1176 C1178 1.348 . S
C1176 C1179 1.356 . S
C1176 O1206 1.325 . S
N1177 C1180 1.314 . S
N1177 C1181 1.279 . S
C1178 C1176 1.348 . S
C1178 C1180 1.353 . S
C1178 H1220 0.929 . S
C1179 C1176 1.356 . S
C1179 C1181 1.358 . S
C1179 H1221 0.930 . S
C1180 N1177 1.314 . S
C1180 C1178 1.353 . S
C1180 H1222 0.930 . S
C1181 N1177 1.279 . S
C1181 C1179 1.358 . S
C1181 H1223 0.930 . S
C1182 C1183 1.348 1_554 S
C1182 C1184 1.356 . S
C1182 O1207 1.325 . S
C1183 C1182 1.348 1_556 S
C1183 C1185 1.353 . S
C1183 H1224 0.929 . S
C1184 C1182 1.356 . S
C1184 C1186 1.358 1_554 S
C1184 H1225 0.930 . S
C1185 C1183 1.353 . S
C1185 N1187 1.314 . S
C1185 H1226 0.930 . S
C1186 C1184 1.358 1_556 S
C1186 N1187 1.279 . S
C1186 H1227 0.930 . S
N1187 C1185 1.314 . S
N1187 C1186 1.279 . S
C1188 C1190 1.353 1_554 S
C1188 N1191 1.314 . S
C1188 H1194 0.930 . S
C1189 N1191 1.279 . S
C1189 C1192 1.358 1_554 S
C1189 H1195 0.930 . S
C1190 C1188 1.353 1_556 S
C1190 C1193 1.348 . S
C1190 H1228 0.929 . S
N1191 Li1146 1.990 . S
N1191 C1188 1.314 . S
N1191 C1189 1.279 . S
C1192 C1189 1.358 1_556 S
C1192 C1193 1.356 . S
C1192 H1229 0.930 . S
C1193 C1190 1.348 . S
C1193 C1192 1.356 . S
H1194 C1188 0.930 . S
H1195 C1189 0.930 . S
C1196 N1197 1.314 . S
C1196 C1198 1.353 . S
C1196 H1202 0.930 . S
N1197 Li1147 1.990 . S
N1197 C1196 1.314 . S
N1197 C1200 1.279 . S
C1198 C1196 1.353 . S
C1198 C1201 1.348 . S
C1198 H1230 0.929 . S
C1199 C1200 1.358 . S
C1199 C1201 1.356 . S
C1199 H1231 0.930 . S
C1200 N1197 1.279 . S
C1200 C1199 1.358 . S
C1200 H1203 0.930 . S
C1201 C1198 1.348 . S
C1201 C1199 1.356 . S
H1202 C1196 0.930 . S
H1203 C1200 0.930 . S
O1204 Li1144 1.956 . S
O1204 Li1145 1.970 . S
O1204 Li1146 1.961 . S
O1204 C1148 1.325 . S
O1205 Li1144 1.970 . S
O1205 Li1145 1.956 . S
O1205 Li1147 1.961 . S
O1205 C1154 1.325 . S
O1206 Li1144 1.961 . S
O1206 Li1146 1.956 . S
O1206 Li1147 1.970 . S
O1206 C1176 1.325 . S
O1207 Li1145 1.961 . S
O1207 Li1146 1.970 . S
O1207 Li1147 1.956 . S
O1207 C1182 1.325 . S
H1208 C1150 0.929 . S
H1209 C1151 0.930 . S
H1210 C1152 0.930 . S
H1211 C1153 0.930 . S
H1212 C1155 0.930 . S
H1213 C1157 0.929 . S
H1214 C1158 0.930 . S
H1215 C1159 0.930 . S
H1216 C1162 0.930 . S
H1217 C1165 0.929 . S
H1218 C1170 0.929 . S
H1219 C1171 0.930 . S
H1220 C1178 0.929 . S
H1221 C1179 0.930 . S
H1222 C1180 0.930 . S
H1223 C1181 0.930 . S
H1224 C1183 0.929 . S
H1225 C1184 0.930 . S
H1226 C1185 0.930 . S
H1227 C1186 0.930 . S
H1228 C1190 0.929 . S
H1229 C1192 0.930 . S
H1230 C1198 0.929 . S
H1231 C1199 0.930 . S
Li1232 N1249 1.990 . S
Li1232 O1292 1.956 . S
Li1232 O1293 1.970 . S
Li1232 O1294 1.961 . S
Li1233 N1257 1.990 . S
Li1233 O1292 1.970 . S
Li1233 O1293 1.956 . S
Li1233 O1295 1.961 . S
Li1234 N1279 1.990 . S
Li1234 O1292 1.961 . S
Li1234 O1294 1.956 . S
Li1234 O1295 1.970 . S
Li1235 N1285 1.990 . S
Li1235 O1293 1.961 . S
Li1235 O1294 1.970 . S
Li1235 O1295 1.956 . S
C1236 C1238 1.348 . S
C1236 C1239 1.356 . S
C1236 O1292 1.325 . S
N1237 C1240 1.314 . S
N1237 C1241 1.279 . S
C1238 C1236 1.348 . S
C1238 C1240 1.353 . S
C1238 H1296 0.929 . S
C1239 C1236 1.356 . S
C1239 C1241 1.358 . S
C1239 H1297 0.930 . S
C1240 N1237 1.314 . S
C1240 C1238 1.353 . S
C1240 H1298 0.930 . S
C1241 N1237 1.279 . S
C1241 C1239 1.358 . S
C1241 H1299 0.930 . S
C1242 C1245 1.348 . S
C1242 C1246 1.356 . S
C1242 O1293 1.325 . S
C1243 N1244 1.279 . S
C1243 C1246 1.358 . S
C1243 H1300 0.930 . S
N1244 C1243 1.279 . S
N1244 C1247 1.314 . S
C1245 C1242 1.348 . S
C1245 C1247 1.353 . S
C1245 H1301 0.929 . S
C1246 C1242 1.356 . S
C1246 C1243 1.358 . S
C1246 H1302 0.930 . S
C1247 N1244 1.314 . S
C1247 C1245 1.353 . S
C1247 H1303 0.930 . S
C1248 N1249 1.314 . S
C1248 C1253 1.353 . S
C1248 H1254 0.930 . S
N1249 Li1232 1.990 . S
N1249 C1248 1.314 . S
N1249 C1251 1.279 . S
C1250 C1251 1.358 . S
C1250 C1252 1.356 . S
C1250 H1304 0.930 . S
C1251 N1249 1.279 . S
C1251 C1250 1.358 . S
C1251 H1255 0.930 . S
C1252 C1250 1.356 . S
C1252 C1253 1.348 . S
C1253 C1248 1.353 . S
C1253 C1252 1.348 . S
C1253 H1305 0.929 . S
H1254 C1248 0.930 . S
H1255 C1251 0.930 . S
C1256 N1257 1.314 . S
C1256 C1258 1.353 . S
C1256 H1262 0.930 . S
N1257 Li1233 1.990 . S
N1257 C1256 1.314 . S
N1257 C1260 1.279 . S
C1258 C1256 1.353 . S
C1258 C1261 1.348 . S
C1258 H1306 0.929 . S
C1259 C1260 1.358 . S
C1259 C1261 1.356 . S
C1259 H1307 0.930 . S
C1260 N1257 1.279 . S
C1260 C1259 1.358 . S
C1260 H1263 0.930 . S
C1261 C1258 1.348 . S
C1261 C1259 1.356 . S
H1262 C1256 0.930 . S
H1263 C1260 0.930 . S
C1264 C1266 1.348 . S
C1264 C1267 1.356 . S
C1264 O1294 1.325 . S
N1265 C1268 1.314 . S
N1265 C1269 1.279 . S
C1266 C1264 1.348 . S
C1266 C1268 1.353 . S
C1266 H1308 0.929 . S
C1267 C1264 1.356 . S
C1267 C1269 1.358 . S
C1267 H1309 0.930 . S
C1268 N1265 1.314 . S
C1268 C1266 1.353 . S
C1268 H1310 0.930 . S
C1269 N1265 1.279 . S
C1269 C1267 1.358 . S
C1269 H1311 0.930 . S
C1270 C1271 1.348 . S
C1270 C1272 1.356 . S
C1270 O1295 1.325 . S
C1271 C1270 1.348 . S
C1271 C1273 1.353 . S
C1271 H1312 0.929 . S
C1272 C1270 1.356 . S
C1272 C1274 1.358 . S
C1272 H1313 0.930 . S
C1273 C1271 1.353 . S
C1273 N1275 1.314 . S
C1273 H1314 0.930 . S
C1274 C1272 1.358 . S
C1274 N1275 1.279 . S
C1274 H1315 0.930 . S
N1275 C1273 1.314 . S
N1275 C1274 1.279 . S
C1276 C1278 1.353 . S
C1276 N1279 1.314 . S
C1276 H1282 0.930 . S
C1277 N1279 1.279 . S
C1277 C1280 1.358 . S
C1277 H1283 0.930 . S
C1278 C1276 1.353 . S
C1278 C1281 1.348 . S
C1278 H1316 0.929 . S
N1279 Li1234 1.990 . S
N1279 C1276 1.314 . S
N1279 C1277 1.279 . S
C1280 C1277 1.358 . S
C1280 C1281 1.356 . S
C1280 H1317 0.930 . S
C1281 C1278 1.348 . S
C1281 C1280 1.356 . S
H1282 C1276 0.930 . S
H1283 C1277 0.930 . S
C1284 N1285 1.314 . S
C1284 C1286 1.353 . S
C1284 H1290 0.930 . S
N1285 Li1235 1.990 . S
N1285 C1284 1.314 . S
N1285 C1288 1.279 . S
C1286 C1284 1.353 . S
C1286 C1289 1.348 . S
C1286 H1318 0.929 . S
C1287 C1288 1.358 . S
C1287 C1289 1.356 . S
C1287 H1319 0.930 . S
C1288 N1285 1.279 . S
C1288 C1287 1.358 . S
C1288 H1291 0.930 . S
C1289 C1286 1.348 . S
C1289 C1287 1.356 . S
H1290 C1284 0.930 . S
H1291 C1288 0.930 . S
O1292 Li1232 1.956 . S
O1292 Li1233 1.970 . S
O1292 Li1234 1.961 . S
O1292 C1236 1.325 . S
O1293 Li1232 1.970 . S
O1293 Li1233 1.956 . S
O1293 Li1235 1.961 . S
O1293 C1242 1.325 . S
O1294 Li1232 1.961 . S
O1294 Li1234 1.956 . S
O1294 Li1235 1.970 . S
O1294 C1264 1.325 . S
O1295 Li1233 1.961 . S
O1295 Li1234 1.970 . S
O1295 Li1235 1.956 . S
O1295 C1270 1.325 . S
H1296 C1238 0.929 . S
H1297 C1239 0.930 . S
H1298 C1240 0.930 . S
H1299 C1241 0.930 . S
H1300 C1243 0.930 . S
H1301 C1245 0.929 . S
H1302 C1246 0.930 . S
H1303 C1247 0.930 . S
H1304 C1250 0.930 . S
H1305 C1253 0.929 . S
H1306 C1258 0.929 . S
H1307 C1259 0.930 . S
H1308 C1266 0.929 . S
H1309 C1267 0.930 . S
H1310 C1268 0.930 . S
H1311 C1269 0.930 . S
H1312 C1271 0.929 . S
H1313 C1272 0.930 . S
H1314 C1273 0.930 . S
H1315 C1274 0.930 . S
H1316 C1278 0.929 . S
H1317 C1280 0.930 . S
H1318 C1286 0.929 . S
H1319 C1287 0.930 . S
Li1320 N1337 1.990 . S
Li1320 O1380 1.956 . S
Li1320 O1381 1.970 . S
Li1320 O1382 1.961 . S
Li1321 N1345 1.990 . S
Li1321 O1380 1.970 . S
Li1321 O1381 1.956 . S
Li1321 O1383 1.961 . S
Li1322 N1367 1.990 . S
Li1322 O1380 1.961 . S
Li1322 O1382 1.956 . S
Li1322 O1383 1.970 . S
Li1323 N1373 1.990 . S
Li1323 O1381 1.961 . S
Li1323 O1382 1.970 . S
Li1323 O1383 1.956 . S
C1324 C1326 1.348 . S
C1324 C1327 1.356 . S
C1324 O1380 1.325 . S
N1325 C1328 1.314 . S
N1325 C1329 1.279 . S
C1326 C1324 1.348 . S
C1326 C1328 1.353 . S
C1326 H1384 0.929 . S
C1327 C1324 1.356 . S
C1327 C1329 1.358 . S
C1327 H1385 0.930 . S
C1328 N1325 1.314 . S
C1328 C1326 1.353 . S
C1328 H1386 0.930 . S
C1329 N1325 1.279 . S
C1329 C1327 1.358 . S
C1329 H1387 0.930 . S
C1330 C1333 1.348 . S
C1330 C1334 1.356 . S
C1330 O1381 1.325 . S
C1331 N1332 1.279 . S
C1331 C1334 1.358 . S
C1331 H1388 0.930 . S
N1332 C1331 1.279 . S
N1332 C1335 1.314 . S
C1333 C1330 1.348 . S
C1333 C1335 1.353 . S
C1333 H1389 0.929 . S
C1334 C1330 1.356 . S
C1334 C1331 1.358 . S
C1334 H1390 0.930 . S
C1335 N1332 1.314 . S
C1335 C1333 1.353 . S
C1335 H1391 0.930 . S
C1336 N1337 1.314 . S
C1336 C1341 1.353 . S
C1336 H1342 0.930 . S
N1337 Li1320 1.990 . S
N1337 C1336 1.314 . S
N1337 C1339 1.279 . S
C1338 C1339 1.358 . S
C1338 C1340 1.356 . S
C1338 H1392 0.930 . S
C1339 N1337 1.279 . S
C1339 C1338 1.358 . S
C1339 H1343 0.930 . S
C1340 C1338 1.356 . S
C1340 C1341 1.348 . S
C1341 C1336 1.353 . S
C1341 C1340 1.348 . S
C1341 H1393 0.929 . S
H1342 C1336 0.930 . S
H1343 C1339 0.930 . S
C1344 N1345 1.314 . S
C1344 C1346 1.353 . S
C1344 H1350 0.930 . S
N1345 Li1321 1.990 . S
N1345 C1344 1.314 . S
N1345 C1348 1.279 . S
C1346 C1344 1.353 . S
C1346 C1349 1.348 . S
C1346 H1394 0.929 . S
C1347 C1348 1.358 . S
C1347 C1349 1.356 . S
C1347 H1395 0.930 . S
C1348 N1345 1.279 . S
C1348 C1347 1.358 . S
C1348 H1351 0.930 . S
C1349 C1346 1.348 . S
C1349 C1347 1.356 . S
H1350 C1344 0.930 . S
H1351 C1348 0.930 . S
C1352 C1354 1.348 . S
C1352 C1355 1.356 . S
C1352 O1382 1.325 . S
N1353 C1356 1.314 . S
N1353 C1357 1.279 . S
C1354 C1352 1.348 . S
C1354 C1356 1.353 . S
C1354 H1396 0.929 . S
C1355 C1352 1.356 . S
C1355 C1357 1.358 . S
C1355 H1397 0.930 . S
C1356 N1353 1.314 . S
C1356 C1354 1.353 . S
C1356 H1398 0.930 . S
C1357 N1353 1.279 . S
C1357 C1355 1.358 . S
C1357 H1399 0.930 . S
C1358 C1359 1.348 . S
C1358 C1360 1.356 . S
C1358 O1383 1.325 . S
C1359 C1358 1.348 . S
C1359 C1361 1.353 . S
C1359 H1400 0.929 . S
C1360 C1358 1.356 . S
C1360 C1362 1.358 . S
C1360 H1401 0.930 . S
C1361 C1359 1.353 . S
C1361 N1363 1.314 . S
C1361 H1402 0.930 . S
C1362 C1360 1.358 . S
C1362 N1363 1.279 . S
C1362 H1403 0.930 . S
N1363 C1361 1.314 . S
N1363 C1362 1.279 . S
C1364 C1366 1.353 . S
C1364 N1367 1.314 . S
C1364 H1370 0.930 . S
C1365 N1367 1.279 . S
C1365 C1368 1.358 . S
C1365 H1371 0.930 . S
C1366 C1364 1.353 . S
C1366 C1369 1.348 . S
C1366 H1404 0.929 . S
N1367 Li1322 1.990 . S
N1367 C1364 1.314 . S
N1367 C1365 1.279 . S
C1368 C1365 1.358 . S
C1368 C1369 1.356 . S
C1368 H1405 0.930 . S
C1369 C1366 1.348 . S
C1369 C1368 1.356 . S
H1370 C1364 0.930 . S
H1371 C1365 0.930 . S
C1372 N1373 1.314 . S
C1372 C1374 1.353 . S
C1372 H1378 0.930 . S
N1373 Li1323 1.990 . S
N1373 C1372 1.314 . S
N1373 C1376 1.279 . S
C1374 C1372 1.353 . S
C1374 C1377 1.348 . S
C1374 H1406 0.929 . S
C1375 C1376 1.358 . S
C1375 C1377 1.356 . S
C1375 H1407 0.930 . S
C1376 N1373 1.279 . S
C1376 C1375 1.358 . S
C1376 H1379 0.930 . S
C1377 C1374 1.348 . S
C1377 C1375 1.356 . S
H1378 C1372 0.930 . S
H1379 C1376 0.930 . S
O1380 Li1320 1.956 . S
O1380 Li1321 1.970 . S
O1380 Li1322 1.961 . S
O1380 C1324 1.325 . S
O1381 Li1320 1.970 . S
O1381 Li1321 1.956 . S
O1381 Li1323 1.961 . S
O1381 C1330 1.325 . S
O1382 Li1320 1.961 . S
O1382 Li1322 1.956 . S
O1382 Li1323 1.970 . S
O1382 C1352 1.325 . S
O1383 Li1321 1.961 . S
O1383 Li1322 1.970 . S
O1383 Li1323 1.956 . S
O1383 C1358 1.325 . S
H1384 C1326 0.929 . S
H1385 C1327 0.930 . S
H1386 C1328 0.930 . S
H1387 C1329 0.930 . S
H1388 C1331 0.930 . S
H1389 C1333 0.929 . S
H1390 C1334 0.930 . S
H1391 C1335 0.930 . S
H1392 C1338 0.930 . S
H1393 C1341 0.929 . S
H1394 C1346 0.929 . S
H1395 C1347 0.930 . S
H1396 C1354 0.929 . S
H1397 C1355 0.930 . S
H1398 C1356 0.930 . S
H1399 C1357 0.930 . S
H1400 C1359 0.929 . S
H1401 C1360 0.930 . S
H1402 C1361 0.930 . S
H1403 C1362 0.930 . S
H1404 C1366 0.929 . S
H1405 C1368 0.930 . S
H1406 C1374 0.929 . S
H1407 C1375 0.930 . S
Li1408 N1425 1.990 . S
Li1408 O1468 1.956 1_545 S
Li1408 O1469 1.970 . S
Li1408 O1470 1.961 . S
Li1409 N1433 1.990 . S
Li1409 O1468 1.970 . S
Li1409 O1469 1.956 1_565 S
Li1409 O1471 1.961 1_565 S
Li1410 N1455 1.990 . S
Li1410 O1468 1.961 1_545 S
Li1410 O1470 1.956 . S
Li1410 O1471 1.970 . S
Li1411 N1461 1.990 . S
Li1411 O1469 1.961 . S
Li1411 O1470 1.970 . S
Li1411 O1471 1.956 . S
C1412 C1414 1.348 . S
C1412 C1415 1.356 . S
C1412 O1468 1.325 . S
N1413 C1416 1.314 . S
N1413 C1417 1.279 . S
C1414 C1412 1.348 . S
C1414 C1416 1.353 . S
C1414 H1472 0.929 . S
C1415 C1412 1.356 . S
C1415 C1417 1.358 . S
C1415 H1473 0.930 . S
C1416 N1413 1.314 . S
C1416 C1414 1.353 . S
C1416 H1474 0.930 . S
C1417 N1413 1.279 . S
C1417 C1415 1.358 . S
C1417 H1475 0.930 . S
C1418 C1421 1.348 . S
C1418 C1422 1.356 . S
C1418 O1469 1.325 . S
C1419 N1420 1.279 . S
C1419 C1422 1.358 . S
C1419 H1476 0.930 . S
N1420 C1419 1.279 . S
N1420 C1423 1.329 . S
C1421 C1418 1.348 . S
C1421 C1423 1.354 . S
C1421 H1477 0.910 1_545 S
C1422 C1418 1.356 . S
C1422 C1419 1.358 . S
C1422 H1478 0.930 . S
C1423 N1420 1.329 . S
C1423 C1421 1.354 . S
C1423 H1479 0.899 1_545 S
C1424 N1425 1.314 . S
C1424 C1429 1.353 . S
C1424 H1430 0.930 . S
N1425 Li1408 1.990 . S
N1425 C1424 1.314 . S
N1425 C1427 1.279 1_545 S
C1426 C1427 1.364 1_545 S
C1426 C1428 1.389 . S
C1426 H1480 0.891 1_545 S
C1427 N1425 1.279 1_565 S
C1427 C1426 1.364 1_565 S
C1427 H1431 0.930 . S
C1428 C1426 1.389 . S
C1428 C1429 1.348 . S
C1429 C1424 1.353 . S
C1429 C1428 1.348 . S
C1429 H1481 0.929 . S
H1430 C1424 0.930 . S
H1431 C1427 0.930 . S
C1432 N1433 1.314 . S
C1432 C1434 1.353 . S
C1432 H1438 0.930 . S
N1433 Li1409 1.990 . S
N1433 C1432 1.314 . S
N1433 C1436 1.279 . S
C1434 C1432 1.353 . S
C1434 C1437 1.348 . S
C1434 H1482 0.929 . S
C1435 C1436 1.358 . S
C1435 C1437 1.356 . S
C1435 H1483 0.930 . S
C1436 N1433 1.279 . S
C1436 C1435 1.358 . S
C1436 H1439 0.930 . S
C1437 C1434 1.348 . S
C1437 C1435 1.356 . S
H1438 C1432 0.930 . S
H1439 C1436 0.930 . S
C1440 C1442 1.348 . S
C1440 C1443 1.356 . S
C1440 O1470 1.325 . S
N1441 C1444 1.314 . S
N1441 C1445 1.279 . S
C1442 C1440 1.348 . S
C1442 C1444 1.353 . S
C1442 H1484 0.929 . S
C1443 C1440 1.356 . S
C1443 C1445 1.358 . S
C1443 H1485 0.930 . S
C1444 N1441 1.314 . S
C1444 C1442 1.353 . S
C1444 H1486 0.930 . S
C1445 N1441 1.279 . S
C1445 C1443 1.358 . S
C1445 H1487 0.914 1_655 S
C1446 C1447 1.348 1_565 S
C1446 C1448 1.356 . S
C1446 O1471 1.325 1_565 S
C1447 C1446 1.348 1_545 S
C1447 C1449 1.353 . S
C1447 H1488 0.929 . S
C1448 C1446 1.356 . S
C1448 C1450 1.358 . S
C1448 H1489 0.930 . S
C1449 C1447 1.353 . S
C1449 N1451 1.314 1_545 S
C1449 H1490 0.930 . S
C1450 C1448 1.358 . S
C1450 N1451 1.279 . S
C1450 H1491 0.930 . S
N1451 C1449 1.314 1_565 S
N1451 C1450 1.279 . S
C1452 C1454 1.353 . S
C1452 N1455 1.314 1_565 S
C1452 H1458 0.930 . S
C1453 N1455 1.279 . S
C1453 C1456 1.358 . S
C1453 H1459 0.930 . S
C1454 C1452 1.353 . S
C1454 C1457 1.348 1_565 S
C1454 H1492 0.929 . S
N1455 Li1410 1.990 . S
N1455 C1452 1.314 1_545 S
N1455 C1453 1.279 . S
C1456 C1453 1.358 . S
C1456 C1457 1.356 . S
C1456 H1493 0.930 . S
C1457 C1454 1.348 1_545 S
C1457 C1456 1.356 . S
H1458 C1452 0.930 . S
H1459 C1453 0.930 . S
C1460 N1461 1.314 . S
C1460 C1462 1.353 . S
C1460 H1466 0.930 . S
N1461 Li1411 1.990 . S
N1461 C1460 1.314 . S
N1461 C1464 1.279 . S
C1462 C1460 1.353 . S
C1462 C1465 1.348 . S
C1462 H1494 0.929 . S
C1463 C1464 1.358 . S
C1463 C1465 1.356 . S
C1463 H1495 0.930 . S
C1464 N1461 1.279 . S
C1464 C1463 1.358 . S
C1464 H1467 0.930 . S
C1465 C1462 1.348 . S
C1465 C1463 1.356 . S
H1466 C1460 0.930 . S
H1467 C1464 0.930 . S
O1468 Li1408 1.956 1_565 S
O1468 Li1409 1.970 . S
O1468 Li1410 1.961 1_565 S
O1468 C1412 1.325 . S
O1469 Li1408 1.970 . S
O1469 Li1409 1.956 1_545 S
O1469 Li1411 1.961 . S
O1469 C1418 1.325 . S
O1470 Li1408 1.961 . S
O1470 Li1410 1.956 . S
O1470 Li1411 1.970 . S
O1470 C1440 1.325 . S
O1471 Li1409 1.961 1_545 S
O1471 Li1410 1.970 . S
O1471 Li1411 1.956 . S
O1471 C1446 1.325 1_545 S
H1472 C1414 0.929 . S
H1473 C1415 0.930 . S
H1474 C1416 0.930 . S
H1475 C1417 0.930 . S
H1476 C1419 0.930 . S
H1477 C1421 0.910 1_565 S
H1478 C1422 0.930 . S
H1479 C1423 0.899 1_565 S
H1480 C1426 0.891 1_565 S
H1481 C1429 0.929 . S
H1482 C1434 0.929 . S
H1483 C1435 0.930 . S
H1484 C1442 0.929 . S
H1485 C1443 0.930 . S
H1486 C1444 0.930 . S
H1487 C1445 0.914 1_455 S
H1488 C1447 0.929 . S
H1489 C1448 0.930 . S
H1490 C1449 0.930 . S
H1491 C1450 0.930 . S
H1492 C1454 0.929 . S
H1493 C1456 0.930 . S
H1494 C1462 0.929 . S
H1495 C1463 0.930 . S
Li1496 N1513 1.990 . S
Li1496 O1556 1.956 . S
Li1496 O1557 1.970 . S
Li1496 O1558 1.961 . S
Li1497 N1521 1.990 . S
Li1497 O1556 1.970 . S
Li1497 O1557 1.956 . S
Li1497 O1559 1.961 . S
Li1498 N1543 1.990 . S
Li1498 O1556 1.961 . S
Li1498 O1558 1.956 . S
Li1498 O1559 1.970 . S
Li1499 N1549 1.990 . S
Li1499 O1557 1.961 . S
Li1499 O1558 1.970 . S
Li1499 O1559 1.956 . S
C1500 C1502 1.348 . S
C1500 C1503 1.356 . S
C1500 O1556 1.325 . S
N1501 C1504 1.314 . S
N1501 C1505 1.279 . S
C1502 C1500 1.348 . S
C1502 C1504 1.353 . S
C1502 H1560 0.929 . S
C1503 C1500 1.356 . S
C1503 C1505 1.358 . S
C1503 H1561 0.930 . S
C1504 N1501 1.314 . S
C1504 C1502 1.353 . S
C1504 H1562 0.930 . S
C1505 N1501 1.279 . S
C1505 C1503 1.358 . S
C1505 H1563 0.930 . S
C1506 C1509 1.348 . S
C1506 C1510 1.356 . S
C1506 O1557 1.325 . S
C1507 N1508 1.279 . S
C1507 C1510 1.358 . S
C1507 H1564 0.930 . S
N1508 C1507 1.279 . S
N1508 C1511 1.314 . S
C1509 C1506 1.348 . S
C1509 C1511 1.353 . S
C1509 H1565 0.929 . S
C1510 C1506 1.356 . S
C1510 C1507 1.358 . S
C1510 H1566 0.930 . S
C1511 N1508 1.314 . S
C1511 C1509 1.353 . S
C1511 H1567 0.930 . S
C1512 N1513 1.314 . S
C1512 C1517 1.353 . S
C1512 H1518 0.930 . S
N1513 Li1496 1.990 . S
N1513 C1512 1.314 . S
N1513 C1515 1.279 . S
C1514 C1515 1.358 . S
C1514 C1516 1.356 . S
C1514 H1568 0.930 . S
C1515 N1513 1.279 . S
C1515 C1514 1.358 . S
C1515 H1519 0.930 . S
C1516 C1514 1.356 . S
C1516 C1517 1.348 . S
C1517 C1512 1.353 . S
C1517 C1516 1.348 . S
C1517 H1569 0.929 . S
H1518 C1512 0.930 . S
H1519 C1515 0.930 . S
C1520 N1521 1.314 . S
C1520 C1522 1.353 . S
C1520 H1526 0.930 . S
N1521 Li1497 1.990 . S
N1521 C1520 1.314 . S
N1521 C1524 1.279 . S
C1522 C1520 1.353 . S
C1522 C1525 1.348 . S
C1522 H1570 0.929 . S
C1523 C1524 1.358 . S
C1523 C1525 1.356 . S
C1523 H1571 0.930 . S
C1524 N1521 1.279 . S
C1524 C1523 1.358 . S
C1524 H1527 0.930 . S
C1525 C1522 1.348 . S
C1525 C1523 1.356 . S
H1526 C1520 0.930 . S
H1527 C1524 0.930 . S
C1528 C1530 1.348 . S
C1528 C1531 1.356 . S
C1528 O1558 1.325 . S
N1529 C1532 1.314 . S
N1529 C1533 1.279 . S
C1530 C1528 1.348 . S
C1530 C1532 1.353 . S
C1530 H1572 0.929 . S
C1531 C1528 1.356 . S
C1531 C1533 1.358 . S
C1531 H1573 0.930 . S
C1532 N1529 1.314 . S
C1532 C1530 1.353 . S
C1532 H1574 0.930 . S
C1533 N1529 1.279 . S
C1533 C1531 1.358 . S
C1533 H1575 0.930 . S
C1534 C1535 1.348 . S
C1534 C1536 1.356 . S
C1534 O1559 1.325 . S
C1535 C1534 1.348 . S
C1535 C1537 1.353 . S
C1535 H1576 0.929 . S
C1536 C1534 1.356 . S
C1536 C1538 1.358 . S
C1536 H1577 0.930 . S
C1537 C1535 1.353 . S
C1537 N1539 1.314 . S
C1537 H1578 0.930 . S
C1538 C1536 1.358 . S
C1538 N1539 1.279 . S
C1538 H1579 0.930 . S
N1539 C1537 1.314 . S
N1539 C1538 1.279 . S
C1540 C1542 1.353 . S
C1540 N1543 1.314 . S
C1540 H1546 0.930 . S
C1541 N1543 1.279 . S
C1541 C1544 1.358 . S
C1541 H1547 0.930 . S
C1542 C1540 1.353 . S
C1542 C1545 1.348 . S
C1542 H1580 0.929 . S
N1543 Li1498 1.990 . S
N1543 C1540 1.314 . S
N1543 C1541 1.279 . S
C1544 C1541 1.358 . S
C1544 C1545 1.356 . S
C1544 H1581 0.930 . S
C1545 C1542 1.348 . S
C1545 C1544 1.356 . S
H1546 C1540 0.930 . S
H1547 C1541 0.930 . S
C1548 N1549 1.314 . S
C1548 C1550 1.353 . S
C1548 H1554 0.930 . S
N1549 Li1499 1.990 . S
N1549 C1548 1.314 . S
N1549 C1552 1.279 . S
C1550 C1548 1.353 . S
C1550 C1553 1.348 . S
C1550 H1582 0.929 . S
C1551 C1552 1.358 . S
C1551 C1553 1.356 . S
C1551 H1583 0.930 . S
C1552 N1549 1.279 . S
C1552 C1551 1.358 . S
C1552 H1555 0.930 . S
C1553 C1550 1.348 . S
C1553 C1551 1.356 . S
H1554 C1548 0.930 . S
H1555 C1552 0.930 . S
O1556 Li1496 1.956 . S
O1556 Li1497 1.970 . S
O1556 Li1498 1.961 . S
O1556 C1500 1.325 . S
O1557 Li1496 1.970 . S
O1557 Li1497 1.956 . S
O1557 Li1499 1.961 . S
O1557 C1506 1.325 . S
O1558 Li1496 1.961 . S
O1558 Li1498 1.956 . S
O1558 Li1499 1.970 . S
O1558 C1528 1.325 . S
O1559 Li1497 1.961 . S
O1559 Li1498 1.970 . S
O1559 Li1499 1.956 . S
O1559 C1534 1.325 . S
H1560 C1502 0.929 . S
H1561 C1503 0.930 . S
H1562 C1504 0.930 . S
H1563 C1505 0.930 . S
H1564 C1507 0.930 . S
H1565 C1509 0.929 . S
H1566 C1510 0.930 . S
H1567 C1511 0.930 . S
H1568 C1514 0.930 . S
H1569 C1517 0.929 . S
H1570 C1522 0.929 . S
H1571 C1523 0.930 . S
H1572 C1530 0.929 . S
H1573 C1531 0.930 . S
H1574 C1532 0.930 . S
H1575 C1533 0.930 . S
H1576 C1535 0.929 . S
H1577 C1536 0.930 . S
H1578 C1537 0.930 . S
H1579 C1538 0.930 . S
H1580 C1542 0.929 . S
H1581 C1544 0.930 . S
H1582 C1550 0.929 . S
H1583 C1551 0.930 . S
Li1584 N1601 1.990 . S
Li1584 O1644 1.956 . S
Li1584 O1645 1.970 . S
Li1584 O1646 1.961 . S
Li1585 N1609 1.990 . S
Li1585 O1644 1.970 . S
Li1585 O1645 1.956 . S
Li1585 O1647 1.961 . S
Li1586 N1631 1.990 . S
Li1586 O1644 1.961 . S
Li1586 O1646 1.956 . S
Li1586 O1647 1.970 . S
Li1587 N1637 1.990 . S
Li1587 O1645 1.961 . S
Li1587 O1646 1.970 . S
Li1587 O1647 1.956 . S
C1588 C1590 1.348 . S
C1588 C1591 1.356 . S
C1588 O1644 1.325 . S
N1589 C1592 1.314 . S
N1589 C1593 1.279 . S
C1590 C1588 1.348 . S
C1590 C1592 1.353 . S
C1590 H1648 0.929 . S
C1591 C1588 1.356 . S
C1591 C1593 1.358 . S
C1591 H1649 0.930 . S
C1592 N1589 1.314 . S
C1592 C1590 1.353 . S
C1592 H1650 0.930 . S
C1593 N1589 1.279 . S
C1593 C1591 1.358 . S
C1593 H1651 0.930 . S
C1594 C1597 1.348 . S
C1594 C1598 1.356 . S
C1594 O1645 1.325 . S
C1595 N1596 1.279 . S
C1595 C1598 1.358 . S
C1595 H1652 0.930 . S
N1596 C1595 1.279 . S
N1596 C1599 1.314 . S
C1597 C1594 1.348 . S
C1597 C1599 1.353 . S
C1597 H1653 0.929 . S
C1598 C1594 1.356 . S
C1598 C1595 1.358 . S
C1598 H1654 0.930 . S
C1599 N1596 1.314 . S
C1599 C1597 1.353 . S
C1599 H1655 0.930 . S
C1600 N1601 1.314 . S
C1600 C1605 1.353 . S
C1600 H1606 0.930 . S
N1601 Li1584 1.990 . S
N1601 C1600 1.314 . S
N1601 C1603 1.279 . S
C1602 C1603 1.358 . S
C1602 C1604 1.356 . S
C1602 H1656 0.930 . S
C1603 N1601 1.279 . S
C1603 C1602 1.358 . S
C1603 H1607 0.930 . S
C1604 C1602 1.356 . S
C1604 C1605 1.348 . S
C1605 C1600 1.353 . S
C1605 C1604 1.348 . S
C1605 H1657 0.929 . S
H1606 C1600 0.930 . S
H1607 C1603 0.930 . S
C1608 N1609 1.314 . S
C1608 C1610 1.353 . S
C1608 H1614 0.930 . S
N1609 Li1585 1.990 . S
N1609 C1608 1.314 . S
N1609 C1612 1.279 . S
C1610 C1608 1.353 . S
C1610 C1613 1.348 . S
C1610 H1658 0.929 . S
C1611 C1612 1.358 . S
C1611 C1613 1.356 . S
C1611 H1659 0.930 . S
C1612 N1609 1.279 . S
C1612 C1611 1.358 . S
C1612 H1615 0.930 . S
C1613 C1610 1.348 . S
C1613 C1611 1.356 . S
H1614 C1608 0.930 . S
H1615 C1612 0.930 . S
C1616 C1618 1.348 . S
C1616 C1619 1.356 . S
C1616 O1646 1.325 . S
N1617 C1620 1.314 . S
N1617 C1621 1.279 . S
C1618 C1616 1.348 . S
C1618 C1620 1.353 . S
C1618 H1660 0.929 . S
C1619 C1616 1.356 . S
C1619 C1621 1.358 . S
C1619 H1661 0.930 . S
C1620 N1617 1.314 . S
C1620 C1618 1.353 . S
C1620 H1662 0.930 . S
C1621 N1617 1.279 . S
C1621 C1619 1.358 . S
C1621 H1663 0.930 . S
C1622 C1623 1.348 . S
C1622 C1624 1.356 . S
C1622 O1647 1.325 . S
C1623 C1622 1.348 . S
C1623 C1625 1.353 . S
C1623 H1664 0.929 . S
C1624 C1622 1.356 . S
C1624 C1626 1.358 . S
C1624 H1665 0.930 . S
C1625 C1623 1.353 . S
C1625 N1627 1.314 . S
C1625 H1666 0.930 . S
C1626 C1624 1.358 . S
C1626 N1627 1.279 . S
C1626 H1667 0.930 . S
N1627 C1625 1.314 . S
N1627 C1626 1.279 . S
C1628 C1630 1.353 . S
C1628 N1631 1.314 . S
C1628 H1634 0.930 . S
C1629 N1631 1.279 . S
C1629 C1632 1.358 . S
C1629 H1635 0.930 . S
C1630 C1628 1.353 . S
C1630 C1633 1.348 . S
C1630 H1668 0.929 . S
N1631 Li1586 1.990 . S
N1631 C1628 1.314 . S
N1631 C1629 1.279 . S
C1632 C1629 1.358 . S
C1632 C1633 1.356 . S
C1632 H1669 0.930 . S
C1633 C1630 1.348 . S
C1633 C1632 1.356 . S
H1634 C1628 0.930 . S
H1635 C1629 0.930 . S
C1636 N1637 1.314 . S
C1636 C1638 1.353 . S
C1636 H1642 0.930 . S
N1637 Li1587 1.990 . S
N1637 C1636 1.314 . S
N1637 C1640 1.279 . S
C1638 C1636 1.353 . S
C1638 C1641 1.348 . S
C1638 H1670 0.929 . S
C1639 C1640 1.358 . S
C1639 C1641 1.356 . S
C1639 H1671 0.930 . S
C1640 N1637 1.279 . S
C1640 C1639 1.358 . S
C1640 H1643 0.930 . S
C1641 C1638 1.348 . S
C1641 C1639 1.356 . S
H1642 C1636 0.930 . S
H1643 C1640 0.930 . S
O1644 Li1584 1.956 . S
O1644 Li1585 1.970 . S
O1644 Li1586 1.961 . S
O1644 C1588 1.325 . S
O1645 Li1584 1.970 . S
O1645 Li1585 1.956 . S
O1645 Li1587 1.961 . S
O1645 C1594 1.325 . S
O1646 Li1584 1.961 . S
O1646 Li1586 1.956 . S
O1646 Li1587 1.970 . S
O1646 C1616 1.325 . S
O1647 Li1585 1.961 . S
O1647 Li1586 1.970 . S
O1647 Li1587 1.956 . S
O1647 C1622 1.325 . S
H1648 C1590 0.929 . S
H1649 C1591 0.930 . S
H1650 C1592 0.930 . S
H1651 C1593 0.930 . S
H1652 C1595 0.930 . S
H1653 C1597 0.929 . S
H1654 C1598 0.930 . S
H1655 C1599 0.930 . S
H1656 C1602 0.930 . S
H1657 C1605 0.929 . S
H1658 C1610 0.929 . S
H1659 C1611 0.930 . S
H1660 C1618 0.929 . S
H1661 C1619 0.930 . S
H1662 C1620 0.930 . S
H1663 C1621 0.930 . S
H1664 C1623 0.929 . S
H1665 C1624 0.930 . S
H1666 C1625 0.930 . S
H1667 C1626 0.930 . S
H1668 C1630 0.929 . S
H1669 C1632 0.930 . S
H1670 C1638 0.929 . S
H1671 C1639 0.930 . S
Li1672 N1689 1.990 . S
Li1672 O1732 1.956 . S
Li1672 O1733 1.970 . S
Li1672 O1734 1.961 1_545 S
Li1673 N1697 1.990 . S
Li1673 O1732 1.970 . S
Li1673 O1733 1.956 . S
Li1673 O1735 1.961 . S
Li1674 N1719 1.990 . S
Li1674 O1732 1.961 . S
Li1674 O1734 1.956 1_545 S
Li1674 O1735 1.970 . S
Li1675 N1725 1.990 . S
Li1675 O1733 1.961 1_565 S
Li1675 O1734 1.970 . S
Li1675 O1735 1.956 1_565 S
C1676 C1678 1.348 . S
C1676 C1679 1.356 . S
C1676 O1732 1.325 . S
N1677 C1680 1.314 . S
N1677 C1681 1.279 . S
C1678 C1676 1.348 . S
C1678 C1680 1.353 . S
C1678 H1736 0.929 . S
C1679 C1676 1.356 . S
C1679 C1681 1.358 . S
C1679 H1737 0.930 . S
C1680 N1677 1.314 . S
C1680 C1678 1.353 . S
C1680 H1738 0.930 . S
C1681 N1677 1.279 . S
C1681 C1679 1.358 . S
C1681 H1739 0.930 . S
C1682 C1685 1.348 . S
C1682 C1686 1.356 . S
C1682 O1733 1.325 . S
C1683 N1684 1.279 . S
C1683 C1686 1.358 . S
C1683 H1740 0.930 . S
N1684 C1683 1.279 . S
N1684 C1687 1.314 . S
C1685 C1682 1.348 . S
C1685 C1687 1.353 . S
C1685 H1741 0.929 . S
C1686 C1682 1.356 . S
C1686 C1683 1.358 . S
C1686 H1742 0.930 . S
C1687 N1684 1.314 . S
C1687 C1685 1.353 . S
C1687 H1743 0.930 . S
C1688 N1689 1.314 1_565 S
C1688 C1693 1.353 . S
C1688 H1694 0.930 . S
N1689 Li1672 1.990 . S
N1689 C1688 1.314 1_545 S
N1689 C1691 1.279 . S
C1690 C1691 1.358 . S
C1690 C1692 1.356 . S
C1690 H1744 0.930 . S
C1691 N1689 1.279 . S
C1691 C1690 1.358 . S
C1691 H1695 0.930 . S
C1692 C1690 1.356 . S
C1692 C1693 1.348 1_545 S
C1693 C1688 1.353 . S
C1693 C1692 1.348 1_565 S
C1693 H1745 0.929 . S
H1694 C1688 0.930 . S
H1695 C1691 0.930 . S
C1696 N1697 1.314 . S
C1696 C1698 1.353 . S
C1696 H1702 0.930 . S
N1697 Li1673 1.990 . S
N1697 C1696 1.314 . S
N1697 C1700 1.279 . S
C1698 C1696 1.353 . S
C1698 C1701 1.348 . S
C1698 H1746 0.929 . S
C1699 C1700 1.358 . S
C1699 C1701 1.356 . S
C1699 H1747 0.930 . S
C1700 N1697 1.279 . S
C1700 C1699 1.358 . S
C1700 H1703 0.930 . S
C1701 C1698 1.348 . S
C1701 C1699 1.356 . S
H1702 C1696 0.930 . S
H1703 C1700 0.930 . S
C1704 C1706 1.348 . S
C1704 C1707 1.356 . S
C1704 O1734 1.325 . S
N1705 C1708 1.314 . S
N1705 C1709 1.279 . S
C1706 C1704 1.348 . S
C1706 C1708 1.353 . S
C1706 H1748 0.929 . S
C1707 C1704 1.356 . S
C1707 C1709 1.358 . S
C1707 H1749 0.930 . S
C1708 N1705 1.314 . S
C1708 C1706 1.353 . S
C1708 H1750 0.930 . S
C1709 N1705 1.279 . S
C1709 C1707 1.358 . S
C1709 H1751 0.930 . S
C1710 C1711 1.348 . S
C1710 C1712 1.356 . S
C1710 O1735 1.325 . S
C1711 C1710 1.348 . S
C1711 C1713 1.353 . S
C1711 H1752 0.925 1_545 S
C1712 C1710 1.356 . S
C1712 C1714 1.358 . S
C1712 H1753 0.930 . S
C1713 C1711 1.353 . S
C1713 N1715 1.314 . S
C1713 H1754 0.937 . S
C1714 C1712 1.358 . S
C1714 N1715 1.279 . S
C1714 H1755 0.930 . S
N1715 C1713 1.314 . S
N1715 C1714 1.279 . S
C1716 C1718 1.353 . S
C1716 N1719 1.314 . S
C1716 H1722 0.930 . S
C1717 N1719 1.279 1_565 S
C1717 C1720 1.358 . S
C1717 H1723 0.930 . S
C1718 C1716 1.353 . S
C1718 C1721 1.336 1_545 S
C1718 H1756 0.929 . S
N1719 Li1674 1.990 . S
N1719 C1716 1.314 . S
N1719 C1717 1.279 1_545 S
C1720 C1717 1.358 . S
C1720 C1721 1.370 . S
C1720 H1757 0.930 . S
C1721 C1718 1.336 1_565 S
C1721 C1720 1.370 . S
H1722 C1716 0.930 . S
H1723 C1717 0.930 . S
C1724 N1725 1.314 . S
C1724 C1726 1.353 . S
C1724 H1730 0.930 . S
N1725 Li1675 1.990 . S
N1725 C1724 1.314 . S
N1725 C1728 1.279 . S
C1726 C1724 1.353 . S
C1726 C1729 1.348 . S
C1726 H1758 0.929 . S
C1727 C1728 1.358 . S
C1727 C1729 1.356 . S
C1727 H1759 0.930 . S
C1728 N1725 1.279 . S
C1728 C1727 1.358 . S
C1728 H1731 0.930 . S
C1729 C1726 1.348 . S
C1729 C1727 1.356 . S
H1730 C1724 0.930 . S
H1731 C1728 0.930 . S
O1732 Li1672 1.956 . S
O1732 Li1673 1.970 . S
O1732 Li1674 1.961 . S
O1732 C1676 1.325 . S
O1733 Li1672 1.970 . S
O1733 Li1673 1.956 . S
O1733 Li1675 1.961 1_545 S
O1733 C1682 1.325 . S
O1734 Li1672 1.961 1_565 S
O1734 Li1674 1.956 1_565 S
O1734 Li1675 1.970 . S
O1734 C1704 1.325 . S
O1735 Li1673 1.961 . S
O1735 Li1674 1.970 . S
O1735 Li1675 1.956 1_545 S
O1735 C1710 1.325 . S
H1736 C1678 0.929 . S
H1737 C1679 0.930 . S
H1738 C1680 0.930 . S
H1739 C1681 0.930 . S
H1740 C1683 0.930 . S
H1741 C1685 0.929 . S
H1742 C1686 0.930 . S
H1743 C1687 0.930 . S
H1744 C1690 0.930 . S
H1745 C1693 0.929 . S
H1746 C1698 0.929 . S
H1747 C1699 0.930 . S
H1748 C1706 0.929 . S
H1749 C1707 0.930 . S
H1750 C1708 0.930 . S
H1751 C1709 0.930 . S
H1752 C1711 0.925 1_565 S
H1753 C1712 0.930 . S
H1754 C1713 0.937 . S
H1755 C1714 0.930 . S
H1756 C1718 0.929 . S
H1757 C1720 0.930 . S
H1758 C1726 0.929 . S
H1759 C1727 0.930 . S
Li1760 N1777 1.990 . S
Li1760 O1820 1.956 . S
Li1760 O1821 1.970 . S
Li1760 O1822 1.961 . S
Li1761 N1785 1.990 . S
Li1761 O1820 1.970 . S
Li1761 O1821 1.956 . S
Li1761 O1823 1.961 . S
Li1762 N1807 1.990 1_554 S
Li1762 O1820 1.961 . S
Li1762 O1822 1.956 . S
Li1762 O1823 1.970 . S
Li1763 N1813 1.990 . S
Li1763 O1821 1.961 . S
Li1763 O1822 1.970 . S
Li1763 O1823 1.956 . S
C1764 C1766 1.348 . S
C1764 C1767 1.356 . S
C1764 O1820 1.325 . S
N1765 C1768 1.314 . S
N1765 C1769 1.279 . S
C1766 C1764 1.348 . S
C1766 C1768 1.353 . S
C1766 H1824 0.929 . S
C1767 C1764 1.356 . S
C1767 C1769 1.358 . S
C1767 H1825 0.930 . S
C1768 N1765 1.314 . S
C1768 C1766 1.353 . S
C1768 H1826 0.930 . S
C1769 N1765 1.279 . S
C1769 C1767 1.358 . S
C1769 H1827 0.930 . S
C1770 C1773 1.348 . S
C1770 C1774 1.356 . S
C1770 O1821 1.325 . S
C1771 N1772 1.279 . S
C1771 C1774 1.358 . S
C1771 H1828 0.930 . S
N1772 C1771 1.279 . S
N1772 C1775 1.314 . S
C1773 C1770 1.348 . S
C1773 C1775 1.353 . S
C1773 H1829 0.929 . S
C1774 C1770 1.356 . S
C1774 C1771 1.358 . S
C1774 H1830 0.930 . S
C1775 N1772 1.314 . S
C1775 C1773 1.353 . S
C1775 H1831 0.930 . S
C1776 N1777 1.314 . S
C1776 C1781 1.353 . S
C1776 H1782 0.930 . S
N1777 Li1760 1.990 . S
N1777 C1776 1.314 . S
N1777 C1779 1.279 . S
C1778 C1779 1.358 . S
C1778 C1780 1.356 . S
C1778 H1832 0.930 . S
C1779 N1777 1.279 . S
C1779 C1778 1.358 . S
C1779 H1783 0.930 . S
C1780 C1778 1.356 . S
C1780 C1781 1.348 . S
C1781 C1776 1.353 . S
C1781 C1780 1.348 . S
C1781 H1833 0.929 . S
H1782 C1776 0.930 . S
H1783 C1779 0.930 . S
C1784 N1785 1.314 . S
C1784 C1786 1.353 . S
C1784 H1790 0.951 . S
N1785 Li1761 1.990 . S
N1785 C1784 1.314 . S
N1785 C1788 1.279 . S
C1786 C1784 1.353 . S
C1786 C1789 1.348 . S
C1786 H1834 0.929 1_554 S
C1787 C1788 1.358 . S
C1787 C1789 1.356 . S
C1787 H1835 0.930 . S
C1788 N1785 1.279 . S
C1788 C1787 1.358 . S
C1788 H1791 0.930 . S
C1789 C1786 1.348 . S
C1789 C1787 1.356 . S
H1790 C1784 0.951 . S
H1791 C1788 0.930 . S
C1792 C1794 1.348 . S
C1792 C1795 1.356 . S
C1792 O1822 1.325 . S
N1793 C1796 1.314 . S
N1793 C1797 1.279 . S
C1794 C1792 1.348 . S
C1794 C1796 1.353 . S
C1794 H1836 0.929 . S
C1795 C1792 1.356 . S
C1795 C1797 1.358 . S
C1795 H1837 0.930 . S
C1796 N1793 1.314 . S
C1796 C1794 1.353 . S
C1796 H1838 0.930 . S
C1797 N1793 1.279 . S
C1797 C1795 1.358 . S
C1797 H1839 0.930 . S
C1798 C1799 1.348 . S
C1798 C1800 1.356 . S
C1798 O1823 1.325 1_556 S
C1799 C1798 1.348 . S
C1799 C1801 1.353 . S
C1799 H1840 0.929 . S
C1800 C1798 1.356 . S
C1800 C1802 1.358 . S
C1800 H1841 0.930 . S
C1801 C1799 1.353 . S
C1801 N1803 1.314 . S
C1801 H1842 0.930 . S
C1802 C1800 1.358 . S
C1802 N1803 1.279 . S
C1802 H1843 0.930 . S
N1803 C1801 1.314 . S
N1803 C1802 1.279 . S
C1804 C1806 1.353 . S
C1804 N1807 1.314 . S
C1804 H1810 0.930 . S
C1805 N1807 1.279 . S
C1805 C1808 1.358 . S
C1805 H1811 0.930 . S
C1806 C1804 1.353 . S
C1806 C1809 1.348 . S
C1806 H1844 0.929 . S
N1807 Li1762 1.990 1_556 S
N1807 C1804 1.314 . S
N1807 C1805 1.279 . S
C1808 C1805 1.358 . S
C1808 C1809 1.356 . S
C1808 H1845 0.930 . S
C1809 C1806 1.348 . S
C1809 C1808 1.356 . S
H1810 C1804 0.930 . S
H1811 C1805 0.930 . S
C1812 N1813 1.314 . S
C1812 C1814 1.353 . S
C1812 H1818 0.930 . S
N1813 Li1763 1.990 . S
N1813 C1812 1.314 . S
N1813 C1816 1.279 . S
C1814 C1812 1.353 . S
C1814 C1817 1.348 . S
C1814 H1846 0.929 . S
C1815 C1816 1.358 1_556 S
C1815 C1817 1.356 1_556 S
C1815 H1847 0.930 . S
C1816 N1813 1.279 . S
C1816 C1815 1.358 1_554 S
C1816 H1819 0.930 1_554 S
C1817 C1814 1.348 . S
C1817 C1815 1.356 1_554 S
H1818 C1812 0.930 . S
H1819 C1816 0.930 1_556 S
O1820 Li1760 1.956 . S
O1820 Li1761 1.970 . S
O1820 Li1762 1.961 . S
O1820 C1764 1.325 . S
O1821 Li1760 1.970 . S
O1821 Li1761 1.956 . S
O1821 Li1763 1.961 . S
O1821 C1770 1.325 . S
O1822 Li1760 1.961 . S
O1822 Li1762 1.956 . S
O1822 Li1763 1.970 . S
O1822 C1792 1.325 . S
O1823 Li1761 1.961 . S
O1823 Li1762 1.970 . S
O1823 Li1763 1.956 . S
O1823 C1798 1.325 1_554 S
H1824 C1766 0.929 . S
H1825 C1767 0.930 . S
H1826 C1768 0.930 . S
H1827 C1769 0.930 . S
H1828 C1771 0.930 . S
H1829 C1773 0.929 . S
H1830 C1774 0.930 . S
H1831 C1775 0.930 . S
H1832 C1778 0.930 . S
H1833 C1781 0.929 . S
H1834 C1786 0.929 1_556 S
H1835 C1787 0.930 . S
H1836 C1794 0.929 . S
H1837 C1795 0.930 . S
H1838 C1796 0.930 . S
H1839 C1797 0.930 . S
H1840 C1799 0.929 . S
H1841 C1800 0.930 . S
H1842 C1801 0.930 . S
H1843 C1802 0.930 . S
H1844 C1806 0.929 . S
H1845 C1808 0.930 . S
H1846 C1814 0.929 . S
H1847 C1815 0.930 . S
Li1848 N1865 1.990 . S
Li1848 O1908 1.956 . S
Li1848 O1909 1.970 . S
Li1848 O1910 1.961 . S
Li1849 N1873 1.990 . S
Li1849 O1908 1.970 . S
Li1849 O1909 1.956 . S
Li1849 O1911 1.961 . S
Li1850 N1895 1.990 . S
Li1850 O1908 1.961 . S
Li1850 O1910 1.956 . S
Li1850 O1911 1.970 . S
Li1851 N1901 1.990 . S
Li1851 O1909 1.961 . S
Li1851 O1910 1.970 . S
Li1851 O1911 1.956 . S
C1852 C1854 1.348 . S
C1852 C1855 1.356 . S
C1852 O1908 1.325 . S
N1853 C1856 1.314 . S
N1853 C1857 1.279 . S
C1854 C1852 1.348 . S
C1854 C1856 1.353 . S
C1854 H1912 0.929 . S
C1855 C1852 1.356 . S
C1855 C1857 1.358 . S
C1855 H1913 0.930 . S
C1856 N1853 1.314 . S
C1856 C1854 1.353 . S
C1856 H1914 0.930 . S
C1857 N1853 1.279 . S
C1857 C1855 1.358 . S
C1857 H1915 0.930 . S
C1858 C1861 1.348 . S
C1858 C1862 1.356 . S
C1858 O1909 1.325 . S
C1859 N1860 1.279 . S
C1859 C1862 1.358 . S
C1859 H1916 0.930 . S
N1860 C1859 1.279 . S
N1860 C1863 1.314 . S
C1861 C1858 1.348 . S
C1861 C1863 1.353 . S
C1861 H1917 0.929 . S
C1862 C1858 1.356 . S
C1862 C1859 1.358 . S
C1862 H1918 0.930 . S
C1863 N1860 1.314 . S
C1863 C1861 1.353 . S
C1863 H1919 0.930 . S
C1864 N1865 1.314 . S
C1864 C1869 1.353 . S
C1864 H1870 0.930 . S
N1865 Li1848 1.990 . S
N1865 C1864 1.314 . S
N1865 C1867 1.279 . S
C1866 C1867 1.358 . S
C1866 C1868 1.356 . S
C1866 H1920 0.930 . S
C1867 N1865 1.279 . S
C1867 C1866 1.358 . S
C1867 H1871 0.930 . S
C1868 C1866 1.356 . S
C1868 C1869 1.348 . S
C1869 C1864 1.353 . S
C1869 C1868 1.348 . S
C1869 H1921 0.929 . S
H1870 C1864 0.930 . S
H1871 C1867 0.930 . S
C1872 N1873 1.314 . S
C1872 C1874 1.353 . S
C1872 H1878 0.930 . S
N1873 Li1849 1.990 . S
N1873 C1872 1.314 . S
N1873 C1876 1.279 . S
C1874 C1872 1.353 . S
C1874 C1877 1.348 . S
C1874 H1922 0.929 . S
C1875 C1876 1.358 . S
C1875 C1877 1.356 . S
C1875 H1923 0.930 . S
C1876 N1873 1.279 . S
C1876 C1875 1.358 . S
C1876 H1879 0.930 . S
C1877 C1874 1.348 . S
C1877 C1875 1.356 . S
H1878 C1872 0.930 . S
H1879 C1876 0.930 . S
C1880 C1882 1.348 . S
C1880 C1883 1.356 . S
C1880 O1910 1.325 . S
N1881 C1884 1.314 . S
N1881 C1885 1.279 . S
C1882 C1880 1.348 . S
C1882 C1884 1.353 . S
C1882 H1924 0.929 . S
C1883 C1880 1.356 . S
C1883 C1885 1.358 . S
C1883 H1925 0.930 . S
C1884 N1881 1.314 . S
C1884 C1882 1.353 . S
C1884 H1926 0.930 . S
C1885 N1881 1.279 . S
C1885 C1883 1.358 . S
C1885 H1927 0.930 . S
C1886 C1887 1.348 . S
C1886 C1888 1.356 . S
C1886 O1911 1.325 . S
C1887 C1886 1.348 . S
C1887 C1889 1.353 . S
C1887 H1928 0.929 . S
C1888 C1886 1.356 . S
C1888 C1890 1.358 . S
C1888 H1929 0.930 . S
C1889 C1887 1.353 . S
C1889 N1891 1.314 . S
C1889 H1930 0.930 . S
C1890 C1888 1.358 . S
C1890 N1891 1.279 . S
C1890 H1931 0.930 . S
N1891 C1889 1.314 . S
N1891 C1890 1.279 . S
C1892 C1894 1.353 . S
C1892 N1895 1.314 . S
C1892 H1898 0.930 . S
C1893 N1895 1.279 . S
C1893 C1896 1.358 . S
C1893 H1899 0.930 . S
C1894 C1892 1.353 . S
C1894 C1897 1.348 . S
C1894 H1932 0.929 . S
N1895 Li1850 1.990 . S
N1895 C1892 1.314 . S
N1895 C1893 1.279 . S
C1896 C1893 1.358 . S
C1896 C1897 1.356 . S
C1896 H1933 0.930 . S
C1897 C1894 1.348 . S
C1897 C1896 1.356 . S
H1898 C1892 0.930 . S
H1899 C1893 0.930 . S
C1900 N1901 1.314 . S
C1900 C1902 1.353 . S
C1900 H1906 0.930 . S
N1901 Li1851 1.990 . S
N1901 C1900 1.314 . S
N1901 C1904 1.279 . S
C1902 C1900 1.353 . S
C1902 C1905 1.348 . S
C1902 H1934 0.929 . S
C1903 C1904 1.358 . S
C1903 C1905 1.356 . S
C1903 H1935 0.930 . S
C1904 N1901 1.279 . S
C1904 C1903 1.358 . S
C1904 H1907 0.930 . S
C1905 C1902 1.348 . S
C1905 C1903 1.356 . S
H1906 C1900 0.930 . S
H1907 C1904 0.930 . S
O1908 Li1848 1.956 . S
O1908 Li1849 1.970 . S
O1908 Li1850 1.961 . S
O1908 C1852 1.325 . S
O1909 Li1848 1.970 . S
O1909 Li1849 1.956 . S
O1909 Li1851 1.961 . S
O1909 C1858 1.325 . S
O1910 Li1848 1.961 . S
O1910 Li1850 1.956 . S
O1910 Li1851 1.970 . S
O1910 C1880 1.325 . S
O1911 Li1849 1.961 . S
O1911 Li1850 1.970 . S
O1911 Li1851 1.956 . S
O1911 C1886 1.325 . S
H1912 C1854 0.929 . S
H1913 C1855 0.930 . S
H1914 C1856 0.930 . S
H1915 C1857 0.930 . S
H1916 C1859 0.930 . S
H1917 C1861 0.929 . S
H1918 C1862 0.930 . S
H1919 C1863 0.930 . S
H1920 C1866 0.930 . S
H1921 C1869 0.929 . S
H1922 C1874 0.929 . S
H1923 C1875 0.930 . S
H1924 C1882 0.929 . S
H1925 C1883 0.930 . S
H1926 C1884 0.930 . S
H1927 C1885 0.930 . S
H1928 C1887 0.929 . S
H1929 C1888 0.930 . S
H1930 C1889 0.930 . S
H1931 C1890 0.930 . S
H1932 C1894 0.929 . S
H1933 C1896 0.930 . S
H1934 C1902 0.929 . S
H1935 C1903 0.930 . S
Li1936 N1953 1.990 . S
Li1936 O1996 1.956 . S
Li1936 O1997 1.970 . S
Li1936 O1998 1.961 . S
Li1937 N1961 1.990 . S
Li1937 O1996 1.970 . S
Li1937 O1997 1.956 . S
Li1937 O1999 1.961 . S
Li1938 N1983 1.990 . S
Li1938 O1996 1.961 . S
Li1938 O1998 1.956 . S
Li1938 O1999 1.970 . S
Li1939 N1989 1.990 . S
Li1939 O1997 1.961 . S
Li1939 O1998 1.970 . S
Li1939 O1999 1.956 . S
C1940 C1942 1.348 . S
C1940 C1943 1.356 . S
C1940 O1996 1.325 . S
N1941 C1944 1.314 . S
N1941 C1945 1.279 . S
C1942 C1940 1.348 . S
C1942 C1944 1.353 . S
C1942 H2000 0.929 . S
C1943 C1940 1.356 . S
C1943 C1945 1.358 . S
C1943 H2001 0.930 . S
C1944 N1941 1.314 . S
C1944 C1942 1.353 . S
C1944 H2002 0.930 . S
C1945 N1941 1.279 . S
C1945 C1943 1.358 . S
C1945 H2003 0.930 . S
C1946 C1949 1.348 . S
C1946 C1950 1.356 . S
C1946 O1997 1.325 . S
C1947 N1948 1.279 . S
C1947 C1950 1.358 . S
C1947 H2004 0.930 . S
N1948 C1947 1.279 . S
N1948 C1951 1.314 . S
C1949 C1946 1.348 . S
C1949 C1951 1.353 . S
C1949 H2005 0.929 . S
C1950 C1946 1.356 . S
C1950 C1947 1.358 . S
C1950 H2006 0.930 . S
C1951 N1948 1.314 . S
C1951 C1949 1.353 . S
C1951 H2007 0.930 . S
C1952 N1953 1.314 . S
C1952 C1957 1.353 . S
C1952 H1958 0.930 . S
N1953 Li1936 1.990 . S
N1953 C1952 1.314 . S
N1953 C1955 1.279 . S
C1954 C1955 1.358 . S
C1954 C1956 1.356 . S
C1954 H2008 0.930 . S
C1955 N1953 1.279 . S
C1955 C1954 1.358 . S
C1955 H1959 0.930 . S
C1956 C1954 1.356 . S
C1956 C1957 1.348 . S
C1957 C1952 1.353 . S
C1957 C1956 1.348 . S
C1957 H2009 0.929 . S
H1958 C1952 0.930 . S
H1959 C1955 0.930 . S
C1960 N1961 1.314 . S
C1960 C1962 1.353 . S
C1960 H1966 0.930 . S
N1961 Li1937 1.990 . S
N1961 C1960 1.314 . S
N1961 C1964 1.279 . S
C1962 C1960 1.353 . S
C1962 C1965 1.348 . S
C1962 H2010 0.929 . S
C1963 C1964 1.358 . S
C1963 C1965 1.356 . S
C1963 H2011 0.930 . S
C1964 N1961 1.279 . S
C1964 C1963 1.358 . S
C1964 H1967 0.930 . S
C1965 C1962 1.348 . S
C1965 C1963 1.356 . S
H1966 C1960 0.930 . S
H1967 C1964 0.930 . S
C1968 C1970 1.348 . S
C1968 C1971 1.356 . S
C1968 O1998 1.325 . S
N1969 C1972 1.314 . S
N1969 C1973 1.279 . S
C1970 C1968 1.348 . S
C1970 C1972 1.353 . S
C1970 H2012 0.929 . S
C1971 C1968 1.356 . S
C1971 C1973 1.358 . S
C1971 H2013 0.930 . S
C1972 N1969 1.314 . S
C1972 C1970 1.353 . S
C1972 H2014 0.930 . S
C1973 N1969 1.279 . S
C1973 C1971 1.358 . S
C1973 H2015 0.930 . S
C1974 C1975 1.348 . S
C1974 C1976 1.356 . S
C1974 O1999 1.325 . S
C1975 C1974 1.348 . S
C1975 C1977 1.353 . S
C1975 H2016 0.929 . S
C1976 C1974 1.356 . S
C1976 C1978 1.358 . S
C1976 H2017 0.930 . S
C1977 C1975 1.353 . S
C1977 N1979 1.314 . S
C1977 H2018 0.930 . S
C1978 C1976 1.358 . S
C1978 N1979 1.279 . S
C1978 H2019 0.930 . S
N1979 C1977 1.314 . S
N1979 C1978 1.279 . S
C1980 C1982 1.353 . S
C1980 N1983 1.314 . S
C1980 H1986 0.930 . S
C1981 N1983 1.279 . S
C1981 C1984 1.358 . S
C1981 H1987 0.930 . S
C1982 C1980 1.353 . S
C1982 C1985 1.348 . S
C1982 H2020 0.929 . S
N1983 Li1938 1.990 . S
N1983 C1980 1.314 . S
N1983 C1981 1.279 . S
C1984 C1981 1.358 . S
C1984 C1985 1.356 . S
C1984 H2021 0.930 . S
C1985 C1982 1.348 . S
C1985 C1984 1.356 . S
H1986 C1980 0.930 . S
H1987 C1981 0.930 . S
C1988 N1989 1.314 . S
C1988 C1990 1.353 . S
C1988 H1994 0.930 . S
N1989 Li1939 1.990 . S
N1989 C1988 1.314 . S
N1989 C1992 1.279 . S
C1990 C1988 1.353 . S
C1990 C1993 1.348 . S
C1990 H2022 0.929 . S
C1991 C1992 1.358 . S
C1991 C1993 1.356 . S
C1991 H2023 0.930 . S
C1992 N1989 1.279 . S
C1992 C1991 1.358 . S
C1992 H1995 0.930 . S
C1993 C1990 1.348 . S
C1993 C1991 1.356 . S
H1994 C1988 0.930 . S
H1995 C1992 0.930 . S
O1996 Li1936 1.956 . S
O1996 Li1937 1.970 . S
O1996 Li1938 1.961 . S
O1996 C1940 1.325 . S
O1997 Li1936 1.970 . S
O1997 Li1937 1.956 . S
O1997 Li1939 1.961 . S
O1997 C1946 1.325 . S
O1998 Li1936 1.961 . S
O1998 Li1938 1.956 . S
O1998 Li1939 1.970 . S
O1998 C1968 1.325 . S
O1999 Li1937 1.961 . S
O1999 Li1938 1.970 . S
O1999 Li1939 1.956 . S
O1999 C1974 1.325 . S
H2000 C1942 0.929 . S
H2001 C1943 0.930 . S
H2002 C1944 0.930 . S
H2003 C1945 0.930 . S
H2004 C1947 0.930 . S
H2005 C1949 0.929 . S
H2006 C1950 0.930 . S
H2007 C1951 0.930 . S
H2008 C1954 0.930 . S
H2009 C1957 0.929 . S
H2010 C1962 0.929 . S
H2011 C1963 0.930 . S
H2012 C1970 0.929 . S
H2013 C1971 0.930 . S
H2014 C1972 0.930 . S
H2015 C1973 0.930 . S
H2016 C1975 0.929 . S
H2017 C1976 0.930 . S
H2018 C1977 0.930 . S
H2019 C1978 0.930 . S
H2020 C1982 0.929 . S
H2021 C1984 0.930 . S
H2022 C1990 0.929 . S
H2023 C1991 0.930 . S
Li2024 N2041 1.990 . S
Li2024 O2084 1.956 . S
Li2024 O2085 1.970 . S
Li2024 O2086 1.961 . S
Li2025 N2049 1.990 . S
Li2025 O2084 1.970 . S
Li2025 O2085 1.956 . S
Li2025 O2087 1.961 . S
Li2026 N2071 1.990 . S
Li2026 O2084 1.961 . S
Li2026 O2086 1.956 . S
Li2026 O2087 1.970 . S
Li2027 N2077 1.990 . S
Li2027 O2085 1.961 . S
Li2027 O2086 1.970 . S
Li2027 O2087 1.956 . S
C2028 C2030 1.348 . S
C2028 C2031 1.356 . S
C2028 O2084 1.325 . S
N2029 C2032 1.314 . S
N2029 C2033 1.279 . S
C2030 C2028 1.348 . S
C2030 C2032 1.353 . S
C2030 H2088 0.929 . S
C2031 C2028 1.356 . S
C2031 C2033 1.358 . S
C2031 H2089 0.930 . S
C2032 N2029 1.314 . S
C2032 C2030 1.353 . S
C2032 H2090 0.930 . S
C2033 N2029 1.279 . S
C2033 C2031 1.358 . S
C2033 H2091 0.930 . S
C2034 C2037 1.348 . S
C2034 C2038 1.356 . S
C2034 O2085 1.325 . S
C2035 N2036 1.279 . S
C2035 C2038 1.358 . S
C2035 H2092 0.930 . S
N2036 C2035 1.279 . S
N2036 C2039 1.314 . S
C2037 C2034 1.348 . S
C2037 C2039 1.353 . S
C2037 H2093 0.929 . S
C2038 C2034 1.356 . S
C2038 C2035 1.358 . S
C2038 H2094 0.930 . S
C2039 N2036 1.314 . S
C2039 C2037 1.353 . S
C2039 H2095 0.930 . S
C2040 N2041 1.314 . S
C2040 C2045 1.353 . S
C2040 H2046 0.930 . S
N2041 Li2024 1.990 . S
N2041 C2040 1.314 . S
N2041 C2043 1.279 . S
C2042 C2043 1.358 . S
C2042 C2044 1.356 . S
C2042 H2096 0.930 . S
C2043 N2041 1.279 . S
C2043 C2042 1.358 . S
C2043 H2047 0.930 . S
C2044 C2042 1.356 . S
C2044 C2045 1.348 . S
C2045 C2040 1.353 . S
C2045 C2044 1.348 . S
C2045 H2097 0.929 . S
H2046 C2040 0.930 . S
H2047 C2043 0.930 . S
C2048 N2049 1.314 . S
C2048 C2050 1.353 . S
C2048 H2054 0.930 . S
N2049 Li2025 1.990 . S
N2049 C2048 1.314 . S
N2049 C2052 1.279 . S
C2050 C2048 1.353 . S
C2050 C2053 1.348 . S
C2050 H2098 0.929 . S
C2051 C2052 1.358 . S
C2051 C2053 1.356 . S
C2051 H2099 0.930 . S
C2052 N2049 1.279 . S
C2052 C2051 1.358 . S
C2052 H2055 0.930 . S
C2053 C2050 1.348 . S
C2053 C2051 1.356 . S
H2054 C2048 0.930 . S
H2055 C2052 0.930 . S
C2056 C2058 1.348 . S
C2056 C2059 1.356 . S
C2056 O2086 1.325 . S
N2057 C2060 1.314 . S
N2057 C2061 1.279 . S
C2058 C2056 1.348 . S
C2058 C2060 1.353 . S
C2058 H2100 0.929 . S
C2059 C2056 1.356 . S
C2059 C2061 1.358 . S
C2059 H2101 0.930 . S
C2060 N2057 1.314 . S
C2060 C2058 1.353 . S
C2060 H2102 0.930 . S
C2061 N2057 1.279 . S
C2061 C2059 1.358 . S
C2061 H2103 0.930 . S
C2062 C2063 1.348 . S
C2062 C2064 1.356 . S
C2062 O2087 1.325 . S
C2063 C2062 1.348 . S
C2063 C2065 1.353 . S
C2063 H2104 0.929 . S
C2064 C2062 1.356 . S
C2064 C2066 1.358 . S
C2064 H2105 0.930 . S
C2065 C2063 1.353 . S
C2065 N2067 1.314 . S
C2065 H2106 0.930 . S
C2066 C2064 1.358 . S
C2066 N2067 1.279 . S
C2066 H2107 0.930 . S
N2067 C2065 1.314 . S
N2067 C2066 1.279 . S
C2068 C2070 1.353 . S
C2068 N2071 1.314 . S
C2068 H2074 0.930 . S
C2069 N2071 1.279 . S
C2069 C2072 1.358 . S
C2069 H2075 0.930 . S
C2070 C2068 1.353 . S
C2070 C2073 1.348 . S
C2070 H2108 0.929 . S
N2071 Li2026 1.990 . S
N2071 C2068 1.314 . S
N2071 C2069 1.279 . S
C2072 C2069 1.358 . S
C2072 C2073 1.356 . S
C2072 H2109 0.930 . S
C2073 C2070 1.348 . S
C2073 C2072 1.356 . S
H2074 C2068 0.930 . S
H2075 C2069 0.930 . S
C2076 N2077 1.314 . S
C2076 C2078 1.353 . S
C2076 H2082 0.930 . S
N2077 Li2027 1.990 . S
N2077 C2076 1.314 . S
N2077 C2080 1.279 . S
C2078 C2076 1.353 . S
C2078 C2081 1.348 . S
C2078 H2110 0.929 . S
C2079 C2080 1.358 . S
C2079 C2081 1.356 . S
C2079 H2111 0.930 . S
C2080 N2077 1.279 . S
C2080 C2079 1.358 . S
C2080 H2083 0.930 . S
C2081 C2078 1.348 . S
C2081 C2079 1.356 . S
H2082 C2076 0.930 . S
H2083 C2080 0.930 . S
O2084 Li2024 1.956 . S
O2084 Li2025 1.970 . S
O2084 Li2026 1.961 . S
O2084 C2028 1.325 . S
O2085 Li2024 1.970 . S
O2085 Li2025 1.956 . S
O2085 Li2027 1.961 . S
O2085 C2034 1.325 . S
O2086 Li2024 1.961 . S
O2086 Li2026 1.956 . S
O2086 Li2027 1.970 . S
O2086 C2056 1.325 . S
O2087 Li2025 1.961 . S
O2087 Li2026 1.970 . S
O2087 Li2027 1.956 . S
O2087 C2062 1.325 . S
H2088 C2030 0.929 . S
H2089 C2031 0.930 . S
H2090 C2032 0.930 . S
H2091 C2033 0.930 . S
H2092 C2035 0.930 . S
H2093 C2037 0.929 . S
H2094 C2038 0.930 . S
H2095 C2039 0.930 . S
H2096 C2042 0.930 . S
H2097 C2045 0.929 . S
H2098 C2050 0.929 . S
H2099 C2051 0.930 . S
H2100 C2058 0.929 . S
H2101 C2059 0.930 . S
H2102 C2060 0.930 . S
H2103 C2061 0.930 . S
H2104 C2063 0.929 . S
H2105 C2064 0.930 . S
H2106 C2065 0.930 . S
H2107 C2066 0.930 . S
H2108 C2070 0.929 . S
H2109 C2072 0.930 . S
H2110 C2078 0.929 . S
H2111 C2079 0.930 . S
Tb2112 C2114 2.809 1_455 S
Tb2112 O2132 2.484 1_455 S
Tb2112 O2133 2.440 1_454 S
Tb2112 O2134 2.658 . S
Tb2112 O2135 2.409 1_554 S
Tb2112 O2136 2.378 . S
Tb2112 O2140 2.325 . S
Tb2112 O2143 2.341 1_545 S
Tb2113 C2123 2.809 1_545 S
Tb2113 O2134 2.325 . S
Tb2113 O2137 2.341 . S
Tb2113 O2138 2.484 1_545 S
Tb2113 O2139 2.440 . S
Tb2113 O2140 2.658 . S
Tb2113 O2141 2.409 . S
Tb2113 O2142 2.378 1_545 S
C2114 Tb2112 2.809 1_655 S
C2114 C2115 1.514 . S
C2114 O2132 1.248 . S
C2114 O2133 1.266 1_554 S
C2115 C2114 1.514 . S
C2115 C2116 1.359 . S
C2115 C2120 1.348 1_554 S
C2116 C2115 1.359 . S
C2116 C2117 1.380 . S
C2116 H2144 0.929 . S
C2117 C2116 1.380 . S
C2117 C2118 1.347 . S
C2117 H2145 0.931 . S
C2118 C2117 1.347 . S
C2118 C2119 1.369 1_554 S
C2119 C2118 1.369 1_556 S
C2119 C2120 1.408 . S
C2119 H2146 0.930 . S
C2120 C2115 1.348 1_556 S
C2120 C2119 1.408 . S
C2120 H2147 0.930 . S
C2121 O2134 1.281 1_556 S
C2121 O2135 1.254 . S
C2122 O2136 1.236 . S
C2122 O2137 1.266 . S
C2123 Tb2113 2.809 1_565 S
C2123 C2124 1.514 . S
C2123 O2138 1.248 . S
C2123 O2139 1.266 1_565 S
C2124 C2123 1.514 . S
C2124 C2125 1.359 . S
C2124 C2129 1.348 . S
C2125 C2124 1.359 . S
C2125 C2126 1.380 . S
C2125 H2148 0.929 . S
C2126 C2125 1.380 . S
C2126 C2127 1.347 . S
C2126 H2149 0.931 . S
C2127 C2126 1.347 . S
C2127 C2128 1.369 . S
C2128 C2127 1.369 . S
C2128 C2129 1.408 . S
C2128 H2150 0.930 . S
C2129 C2124 1.348 . S
C2129 C2128 1.408 . S
C2129 H2151 0.930 . S
C2130 O2140 1.281 . S
C2130 O2141 1.254 . S
C2131 O2142 1.236 . S
C2131 O2143 1.266 . S
O2132 Tb2112 2.484 1_655 S
O2132 C2114 1.248 . S
O2133 Tb2112 2.440 1_656 S
O2133 C2114 1.266 1_556 S
O2134 Tb2112 2.658 . S
O2134 Tb2113 2.325 . S
O2134 C2121 1.281 1_554 S
O2135 Tb2112 2.409 1_556 S
O2135 C2121 1.254 . S
O2136 Tb2112 2.378 . S
O2136 C2122 1.236 . S
O2137 Tb2113 2.341 . S
O2137 C2122 1.266 . S
O2138 Tb2113 2.484 1_565 S
O2138 C2123 1.248 . S
O2139 Tb2113 2.440 . S
O2139 C2123 1.266 1_545 S
O2140 Tb2112 2.325 . S
O2140 Tb2113 2.658 . S
O2140 C2130 1.281 . S
O2141 Tb2113 2.409 . S
O2141 C2130 1.254 . S
O2142 Tb2113 2.378 1_565 S
O2142 C2131 1.236 . S
O2143 Tb2112 2.341 1_565 S
O2143 C2131 1.266 . S
H2144 C2116 0.929 . S
H2145 C2117 0.931 . S
H2146 C2119 0.930 . S
H2147 C2120 0.930 . S
H2148 C2125 0.929 . S
H2149 C2126 0.931 . S
H2150 C2128 0.930 . S
H2151 C2129 0.930 . S
Tb2152 C2154 2.809 . S
Tb2152 O2172 2.484 . S
Tb2152 O2173 2.440 . S
Tb2152 O2174 2.658 . S
Tb2152 O2175 2.409 . S
Tb2152 O2176 2.378 . S
Tb2152 O2180 2.325 . S
Tb2152 O2183 2.341 . S
Tb2153 C2163 2.809 . S
Tb2153 O2174 2.325 . S
Tb2153 O2177 2.341 . S
Tb2153 O2178 2.484 . S
Tb2153 O2179 2.440 . S
Tb2153 O2180 2.658 . S
Tb2153 O2181 2.409 . S
Tb2153 O2182 2.378 . S
C2154 Tb2152 2.809 . S
C2154 C2155 1.514 . S
C2154 O2172 1.248 . S
C2154 O2173 1.266 . S
C2155 C2154 1.514 . S
C2155 C2156 1.359 . S
C2155 C2160 1.348 . S
C2156 C2155 1.359 . S
C2156 C2157 1.380 . S
C2156 H2184 0.929 . S
C2157 C2156 1.380 . S
C2157 C2158 1.347 . S
C2157 H2185 0.931 . S
C2158 C2157 1.347 . S
C2158 C2159 1.369 . S
C2159 C2158 1.369 . S
C2159 C2160 1.408 . S
C2159 H2186 0.930 . S
C2160 C2155 1.348 . S
C2160 C2159 1.408 . S
C2160 H2187 0.930 . S
C2161 O2174 1.281 . S
C2161 O2175 1.254 . S
C2162 O2176 1.236 . S
C2162 O2177 1.266 . S
C2163 Tb2153 2.809 . S
C2163 C2164 1.514 . S
C2163 O2178 1.248 . S
C2163 O2179 1.266 . S
C2164 C2163 1.514 . S
C2164 C2165 1.359 . S
C2164 C2169 1.348 . S
C2165 C2164 1.359 . S
C2165 C2166 1.380 . S
C2165 H2188 0.929 . S
C2166 C2165 1.380 . S
C2166 C2167 1.347 . S
C2166 H2189 0.931 . S
C2167 C2166 1.347 . S
C2167 C2168 1.369 . S
C2168 C2167 1.369 . S
C2168 C2169 1.408 . S
C2168 H2190 0.930 . S
C2169 C2164 1.348 . S
C2169 C2168 1.408 . S
C2169 H2191 0.930 . S
C2170 O2180 1.281 . S
C2170 O2181 1.254 . S
C2171 O2182 1.236 . S
C2171 O2183 1.266 . S
O2172 Tb2152 2.484 . S
O2172 C2154 1.248 . S
O2173 Tb2152 2.440 . S
O2173 C2154 1.266 . S
O2174 Tb2152 2.658 . S
O2174 Tb2153 2.325 . S
O2174 C2161 1.281 . S
O2175 Tb2152 2.409 . S
O2175 C2161 1.254 . S
O2176 Tb2152 2.378 . S
O2176 C2162 1.236 . S
O2177 Tb2153 2.341 . S
O2177 C2162 1.266 . S
O2178 Tb2153 2.484 . S
O2178 C2163 1.248 . S
O2179 Tb2153 2.440 . S
O2179 C2163 1.266 . S
O2180 Tb2152 2.325 . S
O2180 Tb2153 2.658 . S
O2180 C2170 1.281 . S
O2181 Tb2153 2.409 . S
O2181 C2170 1.254 . S
O2182 Tb2153 2.378 . S
O2182 C2171 1.236 . S
O2183 Tb2152 2.341 . S
O2183 C2171 1.266 . S
H2184 C2156 0.929 . S
H2185 C2157 0.931 . S
H2186 C2159 0.930 . S
H2187 C2160 0.930 . S
H2188 C2165 0.929 . S
H2189 C2166 0.931 . S
H2190 C2168 0.930 . S
H2191 C2169 0.930 . S
Tb2192 C2194 2.809 1_545 S
Tb2192 O2212 2.484 1_545 S
Tb2192 O2213 2.440 . S
Tb2192 O2214 2.658 . S
Tb2192 O2215 2.409 . S
Tb2192 O2216 2.378 1_545 S
Tb2192 O2220 2.325 . S
Tb2192 O2223 2.341 . S
Tb2193 C2203 2.809 . S
Tb2193 O2214 2.325 . S
Tb2193 O2217 2.341 1_545 S
Tb2193 O2218 2.484 . S
Tb2193 O2219 2.440 . S
Tb2193 O2220 2.658 . S
Tb2193 O2221 2.409 . S
Tb2193 O2222 2.378 . S
C2194 Tb2192 2.809 1_565 S
C2194 C2195 1.514 . S
C2194 O2212 1.248 . S
C2194 O2213 1.266 1_565 S
C2195 C2194 1.514 . S
C2195 C2196 1.359 . S
C2195 C2200 1.348 . S
C2196 C2195 1.359 . S
C2196 C2197 1.380 . S
C2196 H2224 0.929 . S
C2197 C2196 1.380 . S
C2197 C2198 1.347 . S
C2197 H2225 0.931 . S
C2198 C2197 1.347 . S
C2198 C2199 1.369 . S
C2199 C2198 1.369 . S
C2199 C2200 1.408 . S
C2199 H2226 0.930 . S
C2200 C2195 1.348 . S
C2200 C2199 1.408 . S
C2200 H2227 0.930 . S
C2201 O2214 1.281 . S
C2201 O2215 1.254 . S
C2202 O2216 1.236 . S
C2202 O2217 1.266 . S
C2203 Tb2193 2.809 . S
C2203 C2204 1.514 . S
C2203 O2218 1.248 . S
C2203 O2219 1.266 . S
C2204 C2203 1.514 . S
C2204 C2205 1.359 . S
C2204 C2209 1.348 . S
C2205 C2204 1.359 . S
C2205 C2206 1.380 . S
C2205 H2228 0.929 . S
C2206 C2205 1.380 . S
C2206 C2207 1.347 . S
C2206 H2229 0.931 . S
C2207 C2206 1.347 . S
C2207 C2208 1.369 . S
C2208 C2207 1.369 . S
C2208 C2209 1.408 . S
C2208 H2230 0.930 . S
C2209 C2204 1.348 . S
C2209 C2208 1.408 . S
C2209 H2231 0.930 . S
C2210 O2220 1.281 . S
C2210 O2221 1.254 . S
C2211 O2222 1.236 . S
C2211 O2223 1.266 . S
O2212 Tb2192 2.484 1_565 S
O2212 C2194 1.248 . S
O2213 Tb2192 2.440 . S
O2213 C2194 1.266 1_545 S
O2214 Tb2192 2.658 . S
O2214 Tb2193 2.325 . S
O2214 C2201 1.281 . S
O2215 Tb2192 2.409 . S
O2215 C2201 1.254 . S
O2216 Tb2192 2.378 1_565 S
O2216 C2202 1.236 . S
O2217 Tb2193 2.341 1_565 S
O2217 C2202 1.266 . S
O2218 Tb2193 2.484 . S
O2218 C2203 1.248 . S
O2219 Tb2193 2.440 . S
O2219 C2203 1.266 . S
O2220 Tb2192 2.325 . S
O2220 Tb2193 2.658 . S
O2220 C2210 1.281 . S
O2221 Tb2193 2.409 . S
O2221 C2210 1.254 . S
O2222 Tb2193 2.378 . S
O2222 C2211 1.236 . S
O2223 Tb2192 2.341 . S
O2223 C2211 1.266 . S
H2224 C2196 0.929 . S
H2225 C2197 0.931 . S
H2226 C2199 0.930 . S
H2227 C2200 0.930 . S
H2228 C2205 0.929 . S
H2229 C2206 0.931 . S
H2230 C2208 0.930 . S
H2231 C2209 0.930 . S
Tb2232 C2234 2.809 . S
Tb2232 O2252 2.484 . S
Tb2232 O2253 2.440 . S
Tb2232 O2254 2.658 . S
Tb2232 O2255 2.409 . S
Tb2232 O2256 2.378 . S
Tb2232 O2260 2.325 . S
Tb2232 O2263 2.341 . S
Tb2233 C2243 2.809 . S
Tb2233 O2254 2.325 . S
Tb2233 O2257 2.341 . S
Tb2233 O2258 2.484 . S
Tb2233 O2259 2.440 . S
Tb2233 O2260 2.658 . S
Tb2233 O2261 2.409 . S
Tb2233 O2262 2.378 . S
C2234 Tb2232 2.809 . S
C2234 C2235 1.514 . S
C2234 O2252 1.248 . S
C2234 O2253 1.266 . S
C2235 C2234 1.514 . S
C2235 C2236 1.359 . S
C2235 C2240 1.348 . S
C2236 C2235 1.359 . S
C2236 C2237 1.380 . S
C2236 H2264 0.929 . S
C2237 C2236 1.380 . S
C2237 C2238 1.347 . S
C2237 H2265 0.931 . S
C2238 C2237 1.347 . S
C2238 C2239 1.369 . S
C2239 C2238 1.369 . S
C2239 C2240 1.408 . S
C2239 H2266 0.930 . S
C2240 C2235 1.348 . S
C2240 C2239 1.408 . S
C2240 H2267 0.930 . S
C2241 O2254 1.281 . S
C2241 O2255 1.254 . S
C2242 O2256 1.236 . S
C2242 O2257 1.266 . S
C2243 Tb2233 2.809 . S
C2243 C2244 1.514 . S
C2243 O2258 1.248 . S
C2243 O2259 1.266 . S
C2244 C2243 1.514 . S
C2244 C2245 1.359 . S
C2244 C2249 1.348 . S
C2245 C2244 1.359 . S
C2245 C2246 1.380 . S
C2245 H2268 0.929 . S
C2246 C2245 1.380 . S
C2246 C2247 1.347 . S
C2246 H2269 0.931 . S
C2247 C2246 1.347 . S
C2247 C2248 1.369 . S
C2248 C2247 1.369 . S
C2248 C2249 1.408 . S
C2248 H2270 0.930 . S
C2249 C2244 1.348 . S
C2249 C2248 1.408 . S
C2249 H2271 0.930 . S
C2250 O2260 1.281 . S
C2250 O2261 1.254 . S
C2251 O2262 1.236 . S
C2251 O2263 1.266 . S
O2252 Tb2232 2.484 . S
O2252 C2234 1.248 . S
O2253 Tb2232 2.440 . S
O2253 C2234 1.266 . S
O2254 Tb2232 2.658 . S
O2254 Tb2233 2.325 . S
O2254 C2241 1.281 . S
O2255 Tb2232 2.409 . S
O2255 C2241 1.254 . S
O2256 Tb2232 2.378 . S
O2256 C2242 1.236 . S
O2257 Tb2233 2.341 . S
O2257 C2242 1.266 . S
O2258 Tb2233 2.484 . S
O2258 C2243 1.248 . S
O2259 Tb2233 2.440 . S
O2259 C2243 1.266 . S
O2260 Tb2232 2.325 . S
O2260 Tb2233 2.658 . S
O2260 C2250 1.281 . S
O2261 Tb2233 2.409 . S
O2261 C2250 1.254 . S
O2262 Tb2233 2.378 . S
O2262 C2251 1.236 . S
O2263 Tb2232 2.341 . S
O2263 C2251 1.266 . S
H2264 C2236 0.929 . S
H2265 C2237 0.931 . S
H2266 C2239 0.930 . S
H2267 C2240 0.930 . S
H2268 C2245 0.929 . S
H2269 C2246 0.931 . S
H2270 C2248 0.930 . S
H2271 C2249 0.930 . S
Tb2272 C2274 2.809 . S
Tb2272 O2292 2.484 . S
Tb2272 O2293 2.440 . S
Tb2272 O2294 2.658 . S
Tb2272 O2295 2.409 1_455 S
Tb2272 O2296 2.378 . S
Tb2272 O2300 2.325 . S
Tb2272 O2303 2.341 . S
Tb2273 C2283 2.809 . S
Tb2273 O2294 2.325 1_565 S
Tb2273 O2297 2.363 . S
Tb2273 O2298 2.484 . S
Tb2273 O2299 2.440 . S
Tb2273 O2300 2.658 1_565 S
Tb2273 O2301 2.409 1_565 S
Tb2273 O2302 2.378 1_565 S
C2274 Tb2272 2.809 . S
C2274 C2275 1.514 . S
C2274 O2292 1.248 . S
C2274 O2293 1.266 . S
C2275 C2274 1.514 . S
C2275 C2276 1.359 . S
C2275 C2280 1.348 1_455 S
C2276 C2275 1.359 . S
C2276 C2277 1.380 . S
C2276 H2304 0.929 . S
C2277 C2276 1.380 . S
C2277 C2278 1.347 . S
C2277 H2305 0.931 . S
C2278 C2277 1.347 . S
C2278 C2279 1.369 1_455 S
C2279 C2278 1.369 1_655 S
C2279 C2280 1.408 . S
C2279 H2306 0.930 . S
C2280 C2275 1.348 1_655 S
C2280 C2279 1.408 . S
C2280 H2307 0.930 . S
C2281 O2294 1.281 1_655 S
C2281 O2295 1.254 . S
C2282 O2296 1.236 . S
C2282 O2297 1.227 1_545 S
C2283 Tb2273 2.809 . S
C2283 C2284 1.514 . S
C2283 O2298 1.248 . S
C2283 O2299 1.266 . S
C2284 C2283 1.514 . S
C2284 C2285 1.359 . S
C2284 C2289 1.348 . S
C2285 C2284 1.359 . S
C2285 C2286 1.380 . S
C2285 H2308 0.929 . S
C2286 C2285 1.380 . S
C2286 C2287 1.347 . S
C2286 H2309 0.931 . S
C2287 C2286 1.347 . S
C2287 C2288 1.369 . S
C2288 C2287 1.369 . S
C2288 C2289 1.408 . S
C2288 H2310 0.930 . S
C2289 C2284 1.348 . S
C2289 C2288 1.408 . S
C2289 H2311 0.930 . S
C2290 O2300 1.281 . S
C2290 O2301 1.254 . S
C2291 O2302 1.236 . S
C2291 O2303 1.266 . S
O2292 Tb2272 2.484 . S
O2292 C2274 1.248 . S
O2293 Tb2272 2.440 . S
O2293 C2274 1.266 . S
O2294 Tb2272 2.658 . S
O2294 Tb2273 2.325 1_545 S
O2294 C2281 1.281 1_455 S
O2295 Tb2272 2.409 1_655 S
O2295 C2281 1.254 . S
O2296 Tb2272 2.378 . S
O2296 C2282 1.236 . S
O2297 Tb2273 2.363 . S
O2297 C2282 1.227 1_565 S
O2298 Tb2273 2.484 . S
O2298 C2283 1.248 . S
O2299 Tb2273 2.440 . S
O2299 C2283 1.266 . S
O2300 Tb2272 2.325 . S
O2300 Tb2273 2.658 1_545 S
O2300 C2290 1.281 . S
O2301 Tb2273 2.409 1_545 S
O2301 C2290 1.254 . S
O2302 Tb2273 2.378 1_545 S
O2302 C2291 1.236 . S
O2303 Tb2272 2.341 . S
O2303 C2291 1.266 . S
H2304 C2276 0.929 . S
H2305 C2277 0.931 . S
H2306 C2279 0.930 . S
H2307 C2280 0.930 . S
H2308 C2285 0.929 . S
H2309 C2286 0.931 . S
H2310 C2288 0.930 . S
H2311 C2289 0.930 . S
Tb2312 C2314 2.809 . S
Tb2312 O2332 2.484 . S
Tb2312 O2333 2.440 . S
Tb2312 O2334 2.658 . S
Tb2312 O2335 2.409 . S
Tb2312 O2336 2.378 . S
Tb2312 O2340 2.325 . S
Tb2312 O2343 2.341 . S
Tb2313 C2323 2.809 . S
Tb2313 O2334 2.325 . S
Tb2313 O2337 2.341 . S
Tb2313 O2338 2.484 . S
Tb2313 O2339 2.440 . S
Tb2313 O2340 2.658 . S
Tb2313 O2341 2.409 . S
Tb2313 O2342 2.378 . S
C2314 Tb2312 2.809 . S
C2314 C2315 1.514 . S
C2314 O2332 1.248 . S
C2314 O2333 1.266 . S
C2315 C2314 1.514 . S
C2315 C2316 1.359 . S
C2315 C2320 1.348 . S
C2316 C2315 1.359 . S
C2316 C2317 1.380 . S
C2316 H2344 0.929 . S
C2317 C2316 1.380 . S
C2317 C2318 1.347 . S
C2317 H2345 0.931 . S
C2318 C2317 1.347 . S
C2318 C2319 1.369 . S
C2319 C2318 1.369 . S
C2319 C2320 1.408 . S
C2319 H2346 0.930 . S
C2320 C2315 1.348 . S
C2320 C2319 1.408 . S
C2320 H2347 0.930 . S
C2321 O2334 1.281 . S
C2321 O2335 1.254 . S
C2322 O2336 1.236 . S
C2322 O2337 1.266 . S
C2323 Tb2313 2.809 . S
C2323 C2324 1.514 . S
C2323 O2338 1.248 . S
C2323 O2339 1.266 . S
C2324 C2323 1.514 . S
C2324 C2325 1.359 . S
C2324 C2329 1.348 . S
C2325 C2324 1.359 . S
C2325 C2326 1.380 . S
C2325 H2348 0.929 . S
C2326 C2325 1.380 . S
C2326 C2327 1.347 . S
C2326 H2349 0.931 . S
C2327 C2326 1.347 . S
C2327 C2328 1.369 . S
C2328 C2327 1.369 . S
C2328 C2329 1.408 . S
C2328 H2350 0.930 . S
C2329 C2324 1.348 . S
C2329 C2328 1.408 . S
C2329 H2351 0.930 . S
C2330 O2340 1.281 . S
C2330 O2341 1.254 . S
C2331 O2342 1.236 . S
C2331 O2343 1.266 . S
O2332 Tb2312 2.484 . S
O2332 C2314 1.248 . S
O2333 Tb2312 2.440 . S
O2333 C2314 1.266 . S
O2334 Tb2312 2.658 . S
O2334 Tb2313 2.325 . S
O2334 C2321 1.281 . S
O2335 Tb2312 2.409 . S
O2335 C2321 1.254 . S
O2336 Tb2312 2.378 . S
O2336 C2322 1.236 . S
O2337 Tb2313 2.341 . S
O2337 C2322 1.266 . S
O2338 Tb2313 2.484 . S
O2338 C2323 1.248 . S
O2339 Tb2313 2.440 . S
O2339 C2323 1.266 . S
O2340 Tb2312 2.325 . S
O2340 Tb2313 2.658 . S
O2340 C2330 1.281 . S
O2341 Tb2313 2.409 . S
O2341 C2330 1.254 . S
O2342 Tb2313 2.378 . S
O2342 C2331 1.236 . S
O2343 Tb2312 2.341 . S
O2343 C2331 1.266 . S
H2344 C2316 0.929 . S
H2345 C2317 0.931 . S
H2346 C2319 0.930 . S
H2347 C2320 0.930 . S
H2348 C2325 0.929 . S
H2349 C2326 0.931 . S
H2350 C2328 0.930 . S
H2351 C2329 0.930 . S
Tb2352 C2354 2.809 1_545 S
Tb2352 O2372 2.484 1_545 S
Tb2352 O2373 2.440 . S
Tb2352 O2374 2.658 . S
Tb2352 O2375 2.409 . S
Tb2352 O2376 2.378 . S
Tb2352 O2380 2.325 1_545 S
Tb2352 O2383 2.341 1_554 S
Tb2353 C2363 2.809 . S
Tb2353 O2374 2.325 . S
Tb2353 O2377 2.341 . S
Tb2353 O2378 2.484 . S
Tb2353 O2379 2.440 . S
Tb2353 O2380 2.658 1_545 S
Tb2353 O2381 2.409 1_545 S
Tb2353 O2382 2.378 . S
C2354 Tb2352 2.809 1_565 S
C2354 C2355 1.514 . S
C2354 O2372 1.248 . S
C2354 O2373 1.266 1_565 S
C2355 C2354 1.514 . S
C2355 C2356 1.359 . S
C2355 C2360 1.348 1_565 S
C2356 C2355 1.359 . S
C2356 C2357 1.380 . S
C2356 H2384 0.929 . S
C2357 C2356 1.380 . S
C2357 C2358 1.347 . S
C2357 H2385 0.931 . S
C2358 C2357 1.347 . S
C2358 C2359 1.369 . S
C2359 C2358 1.369 . S
C2359 C2360 1.408 1_565 S
C2359 H2386 0.930 1_565 S
C2360 C2355 1.348 1_545 S
C2360 C2359 1.408 1_545 S
C2360 H2387 0.930 . S
C2361 O2374 1.281 . S
C2361 O2375 1.254 . S
C2362 O2376 1.236 . S
C2362 O2377 1.266 . S
C2363 Tb2353 2.809 . S
C2363 C2364 1.514 . S
C2363 O2378 1.248 . S
C2363 O2379 1.266 . S
C2364 C2363 1.514 . S
C2364 C2365 1.359 . S
C2364 C2369 1.348 . S
C2365 C2364 1.359 . S
C2365 C2366 1.380 . S
C2365 H2388 0.929 . S
C2366 C2365 1.380 . S
C2366 C2367 1.347 . S
C2366 H2389 0.931 . S
C2367 C2366 1.347 . S
C2367 C2368 1.369 . S
C2368 C2367 1.369 . S
C2368 C2369 1.408 . S
C2368 H2390 0.930 . S
C2369 C2364 1.348 . S
C2369 C2368 1.408 . S
C2369 H2391 0.930 . S
C2370 O2380 1.281 . S
C2370 O2381 1.254 . S
C2371 O2382 1.236 1_556 S
C2371 O2383 1.266 . S
O2372 Tb2352 2.484 1_565 S
O2372 C2354 1.248 . S
O2373 Tb2352 2.440 . S
O2373 C2354 1.266 1_545 S
O2374 Tb2352 2.658 . S
O2374 Tb2353 2.325 . S
O2374 C2361 1.281 . S
O2375 Tb2352 2.409 . S
O2375 C2361 1.254 . S
O2376 Tb2352 2.378 . S
O2376 C2362 1.236 . S
O2377 Tb2353 2.341 . S
O2377 C2362 1.266 . S
O2378 Tb2353 2.484 . S
O2378 C2363 1.248 . S
O2379 Tb2353 2.440 . S
O2379 C2363 1.266 . S
O2380 Tb2352 2.325 1_565 S
O2380 Tb2353 2.658 1_565 S
O2380 C2370 1.281 . S
O2381 Tb2353 2.409 1_565 S
O2381 C2370 1.254 . S
O2382 Tb2353 2.378 . S
O2382 C2371 1.236 1_554 S
O2383 Tb2352 2.341 1_556 S
O2383 C2371 1.266 . S
H2384 C2356 0.929 . S
H2385 C2357 0.931 . S
H2386 C2359 0.930 1_545 S
H2387 C2360 0.930 . S
H2388 C2365 0.929 . S
H2389 C2366 0.931 . S
H2390 C2368 0.930 . S
H2391 C2369 0.930 . S
Tb2392 C2394 2.809 . S
Tb2392 O2412 2.484 . S
Tb2392 O2413 2.440 . S
Tb2392 O2414 2.658 . S
Tb2392 O2415 2.409 . S
Tb2392 O2416 2.378 . S
Tb2392 O2420 2.325 . S
Tb2392 O2423 2.341 . S
Tb2393 C2403 2.809 . S
Tb2393 O2414 2.325 . S
Tb2393 O2417 2.341 . S
Tb2393 O2418 2.484 . S
Tb2393 O2419 2.440 . S
Tb2393 O2420 2.658 . S
Tb2393 O2421 2.409 . S
Tb2393 O2422 2.378 . S
C2394 Tb2392 2.809 . S
C2394 C2395 1.514 . S
C2394 O2412 1.248 . S
C2394 O2413 1.266 . S
C2395 C2394 1.514 . S
C2395 C2396 1.359 . S
C2395 C2400 1.348 . S
C2396 C2395 1.359 . S
C2396 C2397 1.380 . S
C2396 H2424 0.929 . S
C2397 C2396 1.380 . S
C2397 C2398 1.347 . S
C2397 H2425 0.931 . S
C2398 C2397 1.347 . S
C2398 C2399 1.369 . S
C2399 C2398 1.369 . S
C2399 C2400 1.408 . S
C2399 H2426 0.930 . S
C2400 C2395 1.348 . S
C2400 C2399 1.408 . S
C2400 H2427 0.930 . S
C2401 O2414 1.281 . S
C2401 O2415 1.254 . S
C2402 O2416 1.236 . S
C2402 O2417 1.266 . S
C2403 Tb2393 2.809 . S
C2403 C2404 1.514 . S
C2403 O2418 1.248 . S
C2403 O2419 1.266 . S
C2404 C2403 1.514 . S
C2404 C2405 1.359 . S
C2404 C2409 1.348 . S
C2405 C2404 1.359 . S
C2405 C2406 1.380 . S
C2405 H2428 0.929 . S
C2406 C2405 1.380 . S
C2406 C2407 1.347 . S
C2406 H2429 0.931 . S
C2407 C2406 1.347 . S
C2407 C2408 1.369 . S
C2408 C2407 1.369 . S
C2408 C2409 1.408 . S
C2408 H2430 0.930 . S
C2409 C2404 1.348 . S
C2409 C2408 1.408 . S
C2409 H2431 0.930 . S
C2410 O2420 1.281 . S
C2410 O2421 1.254 . S
C2411 O2422 1.236 . S
C2411 O2423 1.266 . S
O2412 Tb2392 2.484 . S
O2412 C2394 1.248 . S
O2413 Tb2392 2.440 . S
O2413 C2394 1.266 . S
O2414 Tb2392 2.658 . S
O2414 Tb2393 2.325 . S
O2414 C2401 1.281 . S
O2415 Tb2392 2.409 . S
O2415 C2401 1.254 . S
O2416 Tb2392 2.378 . S
O2416 C2402 1.236 . S
O2417 Tb2393 2.341 . S
O2417 C2402 1.266 . S
O2418 Tb2393 2.484 . S
O2418 C2403 1.248 . S
O2419 Tb2393 2.440 . S
O2419 C2403 1.266 . S
O2420 Tb2392 2.325 . S
O2420 Tb2393 2.658 . S
O2420 C2410 1.281 . S
O2421 Tb2393 2.409 . S
O2421 C2410 1.254 . S
O2422 Tb2393 2.378 . S
O2422 C2411 1.236 . S
O2423 Tb2392 2.341 . S
O2423 C2411 1.266 . S
H2424 C2396 0.929 . S
H2425 C2397 0.931 . S
H2426 C2399 0.930 . S
H2427 C2400 0.930 . S
H2428 C2405 0.929 . S
H2429 C2406 0.931 . S
H2430 C2408 0.930 . S
H2431 C2409 0.930 . S
Tb2432 C2434 2.809 . S
Tb2432 O2452 2.484 . S
Tb2432 O2453 2.440 . S
Tb2432 O2454 2.658 . S
Tb2432 O2455 2.409 . S
Tb2432 O2456 2.338 1_554 S
Tb2432 O2460 2.325 . S
Tb2432 O2463 2.341 . S
Tb2433 C2443 2.809 . S
Tb2433 O2454 2.325 . S
Tb2433 O2457 2.341 1_554 S
Tb2433 O2458 2.484 . S
Tb2433 O2459 2.440 . S
Tb2433 O2460 2.658 . S
Tb2433 O2461 2.409 . S
Tb2433 O2462 2.378 . S
C2434 Tb2432 2.809 . S
C2434 C2435 1.514 1_554 S
C2434 O2452 1.248 . S
C2434 O2453 1.266 . S
C2435 C2434 1.514 1_556 S
C2435 C2436 1.359 . S
C2435 C2440 1.348 . S
C2436 C2435 1.359 . S
C2436 C2437 1.380 . S
C2436 H2464 0.929 . S
C2437 C2436 1.380 . S
C2437 C2438 1.347 . S
C2437 H2465 0.931 . S
C2438 C2437 1.347 . S
C2438 C2439 1.369 . S
C2439 C2438 1.369 . S
C2439 C2440 1.408 . S
C2439 H2466 0.930 . S
C2440 C2435 1.348 . S
C2440 C2439 1.408 . S
C2440 H2467 0.934 1_556 S
C2441 O2454 1.281 . S
C2441 O2455 1.254 . S
C2442 O2456 1.266 . S
C2442 O2457 1.266 . S
C2443 Tb2433 2.809 . S
C2443 C2444 1.514 . S
C2443 O2458 1.248 . S
C2443 O2459 1.266 . S
C2444 C2443 1.514 . S
C2444 C2445 1.359 . S
C2444 C2449 1.348 . S
C2445 C2444 1.359 . S
C2445 C2446 1.380 . S
C2445 H2468 0.929 . S
C2446 C2445 1.380 . S
C2446 C2447 1.347 . S
C2446 H2469 0.931 . S
C2447 C2446 1.347 . S
C2447 C2448 1.369 . S
C2448 C2447 1.369 . S
C2448 C2449 1.408 . S
C2448 H2470 0.930 . S
C2449 C2444 1.348 . S
C2449 C2448 1.408 . S
C2449 H2471 0.930 . S
C2450 O2460 1.281 . S
C2450 O2461 1.254 . S
C2451 O2462 1.236 . S
C2451 O2463 1.266 . S
O2452 Tb2432 2.484 . S
O2452 C2434 1.248 . S
O2453 Tb2432 2.440 . S
O2453 C2434 1.266 . S
O2454 Tb2432 2.658 . S
O2454 Tb2433 2.325 . S
O2454 C2441 1.281 . S
O2455 Tb2432 2.409 . S
O2455 C2441 1.254 . S
O2456 Tb2432 2.338 1_556 S
O2456 C2442 1.266 . S
O2457 Tb2433 2.341 1_556 S
O2457 C2442 1.266 . S
O2458 Tb2433 2.484 . S
O2458 C2443 1.248 . S
O2459 Tb2433 2.440 . S
O2459 C2443 1.266 . S
O2460 Tb2432 2.325 . S
O2460 Tb2433 2.658 . S
O2460 C2450 1.281 . S
O2461 Tb2433 2.409 . S
O2461 C2450 1.254 . S
O2462 Tb2433 2.378 . S
O2462 C2451 1.236 . S
O2463 Tb2432 2.341 . S
O2463 C2451 1.266 . S
H2464 C2436 0.929 . S
H2465 C2437 0.931 . S
H2466 C2439 0.930 . S
H2467 C2440 0.934 1_554 S
H2468 C2445 0.929 . S
H2469 C2446 0.931 . S
H2470 C2448 0.930 . S
H2471 C2449 0.930 . S
Tb2472 C2474 2.809 . S
Tb2472 O2492 2.484 . S
Tb2472 O2493 2.440 . S
Tb2472 O2494 2.658 . S
Tb2472 O2495 2.409 . S
Tb2472 O2496 2.378 . S
Tb2472 O2500 2.325 . S
Tb2472 O2503 2.341 . S
Tb2473 C2483 2.809 . S
Tb2473 O2494 2.325 . S
Tb2473 O2497 2.341 . S
Tb2473 O2498 2.484 . S
Tb2473 O2499 2.440 . S
Tb2473 O2500 2.658 . S
Tb2473 O2501 2.409 . S
Tb2473 O2502 2.378 . S
C2474 Tb2472 2.809 . S
C2474 C2475 1.514 . S
C2474 O2492 1.248 . S
C2474 O2493 1.266 . S
C2475 C2474 1.514 . S
C2475 C2476 1.359 . S
C2475 C2480 1.348 . S
C2476 C2475 1.359 . S
C2476 C2477 1.380 . S
C2476 H2504 0.929 . S
C2477 C2476 1.380 . S
C2477 C2478 1.347 . S
C2477 H2505 0.931 . S
C2478 C2477 1.347 . S
C2478 C2479 1.369 . S
C2479 C2478 1.369 . S
C2479 C2480 1.408 . S
C2479 H2506 0.930 . S
C2480 C2475 1.348 . S
C2480 C2479 1.408 . S
C2480 H2507 0.930 . S
C2481 O2494 1.281 . S
C2481 O2495 1.254 . S
C2482 O2496 1.236 . S
C2482 O2497 1.266 . S
C2483 Tb2473 2.809 . S
C2483 C2484 1.514 . S
C2483 O2498 1.248 . S
C2483 O2499 1.266 . S
C2484 C2483 1.514 . S
C2484 C2485 1.359 . S
C2484 C2489 1.348 . S
C2485 C2484 1.359 . S
C2485 C2486 1.380 . S
C2485 H2508 0.929 . S
C2486 C2485 1.380 . S
C2486 C2487 1.347 . S
C2486 H2509 0.931 . S
C2487 C2486 1.347 . S
C2487 C2488 1.369 . S
C2488 C2487 1.369 . S
C2488 C2489 1.408 . S
C2488 H2510 0.930 . S
C2489 C2484 1.348 . S
C2489 C2488 1.408 . S
C2489 H2511 0.930 . S
C2490 O2500 1.281 . S
C2490 O2501 1.254 . S
C2491 O2502 1.236 . S
C2491 O2503 1.266 . S
O2492 Tb2472 2.484 . S
O2492 C2474 1.248 . S
O2493 Tb2472 2.440 . S
O2493 C2474 1.266 . S
O2494 Tb2472 2.658 . S
O2494 Tb2473 2.325 . S
O2494 C2481 1.281 . S
O2495 Tb2472 2.409 . S
O2495 C2481 1.254 . S
O2496 Tb2472 2.378 . S
O2496 C2482 1.236 . S
O2497 Tb2473 2.341 . S
O2497 C2482 1.266 . S
O2498 Tb2473 2.484 . S
O2498 C2483 1.248 . S
O2499 Tb2473 2.440 . S
O2499 C2483 1.266 . S
O2500 Tb2472 2.325 . S
O2500 Tb2473 2.658 . S
O2500 C2490 1.281 . S
O2501 Tb2473 2.409 . S
O2501 C2490 1.254 . S
O2502 Tb2473 2.378 . S
O2502 C2491 1.236 . S
O2503 Tb2472 2.341 . S
O2503 C2491 1.266 . S
H2504 C2476 0.929 . S
H2505 C2477 0.931 . S
H2506 C2479 0.930 . S
H2507 C2480 0.930 . S
H2508 C2485 0.929 . S
H2509 C2486 0.931 . S
H2510 C2488 0.930 . S
H2511 C2489 0.930 . S
Tb2512 C2514 2.809 1_455 S
Tb2512 O2532 2.484 1_455 S
Tb2512 O2533 2.440 1_455 S
Tb2512 O2534 2.658 . S
Tb2512 O2535 2.409 . S
Tb2512 O2536 2.378 . S
Tb2512 O2540 2.325 . S
Tb2512 O2543 2.341 . S
Tb2513 C2523 2.809 . S
Tb2513 O2534 2.325 . S
Tb2513 O2537 2.341 . S
Tb2513 O2538 2.484 . S
Tb2513 O2539 2.440 . S
Tb2513 O2540 2.658 . S
Tb2513 O2541 2.409 . S
Tb2513 O2542 2.378 . S
C2514 Tb2512 2.809 1_655 S
C2514 C2515 1.514 . S
C2514 O2532 1.248 . S
C2514 O2533 1.266 . S
C2515 C2514 1.514 . S
C2515 C2516 1.359 . S
C2515 C2520 1.348 . S
C2516 C2515 1.359 . S
C2516 C2517 1.380 . S
C2516 H2544 0.929 . S
C2517 C2516 1.380 . S
C2517 C2518 1.347 . S
C2517 H2545 0.931 . S
C2518 C2517 1.347 . S
C2518 C2519 1.369 . S
C2519 C2518 1.369 . S
C2519 C2520 1.408 . S
C2519 H2546 0.930 . S
C2520 C2515 1.348 . S
C2520 C2519 1.408 . S
C2520 H2547 0.930 . S
C2521 O2534 1.281 . S
C2521 O2535 1.254 . S
C2522 O2536 1.236 . S
C2522 O2537 1.266 . S
C2523 Tb2513 2.809 . S
C2523 C2524 1.514 . S
C2523 O2538 1.248 . S
C2523 O2539 1.266 . S
C2524 C2523 1.514 . S
C2524 C2525 1.359 . S
C2524 C2529 1.348 . S
C2525 C2524 1.359 . S
C2525 C2526 1.380 . S
C2525 H2548 0.929 . S
C2526 C2525 1.380 . S
C2526 C2527 1.347 . S
C2526 H2549 0.931 . S
C2527 C2526 1.347 . S
C2527 C2528 1.369 . S
C2528 C2527 1.369 . S
C2528 C2529 1.408 . S
C2528 H2550 0.930 . S
C2529 C2524 1.348 . S
C2529 C2528 1.408 . S
C2529 H2551 0.930 . S
C2530 O2540 1.281 . S
C2530 O2541 1.254 . S
C2531 O2542 1.236 . S
C2531 O2543 1.266 . S
O2532 Tb2512 2.484 1_655 S
O2532 C2514 1.248 . S
O2533 Tb2512 2.440 1_655 S
O2533 C2514 1.266 . S
O2534 Tb2512 2.658 . S
O2534 Tb2513 2.325 . S
O2534 C2521 1.281 . S
O2535 Tb2512 2.409 . S
O2535 C2521 1.254 . S
O2536 Tb2512 2.378 . S
O2536 C2522 1.236 . S
O2537 Tb2513 2.341 . S
O2537 C2522 1.266 . S
O2538 Tb2513 2.484 . S
O2538 C2523 1.248 . S
O2539 Tb2513 2.440 . S
O2539 C2523 1.266 . S
O2540 Tb2512 2.325 . S
O2540 Tb2513 2.658 . S
O2540 C2530 1.281 . S
O2541 Tb2513 2.409 . S
O2541 C2530 1.254 . S
O2542 Tb2513 2.378 . S
O2542 C2531 1.236 . S
O2543 Tb2512 2.341 . S
O2543 C2531 1.266 . S
H2544 C2516 0.929 . S
H2545 C2517 0.931 . S
H2546 C2519 0.930 . S
H2547 C2520 0.930 . S
H2548 C2525 0.929 . S
H2549 C2526 0.931 . S
H2550 C2528 0.930 . S
H2551 C2529 0.930 . S
Tb2552 C2554 2.809 . S
Tb2552 O2572 2.484 . S
Tb2552 O2573 2.440 . S
Tb2552 O2574 2.658 . S
Tb2552 O2575 2.409 . S
Tb2552 O2576 2.378 . S
Tb2552 O2580 2.325 . S
Tb2552 O2583 2.341 . S
Tb2553 C2563 2.809 . S
Tb2553 O2574 2.325 . S
Tb2553 O2577 2.341 . S
Tb2553 O2578 2.484 . S
Tb2553 O2579 2.440 . S
Tb2553 O2580 2.658 . S
Tb2553 O2581 2.409 . S
Tb2553 O2582 2.378 . S
C2554 Tb2552 2.809 . S
C2554 C2555 1.514 . S
C2554 O2572 1.248 . S
C2554 O2573 1.266 . S
C2555 C2554 1.514 . S
C2555 C2556 1.359 . S
C2555 C2560 1.348 . S
C2556 C2555 1.359 . S
C2556 C2557 1.380 . S
C2556 H2584 0.929 . S
C2557 C2556 1.380 . S
C2557 C2558 1.347 . S
C2557 H2585 0.931 . S
C2558 C2557 1.347 . S
C2558 C2559 1.369 . S
C2559 C2558 1.369 . S
C2559 C2560 1.408 . S
C2559 H2586 0.930 . S
C2560 C2555 1.348 . S
C2560 C2559 1.408 . S
C2560 H2587 0.930 . S
C2561 O2574 1.281 . S
C2561 O2575 1.254 . S
C2562 O2576 1.236 . S
C2562 O2577 1.266 . S
C2563 Tb2553 2.809 . S
C2563 C2564 1.514 . S
C2563 O2578 1.248 . S
C2563 O2579 1.266 . S
C2564 C2563 1.514 . S
C2564 C2565 1.359 . S
C2564 C2569 1.348 . S
C2565 C2564 1.359 . S
C2565 C2566 1.380 . S
C2565 H2588 0.929 . S
C2566 C2565 1.380 . S
C2566 C2567 1.347 . S
C2566 H2589 0.931 . S
C2567 C2566 1.347 . S
C2567 C2568 1.369 . S
C2568 C2567 1.369 . S
C2568 C2569 1.408 . S
C2568 H2590 0.930 . S
C2569 C2564 1.348 . S
C2569 C2568 1.408 . S
C2569 H2591 0.930 . S
C2570 O2580 1.281 . S
C2570 O2581 1.254 . S
C2571 O2582 1.236 . S
C2571 O2583 1.266 . S
O2572 Tb2552 2.484 . S
O2572 C2554 1.248 . S
O2573 Tb2552 2.440 . S
O2573 C2554 1.266 . S
O2574 Tb2552 2.658 . S
O2574 Tb2553 2.325 . S
O2574 C2561 1.281 . S
O2575 Tb2552 2.409 . S
O2575 C2561 1.254 . S
O2576 Tb2552 2.378 . S
O2576 C2562 1.236 . S
O2577 Tb2553 2.341 . S
O2577 C2562 1.266 . S
O2578 Tb2553 2.484 . S
O2578 C2563 1.248 . S
O2579 Tb2553 2.440 . S
O2579 C2563 1.266 . S
O2580 Tb2552 2.325 . S
O2580 Tb2553 2.658 . S
O2580 C2570 1.281 . S
O2581 Tb2553 2.409 . S
O2581 C2570 1.254 . S
O2582 Tb2553 2.378 . S
O2582 C2571 1.236 . S
O2583 Tb2552 2.341 . S
O2583 C2571 1.266 . S
H2584 C2556 0.929 . S
H2585 C2557 0.931 . S
H2586 C2559 0.930 . S
H2587 C2560 0.930 . S
H2588 C2565 0.929 . S
H2589 C2566 0.931 . S
H2590 C2568 0.930 . S
H2591 C2569 0.930 . S
Tb2592 C2594 2.809 . S
Tb2592 O2612 2.484 . S
Tb2592 O2613 2.440 . S
Tb2592 O2614 2.658 . S
Tb2592 O2615 2.409 . S
Tb2592 O2616 2.378 . S
Tb2592 O2620 2.325 . S
Tb2592 O2623 2.341 . S
Tb2593 C2603 2.809 . S
Tb2593 O2614 2.325 . S
Tb2593 O2617 2.341 . S
Tb2593 O2618 2.484 . S
Tb2593 O2619 2.440 . S
Tb2593 O2620 2.658 . S
Tb2593 O2621 2.409 . S
Tb2593 O2622 2.378 . S
C2594 Tb2592 2.809 . S
C2594 C2595 1.514 . S
C2594 O2612 1.248 . S
C2594 O2613 1.266 . S
C2595 C2594 1.514 . S
C2595 C2596 1.359 . S
C2595 C2600 1.348 . S
C2596 C2595 1.359 . S
C2596 C2597 1.380 . S
C2596 H2624 0.929 . S
C2597 C2596 1.380 . S
C2597 C2598 1.347 . S
C2597 H2625 0.931 . S
C2598 C2597 1.347 . S
C2598 C2599 1.369 . S
C2599 C2598 1.369 . S
C2599 C2600 1.408 . S
C2599 H2626 0.930 . S
C2600 C2595 1.348 . S
C2600 C2599 1.408 . S
C2600 H2627 0.930 . S
C2601 O2614 1.281 . S
C2601 O2615 1.254 . S
C2602 O2616 1.236 . S
C2602 O2617 1.266 . S
C2603 Tb2593 2.809 . S
C2603 C2604 1.514 . S
C2603 O2618 1.248 . S
C2603 O2619 1.266 . S
C2604 C2603 1.514 . S
C2604 C2605 1.359 . S
C2604 C2609 1.348 . S
C2605 C2604 1.359 . S
C2605 C2606 1.380 . S
C2605 H2628 0.929 . S
C2606 C2605 1.380 . S
C2606 C2607 1.347 . S
C2606 H2629 0.931 . S
C2607 C2606 1.347 . S
C2607 C2608 1.369 . S
C2608 C2607 1.369 . S
C2608 C2609 1.408 . S
C2608 H2630 0.930 . S
C2609 C2604 1.348 . S
C2609 C2608 1.408 . S
C2609 H2631 0.930 . S
C2610 O2620 1.281 . S
C2610 O2621 1.254 . S
C2611 O2622 1.236 . S
C2611 O2623 1.266 . S
O2612 Tb2592 2.484 . S
O2612 C2594 1.248 . S
O2613 Tb2592 2.440 . S
O2613 C2594 1.266 . S
O2614 Tb2592 2.658 . S
O2614 Tb2593 2.325 . S
O2614 C2601 1.281 . S
O2615 Tb2592 2.409 . S
O2615 C2601 1.254 . S
O2616 Tb2592 2.378 . S
O2616 C2602 1.236 . S
O2617 Tb2593 2.341 . S
O2617 C2602 1.266 . S
O2618 Tb2593 2.484 . S
O2618 C2603 1.248 . S
O2619 Tb2593 2.440 . S
O2619 C2603 1.266 . S
O2620 Tb2592 2.325 . S
O2620 Tb2593 2.658 . S
O2620 C2610 1.281 . S
O2621 Tb2593 2.409 . S
O2621 C2610 1.254 . S
O2622 Tb2593 2.378 . S
O2622 C2611 1.236 . S
O2623 Tb2592 2.341 . S
O2623 C2611 1.266 . S
H2624 C2596 0.929 . S
H2625 C2597 0.931 . S
H2626 C2599 0.930 . S
H2627 C2600 0.930 . S
H2628 C2605 0.929 . S
H2629 C2606 0.931 . S
H2630 C2608 0.930 . S
H2631 C2609 0.930 . S
Tb2632 C2634 2.809 . S
Tb2632 O2652 2.484 . S
Tb2632 O2653 2.440 . S
Tb2632 O2654 2.658 . S
Tb2632 O2655 2.409 . S
Tb2632 O2656 2.378 . S
Tb2632 O2660 2.325 . S
Tb2632 O2663 2.341 . S
Tb2633 C2643 2.809 . S
Tb2633 O2654 2.325 . S
Tb2633 O2657 2.341 . S
Tb2633 O2658 2.484 . S
Tb2633 O2659 2.440 . S
Tb2633 O2660 2.658 . S
Tb2633 O2661 2.409 . S
Tb2633 O2662 2.378 . S
C2634 Tb2632 2.809 . S
C2634 C2635 1.514 . S
C2634 O2652 1.248 . S
C2634 O2653 1.266 . S
C2635 C2634 1.514 . S
C2635 C2636 1.359 . S
C2635 C2640 1.348 . S
C2636 C2635 1.359 . S
C2636 C2637 1.380 . S
C2636 H2664 0.929 . S
C2637 C2636 1.380 . S
C2637 C2638 1.347 . S
C2637 H2665 0.931 . S
C2638 C2637 1.347 . S
C2638 C2639 1.369 . S
C2639 C2638 1.369 . S
C2639 C2640 1.408 . S
C2639 H2666 0.930 . S
C2640 C2635 1.348 . S
C2640 C2639 1.408 . S
C2640 H2667 0.930 . S
C2641 O2654 1.281 . S
C2641 O2655 1.254 . S
C2642 O2656 1.236 . S
C2642 O2657 1.266 . S
C2643 Tb2633 2.809 . S
C2643 C2644 1.514 . S
C2643 O2658 1.248 . S
C2643 O2659 1.266 . S
C2644 C2643 1.514 . S
C2644 C2645 1.359 . S
C2644 C2649 1.348 . S
C2645 C2644 1.359 . S
C2645 C2646 1.380 . S
C2645 H2668 0.929 . S
C2646 C2645 1.380 . S
C2646 C2647 1.347 . S
C2646 H2669 0.931 . S
C2647 C2646 1.347 . S
C2647 C2648 1.369 . S
C2648 C2647 1.369 . S
C2648 C2649 1.408 . S
C2648 H2670 0.930 . S
C2649 C2644 1.348 . S
C2649 C2648 1.408 . S
C2649 H2671 0.930 . S
C2650 O2660 1.281 . S
C2650 O2661 1.254 . S
C2651 O2662 1.236 . S
C2651 O2663 1.266 . S
O2652 Tb2632 2.484 . S
O2652 C2634 1.248 . S
O2653 Tb2632 2.440 . S
O2653 C2634 1.266 . S
O2654 Tb2632 2.658 . S
O2654 Tb2633 2.325 . S
O2654 C2641 1.281 . S
O2655 Tb2632 2.409 . S
O2655 C2641 1.254 . S
O2656 Tb2632 2.378 . S
O2656 C2642 1.236 . S
O2657 Tb2633 2.341 . S
O2657 C2642 1.266 . S
O2658 Tb2633 2.484 . S
O2658 C2643 1.248 . S
O2659 Tb2633 2.440 . S
O2659 C2643 1.266 . S
O2660 Tb2632 2.325 . S
O2660 Tb2633 2.658 . S
O2660 C2650 1.281 . S
O2661 Tb2633 2.409 . S
O2661 C2650 1.254 . S
O2662 Tb2633 2.378 . S
O2662 C2651 1.236 . S
O2663 Tb2632 2.341 . S
O2663 C2651 1.266 . S
H2664 C2636 0.929 . S
H2665 C2637 0.931 . S
H2666 C2639 0.930 . S
H2667 C2640 0.930 . S
H2668 C2645 0.929 . S
H2669 C2646 0.931 . S
H2670 C2648 0.930 . S
H2671 C2649 0.930 . S
Tb2672 C2674 2.809 . S
Tb2672 O2692 2.484 . S
Tb2672 O2693 2.440 . S
Tb2672 O2694 2.658 . S
Tb2672 O2695 2.409 . S
Tb2672 O2696 2.378 . S
Tb2672 O2700 2.325 . S
Tb2672 O2703 2.341 . S
Tb2673 C2683 2.809 . S
Tb2673 O2694 2.325 . S
Tb2673 O2697 2.341 . S
Tb2673 O2698 2.484 . S
Tb2673 O2699 2.440 . S
Tb2673 O2700 2.658 . S
Tb2673 O2701 2.409 . S
Tb2673 O2702 2.378 . S
C2674 Tb2672 2.809 . S
C2674 C2675 1.514 . S
C2674 O2692 1.248 . S
C2674 O2693 1.266 . S
C2675 C2674 1.514 . S
C2675 C2676 1.359 . S
C2675 C2680 1.348 . S
C2676 C2675 1.359 . S
C2676 C2677 1.380 . S
C2676 H2704 0.929 . S
C2677 C2676 1.380 . S
C2677 C2678 1.347 . S
C2677 H2705 0.931 . S
C2678 C2677 1.347 . S
C2678 C2679 1.369 . S
C2679 C2678 1.369 . S
C2679 C2680 1.408 . S
C2679 H2706 0.930 . S
C2680 C2675 1.348 . S
C2680 C2679 1.408 . S
C2680 H2707 0.930 . S
C2681 O2694 1.281 . S
C2681 O2695 1.254 . S
C2682 O2696 1.236 . S
C2682 O2697 1.266 . S
C2683 Tb2673 2.809 . S
C2683 C2684 1.514 . S
C2683 O2698 1.248 . S
C2683 O2699 1.266 . S
C2684 C2683 1.514 . S
C2684 C2685 1.359 . S
C2684 C2689 1.348 . S
C2685 C2684 1.359 . S
C2685 C2686 1.380 . S
C2685 H2708 0.929 . S
C2686 C2685 1.380 . S
C2686 C2687 1.347 . S
C2686 H2709 0.931 . S
C2687 C2686 1.347 . S
C2687 C2688 1.369 . S
C2688 C2687 1.369 . S
C2688 C2689 1.408 . S
C2688 H2710 0.930 . S
C2689 C2684 1.348 . S
C2689 C2688 1.408 . S
C2689 H2711 0.930 . S
C2690 O2700 1.281 . S
C2690 O2701 1.254 . S
C2691 O2702 1.236 . S
C2691 O2703 1.266 . S
O2692 Tb2672 2.484 . S
O2692 C2674 1.248 . S
O2693 Tb2672 2.440 . S
O2693 C2674 1.266 . S
O2694 Tb2672 2.658 . S
O2694 Tb2673 2.325 . S
O2694 C2681 1.281 . S
O2695 Tb2672 2.409 . S
O2695 C2681 1.254 . S
O2696 Tb2672 2.378 . S
O2696 C2682 1.236 . S
O2697 Tb2673 2.341 . S
O2697 C2682 1.266 . S
O2698 Tb2673 2.484 . S
O2698 C2683 1.248 . S
O2699 Tb2673 2.440 . S
O2699 C2683 1.266 . S
O2700 Tb2672 2.325 . S
O2700 Tb2673 2.658 . S
O2700 C2690 1.281 . S
O2701 Tb2673 2.409 . S
O2701 C2690 1.254 . S
O2702 Tb2673 2.378 . S
O2702 C2691 1.236 . S
O2703 Tb2672 2.341 . S
O2703 C2691 1.266 . S
H2704 C2676 0.929 . S
H2705 C2677 0.931 . S
H2706 C2679 0.930 . S
H2707 C2680 0.930 . S
H2708 C2685 0.929 . S
H2709 C2686 0.931 . S
H2710 C2688 0.930 . S
H2711 C2689 0.930 . S
Tb2712 C2714 2.809 . S
Tb2712 O2732 2.484 . S
Tb2712 O2733 2.451 . S
Tb2712 O2734 2.658 . S
Tb2712 O2735 2.409 1_554 S
Tb2712 O2736 2.378 . S
Tb2712 O2740 2.325 . S
Tb2712 O2743 2.341 . S
Tb2713 C2723 2.809 1_455 S
Tb2713 O2734 2.325 . S
Tb2713 O2737 2.341 . S
Tb2713 O2738 2.484 1_455 S
Tb2713 O2739 2.440 1_455 S
Tb2713 O2740 2.658 . S
Tb2713 O2741 2.409 . S
Tb2713 O2742 2.378 . S
C2714 Tb2712 2.809 . S
C2714 C2715 1.514 . S
C2714 O2732 1.248 . S
C2714 O2733 1.279 . S
C2715 C2714 1.514 . S
C2715 C2716 1.359 . S
C2715 C2720 1.348 1_554 S
C2716 C2715 1.359 . S
C2716 C2717 1.380 . S
C2716 H2744 0.929 . S
C2717 C2716 1.380 . S
C2717 C2718 1.347 . S
C2717 H2745 0.931 . S
C2718 C2717 1.347 . S
C2718 C2719 1.369 1_554 S
C2719 C2718 1.369 1_556 S
C2719 C2720 1.408 . S
C2719 H2746 0.930 . S
C2720 C2715 1.348 1_556 S
C2720 C2719 1.408 . S
C2720 H2747 0.930 . S
C2721 O2734 1.281 1_556 S
C2721 O2735 1.254 . S
C2722 O2736 1.236 . S
C2722 O2737 1.266 . S
C2723 Tb2713 2.809 1_655 S
C2723 C2724 1.514 . S
C2723 O2738 1.248 . S
C2723 O2739 1.266 . S
C2724 C2723 1.514 . S
C2724 C2725 1.359 . S
C2724 C2729 1.348 . S
C2725 C2724 1.359 . S
C2725 C2726 1.380 . S
C2725 H2748 0.929 . S
C2726 C2725 1.380 . S
C2726 C2727 1.347 . S
C2726 H2749 0.931 . S
C2727 C2726 1.347 . S
C2727 C2728 1.369 . S
C2728 C2727 1.369 . S
C2728 C2729 1.408 . S
C2728 H2750 0.930 . S
C2729 C2724 1.348 . S
C2729 C2728 1.408 . S
C2729 H2751 0.930 . S
C2730 O2740 1.281 . S
C2730 O2741 1.254 . S
C2731 O2742 1.236 . S
C2731 O2743 1.266 . S
O2732 Tb2712 2.484 . S
O2732 C2714 1.248 . S
O2733 Tb2712 2.451 . S
O2733 C2714 1.279 . S
O2734 Tb2712 2.658 . S
O2734 Tb2713 2.325 . S
O2734 C2721 1.281 1_554 S
O2735 Tb2712 2.409 1_556 S
O2735 C2721 1.254 . S
O2736 Tb2712 2.378 . S
O2736 C2722 1.236 . S
O2737 Tb2713 2.341 . S
O2737 C2722 1.266 . S
O2738 Tb2713 2.484 1_655 S
O2738 C2723 1.248 . S
O2739 Tb2713 2.440 1_655 S
O2739 C2723 1.266 . S
O2740 Tb2712 2.325 . S
O2740 Tb2713 2.658 . S
O2740 C2730 1.281 . S
O2741 Tb2713 2.409 . S
O2741 C2730 1.254 . S
O2742 Tb2713 2.378 . S
O2742 C2731 1.236 . S
O2743 Tb2712 2.341 . S
O2743 C2731 1.266 . S
H2744 C2716 0.929 . S
H2745 C2717 0.931 . S
H2746 C2719 0.930 . S
H2747 C2720 0.930 . S
H2748 C2725 0.929 . S
H2749 C2726 0.931 . S
H2750 C2728 0.930 . S
H2751 C2729 0.930 . S
H2752 C2758 0.930 . S
H2753 C2762 0.922 1_655 S
H2754 C2767 0.988 . S
H2755 C2765 0.929 . S
H2756 C2760 0.929 1_656 S
H2757 C2766 0.929 . S
C2758 H2752 0.930 . S
C2758 C2759 1.367 1_554 S
C2758 C2766 1.378 . S
C2759 C2758 1.367 1_556 S
C2759 C2767 1.393 1_455 S
C2760 H2756 0.929 1_454 S
C2760 C2762 1.378 . S
C2760 C2764 1.350 . S
C2761 C2764 1.463 . S
C2761 C2766 1.350 . S
C2761 N2769 1.427 1_554 S
C2762 H2753 0.922 1_455 S
C2762 C2760 1.378 . S
C2762 C2763 1.367 . S
C2763 C2762 1.367 . S
C2763 C2765 1.433 . S
C2764 C2760 1.350 . S
C2764 C2761 1.463 . S
C2764 N2768 1.427 . S
C2765 H2755 0.929 . S
C2765 C2763 1.433 . S
C2765 N2768 1.384 . S
C2766 H2757 0.929 . S
C2766 C2758 1.378 . S
C2766 C2761 1.350 . S
C2767 H2754 0.988 . S
C2767 C2759 1.393 1_655 S
C2767 N2769 1.366 1_655 S
N2768 C2764 1.427 . S
N2768 C2765 1.384 . S
N2769 C2761 1.427 1_556 S
N2769 C2767 1.366 1_455 S
H2770 C2776 0.930 . S
H2771 C2780 0.930 . S
H2772 C2785 0.929 . S
H2773 C2783 0.929 . S
H2774 C2778 0.929 . S
H2775 C2784 0.929 . S
C2776 H2770 0.930 . S
C2776 C2777 1.367 . S
C2776 C2784 1.378 . S
C2777 C2776 1.367 . S
C2777 C2785 1.433 . S
C2778 H2774 0.929 . S
C2778 C2780 1.378 . S
C2778 C2782 1.350 . S
C2779 C2782 1.463 . S
C2779 C2784 1.350 . S
C2779 N2787 1.427 . S
C2780 H2771 0.930 . S
C2780 C2778 1.378 . S
C2780 C2781 1.367 . S
C2781 C2780 1.367 . S
C2781 C2783 1.433 . S
C2782 C2778 1.350 . S
C2782 C2779 1.463 . S
C2782 N2786 1.427 . S
C2783 H2773 0.929 . S
C2783 C2781 1.433 . S
C2783 N2786 1.384 . S
C2784 H2775 0.929 . S
C2784 C2776 1.378 . S
C2784 C2779 1.350 . S
C2785 H2772 0.929 . S
C2785 C2777 1.433 . S
C2785 N2787 1.384 . S
N2786 C2782 1.427 . S
N2786 C2783 1.384 . S
N2787 C2779 1.427 . S
N2787 C2785 1.384 . S
H2788 C2794 0.930 . S
H2789 C2798 0.930 . S
H2790 C2803 0.929 . S
H2791 C2801 0.929 . S
H2792 C2796 0.929 . S
H2793 C2802 0.929 . S
C2794 H2788 0.930 . S
C2794 C2795 1.367 . S
C2794 C2802 1.378 . S
C2795 C2794 1.367 . S
C2795 C2803 1.433 . S
C2796 H2792 0.929 . S
C2796 C2798 1.378 . S
C2796 C2800 1.350 . S
C2797 C2800 1.463 . S
C2797 C2802 1.350 . S
C2797 N2805 1.427 . S
C2798 H2789 0.930 . S
C2798 C2796 1.378 . S
C2798 C2799 1.367 . S
C2799 C2798 1.367 . S
C2799 C2801 1.433 . S
C2800 C2796 1.350 . S
C2800 C2797 1.463 . S
C2800 N2804 1.427 . S
C2801 H2791 0.929 . S
C2801 C2799 1.433 . S
C2801 N2804 1.384 . S
C2802 H2793 0.929 . S
C2802 C2794 1.378 . S
C2802 C2797 1.350 . S
C2803 H2790 0.929 . S
C2803 C2795 1.433 . S
C2803 N2805 1.384 . S
N2804 C2800 1.427 . S
N2804 C2801 1.384 . S
N2805 C2797 1.427 . S
N2805 C2803 1.384 . S
H2806 C2812 0.930 . S
H2807 C2816 0.930 . S
H2808 C2821 0.929 . S
H2809 C2819 0.929 . S
H2810 C2814 0.929 . S
H2811 C2820 0.929 . S
C2812 H2806 0.930 . S
C2812 C2813 1.367 . S
C2812 C2820 1.378 . S
C2813 C2812 1.367 . S
C2813 C2821 1.433 . S
C2814 H2810 0.929 . S
C2814 C2816 1.378 . S
C2814 C2818 1.350 . S
C2815 C2818 1.463 . S
C2815 C2820 1.350 . S
C2815 N2823 1.427 . S
C2816 H2807 0.930 . S
C2816 C2814 1.378 . S
C2816 C2817 1.367 . S
C2817 C2816 1.367 . S
C2817 C2819 1.433 . S
C2818 C2814 1.350 . S
C2818 C2815 1.463 . S
C2818 N2822 1.427 . S
C2819 H2809 0.929 . S
C2819 C2817 1.433 . S
C2819 N2822 1.384 . S
C2820 H2811 0.929 . S
C2820 C2812 1.378 . S
C2820 C2815 1.350 . S
C2821 H2808 0.929 . S
C2821 C2813 1.433 . S
C2821 N2823 1.384 . S
N2822 C2818 1.427 . S
N2822 C2819 1.384 . S
N2823 C2815 1.427 . S
N2823 C2821 1.384 . S
H2824 C2830 0.930 . S
H2825 C2834 0.930 . S
H2826 C2839 0.929 . S
H2827 C2837 0.929 . S
H2828 C2832 0.929 . S
H2829 C2838 0.929 . S
C2830 H2824 0.930 . S
C2830 C2831 1.367 . S
C2830 C2838 1.378 . S
C2831 C2830 1.367 . S
C2831 C2839 1.433 . S
C2832 H2828 0.929 . S
C2832 C2834 1.378 . S
C2832 C2836 1.350 . S
C2833 C2836 1.463 . S
C2833 C2838 1.350 . S
C2833 N2841 1.427 . S
C2834 H2825 0.930 . S
C2834 C2832 1.378 . S
C2834 C2835 1.367 . S
C2835 C2834 1.367 . S
C2835 C2837 1.433 . S
C2836 C2832 1.350 . S
C2836 C2833 1.463 . S
C2836 N2840 1.427 . S
C2837 H2827 0.929 . S
C2837 C2835 1.433 . S
C2837 N2840 1.384 . S
C2838 H2829 0.929 . S
C2838 C2830 1.378 . S
C2838 C2833 1.350 . S
C2839 H2826 0.929 . S
C2839 C2831 1.433 . S
C2839 N2841 1.384 . S
N2840 C2836 1.427 . S
N2840 C2837 1.384 . S
N2841 C2833 1.427 . S
N2841 C2839 1.384 . S
H2842 C2848 0.930 . S
H2843 C2852 0.930 . S
H2844 C2857 0.929 . S
H2845 C2855 0.929 . S
H2846 C2850 0.929 . S
H2847 C2856 0.929 . S
C2848 H2842 0.930 . S
C2848 C2849 1.367 . S
C2848 C2856 1.378 . S
C2849 C2848 1.367 . S
C2849 C2857 1.433 . S
C2850 H2846 0.929 . S
C2850 C2852 1.378 . S
C2850 C2854 1.350 . S
C2851 C2854 1.463 . S
C2851 C2856 1.350 . S
C2851 N2859 1.427 . S
C2852 H2843 0.930 . S
C2852 C2850 1.378 . S
C2852 C2853 1.367 . S
C2853 C2852 1.367 . S
C2853 C2855 1.433 . S
C2854 C2850 1.350 . S
C2854 C2851 1.463 . S
C2854 N2858 1.427 . S
C2855 H2845 0.929 . S
C2855 C2853 1.433 . S
C2855 N2858 1.384 . S
C2856 H2847 0.929 . S
C2856 C2848 1.378 . S
C2856 C2851 1.350 . S
C2857 H2844 0.929 . S
C2857 C2849 1.433 . S
C2857 N2859 1.384 . S
N2858 C2854 1.427 . S
N2858 C2855 1.384 . S
N2859 C2851 1.427 . S
N2859 C2857 1.384 . S
H2860 C2866 0.930 . S
H2861 C2870 0.930 . S
H2862 C2875 0.929 . S
H2863 C2873 0.929 . S
H2864 C2868 0.929 . S
H2865 C2874 0.929 . S
C2866 H2860 0.930 . S
C2866 C2867 1.367 . S
C2866 C2874 1.378 . S
C2867 C2866 1.367 . S
C2867 C2875 1.433 . S
C2868 H2864 0.929 . S
C2868 C2870 1.378 . S
C2868 C2872 1.350 . S
C2869 C2872 1.463 . S
C2869 C2874 1.350 . S
C2869 N2877 1.427 . S
C2870 H2861 0.930 . S
C2870 C2868 1.378 . S
C2870 C2871 1.367 . S
C2871 C2870 1.367 . S
C2871 C2873 1.433 . S
C2872 C2868 1.350 . S
C2872 C2869 1.463 . S
C2872 N2876 1.427 . S
C2873 H2863 0.929 . S
C2873 C2871 1.433 . S
C2873 N2876 1.384 . S
C2874 H2865 0.929 . S
C2874 C2866 1.378 . S
C2874 C2869 1.350 . S
C2875 H2862 0.929 . S
C2875 C2867 1.433 . S
C2875 N2877 1.384 . S
N2876 C2872 1.427 . S
N2876 C2873 1.384 . S
N2877 C2869 1.427 . S
N2877 C2875 1.384 . S
H2878 C2884 0.930 . S
H2879 C2888 0.930 . S
H2880 C2893 0.929 . S
H2881 C2891 0.929 . S
H2882 C2886 0.929 . S
H2883 C2892 0.929 . S
C2884 H2878 0.930 . S
C2884 C2885 1.367 . S
C2884 C2892 1.378 . S
C2885 C2884 1.367 . S
C2885 C2893 1.433 . S
C2886 H2882 0.929 . S
C2886 C2888 1.378 . S
C2886 C2890 1.350 . S
C2887 C2890 1.463 . S
C2887 C2892 1.350 . S
C2887 N2895 1.427 . S
C2888 H2879 0.930 . S
C2888 C2886 1.378 . S
C2888 C2889 1.367 . S
C2889 C2888 1.367 . S
C2889 C2891 1.433 . S
C2890 C2886 1.350 . S
C2890 C2887 1.463 . S
C2890 N2894 1.427 . S
C2891 H2881 0.929 . S
C2891 C2889 1.433 . S
C2891 N2894 1.384 . S
C2892 H2883 0.929 . S
C2892 C2884 1.378 . S
C2892 C2887 1.350 . S
C2893 H2880 0.929 . S
C2893 C2885 1.433 . S
C2893 N2895 1.384 . S
N2894 C2890 1.427 . S
N2894 C2891 1.384 . S
N2895 C2887 1.427 . S
N2895 C2893 1.384 . S
H2896 C2902 0.930 . S
H2897 C2906 0.930 . S
H2898 C2911 0.929 . S
H2899 C2909 0.924 . S
H2900 C2904 0.929 . S
H2901 C2910 0.929 . S
C2902 H2896 0.930 . S
C2902 C2903 1.367 1_565 S
C2902 C2910 1.378 . S
C2903 C2902 1.367 1_545 S
C2903 C2911 1.433 . S
C2904 H2900 0.929 . S
C2904 C2906 1.378 . S
C2904 C2908 1.350 . S
C2905 C2908 1.463 1_655 S
C2905 C2910 1.350 1_545 S
C2905 N2913 1.427 . S
C2906 H2897 0.930 . S
C2906 C2904 1.378 . S
C2906 C2907 1.367 . S
C2907 C2906 1.367 . S
C2907 C2909 1.439 1_545 S
C2908 C2904 1.350 . S
C2908 C2905 1.463 1_455 S
C2908 N2912 1.427 1_545 S
C2909 H2899 0.924 . S
C2909 C2907 1.439 1_565 S
C2909 N2912 1.383 . S
C2910 H2901 0.929 . S
C2910 C2902 1.378 . S
C2910 C2905 1.350 1_565 S
C2911 H2898 0.929 . S
C2911 C2903 1.433 . S
C2911 N2913 1.384 . S
N2912 C2908 1.427 1_565 S
N2912 C2909 1.383 . S
N2913 C2905 1.427 . S
N2913 C2911 1.384 . S
H2914 C2920 0.930 . S
H2915 C2924 0.930 . S
H2916 C2929 0.929 . S
H2917 C2927 0.929 . S
H2918 C2922 0.929 . S
H2919 C2928 0.929 . S
C2920 H2914 0.930 . S
C2920 C2921 1.367 . S
C2920 C2928 1.378 . S
C2921 C2920 1.367 . S
C2921 C2929 1.433 . S
C2922 H2918 0.929 . S
C2922 C2924 1.378 . S
C2922 C2926 1.350 . S
C2923 C2926 1.463 . S
C2923 C2928 1.350 . S
C2923 N2931 1.427 . S
C2924 H2915 0.930 . S
C2924 C2922 1.378 . S
C2924 C2925 1.367 . S
C2925 C2924 1.367 . S
C2925 C2927 1.433 . S
C2926 C2922 1.350 . S
C2926 C2923 1.463 . S
C2926 N2930 1.427 . S
C2927 H2917 0.929 . S
C2927 C2925 1.433 . S
C2927 N2930 1.384 . S
C2928 H2919 0.929 . S
C2928 C2920 1.378 . S
C2928 C2923 1.350 . S
C2929 H2916 0.929 . S
C2929 C2921 1.433 . S
C2929 N2931 1.384 . S
N2930 C2926 1.427 . S
N2930 C2927 1.384 . S
N2931 C2923 1.427 . S
N2931 C2929 1.384 . S
H2932 C2938 0.930 . S
H2933 C2942 0.930 . S
H2934 C2947 0.929 . S
H2935 C2945 0.929 . S
H2936 C2940 0.929 . S
H2937 C2946 0.929 . S
C2938 H2932 0.930 . S
C2938 C2939 1.367 . S
C2938 C2946 1.378 . S
C2939 C2938 1.367 . S
C2939 C2947 1.433 1_545 S
C2940 H2936 0.929 . S
C2940 C2942 1.378 . S
C2940 C2944 1.350 1_565 S
C2941 C2944 1.463 . S
C2941 C2946 1.350 . S
C2941 N2949 1.427 1_545 S
C2942 H2933 0.930 . S
C2942 C2940 1.378 . S
C2942 C2943 1.367 1_565 S
C2943 C2942 1.367 1_545 S
C2943 C2945 1.433 . S
C2944 C2940 1.350 1_545 S
C2944 C2941 1.463 . S
C2944 N2948 1.427 . S
C2945 H2935 0.929 . S
C2945 C2943 1.433 . S
C2945 N2948 1.384 . S
C2946 H2937 0.929 . S
C2946 C2938 1.378 . S
C2946 C2941 1.350 . S
C2947 H2934 0.929 . S
C2947 C2939 1.433 1_565 S
C2947 N2949 1.384 . S
N2948 C2944 1.427 . S
N2948 C2945 1.384 . S
N2949 C2941 1.427 1_565 S
N2949 C2947 1.384 . S
H2950 C2956 0.930 . S
H2951 C2960 0.930 . S
H2952 C2965 0.929 . S
H2953 C2963 0.929 . S
H2954 C2958 0.929 . S
H2955 C2964 0.929 . S
C2956 H2950 0.930 . S
C2956 C2957 1.367 . S
C2956 C2964 1.378 . S
C2957 C2956 1.367 . S
C2957 C2965 1.433 . S
C2958 H2954 0.929 . S
C2958 C2960 1.378 . S
C2958 C2962 1.350 . S
C2959 C2962 1.463 . S
C2959 C2964 1.350 . S
C2959 N2967 1.427 . S
C2960 H2951 0.930 . S
C2960 C2958 1.378 . S
C2960 C2961 1.367 . S
C2961 C2960 1.367 . S
C2961 C2963 1.433 . S
C2962 C2958 1.350 . S
C2962 C2959 1.463 . S
C2962 N2966 1.427 . S
C2963 H2953 0.929 . S
C2963 C2961 1.433 . S
C2963 N2966 1.384 . S
C2964 H2955 0.929 . S
C2964 C2956 1.378 . S
C2964 C2959 1.350 . S
C2965 H2952 0.929 . S
C2965 C2957 1.433 . S
C2965 N2967 1.384 . S
N2966 C2962 1.427 . S
N2966 C2963 1.384 . S
N2967 C2959 1.427 . S
N2967 C2965 1.384 . S
H2968 C2974 0.951 1_565 S
H2969 C2978 0.930 . S
H2970 C2983 0.929 . S
H2971 C2981 0.929 . S
H2972 C2976 0.929 . S
H2973 C2982 0.929 1_565 S
C2974 H2968 0.951 1_545 S
C2974 C2975 1.367 . S
C2974 C2982 1.378 1_655 S
C2975 C2974 1.367 . S
C2975 C2983 1.433 . S
C2976 H2972 0.929 . S
C2976 C2978 1.378 . S
C2976 C2980 1.350 . S
C2977 C2980 1.463 . S
C2977 C2982 1.350 . S
C2977 N2985 1.427 1_455 S
C2978 H2969 0.930 . S
C2978 C2976 1.378 . S
C2978 C2979 1.367 . S
C2979 C2978 1.367 . S
C2979 C2981 1.433 1_545 S
C2980 C2976 1.350 . S
C2980 C2977 1.463 . S
C2980 N2984 1.426 1_545 S
C2981 H2971 0.929 . S
C2981 C2979 1.433 1_565 S
C2981 N2984 1.384 . S
C2982 H2973 0.929 1_545 S
C2982 C2974 1.378 1_455 S
C2982 C2977 1.350 . S
C2983 H2970 0.929 . S
C2983 C2975 1.433 . S
C2983 N2985 1.384 . S
N2984 C2980 1.426 1_565 S
N2984 C2981 1.384 . S
N2985 C2977 1.427 1_655 S
N2985 C2983 1.384 . S
H2986 C2992 0.930 . S
H2987 C2996 0.930 . S
H2988 C3001 0.929 . S
H2989 C2999 0.929 . S
H2990 C2994 0.929 . S
H2991 C3000 0.929 . S
C2992 H2986 0.930 . S
C2992 C2993 1.367 . S
C2992 C3000 1.378 . S
C2993 C2992 1.367 . S
C2993 C3001 1.433 . S
C2994 H2990 0.929 . S
C2994 C2996 1.378 . S
C2994 C2998 1.350 . S
C2995 C2998 1.463 . S
C2995 C3000 1.350 . S
C2995 N3003 1.427 . S
C2996 H2987 0.930 . S
C2996 C2994 1.378 . S
C2996 C2997 1.367 . S
C2997 C2996 1.367 . S
C2997 C2999 1.433 . S
C2998 C2994 1.350 . S
C2998 C2995 1.463 . S
C2998 N3002 1.427 . S
C2999 H2989 0.929 . S
C2999 C2997 1.433 . S
C2999 N3002 1.384 . S
C3000 H2991 0.929 . S
C3000 C2992 1.378 . S
C3000 C2995 1.350 . S
C3001 H2988 0.929 . S
C3001 C2993 1.433 . S
C3001 N3003 1.384 . S
N3002 C2998 1.427 . S
N3002 C2999 1.384 . S
N3003 C2995 1.427 . S
N3003 C3001 1.384 . S
H3004 C3010 0.920 1_565 S
H3005 C3014 0.930 . S
H3006 C3019 0.929 . S
H3007 C3017 0.929 . S
H3008 C3012 0.929 . S
H3009 C3018 0.929 1_565 S
C3010 H3004 0.920 1_545 S
C3010 C3011 1.375 . S
C3010 C3018 1.380 . S
C3011 C3010 1.375 . S
C3011 C3019 1.433 . S
C3012 H3008 0.929 . S
C3012 C3014 1.378 . S
C3012 C3016 1.350 . S
C3013 C3016 1.463 . S
C3013 C3018 1.350 . S
C3013 N3021 1.427 . S
C3014 H3005 0.930 . S
C3014 C3012 1.378 . S
C3014 C3015 1.367 . S
C3015 C3014 1.367 . S
C3015 C3017 1.433 . S
C3016 C3012 1.350 . S
C3016 C3013 1.463 . S
C3016 N3020 1.427 . S
C3017 H3007 0.929 . S
C3017 C3015 1.433 . S
C3017 N3020 1.384 . S
C3018 H3009 0.929 1_545 S
C3018 C3010 1.380 . S
C3018 C3013 1.350 . S
C3019 H3006 0.929 . S
C3019 C3011 1.433 . S
C3019 N3021 1.384 . S
N3020 C3016 1.427 . S
N3020 C3017 1.384 . S
N3021 C3013 1.427 . S
N3021 C3019 1.384 . S
H3022 C3028 0.930 . S
H3023 C3032 0.930 . S
H3024 C3037 0.929 . S
H3025 C3035 0.929 . S
H3026 C3030 0.929 . S
H3027 C3036 0.929 . S
C3028 H3022 0.930 . S
C3028 C3029 1.367 . S
C3028 C3036 1.378 . S
C3029 C3028 1.367 . S
C3029 C3037 1.433 . S
C3030 H3026 0.929 . S
C3030 C3032 1.378 . S
C3030 C3034 1.350 . S
C3031 C3034 1.463 . S
C3031 C3036 1.350 . S
C3031 N3039 1.427 . S
C3032 H3023 0.930 . S
C3032 C3030 1.378 . S
C3032 C3033 1.367 . S
C3033 C3032 1.367 . S
C3033 C3035 1.433 . S
C3034 C3030 1.350 . S
C3034 C3031 1.463 . S
C3034 N3038 1.427 . S
C3035 H3025 0.929 . S
C3035 C3033 1.433 . S
C3035 N3038 1.384 . S
C3036 H3027 0.929 . S
C3036 C3028 1.378 . S
C3036 C3031 1.350 . S
C3037 H3024 0.929 . S
C3037 C3029 1.433 . S
C3037 N3039 1.384 . S
N3038 C3034 1.427 . S
N3038 C3035 1.384 . S
N3039 C3031 1.427 . S
N3039 C3037 1.384 . S
H3040 C3046 0.930 . S
H3041 C3050 0.930 . S
H3042 C3055 0.929 . S
H3043 C3053 0.929 . S
H3044 C3048 0.929 . S
H3045 C3054 0.929 . S
C3046 H3040 0.930 . S
C3046 C3047 1.367 . S
C3046 C3054 1.378 . S
C3047 C3046 1.367 . S
C3047 C3055 1.433 1_554 S
C3048 H3044 0.929 . S
C3048 C3050 1.378 . S
C3048 C3052 1.350 . S
C3049 C3052 1.463 . S
C3049 C3054 1.350 . S
C3049 N3057 1.482 . S
C3050 H3041 0.930 . S
C3050 C3048 1.378 . S
C3050 C3051 1.367 . S
C3051 C3050 1.367 . S
C3051 C3053 1.433 . S
C3052 C3048 1.350 . S
C3052 C3049 1.463 . S
C3052 N3056 1.427 . S
C3053 H3043 0.929 . S
C3053 C3051 1.433 . S
C3053 N3056 1.384 . S
C3054 H3045 0.929 . S
C3054 C3046 1.378 . S
C3054 C3049 1.350 . S
C3055 H3042 0.929 . S
C3055 C3047 1.433 1_556 S
C3055 N3057 1.357 1_556 S
N3056 C3052 1.427 . S
N3056 C3053 1.384 . S
N3057 C3049 1.482 . S
N3057 C3055 1.357 1_554 S
H3058 C3064 0.930 . S
H3059 C3068 0.930 1_556 S
H3060 C3073 0.929 . S
H3061 C3071 0.929 . S
H3062 C3066 0.929 1_556 S
H3063 C3072 0.929 . S
C3064 H3058 0.930 . S
C3064 C3065 1.367 . S
C3064 C3072 1.378 . S
C3065 C3064 1.367 . S
C3065 C3073 1.433 1_554 S
C3066 H3062 0.929 1_554 S
C3066 C3068 1.378 . S
C3066 C3070 1.350 . S
C3067 C3070 1.463 . S
C3067 C3072 1.350 . S
C3067 N3075 1.462 . S
C3068 H3059 0.930 1_554 S
C3068 C3066 1.378 . S
C3068 C3069 1.367 . S
C3069 C3068 1.367 . S
C3069 C3071 1.433 . S
C3070 C3066 1.350 . S
C3070 C3067 1.463 . S
C3070 N3074 1.427 . S
C3071 H3061 0.929 . S
C3071 C3069 1.433 . S
C3071 N3074 1.384 . S
C3072 H3063 0.929 . S
C3072 C3064 1.378 . S
C3072 C3067 1.350 . S
C3073 H3060 0.929 . S
C3073 C3065 1.433 1_556 S
C3073 N3075 1.372 1_556 S
N3074 C3070 1.427 . S
N3074 C3071 1.384 . S
N3075 C3067 1.462 . S
N3075 C3073 1.372 1_554 S
H3076 C3082 0.930 . S
H3077 C3086 0.930 . S
H3078 C3091 0.929 . S
H3079 C3089 0.929 . S
H3080 C3084 0.929 . S
H3081 C3090 0.929 . S
C3082 H3076 0.930 . S
C3082 C3083 1.367 . S
C3082 C3090 1.378 . S
C3083 C3082 1.367 . S
C3083 C3091 1.433 . S
C3084 H3080 0.929 . S
C3084 C3086 1.378 . S
C3084 C3088 1.350 . S
C3085 C3088 1.463 . S
C3085 C3090 1.350 . S
C3085 N3093 1.427 . S
C3086 H3077 0.930 . S
C3086 C3084 1.378 . S
C3086 C3087 1.367 . S
C3087 C3086 1.367 . S
C3087 C3089 1.433 . S
C3088 C3084 1.350 . S
C3088 C3085 1.463 . S
C3088 N3092 1.427 . S
C3089 H3079 0.929 . S
C3089 C3087 1.433 . S
C3089 N3092 1.384 . S
C3090 H3081 0.929 . S
C3090 C3082 1.378 . S
C3090 C3085 1.350 . S
C3091 H3078 0.929 . S
C3091 C3083 1.433 . S
C3091 N3093 1.384 . S
N3092 C3088 1.427 . S
N3092 C3089 1.384 . S
N3093 C3085 1.427 . S
N3093 C3091 1.384 . S
H3094 C3100 0.930 . S
H3095 C3104 0.930 . S
H3096 C3109 0.929 . S
H3097 C3107 0.929 . S
H3098 C3102 0.929 . S
H3099 C3108 0.929 . S
C3100 H3094 0.930 . S
C3100 C3101 1.367 . S
C3100 C3108 1.378 . S
C3101 C3100 1.367 . S
C3101 C3109 1.433 . S
C3102 H3098 0.929 . S
C3102 C3104 1.378 . S
C3102 C3106 1.350 . S
C3103 C3106 1.463 . S
C3103 C3108 1.350 . S
C3103 N3111 1.427 . S
C3104 H3095 0.930 . S
C3104 C3102 1.378 . S
C3104 C3105 1.367 . S
C3105 C3104 1.367 . S
C3105 C3107 1.433 . S
C3106 C3102 1.350 . S
C3106 C3103 1.463 . S
C3106 N3110 1.427 . S
C3107 H3097 0.929 . S
C3107 C3105 1.433 . S
C3107 N3110 1.384 . S
C3108 H3099 0.929 . S
C3108 C3100 1.378 . S
C3108 C3103 1.350 . S
C3109 H3096 0.929 . S
C3109 C3101 1.433 . S
C3109 N3111 1.384 . S
N3110 C3106 1.427 . S
N3110 C3107 1.384 . S
N3111 C3103 1.427 . S
N3111 C3109 1.384 . S
H3112 C3118 0.930 . S
H3113 C3122 0.930 . S
H3114 C3127 0.929 . S
H3115 C3125 0.929 . S
H3116 C3120 0.929 . S
H3117 C3126 0.929 . S
C3118 H3112 0.930 . S
C3118 C3119 1.367 . S
C3118 C3126 1.378 . S
C3119 C3118 1.367 . S
C3119 C3127 1.433 . S
C3120 H3116 0.929 . S
C3120 C3122 1.378 . S
C3120 C3124 1.350 . S
C3121 C3124 1.463 . S
C3121 C3126 1.350 . S
C3121 N3129 1.427 . S
C3122 H3113 0.930 . S
C3122 C3120 1.378 . S
C3122 C3123 1.367 . S
C3123 C3122 1.367 . S
C3123 C3125 1.433 . S
C3124 C3120 1.350 . S
C3124 C3121 1.463 . S
C3124 N3128 1.427 . S
C3125 H3115 0.929 . S
C3125 C3123 1.433 . S
C3125 N3128 1.384 . S
C3126 H3117 0.929 . S
C3126 C3118 1.378 . S
C3126 C3121 1.350 . S
C3127 H3114 0.929 . S
C3127 C3119 1.433 . S
C3127 N3129 1.384 . S
N3128 C3124 1.427 . S
N3128 C3125 1.384 . S
N3129 C3121 1.427 . S
N3129 C3127 1.384 . S
H3130 C3136 0.930 . S
H3131 C3140 0.930 . S
H3132 C3145 0.929 . S
H3133 C3143 0.929 . S
H3134 C3138 0.929 . S
H3135 C3144 0.929 . S
C3136 H3130 0.930 . S
C3136 C3137 1.367 . S
C3136 C3144 1.378 . S
C3137 C3136 1.367 . S
C3137 C3145 1.433 . S
C3138 H3134 0.929 . S
C3138 C3140 1.378 . S
C3138 C3142 1.350 . S
C3139 C3142 1.463 . S
C3139 C3144 1.350 . S
C3139 N3147 1.427 . S
C3140 H3131 0.930 . S
C3140 C3138 1.378 . S
C3140 C3141 1.367 . S
C3141 C3140 1.367 . S
C3141 C3143 1.433 . S
C3142 C3138 1.350 . S
C3142 C3139 1.463 . S
C3142 N3146 1.427 . S
C3143 H3133 0.929 . S
C3143 C3141 1.433 . S
C3143 N3146 1.384 . S
C3144 H3135 0.929 . S
C3144 C3136 1.378 . S
C3144 C3139 1.350 . S
C3145 H3132 0.929 . S
C3145 C3137 1.433 . S
C3145 N3147 1.384 . S
N3146 C3142 1.427 . S
N3146 C3143 1.384 . S
N3147 C3139 1.427 . S
N3147 C3145 1.384 . S
H3148 C3154 0.930 . S
H3149 C3158 0.930 . S
H3150 C3163 0.929 . S
H3151 C3161 0.929 . S
H3152 C3156 0.929 . S
H3153 C3162 0.929 . S
C3154 H3148 0.930 . S
C3154 C3155 1.367 . S
C3154 C3162 1.378 . S
C3155 C3154 1.367 . S
C3155 C3163 1.433 . S
C3156 H3152 0.929 . S
C3156 C3158 1.378 . S
C3156 C3160 1.350 . S
C3157 C3160 1.463 . S
C3157 C3162 1.350 . S
C3157 N3165 1.427 . S
C3158 H3149 0.930 . S
C3158 C3156 1.378 . S
C3158 C3159 1.367 . S
C3159 C3158 1.367 . S
C3159 C3161 1.433 . S
C3160 C3156 1.350 . S
C3160 C3157 1.463 . S
C3160 N3164 1.427 . S
C3161 H3151 0.929 . S
C3161 C3159 1.433 . S
C3161 N3164 1.384 . S
C3162 H3153 0.929 . S
C3162 C3154 1.378 . S
C3162 C3157 1.350 . S
C3163 H3150 0.929 . S
C3163 C3155 1.433 . S
C3163 N3165 1.384 . S
N3164 C3160 1.427 . S
N3164 C3161 1.384 . S
N3165 C3157 1.427 . S
N3165 C3163 1.384 . S
H3166 C3172 0.930 . S
H3167 C3176 0.930 . S
H3168 C3181 0.929 . S
H3169 C3179 0.929 . S
H3170 C3174 0.929 . S
H3171 C3180 0.929 . S
C3172 H3166 0.930 . S
C3172 C3173 1.367 . S
C3172 C3180 1.378 . S
C3173 C3172 1.367 . S
C3173 C3181 1.433 . S
C3174 H3170 0.929 . S
C3174 C3176 1.378 . S
C3174 C3178 1.350 . S
C3175 C3178 1.463 . S
C3175 C3180 1.350 . S
C3175 N3183 1.427 . S
C3176 H3167 0.930 . S
C3176 C3174 1.378 . S
C3176 C3177 1.367 . S
C3177 C3176 1.367 . S
C3177 C3179 1.433 . S
C3178 C3174 1.350 . S
C3178 C3175 1.463 . S
C3178 N3182 1.427 . S
C3179 H3169 0.929 . S
C3179 C3177 1.433 . S
C3179 N3182 1.384 . S
C3180 H3171 0.929 . S
C3180 C3172 1.378 . S
C3180 C3175 1.350 . S
C3181 H3168 0.929 . S
C3181 C3173 1.433 . S
C3181 N3183 1.384 . S
N3182 C3178 1.427 . S
N3182 C3179 1.384 . S
N3183 C3175 1.427 . S
N3183 C3181 1.384 . S
H3184 C3190 0.930 . S
H3185 C3194 0.930 . S
H3186 C3199 0.929 . S
H3187 C3197 0.929 . S
H3188 C3192 0.929 . S
H3189 C3198 0.929 . S
C3190 H3184 0.930 . S
C3190 C3191 1.367 . S
C3190 C3198 1.378 . S
C3191 C3190 1.367 . S
C3191 C3199 1.433 . S
C3192 H3188 0.929 . S
C3192 C3194 1.378 . S
C3192 C3196 1.350 . S
C3193 C3196 1.463 . S
C3193 C3198 1.350 . S
C3193 N3201 1.427 . S
C3194 H3185 0.930 . S
C3194 C3192 1.378 . S
C3194 C3195 1.367 . S
C3195 C3194 1.367 . S
C3195 C3197 1.433 . S
C3196 C3192 1.350 . S
C3196 C3193 1.463 . S
C3196 N3200 1.427 . S
C3197 H3187 0.929 . S
C3197 C3195 1.433 . S
C3197 N3200 1.384 . S
C3198 H3189 0.929 . S
C3198 C3190 1.378 . S
C3198 C3193 1.350 . S
C3199 H3186 0.929 . S
C3199 C3191 1.433 . S
C3199 N3201 1.384 . S
N3200 C3196 1.427 . S
N3200 C3197 1.384 . S
N3201 C3193 1.427 . S
N3201 C3199 1.384 . S
H3202 C3208 0.930 . S
H3203 C3212 0.930 . S
H3204 C3217 0.929 . S
H3205 C3215 0.929 . S
H3206 C3210 0.929 . S
H3207 C3216 0.929 . S
C3208 H3202 0.930 . S
C3208 C3209 1.367 . S
C3208 C3216 1.378 . S
C3209 C3208 1.367 . S
C3209 C3217 1.433 . S
C3210 H3206 0.929 . S
C3210 C3212 1.378 . S
C3210 C3214 1.350 . S
C3211 C3214 1.463 . S
C3211 C3216 1.350 . S
C3211 N3219 1.427 . S
C3212 H3203 0.930 . S
C3212 C3210 1.378 . S
C3212 C3213 1.367 . S
C3213 C3212 1.367 . S
C3213 C3215 1.433 . S
C3214 C3210 1.350 . S
C3214 C3211 1.463 . S
C3214 N3218 1.427 . S
C3215 H3205 0.929 . S
C3215 C3213 1.433 . S
C3215 N3218 1.384 . S
C3216 H3207 0.929 . S
C3216 C3208 1.378 . S
C3216 C3211 1.350 . S
C3217 H3204 0.929 . S
C3217 C3209 1.433 . S
C3217 N3219 1.384 . S
N3218 C3214 1.427 . S
N3218 C3215 1.384 . S
N3219 C3211 1.427 . S
N3219 C3217 1.384 . S
H3220 C3226 0.930 . S
H3221 C3230 0.930 . S
H3222 C3235 0.929 . S
H3223 C3233 0.929 . S
H3224 C3228 0.929 . S
H3225 C3234 0.929 . S
C3226 H3220 0.930 . S
C3226 C3227 1.367 . S
C3226 C3234 1.378 . S
C3227 C3226 1.367 . S
C3227 C3235 1.433 . S
C3228 H3224 0.929 . S
C3228 C3230 1.378 . S
C3228 C3232 1.350 . S
C3229 C3232 1.463 . S
C3229 C3234 1.350 . S
C3229 N3237 1.427 . S
C3230 H3221 0.930 . S
C3230 C3228 1.378 . S
C3230 C3231 1.367 . S
C3231 C3230 1.367 . S
C3231 C3233 1.433 . S
C3232 C3228 1.350 . S
C3232 C3229 1.463 . S
C3232 N3236 1.427 . S
C3233 H3223 0.929 . S
C3233 C3231 1.433 . S
C3233 N3236 1.384 . S
C3234 H3225 0.929 . S
C3234 C3226 1.378 . S
C3234 C3229 1.350 . S
C3235 H3222 0.929 . S
C3235 C3227 1.433 . S
C3235 N3237 1.384 . S
N3236 C3232 1.427 . S
N3236 C3233 1.384 . S
N3237 C3229 1.427 . S
N3237 C3235 1.384 . S
H3238 C3244 0.930 . S
H3239 C3248 0.930 . S
H3240 C3253 0.929 . S
H3241 C3251 0.929 . S
H3242 C3246 0.929 . S
H3243 C3252 0.929 . S
C3244 H3238 0.930 . S
C3244 C3245 1.367 . S
C3244 C3252 1.378 . S
C3245 C3244 1.367 . S
C3245 C3253 1.433 . S
C3246 H3242 0.929 . S
C3246 C3248 1.378 . S
C3246 C3250 1.350 . S
C3247 C3250 1.463 . S
C3247 C3252 1.350 . S
C3247 N3255 1.427 . S
C3248 H3239 0.930 . S
C3248 C3246 1.378 . S
C3248 C3249 1.367 . S
C3249 C3248 1.367 . S
C3249 C3251 1.433 . S
C3250 C3246 1.350 . S
C3250 C3247 1.463 . S
C3250 N3254 1.427 . S
C3251 H3241 0.929 . S
C3251 C3249 1.433 . S
C3251 N3254 1.384 . S
C3252 H3243 0.929 . S
C3252 C3244 1.378 . S
C3252 C3247 1.350 . S
C3253 H3240 0.929 . S
C3253 C3245 1.433 . S
C3253 N3255 1.384 . S
N3254 C3250 1.427 . S
N3254 C3251 1.384 . S
N3255 C3247 1.427 . S
N3255 C3253 1.384 . S
H3256 C3262 0.930 . S
H3257 C3266 0.930 . S
H3258 C3271 0.929 . S
H3259 C3269 0.929 . S
H3260 C3264 0.929 . S
H3261 C3270 0.929 . S
C3262 H3256 0.930 . S
C3262 C3263 1.407 . S
C3262 C3270 1.378 . S
C3263 C3262 1.407 . S
C3263 C3271 1.386 1_655 S
C3264 H3260 0.929 . S
C3264 C3266 1.378 . S
C3264 C3268 1.352 1_455 S
C3265 C3268 1.454 . S
C3265 C3270 1.391 . S
C3265 N3273 1.393 1_655 S
C3266 H3257 0.930 . S
C3266 C3264 1.378 . S
C3266 C3267 1.365 . S
C3267 C3266 1.365 . S
C3267 C3269 1.435 1_455 S
C3268 C3264 1.352 1_655 S
C3268 C3265 1.454 . S
C3268 N3272 1.426 . S
C3269 H3259 0.929 . S
C3269 C3267 1.435 1_655 S
C3269 N3272 1.384 . S
C3270 H3261 0.929 . S
C3270 C3262 1.378 . S
C3270 C3265 1.391 . S
C3271 H3258 0.929 . S
C3271 C3263 1.386 1_455 S
C3271 N3273 1.384 . S
N3272 C3268 1.426 . S
N3272 C3269 1.384 . S
N3273 C3265 1.393 1_455 S
N3273 C3271 1.384 . S
H3274 C3280 0.930 . S
H3275 C3284 0.930 . S
H3276 C3289 0.929 . S
H3277 C3287 0.929 . S
H3278 C3282 0.929 . S
H3279 C3288 0.929 . S
C3280 H3274 0.930 . S
C3280 C3281 1.367 . S
C3280 C3288 1.378 . S
C3281 C3280 1.367 . S
C3281 C3289 1.433 . S
C3282 H3278 0.929 . S
C3282 C3284 1.378 . S
C3282 C3286 1.350 . S
C3283 C3286 1.463 . S
C3283 C3288 1.350 . S
C3283 N3291 1.427 . S
C3284 H3275 0.930 . S
C3284 C3282 1.378 . S
C3284 C3285 1.367 . S
C3285 C3284 1.367 . S
C3285 C3287 1.433 . S
C3286 C3282 1.350 . S
C3286 C3283 1.463 . S
C3286 N3290 1.427 . S
C3287 H3277 0.929 . S
C3287 C3285 1.433 . S
C3287 N3290 1.384 . S
C3288 H3279 0.929 . S
C3288 C3280 1.378 . S
C3288 C3283 1.350 . S
C3289 H3276 0.929 . S
C3289 C3281 1.433 . S
C3289 N3291 1.384 . S
N3290 C3286 1.427 . S
N3290 C3287 1.384 . S
N3291 C3283 1.427 . S
N3291 C3289 1.384 . S
H3292 C3298 0.930 . S
H3293 C3302 0.930 . S
H3294 C3307 0.929 . S
H3295 C3305 0.929 . S
H3296 C3300 0.929 . S
H3297 C3306 0.929 . S
C3298 H3292 0.930 . S
C3298 C3299 1.367 . S
C3298 C3306 1.378 . S
C3299 C3298 1.367 . S
C3299 C3307 1.433 . S
C3300 H3296 0.929 . S
C3300 C3302 1.378 . S
C3300 C3304 1.350 1_554 S
C3301 C3304 1.463 . S
C3301 C3306 1.350 . S
C3301 N3309 1.427 . S
C3302 H3293 0.930 . S
C3302 C3300 1.378 . S
C3302 C3303 1.367 . S
C3303 C3302 1.367 . S
C3303 C3305 1.433 1_554 S
C3304 C3300 1.350 1_556 S
C3304 C3301 1.463 . S
C3304 N3308 1.427 . S
C3305 H3295 0.929 . S
C3305 C3303 1.433 1_556 S
C3305 N3308 1.384 . S
C3306 H3297 0.929 . S
C3306 C3298 1.378 . S
C3306 C3301 1.350 . S
C3307 H3294 0.929 . S
C3307 C3299 1.433 . S
C3307 N3309 1.384 . S
N3308 C3304 1.427 . S
N3308 C3305 1.384 . S
N3309 C3301 1.427 . S
N3309 C3307 1.384 . S
H3310 C3316 0.930 . S
H3311 C3320 0.930 . S
H3312 C3325 0.929 . S
H3313 C3323 0.929 . S
H3314 C3318 0.929 . S
H3315 C3324 0.929 . S
C3316 H3310 0.930 . S
C3316 C3317 1.367 . S
C3316 C3324 1.378 . S
C3317 C3316 1.367 . S
C3317 C3325 1.433 . S
C3318 H3314 0.929 . S
C3318 C3320 1.378 . S
C3318 C3322 1.350 . S
C3319 C3322 1.463 . S
C3319 C3324 1.350 . S
C3319 N3327 1.427 . S
C3320 H3311 0.930 . S
C3320 C3318 1.378 . S
C3320 C3321 1.367 . S
C3321 C3320 1.367 . S
C3321 C3323 1.433 . S
C3322 C3318 1.350 . S
C3322 C3319 1.463 . S
C3322 N3326 1.427 . S
C3323 H3313 0.929 . S
C3323 C3321 1.433 . S
C3323 N3326 1.384 . S
C3324 H3315 0.929 . S
C3324 C3316 1.378 . S
C3324 C3319 1.350 . S
C3325 H3312 0.929 . S
C3325 C3317 1.433 . S
C3325 N3327 1.384 . S
N3326 C3322 1.427 . S
N3326 C3323 1.384 . S
N3327 C3319 1.427 . S
N3327 C3325 1.384 . S
H3328 C3334 0.930 . S
H3329 C3338 0.930 . S
H3330 C3343 0.929 . S
H3331 C3341 0.929 . S
H3332 C3336 0.929 . S
H3333 C3342 0.929 . S
C3334 H3328 0.930 . S
C3334 C3335 1.367 . S
C3334 C3342 1.378 . S
C3335 C3334 1.367 . S
C3335 C3343 1.433 . S
C3336 H3332 0.929 . S
C3336 C3338 1.378 . S
C3336 C3340 1.350 . S
C3337 C3340 1.463 . S
C3337 C3342 1.350 . S
C3337 N3345 1.427 . S
C3338 H3329 0.930 . S
C3338 C3336 1.378 . S
C3338 C3339 1.367 . S
C3339 C3338 1.367 . S
C3339 C3341 1.433 . S
C3340 C3336 1.350 . S
C3340 C3337 1.463 . S
C3340 N3344 1.427 . S
C3341 H3331 0.929 . S
C3341 C3339 1.433 . S
C3341 N3344 1.384 . S
C3342 H3333 0.929 . S
C3342 C3334 1.378 . S
C3342 C3337 1.350 . S
C3343 H3330 0.929 . S
C3343 C3335 1.433 . S
C3343 N3345 1.384 . S
N3344 C3340 1.427 . S
N3344 C3341 1.384 . S
N3345 C3337 1.427 . S
N3345 C3343 1.384 . S
H3346 C3352 0.930 . S
H3347 C3356 0.930 . S
H3348 C3361 0.929 . S
H3349 C3359 0.929 . S
H3350 C3354 0.929 . S
H3351 C3360 0.929 . S
C3352 H3346 0.930 . S
C3352 C3353 1.367 . S
C3352 C3360 1.378 . S
C3353 C3352 1.367 . S
C3353 C3361 1.433 . S
C3354 H3350 0.929 . S
C3354 C3356 1.378 . S
C3354 C3358 1.350 . S
C3355 C3358 1.463 . S
C3355 C3360 1.350 . S
C3355 N3363 1.427 . S
C3356 H3347 0.930 . S
C3356 C3354 1.378 . S
C3356 C3357 1.367 . S
C3357 C3356 1.367 . S
C3357 C3359 1.433 . S
C3358 C3354 1.350 . S
C3358 C3355 1.463 . S
C3358 N3362 1.427 . S
C3359 H3349 0.929 . S
C3359 C3357 1.433 . S
C3359 N3362 1.384 . S
C3360 H3351 0.929 . S
C3360 C3352 1.378 . S
C3360 C3355 1.350 . S
C3361 H3348 0.929 . S
C3361 C3353 1.433 . S
C3361 N3363 1.384 . S
N3362 C3358 1.427 . S
N3362 C3359 1.384 . S
N3363 C3355 1.427 . S
N3363 C3361 1.384 . S
H3364 C3370 0.930 . S
H3365 C3374 0.930 1_565 S
H3366 C3379 0.909 1_565 S
H3367 C3377 0.929 . S
H3368 C3372 0.929 1_565 S
H3369 C3378 0.929 . S
C3370 H3364 0.930 . S
C3370 C3371 1.367 . S
C3370 C3378 1.378 . S
C3371 C3370 1.367 . S
C3371 C3379 1.433 . S
C3372 H3368 0.929 1_545 S
C3372 C3374 1.378 . S
C3372 C3376 1.350 . S
C3373 C3376 1.463 . S
C3373 C3378 1.350 . S
C3373 N3381 1.427 . S
C3374 H3365 0.930 1_545 S
C3374 C3372 1.378 . S
C3374 C3375 1.367 . S
C3375 C3374 1.367 . S
C3375 C3377 1.433 . S
C3376 C3372 1.350 . S
C3376 C3373 1.463 . S
C3376 N3380 1.427 . S
C3377 H3367 0.929 . S
C3377 C3375 1.433 . S
C3377 N3380 1.384 . S
C3378 H3369 0.929 . S
C3378 C3370 1.378 . S
C3378 C3373 1.350 . S
C3379 H3366 0.909 1_545 S
C3379 C3371 1.433 . S
C3379 N3381 1.384 . S
N3380 C3376 1.427 . S
N3380 C3377 1.384 . S
N3381 C3373 1.427 . S
N3381 C3379 1.384 . S
H3382 C3388 0.930 . S
H3383 C3392 0.930 . S
H3384 C3397 0.929 . S
H3385 C3395 0.929 . S
H3386 C3390 0.929 . S
H3387 C3396 0.929 . S
C3388 H3382 0.930 . S
C3388 C3389 1.367 . S
C3388 C3396 1.378 . S
C3389 C3388 1.367 . S
C3389 C3397 1.433 . S
C3390 H3386 0.929 . S
C3390 C3392 1.378 . S
C3390 C3394 1.350 . S
C3391 C3394 1.463 . S
C3391 C3396 1.350 . S
C3391 N3399 1.427 . S
C3392 H3383 0.930 . S
C3392 C3390 1.378 . S
C3392 C3393 1.367 . S
C3393 C3392 1.367 . S
C3393 C3395 1.433 . S
C3394 C3390 1.350 . S
C3394 C3391 1.463 . S
C3394 N3398 1.427 . S
C3395 H3385 0.929 . S
C3395 C3393 1.433 . S
C3395 N3398 1.384 . S
C3396 H3387 0.929 . S
C3396 C3388 1.378 . S
C3396 C3391 1.350 . S
C3397 H3384 0.929 . S
C3397 C3389 1.433 . S
C3397 N3399 1.384 . S
N3398 C3394 1.427 . S
N3398 C3395 1.384 . S
N3399 C3391 1.427 . S
N3399 C3397 1.384 . S
H3400 C3406 0.930 . S
H3401 C3410 0.930 . S
H3402 C3415 0.929 . S
H3403 C3413 0.929 . S
H3404 C3408 0.929 . S
H3405 C3414 0.929 . S
C3406 H3400 0.930 . S
C3406 C3407 1.367 1_565 S
C3406 C3414 1.378 . S
C3407 C3406 1.367 1_545 S
C3407 C3415 1.433 . S
C3408 H3404 0.929 . S
C3408 C3410 1.378 . S
C3408 C3412 1.350 . S
C3409 C3412 1.463 . S
C3409 C3414 1.350 1_545 S
C3409 N3417 1.427 . S
C3410 H3401 0.930 . S
C3410 C3408 1.378 . S
C3410 C3411 1.367 . S
C3411 C3410 1.367 . S
C3411 C3413 1.433 1_545 S
C3412 C3408 1.350 . S
C3412 C3409 1.463 . S
C3412 N3416 1.427 1_545 S
C3413 H3403 0.929 . S
C3413 C3411 1.433 1_565 S
C3413 N3416 1.384 . S
C3414 H3405 0.929 . S
C3414 C3406 1.378 . S
C3414 C3409 1.350 1_565 S
C3415 H3402 0.929 . S
C3415 C3407 1.433 . S
C3415 N3417 1.384 . S
N3416 C3412 1.427 1_565 S
N3416 C3413 1.384 . S
N3417 C3409 1.427 . S
N3417 C3415 1.384 . S
H3418 C3424 0.930 . S
H3419 C3428 0.930 . S
H3420 C3433 0.929 . S
H3421 C3431 0.929 . S
H3422 C3426 0.929 . S
H3423 C3432 0.929 . S
C3424 H3418 0.930 . S
C3424 C3425 1.367 . S
C3424 C3432 1.378 . S
C3425 C3424 1.367 . S
C3425 C3433 1.433 . S
C3426 H3422 0.929 . S
C3426 C3428 1.378 . S
C3426 C3430 1.350 . S
C3427 C3430 1.463 . S
C3427 C3432 1.350 . S
C3427 N3435 1.427 . S
C3428 H3419 0.930 . S
C3428 C3426 1.378 . S
C3428 C3429 1.367 . S
C3429 C3428 1.367 . S
C3429 C3431 1.433 . S
C3430 C3426 1.350 . S
C3430 C3427 1.463 . S
C3430 N3434 1.427 . S
C3431 H3421 0.929 . S
C3431 C3429 1.433 . S
C3431 N3434 1.384 . S
C3432 H3423 0.929 . S
C3432 C3424 1.378 . S
C3432 C3427 1.350 . S
C3433 H3420 0.929 . S
C3433 C3425 1.433 . S
C3433 N3435 1.384 . S
N3434 C3430 1.427 . S
N3434 C3431 1.384 . S
N3435 C3427 1.427 . S
N3435 C3433 1.384 . S
H3436 C3442 0.930 . S
H3437 C3446 0.930 . S
H3438 C3451 0.929 . S
H3439 C3449 0.929 . S
H3440 C3444 0.929 . S
H3441 C3450 0.929 . S
C3442 H3436 0.930 . S
C3442 C3443 1.367 . S
C3442 C3450 1.378 . S
C3443 C3442 1.367 . S
C3443 C3451 1.433 1_545 S
C3444 H3440 0.929 . S
C3444 C3446 1.378 . S
C3444 C3448 1.350 1_565 S
C3445 C3448 1.463 . S
C3445 C3450 1.350 . S
C3445 N3453 1.427 1_545 S
C3446 H3437 0.930 . S
C3446 C3444 1.378 . S
C3446 C3447 1.367 1_565 S
C3447 C3446 1.367 1_545 S
C3447 C3449 1.433 . S
C3448 C3444 1.350 1_545 S
C3448 C3445 1.463 . S
C3448 N3452 1.427 . S
C3449 H3439 0.929 . S
C3449 C3447 1.433 . S
C3449 N3452 1.384 . S
C3450 H3441 0.929 . S
C3450 C3442 1.378 . S
C3450 C3445 1.350 . S
C3451 H3438 0.929 . S
C3451 C3443 1.433 1_565 S
C3451 N3453 1.384 . S
N3452 C3448 1.427 . S
N3452 C3449 1.384 . S
N3453 C3445 1.427 1_565 S
N3453 C3451 1.384 . S
H3454 C3460 0.930 . S
H3455 C3464 0.930 . S
H3456 C3469 0.929 . S
H3457 C3467 0.929 . S
H3458 C3462 0.929 . S
H3459 C3468 0.929 . S
C3460 H3454 0.930 . S
C3460 C3461 1.367 . S
C3460 C3468 1.378 . S
C3461 C3460 1.367 . S
C3461 C3469 1.433 . S
C3462 H3458 0.929 . S
C3462 C3464 1.378 . S
C3462 C3466 1.350 . S
C3463 C3466 1.463 . S
C3463 C3468 1.350 . S
C3463 N3471 1.427 . S
C3464 H3455 0.930 . S
C3464 C3462 1.378 . S
C3464 C3465 1.367 . S
C3465 C3464 1.367 . S
C3465 C3467 1.433 . S
C3466 C3462 1.350 . S
C3466 C3463 1.463 . S
C3466 N3470 1.427 . S
C3467 H3457 0.929 . S
C3467 C3465 1.433 . S
C3467 N3470 1.384 . S
C3468 H3459 0.929 . S
C3468 C3460 1.378 . S
C3468 C3463 1.350 . S
C3469 H3456 0.929 . S
C3469 C3461 1.433 . S
C3469 N3471 1.384 . S
N3470 C3466 1.427 . S
N3470 C3467 1.384 . S
N3471 C3463 1.427 . S
N3471 C3469 1.384 . S
H3472 C3478 0.930 . S
H3473 C3482 0.930 . S
H3474 C3487 0.929 . S
H3475 C3485 0.929 . S
H3476 C3480 0.929 . S
H3477 C3486 0.929 . S
C3478 H3472 0.930 . S
C3478 C3479 1.367 . S
C3478 C3486 1.378 . S
C3479 C3478 1.367 . S
C3479 C3487 1.433 . S
C3480 H3476 0.929 . S
C3480 C3482 1.378 . S
C3480 C3484 1.350 . S
C3481 C3484 1.463 . S
C3481 C3486 1.350 . S
C3481 N3489 1.427 . S
C3482 H3473 0.930 . S
C3482 C3480 1.378 . S
C3482 C3483 1.367 . S
C3483 C3482 1.367 . S
C3483 C3485 1.433 1_554 S
C3484 C3480 1.350 . S
C3484 C3481 1.463 . S
C3484 N3488 1.427 . S
C3485 H3475 0.929 . S
C3485 C3483 1.433 1_556 S
C3485 N3488 1.384 1_556 S
C3486 H3477 0.929 . S
C3486 C3478 1.378 . S
C3486 C3481 1.350 . S
C3487 H3474 0.929 . S
C3487 C3479 1.433 . S
C3487 N3489 1.384 . S
N3488 C3484 1.427 . S
N3488 C3485 1.384 1_554 S
N3489 C3481 1.427 . S
N3489 C3487 1.384 . S
H3490 C3496 0.930 . S
H3491 C3500 0.930 . S
H3492 C3505 0.929 . S
H3493 C3503 0.929 . S
H3494 C3498 0.929 . S
H3495 C3504 0.929 . S
C3496 H3490 0.930 . S
C3496 C3497 1.367 . S
C3496 C3504 1.378 . S
C3497 C3496 1.367 . S
C3497 C3505 1.433 . S
C3498 H3494 0.929 . S
C3498 C3500 1.378 . S
C3498 C3502 1.350 . S
C3499 C3502 1.463 . S
C3499 C3504 1.350 . S
C3499 N3507 1.427 . S
C3500 H3491 0.930 . S
C3500 C3498 1.378 . S
C3500 C3501 1.367 . S
C3501 C3500 1.367 . S
C3501 C3503 1.433 . S
C3502 C3498 1.350 . S
C3502 C3499 1.463 . S
C3502 N3506 1.427 . S
C3503 H3493 0.929 . S
C3503 C3501 1.433 . S
C3503 N3506 1.384 . S
C3504 H3495 0.929 . S
C3504 C3496 1.378 . S
C3504 C3499 1.350 . S
C3505 H3492 0.929 . S
C3505 C3497 1.433 . S
C3505 N3507 1.384 . S
N3506 C3502 1.427 . S
N3506 C3503 1.384 . S
N3507 C3499 1.427 . S
N3507 C3505 1.384 . S
H3508 C3514 0.930 . S
H3509 C3518 0.930 . S
H3510 C3523 0.929 . S
H3511 C3521 0.929 . S
H3512 C3516 0.929 . S
H3513 C3522 0.929 . S
C3514 H3508 0.930 . S
C3514 C3515 1.367 . S
C3514 C3522 1.378 . S
C3515 C3514 1.367 . S
C3515 C3523 1.433 . S
C3516 H3512 0.929 . S
C3516 C3518 1.378 . S
C3516 C3520 1.350 . S
C3517 C3520 1.463 . S
C3517 C3522 1.350 . S
C3517 N3525 1.427 . S
C3518 H3509 0.930 . S
C3518 C3516 1.378 . S
C3518 C3519 1.367 . S
C3519 C3518 1.367 . S
C3519 C3521 1.433 . S
C3520 C3516 1.350 . S
C3520 C3517 1.463 . S
C3520 N3524 1.427 . S
C3521 H3511 0.929 . S
C3521 C3519 1.433 . S
C3521 N3524 1.384 . S
C3522 H3513 0.929 . S
C3522 C3514 1.378 . S
C3522 C3517 1.350 . S
C3523 H3510 0.929 . S
C3523 C3515 1.433 . S
C3523 N3525 1.384 . S
N3524 C3520 1.427 . S
N3524 C3521 1.384 . S
N3525 C3517 1.427 . S
N3525 C3523 1.384 . S
H3526 C3532 0.930 . S
H3527 C3536 0.930 . S
H3528 C3541 0.929 . S
H3529 C3539 0.929 . S
H3530 C3534 0.929 . S
H3531 C3540 0.929 . S
C3532 H3526 0.930 . S
C3532 C3533 1.367 . S
C3532 C3540 1.378 . S
C3533 C3532 1.367 . S
C3533 C3541 1.433 . S
C3534 H3530 0.929 . S
C3534 C3536 1.378 . S
C3534 C3538 1.350 . S
C3535 C3538 1.463 . S
C3535 C3540 1.350 . S
C3535 N3543 1.427 . S
C3536 H3527 0.930 . S
C3536 C3534 1.378 . S
C3536 C3537 1.367 . S
C3537 C3536 1.367 . S
C3537 C3539 1.433 . S
C3538 C3534 1.350 . S
C3538 C3535 1.463 . S
C3538 N3542 1.427 . S
C3539 H3529 0.929 . S
C3539 C3537 1.433 . S
C3539 N3542 1.384 . S
C3540 H3531 0.929 . S
C3540 C3532 1.378 . S
C3540 C3535 1.350 . S
C3541 H3528 0.929 . S
C3541 C3533 1.433 . S
C3541 N3543 1.384 . S
N3542 C3538 1.427 . S
N3542 C3539 1.384 . S
N3543 C3535 1.427 . S
N3543 C3541 1.384 . S
H3544 C3550 0.930 . S
H3545 C3554 0.930 . S
H3546 C3559 0.929 . S
H3547 C3557 0.929 . S
H3548 C3552 0.929 . S
H3549 C3558 0.929 . S
C3550 H3544 0.930 . S
C3550 C3551 1.367 . S
C3550 C3558 1.378 . S
C3551 C3550 1.367 . S
C3551 C3559 1.433 . S
C3552 H3548 0.929 . S
C3552 C3554 1.378 . S
C3552 C3556 1.350 . S
C3553 C3556 1.463 . S
C3553 C3558 1.350 . S
C3553 N3561 1.427 . S
C3554 H3545 0.930 . S
C3554 C3552 1.378 . S
C3554 C3555 1.367 . S
C3555 C3554 1.367 . S
C3555 C3557 1.433 . S
C3556 C3552 1.350 . S
C3556 C3553 1.463 . S
C3556 N3560 1.427 . S
C3557 H3547 0.929 . S
C3557 C3555 1.433 . S
C3557 N3560 1.384 . S
C3558 H3549 0.929 . S
C3558 C3550 1.378 . S
C3558 C3553 1.350 . S
C3559 H3546 0.929 . S
C3559 C3551 1.433 . S
C3559 N3561 1.384 . S
N3560 C3556 1.427 . S
N3560 C3557 1.384 . S
N3561 C3553 1.427 . S
N3561 C3559 1.384 . S
H3562 C3568 0.930 . S
H3563 C3572 0.930 . S
H3564 C3577 0.929 . S
H3565 C3575 0.929 . S
H3566 C3570 0.929 . S
H3567 C3576 0.929 . S
C3568 H3562 0.930 . S
C3568 C3569 1.367 . S
C3568 C3576 1.378 . S
C3569 C3568 1.367 . S
C3569 C3577 1.433 . S
C3570 H3566 0.929 . S
C3570 C3572 1.378 . S
C3570 C3574 1.350 . S
C3571 C3574 1.463 . S
C3571 C3576 1.350 . S
C3571 N3579 1.427 . S
C3572 H3563 0.930 . S
C3572 C3570 1.378 . S
C3572 C3573 1.367 . S
C3573 C3572 1.367 . S
C3573 C3575 1.433 . S
C3574 C3570 1.350 . S
C3574 C3571 1.463 . S
C3574 N3578 1.427 . S
C3575 H3565 0.929 . S
C3575 C3573 1.433 . S
C3575 N3578 1.384 . S
C3576 H3567 0.929 . S
C3576 C3568 1.378 . S
C3576 C3571 1.350 . S
C3577 H3564 0.929 . S
C3577 C3569 1.433 . S
C3577 N3579 1.384 . S
N3578 C3574 1.427 . S
N3578 C3575 1.384 . S
N3579 C3571 1.427 . S
N3579 C3577 1.384 . S
H3580 C3586 0.930 . S
H3581 C3590 0.930 . S
H3582 C3595 0.929 . S
H3583 C3593 0.929 . S
H3584 C3588 0.929 . S
H3585 C3594 0.929 . S
C3586 H3580 0.930 . S
C3586 C3587 1.367 . S
C3586 C3594 1.378 . S
C3587 C3586 1.367 . S
C3587 C3595 1.433 . S
C3588 H3584 0.929 . S
C3588 C3590 1.378 . S
C3588 C3592 1.350 . S
C3589 C3592 1.463 . S
C3589 C3594 1.350 . S
C3589 N3597 1.427 . S
C3590 H3581 0.930 . S
C3590 C3588 1.378 . S
C3590 C3591 1.367 . S
C3591 C3590 1.367 . S
C3591 C3593 1.433 . S
C3592 C3588 1.350 . S
C3592 C3589 1.463 . S
C3592 N3596 1.427 . S
C3593 H3583 0.929 . S
C3593 C3591 1.433 . S
C3593 N3596 1.384 . S
C3594 H3585 0.929 . S
C3594 C3586 1.378 . S
C3594 C3589 1.350 . S
C3595 H3582 0.929 . S
C3595 C3587 1.433 . S
C3595 N3597 1.384 . S
N3596 C3592 1.427 . S
N3596 C3593 1.384 . S
N3597 C3589 1.427 . S
N3597 C3595 1.384 . S
H3598 C3604 0.930 . S
H3599 C3608 0.930 . S
H3600 C3613 0.929 . S
H3601 C3611 0.929 . S
H3602 C3606 0.929 . S
H3603 C3612 0.929 . S
C3604 H3598 0.930 . S
C3604 C3605 1.367 . S
C3604 C3612 1.378 . S
C3605 C3604 1.367 . S
C3605 C3613 1.433 . S
C3606 H3602 0.929 . S
C3606 C3608 1.378 . S
C3606 C3610 1.350 . S
C3607 C3610 1.463 . S
C3607 C3612 1.350 . S
C3607 N3615 1.427 . S
C3608 H3599 0.930 . S
C3608 C3606 1.378 . S
C3608 C3609 1.367 . S
C3609 C3608 1.367 . S
C3609 C3611 1.433 . S
C3610 C3606 1.350 . S
C3610 C3607 1.463 . S
C3610 N3614 1.427 . S
C3611 H3601 0.929 . S
C3611 C3609 1.433 . S
C3611 N3614 1.384 . S
C3612 H3603 0.929 . S
C3612 C3604 1.378 . S
C3612 C3607 1.350 . S
C3613 H3600 0.929 . S
C3613 C3605 1.433 . S
C3613 N3615 1.384 . S
N3614 C3610 1.427 . S
N3614 C3611 1.384 . S
N3615 C3607 1.427 . S
N3615 C3613 1.384 . S
H3616 C3622 0.930 . S
H3617 C3626 0.930 . S
H3618 C3631 0.929 . S
H3619 C3629 0.929 . S
H3620 C3624 0.929 . S
H3621 C3630 0.929 . S
C3622 H3616 0.930 . S
C3622 C3623 1.367 . S
C3622 C3630 1.378 . S
C3623 C3622 1.367 . S
C3623 C3631 1.433 . S
C3624 H3620 0.929 . S
C3624 C3626 1.378 . S
C3624 C3628 1.350 . S
C3625 C3628 1.463 . S
C3625 C3630 1.350 . S
C3625 N3633 1.427 . S
C3626 H3617 0.930 . S
C3626 C3624 1.378 . S
C3626 C3627 1.367 . S
C3627 C3626 1.367 . S
C3627 C3629 1.433 . S
C3628 C3624 1.350 . S
C3628 C3625 1.463 . S
C3628 N3632 1.427 . S
C3629 H3619 0.929 . S
C3629 C3627 1.433 . S
C3629 N3632 1.384 . S
C3630 H3621 0.929 . S
C3630 C3622 1.378 . S
C3630 C3625 1.350 . S
C3631 H3618 0.929 . S
C3631 C3623 1.433 . S
C3631 N3633 1.384 . S
N3632 C3628 1.427 . S
N3632 C3629 1.384 . S
N3633 C3625 1.427 . S
N3633 C3631 1.384 . S
H3634 C3640 0.930 . S
H3635 C3644 0.930 . S
H3636 C3649 0.929 . S
H3637 C3647 0.929 . S
H3638 C3642 0.929 . S
H3639 C3648 0.929 . S
C3640 H3634 0.930 . S
C3640 C3641 1.367 . S
C3640 C3648 1.378 . S
C3641 C3640 1.367 . S
C3641 C3649 1.433 . S
C3642 H3638 0.929 . S
C3642 C3644 1.378 . S
C3642 C3646 1.350 . S
C3643 C3646 1.463 . S
C3643 C3648 1.350 . S
C3643 N3651 1.427 . S
C3644 H3635 0.930 . S
C3644 C3642 1.378 . S
C3644 C3645 1.367 . S
C3645 C3644 1.367 . S
C3645 C3647 1.433 . S
C3646 C3642 1.350 . S
C3646 C3643 1.463 . S
C3646 N3650 1.427 . S
C3647 H3637 0.929 . S
C3647 C3645 1.433 . S
C3647 N3650 1.384 . S
C3648 H3639 0.929 . S
C3648 C3640 1.378 . S
C3648 C3643 1.350 . S
C3649 H3636 0.929 . S
C3649 C3641 1.433 . S
C3649 N3651 1.384 . S
N3650 C3646 1.427 . S
N3650 C3647 1.384 . S
N3651 C3643 1.427 . S
N3651 C3649 1.384 . S
H3652 C3658 0.930 . S
H3653 C3662 0.930 . S
H3654 C3667 0.929 . S
H3655 C3665 0.929 . S
H3656 C3660 0.929 . S
H3657 C3666 0.929 . S
C3658 H3652 0.930 . S
C3658 C3659 1.367 1_554 S
C3658 C3666 1.378 . S
C3659 C3658 1.367 1_556 S
C3659 C3667 1.433 . S
C3660 H3656 0.929 . S
C3660 C3662 1.378 . S
C3660 C3664 1.350 1_556 S
C3661 C3664 1.463 . S
C3661 C3666 1.350 . S
C3661 N3669 1.427 1_554 S
C3662 H3653 0.930 . S
C3662 C3660 1.378 . S
C3662 C3663 1.367 1_556 S
C3663 C3662 1.367 1_554 S
C3663 C3665 1.433 . S
C3664 C3660 1.350 1_554 S
C3664 C3661 1.463 . S
C3664 N3668 1.427 . S
C3665 H3655 0.929 . S
C3665 C3663 1.433 . S
C3665 N3668 1.384 . S
C3666 H3657 0.929 . S
C3666 C3658 1.378 . S
C3666 C3661 1.350 . S
C3667 H3654 0.929 . S
C3667 C3659 1.433 . S
C3667 N3669 1.384 . S
N3668 C3664 1.427 . S
N3668 C3665 1.384 . S
N3669 C3661 1.427 1_556 S
N3669 C3667 1.384 . S
H3670 C3676 0.930 . S
H3671 C3680 0.930 . S
H3672 C3685 0.929 . S
H3673 C3683 0.929 . S
H3674 C3678 0.929 . S
H3675 C3684 0.929 . S
C3676 H3670 0.930 . S
C3676 C3677 1.367 . S
C3676 C3684 1.378 . S
C3677 C3676 1.367 . S
C3677 C3685 1.433 . S
C3678 H3674 0.929 . S
C3678 C3680 1.378 . S
C3678 C3682 1.350 . S
C3679 C3682 1.463 . S
C3679 C3684 1.350 . S
C3679 N3687 1.427 . S
C3680 H3671 0.930 . S
C3680 C3678 1.378 . S
C3680 C3681 1.367 . S
C3681 C3680 1.367 . S
C3681 C3683 1.433 . S
C3682 C3678 1.350 . S
C3682 C3679 1.463 . S
C3682 N3686 1.427 . S
C3683 H3673 0.929 . S
C3683 C3681 1.433 . S
C3683 N3686 1.384 . S
C3684 H3675 0.929 . S
C3684 C3676 1.378 . S
C3684 C3679 1.350 . S
C3685 H3672 0.929 . S
C3685 C3677 1.433 . S
C3685 N3687 1.384 . S
N3686 C3682 1.427 . S
N3686 C3683 1.384 . S
N3687 C3679 1.427 . S
N3687 C3685 1.384 . S
H3688 C3694 0.930 . S
H3689 C3698 0.930 . S
H3690 C3703 0.929 . S
H3691 C3701 0.929 . S
H3692 C3696 0.929 . S
H3693 C3702 0.929 . S
C3694 H3688 0.930 . S
C3694 C3695 1.367 . S
C3694 C3702 1.378 . S
C3695 C3694 1.367 . S
C3695 C3703 1.433 . S
C3696 H3692 0.929 . S
C3696 C3698 1.378 . S
C3696 C3700 1.350 . S
C3697 C3700 1.463 . S
C3697 C3702 1.350 . S
C3697 N3705 1.427 . S
C3698 H3689 0.930 . S
C3698 C3696 1.378 . S
C3698 C3699 1.367 . S
C3699 C3698 1.367 . S
C3699 C3701 1.433 . S
C3700 C3696 1.350 . S
C3700 C3697 1.463 . S
C3700 N3704 1.427 . S
C3701 H3691 0.929 . S
C3701 C3699 1.433 . S
C3701 N3704 1.384 . S
C3702 H3693 0.929 . S
C3702 C3694 1.378 . S
C3702 C3697 1.350 . S
C3703 H3690 0.929 . S
C3703 C3695 1.433 . S
C3703 N3705 1.384 . S
N3704 C3700 1.427 . S
N3704 C3701 1.384 . S
N3705 C3697 1.427 . S
N3705 C3703 1.384 . S
H3706 C3712 0.930 . S
H3707 C3716 0.930 . S
H3708 C3721 0.929 . S
H3709 C3719 0.929 . S
H3710 C3714 0.929 . S
H3711 C3720 0.929 . S
C3712 H3706 0.930 . S
C3712 C3713 1.367 . S
C3712 C3720 1.378 . S
C3713 C3712 1.367 . S
C3713 C3721 1.433 . S
C3714 H3710 0.929 . S
C3714 C3716 1.378 . S
C3714 C3718 1.350 . S
C3715 C3718 1.463 . S
C3715 C3720 1.350 . S
C3715 N3723 1.427 . S
C3716 H3707 0.930 . S
C3716 C3714 1.378 . S
C3716 C3717 1.367 . S
C3717 C3716 1.367 . S
C3717 C3719 1.433 . S
C3718 C3714 1.350 . S
C3718 C3715 1.463 . S
C3718 N3722 1.427 . S
C3719 H3709 0.929 . S
C3719 C3717 1.433 . S
C3719 N3722 1.384 . S
C3720 H3711 0.929 . S
C3720 C3712 1.378 . S
C3720 C3715 1.350 . S
C3721 H3708 0.929 . S
C3721 C3713 1.433 . S
C3721 N3723 1.384 . S
N3722 C3718 1.427 . S
N3722 C3719 1.384 . S
N3723 C3715 1.427 . S
N3723 C3721 1.384 . S
H3724 C3730 0.930 . S
H3725 C3734 0.930 . S
H3726 C3739 0.929 . S
H3727 C3737 0.929 . S
H3728 C3732 0.929 . S
H3729 C3738 0.929 . S
C3730 H3724 0.930 . S
C3730 C3731 1.367 . S
C3730 C3738 1.378 . S
C3731 C3730 1.367 . S
C3731 C3739 1.433 . S
C3732 H3728 0.929 . S
C3732 C3734 1.378 . S
C3732 C3736 1.350 . S
C3733 C3736 1.463 . S
C3733 C3738 1.350 . S
C3733 N3741 1.427 . S
C3734 H3725 0.930 . S
C3734 C3732 1.378 . S
C3734 C3735 1.367 . S
C3735 C3734 1.367 . S
C3735 C3737 1.433 . S
C3736 C3732 1.350 . S
C3736 C3733 1.463 . S
C3736 N3740 1.427 . S
C3737 H3727 0.929 . S
C3737 C3735 1.433 . S
C3737 N3740 1.384 . S
C3738 H3729 0.929 . S
C3738 C3730 1.378 . S
C3738 C3733 1.350 . S
C3739 H3726 0.929 . S
C3739 C3731 1.433 . S
C3739 N3741 1.384 . S
N3740 C3736 1.427 . S
N3740 C3737 1.384 . S
N3741 C3733 1.427 . S
N3741 C3739 1.384 . S
H3742 C3748 0.930 . S
H3743 C3752 0.930 . S
H3744 C3757 0.929 . S
H3745 C3755 0.929 . S
H3746 C3750 0.929 . S
H3747 C3756 0.929 . S
C3748 H3742 0.930 . S
C3748 C3749 1.367 . S
C3748 C3756 1.378 . S
C3749 C3748 1.367 . S
C3749 C3757 1.433 . S
C3750 H3746 0.929 . S
C3750 C3752 1.378 . S
C3750 C3754 1.350 . S
C3751 C3754 1.463 . S
C3751 C3756 1.350 . S
C3751 N3759 1.427 . S
C3752 H3743 0.930 . S
C3752 C3750 1.378 . S
C3752 C3753 1.367 . S
C3753 C3752 1.367 . S
C3753 C3755 1.433 . S
C3754 C3750 1.350 . S
C3754 C3751 1.463 . S
C3754 N3758 1.427 . S
C3755 H3745 0.929 . S
C3755 C3753 1.433 . S
C3755 N3758 1.384 . S
C3756 H3747 0.929 . S
C3756 C3748 1.378 . S
C3756 C3751 1.350 . S
C3757 H3744 0.929 . S
C3757 C3749 1.433 . S
C3757 N3759 1.384 . S
N3758 C3754 1.427 . S
N3758 C3755 1.384 . S
N3759 C3751 1.427 . S
N3759 C3757 1.384 . S
H3760 C3766 0.930 . S
H3761 C3770 0.930 . S
H3762 C3775 0.929 . S
H3763 C3773 0.929 . S
H3764 C3768 0.929 . S
H3765 C3774 0.929 . S
C3766 H3760 0.930 . S
C3766 C3767 1.367 . S
C3766 C3774 1.378 . S
C3767 C3766 1.367 . S
C3767 C3775 1.433 . S
C3768 H3764 0.929 . S
C3768 C3770 1.378 . S
C3768 C3772 1.350 . S
C3769 C3772 1.463 . S
C3769 C3774 1.350 . S
C3769 N3777 1.427 . S
C3770 H3761 0.930 . S
C3770 C3768 1.378 . S
C3770 C3771 1.367 . S
C3771 C3770 1.367 . S
C3771 C3773 1.433 . S
C3772 C3768 1.350 . S
C3772 C3769 1.463 . S
C3772 N3776 1.427 . S
C3773 H3763 0.929 . S
C3773 C3771 1.433 . S
C3773 N3776 1.384 . S
C3774 H3765 0.929 . S
C3774 C3766 1.378 . S
C3774 C3769 1.350 . S
C3775 H3762 0.929 . S
C3775 C3767 1.433 . S
C3775 N3777 1.384 . S
N3776 C3772 1.427 . S
N3776 C3773 1.384 . S
N3777 C3769 1.427 . S
N3777 C3775 1.384 . S
H3778 C3784 0.930 . S
H3779 C3788 0.930 . S
H3780 C3793 0.929 . S
H3781 C3791 0.929 . S
H3782 C3786 0.929 . S
H3783 C3792 0.929 . S
C3784 H3778 0.930 . S
C3784 C3785 1.367 . S
C3784 C3792 1.378 . S
C3785 C3784 1.367 . S
C3785 C3793 1.433 . S
C3786 H3782 0.929 . S
C3786 C3788 1.378 . S
C3786 C3790 1.350 . S
C3787 C3790 1.463 . S
C3787 C3792 1.350 . S
C3787 N3795 1.427 . S
C3788 H3779 0.930 . S
C3788 C3786 1.378 . S
C3788 C3789 1.367 . S
C3789 C3788 1.367 . S
C3789 C3791 1.433 . S
C3790 C3786 1.350 . S
C3790 C3787 1.463 . S
C3790 N3794 1.427 . S
C3791 H3781 0.929 . S
C3791 C3789 1.433 . S
C3791 N3794 1.384 . S
C3792 H3783 0.929 . S
C3792 C3784 1.378 . S
C3792 C3787 1.350 . S
C3793 H3780 0.929 . S
C3793 C3785 1.433 . S
C3793 N3795 1.384 . S
N3794 C3790 1.427 . S
N3794 C3791 1.384 . S
N3795 C3787 1.427 . S
N3795 C3793 1.384 . S
H3796 C3802 0.930 . S
H3797 C3806 0.930 . S
H3798 C3811 0.929 . S
H3799 C3809 0.929 . S
H3800 C3804 0.929 . S
H3801 C3810 0.929 . S
C3802 H3796 0.930 . S
C3802 C3803 1.367 . S
C3802 C3810 1.378 . S
C3803 C3802 1.367 . S
C3803 C3811 1.433 . S
C3804 H3800 0.929 . S
C3804 C3806 1.378 . S
C3804 C3808 1.350 . S
C3805 C3808 1.463 . S
C3805 C3810 1.350 . S
C3805 N3813 1.427 . S
C3806 H3797 0.930 . S
C3806 C3804 1.378 . S
C3806 C3807 1.367 . S
C3807 C3806 1.367 . S
C3807 C3809 1.433 . S
C3808 C3804 1.350 . S
C3808 C3805 1.463 . S
C3808 N3812 1.427 . S
C3809 H3799 0.929 . S
C3809 C3807 1.433 . S
C3809 N3812 1.384 . S
C3810 H3801 0.929 . S
C3810 C3802 1.378 . S
C3810 C3805 1.350 . S
C3811 H3798 0.929 . S
C3811 C3803 1.433 . S
C3811 N3813 1.384 . S
N3812 C3808 1.427 . S
N3812 C3809 1.384 . S
N3813 C3805 1.427 . S
N3813 C3811 1.384 . S
H3814 C3820 0.930 . S
H3815 C3824 0.930 . S
H3816 C3829 0.929 . S
H3817 C3827 0.929 . S
H3818 C3822 0.929 . S
H3819 C3828 0.929 . S
C3820 H3814 0.930 . S
C3820 C3821 1.367 . S
C3820 C3828 1.378 . S
C3821 C3820 1.367 . S
C3821 C3829 1.433 . S
C3822 H3818 0.929 . S
C3822 C3824 1.378 . S
C3822 C3826 1.350 . S
C3823 C3826 1.463 . S
C3823 C3828 1.350 . S
C3823 N3831 1.427 . S
C3824 H3815 0.930 . S
C3824 C3822 1.378 . S
C3824 C3825 1.367 . S
C3825 C3824 1.367 . S
C3825 C3827 1.433 . S
C3826 C3822 1.350 . S
C3826 C3823 1.463 . S
C3826 N3830 1.427 . S
C3827 H3817 0.929 . S
C3827 C3825 1.433 . S
C3827 N3830 1.384 . S
C3828 H3819 0.929 . S
C3828 C3820 1.378 . S
C3828 C3823 1.350 . S
C3829 H3816 0.929 . S
C3829 C3821 1.433 . S
C3829 N3831 1.384 . S
N3830 C3826 1.427 . S
N3830 C3827 1.384 . S
N3831 C3823 1.427 . S
N3831 C3829 1.384 . S
H3832 C3838 0.930 . S
H3833 C3842 0.930 . S
H3834 C3847 0.929 . S
H3835 C3845 0.929 . S
H3836 C3840 0.929 . S
H3837 C3846 0.929 . S
C3838 H3832 0.930 . S
C3838 C3839 1.367 . S
C3838 C3846 1.378 . S
C3839 C3838 1.367 . S
C3839 C3847 1.433 . S
C3840 H3836 0.929 . S
C3840 C3842 1.378 . S
C3840 C3844 1.350 . S
C3841 C3844 1.463 . S
C3841 C3846 1.350 . S
C3841 N3849 1.427 . S
C3842 H3833 0.930 . S
C3842 C3840 1.378 . S
C3842 C3843 1.367 . S
C3843 C3842 1.367 . S
C3843 C3845 1.433 . S
C3844 C3840 1.350 . S
C3844 C3841 1.463 . S
C3844 N3848 1.427 . S
C3845 H3835 0.929 . S
C3845 C3843 1.433 . S
C3845 N3848 1.384 . S
C3846 H3837 0.929 . S
C3846 C3838 1.378 . S
C3846 C3841 1.350 . S
C3847 H3834 0.929 . S
C3847 C3839 1.433 . S
C3847 N3849 1.384 . S
N3848 C3844 1.427 . S
N3848 C3845 1.384 . S
N3849 C3841 1.427 . S
N3849 C3847 1.384 . S
H3850 C3856 0.930 . S
H3851 C3860 0.930 . S
H3852 C3865 0.929 . S
H3853 C3863 0.929 . S
H3854 C3858 0.929 . S
H3855 C3864 0.929 . S
C3856 H3850 0.930 . S
C3856 C3857 1.367 . S
C3856 C3864 1.378 . S
C3857 C3856 1.367 . S
C3857 C3865 1.433 . S
C3858 H3854 0.929 . S
C3858 C3860 1.378 . S
C3858 C3862 1.350 . S
C3859 C3862 1.463 . S
C3859 C3864 1.350 . S
C3859 N3867 1.427 . S
C3860 H3851 0.930 . S
C3860 C3858 1.378 . S
C3860 C3861 1.367 . S
C3861 C3860 1.367 . S
C3861 C3863 1.433 . S
C3862 C3858 1.350 . S
C3862 C3859 1.463 . S
C3862 N3866 1.427 . S
C3863 H3853 0.929 . S
C3863 C3861 1.433 . S
C3863 N3866 1.384 . S
C3864 H3855 0.929 . S
C3864 C3856 1.378 . S
C3864 C3859 1.350 . S
C3865 H3852 0.929 . S
C3865 C3857 1.433 . S
C3865 N3867 1.384 . S
N3866 C3862 1.427 . S
N3866 C3863 1.384 . S
N3867 C3859 1.427 . S
N3867 C3865 1.384 . S
H3868 C3874 0.930 . S
H3869 C3878 0.930 . S
H3870 C3883 0.929 . S
H3871 C3881 0.929 . S
H3872 C3876 0.929 . S
H3873 C3882 0.929 . S
C3874 H3868 0.930 . S
C3874 C3875 1.367 . S
C3874 C3882 1.378 . S
C3875 C3874 1.367 . S
C3875 C3883 1.433 . S
C3876 H3872 0.929 . S
C3876 C3878 1.378 . S
C3876 C3880 1.350 . S
C3877 C3880 1.463 . S
C3877 C3882 1.350 . S
C3877 N3885 1.427 . S
C3878 H3869 0.930 . S
C3878 C3876 1.378 . S
C3878 C3879 1.367 . S
C3879 C3878 1.367 . S
C3879 C3881 1.433 . S
C3880 C3876 1.350 . S
C3880 C3877 1.463 . S
C3880 N3884 1.427 . S
C3881 H3871 0.929 . S
C3881 C3879 1.433 . S
C3881 N3884 1.384 . S
C3882 H3873 0.929 . S
C3882 C3874 1.378 . S
C3882 C3877 1.350 . S
C3883 H3870 0.929 . S
C3883 C3875 1.433 . S
C3883 N3885 1.384 . S
N3884 C3880 1.427 . S
N3884 C3881 1.384 . S
N3885 C3877 1.427 . S
N3885 C3883 1.384 . S
H3886 C3892 0.930 . S
H3887 C3896 0.930 . S
H3888 C3901 0.929 . S
H3889 C3899 0.929 . S
H3890 C3894 0.929 . S
H3891 C3900 0.929 . S
C3892 H3886 0.930 . S
C3892 C3893 1.367 . S
C3892 C3900 1.378 . S
C3893 C3892 1.367 . S
C3893 C3901 1.433 . S
C3894 H3890 0.929 . S
C3894 C3896 1.378 . S
C3894 C3898 1.350 . S
C3895 C3898 1.463 . S
C3895 C3900 1.350 . S
C3895 N3903 1.427 . S
C3896 H3887 0.930 . S
C3896 C3894 1.378 . S
C3896 C3897 1.367 . S
C3897 C3896 1.367 . S
C3897 C3899 1.433 . S
C3898 C3894 1.350 . S
C3898 C3895 1.463 . S
C3898 N3902 1.427 . S
C3899 H3889 0.929 . S
C3899 C3897 1.433 . S
C3899 N3902 1.384 . S
C3900 H3891 0.929 . S
C3900 C3892 1.378 . S
C3900 C3895 1.350 . S
C3901 H3888 0.929 . S
C3901 C3893 1.433 . S
C3901 N3903 1.384 . S
N3902 C3898 1.427 . S
N3902 C3899 1.384 . S
N3903 C3895 1.427 . S
N3903 C3901 1.384 . S
H3904 C3910 0.930 . S
H3905 C3914 0.930 . S
H3906 C3919 0.929 . S
H3907 C3917 0.929 . S
H3908 C3912 0.929 . S
H3909 C3918 0.929 . S
C3910 H3904 0.930 . S
C3910 C3911 1.367 . S
C3910 C3918 1.378 . S
C3911 C3910 1.367 . S
C3911 C3919 1.433 . S
C3912 H3908 0.929 . S
C3912 C3914 1.378 . S
C3912 C3916 1.350 . S
C3913 C3916 1.463 . S
C3913 C3918 1.350 . S
C3913 N3921 1.427 . S
C3914 H3905 0.930 . S
C3914 C3912 1.378 . S
C3914 C3915 1.367 . S
C3915 C3914 1.367 . S
C3915 C3917 1.433 . S
C3916 C3912 1.350 . S
C3916 C3913 1.463 . S
C3916 N3920 1.427 . S
C3917 H3907 0.929 . S
C3917 C3915 1.433 . S
C3917 N3920 1.384 . S
C3918 H3909 0.929 . S
C3918 C3910 1.378 . S
C3918 C3913 1.350 . S
C3919 H3906 0.929 . S
C3919 C3911 1.433 . S
C3919 N3921 1.384 . S
N3920 C3916 1.427 . S
N3920 C3917 1.384 . S
N3921 C3913 1.427 . S
N3921 C3919 1.384 . S
H3922 C3928 0.930 . S
H3923 C3932 0.930 . S
H3924 C3937 0.929 . S
H3925 C3935 0.929 . S
H3926 C3930 0.929 . S
H3927 C3936 0.929 . S
C3928 H3922 0.930 . S
C3928 C3929 1.367 . S
C3928 C3936 1.378 . S
C3929 C3928 1.367 . S
C3929 C3937 1.433 . S
C3930 H3926 0.929 . S
C3930 C3932 1.378 . S
C3930 C3934 1.350 . S
C3931 C3934 1.463 . S
C3931 C3936 1.350 . S
C3931 N3939 1.427 . S
C3932 H3923 0.930 . S
C3932 C3930 1.378 . S
C3932 C3933 1.367 . S
C3933 C3932 1.367 . S
C3933 C3935 1.433 . S
C3934 C3930 1.350 . S
C3934 C3931 1.463 . S
C3934 N3938 1.427 . S
C3935 H3925 0.929 . S
C3935 C3933 1.433 . S
C3935 N3938 1.384 . S
C3936 H3927 0.929 . S
C3936 C3928 1.378 . S
C3936 C3931 1.350 . S
C3937 H3924 0.929 . S
C3937 C3929 1.433 . S
C3937 N3939 1.384 . S
N3938 C3934 1.427 . S
N3938 C3935 1.384 . S
N3939 C3931 1.427 . S
N3939 C3937 1.384 . S
H3940 C3946 0.930 . S
H3941 C3950 0.930 . S
H3942 C3955 0.929 . S
H3943 C3953 0.929 . S
H3944 C3948 0.929 . S
H3945 C3954 0.929 . S
C3946 H3940 0.930 . S
C3946 C3947 1.367 . S
C3946 C3954 1.378 . S
C3947 C3946 1.367 . S
C3947 C3955 1.433 . S
C3948 H3944 0.929 . S
C3948 C3950 1.378 . S
C3948 C3952 1.350 . S
C3949 C3952 1.463 . S
C3949 C3954 1.350 . S
C3949 N3957 1.427 . S
C3950 H3941 0.930 . S
C3950 C3948 1.378 . S
C3950 C3951 1.367 . S
C3951 C3950 1.367 . S
C3951 C3953 1.433 . S
C3952 C3948 1.350 . S
C3952 C3949 1.463 . S
C3952 N3956 1.427 . S
C3953 H3943 0.929 . S
C3953 C3951 1.433 . S
C3953 N3956 1.384 . S
C3954 H3945 0.929 . S
C3954 C3946 1.378 . S
C3954 C3949 1.350 . S
C3955 H3942 0.929 . S
C3955 C3947 1.433 . S
C3955 N3957 1.384 . S
N3956 C3952 1.427 . S
N3956 C3953 1.384 . S
N3957 C3949 1.427 . S
N3957 C3955 1.384 . S
H3958 C3964 0.930 1_556 S
H3959 C3968 0.930 . S
H3960 C3973 0.929 . S
H3961 C3971 0.929 . S
H3962 C3966 0.929 . S
H3963 C3972 0.899 1_556 S
C3964 H3958 0.930 1_554 S
C3964 C3965 1.367 . S
C3964 C3972 1.378 . S
C3965 C3964 1.367 . S
C3965 C3973 1.433 . S
C3966 H3962 0.929 . S
C3966 C3968 1.378 . S
C3966 C3970 1.350 . S
C3967 C3970 1.463 . S
C3967 C3972 1.350 . S
C3967 N3975 1.427 . S
C3968 H3959 0.930 . S
C3968 C3966 1.378 . S
C3968 C3969 1.367 . S
C3969 C3968 1.367 . S
C3969 C3971 1.433 . S
C3970 C3966 1.350 . S
C3970 C3967 1.463 . S
C3970 N3974 1.427 . S
C3971 H3961 0.929 . S
C3971 C3969 1.433 . S
C3971 N3974 1.384 . S
C3972 H3963 0.899 1_554 S
C3972 C3964 1.378 . S
C3972 C3967 1.350 . S
C3973 H3960 0.929 . S
C3973 C3965 1.433 . S
C3973 N3975 1.384 . S
N3974 C3970 1.427 . S
N3974 C3971 1.384 . S
N3975 C3967 1.427 . S
N3975 C3973 1.384 . S
H3976 C3982 0.930 . S
H3977 C3986 0.930 . S
H3978 C3991 0.929 . S
H3979 C3989 0.929 . S
H3980 C3984 0.929 . S
H3981 C3990 0.929 . S
C3982 H3976 0.930 . S
C3982 C3983 1.367 . S
C3982 C3990 1.378 . S
C3983 C3982 1.367 . S
C3983 C3991 1.433 . S
C3984 H3980 0.929 . S
C3984 C3986 1.378 . S
C3984 C3988 1.350 . S
C3985 C3988 1.463 . S
C3985 C3990 1.350 . S
C3985 N3993 1.427 . S
C3986 H3977 0.930 . S
C3986 C3984 1.378 . S
C3986 C3987 1.367 . S
C3987 C3986 1.367 . S
C3987 C3989 1.433 . S
C3988 C3984 1.350 . S
C3988 C3985 1.463 . S
C3988 N3992 1.427 . S
C3989 H3979 0.929 . S
C3989 C3987 1.433 . S
C3989 N3992 1.384 . S
C3990 H3981 0.929 . S
C3990 C3982 1.378 . S
C3990 C3985 1.350 . S
C3991 H3978 0.929 . S
C3991 C3983 1.433 . S
C3991 N3993 1.384 . S
N3992 C3988 1.427 . S
N3992 C3989 1.384 . S
N3993 C3985 1.427 . S
N3993 C3991 1.384 . S
H3994 C4000 0.934 1_556 S
H3995 C4004 0.930 . S
H3996 C4009 0.929 . S
H3997 C4007 0.929 . S
H3998 C4002 0.929 . S
H3999 C4008 0.929 . S
C4000 H3994 0.934 1_554 S
C4000 C4001 1.367 . S
C4000 C4008 1.378 . S
C4001 C4000 1.367 . S
C4001 C4009 1.433 . S
C4002 H3998 0.929 . S
C4002 C4004 1.378 . S
C4002 C4006 1.350 . S
C4003 C4006 1.463 . S
C4003 C4008 1.350 . S
C4003 N4011 1.427 . S
C4004 H3995 0.930 . S
C4004 C4002 1.378 . S
C4004 C4005 1.367 . S
C4005 C4004 1.367 . S
C4005 C4007 1.433 . S
C4006 C4002 1.350 . S
C4006 C4003 1.463 . S
C4006 N4010 1.427 . S
C4007 H3997 0.929 . S
C4007 C4005 1.433 . S
C4007 N4010 1.384 . S
C4008 H3999 0.929 . S
C4008 C4000 1.378 . S
C4008 C4003 1.350 . S
C4009 H3996 0.929 . S
C4009 C4001 1.433 . S
C4009 N4011 1.384 . S
N4010 C4006 1.427 . S
N4010 C4007 1.384 . S
N4011 C4003 1.427 . S
N4011 C4009 1.384 . S
H4012 C4018 0.930 . S
H4013 C4022 0.930 . S
H4014 C4027 0.929 . S
H4015 C4025 0.929 . S
H4016 C4020 0.929 . S
H4017 C4026 0.929 . S
C4018 H4012 0.930 . S
C4018 C4019 1.367 . S
C4018 C4026 1.378 . S
C4019 C4018 1.367 . S
C4019 C4027 1.433 . S
C4020 H4016 0.929 . S
C4020 C4022 1.378 . S
C4020 C4024 1.350 . S
C4021 C4024 1.463 . S
C4021 C4026 1.350 . S
C4021 N4029 1.427 . S
C4022 H4013 0.930 . S
C4022 C4020 1.378 . S
C4022 C4023 1.367 . S
C4023 C4022 1.367 . S
C4023 C4025 1.433 . S
C4024 C4020 1.350 . S
C4024 C4021 1.463 . S
C4024 N4028 1.427 . S
C4025 H4015 0.929 . S
C4025 C4023 1.433 . S
C4025 N4028 1.384 . S
C4026 H4017 0.929 . S
C4026 C4018 1.378 . S
C4026 C4021 1.350 . S
C4027 H4014 0.929 . S
C4027 C4019 1.433 . S
C4027 N4029 1.384 . S
N4028 C4024 1.427 . S
N4028 C4025 1.384 . S
N4029 C4021 1.427 . S
N4029 C4027 1.384 . S
H4030 C4036 0.930 . S
H4031 C4040 0.930 . S
H4032 C4045 0.929 . S
H4033 C4043 0.929 . S
H4034 C4038 0.929 . S
H4035 C4044 0.929 . S
C4036 H4030 0.930 . S
C4036 C4037 1.367 . S
C4036 C4044 1.378 . S
C4037 C4036 1.367 . S
C4037 C4045 1.433 . S
C4038 H4034 0.929 . S
C4038 C4040 1.378 . S
C4038 C4042 1.350 . S
C4039 C4042 1.463 . S
C4039 C4044 1.350 . S
C4039 N4047 1.427 . S
C4040 H4031 0.930 . S
C4040 C4038 1.378 . S
C4040 C4041 1.367 . S
C4041 C4040 1.367 . S
C4041 C4043 1.433 . S
C4042 C4038 1.350 . S
C4042 C4039 1.463 . S
C4042 N4046 1.427 . S
C4043 H4033 0.929 . S
C4043 C4041 1.433 . S
C4043 N4046 1.384 . S
C4044 H4035 0.929 . S
C4044 C4036 1.378 . S
C4044 C4039 1.350 . S
C4045 H4032 0.929 . S
C4045 C4037 1.433 . S
C4045 N4047 1.384 . S
N4046 C4042 1.427 . S
N4046 C4043 1.384 . S
N4047 C4039 1.427 . S
N4047 C4045 1.384 . S
H4048 C4054 0.930 . S
H4049 C4058 0.930 . S
H4050 C4063 0.929 . S
H4051 C4061 0.929 . S
H4052 C4056 0.929 . S
H4053 C4062 0.929 . S
C4054 H4048 0.930 . S
C4054 C4055 1.367 . S
C4054 C4062 1.378 . S
C4055 C4054 1.367 . S
C4055 C4063 1.433 . S
C4056 H4052 0.929 . S
C4056 C4058 1.378 . S
C4056 C4060 1.350 . S
C4057 C4060 1.463 . S
C4057 C4062 1.350 . S
C4057 N4065 1.427 . S
C4058 H4049 0.930 . S
C4058 C4056 1.378 . S
C4058 C4059 1.367 . S
C4059 C4058 1.367 . S
C4059 C4061 1.433 . S
C4060 C4056 1.350 . S
C4060 C4057 1.463 . S
C4060 N4064 1.427 . S
C4061 H4051 0.929 . S
C4061 C4059 1.433 . S
C4061 N4064 1.384 . S
C4062 H4053 0.929 . S
C4062 C4054 1.378 . S
C4062 C4057 1.350 . S
C4063 H4050 0.929 . S
C4063 C4055 1.433 . S
C4063 N4065 1.384 . S
N4064 C4060 1.427 . S
N4064 C4061 1.384 . S
N4065 C4057 1.427 . S
N4065 C4063 1.384 . S
H4066 C4072 0.930 . S
H4067 C4076 0.930 . S
H4068 C4081 0.929 . S
H4069 C4079 0.929 . S
H4070 C4074 0.929 . S
H4071 C4080 0.929 . S
C4072 H4066 0.930 . S
C4072 C4073 1.367 . S
C4072 C4080 1.378 . S
C4073 C4072 1.367 . S
C4073 C4081 1.433 . S
C4074 H4070 0.929 . S
C4074 C4076 1.378 . S
C4074 C4078 1.350 . S
C4075 C4078 1.463 . S
C4075 C4080 1.350 . S
C4075 N4083 1.427 . S
C4076 H4067 0.930 . S
C4076 C4074 1.378 . S
C4076 C4077 1.367 . S
C4077 C4076 1.367 . S
C4077 C4079 1.433 . S
C4078 C4074 1.350 . S
C4078 C4075 1.463 . S
C4078 N4082 1.427 . S
C4079 H4069 0.929 . S
C4079 C4077 1.433 . S
C4079 N4082 1.384 . S
C4080 H4071 0.929 . S
C4080 C4072 1.378 . S
C4080 C4075 1.350 . S
C4081 H4068 0.929 . S
C4081 C4073 1.433 . S
C4081 N4083 1.384 . S
N4082 C4078 1.427 . S
N4082 C4079 1.384 . S
N4083 C4075 1.427 . S
N4083 C4081 1.384 . S
H4084 C4090 0.930 . S
H4085 C4094 0.930 . S
H4086 C4099 0.929 . S
H4087 C4097 0.929 . S
H4088 C4092 0.929 . S
H4089 C4098 0.929 . S
C4090 H4084 0.930 . S
C4090 C4091 1.367 . S
C4090 C4098 1.378 . S
C4091 C4090 1.367 . S
C4091 C4099 1.433 . S
C4092 H4088 0.929 . S
C4092 C4094 1.378 . S
C4092 C4096 1.350 . S
C4093 C4096 1.463 . S
C4093 C4098 1.350 . S
C4093 N4101 1.427 . S
C4094 H4085 0.930 . S
C4094 C4092 1.378 . S
C4094 C4095 1.367 . S
C4095 C4094 1.367 . S
C4095 C4097 1.433 . S
C4096 C4092 1.350 . S
C4096 C4093 1.463 . S
C4096 N4100 1.427 . S
C4097 H4087 0.929 . S
C4097 C4095 1.433 . S
C4097 N4100 1.384 . S
C4098 H4089 0.929 . S
C4098 C4090 1.378 . S
C4098 C4093 1.350 . S
C4099 H4086 0.929 . S
C4099 C4091 1.433 . S
C4099 N4101 1.384 . S
N4100 C4096 1.427 . S
N4100 C4097 1.384 . S
N4101 C4093 1.427 . S
N4101 C4099 1.384 . S
H4102 C4108 0.930 . S
H4103 C4112 0.930 . S
H4104 C4117 0.929 . S
H4105 C4115 0.929 . S
H4106 C4110 0.929 . S
H4107 C4116 0.929 . S
C4108 H4102 0.930 . S
C4108 C4109 1.367 . S
C4108 C4116 1.378 . S
C4109 C4108 1.367 . S
C4109 C4117 1.433 . S
C4110 H4106 0.929 . S
C4110 C4112 1.378 . S
C4110 C4114 1.350 . S
C4111 C4114 1.463 . S
C4111 C4116 1.350 . S
C4111 N4119 1.427 . S
C4112 H4103 0.930 . S
C4112 C4110 1.378 . S
C4112 C4113 1.367 . S
C4113 C4112 1.367 . S
C4113 C4115 1.433 . S
C4114 C4110 1.350 . S
C4114 C4111 1.463 . S
C4114 N4118 1.427 . S
C4115 H4105 0.929 . S
C4115 C4113 1.433 . S
C4115 N4118 1.384 . S
C4116 H4107 0.929 . S
C4116 C4108 1.378 . S
C4116 C4111 1.350 . S
C4117 H4104 0.929 . S
C4117 C4109 1.433 . S
C4117 N4119 1.384 . S
N4118 C4114 1.427 . S
N4118 C4115 1.384 . S
N4119 C4111 1.427 . S
N4119 C4117 1.384 . S
H4120 C4126 0.930 . S
H4121 C4130 0.930 . S
H4122 C4135 0.929 . S
H4123 C4133 0.929 . S
H4124 C4128 0.929 . S
H4125 C4134 0.929 . S
C4126 H4120 0.930 . S
C4126 C4127 1.367 . S
C4126 C4134 1.378 . S
C4127 C4126 1.367 . S
C4127 C4135 1.433 . S
C4128 H4124 0.929 . S
C4128 C4130 1.378 . S
C4128 C4132 1.350 . S
C4129 C4132 1.463 . S
C4129 C4134 1.350 . S
C4129 N4137 1.427 . S
C4130 H4121 0.930 . S
C4130 C4128 1.378 . S
C4130 C4131 1.367 . S
C4131 C4130 1.367 . S
C4131 C4133 1.433 . S
C4132 C4128 1.350 . S
C4132 C4129 1.463 . S
C4132 N4136 1.427 . S
C4133 H4123 0.929 . S
C4133 C4131 1.433 . S
C4133 N4136 1.384 . S
C4134 H4125 0.929 . S
C4134 C4126 1.378 . S
C4134 C4129 1.350 . S
C4135 H4122 0.929 . S
C4135 C4127 1.433 . S
C4135 N4137 1.384 . S
N4136 C4132 1.427 . S
N4136 C4133 1.384 . S
N4137 C4129 1.427 . S
N4137 C4135 1.384 . S
H4138 C4144 0.930 . S
H4139 C4148 0.930 . S
H4140 C4153 0.929 . S
H4141 C4151 0.929 . S
H4142 C4146 0.929 . S
H4143 C4152 0.929 . S
C4144 H4138 0.930 . S
C4144 C4145 1.367 . S
C4144 C4152 1.378 . S
C4145 C4144 1.367 . S
C4145 C4153 1.433 . S
C4146 H4142 0.929 . S
C4146 C4148 1.378 . S
C4146 C4150 1.350 . S
C4147 C4150 1.463 . S
C4147 C4152 1.350 . S
C4147 N4155 1.427 . S
C4148 H4139 0.930 . S
C4148 C4146 1.378 . S
C4148 C4149 1.367 . S
C4149 C4148 1.367 . S
C4149 C4151 1.433 . S
C4150 C4146 1.350 . S
C4150 C4147 1.463 . S
C4150 N4154 1.427 . S
C4151 H4141 0.929 . S
C4151 C4149 1.433 . S
C4151 N4154 1.384 . S
C4152 H4143 0.929 . S
C4152 C4144 1.378 . S
C4152 C4147 1.350 . S
C4153 H4140 0.929 . S
C4153 C4145 1.433 . S
C4153 N4155 1.384 . S
N4154 C4150 1.427 . S
N4154 C4151 1.384 . S
N4155 C4147 1.427 . S
N4155 C4153 1.384 . S
H4156 C4162 0.930 . S
H4157 C4166 0.930 . S
H4158 C4171 0.929 . S
H4159 C4169 0.929 . S
H4160 C4164 0.929 . S
H4161 C4170 0.929 . S
C4162 H4156 0.930 . S
C4162 C4163 1.367 . S
C4162 C4170 1.378 . S
C4163 C4162 1.367 . S
C4163 C4171 1.433 . S
C4164 H4160 0.929 . S
C4164 C4166 1.378 . S
C4164 C4168 1.350 . S
C4165 C4168 1.463 . S
C4165 C4170 1.350 . S
C4165 N4173 1.427 . S
C4166 H4157 0.930 . S
C4166 C4164 1.378 . S
C4166 C4167 1.367 . S
C4167 C4166 1.367 . S
C4167 C4169 1.433 . S
C4168 C4164 1.350 . S
C4168 C4165 1.463 . S
C4168 N4172 1.427 . S
C4169 H4159 0.929 . S
C4169 C4167 1.433 . S
C4169 N4172 1.384 . S
C4170 H4161 0.929 . S
C4170 C4162 1.378 . S
C4170 C4165 1.350 . S
C4171 H4158 0.929 . S
C4171 C4163 1.433 . S
C4171 N4173 1.384 . S
N4172 C4168 1.427 . S
N4172 C4169 1.384 . S
N4173 C4165 1.427 . S
N4173 C4171 1.384 . S
H4174 C4180 0.930 . S
H4175 C4184 0.930 . S
H4176 C4189 0.929 . S
H4177 C4187 0.929 . S
H4178 C4182 0.929 . S
H4179 C4188 0.929 . S
C4180 H4174 0.930 . S
C4180 C4181 1.367 . S
C4180 C4188 1.378 . S
C4181 C4180 1.367 . S
C4181 C4189 1.433 . S
C4182 H4178 0.929 . S
C4182 C4184 1.378 . S
C4182 C4186 1.350 . S
C4183 C4186 1.463 . S
C4183 C4188 1.350 . S
C4183 N4191 1.427 . S
C4184 H4175 0.930 . S
C4184 C4182 1.378 . S
C4184 C4185 1.367 . S
C4185 C4184 1.367 . S
C4185 C4187 1.433 . S
C4186 C4182 1.350 . S
C4186 C4183 1.463 . S
C4186 N4190 1.427 . S
C4187 H4177 0.929 . S
C4187 C4185 1.433 . S
C4187 N4190 1.384 . S
C4188 H4179 0.929 . S
C4188 C4180 1.378 . S
C4188 C4183 1.350 . S
C4189 H4176 0.929 . S
C4189 C4181 1.433 . S
C4189 N4191 1.384 . S
N4190 C4186 1.427 . S
N4190 C4187 1.384 . S
N4191 C4183 1.427 . S
N4191 C4189 1.384 . S
H4192 C4198 0.930 . S
H4193 C4202 0.930 . S
H4194 C4207 0.929 . S
H4195 C4205 0.929 . S
H4196 C4200 0.929 . S
H4197 C4206 0.929 . S
C4198 H4192 0.930 . S
C4198 C4199 1.367 . S
C4198 C4206 1.378 . S
C4199 C4198 1.367 . S
C4199 C4207 1.433 . S
C4200 H4196 0.929 . S
C4200 C4202 1.378 . S
C4200 C4204 1.350 . S
C4201 C4204 1.463 . S
C4201 C4206 1.350 . S
C4201 N4209 1.427 . S
C4202 H4193 0.930 . S
C4202 C4200 1.378 . S
C4202 C4203 1.367 . S
C4203 C4202 1.367 . S
C4203 C4205 1.433 . S
C4204 C4200 1.350 . S
C4204 C4201 1.463 . S
C4204 N4208 1.427 . S
C4205 H4195 0.929 . S
C4205 C4203 1.433 . S
C4205 N4208 1.384 . S
C4206 H4197 0.929 . S
C4206 C4198 1.378 . S
C4206 C4201 1.350 . S
C4207 H4194 0.929 . S
C4207 C4199 1.433 . S
C4207 N4209 1.384 . S
N4208 C4204 1.427 . S
N4208 C4205 1.384 . S
N4209 C4201 1.427 . S
N4209 C4207 1.384 . S
H4210 C4216 0.930 . S
H4211 C4220 0.930 . S
H4212 C4225 0.929 . S
H4213 C4223 0.929 . S
H4214 C4218 0.929 . S
H4215 C4224 0.929 . S
C4216 H4210 0.930 . S
C4216 C4217 1.367 . S
C4216 C4224 1.378 . S
C4217 C4216 1.367 . S
C4217 C4225 1.433 . S
C4218 H4214 0.929 . S
C4218 C4220 1.378 . S
C4218 C4222 1.350 . S
C4219 C4222 1.463 . S
C4219 C4224 1.350 . S
C4219 N4227 1.427 . S
C4220 H4211 0.930 . S
C4220 C4218 1.378 . S
C4220 C4221 1.367 . S
C4221 C4220 1.367 . S
C4221 C4223 1.433 . S
C4222 C4218 1.350 . S
C4222 C4219 1.463 . S
C4222 N4226 1.427 . S
C4223 H4213 0.929 . S
C4223 C4221 1.433 . S
C4223 N4226 1.384 . S
C4224 H4215 0.929 . S
C4224 C4216 1.378 . S
C4224 C4219 1.350 . S
C4225 H4212 0.929 . S
C4225 C4217 1.433 . S
C4225 N4227 1.384 . S
N4226 C4222 1.427 . S
N4226 C4223 1.384 . S
N4227 C4219 1.427 . S
N4227 C4225 1.384 . S
H4228 C4234 0.930 . S
H4229 C4238 0.930 . S
H4230 C4243 0.929 . S
H4231 C4241 0.929 . S
H4232 C4236 0.926 . S
H4233 C4242 0.929 . S
C4234 H4228 0.930 . S
C4234 C4235 1.367 . S
C4234 C4242 1.378 . S
C4235 C4234 1.367 . S
C4235 C4243 1.433 . S
C4236 H4232 0.926 . S
C4236 C4238 1.378 1_655 S
C4236 C4240 1.350 . S
C4237 C4240 1.463 . S
C4237 C4242 1.350 . S
C4237 N4245 1.427 . S
C4238 H4229 0.930 . S
C4238 C4236 1.378 1_455 S
C4238 C4239 1.367 . S
C4239 C4238 1.367 . S
C4239 C4241 1.433 1_455 S
C4240 C4236 1.350 . S
C4240 C4237 1.463 . S
C4240 N4244 1.427 . S
C4241 H4231 0.929 . S
C4241 C4239 1.433 1_655 S
C4241 N4244 1.384 . S
C4242 H4233 0.929 . S
C4242 C4234 1.378 . S
C4242 C4237 1.350 . S
C4243 H4230 0.929 . S
C4243 C4235 1.433 . S
C4243 N4245 1.384 . S
N4244 C4240 1.427 . S
N4244 C4241 1.384 . S
N4245 C4237 1.427 . S
N4245 C4243 1.384 . S
H4246 C4252 0.930 . S
H4247 C4256 0.930 . S
H4248 C4261 0.929 . S
H4249 C4259 0.929 . S
H4250 C4254 0.929 . S
H4251 C4260 0.929 . S
C4252 H4246 0.930 . S
C4252 C4253 1.367 . S
C4252 C4260 1.378 . S
C4253 C4252 1.367 . S
C4253 C4261 1.433 . S
C4254 H4250 0.929 . S
C4254 C4256 1.378 . S
C4254 C4258 1.350 . S
C4255 C4258 1.463 . S
C4255 C4260 1.350 . S
C4255 N4263 1.427 . S
C4256 H4247 0.930 . S
C4256 C4254 1.378 . S
C4256 C4257 1.367 . S
C4257 C4256 1.367 . S
C4257 C4259 1.433 . S
C4258 C4254 1.350 . S
C4258 C4255 1.463 . S
C4258 N4262 1.427 . S
C4259 H4249 0.929 . S
C4259 C4257 1.433 . S
C4259 N4262 1.384 . S
C4260 H4251 0.929 . S
C4260 C4252 1.378 . S
C4260 C4255 1.350 . S
C4261 H4248 0.929 . S
C4261 C4253 1.433 . S
C4261 N4263 1.384 . S
N4262 C4258 1.427 . S
N4262 C4259 1.384 . S
N4263 C4255 1.427 . S
N4263 C4261 1.384 . S
H4264 C4270 0.930 . S
H4265 C4274 0.930 . S
H4266 C4279 0.929 . S
H4267 C4277 0.929 . S
H4268 C4272 0.929 . S
H4269 C4278 0.929 . S
C4270 H4264 0.930 . S
C4270 C4271 1.367 . S
C4270 C4278 1.378 . S
C4271 C4270 1.367 . S
C4271 C4279 1.433 . S
C4272 H4268 0.929 . S
C4272 C4274 1.378 . S
C4272 C4276 1.350 . S
C4273 C4276 1.463 . S
C4273 C4278 1.350 . S
C4273 N4281 1.427 . S
C4274 H4265 0.930 . S
C4274 C4272 1.378 . S
C4274 C4275 1.367 . S
C4275 C4274 1.367 . S
C4275 C4277 1.433 . S
C4276 C4272 1.350 . S
C4276 C4273 1.463 . S
C4276 N4280 1.427 . S
C4277 H4267 0.929 . S
C4277 C4275 1.433 . S
C4277 N4280 1.384 . S
C4278 H4269 0.929 . S
C4278 C4270 1.378 . S
C4278 C4273 1.350 . S
C4279 H4266 0.929 . S
C4279 C4271 1.433 . S
C4279 N4281 1.384 . S
N4280 C4276 1.427 . S
N4280 C4277 1.384 . S
N4281 C4273 1.427 . S
N4281 C4279 1.384 . S
H4282 C4288 0.930 . S
H4283 C4292 0.930 . S
H4284 C4297 0.929 . S
H4285 C4295 0.929 . S
H4286 C4290 0.929 . S
H4287 C4296 0.929 . S
C4288 H4282 0.930 . S
C4288 C4289 1.367 . S
C4288 C4296 1.378 . S
C4289 C4288 1.367 . S
C4289 C4297 1.433 . S
C4290 H4286 0.929 . S
C4290 C4292 1.378 . S
C4290 C4294 1.350 . S
C4291 C4294 1.463 . S
C4291 C4296 1.350 . S
C4291 N4299 1.427 . S
C4292 H4283 0.930 . S
C4292 C4290 1.378 . S
C4292 C4293 1.367 . S
C4293 C4292 1.367 . S
C4293 C4295 1.433 . S
C4294 C4290 1.350 . S
C4294 C4291 1.463 . S
C4294 N4298 1.427 . S
C4295 H4285 0.929 . S
C4295 C4293 1.433 . S
C4295 N4298 1.384 . S
C4296 H4287 0.929 . S
C4296 C4288 1.378 . S
C4296 C4291 1.350 . S
C4297 H4284 0.929 . S
C4297 C4289 1.433 . S
C4297 N4299 1.384 . S
N4298 C4294 1.427 . S
N4298 C4295 1.384 . S
N4299 C4291 1.427 . S
N4299 C4297 1.384 . S
H4300 C4306 0.930 . S
H4301 C4310 0.930 . S
H4302 C4315 0.929 . S
H4303 C4313 0.929 . S
H4304 C4308 0.931 . S
H4305 C4314 0.929 . S
C4306 H4300 0.930 . S
C4306 C4307 1.367 . S
C4306 C4314 1.378 . S
C4307 C4306 1.367 . S
C4307 C4315 1.433 . S
C4308 H4304 0.931 . S
C4308 C4310 1.382 . S
C4308 C4312 1.343 1_455 S
C4309 C4312 1.463 . S
C4309 C4314 1.350 . S
C4309 N4317 1.427 . S
C4310 H4301 0.930 . S
C4310 C4308 1.382 . S
C4310 C4311 1.368 1_455 S
C4311 C4310 1.368 1_655 S
C4311 C4313 1.428 . S
C4312 C4308 1.343 1_655 S
C4312 C4309 1.463 . S
C4312 N4316 1.427 . S
C4313 H4303 0.929 . S
C4313 C4311 1.428 . S
C4313 N4316 1.384 . S
C4314 H4305 0.929 . S
C4314 C4306 1.378 . S
C4314 C4309 1.350 . S
C4315 H4302 0.929 . S
C4315 C4307 1.433 . S
C4315 N4317 1.384 . S
N4316 C4312 1.427 . S
N4316 C4313 1.384 . S
N4317 C4309 1.427 . S
N4317 C4315 1.384 . S
H4318 C4324 0.930 . S
H4319 C4328 0.930 . S
H4320 C4333 0.929 . S
H4321 C4331 0.929 . S
H4322 C4326 0.929 . S
H4323 C4332 0.929 . S
C4324 H4318 0.930 . S
C4324 C4325 1.367 . S
C4324 C4332 1.378 . S
C4325 C4324 1.367 . S
C4325 C4333 1.433 . S
C4326 H4322 0.929 . S
C4326 C4328 1.378 . S
C4326 C4330 1.350 . S
C4327 C4330 1.463 . S
C4327 C4332 1.350 . S
C4327 N4335 1.427 . S
C4328 H4319 0.930 . S
C4328 C4326 1.378 . S
C4328 C4329 1.367 . S
C4329 C4328 1.367 . S
C4329 C4331 1.433 . S
C4330 C4326 1.350 . S
C4330 C4327 1.463 . S
C4330 N4334 1.427 . S
C4331 H4321 0.929 . S
C4331 C4329 1.433 . S
C4331 N4334 1.384 . S
C4332 H4323 0.929 . S
C4332 C4324 1.378 . S
C4332 C4327 1.350 . S
C4333 H4320 0.929 . S
C4333 C4325 1.433 . S
C4333 N4335 1.384 . S
N4334 C4330 1.427 . S
N4334 C4331 1.384 . S
N4335 C4327 1.427 . S
N4335 C4333 1.384 . S
H4336 C4342 0.930 . S
H4337 C4346 0.930 . S
H4338 C4351 0.929 . S
H4339 C4349 0.929 . S
H4340 C4344 0.929 . S
H4341 C4350 0.929 . S
C4342 H4336 0.930 . S
C4342 C4343 1.367 . S
C4342 C4350 1.378 . S
C4343 C4342 1.367 . S
C4343 C4351 1.433 . S
C4344 H4340 0.929 . S
C4344 C4346 1.378 . S
C4344 C4348 1.350 . S
C4345 C4348 1.463 . S
C4345 C4350 1.350 . S
C4345 N4353 1.427 . S
C4346 H4337 0.930 . S
C4346 C4344 1.378 . S
C4346 C4347 1.367 . S
C4347 C4346 1.367 . S
C4347 C4349 1.433 . S
C4348 C4344 1.350 . S
C4348 C4345 1.463 . S
C4348 N4352 1.427 . S
C4349 H4339 0.929 . S
C4349 C4347 1.433 . S
C4349 N4352 1.384 . S
C4350 H4341 0.929 . S
C4350 C4342 1.378 . S
C4350 C4345 1.350 . S
C4351 H4338 0.929 . S
C4351 C4343 1.433 . S
C4351 N4353 1.384 . S
N4352 C4348 1.427 . S
N4352 C4349 1.384 . S
N4353 C4345 1.427 . S
N4353 C4351 1.384 . S
H4354 C4360 0.930 . S
H4355 C4364 0.930 . S
H4356 C4369 0.929 . S
H4357 C4367 0.929 1_545 S
H4358 C4362 0.929 . S
H4359 C4368 0.929 . S
C4360 H4354 0.930 . S
C4360 C4361 1.367 . S
C4360 C4368 1.378 . S
C4361 C4360 1.367 . S
C4361 C4369 1.433 . S
C4362 H4358 0.929 . S
C4362 C4364 1.378 . S
C4362 C4366 1.350 . S
C4363 C4366 1.463 . S
C4363 C4368 1.350 . S
C4363 N4371 1.427 . S
C4364 H4355 0.930 . S
C4364 C4362 1.378 . S
C4364 C4365 1.367 . S
C4365 C4364 1.367 . S
C4365 C4367 1.433 . S
C4366 C4362 1.350 . S
C4366 C4363 1.463 . S
C4366 N4370 1.427 . S
C4367 H4357 0.929 1_565 S
C4367 C4365 1.433 . S
C4367 N4370 1.384 . S
C4368 H4359 0.929 . S
C4368 C4360 1.378 . S
C4368 C4363 1.350 . S
C4369 H4356 0.929 . S
C4369 C4361 1.433 . S
C4369 N4371 1.384 . S
N4370 C4366 1.427 . S
N4370 C4367 1.384 . S
N4371 C4363 1.427 . S
N4371 C4369 1.384 . S
H4372 C4378 0.930 . S
H4373 C4382 0.930 . S
H4374 C4387 0.929 . S
H4375 C4385 0.929 . S
H4376 C4380 0.929 . S
H4377 C4386 0.929 . S
C4378 H4372 0.930 . S
C4378 C4379 1.367 . S
C4378 C4386 1.378 . S
C4379 C4378 1.367 . S
C4379 C4387 1.433 . S
C4380 H4376 0.929 . S
C4380 C4382 1.378 . S
C4380 C4384 1.350 . S
C4381 C4384 1.463 . S
C4381 C4386 1.350 . S
C4381 N4389 1.427 . S
C4382 H4373 0.930 . S
C4382 C4380 1.378 . S
C4382 C4383 1.367 . S
C4383 C4382 1.367 . S
C4383 C4385 1.433 . S
C4384 C4380 1.350 . S
C4384 C4381 1.463 . S
C4384 N4388 1.427 . S
C4385 H4375 0.929 . S
C4385 C4383 1.433 . S
C4385 N4388 1.384 . S
C4386 H4377 0.929 . S
C4386 C4378 1.378 . S
C4386 C4381 1.350 . S
C4387 H4374 0.929 . S
C4387 C4379 1.433 . S
C4387 N4389 1.384 . S
N4388 C4384 1.427 . S
N4388 C4385 1.384 . S
N4389 C4381 1.427 . S
N4389 C4387 1.384 . S
H4390 C4396 0.930 . S
H4391 C4400 0.930 . S
H4392 C4405 0.929 . S
H4393 C4403 0.929 . S
H4394 C4398 0.929 . S
H4395 C4404 0.929 . S
C4396 H4390 0.930 . S
C4396 C4397 1.367 . S
C4396 C4404 1.378 . S
C4397 C4396 1.367 . S
C4397 C4405 1.433 . S
C4398 H4394 0.929 . S
C4398 C4400 1.378 . S
C4398 C4402 1.350 . S
C4399 C4402 1.463 . S
C4399 C4404 1.350 . S
C4399 N4407 1.427 . S
C4400 H4391 0.930 . S
C4400 C4398 1.378 . S
C4400 C4401 1.367 . S
C4401 C4400 1.367 . S
C4401 C4403 1.433 . S
C4402 C4398 1.350 . S
C4402 C4399 1.463 . S
C4402 N4406 1.427 . S
C4403 H4393 0.929 . S
C4403 C4401 1.433 . S
C4403 N4406 1.384 . S
C4404 H4395 0.929 . S
C4404 C4396 1.378 . S
C4404 C4399 1.350 . S
C4405 H4392 0.929 . S
C4405 C4397 1.433 . S
C4405 N4407 1.384 . S
N4406 C4402 1.427 . S
N4406 C4403 1.384 . S
N4407 C4399 1.427 . S
N4407 C4405 1.384 . S
H4408 C4414 0.930 . S
H4409 C4418 0.930 . S
H4410 C4423 0.929 . S
H4411 C4421 0.929 . S
H4412 C4416 0.929 . S
H4413 C4422 0.929 . S
C4414 H4408 0.930 . S
C4414 C4415 1.367 . S
C4414 C4422 1.378 . S
C4415 C4414 1.367 . S
C4415 C4423 1.433 . S
C4416 H4412 0.929 . S
C4416 C4418 1.378 . S
C4416 C4420 1.350 . S
C4417 C4420 1.463 . S
C4417 C4422 1.350 . S
C4417 N4425 1.427 . S
C4418 H4409 0.930 . S
C4418 C4416 1.378 . S
C4418 C4419 1.367 . S
C4419 C4418 1.367 . S
C4419 C4421 1.433 . S
C4420 C4416 1.350 . S
C4420 C4417 1.463 . S
C4420 N4424 1.427 . S
C4421 H4411 0.929 . S
C4421 C4419 1.433 . S
C4421 N4424 1.384 . S
C4422 H4413 0.929 . S
C4422 C4414 1.378 . S
C4422 C4417 1.350 . S
C4423 H4410 0.929 . S
C4423 C4415 1.433 . S
C4423 N4425 1.384 . S
N4424 C4420 1.427 . S
N4424 C4421 1.384 . S
N4425 C4417 1.427 . S
N4425 C4423 1.384 . S
H4426 C4432 0.930 . S
H4427 C4436 0.930 . S
H4428 C4441 0.929 . S
H4429 C4439 0.929 . S
H4430 C4434 0.929 . S
H4431 C4440 0.929 1_556 S
C4432 H4426 0.930 . S
C4432 C4433 1.367 . S
C4432 C4440 1.378 . S
C4433 C4432 1.367 . S
C4433 C4441 1.433 . S
C4434 H4430 0.929 . S
C4434 C4436 1.378 . S
C4434 C4438 1.350 . S
C4435 C4438 1.463 . S
C4435 C4440 1.350 . S
C4435 N4443 1.427 . S
C4436 H4427 0.930 . S
C4436 C4434 1.378 . S
C4436 C4437 1.367 . S
C4437 C4436 1.367 . S
C4437 C4439 1.433 1_554 S
C4438 C4434 1.350 . S
C4438 C4435 1.463 . S
C4438 N4442 1.427 1_554 S
C4439 H4429 0.929 . S
C4439 C4437 1.433 1_556 S
C4439 N4442 1.384 . S
C4440 H4431 0.929 1_554 S
C4440 C4432 1.378 . S
C4440 C4435 1.350 . S
C4441 H4428 0.929 . S
C4441 C4433 1.433 . S
C4441 N4443 1.384 . S
N4442 C4438 1.427 1_556 S
N4442 C4439 1.384 . S
N4443 C4435 1.427 . S
N4443 C4441 1.384 . S
H4444 C4450 0.930 . S
H4445 C4454 0.930 . S
H4446 C4459 0.929 . S
H4447 C4457 0.929 . S
H4448 C4452 0.929 . S
H4449 C4458 0.929 . S
C4450 H4444 0.930 . S
C4450 C4451 1.367 . S
C4450 C4458 1.378 . S
C4451 C4450 1.367 . S
C4451 C4459 1.433 . S
C4452 H4448 0.929 . S
C4452 C4454 1.378 . S
C4452 C4456 1.350 . S
C4453 C4456 1.463 . S
C4453 C4458 1.350 . S
C4453 N4461 1.427 . S
C4454 H4445 0.930 . S
C4454 C4452 1.378 . S
C4454 C4455 1.367 . S
C4455 C4454 1.367 . S
C4455 C4457 1.433 . S
C4456 C4452 1.350 . S
C4456 C4453 1.463 . S
C4456 N4460 1.427 . S
C4457 H4447 0.929 . S
C4457 C4455 1.433 . S
C4457 N4460 1.384 . S
C4458 H4449 0.929 . S
C4458 C4450 1.378 . S
C4458 C4453 1.350 . S
C4459 H4446 0.929 . S
C4459 C4451 1.433 . S
C4459 N4461 1.384 . S
N4460 C4456 1.427 . S
N4460 C4457 1.384 . S
N4461 C4453 1.427 . S
N4461 C4459 1.384 . S
H4462 C4468 0.930 . S
H4463 C4472 0.930 . S
H4464 C4477 0.929 . S
H4465 C4475 0.929 . S
H4466 C4470 0.929 . S
H4467 C4476 0.929 . S
C4468 H4462 0.930 . S
C4468 C4469 1.367 . S
C4468 C4476 1.378 . S
C4469 C4468 1.367 . S
C4469 C4477 1.433 . S
C4470 H4466 0.929 . S
C4470 C4472 1.378 . S
C4470 C4474 1.350 . S
C4471 C4474 1.463 . S
C4471 C4476 1.350 . S
C4471 N4479 1.427 . S
C4472 H4463 0.930 . S
C4472 C4470 1.378 . S
C4472 C4473 1.367 . S
C4473 C4472 1.367 . S
C4473 C4475 1.433 . S
C4474 C4470 1.350 . S
C4474 C4471 1.463 . S
C4474 N4478 1.427 . S
C4475 H4465 0.929 . S
C4475 C4473 1.433 . S
C4475 N4478 1.384 . S
C4476 H4467 0.929 . S
C4476 C4468 1.378 . S
C4476 C4471 1.350 . S
C4477 H4464 0.929 . S
C4477 C4469 1.433 . S
C4477 N4479 1.384 . S
N4478 C4474 1.427 . S
N4478 C4475 1.384 . S
N4479 C4471 1.427 . S
N4479 C4477 1.384 . S
C2759 C665 2.239 . S
C2763 C2122 2.226 . S
C2777 C381 1.999 . S
C2781 C2170 1.982 . S
C2795 C460 1.226 . S
C2799 C2202 1.267 . S
C2817 C2247 1.537 . S
C2813 C585 1.567 . S
C2831 C108 0.886 . S
C2835 C2287 0.887 . S
C2853 C2322 0.859 . S
C2849 C196 0.848 . S
C2871 C2361 1.065 . S
C2867 C313 1.083 . S
C2885 C49 1.170 . S
C2889 C2398 1.180 . S
C2907 C2130 1.947 . S
C2903 C1457 1.966 . S
C2921 C1545 0.560 . S
C2925 C2167 0.592 . S
C2943 C2210 2.450 . S
C2939 C1721 2.479 1_545 S
C2961 C2242 1.120 . S
C2957 C1113 1.099 . S
C2975 C1428 1.204 . S
C2979 C2282 1.230 . S
C2997 C2330 0.699 . S
C2993 C1516 0.693 . S
C3015 C2371 1.778 . S
C3011 C1692 1.860 . S
C3033 C2401 1.953 . S
C3029 C1085 1.969 . S
C3051 C2127 1.154 . S
C3047 C988 1.167 1_554 S
C3065 C1817 2.146 . S
C3069 C2450 2.106 . S
C3087 C2487 1.123 . S
C3083 C2081 1.135 . S
C3105 C2518 0.347 . S
C3101 C1993 0.235 . S
C3119 C761 2.788 . S
C3123 C2411 2.744 . S
C3137 C821 1.359 . S
C3141 C2207 1.339 . S
C3155 C2053 1.738 . S
C3159 C2570 1.727 . S
C3177 C2602 1.819 . S
C3173 C1868 1.778 . S
C3195 C2131 2.225 . S
C3191 C372 2.238 . S
C3213 C2601 1.975 . S
C3209 C645 1.993 . S
C3227 C577 1.231 . S
C3231 C2211 1.259 . S
C3245 C497 1.563 . S
C3249 C2558 1.528 . S
C3267 C2278 0.877 . S
C3263 C57 0.887 . S
C3281 C293 0.838 . S
C3285 C2491 0.852 . S
C3303 C2370 1.066 . S
C3299 C205 1.081 . S
C3321 C2647 1.181 . S
C3317 C145 1.162 . S
C3339 C2121 1.946 . S
C3335 C909 1.965 . S
C3357 C2598 0.592 . S
C3353 C1956 0.543 . S
C3371 C724 2.481 . S
C3375 C2201 2.451 . S
C3389 C1780 1.087 . S
C3393 C2571 1.116 . S
C3407 C937 1.201 . S
C3411 C2291 1.221 . S
C3429 C2481 0.667 . S
C3425 C1985 0.667 . S
C3443 C753 1.857 . S
C3447 C2362 1.775 . S
C3461 C1809 1.964 . S
C3465 C2650 1.948 . S
C3479 C1173 1.187 . S
C3483 C2118 1.157 . S
C3497 C1105 2.144 . S
C3501 C2441 2.109 . S
C3515 C1633 1.142 . S
C3519 C2318 1.133 . S
C3533 C1553 0.216 . S
C3537 C2527 0.327 . S
C3555 C2642 2.737 . S
C3551 C1729 2.786 . S
C3569 C1340 1.357 . S
C3573 C2198 1.337 . S
C3591 C2241 1.722 . S
C3587 C1604 1.728 . S
C3609 C2171 1.812 . S
C3605 C1252 1.778 . S
C3623 C489 2.236 . S
C3627 C2682 2.230 . S
C3645 C2610 1.976 . S
C3641 C557 1.996 . S
C3659 C636 1.238 . S
C3663 C2722 1.263 . S
C3677 C409 1.569 . S
C3681 C2567 1.541 . S
C3695 C284 0.879 . S
C3699 C2447 0.881 . S
C3717 C2482 0.857 . S
C3713 C20 0.852 . S
C3735 C2521 1.068 . S
C3731 C137 1.083 . S
C3753 C2638 1.185 . S
C3749 C225 1.172 . S
C3771 C2690 1.945 . S
C3767 C1641 1.965 . S
C3785 C1193 0.543 . S
C3789 C2607 0.564 . S
C3807 C2730 2.451 . S
C3803 C1289 2.485 . S
C3825 C2562 1.123 . S
C3821 C1377 1.087 . S
C3843 C2442 1.229 . S
C3839 C1613 1.207 . S
C3857 C1164 0.678 . S
C3861 C2490 0.676 . S
C3879 C2531 1.774 . S
C3875 C1261 1.860 . S
C3893 C1349 1.966 . S
C3897 C2641 1.951 . S
C3915 C2687 1.166 . S
C3911 C1965 1.190 . S
C3929 C849 2.147 . S
C3933 C2290 2.105 . S
C3951 C2327 1.122 . S
C3947 C929 1.135 . S
C3969 C2358 0.366 . S
C3965 C1017 0.230 . S
C3987 C2651 2.740 . S
C3983 C1897 2.789 . S
C4001 C1789 1.364 . S
C4005 C2727 1.350 . S
C4023 C2250 1.719 . S
C4019 C900 1.735 . S
C4041 C2162 1.816 . S
C4037 C733 1.789 . S
C4055 C548 2.243 . S
C4059 C2691 2.221 . S
C4077 C2161 1.977 . S
C4073 C469 1.993 . S
C4091 C401 1.222 . S
C4095 C2731 1.260 . S
C4109 C673 1.565 . S
C4113 C2238 1.532 . S
C4127 C233 0.875 . S
C4131 C2438 0.877 . S
C4149 C2331 0.852 . S
C4145 C117 0.830 . S
C4163 C29 1.081 . S
C4167 C2530 1.073 . S
C4181 C321 1.172 . S
C4185 C2407 1.180 . S
C4203 C2681 1.940 . S
C4199 C2044 1.961 . S
C4217 C997 0.535 . S
C4221 C2158 0.566 . S
C4239 C2721 2.448 . S
C4235 C1877 2.477 . S
C4253 C812 1.095 . S
C4257 C2251 1.113 . S
C4271 C2073 1.204 . S
C4275 C2451 1.220 . S
C4293 C2321 0.672 . S
C4289 C1025 0.681 . S
C4307 C1905 1.856 . S
C4311 C2522 1.770 1_655 S
C4329 C2410 1.955 . S
C4325 C841 1.967 . S
C4347 C2678 1.164 . S
C4343 C1525 1.192 . S
C4365 C2281 2.110 1_565 S
C4361 C1369 2.143 . S
C4379 C1465 1.135 . S
C4383 C2478 1.120 . S
C4401 C2367 0.356 . S
C4397 C1201 0.232 . S
C4415 C1281 2.786 . S
C4419 C2402 2.737 . S
C4433 C1076 1.358 . S
C4437 C2718 1.338 . S
C4455 C2561 1.720 . S
C4451 C1437 1.733 . S
C4473 C2611 1.814 . S
C4469 C1701 1.780 . S
