# Generated by pormake.
# Topology fgl, (4,4)-cn, num edge types: 1
# Building blocks:
#     Node 0, Type 0, BuildingBlock: ESEHIV_clean_sbu_0, # of connection points: 4
#     Node 1, Type 0, BuildingBlock: ESEHIV_clean_sbu_0, # of connection points: 4
#     Node 2, Type 0, BuildingBlock: ESEHIV_clean_sbu_0, # of connection points: 4
#     Node 3, Type 0, BuildingBlock: ESEHIV_clean_sbu_0, # of connection points: 4
#     Node 4, Type 0, BuildingBlock: ESEHIV_clean_sbu_0, # of connection points: 4
#     Node 5, Type 0, BuildingBlock: ESEHIV_clean_sbu_0, # of connection points: 4
#     Node 6, Type 0, BuildingBlock: ESEHIV_clean_sbu_0, # of connection points: 4
#     Node 7, Type 0, BuildingBlock: ESEHIV_clean_sbu_0, # of connection points: 4
#     Node 8, Type 0, BuildingBlock: ESEHIV_clean_sbu_0, # of connection points: 4
#     Node 9, Type 0, BuildingBlock: ESEHIV_clean_sbu_0, # of connection points: 4
#     Node 10, Type 0, BuildingBlock: ESEHIV_clean_sbu_0, # of connection points: 4
#     Node 11, Type 0, BuildingBlock: ESEHIV_clean_sbu_0, # of connection points: 4
#     Node 12, Type 0, BuildingBlock: ESEHIV_clean_sbu_0, # of connection points: 4
#     Node 13, Type 0, BuildingBlock: ESEHIV_clean_sbu_0, # of connection points: 4
#     Node 14, Type 0, BuildingBlock: ESEHIV_clean_sbu_0, # of connection points: 4
#     Node 15, Type 0, BuildingBlock: ESEHIV_clean_sbu_0, # of connection points: 4
#     Node 16, Type 0, BuildingBlock: ESEHIV_clean_sbu_0, # of connection points: 4
#     Node 17, Type 0, BuildingBlock: ESEHIV_clean_sbu_0, # of connection points: 4
#     Node 18, Type 1, BuildingBlock: GALJAG_clean_sbu_0, # of connection points: 4
#     Node 19, Type 1, BuildingBlock: GALJAG_clean_sbu_0, # of connection points: 4
#     Node 20, Type 1, BuildingBlock: GALJAG_clean_sbu_0, # of connection points: 4
#     Node 21, Type 1, BuildingBlock: GALJAG_clean_sbu_0, # of connection points: 4
#     Node 22, Type 1, BuildingBlock: GALJAG_clean_sbu_0, # of connection points: 4
#     Node 23, Type 1, BuildingBlock: GALJAG_clean_sbu_0, # of connection points: 4
#     Node 24, Type 1, BuildingBlock: GALJAG_clean_sbu_0, # of connection points: 4
#     Node 25, Type 1, BuildingBlock: GALJAG_clean_sbu_0, # of connection points: 4
#     Node 26, Type 1, BuildingBlock: GALJAG_clean_sbu_0, # of connection points: 4
#     Node 27, Type 1, BuildingBlock: GALJAG_clean_sbu_0, # of connection points: 4
#     Node 28, Type 1, BuildingBlock: GALJAG_clean_sbu_0, # of connection points: 4
#     Node 29, Type 1, BuildingBlock: GALJAG_clean_sbu_0, # of connection points: 4
#     Node 30, Type 1, BuildingBlock: GALJAG_clean_sbu_0, # of connection points: 4
#     Node 31, Type 1, BuildingBlock: GALJAG_clean_sbu_0, # of connection points: 4
#     Node 32, Type 1, BuildingBlock: GALJAG_clean_sbu_0, # of connection points: 4
#     Node 33, Type 1, BuildingBlock: GALJAG_clean_sbu_0, # of connection points: 4
#     Node 34, Type 1, BuildingBlock: GALJAG_clean_sbu_0, # of connection points: 4
#     Node 35, Type 1, BuildingBlock: GALJAG_clean_sbu_0, # of connection points: 4
#     Edge 36, Type (0, 1), None
#     Edge 37, Type (0, 1), None
#     Edge 38, Type (0, 1), None
#     Edge 39, Type (0, 1), None
#     Edge 40, Type (0, 1), None
#     Edge 41, Type (0, 1), None
#     Edge 42, Type (0, 1), None
#     Edge 43, Type (0, 1), None
#     Edge 44, Type (0, 1), None
#     Edge 45, Type (0, 1), None
#     Edge 46, Type (0, 1), None
#     Edge 47, Type (0, 1), None
#     Edge 48, Type (0, 1), None
#     Edge 49, Type (0, 1), None
#     Edge 50, Type (0, 1), None
#     Edge 51, Type (0, 1), None
#     Edge 52, Type (0, 1), None
#     Edge 53, Type (0, 1), None
#     Edge 54, Type (0, 1), None
#     Edge 55, Type (0, 1), None
#     Edge 56, Type (0, 1), None
#     Edge 57, Type (0, 1), None
#     Edge 58, Type (0, 1), None
#     Edge 59, Type (0, 1), None
#     Edge 60, Type (0, 1), None
#     Edge 61, Type (0, 1), None
#     Edge 62, Type (0, 1), None
#     Edge 63, Type (0, 1), None
#     Edge 64, Type (0, 1), None
#     Edge 65, Type (0, 1), None
#     Edge 66, Type (0, 1), None
#     Edge 67, Type (0, 1), None
#     Edge 68, Type (0, 1), None
#     Edge 69, Type (0, 1), None
#     Edge 70, Type (0, 1), None
#     Edge 71, Type (0, 1), None
#     Edge 72, Type (0, 1), None
#     Edge 73, Type (0, 1), None
#     Edge 74, Type (0, 1), None
#     Edge 75, Type (0, 1), None
#     Edge 76, Type (0, 1), None
#     Edge 77, Type (0, 1), None
#     Edge 78, Type (0, 1), None
#     Edge 79, Type (0, 1), None
#     Edge 80, Type (0, 1), None
#     Edge 81, Type (0, 1), None
#     Edge 82, Type (0, 1), None
#     Edge 83, Type (0, 1), None
#     Edge 84, Type (0, 1), None
#     Edge 85, Type (0, 1), None
#     Edge 86, Type (0, 1), None
#     Edge 87, Type (0, 1), None
#     Edge 88, Type (0, 1), None
#     Edge 89, Type (0, 1), None
#     Edge 90, Type (0, 1), None
#     Edge 91, Type (0, 1), None
#     Edge 92, Type (0, 1), None
#     Edge 93, Type (0, 1), None
#     Edge 94, Type (0, 1), None
#     Edge 95, Type (0, 1), None
#     Edge 96, Type (0, 1), None
#     Edge 97, Type (0, 1), None
#     Edge 98, Type (0, 1), None
#     Edge 99, Type (0, 1), None
#     Edge 100, Type (0, 1), None
#     Edge 101, Type (0, 1), None
#     Edge 102, Type (0, 1), None
#     Edge 103, Type (0, 1), None
#     Edge 104, Type (0, 1), None
#     Edge 105, Type (0, 1), None
#     Edge 106, Type (0, 1), None
#     Edge 107, Type (0, 1), None
# Relax obj value: 0.053
# Max RMSD: 0.137
# Mean RMSD: 0.097
data_MOF--net-fgl--node1-ESEHIV_clean_sbu_0--node2-GALJAG_clean_sbu_0--edge1-none
_symmetry_space_group_name_H-M    P1
_symmetry_Int_Tables_number       1
_symmetry_cell_setting            triclinic
loop_
_symmetry_equiv_pos_as_xyz
'x, y, z'
_cell_length_a     34.238274
_cell_length_b     34.616258
_cell_length_c     23.4578
_cell_angle_alpha  89.960832
_cell_angle_beta   90.287055
_cell_angle_gamma 119.70654
loop_
_atom_site_label
_atom_site_type_symbol
_atom_site_fract_x
_atom_site_fract_y
_atom_site_fract_z
_atom_type_partial_charge
Cu0 Cu 0.06281 0.57705 0.03247 0.0
N1 N 1.03026 0.59238 0.08291 0.0
N2 N 1.02245 0.63273 0.15192 0.0
C3 C 0.05084 0.62965 0.11507 0.0
C4 C 0.98212 0.59611 0.14234 0.0
C5 C 0.98697 0.57134 0.09937 0.0
O6 O 0.10125 0.63255 0.99619 0.0
C7 C 0.07366 0.52623 0.11384 0.0
O8 O 1.03432 0.5198 0.13025 0.0
H9 H 0.08656 0.6531 0.11307 0.0
H10 H 0.96124 0.53962 0.08292 0.0
N11 N 1.03272 0.53377 0.97612 0.0
N12 N 1.02813 0.48904 0.90431 0.0
C13 C 0.0554 0.52065 0.94162 0.0
C14 C 0.98927 0.5094 0.96034 0.0
C15 C 0.98634 0.48166 0.91581 0.0
C16 C 0.08303 0.64224 0.9556 0.0
O17 O 0.06079 0.61237 0.91609 0.0
H18 H 0.09147 0.53425 0.94399 0.0
H19 H 0.96181 0.51156 0.97966 0.0
O20 O 0.09485 0.55396 0.07457 0.0
H21 H 0.95156 0.58737 0.16548 0.0
H22 H 0.95594 0.45803 0.89371 0.0
Cu23 Cu 0.57009 0.56697 0.08139 0.0
N24 N 0.61747 0.57035 0.0369 0.0
N25 N 0.66 0.58654 0.95841 0.0
C26 C 0.62757 0.59062 0.98562 0.0
C27 C 0.67114 0.56284 0.994 0.0
C28 C 0.64479 0.55284 0.04248 0.0
O29 O 0.58495 0.63026 0.08419 0.0
C30 C 0.51439 0.48321 0.04046 0.0
O31 O 0.54848 0.48068 0.06205 0.0
H32 H 0.61077 0.60756 0.96824 0.0
H33 H 0.64489 0.53329 0.07837 0.0
N34 N 0.56503 0.54564 0.15659 0.0
N35 N 0.53355 0.51835 0.24156 0.0
C36 C 0.52864 0.53311 0.19014 0.0
C37 C 0.59398 0.53873 0.18806 0.0
C38 C 0.57461 0.52182 0.24041 0.0
C39 C 0.60604 0.65463 0.12734 0.0
O40 O 0.60892 0.63553 0.17423 0.0
H41 H 0.49891 0.53419 0.17664 0.0
H42 H 0.62678 0.54546 0.17408 0.0
O43 O 0.51506 0.52056 0.04308 0.0
H44 H 0.69625 0.55325 0.98556 0.0
H45 H 0.58949 0.5125 0.27481 0.0
Cu46 Cu 0.58184 0.07648 1.02374 0.0
N47 N 0.56023 0.09128 0.95884 0.0
N48 N 0.51643 0.08197 0.88337 0.0
C49 C 0.52851 0.06171 0.92321 0.0
C50 C 0.54165 0.12595 0.894 0.0
C51 C 0.56871 0.1316 0.94072 0.0
O52 O 0.52881 0.04228 0.07372 0.0
C53 C 0.64662 0.06844 0.96166 0.0
O54 O 0.64136 0.09617 0.92863 0.0
H55 H 0.51346 0.02602 0.9278 0.0
H56 H 0.59201 0.16278 0.96089 0.0
N57 N 0.62517 0.12614 0.06397 0.0
N58 N 0.68046 0.15635 0.12848 0.0
C59 C 0.65715 0.12235 0.09236 0.0
C60 C 0.62972 0.16549 0.08072 0.0
C61 C 0.66376 0.18408 0.12138 0.0
C62 C 0.51245 0.06513 0.09537 0.0
O63 O 0.53233 0.10779 0.08429 0.0
H64 H 0.65996 0.09255 0.09109 0.0
H65 H 0.6081 0.1784 0.06757 0.0
O66 O 0.61838 0.0491 1.00183 0.0
H67 H 0.53992 0.15203 0.87055 0.0
H68 H 0.67321 0.21377 0.1463 0.0
Cu69 Cu 0.57523 0.07985 0.52469 0.0
N70 N 0.58816 0.07425 0.44911 0.0
N71 N 0.62944 0.08795 0.37059 0.0
C72 C 0.62733 0.10211 0.42333 0.0
C73 C 0.59013 0.04978 0.36281 0.0
C74 C 0.56468 0.04138 0.41147 0.0
O75 O 0.62195 0.07476 0.5686 0.0
C76 C 0.55502 0.14686 0.48811 0.0
O77 O 0.56419 0.13835 0.43701 0.0
H78 H 0.65434 0.13121 0.4438 0.0
H79 H 0.53215 1.01266 0.41955 0.0
N80 N 0.51984 0.03463 0.54987 0.0
N81 N 0.46647 1.01237 0.61627 0.0
C82 C 0.51066 0.02918 0.60601 0.0
C83 C 0.4798 1.01958 0.52358 0.0
C84 C 0.44665 1.0054 0.56454 0.0
C85 C 0.61816 0.03595 0.56807 0.0
O86 O 0.5829 1.00321 0.54308 0.0
H87 H 0.53656 0.04355 0.63858 0.0
H88 H 0.47563 1.02419 0.47881 0.0
O89 O 0.56524 0.1313 0.53177 0.0
H90 H 0.58099 0.02879 0.32529 0.0
H91 H 0.41163 0.9953 0.55705 0.0
Cu92 Cu 0.07894 0.58558 0.53729 0.0
N93 N 0.113 0.56679 0.58129 0.0
N94 N 0.11141 0.5181 0.64686 0.0
C95 C 0.09665 0.54656 0.63211 0.0
C96 C 0.13912 0.52116 0.60417 0.0
C97 C 0.13948 0.55058 0.5635 0.0
O98 O 1.02814 0.52644 0.52214 0.0
C99 C 0.10993 0.66421 0.59279 0.0
O100 O 0.14719 0.66261 0.5865 0.0
H101 H 0.07032 0.54885 0.65459 0.0
H102 H 0.15391 0.55572 0.52136 0.0
N103 N 0.09884 0.61709 0.4674 0.0
N104 N 0.09581 0.65686 0.39291 0.0
C105 C 0.07659 0.63598 0.44223 0.0
C106 C 0.13379 0.62677 0.43288 0.0
C107 C 0.13188 0.6511 0.38684 0.0
C108 C 1.02927 0.50838 0.47526 0.0
O109 O 0.04766 0.53365 0.4306 0.0
H110 H 0.04654 0.63412 0.45986 0.0
H111 H 0.1587 0.61676 0.44038 0.0
O112 O 0.07229 0.62974 0.58077 0.0
H113 H 0.15505 0.50097 0.60024 0.0
H114 H 0.1553 0.66358 0.35168 0.0
Cu115 Cu 0.55522 0.56582 0.61075 0.0
N116 N 0.59189 0.62374 0.5865 0.0
N117 N 0.65258 0.67934 0.54661 0.0
C118 C 0.62972 0.6355 0.5572 0.0
C119 C 0.6279 0.6961 0.56923 0.0
C120 C 0.59025 0.66144 0.59431 0.0
O121 O 0.58901 0.55838 0.67322 0.0
C122 C 0.50854 0.49088 0.52895 0.0
O123 O 0.49259 0.46206 0.57086 0.0
H124 H 0.64034 0.61221 0.54399 0.0
H125 H 0.56412 0.66367 0.61729 0.0
N126 N 0.50288 0.55734 0.64562 0.0
N127 N 0.43312 0.50962 0.67336 0.0
C128 C 0.46206 0.52477 0.62956 0.0
C129 C 0.4988 0.56473 0.70116 0.0
C130 C 0.45533 0.53551 0.71836 0.0
C131 C 0.62984 0.56739 0.67339 0.0
O132 O 0.64957 0.56831 0.62522 0.0
H133 H 0.45474 0.50938 0.588 0.0
H134 H 0.52672 0.58575 0.72887 0.0
O135 O 0.53768 0.53136 0.53911 0.0
H136 H 0.63693 0.73083 0.56894 0.0
H137 H 0.4427 0.53061 0.76153 0.0
Cu138 Cu 0.73968 0.92454 0.34564 0.0
N139 N 0.76464 0.97771 0.30674 0.0
N140 N 0.76401 0.03492 0.26542 0.0
C141 C 0.74079 0.99797 0.29654 0.0
C142 C 0.80419 0.0381 0.25483 0.0
C143 C 0.80457 1.00246 0.2809 0.0
O144 O 0.71478 0.93429 0.41946 0.0
C145 C 0.73255 0.87931 0.24426 0.0
O146 O 0.7748 0.91077 0.24611 0.0
H147 H 0.70728 0.98628 0.31308 0.0
H148 H 0.83193 0.99529 0.28124 0.0
N149 N 0.78171 0.90981 0.36912 0.0
N150 N 0.7998 0.86058 0.40088 0.0
C151 C 0.76735 0.86695 0.37898 0.0
C152 C 0.82542 0.93201 0.38445 0.0
C153 C 0.83685 0.90118 0.40442 0.0
C154 C 0.7431 0.96708 0.45082 0.0
O155 O 0.78415 0.9915 0.43153 0.0
H156 H 0.73274 0.84106 0.3728 0.0
H157 H 0.84672 0.96776 0.38328 0.0
O158 O 0.7066 0.87764 0.28514 0.0
H159 H 0.83181 0.06517 0.23249 0.0
H160 H 0.86893 0.90816 0.42224 0.0
Cu161 Cu 0.26382 0.92901 0.40357 0.0
N162 N 0.21331 0.90707 0.35363 0.0
N163 N 0.15529 0.85015 0.30807 0.0
C164 C 0.17757 0.86548 0.35787 0.0
C165 C 0.1772 0.88331 0.2704 0.0
C166 C 0.21283 0.91835 0.29857 0.0
O167 O 0.24145 0.88478 0.46693 0.0
C168 C 0.32912 0.96987 0.32065 0.0
O169 O 0.3153 0.99873 0.32782 0.0
H170 H 0.17109 0.84434 0.39453 0.0
H171 H 0.23886 0.94804 0.27858 0.0
N172 N 0.28521 0.98661 0.43671 0.0
N173 N 0.33383 0.0551 0.47049 0.0
C174 C 0.32886 1.01669 0.44858 0.0
C175 C 0.26196 1.00682 0.45252 0.0
C176 C 0.29167 0.04869 0.47372 0.0
C177 C 0.20639 0.88134 0.49137 0.0
O178 O 0.19203 0.90855 0.47557 0.0
H179 H 0.35658 1.01092 0.43973 0.0
H180 H 0.226 0.99264 0.44781 0.0
O181 O 0.31204 0.9347 0.35154 0.0
H182 H 0.16956 0.88153 0.2253 0.0
H183 H 0.28302 0.07322 0.48809 0.0
Cu184 Cu 0.24661 0.47121 0.40564 0.0
N185 N 0.24164 0.51096 0.35674 0.0
N186 N 0.20371 0.50415 0.27625 0.0
C187 C 0.20089 0.49582 0.33232 0.0
C188 C 0.2479 0.52967 0.26528 0.0
C189 C 0.27129 0.53357 0.31504 0.0
O190 O 0.18335 0.4245 0.41858 0.0
C191 C 0.3329 0.48708 0.3808 0.0
O192 O 0.34202 0.52579 0.40196 0.0
H193 H 0.16987 0.4719 0.35209 0.0
H194 H 0.3069 0.54515 0.31739 0.0
N195 N 0.26799 0.48819 0.47868 0.0
N196 N 0.27969 0.46577 0.56221 0.0
C197 C 0.27183 0.45672 0.50676 0.0
C198 C 0.27442 0.51946 0.51764 0.0
C199 C 0.28173 0.50539 0.57013 0.0
C200 C 0.16215 0.43651 0.45284 0.0
O201 O 0.18396 0.47567 0.47723 0.0
H202 H 0.26704 0.42649 0.48664 0.0
H203 H 0.2715 0.54866 0.50927 0.0
O204 O 0.29156 0.45666 0.37482 0.0
H205 H 0.2624 0.53929 0.22318 0.0
H206 H 0.28762 0.52256 0.61054 0.0
Cu207 Cu 0.21301 0.36988 0.91788 0.0
N208 N 0.19353 0.32103 0.86953 0.0
N209 N 0.21771 0.3264 0.78058 0.0
C210 C 0.22764 0.32714 0.83593 0.0
C211 C 0.17336 0.31186 0.7779 0.0
C212 C 0.15837 0.30832 0.83329 0.0
O213 O 0.27867 0.38982 0.93299 0.0
C214 C 0.14813 0.39327 0.88149 0.0
O215 O 0.12389 0.35894 0.91432 0.0
H216 H 0.26189 0.3421 0.85087 0.0
H217 H 0.12633 0.30484 0.84493 0.0
N218 N 0.18574 0.35691 0.98856 0.0
N219 N 0.1581 0.37147 0.06571 0.0
C220 C 0.17978 0.38731 1.01641 0.0
C221 C 0.16782 0.32044 1.02187 0.0
C222 C 0.15099 0.32962 0.07038 0.0
C223 C 0.28581 0.3606 0.95786 0.0
O224 O 0.25074 0.32324 0.97391 0.0
H225 H 0.18999 0.42012 0.99968 0.0
H226 H 0.16614 0.28927 1.01117 0.0
O227 O 0.19067 0.40716 0.87752 0.0
H228 H 0.155 0.31102 0.73975 0.0
H229 H 0.13303 0.30677 0.10467 0.0
Cu230 Cu 0.73406 0.87786 0.84299 0.0
N231 N 0.75475 0.84141 0.81147 0.0
N232 N 0.74879 0.77539 0.79105 0.0
C233 C 0.743 0.80029 0.83083 0.0
C234 C 0.76574 0.80199 0.74515 0.0
C235 C 0.76913 0.8426 0.75777 0.0
O236 O 0.69713 0.83905 0.90774 0.0
C237 C 0.69906 0.92715 0.76671 0.0
O238 O 0.67936 0.93396 0.81038 0.0
H239 H 0.72695 0.78756 0.87152 0.0
H240 H 0.77783 0.86966 0.72824 0.0
N241 N 0.77832 0.92754 0.88167 0.0
N242 N 0.78967 0.98697 0.93197 0.0
C243 C 0.77561 0.9649 0.88224 0.0
C244 C 0.79774 0.92755 0.93195 0.0
C245 C 0.805 0.96455 0.96321 0.0
C246 C 0.69564 0.8519 0.95872 0.0
O247 O 0.70099 0.89176 0.96669 0.0
H248 H 0.7585 0.97298 0.84974 0.0
H249 H 0.80021 0.89959 0.94826 0.0
O250 O 0.71728 0.90258 0.77335 0.0
H251 H 0.77291 0.79207 0.70452 0.0
H252 H 0.81658 0.97197 1.00698 0.0
Cu253 Cu 0.2467 0.89219 0.90018 0.0
N254 N 0.21456 0.89469 0.83714 0.0
N255 N 0.17638 0.86913 0.75561 0.0
C256 C 0.18958 0.85859 0.80449 0.0
C257 C 0.19215 0.91337 0.75826 0.0
C258 C 0.21626 0.92922 0.80847 0.0
O259 O 0.2045 0.83861 0.93973 0.0
C260 C 0.31136 0.89948 0.82044 0.0
O261 O 0.27965 0.8769 0.7828 0.0
H262 H 0.18433 0.8258 0.81448 0.0
H263 H 0.23601 0.9637 0.82086 0.0
N264 N 0.26802 0.93976 0.95029 0.0
N265 N 0.3096 0.98111 1.02304 0.0
C266 C 0.29098 0.9411 0.99764 0.0
C267 C 0.27221 0.9804 0.9455 0.0
C268 C 0.29791 1.0061 0.9907 0.0
C269 C 0.18033 0.83907 0.98069 0.0
O270 O 0.19045 0.87659 1.0063 0.0
H271 H 0.29532 0.91367 1.01182 0.0
H272 H 0.25908 0.99122 0.9109 0.0
O273 O 0.30168 0.89524 0.8732 0.0
H274 H 0.18924 0.93326 0.72463 0.0
H275 H 0.30795 0.04063 0.99854 0.0
Cu276 Cu 0.40089 0.23675 0.73375 0.0
N277 N 0.36374 0.25143 0.69157 0.0
N278 N 0.34035 0.29663 0.65731 0.0
C279 C 0.36365 0.28979 0.69853 0.0
C280 C 0.3242 0.26077 0.62286 0.0
C281 C 0.33905 0.23282 0.6441 0.0
O282 O 0.41294 0.26863 0.80941 0.0
C283 C 0.45232 0.25554 0.62924 0.0
O284 O 0.4402 0.28504 0.6165 0.0
H285 H 0.38091 0.31285 0.73283 0.0
H286 H 0.33382 0.20216 0.62504 0.0
N287 N 0.37159 0.17595 0.75077 0.0
N288 N 0.36722 0.1098 0.76266 0.0
C289 C 0.38741 0.14892 0.73474 0.0
C290 C 0.33954 0.15272 0.7896 0.0
C291 C 0.33661 0.11162 0.7969 0.0
C292 C 0.43257 0.31042 0.82061 0.0
O293 O 0.45533 0.3391 0.78035 0.0
H294 H 0.41579 0.15911 0.70657 0.0
H295 H 0.32185 0.16584 0.81376 0.0
O296 O 0.44796 0.24137 0.6806 0.0
H297 H 0.30392 0.2555 0.58501 0.0
H298 H 0.31571 0.08636 0.82741 0.0
Cu299 Cu 0.90195 0.21655 0.6973 0.0
N300 N 0.93974 0.22913 0.63469 0.0
N301 N 0.97816 0.27558 0.56406 0.0
C302 C 0.94841 0.26607 0.60592 0.0
C303 C 0.98799 0.24227 0.56453 0.0
C304 C 0.96436 0.21358 0.60906 0.0
O305 O 0.92611 0.27944 0.72506 0.0
C306 C 0.83873 0.13248 0.65865 0.0
O307 O 0.8758 0.1303 0.66357 0.0
H308 H 0.93331 0.28623 0.61631 0.0
H309 H 0.9659 0.18444 0.62234 0.0
N310 N 0.9056 0.18865 0.76314 0.0
N311 N 0.8765 0.15875 0.84751 0.0
C312 C 0.86959 0.17288 0.79728 0.0
C313 C 0.93704 0.18434 0.7928 0.0
C314 C 0.91888 0.16554 0.84535 0.0
C315 C 0.96895 0.29791 0.73409 0.0
O316 O 0.98795 0.27319 0.72905 0.0
H317 H 0.83902 0.17311 0.7858 0.0
H318 H 0.97087 0.19526 0.77835 0.0
O319 O 0.84088 0.17015 0.66906 0.0
H320 H 1.01157 0.2397 0.53638 0.0
H321 H 0.93559 0.15795 0.87925 0.0
Cu322 Cu 0.92187 0.74021 0.71625 0.0
N323 N 0.89964 0.76992 0.67379 0.0
N324 N 0.85495 0.77391 0.60813 0.0
C325 C 0.87668 0.75261 0.62525 0.0
C326 C 0.86469 0.80618 0.64699 0.0
C327 C 0.89197 0.80322 0.68819 0.0
O328 O 0.86742 0.68719 0.74227 0.0
C329 C 0.98995 0.75972 0.63607 0.0
O330 O 0.98073 0.79043 0.61897 0.0
H331 H 0.87395 0.7233 0.60482 0.0
H332 H 0.90258 0.82189 0.7275 0.0
N333 N 0.95607 0.77165 0.77826 0.0
N334 N 0.99723 0.77878 0.85485 0.0
C335 C 0.97296 0.75226 0.81179 0.0
C336 C 0.97127 0.81281 0.79973 0.0
C337 C 0.99677 0.81722 0.84788 0.0
C338 C 0.85149 0.68569 0.79186 0.0
O339 O 0.87671 0.71483 0.83059 0.0
H340 H 0.96656 0.71863 0.80511 0.0
H341 H 0.96475 0.83783 0.7819 0.0
O342 O 0.96448 0.73075 0.6723 0.0
H343 H 0.85128 0.8287 0.64709 0.0
H344 H 1.01326 0.84601 0.87554 0.0
Cu345 Cu 0.87361 0.73572 0.19463 0.0
N346 N 0.88787 0.70856 0.13553 0.0
N347 N 0.93796 0.70127 0.082 0.0
C348 C 0.92976 0.72894 0.11361 0.0
C349 C 0.89943 0.66172 0.0833 0.0
C350 C 0.86872 0.66615 0.11721 0.0
O351 O 0.93157 0.75948 0.23746 0.0
C352 C 0.81506 0.75589 0.12815 0.0
O353 O 0.80629 0.71832 0.10366 0.0
H354 H 0.9545 0.76319 0.12281 0.0
H355 H 0.83588 0.63988 0.12996 0.0
N356 N 0.82975 0.69816 0.24608 0.0
N357 N 0.79368 0.69163 0.3277 0.0
C358 C 0.83363 0.71026 0.30119 0.0
C359 C 0.78555 0.66998 0.2375 0.0
C360 C 0.7631 0.66566 0.2882 0.0
C361 C 0.93732 0.72987 0.26362 0.0
O362 O 0.90331 0.6892 0.26707 0.0
H363 H 0.86433 0.73704 0.3192 0.0
H364 H 0.77014 0.65767 0.19623 0.0
O365 O 0.84716 0.77289 0.1653 0.0
H366 H 0.8943 0.63152 0.0628 0.0
H367 H 0.72699 0.64834 0.29392 0.0
Cu368 Cu 0.40729 0.24957 0.23132 0.0
N369 N 0.37144 0.19021 0.21059 0.0
N370 N 0.35874 0.12123 0.19695 0.0
C371 C 0.38996 0.16426 0.20329 0.0
C372 C 0.31864 0.11977 0.19962 0.0
C373 C 0.32663 0.1627 0.20847 0.0
O374 O 0.4452 0.24596 0.29474 0.0
C375 C 0.39713 0.28497 0.12895 0.0
O376 O 0.35571 0.26128 0.1474 0.0
H377 H 0.42588 0.17673 0.20478 0.0
H378 H 0.30173 0.1728 0.21511 0.0
N379 N 0.3787 0.27611 0.26803 0.0
N380 N 0.38493 0.33395 0.31677 0.0
C381 C 0.40276 0.32009 0.27639 0.0
C382 C 0.34315 0.26142 0.30332 0.0
C383 C 0.34705 0.29747 0.33387 0.0
C384 C 0.41986 0.22013 0.33456 0.0
O385 O 0.37621 0.20047 0.32695 0.0
H386 H 0.43505 0.34093 0.25652 0.0
H387 H 0.31815 0.2269 0.30955 0.0
O388 O 0.42882 0.28487 0.15876 0.0
H389 H 0.2861 0.0899 0.19676 0.0
H390 H 0.32495 0.29664 0.36729 0.0
Cu391 Cu 0.90319 0.25962 0.22341 0.0
N392 N 0.8619 0.23369 0.16393 0.0
N393 N 0.82286 0.18939 0.09157 0.0
C394 C 0.84982 0.19503 0.13667 0.0
C395 C 0.81731 0.22536 0.09094 0.0
C396 C 0.84126 0.2525 0.13585 0.0
O397 O 0.89978 0.21898 0.2828 0.0
C398 C 0.97632 0.32415 0.16178 0.0
O399 O 0.94518 0.33003 0.13706 0.0
H400 H 0.86224 0.17271 0.14804 0.0
H401 H 0.84469 0.28448 0.14627 0.0
N402 N 0.89745 0.30264 0.26308 0.0
N403 N 0.9282 0.33969 0.34323 0.0
C404 C 0.93557 0.33171 0.28973 0.0
C405 C 0.86417 0.2954 0.29957 0.0
C406 C 0.88321 0.31848 0.34949 0.0
C407 C 0.86746 0.19645 0.31697 0.0
O408 O 0.87464 0.17646 0.36002 0.0
H409 H 0.96847 0.33936 0.275 0.0
H410 H 0.82943 0.26995 0.29423 0.0
O411 O 0.96472 0.29147 0.19547 0.0
H412 H 0.79808 0.23199 0.05954 0.0
H413 H 0.86579 0.31514 0.38917 0.0
In414 In 0.05501 0.72249 0.28158 0.0
O415 O 0.10867 0.79179 0.24854 0.0
O416 O 0.10081 0.78125 0.33836 0.0
C417 C 1.03315 0.66413 0.19331 0.0
C418 C 0.08181 0.67876 0.35653 0.0
C419 C 0.98215 0.73541 0.27759 0.0
O420 O 0.07167 0.69843 0.19786 0.0
O421 O 1.00581 0.66 0.2318 0.0
O422 O 0.98642 0.71031 0.31352 0.0
O423 O 1.01537 0.75539 0.24482 0.0
C424 C 0.12124 0.80788 0.29812 0.0
O425 O 0.04794 0.68356 0.36594 0.0
O426 O 0.10181 0.69583 0.31035 0.0
In427 In 0.44113 0.46146 0.36955 0.0
O428 O 0.46485 0.49886 0.28298 0.0
O429 O 0.51015 0.48507 0.32906 0.0
C430 C 0.37087 0.47868 0.37217 0.0
C431 C 0.40405 0.37613 0.33682 0.0
C432 C 0.48557 0.47967 0.47268 0.0
O433 O 0.41127 0.50788 0.38189 0.0
O434 O 0.36575 0.44119 0.35971 0.0
O435 O 0.45777 0.44063 0.45699 0.0
O436 O 0.48949 0.50916 0.438 0.0
C437 C 0.50305 0.50142 0.28482 0.0
O438 O 0.38909 0.38717 0.37912 0.0
O439 O 0.43831 0.40729 0.31358 0.0
In440 In 0.73659 0.13423 0.26524 0.0
O441 O 0.66488 0.08575 0.2895 0.0
O442 O 0.70129 0.14169 0.34465 0.0
C443 C 0.82088 0.18524 0.30427 0.0
C444 C 0.7517 0.06593 0.25689 0.0
C445 C 0.70645 0.15495 0.17133 0.0
O446 O 0.78902 0.15938 0.33627 0.0
O447 O 0.8088 0.19036 0.25535 0.0
O448 O 0.71501 0.12353 0.17422 0.0
O449 O 0.717 0.17962 0.21505 0.0
C450 C 0.66504 0.10569 0.33449 0.0
O451 O 0.77636 0.10201 0.23159 0.0
O452 O 0.71768 0.06315 0.28106 0.0
In453 In 0.0661 0.42966 0.78295 0.0
O454 O 1.0129 0.43944 0.83064 0.0
O455 O 0.08127 0.47923 0.85642 0.0
C456 C 1.00027 0.34603 0.74591 0.0
C457 C 0.09685 0.48881 0.69177 0.0
C458 C 0.12256 0.41031 0.84776 0.0
O459 O 0.99015 0.37242 0.76975 0.0
O460 O 0.042 0.36248 0.7387 0.0
O461 O 0.13767 0.43815 0.80751 0.0
O462 O 0.08085 0.39399 0.8551 0.0
C463 C 0.04073 0.46918 0.86379 0.0
O464 O 0.06832 0.48656 0.7272 0.0
O465 O 0.10987 0.46104 0.7009 0.0
In466 In 0.71615 0.64466 0.80612 0.0
O467 O 0.66568 0.62733 0.8785 0.0
O468 O 0.7083 0.599 0.88307 0.0
C469 C 0.80259 0.6632 0.79986 0.0
C470 C 0.65783 0.59011 0.72386 0.0
C471 C 0.73677 0.7316 0.79529 0.0
O472 O 0.78571 0.66885 0.84463 0.0
O473 O 0.77525 0.64564 0.75908 0.0
O474 O 0.73949 0.70955 0.75435 0.0
O475 O 0.72208 0.70982 0.84067 0.0
C476 C 0.67776 0.60385 0.90639 0.0
O477 O 0.64963 0.61461 0.75556 0.0
O478 O 0.695 0.59223 0.73398 0.0
In479 In 0.41489 1.02276 0.76756 0.0
O480 O 0.46138 1.0204 0.83664 0.0
O481 O 0.47193 0.08396 0.81122 0.0
C482 C 0.38044 0.07864 0.76197 0.0
C483 C 0.44806 1.01245 0.66747 0.0
C484 C 0.35069 0.94091 0.80175 0.0
O485 O 0.36462 0.04567 0.7951 0.0
O486 O 0.41211 0.08255 0.73097 0.0
O487 O 0.35738 0.95218 0.75006 0.0
O488 O 0.37624 0.97077 0.83634 0.0
C489 C 0.48353 0.0621 0.8433 0.0
O490 O 0.40853 1.00578 0.67208 0.0
O491 O 0.47056 1.02318 0.71324 0.0
In492 In 0.72139 1.00891 0.61596 0.0
O493 O 0.79762 0.05486 0.63189 0.0
O494 O 0.7576 0.08495 0.64256 0.0
C495 C 0.73321 0.97985 0.50832 0.0
C496 C 0.70518 0.95343 0.7125 0.0
C497 C 0.65389 0.02709 0.58907 0.0
O498 O 0.76256 1.01342 0.53509 0.0
O499 O 0.69688 0.95938 0.53554 0.0
O500 O 0.64855 0.98826 0.59057 0.0
O501 O 0.69306 0.05713 0.60185 0.0
C502 C 0.79673 0.09013 0.64346 0.0
O503 O 0.69015 0.97988 0.7062 0.0
O504 O 0.72858 0.95449 0.67058 0.0
In505 In 0.12295 0.79001 0.61582 0.0
O506 O 0.13737 0.83621 0.54003 0.0
O507 O 0.19006 0.82388 0.56278 0.0
C508 C 1.03526 0.76673 0.6259 0.0
C509 C 0.1136 0.70787 0.60244 0.0
C510 C 0.1569 0.84196 0.71001 0.0
O511 O 0.0588 0.78854 0.58382 0.0
O512 O 0.05587 0.75705 0.66287 0.0
O513 O 0.14705 0.85512 0.66511 0.0
O514 O 0.14961 0.80249 0.70818 0.0
C515 C 0.17732 0.84518 0.53131 0.0
O516 O 0.14727 0.73946 0.62682 0.0
O517 O 0.08614 0.71827 0.58147 0.0
In518 In 0.31374 0.39693 0.66662 0.0
O519 O 0.30931 0.33675 0.61829 0.0
O520 O 0.35069 0.36209 0.69286 0.0
C521 C 0.28636 0.43993 0.59965 0.0
C522 C 0.2491 0.35016 0.74093 0.0
C523 C 0.39305 0.47133 0.67284 0.0
O524 O 0.28895 0.40633 0.58291 0.0
O525 O 0.29368 0.44949 0.65204 0.0
O526 O 0.36697 0.45772 0.71546 0.0
O527 O 0.38 0.44628 0.62942 0.0
C528 C 0.3341 0.33231 0.65502 0.0
O529 O 0.28975 0.3755 0.75493 0.0
O530 O 0.23967 0.35105 0.68905 0.0
In531 In 0.70899 0.78802 0.10925 0.0
O532 O 0.68457 0.80933 0.1921 0.0
O533 O 0.74776 0.85427 0.15625 0.0
C534 C 0.63682 0.70329 0.1219 0.0
C535 C 0.69779 0.82681 1.00989 0.0
C536 C 0.78222 0.7723 0.11794 0.0
O537 O 0.6623 0.72604 0.16228 0.0
O538 O 0.64587 0.7238 0.07523 0.0
O539 O 0.77897 0.80062 0.14813 0.0
O540 O 0.75045 0.75391 0.0824 0.0
C541 C 0.71994 0.84694 0.19585 0.0
O542 O 0.72053 0.80715 1.01171 0.0
O543 O 0.68234 0.82857 0.05792 0.0
In544 In 0.38496 1.02091 0.16722 0.0
O545 O 0.3922 1.0141 0.26381 0.0
O546 O 0.33872 0.95969 0.22309 0.0
C547 C 0.46956 0.04606 0.12726 0.0
C548 C 0.33569 0.99402 0.07058 0.0
C549 C 0.36706 0.08707 0.18972 0.0
O550 O 0.43879 1.00582 0.12597 0.0
O551 O 0.45826 0.07149 0.15124 0.0
O552 O 0.33614 0.0474 0.18228 0.0
O553 O 0.40661 0.09313 0.1874 0.0
C554 C 0.35724 0.97689 0.27002 0.0
O555 O 0.35348 0.03323 0.08895 0.0
O556 O 0.34338 0.96777 0.09994 0.0
In557 In 0.10676 0.43174 0.16057 0.0
O558 O 0.13132 0.45112 0.25233 0.0
O559 O 0.17766 0.48453 0.18497 0.0
C560 C 0.08778 0.4949 0.1319 0.0
C561 C 0.14262 0.39251 0.0994 0.0
C562 C 1.0232 0.36053 0.16062 0.0
O563 O 0.07319 0.47257 0.17714 0.0
O564 O 0.111 0.48459 0.10021 0.0
O565 O 0.05042 0.36868 0.20175 0.0
O566 O 1.03762 0.38881 0.1209 0.0
C567 C 0.17046 0.48087 0.23776 0.0
O568 O 0.12473 0.3773 0.14711 0.0
O569 O 0.14324 0.42772 0.08346 0.0
In570 In 0.41012 0.36059 0.97804 0.0
O571 O 0.37145 0.31324 0.05229 0.0
O572 O 0.44064 0.33483 0.05046 0.0
C573 C 0.33075 0.36344 0.9644 0.0
C574 C 0.47724 0.44201 1.01534 0.0
C575 C 0.42554 0.32732 0.87643 0.0
O576 O 0.33404 0.33239 0.98805 0.0
O577 O 0.3678 0.39408 0.94569 0.0
O578 O 0.44005 0.36794 0.88634 0.0
O579 O 0.40247 0.30284 0.91686 0.0
C580 C 0.40387 0.31177 0.07591 0.0
O581 O 0.48212 0.40882 1.00593 0.0
O582 O 0.43804 0.4351 1.00559 0.0
In583 In 0.7804 0.09592 0.96718 0.0
O584 O 0.79494 0.04035 0.99578 0.0
O585 O 0.76759 0.03782 0.91278 0.0
C586 C 0.80751 0.15677 0.0515 0.0
C587 C 0.84559 0.14056 0.8897 0.0
C588 C 0.69133 0.07134 0.96107 0.0
O589 O 0.81109 0.1222 0.05617 0.0
O590 O 0.7901 0.15998 1.00557 0.0
O591 O 0.72011 0.09464 0.92404 0.0
O592 O 0.70681 0.05846 1.00146 0.0
C593 C 0.78394 1.02163 0.94733 0.0
O594 O 0.80585 0.13355 0.88381 0.0
O595 O 0.85356 0.12751 0.9362 0.0
In596 In 0.04768 0.73869 0.98174 0.0
O597 O 0.98003 0.68565 1.01956 0.0
O598 O 1.01086 0.75056 0.05556 0.0
C599 C 0.1344 0.80202 0.98486 0.0
C600 C 0.07009 0.67597 0.96589 0.0
C601 C 1.01574 0.76668 0.8972 0.0
O602 O 0.1093 0.79472 0.02779 0.0
O603 O 0.11542 0.77854 0.94166 0.0
O604 O 1.01172 0.72846 0.89847 0.0
O605 O 1.03659 0.7918 0.93859 0.0
C606 C 0.9767 0.71209 0.0535 0.0
O607 O 0.04822 0.68441 0.92928 0.0
O608 O 0.07756 0.69667 1.01279 0.0
In609 In 0.44968 0.17638 0.48924 0.0
O610 O 0.44581 0.18926 0.58606 0.0
O611 O 0.46559 0.24385 0.53107 0.0
C612 C 0.37294 0.09396 0.48135 0.0
C613 C 0.43464 0.20909 0.38912 0.0
C614 C 0.52232 0.16302 0.49217 0.0
O615 O 0.37339 0.12802 0.50123 0.0
O616 O 0.41131 0.10021 0.46798 0.0
O617 O 0.51204 0.17847 0.44946 0.0
O618 O 0.49659 0.15494 0.53419 0.0
C619 C 0.45726 0.22977 0.58167 0.0
O620 O 0.4743 0.21954 0.40393 0.0
O621 O 0.40525 0.18476 0.42469 0.0
In622 In 1.02395 0.38531 0.46466 0.0
O623 O 0.98739 0.34421 0.542 0.0
O624 O 1.01781 0.31768 0.487 0.0
C625 C 0.11292 0.41319 0.45842 0.0
C626 C 0.96012 0.35545 0.38453 0.0
C627 C 1.02465 0.46371 0.47388 0.0
O628 O 0.09493 0.42249 0.49919 0.0
O629 O 0.08602 0.38955 0.41945 0.0
O630 O 1.01826 0.43937 0.51724 0.0
O631 O 1.03243 0.44935 0.42846 0.0
C632 C 0.99475 0.31256 0.53097 0.0
O633 O 0.95089 0.35577 0.4364 0.0
O634 O 1.00092 0.36805 0.37373 0.0
In635 In 0.77426 0.74501 0.47088 0.0
O636 O 0.81877 0.73109 0.52988 0.0
O637 O 0.80781 0.78511 0.55022 0.0
C638 C 0.79293 0.82129 0.42126 0.0
C639 C 0.78627 0.70529 0.37877 0.0
C640 C 0.6931 0.70146 0.52057 0.0
O641 O 0.82287 0.81728 0.44748 0.0
O642 O 0.75464 0.78682 0.41879 0.0
O643 O 0.71193 0.74247 0.50983 0.0
O644 O 0.71493 0.68239 0.50628 0.0
C645 C 0.82703 0.76327 0.56272 0.0
O646 O 0.74754 0.69542 0.39577 0.0
O647 O 0.81822 0.73305 0.40952 0.0
loop_
_geom_bond_atom_site_label_1
_geom_bond_atom_site_label_2
_geom_bond_distance
_geom_bond_site_symmetry_2
_ccdc_geom_bond_type
Cu0 N1 1.999 . S
Cu0 O6 1.974 1_554 S
Cu0 N11 1.985 1_554 S
Cu0 O20 1.959 . S
N1 Cu0 1.999 . S
N1 C3 1.263 . S
N1 C5 1.389 . S
N2 C3 1.358 . S
N2 C4 1.400 . S
C3 N1 1.263 . S
C3 N2 1.358 . S
C3 H9 0.930 1_455 S
C4 N2 1.400 . S
C4 C5 1.351 . S
C4 H21 0.930 . S
C5 N1 1.389 . S
C5 C4 1.351 . S
C5 H10 0.930 . S
O6 Cu0 1.974 1_556 S
O6 C16 1.282 1_455 S
C7 O8 1.261 . S
C7 O20 1.251 1_655 S
O8 C7 1.261 . S
H9 C3 0.930 1_655 S
H10 C5 0.930 . S
N11 Cu0 1.985 1_556 S
N11 C13 1.335 . S
N11 C14 1.390 1_455 S
N12 C13 1.345 . S
N12 C15 1.336 1_455 S
C13 N11 1.335 . S
C13 N12 1.345 . S
C13 H18 0.930 . S
C14 N11 1.390 1_655 S
C14 C15 1.346 . S
C14 H19 0.930 . S
C15 N12 1.336 1_655 S
C15 C14 1.346 . S
C15 H22 0.929 . S
C16 O6 1.282 1_655 S
C16 O17 1.216 . S
O17 C16 1.216 . S
H18 C13 0.930 . S
H19 C14 0.930 . S
O20 Cu0 1.959 . S
O20 C7 1.251 1_455 S
H21 C4 0.930 . S
H22 C15 0.929 . S
Cu23 N24 1.999 1_554 S
Cu23 O29 1.974 . S
Cu23 N34 1.985 . S
Cu23 O43 1.959 1_554 S
N24 Cu23 1.999 1_556 S
N24 C26 1.263 . S
N24 C28 1.389 . S
N25 C26 1.358 . S
N25 C27 1.400 . S
C26 N24 1.263 . S
C26 N25 1.358 . S
C26 H32 0.930 . S
C27 N25 1.400 . S
C27 C28 1.351 . S
C27 H44 0.930 . S
C28 N24 1.389 . S
C28 C27 1.351 . S
C28 H33 0.930 . S
O29 Cu23 1.974 . S
O29 C39 1.282 . S
C30 O31 1.261 1_556 S
C30 O43 1.251 . S
O31 C30 1.261 1_554 S
H32 C26 0.930 . S
H33 C28 0.930 . S
N34 Cu23 1.985 . S
N34 C36 1.335 . S
N34 C37 1.390 . S
N35 C36 1.345 . S
N35 C38 1.336 . S
C36 N34 1.335 . S
C36 N35 1.345 . S
C36 H41 0.930 . S
C37 N34 1.390 . S
C37 C38 1.346 . S
C37 H42 0.930 . S
C38 N35 1.336 . S
C38 C37 1.346 . S
C38 H45 0.929 . S
C39 O29 1.282 . S
C39 O40 1.216 . S
O40 C39 1.216 . S
H41 C36 0.930 . S
H42 C37 0.930 . S
O43 Cu23 1.959 1_556 S
O43 C30 1.251 . S
H44 C27 0.930 . S
H45 C38 0.929 . S
Cu46 N47 1.999 1_554 S
Cu46 O52 1.974 . S
Cu46 N57 1.985 . S
Cu46 O66 1.959 1_554 S
N47 Cu46 1.999 1_556 S
N47 C49 1.263 . S
N47 C51 1.389 . S
N48 C49 1.358 . S
N48 C50 1.400 . S
C49 N47 1.263 . S
C49 N48 1.358 . S
C49 H55 0.930 . S
C50 N48 1.400 . S
C50 C51 1.351 . S
C50 H67 0.930 . S
C51 N47 1.389 . S
C51 C50 1.351 . S
C51 H56 0.930 . S
O52 Cu46 1.974 . S
O52 C62 1.282 . S
C53 O54 1.261 . S
C53 O66 1.251 . S
O54 C53 1.261 . S
H55 C49 0.930 . S
H56 C51 0.930 . S
N57 Cu46 1.985 . S
N57 C59 1.335 . S
N57 C60 1.390 . S
N58 C59 1.345 . S
N58 C61 1.336 . S
C59 N57 1.335 . S
C59 N58 1.345 . S
C59 H64 0.930 . S
C60 N57 1.390 . S
C60 C61 1.346 . S
C60 H65 0.930 . S
C61 N58 1.336 . S
C61 C60 1.346 . S
C61 H68 0.929 . S
C62 O52 1.282 . S
C62 O63 1.216 . S
O63 C62 1.216 . S
H64 C59 0.930 . S
H65 C60 0.930 . S
O66 Cu46 1.959 1_556 S
O66 C53 1.251 . S
H67 C50 0.930 . S
H68 C61 0.929 . S
Cu69 N70 1.999 . S
Cu69 O75 1.974 . S
Cu69 N80 1.985 . S
Cu69 O89 1.959 . S
N70 Cu69 1.999 . S
N70 C72 1.263 . S
N70 C74 1.389 . S
N71 C72 1.358 . S
N71 C73 1.400 . S
C72 N70 1.263 . S
C72 N71 1.358 . S
C72 H78 0.930 . S
C73 N71 1.400 . S
C73 C74 1.351 . S
C73 H90 0.930 . S
C74 N70 1.389 . S
C74 C73 1.351 . S
C74 H79 0.930 . S
O75 Cu69 1.974 . S
O75 C85 1.282 1_545 S
C76 O77 1.261 . S
C76 O89 1.251 . S
O77 C76 1.261 . S
H78 C72 0.930 . S
H79 C74 0.930 . S
N80 Cu69 1.985 . S
N80 C82 1.335 . S
N80 C83 1.366 1_545 S
N81 C82 1.345 . S
N81 C84 1.336 1_545 S
C82 N80 1.335 . S
C82 N81 1.345 . S
C82 H87 0.930 . S
C83 N80 1.366 1_565 S
C83 C84 1.340 . S
C83 H88 0.956 . S
C84 N81 1.336 1_565 S
C84 C83 1.340 . S
C84 H91 0.929 . S
C85 O75 1.282 1_565 S
C85 O86 1.216 . S
O86 C85 1.216 . S
H87 C82 0.930 . S
H88 C83 0.956 . S
O89 Cu69 1.959 . S
O89 C76 1.251 . S
H90 C73 0.930 . S
H91 C84 0.929 . S
Cu92 N93 1.999 . S
Cu92 O98 1.974 . S
Cu92 N103 1.985 . S
Cu92 O112 1.959 . S
N93 Cu92 1.999 . S
N93 C95 1.263 . S
N93 C97 1.389 . S
N94 C95 1.358 . S
N94 C96 1.400 . S
C95 N93 1.263 . S
C95 N94 1.358 . S
C95 H101 0.930 . S
C96 N94 1.400 . S
C96 C97 1.351 . S
C96 H113 0.930 . S
C97 N93 1.389 . S
C97 C96 1.351 . S
C97 H102 0.930 . S
O98 Cu92 1.974 . S
O98 C108 1.282 . S
C99 O100 1.261 . S
C99 O112 1.251 . S
O100 C99 1.261 . S
H101 C95 0.930 . S
H102 C97 0.930 . S
N103 Cu92 1.985 . S
N103 C105 1.335 . S
N103 C106 1.390 . S
N104 C105 1.345 . S
N104 C107 1.336 . S
C105 N103 1.335 . S
C105 N104 1.345 . S
C105 H110 0.930 . S
C106 N103 1.390 . S
C106 C107 1.346 . S
C106 H111 0.930 . S
C107 N104 1.336 . S
C107 C106 1.346 . S
C107 H114 0.929 . S
C108 O98 1.282 . S
C108 O109 1.216 . S
O109 C108 1.216 . S
H110 C105 0.930 . S
H111 C106 0.930 . S
O112 Cu92 1.959 . S
O112 C99 1.251 . S
H113 C96 0.930 . S
H114 C107 0.929 . S
Cu115 N116 1.999 . S
Cu115 O121 1.974 . S
Cu115 N126 1.985 . S
Cu115 O135 1.959 . S
N116 Cu115 1.999 . S
N116 C118 1.263 . S
N116 C120 1.389 . S
N117 C118 1.358 . S
N117 C119 1.400 . S
C118 N116 1.263 . S
C118 N117 1.358 . S
C118 H124 0.930 . S
C119 N117 1.400 . S
C119 C120 1.351 . S
C119 H136 0.930 . S
C120 N116 1.389 . S
C120 C119 1.351 . S
C120 H125 0.930 . S
O121 Cu115 1.974 . S
O121 C131 1.282 . S
C122 O123 1.261 . S
C122 O135 1.251 . S
O123 C122 1.261 . S
H124 C118 0.930 . S
H125 C120 0.930 . S
N126 Cu115 1.985 . S
N126 C128 1.335 . S
N126 C129 1.390 . S
N127 C128 1.345 . S
N127 C130 1.336 . S
C128 N126 1.335 . S
C128 N127 1.345 . S
C128 H133 0.930 . S
C129 N126 1.390 . S
C129 C130 1.346 . S
C129 H134 0.930 . S
C130 N127 1.336 . S
C130 C129 1.346 . S
C130 H137 0.929 . S
C131 O121 1.282 . S
C131 O132 1.216 . S
O132 C131 1.216 . S
H133 C128 0.930 . S
H134 C129 0.930 . S
O135 Cu115 1.959 . S
O135 C122 1.251 . S
H136 C119 0.930 . S
H137 C130 0.929 . S
Cu138 N139 1.999 . S
Cu138 O144 1.974 . S
Cu138 N149 1.985 . S
Cu138 O158 1.959 . S
N139 Cu138 1.999 . S
N139 C141 1.263 . S
N139 C143 1.389 . S
N140 C141 1.358 . S
N140 C142 1.400 . S
C141 N139 1.263 . S
C141 N140 1.358 . S
C141 H147 0.930 . S
C142 N140 1.400 . S
C142 C143 1.351 . S
C142 H159 0.930 . S
C143 N139 1.389 . S
C143 C142 1.351 . S
C143 H148 0.930 . S
O144 Cu138 1.974 . S
O144 C154 1.282 . S
C145 O146 1.261 . S
C145 O158 1.251 . S
O146 C145 1.261 . S
H147 C141 0.930 . S
H148 C143 0.930 . S
N149 Cu138 1.985 . S
N149 C151 1.335 . S
N149 C152 1.390 . S
N150 C151 1.345 . S
N150 C153 1.336 . S
C151 N149 1.335 . S
C151 N150 1.345 . S
C151 H156 0.930 . S
C152 N149 1.390 . S
C152 C153 1.346 . S
C152 H157 0.930 . S
C153 N150 1.336 . S
C153 C152 1.346 . S
C153 H160 0.929 . S
C154 O144 1.282 . S
C154 O155 1.216 . S
O155 C154 1.216 . S
H156 C151 0.930 . S
H157 C152 0.930 . S
O158 Cu138 1.959 . S
O158 C145 1.251 . S
H159 C142 0.930 . S
H160 C153 0.929 . S
Cu161 N162 1.999 . S
Cu161 O167 1.974 . S
Cu161 N172 1.985 . S
Cu161 O181 1.959 . S
N162 Cu161 1.999 . S
N162 C164 1.263 . S
N162 C166 1.389 . S
N163 C164 1.358 . S
N163 C165 1.400 . S
C164 N162 1.263 . S
C164 N163 1.358 . S
C164 H170 0.930 . S
C165 N163 1.400 . S
C165 C166 1.351 . S
C165 H182 0.930 . S
C166 N162 1.389 . S
C166 C165 1.351 . S
C166 H171 0.930 . S
O167 Cu161 1.974 . S
O167 C177 1.282 . S
C168 O169 1.261 . S
C168 O181 1.251 . S
O169 C168 1.261 . S
H170 C164 0.930 . S
H171 C166 0.930 . S
N172 Cu161 1.985 . S
N172 C174 1.335 . S
N172 C175 1.390 . S
N173 C174 1.345 . S
N173 C176 1.336 . S
C174 N172 1.335 . S
C174 N173 1.345 . S
C174 H179 0.930 . S
C175 N172 1.390 . S
C175 C176 1.346 . S
C175 H180 0.930 . S
C176 N173 1.336 . S
C176 C175 1.346 . S
C176 H183 0.929 . S
C177 O167 1.282 . S
C177 O178 1.216 . S
O178 C177 1.216 . S
H179 C174 0.930 . S
H180 C175 0.930 . S
O181 Cu161 1.959 . S
O181 C168 1.251 . S
H182 C165 0.930 . S
H183 C176 0.929 . S
Cu184 N185 1.999 . S
Cu184 O190 1.974 . S
Cu184 N195 1.985 . S
Cu184 O204 1.959 . S
N185 Cu184 1.999 . S
N185 C187 1.263 . S
N185 C189 1.389 . S
N186 C187 1.358 . S
N186 C188 1.400 . S
C187 N185 1.263 . S
C187 N186 1.358 . S
C187 H193 0.930 . S
C188 N186 1.400 . S
C188 C189 1.351 . S
C188 H205 0.930 . S
C189 N185 1.389 . S
C189 C188 1.351 . S
C189 H194 0.930 . S
O190 Cu184 1.974 . S
O190 C200 1.282 . S
C191 O192 1.261 . S
C191 O204 1.251 . S
O192 C191 1.261 . S
H193 C187 0.930 . S
H194 C189 0.930 . S
N195 Cu184 1.985 . S
N195 C197 1.335 . S
N195 C198 1.390 . S
N196 C197 1.345 . S
N196 C199 1.336 . S
C197 N195 1.335 . S
C197 N196 1.345 . S
C197 H202 0.930 . S
C198 N195 1.390 . S
C198 C199 1.346 . S
C198 H203 0.930 . S
C199 N196 1.336 . S
C199 C198 1.346 . S
C199 H206 0.929 . S
C200 O190 1.282 . S
C200 O201 1.216 . S
O201 C200 1.216 . S
H202 C197 0.930 . S
H203 C198 0.930 . S
O204 Cu184 1.959 . S
O204 C191 1.251 . S
H205 C188 0.930 . S
H206 C199 0.929 . S
Cu207 N208 1.999 . S
Cu207 O213 1.974 . S
Cu207 N218 1.985 . S
Cu207 O227 1.959 . S
N208 Cu207 1.999 . S
N208 C210 1.263 . S
N208 C212 1.389 . S
N209 C210 1.358 . S
N209 C211 1.400 . S
C210 N208 1.263 . S
C210 N209 1.358 . S
C210 H216 0.930 . S
C211 N209 1.400 . S
C211 C212 1.351 . S
C211 H228 0.930 . S
C212 N208 1.389 . S
C212 C211 1.351 . S
C212 H217 0.930 . S
O213 Cu207 1.974 . S
O213 C223 1.282 . S
C214 O215 1.261 . S
C214 O227 1.251 . S
O215 C214 1.261 . S
H216 C210 0.930 . S
H217 C212 0.930 . S
N218 Cu207 1.985 . S
N218 C220 1.335 . S
N218 C221 1.390 . S
N219 C220 1.345 1_554 S
N219 C222 1.336 . S
C220 N218 1.335 . S
C220 N219 1.345 1_556 S
C220 H225 0.930 . S
C221 N218 1.390 . S
C221 C222 1.346 1_556 S
C221 H226 0.931 . S
C222 N219 1.336 . S
C222 C221 1.346 1_554 S
C222 H229 0.929 . S
C223 O213 1.282 . S
C223 O224 1.216 . S
O224 C223 1.216 . S
H225 C220 0.930 . S
H226 C221 0.931 . S
O227 Cu207 1.959 . S
O227 C214 1.251 . S
H228 C211 0.930 . S
H229 C222 0.929 . S
Cu230 N231 1.999 . S
Cu230 O236 1.974 . S
Cu230 N241 1.985 . S
Cu230 O250 1.959 . S
N231 Cu230 1.999 . S
N231 C233 1.263 . S
N231 C235 1.389 . S
N232 C233 1.358 . S
N232 C234 1.400 . S
C233 N231 1.263 . S
C233 N232 1.358 . S
C233 H239 0.930 . S
C234 N232 1.400 . S
C234 C235 1.351 . S
C234 H251 0.930 . S
C235 N231 1.389 . S
C235 C234 1.351 . S
C235 H240 0.930 . S
O236 Cu230 1.974 . S
O236 C246 1.282 . S
C237 O238 1.261 . S
C237 O250 1.251 . S
O238 C237 1.261 . S
H239 C233 0.930 . S
H240 C235 0.930 . S
N241 Cu230 1.985 . S
N241 C243 1.335 . S
N241 C244 1.390 . S
N242 C243 1.345 1_545 S
N242 C245 1.336 1_545 S
C243 N241 1.335 . S
C243 N242 1.345 1_565 S
C243 H248 0.925 1_565 S
C244 N241 1.390 . S
C244 C245 1.346 . S
C244 H249 0.930 . S
C245 N242 1.336 1_565 S
C245 C244 1.346 . S
C245 H252 0.929 . S
C246 O236 1.282 . S
C246 O247 1.216 . S
O247 C246 1.216 . S
H248 C243 0.925 1_545 S
H249 C244 0.930 . S
O250 Cu230 1.959 . S
O250 C237 1.251 . S
H251 C234 0.930 . S
H252 C245 0.929 . S
Cu253 N254 1.999 . S
Cu253 O259 1.974 . S
Cu253 N264 1.985 . S
Cu253 O273 1.959 . S
N254 Cu253 1.999 . S
N254 C256 1.263 . S
N254 C258 1.389 . S
N255 C256 1.358 . S
N255 C257 1.400 . S
C256 N254 1.263 . S
C256 N255 1.358 . S
C256 H262 0.930 . S
C257 N255 1.400 . S
C257 C258 1.351 . S
C257 H274 0.930 . S
C258 N254 1.389 . S
C258 C257 1.351 . S
C258 H263 0.930 . S
O259 Cu253 1.974 . S
O259 C269 1.282 . S
C260 O261 1.261 . S
C260 O273 1.251 . S
O261 C260 1.261 . S
H262 C256 0.930 . S
H263 C258 0.930 . S
N264 Cu253 1.985 . S
N264 C266 1.335 . S
N264 C267 1.390 . S
N265 C266 1.345 1_554 S
N265 C268 1.336 . S
C266 N264 1.335 . S
C266 N265 1.345 1_556 S
C266 H271 0.930 . S
C267 N264 1.390 . S
C267 C268 1.346 1_556 S
C267 H272 0.930 . S
C268 N265 1.336 . S
C268 C267 1.346 1_554 S
C268 H275 0.929 . S
C269 O259 1.282 . S
C269 O270 1.216 . S
O270 C269 1.216 . S
H271 C266 0.930 . S
H272 C267 0.930 . S
O273 Cu253 1.959 . S
O273 C260 1.251 . S
H274 C257 0.930 . S
H275 C268 0.929 . S
Cu276 N277 1.999 . S
Cu276 O282 1.974 . S
Cu276 N287 1.985 . S
Cu276 O296 1.959 . S
N277 Cu276 1.999 . S
N277 C279 1.263 . S
N277 C281 1.389 . S
N278 C279 1.358 . S
N278 C280 1.400 . S
C279 N277 1.263 . S
C279 N278 1.358 . S
C279 H285 0.930 . S
C280 N278 1.400 . S
C280 C281 1.351 . S
C280 H297 0.930 . S
C281 N277 1.389 . S
C281 C280 1.351 . S
C281 H286 0.930 . S
O282 Cu276 1.974 . S
O282 C292 1.282 . S
C283 O284 1.261 . S
C283 O296 1.251 . S
O284 C283 1.261 . S
H285 C279 0.930 . S
H286 C281 0.930 . S
N287 Cu276 1.985 . S
N287 C289 1.335 . S
N287 C290 1.390 . S
N288 C289 1.345 . S
N288 C291 1.336 . S
C289 N287 1.335 . S
C289 N288 1.345 . S
C289 H294 0.930 . S
C290 N287 1.390 . S
C290 C291 1.346 . S
C290 H295 0.930 . S
C291 N288 1.336 . S
C291 C290 1.346 . S
C291 H298 0.929 . S
C292 O282 1.282 . S
C292 O293 1.216 . S
O293 C292 1.216 . S
H294 C289 0.930 . S
H295 C290 0.930 . S
O296 Cu276 1.959 . S
O296 C283 1.251 . S
H297 C280 0.930 . S
H298 C291 0.929 . S
Cu299 N300 1.999 . S
Cu299 O305 1.974 . S
Cu299 N310 1.985 . S
Cu299 O319 1.959 . S
N300 Cu299 1.999 . S
N300 C302 1.263 . S
N300 C304 1.389 . S
N301 C302 1.358 . S
N301 C303 1.400 . S
C302 N300 1.263 . S
C302 N301 1.358 . S
C302 H308 0.930 . S
C303 N301 1.400 . S
C303 C304 1.351 . S
C303 H320 0.930 . S
C304 N300 1.389 . S
C304 C303 1.351 . S
C304 H309 0.930 . S
O305 Cu299 1.974 . S
O305 C315 1.282 . S
C306 O307 1.261 . S
C306 O319 1.251 . S
O307 C306 1.261 . S
H308 C302 0.930 . S
H309 C304 0.930 . S
N310 Cu299 1.985 . S
N310 C312 1.335 . S
N310 C313 1.390 . S
N311 C312 1.345 . S
N311 C314 1.336 . S
C312 N310 1.335 . S
C312 N311 1.345 . S
C312 H317 0.930 . S
C313 N310 1.390 . S
C313 C314 1.346 . S
C313 H318 0.930 . S
C314 N311 1.336 . S
C314 C313 1.346 . S
C314 H321 0.929 . S
C315 O305 1.282 . S
C315 O316 1.216 . S
O316 C315 1.216 . S
H317 C312 0.930 . S
H318 C313 0.930 . S
O319 Cu299 1.959 . S
O319 C306 1.251 . S
H320 C303 0.930 . S
H321 C314 0.929 . S
Cu322 N323 1.999 . S
Cu322 O328 1.974 . S
Cu322 N333 1.985 . S
Cu322 O342 1.959 . S
N323 Cu322 1.999 . S
N323 C325 1.263 . S
N323 C327 1.389 . S
N324 C325 1.358 . S
N324 C326 1.400 . S
C325 N323 1.263 . S
C325 N324 1.358 . S
C325 H331 0.930 . S
C326 N324 1.400 . S
C326 C327 1.351 . S
C326 H343 0.930 . S
C327 N323 1.389 . S
C327 C326 1.351 . S
C327 H332 0.930 . S
O328 Cu322 1.974 . S
O328 C338 1.282 . S
C329 O330 1.261 . S
C329 O342 1.251 . S
O330 C329 1.261 . S
H331 C325 0.930 . S
H332 C327 0.930 . S
N333 Cu322 1.985 . S
N333 C335 1.335 . S
N333 C336 1.390 . S
N334 C335 1.345 . S
N334 C337 1.336 . S
C335 N333 1.335 . S
C335 N334 1.345 . S
C335 H340 0.930 . S
C336 N333 1.390 . S
C336 C337 1.346 . S
C336 H341 0.930 . S
C337 N334 1.336 . S
C337 C336 1.346 . S
C337 H344 0.929 . S
C338 O328 1.282 . S
C338 O339 1.216 . S
O339 C338 1.216 . S
H340 C335 0.930 . S
H341 C336 0.930 . S
O342 Cu322 1.959 . S
O342 C329 1.251 . S
H343 C326 0.930 . S
H344 C337 0.929 . S
Cu345 N346 1.999 . S
Cu345 O351 1.974 . S
Cu345 N356 1.985 . S
Cu345 O365 1.959 . S
N346 Cu345 1.999 . S
N346 C348 1.263 . S
N346 C350 1.389 . S
N347 C348 1.358 . S
N347 C349 1.400 . S
C348 N346 1.263 . S
C348 N347 1.358 . S
C348 H354 0.930 . S
C349 N347 1.400 . S
C349 C350 1.351 . S
C349 H366 0.930 1_554 S
C350 N346 1.389 . S
C350 C349 1.351 . S
C350 H355 0.930 . S
O351 Cu345 1.974 . S
O351 C361 1.282 . S
C352 O353 1.261 . S
C352 O365 1.251 . S
O353 C352 1.261 . S
H354 C348 0.930 . S
H355 C350 0.930 . S
N356 Cu345 1.985 . S
N356 C358 1.335 . S
N356 C359 1.390 . S
N357 C358 1.345 . S
N357 C360 1.336 . S
C358 N356 1.335 . S
C358 N357 1.345 . S
C358 H363 0.930 . S
C359 N356 1.390 . S
C359 C360 1.346 . S
C359 H364 0.930 . S
C360 N357 1.336 . S
C360 C359 1.346 . S
C360 H367 0.929 . S
C361 O351 1.282 . S
C361 O362 1.216 . S
O362 C361 1.216 . S
H363 C358 0.930 . S
H364 C359 0.930 . S
O365 Cu345 1.959 . S
O365 C352 1.251 . S
H366 C349 0.930 1_556 S
H367 C360 0.929 . S
Cu368 N369 1.999 . S
Cu368 O374 1.974 . S
Cu368 N379 1.985 . S
Cu368 O388 1.959 . S
N369 Cu368 1.999 . S
N369 C371 1.263 . S
N369 C373 1.389 . S
N370 C371 1.358 . S
N370 C372 1.400 . S
C371 N369 1.263 . S
C371 N370 1.358 . S
C371 H377 0.930 . S
C372 N370 1.400 . S
C372 C373 1.351 . S
C372 H389 0.930 . S
C373 N369 1.389 . S
C373 C372 1.351 . S
C373 H378 0.930 . S
O374 Cu368 1.974 . S
O374 C384 1.282 . S
C375 O376 1.261 . S
C375 O388 1.251 . S
O376 C375 1.261 . S
H377 C371 0.930 . S
H378 C373 0.930 . S
N379 Cu368 1.985 . S
N379 C381 1.335 . S
N379 C382 1.390 . S
N380 C381 1.345 . S
N380 C383 1.336 . S
C381 N379 1.335 . S
C381 N380 1.345 . S
C381 H386 0.930 . S
C382 N379 1.390 . S
C382 C383 1.346 . S
C382 H387 0.930 . S
C383 N380 1.336 . S
C383 C382 1.346 . S
C383 H390 0.929 . S
C384 O374 1.282 . S
C384 O385 1.216 . S
O385 C384 1.216 . S
H386 C381 0.930 . S
H387 C382 0.930 . S
O388 Cu368 1.959 . S
O388 C375 1.251 . S
H389 C372 0.930 . S
H390 C383 0.929 . S
Cu391 N392 1.999 . S
Cu391 O397 1.974 . S
Cu391 N402 1.985 . S
Cu391 O411 1.959 . S
N392 Cu391 1.999 . S
N392 C394 1.263 . S
N392 C396 1.389 . S
N393 C394 1.358 . S
N393 C395 1.400 . S
C394 N392 1.263 . S
C394 N393 1.358 . S
C394 H400 0.930 . S
C395 N393 1.400 . S
C395 C396 1.351 . S
C395 H412 0.930 . S
C396 N392 1.389 . S
C396 C395 1.351 . S
C396 H401 0.930 . S
O397 Cu391 1.974 . S
O397 C407 1.282 . S
C398 O399 1.261 . S
C398 O411 1.251 . S
O399 C398 1.261 . S
H400 C394 0.930 . S
H401 C396 0.930 . S
N402 Cu391 1.985 . S
N402 C404 1.335 . S
N402 C405 1.390 . S
N403 C404 1.345 . S
N403 C406 1.336 . S
C404 N402 1.335 . S
C404 N403 1.345 . S
C404 H409 0.930 . S
C405 N402 1.390 . S
C405 C406 1.346 . S
C405 H410 0.930 . S
C406 N403 1.336 . S
C406 C405 1.346 . S
C406 H413 0.929 . S
C407 O397 1.282 . S
C407 O408 1.216 . S
O408 C407 1.216 . S
H409 C404 0.930 . S
H410 C405 0.930 . S
O411 Cu391 1.959 . S
O411 C398 1.251 . S
H412 C395 0.930 . S
H413 C406 0.929 . S
In414 O415 2.294 . S
In414 O416 2.326 . S
In414 O420 2.266 . S
In414 O421 2.326 1_455 S
In414 O422 2.266 1_455 S
In414 O423 2.326 1_455 S
In414 O425 2.294 1_455 S
In414 O426 2.326 . S
O415 In414 2.294 . S
O415 C424 1.240 . S
O416 In414 2.326 . S
O416 C424 1.252 . S
C417 O420 1.252 . S
C417 O421 1.260 1_455 S
C418 O425 1.240 1_455 S
C418 O426 1.252 . S
C419 O422 1.252 . S
C419 O423 1.260 . S
O420 In414 2.266 . S
O420 C417 1.252 . S
O421 In414 2.326 1_655 S
O421 C417 1.260 1_655 S
O422 In414 2.266 1_655 S
O422 C419 1.252 . S
O423 In414 2.326 1_655 S
O423 C419 1.260 . S
C424 O415 1.240 . S
C424 O416 1.252 . S
O425 In414 2.294 1_655 S
O425 C418 1.240 1_655 S
O426 In414 2.326 . S
O426 C418 1.252 . S
In427 O428 2.294 . S
In427 O429 2.326 . S
In427 O433 2.266 . S
In427 O434 2.326 . S
In427 O435 2.266 . S
In427 O436 2.326 . S
In427 O438 2.294 . S
In427 O439 2.326 . S
O428 In427 2.294 . S
O428 C437 1.240 . S
O429 In427 2.326 . S
O429 C437 1.252 . S
C430 O433 1.252 . S
C430 O434 1.260 . S
C431 O438 1.240 . S
C431 O439 1.252 . S
C432 O435 1.252 . S
C432 O436 1.260 . S
O433 In427 2.266 . S
O433 C430 1.252 . S
O434 In427 2.326 . S
O434 C430 1.260 . S
O435 In427 2.266 . S
O435 C432 1.252 . S
O436 In427 2.326 . S
O436 C432 1.260 . S
C437 O428 1.240 . S
C437 O429 1.252 . S
O438 In427 2.294 . S
O438 C431 1.240 . S
O439 In427 2.326 . S
O439 C431 1.252 . S
In440 O441 2.294 . S
In440 O442 2.326 . S
In440 O446 2.266 . S
In440 O447 2.326 . S
In440 O448 2.266 . S
In440 O449 2.326 . S
In440 O451 2.294 . S
In440 O452 2.326 . S
O441 In440 2.294 . S
O441 C450 1.240 . S
O442 In440 2.326 . S
O442 C450 1.252 . S
C443 O446 1.252 . S
C443 O447 1.260 . S
C444 O451 1.240 . S
C444 O452 1.252 . S
C445 O448 1.252 . S
C445 O449 1.260 . S
O446 In440 2.266 . S
O446 C443 1.252 . S
O447 In440 2.326 . S
O447 C443 1.260 . S
O448 In440 2.266 . S
O448 C445 1.252 . S
O449 In440 2.326 . S
O449 C445 1.260 . S
C450 O441 1.240 . S
C450 O442 1.252 . S
O451 In440 2.294 . S
O451 C444 1.240 . S
O452 In440 2.326 . S
O452 C444 1.252 . S
In453 O454 2.294 1_455 S
In453 O455 2.326 . S
In453 O459 2.266 1_455 S
In453 O460 2.326 . S
In453 O461 2.266 . S
In453 O462 2.326 . S
In453 O464 2.294 . S
In453 O465 2.326 . S
O454 In453 2.294 1_655 S
O454 C463 1.240 1_655 S
O455 In453 2.326 . S
O455 C463 1.252 . S
C456 O459 1.252 . S
C456 O460 1.260 1_655 S
C457 O464 1.240 . S
C457 O465 1.252 . S
C458 O461 1.252 . S
C458 O462 1.260 . S
O459 In453 2.266 1_655 S
O459 C456 1.252 . S
O460 In453 2.326 . S
O460 C456 1.260 1_455 S
O461 In453 2.266 . S
O461 C458 1.252 . S
O462 In453 2.326 . S
O462 C458 1.260 . S
C463 O454 1.240 1_455 S
C463 O455 1.252 . S
O464 In453 2.294 . S
O464 C457 1.240 . S
O465 In453 2.326 . S
O465 C457 1.252 . S
In466 O467 2.294 . S
In466 O468 2.326 . S
In466 O472 2.266 . S
In466 O473 2.326 . S
In466 O474 2.266 . S
In466 O475 2.326 . S
In466 O477 2.294 . S
In466 O478 2.326 . S
O467 In466 2.294 . S
O467 C476 1.240 . S
O468 In466 2.326 . S
O468 C476 1.252 . S
C469 O472 1.252 . S
C469 O473 1.260 . S
C470 O477 1.240 . S
C470 O478 1.252 . S
C471 O474 1.252 . S
C471 O475 1.260 . S
O472 In466 2.266 . S
O472 C469 1.252 . S
O473 In466 2.326 . S
O473 C469 1.260 . S
O474 In466 2.266 . S
O474 C471 1.252 . S
O475 In466 2.326 . S
O475 C471 1.260 . S
C476 O467 1.240 . S
C476 O468 1.252 . S
O477 In466 2.294 . S
O477 C470 1.240 . S
O478 In466 2.326 . S
O478 C470 1.252 . S
In479 O480 2.294 . S
In479 O481 2.326 1_545 S
In479 O485 2.266 . S
In479 O486 2.326 . S
In479 O487 2.266 1_545 S
In479 O488 2.326 1_545 S
In479 O490 2.294 1_545 S
In479 O491 2.326 . S
O480 In479 2.294 . S
O480 C489 1.240 . S
O481 In479 2.326 1_565 S
O481 C489 1.252 1_565 S
C482 O485 1.252 . S
C482 O486 1.260 . S
C483 O490 1.240 1_545 S
C483 O491 1.252 . S
C484 O487 1.252 . S
C484 O488 1.260 . S
O485 In479 2.266 . S
O485 C482 1.252 . S
O486 In479 2.326 . S
O486 C482 1.260 . S
O487 In479 2.266 1_565 S
O487 C484 1.252 . S
O488 In479 2.326 1_565 S
O488 C484 1.260 . S
C489 O480 1.240 . S
C489 O481 1.252 1_545 S
O490 In479 2.294 1_565 S
O490 C483 1.240 1_565 S
O491 In479 2.326 . S
O491 C483 1.252 . S
In492 O493 2.294 1_565 S
In492 O494 2.326 1_565 S
In492 O498 2.266 . S
In492 O499 2.326 . S
In492 O500 2.266 . S
In492 O501 2.326 1_565 S
In492 O503 2.294 . S
In492 O504 2.326 . S
O493 In492 2.294 1_545 S
O493 C502 1.240 . S
O494 In492 2.326 1_545 S
O494 C502 1.252 . S
C495 O498 1.252 . S
C495 O499 1.260 . S
C496 O503 1.240 . S
C496 O504 1.252 . S
C497 O500 1.252 1_545 S
C497 O501 1.260 . S
O498 In492 2.266 . S
O498 C495 1.252 . S
O499 In492 2.326 . S
O499 C495 1.260 . S
O500 In492 2.266 . S
O500 C497 1.252 1_565 S
O501 In492 2.326 1_545 S
O501 C497 1.260 . S
C502 O493 1.240 . S
C502 O494 1.252 . S
O503 In492 2.294 . S
O503 C496 1.240 . S
O504 In492 2.326 . S
O504 C496 1.252 . S
In505 O506 2.294 . S
In505 O507 2.326 . S
In505 O511 2.266 . S
In505 O512 2.326 . S
In505 O513 2.266 . S
In505 O514 2.326 . S
In505 O516 2.294 . S
In505 O517 2.326 . S
O506 In505 2.294 . S
O506 C515 1.240 . S
O507 In505 2.326 . S
O507 C515 1.252 . S
C508 O511 1.252 . S
C508 O512 1.260 . S
C509 O516 1.240 . S
C509 O517 1.252 . S
C510 O513 1.252 . S
C510 O514 1.260 . S
O511 In505 2.266 . S
O511 C508 1.252 . S
O512 In505 2.326 . S
O512 C508 1.260 . S
O513 In505 2.266 . S
O513 C510 1.252 . S
O514 In505 2.326 . S
O514 C510 1.260 . S
C515 O506 1.240 . S
C515 O507 1.252 . S
O516 In505 2.294 . S
O516 C509 1.240 . S
O517 In505 2.326 . S
O517 C509 1.252 . S
In518 O519 2.294 . S
In518 O520 2.326 . S
In518 O524 2.266 . S
In518 O525 2.326 . S
In518 O526 2.266 . S
In518 O527 2.326 . S
In518 O529 2.294 . S
In518 O530 2.326 . S
O519 In518 2.294 . S
O519 C528 1.240 . S
O520 In518 2.326 . S
O520 C528 1.252 . S
C521 O524 1.252 . S
C521 O525 1.260 . S
C522 O529 1.240 . S
C522 O530 1.252 . S
C523 O526 1.252 . S
C523 O527 1.260 . S
O524 In518 2.266 . S
O524 C521 1.252 . S
O525 In518 2.326 . S
O525 C521 1.260 . S
O526 In518 2.266 . S
O526 C523 1.252 . S
O527 In518 2.326 . S
O527 C523 1.260 . S
C528 O519 1.240 . S
C528 O520 1.252 . S
O529 In518 2.294 . S
O529 C522 1.240 . S
O530 In518 2.326 . S
O530 C522 1.252 . S
In531 O532 2.294 . S
In531 O533 2.326 . S
In531 O537 2.266 . S
In531 O538 2.326 . S
In531 O539 2.266 . S
In531 O540 2.326 . S
In531 O542 2.294 . S
In531 O543 2.326 . S
O532 In531 2.294 . S
O532 C541 1.240 . S
O533 In531 2.326 . S
O533 C541 1.252 . S
C534 O537 1.252 . S
C534 O538 1.260 . S
C535 O542 1.240 . S
C535 O543 1.252 . S
C536 O539 1.252 . S
C536 O540 1.260 . S
O537 In531 2.266 . S
O537 C534 1.252 . S
O538 In531 2.326 . S
O538 C534 1.260 . S
O539 In531 2.266 . S
O539 C536 1.252 . S
O540 In531 2.326 . S
O540 C536 1.260 . S
C541 O532 1.240 . S
C541 O533 1.252 . S
O542 In531 2.294 . S
O542 C535 1.240 . S
O543 In531 2.326 . S
O543 C535 1.252 . S
In544 O545 2.298 . S
In544 O546 2.327 . S
In544 O550 2.269 1_565 S
In544 O551 2.324 1_565 S
In544 O552 2.260 1_565 S
In544 O553 2.322 1_565 S
In544 O555 2.293 . S
In544 O556 2.331 . S
O545 In544 2.298 . S
O545 C554 1.240 . S
O546 In544 2.327 . S
O546 C554 1.252 . S
C547 O550 1.252 . S
C547 O551 1.260 . S
C548 O555 1.240 . S
C548 O556 1.252 . S
C549 O552 1.252 . S
C549 O553 1.260 . S
O550 In544 2.269 1_545 S
O550 C547 1.252 . S
O551 In544 2.324 1_545 S
O551 C547 1.260 . S
O552 In544 2.260 1_545 S
O552 C549 1.252 . S
O553 In544 2.322 1_545 S
O553 C549 1.260 . S
C554 O545 1.240 . S
C554 O546 1.252 . S
O555 In544 2.293 . S
O555 C548 1.240 . S
O556 In544 2.331 . S
O556 C548 1.252 . S
In557 O558 2.294 . S
In557 O559 2.326 . S
In557 O563 2.266 . S
In557 O564 2.326 . S
In557 O565 2.266 1_455 S
In557 O566 2.326 1_455 S
In557 O568 2.294 . S
In557 O569 2.326 . S
O558 In557 2.294 . S
O558 C567 1.240 . S
O559 In557 2.326 . S
O559 C567 1.252 . S
C560 O563 1.252 . S
C560 O564 1.260 . S
C561 O568 1.240 . S
C561 O569 1.252 . S
C562 O565 1.252 . S
C562 O566 1.260 . S
O563 In557 2.266 . S
O563 C560 1.252 . S
O564 In557 2.326 . S
O564 C560 1.260 . S
O565 In557 2.266 1_655 S
O565 C562 1.252 . S
O566 In557 2.326 1_655 S
O566 C562 1.260 . S
C567 O558 1.240 . S
C567 O559 1.252 . S
O568 In557 2.294 . S
O568 C561 1.240 . S
O569 In557 2.326 . S
O569 C561 1.252 . S
In570 O571 2.294 1_556 S
In570 O572 2.326 1_556 S
In570 O576 2.266 . S
In570 O577 2.326 . S
In570 O578 2.266 . S
In570 O579 2.326 . S
In570 O581 2.294 . S
In570 O582 2.326 1_556 S
O571 In570 2.294 1_554 S
O571 C580 1.240 . S
O572 In570 2.326 1_554 S
O572 C580 1.252 . S
C573 O576 1.252 . S
C573 O577 1.260 . S
C574 O581 1.240 . S
C574 O582 1.252 1_556 S
C575 O578 1.252 . S
C575 O579 1.260 . S
O576 In570 2.266 . S
O576 C573 1.252 . S
O577 In570 2.326 . S
O577 C573 1.260 . S
O578 In570 2.266 . S
O578 C575 1.252 . S
O579 In570 2.326 . S
O579 C575 1.260 . S
C580 O571 1.240 . S
C580 O572 1.252 . S
O581 In570 2.294 . S
O581 C574 1.240 . S
O582 In570 2.326 1_554 S
O582 C574 1.252 1_554 S
In583 O584 2.294 . S
In583 O585 2.326 . S
In583 O589 2.266 1_556 S
In583 O590 2.326 . S
In583 O591 2.266 . S
In583 O592 2.326 1_556 S
In583 O594 2.294 . S
In583 O595 2.326 . S
O584 In583 2.294 . S
O584 C593 1.240 . S
O585 In583 2.326 . S
O585 C593 1.252 . S
C586 O589 1.252 . S
C586 O590 1.260 1_554 S
C587 O594 1.240 . S
C587 O595 1.252 . S
C588 O591 1.252 . S
C588 O592 1.260 1_556 S
O589 In583 2.266 1_554 S
O589 C586 1.252 . S
O590 In583 2.326 . S
O590 C586 1.260 1_556 S
O591 In583 2.266 . S
O591 C588 1.252 . S
O592 In583 2.326 1_554 S
O592 C588 1.260 1_554 S
C593 O584 1.240 . S
C593 O585 1.252 . S
O594 In583 2.294 . S
O594 C587 1.240 . S
O595 In583 2.326 . S
O595 C587 1.252 . S
In596 O597 2.294 1_556 S
In596 O598 2.326 . S
In596 O602 2.266 1_655 S
In596 O603 2.326 1_655 S
In596 O604 2.266 . S
In596 O605 2.326 . S
In596 O607 2.294 . S
In596 O608 2.326 1_655 S
O597 In596 2.294 1_554 S
O597 C606 1.240 . S
O598 In596 2.326 . S
O598 C606 1.252 1_556 S
C599 O602 1.252 . S
C599 O603 1.260 . S
C600 O607 1.240 1_455 S
C600 O608 1.252 . S
C601 O604 1.252 . S
C601 O605 1.260 . S
O602 In596 2.266 1_455 S
O602 C599 1.252 . S
O603 In596 2.326 1_455 S
O603 C599 1.260 . S
O604 In596 2.266 . S
O604 C601 1.252 . S
O605 In596 2.326 . S
O605 C601 1.260 . S
C606 O597 1.240 . S
C606 O598 1.252 1_554 S
O607 In596 2.294 . S
O607 C600 1.240 1_655 S
O608 In596 2.326 1_455 S
O608 C600 1.252 . S
In609 O610 2.294 . S
In609 O611 2.326 . S
In609 O615 2.266 . S
In609 O616 2.326 . S
In609 O617 2.266 . S
In609 O618 2.326 . S
In609 O620 2.294 . S
In609 O621 2.326 . S
O610 In609 2.294 . S
O610 C619 1.240 . S
O611 In609 2.326 . S
O611 C619 1.252 . S
C612 O615 1.252 . S
C612 O616 1.260 . S
C613 O620 1.240 . S
C613 O621 1.252 . S
C614 O617 1.252 . S
C614 O618 1.260 . S
O615 In609 2.266 . S
O615 C612 1.252 . S
O616 In609 2.326 . S
O616 C612 1.260 . S
O617 In609 2.266 . S
O617 C614 1.252 . S
O618 In609 2.326 . S
O618 C614 1.260 . S
C619 O610 1.240 . S
C619 O611 1.252 . S
O620 In609 2.294 . S
O620 C613 1.240 . S
O621 In609 2.326 . S
O621 C613 1.252 . S
In622 O623 2.293 . S
In622 O624 2.330 . S
In622 O628 2.261 1_655 S
In622 O629 2.323 1_655 S
In622 O630 2.268 1_655 S
In622 O631 2.324 1_655 S
In622 O633 2.297 . S
In622 O634 2.327 . S
O623 In622 2.293 . S
O623 C632 1.240 . S
O624 In622 2.330 . S
O624 C632 1.252 . S
C625 O628 1.252 . S
C625 O629 1.260 . S
C626 O633 1.240 . S
C626 O634 1.252 . S
C627 O630 1.252 . S
C627 O631 1.260 . S
O628 In622 2.261 1_455 S
O628 C625 1.252 . S
O629 In622 2.323 1_455 S
O629 C625 1.260 . S
O630 In622 2.268 1_455 S
O630 C627 1.252 . S
O631 In622 2.324 1_455 S
O631 C627 1.260 . S
C632 O623 1.240 . S
C632 O624 1.252 . S
O633 In622 2.297 . S
O633 C626 1.240 . S
O634 In622 2.327 . S
O634 C626 1.252 . S
In635 O636 2.294 . S
In635 O637 2.326 . S
In635 O641 2.266 . S
In635 O642 2.326 . S
In635 O643 2.266 . S
In635 O644 2.326 . S
In635 O646 2.294 . S
In635 O647 2.326 . S
O636 In635 2.294 . S
O636 C645 1.240 . S
O637 In635 2.326 . S
O637 C645 1.252 . S
C638 O641 1.252 . S
C638 O642 1.260 . S
C639 O646 1.240 . S
C639 O647 1.252 . S
C640 O643 1.252 . S
C640 O644 1.260 . S
O641 In635 2.266 . S
O641 C638 1.252 . S
O642 In635 2.326 . S
O642 C638 1.260 . S
O643 In635 2.266 . S
O643 C640 1.252 . S
O644 In635 2.326 . S
O644 C640 1.260 . S
C645 O636 1.240 . S
C645 O637 1.252 . S
O646 In635 2.294 . S
O646 C639 1.240 . S
O647 In635 2.326 . S
O647 C639 1.252 . S
C7 C560 1.568 1_655 S
C534 C39 2.208 . S
C547 C62 1.928 . S
C76 C614 2.341 . S
C108 C627 1.654 . S
N117 C640 1.788 . S
C600 C16 1.808 1_455 S
C30 C574 2.194 . S
C588 C53 1.665 . S
C85 C497 2.188 1_565 S
C509 C99 2.017 . S
N127 C523 1.674 . S
N150 C638 0.972 . S
C612 N173 1.771 1_545 S
C625 C200 1.610 . S
C214 C458 1.892 . S
N232 C471 1.771 . S
C260 C484 1.659 . S
C444 N140 1.842 1_545 S
N163 C424 1.912 . S
C430 C191 1.836 . S
C573 C223 2.399 . S
C593 N242 1.861 . S
C599 C269 1.957 . S
N288 C482 1.344 . S
C315 C456 1.675 . S
C338 C469 2.133 . S
C352 C536 2.408 . S
C549 N370 1.839 . S
C562 C398 1.847 . S
C528 N278 1.187 . S
C306 C502 1.964 . S
C329 C508 1.808 1_655 S
C419 C361 1.840 . S
N380 C431 1.787 . S
C443 C407 1.849 . S
C463 N12 1.397 . S
N25 C476 1.580 . S
C489 N48 1.139 . S
C483 N81 1.349 . S
C457 N94 1.809 . S
C470 C131 1.941 . S
C417 N2 1.258 . S
N35 C437 1.394 . S
N58 C445 1.055 . S
C450 N71 1.264 . S
C418 N104 1.416 . S
C432 C122 1.840 . S
C145 C541 2.470 . S
C168 C554 1.860 . S
N186 C567 1.552 . S
C561 N219 1.727 . S
C535 C246 2.206 1_554 S
C548 N265 1.599 . S
C495 C154 2.258 . S
C177 C515 2.053 . S
N196 C521 1.178 . S
N209 C522 1.014 . S
C237 C496 2.178 . S
C510 N255 1.383 . S
C283 C619 2.273 . S
N301 C632 1.629 . S
N324 C645 1.090 . S
C639 N357 0.975 . S
C613 C384 2.207 . S
N403 C626 1.522 . S
C292 C575 2.179 . S
C587 N311 1.361 . S
N334 C601 1.229 . S
N347 C606 1.419 . S
C580 C375 2.329 . S
N393 C586 1.332 . S
