# Generated by pormake.
# Topology anh, (6,3)-cn, num edge types: 1
# Building blocks:
#     Node 0, Type 0, BuildingBlock: BETDAH_clean_sbu_0, # of connection points: 6
#     Node 1, Type 0, BuildingBlock: BETDAH_clean_sbu_0, # of connection points: 6
#     Node 2, Type 0, BuildingBlock: BETDAH_clean_sbu_0, # of connection points: 6
#     Node 3, Type 1, BuildingBlock: OLANEW_clean_sbu_2, # of connection points: 3
#     Node 4, Type 1, BuildingBlock: OLANEW_clean_sbu_2, # of connection points: 3
#     Node 5, Type 1, BuildingBlock: OLANEW_clean_sbu_2, # of connection points: 3
#     Node 6, Type 1, BuildingBlock: OLANEW_clean_sbu_2, # of connection points: 3
#     Node 7, Type 1, BuildingBlock: OLANEW_clean_sbu_2, # of connection points: 3
#     Node 8, Type 1, BuildingBlock: OLANEW_clean_sbu_2, # of connection points: 3
#     Edge 9, Type (0, 1), BuildingBlock: XIVTED_clean_linker_0, # of connection points: 2
#     Edge 10, Type (0, 1), BuildingBlock: XIVTED_clean_linker_0, # of connection points: 2
#     Edge 11, Type (0, 1), BuildingBlock: XIVTED_clean_linker_0, # of connection points: 2
#     Edge 12, Type (0, 1), BuildingBlock: XIVTED_clean_linker_0, # of connection points: 2
#     Edge 13, Type (0, 1), BuildingBlock: XIVTED_clean_linker_0, # of connection points: 2
#     Edge 14, Type (0, 1), BuildingBlock: XIVTED_clean_linker_0, # of connection points: 2
#     Edge 15, Type (0, 1), BuildingBlock: XIVTED_clean_linker_0, # of connection points: 2
#     Edge 16, Type (0, 1), BuildingBlock: XIVTED_clean_linker_0, # of connection points: 2
#     Edge 17, Type (0, 1), BuildingBlock: XIVTED_clean_linker_0, # of connection points: 2
#     Edge 18, Type (0, 1), BuildingBlock: XIVTED_clean_linker_0, # of connection points: 2
#     Edge 19, Type (0, 1), BuildingBlock: XIVTED_clean_linker_0, # of connection points: 2
#     Edge 20, Type (0, 1), BuildingBlock: XIVTED_clean_linker_0, # of connection points: 2
#     Edge 21, Type (0, 1), BuildingBlock: XIVTED_clean_linker_0, # of connection points: 2
#     Edge 22, Type (0, 1), BuildingBlock: XIVTED_clean_linker_0, # of connection points: 2
#     Edge 23, Type (0, 1), BuildingBlock: XIVTED_clean_linker_0, # of connection points: 2
#     Edge 24, Type (0, 1), BuildingBlock: XIVTED_clean_linker_0, # of connection points: 2
#     Edge 25, Type (0, 1), BuildingBlock: XIVTED_clean_linker_0, # of connection points: 2
#     Edge 26, Type (0, 1), BuildingBlock: XIVTED_clean_linker_0, # of connection points: 2
# Relax obj value: 0.141
# Max RMSD: 0.171
# Mean RMSD: 0.115
data_MOF--net-anh--node1-BETDAH_clean_sbu_0--node2-OLANEW_clean_sbu_2--edge1-XIVTED_clean_linker_0
_symmetry_space_group_name_H-M    P1
_symmetry_Int_Tables_number       1
_symmetry_cell_setting            triclinic
loop_
_symmetry_equiv_pos_as_xyz
'x, y, z'
_cell_length_a     37.154608
_cell_length_b     41.376486
_cell_length_c     50.743014
_cell_angle_alpha  92.319617
_cell_angle_beta   89.326886
_cell_angle_gamma 129.96929
loop_
_atom_site_label
_atom_site_type_symbol
_atom_site_fract_x
_atom_site_fract_y
_atom_site_fract_z
_atom_type_partial_charge
Ho0 Ho 0.05502 0.51858 0.12095 0.0
Ho1 Ho 1.00182 0.54662 0.14377 0.0
C2 C 0.10937 0.61934 0.13201 0.0
C3 C 0.1046 0.50802 0.09195 0.0
C4 C 0.15405 0.52692 0.09142 0.0
C5 C 0.1684 0.51132 0.07302 0.0
C6 C 0.21383 0.52497 0.07443 0.0
C7 C 0.24563 0.55442 0.09436 0.0
C8 C 0.23167 0.5715 0.11203 0.0
C9 C 0.18616 0.55782 0.11056 0.0
C10 C 0.05464 0.52352 0.17397 0.0
C11 C 0.94801 0.44634 0.13425 0.0
C12 C 0.94942 0.55466 0.1719 0.0
C13 C 0.89846 0.52589 0.17533 0.0
C14 C 0.87842 0.53316 0.19575 0.0
C15 C 0.82966 0.50517 0.19885 0.0
C16 C 0.80054 0.4694 0.18168 0.0
C17 C 0.82108 0.46225 0.1614 0.0
C18 C 0.86953 0.49028 0.15823 0.0
C19 C 1.00196 0.5399 0.09053 0.0
O20 O 0.10863 0.59017 0.11938 0.0
O21 O 0.07358 0.60937 0.14609 0.0
O22 O 0.08187 0.48613 0.11264 0.0
O23 O 0.0953 0.5324 0.0857 0.0
O24 O 0.05581 0.49682 0.16069 0.0
O25 O 0.05842 0.54871 0.1587 0.0
O26 O 0.95063 0.47582 0.14782 0.0
O27 O 0.98195 0.45617 0.11836 0.0
O28 O 0.96351 0.56939 0.14833 0.0
O29 O 0.97075 0.54178 0.18127 0.0
O30 O 1.00267 0.56817 0.10318 0.0
O31 O 0.99791 0.51549 0.10654 0.0
H32 H 0.14389 0.4873 0.05821 0.0
H33 H 0.22311 0.51067 0.06076 0.0
H34 H 0.25546 0.59449 0.12743 0.0
H35 H 0.17547 0.5702 0.12492 0.0
H36 H 0.90042 0.56046 0.20919 0.0
H37 H 0.81475 0.5114 0.21466 0.0
H38 H 0.79961 0.43551 0.14751 0.0
H39 H 0.88443 0.48434 0.14224 0.0
Ho40 Ho 0.56687 0.02168 0.48726 0.0
Ho41 Ho 0.51176 0.05084 0.47591 0.0
C42 C 0.45451 0.95252 0.47289 0.0
C43 C 0.59878 0.98687 0.50591 0.0
C44 C 0.58429 0.94453 0.50729 0.0
C45 C 0.53674 0.90824 0.50713 0.0
C46 C 0.52391 0.86832 0.50855 0.0
C47 C 0.55849 0.86405 0.51022 0.0
C48 C 0.6061 0.90065 0.51023 0.0
C49 C 0.61881 0.94045 0.50874 0.0
C50 C 0.56735 0.03922 0.43664 0.0
C51 C 0.62491 0.12041 0.48784 0.0
C52 C 0.48133 0.08793 0.45929 0.0
C53 C 0.49394 0.12927 0.46478 0.0
C54 C 0.46994 0.13977 0.4517 0.0
C55 C 0.48031 0.17832 0.45763 0.0
C56 C 0.51491 0.20703 0.47679 0.0
C57 C 0.53938 0.19649 0.48956 0.0
C58 C 0.52895 0.15793 0.48362 0.0
C59 C 0.51349 0.03468 0.52668 0.0
O60 O 0.49101 0.96049 0.48511 0.0
O61 O 0.457 0.98309 0.46328 0.0
O62 O 0.60849 0.00217 0.48244 0.0
O63 O 0.57473 0.99437 0.51978 0.0
O64 O 0.60286 0.04672 0.44855 0.0
O65 O 0.53244 0.02039 0.45154 0.0
O66 O 0.58703 0.11189 0.47734 0.0
O67 O 0.62411 0.09046 0.49687 0.0
O68 O 0.46299 0.06262 0.47894 0.0
O69 O 0.51266 0.08831 0.4469 0.0
O70 O 0.47726 0.02647 0.5153 0.0
O71 O 0.54738 0.05321 0.5112 0.0
H72 H 0.50961 0.91081 0.50605 0.0
H73 H 0.48694 0.84083 0.50821 0.0
H74 H 0.63366 0.89868 0.51195 0.0
H75 H 0.65572 0.96817 0.50894 0.0
H76 H 0.44287 0.118 0.43707 0.0
H77 H 0.46127 0.18566 0.44716 0.0
H78 H 0.5658 0.21754 0.50464 0.0
H79 H 0.54768 0.15019 0.49401 0.0
Ho80 Ho 0.57124 0.56107 0.85353 0.0
Ho81 Ho 0.50133 0.46708 0.8629 0.0
C82 C 0.45921 0.51265 0.85829 0.0
C83 C 0.61481 0.63635 0.83722 0.0
C84 C 0.60223 0.6628 0.83215 0.0
C85 C 0.56096 0.65284 0.84224 0.0
C86 C 0.54988 0.67871 0.83765 0.0
C87 C 0.5799 0.71505 0.82288 0.0
C88 C 0.62098 0.72455 0.81261 0.0
C89 C 0.63199 0.69864 0.81721 0.0
C90 C 0.55686 0.53892 0.90429 0.0
C91 C 0.61484 0.51664 0.859 0.0
C92 C 0.45988 0.39249 0.87954 0.0
C93 C 0.47075 0.36414 0.87589 0.0
C94 C 0.44633 0.32695 0.88972 0.0
C95 C 0.45688 0.30009 0.88604 0.0
C96 C 0.49224 0.31022 0.86855 0.0
C97 C 0.51672 0.34778 0.85487 0.0
C98 C 0.50604 0.3744 0.85849 0.0
C99 C 0.51371 0.487 0.8119 0.0
O100 O 0.4995 0.54286 0.84709 0.0
O101 O 0.45372 0.4821 0.87048 0.0
O102 O 0.61444 0.62821 0.86189 0.0
O103 O 0.59564 0.60316 0.82132 0.0
O104 O 0.59806 0.56883 0.89521 0.0
O105 O 0.52634 0.52334 0.88635 0.0
O106 O 0.57267 0.48376 0.86705 0.0
O107 O 0.62234 0.54969 0.84937 0.0
O108 O 0.44683 0.3994 0.85814 0.0
O109 O 0.49053 0.42714 0.89376 0.0
O110 O 0.47386 0.45564 0.82148 0.0
O111 O 0.54564 0.50451 0.82937 0.0
H112 H 0.53754 0.62531 0.85389 0.0
H113 H 0.51825 0.67066 0.84611 0.0
H114 H 0.6445 0.75184 0.8008 0.0
H115 H 0.66387 0.70668 0.80916 0.0
H116 H 0.4191 0.31865 0.90332 0.0
H117 H 0.43768 0.27163 0.89705 0.0
H118 H 0.54358 0.35626 0.84094 0.0
H119 H 0.52513 0.40292 0.84752 0.0
O120 O 0.58374 0.06237 0.22652 0.0
Cd121 Cd 0.5871 0.06447 0.17837 0.0
O122 O 0.50857 0.00668 0.22871 0.0
Cd123 Cd 0.49251 0.98646 0.18702 0.0
O124 O 0.43813 0.93007 0.16289 0.0
C125 C 0.39782 0.91999 0.16246 0.0
O126 O 0.3927 0.94561 0.17433 0.0
C127 C 0.5474 0.03675 0.24007 0.0
C128 C 0.66302 0.1462 0.16378 0.0
O129 O 0.62271 0.13554 0.16833 0.0
O130 O 0.66735 0.11804 0.16569 0.0
O131 O 0.58833 0.54225 0.606 0.0
Cd132 Cd 0.59684 0.54715 0.55811 0.0
O133 O 0.51953 0.52672 0.60437 0.0
Cd134 Cd 0.52715 0.54799 0.56447 0.0
O135 O 0.53077 0.59422 0.54231 0.0
C136 C 0.50197 0.5997 0.54925 0.0
O137 O 0.4713 0.57594 0.56745 0.0
C138 C 0.55139 0.53091 0.61744 0.0
C139 C 0.58104 0.47567 0.53643 0.0
O140 O 0.62243 0.50895 0.54353 0.0
O141 O 0.54723 0.47639 0.53922 0.0
O142 O 0.09312 0.53629 0.89479 0.0
Cd143 Cd 0.1424 0.55183 0.856 0.0
O144 O 0.04269 0.54254 0.87888 0.0
Cd145 Cd 0.98196 0.54164 0.88003 0.0
O146 O 0.92315 0.54286 0.876 0.0
C147 C 0.88076 0.51075 0.8805 0.0
O148 O 0.87187 0.47625 0.888 0.0
C149 C 0.05891 0.53618 0.89818 0.0
C150 C 0.20708 0.53745 0.85991 0.0
O151 O 0.21452 0.56903 0.87211 0.0
O152 O 0.16878 0.51199 0.84641 0.0
O153 O 0.06004 0.56429 0.38447 0.0
Cd154 Cd 0.06502 0.57577 0.43238 0.0
O155 O 1.00986 0.4946 0.38275 0.0
Cd156 Cd 0.98977 0.48233 0.4241 0.0
O157 O 0.93176 0.43315 0.44833 0.0
C158 C 0.93117 0.40416 0.45649 0.0
O159 O 0.96767 0.40644 0.45218 0.0
C160 C 0.03687 0.52937 0.37123 0.0
C161 C 0.1484 0.65713 0.44547 0.0
O162 O 0.14705 0.62536 0.44476 0.0
O163 O 0.11022 0.65029 0.44053 0.0
O164 O 0.4918 0.96894 0.73169 0.0
Cd165 Cd 0.49041 0.96163 0.77939 0.0
O166 O 0.54505 0.03838 0.73374 0.0
Cd167 Cd 0.53779 0.04671 0.77577 0.0
O168 O 0.5252 0.08032 0.8036 0.0
C169 C 0.55774 0.11992 0.80731 0.0
O170 O 0.59834 0.13808 0.79601 0.0
C171 C 0.51963 0.00368 0.72023 0.0
C172 C 0.5102 0.90876 0.79096 0.0
O173 O 0.46791 0.89375 0.78676 0.0
O174 O 0.54307 0.94877 0.78996 0.0
O175 O 0.43656 0.32206 0.0545 0.0
Cd176 Cd 0.40138 0.27453 0.09116 0.0
O177 O 0.44674 0.3693 0.08242 0.0
Cd178 Cd 0.46861 0.43182 0.0913 0.0
O179 O 0.46392 0.48159 0.0908 0.0
C180 C 0.45862 0.4955 0.11195 0.0
O181 O 0.45927 0.48154 0.13459 0.0
C182 C 0.45055 0.35895 0.05928 0.0
C183 C 0.47237 0.30286 0.1275 0.0
O184 O 0.45969 0.27422 0.10976 0.0
O185 O 0.4503 0.31713 0.1286 0.0
H186 H 0.2867 0.56092 0.14096 0.0
H187 H 0.45255 0.52875 0.06833 0.0
H188 H 0.30708 0.56719 0.05682 0.0
H189 H 0.42945 0.51953 0.15225 0.0
H190 H 0.41324 0.55818 0.06503 0.0
H191 H 0.35228 0.56164 0.14658 0.0
C192 C 0.30567 0.56349 0.12369 0.0
C193 C 0.29081 0.56326 0.09831 0.0
C194 C 0.41739 0.55033 0.08424 0.0
C195 C 0.36536 0.5631 0.1046 0.0
C196 C 0.43988 0.53353 0.08615 0.0
C197 C 0.44337 0.52076 0.11053 0.0
C198 C 0.3979 0.55409 0.10682 0.0
C199 C 0.42691 0.52831 0.13298 0.0
C200 C 0.34296 0.56357 0.12691 0.0
C201 C 0.3166 0.56626 0.07669 0.0
N202 N 0.40418 0.54382 0.13052 0.0
N203 N 0.35214 0.56541 0.08029 0.0
H204 H 0.63892 0.19183 0.4761 0.0
H205 H 0.91813 0.33692 0.47662 0.0
H206 H 0.71308 0.14974 0.50098 0.0
H207 H 0.84451 0.38284 0.46031 0.0
H208 H 0.84385 0.26976 0.4888 0.0
H209 H 0.71387 0.26321 0.47322 0.0
C210 C 0.67091 0.19761 0.48117 0.0
C211 C 0.66965 0.16456 0.48858 0.0
C212 C 0.84398 0.29466 0.48283 0.0
C213 C 0.75581 0.24638 0.48514 0.0
C214 C 0.88644 0.33308 0.47588 0.0
C215 C 0.88756 0.3655 0.46718 0.0
C216 C 0.80217 0.28839 0.48087 0.0
C217 C 0.84535 0.35871 0.46676 0.0
C218 C 0.71376 0.23846 0.47955 0.0
C219 C 0.7123 0.17413 0.49509 0.0
N220 N 0.80434 0.32078 0.47321 0.0
N221 N 0.75363 0.21404 0.49296 0.0
H222 H 0.49383 0.69264 0.81226 0.0
H223 H 0.59602 0.93099 0.80112 0.0
H224 H 0.64042 0.8017 0.82339 0.0
H225 H 0.44863 0.82247 0.79307 0.0
H226 H 0.6129 0.88404 0.80919 0.0
H227 H 0.47648 0.73953 0.80523 0.0
C228 C 0.52237 0.72643 0.81337 0.0
C229 C 0.56871 0.74315 0.81842 0.0
C230 C 0.57684 0.87046 0.80571 0.0
C231 C 0.54908 0.79713 0.8101 0.0
C232 C 0.56717 0.89729 0.8011 0.0
C233 C 0.52082 0.88068 0.7964 0.0
C234 C 0.53995 0.82662 0.80558 0.0
C235 C 0.48489 0.83671 0.79661 0.0
C236 C 0.51245 0.75321 0.80921 0.0
C237 C 0.60428 0.78726 0.81919 0.0
N238 N 0.49522 0.81123 0.80108 0.0
N239 N 0.59372 0.81264 0.81509 0.0
H240 H 0.73829 0.38309 0.17727 0.0
H241 H 0.5187 0.37375 0.16017 0.0
H242 H 0.74476 0.4905 0.18993 0.0
H243 H 0.52143 0.27504 0.13323 0.0
H244 H 0.5952 0.41073 0.18186 0.0
H245 H 0.65306 0.33757 0.17198 0.0
C246 C 0.72167 0.397 0.17926 0.0
C247 C 0.74869 0.44075 0.1835 0.0
C248 C 0.57868 0.38065 0.17155 0.0
C249 C 0.65126 0.38889 0.17748 0.0
C250 C 0.53496 0.35945 0.15922 0.0
C251 C 0.51409 0.32163 0.14448 0.0
C252 C 0.60152 0.36381 0.16913 0.0
C253 C 0.53661 0.30446 0.14404 0.0
C254 C 0.67304 0.37101 0.1763 0.0
C255 C 0.72529 0.45697 0.18657 0.0
N256 N 0.57937 0.32592 0.15591 0.0
N257 N 0.67791 0.43111 0.18308 0.0
H258 H 0.4376 0.8788 0.48245 0.0
H259 H 0.1638 0.73121 0.44437 0.0
H260 H 0.36941 0.92561 0.45556 0.0
H261 H 0.23466 0.68216 0.45898 0.0
H262 H 0.2381 0.80275 0.45168 0.0
H263 H 0.363 0.80666 0.47695 0.0
C264 C 0.40703 0.87401 0.47546 0.0
C265 C 0.40993 0.90845 0.46948 0.0
C266 C 0.23744 0.77637 0.45333 0.0
C267 C 0.32433 0.8259 0.46317 0.0
C268 C 0.19495 0.73545 0.44923 0.0
C269 C 0.19296 0.70057 0.451 0.0
C270 C 0.2784 0.78263 0.45937 0.0
C271 C 0.23455 0.7081 0.45735 0.0
C272 C 0.36444 0.83276 0.47226 0.0
C273 C 0.36905 0.90015 0.46033 0.0
N274 N 0.27557 0.7483 0.4613 0.0
N275 N 0.32804 0.85982 0.45752 0.0
H276 H 0.5786 0.33144 0.86293 0.0
H277 H 0.47427 0.09482 0.82691 0.0
H278 H 0.43066 0.22352 0.86365 0.0
H279 H 0.62013 0.20481 0.81933 0.0
H280 H 0.45872 0.14021 0.84553 0.0
H281 H 0.59533 0.28438 0.85178 0.0
C282 C 0.54959 0.29782 0.86077 0.0
C283 C 0.50307 0.28151 0.86396 0.0
C284 C 0.49419 0.15435 0.83998 0.0
C285 C 0.52208 0.22724 0.85137 0.0
C286 C 0.50314 0.12843 0.82942 0.0
C287 C 0.54853 0.14605 0.82132 0.0
C288 C 0.53089 0.19821 0.8425 0.0
C289 C 0.58453 0.18982 0.82509 0.0
C290 C 0.5592 0.27092 0.85452 0.0
C291 C 0.46706 0.23753 0.8615 0.0
N292 N 0.57487 0.21437 0.83524 0.0
N293 N 0.47728 0.21197 0.85517 0.0
H294 H 0.48706 0.79813 0.53892 0.0
H295 H 0.56537 0.65907 0.51425 0.0
H296 H 0.59976 0.83376 0.4875 0.0
H297 H 0.44776 0.6211 0.56187 0.0
H298 H 0.57547 0.72096 0.50178 0.0
H299 H 0.46892 0.73088 0.54505 0.0
C300 C 0.50767 0.79166 0.52865 0.0
C301 C 0.54522 0.82189 0.51278 0.0
C302 C 0.54723 0.6989 0.51479 0.0
C303 C 0.52505 0.74497 0.52009 0.0
C304 C 0.5414 0.66351 0.52189 0.0
C305 C 0.5059 0.635 0.53931 0.0
C306 C 0.51746 0.70591 0.52526 0.0
C307 C 0.47581 0.64234 0.54853 0.0
C308 C 0.49746 0.75328 0.53229 0.0
C309 C 0.57107 0.81181 0.5003 0.0
N310 N 0.4825 0.67718 0.54155 0.0
N311 N 0.56068 0.77435 0.50434 0.0
H312 H 0.70782 0.57909 0.84696 0.0
H313 H 0.78711 0.44776 0.8894 0.0
H314 H 0.61281 0.45328 0.87608 0.0
H315 H 0.88461 0.57562 0.86382 0.0
H316 H 0.72294 0.44906 0.88364 0.0
H317 H 0.77261 0.5781 0.85184 0.0
C318 C 0.70044 0.55118 0.8543 0.0
C319 C 0.65455 0.51622 0.86112 0.0
C320 C 0.75833 0.47689 0.87928 0.0
C321 C 0.72896 0.51496 0.8668 0.0
C322 C 0.79515 0.4762 0.88257 0.0
C323 C 0.84159 0.51167 0.87712 0.0
C324 C 0.76766 0.51332 0.8704 0.0
C325 C 0.84949 0.54753 0.86831 0.0
C326 C 0.73758 0.5507 0.85712 0.0
C327 C 0.64743 0.48103 0.87057 0.0
N328 N 0.81298 0.54742 0.86522 0.0
N329 N 0.68411 0.48135 0.87312 0.0
H330 H 0.19841 0.65303 0.1167 0.0
H331 H 0.30724 0.88909 0.15943 0.0
H332 H 0.11823 0.68816 0.1471 0.0
H333 H 0.3928 0.85425 0.14254 0.0
H334 H 0.2373 0.81692 0.14801 0.0
H335 H 0.26948 0.72768 0.11967 0.0
C336 C 0.19564 0.6764 0.12378 0.0
C337 C 0.15234 0.66426 0.13189 0.0
C338 C 0.27136 0.82505 0.14661 0.0
C339 C 0.23329 0.7495 0.13521 0.0
C340 C 0.31142 0.86637 0.15306 0.0
C341 C 0.35601 0.87771 0.15224 0.0
C342 C 0.27569 0.7946 0.13928 0.0
C343 C 0.35911 0.84686 0.14362 0.0
C344 C 0.23622 0.71895 0.12552 0.0
C345 C 0.15086 0.69591 0.1409 0.0
N346 N 0.31943 0.80658 0.13769 0.0
N347 N 0.19067 0.73693 0.14237 0.0
H348 H 0.45165 0.22028 0.48245 0.0
H349 H 0.64526 0.46419 0.52807 0.0
H350 H 0.60014 0.28554 0.48763 0.0
H351 H 0.49709 0.39941 0.52097 0.0
H352 H 0.62975 0.39961 0.51225 0.0
H353 H 0.46794 0.28611 0.49526 0.0
C354 C 0.48776 0.24852 0.48604 0.0
C355 C 0.52457 0.24725 0.48394 0.0
C356 C 0.60063 0.39954 0.51407 0.0
C357 C 0.54344 0.32285 0.49903 0.0
C358 C 0.60947 0.43644 0.5231 0.0
C359 C 0.5724 0.43723 0.52592 0.0
C360 C 0.55436 0.36306 0.50784 0.0
C361 C 0.52675 0.40028 0.51914 0.0
C362 C 0.49701 0.2861 0.49353 0.0
C363 C 0.57057 0.28481 0.48933 0.0
N364 N 0.51903 0.36471 0.51051 0.0
N365 N 0.57866 0.321 0.49665 0.0
H366 H 0.43645 0.54133 0.81971 0.0
H367 H 0.26643 0.55632 0.90067 0.0
H368 H 0.39503 0.4892 0.89678 0.0
H369 H 0.22892 0.50601 0.8204 0.0
H370 H 0.3266 0.54821 0.90057 0.0
H371 H 0.3731 0.54527 0.82013 0.0
C372 C 0.41405 0.53076 0.8367 0.0
C373 C 0.42071 0.51461 0.85816 0.0
C374 C 0.30499 0.53887 0.88306 0.0
C375 C 0.34939 0.52019 0.85903 0.0
C376 C 0.27086 0.54357 0.88306 0.0
C377 C 0.2425 0.53158 0.86055 0.0
C378 C 0.31193 0.52353 0.8601 0.0
C379 C 0.24975 0.51528 0.83823 0.0
C380 C 0.37795 0.5329 0.83687 0.0
C381 C 0.39075 0.50144 0.87973 0.0
N382 N 0.28422 0.51232 0.83841 0.0
N383 N 0.35676 0.50504 0.87979 0.0
H384 H 0.93347 0.37521 0.1161 0.0
H385 H 0.66892 0.21567 0.16623 0.0
H386 H 0.8653 0.41529 0.15785 0.0
H387 H 0.74976 0.17669 0.14666 0.0
H388 H 0.7374 0.2884 0.15743 0.0
H389 H 0.86321 0.30156 0.12155 0.0
C390 C 0.90371 0.3686 0.12626 0.0
C391 C 0.90537 0.40157 0.13653 0.0
C392 C 0.74012 0.26391 0.155 0.0
C393 C 0.82488 0.31743 0.14271 0.0
C394 C 0.70098 0.22234 0.15993 0.0
C395 C 0.70364 0.19003 0.15729 0.0
C396 C 0.78219 0.2733 0.1471 0.0
C397 C 0.74619 0.20063 0.14908 0.0
C398 C 0.86369 0.32656 0.12943 0.0
C399 C 0.86574 0.39103 0.1496 0.0
N400 N 0.78379 0.24135 0.14426 0.0
N401 N 0.82716 0.34995 0.15226 0.0
H402 H 1.00127 0.48179 0.06287 0.0
H403 H 0.0265 0.57389 0.92173 0.0
H404 H 1.00768 0.58836 0.05264 0.0
H405 H 0.05246 0.4884 0.93627 0.0
H406 H 1.00653 0.5715 0.96822 0.0
H407 H 1.00807 0.47649 0.01527 0.0
C408 C 1.00398 0.50403 0.05055 0.0
C409 C 1.00433 0.5358 0.06167 0.0
C410 C 0.01599 0.55284 0.96113 0.0
C411 C 1.01178 0.52975 0.00711 0.0
C412 C 0.02672 0.5537 0.93451 0.0
C413 C 0.04056 0.53086 0.92507 0.0
C414 C 0.019 0.52886 0.97834 0.0
C415 C 0.0419 0.50644 0.94275 0.0
C416 C 1.00785 0.50098 0.02337 0.0
C417 C 1.00756 0.56357 0.0448 0.0
N418 N 0.03136 0.50613 0.96851 0.0
N419 N 1.01127 0.55997 0.01831 0.0
H420 H 0.64006 0.0798 0.40255 0.0
H421 H 0.47479 0.99541 0.27465 0.0
H422 H 0.49051 0.00913 0.4061 0.0
H423 H 0.6261 0.08752 0.27209 0.0
H424 H 0.47983 0.99984 0.32274 0.0
H425 H 0.63589 0.08313 0.35477 0.0
C426 C 0.60637 0.06518 0.39324 0.0
C427 C 0.5655 0.04389 0.40817 0.0
C428 C 0.51193 0.0193 0.31168 0.0
C429 C 0.56036 0.0473 0.35357 0.0
C430 C 0.50912 0.01671 0.28419 0.0
C431 C 0.55013 0.04097 0.26926 0.0
C432 C 0.5561 0.04602 0.32443 0.0
C433 C 0.59358 0.06818 0.28277 0.0
C434 C 0.60401 0.06715 0.36599 0.0
C435 C 0.5228 0.0257 0.39523 0.0
N436 N 0.59543 0.06972 0.30958 0.0
N437 N 0.52126 0.02749 0.36861 0.0
H438 H 0.59717 0.53897 0.78601 0.0
H439 H 0.47227 0.49508 0.64632 0.0
H440 H 0.44695 0.45478 0.77368 0.0
H441 H 0.61785 0.55113 0.65394 0.0
H442 H 0.46401 0.48585 0.69376 0.0
H443 H 0.6073 0.5501 0.73837 0.0
C444 C 0.5664 0.52302 0.77327 0.0
C445 C 0.52117 0.49581 0.78365 0.0
C446 C 0.49775 0.50006 0.68507 0.0
C447 C 0.53237 0.50837 0.72949 0.0
C448 C 0.50252 0.50539 0.65796 0.0
C449 C 0.54581 0.52385 0.64609 0.0
C450 C 0.53663 0.51363 0.70059 0.0
C451 C 0.58376 0.53657 0.66224 0.0
C452 C 0.57217 0.52921 0.74615 0.0
C453 C 0.48243 0.47586 0.76641 0.0
N454 N 0.57835 0.5314 0.6887 0.0
N455 N 0.48891 0.48259 0.74019 0.0
H456 H 0.59198 0.06931 0.55678 0.0
H457 H 0.45178 0.94275 0.6849 0.0
H458 H 0.4407 0.983 0.55954 0.0
H459 H 0.58927 0.06609 0.68927 0.0
H460 H 0.45112 0.94744 0.63692 0.0
H461 H 0.59516 0.05884 0.60371 0.0
C462 C 0.55948 0.04797 0.56726 0.0
C463 C 0.516 0.02724 0.55447 0.0
C464 C 0.48151 0.97328 0.64843 0.0
C465 C 0.51938 0.01473 0.60775 0.0
C466 C 0.48206 0.97056 0.67575 0.0
C467 C 0.52054 0.00421 0.6911 0.0
C468 C 0.52005 0.00955 0.63637 0.0
C469 C 0.55875 0.03957 0.6782 0.0
C470 C 0.56132 0.04211 0.59396 0.0
C471 C 0.4749 0.99983 0.56883 0.0
N472 N 0.55758 0.04131 0.65156 0.0
N473 N 0.47755 0.99426 0.59474 0.0
H474 H 0.61287 0.53134 0.93315 0.0
H475 H 0.42692 0.40668 0.04724 0.0
H476 H 0.47759 0.5001 0.93219 0.0
H477 H 0.51597 0.37847 0.02289 0.0
H478 H 0.45745 0.45575 0.01142 0.0
H479 H 0.58979 0.4896 0.97272 0.0
C480 C 0.57879 0.51643 0.94164 0.0
C481 C 0.54704 0.51913 0.92969 0.0
C482 C 0.47054 0.43903 0.01406 0.0
C483 C 0.52081 0.47205 0.97447 0.0
C484 C 0.45341 0.41132 0.03453 0.0
C485 C 0.46934 0.38893 0.03802 0.0
C486 C 0.50426 0.44473 0.9972 0.0
C487 C 0.50287 0.39524 0.02071 0.0
C488 C 0.56554 0.49241 0.96393 0.0
C489 C 0.50299 0.49872 0.94098 0.0
N490 N 0.51953 0.42284 0.00104 0.0
N491 N 0.49121 0.47617 0.96284 0.0
H492 H 0.06785 0.58582 0.2055 0.0
H493 H 1.00577 0.4622 0.33781 0.0
H494 H 0.03688 0.46611 0.20812 0.0
H495 H 0.07594 0.59522 0.33831 0.0
H496 H 1.01037 0.46129 0.28983 0.0
H497 H 0.06442 0.58815 0.25384 0.0
C498 C 0.06032 0.56007 0.21629 0.0
C499 C 0.05272 0.52576 0.20293 0.0
C500 C 0.0249 0.49072 0.30043 0.0
C501 C 0.04849 0.52805 0.25793 0.0
C502 C 0.02219 0.49126 0.32785 0.0
C503 C 0.04055 0.52887 0.34215 0.0
C504 C 0.04564 0.52794 0.28709 0.0
C505 C 0.0615 0.56556 0.3281 0.0
C506 C 0.05851 0.56146 0.24381 0.0
C507 C 0.0431 0.49319 0.21773 0.0
N508 N 0.06327 0.56414 0.30132 0.0
N509 N 0.04108 0.49505 0.24442 0.0
loop_
_geom_bond_atom_site_label_1
_geom_bond_atom_site_label_2
_geom_bond_distance
_geom_bond_site_symmetry_2
_ccdc_geom_bond_type
Ho0 C3 2.811 . S
Ho0 O20 2.322 . S
Ho0 O22 2.378 . S
Ho0 O23 2.524 . S
Ho0 O24 2.381 . S
Ho0 O25 2.669 . S
Ho0 O27 2.346 1_455 S
Ho0 O31 2.305 . S
Ho1 C12 2.811 . S
Ho1 O21 2.346 1_655 S
Ho1 O25 2.305 1_655 S
Ho1 O26 2.322 . S
Ho1 O28 2.378 . S
Ho1 O29 2.524 . S
Ho1 O30 2.381 1_655 S
Ho1 O31 2.669 1_655 S
C2 O20 1.259 . S
C2 O21 1.268 . S
C3 Ho0 2.811 . S
C3 C4 1.488 . S
C3 O22 1.215 . S
C3 O23 1.289 . S
C4 C3 1.488 . S
C4 C5 1.348 . S
C4 C9 1.413 . S
C5 C4 1.348 . S
C5 C6 1.442 . S
C5 H32 0.930 . S
C6 C5 1.442 . S
C6 C7 1.381 . S
C6 H33 0.931 . S
C7 C6 1.381 . S
C7 C8 1.321 . S
C8 C7 1.321 . S
C8 C9 1.403 . S
C8 H34 0.934 . S
C9 C4 1.413 . S
C9 C8 1.403 . S
C9 H35 0.930 . S
C10 O24 1.275 . S
C10 O25 1.256 . S
C11 O26 1.259 . S
C11 O27 1.268 . S
C12 Ho1 2.811 . S
C12 C13 1.488 . S
C12 O28 1.215 . S
C12 O29 1.289 . S
C13 C12 1.488 . S
C13 C14 1.348 . S
C13 C18 1.413 . S
C14 C13 1.348 . S
C14 C15 1.442 . S
C14 H36 0.930 . S
C15 C14 1.442 . S
C15 C16 1.381 . S
C15 H37 0.931 . S
C16 C15 1.381 . S
C16 C17 1.321 . S
C17 C16 1.321 . S
C17 C18 1.403 . S
C17 H38 0.934 . S
C18 C13 1.413 . S
C18 C17 1.403 . S
C18 H39 0.930 . S
C19 O30 1.275 . S
C19 O31 1.256 . S
O20 Ho0 2.322 . S
O20 C2 1.259 . S
O21 Ho1 2.346 1_455 S
O21 C2 1.268 . S
O22 Ho0 2.378 . S
O22 C3 1.215 . S
O23 Ho0 2.524 . S
O23 C3 1.289 . S
O24 Ho0 2.381 . S
O24 C10 1.275 . S
O25 Ho0 2.669 . S
O25 Ho1 2.305 1_455 S
O25 C10 1.256 . S
O26 Ho1 2.322 . S
O26 C11 1.259 . S
O27 Ho0 2.346 1_655 S
O27 C11 1.268 . S
O28 Ho1 2.378 . S
O28 C12 1.215 . S
O29 Ho1 2.524 . S
O29 C12 1.289 . S
O30 Ho1 2.381 1_455 S
O30 C19 1.275 . S
O31 Ho0 2.305 . S
O31 Ho1 2.669 1_455 S
O31 C19 1.256 . S
H32 C5 0.930 . S
H33 C6 0.931 . S
H34 C8 0.934 . S
H35 C9 0.930 . S
H36 C14 0.930 . S
H37 C15 0.931 . S
H38 C17 0.934 . S
H39 C18 0.930 . S
Ho40 C43 2.811 . S
Ho40 O60 2.322 . S
Ho40 O62 2.378 . S
Ho40 O63 2.524 . S
Ho40 O64 2.381 . S
Ho40 O65 2.669 1_565 S
Ho40 O67 2.346 1_565 S
Ho40 O71 2.305 1_565 S
Ho41 C52 2.811 . S
Ho41 O61 2.346 1_545 S
Ho41 O65 2.305 . S
Ho41 O66 2.322 . S
Ho41 O68 2.378 . S
Ho41 O69 2.524 . S
Ho41 O70 2.381 . S
Ho41 O71 2.669 . S
C42 O60 1.259 . S
C42 O61 1.268 . S
C43 Ho40 2.811 . S
C43 C44 1.488 . S
C43 O62 1.215 . S
C43 O63 1.289 . S
C44 C43 1.488 . S
C44 C45 1.348 . S
C44 C49 1.413 . S
C45 C44 1.348 . S
C45 C46 1.442 . S
C45 H72 0.930 . S
C46 C45 1.442 . S
C46 C47 1.381 . S
C46 H73 0.931 . S
C47 C46 1.381 . S
C47 C48 1.321 . S
C48 C47 1.321 . S
C48 C49 1.403 . S
C48 H74 0.934 . S
C49 C44 1.413 . S
C49 C48 1.403 . S
C49 H75 0.930 . S
C50 O64 1.275 1_545 S
C50 O65 1.256 . S
C51 O66 1.259 . S
C51 O67 1.268 . S
C52 Ho41 2.811 . S
C52 C53 1.488 . S
C52 O68 1.215 . S
C52 O69 1.289 . S
C53 C52 1.488 . S
C53 C54 1.348 . S
C53 C58 1.413 . S
C54 C53 1.348 . S
C54 C55 1.442 . S
C54 H76 0.930 . S
C55 C54 1.442 . S
C55 C56 1.381 . S
C55 H77 0.931 . S
C56 C55 1.381 . S
C56 C57 1.321 . S
C57 C56 1.321 . S
C57 C58 1.403 . S
C57 H78 0.934 . S
C58 C53 1.413 . S
C58 C57 1.403 . S
C58 H79 0.930 . S
C59 O70 1.275 . S
C59 O71 1.256 . S
O60 Ho40 2.322 . S
O60 C42 1.259 . S
O61 Ho41 2.346 1_565 S
O61 C42 1.268 . S
O62 Ho40 2.378 . S
O62 C43 1.215 . S
O63 Ho40 2.524 . S
O63 C43 1.289 . S
O64 Ho40 2.381 . S
O64 C50 1.275 1_565 S
O65 Ho40 2.669 1_545 S
O65 Ho41 2.305 . S
O65 C50 1.256 . S
O66 Ho41 2.322 . S
O66 C51 1.259 . S
O67 Ho40 2.346 1_545 S
O67 C51 1.268 . S
O68 Ho41 2.378 . S
O68 C52 1.215 . S
O69 Ho41 2.524 . S
O69 C52 1.289 . S
O70 Ho41 2.381 . S
O70 C59 1.275 . S
O71 Ho40 2.305 1_545 S
O71 Ho41 2.669 . S
O71 C59 1.256 . S
H72 C45 0.930 . S
H73 C46 0.931 . S
H74 C48 0.934 . S
H75 C49 0.930 . S
H76 C54 0.930 . S
H77 C55 0.931 . S
H78 C57 0.934 . S
H79 C58 0.930 . S
Ho80 C83 2.811 . S
Ho80 O100 2.322 . S
Ho80 O102 2.378 . S
Ho80 O103 2.524 . S
Ho80 O104 2.381 . S
Ho80 O105 2.669 . S
Ho80 O107 2.346 . S
Ho80 O111 2.305 . S
Ho81 C92 2.811 . S
Ho81 O101 2.346 . S
Ho81 O105 2.305 . S
Ho81 O106 2.322 . S
Ho81 O108 2.378 . S
Ho81 O109 2.524 . S
Ho81 O110 2.381 . S
Ho81 O111 2.669 . S
C82 O100 1.259 . S
C82 O101 1.268 . S
C83 Ho80 2.811 . S
C83 C84 1.488 . S
C83 O102 1.215 . S
C83 O103 1.289 . S
C84 C83 1.488 . S
C84 C85 1.348 . S
C84 C89 1.413 . S
C85 C84 1.348 . S
C85 C86 1.442 . S
C85 H112 0.930 . S
C86 C85 1.442 . S
C86 C87 1.381 . S
C86 H113 0.931 . S
C87 C86 1.381 . S
C87 C88 1.321 . S
C88 C87 1.321 . S
C88 C89 1.403 . S
C88 H114 0.934 . S
C89 C84 1.413 . S
C89 C88 1.403 . S
C89 H115 0.930 . S
C90 O104 1.275 . S
C90 O105 1.256 . S
C91 O106 1.259 . S
C91 O107 1.268 . S
C92 Ho81 2.811 . S
C92 C93 1.488 . S
C92 O108 1.215 . S
C92 O109 1.289 . S
C93 C92 1.488 . S
C93 C94 1.348 . S
C93 C98 1.413 . S
C94 C93 1.348 . S
C94 C95 1.442 . S
C94 H116 0.930 . S
C95 C94 1.442 . S
C95 C96 1.381 . S
C95 H117 0.931 . S
C96 C95 1.381 . S
C96 C97 1.321 . S
C97 C96 1.321 . S
C97 C98 1.403 . S
C97 H118 0.934 . S
C98 C93 1.413 . S
C98 C97 1.403 . S
C98 H119 0.930 . S
C99 O110 1.275 . S
C99 O111 1.256 . S
O100 Ho80 2.322 . S
O100 C82 1.259 . S
O101 Ho81 2.346 . S
O101 C82 1.268 . S
O102 Ho80 2.378 . S
O102 C83 1.215 . S
O103 Ho80 2.524 . S
O103 C83 1.289 . S
O104 Ho80 2.381 . S
O104 C90 1.275 . S
O105 Ho80 2.669 . S
O105 Ho81 2.305 . S
O105 C90 1.256 . S
O106 Ho81 2.322 . S
O106 C91 1.259 . S
O107 Ho80 2.346 . S
O107 C91 1.268 . S
O108 Ho81 2.378 . S
O108 C92 1.215 . S
O109 Ho81 2.524 . S
O109 C92 1.289 . S
O110 Ho81 2.381 . S
O110 C99 1.275 . S
O111 Ho80 2.305 . S
O111 Ho81 2.669 . S
O111 C99 1.256 . S
H112 C85 0.930 . S
H113 C86 0.931 . S
H114 C88 0.934 . S
H115 C89 0.930 . S
H116 C94 0.930 . S
H117 C95 0.931 . S
H118 C97 0.934 . S
H119 C98 0.930 . S
O120 Cd121 2.300 . S
O120 C127 1.275 . S
Cd121 O120 2.300 . S
Cd121 O129 2.381 . S
Cd121 O130 2.378 . S
O122 Cd123 2.385 . S
O122 C127 1.255 1_565 S
Cd123 O122 2.385 . S
Cd123 O124 2.317 . S
O124 Cd123 2.317 . S
O124 C125 1.232 . S
C125 O124 1.232 . S
C125 O126 1.218 . S
O126 C125 1.218 . S
C127 O120 1.275 . S
C127 O122 1.255 1_545 S
C128 O129 1.258 . S
C128 O130 1.256 . S
O129 Cd121 2.381 . S
O129 C128 1.258 . S
O130 Cd121 2.378 . S
O130 C128 1.256 . S
O131 Cd132 2.300 . S
O131 C138 1.275 . S
Cd132 O131 2.300 . S
Cd132 O140 2.381 . S
Cd132 O141 2.378 . S
O133 Cd134 2.385 . S
O133 C138 1.255 . S
Cd134 O133 2.385 . S
Cd134 O135 2.317 . S
O135 Cd134 2.317 . S
O135 C136 1.232 . S
C136 O135 1.232 . S
C136 O137 1.218 . S
O137 C136 1.218 . S
C138 O131 1.275 . S
C138 O133 1.255 . S
C139 O140 1.258 . S
C139 O141 1.256 . S
O140 Cd132 2.381 . S
O140 C139 1.258 . S
O141 Cd132 2.378 . S
O141 C139 1.256 . S
O142 Cd143 2.300 . S
O142 C149 1.275 . S
Cd143 O142 2.300 . S
Cd143 O151 2.381 . S
Cd143 O152 2.378 . S
O144 Cd145 2.369 1_455 S
O144 C149 1.268 . S
Cd145 O144 2.369 1_655 S
Cd145 O146 2.317 . S
O146 Cd145 2.317 . S
O146 C147 1.232 . S
C147 O146 1.232 . S
C147 O148 1.218 . S
O148 C147 1.218 . S
C149 O142 1.275 . S
C149 O144 1.268 . S
C150 O151 1.258 . S
C150 O152 1.256 . S
O151 Cd143 2.381 . S
O151 C150 1.258 . S
O152 Cd143 2.378 . S
O152 C150 1.256 . S
O153 Cd154 2.300 . S
O153 C160 1.275 1_455 S
Cd154 O153 2.300 . S
Cd154 O162 2.381 . S
Cd154 O163 2.378 . S
O155 Cd156 2.385 . S
O155 C160 1.255 . S
Cd156 O155 2.385 . S
Cd156 O157 2.317 . S
O157 Cd156 2.317 . S
O157 C158 1.232 . S
C158 O157 1.232 . S
C158 O159 1.218 . S
O159 C158 1.218 . S
C160 O153 1.275 1_655 S
C160 O155 1.255 . S
C161 O162 1.258 . S
C161 O163 1.256 . S
O162 Cd154 2.381 . S
O162 C161 1.258 . S
O163 Cd154 2.378 . S
O163 C161 1.256 . S
O164 Cd165 2.300 . S
O164 C171 1.275 1_565 S
Cd165 O164 2.300 . S
Cd165 O173 2.381 . S
Cd165 O174 2.378 . S
O166 Cd167 2.385 . S
O166 C171 1.255 . S
Cd167 O166 2.385 . S
Cd167 O168 2.317 . S
O168 Cd167 2.317 . S
O168 C169 1.232 . S
C169 O168 1.232 . S
C169 O170 1.218 . S
O170 C169 1.218 . S
C171 O164 1.275 1_545 S
C171 O166 1.255 . S
C172 O173 1.258 . S
C172 O174 1.256 . S
O173 Cd165 2.381 . S
O173 C172 1.258 . S
O174 Cd165 2.378 . S
O174 C172 1.256 . S
O175 Cd176 2.300 . S
O175 C182 1.275 . S
Cd176 O175 2.300 . S
Cd176 O184 2.381 . S
Cd176 O185 2.378 . S
O177 Cd178 2.385 . S
O177 C182 1.255 . S
Cd178 O177 2.385 . S
Cd178 O179 2.317 . S
O179 Cd178 2.317 . S
O179 C180 1.232 . S
C180 O179 1.232 . S
C180 O181 1.218 . S
O181 C180 1.218 . S
C182 O175 1.275 . S
C182 O177 1.255 . S
C183 O184 1.258 . S
C183 O185 1.256 . S
O184 Cd176 2.381 . S
O184 C183 1.258 . S
O185 Cd176 2.378 . S
O185 C183 1.256 . S
H186 C192 0.930 . S
H187 C196 0.930 . S
H188 C201 0.929 . S
H189 C199 0.929 . S
H190 C194 0.929 . S
H191 C200 0.929 . S
C192 H186 0.930 . S
C192 C193 1.367 . S
C192 C200 1.378 . S
C193 C192 1.367 . S
C193 C201 1.433 . S
C194 H190 0.929 . S
C194 C196 1.378 . S
C194 C198 1.350 . S
C195 C198 1.463 . S
C195 C200 1.350 . S
C195 N203 1.427 . S
C196 H187 0.930 . S
C196 C194 1.378 . S
C196 C197 1.367 . S
C197 C196 1.367 . S
C197 C199 1.433 . S
C198 C194 1.350 . S
C198 C195 1.463 . S
C198 N202 1.427 . S
C199 H189 0.929 . S
C199 C197 1.433 . S
C199 N202 1.384 . S
C200 H191 0.929 . S
C200 C192 1.378 . S
C200 C195 1.350 . S
C201 H188 0.929 . S
C201 C193 1.433 . S
C201 N203 1.384 . S
N202 C198 1.427 . S
N202 C199 1.384 . S
N203 C195 1.427 . S
N203 C201 1.384 . S
H204 C210 0.930 . S
H205 C214 0.930 . S
H206 C219 0.929 . S
H207 C217 0.929 . S
H208 C212 0.929 . S
H209 C218 0.929 . S
C210 H204 0.930 . S
C210 C211 1.367 . S
C210 C218 1.378 . S
C211 C210 1.367 . S
C211 C219 1.433 . S
C212 H208 0.929 . S
C212 C214 1.378 . S
C212 C216 1.350 . S
C213 C216 1.463 . S
C213 C218 1.350 . S
C213 N221 1.427 . S
C214 H205 0.930 . S
C214 C212 1.378 . S
C214 C215 1.367 . S
C215 C214 1.367 . S
C215 C217 1.433 . S
C216 C212 1.350 . S
C216 C213 1.463 . S
C216 N220 1.427 . S
C217 H207 0.929 . S
C217 C215 1.433 . S
C217 N220 1.384 . S
C218 H209 0.929 . S
C218 C210 1.378 . S
C218 C213 1.350 . S
C219 H206 0.929 . S
C219 C211 1.433 . S
C219 N221 1.384 . S
N220 C216 1.427 . S
N220 C217 1.384 . S
N221 C213 1.427 . S
N221 C219 1.384 . S
H222 C228 0.930 . S
H223 C232 0.930 . S
H224 C237 0.929 . S
H225 C235 0.929 . S
H226 C230 0.929 . S
H227 C236 0.929 . S
C228 H222 0.930 . S
C228 C229 1.367 . S
C228 C236 1.378 . S
C229 C228 1.367 . S
C229 C237 1.433 . S
C230 H226 0.929 . S
C230 C232 1.378 . S
C230 C234 1.350 . S
C231 C234 1.463 . S
C231 C236 1.350 . S
C231 N239 1.427 . S
C232 H223 0.930 . S
C232 C230 1.378 . S
C232 C233 1.367 . S
C233 C232 1.367 . S
C233 C235 1.433 . S
C234 C230 1.350 . S
C234 C231 1.463 . S
C234 N238 1.427 . S
C235 H225 0.929 . S
C235 C233 1.433 . S
C235 N238 1.384 . S
C236 H227 0.929 . S
C236 C228 1.378 . S
C236 C231 1.350 . S
C237 H224 0.929 . S
C237 C229 1.433 . S
C237 N239 1.384 . S
N238 C234 1.427 . S
N238 C235 1.384 . S
N239 C231 1.427 . S
N239 C237 1.384 . S
H240 C246 0.930 . S
H241 C250 0.930 . S
H242 C255 0.929 . S
H243 C253 0.929 . S
H244 C248 0.929 . S
H245 C254 0.929 . S
C246 H240 0.930 . S
C246 C247 1.367 . S
C246 C254 1.378 . S
C247 C246 1.367 . S
C247 C255 1.433 . S
C248 H244 0.929 . S
C248 C250 1.378 . S
C248 C252 1.350 . S
C249 C252 1.463 . S
C249 C254 1.350 . S
C249 N257 1.427 . S
C250 H241 0.930 . S
C250 C248 1.378 . S
C250 C251 1.367 . S
C251 C250 1.367 . S
C251 C253 1.433 . S
C252 C248 1.350 . S
C252 C249 1.463 . S
C252 N256 1.427 . S
C253 H243 0.929 . S
C253 C251 1.433 . S
C253 N256 1.384 . S
C254 H245 0.929 . S
C254 C246 1.378 . S
C254 C249 1.350 . S
C255 H242 0.929 . S
C255 C247 1.433 . S
C255 N257 1.384 . S
N256 C252 1.427 . S
N256 C253 1.384 . S
N257 C249 1.427 . S
N257 C255 1.384 . S
H258 C264 0.930 . S
H259 C268 0.930 . S
H260 C273 0.929 . S
H261 C271 0.929 . S
H262 C266 0.929 . S
H263 C272 0.929 . S
C264 H258 0.930 . S
C264 C265 1.367 . S
C264 C272 1.378 . S
C265 C264 1.367 . S
C265 C273 1.433 . S
C266 H262 0.929 . S
C266 C268 1.378 . S
C266 C270 1.350 . S
C267 C270 1.463 . S
C267 C272 1.350 . S
C267 N275 1.427 . S
C268 H259 0.930 . S
C268 C266 1.378 . S
C268 C269 1.367 . S
C269 C268 1.367 . S
C269 C271 1.433 . S
C270 C266 1.350 . S
C270 C267 1.463 . S
C270 N274 1.427 . S
C271 H261 0.929 . S
C271 C269 1.433 . S
C271 N274 1.384 . S
C272 H263 0.929 . S
C272 C264 1.378 . S
C272 C267 1.350 . S
C273 H260 0.929 . S
C273 C265 1.433 . S
C273 N275 1.384 . S
N274 C270 1.427 . S
N274 C271 1.384 . S
N275 C267 1.427 . S
N275 C273 1.384 . S
H276 C282 0.930 . S
H277 C286 0.930 . S
H278 C291 0.929 . S
H279 C289 0.929 . S
H280 C284 0.929 . S
H281 C290 0.929 . S
C282 H276 0.930 . S
C282 C283 1.367 . S
C282 C290 1.378 . S
C283 C282 1.367 . S
C283 C291 1.433 . S
C284 H280 0.929 . S
C284 C286 1.378 . S
C284 C288 1.350 . S
C285 C288 1.463 . S
C285 C290 1.350 . S
C285 N293 1.427 . S
C286 H277 0.930 . S
C286 C284 1.378 . S
C286 C287 1.367 . S
C287 C286 1.367 . S
C287 C289 1.433 . S
C288 C284 1.350 . S
C288 C285 1.463 . S
C288 N292 1.427 . S
C289 H279 0.929 . S
C289 C287 1.433 . S
C289 N292 1.384 . S
C290 H281 0.929 . S
C290 C282 1.378 . S
C290 C285 1.350 . S
C291 H278 0.929 . S
C291 C283 1.433 . S
C291 N293 1.384 . S
N292 C288 1.427 . S
N292 C289 1.384 . S
N293 C285 1.427 . S
N293 C291 1.384 . S
H294 C300 0.930 . S
H295 C304 0.930 . S
H296 C309 0.929 . S
H297 C307 0.929 . S
H298 C302 0.929 . S
H299 C308 0.929 . S
C300 H294 0.930 . S
C300 C301 1.367 . S
C300 C308 1.378 . S
C301 C300 1.367 . S
C301 C309 1.433 . S
C302 H298 0.929 . S
C302 C304 1.378 . S
C302 C306 1.350 . S
C303 C306 1.463 . S
C303 C308 1.350 . S
C303 N311 1.427 . S
C304 H295 0.930 . S
C304 C302 1.378 . S
C304 C305 1.367 . S
C305 C304 1.367 . S
C305 C307 1.433 . S
C306 C302 1.350 . S
C306 C303 1.463 . S
C306 N310 1.427 . S
C307 H297 0.929 . S
C307 C305 1.433 . S
C307 N310 1.384 . S
C308 H299 0.929 . S
C308 C300 1.378 . S
C308 C303 1.350 . S
C309 H296 0.929 . S
C309 C301 1.433 . S
C309 N311 1.384 . S
N310 C306 1.427 . S
N310 C307 1.384 . S
N311 C303 1.427 . S
N311 C309 1.384 . S
H312 C318 0.930 . S
H313 C322 0.930 . S
H314 C327 0.929 . S
H315 C325 0.929 . S
H316 C320 0.929 . S
H317 C326 0.929 . S
C318 H312 0.930 . S
C318 C319 1.367 . S
C318 C326 1.378 . S
C319 C318 1.367 . S
C319 C327 1.433 . S
C320 H316 0.929 . S
C320 C322 1.378 . S
C320 C324 1.350 . S
C321 C324 1.463 . S
C321 C326 1.350 . S
C321 N329 1.427 . S
C322 H313 0.930 . S
C322 C320 1.378 . S
C322 C323 1.367 . S
C323 C322 1.367 . S
C323 C325 1.433 . S
C324 C320 1.350 . S
C324 C321 1.463 . S
C324 N328 1.427 . S
C325 H315 0.929 . S
C325 C323 1.433 . S
C325 N328 1.384 . S
C326 H317 0.929 . S
C326 C318 1.378 . S
C326 C321 1.350 . S
C327 H314 0.929 . S
C327 C319 1.433 . S
C327 N329 1.384 . S
N328 C324 1.427 . S
N328 C325 1.384 . S
N329 C321 1.427 . S
N329 C327 1.384 . S
H330 C336 0.930 . S
H331 C340 0.930 . S
H332 C345 0.929 . S
H333 C343 0.929 . S
H334 C338 0.929 . S
H335 C344 0.929 . S
C336 H330 0.930 . S
C336 C337 1.367 . S
C336 C344 1.378 . S
C337 C336 1.367 . S
C337 C345 1.433 . S
C338 H334 0.929 . S
C338 C340 1.378 . S
C338 C342 1.350 . S
C339 C342 1.463 . S
C339 C344 1.350 . S
C339 N347 1.427 . S
C340 H331 0.930 . S
C340 C338 1.378 . S
C340 C341 1.367 . S
C341 C340 1.367 . S
C341 C343 1.433 . S
C342 C338 1.350 . S
C342 C339 1.463 . S
C342 N346 1.427 . S
C343 H333 0.929 . S
C343 C341 1.433 . S
C343 N346 1.384 . S
C344 H335 0.929 . S
C344 C336 1.378 . S
C344 C339 1.350 . S
C345 H332 0.929 . S
C345 C337 1.433 . S
C345 N347 1.384 . S
N346 C342 1.427 . S
N346 C343 1.384 . S
N347 C339 1.427 . S
N347 C345 1.384 . S
H348 C354 0.930 . S
H349 C358 0.930 . S
H350 C363 0.929 . S
H351 C361 0.929 . S
H352 C356 0.929 . S
H353 C362 0.929 . S
C354 H348 0.930 . S
C354 C355 1.367 . S
C354 C362 1.378 . S
C355 C354 1.367 . S
C355 C363 1.433 . S
C356 H352 0.929 . S
C356 C358 1.378 . S
C356 C360 1.350 . S
C357 C360 1.463 . S
C357 C362 1.350 . S
C357 N365 1.427 . S
C358 H349 0.930 . S
C358 C356 1.378 . S
C358 C359 1.367 . S
C359 C358 1.367 . S
C359 C361 1.433 . S
C360 C356 1.350 . S
C360 C357 1.463 . S
C360 N364 1.427 . S
C361 H351 0.929 . S
C361 C359 1.433 . S
C361 N364 1.384 . S
C362 H353 0.929 . S
C362 C354 1.378 . S
C362 C357 1.350 . S
C363 H350 0.929 . S
C363 C355 1.433 . S
C363 N365 1.384 . S
N364 C360 1.427 . S
N364 C361 1.384 . S
N365 C357 1.427 . S
N365 C363 1.384 . S
H366 C372 0.930 . S
H367 C376 0.930 . S
H368 C381 0.929 . S
H369 C379 0.929 . S
H370 C374 0.929 . S
H371 C380 0.929 . S
C372 H366 0.930 . S
C372 C373 1.367 . S
C372 C380 1.378 . S
C373 C372 1.367 . S
C373 C381 1.433 . S
C374 H370 0.929 . S
C374 C376 1.378 . S
C374 C378 1.350 . S
C375 C378 1.463 . S
C375 C380 1.350 . S
C375 N383 1.427 . S
C376 H367 0.930 . S
C376 C374 1.378 . S
C376 C377 1.367 . S
C377 C376 1.367 . S
C377 C379 1.433 . S
C378 C374 1.350 . S
C378 C375 1.463 . S
C378 N382 1.427 . S
C379 H369 0.929 . S
C379 C377 1.433 . S
C379 N382 1.384 . S
C380 H371 0.929 . S
C380 C372 1.378 . S
C380 C375 1.350 . S
C381 H368 0.929 . S
C381 C373 1.433 . S
C381 N383 1.384 . S
N382 C378 1.427 . S
N382 C379 1.384 . S
N383 C375 1.427 . S
N383 C381 1.384 . S
H384 C390 0.930 . S
H385 C394 0.930 . S
H386 C399 0.929 . S
H387 C397 0.929 . S
H388 C392 0.929 . S
H389 C398 0.929 . S
C390 H384 0.930 . S
C390 C391 1.367 . S
C390 C398 1.378 . S
C391 C390 1.367 . S
C391 C399 1.433 . S
C392 H388 0.929 . S
C392 C394 1.378 . S
C392 C396 1.350 . S
C393 C396 1.463 . S
C393 C398 1.350 . S
C393 N401 1.427 . S
C394 H385 0.930 . S
C394 C392 1.378 . S
C394 C395 1.367 . S
C395 C394 1.367 . S
C395 C397 1.433 . S
C396 C392 1.350 . S
C396 C393 1.463 . S
C396 N400 1.427 . S
C397 H387 0.929 . S
C397 C395 1.433 . S
C397 N400 1.384 . S
C398 H389 0.929 . S
C398 C390 1.378 . S
C398 C393 1.350 . S
C399 H386 0.929 . S
C399 C391 1.433 . S
C399 N401 1.384 . S
N400 C396 1.427 . S
N400 C397 1.384 . S
N401 C393 1.427 . S
N401 C399 1.384 . S
H402 C408 0.930 . S
H403 C412 0.930 . S
H404 C417 0.929 . S
H405 C415 0.929 . S
H406 C410 0.929 1_554 S
H407 C416 0.929 . S
C408 H402 0.930 . S
C408 C409 1.367 1_655 S
C408 C416 1.378 . S
C409 C408 1.367 1_455 S
C409 C417 1.433 . S
C410 H406 0.929 1_556 S
C410 C412 1.378 . S
C410 C414 1.350 1_556 S
C411 C414 1.463 . S
C411 C416 1.350 1_455 S
C411 N419 1.427 . S
C412 H403 0.930 . S
C412 C410 1.378 . S
C412 C413 1.367 . S
C413 C412 1.367 . S
C413 C415 1.433 1_455 S
C414 C410 1.350 1_554 S
C414 C411 1.463 . S
C414 N418 1.427 1_454 S
C415 H405 0.929 . S
C415 C413 1.433 1_655 S
C415 N418 1.384 . S
C416 H407 0.929 . S
C416 C408 1.378 . S
C416 C411 1.350 1_655 S
C417 H404 0.929 . S
C417 C409 1.433 . S
C417 N419 1.384 . S
N418 C414 1.427 1_656 S
N418 C415 1.384 . S
N419 C411 1.427 . S
N419 C417 1.384 . S
H420 C426 0.930 . S
H421 C430 0.930 . S
H422 C435 0.929 . S
H423 C433 0.929 . S
H424 C428 0.929 . S
H425 C434 0.929 . S
C426 H420 0.930 . S
C426 C427 1.367 . S
C426 C434 1.378 . S
C427 C426 1.367 . S
C427 C435 1.433 1_545 S
C428 H424 0.929 . S
C428 C430 1.378 . S
C428 C432 1.350 1_565 S
C429 C432 1.463 . S
C429 C434 1.350 . S
C429 N437 1.427 1_545 S
C430 H421 0.930 . S
C430 C428 1.378 . S
C430 C431 1.367 1_565 S
C431 C430 1.367 1_545 S
C431 C433 1.433 . S
C432 C428 1.350 1_545 S
C432 C429 1.463 . S
C432 N436 1.427 . S
C433 H423 0.929 . S
C433 C431 1.433 . S
C433 N436 1.384 . S
C434 H425 0.929 . S
C434 C426 1.378 . S
C434 C429 1.350 . S
C435 H422 0.929 . S
C435 C427 1.433 1_565 S
C435 N437 1.384 . S
N436 C432 1.427 . S
N436 C433 1.384 . S
N437 C429 1.427 1_565 S
N437 C435 1.384 . S
H438 C444 0.930 . S
H439 C448 0.930 . S
H440 C453 0.929 . S
H441 C451 0.929 . S
H442 C446 0.929 . S
H443 C452 0.929 . S
C444 H438 0.930 . S
C444 C445 1.367 . S
C444 C452 1.378 . S
C445 C444 1.367 . S
C445 C453 1.433 . S
C446 H442 0.929 . S
C446 C448 1.378 . S
C446 C450 1.350 . S
C447 C450 1.463 . S
C447 C452 1.350 . S
C447 N455 1.427 . S
C448 H439 0.930 . S
C448 C446 1.378 . S
C448 C449 1.367 . S
C449 C448 1.367 . S
C449 C451 1.433 . S
C450 C446 1.350 . S
C450 C447 1.463 . S
C450 N454 1.427 . S
C451 H441 0.929 . S
C451 C449 1.433 . S
C451 N454 1.384 . S
C452 H443 0.929 . S
C452 C444 1.378 . S
C452 C447 1.350 . S
C453 H440 0.929 . S
C453 C445 1.433 . S
C453 N455 1.384 . S
N454 C450 1.427 . S
N454 C451 1.384 . S
N455 C447 1.427 . S
N455 C453 1.384 . S
H456 C462 0.930 . S
H457 C466 0.930 . S
H458 C471 0.929 . S
H459 C469 0.929 . S
H460 C464 0.929 . S
H461 C470 0.929 . S
C462 H456 0.930 . S
C462 C463 1.367 . S
C462 C470 1.378 . S
C463 C462 1.367 . S
C463 C471 1.433 1_545 S
C464 H460 0.929 . S
C464 C466 1.378 . S
C464 C468 1.350 1_565 S
C465 C468 1.463 . S
C465 C470 1.350 . S
C465 N473 1.427 1_545 S
C466 H457 0.930 . S
C466 C464 1.378 . S
C466 C467 1.367 1_565 S
C467 C466 1.367 1_545 S
C467 C469 1.433 . S
C468 C464 1.350 1_545 S
C468 C465 1.463 . S
C468 N472 1.427 . S
C469 H459 0.929 . S
C469 C467 1.433 . S
C469 N472 1.384 . S
C470 H461 0.929 . S
C470 C462 1.378 . S
C470 C465 1.350 . S
C471 H458 0.929 . S
C471 C463 1.433 1_565 S
C471 N473 1.384 . S
N472 C468 1.427 . S
N472 C469 1.384 . S
N473 C465 1.427 1_565 S
N473 C471 1.384 . S
H474 C480 0.930 . S
H475 C484 0.930 . S
H476 C489 0.929 . S
H477 C487 0.929 . S
H478 C482 0.929 1_556 S
H479 C488 0.929 . S
C480 H474 0.930 . S
C480 C481 1.367 . S
C480 C488 1.378 . S
C481 C480 1.367 . S
C481 C489 1.433 . S
C482 H478 0.929 1_554 S
C482 C484 1.378 . S
C482 C486 1.350 1_554 S
C483 C486 1.463 . S
C483 C488 1.350 . S
C483 N491 1.427 . S
C484 H475 0.930 . S
C484 C482 1.378 . S
C484 C485 1.367 . S
C485 C484 1.367 . S
C485 C487 1.433 . S
C486 C482 1.350 1_556 S
C486 C483 1.463 . S
C486 N490 1.427 . S
C487 H477 0.929 . S
C487 C485 1.433 . S
C487 N490 1.384 1_554 S
C488 H479 0.929 . S
C488 C480 1.378 . S
C488 C483 1.350 . S
C489 H476 0.929 . S
C489 C481 1.433 . S
C489 N491 1.384 . S
N490 C486 1.427 . S
N490 C487 1.384 1_556 S
N491 C483 1.427 . S
N491 C489 1.384 . S
H492 C498 0.930 . S
H493 C502 0.930 . S
H494 C507 0.929 . S
H495 C505 0.929 . S
H496 C500 0.929 . S
H497 C506 0.929 . S
C498 H492 0.930 . S
C498 C499 1.367 . S
C498 C506 1.378 . S
C499 C498 1.367 . S
C499 C507 1.433 1_455 S
C500 H496 0.929 . S
C500 C502 1.378 . S
C500 C504 1.353 1_655 S
C501 C504 1.464 . S
C501 C506 1.350 . S
C501 N509 1.427 1_455 S
C502 H493 0.930 . S
C502 C500 1.378 . S
C502 C503 1.367 . S
C503 C502 1.367 . S
C503 C505 1.433 1_655 S
C504 C500 1.353 1_455 S
C504 C501 1.464 . S
C504 N508 1.423 . S
C505 H495 0.929 . S
C505 C503 1.433 1_455 S
C505 N508 1.384 . S
C506 H497 0.929 . S
C506 C498 1.378 . S
C506 C501 1.350 . S
C507 H494 0.929 . S
C507 C499 1.433 1_655 S
C507 N509 1.384 . S
N508 C504 1.423 . S
N508 C505 1.384 . S
N509 C501 1.427 1_655 S
N509 C507 1.384 . S
C193 C7 0.657 . S
C197 C180 0.721 . S
C211 C51 2.047 . S
C215 C158 1.770 . S
C229 C87 1.065 . S
C233 C172 1.055 . S
C247 C16 0.370 . S
C251 C183 0.189 . S
C269 C161 1.818 . S
C265 C42 1.868 . S
C287 C169 1.224 . S
C283 C96 1.398 . S
C301 C47 1.350 . S
C305 C136 1.158 . S
C319 C91 3.275 . S
C323 C147 2.918 . S
C337 C2 2.128 . S
C341 C125 1.801 . S
C359 C139 1.083 . S
C355 C56 1.098 . S
C377 C150 2.830 . S
C373 C82 2.898 . S
C391 C11 1.789 . S
C395 C128 1.751 . S
C413 C149 1.654 . S
C409 C19 1.667 . S
C427 C50 1.420 . S
C431 C127 1.396 . S
C445 C99 1.520 . S
C449 C138 1.470 . S
C467 C171 1.439 . S
C463 C59 1.459 . S
C485 C182 1.191 . S
C481 C90 1.245 . S
C499 C10 1.432 . S
C503 C160 1.401 . S
