# Generated by pormake.
# Topology ctn, (3,4)-cn, num edge types: 1
# Building blocks:
#     Node 0, Type 0, BuildingBlock: WUSLED_clean_sbu_0, # of connection points: 3
#     Node 1, Type 0, BuildingBlock: WUSLED_clean_sbu_0, # of connection points: 3
#     Node 2, Type 0, BuildingBlock: WUSLED_clean_sbu_0, # of connection points: 3
#     Node 3, Type 0, BuildingBlock: WUSLED_clean_sbu_0, # of connection points: 3
#     Node 4, Type 0, BuildingBlock: WUSLED_clean_sbu_0, # of connection points: 3
#     Node 5, Type 0, BuildingBlock: WUSLED_clean_sbu_0, # of connection points: 3
#     Node 6, Type 0, BuildingBlock: WUSLED_clean_sbu_0, # of connection points: 3
#     Node 7, Type 0, BuildingBlock: WUSLED_clean_sbu_0, # of connection points: 3
#     Node 8, Type 0, BuildingBlock: WUSLED_clean_sbu_0, # of connection points: 3
#     Node 9, Type 0, BuildingBlock: WUSLED_clean_sbu_0, # of connection points: 3
#     Node 10, Type 0, BuildingBlock: WUSLED_clean_sbu_0, # of connection points: 3
#     Node 11, Type 0, BuildingBlock: WUSLED_clean_sbu_0, # of connection points: 3
#     Node 12, Type 0, BuildingBlock: WUSLED_clean_sbu_0, # of connection points: 3
#     Node 13, Type 0, BuildingBlock: WUSLED_clean_sbu_0, # of connection points: 3
#     Node 14, Type 0, BuildingBlock: WUSLED_clean_sbu_0, # of connection points: 3
#     Node 15, Type 0, BuildingBlock: WUSLED_clean_sbu_0, # of connection points: 3
#     Node 16, Type 1, BuildingBlock: QUQFOY_clean_sbu_1, # of connection points: 4
#     Node 17, Type 1, BuildingBlock: QUQFOY_clean_sbu_1, # of connection points: 4
#     Node 18, Type 1, BuildingBlock: QUQFOY_clean_sbu_1, # of connection points: 4
#     Node 19, Type 1, BuildingBlock: QUQFOY_clean_sbu_1, # of connection points: 4
#     Node 20, Type 1, BuildingBlock: QUQFOY_clean_sbu_1, # of connection points: 4
#     Node 21, Type 1, BuildingBlock: QUQFOY_clean_sbu_1, # of connection points: 4
#     Node 22, Type 1, BuildingBlock: QUQFOY_clean_sbu_1, # of connection points: 4
#     Node 23, Type 1, BuildingBlock: QUQFOY_clean_sbu_1, # of connection points: 4
#     Node 24, Type 1, BuildingBlock: QUQFOY_clean_sbu_1, # of connection points: 4
#     Node 25, Type 1, BuildingBlock: QUQFOY_clean_sbu_1, # of connection points: 4
#     Node 26, Type 1, BuildingBlock: QUQFOY_clean_sbu_1, # of connection points: 4
#     Node 27, Type 1, BuildingBlock: QUQFOY_clean_sbu_1, # of connection points: 4
#     Edge 28, Type (0, 1), BuildingBlock: AJUNOK_clean_linker_0, # of connection points: 2
#     Edge 29, Type (0, 1), BuildingBlock: AJUNOK_clean_linker_0, # of connection points: 2
#     Edge 30, Type (0, 1), BuildingBlock: AJUNOK_clean_linker_0, # of connection points: 2
#     Edge 31, Type (0, 1), BuildingBlock: AJUNOK_clean_linker_0, # of connection points: 2
#     Edge 32, Type (0, 1), BuildingBlock: AJUNOK_clean_linker_0, # of connection points: 2
#     Edge 33, Type (0, 1), BuildingBlock: AJUNOK_clean_linker_0, # of connection points: 2
#     Edge 34, Type (0, 1), BuildingBlock: AJUNOK_clean_linker_0, # of connection points: 2
#     Edge 35, Type (0, 1), BuildingBlock: AJUNOK_clean_linker_0, # of connection points: 2
#     Edge 36, Type (0, 1), BuildingBlock: AJUNOK_clean_linker_0, # of connection points: 2
#     Edge 37, Type (0, 1), BuildingBlock: AJUNOK_clean_linker_0, # of connection points: 2
#     Edge 38, Type (0, 1), BuildingBlock: AJUNOK_clean_linker_0, # of connection points: 2
#     Edge 39, Type (0, 1), BuildingBlock: AJUNOK_clean_linker_0, # of connection points: 2
#     Edge 40, Type (0, 1), BuildingBlock: AJUNOK_clean_linker_0, # of connection points: 2
#     Edge 41, Type (0, 1), BuildingBlock: AJUNOK_clean_linker_0, # of connection points: 2
#     Edge 42, Type (0, 1), BuildingBlock: AJUNOK_clean_linker_0, # of connection points: 2
#     Edge 43, Type (0, 1), BuildingBlock: AJUNOK_clean_linker_0, # of connection points: 2
#     Edge 44, Type (0, 1), BuildingBlock: AJUNOK_clean_linker_0, # of connection points: 2
#     Edge 45, Type (0, 1), BuildingBlock: AJUNOK_clean_linker_0, # of connection points: 2
#     Edge 46, Type (0, 1), BuildingBlock: AJUNOK_clean_linker_0, # of connection points: 2
#     Edge 47, Type (0, 1), BuildingBlock: AJUNOK_clean_linker_0, # of connection points: 2
#     Edge 48, Type (0, 1), BuildingBlock: AJUNOK_clean_linker_0, # of connection points: 2
#     Edge 49, Type (0, 1), BuildingBlock: AJUNOK_clean_linker_0, # of connection points: 2
#     Edge 50, Type (0, 1), BuildingBlock: AJUNOK_clean_linker_0, # of connection points: 2
#     Edge 51, Type (0, 1), BuildingBlock: AJUNOK_clean_linker_0, # of connection points: 2
#     Edge 52, Type (0, 1), BuildingBlock: AJUNOK_clean_linker_0, # of connection points: 2
#     Edge 53, Type (0, 1), BuildingBlock: AJUNOK_clean_linker_0, # of connection points: 2
#     Edge 54, Type (0, 1), BuildingBlock: AJUNOK_clean_linker_0, # of connection points: 2
#     Edge 55, Type (0, 1), BuildingBlock: AJUNOK_clean_linker_0, # of connection points: 2
#     Edge 56, Type (0, 1), BuildingBlock: AJUNOK_clean_linker_0, # of connection points: 2
#     Edge 57, Type (0, 1), BuildingBlock: AJUNOK_clean_linker_0, # of connection points: 2
#     Edge 58, Type (0, 1), BuildingBlock: AJUNOK_clean_linker_0, # of connection points: 2
#     Edge 59, Type (0, 1), BuildingBlock: AJUNOK_clean_linker_0, # of connection points: 2
#     Edge 60, Type (0, 1), BuildingBlock: AJUNOK_clean_linker_0, # of connection points: 2
#     Edge 61, Type (0, 1), BuildingBlock: AJUNOK_clean_linker_0, # of connection points: 2
#     Edge 62, Type (0, 1), BuildingBlock: AJUNOK_clean_linker_0, # of connection points: 2
#     Edge 63, Type (0, 1), BuildingBlock: AJUNOK_clean_linker_0, # of connection points: 2
#     Edge 64, Type (0, 1), BuildingBlock: AJUNOK_clean_linker_0, # of connection points: 2
#     Edge 65, Type (0, 1), BuildingBlock: AJUNOK_clean_linker_0, # of connection points: 2
#     Edge 66, Type (0, 1), BuildingBlock: AJUNOK_clean_linker_0, # of connection points: 2
#     Edge 67, Type (0, 1), BuildingBlock: AJUNOK_clean_linker_0, # of connection points: 2
#     Edge 68, Type (0, 1), BuildingBlock: AJUNOK_clean_linker_0, # of connection points: 2
#     Edge 69, Type (0, 1), BuildingBlock: AJUNOK_clean_linker_0, # of connection points: 2
#     Edge 70, Type (0, 1), BuildingBlock: AJUNOK_clean_linker_0, # of connection points: 2
#     Edge 71, Type (0, 1), BuildingBlock: AJUNOK_clean_linker_0, # of connection points: 2
#     Edge 72, Type (0, 1), BuildingBlock: AJUNOK_clean_linker_0, # of connection points: 2
#     Edge 73, Type (0, 1), BuildingBlock: AJUNOK_clean_linker_0, # of connection points: 2
#     Edge 74, Type (0, 1), BuildingBlock: AJUNOK_clean_linker_0, # of connection points: 2
#     Edge 75, Type (0, 1), BuildingBlock: AJUNOK_clean_linker_0, # of connection points: 2
# Relax obj value: 0.036
# Max RMSD: 0.141
# Mean RMSD: 0.065
data_MOF--net-ctn--node1-WUSLED_clean_sbu_0--node2-QUQFOY_clean_sbu_1--edge1-AJUNOK_clean_linker_0
_symmetry_space_group_name_H-M    P1
_symmetry_Int_Tables_number       1
_symmetry_cell_setting            triclinic
loop_
_symmetry_equiv_pos_as_xyz
'x, y, z'
_cell_length_a     56.131384
_cell_length_b     56.515954
_cell_length_c     56.61374
_cell_angle_alpha  93.334565
_cell_angle_beta   90.012609
_cell_angle_gamma 94.283635
loop_
_atom_site_label
_atom_site_type_symbol
_atom_site_fract_x
_atom_site_fract_y
_atom_site_fract_z
_atom_type_partial_charge
C0 C 0.01425 0.10856 0.12547 0.0
C1 C 0.02535 0.09543 0.14204 0.0
C2 C 0.98881 0.09287 0.1653 0.0
C3 C 1.01278 0.08779 0.16188 0.0
C4 C 0.97798 0.1065 0.14892 0.0
C5 C 0.9906 0.11425 0.12914 0.0
U6 U 0.06379 0.10136 0.0801 0.0
O7 O 0.06258 0.10108 0.0413 0.0
O8 O 0.08542 0.12846 0.06127 0.0
C9 C 0.07602 0.12111 0.04061 0.0
C10 C 0.02675 0.11558 0.10384 0.0
C11 C 0.06659 0.13968 0.02663 0.0
C12 C 0.03348 0.15734 1.00831 0.0
C13 C 0.04206 0.13969 0.02163 0.0
C14 C 0.07369 0.17547 1.00492 0.0
C15 C 0.04914 0.17561 1.00002 0.0
C16 C 0.08232 0.15767 0.01808 0.0
C17 C 0.10764 0.05318 0.08821 0.0
C18 C 0.13037 0.03322 0.0575 0.0
C19 C 0.14077 0.03038 0.0987 0.0
C20 C 0.12225 0.0446 0.10539 0.0
C21 C 0.14501 0.02448 0.07468 0.0
C22 C 0.11196 0.04756 0.06419 0.0
C23 C 0.08741 0.06699 0.09579 0.0
O24 O 0.04851 0.12565 0.10682 0.0
O25 O 0.02497 0.09959 0.08601 0.0
O26 O 0.06793 0.0633 0.08279 0.0
O27 O 0.09262 0.08954 0.1021 0.0
H28 H 0.04362 0.09087 0.1395 0.0
H29 H 0.02176 0.07774 0.17446 0.0
H30 H 0.95954 0.11062 0.15105 0.0
H31 H 0.98175 0.12432 0.11649 0.0
H32 H 0.01455 0.15656 1.00435 0.0
H33 H 0.02947 0.12604 0.02795 0.0
H34 H 0.0862 0.18932 0.99883 0.0
H35 H 0.1013 0.158 0.02169 0.0
H36 H 0.13282 0.02858 0.03887 0.0
H37 H 0.15179 0.02402 0.11233 0.0
H38 H 0.11917 0.0487 0.12402 0.0
H39 H 0.10086 0.05392 0.05061 0.0
C40 C 0.27513 0.77561 0.19535 0.0
C41 C 0.2953 0.79161 0.19346 0.0
C42 C 0.27606 0.81057 0.16174 0.0
C43 C 0.29575 0.80898 0.17679 0.0
C44 C 0.25564 0.79493 0.16419 0.0
C45 C 0.25523 0.77754 0.18083 0.0
U46 U 0.3041 0.74479 0.24481 0.0
O47 O 0.28811 0.72834 0.276 0.0
O48 O 0.30714 0.70686 0.24964 0.0
C49 C 0.29385 0.70699 0.26876 0.0
C50 C 0.2749 0.75652 0.21193 0.0
C51 C 0.2746 0.6879 0.26946 0.0
C52 C 0.24378 0.66096 0.25018 0.0
C53 C 0.26132 0.67984 0.24915 0.0
C54 C 0.25229 0.65841 0.29188 0.0
C55 C 0.23913 0.65003 0.27157 0.0
C56 C 0.26986 0.67716 0.29081 0.0
C57 C 0.36401 0.76981 0.27059 0.0
C58 C 0.3858 0.74878 0.2989 0.0
C59 C 0.39939 0.78902 0.29013 0.0
C60 C 0.3804 0.78959 0.27427 0.0
C61 C 0.40243 0.76855 0.30249 0.0
C62 C 0.36673 0.7494 0.28305 0.0
C63 C 0.34402 0.77088 0.25401 0.0
O64 O 0.29115 0.74117 0.20804 0.0
O65 O 0.27292 0.76329 0.23441 0.0
O66 O 0.32351 0.77541 0.26382 0.0
O67 O 0.34199 0.7538 0.2372 0.0
H68 H 0.31077 0.79046 0.20467 0.0
H69 H 0.31155 0.82106 0.17555 0.0
H70 H 0.24027 0.79573 0.15278 0.0
H71 H 0.2395 0.76535 0.18211 0.0
H72 H 0.23422 0.65463 0.23415 0.0
H73 H 0.26471 0.68792 0.23247 0.0
H74 H 0.24898 0.65045 0.30863 0.0
H75 H 0.27991 0.68317 0.30667 0.0
H76 H 0.38764 0.73282 0.30824 0.0
H77 H 0.41151 0.80475 0.29301 0.0
H78 H 0.37842 0.80557 0.26498 0.0
H79 H 0.3541 0.73399 0.28051 0.0
C80 C 0.9592 0.45635 0.01728 0.0
C81 C 0.98316 0.45073 0.01795 0.0
C82 C 0.97347 0.4148 0.99301 0.0
C83 C 0.99027 0.43022 1.00575 0.0
C84 C 0.9495 0.4204 0.99245 0.0
C85 C 0.94244 0.44103 1.00447 0.0
U86 U 0.96537 0.50146 0.06957 0.0
O87 O 0.96444 0.54041 0.0715 0.0
O88 O 0.93832 0.51862 0.09129 0.0
C89 C 0.94497 0.53993 0.08439 0.0
C90 C 0.9514 0.4778 0.03017 0.0
C91 C 0.92573 0.55357 0.07572 0.0
C92 C 0.89132 0.55684 0.05036 0.0
C93 C 0.90934 0.54352 0.05856 0.0
C94 C 0.90602 0.59046 0.07616 0.0
C95 C 0.88939 0.58045 0.05912 0.0
C96 C 0.92397 0.5771 0.08442 0.0
C97 C 0.01419 0.49229 0.11537 0.0
C98 C 0.018 0.51115 0.15501 0.0
C99 C 0.05061 0.49014 0.13808 0.0
C100 C 0.03724 0.48464 0.1174 0.0
C101 C 0.04108 0.50328 0.1572 0.0
C102 C 1.00466 0.50571 0.13425 0.0
C103 C 1.00046 0.48581 0.09352 0.0
O104 O 0.94115 0.47424 0.05066 0.0
O105 O 0.9668 0.49654 0.03083 0.0
O106 O 1.0039 0.50034 0.07635 0.0
O107 O 0.9779 0.47847 0.09624 0.0
H108 H 0.99638 0.46218 0.02794 0.0
H109 H 1.00883 0.42623 1.00649 0.0
H110 H 0.93628 0.40895 0.98248 0.0
H111 H 0.92388 0.44503 1.00378 0.0
H112 H 0.87877 0.54862 0.03725 0.0
H113 H 0.91051 0.52541 0.05151 0.0
H114 H 0.90539 0.60876 0.08283 0.0
H115 H 0.93662 0.58522 0.0975 0.0
H116 H 1.01021 0.52134 0.16943 0.0
H117 H 0.06855 0.48438 0.13896 0.0
H118 H 0.04493 0.4744 0.10294 0.0
H119 H 0.98691 0.51187 0.13296 0.0
C120 C 0.72153 0.77746 0.19955 0.0
C121 C 0.7302 0.7896 0.17998 0.0
C122 C 0.73412 0.75197 0.15766 0.0
C123 C 0.73627 0.77695 0.15916 0.0
C124 C 0.72595 0.73986 0.17745 0.0
C125 C 0.71966 0.75254 0.19822 0.0
U126 U 0.72822 0.83188 0.24239 0.0
O127 O 0.70146 0.85275 0.26051 0.0
O128 O 0.72707 0.83498 0.28134 0.0
C129 C 0.70812 0.84735 0.28166 0.0
C130 C 0.71436 0.79057 0.22134 0.0
C131 C 0.6886 0.83952 0.29733 0.0
C132 C 0.65557 0.81154 0.30718 0.0
C133 C 0.67529 0.81767 0.29298 0.0
C134 C 0.66267 0.84884 0.33034 0.0
C135 C 0.64892 0.82724 0.32581 0.0
C136 C 0.68235 0.85489 0.31624 0.0
C137 C 0.77509 0.88198 0.22986 0.0
C138 C 0.79018 0.91257 0.25917 0.0
C139 C 0.79824 0.91715 0.21758 0.0
C140 C 0.7854 0.89539 0.21194 0.0
C141 C 0.80117 0.92575 0.2413 0.0
C142 C 0.7772 0.89088 0.2535 0.0
C143 C 0.76258 0.85863 0.22365 0.0
O144 O 0.73046 0.79309 0.23834 0.0
O145 O 0.70365 0.8101 0.2183 0.0
O146 O 0.74003 0.85895 0.21755 0.0
O147 O 0.76646 0.84172 0.23787 0.0
H148 H 0.73204 0.80885 0.1807 0.0
H149 H 0.74257 0.78668 0.14416 0.0
H150 H 0.72382 0.72063 0.17663 0.0
H151 H 0.71309 0.74287 0.21316 0.0
H152 H 0.64505 0.79496 0.30306 0.0
H153 H 0.6798 0.80567 0.27832 0.0
H154 H 0.65796 0.86123 0.3446 0.0
H155 H 0.6924 0.87186 0.31979 0.0
H156 H 0.79212 0.91874 0.2776 0.0
H157 H 0.80598 0.92719 0.20339 0.0
H158 H 0.78371 0.88892 0.19358 0.0
H159 H 0.76915 0.88089 0.2676 0.0
C160 C 0.9962 0.99563 0.44633 0.0
C161 C 0.99377 0.02 0.44406 0.0
C162 C 0.97164 1.01113 0.40726 0.0
C163 C 0.98142 0.02765 0.42478 0.0
C164 C 0.97398 0.9868 0.40962 0.0
C165 C 0.98611 0.97912 0.42901 0.0
U166 U 0.05063 1.00066 0.48678 0.0
O167 O 0.05397 0.99717 0.52519 0.0
O168 O 0.07216 0.97342 0.50026 0.0
C169 C 0.06654 0.97849 0.52243 0.0
C170 C 1.00961 0.98714 0.46623 0.0
C171 C 0.05869 0.95813 0.53633 0.0
C172 C 0.03681 0.91978 0.54005 0.0
C173 C 0.04341 0.93925 0.52665 0.0
C174 C 0.06027 0.93809 0.57307 0.0
C175 C 0.04534 0.91889 0.56335 0.0
C176 C 0.06694 0.95748 0.55963 0.0
C177 C 0.09954 0.04985 0.47708 0.0
C178 C 0.13028 0.06419 0.50577 0.0
C179 C 0.13494 0.07309 0.46458 0.0
C180 C 0.11299 0.06061 0.45924 0.0
C181 C 0.14376 0.07502 0.4879 0.0
C182 C 0.10839 0.05153 0.50038 0.0
C183 C 0.07639 0.03702 0.47101 0.0
O184 O 0.02962 0.9776 0.46045 0.0
O185 O 1.01156 1.00135 0.48548 0.0
O186 O 0.05932 0.03921 0.48673 0.0
O187 O 0.07746 0.01515 0.46205 0.0
H188 H 1.00154 0.03315 0.45706 0.0
H189 H 0.97988 0.0465 0.4233 0.0
H190 H 0.96632 0.97369 0.39649 0.0
H191 H 0.98776 0.96027 0.4304 0.0
H192 H 0.02526 0.90526 0.5321 0.0
H193 H 0.03673 0.93947 0.50872 0.0
H194 H 0.06662 0.93825 0.59115 0.0
H195 H 0.07861 0.97198 0.56745 0.0
H196 H 0.13675 0.06542 0.52386 0.0
H197 H 0.14482 0.0816 0.45057 0.0
H198 H 0.10643 0.05948 0.44118 0.0
H199 H 0.09834 0.04319 0.51439 0.0
C200 C 0.2111 0.80366 0.87602 0.0
C201 C 0.23284 0.80205 0.88784 0.0
C202 C 0.22009 0.82857 0.9201 0.0
C203 C 0.23735 0.8145 0.90965 0.0
C204 C 0.19827 0.82993 0.90825 0.0
C205 C 0.19381 0.81755 0.8864 0.0
U206 U 0.22495 0.75667 0.82778 0.0
O207 O 0.20068 0.73214 0.80593 0.0
O208 O 0.22443 0.7587 0.78901 0.0
C209 C 0.20621 0.74275 0.78638 0.0
C210 C 0.20629 0.79117 0.85282 0.0
C211 C 0.18583 0.74994 0.77278 0.0
C212 C 0.14638 0.76491 0.77132 0.0
C213 C 0.16601 0.75897 0.78435 0.0
C214 C 0.16645 0.75378 0.73491 0.0
C215 C 0.14635 0.76225 0.74649 0.0
C216 C 0.18602 0.74763 0.74798 0.0
C217 C 0.27634 0.71691 0.83869 0.0
C218 C 0.28686 0.68384 0.81228 0.0
C219 C 0.3064 0.69114 0.85046 0.0
C220 C 0.2931 0.71078 0.85517 0.0
C221 C 0.30311 0.6772 0.82917 0.0
C222 C 0.27345 0.70353 0.81706 0.0
C223 C 0.26133 0.73652 0.84511 0.0
O224 O 0.22281 0.79482 0.83671 0.0
O225 O 0.19827 0.76877 0.85336 0.0
O226 O 0.23895 0.7301 0.84984 0.0
O227 O 0.2638 0.75516 0.83222 0.0
H228 H 0.24641 0.7914 0.88006 0.0
H229 H 0.25453 0.81351 0.9181 0.0
H230 H 0.18463 0.84057 0.9159 0.0
H231 H 0.17691 0.81892 0.87753 0.0
H232 H 0.13113 0.77145 0.78065 0.0
H233 H 0.16559 0.76116 0.80349 0.0
H234 H 0.16673 0.75126 0.7158 0.0
H235 H 0.20117 0.74076 0.73873 0.0
H236 H 0.28401 0.67337 0.79575 0.0
H237 H 0.31907 0.68663 0.86361 0.0
H238 H 0.2956 0.72095 0.87193 0.0
H239 H 0.26052 0.70801 0.80415 0.0
C240 C 0.96933 0.62225 0.54292 0.0
C241 C 0.99335 0.63118 0.54258 0.0
C242 C 0.98374 0.66576 0.56738 0.0
C243 C 1.00052 0.65277 0.55479 0.0
C244 C 0.95964 0.65702 0.56717 0.0
C245 C 0.95252 0.63539 0.5551 0.0
U246 U 0.97631 0.57234 0.49542 0.0
O247 O 0.97072 0.53363 0.49789 0.0
O248 O 0.94892 0.55174 0.47343 0.0
C249 C 0.95218 0.53188 0.48355 0.0
C250 C 0.96146 0.59924 0.53092 0.0
C251 C 0.93049 0.51963 0.49281 0.0
C252 C 0.89642 0.51904 0.51929 0.0
C253 C 0.91723 0.53069 0.51074 0.0
C254 C 0.90213 0.48504 0.49231 0.0
C255 C 0.88857 0.49617 0.51001 0.0
C256 C 0.92291 0.49673 0.48374 0.0
C257 C 0.02781 0.57633 0.45156 0.0
C258 C 0.02944 0.55014 0.41609 0.0
C259 C 0.06356 0.57727 0.42744 0.0
C260 C 0.05116 0.58555 0.44728 0.0
C261 C 0.05271 0.55971 0.41149 0.0
C262 C 0.01708 0.55837 0.43602 0.0
C263 C 0.01475 0.58597 0.47199 0.0
O264 O 0.95364 0.60014 0.50914 0.0
O265 O 0.97544 0.58191 0.53356 0.0
O266 O 0.0154 0.57404 0.4912 0.0
O267 O 0.99339 0.59261 0.46727 0.0
H268 H 1.00654 0.62138 0.53303 0.0
H269 H 0.01914 0.65933 0.55439 0.0
H270 H 0.9464 0.66668 0.57678 0.0
H271 H 0.9339 0.6288 0.55545 0.0
H272 H 0.88653 0.52784 0.53321 0.0
H273 H 0.92298 0.54834 0.51806 0.0
H274 H 0.89642 0.46746 0.48483 0.0
H275 H 0.93299 0.48794 0.46995 0.0
H276 H 0.02083 0.53634 0.40427 0.0
H277 H 0.08144 0.58498 0.42426 0.0
H278 H 0.05971 0.59938 0.45913 0.0
H279 H 0.9991 0.55091 0.43919 0.0
C280 C 0.78748 0.80058 0.87687 0.0
C281 C 0.78513 0.77589 0.87145 0.0
C282 C 0.78789 0.76843 0.91328 0.0
C283 C 0.78534 0.75999 0.8895 0.0
C284 C 0.79113 0.79308 0.91855 0.0
C285 C 0.79075 0.80896 0.90056 0.0
U286 U 0.80938 0.8293 0.82024 0.0
O287 O 0.78922 0.84133 0.79043 0.0
O288 O 0.81265 0.86699 0.81192 0.0
C289 C 0.79625 0.86383 0.79523 0.0
C290 C 0.78573 0.81788 0.85839 0.0
C291 C 0.77749 0.88088 0.79638 0.0
C292 C 0.73592 0.89021 0.80015 0.0
C293 C 0.75321 0.87353 0.79931 0.0
C294 C 0.7669 0.92174 0.79542 0.0
C295 C 0.74264 0.91448 0.79825 0.0
C296 C 0.78412 0.9051 0.79438 0.0
C297 C 0.86491 0.80688 0.78917 0.0
C298 C 0.8895 0.8281 0.76071 0.0
C299 C 0.89462 0.78659 0.76628 0.0
C300 C 0.87656 0.7863 0.78324 0.0
C301 C 0.9014 0.80751 0.75493 0.0
C302 C 0.87131 0.82777 0.77766 0.0
C303 C 0.84676 0.80626 0.80789 0.0
O304 O 0.80286 0.83506 0.85842 0.0
O305 O 0.77955 0.80923 0.837 0.0
O306 O 0.82489 0.79908 0.80108 0.0
O307 O 0.84774 0.82471 0.8232 0.0
H308 H 0.78268 0.76881 0.85336 0.0
H309 H 0.78279 0.74109 0.88492 0.0
H310 H 0.79368 0.80011 0.93666 0.0
H311 H 0.79271 0.82788 0.90521 0.0
H312 H 0.71737 0.8842 0.8027 0.0
H313 H 0.74758 0.85497 0.80105 0.0
H314 H 0.77254 0.94034 0.79385 0.0
H315 H 0.8027 0.91117 0.79205 0.0
H316 H 0.89458 0.84457 0.75253 0.0
H317 H 0.90334 0.77042 0.76205 0.0
H318 H 0.87182 0.77002 0.79191 0.0
H319 H 0.86251 0.84386 0.78202 0.0
C320 C 0.28285 0.29864 0.37512 0.0
C321 C 0.30408 0.28753 0.37834 0.0
C322 C 0.28576 0.26562 0.41033 0.0
C323 C 0.30555 0.27119 0.39588 0.0
C324 C 0.26455 0.27678 0.40689 0.0
C325 C 0.26313 0.29313 0.38945 0.0
U326 U 0.30543 0.32779 0.31939 0.0
O327 O 0.2853 0.33908 0.28916 0.0
O328 O 0.30796 0.3653 0.31072 0.0
C329 C 0.29194 0.36169 0.29371 0.0
C330 C 0.28091 0.31597 0.35694 0.0
C331 C 0.27257 0.37784 0.2949 0.0
C332 C 0.23875 0.39398 0.31528 0.0
C333 C 0.25627 0.3776 0.31369 0.0
C334 C 0.25328 0.41058 0.27901 0.0
C335 C 0.23733 0.4109 0.29815 0.0
C336 C 0.27079 0.39421 0.27744 0.0
C337 C 0.36195 0.30652 0.28939 0.0
C338 C 0.38571 0.32786 0.26041 0.0
C339 C 0.39257 0.28696 0.26713 0.0
C340 C 0.37449 0.28639 0.28407 0.0
C341 C 0.39846 0.30771 0.25517 0.0
C342 C 0.36751 0.32725 0.27734 0.0
C343 C 0.34356 0.30558 0.30788 0.0
O344 O 0.29779 0.33341 0.3573 0.0
O345 O 0.27571 0.30685 0.33552 0.0
O346 O 0.32192 0.29788 0.30076 0.0
O347 O 0.34391 0.32409 0.32308 0.0
H348 H 0.31951 0.29159 0.36739 0.0
H349 H 0.32225 0.26318 0.39835 0.0
H350 H 0.24896 0.27271 0.41761 0.0
H351 H 0.24658 0.30147 0.38715 0.0
H352 H 0.22643 0.39356 0.33 0.0
H353 H 0.25733 0.36497 0.32727 0.0
H354 H 0.25265 0.42346 0.26562 0.0
H355 H 0.28323 0.39462 0.26281 0.0
H356 H 0.3901 0.34421 0.25176 0.0
H357 H 0.40194 0.27111 0.26333 0.0
H358 H 0.37039 0.27024 0.29316 0.0
H359 H 0.35799 0.34299 0.28122 0.0
C360 C 0.45944 0.94961 0.51996 0.0
C361 C 0.48308 0.94324 0.52165 0.0
C362 C 0.47331 0.90759 0.49629 0.0
C363 C 0.49 0.92248 0.50976 0.0
C364 C 0.44963 0.91392 0.4948 0.0
C365 C 0.44277 0.93478 0.50653 0.0
U366 U 0.4651 0.99613 0.57133 0.0
O367 O 0.4649 0.03502 0.57224 0.0
O368 O 0.43733 0.01427 0.59135 0.0
C369 C 0.44461 0.03517 0.58385 0.0
C370 C 0.45186 0.97149 0.53222 0.0
C371 C 0.42592 0.04875 0.57373 0.0
C372 C 0.40835 0.06688 0.54054 0.0
C373 C 0.42603 0.05378 0.5497 0.0
C374 C 0.38993 0.06995 0.57916 0.0
C375 C 0.38994 0.07493 0.5551 0.0
C376 C 0.40776 0.057 0.58836 0.0
C377 C 0.51275 0.98793 0.61879 0.0
C378 C 0.51604 1.0071 0.65833 0.0
C379 C 0.54938 0.98716 0.64151 0.0
C380 C 0.53611 0.98109 0.62088 0.0
C381 C 0.53944 1.00005 0.66056 0.0
C382 C 0.5028 1.0011 0.6376 0.0
C383 C 0.49925 0.98091 0.5969 0.0
O384 O 0.44111 0.9686 0.55257 0.0
O385 O 0.4676 0.98996 0.53276 0.0
O386 O 0.50337 0.99467 0.5792 0.0
O387 O 0.47652 0.97407 0.59936 0.0
H388 H 0.4962 0.95434 0.53212 0.0
H389 H 0.50833 0.91795 0.5112 0.0
H390 H 0.43652 0.90292 0.48425 0.0
H391 H 0.42446 0.93939 0.50505 0.0
H392 H 0.40922 0.0709 0.52208 0.0
H393 H 0.43982 0.04768 0.53796 0.0
H394 H 0.37597 0.07582 0.59081 0.0
H395 H 0.40732 0.05337 0.60695 0.0
H396 H 0.50794 0.0171 0.67271 0.0
H397 H 0.56756 0.98204 0.64241 0.0
H398 H 0.54415 0.97106 0.60647 0.0
H399 H 0.48481 1.00666 0.63629 0.0
C400 C 0.22292 0.28031 0.69621 0.0
C401 C 0.23333 0.29221 0.67724 0.0
C402 C 0.23641 0.25449 0.65486 0.0
C403 C 0.23985 0.27941 0.65668 0.0
C404 C 0.22655 0.24257 0.6741 0.0
C405 C 0.21982 0.25541 0.6946 0.0
U406 U 0.22878 0.33485 0.73886 0.0
O407 O 0.20168 0.35676 0.75495 0.0
O408 O 0.22525 0.3385 0.77761 0.0
C409 C 0.20688 0.35154 0.77657 0.0
C410 C 0.21497 0.29367 0.71753 0.0
C411 C 0.1863 0.34485 0.79144 0.0
C412 C 0.15313 0.31733 0.80196 0.0
C413 C 0.17354 0.32254 0.78837 0.0
C414 C 0.15842 0.35648 0.82195 0.0
C415 C 0.14516 0.33445 0.81855 0.0
C416 C 0.17878 0.36162 0.80848 0.0
C417 C 0.27763 0.3838 0.7287 0.0
C418 C 0.27746 0.42513 0.74332 0.0
C419 C 0.31496 0.40817 0.7341 0.0
C420 C 0.30261 0.38645 0.72733 0.0
C421 C 0.30255 0.42772 0.74234 0.0
C422 C 0.26511 0.40332 0.73674 0.0
C423 C 0.2651 0.36051 0.72206 0.0
O424 O 0.23013 0.29591 0.73536 0.0
O425 O 0.20502 0.31346 0.71374 0.0
O426 O 0.24311 0.36085 0.71412 0.0
O427 O 0.26757 0.34388 0.73698 0.0
H428 H 0.23612 0.31142 0.67819 0.0
H429 H 0.24746 0.28899 0.6421 0.0
H430 H 0.22341 0.2234 0.673 0.0
H431 H 0.21187 0.24592 0.70908 0.0
H432 H 0.14318 0.30024 0.79902 0.0
H433 H 0.17912 0.3094 0.77523 0.0
H434 H 0.15285 0.36984 0.83487 0.0
H435 H 0.18846 0.3789 0.81112 0.0
H436 H 0.26735 0.43998 0.74909 0.0
H437 H 0.3343 0.40956 0.73328 0.0
H438 H 0.31259 0.3716 0.72123 0.0
H439 H 0.24581 0.40173 0.738 0.0
C440 C 0.77472 0.27486 0.69287 0.0
C441 C 0.78092 0.29893 0.69943 0.0
C442 C 0.7744 0.30956 0.65899 0.0
C443 C 0.78066 0.31615 0.68263 0.0
C444 C 0.76831 0.28549 0.6525 0.0
C445 C 0.76837 0.26834 0.6693 0.0
U446 U 0.80318 0.24534 0.74405 0.0
O447 O 0.78656 0.22915 0.77506 0.0
O448 O 0.80638 0.20754 0.7495 0.0
C449 C 0.79268 0.20781 0.76832 0.0
C450 C 0.77487 0.25622 0.71007 0.0
C451 C 0.77358 0.18859 0.76887 0.0
C452 C 0.74199 0.16254 0.74969 0.0
C453 C 0.75952 0.18146 0.74882 0.0
C454 C 0.75215 0.15811 0.79072 0.0
C455 C 0.73818 0.15064 0.77067 0.0
C456 C 0.76968 0.1769 0.78981 0.0
C457 C 0.86209 0.27104 0.77135 0.0
C458 C 0.88444 0.24962 0.79889 0.0
C459 C 0.89547 0.29121 0.79341 0.0
C460 C 0.87699 0.29158 0.77694 0.0
C461 C 0.89939 0.27025 0.80461 0.0
C462 C 0.86585 0.25004 0.78246 0.0
C463 C 0.84262 0.27187 0.75411 0.0
O464 O 0.79146 0.24114 0.70681 0.0
O465 O 0.77198 0.26301 0.73244 0.0
O466 O 0.82179 0.27638 0.7632 0.0
O467 O 0.8412 0.25467 0.73739 0.0
H468 H 0.7861 0.30441 0.71747 0.0
H469 H 0.78579 0.33454 0.68799 0.0
H470 H 0.7634 0.27996 0.6344 0.0
H471 H 0.76354 0.24991 0.66386 0.0
H472 H 0.73177 0.15694 0.73385 0.0
H473 H 0.76228 0.19031 0.73247 0.0
H474 H 0.74949 0.1494 0.80717 0.0
H475 H 0.78032 0.18222 0.80546 0.0
H476 H 0.88726 0.23311 0.80691 0.0
H477 H 0.90657 0.30743 0.7976 0.0
H478 H 0.87427 0.30796 0.76861 0.0
H479 H 0.85447 0.23399 0.77837 0.0
C480 C 0.51421 0.60959 0.62591 0.0
C481 C 0.52415 0.59561 0.64249 0.0
C482 C 0.48777 0.5961 0.66599 0.0
C483 C 0.51106 0.58897 0.66238 0.0
C484 C 0.47798 0.61024 0.64937 0.0
C485 C 0.49113 0.61696 0.62953 0.0
U486 U 0.56391 0.59956 0.58134 0.0
O487 O 0.56296 0.59887 0.54246 0.0
O488 O 0.587 0.62524 0.56231 0.0
C489 C 0.57762 0.61805 0.5416 0.0
C490 C 0.52726 0.61571 0.60431 0.0
C491 C 0.56896 0.63678 0.52753 0.0
C492 C 0.54245 0.66824 0.52266 0.0
C493 C 0.55143 0.65124 0.53655 0.0
C494 C 0.5686 0.65673 0.49064 0.0
C495 C 0.55067 0.67094 0.49941 0.0
C496 C 0.57761 0.63974 0.50458 0.0
C497 C 0.60524 0.54953 0.59122 0.0
C498 C 0.64248 0.54337 0.57063 0.0
C499 C 0.62347 0.51198 0.593 0.0
C500 C 0.60511 0.52652 0.59925 0.0
C501 C 0.64245 0.52027 0.57873 0.0
C502 C 0.62401 0.55788 0.57681 0.0
C503 C 0.58549 0.56427 0.59797 0.0
O504 O 0.54931 0.62496 0.60743 0.0
O505 O 0.52509 0.59946 0.58674 0.0
O506 O 0.56646 0.56115 0.5843 0.0
O507 O 0.59139 0.58674 0.60412 0.0
H508 H 0.5419 0.58961 0.6399 0.0
H509 H 0.51908 0.57809 0.67488 0.0
H510 H 0.45991 0.61554 0.65132 0.0
H511 H 0.48311 0.62756 0.61678 0.0
H512 H 0.52905 0.67929 0.5301 0.0
H513 H 0.54456 0.64922 0.55427 0.0
H514 H 0.57525 0.6584 0.47281 0.0
H515 H 0.59111 0.62868 0.49732 0.0
H516 H 0.65684 0.55024 0.55959 0.0
H517 H 0.62256 0.49409 0.599 0.0
H518 H 0.59066 0.51971 0.61023 0.0
H519 H 0.62437 0.57556 0.57031 0.0
C520 C 0.49976 0.49162 0.94223 0.0
C521 C 0.51078 0.50952 0.9289 0.0
C522 C 0.47505 0.50941 0.90451 0.0
C523 C 0.49853 0.51834 0.91019 0.0
C524 C 0.46401 0.49164 0.91808 0.0
C525 C 0.4763 0.48278 0.93676 0.0
U526 U 0.55363 0.49591 0.98255 0.0
O527 O 0.55669 0.49316 0.02107 0.0
O528 O 0.57478 0.46873 0.99675 0.0
C529 C 0.56906 0.47432 0.0188 0.0
C530 C 0.51251 0.48254 0.96209 0.0
C531 C 0.56081 0.45437 0.03308 0.0
C532 C 0.53774 0.41681 0.0377 0.0
C533 C 0.545 0.43572 0.02381 0.0
C534 C 0.56166 0.4352 0.07037 0.0
C535 C 0.54613 0.41626 0.06109 0.0
C536 C 0.56899 0.45402 0.05644 0.0
C537 C 0.60204 0.54565 0.97265 0.0
C538 C 0.64108 0.54906 0.99164 0.0
C539 C 0.62723 0.58237 0.97177 0.0
C540 C 0.60597 0.569 0.96571 0.0
C541 C 0.64499 0.57254 0.98477 0.0
C542 C 0.61968 0.53571 0.98568 0.0
C543 C 0.57923 0.53227 0.96654 0.0
O544 O 0.53245 0.47281 0.95647 0.0
O545 O 0.51456 0.49702 0.98111 0.0
O546 O 0.56217 0.53451 0.98222 0.0
O547 O 0.58059 0.51028 0.95799 0.0
H548 H 0.52883 0.51672 0.93305 0.0
H549 H 0.50731 0.53233 0.90033 0.0
H550 H 0.44595 0.48442 0.91405 0.0
H551 H 0.4675 0.46904 0.94694 0.0
H552 H 0.52574 0.40248 0.03008 0.0
H553 H 0.53836 0.43574 1.00585 0.0
H554 H 0.56794 0.43562 0.08849 0.0
H555 H 0.58105 0.46838 0.06395 0.0
H556 H 0.65435 0.54122 1.00198 0.0
H557 H 0.62986 0.60041 0.96624 0.0
H558 H 0.59249 0.57695 0.95571 0.0
H559 H 0.61683 0.51775 0.99138 0.0
C560 C 0.71033 0.3021 0.37616 0.0
C561 C 0.73249 0.30122 0.38743 0.0
C562 C 0.71973 0.32742 0.41997 0.0
C563 C 0.73719 0.31387 0.40912 0.0
C564 C 0.69749 0.32801 0.40868 0.0
C565 C 0.69285 0.31544 0.38697 0.0
U566 U 0.7225 0.25473 0.32726 0.0
O567 O 0.6971 0.23094 0.30591 0.0
O568 O 0.72095 0.25712 0.28857 0.0
C569 C 0.70239 0.24153 0.2863 0.0
C570 C 0.7052 0.28955 0.35305 0.0
C571 C 0.68195 0.24912 0.27304 0.0
C572 C 0.66296 0.25474 0.23537 0.0
C573 C 0.68251 0.24826 0.24824 0.0
C574 C 0.64214 0.2633 0.272 0.0
C575 C 0.6425 0.2621 0.24714 0.0
C576 C 0.66175 0.25704 0.28486 0.0
C577 C 0.77262 0.21297 0.33462 0.0
C578 C 0.77435 0.17271 0.31734 0.0
C579 C 0.80993 0.19364 0.33472 0.0
C580 C 0.79701 0.21348 0.34023 0.0
C581 C 0.79857 0.17288 0.32373 0.0
C582 C 0.76149 0.19261 0.32267 0.0
C583 C 0.75886 0.23318 0.34262 0.0
O584 O 0.72151 0.29293 0.33667 0.0
O585 O 0.69683 0.26726 0.35371 0.0
O586 O 0.73659 0.22775 0.34866 0.0
O587 O 0.76145 0.25217 0.33023 0.0
H588 H 0.74622 0.291 0.37931 0.0
H589 H 0.75466 0.31347 0.41714 0.0
H590 H 0.68369 0.33822 0.41665 0.0
H591 H 0.67562 0.31625 0.37854 0.0
H592 H 0.66355 0.25333 0.21622 0.0
H593 H 0.69795 0.24227 0.23881 0.0
H594 H 0.62659 0.26897 0.28148 0.0
H595 H 0.66101 0.2581 0.30401 0.0
H596 H 0.76528 0.15704 0.30853 0.0
H597 H 0.82857 0.1942 0.33983 0.0
H598 H 0.80593 0.22902 0.34942 0.0
H599 H 0.74273 0.19186 0.31795 0.0
C600 C 0.46846 0.12198 0.0432 0.0
C601 C 0.49228 0.13149 0.04266 0.0
C602 C 0.48199 0.16581 0.06749 0.0
C603 C 0.49901 0.15324 0.05479 0.0
C604 C 0.45807 0.15649 0.06744 0.0
C605 C 0.45139 0.13471 0.05544 0.0
U606 U 0.47675 0.07164 0.99646 0.0
O607 O 0.47186 0.03298 0.99956 0.0
O608 O 0.44984 0.05021 0.97459 0.0
C609 C 0.45339 0.03064 0.98513 0.0
C610 C 0.46111 0.09874 0.03141 0.0
C611 C 0.43183 0.0183 0.99455 0.0
C612 C 0.39821 0.01745 0.02157 0.0
C613 C 0.41895 0.02913 0.01291 0.0
C614 C 0.40324 0.98389 0.99384 0.0
C615 C 0.39004 0.9948 1.01197 0.0
C616 C 0.42396 0.99559 0.98516 0.0
C617 C 0.52871 0.07577 0.95304 0.0
C618 C 0.53064 0.05128 0.91644 0.0
C619 C 0.56593 0.07479 0.93132 0.0
C620 C 0.55293 0.08318 0.95069 0.0
C621 C 0.55489 0.05883 0.91395 0.0
C622 C 0.51767 0.05956 0.93593 0.0
C623 C 0.51519 0.08548 0.97315 0.0
O624 O 0.45349 0.09921 1.00951 0.0
O625 O 0.4754 0.08175 0.03446 0.0
O626 O 0.51591 0.07397 0.99262 0.0
O627 O 0.49374 0.09168 0.96811 0.0
H628 H 0.50567 0.122 0.03307 0.0
H629 H 0.51749 0.16025 0.05426 0.0
H630 H 0.44463 0.16582 0.07713 0.0
H631 H 0.43292 0.12766 0.05595 0.0
H632 H 0.3886 0.02608 0.03582 0.0
H633 H 0.42491 0.04663 0.02045 0.0
H634 H 0.39728 0.96647 0.98609 0.0
H635 H 0.43375 0.98699 0.97102 0.0
H636 H 0.52175 0.03899 0.90328 0.0
H637 H 0.58448 0.08122 0.9296 0.0
H638 H 0.56171 0.09571 0.96371 0.0
H639 H 0.49899 0.05354 0.93751 0.0
O640 O 0.25869 0.87973 0.02137 0.0
Cd641 Cd 0.27421 0.89727 0.05116 0.0
Cd642 Cd 0.24737 0.93473 0.03381 0.0
O643 O 0.23777 0.90793 1.00837 0.0
O644 O 0.29001 0.87165 0.06658 0.0
O645 O 0.2611 0.89062 0.08365 0.0
C646 C 0.2762 0.87451 0.08449 0.0
C647 C 0.2181 0.96042 0.04608 0.0
C648 C 0.24452 0.88692 1.00629 0.0
C649 C 0.30145 0.9429 0.03827 0.0
O650 O 0.28163 0.95054 0.03265 0.0
O651 O 0.30218 0.92239 0.04623 0.0
O652 O 0.22795 0.96131 0.02559 0.0
O653 O 0.2245 0.94443 0.05968 0.0
O654 O 0.17449 0.55366 0.29486 0.0
Cd655 Cd 0.15438 0.5237 0.30453 0.0
Cd656 Cd 0.12025 0.54352 0.27597 0.0
O657 O 0.1484 0.56865 0.27194 0.0
O658 O 0.1781 0.50559 0.32078 0.0
O659 O 0.15962 0.49185 0.28788 0.0
C660 C 0.17494 0.48897 0.30431 0.0
C661 C 0.09802 0.53039 0.24206 0.0
C662 C 0.16898 0.5697 0.28145 0.0
C663 C 0.10813 0.53705 0.3274 0.0
O664 O 0.102 0.54428 0.30761 0.0
O665 O 0.12803 0.528 0.32963 0.0
O666 O 0.09622 0.55119 0.25218 0.0
O667 O 0.11268 0.51688 0.25122 0.0
O668 O 0.76376 0.70252 1.00346 0.0
Cd669 Cd 0.75302 0.68077 0.03006 0.0
Cd670 Cd 0.78222 0.65119 1.00435 0.0
O671 O 0.7879 0.67995 0.98335 0.0
O672 O 0.73453 0.70255 0.05063 0.0
O673 O 0.76642 0.68653 0.06332 0.0
C674 C 0.74931 0.70021 0.06756 0.0
C675 C 0.81423 0.63363 0.02094 0.0
C676 C 0.77779 0.69932 0.98615 0.0
C677 C 0.73053 0.63404 1.00866 0.0
O678 O 0.75068 0.63011 0.99961 0.0
O679 O 0.72815 0.65283 0.02163 0.0
O680 O 0.80878 0.62997 0.99881 0.0
O681 O 0.80176 0.64791 0.0336 0.0
O682 O 0.92544 0.03628 0.30566 0.0
Cd683 Cd 0.90847 0.0405 0.274 0.0
Cd684 Cd 0.87213 0.05352 0.30556 0.0
O685 O 0.89743 0.04694 0.33057 0.0
O686 O 0.93392 0.03493 0.25017 0.0
O687 O 0.91696 0.06881 0.25442 0.0
C688 C 0.93215 0.05608 0.24347 0.0
C689 C 0.85144 0.08803 0.31079 0.0
C690 C 0.91802 0.03955 0.32672 0.0
C691 C 0.8611 1.01099 0.27147 0.0
O692 O 0.85375 0.02441 0.28831 0.0
O693 O 0.88199 0.01489 0.26326 0.0
O694 O 0.84683 0.06995 0.32333 0.0
O695 O 0.86834 0.08675 0.29536 0.0
O696 O 0.2674 0.20181 0.50093 0.0
Cd697 Cd 0.25531 0.18144 0.52828 0.0
Cd698 Cd 0.28368 0.14942 0.50348 0.0
O699 O 0.29014 0.17719 0.4815 0.0
O700 O 0.23776 0.20466 0.54812 0.0
O701 O 0.26859 0.18743 0.56155 0.0
C702 C 0.25212 0.20196 0.56531 0.0
C703 C 0.31526 0.12932 0.51772 0.0
C704 C 0.28111 0.19718 0.48367 0.0
C705 C 0.2312 0.13482 0.50841 0.0
O706 O 0.25123 0.12984 0.49977 0.0
O707 O 0.22937 0.15414 0.5207 0.0
O708 O 0.30792 0.12602 0.49612 0.0
O709 O 0.30508 0.14478 0.53122 0.0
O710 O 0.42649 0.53709 0.80516 0.0
Cd711 Cd 0.40831 0.54207 0.77429 0.0
Cd712 Cd 0.37398 0.55646 0.80683 0.0
O713 O 0.39993 0.54942 0.83085 0.0
O714 O 0.43265 0.53773 0.74905 0.0
O715 O 0.41579 0.57143 0.75607 0.0
C716 C 0.43067 0.55938 0.74387 0.0
C717 C 0.35425 0.59147 0.81337 0.0
C718 C 0.42002 0.54114 0.82644 0.0
C719 C 0.36037 0.51382 0.77375 0.0
O720 O 0.35433 0.5275 0.79097 0.0
O721 O 0.38077 0.51717 0.76423 0.0
O722 O 0.35022 0.57351 0.82618 0.0
O723 O 0.36977 0.58965 0.79664 0.0
O724 O 0.75853 0.38011 0.52055 0.0
Cd725 Cd 0.77359 0.39824 0.55022 0.0
Cd726 Cd 0.74644 0.4345 0.53293 0.0
O727 O 0.73674 0.40762 0.50762 0.0
O728 O 0.78896 0.37269 0.56613 0.0
O729 O 0.76013 0.3922 0.58267 0.0
C730 C 0.77484 0.37578 0.58378 0.0
C731 C 0.71651 0.45828 0.54754 0.0
C732 C 0.744 0.38681 0.50554 0.0
C733 C 0.8003 0.44387 0.53665 0.0
O734 O 0.78033 0.4511 0.53084 0.0
O735 O 0.8013 0.4236 0.5451 0.0
O736 O 0.7249 0.45999 0.52648 0.0
O737 O 0.72503 0.44274 0.56043 0.0
O738 O 0.67448 0.05383 0.79361 0.0
Cd739 Cd 0.65518 0.02373 0.80407 0.0
Cd740 Cd 0.61968 0.04403 0.77768 0.0
O741 O 0.64725 0.06951 0.77262 0.0
O742 O 0.68036 1.0066 0.81932 0.0
O743 O 0.66041 0.99173 0.78766 0.0
C744 C 0.67686 0.98967 0.8032 0.0
C745 C 0.59679 0.02978 0.74457 0.0
C746 C 0.66832 0.07023 0.78097 0.0
C747 C 0.61009 0.03695 0.82946 0.0
O748 O 0.60292 0.04444 0.81014 0.0
O749 O 0.63003 0.02774 0.83042 0.0
O750 O 0.59456 0.05058 0.75453 0.0
O751 O 0.61222 0.01691 0.75349 0.0
O752 O 0.99281 0.3104 0.94171 0.0
Cd753 Cd 0.99758 0.27881 0.92281 0.0
Cd754 Cd 0.02084 0.31006 0.89187 0.0
O755 O 1.01333 0.33469 0.91885 0.0
O756 O 0.9906 0.25416 0.94617 0.0
O757 O 0.02589 0.26006 0.92935 0.0
C758 C 1.01245 0.24878 0.94418 0.0
C759 C 0.05703 0.31713 0.87153 0.0
C760 C 1.00087 0.33127 0.93727 0.0
C761 C 0.97602 0.28007 0.87462 0.0
O762 O 0.99267 0.29588 0.8708 0.0
O763 O 0.97497 0.27019 0.89425 0.0
O764 O 0.03938 0.3301 0.86942 0.0
O765 O 0.05434 0.29997 0.88562 0.0
O766 O 0.49103 0.80369 0.44276 0.0
Cd767 Cd 0.49646 0.77291 0.42271 0.0
Cd768 Cd 0.52201 0.80427 0.39457 0.0
O769 O 0.5139 0.82813 0.42203 0.0
O770 O 0.48945 0.74633 0.44392 0.0
O771 O 0.52527 0.75495 0.42918 0.0
C772 C 0.51161 0.74187 0.44238 0.0
C773 C 0.55978 0.80983 0.37698 0.0
C774 C 0.50021 0.82449 0.43956 0.0
C775 C 0.47778 0.7763 0.37367 0.0
O776 O 0.49487 0.79204 0.37136 0.0
O777 O 0.47531 0.76573 0.39285 0.0
O778 O 0.54338 0.82419 0.3743 0.0
O779 O 0.55494 0.79222 0.39017 0.0
O780 O 0.9958 0.78891 0.69187 0.0
Cd781 Cd 0.02432 0.77797 0.67197 0.0
Cd782 Cd 1.00103 0.80452 0.63846 0.0
O783 O 0.97766 0.80936 0.66616 0.0
O784 O 0.04197 0.76094 0.69556 0.0
O785 O 0.05813 0.79218 0.67832 0.0
C786 C 0.06018 0.77577 0.69298 0.0
C787 C 0.01501 0.83767 0.61815 0.0
C788 C 0.97872 0.80123 0.68655 0.0
C789 C 1.00683 0.75283 0.62547 0.0
O790 O 0.9986 0.77204 0.61968 0.0
O791 O 0.01768 0.75198 0.64508 0.0
O792 O 0.99353 0.82817 0.61526 0.0
O793 O 0.02866 0.82836 0.6329 0.0
O794 O 0.49249 0.28953 0.19167 0.0
Cd795 Cd 0.52111 0.27861 0.17192 0.0
Cd796 Cd 0.4977 0.30481 0.13832 0.0
O797 O 0.47435 0.31003 0.16599 0.0
O798 O 0.53848 0.26147 0.19561 0.0
O799 O 0.55486 0.29278 0.17868 0.0
C800 C 0.55673 0.2763 0.19329 0.0
C801 C 0.51268 0.33747 0.11785 0.0
C802 C 0.47543 0.30188 0.18639 0.0
C803 C 0.50366 0.25319 0.12552 0.0
O804 O 0.49507 0.27223 0.11975 0.0
O805 O 0.51474 0.25258 0.14503 0.0
O806 O 0.491 0.32853 0.1149 0.0
O807 O 0.52589 0.32798 0.13285 0.0
C808 C 0.22078 0.86681 0.94489 0.0
C809 C 0.22519 0.8426 0.94282 0.0
C810 C 0.2265 0.88079 0.96567 0.0
C811 C 0.23693 0.87116 0.98525 0.0
H812 H 0.2134 0.87521 0.9301 0.0
H813 H 0.22325 0.89946 0.9661 0.0
S814 S 0.2498 0.80799 0.98963 0.0
N815 N 0.23886 0.80909 0.96268 0.0
N816 N 0.24991 0.83532 1.00166 0.0
C817 C 0.24076 0.84674 0.98364 0.0
C818 C 0.23485 0.83251 0.96247 0.0
C819 C 0.08912 0.54516 0.39161 0.0
C820 C 0.06564 0.55198 0.38986 0.0
C821 C 0.10237 0.5395 0.37134 0.0
C822 C 0.09276 0.54073 0.34848 0.0
H823 H 0.09743 0.54447 0.40881 0.0
H824 H 0.12055 0.53483 0.37367 0.0
S825 S 0.03156 0.55683 0.33444 0.0
N826 N 0.03298 0.55901 0.36362 0.0
N827 N 0.05776 0.54837 0.32547 0.0
C828 C 0.069 0.54694 0.34655 0.0
C829 C 0.05548 0.55254 0.36723 0.0
C830 C 0.79894 0.73117 0.93149 0.0
C831 C 0.78602 0.7516 0.93258 0.0
C832 C 0.79663 0.71466 0.94912 0.0
C833 C 0.78121 0.71786 0.96851 0.0
H834 H 0.81093 0.7279 0.91686 0.0
H835 H 0.80682 0.69912 0.94733 0.0
S836 S 0.74284 0.76831 0.97913 0.0
N837 N 0.75688 0.77391 0.95425 0.0
N838 N 0.75271 0.74331 0.98749 0.0
C839 C 0.76833 0.73842 0.96984 0.0
C840 C 0.77068 0.75515 0.95187 0.0
C841 C 0.93968 0.03349 0.38973 0.0
C842 C 0.95902 0.01923 0.38651 0.0
C843 C 0.92677 0.04031 0.37032 0.0
C844 C 0.93294 0.0334 0.34692 0.0
H845 H 0.93411 0.03894 0.40742 0.0
H846 H 0.91171 0.05091 0.37374 0.0
S847 S 0.98344 0.99729 0.32919 0.0
N848 N 0.98454 0.99934 0.35838 0.0
N849 N 0.9606 1.01216 0.32184 0.0
C850 C 0.9528 0.01969 0.34353 0.0
C851 C 0.96572 1.01258 0.36332 0.0
C852 C 0.23143 0.24756 0.61115 0.0
C853 C 0.24161 0.24116 0.63231 0.0
C854 C 0.23513 0.23483 0.58968 0.0
C855 C 0.2494 0.21532 0.5884 0.0
H856 H 0.22011 0.26227 0.61127 0.0
H857 H 0.22664 0.24036 0.57394 0.0
S858 S 0.28094 0.19204 0.63877 0.0
N859 N 0.26705 0.21451 0.65075 0.0
N860 N 0.27427 0.19061 0.61027 0.0
C861 C 0.26009 0.209 0.6094 0.0
C862 C 0.25607 0.22187 0.63138 0.0
C863 C 0.47231 0.56342 0.69114 0.0
C864 C 0.47332 0.58759 0.68629 0.0
C865 C 0.45851 0.55464 0.70975 0.0
C866 C 0.44506 0.56962 0.72436 0.0
H867 H 0.48199 0.55105 0.68021 0.0
H868 H 0.45829 0.53583 0.71254 0.0
S869 S 0.44257 0.63468 0.71987 0.0
N870 N 0.46046 0.62665 0.69817 0.0
N871 N 0.43423 0.6101 0.73304 0.0
C872 C 0.44603 0.59391 0.71984 0.0
C873 C 0.4602 0.60289 0.70085 0.0
C874 C 0.78792 0.32366 0.61986 0.0
C875 C 0.77492 0.32746 0.64077 0.0
C876 C 0.78811 0.33968 0.6019 0.0
C877 C 0.77509 0.36007 0.60393 0.0
H878 H 0.79803 0.30811 0.61736 0.0
H879 H 0.79828 0.33574 0.58608 0.0
S880 S 0.73827 0.3782 0.65542 0.0
N881 N 0.74891 0.35315 0.66277 0.0
N882 N 0.74908 0.38331 0.62891 0.0
C883 C 0.76219 0.36422 0.62492 0.0
C884 C 0.76219 0.34794 0.64336 0.0
C885 C 0.5548 0.0304 0.69199 0.0
C886 C 0.55373 1.00684 0.68238 0.0
C887 C 0.56869 0.03751 0.71208 0.0
C888 C 0.58214 0.02137 0.72343 0.0
H889 H 0.54515 0.0436 0.68366 0.0
H890 H 0.56904 0.05594 0.71859 0.0
S891 S 0.58411 0.95714 0.70626 0.0
N892 N 0.56626 0.967 0.68646 0.0
N893 N 0.59267 0.98042 0.72404 0.0
C894 C 0.58098 0.99764 0.71421 0.0
C895 C 0.56673 0.99038 0.69375 0.0
C896 C 0.94189 0.28069 0.8168 0.0
C897 C 0.91916 0.27022 0.82212 0.0
C898 C 0.96036 0.28287 0.83359 0.0
C899 C 0.95693 0.27465 0.85646 0.0
H900 H 0.94537 0.2876 0.79958 0.0
H901 H 0.97735 0.29155 0.82869 0.0
S902 S 0.90082 0.24514 0.87904 0.0
N903 N 0.89429 0.25103 0.85166 0.0
N904 N 0.92908 0.2548 0.8832 0.0
C905 C 0.9345 0.26333 0.86174 0.0
C906 C 0.91562 0.26119 0.84459 0.0
C907 C 0.50012 0.88736 0.46755 0.0
C908 C 0.48073 0.88585 0.48323 0.0
C909 C 0.50655 0.86735 0.45389 0.0
C910 C 0.49402 0.84495 0.45556 0.0
H911 H 0.50999 0.9043 0.46535 0.0
H912 H 0.52132 0.86959 0.44171 0.0
S913 S 0.44288 0.8314 0.49554 0.0
N914 N 0.44982 0.86014 0.5007 0.0
N915 N 0.46184 0.82243 0.47522 0.0
C916 C 0.47503 0.84311 0.47182 0.0
C917 C 0.46838 0.86357 0.48556 0.0
C918 C 0.11877 0.30986 0.84511 0.0
C919 C 0.12251 0.32994 0.83164 0.0
C920 C 0.09766 0.30591 0.85814 0.0
C921 C 0.07943 0.32175 0.85794 0.0
H922 H 0.1324 0.29732 0.84585 0.0
H923 H 0.09561 0.29027 0.86835 0.0
S924 S 0.08027 0.37639 0.82425 0.0
N925 N 0.10608 0.36532 0.8181 0.0
N926 N 0.06654 0.35809 0.8424 0.0
C927 C 0.08294 0.34174 0.84419 0.0
C928 C 0.10443 0.34577 0.8311 0.0
C929 C 0.55541 0.70432 0.47188 0.0
C930 C 0.54037 0.68833 0.48427 0.0
C931 C 0.54599 0.72128 0.45804 0.0
C932 C 0.52115 0.7229 0.45603 0.0
H933 H 0.57463 0.70403 0.47326 0.0
H934 H 0.55832 0.73347 0.44921 0.0
S935 S 0.47409 0.68351 0.48318 0.0
N936 N 0.49945 0.67402 0.49228 0.0
N937 N 0.4817 0.70591 0.4666 0.0
C938 C 0.50593 0.70655 0.46787 0.0
C939 C 0.51554 0.6893 0.48191 0.0
C940 C 0.9427 0.79787 0.74325 0.0
C941 C 0.92129 0.80771 0.73758 0.0
C942 C 0.96131 0.79651 0.72688 0.0
C943 C 0.95934 0.80489 0.70406 0.0
H944 H 0.94505 0.791 0.76051 0.0
H945 H 0.97725 0.78845 0.73215 0.0
S946 S 0.90693 0.83267 0.68056 0.0
N947 N 0.89916 0.82626 0.70771 0.0
N948 N 0.93419 0.82399 0.6769 0.0
C949 C 0.93818 0.81533 0.69834 0.0
C950 C 0.91918 0.81668 0.71508 0.0
C951 C 0.01415 0.88948 0.57833 0.0
C952 C 0.03825 0.89819 0.57758 0.0
C953 C 1.00691 0.87005 0.59159 0.0
C954 C 0.02345 0.85849 0.6047 0.0
H955 H 1.00069 0.8979 0.56877 0.0
H956 H 0.98811 0.86412 0.59158 0.0
S957 S 0.08893 0.87369 0.60769 0.0
N958 N 0.07885 0.89325 0.59035 0.0
N959 N 0.06523 0.85694 0.61557 0.0
C960 C 0.04765 0.86698 0.60405 0.0
C961 C 0.05504 0.88677 0.59045 0.0
C962 C 0.10253 0.7556 0.73874 0.0
C963 C 0.12473 0.76685 0.73288 0.0
C964 C 0.08188 0.75879 0.72578 0.0
C965 C 0.08247 0.77359 0.70658 0.0
H966 H 0.10119 0.74384 0.7532 0.0
H967 H 0.06529 0.74947 0.73092 0.0
S968 S 0.13615 0.80796 0.68475 0.0
N969 N 0.14615 0.79388 0.70707 0.0
N970 N 0.10723 0.80012 0.68275 0.0
C971 C 0.10453 0.78533 0.70079 0.0
C972 C 0.12567 0.78186 0.71389 0.0
C973 C 0.97923 0.70876 0.5781 0.0
C974 C 0.99122 0.68819 0.58118 0.0
C975 C 0.98492 0.72976 0.592 0.0
C976 C 1.00262 0.73092 0.60976 0.0
H977 H 0.96518 0.70855 0.56494 0.0
H978 H 0.97489 0.745 0.58916 0.0
S979 S 0.03966 0.6819 0.6244 0.0
N980 N 0.0219 0.67027 0.60283 0.0
N981 N 0.03268 0.70965 0.62903 0.0
C982 C 0.01508 0.71053 0.61268 0.0
C983 C 1.00938 0.68921 0.59837 0.0
C984 C 0.8079 0.96525 0.26384 0.0
C985 C 0.81621 0.94802 0.24758 0.0
C986 C 0.82228 0.98579 0.27099 0.0
C987 C 0.84563 0.98992 0.26221 0.0
H988 H 0.79013 0.9628 0.27121 0.0
H989 H 0.81508 0.99835 0.28376 0.0
S990 S 0.87588 0.94998 0.21925 0.0
N991 N 0.84929 0.93624 0.22301 0.0
N992 N 0.87623 0.97487 0.23604 0.0
C993 C 0.854 0.97293 0.24559 0.0
C994 C 0.83934 0.95201 0.23838 0.0
C995 C 0.83343 0.15154 0.30786 0.0
C996 C 0.81162 0.15105 0.32013 0.0
C997 C 0.84609 0.13105 0.30466 0.0
C998 C 0.83761 0.10943 0.31399 0.0
H999 H 0.84067 0.16784 0.30055 0.0
H1000 H 0.86277 0.13225 0.29505 0.0
S1001 S 0.78156 0.09919 0.34809 0.0
N1002 N 0.78223 0.12742 0.34192 0.0
N1003 N 0.80589 0.08903 0.33616 0.0
C1004 C 0.81583 0.10885 0.32642 0.0
C1005 C 0.80288 0.12961 0.32942 0.0
C1006 C 0.36722 0.95888 0.02672 0.0
C1007 C 0.36758 0.98261 0.02044 0.0
C1008 C 0.34593 0.9465 0.03337 0.0
C1009 C 0.32408 0.95728 0.03373 0.0
H1010 H 0.38352 0.94973 0.02628 0.0
H1011 H 0.34655 0.9281 0.03756 0.0
S1012 S 0.3157 0.01952 0.01954 0.0
N1013 N 0.3445 0.01669 0.01554 0.0
N1014 N 0.30447 0.9936 0.02812 0.0
C1015 C 0.32436 0.98127 0.02806 0.0
C1016 C 0.3461 0.99388 0.02141 0.0
C1017 C 0.2056 0.43434 0.28147 0.0
C1018 C 0.22009 0.42963 0.30069 0.0
C1019 C 0.19041 0.45303 0.28304 0.0
C1020 C 0.18937 0.46792 0.30379 0.0
H1021 H 0.20617 0.42361 0.26502 0.0
H1022 H 0.17992 0.4562 0.26763 0.0
S1023 S 0.22348 0.46268 0.35929 0.0
N1024 N 0.2322 0.44109 0.34119 0.0
N1025 N 0.20371 0.47605 0.34428 0.0
C1026 C 0.20344 0.46303 0.3233 0.0
C1027 C 0.21876 0.44394 0.32172 0.0
C1028 C 0.16735 0.10749 0.51144 0.0
C1029 C 0.16661 0.08904 0.49366 0.0
C1030 C 0.18837 0.12196 0.51625 0.0
C1031 C 0.20957 0.11839 0.50363 0.0
H1032 H 0.15138 0.11115 0.52133 0.0
H1033 H 0.18788 0.13618 0.52988 0.0
S1034 S 0.21719 0.07125 0.45623 0.0
N1035 N 0.18893 0.06715 0.46409 0.0
N1036 N 0.22854 0.09419 0.47306 0.0
C1037 C 0.20917 0.0995 0.48619 0.0
C1038 C 0.18767 0.08491 0.4812 0.0
C1039 C 0.72652 0.10919 0.7817 0.0
C1040 C 0.72018 0.13007 0.77176 0.0
C1041 C 0.70975 0.08988 0.78412 0.0
C1042 C 0.68586 0.09059 0.7767 0.0
H1043 H 0.74463 0.10777 0.78777 0.0
H1044 H 0.71562 0.07434 0.79211 0.0
S1045 S 0.66018 0.14129 0.74938 0.0
N1046 N 0.68845 0.15044 0.75437 0.0
N1047 N 0.65687 0.11407 0.75862 0.0
C1048 C 0.67937 0.11126 0.76629 0.0
C1049 C 0.69653 0.13099 0.76387 0.0
C1050 C 0.36394 0.10939 0.55736 0.0
C1051 C 0.37083 0.08852 0.54526 0.0
C1052 C 0.34604 0.1225 0.54835 0.0
C1053 C 0.33437 0.11534 0.52681 0.0
H1054 H 0.37264 0.1158 0.57383 0.0
H1055 H 0.34144 0.13847 0.55828 0.0
S1056 S 0.34453 0.06098 0.48913 0.0
N1057 N 0.36354 0.06056 0.51131 0.0
N1058 N 0.33037 0.08533 0.49412 0.0
C1059 C 0.34095 0.09436 0.51464 0.0
C1060 C 0.35904 0.08095 0.5239 0.0
C1061 C 0.66864 0.50245 0.54768 0.0
C1062 C 0.66167 0.50455 0.57152 0.0
C1063 C 0.68629 0.48744 0.54022 0.0
C1064 C 0.69774 0.47381 0.55626 0.0
H1065 H 0.66012 0.51224 0.53456 0.0
H1066 H 0.69085 0.48642 0.52162 0.0
S1067 S 0.68703 0.47398 0.62098 0.0
N1068 N 0.66838 0.49258 0.61141 0.0
N1069 N 0.70132 0.46407 0.59735 0.0
C1070 C 0.69109 0.47587 0.58023 0.0
C1071 C 0.67314 0.49128 0.58785 0.0
C1072 C 0.71976 0.36571 0.44459 0.0
C1073 C 0.72497 0.34172 0.4425 0.0
C1074 C 0.72543 0.37994 0.46522 0.0
C1075 C 0.73659 0.37077 0.48465 0.0
H1076 H 0.71176 0.37376 0.42991 0.0
H1077 H 0.72151 0.39844 0.46567 0.0
S1078 S 0.75181 0.30827 0.48895 0.0
N1079 N 0.74026 0.30888 0.46219 0.0
N1080 N 0.75119 0.33556 0.50092 0.0
C1081 C 0.74126 0.34656 0.48303 0.0
C1082 C 0.73542 0.33207 0.46199 0.0
C1083 C 0.55939 0.05411 0.87003 0.0
C1084 C 0.56841 0.05109 0.89272 0.0
C1085 C 0.57273 0.0489 0.84971 0.0
C1086 C 0.59558 0.04028 0.85125 0.0
H1087 H 0.5422 0.0613 0.86798 0.0
H1088 H 0.56519 0.05211 0.83268 0.0
S1089 S 0.62617 0.0272 0.90675 0.0
N1090 N 0.60071 0.03749 0.91568 0.0
N1091 N 0.6259 0.02759 0.87762 0.0
C1092 C 0.60437 0.03629 0.87391 0.0
C1093 C 0.59079 0.04177 0.89459 0.0
C1094 C 0.27831 0.2543 0.45191 0.0
C1095 C 0.28698 0.24845 0.42918 0.0
C1096 C 0.27737 0.23791 0.46956 0.0
C1097 C 0.28505 0.21488 0.4653 0.0
H1098 H 0.27189 0.27167 0.45603 0.0
H1099 H 0.27008 0.24327 0.48659 0.0
S1100 S 0.30995 0.19089 0.40878 0.0
N1101 N 0.30389 0.21821 0.40339 0.0
N1102 N 0.30241 0.18738 0.43662 0.0
C1103 C 0.29454 0.20903 0.44283 0.0
C1104 C 0.29543 0.2258 0.42478 0.0
C1105 C 0.43877 0.52594 0.88802 0.0
C1106 C 0.46196 0.51859 0.88457 0.0
C1107 C 0.4257 0.5339 0.86932 0.0
C1108 C 0.43519 0.53461 0.84629 0.0
H1109 H 0.43062 0.52548 0.90535 0.0
H1110 H 0.40779 0.53903 0.8729 0.0
S1111 S 0.49547 0.51751 0.82811 0.0
N1112 N 0.49407 0.51273 0.85658 0.0
N1113 N 0.46968 0.52773 0.82138 0.0
C1114 C 0.45859 0.52765 0.84272 0.0
C1115 C 0.47192 0.51966 0.86184 0.0
C1116 C 0.72746 0.74432 0.11424 0.0
C1117 C 0.73898 0.73871 0.13499 0.0
C1118 C 0.73102 0.73176 0.09265 0.0
C1119 C 0.74648 0.71321 0.09082 0.0
H1120 H 0.71525 0.75832 0.11477 0.0
H1121 H 0.72154 0.73672 0.07724 0.0
S1122 S 0.78164 0.69219 0.13997 0.0
N1123 N 0.76686 0.71379 0.15246 0.0
N1124 N 0.7738 0.6902 0.11175 0.0
C1125 C 0.75842 0.70764 0.11142 0.0
C1126 C 0.75457 0.72033 0.13353 0.0
C1127 C 0.96092 0.09815 0.19966 0.0
C1128 C 0.97483 0.0833 0.18543 0.0
C1129 C 0.94725 0.08929 0.21843 0.0
C1130 C 0.94693 0.06521 0.22368 0.0
H1131 H 0.96072 0.11683 0.19636 0.0
H1132 H 0.9369 0.10144 0.22891 0.0
S1133 S 0.97916 0.01864 0.19071 0.0
N1134 N 0.98657 0.04316 0.17714 0.0
N1135 N 0.96128 0.02651 0.21244 0.0
C1136 C 0.96068 0.05015 0.20943 0.0
C1137 C 0.97452 0.05919 0.19033 0.0
C1138 C 0.25845 0.84274 0.14007 0.0
C1139 C 0.27708 0.82776 0.1428 0.0
C1140 C 0.2586 0.85829 0.12158 0.0
C1141 C 0.27723 0.8592 0.10491 0.0
H1142 H 0.24361 0.84238 0.1523 0.0
H1143 H 0.24373 0.86927 0.12006 0.0
S1144 S 0.33029 0.82355 0.10438 0.0
N1145 N 0.31466 0.81485 0.12742 0.0
N1146 N 0.31509 0.84396 0.09278 0.0
C1147 C 0.29611 0.84447 0.10767 0.0
C1148 C 0.29601 0.82881 0.12657 0.0
C1149 C 0.05724 0.53295 0.18885 0.0
C1150 C 0.05543 0.50944 0.17908 0.0
C1151 C 0.07103 0.53942 0.20915 0.0
C1152 C 0.08364 0.52268 0.22056 0.0
H1153 H 0.0482 0.54658 0.18052 0.0
H1154 H 0.07192 0.55783 0.21581 0.0
S1155 S 0.08359 0.45837 0.20289 0.0
N1156 N 0.06646 0.46904 0.18296 0.0
N1157 N 0.09269 0.48126 0.22095 0.0
C1158 C 0.08181 0.49901 0.21111 0.0
C1159 C 0.06766 0.4924 0.19044 0.0
C1160 C 0.4181 0.76085 0.34264 0.0
C1161 C 0.42247 0.76824 0.31963 0.0
C1162 C 0.43633 0.76253 0.35977 0.0
C1163 C 0.45961 0.77177 0.35454 0.0
H1164 H 0.40024 0.75454 0.34774 0.0
H1165 H 0.43188 0.75744 0.37748 0.0
S1166 S 0.48108 0.79023 0.29586 0.0
N1167 N 0.45235 0.78259 0.29176 0.0
N1168 N 0.48652 0.78612 0.32392 0.0
C1169 C 0.46446 0.7781 0.33124 0.0
C1170 C 0.44593 0.77626 0.31381 0.0
C1171 C 0.99962 0.39475 0.96346 0.0
C1172 C 0.98101 0.39307 0.98001 0.0
C1173 C 1.00621 0.37462 0.95005 0.0
C1174 C 0.99463 0.35197 0.9529 0.0
H1175 H 1.00878 0.41186 0.96042 0.0
H1176 H 0.02035 0.37694 0.93719 0.0
S1177 S 0.94576 0.33805 0.99538 0.0
N1178 N 0.95184 0.36703 0.99947 0.0
N1179 N 0.96416 0.32912 0.97452 0.0
C1180 C 0.97642 0.35002 0.97 0.0
C1181 C 0.9696 0.37058 0.98345 0.0
C1182 C 0.6099 0.83937 0.34165 0.0
C1183 C 0.6267 0.82215 0.33945 0.0
C1184 C 0.58854 0.83519 0.35398 0.0
C1185 C 0.5831 0.81365 0.36484 0.0
H1186 H 0.61312 0.85615 0.33342 0.0
H1187 H 0.57617 0.84903 0.35491 0.0
S1188 S 0.62159 0.763 0.36488 0.0
N1189 N 0.63685 0.78292 0.34951 0.0
N1190 N 0.59663 0.77496 0.37285 0.0
C1191 C 0.5999 0.79633 0.36303 0.0
C1192 C 0.62166 0.80057 0.35026 0.0
C1193 C 0.05121 0.20158 0.96531 0.0
C1194 C 0.03985 0.19472 0.98629 0.0
C1195 C 0.04238 0.21918 0.95185 0.0
C1196 C 0.02176 0.23046 0.95877 0.0
H1197 H 0.06683 0.19303 0.95902 0.0
H1198 H 0.05159 0.22369 0.93573 0.0
S1199 S 0.98683 0.22067 0.01353 0.0
N1200 N 1.00801 0.20198 0.01428 0.0
N1201 N 0.99111 0.23451 0.98883 0.0
C1202 C 1.01052 0.22408 0.97996 0.0
C1203 C 0.01962 0.20635 0.99374 0.0
C1204 C 0.4401 0.29928 0.24354 0.0
C1205 C 0.41826 0.30817 0.23771 0.0
C1206 C 0.45862 0.29801 0.22706 0.0
C1207 C 0.45612 0.30556 0.20396 0.0
H1208 H 0.44287 0.29305 0.26101 0.0
H1209 H 0.47492 0.29068 0.23246 0.0
S1210 S 0.40243 0.3307 0.17994 0.0
N1211 N 0.39514 0.32495 0.20738 0.0
N1212 N 0.43001 0.32286 0.17636 0.0
C1213 C 0.43453 0.31509 0.19807 0.0
C1214 C 0.41561 0.31634 0.21493 0.0
C1215 C 0.51389 0.3884 0.07676 0.0
C1216 C 0.53823 0.39622 0.07589 0.0
C1217 C 0.50589 0.36959 0.09052 0.0
C1218 C 0.52188 0.35778 0.10404 0.0
H1219 H 0.50083 0.39704 0.06688 0.0
H1220 H 0.48694 0.36432 0.09055 0.0
S1221 S 0.58769 0.37073 0.10702 0.0
N1222 N 0.57844 0.39018 0.08907 0.0
N1223 N 0.56341 0.35504 0.11522 0.0
C1224 C 0.54632 0.3654 0.10332 0.0
C1225 C 0.55448 0.38455 0.0892 0.0
C1226 C 0.59887 0.25493 0.23857 0.0
C1227 C 0.62093 0.26698 0.23359 0.0
C1228 C 0.57833 0.25828 0.22552 0.0
C1229 C 0.57889 0.27401 0.20707 0.0
H1230 H 0.59757 0.24241 0.25238 0.0
H1231 H 0.56186 0.24831 0.22995 0.0
S1232 S 0.63218 0.31078 0.18784 0.0
N1233 N 0.64215 0.29582 0.20954 0.0
N1234 N 0.60345 0.30233 0.18501 0.0
C1235 C 0.6008 0.28656 0.20221 0.0
C1236 C 0.62183 0.28295 0.21542 0.0
C1237 C 0.4765 0.2086 0.07836 0.0
C1238 C 0.48904 0.18834 0.08129 0.0
C1239 C 0.48183 0.22967 0.09226 0.0
C1240 C 0.49971 0.23121 0.10987 0.0
H1241 H 0.46231 0.20808 0.06532 0.0
H1242 H 0.47141 0.24466 0.08954 0.0
S1243 S 0.5381 0.18311 0.1241 0.0
N1244 N 0.52038 0.17112 0.10266 0.0
N1245 N 0.5305 0.21065 0.12885 0.0
C1246 C 0.51269 0.21113 0.11265 0.0
C1247 C 0.50735 0.18975 0.09834 0.0
C1248 C 0.33475 0.45995 0.73618 0.0
C1249 C 0.31595 0.45057 0.75008 0.0
C1250 C 0.34859 0.48069 0.7437 0.0
C1251 C 0.34416 0.493 0.76542 0.0
H1252 H 0.33892 0.45109 0.71936 0.0
H1253 H 0.36304 0.48698 0.73245 0.0
S1254 S 0.29711 0.47561 0.8086 0.0
N1255 N 0.29377 0.45498 0.78676 0.0
N1256 N 0.3194 0.49419 0.80073 0.0
C1257 C 0.32507 0.48405 0.77931 0.0
C1258 C 0.31108 0.46281 0.77169 0.0
C1259 C 0.32964 0.65152 0.80473 0.0
C1260 C 0.31589 0.65522 0.8252 0.0
C1261 C 0.34221 0.63101 0.80113 0.0
C1262 C 0.34122 0.6133 0.81771 0.0
H1263 H 0.33092 0.66473 0.79157 0.0
H1264 H 0.35264 0.62898 0.78514 0.0
S1265 S 0.30679 0.61429 0.87382 0.0
N1266 N 0.30143 0.63934 0.86191 0.0
N1267 N 0.32485 0.6009 0.85529 0.0
C1268 C 0.32725 0.61677 0.83814 0.0
C1269 C 0.31466 0.63769 0.84185 0.0
C1270 C 0.86601 0.46039 0.52532 0.0
C1271 C 0.86614 0.48391 0.51845 0.0
C1272 C 0.84479 0.44793 0.53202 0.0
C1273 C 0.82278 0.45839 0.53187 0.0
H1274 H 0.88244 0.45148 0.52531 0.0
H1275 H 0.84562 0.4297 0.53671 0.0
S1276 S 0.81375 0.51999 0.51598 0.0
N1277 N 0.84266 0.51747 0.51241 0.0
N1278 N 0.80274 0.49419 0.52507 0.0
C1279 C 0.82281 0.48217 0.52557 0.0
C1280 C 0.84448 0.49488 0.51887 0.0
C1281 C 0.72827 0.95227 0.81604 0.0
C1282 C 0.72466 0.9325 0.79988 0.0
C1283 C 0.71235 0.97022 0.81729 0.0
C1284 C 0.69225 0.96933 0.80226 0.0
H1285 H 0.74363 0.95393 0.82778 0.0
H1286 H 0.71619 0.98517 0.82991 0.0
S1287 S 0.67461 0.92098 0.757 0.0
N1288 N 0.69938 0.91271 0.76877 0.0
N1289 N 0.66941 0.94656 0.77096 0.0
C1290 C 0.68822 0.94942 0.78622 0.0
C1291 C 0.7044 0.93098 0.78511 0.0
C1292 C 0.66572 0.60981 1.00291 0.0
C1293 C 0.66721 0.58719 0.99159 0.0
C1294 C 0.6863 0.62451 1.00877 0.0
C1295 C 0.70925 0.61731 1.00331 0.0
H1296 H 0.64845 0.61623 1.00726 0.0
H1297 H 0.68408 0.64187 0.01728 0.0
S1298 S 0.72273 0.55937 0.97388 0.0
N1299 N 0.69328 0.558 0.97532 0.0
N1300 N 0.73213 0.58559 0.98624 0.0
C1301 C 0.71098 0.59452 0.9922 0.0
C1302 C 0.68994 0.57947 0.98641 0.0
C1303 C 0.22692 0.60916 0.28406 0.0
C1304 C 0.22107 0.62951 0.27282 0.0
C1305 C 0.2101 0.58986 0.28637 0.0
C1306 C 0.18665 0.59006 0.27754 0.0
H1307 H 0.24471 0.60811 0.29116 0.0
H1308 H 0.21558 0.57472 0.29533 0.0
S1309 S 0.16227 0.63936 0.2467 0.0
N1310 N 0.19022 0.6489 0.25287 0.0
N1311 N 0.15857 0.61255 0.25689 0.0
C1312 C 0.18065 0.61023 0.26593 0.0
C1313 C 0.19785 0.62994 0.26364 0.0
C1314 C 0.86632 0.59475 0.0255 0.0
C1315 C 0.87042 0.59467 0.05001 0.0
C1316 C 0.84841 0.60769 0.01637 0.0
C1317 C 0.8338 0.62112 0.03133 0.0
H1318 H 0.87714 0.58482 0.01322 0.0
H1319 H 0.84599 0.60702 0.99736 0.0
S1320 S 0.83678 0.62624 0.09699 0.0
N1321 N 0.85803 0.60871 0.08918 0.0
N1322 N 0.82457 0.63328 0.07206 0.0
C1323 C 0.83779 0.62131 0.05591 0.0
C1324 C 0.85603 0.60805 0.06522 0.0
C1325 C 0.16678 0.98766 0.07912 0.0
C1326 C 0.1643 1.00879 0.06761 0.0
C1327 C 0.18437 0.97224 0.07228 0.0
C1328 C 0.20009 0.97728 0.05356 0.0
H1329 H 0.15473 0.98276 0.09327 0.0
H1330 H 0.18536 0.95606 0.08147 0.0
S1331 S 0.20262 0.03149 0.01925 0.0
N1332 N 0.18028 0.0348 0.03781 0.0
N1333 N 0.21296 1.00575 0.02462 0.0
C1334 C 0.19813 0.99862 0.04225 0.0
C1335 C 0.18034 0.01437 0.04933 0.0
loop_
_geom_bond_atom_site_label_1
_geom_bond_atom_site_label_2
_geom_bond_distance
_geom_bond_site_symmetry_2
_ccdc_geom_bond_type
C0 C1 1.264 . S
C0 C5 1.479 . S
C0 C10 1.465 . S
C1 C0 1.264 . S
C1 C3 1.339 . S
C1 H28 0.931 . S
C2 C3 1.395 . S
C2 C4 1.320 . S
C3 C1 1.339 . S
C3 C2 1.395 . S
C3 H29 0.929 . S
C4 C2 1.320 . S
C4 C5 1.405 . S
C4 H30 0.930 . S
C5 C0 1.479 . S
C5 C4 1.405 . S
C5 H31 0.931 . S
U6 O7 2.454 . S
U6 O8 2.458 . S
U6 C9 2.984 . S
U6 C10 2.847 . S
U6 C23 2.882 . S
U6 O24 2.441 . S
U6 O25 2.420 . S
U6 O26 2.455 . S
U6 O27 2.449 . S
O7 U6 2.454 . S
O7 C9 1.353 . S
O8 U6 2.458 . S
O8 C9 1.286 . S
C9 U6 2.984 . S
C9 O7 1.353 . S
C9 O8 1.286 . S
C9 C11 1.363 . S
C10 C0 1.465 . S
C10 U6 2.847 . S
C10 O24 1.249 . S
C10 O25 1.202 . S
C11 C9 1.363 . S
C11 C13 1.408 . S
C11 C16 1.342 . S
C12 C13 1.310 . S
C12 C15 1.461 . S
C12 H32 0.932 . S
C13 C11 1.408 . S
C13 C12 1.310 . S
C13 H33 0.930 . S
C14 C15 1.474 . S
C14 C16 1.285 . S
C14 H34 0.929 . S
C15 C12 1.461 . S
C15 C14 1.474 . S
C16 C11 1.342 . S
C16 C14 1.285 . S
C16 H35 0.930 . S
C17 C20 1.424 . S
C17 C22 1.245 . S
C17 C23 1.428 . S
C18 C21 1.260 . S
C18 C22 1.477 . S
C18 H36 0.932 . S
C19 C20 1.384 . S
C19 C21 1.479 . S
C19 H37 0.929 . S
C20 C17 1.424 . S
C20 C19 1.384 . S
C20 H38 0.928 . S
C21 C18 1.260 . S
C21 C19 1.479 . S
C22 C17 1.245 . S
C22 C18 1.477 . S
C22 H39 0.932 . S
C23 U6 2.882 . S
C23 C17 1.428 . S
C23 O26 1.301 . S
C23 O27 1.282 . S
O24 U6 2.441 . S
O24 C10 1.249 . S
O25 U6 2.420 . S
O25 C10 1.202 . S
O26 U6 2.455 . S
O26 C23 1.301 . S
O27 U6 2.449 . S
O27 C23 1.282 . S
H28 C1 0.931 . S
H29 C3 0.929 . S
H30 C4 0.930 . S
H31 C5 0.931 . S
H32 C12 0.932 . S
H33 C13 0.930 . S
H34 C14 0.929 . S
H35 C16 0.930 . S
H36 C18 0.932 . S
H37 C19 0.929 . S
H38 C20 0.928 . S
H39 C22 0.932 . S
C40 C41 1.264 . S
C40 C45 1.479 . S
C40 C50 1.465 . S
C41 C40 1.264 . S
C41 C43 1.339 . S
C41 H68 0.931 . S
C42 C43 1.395 . S
C42 C44 1.320 . S
C43 C41 1.339 . S
C43 C42 1.395 . S
C43 H69 0.929 . S
C44 C42 1.320 . S
C44 C45 1.405 . S
C44 H70 0.930 . S
C45 C40 1.479 . S
C45 C44 1.405 . S
C45 H71 0.931 . S
U46 O47 2.454 . S
U46 O48 2.458 . S
U46 C49 2.984 . S
U46 C50 2.847 . S
U46 C63 2.882 . S
U46 O64 2.441 . S
U46 O65 2.420 . S
U46 O66 2.455 . S
U46 O67 2.449 . S
O47 U46 2.454 . S
O47 C49 1.353 . S
O48 U46 2.458 . S
O48 C49 1.286 . S
C49 U46 2.984 . S
C49 O47 1.353 . S
C49 O48 1.286 . S
C49 C51 1.363 . S
C50 C40 1.465 . S
C50 U46 2.847 . S
C50 O64 1.249 . S
C50 O65 1.202 . S
C51 C49 1.363 . S
C51 C53 1.408 . S
C51 C56 1.342 . S
C52 C53 1.310 . S
C52 C55 1.461 . S
C52 H72 0.932 . S
C53 C51 1.408 . S
C53 C52 1.310 . S
C53 H73 0.930 . S
C54 C55 1.474 . S
C54 C56 1.285 . S
C54 H74 0.929 . S
C55 C52 1.461 . S
C55 C54 1.474 . S
C56 C51 1.342 . S
C56 C54 1.285 . S
C56 H75 0.930 . S
C57 C60 1.424 . S
C57 C62 1.245 . S
C57 C63 1.428 . S
C58 C61 1.260 . S
C58 C62 1.477 . S
C58 H76 0.932 . S
C59 C60 1.384 . S
C59 C61 1.479 . S
C59 H77 0.929 . S
C60 C57 1.424 . S
C60 C59 1.384 . S
C60 H78 0.928 . S
C61 C58 1.260 . S
C61 C59 1.479 . S
C62 C57 1.245 . S
C62 C58 1.477 . S
C62 H79 0.932 . S
C63 U46 2.882 . S
C63 C57 1.428 . S
C63 O66 1.301 . S
C63 O67 1.282 . S
O64 U46 2.441 . S
O64 C50 1.249 . S
O65 U46 2.420 . S
O65 C50 1.202 . S
O66 U46 2.455 . S
O66 C63 1.301 . S
O67 U46 2.449 . S
O67 C63 1.282 . S
H68 C41 0.931 . S
H69 C43 0.929 . S
H70 C44 0.930 . S
H71 C45 0.931 . S
H72 C52 0.932 . S
H73 C53 0.930 . S
H74 C54 0.929 . S
H75 C56 0.930 . S
H76 C58 0.932 . S
H77 C59 0.929 . S
H78 C60 0.928 . S
H79 C62 0.932 . S
C80 C81 1.264 . S
C80 C85 1.479 . S
C80 C90 1.465 . S
C81 C80 1.264 . S
C81 C83 1.339 . S
C81 H108 0.931 . S
C82 C83 1.395 . S
C82 C84 1.320 . S
C83 C81 1.339 . S
C83 C82 1.395 . S
C83 H109 0.929 . S
C84 C82 1.320 . S
C84 C85 1.405 . S
C84 H110 0.930 1_554 S
C85 C80 1.479 . S
C85 C84 1.405 . S
C85 H111 0.931 . S
U86 O87 2.454 . S
U86 O88 2.458 . S
U86 C89 2.984 . S
U86 C90 2.847 . S
U86 C103 2.882 . S
U86 O104 2.441 . S
U86 O105 2.420 . S
U86 O106 2.455 . S
U86 O107 2.449 . S
O87 U86 2.454 . S
O87 C89 1.353 . S
O88 U86 2.458 . S
O88 C89 1.286 . S
C89 U86 2.984 . S
C89 O87 1.353 . S
C89 O88 1.286 . S
C89 C91 1.363 . S
C90 C80 1.465 . S
C90 U86 2.847 . S
C90 O104 1.249 . S
C90 O105 1.202 . S
C91 C89 1.363 . S
C91 C93 1.408 . S
C91 C96 1.342 . S
C92 C93 1.310 . S
C92 C95 1.461 . S
C92 H112 0.932 . S
C93 C91 1.408 . S
C93 C92 1.310 . S
C93 H113 0.930 . S
C94 C95 1.474 . S
C94 C96 1.285 . S
C94 H114 0.929 . S
C95 C92 1.461 . S
C95 C94 1.474 . S
C96 C91 1.342 . S
C96 C94 1.285 . S
C96 H115 0.930 . S
C97 C100 1.424 . S
C97 C102 1.245 . S
C97 C103 1.428 . S
C98 C101 1.260 . S
C98 C102 1.477 . S
C98 H116 0.932 . S
C99 C100 1.384 . S
C99 C101 1.479 . S
C99 H117 0.929 . S
C100 C97 1.424 . S
C100 C99 1.384 . S
C100 H118 0.928 . S
C101 C98 1.260 . S
C101 C99 1.479 . S
C102 C97 1.245 . S
C102 C98 1.477 . S
C102 H119 0.932 . S
C103 U86 2.882 . S
C103 C97 1.428 . S
C103 O106 1.301 . S
C103 O107 1.282 . S
O104 U86 2.441 . S
O104 C90 1.249 . S
O105 U86 2.420 . S
O105 C90 1.202 . S
O106 U86 2.455 . S
O106 C103 1.301 . S
O107 U86 2.449 . S
O107 C103 1.282 . S
H108 C81 0.931 . S
H109 C83 0.929 . S
H110 C84 0.930 1_556 S
H111 C85 0.931 . S
H112 C92 0.932 . S
H113 C93 0.930 . S
H114 C94 0.929 . S
H115 C96 0.930 . S
H116 C98 0.932 . S
H117 C99 0.929 . S
H118 C100 0.928 . S
H119 C102 0.932 . S
C120 C121 1.264 . S
C120 C125 1.479 . S
C120 C130 1.465 . S
C121 C120 1.264 . S
C121 C123 1.339 . S
C121 H148 0.931 . S
C122 C123 1.395 . S
C122 C124 1.320 . S
C123 C121 1.339 . S
C123 C122 1.395 . S
C123 H149 0.929 . S
C124 C122 1.320 . S
C124 C125 1.405 . S
C124 H150 0.930 . S
C125 C120 1.479 . S
C125 C124 1.405 . S
C125 H151 0.931 . S
U126 O127 2.454 . S
U126 O128 2.458 . S
U126 C129 2.984 . S
U126 C130 2.847 . S
U126 C143 2.882 . S
U126 O144 2.441 . S
U126 O145 2.420 . S
U126 O146 2.455 . S
U126 O147 2.449 . S
O127 U126 2.454 . S
O127 C129 1.353 . S
O128 U126 2.458 . S
O128 C129 1.286 . S
C129 U126 2.984 . S
C129 O127 1.353 . S
C129 O128 1.286 . S
C129 C131 1.363 . S
C130 C120 1.465 . S
C130 U126 2.847 . S
C130 O144 1.249 . S
C130 O145 1.202 . S
C131 C129 1.363 . S
C131 C133 1.408 . S
C131 C136 1.342 . S
C132 C133 1.310 . S
C132 C135 1.461 . S
C132 H152 0.932 . S
C133 C131 1.408 . S
C133 C132 1.310 . S
C133 H153 0.930 . S
C134 C135 1.474 . S
C134 C136 1.285 . S
C134 H154 0.929 . S
C135 C132 1.461 . S
C135 C134 1.474 . S
C136 C131 1.342 . S
C136 C134 1.285 . S
C136 H155 0.930 . S
C137 C140 1.424 . S
C137 C142 1.245 . S
C137 C143 1.428 . S
C138 C141 1.260 . S
C138 C142 1.477 . S
C138 H156 0.932 . S
C139 C140 1.384 . S
C139 C141 1.479 . S
C139 H157 0.929 . S
C140 C137 1.424 . S
C140 C139 1.384 . S
C140 H158 0.928 . S
C141 C138 1.260 . S
C141 C139 1.479 . S
C142 C137 1.245 . S
C142 C138 1.477 . S
C142 H159 0.932 . S
C143 U126 2.882 . S
C143 C137 1.428 . S
C143 O146 1.301 . S
C143 O147 1.282 . S
O144 U126 2.441 . S
O144 C130 1.249 . S
O145 U126 2.420 . S
O145 C130 1.202 . S
O146 U126 2.455 . S
O146 C143 1.301 . S
O147 U126 2.449 . S
O147 C143 1.282 . S
H148 C121 0.931 . S
H149 C123 0.929 . S
H150 C124 0.930 . S
H151 C125 0.931 . S
H152 C132 0.932 . S
H153 C133 0.930 . S
H154 C134 0.929 . S
H155 C136 0.930 . S
H156 C138 0.932 . S
H157 C139 0.929 . S
H158 C140 0.928 . S
H159 C142 0.932 . S
C160 C161 1.264 . S
C160 C165 1.479 . S
C160 C170 1.465 . S
C161 C160 1.264 . S
C161 C163 1.339 . S
C161 H188 0.931 1_565 S
C162 C163 1.395 . S
C162 C164 1.320 1_455 S
C163 C161 1.339 . S
C163 C162 1.395 . S
C163 H189 0.929 1_565 S
C164 C162 1.320 1_655 S
C164 C165 1.405 1_655 S
C164 H190 0.930 . S
C165 C160 1.479 . S
C165 C164 1.405 1_455 S
C165 H191 0.931 . S
U166 O167 2.454 . S
U166 O168 2.458 . S
U166 C169 2.984 . S
U166 C170 2.847 . S
U166 C183 2.882 . S
U166 O184 2.441 . S
U166 O185 2.420 . S
U166 O186 2.455 . S
U166 O187 2.449 . S
O167 U166 2.454 . S
O167 C169 1.353 . S
O168 U166 2.458 . S
O168 C169 1.286 . S
C169 U166 2.984 . S
C169 O167 1.353 . S
C169 O168 1.286 . S
C169 C171 1.363 . S
C170 C160 1.465 . S
C170 U166 2.847 . S
C170 O184 1.249 . S
C170 O185 1.202 . S
C171 C169 1.363 . S
C171 C173 1.408 . S
C171 C176 1.342 . S
C172 C173 1.310 . S
C172 C175 1.461 . S
C172 H192 0.932 . S
C173 C171 1.408 . S
C173 C172 1.310 . S
C173 H193 0.930 . S
C174 C175 1.474 . S
C174 C176 1.285 . S
C174 H194 0.929 . S
C175 C172 1.461 . S
C175 C174 1.474 . S
C176 C171 1.342 . S
C176 C174 1.285 . S
C176 H195 0.930 . S
C177 C180 1.424 . S
C177 C182 1.245 1_545 S
C177 C183 1.428 1_545 S
C178 C181 1.260 . S
C178 C182 1.477 1_545 S
C178 H196 0.932 . S
C179 C180 1.384 . S
C179 C181 1.479 . S
C179 H197 0.929 . S
C180 C177 1.424 . S
C180 C179 1.384 . S
C180 H198 0.928 . S
C181 C178 1.260 . S
C181 C179 1.479 . S
C182 C177 1.245 1_565 S
C182 C178 1.477 1_565 S
C182 H199 0.932 . S
C183 U166 2.882 . S
C183 C177 1.428 1_565 S
C183 O186 1.301 . S
C183 O187 1.282 . S
O184 U166 2.441 . S
O184 C170 1.249 . S
O185 U166 2.420 . S
O185 C170 1.202 . S
O186 U166 2.455 . S
O186 C183 1.301 . S
O187 U166 2.449 . S
O187 C183 1.282 . S
H188 C161 0.931 1_545 S
H189 C163 0.929 1_545 S
H190 C164 0.930 . S
H191 C165 0.931 . S
H192 C172 0.932 . S
H193 C173 0.930 . S
H194 C174 0.929 . S
H195 C176 0.930 . S
H196 C178 0.932 . S
H197 C179 0.929 . S
H198 C180 0.928 . S
H199 C182 0.932 . S
C200 C201 1.264 . S
C200 C205 1.479 . S
C200 C210 1.465 . S
C201 C200 1.264 . S
C201 C203 1.339 . S
C201 H228 0.931 . S
C202 C203 1.395 . S
C202 C204 1.320 . S
C203 C201 1.339 . S
C203 C202 1.395 . S
C203 H229 0.929 . S
C204 C202 1.320 . S
C204 C205 1.405 . S
C204 H230 0.930 . S
C205 C200 1.479 . S
C205 C204 1.405 . S
C205 H231 0.931 . S
U206 O207 2.454 . S
U206 O208 2.458 . S
U206 C209 2.984 . S
U206 C210 2.847 . S
U206 C223 2.882 . S
U206 O224 2.441 . S
U206 O225 2.420 . S
U206 O226 2.455 . S
U206 O227 2.449 . S
O207 U206 2.454 . S
O207 C209 1.353 . S
O208 U206 2.458 . S
O208 C209 1.286 . S
C209 U206 2.984 . S
C209 O207 1.353 . S
C209 O208 1.286 . S
C209 C211 1.363 . S
C210 C200 1.465 . S
C210 U206 2.847 . S
C210 O224 1.249 . S
C210 O225 1.202 . S
C211 C209 1.363 . S
C211 C213 1.408 . S
C211 C216 1.342 . S
C212 C213 1.310 . S
C212 C215 1.461 . S
C212 H232 0.932 . S
C213 C211 1.408 . S
C213 C212 1.310 . S
C213 H233 0.930 . S
C214 C215 1.474 . S
C214 C216 1.285 . S
C214 H234 0.929 . S
C215 C212 1.461 . S
C215 C214 1.474 . S
C216 C211 1.342 . S
C216 C214 1.285 . S
C216 H235 0.930 . S
C217 C220 1.424 . S
C217 C222 1.245 . S
C217 C223 1.428 . S
C218 C221 1.260 . S
C218 C222 1.477 . S
C218 H236 0.932 . S
C219 C220 1.384 . S
C219 C221 1.479 . S
C219 H237 0.929 . S
C220 C217 1.424 . S
C220 C219 1.384 . S
C220 H238 0.928 . S
C221 C218 1.260 . S
C221 C219 1.479 . S
C222 C217 1.245 . S
C222 C218 1.477 . S
C222 H239 0.932 . S
C223 U206 2.882 . S
C223 C217 1.428 . S
C223 O226 1.301 . S
C223 O227 1.282 . S
O224 U206 2.441 . S
O224 C210 1.249 . S
O225 U206 2.420 . S
O225 C210 1.202 . S
O226 U206 2.455 . S
O226 C223 1.301 . S
O227 U206 2.449 . S
O227 C223 1.282 . S
H228 C201 0.931 . S
H229 C203 0.929 . S
H230 C204 0.930 . S
H231 C205 0.931 . S
H232 C212 0.932 . S
H233 C213 0.930 . S
H234 C214 0.929 . S
H235 C216 0.930 . S
H236 C218 0.932 . S
H237 C219 0.929 . S
H238 C220 0.928 . S
H239 C222 0.932 . S
C240 C241 1.264 . S
C240 C245 1.479 . S
C240 C250 1.465 . S
C241 C240 1.264 . S
C241 C243 1.339 . S
C241 H268 0.931 . S
C242 C243 1.395 . S
C242 C244 1.320 . S
C243 C241 1.339 . S
C243 C242 1.395 . S
C243 H269 0.929 . S
C244 C242 1.320 . S
C244 C245 1.405 . S
C244 H270 0.930 . S
C245 C240 1.479 . S
C245 C244 1.405 . S
C245 H271 0.931 . S
U246 O247 2.454 . S
U246 O248 2.458 . S
U246 C249 2.984 . S
U246 C250 2.847 . S
U246 C263 2.882 . S
U246 O264 2.441 . S
U246 O265 2.420 . S
U246 O266 2.455 . S
U246 O267 2.449 . S
O247 U246 2.454 . S
O247 C249 1.353 . S
O248 U246 2.458 . S
O248 C249 1.286 . S
C249 U246 2.984 . S
C249 O247 1.353 . S
C249 O248 1.286 . S
C249 C251 1.363 . S
C250 C240 1.465 . S
C250 U246 2.847 . S
C250 O264 1.249 . S
C250 O265 1.202 . S
C251 C249 1.363 . S
C251 C253 1.408 . S
C251 C256 1.342 . S
C252 C253 1.310 . S
C252 C255 1.461 . S
C252 H272 0.932 . S
C253 C251 1.408 . S
C253 C252 1.310 . S
C253 H273 0.930 . S
C254 C255 1.474 . S
C254 C256 1.285 . S
C254 H274 0.929 . S
C255 C252 1.461 . S
C255 C254 1.474 . S
C256 C251 1.342 . S
C256 C254 1.285 . S
C256 H275 0.930 . S
C257 C260 1.424 . S
C257 C262 1.245 . S
C257 C263 1.428 . S
C258 C261 1.260 . S
C258 C262 1.477 . S
C258 H276 0.932 . S
C259 C260 1.385 . S
C259 C261 1.479 . S
C259 H277 0.928 1_655 S
C260 C257 1.424 . S
C260 C259 1.385 . S
C260 H278 0.928 . S
C261 C258 1.260 . S
C261 C259 1.479 . S
C262 C257 1.245 . S
C262 C258 1.477 . S
C262 H279 0.932 . S
C263 U246 2.882 . S
C263 C257 1.428 . S
C263 O266 1.301 . S
C263 O267 1.282 . S
O264 U246 2.441 . S
O264 C250 1.249 . S
O265 U246 2.420 . S
O265 C250 1.202 . S
O266 U246 2.455 . S
O266 C263 1.301 . S
O267 U246 2.449 . S
O267 C263 1.282 . S
H268 C241 0.931 . S
H269 C243 0.929 . S
H270 C244 0.930 . S
H271 C245 0.931 . S
H272 C252 0.932 . S
H273 C253 0.930 . S
H274 C254 0.929 . S
H275 C256 0.930 . S
H276 C258 0.932 . S
H277 C259 0.928 1_455 S
H278 C260 0.928 . S
H279 C262 0.932 . S
C280 C281 1.264 . S
C280 C285 1.479 . S
C280 C290 1.465 . S
C281 C280 1.264 . S
C281 C283 1.339 . S
C281 H308 0.931 . S
C282 C283 1.395 . S
C282 C284 1.320 . S
C283 C281 1.339 . S
C283 C282 1.395 . S
C283 H309 0.929 . S
C284 C282 1.320 . S
C284 C285 1.405 . S
C284 H310 0.930 . S
C285 C280 1.479 . S
C285 C284 1.405 . S
C285 H311 0.931 . S
U286 O287 2.454 . S
U286 O288 2.458 . S
U286 C289 2.984 . S
U286 C290 2.847 . S
U286 C303 2.882 . S
U286 O304 2.441 . S
U286 O305 2.420 . S
U286 O306 2.455 . S
U286 O307 2.449 . S
O287 U286 2.454 . S
O287 C289 1.353 . S
O288 U286 2.458 . S
O288 C289 1.286 . S
C289 U286 2.984 . S
C289 O287 1.353 . S
C289 O288 1.286 . S
C289 C291 1.363 . S
C290 C280 1.465 . S
C290 U286 2.847 . S
C290 O304 1.249 . S
C290 O305 1.202 . S
C291 C289 1.363 . S
C291 C293 1.408 . S
C291 C296 1.342 . S
C292 C293 1.310 . S
C292 C295 1.461 . S
C292 H312 0.932 . S
C293 C291 1.408 . S
C293 C292 1.310 . S
C293 H313 0.930 . S
C294 C295 1.474 . S
C294 C296 1.285 . S
C294 H314 0.929 . S
C295 C292 1.461 . S
C295 C294 1.474 . S
C296 C291 1.342 . S
C296 C294 1.285 . S
C296 H315 0.930 . S
C297 C300 1.424 . S
C297 C302 1.245 . S
C297 C303 1.428 . S
C298 C301 1.260 . S
C298 C302 1.477 . S
C298 H316 0.932 . S
C299 C300 1.384 . S
C299 C301 1.479 . S
C299 H317 0.929 . S
C300 C297 1.424 . S
C300 C299 1.384 . S
C300 H318 0.928 . S
C301 C298 1.260 . S
C301 C299 1.479 . S
C302 C297 1.245 . S
C302 C298 1.477 . S
C302 H319 0.932 . S
C303 U286 2.882 . S
C303 C297 1.428 . S
C303 O306 1.301 . S
C303 O307 1.282 . S
O304 U286 2.441 . S
O304 C290 1.249 . S
O305 U286 2.420 . S
O305 C290 1.202 . S
O306 U286 2.455 . S
O306 C303 1.301 . S
O307 U286 2.449 . S
O307 C303 1.282 . S
H308 C281 0.931 . S
H309 C283 0.929 . S
H310 C284 0.930 . S
H311 C285 0.931 . S
H312 C292 0.932 . S
H313 C293 0.930 . S
H314 C294 0.929 . S
H315 C296 0.930 . S
H316 C298 0.932 . S
H317 C299 0.929 . S
H318 C300 0.928 . S
H319 C302 0.932 . S
C320 C321 1.264 . S
C320 C325 1.479 . S
C320 C330 1.465 . S
C321 C320 1.264 . S
C321 C323 1.339 . S
C321 H348 0.931 . S
C322 C323 1.395 . S
C322 C324 1.320 . S
C323 C321 1.339 . S
C323 C322 1.395 . S
C323 H349 0.929 . S
C324 C322 1.320 . S
C324 C325 1.405 . S
C324 H350 0.930 . S
C325 C320 1.479 . S
C325 C324 1.405 . S
C325 H351 0.931 . S
U326 O327 2.454 . S
U326 O328 2.458 . S
U326 C329 2.984 . S
U326 C330 2.847 . S
U326 C343 2.882 . S
U326 O344 2.441 . S
U326 O345 2.420 . S
U326 O346 2.455 . S
U326 O347 2.449 . S
O327 U326 2.454 . S
O327 C329 1.353 . S
O328 U326 2.458 . S
O328 C329 1.286 . S
C329 U326 2.984 . S
C329 O327 1.353 . S
C329 O328 1.286 . S
C329 C331 1.363 . S
C330 C320 1.465 . S
C330 U326 2.847 . S
C330 O344 1.249 . S
C330 O345 1.202 . S
C331 C329 1.363 . S
C331 C333 1.408 . S
C331 C336 1.342 . S
C332 C333 1.310 . S
C332 C335 1.461 . S
C332 H352 0.932 . S
C333 C331 1.408 . S
C333 C332 1.310 . S
C333 H353 0.930 . S
C334 C335 1.474 . S
C334 C336 1.285 . S
C334 H354 0.929 . S
C335 C332 1.461 . S
C335 C334 1.474 . S
C336 C331 1.342 . S
C336 C334 1.285 . S
C336 H355 0.930 . S
C337 C340 1.424 . S
C337 C342 1.245 . S
C337 C343 1.428 . S
C338 C341 1.260 . S
C338 C342 1.477 . S
C338 H356 0.932 . S
C339 C340 1.384 . S
C339 C341 1.479 . S
C339 H357 0.929 . S
C340 C337 1.424 . S
C340 C339 1.384 . S
C340 H358 0.928 . S
C341 C338 1.260 . S
C341 C339 1.479 . S
C342 C337 1.245 . S
C342 C338 1.477 . S
C342 H359 0.932 . S
C343 U326 2.882 . S
C343 C337 1.428 . S
C343 O346 1.301 . S
C343 O347 1.282 . S
O344 U326 2.441 . S
O344 C330 1.249 . S
O345 U326 2.420 . S
O345 C330 1.202 . S
O346 U326 2.455 . S
O346 C343 1.301 . S
O347 U326 2.449 . S
O347 C343 1.282 . S
H348 C321 0.931 . S
H349 C323 0.929 . S
H350 C324 0.930 . S
H351 C325 0.931 . S
H352 C332 0.932 . S
H353 C333 0.930 . S
H354 C334 0.929 . S
H355 C336 0.930 . S
H356 C338 0.932 . S
H357 C339 0.929 . S
H358 C340 0.928 . S
H359 C342 0.932 . S
C360 C361 1.264 . S
C360 C365 1.479 . S
C360 C370 1.465 . S
C361 C360 1.264 . S
C361 C363 1.339 . S
C361 H388 0.931 . S
C362 C363 1.395 . S
C362 C364 1.320 . S
C363 C361 1.339 . S
C363 C362 1.395 . S
C363 H389 0.929 . S
C364 C362 1.320 . S
C364 C365 1.405 . S
C364 H390 0.930 . S
C365 C360 1.479 . S
C365 C364 1.405 . S
C365 H391 0.931 . S
U366 O367 2.454 . S
U366 O368 2.458 . S
U366 C369 2.984 . S
U366 C370 2.847 . S
U366 C383 2.882 . S
U366 O384 2.441 . S
U366 O385 2.420 . S
U366 O386 2.455 . S
U366 O387 2.449 . S
O367 U366 2.454 . S
O367 C369 1.353 . S
O368 U366 2.458 . S
O368 C369 1.286 . S
C369 U366 2.984 . S
C369 O367 1.353 . S
C369 O368 1.286 . S
C369 C371 1.363 . S
C370 C360 1.465 . S
C370 U366 2.847 . S
C370 O384 1.249 . S
C370 O385 1.202 . S
C371 C369 1.363 . S
C371 C373 1.408 . S
C371 C376 1.342 . S
C372 C373 1.310 . S
C372 C375 1.461 1_565 S
C372 H392 0.932 . S
C373 C371 1.408 . S
C373 C372 1.310 . S
C373 H393 0.930 . S
C374 C375 1.474 . S
C374 C376 1.285 1_545 S
C374 H394 0.929 . S
C375 C372 1.461 1_545 S
C375 C374 1.474 . S
C376 C371 1.342 . S
C376 C374 1.285 1_565 S
C376 H395 0.930 . S
C377 C380 1.424 . S
C377 C382 1.245 . S
C377 C383 1.428 . S
C378 C381 1.260 . S
C378 C382 1.477 . S
C378 H396 0.932 . S
C379 C380 1.384 . S
C379 C381 1.479 . S
C379 H397 0.929 . S
C380 C377 1.424 . S
C380 C379 1.384 . S
C380 H398 0.928 . S
C381 C378 1.260 . S
C381 C379 1.479 . S
C382 C377 1.245 . S
C382 C378 1.477 . S
C382 H399 0.932 . S
C383 U366 2.882 . S
C383 C377 1.428 . S
C383 O386 1.301 . S
C383 O387 1.282 . S
O384 U366 2.441 . S
O384 C370 1.249 . S
O385 U366 2.420 . S
O385 C370 1.202 . S
O386 U366 2.455 . S
O386 C383 1.301 . S
O387 U366 2.449 . S
O387 C383 1.282 . S
H388 C361 0.931 . S
H389 C363 0.929 . S
H390 C364 0.930 . S
H391 C365 0.931 . S
H392 C372 0.932 . S
H393 C373 0.930 . S
H394 C374 0.929 . S
H395 C376 0.930 . S
H396 C378 0.932 . S
H397 C379 0.929 . S
H398 C380 0.928 . S
H399 C382 0.932 . S
C400 C401 1.264 . S
C400 C405 1.479 . S
C400 C410 1.465 . S
C401 C400 1.264 . S
C401 C403 1.339 . S
C401 H428 0.931 . S
C402 C403 1.395 . S
C402 C404 1.320 . S
C403 C401 1.339 . S
C403 C402 1.395 . S
C403 H429 0.929 . S
C404 C402 1.320 . S
C404 C405 1.405 . S
C404 H430 0.930 . S
C405 C400 1.479 . S
C405 C404 1.405 . S
C405 H431 0.931 . S
U406 O407 2.454 . S
U406 O408 2.458 . S
U406 C409 2.984 . S
U406 C410 2.847 . S
U406 C423 2.882 . S
U406 O424 2.441 . S
U406 O425 2.420 . S
U406 O426 2.455 . S
U406 O427 2.449 . S
O407 U406 2.454 . S
O407 C409 1.353 . S
O408 U406 2.458 . S
O408 C409 1.286 . S
C409 U406 2.984 . S
C409 O407 1.353 . S
C409 O408 1.286 . S
C409 C411 1.363 . S
C410 C400 1.465 . S
C410 U406 2.847 . S
C410 O424 1.249 . S
C410 O425 1.202 . S
C411 C409 1.363 . S
C411 C413 1.408 . S
C411 C416 1.342 . S
C412 C413 1.310 . S
C412 C415 1.461 . S
C412 H432 0.932 . S
C413 C411 1.408 . S
C413 C412 1.310 . S
C413 H433 0.930 . S
C414 C415 1.474 . S
C414 C416 1.285 . S
C414 H434 0.929 . S
C415 C412 1.461 . S
C415 C414 1.474 . S
C416 C411 1.342 . S
C416 C414 1.285 . S
C416 H435 0.930 . S
C417 C420 1.424 . S
C417 C422 1.245 . S
C417 C423 1.428 . S
C418 C421 1.260 . S
C418 C422 1.477 . S
C418 H436 0.932 . S
C419 C420 1.384 . S
C419 C421 1.479 . S
C419 H437 0.929 . S
C420 C417 1.424 . S
C420 C419 1.384 . S
C420 H438 0.928 . S
C421 C418 1.260 . S
C421 C419 1.479 . S
C422 C417 1.245 . S
C422 C418 1.477 . S
C422 H439 0.932 . S
C423 U406 2.882 . S
C423 C417 1.428 . S
C423 O426 1.301 . S
C423 O427 1.282 . S
O424 U406 2.441 . S
O424 C410 1.249 . S
O425 U406 2.420 . S
O425 C410 1.202 . S
O426 U406 2.455 . S
O426 C423 1.301 . S
O427 U406 2.449 . S
O427 C423 1.282 . S
H428 C401 0.931 . S
H429 C403 0.929 . S
H430 C404 0.930 . S
H431 C405 0.931 . S
H432 C412 0.932 . S
H433 C413 0.930 . S
H434 C414 0.929 . S
H435 C416 0.930 . S
H436 C418 0.932 . S
H437 C419 0.929 . S
H438 C420 0.928 . S
H439 C422 0.932 . S
C440 C441 1.264 . S
C440 C445 1.479 . S
C440 C450 1.465 . S
C441 C440 1.264 . S
C441 C443 1.339 . S
C441 H468 0.931 . S
C442 C443 1.395 . S
C442 C444 1.320 . S
C443 C441 1.339 . S
C443 C442 1.395 . S
C443 H469 0.929 . S
C444 C442 1.320 . S
C444 C445 1.405 . S
C444 H470 0.930 . S
C445 C440 1.479 . S
C445 C444 1.405 . S
C445 H471 0.931 . S
U446 O447 2.454 . S
U446 O448 2.458 . S
U446 C449 2.984 . S
U446 C450 2.847 . S
U446 C463 2.882 . S
U446 O464 2.441 . S
U446 O465 2.420 . S
U446 O466 2.455 . S
U446 O467 2.449 . S
O447 U446 2.454 . S
O447 C449 1.353 . S
O448 U446 2.458 . S
O448 C449 1.286 . S
C449 U446 2.984 . S
C449 O447 1.353 . S
C449 O448 1.286 . S
C449 C451 1.363 . S
C450 C440 1.465 . S
C450 U446 2.847 . S
C450 O464 1.249 . S
C450 O465 1.202 . S
C451 C449 1.363 . S
C451 C453 1.408 . S
C451 C456 1.342 . S
C452 C453 1.310 . S
C452 C455 1.461 . S
C452 H472 0.932 . S
C453 C451 1.408 . S
C453 C452 1.310 . S
C453 H473 0.930 . S
C454 C455 1.474 . S
C454 C456 1.285 . S
C454 H474 0.929 . S
C455 C452 1.461 . S
C455 C454 1.474 . S
C456 C451 1.342 . S
C456 C454 1.285 . S
C456 H475 0.930 . S
C457 C460 1.424 . S
C457 C462 1.245 . S
C457 C463 1.428 . S
C458 C461 1.260 . S
C458 C462 1.477 . S
C458 H476 0.932 . S
C459 C460 1.384 . S
C459 C461 1.479 . S
C459 H477 0.929 . S
C460 C457 1.424 . S
C460 C459 1.384 . S
C460 H478 0.928 . S
C461 C458 1.260 . S
C461 C459 1.479 . S
C462 C457 1.245 . S
C462 C458 1.477 . S
C462 H479 0.932 . S
C463 U446 2.882 . S
C463 C457 1.428 . S
C463 O466 1.301 . S
C463 O467 1.282 . S
O464 U446 2.441 . S
O464 C450 1.249 . S
O465 U446 2.420 . S
O465 C450 1.202 . S
O466 U446 2.455 . S
O466 C463 1.301 . S
O467 U446 2.449 . S
O467 C463 1.282 . S
H468 C441 0.931 . S
H469 C443 0.929 . S
H470 C444 0.930 . S
H471 C445 0.931 . S
H472 C452 0.932 . S
H473 C453 0.930 . S
H474 C454 0.929 . S
H475 C456 0.930 . S
H476 C458 0.932 . S
H477 C459 0.929 . S
H478 C460 0.928 . S
H479 C462 0.932 . S
C480 C481 1.264 . S
C480 C485 1.479 . S
C480 C490 1.465 . S
C481 C480 1.264 . S
C481 C483 1.339 . S
C481 H508 0.931 . S
C482 C483 1.395 . S
C482 C484 1.320 . S
C483 C481 1.339 . S
C483 C482 1.395 . S
C483 H509 0.929 . S
C484 C482 1.320 . S
C484 C485 1.405 . S
C484 H510 0.930 . S
C485 C480 1.479 . S
C485 C484 1.405 . S
C485 H511 0.931 . S
U486 O487 2.454 . S
U486 O488 2.458 . S
U486 C489 2.984 . S
U486 C490 2.847 . S
U486 C503 2.882 . S
U486 O504 2.441 . S
U486 O505 2.420 . S
U486 O506 2.455 . S
U486 O507 2.449 . S
O487 U486 2.454 . S
O487 C489 1.353 . S
O488 U486 2.458 . S
O488 C489 1.286 . S
C489 U486 2.984 . S
C489 O487 1.353 . S
C489 O488 1.286 . S
C489 C491 1.363 . S
C490 C480 1.465 . S
C490 U486 2.847 . S
C490 O504 1.249 . S
C490 O505 1.202 . S
C491 C489 1.363 . S
C491 C493 1.408 . S
C491 C496 1.342 . S
C492 C493 1.310 . S
C492 C495 1.461 . S
C492 H512 0.932 . S
C493 C491 1.408 . S
C493 C492 1.310 . S
C493 H513 0.930 . S
C494 C495 1.474 . S
C494 C496 1.285 . S
C494 H514 0.929 . S
C495 C492 1.461 . S
C495 C494 1.474 . S
C496 C491 1.342 . S
C496 C494 1.285 . S
C496 H515 0.930 . S
C497 C500 1.424 . S
C497 C502 1.245 . S
C497 C503 1.428 . S
C498 C501 1.260 . S
C498 C502 1.477 . S
C498 H516 0.932 . S
C499 C500 1.384 . S
C499 C501 1.479 . S
C499 H517 0.929 . S
C500 C497 1.424 . S
C500 C499 1.384 . S
C500 H518 0.928 . S
C501 C498 1.260 . S
C501 C499 1.479 . S
C502 C497 1.245 . S
C502 C498 1.477 . S
C502 H519 0.932 . S
C503 U486 2.882 . S
C503 C497 1.428 . S
C503 O506 1.301 . S
C503 O507 1.282 . S
O504 U486 2.441 . S
O504 C490 1.249 . S
O505 U486 2.420 . S
O505 C490 1.202 . S
O506 U486 2.455 . S
O506 C503 1.301 . S
O507 U486 2.449 . S
O507 C503 1.282 . S
H508 C481 0.931 . S
H509 C483 0.929 . S
H510 C484 0.930 . S
H511 C485 0.931 . S
H512 C492 0.932 . S
H513 C493 0.930 . S
H514 C494 0.929 . S
H515 C496 0.930 . S
H516 C498 0.932 . S
H517 C499 0.929 . S
H518 C500 0.928 . S
H519 C502 0.932 . S
C520 C521 1.264 . S
C520 C525 1.479 . S
C520 C530 1.465 . S
C521 C520 1.264 . S
C521 C523 1.339 . S
C521 H548 0.931 . S
C522 C523 1.395 . S
C522 C524 1.320 . S
C523 C521 1.339 . S
C523 C522 1.395 . S
C523 H549 0.929 . S
C524 C522 1.320 . S
C524 C525 1.405 . S
C524 H550 0.930 . S
C525 C520 1.479 . S
C525 C524 1.405 . S
C525 H551 0.931 . S
U526 O527 2.454 . S
U526 O528 2.458 . S
U526 C529 2.984 . S
U526 C530 2.847 . S
U526 C543 2.882 . S
U526 O544 2.441 . S
U526 O545 2.420 . S
U526 O546 2.455 . S
U526 O547 2.449 . S
O527 U526 2.454 . S
O527 C529 1.353 . S
O528 U526 2.458 . S
O528 C529 1.286 . S
C529 U526 2.984 . S
C529 O527 1.353 . S
C529 O528 1.286 . S
C529 C531 1.363 . S
C530 C520 1.465 . S
C530 U526 2.847 . S
C530 O544 1.249 . S
C530 O545 1.202 . S
C531 C529 1.363 . S
C531 C533 1.408 . S
C531 C536 1.342 . S
C532 C533 1.310 . S
C532 C535 1.461 . S
C532 H552 0.932 . S
C533 C531 1.408 . S
C533 C532 1.310 . S
C533 H553 0.930 . S
C534 C535 1.474 . S
C534 C536 1.285 . S
C534 H554 0.950 . S
C535 C532 1.461 . S
C535 C534 1.474 . S
C536 C531 1.342 . S
C536 C534 1.285 . S
C536 H555 0.930 . S
C537 C540 1.424 . S
C537 C542 1.245 . S
C537 C543 1.428 . S
C538 C541 1.260 . S
C538 C542 1.477 . S
C538 H556 0.932 . S
C539 C540 1.384 . S
C539 C541 1.479 . S
C539 H557 0.929 . S
C540 C537 1.424 . S
C540 C539 1.384 . S
C540 H558 0.928 . S
C541 C538 1.260 . S
C541 C539 1.479 . S
C542 C537 1.245 . S
C542 C538 1.477 . S
C542 H559 0.932 . S
C543 U526 2.882 . S
C543 C537 1.428 . S
C543 O546 1.301 . S
C543 O547 1.282 . S
O544 U526 2.441 . S
O544 C530 1.249 . S
O545 U526 2.420 . S
O545 C530 1.202 . S
O546 U526 2.455 . S
O546 C543 1.301 . S
O547 U526 2.449 . S
O547 C543 1.282 . S
H548 C521 0.931 . S
H549 C523 0.929 . S
H550 C524 0.930 . S
H551 C525 0.931 . S
H552 C532 0.932 . S
H553 C533 0.930 . S
H554 C534 0.950 . S
H555 C536 0.930 . S
H556 C538 0.932 . S
H557 C539 0.929 . S
H558 C540 0.928 . S
H559 C542 0.932 . S
C560 C561 1.264 . S
C560 C565 1.479 . S
C560 C570 1.465 . S
C561 C560 1.264 . S
C561 C563 1.339 . S
C561 H588 0.931 . S
C562 C563 1.395 . S
C562 C564 1.320 . S
C563 C561 1.339 . S
C563 C562 1.395 . S
C563 H589 0.929 . S
C564 C562 1.320 . S
C564 C565 1.405 . S
C564 H590 0.930 . S
C565 C560 1.479 . S
C565 C564 1.405 . S
C565 H591 0.931 . S
U566 O567 2.454 . S
U566 O568 2.458 . S
U566 C569 2.984 . S
U566 C570 2.847 . S
U566 C583 2.882 . S
U566 O584 2.441 . S
U566 O585 2.420 . S
U566 O586 2.455 . S
U566 O587 2.449 . S
O567 U566 2.454 . S
O567 C569 1.353 . S
O568 U566 2.458 . S
O568 C569 1.286 . S
C569 U566 2.984 . S
C569 O567 1.353 . S
C569 O568 1.286 . S
C569 C571 1.363 . S
C570 C560 1.465 . S
C570 U566 2.847 . S
C570 O584 1.249 . S
C570 O585 1.202 . S
C571 C569 1.363 . S
C571 C573 1.408 . S
C571 C576 1.342 . S
C572 C573 1.310 . S
C572 C575 1.461 . S
C572 H592 0.932 . S
C573 C571 1.408 . S
C573 C572 1.310 . S
C573 H593 0.930 . S
C574 C575 1.474 . S
C574 C576 1.285 . S
C574 H594 0.929 . S
C575 C572 1.461 . S
C575 C574 1.474 . S
C576 C571 1.342 . S
C576 C574 1.285 . S
C576 H595 0.930 . S
C577 C580 1.424 . S
C577 C582 1.245 . S
C577 C583 1.428 . S
C578 C581 1.260 . S
C578 C582 1.477 . S
C578 H596 0.932 . S
C579 C580 1.384 . S
C579 C581 1.479 . S
C579 H597 0.929 . S
C580 C577 1.424 . S
C580 C579 1.384 . S
C580 H598 0.928 . S
C581 C578 1.260 . S
C581 C579 1.479 . S
C582 C577 1.245 . S
C582 C578 1.477 . S
C582 H599 0.932 . S
C583 U566 2.882 . S
C583 C577 1.428 . S
C583 O586 1.301 . S
C583 O587 1.282 . S
O584 U566 2.441 . S
O584 C570 1.249 . S
O585 U566 2.420 . S
O585 C570 1.202 . S
O586 U566 2.455 . S
O586 C583 1.301 . S
O587 U566 2.449 . S
O587 C583 1.282 . S
H588 C561 0.931 . S
H589 C563 0.929 . S
H590 C564 0.930 . S
H591 C565 0.931 . S
H592 C572 0.932 . S
H593 C573 0.930 . S
H594 C574 0.929 . S
H595 C576 0.930 . S
H596 C578 0.932 . S
H597 C579 0.929 . S
H598 C580 0.928 . S
H599 C582 0.932 . S
C600 C601 1.264 . S
C600 C605 1.479 1_556 S
C600 C610 1.465 . S
C601 C600 1.264 . S
C601 C603 1.339 . S
C601 H628 0.931 . S
C602 C603 1.395 1_554 S
C602 C604 1.320 . S
C603 C601 1.339 . S
C603 C602 1.395 1_556 S
C603 H629 0.929 . S
C604 C602 1.320 . S
C604 C605 1.405 . S
C604 H630 0.930 . S
C605 C600 1.479 1_554 S
C605 C604 1.405 . S
C605 H631 0.931 . S
U606 O607 2.454 . S
U606 O608 2.458 . S
U606 C609 2.984 . S
U606 C610 2.847 . S
U606 C623 2.882 . S
U606 O624 2.441 . S
U606 O625 2.420 . S
U606 O626 2.455 . S
U606 O627 2.449 . S
O607 U606 2.454 . S
O607 C609 1.353 . S
O608 U606 2.458 . S
O608 C609 1.286 . S
C609 U606 2.984 . S
C609 O607 1.353 . S
C609 O608 1.286 . S
C609 C611 1.363 . S
C610 C600 1.465 . S
C610 U606 2.847 . S
C610 O624 1.249 . S
C610 O625 1.202 . S
C611 C609 1.363 . S
C611 C613 1.408 . S
C611 C616 1.342 . S
C612 C613 1.310 . S
C612 C615 1.461 . S
C612 H632 0.961 . S
C613 C611 1.408 . S
C613 C612 1.310 . S
C613 H633 0.930 . S
C614 C615 1.474 . S
C614 C616 1.285 . S
C614 H634 0.929 . S
C615 C612 1.461 . S
C615 C614 1.474 . S
C616 C611 1.342 . S
C616 C614 1.285 . S
C616 H635 0.930 . S
C617 C620 1.424 . S
C617 C622 1.245 . S
C617 C623 1.428 . S
C618 C621 1.260 . S
C618 C622 1.477 . S
C618 H636 0.932 . S
C619 C620 1.384 . S
C619 C621 1.479 . S
C619 H637 0.929 . S
C620 C617 1.424 . S
C620 C619 1.384 . S
C620 H638 0.928 . S
C621 C618 1.260 . S
C621 C619 1.479 . S
C622 C617 1.245 . S
C622 C618 1.477 . S
C622 H639 0.932 . S
C623 U606 2.882 . S
C623 C617 1.428 . S
C623 O626 1.301 . S
C623 O627 1.282 . S
O624 U606 2.441 . S
O624 C610 1.249 . S
O625 U606 2.420 . S
O625 C610 1.202 . S
O626 U606 2.455 . S
O626 C623 1.301 . S
O627 U606 2.449 . S
O627 C623 1.282 . S
H628 C601 0.931 . S
H629 C603 0.929 . S
H630 C604 0.930 . S
H631 C605 0.931 . S
H632 C612 0.961 . S
H633 C613 0.930 . S
H634 C614 0.929 . S
H635 C616 0.930 . S
H636 C618 0.932 . S
H637 C619 0.929 . S
H638 C620 0.928 . S
H639 C622 0.932 . S
O640 Cd641 2.223 . S
O640 C648 1.315 . S
Cd641 O640 2.223 . S
Cd641 O644 2.297 . S
Cd641 O645 2.439 . S
Cd641 O651 2.240 . S
Cd642 O643 2.240 . S
Cd642 O650 2.223 . S
Cd642 O652 2.297 . S
Cd642 O653 2.439 . S
O643 Cd642 2.240 . S
O643 C648 1.279 . S
O644 Cd641 2.297 . S
O644 C646 1.247 . S
O645 Cd641 2.439 . S
O645 C646 1.208 . S
C646 O644 1.247 . S
C646 O645 1.208 . S
C647 O652 1.247 . S
C647 O653 1.208 . S
C648 O640 1.315 . S
C648 O643 1.279 . S
C649 O650 1.315 . S
C649 O651 1.279 . S
O650 Cd642 2.223 . S
O650 C649 1.315 . S
O651 Cd641 2.240 . S
O651 C649 1.279 . S
O652 Cd642 2.297 . S
O652 C647 1.247 . S
O653 Cd642 2.439 . S
O653 C647 1.208 . S
O654 Cd655 2.223 . S
O654 C662 1.315 . S
Cd655 O654 2.223 . S
Cd655 O658 2.297 . S
Cd655 O659 2.439 . S
Cd655 O665 2.240 . S
Cd656 O657 2.240 . S
Cd656 O664 2.223 . S
Cd656 O666 2.297 . S
Cd656 O667 2.439 . S
O657 Cd656 2.240 . S
O657 C662 1.279 . S
O658 Cd655 2.297 . S
O658 C660 1.247 . S
O659 Cd655 2.439 . S
O659 C660 1.208 . S
C660 O658 1.247 . S
C660 O659 1.208 . S
C661 O666 1.247 . S
C661 O667 1.208 . S
C662 O654 1.315 . S
C662 O657 1.279 . S
C663 O664 1.315 . S
C663 O665 1.279 . S
O664 Cd656 2.223 . S
O664 C663 1.315 . S
O665 Cd655 2.240 . S
O665 C663 1.279 . S
O666 Cd656 2.297 . S
O666 C661 1.247 . S
O667 Cd656 2.439 . S
O667 C661 1.208 . S
O668 Cd669 2.223 1_556 S
O668 C676 1.315 . S
Cd669 O668 2.223 1_554 S
Cd669 O672 2.297 . S
Cd669 O673 2.439 . S
Cd669 O679 2.240 . S
Cd670 O671 2.240 . S
Cd670 O678 2.223 . S
Cd670 O680 2.297 1_556 S
Cd670 O681 2.439 1_556 S
O671 Cd670 2.240 . S
O671 C676 1.279 . S
O672 Cd669 2.297 . S
O672 C674 1.247 . S
O673 Cd669 2.439 . S
O673 C674 1.208 . S
C674 O672 1.247 . S
C674 O673 1.208 . S
C675 O680 1.249 . S
C675 O681 1.208 . S
C676 O668 1.315 . S
C676 O671 1.279 . S
C677 O678 1.315 . S
C677 O679 1.279 1_556 S
O678 Cd670 2.223 . S
O678 C677 1.315 . S
O679 Cd669 2.240 . S
O679 C677 1.279 1_554 S
O680 Cd670 2.297 1_554 S
O680 C675 1.249 . S
O681 Cd670 2.439 1_554 S
O681 C675 1.208 . S
O682 Cd683 2.223 . S
O682 C690 1.315 . S
Cd683 O682 2.223 . S
Cd683 O686 2.297 . S
Cd683 O687 2.439 . S
Cd683 O693 2.240 . S
Cd684 O685 2.240 . S
Cd684 O692 2.223 . S
Cd684 O694 2.297 . S
Cd684 O695 2.439 . S
O685 Cd684 2.240 . S
O685 C690 1.279 . S
O686 Cd683 2.297 . S
O686 C688 1.247 . S
O687 Cd683 2.439 . S
O687 C688 1.208 . S
C688 O686 1.247 . S
C688 O687 1.208 . S
C689 O694 1.247 . S
C689 O695 1.208 . S
C690 O682 1.315 . S
C690 O685 1.279 . S
C691 O692 1.315 . S
C691 O693 1.279 . S
O692 Cd684 2.223 . S
O692 C691 1.315 . S
O693 Cd683 2.240 . S
O693 C691 1.279 . S
O694 Cd684 2.297 . S
O694 C689 1.247 . S
O695 Cd684 2.439 . S
O695 C689 1.208 . S
O696 Cd697 2.223 . S
O696 C704 1.315 . S
Cd697 O696 2.223 . S
Cd697 O700 2.297 . S
Cd697 O701 2.439 . S
Cd697 O707 2.240 . S
Cd698 O699 2.240 . S
Cd698 O706 2.223 . S
Cd698 O708 2.297 . S
Cd698 O709 2.439 . S
O699 Cd698 2.240 . S
O699 C704 1.279 . S
O700 Cd697 2.297 . S
O700 C702 1.247 . S
O701 Cd697 2.439 . S
O701 C702 1.208 . S
C702 O700 1.247 . S
C702 O701 1.208 . S
C703 O708 1.247 . S
C703 O709 1.208 . S
C704 O696 1.315 . S
C704 O699 1.279 . S
C705 O706 1.315 . S
C705 O707 1.279 . S
O706 Cd698 2.223 . S
O706 C705 1.315 . S
O707 Cd697 2.240 . S
O707 C705 1.279 . S
O708 Cd698 2.297 . S
O708 C703 1.247 . S
O709 Cd698 2.439 . S
O709 C703 1.208 . S
O710 Cd711 2.223 . S
O710 C718 1.315 . S
Cd711 O710 2.223 . S
Cd711 O714 2.297 . S
Cd711 O715 2.439 . S
Cd711 O721 2.240 . S
Cd712 O713 2.240 . S
Cd712 O720 2.223 . S
Cd712 O722 2.297 . S
Cd712 O723 2.439 . S
O713 Cd712 2.240 . S
O713 C718 1.279 . S
O714 Cd711 2.297 . S
O714 C716 1.247 . S
O715 Cd711 2.439 . S
O715 C716 1.208 . S
C716 O714 1.247 . S
C716 O715 1.208 . S
C717 O722 1.247 . S
C717 O723 1.208 . S
C718 O710 1.315 . S
C718 O713 1.279 . S
C719 O720 1.315 . S
C719 O721 1.279 . S
O720 Cd712 2.223 . S
O720 C719 1.315 . S
O721 Cd711 2.240 . S
O721 C719 1.279 . S
O722 Cd712 2.297 . S
O722 C717 1.247 . S
O723 Cd712 2.439 . S
O723 C717 1.208 . S
O724 Cd725 2.223 . S
O724 C732 1.315 . S
Cd725 O724 2.223 . S
Cd725 O728 2.297 . S
Cd725 O729 2.439 . S
Cd725 O735 2.240 . S
Cd726 O727 2.240 . S
Cd726 O734 2.223 . S
Cd726 O736 2.297 . S
Cd726 O737 2.439 . S
O727 Cd726 2.240 . S
O727 C732 1.279 . S
O728 Cd725 2.297 . S
O728 C730 1.247 . S
O729 Cd725 2.439 . S
O729 C730 1.208 . S
C730 O728 1.247 . S
C730 O729 1.208 . S
C731 O736 1.247 . S
C731 O737 1.208 . S
C732 O724 1.315 . S
C732 O727 1.279 . S
C733 O734 1.315 . S
C733 O735 1.279 . S
O734 Cd726 2.223 . S
O734 C733 1.315 . S
O735 Cd725 2.240 . S
O735 C733 1.279 . S
O736 Cd726 2.297 . S
O736 C731 1.247 . S
O737 Cd726 2.439 . S
O737 C731 1.208 . S
O738 Cd739 2.223 1_545 S
O738 C746 1.315 . S
Cd739 O738 2.223 1_565 S
Cd739 O742 2.297 . S
Cd739 O743 2.439 . S
Cd739 O749 2.240 1_565 S
Cd740 O741 2.240 . S
Cd740 O748 2.223 . S
Cd740 O750 2.297 . S
Cd740 O751 2.439 1_545 S
O741 Cd740 2.240 . S
O741 C746 1.279 . S
O742 Cd739 2.297 . S
O742 C744 1.247 . S
O743 Cd739 2.439 . S
O743 C744 1.208 . S
C744 O742 1.247 . S
C744 O743 1.208 . S
C745 O750 1.247 1_565 S
C745 O751 1.208 . S
C746 O738 1.315 . S
C746 O741 1.279 . S
C747 O748 1.315 . S
C747 O749 1.279 . S
O748 Cd740 2.223 . S
O748 C747 1.315 . S
O749 Cd739 2.240 1_545 S
O749 C747 1.279 . S
O750 Cd740 2.297 . S
O750 C745 1.247 1_545 S
O751 Cd740 2.439 1_565 S
O751 C745 1.208 . S
O752 Cd753 2.223 . S
O752 C760 1.315 . S
Cd753 O752 2.223 . S
Cd753 O756 2.297 1_655 S
Cd753 O757 2.439 1_655 S
Cd753 O763 2.240 . S
Cd754 O755 2.240 . S
Cd754 O762 2.223 1_455 S
Cd754 O764 2.297 . S
Cd754 O765 2.439 . S
O755 Cd754 2.240 . S
O755 C760 1.279 1_455 S
O756 Cd753 2.297 1_455 S
O756 C758 1.247 . S
O757 Cd753 2.439 1_455 S
O757 C758 1.208 . S
C758 O756 1.247 . S
C758 O757 1.208 . S
C759 O764 1.247 . S
C759 O765 1.208 . S
C760 O752 1.315 . S
C760 O755 1.279 1_655 S
C761 O762 1.315 . S
C761 O763 1.279 . S
O762 Cd754 2.223 1_655 S
O762 C761 1.315 . S
O763 Cd753 2.240 . S
O763 C761 1.279 . S
O764 Cd754 2.297 . S
O764 C759 1.247 . S
O765 Cd754 2.439 . S
O765 C759 1.208 . S
O766 Cd767 2.223 . S
O766 C774 1.315 . S
Cd767 O766 2.223 . S
Cd767 O770 2.297 . S
Cd767 O771 2.439 . S
Cd767 O777 2.240 . S
Cd768 O769 2.240 . S
Cd768 O776 2.223 . S
Cd768 O778 2.297 . S
Cd768 O779 2.439 . S
O769 Cd768 2.240 . S
O769 C774 1.279 . S
O770 Cd767 2.297 . S
O770 C772 1.247 . S
O771 Cd767 2.439 . S
O771 C772 1.208 . S
C772 O770 1.247 . S
C772 O771 1.208 . S
C773 O778 1.247 . S
C773 O779 1.208 . S
C774 O766 1.315 . S
C774 O769 1.279 . S
C775 O776 1.315 . S
C775 O777 1.279 . S
O776 Cd768 2.223 . S
O776 C775 1.315 . S
O777 Cd767 2.240 . S
O777 C775 1.279 . S
O778 Cd768 2.297 . S
O778 C773 1.247 . S
O779 Cd768 2.439 . S
O779 C773 1.208 . S
O780 Cd781 2.223 1_655 S
O780 C788 1.315 . S
Cd781 O780 2.223 1_455 S
Cd781 O784 2.297 . S
Cd781 O785 2.439 . S
Cd781 O791 2.240 . S
Cd782 O783 2.240 . S
Cd782 O790 2.223 . S
Cd782 O792 2.297 1_655 S
Cd782 O793 2.439 1_655 S
O783 Cd782 2.240 . S
O783 C788 1.279 . S
O784 Cd781 2.297 . S
O784 C786 1.247 . S
O785 Cd781 2.439 . S
O785 C786 1.208 . S
C786 O784 1.247 . S
C786 O785 1.208 . S
C787 O792 1.247 . S
C787 O793 1.208 . S
C788 O780 1.315 . S
C788 O783 1.279 . S
C789 O790 1.315 . S
C789 O791 1.279 1_655 S
O790 Cd782 2.223 . S
O790 C789 1.315 . S
O791 Cd781 2.240 . S
O791 C789 1.279 1_455 S
O792 Cd782 2.297 1_455 S
O792 C787 1.247 . S
O793 Cd782 2.439 1_455 S
O793 C787 1.208 . S
O794 Cd795 2.223 . S
O794 C802 1.315 . S
Cd795 O794 2.223 . S
Cd795 O798 2.297 . S
Cd795 O799 2.439 . S
Cd795 O805 2.240 . S
Cd796 O797 2.240 . S
Cd796 O804 2.223 . S
Cd796 O806 2.297 . S
Cd796 O807 2.439 . S
O797 Cd796 2.240 . S
O797 C802 1.279 . S
O798 Cd795 2.297 . S
O798 C800 1.247 . S
O799 Cd795 2.439 . S
O799 C800 1.208 . S
C800 O798 1.247 . S
C800 O799 1.208 . S
C801 O806 1.247 . S
C801 O807 1.208 . S
C802 O794 1.315 . S
C802 O797 1.279 . S
C803 O804 1.315 . S
C803 O805 1.279 . S
O804 Cd796 2.223 . S
O804 C803 1.315 . S
O805 Cd795 2.240 . S
O805 C803 1.279 . S
O806 Cd796 2.297 . S
O806 C801 1.247 . S
O807 Cd796 2.439 . S
O807 C801 1.208 . S
C808 C809 1.369 . S
C808 C810 1.419 . S
C808 H812 0.930 . S
C809 C808 1.369 . S
C809 C818 1.429 . S
C810 C808 1.419 . S
C810 C811 1.363 . S
C810 H813 0.929 . S
C811 C810 1.363 . S
C811 C817 1.428 . S
H812 C808 0.930 . S
H813 C810 0.929 . S
S814 N815 1.613 1_554 S
S814 N816 1.610 . S
N815 S814 1.613 1_556 S
N815 C818 1.350 . S
N816 S814 1.610 . S
N816 C817 1.351 1_554 S
C817 C811 1.428 . S
C817 N816 1.351 1_556 S
C817 C818 1.434 . S
C818 C809 1.429 . S
C818 N815 1.350 . S
C818 C817 1.434 . S
C819 C820 1.369 . S
C819 C821 1.419 . S
C819 H823 0.930 . S
C820 C819 1.369 . S
C820 C829 1.429 . S
C821 C819 1.419 . S
C821 C822 1.363 . S
C821 H824 0.929 . S
C822 C821 1.363 . S
C822 C828 1.428 . S
H823 C819 0.930 . S
H824 C821 0.929 . S
S825 N826 1.613 1_455 S
S825 N827 1.610 . S
N826 S825 1.613 1_655 S
N826 C829 1.350 1_655 S
N827 S825 1.610 . S
N827 C828 1.351 . S
C828 C822 1.428 . S
C828 N827 1.351 . S
C828 C829 1.434 . S
C829 C820 1.429 . S
C829 N826 1.350 1_455 S
C829 C828 1.434 . S
C830 C831 1.369 . S
C830 C832 1.419 . S
C830 H834 0.930 . S
C831 C830 1.369 . S
C831 C840 1.429 . S
C832 C830 1.419 . S
C832 C833 1.363 . S
C832 H835 0.929 . S
C833 C832 1.363 . S
C833 C839 1.428 . S
H834 C830 0.930 . S
H835 C832 0.929 . S
S836 N837 1.613 . S
S836 N838 1.610 . S
N837 S836 1.613 . S
N837 C840 1.350 . S
N838 S836 1.610 . S
N838 C839 1.351 . S
C839 C833 1.428 . S
C839 N838 1.351 . S
C839 C840 1.434 . S
C840 C831 1.429 . S
C840 N837 1.350 . S
C840 C839 1.434 . S
C841 C842 1.369 1_545 S
C841 C843 1.419 . S
C841 H845 0.930 . S
C842 C841 1.369 1_565 S
C842 C851 1.429 . S
C843 C841 1.419 . S
C843 C844 1.363 . S
C843 H846 0.929 . S
C844 C843 1.363 . S
C844 C850 1.428 1_545 S
H845 C841 0.930 . S
H846 C843 0.929 . S
S847 N848 1.613 . S
S847 N849 1.610 . S
N848 S847 1.613 . S
N848 C851 1.350 . S
N849 S847 1.610 . S
N849 C850 1.351 . S
C850 C844 1.428 1_565 S
C850 N849 1.351 . S
C850 C851 1.434 . S
C851 C842 1.429 . S
C851 N848 1.350 . S
C851 C850 1.434 . S
C852 C853 1.369 . S
C852 C854 1.419 . S
C852 H856 0.930 . S
C853 C852 1.369 . S
C853 C862 1.429 . S
C854 C852 1.419 . S
C854 C855 1.363 . S
C854 H857 0.929 . S
C855 C854 1.363 . S
C855 C861 1.428 . S
H856 C852 0.930 . S
H857 C854 0.929 . S
S858 N859 1.613 . S
S858 N860 1.610 . S
N859 S858 1.613 . S
N859 C862 1.350 . S
N860 S858 1.610 . S
N860 C861 1.351 . S
C861 C855 1.428 . S
C861 N860 1.351 . S
C861 C862 1.434 . S
C862 C853 1.429 . S
C862 N859 1.350 . S
C862 C861 1.434 . S
C863 C864 1.369 . S
C863 C865 1.419 . S
C863 H867 0.930 . S
C864 C863 1.369 . S
C864 C873 1.429 . S
C865 C863 1.419 . S
C865 C866 1.363 . S
C865 H868 0.929 . S
C866 C865 1.363 . S
C866 C872 1.428 . S
H867 C863 0.930 . S
H868 C865 0.929 . S
S869 N870 1.613 . S
S869 N871 1.610 . S
N870 S869 1.613 . S
N870 C873 1.350 . S
N871 S869 1.610 . S
N871 C872 1.351 . S
C872 C866 1.428 . S
C872 N871 1.351 . S
C872 C873 1.434 . S
C873 C864 1.429 . S
C873 N870 1.350 . S
C873 C872 1.434 . S
C874 C875 1.369 . S
C874 C876 1.419 . S
C874 H878 0.930 . S
C875 C874 1.369 . S
C875 C884 1.429 . S
C876 C874 1.419 . S
C876 C877 1.363 . S
C876 H879 0.929 . S
C877 C876 1.363 . S
C877 C883 1.428 . S
H878 C874 0.930 . S
H879 C876 0.929 . S
S880 N881 1.613 . S
S880 N882 1.610 . S
N881 S880 1.613 . S
N881 C884 1.350 . S
N882 S880 1.610 . S
N882 C883 1.351 . S
C883 C877 1.428 . S
C883 N882 1.351 . S
C883 C884 1.434 . S
C884 C875 1.429 . S
C884 N881 1.350 . S
C884 C883 1.434 . S
C885 C886 1.369 . S
C885 C887 1.419 . S
C885 H889 0.930 . S
C886 C885 1.369 . S
C886 C895 1.429 . S
C887 C885 1.419 . S
C887 C888 1.363 . S
C887 H890 0.929 . S
C888 C887 1.363 . S
C888 C894 1.428 . S
H889 C885 0.930 . S
H890 C887 0.929 . S
S891 N892 1.613 . S
S891 N893 1.610 . S
N892 S891 1.613 . S
N892 C895 1.350 . S
N893 S891 1.610 . S
N893 C894 1.351 . S
C894 C888 1.428 . S
C894 N893 1.351 . S
C894 C895 1.434 . S
C895 C886 1.429 . S
C895 N892 1.350 . S
C895 C894 1.434 . S
C896 C897 1.369 . S
C896 C898 1.419 . S
C896 H900 0.930 . S
C897 C896 1.369 . S
C897 C906 1.429 . S
C898 C896 1.419 . S
C898 C899 1.363 . S
C898 H901 0.929 . S
C899 C898 1.363 . S
C899 C905 1.428 . S
H900 C896 0.930 . S
H901 C898 0.929 . S
S902 N903 1.613 . S
S902 N904 1.610 . S
N903 S902 1.613 . S
N903 C906 1.350 . S
N904 S902 1.610 . S
N904 C905 1.351 . S
C905 C899 1.428 . S
C905 N904 1.351 . S
C905 C906 1.434 . S
C906 C897 1.429 . S
C906 N903 1.350 . S
C906 C905 1.434 . S
C907 C908 1.369 . S
C907 C909 1.419 . S
C907 H911 0.930 . S
C908 C907 1.369 . S
C908 C917 1.429 . S
C909 C907 1.419 . S
C909 C910 1.363 . S
C909 H912 0.929 . S
C910 C909 1.363 . S
C910 C916 1.428 . S
H911 C907 0.930 . S
H912 C909 0.929 . S
S913 N914 1.613 . S
S913 N915 1.610 . S
N914 S913 1.613 . S
N914 C917 1.350 . S
N915 S913 1.610 . S
N915 C916 1.351 . S
C916 C910 1.428 . S
C916 N915 1.351 . S
C916 C917 1.434 . S
C917 C908 1.429 . S
C917 N914 1.350 . S
C917 C916 1.434 . S
C918 C919 1.369 . S
C918 C920 1.419 . S
C918 H922 0.930 . S
C919 C918 1.369 . S
C919 C928 1.429 . S
C920 C918 1.419 . S
C920 C921 1.363 . S
C920 H923 0.929 . S
C921 C920 1.363 . S
C921 C927 1.428 . S
H922 C918 0.930 . S
H923 C920 0.929 . S
S924 N925 1.613 . S
S924 N926 1.610 . S
N925 S924 1.613 . S
N925 C928 1.350 . S
N926 S924 1.610 . S
N926 C927 1.351 . S
C927 C921 1.428 . S
C927 N926 1.351 . S
C927 C928 1.434 . S
C928 C919 1.429 . S
C928 N925 1.350 . S
C928 C927 1.434 . S
C929 C930 1.369 . S
C929 C931 1.419 . S
C929 H933 0.930 . S
C930 C929 1.369 . S
C930 C939 1.429 . S
C931 C929 1.419 . S
C931 C932 1.363 . S
C931 H934 0.929 . S
C932 C931 1.363 . S
C932 C938 1.428 . S
H933 C929 0.930 . S
H934 C931 0.929 . S
S935 N936 1.613 . S
S935 N937 1.610 . S
N936 S935 1.613 . S
N936 C939 1.350 . S
N937 S935 1.610 . S
N937 C938 1.351 . S
C938 C932 1.428 . S
C938 N937 1.351 . S
C938 C939 1.434 . S
C939 C930 1.429 . S
C939 N936 1.350 . S
C939 C938 1.434 . S
C940 C941 1.369 . S
C940 C942 1.419 . S
C940 H944 0.930 . S
C941 C940 1.369 . S
C941 C950 1.429 . S
C942 C940 1.419 . S
C942 C943 1.363 . S
C942 H945 0.929 . S
C943 C942 1.363 . S
C943 C949 1.428 . S
H944 C940 0.930 . S
H945 C942 0.929 . S
S946 N947 1.613 . S
S946 N948 1.610 . S
N947 S946 1.613 . S
N947 C950 1.350 . S
N948 S946 1.610 . S
N948 C949 1.351 . S
C949 C943 1.428 . S
C949 N948 1.351 . S
C949 C950 1.434 . S
C950 C941 1.429 . S
C950 N947 1.350 . S
C950 C949 1.434 . S
C951 C952 1.369 . S
C951 C953 1.419 . S
C951 H955 0.930 . S
C952 C951 1.369 . S
C952 C961 1.429 . S
C953 C951 1.419 . S
C953 C954 1.363 . S
C953 H956 0.929 . S
C954 C953 1.363 . S
C954 C960 1.428 . S
H955 C951 0.930 . S
H956 C953 0.929 . S
S957 N958 1.613 . S
S957 N959 1.610 . S
N958 S957 1.613 . S
N958 C961 1.350 . S
N959 S957 1.610 . S
N959 C960 1.351 . S
C960 C954 1.428 . S
C960 N959 1.351 . S
C960 C961 1.434 . S
C961 C952 1.429 . S
C961 N958 1.350 . S
C961 C960 1.434 . S
C962 C963 1.369 . S
C962 C964 1.419 . S
C962 H966 0.930 . S
C963 C962 1.369 . S
C963 C972 1.429 . S
C964 C962 1.419 . S
C964 C965 1.363 . S
C964 H967 0.929 . S
C965 C964 1.363 . S
C965 C971 1.428 . S
H966 C962 0.930 . S
H967 C964 0.929 . S
S968 N969 1.613 . S
S968 N970 1.610 . S
N969 S968 1.613 . S
N969 C972 1.350 . S
N970 S968 1.610 . S
N970 C971 1.351 . S
C971 C965 1.428 . S
C971 N970 1.351 . S
C971 C972 1.434 . S
C972 C963 1.429 . S
C972 N969 1.350 . S
C972 C971 1.434 . S
C973 C974 1.369 . S
C973 C975 1.419 . S
C973 H977 0.930 . S
C974 C973 1.369 . S
C974 C983 1.429 . S
C975 C973 1.419 . S
C975 C976 1.363 . S
C975 H978 0.929 . S
C976 C975 1.363 . S
C976 C982 1.428 . S
H977 C973 0.930 . S
H978 C975 0.929 . S
S979 N980 1.613 . S
S979 N981 1.610 . S
N980 S979 1.613 . S
N980 C983 1.350 1_455 S
N981 S979 1.610 . S
N981 C982 1.351 1_455 S
C982 C976 1.428 . S
C982 N981 1.351 1_655 S
C982 C983 1.434 . S
C983 C974 1.429 . S
C983 N980 1.350 1_655 S
C983 C982 1.434 . S
C984 C985 1.369 . S
C984 C986 1.429 . S
C984 H988 0.930 . S
C985 C984 1.369 . S
C985 C994 1.429 . S
C986 C984 1.429 . S
C986 C987 1.368 . S
C986 H989 0.913 1_565 S
C987 C986 1.368 . S
C987 C993 1.428 . S
H988 C984 0.930 . S
H989 C986 0.913 1_545 S
S990 N991 1.613 . S
S990 N992 1.610 . S
N991 S990 1.613 . S
N991 C994 1.350 . S
N992 S990 1.610 . S
N992 C993 1.351 . S
C993 C987 1.428 . S
C993 N992 1.351 . S
C993 C994 1.434 . S
C994 C985 1.429 . S
C994 N991 1.350 . S
C994 C993 1.434 . S
C995 C996 1.369 . S
C995 C997 1.419 . S
C995 H999 0.930 . S
C996 C995 1.369 . S
C996 C1005 1.429 . S
C997 C995 1.419 . S
C997 C998 1.363 . S
C997 H1000 0.929 . S
C998 C997 1.363 . S
C998 C1004 1.428 . S
H999 C995 0.930 . S
H1000 C997 0.929 . S
S1001 N1002 1.613 . S
S1001 N1003 1.610 . S
N1002 S1001 1.613 . S
N1002 C1005 1.350 . S
N1003 S1001 1.610 . S
N1003 C1004 1.351 . S
C1004 C998 1.428 . S
C1004 N1003 1.351 . S
C1004 C1005 1.434 . S
C1005 C996 1.429 . S
C1005 N1002 1.350 . S
C1005 C1004 1.434 . S
C1006 C1007 1.369 . S
C1006 C1008 1.419 . S
C1006 H1010 0.930 . S
C1007 C1006 1.369 . S
C1007 C1016 1.429 1_566 S
C1008 C1006 1.419 . S
C1008 C1009 1.363 1_556 S
C1008 H1011 0.929 . S
C1009 C1008 1.363 1_554 S
C1009 C1015 1.428 . S
H1010 C1006 0.930 . S
H1011 C1008 0.929 . S
S1012 N1013 1.613 . S
S1012 N1014 1.610 1_545 S
N1013 S1012 1.613 . S
N1013 C1016 1.350 . S
N1014 S1012 1.610 1_565 S
N1014 C1015 1.351 . S
C1015 C1009 1.428 . S
C1015 N1014 1.351 . S
C1015 C1016 1.434 1_565 S
C1016 C1007 1.429 1_544 S
C1016 N1013 1.350 . S
C1016 C1015 1.434 1_545 S
C1017 C1018 1.369 . S
C1017 C1019 1.419 . S
C1017 H1021 0.930 . S
C1018 C1017 1.369 . S
C1018 C1027 1.429 . S
C1019 C1017 1.419 . S
C1019 C1020 1.363 . S
C1019 H1022 0.929 . S
C1020 C1019 1.363 . S
C1020 C1026 1.428 . S
H1021 C1017 0.930 . S
H1022 C1019 0.929 . S
S1023 N1024 1.613 . S
S1023 N1025 1.610 . S
N1024 S1023 1.613 . S
N1024 C1027 1.350 . S
N1025 S1023 1.610 . S
N1025 C1026 1.351 . S
C1026 C1020 1.428 . S
C1026 N1025 1.351 . S
C1026 C1027 1.434 . S
C1027 C1018 1.429 . S
C1027 N1024 1.350 . S
C1027 C1026 1.434 . S
C1028 C1029 1.369 . S
C1028 C1030 1.419 . S
C1028 H1032 0.930 . S
C1029 C1028 1.369 . S
C1029 C1038 1.429 . S
C1030 C1028 1.419 . S
C1030 C1031 1.363 . S
C1030 H1033 0.929 . S
C1031 C1030 1.363 . S
C1031 C1037 1.428 . S
H1032 C1028 0.930 . S
H1033 C1030 0.929 . S
S1034 N1035 1.613 . S
S1034 N1036 1.610 . S
N1035 S1034 1.613 . S
N1035 C1038 1.350 . S
N1036 S1034 1.610 . S
N1036 C1037 1.351 . S
C1037 C1031 1.428 . S
C1037 N1036 1.351 . S
C1037 C1038 1.434 . S
C1038 C1029 1.429 . S
C1038 N1035 1.350 . S
C1038 C1037 1.434 . S
C1039 C1040 1.369 . S
C1039 C1041 1.419 . S
C1039 H1043 0.930 . S
C1040 C1039 1.369 . S
C1040 C1049 1.429 . S
C1041 C1039 1.419 . S
C1041 C1042 1.363 . S
C1041 H1044 0.929 . S
C1042 C1041 1.363 . S
C1042 C1048 1.428 . S
H1043 C1039 0.930 . S
H1044 C1041 0.929 . S
S1045 N1046 1.613 . S
S1045 N1047 1.610 . S
N1046 S1045 1.613 . S
N1046 C1049 1.350 . S
N1047 S1045 1.610 . S
N1047 C1048 1.351 . S
C1048 C1042 1.428 . S
C1048 N1047 1.351 . S
C1048 C1049 1.434 . S
C1049 C1040 1.429 . S
C1049 N1046 1.350 . S
C1049 C1048 1.434 . S
C1050 C1051 1.369 . S
C1050 C1052 1.419 . S
C1050 H1054 0.930 . S
C1051 C1050 1.369 . S
C1051 C1060 1.429 . S
C1052 C1050 1.419 . S
C1052 C1053 1.363 . S
C1052 H1055 0.929 . S
C1053 C1052 1.363 . S
C1053 C1059 1.428 . S
H1054 C1050 0.930 . S
H1055 C1052 0.929 . S
S1056 N1057 1.613 . S
S1056 N1058 1.610 . S
N1057 S1056 1.613 . S
N1057 C1060 1.350 . S
N1058 S1056 1.610 . S
N1058 C1059 1.351 . S
C1059 C1053 1.428 . S
C1059 N1058 1.351 . S
C1059 C1060 1.434 . S
C1060 C1051 1.429 . S
C1060 N1057 1.350 . S
C1060 C1059 1.434 . S
C1061 C1062 1.369 . S
C1061 C1063 1.419 . S
C1061 H1065 0.930 . S
C1062 C1061 1.369 . S
C1062 C1071 1.429 . S
C1063 C1061 1.419 . S
C1063 C1064 1.363 . S
C1063 H1066 0.929 . S
C1064 C1063 1.363 . S
C1064 C1070 1.428 . S
H1065 C1061 0.930 . S
H1066 C1063 0.929 . S
S1067 N1068 1.613 . S
S1067 N1069 1.610 . S
N1068 S1067 1.613 . S
N1068 C1071 1.350 . S
N1069 S1067 1.610 . S
N1069 C1070 1.351 . S
C1070 C1064 1.428 . S
C1070 N1069 1.351 . S
C1070 C1071 1.434 . S
C1071 C1062 1.429 . S
C1071 N1068 1.350 . S
C1071 C1070 1.434 . S
C1072 C1073 1.369 . S
C1072 C1074 1.419 . S
C1072 H1076 0.930 . S
C1073 C1072 1.369 . S
C1073 C1082 1.429 . S
C1074 C1072 1.419 . S
C1074 C1075 1.363 . S
C1074 H1077 0.929 . S
C1075 C1074 1.363 . S
C1075 C1081 1.428 . S
H1076 C1072 0.930 . S
H1077 C1074 0.929 . S
S1078 N1079 1.613 . S
S1078 N1080 1.610 . S
N1079 S1078 1.613 . S
N1079 C1082 1.350 . S
N1080 S1078 1.610 . S
N1080 C1081 1.351 . S
C1081 C1075 1.428 . S
C1081 N1080 1.351 . S
C1081 C1082 1.434 . S
C1082 C1073 1.429 . S
C1082 N1079 1.350 . S
C1082 C1081 1.434 . S
C1083 C1084 1.369 . S
C1083 C1085 1.419 . S
C1083 H1087 0.930 . S
C1084 C1083 1.369 . S
C1084 C1093 1.429 . S
C1085 C1083 1.419 . S
C1085 C1086 1.363 . S
C1085 H1088 0.929 . S
C1086 C1085 1.363 . S
C1086 C1092 1.428 . S
H1087 C1083 0.930 . S
H1088 C1085 0.929 . S
S1089 N1090 1.613 . S
S1089 N1091 1.610 . S
N1090 S1089 1.613 . S
N1090 C1093 1.350 . S
N1091 S1089 1.610 . S
N1091 C1092 1.351 . S
C1092 C1086 1.428 . S
C1092 N1091 1.351 . S
C1092 C1093 1.434 . S
C1093 C1084 1.429 . S
C1093 N1090 1.350 . S
C1093 C1092 1.434 . S
C1094 C1095 1.369 . S
C1094 C1096 1.419 . S
C1094 H1098 0.930 . S
C1095 C1094 1.369 . S
C1095 C1104 1.429 . S
C1096 C1094 1.419 . S
C1096 C1097 1.363 . S
C1096 H1099 0.929 . S
C1097 C1096 1.363 . S
C1097 C1103 1.428 . S
H1098 C1094 0.930 . S
H1099 C1096 0.929 . S
S1100 N1101 1.613 . S
S1100 N1102 1.610 . S
N1101 S1100 1.613 . S
N1101 C1104 1.350 . S
N1102 S1100 1.610 . S
N1102 C1103 1.351 . S
C1103 C1097 1.428 . S
C1103 N1102 1.351 . S
C1103 C1104 1.434 . S
C1104 C1095 1.429 . S
C1104 N1101 1.350 . S
C1104 C1103 1.434 . S
C1105 C1106 1.369 . S
C1105 C1107 1.419 . S
C1105 H1109 0.930 . S
C1106 C1105 1.369 . S
C1106 C1115 1.429 . S
C1107 C1105 1.419 . S
C1107 C1108 1.363 . S
C1107 H1110 0.929 . S
C1108 C1107 1.363 . S
C1108 C1114 1.428 . S
H1109 C1105 0.930 . S
H1110 C1107 0.929 . S
S1111 N1112 1.613 . S
S1111 N1113 1.610 . S
N1112 S1111 1.613 . S
N1112 C1115 1.350 . S
N1113 S1111 1.610 . S
N1113 C1114 1.351 . S
C1114 C1108 1.428 . S
C1114 N1113 1.351 . S
C1114 C1115 1.434 . S
C1115 C1106 1.429 . S
C1115 N1112 1.350 . S
C1115 C1114 1.434 . S
C1116 C1117 1.369 . S
C1116 C1118 1.419 . S
C1116 H1120 0.930 . S
C1117 C1116 1.369 . S
C1117 C1126 1.429 . S
C1118 C1116 1.419 . S
C1118 C1119 1.363 . S
C1118 H1121 0.929 . S
C1119 C1118 1.363 . S
C1119 C1125 1.428 . S
H1120 C1116 0.930 . S
H1121 C1118 0.929 . S
S1122 N1123 1.613 . S
S1122 N1124 1.610 . S
N1123 S1122 1.613 . S
N1123 C1126 1.350 . S
N1124 S1122 1.610 . S
N1124 C1125 1.351 . S
C1125 C1119 1.428 . S
C1125 N1124 1.351 . S
C1125 C1126 1.434 . S
C1126 C1117 1.429 . S
C1126 N1123 1.350 . S
C1126 C1125 1.434 . S
C1127 C1128 1.369 1_655 S
C1127 C1129 1.419 . S
C1127 H1131 0.930 . S
C1128 C1127 1.369 1_455 S
C1128 C1137 1.429 1_455 S
C1129 C1127 1.419 . S
C1129 C1130 1.363 . S
C1129 H1132 0.929 . S
C1130 C1129 1.363 . S
C1130 C1136 1.428 . S
H1131 C1127 0.930 . S
H1132 C1129 0.929 . S
S1133 N1134 1.613 1_655 S
S1133 N1135 1.610 . S
N1134 S1133 1.613 1_455 S
N1134 C1137 1.350 1_455 S
N1135 S1133 1.610 . S
N1135 C1136 1.351 . S
C1136 C1130 1.428 . S
C1136 N1135 1.351 . S
C1136 C1137 1.434 . S
C1137 C1128 1.429 1_655 S
C1137 N1134 1.350 1_655 S
C1137 C1136 1.434 . S
C1138 C1139 1.369 . S
C1138 C1140 1.419 . S
C1138 H1142 0.930 . S
C1139 C1138 1.369 . S
C1139 C1148 1.429 . S
C1140 C1138 1.419 . S
C1140 C1141 1.363 . S
C1140 H1143 0.929 . S
C1141 C1140 1.363 . S
C1141 C1147 1.428 . S
H1142 C1138 0.930 . S
H1143 C1140 0.929 . S
S1144 N1145 1.613 . S
S1144 N1146 1.610 . S
N1145 S1144 1.613 . S
N1145 C1148 1.350 . S
N1146 S1144 1.610 . S
N1146 C1147 1.351 . S
C1147 C1141 1.428 . S
C1147 N1146 1.351 . S
C1147 C1148 1.434 . S
C1148 C1139 1.429 . S
C1148 N1145 1.350 . S
C1148 C1147 1.434 . S
C1149 C1150 1.369 1_455 S
C1149 C1151 1.419 . S
C1149 H1153 0.930 . S
C1150 C1149 1.369 1_655 S
C1150 C1159 1.426 1_655 S
C1151 C1149 1.419 . S
C1151 C1152 1.363 . S
C1151 H1154 0.929 . S
C1152 C1151 1.363 . S
C1152 C1158 1.428 . S
H1153 C1149 0.930 . S
H1154 C1151 0.929 . S
S1155 N1156 1.613 1_455 S
S1155 N1157 1.610 . S
N1156 S1155 1.613 1_655 S
N1156 C1159 1.347 1_655 S
N1157 S1155 1.610 . S
N1157 C1158 1.351 . S
C1158 C1152 1.428 . S
C1158 N1157 1.351 . S
C1158 C1159 1.440 . S
C1159 C1150 1.426 1_455 S
C1159 N1156 1.347 1_455 S
C1159 C1158 1.440 . S
C1160 C1161 1.369 . S
C1160 C1162 1.419 . S
C1160 H1164 0.930 . S
C1161 C1160 1.369 . S
C1161 C1170 1.429 . S
C1162 C1160 1.419 . S
C1162 C1163 1.363 . S
C1162 H1165 0.929 . S
C1163 C1162 1.363 . S
C1163 C1169 1.428 . S
H1164 C1160 0.930 . S
H1165 C1162 0.929 . S
S1166 N1167 1.613 . S
S1166 N1168 1.610 . S
N1167 S1166 1.613 . S
N1167 C1170 1.350 . S
N1168 S1166 1.610 . S
N1168 C1169 1.351 . S
C1169 C1163 1.428 . S
C1169 N1168 1.351 . S
C1169 C1170 1.434 . S
C1170 C1161 1.429 . S
C1170 N1167 1.350 . S
C1170 C1169 1.434 . S
C1171 C1172 1.369 . S
C1171 C1173 1.419 . S
C1171 H1175 0.930 1_556 S
C1172 C1171 1.369 . S
C1172 C1181 1.429 . S
C1173 C1171 1.419 . S
C1173 C1174 1.363 . S
C1173 H1176 0.929 . S
C1174 C1173 1.363 . S
C1174 C1180 1.428 . S
H1175 C1171 0.930 1_554 S
H1176 C1173 0.929 . S
S1177 N1178 1.613 . S
S1177 N1179 1.610 . S
N1178 S1177 1.613 . S
N1178 C1181 1.350 . S
N1179 S1177 1.610 . S
N1179 C1180 1.351 . S
C1180 C1174 1.428 . S
C1180 N1179 1.351 . S
C1180 C1181 1.434 . S
C1181 C1172 1.429 . S
C1181 N1178 1.350 . S
C1181 C1180 1.434 . S
C1182 C1183 1.369 . S
C1182 C1184 1.419 . S
C1182 H1186 0.930 . S
C1183 C1182 1.369 . S
C1183 C1192 1.429 . S
C1184 C1182 1.419 . S
C1184 C1185 1.363 . S
C1184 H1187 0.929 . S
C1185 C1184 1.363 . S
C1185 C1191 1.428 . S
H1186 C1182 0.930 . S
H1187 C1184 0.929 . S
S1188 N1189 1.613 . S
S1188 N1190 1.610 . S
N1189 S1188 1.613 . S
N1189 C1192 1.350 . S
N1190 S1188 1.610 . S
N1190 C1191 1.351 . S
C1191 C1185 1.428 . S
C1191 N1190 1.351 . S
C1191 C1192 1.434 . S
C1192 C1183 1.429 . S
C1192 N1189 1.350 . S
C1192 C1191 1.434 . S
C1193 C1194 1.369 1_556 S
C1193 C1195 1.419 . S
C1193 H1197 0.930 . S
C1194 C1193 1.369 1_554 S
C1194 C1203 1.429 . S
C1195 C1193 1.419 . S
C1195 C1196 1.363 . S
C1195 H1198 0.929 . S
C1196 C1195 1.363 . S
C1196 C1202 1.428 . S
H1197 C1193 0.930 . S
H1198 C1195 0.929 . S
S1199 N1200 1.613 . S
S1199 N1201 1.610 1_554 S
N1200 S1199 1.613 . S
N1200 C1203 1.350 . S
N1201 S1199 1.610 1_556 S
N1201 C1202 1.351 . S
C1202 C1196 1.428 . S
C1202 N1201 1.351 . S
C1202 C1203 1.434 1_556 S
C1203 C1194 1.429 . S
C1203 N1200 1.350 . S
C1203 C1202 1.434 1_554 S
C1204 C1205 1.369 . S
C1204 C1206 1.419 . S
C1204 H1208 0.930 . S
C1205 C1204 1.369 . S
C1205 C1214 1.429 . S
C1206 C1204 1.419 . S
C1206 C1207 1.363 . S
C1206 H1209 0.929 . S
C1207 C1206 1.363 . S
C1207 C1213 1.428 . S
H1208 C1204 0.930 . S
H1209 C1206 0.929 . S
S1210 N1211 1.613 . S
S1210 N1212 1.610 . S
N1211 S1210 1.613 . S
N1211 C1214 1.350 . S
N1212 S1210 1.610 . S
N1212 C1213 1.351 . S
C1213 C1207 1.428 . S
C1213 N1212 1.351 . S
C1213 C1214 1.434 . S
C1214 C1205 1.429 . S
C1214 N1211 1.350 . S
C1214 C1213 1.434 . S
C1215 C1216 1.369 . S
C1215 C1217 1.419 . S
C1215 H1219 0.930 . S
C1216 C1215 1.369 . S
C1216 C1225 1.429 . S
C1217 C1215 1.419 . S
C1217 C1218 1.363 . S
C1217 H1220 0.929 . S
C1218 C1217 1.363 . S
C1218 C1224 1.428 . S
H1219 C1215 0.930 . S
H1220 C1217 0.929 . S
S1221 N1222 1.613 . S
S1221 N1223 1.610 . S
N1222 S1221 1.613 . S
N1222 C1225 1.350 . S
N1223 S1221 1.610 . S
N1223 C1224 1.351 . S
C1224 C1218 1.428 . S
C1224 N1223 1.351 . S
C1224 C1225 1.434 . S
C1225 C1216 1.429 . S
C1225 N1222 1.350 . S
C1225 C1224 1.434 . S
C1226 C1227 1.369 . S
C1226 C1228 1.419 . S
C1226 H1230 0.930 . S
C1227 C1226 1.369 . S
C1227 C1236 1.429 . S
C1228 C1226 1.419 . S
C1228 C1229 1.363 . S
C1228 H1231 0.929 . S
C1229 C1228 1.363 . S
C1229 C1235 1.428 . S
H1230 C1226 0.930 . S
H1231 C1228 0.929 . S
S1232 N1233 1.613 . S
S1232 N1234 1.610 . S
N1233 S1232 1.613 . S
N1233 C1236 1.350 . S
N1234 S1232 1.610 . S
N1234 C1235 1.351 . S
C1235 C1229 1.428 . S
C1235 N1234 1.351 . S
C1235 C1236 1.434 . S
C1236 C1227 1.429 . S
C1236 N1233 1.350 . S
C1236 C1235 1.434 . S
C1237 C1238 1.369 . S
C1237 C1239 1.419 . S
C1237 H1241 0.930 . S
C1238 C1237 1.369 . S
C1238 C1247 1.429 . S
C1239 C1237 1.419 . S
C1239 C1240 1.363 . S
C1239 H1242 0.929 . S
C1240 C1239 1.363 . S
C1240 C1246 1.428 . S
H1241 C1237 0.930 . S
H1242 C1239 0.929 . S
S1243 N1244 1.613 . S
S1243 N1245 1.610 . S
N1244 S1243 1.613 . S
N1244 C1247 1.350 . S
N1245 S1243 1.610 . S
N1245 C1246 1.351 . S
C1246 C1240 1.428 . S
C1246 N1245 1.351 . S
C1246 C1247 1.434 . S
C1247 C1238 1.429 . S
C1247 N1244 1.350 . S
C1247 C1246 1.434 . S
C1248 C1249 1.369 . S
C1248 C1250 1.419 . S
C1248 H1252 0.930 . S
C1249 C1248 1.369 . S
C1249 C1258 1.429 . S
C1250 C1248 1.419 . S
C1250 C1251 1.363 . S
C1250 H1253 0.929 . S
C1251 C1250 1.363 . S
C1251 C1257 1.428 . S
H1252 C1248 0.930 . S
H1253 C1250 0.929 . S
S1254 N1255 1.613 . S
S1254 N1256 1.610 . S
N1255 S1254 1.613 . S
N1255 C1258 1.350 . S
N1256 S1254 1.610 . S
N1256 C1257 1.351 . S
C1257 C1251 1.428 . S
C1257 N1256 1.351 . S
C1257 C1258 1.434 . S
C1258 C1249 1.429 . S
C1258 N1255 1.350 . S
C1258 C1257 1.434 . S
C1259 C1260 1.369 . S
C1259 C1261 1.419 . S
C1259 H1263 0.930 . S
C1260 C1259 1.369 . S
C1260 C1269 1.429 . S
C1261 C1259 1.419 . S
C1261 C1262 1.363 . S
C1261 H1264 0.929 . S
C1262 C1261 1.363 . S
C1262 C1268 1.428 . S
H1263 C1259 0.930 . S
H1264 C1261 0.929 . S
S1265 N1266 1.613 . S
S1265 N1267 1.610 . S
N1266 S1265 1.613 . S
N1266 C1269 1.350 . S
N1267 S1265 1.610 . S
N1267 C1268 1.351 . S
C1268 C1262 1.428 . S
C1268 N1267 1.351 . S
C1268 C1269 1.434 . S
C1269 C1260 1.429 . S
C1269 N1266 1.350 . S
C1269 C1268 1.434 . S
C1270 C1271 1.369 . S
C1270 C1272 1.419 . S
C1270 H1274 0.930 . S
C1271 C1270 1.369 . S
C1271 C1280 1.429 . S
C1272 C1270 1.419 . S
C1272 C1273 1.363 . S
C1272 H1275 0.929 . S
C1273 C1272 1.363 . S
C1273 C1279 1.428 . S
H1274 C1270 0.930 . S
H1275 C1272 0.929 . S
S1276 N1277 1.613 . S
S1276 N1278 1.610 . S
N1277 S1276 1.613 . S
N1277 C1280 1.350 . S
N1278 S1276 1.610 . S
N1278 C1279 1.351 . S
C1279 C1273 1.428 . S
C1279 N1278 1.351 . S
C1279 C1280 1.434 . S
C1280 C1271 1.429 . S
C1280 N1277 1.350 . S
C1280 C1279 1.434 . S
C1281 C1282 1.369 . S
C1281 C1283 1.419 . S
C1281 H1285 0.930 . S
C1282 C1281 1.369 . S
C1282 C1291 1.429 . S
C1283 C1281 1.419 . S
C1283 C1284 1.363 . S
C1283 H1286 0.929 . S
C1284 C1283 1.363 . S
C1284 C1290 1.428 . S
H1285 C1281 0.930 . S
H1286 C1283 0.929 . S
S1287 N1288 1.613 . S
S1287 N1289 1.610 . S
N1288 S1287 1.613 . S
N1288 C1291 1.350 . S
N1289 S1287 1.610 . S
N1289 C1290 1.351 . S
C1290 C1284 1.428 . S
C1290 N1289 1.351 . S
C1290 C1291 1.434 . S
C1291 C1282 1.429 . S
C1291 N1288 1.350 . S
C1291 C1290 1.434 . S
C1292 C1293 1.369 . S
C1292 C1294 1.419 . S
C1292 H1296 0.930 . S
C1293 C1292 1.369 . S
C1293 C1302 1.429 . S
C1294 C1292 1.419 . S
C1294 C1295 1.363 . S
C1294 H1297 0.929 . S
C1295 C1294 1.363 . S
C1295 C1301 1.428 . S
H1296 C1292 0.930 . S
H1297 C1294 0.929 . S
S1298 N1299 1.613 . S
S1298 N1300 1.610 . S
N1299 S1298 1.613 . S
N1299 C1302 1.350 . S
N1300 S1298 1.610 . S
N1300 C1301 1.351 . S
C1301 C1295 1.428 . S
C1301 N1300 1.351 . S
C1301 C1302 1.434 . S
C1302 C1293 1.429 . S
C1302 N1299 1.350 . S
C1302 C1301 1.434 . S
C1303 C1304 1.369 . S
C1303 C1305 1.419 . S
C1303 H1307 0.930 . S
C1304 C1303 1.369 . S
C1304 C1313 1.429 . S
C1305 C1303 1.419 . S
C1305 C1306 1.363 . S
C1305 H1308 0.929 . S
C1306 C1305 1.363 . S
C1306 C1312 1.428 . S
H1307 C1303 0.930 . S
H1308 C1305 0.929 . S
S1309 N1310 1.613 . S
S1309 N1311 1.610 . S
N1310 S1309 1.613 . S
N1310 C1313 1.350 . S
N1311 S1309 1.610 . S
N1311 C1312 1.351 . S
C1312 C1306 1.428 . S
C1312 N1311 1.351 . S
C1312 C1313 1.434 . S
C1313 C1304 1.429 . S
C1313 N1310 1.350 . S
C1313 C1312 1.434 . S
C1314 C1315 1.369 . S
C1314 C1316 1.419 . S
C1314 H1318 0.930 . S
C1315 C1314 1.369 . S
C1315 C1324 1.429 . S
C1316 C1314 1.419 . S
C1316 C1317 1.363 . S
C1316 H1319 0.929 . S
C1317 C1316 1.363 . S
C1317 C1323 1.428 . S
H1318 C1314 0.930 . S
H1319 C1316 0.929 . S
S1320 N1321 1.613 . S
S1320 N1322 1.610 . S
N1321 S1320 1.613 . S
N1321 C1324 1.350 . S
N1322 S1320 1.610 . S
N1322 C1323 1.351 . S
C1323 C1317 1.428 . S
C1323 N1322 1.351 . S
C1323 C1324 1.434 . S
C1324 C1315 1.429 . S
C1324 N1321 1.350 . S
C1324 C1323 1.434 . S
C1325 C1326 1.369 . S
C1325 C1327 1.419 1_545 S
C1325 H1329 0.930 . S
C1326 C1325 1.369 . S
C1326 C1335 1.429 . S
C1327 C1325 1.419 1_565 S
C1327 C1328 1.363 . S
C1327 H1330 0.929 . S
C1328 C1327 1.363 . S
C1328 C1334 1.428 1_565 S
H1329 C1325 0.930 . S
H1330 C1327 0.929 . S
S1331 N1332 1.613 . S
S1331 N1333 1.610 . S
N1332 S1331 1.613 . S
N1332 C1335 1.350 . S
N1333 S1331 1.610 . S
N1333 C1334 1.351 . S
C1334 C1328 1.428 1_545 S
C1334 N1333 1.351 . S
C1334 C1335 1.434 . S
C1335 C1326 1.429 . S
C1335 N1332 1.350 . S
C1335 C1334 1.434 . S
C811 C648 1.598 1_556 S
C809 C202 1.598 . S
C822 C663 1.795 . S
C820 C261 1.772 1_455 S
C831 C282 1.704 . S
C833 C676 1.710 . S
C844 C690 1.657 . S
C842 C162 1.637 1_655 S
C855 C702 1.608 . S
C853 C402 1.681 . S
C866 C716 1.598 . S
C864 C482 1.438 . S
C875 C442 1.749 . S
C877 C730 1.719 . S
C888 C745 1.698 . S
C886 C381 1.567 . S
C897 C461 1.703 . S
C899 C761 1.696 . S
C910 C774 1.664 . S
C908 C362 1.602 . S
C919 C415 1.574 . S
C921 C759 1.505 . S
C932 C772 1.814 . S
C930 C495 1.700 . S
C941 C301 1.865 . S
C943 C788 1.857 . S
C952 C175 1.722 . S
C954 C787 1.753 . S
C963 C215 1.687 . S
C965 C786 1.617 . S
C974 C242 1.640 . S
C976 C789 1.694 . S
C985 C141 1.742 . S
C987 C691 1.730 1_565 S
C996 C581 1.520 . S
C998 C689 1.503 . S
C1009 C649 1.605 . S
C1007 C615 1.633 1_565 S
C1020 C660 1.744 . S
C1018 C335 1.758 . S
C1029 C181 1.689 . S
C1031 C705 1.746 . S
C1042 C746 1.838 . S
C1040 C455 1.840 . S
C1053 C703 1.742 . S
C1051 C375 1.673 . S
C1064 C731 1.773 . S
C1062 C501 1.624 . S
C1075 C732 1.598 . S
C1073 C562 1.598 . S
C1084 C621 1.768 . S
C1086 C747 1.799 . S
C1095 C322 1.708 . S
C1097 C704 1.712 . S
C1108 C718 1.658 . S
C1106 C522 1.634 . S
C1117 C122 1.682 . S
C1119 C674 1.608 . S
C1130 C688 1.600 . S
C1128 C2 1.423 . S
C1141 C646 1.716 . S
C1139 C42 1.751 . S
C1152 C661 1.698 . S
C1150 C101 1.567 . S
C1161 C61 1.703 . S
C1163 C775 1.695 . S
C1172 C82 1.600 1_556 S
C1174 C760 1.665 . S
C1183 C135 1.571 . S
C1185 C773 1.512 . S
C1194 C15 1.705 . S
C1196 C758 1.811 . S
C1207 C802 1.856 . S
C1205 C341 1.864 . S
C1218 C801 1.752 . S
C1216 C535 1.724 1_554 S
C1229 C800 1.617 . S
C1227 C575 1.687 . S
C1238 C602 1.637 . S
C1240 C803 1.696 . S
C1249 C421 1.741 . S
C1251 C719 1.729 . S
C1262 C717 1.500 . S
C1260 C221 1.521 . S
C1273 C733 1.603 . S
C1271 C255 1.636 . S
C1284 C744 1.745 . S
C1282 C295 1.760 . S
C1293 C541 1.685 . S
C1295 C677 1.745 . S
C1306 C662 1.838 . S
C1304 C55 1.841 . S
C1315 C95 1.677 . S
C1317 C675 1.743 . S
C1328 C647 1.769 . S
C1326 C21 1.618 . S
