# Generated by pormake.
# Topology anh, (6,3)-cn, num edge types: 1
# Building blocks:
#     Node 0, Type 0, BuildingBlock: HISSIN_clean_sbu_0, # of connection points: 6
#     Node 1, Type 0, BuildingBlock: HISSIN_clean_sbu_0, # of connection points: 6
#     Node 2, Type 0, BuildingBlock: HISSIN_clean_sbu_0, # of connection points: 6
#     Node 3, Type 1, BuildingBlock: WUSLED_clean_sbu_0, # of connection points: 3
#     Node 4, Type 1, BuildingBlock: WUSLED_clean_sbu_0, # of connection points: 3
#     Node 5, Type 1, BuildingBlock: WUSLED_clean_sbu_0, # of connection points: 3
#     Node 6, Type 1, BuildingBlock: WUSLED_clean_sbu_0, # of connection points: 3
#     Node 7, Type 1, BuildingBlock: WUSLED_clean_sbu_0, # of connection points: 3
#     Node 8, Type 1, BuildingBlock: WUSLED_clean_sbu_0, # of connection points: 3
#     Edge 9, Type (0, 1), BuildingBlock: MIFKUJ_clean_linker_0, # of connection points: 2
#     Edge 10, Type (0, 1), BuildingBlock: MIFKUJ_clean_linker_0, # of connection points: 2
#     Edge 11, Type (0, 1), BuildingBlock: MIFKUJ_clean_linker_0, # of connection points: 2
#     Edge 12, Type (0, 1), BuildingBlock: MIFKUJ_clean_linker_0, # of connection points: 2
#     Edge 13, Type (0, 1), BuildingBlock: MIFKUJ_clean_linker_0, # of connection points: 2
#     Edge 14, Type (0, 1), BuildingBlock: MIFKUJ_clean_linker_0, # of connection points: 2
#     Edge 15, Type (0, 1), BuildingBlock: MIFKUJ_clean_linker_0, # of connection points: 2
#     Edge 16, Type (0, 1), BuildingBlock: MIFKUJ_clean_linker_0, # of connection points: 2
#     Edge 17, Type (0, 1), BuildingBlock: MIFKUJ_clean_linker_0, # of connection points: 2
#     Edge 18, Type (0, 1), BuildingBlock: MIFKUJ_clean_linker_0, # of connection points: 2
#     Edge 19, Type (0, 1), BuildingBlock: MIFKUJ_clean_linker_0, # of connection points: 2
#     Edge 20, Type (0, 1), BuildingBlock: MIFKUJ_clean_linker_0, # of connection points: 2
#     Edge 21, Type (0, 1), BuildingBlock: MIFKUJ_clean_linker_0, # of connection points: 2
#     Edge 22, Type (0, 1), BuildingBlock: MIFKUJ_clean_linker_0, # of connection points: 2
#     Edge 23, Type (0, 1), BuildingBlock: MIFKUJ_clean_linker_0, # of connection points: 2
#     Edge 24, Type (0, 1), BuildingBlock: MIFKUJ_clean_linker_0, # of connection points: 2
#     Edge 25, Type (0, 1), BuildingBlock: MIFKUJ_clean_linker_0, # of connection points: 2
#     Edge 26, Type (0, 1), BuildingBlock: MIFKUJ_clean_linker_0, # of connection points: 2
# Relax obj value: 0.187
# Max RMSD: 0.178
# Mean RMSD: 0.142
data_MOF--net-anh--node1-HISSIN_clean_sbu_0--node2-WUSLED_clean_sbu_0--edge1-MIFKUJ_clean_linker_0
_symmetry_space_group_name_H-M    P1
_symmetry_Int_Tables_number       1
_symmetry_cell_setting            triclinic
loop_
_symmetry_equiv_pos_as_xyz
'x, y, z'
_cell_length_a     49.168938
_cell_length_b     48.994126
_cell_length_c     86.295463
_cell_angle_alpha  93.051063
_cell_angle_beta   90.579161
_cell_angle_gamma 119.726
loop_
_atom_site_label
_atom_site_type_symbol
_atom_site_fract_x
_atom_site_fract_y
_atom_site_fract_z
_atom_type_partial_charge
Eu0 Eu 1.03904 0.50593 0.16858 0.0
Eu1 Eu 0.07207 0.57826 0.17462 0.0
C2 C 1.05087 0.5359 0.20386 0.0
C3 C 0.97738 0.42442 0.16322 0.0
C4 C 0.95985 0.43337 0.1728 0.0
C5 C 0.93001 0.37923 0.15267 0.0
C6 C 0.92758 0.41516 0.17246 0.0
C7 C 0.96249 0.39763 0.15296 0.0
C8 C 0.91278 0.38806 0.16248 0.0
C9 C 1.01066 0.44555 0.16273 0.0
O10 O 0.11466 0.56956 0.17412 0.0
O11 O 0.08942 0.51918 0.16338 0.0
C12 C 0.1158 0.54488 0.16774 0.0
O13 O 1.0374 0.52546 0.14583 0.0
O14 O 0.10351 0.62067 0.18886 0.0
O15 O 0.07759 0.62341 0.16899 0.0
O16 O 0.08282 0.57137 0.15003 0.0
C17 C 0.06145 0.54973 0.14043 0.0
O18 O 0.99629 0.51357 0.17167 0.0
O19 O 1.02186 0.56534 0.16647 0.0
O20 O 0.05323 0.56099 0.19798 0.0
O21 O 1.0183 0.46527 0.15192 0.0
O22 O 1.02453 0.45919 0.17612 0.0
O23 O 1.04978 0.51317 0.19467 0.0
C24 C 0.13083 0.6607 0.17253 0.0
C25 C 0.13697 0.65536 0.1571 0.0
C26 C 0.18486 0.70114 0.17701 0.0
C27 C 0.16693 0.67291 0.15166 0.0
C28 C 0.15488 0.68368 0.18245 0.0
C29 C 0.19086 0.69563 0.16165 0.0
C30 C 0.1012 0.63878 0.17899 0.0
C31 C 0.99517 0.53896 0.16799 0.0
H32 H 0.9711 0.45444 0.18057 0.0
H33 H 0.91838 0.35787 0.14511 0.0
H34 H 0.91426 0.42168 0.18024 0.0
H35 H 0.9759 0.3911 0.14526 0.0
H36 H 0.11888 0.63717 0.14933 0.0
H37 H 0.20341 0.71895 0.18474 0.0
H38 H 0.17142 0.66886 0.13973 0.0
H39 H 0.15065 0.68744 0.19446 0.0
Eu40 Eu 0.60535 1.02828 0.50488 0.0
Eu41 Eu 0.56388 0.0574 0.50694 0.0
C42 C 0.58741 0.043 0.53693 0.0
C43 C 0.62639 0.96658 0.50204 0.0
C44 C 0.60579 0.94391 0.5118 0.0
C45 C 0.61967 0.92525 0.48318 0.0
C46 C 0.59262 0.91224 0.50739 0.0
C47 C 0.63307 0.95707 0.48764 0.0
C48 C 0.59992 0.9027 0.4932 0.0
C49 C 0.63743 0.99982 0.50589 0.0
O50 O 0.61432 0.10174 0.50539 0.0
O51 O 0.642 0.07726 0.4988 0.0
C52 C 0.64097 0.10344 0.50088 0.0
O53 O 0.59023 1.02479 0.4798 0.0
O54 O 0.55421 0.08753 0.52249 0.0
O55 O 0.52431 0.06409 0.50176 0.0
O56 O 0.5724 0.06001 0.4815 0.0
C57 C 0.58055 0.0422 0.47327 0.0
O58 O 0.55501 0.98384 0.50477 0.0
O59 O 0.52657 1.00717 0.4986 0.0
O60 O 0.56125 1.0334 0.52902 0.0
O61 O 0.63781 1.01575 0.49418 0.0
O62 O 0.62569 1.00607 0.51817 0.0
O63 O 0.61245 0.05258 0.52892 0.0
C64 C 0.53919 0.11689 0.5082 0.0
C65 C 0.54533 0.12436 0.49266 0.0
C66 C 0.55771 0.17158 0.51582 0.0
C67 C 0.55775 0.1553 0.48875 0.0
C68 C 0.54491 0.14055 0.5197 0.0
C69 C 0.56451 0.17919 0.50033 0.0
C70 C 0.53285 0.08625 0.51288 0.0
C71 C 0.52773 0.98121 0.50036 0.0
H72 H 0.59978 0.95049 0.52289 0.0
H73 H 0.62559 0.9182 0.47219 0.0
H74 H 0.57802 0.89527 0.51549 0.0
H75 H 0.64845 0.97422 0.47982 0.0
H76 H 0.5417 0.10659 0.48358 0.0
H77 H 0.56316 0.18971 0.525 0.0
H78 H 0.56237 0.16055 0.4767 0.0
H79 H 0.541 0.13525 0.53178 0.0
Eu80 Eu 0.53856 0.53024 0.83747 0.0
Eu81 Eu 0.60966 0.57123 0.84087 0.0
C82 C 0.57031 0.54981 0.87034 0.0
C83 C 0.45899 0.51514 0.83365 0.0
C84 C 0.4719 0.54726 0.838 0.0
C85 C 0.41377 0.51444 0.82211 0.0
C86 C 0.45648 0.56312 0.83413 0.0
C87 C 0.4301 0.49877 0.82543 0.0
C88 C 0.42681 0.54668 0.82664 0.0
C89 C 0.47797 0.50062 0.83631 0.0
O90 O 0.60316 0.52054 0.83976 0.0
O91 O 0.55135 0.49206 0.83198 0.0
C92 C 0.57833 0.49327 0.83477 0.0
O93 O 0.55321 0.54432 0.81323 0.0
O94 O 0.64913 0.58966 0.85748 0.0
O95 O 0.65628 0.60536 0.83401 0.0
O96 O 0.60245 0.55178 0.81619 0.0
C97 C 0.57878 0.54719 0.80722 0.0
O98 O 0.54821 0.58226 0.8399 0.0
O99 O 0.59753 0.60659 0.83125 0.0
O100 O 0.58855 0.57546 0.86353 0.0
O101 O 0.49425 0.50055 0.8245 0.0
O102 O 0.49468 0.51034 0.84934 0.0
O103 O 0.5533 0.52444 0.86139 0.0
C104 C 0.69055 0.59043 0.84413 0.0
C105 C 0.71331 0.60338 0.83301 0.0
C106 C 0.70136 0.54761 0.84618 0.0
C107 C 0.72993 0.58843 0.82844 0.0
C108 C 0.68467 0.56241 0.85069 0.0
C109 C 0.72399 0.56052 0.83504 0.0
C110 C 0.6692 0.60263 0.84669 0.0
C111 C 0.57187 0.60746 0.83429 0.0
H112 H 0.49384 0.56022 0.84459 0.0
H113 H 0.3906 0.50116 0.81654 0.0
H114 H 0.46722 0.58801 0.8376 0.0
H115 H 0.42015 0.47405 0.8218 0.0
H116 H 0.71766 0.62458 0.82761 0.0
H117 H 0.69684 0.52625 0.85147 0.0
H118 H 0.74797 0.59908 0.82007 0.0
H119 H 0.66672 0.5514 0.85905 0.0
C120 C 0.56183 0.09584 0.20545 0.0
C121 C 0.58781 0.11625 0.2152 0.0
C122 C 0.61569 0.14253 0.19291 0.0
C123 C 0.61465 0.13943 0.20896 0.0
C124 C 0.58949 0.12252 0.18314 0.0
C125 C 0.56254 0.09897 0.18942 0.0
U126 U 0.52715 0.05767 0.24137 0.0
O127 O 0.47888 0.03459 0.24939 0.0
O128 O 0.50396 1.00798 0.24662 0.0
C129 C 0.47669 1.00669 0.24758 0.0
C130 C 0.53494 0.07064 0.2123 0.0
C131 C 0.45397 0.98508 0.23554 0.0
C132 C 0.43697 0.97789 0.20836 0.0
C133 C 0.45007 0.99738 0.22183 0.0
C134 C 0.43029 0.93331 0.22223 0.0
C135 C 0.42807 0.94601 0.20837 0.0
C136 C 0.44313 0.95277 0.23578 0.0
C137 C 0.57152 0.08796 0.27905 0.0
C138 C 0.54676 0.05606 0.30061 0.0
C139 C 0.59898 0.10159 0.30413 0.0
C140 C 0.59808 0.1077 0.28856 0.0
C141 C 0.57331 0.07565 0.31026 0.0
C142 C 0.54588 0.0622 0.28513 0.0
C143 C 0.57057 0.09272 0.26258 0.0
O144 O 0.54102 0.05001 0.21823 0.0
O145 O 0.51994 0.08022 0.22164 0.0
O146 O 0.54846 0.09874 0.25823 0.0
O147 O 0.57189 0.07106 0.25348 0.0
H148 H 0.5874 0.11394 0.22763 0.0
H149 H 0.63456 0.15504 0.21666 0.0
H150 H 0.59013 0.12479 0.17071 0.0
H151 H 0.54256 0.08312 0.18184 0.0
H152 H 0.43538 0.98799 0.19775 0.0
H153 H 0.45913 1.02244 0.2212 0.0
H154 H 0.42303 0.90853 0.22242 0.0
H155 H 0.44662 0.94303 0.2461 0.0
H156 H 0.52686 0.03567 0.30495 0.0
H157 H 0.61961 0.11722 0.31139 0.0
H158 H 0.61807 0.12757 0.28393 0.0
H159 H 0.52533 0.04657 0.27781 0.0
C160 C 0.61821 0.58654 0.53871 0.0
C161 C 0.61017 0.60455 0.54878 0.0
C162 C 0.61073 0.63461 0.52755 0.0
C163 C 0.60631 0.62837 0.54322 0.0
C164 C 0.61964 0.61724 0.51748 0.0
C165 C 0.62325 0.59298 0.52307 0.0
U166 U 0.62309 0.55172 0.57432 0.0
O167 O 0.60041 0.5034 0.58184 0.0
O168 O 0.65178 0.53063 0.58072 0.0
C169 C 0.62659 0.50255 0.58034 0.0
C170 C 0.6217 0.5617 0.54507 0.0
C171 C 0.62534 0.48112 0.56751 0.0
C172 C 0.6079 0.46138 0.54081 0.0
C173 C 0.60556 0.47602 0.55446 0.0
C174 C 0.64979 0.45618 0.55281 0.0
C175 C 0.63001 0.45149 0.53988 0.0
C176 C 0.64754 0.47112 0.56662 0.0
C177 C 0.61695 0.58635 0.61217 0.0
C178 C 0.61953 0.55937 0.63429 0.0
C179 C 0.60478 0.59982 0.6375 0.0
C180 C 0.60796 0.60433 0.62164 0.0
C181 C 0.61065 0.57734 0.64391 0.0
C182 C 0.62257 0.5638 0.61852 0.0
C183 C 0.61843 0.58898 0.59548 0.0
O184 O 0.64802 0.57201 0.55328 0.0
O185 O 0.59678 0.54144 0.5521 0.0
O186 O 0.59397 0.56596 0.5877 0.0
O187 O 0.64541 0.59483 0.58979 0.0
H188 H 0.60672 0.60002 0.56096 0.0
H189 H 0.59991 0.64198 0.55115 0.0
H190 H 0.6232 0.62207 0.50534 0.0
H191 H 0.6298 0.57931 0.51529 0.0
H192 H 0.59241 0.45777 0.53093 0.0
H193 H 0.58874 0.48417 0.55457 0.0
H194 H 0.66664 0.44804 0.55225 0.0
H195 H 0.66351 0.47558 0.5764 0.0
H196 H 0.62362 0.54153 0.63893 0.0
H197 H 0.59799 0.61397 0.64477 0.0
H198 H 0.60317 0.62151 0.61677 0.0
H199 H 0.62894 0.54932 0.61121 0.0
C200 C 1.05083 0.56962 0.86881 0.0
C201 C 1.02605 0.56895 0.87692 0.0
C202 C 1.0059 0.57815 0.8533 0.0
C203 C 1.00365 0.57309 0.86921 0.0
C204 C 1.03099 0.57914 0.84522 0.0
C205 C 0.05351 0.57494 0.853 0.0
U206 U 0.08137 0.56048 0.90668 0.0
O207 O 0.1021 0.53153 0.91297 0.0
O208 O 0.12967 0.58317 0.91641 0.0
C209 C 0.1302 0.55664 0.91464 0.0
C210 C 0.07395 0.56525 0.87715 0.0
C211 C 0.15199 0.55798 0.90298 0.0
C212 C 0.1617 0.56143 0.87549 0.0
C213 C 0.14096 0.55159 0.8874 0.0
C214 C 0.20513 0.58171 0.89448 0.0
C215 C 0.19404 0.57709 0.87887 0.0
C216 C 0.18417 0.57262 0.90651 0.0
C217 C 1.04619 0.56256 0.94373 0.0
C218 C 0.076 0.56291 0.96628 0.0
C219 C 1.02715 0.56328 0.96936 0.0
C220 C 1.02356 0.56295 0.95326 0.0
C221 C 0.0535 0.56339 0.97596 0.0
C222 C 0.07233 0.56243 0.95028 0.0
C223 C 1.04356 0.56281 0.92694 0.0
O224 O 0.0927 0.58941 0.88666 0.0
O225 O 0.06248 0.538 0.88343 0.0
O226 O 1.03797 0.53642 0.91934 0.0
O227 O 0.06633 0.58814 0.9213 0.0
H228 H 1.02389 0.56489 0.88919 0.0
H229 H 0.98411 0.57148 0.8756 0.0
H230 H 1.03304 0.58298 0.83293 0.0
H231 H 0.0728 0.57568 0.84671 0.0
H232 H 0.15231 0.55774 0.86368 0.0
H233 H 0.11621 0.54074 0.88441 0.0
H234 H 0.22997 0.59288 0.89743 0.0
H235 H 0.19307 0.57823 0.91847 0.0
H236 H 0.09625 0.5625 0.97107 0.0
H237 H 1.0096 0.56383 0.97665 0.0
H238 H 1.00334 0.56314 0.94828 0.0
H239 H 0.08995 0.56203 0.94298 0.0
C240 C 0.9999 0.46042 0.46861 0.0
C241 C 0.99308 0.43141 0.46084 0.0
C242 C 0.94107 0.40149 0.47295 0.0
C243 C 0.96442 0.40285 0.46284 0.0
C244 C 0.94827 0.43081 0.48065 0.0
C245 C 0.97665 0.45924 0.47851 0.0
U246 U 0.07804 0.53773 0.45357 0.0
O247 O 0.10311 0.58618 0.46524 0.0
O248 O 0.12677 0.55861 0.4639 0.0
C249 C 0.12905 0.58571 0.46856 0.0
C250 C 1.03191 0.49095 0.46845 0.0
C251 C 0.16104 0.61627 0.46908 0.0
C252 C 0.21256 0.65058 0.48295 0.0
C253 C 0.1836 0.62183 0.4809 0.0
C254 C 0.19844 0.66996 0.46113 0.0
C255 C 0.22121 0.67585 0.47317 0.0
C256 C 0.16911 0.64111 0.45922 0.0
C257 C 0.07075 0.53606 0.40586 0.0
C258 C 0.09585 0.55134 0.38102 0.0
C259 C 1.03947 0.5195 0.38142 0.0
C260 C 1.04152 0.52021 0.39774 0.0
C261 C 0.0666 0.53515 0.37278 0.0
C262 C 0.0979 0.55152 0.39732 0.0
C263 C 0.07286 0.53636 0.42313 0.0
O264 O 0.05653 0.49021 0.46309 0.0
O265 O 1.03317 0.51785 0.46607 0.0
O266 O 0.06099 0.5496 0.43238 0.0
O267 O 0.08754 0.52398 0.43023 0.0
H268 H 1.01013 0.43057 0.45328 0.0
H269 H 0.96084 0.38178 0.45635 0.0
H270 H 0.93239 0.4321 0.48882 0.0
H271 H 0.98081 0.48051 0.48509 0.0
H272 H 0.22774 0.65274 0.49262 0.0
H273 H 0.17852 0.60387 0.48898 0.0
H274 H 0.20292 0.68757 0.45299 0.0
H275 H 0.15265 0.63839 0.45002 0.0
H276 H 0.11728 0.56347 0.37483 0.0
H277 H 1.01652 0.50703 0.37558 0.0
H278 H 1.0202 0.50809 0.40402 0.0
H279 H 0.12075 0.56396 0.40327 0.0
C280 C 0.5771 0.97003 0.80338 0.0
C281 C 0.57743 0.95121 0.79047 0.0
C282 C 0.57559 0.91015 0.80719 0.0
C283 C 0.57669 0.92199 0.79233 0.0
C284 C 0.5755 0.92952 0.81998 0.0
C285 C 0.57611 0.95841 0.8181 0.0
U286 U 0.57799 0.04807 0.78722 0.0
O287 O 0.55146 0.07012 0.79766 0.0
O288 O 0.60249 0.09644 0.7989 0.0
C289 C 0.57664 0.09687 0.80221 0.0
C290 C 0.57743 1.00135 0.80243 0.0
C291 C 0.5759 0.12786 0.80236 0.0
C292 C 0.555 0.16093 0.8138 0.0
C293 C 0.55446 0.13171 0.81169 0.0
C294 C 0.59831 0.18417 0.79702 0.0
C295 C 0.57698 0.18826 0.80659 0.0
C296 C 0.59794 0.15484 0.79506 0.0
C297 C 0.5803 0.04535 0.73947 0.0
C298 C 0.59846 0.07271 0.7156 0.0
C299 C 0.56517 1.01616 0.71408 0.0
C300 C 0.56388 1.01685 0.73037 0.0
C301 C 0.58235 0.04412 0.70631 0.0
C302 C 0.59774 0.07323 0.73191 0.0
C303 C 0.57926 0.04598 0.75674 0.0
O304 O 0.60315 1.02691 0.799 0.0
O305 O 0.55211 1.0015 0.79753 0.0
O306 O 0.5529 1.03244 0.76409 0.0
O307 O 0.60484 0.06052 0.76577 0.0
H308 H 0.57813 0.95897 0.77889 0.0
H309 H 0.57652 0.90854 0.78195 0.0
H310 H 0.57543 0.92282 0.83172 0.0
H311 H 0.57589 0.97194 0.8284 0.0
H312 H 0.53838 0.16195 0.82156 0.0
H313 H 0.5375 0.11203 0.81785 0.0
H314 H 0.61559 0.20365 0.79092 0.0
H315 H 0.61526 0.15347 0.78792 0.0
H316 H 0.61139 0.09497 0.71036 0.0
H317 H 0.55294 0.99346 0.70767 0.0
H318 H 0.5504 0.99493 0.73588 0.0
H319 H 0.61045 0.09561 0.73863 0.0
C320 C 0.63099 0.53719 0.1361 0.0
C321 C 0.65464 0.54946 0.12513 0.0
C322 C 0.69045 0.53708 0.14039 0.0
C323 C 0.68347 0.54921 0.12716 0.0
C324 C 0.66638 0.52503 0.15128 0.0
C325 C 0.63766 0.52495 0.14913 0.0
U326 U 0.55307 0.53971 0.12005 0.0
O327 O 0.50515 0.51445 0.12941 0.0
O328 O 0.53211 0.56562 0.13248 0.0
C329 C 0.50535 0.54019 0.13482 0.0
C330 C 0.6003 0.53828 0.13529 0.0
C331 C 0.47484 0.54174 0.13505 0.0
C332 C 0.44409 0.56366 0.14779 0.0
C333 C 0.47262 0.56349 0.14562 0.0
C334 C 0.41817 0.52049 0.1286 0.0
C335 C 0.41574 0.54216 0.1394 0.0
C336 C 0.44683 0.52011 0.12658 0.0
C337 C 0.55397 0.54164 0.07233 0.0
C338 C 0.5507 0.56514 0.04856 0.0
C339 C 0.55882 0.52037 0.04686 0.0
C340 C 0.55794 0.51943 0.06312 0.0
C341 C 0.5551 0.54318 0.0392 0.0
C342 C 0.55047 0.56456 0.06484 0.0
C343 C 0.55363 0.54097 0.08961 0.0
O344 O 0.60058 0.56427 0.13189 0.0
O345 O 0.57389 0.51301 0.13049 0.0
O346 O 0.5411 0.51454 0.09669 0.0
O347 O 0.56583 0.56674 0.09892 0.0
H348 H 0.65095 0.5594 0.11495 0.0
H349 H 0.70017 0.55863 0.11816 0.0
H350 H 0.66944 0.51589 0.16185 0.0
H351 H 0.62057 0.51563 0.15803 0.0
H352 H 0.44459 0.58054 0.15652 0.0
H353 H 0.49311 0.58016 0.1527 0.0
H354 H 0.39791 0.50347 0.12156 0.0
H355 H 0.44688 0.50252 0.11846 0.0
H356 H 0.54699 0.58271 0.04336 0.0
H357 H 0.56297 0.50337 0.04036 0.0
H358 H 0.56094 0.5016 0.06854 0.0
H359 H 0.5471 0.58186 0.07159 0.0
H360 H 0.12527 0.49876 0.15307 0.0
H361 H 0.17369 0.49826 0.14805 0.0
H362 H 0.22699 0.59091 0.17106 0.0
H363 H 0.17813 0.59194 0.17556 0.0
H364 H 0.26085 0.59091 0.14967 0.0
H365 H 0.21137 0.51228 0.18624 0.0
H366 H 0.16921 0.46449 0.19692 0.0
H367 H 0.16901 0.40852 0.15686 0.0
H368 H 0.21097 0.45605 0.14586 0.0
H369 H 0.40513 0.58886 0.15424 0.0
H370 H 0.35672 0.58843 0.15939 0.0
H371 H 0.30422 0.497 0.13525 0.0
H372 H 0.35267 0.49591 0.13107 0.0
H373 H 0.26973 0.49602 0.15709 0.0
H374 H 0.32125 0.57725 0.12108 0.0
H375 H 0.36484 0.62607 0.11192 0.0
H376 H 0.36222 0.67823 0.15293 0.0
H377 H 0.31886 0.62968 0.1624 0.0
C378 C 0.14717 0.51918 0.15719 0.0
C379 C 0.14694 0.5453 0.16496 0.0
C380 C 0.17537 0.51872 0.1544 0.0
C381 C 0.20513 0.54413 0.15946 0.0
C382 C 0.205 0.57056 0.167 0.0
C383 C 0.17667 0.57114 0.16968 0.0
C384 C 0.23592 0.54337 0.15666 0.0
C385 C 0.26259 0.57012 0.15157 0.0
C386 C 0.23934 0.51639 0.15862 0.0
C387 C 0.21409 0.48778 0.16516 0.0
C388 C 0.20219 0.48981 0.17966 0.0
C389 C 0.17836 0.46277 0.18578 0.0
C390 C 0.16638 0.4335 0.17755 0.0
C391 C 0.17828 0.43121 0.16321 0.0
C392 C 0.20211 0.45819 0.15703 0.0
C393 C 0.38368 0.56813 0.15007 0.0
C394 C 0.38443 0.54235 0.14209 0.0
C395 C 0.35527 0.56827 0.15284 0.0
C396 C 0.32565 0.54309 0.14745 0.0
C397 C 0.32609 0.51718 0.13959 0.0
C398 C 0.35454 0.51678 0.137 0.0
C399 C 0.29469 0.54362 0.15016 0.0
C400 C 0.26795 0.51678 0.15519 0.0
C401 C 0.29129 0.57062 0.14831 0.0
C402 C 0.31702 0.59981 0.14249 0.0
C403 C 0.33007 0.59912 0.12816 0.0
C404 C 0.35473 0.62674 0.12291 0.0
C405 C 0.36634 0.65521 0.13185 0.0
C406 C 0.35323 0.65616 0.14602 0.0
C407 C 0.3286 0.62862 0.15132 0.0
H408 H 0.38546 0.67656 0.12778 0.0
H409 H 0.14793 0.4126 0.18231 0.0
H410 H 0.65463 0.16675 0.50559 0.0
H411 H 0.70369 0.21552 0.50144 0.0
H412 H 0.74554 0.16081 0.485 0.0
H413 H 0.69731 0.11253 0.4897 0.0
H414 H 0.79044 0.20667 0.49817 0.0
H415 H 0.72056 0.2087 0.4606 0.0
H416 H 0.67368 0.20805 0.44958 0.0
H417 H 0.69253 0.28863 0.47959 0.0
H418 H 0.73946 0.28977 0.4909 0.0
H419 H 0.92491 0.3376 0.46671 0.0
H420 H 0.8763 0.28934 0.47072 0.0
H421 H 0.83648 0.34366 0.49021 0.0
H422 H 0.88404 0.39204 0.48526 0.0
H423 H 0.79112 0.29775 0.47555 0.0
H424 H 0.86573 0.29413 0.51176 0.0
H425 H 0.91439 0.29391 0.51884 0.0
H426 H 0.88711 0.2131 0.48719 0.0
H427 H 0.8384 0.21298 0.47986 0.0
C428 C 0.67418 0.16494 0.50107 0.0
C429 C 0.67105 0.1348 0.49806 0.0
C430 C 0.70267 0.19329 0.4985 0.0
C431 C 0.7295 0.1931 0.49254 0.0
C432 C 0.72619 0.16288 0.48961 0.0
C433 C 0.69796 0.13471 0.49228 0.0
C434 C 0.7607 0.22366 0.48948 0.0
C435 C 0.79016 0.22627 0.49306 0.0
C436 C 0.76204 0.2504 0.48288 0.0
C437 C 0.73333 0.24918 0.47665 0.0
C438 C 0.71453 0.2261 0.46495 0.0
C439 C 0.68805 0.22566 0.45863 0.0
C440 C 0.68025 0.24824 0.46383 0.0
C441 C 0.69867 0.27118 0.47553 0.0
C442 C 0.72524 0.27177 0.4819 0.0
C443 C 0.90604 0.33988 0.47173 0.0
C444 C 0.91003 0.37027 0.47562 0.0
C445 C 0.87774 0.31152 0.47433 0.0
C446 C 0.85172 0.31158 0.48127 0.0
C447 C 0.85546 0.34178 0.48498 0.0
C448 C 0.88357 0.37013 0.48224 0.0
C449 C 0.82077 0.2809 0.48439 0.0
C450 C 0.79135 0.27824 0.48079 0.0
C451 C 0.81953 0.25385 0.49063 0.0
C452 C 0.84857 0.2537 0.49519 0.0
C453 C 0.87018 0.27638 0.50628 0.0
C454 C 0.89775 0.27631 0.51034 0.0
C455 C 0.90386 0.25354 0.50345 0.0
C456 C 0.88235 0.23072 0.49252 0.0
C457 C 0.85474 0.23068 0.48843 0.0
H458 H 0.92524 0.25356 0.50659 0.0
H459 H 0.66005 0.24798 0.45862 0.0
H460 H 0.54378 0.63622 0.85145 0.0
H461 H 0.54575 0.68631 0.84795 0.0
H462 H 0.59663 0.69665 0.8062 0.0
H463 H 0.5978 0.64848 0.81092 0.0
H464 H 0.61687 0.74985 0.81413 0.0
H465 H 0.50345 0.67565 0.8136 0.0
H466 H 0.4548 0.63568 0.82478 0.0
H467 H 0.47298 0.69769 0.86545 0.0
H468 H 0.52169 0.73798 0.85448 0.0
H469 H 0.59415 0.87473 0.78754 0.0
H470 H 0.59229 0.8249 0.79141 0.0
H471 H 0.55452 0.82242 0.83642 0.0
H472 H 0.55405 0.8708 0.8322 0.0
H473 H 0.52792 0.76636 0.8268 0.0
H474 H 0.63877 0.84105 0.82702 0.0
H475 H 0.6869 0.88241 0.81608 0.0
H476 H 0.67329 0.82035 0.77605 0.0
H477 H 0.62496 0.77871 0.78671 0.0
C478 C 0.55529 0.64905 0.84146 0.0
C479 C 0.57041 0.63748 0.83147 0.0
C480 C 0.55601 0.67805 0.83921 0.0
C481 C 0.57031 0.69628 0.82631 0.0
C482 C 0.58522 0.68428 0.8163 0.0
C483 C 0.58568 0.65606 0.81895 0.0
C484 C 0.57061 0.72764 0.82332 0.0
C485 C 0.59687 0.7527 0.81671 0.0
C486 C 0.54562 0.73368 0.8269 0.0
C487 C 0.51624 0.70961 0.8333 0.0
C488 C 0.49703 0.68067 0.82493 0.0
C489 C 0.46947 0.65798 0.83123 0.0
C490 C 0.46091 0.66413 0.84586 0.0
C491 C 0.4797 0.69299 0.85414 0.0
C492 C 0.50721 0.71576 0.84788 0.0
C493 C 0.58509 0.86378 0.79827 0.0
C494 C 0.57463 0.87837 0.80952 0.0
C495 C 0.58455 0.83492 0.80064 0.0
C496 C 0.57405 0.81912 0.81451 0.0
C497 C 0.56312 0.83333 0.82561 0.0
C498 C 0.5633 0.86192 0.82319 0.0
C499 C 0.5738 0.78797 0.81745 0.0
C500 C 0.54768 0.76314 0.82409 0.0
C501 C 0.59883 0.78215 0.81385 0.0
C502 C 0.62818 0.80688 0.80761 0.0
C503 C 0.64603 0.83627 0.81587 0.0
C504 C 0.67333 0.85975 0.80972 0.0
C505 C 0.68311 0.85403 0.79536 0.0
C506 C 0.66568 0.82475 0.78716 0.0
C507 C 0.63838 0.80119 0.79327 0.0
H508 H 0.70421 0.87226 0.7906 0.0
H509 H 0.43973 0.64666 0.85082 0.0
H510 H 0.98221 0.57609 0.14945 0.0
H511 H 0.93302 0.57509 0.14396 0.0
H512 H 0.88647 0.50072 0.17502 0.0
H513 H 0.93542 0.49975 0.17921 0.0
H514 H 0.84408 0.4888 0.15793 0.0
H515 H 0.91145 0.59497 0.17933 0.0
H516 H 0.95747 0.64853 0.18181 0.0
H517 H 0.93943 0.66381 0.13519 0.0
H518 H 0.89343 0.61029 0.13241 0.0
H519 H 0.70745 0.50573 0.16199 0.0
H520 H 0.75662 0.50723 0.16671 0.0
H521 H 0.79674 0.56766 0.1292 0.0
H522 H 0.74805 0.56848 0.12506 0.0
H523 H 0.84145 0.58656 0.14931 0.0
H524 H 0.76983 0.47814 0.13022 0.0
H525 H 0.7214 0.4267 0.13094 0.0
H526 H 0.74647 0.41811 0.17751 0.0
H527 H 0.79486 0.4696 0.17711 0.0
C528 C 0.96158 0.55944 0.15519 0.0
C529 C 0.96372 0.53822 0.16498 0.0
C530 C 0.93288 0.5592 0.15221 0.0
C531 C 0.90469 0.53872 0.15941 0.0
C532 C 0.9069 0.51722 0.16912 0.0
C533 C 0.93544 0.51672 0.17167 0.0
C534 C 0.87328 0.53898 0.15661 0.0
C535 C 0.84407 0.51058 0.15633 0.0
C536 C 0.8713 0.56667 0.15408 0.0
C537 C 0.89928 0.59852 0.15561 0.0
C538 C 0.91747 0.60969 0.16958 0.0
C539 C 0.9435 0.64005 0.17104 0.0
C540 C 0.95144 0.65951 0.15865 0.0
C541 C 0.93331 0.64868 0.14477 0.0
C542 C 0.90725 0.61836 0.14324 0.0
C543 C 0.72633 0.51989 0.15465 0.0
C544 C 0.72203 0.53705 0.14298 0.0
C545 C 0.7551 0.52016 0.15728 0.0
C546 C 0.78142 0.5368 0.14814 0.0
C547 C 0.77749 0.55416 0.13655 0.0
C548 C 0.74879 0.55432 0.13405 0.0
C549 C 0.81272 0.5366 0.15079 0.0
C550 C 0.84178 0.56494 0.15096 0.0
C551 C 0.81451 0.50904 0.15363 0.0
C552 C 0.78585 0.47777 0.15366 0.0
C553 C 0.76497 0.46528 0.14061 0.0
C554 C 0.73752 0.43613 0.14097 0.0
C555 C 0.73084 0.41917 0.15427 0.0
C556 C 0.75166 0.43126 0.16722 0.0
C557 C 0.77912 0.46038 0.16692 0.0
H558 H 0.70955 0.39665 0.15454 0.0
H559 H 0.97158 0.68301 0.15982 0.0
H560 H 0.51142 0.92159 0.51081 0.0
H561 H 0.46173 0.87187 0.50718 0.0
H562 H 0.42485 0.91649 0.47854 0.0
H563 H 0.47348 0.9665 0.48329 0.0
H564 H 0.37828 0.87983 0.48958 0.0
H565 H 0.45057 0.84892 0.46753 0.0
H566 H 0.49385 0.83709 0.466 0.0
H567 H 0.46042 0.7813 0.50549 0.0
H568 H 0.41707 0.79291 0.50729 0.0
H569 H 0.24286 0.73484 0.45992 0.0
H570 H 0.29262 0.78351 0.4638 0.0
H571 H 0.32374 0.74094 0.49678 0.0
H572 H 0.2753 0.69157 0.49217 0.0
H573 H 0.37218 0.77592 0.48395 0.0
H574 H 0.29813 0.80436 0.50472 0.0
H575 H 0.25093 0.80989 0.50367 0.0
H576 H 0.28663 0.86845 0.46525 0.0
H577 H 0.33394 0.86307 0.46601 0.0
C578 C 0.49282 0.92092 0.50367 0.0
C579 C 0.49738 0.94895 0.4974 0.0
C580 C 0.4639 0.89179 0.50135 0.0
C581 C 0.43817 0.88863 0.49211 0.0
C582 C 0.44312 0.91682 0.48578 0.0
C583 C 0.47161 0.946 0.48845 0.0
C584 C 0.40627 0.85707 0.48931 0.0
C585 C 0.37758 0.85739 0.48812 0.0
C586 C 0.40319 0.8264 0.48778 0.0
C587 C 0.43077 0.82192 0.48759 0.0
C588 C 0.45274 0.8345 0.476 0.0
C589 C 0.47716 0.82771 0.47505 0.0
C590 C 0.47967 0.80826 0.48556 0.0
C591 C 0.45831 0.79621 0.49731 0.0
C592 C 0.43383 0.80288 0.4983 0.0
C593 C 0.25995 0.73509 0.46797 0.0
C594 C 0.25313 0.70757 0.47569 0.0
C595 C 0.28898 0.76394 0.47044 0.0
C596 C 0.31296 0.76752 0.48104 0.0
C597 C 0.30646 0.7401 0.48859 0.0
C598 C 0.2777 0.71116 0.48598 0.0
C599 C 0.34466 0.79892 0.48408 0.0
C600 C 0.37314 0.79851 0.48538 0.0
C601 C 0.34754 0.82944 0.48564 0.0
C602 C 0.31943 0.83313 0.48535 0.0
C603 C 0.29585 0.81835 0.49603 0.0
C604 C 0.26909 0.82146 0.49549 0.0
C605 C 0.26576 0.83946 0.48438 0.0
C606 C 0.28924 0.85451 0.47384 0.0
C607 C 0.31605 0.85149 0.47434 0.0
H608 H 0.245 0.84179 0.48396 0.0
H609 H 0.49798 0.80226 0.48449 0.0
H610 H 0.62981 0.48472 0.82869 0.0
H611 H 0.63053 0.43508 0.82337 0.0
H612 H 0.53115 0.38231 0.82958 0.0
H613 H 0.53019 0.43155 0.83443 0.0
H614 H 0.55981 0.35475 0.84438 0.0
H615 H 0.56172 0.38879 0.79318 0.0
H616 H 0.58151 0.42457 0.77189 0.0
H617 H 0.66914 0.42541 0.77505 0.0
H618 H 0.64999 0.38992 0.7965 0.0
H619 H 0.52983 0.20122 0.81669 0.0
H620 H 0.53133 0.25125 0.82148 0.0
H621 H 0.6265 0.30039 0.80708 0.0
H622 H 0.6256 0.25035 0.80252 0.0
H623 H 0.60116 0.3308 0.79659 0.0
H624 H 0.60158 0.29887 0.84775 0.0
H625 H 0.58442 0.26538 0.86999 0.0
H626 H 0.49584 0.26275 0.86808 0.0
H627 H 0.51237 0.29598 0.84572 0.0
C628 C 0.60805 0.46261 0.82897 0.0
C629 C 0.57994 0.46282 0.83211 0.0
C630 C 0.60843 0.4339 0.8258 0.0
C631 C 0.58084 0.40406 0.82593 0.0
C632 C 0.55296 0.40439 0.82932 0.0
C633 C 0.55244 0.43296 0.83212 0.0
C634 C 0.5808 0.3727 0.82282 0.0
C635 C 0.56855 0.34955 0.8338 0.0
C636 C 0.59282 0.36527 0.80927 0.0
C637 C 0.60457 0.38703 0.79658 0.0
C638 C 0.58534 0.39689 0.78945 0.0
C639 C 0.5964 0.41704 0.77732 0.0
C640 C 0.6266 0.42734 0.77216 0.0
C641 C 0.64578 0.41747 0.77909 0.0
C642 C 0.63482 0.39733 0.79123 0.0
C643 C 0.55155 0.22236 0.81472 0.0
C644 C 0.57771 0.22032 0.80925 0.0
C645 C 0.55231 0.25162 0.81751 0.0
C646 C 0.57925 0.28077 0.81502 0.0
C647 C 0.60518 0.27892 0.80926 0.0
C648 C 0.60453 0.24964 0.80654 0.0
C649 C 0.5802 0.31268 0.8182 0.0
C650 C 0.5925 0.33593 0.80721 0.0
C651 C 0.56854 0.3204 0.83185 0.0
C652 C 0.55807 0.29956 0.84493 0.0
C653 C 0.57831 0.29084 0.85196 0.0
C654 C 0.56873 0.27199 0.86462 0.0
C655 C 0.53902 0.26185 0.87041 0.0
C656 C 0.51882 0.27055 0.86356 0.0
C657 C 0.52828 0.28941 0.85089 0.0
H658 H 0.53168 0.24733 0.88024 0.0
H659 H 0.63511 0.4429 0.76275 0.0
H660 H 0.63971 0.88265 0.48466 0.0
H661 H 0.63286 0.83104 0.4881 0.0
H662 H 0.53719 0.7975 0.50071 0.0
H663 H 0.54416 0.85008 0.49748 0.0
H664 H 0.57336 0.78864 0.52236 0.0
H665 H 0.55115 0.76844 0.46684 0.0
H666 H 0.56294 0.7861 0.44027 0.0
H667 H 0.6542 0.79546 0.44543 0.0
H668 H 0.64307 0.77816 0.47208 0.0
H669 H 0.55839 0.63875 0.53032 0.0
H670 H 0.55047 0.68169 0.52263 0.0
H671 H 0.64384 0.72877 0.50519 0.0
H672 H 0.65163 0.68546 0.51268 0.0
H673 H 0.60092 0.72644 0.48502 0.0
H674 H 0.63001 0.75445 0.53889 0.0
H675 H 0.6279 0.74726 0.56699 0.0
H676 H 0.53414 0.73225 0.56678 0.0
H677 H 0.5355 0.73891 0.5386 0.0
C678 C 0.61671 0.86397 0.4874 0.0
C679 C 0.59225 0.86999 0.49062 0.0
C680 C 0.61291 0.83456 0.48947 0.0
C681 C 0.58436 0.81062 0.49439 0.0
C682 C 0.55919 0.81587 0.49671 0.0
C683 C 0.56308 0.84556 0.49475 0.0
C684 C 0.58246 0.78132 0.49854 0.0
C685 C 0.57834 0.77426 0.51416 0.0
C686 C 0.59048 0.76395 0.48786 0.0
C687 C 0.59617 0.77176 0.4714 0.0
C688 C 0.57363 0.77403 0.46225 0.0
C689 C 0.58025 0.78409 0.4472 0.0
C690 C 0.60927 0.79183 0.44115 0.0
C691 C 0.63167 0.78931 0.4501 0.0
C692 C 0.62517 0.77923 0.46515 0.0
C693 C 0.57706 0.65827 0.52476 0.0
C694 C 0.60549 0.65914 0.52193 0.0
C695 C 0.57263 0.6827 0.52051 0.0
C696 C 0.59672 0.70823 0.51355 0.0
C697 C 0.62507 0.70901 0.51056 0.0
C698 C 0.62943 0.68441 0.51472 0.0
C699 C 0.5919 0.73369 0.50886 0.0
C700 C 0.59489 0.74006 0.49316 0.0
C701 C 0.58367 0.75093 0.51959 0.0
C702 C 0.58268 0.74668 0.53655 0.0
C703 C 0.60879 0.74924 0.54478 0.0
C704 C 0.60777 0.74536 0.56074 0.0
C705 C 0.58085 0.73916 0.56865 0.0
C706 C 0.55494 0.73695 0.56063 0.0
C707 C 0.55583 0.7408 0.54466 0.0
H708 H 0.58011 0.73616 0.58101 0.0
H709 H 0.61443 0.79982 0.42954 0.0
H710 H 0.75675 0.55 0.85656 0.0
H711 H 0.80323 0.54563 0.85199 0.0
H712 H 0.78571 0.53968 0.80249 0.0
H713 H 0.73901 0.54461 0.80701 0.0
H714 H 0.81683 0.50147 0.8274 0.0
H715 H 0.82674 0.59794 0.80247 0.0
H716 H 0.81545 0.64179 0.80419 0.0
H717 H 0.85773 0.66939 0.85027 0.0
H718 H 0.86853 0.62522 0.84895 0.0
H719 H 0.97573 0.54683 0.82604 0.0
H720 H 0.9264 0.54058 0.8156 0.0
H721 H 0.92869 0.60505 0.85242 0.0
H722 H 0.97846 0.61227 0.86252 0.0
H723 H 0.90406 0.61187 0.82711 0.0
H724 H 0.89118 0.52933 0.85757 0.0
H725 H 0.89623 0.48526 0.86686 0.0
H726 H 0.85587 0.43195 0.82348 0.0
H727 H 0.85098 0.47595 0.81386 0.0
C728 C 0.76201 0.54633 0.84472 0.0
C729 C 0.74491 0.548 0.83208 0.0
C730 C 0.78849 0.54394 0.84214 0.0
C731 C 0.7977 0.54291 0.82695 0.0
C732 C 0.77868 0.54076 0.81426 0.0
C733 C 0.75227 0.54356 0.81683 0.0
C734 C 0.82966 0.54969 0.82483 0.0
C735 C 0.8361 0.52531 0.82661 0.0
C736 C 0.85422 0.58127 0.82504 0.0
C737 C 0.84814 0.60811 0.82565 0.0
C738 C 0.83333 0.61317 0.81302 0.0
C739 C 0.82705 0.6381 0.81392 0.0
C740 C 0.8358 0.65832 0.82734 0.0
C741 C 0.85089 0.65368 0.83989 0.0
C742 C 0.85707 0.6287 0.83907 0.0
C743 C 0.96626 0.56055 0.83152 0.0
C744 C 0.9805 0.57975 0.84514 0.0
C745 C 0.93806 0.55675 0.82565 0.0
C746 C 0.92391 0.57198 0.83342 0.0
C747 C 0.93938 0.59313 0.84628 0.0
C748 C 0.9676 0.59706 0.8521 0.0
C749 C 0.89156 0.56342 0.82929 0.0
C750 C 0.88506 0.58764 0.82677 0.0
C751 C 0.86679 0.53191 0.82949 0.0
C752 C 0.87144 0.5062 0.83485 0.0
C753 C 0.88396 0.50845 0.8499 0.0
C754 C 0.88663 0.48342 0.85526 0.0
C755 C 0.87657 0.4559 0.84573 0.0
C756 C 0.86383 0.45336 0.83082 0.0
C757 C 0.86115 0.47835 0.82539 0.0
H758 H 0.8785 0.43647 0.84993 0.0
H759 H 0.83097 0.67762 0.828 0.0
H760 H 0.23933 0.68406 0.15905 0.0
H761 H 0.29419 0.72403 0.15532 0.0
H762 H 0.26495 0.79283 0.14895 0.0
H763 H 0.21081 0.75291 0.15207 0.0
H764 H 0.31308 0.80808 0.13347 0.0
H765 H 0.28081 0.77578 0.185 0.0
H766 H 0.26246 0.74079 0.20664 0.0
H767 H 0.34152 0.72638 0.20288 0.0
H768 H 0.36005 0.76091 0.181 0.0
H769 H 0.3786 0.93444 0.18955 0.0
H770 H 0.35324 0.8919 0.16927 0.0
H771 H 0.42813 0.8706 0.17422 0.0
H772 H 0.45291 0.91256 0.19496 0.0
H773 H 0.37272 0.82527 0.18306 0.0
H774 H 0.40679 0.88619 0.13707 0.0
H775 H 0.41511 0.93057 0.12168 0.0
H776 H 0.31729 0.90167 0.12327 0.0
H777 H 0.30843 0.85737 0.13873 0.0
C778 C 0.24488 0.70749 0.15619 0.0
C779 C 0.22159 0.71602 0.15586 0.0
C780 C 0.27597 0.73018 0.15411 0.0
C781 C 0.28362 0.76142 0.15206 0.0
C782 C 0.25964 0.76886 0.15038 0.0
C783 C 0.22878 0.74623 0.15227 0.0
C784 C 0.31597 0.78766 0.15447 0.0
C785 C 0.32656 0.81181 0.14419 0.0
C786 C 0.33334 0.79235 0.1685 0.0
C787 C 0.32138 0.77024 0.1811 0.0
C788 C 0.29399 0.76471 0.18861 0.0
C789 C 0.28362 0.74506 0.20095 0.0
C790 C 0.30071 0.7312 0.20606 0.0
C791 C 0.32819 0.73695 0.19883 0.0
C792 C 0.33858 0.75647 0.18642 0.0
C793 C 0.39009 0.92134 0.18588 0.0
C794 C 0.41706 0.92592 0.19392 0.0
C795 C 0.37591 0.89736 0.17414 0.0
C796 C 0.38897 0.87823 0.17018 0.0
C797 C 0.41787 0.88527 0.17707 0.0
C798 C 0.43174 0.90887 0.18898 0.0
C799 C 0.36855 0.84665 0.16262 0.0
C800 C 0.36047 0.82124 0.1719 0.0
C801 C 0.35158 0.84187 0.14849 0.0
C802 C 0.35698 0.86834 0.13898 0.0
C803 C 0.38709 0.88933 0.13414 0.0
C804 C 0.39188 0.91448 0.1254 0.0
C805 C 0.36674 0.9189 0.12147 0.0
C806 C 0.33673 0.89817 0.12625 0.0
C807 C 0.3318 0.87297 0.13495 0.0
H808 H 0.37052 0.9384 0.11473 0.0
H809 H 0.29275 0.71614 0.21568 0.0
H810 H 0.54851 0.22193 0.51116 0.0
H811 H 0.57107 0.27639 0.50464 0.0
H812 H 0.63276 0.26501 0.4733 0.0
H813 H 0.61158 0.21028 0.4804 0.0
H814 H 0.65987 0.31982 0.49643 0.0
H815 H 0.57947 0.27173 0.45518 0.0
H816 H 0.52608 0.22947 0.44704 0.0
H817 H 0.48725 0.26702 0.48057 0.0
H818 H 0.54032 0.30931 0.48898 0.0
H819 H 0.67711 0.46542 0.51976 0.0
H820 H 0.67632 0.431 0.49767 0.0
H821 H 0.58112 0.36231 0.50745 0.0
H822 H 0.58159 0.39694 0.52866 0.0
H823 H 0.58814 0.3565 0.47824 0.0
H824 H 0.64611 0.36666 0.52719 0.0
H825 H 0.68868 0.39727 0.54699 0.0
H826 H 0.75691 0.42084 0.51198 0.0
H827 H 0.71457 0.39071 0.49193 0.0
C828 C 0.56713 0.23099 0.503 0.0
C829 C 0.57826 0.21197 0.49625 0.0
C830 C 0.57965 0.26188 0.49913 0.0
C831 C 0.60299 0.27398 0.48822 0.0
C832 C 0.61451 0.25539 0.48156 0.0
C833 C 0.60224 0.22439 0.48556 0.0
C834 C 0.616 0.30686 0.48465 0.0
C835 C 0.64507 0.32836 0.49179 0.0
C836 C 0.59603 0.31723 0.4788 0.0
C837 C 0.56394 0.29413 0.47247 0.0
C838 C 0.55952 0.27127 0.46063 0.0
C839 C 0.52931 0.24718 0.45605 0.0
C840 C 0.50329 0.24567 0.46322 0.0
C841 C 0.50741 0.26839 0.47492 0.0
C842 C 0.53755 0.29256 0.47952 0.0
C843 C 0.65598 0.44319 0.51681 0.0
C844 C 0.62961 0.43317 0.52589 0.0
C845 C 0.65538 0.42384 0.50418 0.0
C846 C 0.6288 0.39402 0.501 0.0
C847 C 0.60181 0.38532 0.50949 0.0
C848 C 0.60219 0.40482 0.52179 0.0
C849 C 0.6304 0.36886 0.49164 0.0
C850 C 0.60444 0.34884 0.48169 0.0
C851 C 0.65181 0.35897 0.49613 0.0
C852 C 0.6773 0.37697 0.50807 0.0
C853 C 0.67022 0.37853 0.52373 0.0
C854 C 0.69426 0.3958 0.53498 0.0
C855 C 0.72548 0.41111 0.53073 0.0
C856 C 0.7327 0.4091 0.51523 0.0
C857 C 0.7087 0.39202 0.50391 0.0
H858 H 0.74408 0.42443 0.53945 0.0
H859 H 0.47995 0.22682 0.45977 0.0
H860 H 0.42306 0.58475 0.84925 0.0
H861 H 0.38528 0.60252 0.85062 0.0
H862 H 0.34748 0.55879 0.8049 0.0
H863 H 0.38717 0.54239 0.8029 0.0
H864 H 0.34291 0.61344 0.81232 0.0
H865 H 0.31925 0.51618 0.83378 0.0
H866 H 0.32915 0.48117 0.84947 0.0
H867 H 0.33654 0.53725 0.89095 0.0
H868 H 0.32746 0.57309 0.87548 0.0
H869 H 0.18653 0.54733 0.8501 0.0
H870 H 0.22701 0.5584 0.83168 0.0
H871 H 0.29209 0.64028 0.86049 0.0
H872 H 0.25108 0.63084 0.87859 0.0
H873 H 0.28029 0.56517 0.858 0.0
H874 H 0.30694 0.66431 0.83484 0.0
H875 H 0.29681 0.69778 0.81809 0.0
H876 H 0.27957 0.63301 0.77875 0.0
H877 H 0.28905 0.59886 0.79536 0.0
C878 C 0.40779 0.58009 0.83914 0.0
C879 C 0.4078 0.56198 0.82597 0.0
C880 C 0.38617 0.59021 0.83999 0.0
C881 C 0.36353 0.58131 0.828 0.0
C882 C 0.36494 0.56561 0.81426 0.0
C883 C 0.38718 0.55595 0.81323 0.0
C884 C 0.33577 0.58377 0.83117 0.0
C885 C 0.32883 0.60262 0.82216 0.0
C886 C 0.31769 0.56934 0.84401 0.0
C887 C 0.32289 0.54753 0.85341 0.0
C888 C 0.32325 0.52124 0.84623 0.0
C889 C 0.32872 0.50123 0.85509 0.0
C890 C 0.33351 0.50701 0.87119 0.0
C891 C 0.33285 0.53282 0.87847 0.0
C892 C 0.32755 0.553 0.86965 0.0
C893 C 0.20884 0.56878 0.85214 0.0
C894 C 0.21598 0.58766 0.8661 0.0
C895 C 0.23183 0.57527 0.84143 0.0
C896 C 0.26228 0.60016 0.84476 0.0
C897 C 0.26845 0.62129 0.85764 0.0
C898 C 0.24528 0.61524 0.86822 0.0
C899 C 0.28791 0.59569 0.83945 0.0
C900 C 0.2942 0.5759 0.84808 0.0
C901 C 0.3048 0.60877 0.82618 0.0
C902 C 0.29805 0.62873 0.8164 0.0
C903 C 0.30036 0.65688 0.8227 0.0
C904 C 0.29493 0.67608 0.8132 0.0
C905 C 0.28737 0.66744 0.79738 0.0
C906 C 0.28528 0.63961 0.79102 0.0
C907 C 0.29067 0.62033 0.80046 0.0
H908 H 0.28328 0.68239 0.79004 0.0
H909 H 0.33769 0.49145 0.87804 0.0
H910 H 0.88973 0.34243 0.18192 0.0
H911 H 0.83452 0.30371 0.18469 0.0
H912 H 0.80778 0.34748 0.15005 0.0
H913 H 0.86353 0.38663 0.14731 0.0
H914 H 0.77184 0.3252 0.18201 0.0
H915 H 0.80618 0.29221 0.13484 0.0
H916 H 0.84661 0.28519 0.12145 0.0
H917 H 0.84245 0.22253 0.15548 0.0
H918 H 0.80231 0.22955 0.16919 0.0
H919 H 0.62096 0.1882 0.17479 0.0
H920 H 0.66989 0.23318 0.16703 0.0
H921 H 0.72298 0.19689 0.18961 0.0
H922 H 0.67427 0.15207 0.19741 0.0
H923 H 0.74341 0.21793 0.16033 0.0
H924 H 0.71985 0.25055 0.20864 0.0
H925 H 0.68945 0.26077 0.22832 0.0
H926 H 0.68169 0.32509 0.19913 0.0
H927 H 0.71172 0.31488 0.17915 0.0
C928 C 0.87189 0.34371 0.17502 0.0
C929 C 0.88001 0.36649 0.16423 0.0
C930 C 0.84072 0.322 0.17666 0.0
C931 C 0.81773 0.32304 0.16745 0.0
C932 C 0.82566 0.34675 0.15716 0.0
C933 C 0.85708 0.36862 0.15551 0.0
C934 C 0.78583 0.29727 0.16779 0.0
C935 C 0.7649 0.30187 0.17683 0.0
C936 C 0.77831 0.26694 0.16171 0.0
C937 C 0.8012 0.26136 0.153 0.0
C938 C 0.81389 0.27693 0.13946 0.0
C939 C 0.83679 0.27299 0.13183 0.0
C940 C 0.84707 0.2534 0.13761 0.0
C941 C 0.8344 0.23763 0.15099 0.0
C942 C 0.81151 0.24151 0.15867 0.0
C943 C 0.64312 0.18969 0.17779 0.0
C944 C 0.64427 0.16706 0.18662 0.0
C945 C 0.67082 0.21528 0.17349 0.0
C946 C 0.69962 0.21806 0.17789 0.0
C947 C 0.70074 0.19481 0.18616 0.0
C948 C 0.67313 0.16945 0.19059 0.0
C949 C 0.72878 0.2458 0.17432 0.0
C950 C 0.74949 0.24142 0.1649 0.0
C951 C 0.73657 0.27617 0.18057 0.0
C952 C 0.7174 0.2814 0.19225 0.0
C953 C 0.71117 0.26642 0.20628 0.0
C954 C 0.69415 0.27234 0.21754 0.0
C955 C 0.68347 0.29341 0.21494 0.0
C956 C 0.68984 0.30864 0.20109 0.0
C957 C 0.70683 0.30278 0.18979 0.0
H958 H 0.67038 0.29805 0.22368 0.0
H959 H 0.86486 0.25045 0.13171 0.0
H960 H 1.01766 0.5131 0.1177 0.0
H961 H 1.02225 0.51707 0.08974 0.0
H962 H 0.11627 0.59577 0.09683 0.0
H963 H 0.11157 0.59246 0.12498 0.0
H964 H 0.08474 0.60742 0.07577 0.0
H965 H 0.10298 0.52236 0.08389 0.0
H966 H 0.09347 0.47196 0.09345 0.0
H967 H 1.00644 0.4229 0.06668 0.0
H968 H 1.01515 0.47306 0.05715 0.0
H969 H 0.10654 0.59975 0.99404 0.0
H970 H 0.1135 0.59857 0.02209 0.0
H971 H 1.01653 0.52632 0.02396 0.0
H972 H 1.0096 0.52694 0.9959 0.0
H973 H 0.05761 0.51365 0.04024 0.0
H974 H 1.03789 0.60038 0.03447 0.0
H975 H 1.04905 0.65061 0.02401 0.0
H976 H 0.14128 0.69638 0.04586 0.0
H977 H 0.13083 0.64624 0.05624 0.0
C978 C 1.03935 0.53124 0.11334 0.0
C979 C 0.06429 0.55243 0.12353 0.0
C980 C 1.04201 0.53334 0.09734 0.0
C981 C 0.06982 0.55633 0.09122 0.0
C982 C 0.09468 0.57775 0.10135 0.0
C983 C 0.09195 0.57583 0.1174 0.0
C984 C 0.07231 0.55846 0.07422 0.0
C985 C 0.0794 0.58707 0.06801 0.0
C986 C 0.06506 0.53181 0.06411 0.0
C987 C 0.05962 0.50156 0.06991 0.0
C988 C 0.08167 0.50088 0.08015 0.0
C989 C 0.07645 0.47233 0.08554 0.0
C990 C 1.04934 0.44425 0.0807 0.0
C991 C 1.02741 0.44466 0.07043 0.0
C992 C 1.0325 0.47315 0.06502 0.0
C993 C 0.08678 0.58355 1.00046 0.0
C994 C 0.05748 0.56352 0.9929 0.0
C995 C 0.09076 0.583 0.01643 0.0
C996 C 0.06546 0.56248 0.025 0.0
C997 C 1.03628 0.5423 0.01746 0.0
C998 C 1.03226 0.5429 1.00152 0.0
C999 C 0.06908 0.56219 0.04193 0.0
C1000 C 0.0633 0.53401 0.04807 0.0
C1001 C 0.07768 0.58921 0.05195 0.0
C1002 C 0.08369 0.6195 0.04601 0.0
C1003 C 0.06062 0.62111 0.03696 0.0
C1004 C 0.06681 0.64956 0.03106 0.0
C1005 C 0.09588 0.67666 0.03424 0.0
C1006 C 0.11879 0.67537 0.04339 0.0
C1007 C 0.11274 0.64694 0.04929 0.0
H1008 H 0.10064 0.69866 0.02965 0.0
H1009 H 1.04535 0.42217 0.08488 0.0
H1010 H 0.62156 0.03968 0.45316 0.0
H1011 H 0.62034 0.04196 0.42481 0.0
H1012 H 0.53449 0.04541 0.42678 0.0
H1013 H 0.53621 0.04432 0.45517 0.0
H1014 H 0.5374 1.00041 0.40251 0.0
H1015 H 0.59138 0.1087 0.42357 0.0
H1016 H 0.63202 0.15479 0.43923 0.0
H1017 H 0.70378 0.14959 0.41347 0.0
H1018 H 0.66351 0.1029 0.3979 0.0
H1019 H 0.52652 0.05865 0.33067 0.0
H1020 H 0.52772 0.04758 0.35783 0.0
H1021 H 0.62281 0.0662 0.35409 0.0
H1022 H 0.62169 0.07712 0.32681 0.0
H1023 H 0.61652 0.09727 0.37904 0.0
H1024 H 0.56398 0.99209 0.35655 0.0
H1025 H 0.52422 0.9466 0.34017 0.0
H1026 H 0.45122 0.94554 0.36747 0.0
H1027 H 0.49052 0.99139 0.38387 0.0
C1028 C 0.60236 0.04072 0.44749 0.0
C1029 C 0.57901 0.04192 0.45624 0.0
C1030 C 0.60172 0.04204 0.43137 0.0
C1031 C 0.57731 0.0438 0.42381 0.0
C1032 C 0.55344 0.044 0.43248 0.0
C1033 C 0.55454 0.04355 0.44863 0.0
C1034 C 0.57737 0.04681 0.4069 0.0
C1035 C 0.5545 1.02162 0.39733 0.0
C1036 C 0.60025 0.07421 0.40024 0.0
C1037 C 0.62445 0.10192 0.40979 0.0
C1038 C 0.61583 0.11704 0.42142 0.0
C1039 C 0.63882 0.14337 0.43024 0.0
C1040 C 0.67051 0.15502 0.4274 0.0
C1041 C 0.67924 0.14043 0.41571 0.0
C1042 C 0.65635 0.11401 0.40691 0.0
C1043 C 0.54755 0.06 0.33558 0.0
C1044 C 0.57406 0.06882 0.32667 0.0
C1045 C 0.54817 0.0536 0.35107 0.0
C1046 C 0.57524 0.05575 0.35788 0.0
C1047 C 0.6017 0.0644 0.349 0.0
C1048 C 0.6011 0.07082 0.33349 0.0
C1049 C 0.57652 0.05092 0.37454 0.0
C1050 C 0.5996 0.07584 0.38412 0.0
C1051 C 0.55396 1.02318 0.38114 0.0
C1052 C 0.53022 0.99538 0.37138 0.0
C1053 C 0.53944 0.98233 0.359 0.0
C1054 C 0.51698 0.95645 0.34972 0.0
C1055 C 0.48521 0.94323 0.35276 0.0
C1056 C 0.47584 0.95583 0.36512 0.0
C1057 C 0.49821 0.98175 0.37443 0.0
H1058 H 0.46786 0.9232 0.34556 0.0
H1059 H 0.68835 0.17538 0.4342 0.0
H1060 H 0.62838 0.55266 0.79091 0.0
H1061 H 0.63388 0.55446 0.76285 0.0
H1062 H 0.54142 0.54291 0.75703 0.0
H1063 H 0.53546 0.54064 0.78508 0.0
H1064 H 0.55118 0.50718 0.73535 0.0
H1065 H 0.60581 0.61498 0.75636 0.0
H1066 H 0.64439 0.6611 0.77285 0.0
H1067 H 0.71946 0.65211 0.75291 0.0
H1068 H 0.68128 0.60566 0.73644 0.0
H1069 H 0.56228 0.56972 0.66172 0.0
H1070 H 0.55704 0.56048 0.68945 0.0
H1071 H 0.64648 0.56399 0.69112 0.0
H1072 H 0.65199 0.57351 0.66348 0.0
H1073 H 0.63966 0.60155 0.7145 0.0
H1074 H 0.58484 0.4957 0.69214 0.0
H1075 H 0.54623 0.45233 0.67432 0.0
H1076 H 0.47144 0.45942 0.69587 0.0
H1077 H 0.50968 0.50319 0.71369 0.0
C1078 C 0.60912 0.55033 0.78367 0.0
C1079 C 0.58155 0.54673 0.79022 0.0
C1080 C 0.61236 0.55145 0.76765 0.0
C1081 C 0.5882 0.54921 0.75794 0.0
C1082 C 0.56033 0.54472 0.76438 0.0
C1083 C 0.55702 0.54354 0.7804 0.0
C1084 C 0.59227 0.55234 0.74108 0.0
C1085 C 0.57036 0.52792 0.73078 0.0
C1086 C 0.61773 0.57912 0.73517 0.0
C1087 C 0.64066 0.60657 0.74534 0.0
C1088 C 0.63052 0.6226 0.75563 0.0
C1089 C 0.65232 0.64886 0.76494 0.0
C1090 C 0.68435 0.65945 0.76397 0.0
C1091 C 0.69464 0.64383 0.75368 0.0
C1092 C 0.67294 0.61753 0.74436 0.0
C1093 C 0.58084 0.56869 0.66807 0.0
C1094 C 0.60755 0.57237 0.66059 0.0
C1095 C 0.5777 0.56313 0.68379 0.0
C1096 C 0.60128 0.56131 0.69217 0.0
C1097 C 0.62805 0.56521 0.68475 0.0
C1098 C 0.6311 0.57054 0.66902 0.0
C1099 C 0.59853 0.55658 0.70887 0.0
C1100 C 0.62068 0.58069 0.71911 0.0
C1101 C 0.5733 0.52962 0.71468 0.0
C1102 C 0.55016 0.5029 0.70418 0.0
C1103 C 0.56018 0.48816 0.69302 0.0
C1104 C 0.53836 0.46348 0.68293 0.0
C1105 C 0.5064 0.45317 0.68394 0.0
C1106 C 0.49621 0.46745 0.69509 0.0
C1107 C 0.51794 0.49216 0.70521 0.0
H1108 H 0.48954 0.43408 0.67611 0.0
H1109 H 0.70119 0.67983 0.77116 0.0
H1110 H 0.63494 0.0828 0.55779 0.0
H1111 H 0.63484 0.08379 0.58617 0.0
H1112 H 0.54227 1.00182 0.58342 0.0
H1113 H 0.54149 1.00265 0.55513 0.0
H1114 H 0.54157 0.03521 0.60528 0.0
H1115 H 0.61924 1.00495 0.59376 0.0
H1116 H 0.66732 1.01078 0.58211 0.0
H1117 H 0.72208 0.09993 0.60784 0.0
H1118 H 0.67429 0.09475 0.61953 0.0
H1119 H 0.53811 1.00103 0.68425 0.0
H1120 H 0.54046 0.9995 0.65616 0.0
H1121 H 0.62972 0.08535 0.65961 0.0
H1122 H 0.62915 0.08547 0.6878 0.0
H1123 H 0.63252 0.05034 0.63758 0.0
H1124 H 0.55281 0.07858 0.64921 0.0
H1125 H 0.50384 0.07077 0.66064 0.0
H1126 H 0.45179 0.98193 0.63431 0.0
H1127 H 0.50047 0.98908 0.62285 0.0
C1128 C 0.61464 0.06496 0.56328 0.0
C1129 C 0.58826 0.04263 0.55419 0.0
C1130 C 0.61466 0.06529 0.57959 0.0
C1131 C 0.58882 0.04241 0.58727 0.0
C1132 C 0.56259 1.01988 0.57805 0.0
C1133 C 0.56217 1.02024 0.56179 0.0
C1134 C 0.58846 0.0423 0.60478 0.0
C1135 C 0.5614 0.03802 0.61223 0.0
C1136 C 0.61438 0.04673 0.61422 0.0
C1137 C 0.64317 0.04955 0.60743 0.0
C1138 C 0.64153 1.02583 0.5969 0.0
C1139 C 0.66873 1.02902 0.59029 0.0
C1140 C 0.69773 0.05574 0.59421 0.0
C1141 C 0.69961 0.07925 0.60481 0.0
C1142 C 0.67249 0.07618 0.61145 0.0
C1143 C 0.55866 1.01942 0.67921 0.0
C1144 C 0.58338 0.04348 0.68873 0.0
C1145 C 0.55966 1.01881 0.66293 0.0
C1146 C 0.58488 0.04277 0.65548 0.0
C1147 C 0.60974 0.06662 0.66488 0.0
C1148 C 0.60912 0.06689 0.68118 0.0
C1149 C 0.58556 0.04297 0.63799 0.0
C1150 C 0.61269 0.04739 0.63057 0.0
C1151 C 0.55957 0.03827 0.62854 0.0
C1152 C 0.5303 1.03426 0.63528 0.0
C1153 C 0.53092 0.05734 0.64591 0.0
C1154 C 0.50322 0.05303 0.65239 0.0
C1155 C 0.47473 1.02585 0.64823 0.0
C1156 C 0.47386 1.00296 0.63754 0.0
C1157 C 0.50149 1.00715 0.63103 0.0
H1158 H 0.45333 1.02253 0.65328 0.0
H1159 H 0.71874 0.05819 0.58906 0.0
H1160 H 0.54897 0.49897 0.88808 0.0
H1161 H 0.54695 0.49822 0.91633 0.0
H1162 H 0.58477 0.59893 0.92004 0.0
H1163 H 0.58858 0.59988 0.89176 0.0
H1164 H 0.60963 0.58651 0.94214 0.0
H1165 H 0.50196 0.53968 0.9246 0.0
H1166 H 0.45448 0.50214 0.90888 0.0
H1167 H 0.45505 0.42474 0.9297 0.0
H1168 H 0.50275 0.46183 0.94542 0.0
H1169 H 0.57428 0.59465 0.02128 0.0
H1170 H 0.57499 0.59594 0.99316 0.0
H1171 H 0.54109 0.49605 0.98867 0.0
H1172 H 0.53766 0.49394 0.01675 0.0
H1173 H 0.5138 0.5087 0.96697 0.0
H1174 H 0.62297 0.5581 0.98462 0.0
H1175 H 0.67018 0.59735 1.00002 0.0
H1176 H 0.66554 0.67227 0.97872 0.0
H1177 H 0.61812 0.63348 0.96333 0.0
C1178 C 0.55684 0.52097 0.89491 0.0
C1179 C 0.56876 0.54946 0.88761 0.0
C1180 C 0.55544 0.52052 0.91115 0.0
C1181 C 0.56493 0.54841 0.92055 0.0
C1182 C 0.57714 0.57696 0.91322 0.0
C1183 C 0.57923 0.5775 0.89699 0.0
C1184 C 0.5625 0.54793 0.93796 0.0
C1185 C 0.58844 0.56973 0.94751 0.0
C1186 C 0.53518 0.52582 0.94523 0.0
C1187 C 0.50603 0.50352 0.93611 0.0
C1188 C 0.49199 0.51465 0.92579 0.0
C1189 C 0.46506 0.49345 0.91688 0.0
C1190 C 0.45179 0.46107 0.91827 0.0
C1191 C 0.46536 0.44983 0.92863 0.0
C1192 C 0.49231 0.47092 0.93757 0.0
C1193 C 0.56639 0.5727 0.01444 0.0
C1194 C 0.55601 0.54417 0.02168 0.0
C1195 C 0.56738 0.57362 0.99819 0.0
C1196 C 0.55886 0.54624 0.98855 0.0
C1197 C 0.5481 0.51768 0.99568 0.0
C1198 C 0.54657 0.51662 0.01192 0.0
C1199 C 0.56097 0.54723 0.97114 0.0
C1200 C 0.53496 0.5255 0.96159 0.0
C1201 C 0.5881 0.56966 0.96386 0.0
C1202 C 0.61688 0.59291 0.97293 0.0
C1203 C 0.63196 0.58295 0.98328 0.0
C1204 C 0.65875 0.60512 0.992 0.0
C1205 C 0.67081 0.63728 0.99038 0.0
C1206 C 0.65617 0.64736 0.97998 0.0
C1207 C 0.62937 0.6253 0.97124 0.0
H1208 H 0.69152 0.6544 0.99715 0.0
H1209 H 0.43098 0.4447 0.91133 0.0
H1210 H 0.07321 0.58479 0.22608 0.0
H1211 H 0.075 0.58295 0.25433 0.0
H1212 H 1.02994 0.48168 0.24939 0.0
H1213 H 1.02872 0.48339 0.22094 0.0
H1214 H 1.00484 0.50698 0.27335 0.0
H1215 H 0.10335 0.51821 0.25772 0.0
H1216 H 0.1527 0.54307 0.24388 0.0
H1217 H 0.18184 0.63072 0.27017 0.0
H1218 H 0.1324 0.60649 0.28401 0.0
H1219 H 1.02992 0.48486 0.35203 0.0
H1220 H 1.02661 0.48362 0.32369 0.0
H1221 H 0.09439 0.58283 0.32541 0.0
H1222 H 0.09848 0.58386 0.35377 0.0
H1223 H 0.10744 0.55737 0.30251 0.0
H1224 H 1.01063 0.54929 0.31762 0.0
H1225 H 0.96044 0.52778 0.33071 0.0
H1226 H 0.92717 0.43857 0.3052 0.0
H1227 H 0.97735 0.45944 0.2921 0.0
C1228 C 0.06354 0.56205 0.23095 0.0
C1229 C 1.05085 0.53423 0.22115 0.0
C1230 C 0.06467 0.56106 0.24716 0.0
C1231 C 0.05271 0.5322 0.2541 0.0
C1232 C 1.03934 0.50427 0.24438 0.0
C1233 C 1.03877 0.50528 0.22809 0.0
C1234 C 0.05486 0.53147 0.27143 0.0
C1235 C 1.02726 0.51754 0.27973 0.0
C1236 C 0.08405 0.54613 0.27987 0.0
C1237 C 0.11406 0.56061 0.2718 0.0
C1238 C 0.12019 0.54285 0.26048 0.0
C1239 C 0.14819 0.55681 0.25264 0.0
C1240 C 0.17036 0.58848 0.25612 0.0
C1241 C 0.16463 0.60621 0.26748 0.0
C1242 C 0.13663 0.59236 0.27534 0.0
C1243 C 1.044 0.5065 0.34641 0.0
C1244 C 0.06438 0.53449 0.35532 0.0
C1245 C 1.04201 0.50581 0.3301 0.0
C1246 C 0.05978 0.53326 0.32215 0.0
C1247 C 0.08033 0.56121 0.33106 0.0
C1248 C 0.08268 0.56179 0.34736 0.0
C1249 C 0.0573 0.53282 0.30465 0.0
C1250 C 0.08491 0.54665 0.29626 0.0
C1251 C 1.02805 0.51847 0.29614 0.0
C1252 C 0.99788 0.50583 0.30401 0.0
C1253 C 0.9927 0.52501 0.31489 0.0
C1254 C 0.96425 0.51295 0.3223 0.0
C1255 C 0.94067 0.4818 0.31883 0.0
C1256 C 0.94548 0.46268 0.3079 0.0
C1257 C 0.97391 0.47461 0.30047 0.0
H1258 H 0.91865 0.47251 0.32457 0.0
H1259 H 0.19202 0.59926 0.25003 0.0
loop_
_geom_bond_atom_site_label_1
_geom_bond_atom_site_label_2
_geom_bond_distance
_geom_bond_site_symmetry_2
_ccdc_geom_bond_type
Eu0 C9 2.828 . S
Eu0 O11 2.392 1_655 S
Eu0 O13 2.418 . S
Eu0 O18 2.373 . S
Eu0 O21 2.488 . S
Eu0 O22 2.471 . S
Eu0 O23 2.349 . S
Eu1 O10 2.373 . S
Eu1 O14 2.488 . S
Eu1 O15 2.471 . S
Eu1 O16 2.349 . S
Eu1 O19 2.392 1_455 S
Eu1 O20 2.418 . S
Eu1 C30 2.828 . S
C2 O20 1.244 . S
C2 O23 1.265 1_455 S
C3 C4 1.379 . S
C3 C7 1.373 . S
C3 C9 1.505 . S
C4 C3 1.379 . S
C4 C6 1.369 . S
C4 H32 0.930 . S
C5 C7 1.383 . S
C5 C8 1.382 . S
C5 H33 0.930 . S
C6 C4 1.369 . S
C6 C8 1.392 . S
C6 H34 0.930 . S
C7 C3 1.373 . S
C7 C5 1.383 . S
C7 H35 0.931 . S
C8 C5 1.382 . S
C8 C6 1.392 . S
C9 Eu0 2.828 . S
C9 C3 1.505 . S
C9 O21 1.249 . S
C9 O22 1.244 . S
O10 Eu1 2.373 . S
O10 C12 1.258 . S
O11 Eu0 2.392 1_455 S
O11 C12 1.242 . S
C12 O10 1.258 . S
C12 O11 1.242 . S
O13 Eu0 2.418 . S
O13 C17 1.244 . S
O14 Eu1 2.488 . S
O14 C30 1.249 . S
O15 Eu1 2.471 . S
O15 C30 1.244 . S
O16 Eu1 2.349 . S
O16 C17 1.265 1_455 S
C17 O13 1.244 . S
C17 O16 1.265 1_655 S
O18 Eu0 2.373 . S
O18 C31 1.258 . S
O19 Eu1 2.392 1_655 S
O19 C31 1.242 . S
O20 Eu1 2.418 . S
O20 C2 1.244 . S
O21 Eu0 2.488 . S
O21 C9 1.249 . S
O22 Eu0 2.471 . S
O22 C9 1.244 . S
O23 Eu0 2.349 . S
O23 C2 1.265 1_655 S
C24 C25 1.379 . S
C24 C28 1.373 . S
C24 C30 1.505 . S
C25 C24 1.379 . S
C25 C27 1.369 . S
C25 H36 0.930 . S
C26 C28 1.383 . S
C26 C29 1.382 . S
C26 H37 0.930 . S
C27 C25 1.369 . S
C27 C29 1.392 . S
C27 H38 0.930 . S
C28 C24 1.373 . S
C28 C26 1.383 . S
C28 H39 0.931 . S
C29 C26 1.382 . S
C29 C27 1.392 . S
C30 Eu1 2.828 . S
C30 O14 1.249 . S
C30 O15 1.244 . S
C30 C24 1.505 . S
C31 O18 1.258 . S
C31 O19 1.242 . S
H32 C4 0.930 . S
H33 C5 0.930 . S
H34 C6 0.930 . S
H35 C7 0.931 . S
H36 C25 0.930 . S
H37 C26 0.930 . S
H38 C27 0.930 . S
H39 C28 0.931 . S
Eu40 C49 2.828 . S
Eu40 O51 2.392 1_565 S
Eu40 O53 2.418 . S
Eu40 O58 2.373 . S
Eu40 O61 2.488 . S
Eu40 O62 2.471 . S
Eu40 O63 2.360 . S
Eu41 O50 2.373 . S
Eu41 O54 2.488 . S
Eu41 O55 2.471 . S
Eu41 O56 2.349 . S
Eu41 O59 2.392 1_545 S
Eu41 O60 2.418 . S
Eu41 C70 2.828 . S
C42 O60 1.244 . S
C42 O63 1.254 1_545 S
C43 C44 1.379 . S
C43 C47 1.373 . S
C43 C49 1.505 . S
C44 C43 1.379 . S
C44 C46 1.369 . S
C44 H72 0.930 . S
C45 C47 1.383 . S
C45 C48 1.382 . S
C45 H73 0.930 . S
C46 C44 1.369 . S
C46 C48 1.392 . S
C46 H74 0.930 . S
C47 C43 1.373 . S
C47 C45 1.383 . S
C47 H75 0.931 . S
C48 C45 1.382 . S
C48 C46 1.392 . S
C49 Eu40 2.828 . S
C49 C43 1.505 . S
C49 O61 1.249 . S
C49 O62 1.244 . S
O50 Eu41 2.373 . S
O50 C52 1.258 . S
O51 Eu40 2.392 1_545 S
O51 C52 1.242 . S
C52 O50 1.258 . S
C52 O51 1.242 . S
O53 Eu40 2.418 . S
O53 C57 1.244 1_565 S
O54 Eu41 2.488 . S
O54 C70 1.249 . S
O55 Eu41 2.471 . S
O55 C70 1.244 . S
O56 Eu41 2.349 . S
O56 C57 1.265 . S
C57 O53 1.244 1_545 S
C57 O56 1.265 . S
O58 Eu40 2.373 . S
O58 C71 1.258 . S
O59 Eu41 2.392 1_565 S
O59 C71 1.242 . S
O60 Eu41 2.418 . S
O60 C42 1.244 . S
O61 Eu40 2.488 . S
O61 C49 1.249 . S
O62 Eu40 2.471 . S
O62 C49 1.244 . S
O63 Eu40 2.360 . S
O63 C42 1.254 1_565 S
C64 C65 1.379 . S
C64 C68 1.373 . S
C64 C70 1.505 . S
C65 C64 1.379 . S
C65 C67 1.369 . S
C65 H76 0.930 . S
C66 C68 1.383 . S
C66 C69 1.382 . S
C66 H77 0.930 . S
C67 C65 1.369 . S
C67 C69 1.392 . S
C67 H78 0.930 . S
C68 C64 1.373 . S
C68 C66 1.383 . S
C68 H79 0.931 . S
C69 C66 1.382 . S
C69 C67 1.392 . S
C70 Eu41 2.828 . S
C70 O54 1.249 . S
C70 O55 1.244 . S
C70 C64 1.505 . S
C71 O58 1.258 . S
C71 O59 1.242 . S
H72 C44 0.930 . S
H73 C45 0.930 . S
H74 C46 0.930 . S
H75 C47 0.931 . S
H76 C65 0.930 . S
H77 C66 0.930 . S
H78 C67 0.930 . S
H79 C68 0.931 . S
Eu80 C89 2.828 . S
Eu80 O91 2.392 . S
Eu80 O93 2.418 . S
Eu80 O98 2.373 . S
Eu80 O101 2.488 . S
Eu80 O102 2.471 . S
Eu80 O103 2.349 . S
Eu81 O90 2.373 . S
Eu81 O94 2.488 . S
Eu81 O95 2.471 . S
Eu81 O96 2.349 . S
Eu81 O99 2.392 . S
Eu81 O100 2.418 . S
Eu81 C110 2.828 . S
C82 O100 1.244 . S
C82 O103 1.265 . S
C83 C84 1.379 . S
C83 C87 1.373 . S
C83 C89 1.505 . S
C84 C83 1.379 . S
C84 C86 1.369 . S
C84 H112 0.930 . S
C85 C87 1.383 . S
C85 C88 1.382 . S
C85 H113 0.930 . S
C86 C84 1.369 . S
C86 C88 1.392 . S
C86 H114 0.930 . S
C87 C83 1.373 . S
C87 C85 1.383 . S
C87 H115 0.931 . S
C88 C85 1.382 . S
C88 C86 1.392 . S
C89 Eu80 2.828 . S
C89 C83 1.505 . S
C89 O101 1.249 . S
C89 O102 1.244 . S
O90 Eu81 2.373 . S
O90 C92 1.258 . S
O91 Eu80 2.392 . S
O91 C92 1.242 . S
C92 O90 1.258 . S
C92 O91 1.242 . S
O93 Eu80 2.418 . S
O93 C97 1.244 . S
O94 Eu81 2.488 . S
O94 C110 1.249 . S
O95 Eu81 2.471 . S
O95 C110 1.244 . S
O96 Eu81 2.349 . S
O96 C97 1.265 . S
C97 O93 1.244 . S
C97 O96 1.265 . S
O98 Eu80 2.373 . S
O98 C111 1.258 . S
O99 Eu81 2.392 . S
O99 C111 1.242 . S
O100 Eu81 2.418 . S
O100 C82 1.244 . S
O101 Eu80 2.488 . S
O101 C89 1.249 . S
O102 Eu80 2.471 . S
O102 C89 1.244 . S
O103 Eu80 2.349 . S
O103 C82 1.265 . S
C104 C105 1.379 . S
C104 C108 1.373 . S
C104 C110 1.505 . S
C105 C104 1.379 . S
C105 C107 1.369 . S
C105 H116 0.930 . S
C106 C108 1.383 . S
C106 C109 1.382 . S
C106 H117 0.930 . S
C107 C105 1.369 . S
C107 C109 1.392 . S
C107 H118 0.930 . S
C108 C104 1.373 . S
C108 C106 1.383 . S
C108 H119 0.931 . S
C109 C106 1.382 . S
C109 C107 1.392 . S
C110 Eu81 2.828 . S
C110 O94 1.249 . S
C110 O95 1.244 . S
C110 C104 1.505 . S
C111 O98 1.258 . S
C111 O99 1.242 . S
H112 C84 0.930 . S
H113 C85 0.930 . S
H114 C86 0.930 . S
H115 C87 0.931 . S
H116 C105 0.930 . S
H117 C106 0.930 . S
H118 C107 0.930 . S
H119 C108 0.931 . S
C120 C121 1.264 . S
C120 C125 1.479 . S
C120 C130 1.465 . S
C121 C120 1.264 . S
C121 C123 1.339 . S
C121 H148 0.931 . S
C122 C123 1.395 . S
C122 C124 1.320 . S
C123 C121 1.339 . S
C123 C122 1.395 . S
C123 H149 0.929 . S
C124 C122 1.320 . S
C124 C125 1.405 . S
C124 H150 0.930 . S
C125 C120 1.479 . S
C125 C124 1.405 . S
C125 H151 0.931 . S
U126 O127 2.454 1_545 S
U126 O128 2.458 1_545 S
U126 C129 2.984 1_545 S
U126 C130 2.847 . S
U126 C143 2.882 . S
U126 O144 2.441 . S
U126 O145 2.420 . S
U126 O146 2.455 . S
U126 O147 2.449 . S
O127 U126 2.454 1_565 S
O127 C129 1.353 . S
O128 U126 2.458 1_565 S
O128 C129 1.286 . S
C129 U126 2.984 1_565 S
C129 O127 1.353 . S
C129 O128 1.286 . S
C129 C131 1.363 . S
C130 C120 1.465 . S
C130 U126 2.847 . S
C130 O144 1.249 . S
C130 O145 1.202 . S
C131 C129 1.363 . S
C131 C133 1.408 . S
C131 C136 1.342 . S
C132 C133 1.310 . S
C132 C135 1.461 . S
C132 H152 0.932 . S
C133 C131 1.408 . S
C133 C132 1.310 . S
C133 H153 0.930 . S
C134 C135 1.474 . S
C134 C136 1.285 . S
C134 H154 0.929 . S
C135 C132 1.461 . S
C135 C134 1.474 . S
C136 C131 1.342 . S
C136 C134 1.285 . S
C136 H155 0.930 . S
C137 C140 1.424 . S
C137 C142 1.245 . S
C137 C143 1.428 . S
C138 C141 1.260 . S
C138 C142 1.477 . S
C138 H156 0.932 1_545 S
C139 C140 1.384 . S
C139 C141 1.479 . S
C139 H157 0.929 . S
C140 C137 1.424 . S
C140 C139 1.384 . S
C140 H158 0.928 . S
C141 C138 1.260 . S
C141 C139 1.479 . S
C142 C137 1.245 . S
C142 C138 1.477 . S
C142 H159 0.932 1_545 S
C143 U126 2.882 . S
C143 C137 1.428 . S
C143 O146 1.301 . S
C143 O147 1.282 . S
O144 U126 2.441 . S
O144 C130 1.249 . S
O145 U126 2.420 . S
O145 C130 1.202 . S
O146 U126 2.455 . S
O146 C143 1.301 . S
O147 U126 2.449 . S
O147 C143 1.282 . S
H148 C121 0.931 . S
H149 C123 0.929 . S
H150 C124 0.930 . S
H151 C125 0.931 . S
H152 C132 0.932 . S
H153 C133 0.930 . S
H154 C134 0.929 . S
H155 C136 0.930 . S
H156 C138 0.932 1_565 S
H157 C139 0.929 . S
H158 C140 0.928 . S
H159 C142 0.932 1_565 S
C160 C161 1.264 . S
C160 C165 1.479 . S
C160 C170 1.465 . S
C161 C160 1.264 . S
C161 C163 1.339 . S
C161 H188 0.931 . S
C162 C163 1.395 . S
C162 C164 1.320 . S
C163 C161 1.339 . S
C163 C162 1.395 . S
C163 H189 0.929 . S
C164 C162 1.320 . S
C164 C165 1.405 . S
C164 H190 0.930 . S
C165 C160 1.479 . S
C165 C164 1.405 . S
C165 H191 0.931 . S
U166 O167 2.454 . S
U166 O168 2.458 . S
U166 C169 2.984 . S
U166 C170 2.847 . S
U166 C183 2.882 . S
U166 O184 2.441 . S
U166 O185 2.420 . S
U166 O186 2.455 . S
U166 O187 2.449 . S
O167 U166 2.454 . S
O167 C169 1.353 . S
O168 U166 2.458 . S
O168 C169 1.286 . S
C169 U166 2.984 . S
C169 O167 1.353 . S
C169 O168 1.286 . S
C169 C171 1.363 . S
C170 C160 1.465 . S
C170 U166 2.847 . S
C170 O184 1.249 . S
C170 O185 1.202 . S
C171 C169 1.363 . S
C171 C173 1.408 . S
C171 C176 1.342 . S
C172 C173 1.310 . S
C172 C175 1.461 . S
C172 H192 0.932 . S
C173 C171 1.408 . S
C173 C172 1.310 . S
C173 H193 0.930 . S
C174 C175 1.474 . S
C174 C176 1.285 . S
C174 H194 0.929 . S
C175 C172 1.461 . S
C175 C174 1.474 . S
C176 C171 1.342 . S
C176 C174 1.285 . S
C176 H195 0.930 . S
C177 C180 1.424 . S
C177 C182 1.245 . S
C177 C183 1.428 . S
C178 C181 1.260 . S
C178 C182 1.477 . S
C178 H196 0.932 . S
C179 C180 1.384 . S
C179 C181 1.479 . S
C179 H197 0.929 . S
C180 C177 1.424 . S
C180 C179 1.384 . S
C180 H198 0.928 . S
C181 C178 1.260 . S
C181 C179 1.479 . S
C182 C177 1.245 . S
C182 C178 1.477 . S
C182 H199 0.932 . S
C183 U166 2.882 . S
C183 C177 1.428 . S
C183 O186 1.301 . S
C183 O187 1.282 . S
O184 U166 2.441 . S
O184 C170 1.249 . S
O185 U166 2.420 . S
O185 C170 1.202 . S
O186 U166 2.455 . S
O186 C183 1.301 . S
O187 U166 2.449 . S
O187 C183 1.282 . S
H188 C161 0.931 . S
H189 C163 0.929 . S
H190 C164 0.930 . S
H191 C165 0.931 . S
H192 C172 0.932 . S
H193 C173 0.930 . S
H194 C174 0.929 . S
H195 C176 0.930 . S
H196 C178 0.932 . S
H197 C179 0.929 . S
H198 C180 0.928 . S
H199 C182 0.932 . S
C200 C201 1.264 . S
C200 C205 1.479 . S
C200 C210 1.465 . S
C201 C200 1.264 . S
C201 C203 1.339 . S
C201 H228 0.931 . S
C202 C203 1.395 . S
C202 C204 1.320 . S
C203 C201 1.339 . S
C203 C202 1.395 . S
C203 H229 0.929 . S
C204 C202 1.320 . S
C204 C205 1.405 . S
C204 H230 0.930 . S
C205 C200 1.479 . S
C205 C204 1.405 . S
C205 H231 0.931 . S
U206 O207 2.454 . S
U206 O208 2.458 . S
U206 C209 2.984 . S
U206 C210 2.847 1_455 S
U206 C223 2.882 . S
U206 O224 2.441 . S
U206 O225 2.420 1_455 S
U206 O226 2.455 . S
U206 O227 2.449 . S
O207 U206 2.454 . S
O207 C209 1.353 . S
O208 U206 2.458 . S
O208 C209 1.286 . S
C209 U206 2.984 . S
C209 O207 1.353 . S
C209 O208 1.286 . S
C209 C211 1.363 . S
C210 C200 1.465 . S
C210 U206 2.847 1_655 S
C210 O224 1.249 1_655 S
C210 O225 1.202 . S
C211 C209 1.363 . S
C211 C213 1.408 . S
C211 C216 1.342 . S
C212 C213 1.310 . S
C212 C215 1.461 . S
C212 H232 0.932 . S
C213 C211 1.408 . S
C213 C212 1.310 . S
C213 H233 0.930 . S
C214 C215 1.474 . S
C214 C216 1.285 . S
C214 H234 0.929 . S
C215 C212 1.461 . S
C215 C214 1.474 . S
C216 C211 1.342 . S
C216 C214 1.285 . S
C216 H235 0.930 . S
C217 C220 1.424 . S
C217 C222 1.245 . S
C217 C223 1.428 . S
C218 C221 1.260 . S
C218 C222 1.477 . S
C218 H236 0.932 . S
C219 C220 1.384 . S
C219 C221 1.479 . S
C219 H237 0.929 1_455 S
C220 C217 1.424 . S
C220 C219 1.384 . S
C220 H238 0.928 1_455 S
C221 C218 1.260 . S
C221 C219 1.479 . S
C222 C217 1.245 . S
C222 C218 1.477 . S
C222 H239 0.932 . S
C223 U206 2.882 . S
C223 C217 1.428 . S
C223 O226 1.301 . S
C223 O227 1.282 . S
O224 U206 2.441 . S
O224 C210 1.249 1_455 S
O225 U206 2.420 1_655 S
O225 C210 1.202 . S
O226 U206 2.455 . S
O226 C223 1.301 . S
O227 U206 2.449 . S
O227 C223 1.282 . S
H228 C201 0.931 . S
H229 C203 0.929 . S
H230 C204 0.930 . S
H231 C205 0.931 . S
H232 C212 0.932 . S
H233 C213 0.930 . S
H234 C214 0.929 . S
H235 C216 0.930 . S
H236 C218 0.932 . S
H237 C219 0.929 1_655 S
H238 C220 0.928 1_655 S
H239 C222 0.932 . S
C240 C241 1.264 . S
C240 C245 1.479 . S
C240 C250 1.465 . S
C241 C240 1.264 . S
C241 C243 1.339 . S
C241 H268 0.931 . S
C242 C243 1.395 . S
C242 C244 1.320 . S
C243 C241 1.339 . S
C243 C242 1.395 . S
C243 H269 0.929 . S
C244 C242 1.320 . S
C244 C245 1.405 . S
C244 H270 0.930 . S
C245 C240 1.479 . S
C245 C244 1.405 . S
C245 H271 0.931 . S
U246 O247 2.454 . S
U246 O248 2.458 . S
U246 C249 2.984 . S
U246 C250 2.847 1_455 S
U246 C263 2.882 . S
U246 O264 2.441 1_455 S
U246 O265 2.420 1_455 S
U246 O266 2.455 . S
U246 O267 2.449 1_455 S
O247 U246 2.454 . S
O247 C249 1.353 . S
O248 U246 2.458 . S
O248 C249 1.286 . S
C249 U246 2.984 . S
C249 O247 1.353 . S
C249 O248 1.286 . S
C249 C251 1.363 . S
C250 C240 1.465 . S
C250 U246 2.847 1_655 S
C250 O264 1.249 . S
C250 O265 1.202 . S
C251 C249 1.363 . S
C251 C253 1.408 . S
C251 C256 1.342 . S
C252 C253 1.310 . S
C252 C255 1.461 . S
C252 H272 0.932 . S
C253 C251 1.408 . S
C253 C252 1.310 . S
C253 H273 0.930 . S
C254 C255 1.474 . S
C254 C256 1.285 . S
C254 H274 0.929 . S
C255 C252 1.461 . S
C255 C254 1.474 . S
C256 C251 1.342 . S
C256 C254 1.285 . S
C256 H275 0.930 . S
C257 C260 1.424 1_455 S
C257 C262 1.245 . S
C257 C263 1.428 . S
C258 C261 1.260 . S
C258 C262 1.477 . S
C258 H276 0.932 . S
C259 C260 1.384 . S
C259 C261 1.479 1_655 S
C259 H277 0.929 . S
C260 C257 1.424 1_655 S
C260 C259 1.384 . S
C260 H278 0.928 . S
C261 C258 1.260 . S
C261 C259 1.479 1_455 S
C262 C257 1.245 . S
C262 C258 1.477 . S
C262 H279 0.932 . S
C263 U246 2.882 . S
C263 C257 1.428 . S
C263 O266 1.301 . S
C263 O267 1.282 1_455 S
O264 U246 2.441 1_655 S
O264 C250 1.249 . S
O265 U246 2.420 1_655 S
O265 C250 1.202 . S
O266 U246 2.455 . S
O266 C263 1.301 . S
O267 U246 2.449 1_655 S
O267 C263 1.282 1_655 S
H268 C241 0.931 . S
H269 C243 0.929 . S
H270 C244 0.930 . S
H271 C245 0.931 . S
H272 C252 0.932 . S
H273 C253 0.930 . S
H274 C254 0.929 . S
H275 C256 0.930 . S
H276 C258 0.932 . S
H277 C259 0.929 . S
H278 C260 0.928 . S
H279 C262 0.932 . S
C280 C281 1.264 . S
C280 C285 1.479 . S
C280 C290 1.465 . S
C281 C280 1.264 . S
C281 C283 1.339 . S
C281 H308 0.931 . S
C282 C283 1.395 . S
C282 C284 1.320 . S
C283 C281 1.339 . S
C283 C282 1.395 . S
C283 H309 0.929 . S
C284 C282 1.320 . S
C284 C285 1.405 . S
C284 H310 0.930 . S
C285 C280 1.479 . S
C285 C284 1.405 . S
C285 H311 0.931 . S
U286 O287 2.454 . S
U286 O288 2.458 . S
U286 C289 2.984 . S
U286 C290 2.847 1_545 S
U286 C303 2.882 . S
U286 O304 2.441 1_545 S
U286 O305 2.420 1_545 S
U286 O306 2.455 . S
U286 O307 2.449 1_545 S
O287 U286 2.454 . S
O287 C289 1.353 . S
O288 U286 2.458 . S
O288 C289 1.286 . S
C289 U286 2.984 . S
C289 O287 1.353 . S
C289 O288 1.286 . S
C289 C291 1.363 . S
C290 C280 1.465 . S
C290 U286 2.847 1_565 S
C290 O304 1.249 . S
C290 O305 1.202 . S
C291 C289 1.363 . S
C291 C293 1.408 . S
C291 C296 1.342 . S
C292 C293 1.310 . S
C292 C295 1.461 . S
C292 H312 0.932 . S
C293 C291 1.408 . S
C293 C292 1.310 . S
C293 H313 0.930 . S
C294 C295 1.474 . S
C294 C296 1.285 . S
C294 H314 0.929 . S
C295 C292 1.461 . S
C295 C294 1.474 . S
C296 C291 1.342 . S
C296 C294 1.285 . S
C296 H315 0.930 . S
C297 C300 1.424 1_545 S
C297 C302 1.245 . S
C297 C303 1.428 . S
C298 C301 1.260 . S
C298 C302 1.477 . S
C298 H316 0.932 . S
C299 C300 1.384 . S
C299 C301 1.479 1_565 S
C299 H317 0.929 . S
C300 C297 1.424 1_565 S
C300 C299 1.384 . S
C300 H318 0.928 . S
C301 C298 1.260 . S
C301 C299 1.479 1_545 S
C302 C297 1.245 . S
C302 C298 1.477 . S
C302 H319 0.932 . S
C303 U286 2.882 . S
C303 C297 1.428 . S
C303 O306 1.301 . S
C303 O307 1.282 1_545 S
O304 U286 2.441 1_565 S
O304 C290 1.249 . S
O305 U286 2.420 1_565 S
O305 C290 1.202 . S
O306 U286 2.455 . S
O306 C303 1.301 . S
O307 U286 2.449 1_565 S
O307 C303 1.282 1_565 S
H308 C281 0.931 . S
H309 C283 0.929 . S
H310 C284 0.930 . S
H311 C285 0.931 . S
H312 C292 0.932 . S
H313 C293 0.930 . S
H314 C294 0.929 . S
H315 C296 0.930 . S
H316 C298 0.932 . S
H317 C299 0.929 . S
H318 C300 0.928 . S
H319 C302 0.932 . S
C320 C321 1.264 . S
C320 C325 1.479 . S
C320 C330 1.465 . S
C321 C320 1.264 . S
C321 C323 1.339 . S
C321 H348 0.931 . S
C322 C323 1.395 . S
C322 C324 1.320 . S
C323 C321 1.339 . S
C323 C322 1.395 . S
C323 H349 0.929 . S
C324 C322 1.320 . S
C324 C325 1.405 . S
C324 H350 0.930 . S
C325 C320 1.479 . S
C325 C324 1.405 . S
C325 H351 0.931 . S
U326 O327 2.454 . S
U326 O328 2.458 . S
U326 C329 2.984 . S
U326 C330 2.847 . S
U326 C343 2.882 . S
U326 O344 2.441 . S
U326 O345 2.420 . S
U326 O346 2.455 . S
U326 O347 2.449 . S
O327 U326 2.454 . S
O327 C329 1.353 . S
O328 U326 2.458 . S
O328 C329 1.286 . S
C329 U326 2.984 . S
C329 O327 1.353 . S
C329 O328 1.286 . S
C329 C331 1.363 . S
C330 C320 1.465 . S
C330 U326 2.847 . S
C330 O344 1.249 . S
C330 O345 1.202 . S
C331 C329 1.363 . S
C331 C333 1.408 . S
C331 C336 1.342 . S
C332 C333 1.310 . S
C332 C335 1.461 . S
C332 H352 0.932 . S
C333 C331 1.408 . S
C333 C332 1.310 . S
C333 H353 0.930 . S
C334 C335 1.474 . S
C334 C336 1.285 . S
C334 H354 0.929 . S
C335 C332 1.461 . S
C335 C334 1.474 . S
C336 C331 1.342 . S
C336 C334 1.285 . S
C336 H355 0.930 . S
C337 C340 1.424 . S
C337 C342 1.245 . S
C337 C343 1.428 . S
C338 C341 1.260 . S
C338 C342 1.477 . S
C338 H356 0.932 . S
C339 C340 1.384 . S
C339 C341 1.479 . S
C339 H357 0.929 . S
C340 C337 1.424 . S
C340 C339 1.384 . S
C340 H358 0.928 . S
C341 C338 1.260 . S
C341 C339 1.479 . S
C342 C337 1.245 . S
C342 C338 1.477 . S
C342 H359 0.932 . S
C343 U326 2.882 . S
C343 C337 1.428 . S
C343 O346 1.301 . S
C343 O347 1.282 . S
O344 U326 2.441 . S
O344 C330 1.249 . S
O345 U326 2.420 . S
O345 C330 1.202 . S
O346 U326 2.455 . S
O346 C343 1.301 . S
O347 U326 2.449 . S
O347 C343 1.282 . S
H348 C321 0.931 . S
H349 C323 0.929 . S
H350 C324 0.930 . S
H351 C325 0.931 . S
H352 C332 0.932 . S
H353 C333 0.930 . S
H354 C334 0.929 . S
H355 C336 0.930 . S
H356 C338 0.932 . S
H357 C339 0.929 . S
H358 C340 0.928 . S
H359 C342 0.932 . S
H360 C378 0.951 . S
H361 C380 0.951 . S
H362 C382 0.950 . S
H363 C383 0.950 . S
H364 C385 0.950 . S
H365 C388 0.950 . S
H366 C389 0.950 . S
H367 C391 0.950 . S
H368 C392 0.950 . S
H369 C393 0.951 . S
H370 C395 0.951 . S
H371 C397 0.950 . S
H372 C398 0.950 . S
H373 C400 0.950 . S
H374 C403 0.950 . S
H375 C404 0.950 . S
H376 C406 0.950 . S
H377 C407 0.950 . S
C378 H360 0.951 . S
C378 C379 1.366 . S
C378 C380 1.388 . S
C379 C378 1.366 . S
C379 C383 1.385 . S
C380 H361 0.951 . S
C380 C378 1.388 . S
C380 C381 1.366 . S
C381 C380 1.366 . S
C381 C382 1.414 . S
C381 C384 1.499 . S
C382 H362 0.950 . S
C382 C381 1.414 . S
C382 C383 1.374 . S
C383 H363 0.950 . S
C383 C379 1.385 . S
C383 C382 1.374 . S
C384 C381 1.499 . S
C384 C385 1.373 . S
C384 C386 1.389 . S
C385 H364 0.950 . S
C385 C384 1.373 . S
C385 C401 1.377 . S
C386 C384 1.389 . S
C386 C387 1.524 . S
C386 C400 1.377 . S
C387 C386 1.524 . S
C387 C388 1.397 . S
C387 C392 1.363 . S
C388 H365 0.950 . S
C388 C387 1.397 . S
C388 C389 1.334 . S
C389 H366 0.950 . S
C389 C388 1.334 . S
C389 C390 1.287 . S
C390 C389 1.287 . S
C390 C391 1.524 . S
C390 H409 0.913 . S
C391 H367 0.950 . S
C391 C390 1.524 . S
C391 C392 1.415 . S
C392 H368 0.950 . S
C392 C387 1.363 . S
C392 C391 1.415 . S
C393 H369 0.951 . S
C393 C394 1.366 . S
C393 C395 1.388 . S
C394 C393 1.366 . S
C394 C398 1.385 . S
C395 H370 0.951 . S
C395 C393 1.388 . S
C395 C396 1.366 . S
C396 C395 1.366 . S
C396 C397 1.414 . S
C396 C399 1.499 . S
C397 H371 0.950 . S
C397 C396 1.414 . S
C397 C398 1.374 . S
C398 H372 0.950 . S
C398 C394 1.385 . S
C398 C397 1.374 . S
C399 C396 1.499 . S
C399 C400 1.373 . S
C399 C401 1.389 . S
C400 H373 0.950 . S
C400 C386 1.377 . S
C400 C399 1.373 . S
C401 C385 1.377 . S
C401 C399 1.389 . S
C401 C402 1.524 . S
C402 C401 1.524 . S
C402 C403 1.397 . S
C402 C407 1.363 . S
C403 H374 0.950 . S
C403 C402 1.397 . S
C403 C404 1.334 . S
C404 H375 0.950 . S
C404 C403 1.334 . S
C404 C405 1.287 . S
C405 C404 1.287 . S
C405 C406 1.524 . S
C405 H408 0.999 . S
C406 H376 0.950 . S
C406 C405 1.524 . S
C406 C407 1.415 . S
C407 H377 0.950 . S
C407 C402 1.363 . S
C407 C406 1.415 . S
H408 C405 0.999 . S
H409 C390 0.913 . S
H410 C428 0.951 . S
H411 C430 0.951 . S
H412 C432 0.950 . S
H413 C433 0.950 . S
H414 C435 0.950 . S
H415 C438 0.950 . S
H416 C439 0.950 . S
H417 C441 0.950 . S
H418 C442 0.950 . S
H419 C443 0.951 . S
H420 C445 0.951 . S
H421 C447 0.950 . S
H422 C448 0.950 . S
H423 C450 0.950 . S
H424 C453 0.950 . S
H425 C454 0.950 . S
H426 C456 0.950 . S
H427 C457 0.950 . S
C428 H410 0.951 . S
C428 C429 1.366 . S
C428 C430 1.388 . S
C429 C428 1.366 . S
C429 C433 1.385 . S
C430 H411 0.951 . S
C430 C428 1.388 . S
C430 C431 1.366 . S
C431 C430 1.366 . S
C431 C432 1.414 . S
C431 C434 1.499 . S
C432 H412 0.950 . S
C432 C431 1.414 . S
C432 C433 1.374 . S
C433 H413 0.950 . S
C433 C429 1.385 . S
C433 C432 1.374 . S
C434 C431 1.499 . S
C434 C435 1.373 . S
C434 C436 1.389 . S
C435 H414 0.950 . S
C435 C434 1.373 . S
C435 C451 1.377 . S
C436 C434 1.389 . S
C436 C437 1.524 . S
C436 C450 1.377 . S
C437 C436 1.524 . S
C437 C438 1.397 . S
C437 C442 1.363 . S
C438 H415 0.950 . S
C438 C437 1.397 . S
C438 C439 1.334 . S
C439 H416 0.950 . S
C439 C438 1.334 . S
C439 C440 1.287 . S
C440 C439 1.287 . S
C440 C441 1.524 . S
C440 H459 0.913 . S
C441 H417 0.950 . S
C441 C440 1.524 . S
C441 C442 1.415 . S
C442 H418 0.950 . S
C442 C437 1.363 . S
C442 C441 1.415 . S
C443 H419 0.951 . S
C443 C444 1.366 . S
C443 C445 1.388 . S
C444 C443 1.366 . S
C444 C448 1.385 . S
C445 H420 0.951 . S
C445 C443 1.388 . S
C445 C446 1.366 . S
C446 C445 1.366 . S
C446 C447 1.414 . S
C446 C449 1.499 . S
C447 H421 0.950 . S
C447 C446 1.414 . S
C447 C448 1.374 . S
C448 H422 0.950 . S
C448 C444 1.385 . S
C448 C447 1.374 . S
C449 C446 1.499 . S
C449 C450 1.373 . S
C449 C451 1.389 . S
C450 H423 0.950 . S
C450 C436 1.377 . S
C450 C449 1.373 . S
C451 C435 1.377 . S
C451 C449 1.389 . S
C451 C452 1.524 . S
C452 C451 1.524 . S
C452 C453 1.397 . S
C452 C457 1.363 . S
C453 H424 0.950 . S
C453 C452 1.397 . S
C453 C454 1.334 . S
C454 H425 0.950 . S
C454 C453 1.334 . S
C454 C455 1.287 . S
C455 C454 1.287 . S
C455 C456 1.524 . S
C455 H458 0.999 . S
C456 H426 0.950 . S
C456 C455 1.524 . S
C456 C457 1.415 . S
C457 H427 0.950 . S
C457 C452 1.363 . S
C457 C456 1.415 . S
H458 C455 0.999 . S
H459 C440 0.913 . S
H460 C478 0.951 . S
H461 C480 0.951 . S
H462 C482 0.950 . S
H463 C483 0.950 . S
H464 C485 0.950 . S
H465 C488 0.950 . S
H466 C489 0.950 . S
H467 C491 0.950 . S
H468 C492 0.950 . S
H469 C493 0.951 . S
H470 C495 0.951 . S
H471 C497 0.950 . S
H472 C498 0.950 . S
H473 C500 0.950 . S
H474 C503 0.950 . S
H475 C504 0.950 . S
H476 C506 0.950 . S
H477 C507 0.950 . S
C478 H460 0.951 . S
C478 C479 1.366 . S
C478 C480 1.388 . S
C479 C478 1.366 . S
C479 C483 1.385 . S
C480 H461 0.951 . S
C480 C478 1.388 . S
C480 C481 1.366 . S
C481 C480 1.366 . S
C481 C482 1.414 . S
C481 C484 1.499 . S
C482 H462 0.950 . S
C482 C481 1.414 . S
C482 C483 1.374 . S
C483 H463 0.950 . S
C483 C479 1.385 . S
C483 C482 1.374 . S
C484 C481 1.499 . S
C484 C485 1.373 . S
C484 C486 1.389 . S
C485 H464 0.950 . S
C485 C484 1.373 . S
C485 C501 1.377 . S
C486 C484 1.389 . S
C486 C487 1.524 . S
C486 C500 1.377 . S
C487 C486 1.524 . S
C487 C488 1.397 . S
C487 C492 1.363 . S
C488 H465 0.950 . S
C488 C487 1.397 . S
C488 C489 1.334 . S
C489 H466 0.950 . S
C489 C488 1.334 . S
C489 C490 1.287 . S
C490 C489 1.287 . S
C490 C491 1.524 . S
C490 H509 0.913 . S
C491 H467 0.950 . S
C491 C490 1.524 . S
C491 C492 1.415 . S
C492 H468 0.950 . S
C492 C487 1.363 . S
C492 C491 1.415 . S
C493 H469 0.951 . S
C493 C494 1.366 . S
C493 C495 1.388 . S
C494 C493 1.366 . S
C494 C498 1.385 . S
C495 H470 0.951 . S
C495 C493 1.388 . S
C495 C496 1.366 . S
C496 C495 1.366 . S
C496 C497 1.414 . S
C496 C499 1.499 . S
C497 H471 0.950 . S
C497 C496 1.414 . S
C497 C498 1.374 . S
C498 H472 0.950 . S
C498 C494 1.385 . S
C498 C497 1.374 . S
C499 C496 1.499 . S
C499 C500 1.373 . S
C499 C501 1.389 . S
C500 H473 0.950 . S
C500 C486 1.377 . S
C500 C499 1.373 . S
C501 C485 1.377 . S
C501 C499 1.389 . S
C501 C502 1.524 . S
C502 C501 1.524 . S
C502 C503 1.397 . S
C502 C507 1.363 . S
C503 H474 0.950 . S
C503 C502 1.397 . S
C503 C504 1.334 . S
C504 H475 0.950 . S
C504 C503 1.334 . S
C504 C505 1.287 . S
C505 C504 1.287 . S
C505 C506 1.524 . S
C505 H508 0.999 . S
C506 H476 0.950 . S
C506 C505 1.524 . S
C506 C507 1.415 . S
C507 H477 0.950 . S
C507 C502 1.363 . S
C507 C506 1.415 . S
H508 C505 0.999 . S
H509 C490 0.913 . S
H510 C528 0.951 . S
H511 C530 0.951 . S
H512 C532 0.950 . S
H513 C533 0.950 . S
H514 C535 0.950 . S
H515 C538 0.950 . S
H516 C539 0.950 . S
H517 C541 0.950 . S
H518 C542 0.950 . S
H519 C543 0.951 . S
H520 C545 0.951 . S
H521 C547 0.950 . S
H522 C548 0.950 . S
H523 C550 0.950 . S
H524 C553 0.950 . S
H525 C554 0.950 . S
H526 C556 0.950 . S
H527 C557 0.950 . S
C528 H510 0.951 . S
C528 C529 1.366 . S
C528 C530 1.388 . S
C529 C528 1.366 . S
C529 C533 1.385 . S
C530 H511 0.951 . S
C530 C528 1.388 . S
C530 C531 1.366 . S
C531 C530 1.366 . S
C531 C532 1.414 . S
C531 C534 1.499 . S
C532 H512 0.950 . S
C532 C531 1.414 . S
C532 C533 1.374 . S
C533 H513 0.950 . S
C533 C529 1.385 . S
C533 C532 1.374 . S
C534 C531 1.499 . S
C534 C535 1.373 . S
C534 C536 1.389 . S
C535 H514 0.950 . S
C535 C534 1.373 . S
C535 C551 1.377 . S
C536 C534 1.389 . S
C536 C537 1.524 . S
C536 C550 1.377 . S
C537 C536 1.524 . S
C537 C538 1.397 . S
C537 C542 1.363 . S
C538 H515 0.950 . S
C538 C537 1.397 . S
C538 C539 1.334 . S
C539 H516 0.950 . S
C539 C538 1.334 . S
C539 C540 1.287 . S
C540 C539 1.287 . S
C540 C541 1.524 . S
C540 H559 0.913 . S
C541 H517 0.950 . S
C541 C540 1.524 . S
C541 C542 1.415 . S
C542 H518 0.950 . S
C542 C537 1.363 . S
C542 C541 1.415 . S
C543 H519 0.951 . S
C543 C544 1.366 . S
C543 C545 1.388 . S
C544 C543 1.366 . S
C544 C548 1.385 . S
C545 H520 0.951 . S
C545 C543 1.388 . S
C545 C546 1.366 . S
C546 C545 1.366 . S
C546 C547 1.414 . S
C546 C549 1.499 . S
C547 H521 0.950 . S
C547 C546 1.414 . S
C547 C548 1.374 . S
C548 H522 0.950 . S
C548 C544 1.385 . S
C548 C547 1.374 . S
C549 C546 1.499 . S
C549 C550 1.373 . S
C549 C551 1.389 . S
C550 H523 0.950 . S
C550 C536 1.377 . S
C550 C549 1.373 . S
C551 C535 1.377 . S
C551 C549 1.389 . S
C551 C552 1.524 . S
C552 C551 1.524 . S
C552 C553 1.397 . S
C552 C557 1.363 . S
C553 H524 0.950 . S
C553 C552 1.397 . S
C553 C554 1.334 . S
C554 H525 0.950 . S
C554 C553 1.334 . S
C554 C555 1.287 . S
C555 C554 1.287 . S
C555 C556 1.524 . S
C555 H558 0.999 . S
C556 H526 0.950 . S
C556 C555 1.524 . S
C556 C557 1.415 . S
C557 H527 0.950 . S
C557 C552 1.363 . S
C557 C556 1.415 . S
H558 C555 0.999 . S
H559 C540 0.913 . S
H560 C578 0.951 . S
H561 C580 0.951 . S
H562 C582 0.950 . S
H563 C583 0.950 . S
H564 C585 0.950 . S
H565 C588 0.950 . S
H566 C589 0.950 . S
H567 C591 0.950 . S
H568 C592 0.950 . S
H569 C593 0.951 . S
H570 C595 0.951 . S
H571 C597 0.950 . S
H572 C598 0.950 . S
H573 C600 0.950 . S
H574 C603 0.950 . S
H575 C604 0.950 . S
H576 C606 0.950 . S
H577 C607 0.950 . S
C578 H560 0.951 . S
C578 C579 1.366 . S
C578 C580 1.388 . S
C579 C578 1.366 . S
C579 C583 1.385 . S
C580 H561 0.951 . S
C580 C578 1.388 . S
C580 C581 1.366 . S
C581 C580 1.366 . S
C581 C582 1.414 . S
C581 C584 1.499 . S
C582 H562 0.950 . S
C582 C581 1.414 . S
C582 C583 1.374 . S
C583 H563 0.950 . S
C583 C579 1.385 . S
C583 C582 1.374 . S
C584 C581 1.499 . S
C584 C585 1.373 . S
C584 C586 1.389 . S
C585 H564 0.950 . S
C585 C584 1.373 . S
C585 C601 1.377 . S
C586 C584 1.389 . S
C586 C587 1.524 . S
C586 C600 1.377 . S
C587 C586 1.524 . S
C587 C588 1.397 . S
C587 C592 1.363 . S
C588 H565 0.950 . S
C588 C587 1.397 . S
C588 C589 1.334 . S
C589 H566 0.950 . S
C589 C588 1.334 . S
C589 C590 1.287 . S
C590 C589 1.287 . S
C590 C591 1.524 . S
C590 H609 0.913 . S
C591 H567 0.950 . S
C591 C590 1.524 . S
C591 C592 1.415 . S
C592 H568 0.950 . S
C592 C587 1.363 . S
C592 C591 1.415 . S
C593 H569 0.951 . S
C593 C594 1.366 . S
C593 C595 1.388 . S
C594 C593 1.366 . S
C594 C598 1.385 . S
C595 H570 0.951 . S
C595 C593 1.388 . S
C595 C596 1.366 . S
C596 C595 1.366 . S
C596 C597 1.414 . S
C596 C599 1.499 . S
C597 H571 0.950 . S
C597 C596 1.414 . S
C597 C598 1.374 . S
C598 H572 0.950 . S
C598 C594 1.385 . S
C598 C597 1.374 . S
C599 C596 1.499 . S
C599 C600 1.373 . S
C599 C601 1.389 . S
C600 H573 0.950 . S
C600 C586 1.377 . S
C600 C599 1.373 . S
C601 C585 1.377 . S
C601 C599 1.389 . S
C601 C602 1.524 . S
C602 C601 1.524 . S
C602 C603 1.397 . S
C602 C607 1.363 . S
C603 H574 0.950 . S
C603 C602 1.397 . S
C603 C604 1.334 . S
C604 H575 0.950 . S
C604 C603 1.334 . S
C604 C605 1.287 . S
C605 C604 1.287 . S
C605 C606 1.524 . S
C605 H608 0.999 . S
C606 H576 0.950 . S
C606 C605 1.524 . S
C606 C607 1.415 . S
C607 H577 0.950 . S
C607 C602 1.363 . S
C607 C606 1.415 . S
H608 C605 0.999 . S
H609 C590 0.913 . S
H610 C628 0.951 . S
H611 C630 0.951 . S
H612 C632 0.950 . S
H613 C633 0.950 . S
H614 C635 0.950 . S
H615 C638 0.950 . S
H616 C639 0.950 . S
H617 C641 0.950 . S
H618 C642 0.950 . S
H619 C643 0.951 . S
H620 C645 0.951 . S
H621 C647 0.950 . S
H622 C648 0.950 . S
H623 C650 0.950 . S
H624 C653 0.950 . S
H625 C654 0.950 . S
H626 C656 0.950 . S
H627 C657 0.950 . S
C628 H610 0.951 . S
C628 C629 1.366 . S
C628 C630 1.388 . S
C629 C628 1.366 . S
C629 C633 1.385 . S
C630 H611 0.951 . S
C630 C628 1.388 . S
C630 C631 1.366 . S
C631 C630 1.366 . S
C631 C632 1.414 . S
C631 C634 1.499 . S
C632 H612 0.950 . S
C632 C631 1.414 . S
C632 C633 1.374 . S
C633 H613 0.950 . S
C633 C629 1.385 . S
C633 C632 1.374 . S
C634 C631 1.499 . S
C634 C635 1.373 . S
C634 C636 1.389 . S
C635 H614 0.950 . S
C635 C634 1.373 . S
C635 C651 1.377 . S
C636 C634 1.389 . S
C636 C637 1.524 . S
C636 C650 1.377 . S
C637 C636 1.524 . S
C637 C638 1.397 . S
C637 C642 1.363 . S
C638 H615 0.950 . S
C638 C637 1.397 . S
C638 C639 1.334 . S
C639 H616 0.950 . S
C639 C638 1.334 . S
C639 C640 1.287 . S
C640 C639 1.287 . S
C640 C641 1.524 . S
C640 H659 0.913 . S
C641 H617 0.950 . S
C641 C640 1.524 . S
C641 C642 1.415 . S
C642 H618 0.950 . S
C642 C637 1.363 . S
C642 C641 1.415 . S
C643 H619 0.951 . S
C643 C644 1.366 . S
C643 C645 1.388 . S
C644 C643 1.366 . S
C644 C648 1.385 . S
C645 H620 0.951 . S
C645 C643 1.388 . S
C645 C646 1.366 . S
C646 C645 1.366 . S
C646 C647 1.414 . S
C646 C649 1.499 . S
C647 H621 0.950 . S
C647 C646 1.414 . S
C647 C648 1.374 . S
C648 H622 0.950 . S
C648 C644 1.385 . S
C648 C647 1.374 . S
C649 C646 1.499 . S
C649 C650 1.373 . S
C649 C651 1.389 . S
C650 H623 0.950 . S
C650 C636 1.377 . S
C650 C649 1.373 . S
C651 C635 1.377 . S
C651 C649 1.389 . S
C651 C652 1.524 . S
C652 C651 1.524 . S
C652 C653 1.397 . S
C652 C657 1.363 . S
C653 H624 0.950 . S
C653 C652 1.397 . S
C653 C654 1.334 . S
C654 H625 0.950 . S
C654 C653 1.334 . S
C654 C655 1.287 . S
C655 C654 1.287 . S
C655 C656 1.524 . S
C655 H658 0.999 . S
C656 H626 0.950 . S
C656 C655 1.524 . S
C656 C657 1.415 . S
C657 H627 0.950 . S
C657 C652 1.363 . S
C657 C656 1.415 . S
H658 C655 0.999 . S
H659 C640 0.913 . S
H660 C678 0.951 . S
H661 C680 0.951 . S
H662 C682 0.950 . S
H663 C683 0.950 . S
H664 C685 0.950 . S
H665 C688 0.950 . S
H666 C689 0.950 . S
H667 C691 0.950 . S
H668 C692 0.950 . S
H669 C693 0.951 . S
H670 C695 0.951 . S
H671 C697 0.950 . S
H672 C698 0.950 . S
H673 C700 0.950 . S
H674 C703 0.950 . S
H675 C704 0.950 . S
H676 C706 0.950 . S
H677 C707 0.950 . S
C678 H660 0.951 . S
C678 C679 1.366 . S
C678 C680 1.388 . S
C679 C678 1.366 . S
C679 C683 1.385 . S
C680 H661 0.951 . S
C680 C678 1.388 . S
C680 C681 1.366 . S
C681 C680 1.366 . S
C681 C682 1.414 . S
C681 C684 1.499 . S
C682 H662 0.950 . S
C682 C681 1.414 . S
C682 C683 1.374 . S
C683 H663 0.950 . S
C683 C679 1.385 . S
C683 C682 1.374 . S
C684 C681 1.499 . S
C684 C685 1.373 . S
C684 C686 1.389 . S
C685 H664 0.950 . S
C685 C684 1.373 . S
C685 C701 1.377 . S
C686 C684 1.389 . S
C686 C687 1.524 . S
C686 C700 1.377 . S
C687 C686 1.524 . S
C687 C688 1.397 . S
C687 C692 1.363 . S
C688 H665 0.950 . S
C688 C687 1.397 . S
C688 C689 1.334 . S
C689 H666 0.950 . S
C689 C688 1.334 . S
C689 C690 1.287 . S
C690 C689 1.287 . S
C690 C691 1.524 . S
C690 H709 0.913 . S
C691 H667 0.950 . S
C691 C690 1.524 . S
C691 C692 1.415 . S
C692 H668 0.950 . S
C692 C687 1.363 . S
C692 C691 1.415 . S
C693 H669 0.951 . S
C693 C694 1.366 . S
C693 C695 1.388 . S
C694 C693 1.366 . S
C694 C698 1.385 . S
C695 H670 0.951 . S
C695 C693 1.388 . S
C695 C696 1.366 . S
C696 C695 1.366 . S
C696 C697 1.414 . S
C696 C699 1.499 . S
C697 H671 0.950 . S
C697 C696 1.414 . S
C697 C698 1.374 . S
C698 H672 0.950 . S
C698 C694 1.385 . S
C698 C697 1.374 . S
C699 C696 1.499 . S
C699 C700 1.373 . S
C699 C701 1.389 . S
C700 H673 0.950 . S
C700 C686 1.377 . S
C700 C699 1.373 . S
C701 C685 1.377 . S
C701 C699 1.389 . S
C701 C702 1.524 . S
C702 C701 1.524 . S
C702 C703 1.397 . S
C702 C707 1.363 . S
C703 H674 0.950 . S
C703 C702 1.397 . S
C703 C704 1.334 . S
C704 H675 0.950 . S
C704 C703 1.334 . S
C704 C705 1.287 . S
C705 C704 1.287 . S
C705 C706 1.524 . S
C705 H708 0.999 . S
C706 H676 0.950 . S
C706 C705 1.524 . S
C706 C707 1.415 . S
C707 H677 0.950 . S
C707 C702 1.363 . S
C707 C706 1.415 . S
H708 C705 0.999 . S
H709 C690 0.913 . S
H710 C728 0.951 . S
H711 C730 0.951 . S
H712 C732 0.950 . S
H713 C733 0.950 . S
H714 C735 0.950 . S
H715 C738 0.950 . S
H716 C739 0.950 . S
H717 C741 0.950 . S
H718 C742 0.950 . S
H719 C743 0.951 . S
H720 C745 0.951 . S
H721 C747 0.950 . S
H722 C748 0.950 . S
H723 C750 0.950 . S
H724 C753 0.950 . S
H725 C754 0.950 . S
H726 C756 0.950 . S
H727 C757 0.950 . S
C728 H710 0.951 . S
C728 C729 1.366 . S
C728 C730 1.388 . S
C729 C728 1.366 . S
C729 C733 1.385 . S
C730 H711 0.951 . S
C730 C728 1.388 . S
C730 C731 1.366 . S
C731 C730 1.366 . S
C731 C732 1.414 . S
C731 C734 1.499 . S
C732 H712 0.950 . S
C732 C731 1.414 . S
C732 C733 1.374 . S
C733 H713 0.950 . S
C733 C729 1.385 . S
C733 C732 1.374 . S
C734 C731 1.499 . S
C734 C735 1.373 . S
C734 C736 1.389 . S
C735 H714 0.950 . S
C735 C734 1.373 . S
C735 C751 1.377 . S
C736 C734 1.389 . S
C736 C737 1.524 . S
C736 C750 1.377 . S
C737 C736 1.524 . S
C737 C738 1.397 . S
C737 C742 1.363 . S
C738 H715 0.950 . S
C738 C737 1.397 . S
C738 C739 1.334 . S
C739 H716 0.950 . S
C739 C738 1.334 . S
C739 C740 1.287 . S
C740 C739 1.287 . S
C740 C741 1.524 . S
C740 H759 0.913 . S
C741 H717 0.950 . S
C741 C740 1.524 . S
C741 C742 1.415 . S
C742 H718 0.950 . S
C742 C737 1.363 . S
C742 C741 1.415 . S
C743 H719 0.951 . S
C743 C744 1.366 . S
C743 C745 1.388 . S
C744 C743 1.366 . S
C744 C748 1.385 . S
C745 H720 0.951 . S
C745 C743 1.388 . S
C745 C746 1.366 . S
C746 C745 1.366 . S
C746 C747 1.414 . S
C746 C749 1.499 . S
C747 H721 0.950 . S
C747 C746 1.414 . S
C747 C748 1.374 . S
C748 H722 0.950 . S
C748 C744 1.385 . S
C748 C747 1.374 . S
C749 C746 1.499 . S
C749 C750 1.373 . S
C749 C751 1.389 . S
C750 H723 0.950 . S
C750 C736 1.377 . S
C750 C749 1.373 . S
C751 C735 1.377 . S
C751 C749 1.389 . S
C751 C752 1.524 . S
C752 C751 1.524 . S
C752 C753 1.397 . S
C752 C757 1.363 . S
C753 H724 0.950 . S
C753 C752 1.397 . S
C753 C754 1.334 . S
C754 H725 0.950 . S
C754 C753 1.334 . S
C754 C755 1.287 . S
C755 C754 1.287 . S
C755 C756 1.524 . S
C755 H758 0.999 . S
C756 H726 0.950 . S
C756 C755 1.524 . S
C756 C757 1.415 . S
C757 H727 0.950 . S
C757 C752 1.363 . S
C757 C756 1.415 . S
H758 C755 0.999 . S
H759 C740 0.913 . S
H760 C778 0.951 . S
H761 C780 0.951 . S
H762 C782 0.950 . S
H763 C783 0.950 . S
H764 C785 0.950 . S
H765 C788 0.950 . S
H766 C789 0.950 . S
H767 C791 0.950 . S
H768 C792 0.950 . S
H769 C793 0.951 . S
H770 C795 0.951 . S
H771 C797 0.950 . S
H772 C798 0.950 . S
H773 C800 0.950 . S
H774 C803 0.950 . S
H775 C804 0.950 . S
H776 C806 0.950 . S
H777 C807 0.950 . S
C778 H760 0.951 . S
C778 C779 1.366 . S
C778 C780 1.388 . S
C779 C778 1.366 . S
C779 C783 1.385 . S
C780 H761 0.951 . S
C780 C778 1.388 . S
C780 C781 1.366 . S
C781 C780 1.366 . S
C781 C782 1.414 . S
C781 C784 1.499 . S
C782 H762 0.950 . S
C782 C781 1.414 . S
C782 C783 1.374 . S
C783 H763 0.950 . S
C783 C779 1.385 . S
C783 C782 1.374 . S
C784 C781 1.499 . S
C784 C785 1.373 . S
C784 C786 1.389 . S
C785 H764 0.950 . S
C785 C784 1.373 . S
C785 C801 1.377 . S
C786 C784 1.389 . S
C786 C787 1.524 . S
C786 C800 1.377 . S
C787 C786 1.524 . S
C787 C788 1.397 . S
C787 C792 1.363 . S
C788 H765 0.950 . S
C788 C787 1.397 . S
C788 C789 1.334 . S
C789 H766 0.950 . S
C789 C788 1.334 . S
C789 C790 1.287 . S
C790 C789 1.287 . S
C790 C791 1.524 . S
C790 H809 0.913 . S
C791 H767 0.950 . S
C791 C790 1.524 . S
C791 C792 1.415 . S
C792 H768 0.950 . S
C792 C787 1.363 . S
C792 C791 1.415 . S
C793 H769 0.951 . S
C793 C794 1.366 . S
C793 C795 1.388 . S
C794 C793 1.366 . S
C794 C798 1.385 . S
C795 H770 0.951 . S
C795 C793 1.388 . S
C795 C796 1.366 . S
C796 C795 1.366 . S
C796 C797 1.414 . S
C796 C799 1.499 . S
C797 H771 0.950 . S
C797 C796 1.414 . S
C797 C798 1.374 . S
C798 H772 0.950 . S
C798 C794 1.385 . S
C798 C797 1.374 . S
C799 C796 1.499 . S
C799 C800 1.373 . S
C799 C801 1.389 . S
C800 H773 0.950 . S
C800 C786 1.377 . S
C800 C799 1.373 . S
C801 C785 1.377 . S
C801 C799 1.389 . S
C801 C802 1.524 . S
C802 C801 1.524 . S
C802 C803 1.397 . S
C802 C807 1.363 . S
C803 H774 0.950 . S
C803 C802 1.397 . S
C803 C804 1.334 . S
C804 H775 0.950 . S
C804 C803 1.334 . S
C804 C805 1.287 . S
C805 C804 1.287 . S
C805 C806 1.524 . S
C805 H808 0.999 . S
C806 H776 0.950 . S
C806 C805 1.524 . S
C806 C807 1.415 . S
C807 H777 0.950 . S
C807 C802 1.363 . S
C807 C806 1.415 . S
H808 C805 0.999 . S
H809 C790 0.913 . S
H810 C828 0.951 . S
H811 C830 0.951 . S
H812 C832 0.950 . S
H813 C833 0.950 . S
H814 C835 0.950 . S
H815 C838 0.950 . S
H816 C839 0.950 . S
H817 C841 0.950 . S
H818 C842 0.950 . S
H819 C843 0.951 . S
H820 C845 0.951 . S
H821 C847 0.950 . S
H822 C848 0.950 . S
H823 C850 0.950 . S
H824 C853 0.950 . S
H825 C854 0.950 . S
H826 C856 0.950 . S
H827 C857 0.950 . S
C828 H810 0.951 . S
C828 C829 1.366 . S
C828 C830 1.388 . S
C829 C828 1.366 . S
C829 C833 1.385 . S
C830 H811 0.951 . S
C830 C828 1.388 . S
C830 C831 1.366 . S
C831 C830 1.366 . S
C831 C832 1.414 . S
C831 C834 1.499 . S
C832 H812 0.950 . S
C832 C831 1.414 . S
C832 C833 1.374 . S
C833 H813 0.950 . S
C833 C829 1.385 . S
C833 C832 1.374 . S
C834 C831 1.499 . S
C834 C835 1.373 . S
C834 C836 1.389 . S
C835 H814 0.950 . S
C835 C834 1.373 . S
C835 C851 1.377 . S
C836 C834 1.389 . S
C836 C837 1.524 . S
C836 C850 1.377 . S
C837 C836 1.524 . S
C837 C838 1.397 . S
C837 C842 1.363 . S
C838 H815 0.950 . S
C838 C837 1.397 . S
C838 C839 1.334 . S
C839 H816 0.950 . S
C839 C838 1.334 . S
C839 C840 1.287 . S
C840 C839 1.287 . S
C840 C841 1.524 . S
C840 H859 0.913 . S
C841 H817 0.950 . S
C841 C840 1.524 . S
C841 C842 1.415 . S
C842 H818 0.950 . S
C842 C837 1.363 . S
C842 C841 1.415 . S
C843 H819 0.951 . S
C843 C844 1.366 . S
C843 C845 1.388 . S
C844 C843 1.366 . S
C844 C848 1.385 . S
C845 H820 0.951 . S
C845 C843 1.388 . S
C845 C846 1.366 . S
C846 C845 1.366 . S
C846 C847 1.414 . S
C846 C849 1.499 . S
C847 H821 0.950 . S
C847 C846 1.414 . S
C847 C848 1.374 . S
C848 H822 0.950 . S
C848 C844 1.385 . S
C848 C847 1.374 . S
C849 C846 1.499 . S
C849 C850 1.373 . S
C849 C851 1.389 . S
C850 H823 0.950 . S
C850 C836 1.377 . S
C850 C849 1.373 . S
C851 C835 1.377 . S
C851 C849 1.389 . S
C851 C852 1.524 . S
C852 C851 1.524 . S
C852 C853 1.397 . S
C852 C857 1.363 . S
C853 H824 0.950 . S
C853 C852 1.397 . S
C853 C854 1.334 . S
C854 H825 0.950 . S
C854 C853 1.334 . S
C854 C855 1.287 . S
C855 C854 1.287 . S
C855 C856 1.524 . S
C855 H858 0.999 . S
C856 H826 0.950 . S
C856 C855 1.524 . S
C856 C857 1.415 . S
C857 H827 0.950 . S
C857 C852 1.363 . S
C857 C856 1.415 . S
H858 C855 0.999 . S
H859 C840 0.913 . S
H860 C878 0.951 . S
H861 C880 0.951 . S
H862 C882 0.950 . S
H863 C883 0.950 . S
H864 C885 0.950 . S
H865 C888 0.950 . S
H866 C889 0.950 . S
H867 C891 0.950 . S
H868 C892 0.950 . S
H869 C893 0.951 . S
H870 C895 0.951 . S
H871 C897 0.950 . S
H872 C898 0.950 . S
H873 C900 0.950 . S
H874 C903 0.950 . S
H875 C904 0.950 . S
H876 C906 0.950 . S
H877 C907 0.950 . S
C878 H860 0.951 . S
C878 C879 1.366 . S
C878 C880 1.388 . S
C879 C878 1.366 . S
C879 C883 1.385 . S
C880 H861 0.951 . S
C880 C878 1.388 . S
C880 C881 1.366 . S
C881 C880 1.366 . S
C881 C882 1.414 . S
C881 C884 1.499 . S
C882 H862 0.950 . S
C882 C881 1.414 . S
C882 C883 1.374 . S
C883 H863 0.950 . S
C883 C879 1.385 . S
C883 C882 1.374 . S
C884 C881 1.499 . S
C884 C885 1.373 . S
C884 C886 1.389 . S
C885 H864 0.950 . S
C885 C884 1.373 . S
C885 C901 1.377 . S
C886 C884 1.389 . S
C886 C887 1.524 . S
C886 C900 1.377 . S
C887 C886 1.524 . S
C887 C888 1.397 . S
C887 C892 1.363 . S
C888 H865 0.950 . S
C888 C887 1.397 . S
C888 C889 1.334 . S
C889 H866 0.950 . S
C889 C888 1.334 . S
C889 C890 1.287 . S
C890 C889 1.287 . S
C890 C891 1.524 . S
C890 H909 0.913 . S
C891 H867 0.950 . S
C891 C890 1.524 . S
C891 C892 1.415 . S
C892 H868 0.950 . S
C892 C887 1.363 . S
C892 C891 1.415 . S
C893 H869 0.951 . S
C893 C894 1.366 . S
C893 C895 1.388 . S
C894 C893 1.366 . S
C894 C898 1.385 . S
C895 H870 0.951 . S
C895 C893 1.388 . S
C895 C896 1.366 . S
C896 C895 1.366 . S
C896 C897 1.414 . S
C896 C899 1.499 . S
C897 H871 0.950 . S
C897 C896 1.414 . S
C897 C898 1.374 . S
C898 H872 0.950 . S
C898 C894 1.385 . S
C898 C897 1.374 . S
C899 C896 1.499 . S
C899 C900 1.373 . S
C899 C901 1.389 . S
C900 H873 0.950 . S
C900 C886 1.377 . S
C900 C899 1.373 . S
C901 C885 1.377 . S
C901 C899 1.389 . S
C901 C902 1.524 . S
C902 C901 1.524 . S
C902 C903 1.397 . S
C902 C907 1.363 . S
C903 H874 0.950 . S
C903 C902 1.397 . S
C903 C904 1.334 . S
C904 H875 0.950 . S
C904 C903 1.334 . S
C904 C905 1.287 . S
C905 C904 1.287 . S
C905 C906 1.524 . S
C905 H908 0.999 . S
C906 H876 0.950 . S
C906 C905 1.524 . S
C906 C907 1.415 . S
C907 H877 0.950 . S
C907 C902 1.363 . S
C907 C906 1.415 . S
H908 C905 0.999 . S
H909 C890 0.913 . S
H910 C928 0.951 . S
H911 C930 0.951 . S
H912 C932 0.950 . S
H913 C933 0.950 . S
H914 C935 0.950 . S
H915 C938 0.950 . S
H916 C939 0.950 . S
H917 C941 0.950 . S
H918 C942 0.950 . S
H919 C943 0.951 . S
H920 C945 0.951 . S
H921 C947 0.950 . S
H922 C948 0.950 . S
H923 C950 0.950 . S
H924 C953 0.950 . S
H925 C954 0.950 . S
H926 C956 0.950 . S
H927 C957 0.950 . S
C928 H910 0.951 . S
C928 C929 1.366 . S
C928 C930 1.388 . S
C929 C928 1.366 . S
C929 C933 1.385 . S
C930 H911 0.951 . S
C930 C928 1.388 . S
C930 C931 1.366 . S
C931 C930 1.366 . S
C931 C932 1.414 . S
C931 C934 1.499 . S
C932 H912 0.950 . S
C932 C931 1.414 . S
C932 C933 1.374 . S
C933 H913 0.950 . S
C933 C929 1.385 . S
C933 C932 1.374 . S
C934 C931 1.499 . S
C934 C935 1.373 . S
C934 C936 1.389 . S
C935 H914 0.950 . S
C935 C934 1.373 . S
C935 C951 1.377 . S
C936 C934 1.389 . S
C936 C937 1.524 . S
C936 C950 1.377 . S
C937 C936 1.524 . S
C937 C938 1.397 . S
C937 C942 1.363 . S
C938 H915 0.950 . S
C938 C937 1.397 . S
C938 C939 1.334 . S
C939 H916 0.950 . S
C939 C938 1.334 . S
C939 C940 1.287 . S
C940 C939 1.287 . S
C940 C941 1.524 . S
C940 H959 0.913 . S
C941 H917 0.950 . S
C941 C940 1.524 . S
C941 C942 1.415 . S
C942 H918 0.950 . S
C942 C937 1.363 . S
C942 C941 1.415 . S
C943 H919 0.951 . S
C943 C944 1.366 . S
C943 C945 1.388 . S
C944 C943 1.366 . S
C944 C948 1.385 . S
C945 H920 0.951 . S
C945 C943 1.388 . S
C945 C946 1.366 . S
C946 C945 1.366 . S
C946 C947 1.414 . S
C946 C949 1.499 . S
C947 H921 0.950 . S
C947 C946 1.414 . S
C947 C948 1.374 . S
C948 H922 0.950 . S
C948 C944 1.385 . S
C948 C947 1.374 . S
C949 C946 1.499 . S
C949 C950 1.373 . S
C949 C951 1.389 . S
C950 H923 0.950 . S
C950 C936 1.377 . S
C950 C949 1.373 . S
C951 C935 1.377 . S
C951 C949 1.389 . S
C951 C952 1.524 . S
C952 C951 1.524 . S
C952 C953 1.397 . S
C952 C957 1.363 . S
C953 H924 0.950 . S
C953 C952 1.397 . S
C953 C954 1.334 . S
C954 H925 0.950 . S
C954 C953 1.334 . S
C954 C955 1.287 . S
C955 C954 1.287 . S
C955 C956 1.524 . S
C955 H958 0.999 . S
C956 H926 0.950 . S
C956 C955 1.524 . S
C956 C957 1.415 . S
C957 H927 0.950 . S
C957 C952 1.363 . S
C957 C956 1.415 . S
H958 C955 0.999 . S
H959 C940 0.913 . S
H960 C978 0.951 . S
H961 C980 0.951 . S
H962 C982 0.950 . S
H963 C983 0.950 . S
H964 C985 0.950 . S
H965 C988 0.950 . S
H966 C989 0.950 . S
H967 C991 0.950 . S
H968 C992 0.950 . S
H969 C993 0.942 1_556 S
H970 C995 0.951 . S
H971 C997 0.952 1_655 S
H972 C998 0.950 1_655 S
H973 C1000 0.950 . S
H974 C1003 0.950 1_655 S
H975 C1004 0.950 . S
H976 C1006 0.950 . S
H977 C1007 0.950 . S
C978 H960 0.951 . S
C978 C979 1.366 1_655 S
C978 C980 1.388 . S
C979 C978 1.366 1_455 S
C979 C983 1.385 . S
C980 H961 0.951 . S
C980 C978 1.388 . S
C980 C981 1.366 1_655 S
C981 C980 1.366 1_455 S
C981 C982 1.414 . S
C981 C984 1.499 . S
C982 H962 0.950 . S
C982 C981 1.414 . S
C982 C983 1.374 . S
C983 H963 0.950 . S
C983 C979 1.385 . S
C983 C982 1.374 . S
C984 C981 1.499 . S
C984 C985 1.373 . S
C984 C986 1.389 . S
C985 H964 0.950 . S
C985 C984 1.373 . S
C985 C1001 1.377 . S
C986 C984 1.389 . S
C986 C987 1.520 . S
C986 C1000 1.377 . S
C987 C986 1.520 . S
C987 C988 1.412 . S
C987 C992 1.355 1_455 S
C988 H965 0.950 . S
C988 C987 1.412 . S
C988 C989 1.334 . S
C989 H966 0.950 . S
C989 C988 1.334 . S
C989 C990 1.287 1_455 S
C990 C989 1.287 1_655 S
C990 C991 1.524 . S
C990 H1009 0.913 . S
C991 H967 0.950 . S
C991 C990 1.524 . S
C991 C992 1.415 . S
C992 H968 0.950 . S
C992 C987 1.355 1_655 S
C992 C991 1.415 . S
C993 H969 0.942 1_554 S
C993 C994 1.352 1_554 S
C993 C995 1.410 . S
C994 C993 1.352 1_556 S
C994 C998 1.385 . S
C995 H970 0.951 . S
C995 C993 1.410 . S
C995 C996 1.366 . S
C996 C995 1.366 . S
C996 C997 1.412 . S
C996 C999 1.499 . S
C997 H971 0.952 1_455 S
C997 C996 1.412 . S
C997 C998 1.373 1_554 S
C998 H972 0.950 1_455 S
C998 C994 1.385 . S
C998 C997 1.373 1_556 S
C999 C996 1.499 . S
C999 C1000 1.373 . S
C999 C1001 1.389 . S
C1000 H973 0.950 . S
C1000 C986 1.377 . S
C1000 C999 1.373 . S
C1001 C985 1.377 . S
C1001 C999 1.389 . S
C1001 C1002 1.524 . S
C1002 C1001 1.524 . S
C1002 C1003 1.397 . S
C1002 C1007 1.363 . S
C1003 H974 0.950 1_455 S
C1003 C1002 1.397 . S
C1003 C1004 1.334 . S
C1004 H975 0.950 . S
C1004 C1003 1.334 . S
C1004 C1005 1.287 . S
C1005 C1004 1.287 . S
C1005 C1006 1.524 . S
C1005 H1008 0.999 . S
C1006 H976 0.950 . S
C1006 C1005 1.524 . S
C1006 C1007 1.415 . S
C1007 H977 0.950 . S
C1007 C1002 1.363 . S
C1007 C1006 1.415 . S
H1008 C1005 0.999 . S
H1009 C990 0.913 . S
H1010 C1028 0.951 . S
H1011 C1030 0.951 . S
H1012 C1032 0.950 1_565 S
H1013 C1033 0.950 1_565 S
H1014 C1035 0.950 . S
H1015 C1038 0.950 . S
H1016 C1039 0.950 . S
H1017 C1041 0.950 . S
H1018 C1042 0.950 . S
H1019 C1043 0.951 . S
H1020 C1045 0.951 . S
H1021 C1047 0.950 . S
H1022 C1048 0.950 . S
H1023 C1050 0.950 . S
H1024 C1053 0.950 . S
H1025 C1054 0.950 . S
H1026 C1056 0.950 . S
H1027 C1057 0.950 . S
C1028 H1010 0.951 . S
C1028 C1029 1.366 . S
C1028 C1030 1.388 . S
C1029 C1028 1.366 . S
C1029 C1033 1.385 . S
C1030 H1011 0.951 . S
C1030 C1028 1.388 . S
C1030 C1031 1.366 . S
C1031 C1030 1.366 . S
C1031 C1032 1.414 . S
C1031 C1034 1.499 . S
C1032 H1012 0.950 1_545 S
C1032 C1031 1.414 . S
C1032 C1033 1.374 . S
C1033 H1013 0.950 1_545 S
C1033 C1029 1.385 . S
C1033 C1032 1.374 . S
C1034 C1031 1.499 . S
C1034 C1035 1.373 1_545 S
C1034 C1036 1.389 . S
C1035 H1014 0.950 . S
C1035 C1034 1.373 1_565 S
C1035 C1051 1.377 . S
C1036 C1034 1.389 . S
C1036 C1037 1.524 . S
C1036 C1050 1.377 . S
C1037 C1036 1.524 . S
C1037 C1038 1.397 . S
C1037 C1042 1.363 . S
C1038 H1015 0.950 . S
C1038 C1037 1.397 . S
C1038 C1039 1.334 . S
C1039 H1016 0.950 . S
C1039 C1038 1.334 . S
C1039 C1040 1.287 . S
C1040 C1039 1.287 . S
C1040 C1041 1.524 . S
C1040 H1059 0.913 . S
C1041 H1017 0.950 . S
C1041 C1040 1.524 . S
C1041 C1042 1.415 . S
C1042 H1018 0.950 . S
C1042 C1037 1.363 . S
C1042 C1041 1.415 . S
C1043 H1019 0.951 . S
C1043 C1044 1.366 . S
C1043 C1045 1.388 . S
C1044 C1043 1.366 . S
C1044 C1048 1.385 . S
C1045 H1020 0.951 . S
C1045 C1043 1.388 . S
C1045 C1046 1.366 . S
C1046 C1045 1.366 . S
C1046 C1047 1.414 . S
C1046 C1049 1.499 . S
C1047 H1021 0.950 . S
C1047 C1046 1.414 . S
C1047 C1048 1.374 . S
C1048 H1022 0.950 . S
C1048 C1044 1.385 . S
C1048 C1047 1.374 . S
C1049 C1046 1.499 . S
C1049 C1050 1.373 . S
C1049 C1051 1.389 1_545 S
C1050 H1023 0.950 . S
C1050 C1036 1.377 . S
C1050 C1049 1.373 . S
C1051 C1035 1.377 . S
C1051 C1049 1.389 1_565 S
C1051 C1052 1.524 . S
C1052 C1051 1.524 . S
C1052 C1053 1.397 . S
C1052 C1057 1.363 . S
C1053 H1024 0.950 . S
C1053 C1052 1.397 . S
C1053 C1054 1.334 . S
C1054 H1025 0.950 . S
C1054 C1053 1.334 . S
C1054 C1055 1.287 . S
C1055 C1054 1.287 . S
C1055 C1056 1.524 . S
C1055 H1058 0.999 . S
C1056 H1026 0.950 . S
C1056 C1055 1.524 . S
C1056 C1057 1.415 . S
C1057 H1027 0.950 . S
C1057 C1052 1.363 . S
C1057 C1056 1.415 . S
H1058 C1055 0.999 . S
H1059 C1040 0.913 . S
H1060 C1078 0.951 . S
H1061 C1080 0.951 . S
H1062 C1082 0.950 . S
H1063 C1083 0.950 . S
H1064 C1085 0.950 . S
H1065 C1088 0.950 . S
H1066 C1089 0.950 . S
H1067 C1091 0.950 . S
H1068 C1092 0.950 . S
H1069 C1093 0.951 . S
H1070 C1095 0.951 . S
H1071 C1097 0.950 . S
H1072 C1098 0.950 . S
H1073 C1100 0.950 . S
H1074 C1103 0.950 . S
H1075 C1104 0.950 . S
H1076 C1106 0.950 . S
H1077 C1107 0.950 . S
C1078 H1060 0.951 . S
C1078 C1079 1.366 . S
C1078 C1080 1.388 . S
C1079 C1078 1.366 . S
C1079 C1083 1.385 . S
C1080 H1061 0.951 . S
C1080 C1078 1.388 . S
C1080 C1081 1.366 . S
C1081 C1080 1.366 . S
C1081 C1082 1.414 . S
C1081 C1084 1.499 . S
C1082 H1062 0.950 . S
C1082 C1081 1.414 . S
C1082 C1083 1.374 . S
C1083 H1063 0.950 . S
C1083 C1079 1.385 . S
C1083 C1082 1.374 . S
C1084 C1081 1.499 . S
C1084 C1085 1.373 . S
C1084 C1086 1.389 . S
C1085 H1064 0.950 . S
C1085 C1084 1.373 . S
C1085 C1101 1.377 . S
C1086 C1084 1.389 . S
C1086 C1087 1.524 . S
C1086 C1100 1.377 . S
C1087 C1086 1.524 . S
C1087 C1088 1.397 . S
C1087 C1092 1.363 . S
C1088 H1065 0.950 . S
C1088 C1087 1.397 . S
C1088 C1089 1.334 . S
C1089 H1066 0.950 . S
C1089 C1088 1.334 . S
C1089 C1090 1.287 . S
C1090 C1089 1.287 . S
C1090 C1091 1.524 . S
C1090 H1109 0.913 . S
C1091 H1067 0.950 . S
C1091 C1090 1.524 . S
C1091 C1092 1.415 . S
C1092 H1068 0.950 . S
C1092 C1087 1.363 . S
C1092 C1091 1.415 . S
C1093 H1069 0.951 . S
C1093 C1094 1.366 . S
C1093 C1095 1.388 . S
C1094 C1093 1.366 . S
C1094 C1098 1.385 . S
C1095 H1070 0.951 . S
C1095 C1093 1.388 . S
C1095 C1096 1.366 . S
C1096 C1095 1.366 . S
C1096 C1097 1.414 . S
C1096 C1099 1.499 . S
C1097 H1071 0.950 . S
C1097 C1096 1.414 . S
C1097 C1098 1.374 . S
C1098 H1072 0.950 . S
C1098 C1094 1.385 . S
C1098 C1097 1.374 . S
C1099 C1096 1.499 . S
C1099 C1100 1.373 . S
C1099 C1101 1.389 . S
C1100 H1073 0.950 . S
C1100 C1086 1.377 . S
C1100 C1099 1.373 . S
C1101 C1085 1.377 . S
C1101 C1099 1.389 . S
C1101 C1102 1.524 . S
C1102 C1101 1.524 . S
C1102 C1103 1.397 . S
C1102 C1107 1.363 . S
C1103 H1074 0.950 . S
C1103 C1102 1.397 . S
C1103 C1104 1.334 . S
C1104 H1075 0.950 . S
C1104 C1103 1.334 . S
C1104 C1105 1.287 . S
C1105 C1104 1.287 . S
C1105 C1106 1.524 . S
C1105 H1108 0.999 . S
C1106 H1076 0.950 . S
C1106 C1105 1.524 . S
C1106 C1107 1.415 . S
C1107 H1077 0.950 . S
C1107 C1102 1.363 . S
C1107 C1106 1.415 . S
H1108 C1105 0.999 . S
H1109 C1090 0.913 . S
H1110 C1128 0.951 . S
H1111 C1130 0.951 . S
H1112 C1132 0.950 . S
H1113 C1133 0.950 . S
H1114 C1135 0.950 . S
H1115 C1138 0.950 . S
H1116 C1139 0.944 1_565 S
H1117 C1141 0.950 . S
H1118 C1142 0.950 . S
H1119 C1143 0.951 . S
H1120 C1145 0.951 . S
H1121 C1147 0.950 . S
H1122 C1148 0.950 . S
H1123 C1150 0.950 . S
H1124 C1153 0.950 . S
H1125 C1154 0.950 . S
H1126 C1156 0.950 . S
H1127 C1157 0.950 . S
C1128 H1110 0.951 . S
C1128 C1129 1.366 . S
C1128 C1130 1.388 . S
C1129 C1128 1.366 . S
C1129 C1133 1.385 1_545 S
C1130 H1111 0.951 . S
C1130 C1128 1.388 . S
C1130 C1131 1.366 . S
C1131 C1130 1.366 . S
C1131 C1132 1.414 1_545 S
C1131 C1134 1.499 . S
C1132 H1112 0.950 . S
C1132 C1131 1.414 1_565 S
C1132 C1133 1.374 . S
C1133 H1113 0.950 . S
C1133 C1129 1.385 1_565 S
C1133 C1132 1.374 . S
C1134 C1131 1.499 . S
C1134 C1135 1.373 1_545 S
C1134 C1136 1.389 . S
C1135 H1114 0.950 . S
C1135 C1134 1.373 1_565 S
C1135 C1151 1.375 1_565 S
C1136 C1134 1.389 . S
C1136 C1137 1.524 . S
C1136 C1150 1.377 . S
C1137 C1136 1.524 . S
C1137 C1138 1.397 1_545 S
C1137 C1142 1.363 . S
C1138 H1115 0.950 . S
C1138 C1137 1.397 1_565 S
C1138 C1139 1.337 1_565 S
C1139 H1116 0.944 1_545 S
C1139 C1138 1.337 1_545 S
C1139 C1140 1.290 . S
C1140 C1139 1.290 . S
C1140 C1141 1.524 . S
C1140 H1159 0.913 . S
C1141 H1117 0.950 . S
C1141 C1140 1.524 . S
C1141 C1142 1.415 . S
C1142 H1118 0.950 . S
C1142 C1137 1.363 . S
C1142 C1141 1.415 . S
C1143 H1119 0.951 . S
C1143 C1144 1.366 1_565 S
C1143 C1145 1.388 . S
C1144 C1143 1.366 1_545 S
C1144 C1148 1.385 . S
C1145 H1120 0.951 . S
C1145 C1143 1.388 . S
C1145 C1146 1.366 1_565 S
C1146 C1145 1.366 1_545 S
C1146 C1147 1.414 . S
C1146 C1149 1.499 . S
C1147 H1121 0.950 . S
C1147 C1146 1.414 . S
C1147 C1148 1.374 . S
C1148 H1122 0.950 . S
C1148 C1144 1.385 . S
C1148 C1147 1.374 . S
C1149 C1146 1.499 . S
C1149 C1150 1.373 . S
C1149 C1151 1.385 . S
C1150 H1123 0.950 . S
C1150 C1136 1.377 . S
C1150 C1149 1.373 . S
C1151 C1135 1.375 1_545 S
C1151 C1149 1.385 . S
C1151 C1152 1.533 1_545 S
C1152 C1151 1.533 1_565 S
C1152 C1153 1.397 1_565 S
C1152 C1157 1.363 . S
C1153 H1124 0.950 . S
C1153 C1152 1.397 1_545 S
C1153 C1154 1.334 . S
C1154 H1125 0.950 . S
C1154 C1153 1.334 . S
C1154 C1155 1.287 1_545 S
C1155 C1154 1.287 1_565 S
C1155 C1156 1.524 . S
C1155 H1158 0.999 . S
C1156 H1126 0.950 . S
C1156 C1155 1.524 . S
C1156 C1157 1.415 . S
C1157 H1127 0.950 . S
C1157 C1152 1.363 . S
C1157 C1156 1.415 . S
H1158 C1155 0.999 . S
H1159 C1140 0.913 . S
H1160 C1178 0.951 . S
H1161 C1180 0.951 . S
H1162 C1182 0.950 . S
H1163 C1183 0.950 . S
H1164 C1185 0.950 . S
H1165 C1188 0.950 . S
H1166 C1189 0.950 . S
H1167 C1191 0.950 . S
H1168 C1192 0.950 . S
H1169 C1193 0.992 . S
H1170 C1195 0.951 . S
H1171 C1197 0.950 . S
H1172 C1198 0.921 1_554 S
H1173 C1200 0.950 . S
H1174 C1203 0.950 . S
H1175 C1204 0.950 . S
H1176 C1206 0.950 . S
H1177 C1207 0.950 . S
C1178 H1160 0.951 . S
C1178 C1179 1.366 . S
C1178 C1180 1.388 . S
C1179 C1178 1.366 . S
C1179 C1183 1.385 . S
C1180 H1161 0.951 . S
C1180 C1178 1.388 . S
C1180 C1181 1.366 . S
C1181 C1180 1.366 . S
C1181 C1182 1.414 . S
C1181 C1184 1.499 . S
C1182 H1162 0.950 . S
C1182 C1181 1.414 . S
C1182 C1183 1.374 . S
C1183 H1163 0.950 . S
C1183 C1179 1.385 . S
C1183 C1182 1.374 . S
C1184 C1181 1.499 . S
C1184 C1185 1.373 . S
C1184 C1186 1.389 . S
C1185 H1164 0.950 . S
C1185 C1184 1.373 . S
C1185 C1201 1.377 . S
C1186 C1184 1.389 . S
C1186 C1187 1.524 . S
C1186 C1200 1.377 . S
C1187 C1186 1.524 . S
C1187 C1188 1.397 . S
C1187 C1192 1.363 . S
C1188 H1165 0.950 . S
C1188 C1187 1.397 . S
C1188 C1189 1.334 . S
C1189 H1166 0.950 . S
C1189 C1188 1.334 . S
C1189 C1190 1.287 . S
C1190 C1189 1.287 . S
C1190 C1191 1.524 . S
C1190 H1209 0.913 . S
C1191 H1167 0.950 . S
C1191 C1190 1.524 . S
C1191 C1192 1.415 . S
C1192 H1168 0.950 . S
C1192 C1187 1.363 . S
C1192 C1191 1.415 . S
C1193 H1169 0.992 . S
C1193 C1194 1.406 . S
C1193 C1195 1.311 1_554 S
C1194 C1193 1.406 . S
C1194 C1198 1.355 1_554 S
C1195 H1170 0.951 . S
C1195 C1193 1.311 1_556 S
C1195 C1196 1.366 . S
C1196 C1195 1.366 . S
C1196 C1197 1.414 . S
C1196 C1199 1.499 . S
C1197 H1171 0.950 . S
C1197 C1196 1.414 . S
C1197 C1198 1.434 . S
C1198 H1172 0.921 1_556 S
C1198 C1194 1.355 1_556 S
C1198 C1197 1.434 . S
C1199 C1196 1.499 . S
C1199 C1200 1.373 . S
C1199 C1201 1.389 . S
C1200 H1173 0.950 . S
C1200 C1186 1.377 . S
C1200 C1199 1.373 . S
C1201 C1185 1.377 . S
C1201 C1199 1.389 . S
C1201 C1202 1.524 . S
C1202 C1201 1.524 . S
C1202 C1203 1.397 . S
C1202 C1207 1.363 . S
C1203 H1174 0.950 . S
C1203 C1202 1.397 . S
C1203 C1204 1.334 . S
C1204 H1175 0.950 . S
C1204 C1203 1.334 . S
C1204 C1205 1.287 . S
C1205 C1204 1.287 . S
C1205 C1206 1.524 . S
C1205 H1208 0.999 . S
C1206 H1176 0.950 . S
C1206 C1205 1.524 . S
C1206 C1207 1.415 . S
C1207 H1177 0.950 . S
C1207 C1202 1.363 . S
C1207 C1206 1.415 . S
H1208 C1205 0.999 . S
H1209 C1190 0.913 . S
H1210 C1228 0.951 . S
H1211 C1230 0.951 . S
H1212 C1232 0.950 . S
H1213 C1233 0.950 . S
H1214 C1235 0.950 . S
H1215 C1238 0.950 . S
H1216 C1239 0.950 . S
H1217 C1241 0.950 . S
H1218 C1242 0.950 . S
H1219 C1243 0.951 . S
H1220 C1245 0.951 . S
H1221 C1247 0.950 . S
H1222 C1248 0.950 . S
H1223 C1250 0.950 . S
H1224 C1253 0.950 . S
H1225 C1254 0.950 . S
H1226 C1256 0.950 . S
H1227 C1257 0.950 . S
C1228 H1210 0.951 . S
C1228 C1229 1.368 . S
C1228 C1230 1.388 . S
C1229 C1228 1.368 . S
C1229 C1233 1.383 1_455 S
C1230 H1211 0.951 . S
C1230 C1228 1.388 . S
C1230 C1231 1.366 . S
C1231 C1230 1.366 . S
C1231 C1232 1.414 1_455 S
C1231 C1234 1.499 . S
C1232 H1212 0.950 . S
C1232 C1231 1.414 1_655 S
C1232 C1233 1.374 . S
C1233 H1213 0.950 . S
C1233 C1229 1.383 1_655 S
C1233 C1232 1.374 . S
C1234 C1231 1.499 . S
C1234 C1235 1.373 1_455 S
C1234 C1236 1.389 . S
C1235 H1214 0.950 . S
C1235 C1234 1.373 1_655 S
C1235 C1251 1.377 . S
C1236 C1234 1.389 . S
C1236 C1237 1.524 . S
C1236 C1250 1.377 . S
C1237 C1236 1.524 . S
C1237 C1238 1.397 . S
C1237 C1242 1.363 . S
C1238 H1215 0.950 . S
C1238 C1237 1.397 . S
C1238 C1239 1.334 . S
C1239 H1216 0.950 . S
C1239 C1238 1.334 . S
C1239 C1240 1.287 . S
C1240 C1239 1.287 . S
C1240 C1241 1.524 . S
C1240 H1259 0.913 . S
C1241 H1217 0.950 . S
C1241 C1240 1.524 . S
C1241 C1242 1.415 . S
C1242 H1218 0.950 . S
C1242 C1237 1.363 . S
C1242 C1241 1.415 . S
C1243 H1219 0.951 . S
C1243 C1244 1.366 1_655 S
C1243 C1245 1.388 . S
C1244 C1243 1.366 1_455 S
C1244 C1248 1.385 . S
C1245 H1220 0.951 . S
C1245 C1243 1.388 . S
C1245 C1246 1.366 1_655 S
C1246 C1245 1.366 1_455 S
C1246 C1247 1.414 . S
C1246 C1249 1.499 . S
C1247 H1221 0.950 . S
C1247 C1246 1.414 . S
C1247 C1248 1.374 . S
C1248 H1222 0.950 . S
C1248 C1244 1.385 . S
C1248 C1247 1.374 . S
C1249 C1246 1.499 . S
C1249 C1250 1.373 . S
C1249 C1251 1.389 1_455 S
C1250 H1223 0.950 . S
C1250 C1236 1.377 . S
C1250 C1249 1.373 . S
C1251 C1235 1.377 . S
C1251 C1249 1.389 1_655 S
C1251 C1252 1.524 . S
C1252 C1251 1.524 . S
C1252 C1253 1.397 . S
C1252 C1257 1.363 . S
C1253 H1224 0.950 . S
C1253 C1252 1.397 . S
C1253 C1254 1.334 . S
C1254 H1225 0.950 . S
C1254 C1253 1.334 . S
C1254 C1255 1.287 . S
C1255 C1254 1.287 . S
C1255 C1256 1.524 . S
C1255 H1258 0.999 . S
C1256 H1226 0.950 . S
C1256 C1255 1.524 . S
C1256 C1257 1.415 . S
C1257 H1227 0.950 . S
C1257 C1252 1.363 . S
C1257 C1256 1.415 . S
H1258 C1255 0.999 . S
H1259 C1240 0.913 . S
C379 C12 2.910 . S
C394 C335 2.863 . S
C429 C52 2.878 . S
C444 C242 2.847 . S
C479 C111 2.952 . S
C494 C282 2.914 . S
C529 C31 3.136 . S
C544 C322 3.092 . S
C594 C255 3.107 . S
C579 C71 3.170 . S
C644 C295 3.031 . S
C629 C92 3.091 . S
C679 C48 0.387 . S
C694 C162 0.402 . S
C729 C109 0.397 . S
C744 C202 0.358 . S
C779 C29 0.392 . S
C794 C135 0.328 . S
C844 C175 0.278 . S
C829 C69 0.316 . S
C894 C215 0.300 . S
C879 C88 0.258 . S
C929 C8 0.238 . S
C944 C122 0.246 . S
C994 C221 1.104 . S
C979 C17 1.100 1_455 S
C1029 C57 1.105 . S
C1044 C141 1.118 . S
C1079 C97 1.103 . S
C1094 C181 1.110 . S
C1144 C301 1.760 . S
C1129 C42 1.708 . S
C1194 C341 1.750 . S
C1179 C82 1.715 . S
C1229 C2 1.721 . S
C1244 C261 1.759 . S
