# Generated by pormake.
# Topology pts, (4,4)-cn, num edge types: 1
# Building blocks:
#     Node 0, Type 0, BuildingBlock: NAWXER_clean_sbu_0, # of connection points: 4
#     Node 1, Type 0, BuildingBlock: NAWXER_clean_sbu_0, # of connection points: 4
#     Node 2, Type 1, BuildingBlock: QUQFOY_clean_sbu_1, # of connection points: 4
#     Node 3, Type 1, BuildingBlock: QUQFOY_clean_sbu_1, # of connection points: 4
#     Edge 4, Type (0, 1), BuildingBlock: UVAHIK_clean_linker_0, # of connection points: 2
#     Edge 5, Type (0, 1), BuildingBlock: UVAHIK_clean_linker_0, # of connection points: 2
#     Edge 6, Type (0, 1), BuildingBlock: UVAHIK_clean_linker_0, # of connection points: 2
#     Edge 7, Type (0, 1), BuildingBlock: UVAHIK_clean_linker_0, # of connection points: 2
#     Edge 8, Type (0, 1), BuildingBlock: UVAHIK_clean_linker_0, # of connection points: 2
#     Edge 9, Type (0, 1), BuildingBlock: UVAHIK_clean_linker_0, # of connection points: 2
#     Edge 10, Type (0, 1), BuildingBlock: UVAHIK_clean_linker_0, # of connection points: 2
#     Edge 11, Type (0, 1), BuildingBlock: UVAHIK_clean_linker_0, # of connection points: 2
# Relax obj value: 0.107
# Max RMSD: 0.244
# Mean RMSD: 0.141
data_MOF--net-pts--node1-NAWXER_clean_sbu_0--node2-QUQFOY_clean_sbu_1--edge1-UVAHIK_clean_linker_0
_symmetry_space_group_name_H-M    P1
_symmetry_Int_Tables_number       1
_symmetry_cell_setting            triclinic
loop_
_symmetry_equiv_pos_as_xyz
'x, y, z'
_cell_length_a     28.32087
_cell_length_b     31.338848
_cell_length_c     51.419881
_cell_angle_alpha  90.008728
_cell_angle_beta   90.020992
_cell_angle_gamma 89.978281
loop_
_atom_site_label
_atom_site_type_symbol
_atom_site_fract_x
_atom_site_fract_y
_atom_site_fract_z
_atom_type_partial_charge
C0 C 0.43423 0.97041 0.96435 0.0
C1 C 0.55545 0.97079 0.03224 0.0
O2 O 0.45209 0.93767 0.97523 0.0
Zn3 Zn 0.49476 0.96821 0.99836 0.0
O4 O 0.44735 0.00772 0.97152 0.0
Zn5 Zn 0.49483 0.03713 0.99814 0.0
O6 O 0.53722 0.06731 0.97469 0.0
O7 O 0.5419 0.9972 0.97143 0.0
O8 O 0.54235 0.00801 0.02487 0.0
O9 O 0.53746 0.93791 0.0216 0.0
O10 O 0.44782 0.99774 0.02521 0.0
O11 O 0.45262 0.06778 0.02148 0.0
C12 C 0.55497 0.03437 0.96398 0.0
C13 C 0.4349 0.03509 0.03245 0.0
C14 C 0.96737 0.55617 0.46244 0.0
C15 C 0.96825 0.45339 0.53449 0.0
O16 O 0.93111 0.53912 0.47275 0.0
Zn17 Zn 0.96489 0.50396 0.49808 0.0
O18 O 0.00858 0.54494 0.4701 0.0
Zn19 Zn 0.04114 0.50378 0.49769 0.0
O20 O 0.07403 0.46273 0.4757 0.0
O21 O 0.99642 0.45526 0.47493 0.0
O22 O 0.00927 0.46412 0.5263 0.0
O23 O 0.93168 0.46953 0.52394 0.0
O24 O -0.00192 0.5523 0.52105 0.0
O25 O 0.07566 0.54435 0.5192 0.0
C26 C 0.03756 0.44275 0.46795 0.0
C27 C 0.03964 0.56446 0.5275 0.0
O28 O 0.94412 0.96318 0.23046 0.0
Cd29 Cd 0.00366 0.96037 0.2533 0.0
Cd30 Cd 0.98877 0.04699 0.25351 0.0
O31 O 0.92634 0.03131 0.23496 0.0
O32 O 0.00782 0.89855 0.26178 0.0
O33 O 0.99582 0.94826 0.29157 0.0
C34 C -0.00044 0.9083 0.2857 0.0
C35 C 0.99084 0.09752 0.2868 0.0
C36 C 0.91666 0.99442 0.22611 0.0
C37 C 0.07754 0.01356 0.22784 0.0
O38 O 0.04982 0.04471 0.2319 0.0
O39 O 0.0673 0.97653 0.23623 0.0
O40 O 0.98514 0.10851 0.26285 0.0
O41 O 0.99304 0.05728 0.29215 0.0
O42 O 0.94222 0.04175 0.7654 0.0
Cd43 Cd 0.0026 0.04575 0.74331 0.0
Cd44 Cd 0.98795 0.95818 0.74278 0.0
O45 O 0.92515 0.97347 0.76102 0.0
O46 O 0.00716 0.1084 0.73767 0.0
O47 O 0.99665 0.06267 0.7055 0.0
C48 C 0.00013 0.10175 0.71326 0.0
C49 C 0.99084 0.90794 0.70936 0.0
C50 C 0.91497 0.01036 0.76967 0.0
C51 C 0.07602 0.99182 0.76907 0.0
O52 O 0.0486 0.96057 0.76473 0.0
O53 O 0.06571 0.0289 0.76078 0.0
O54 O 0.9848 0.89673 0.73324 0.0
O55 O 0.99295 0.94823 0.70414 0.0
C56 C 0.38349 0.07859 0.06255 0.0
C57 C 0.40099 0.03887 0.05425 0.0
C58 C 0.35215 0.08096 0.08363 0.0
C59 C 0.31251 0.01963 0.1411 0.0
H60 H 0.19633 0.08413 0.13467 0.0
C61 C 0.1489 0.98594 0.20427 0.0
C62 C 0.12051 0.02046 0.21197 0.0
C63 C 0.18704 0.99231 0.18745 0.0
C64 C 0.22897 0.06654 0.137 0.0
H65 H 0.39919 0.97057 0.0616 0.0
H66 H 0.34501 0.97483 0.09787 0.0
H67 H 0.25602 0.08904 0.10058 0.0
H68 H 0.1112 0.08908 0.20887 0.0
H69 H 0.17791 0.1001 0.17982 0.0
H70 H 0.28523 0.99643 0.17722 0.0
C71 C 0.35572 0.00418 0.08843 0.0
C72 C 0.26315 0.0694 0.11746 0.0
C73 C 0.38654 1.00177 0.06742 0.0
C74 C 0.13209 0.06167 0.20318 0.0
C75 C 0.1702 0.06803 0.1864 0.0
C76 C 0.27845 0.01683 0.16063 0.0
C77 C 0.33829 0.04371 0.09687 0.0
C78 C 0.30477 0.04518 0.11902 0.0
C79 C 0.19768 0.03335 0.17802 0.0
C80 C 0.23584 0.03952 0.15855 0.0
H81 H 0.394 0.10773 0.05283 0.0
H82 H 0.33923 0.1119 0.08977 0.0
H83 H 0.34467 1.00117 0.14305 0.0
H84 H 0.14094 0.95379 0.21063 0.0
H85 H 0.20718 0.96481 0.18114 0.0
C86 C 0.00643 0.4082 0.56829 0.0
C87 C 0.96504 0.42075 0.55527 0.0
C88 C 0.00564 0.37521 0.5864 0.0
C89 C 0.93935 0.27956 0.60566 0.0
H90 H 0.01993 0.28736 0.66646 0.0
C91 C 0.98978 0.13214 0.66829 0.0
C92 C 0.99392 0.13823 0.69527 0.0
C93 C 0.98258 0.16707 0.65172 0.0
C94 C 0.99675 0.28466 0.64979 0.0
H95 H 0.88997 0.40881 0.55148 0.0
H96 H 0.88845 0.3509 0.58365 0.0
H97 H 0.01119 0.34873 0.63815 0.0
H98 H 0.99269 0.18562 0.72605 0.0
H99 H 0.97929 0.24591 0.69744 0.0
H100 H 0.92442 0.21546 0.61768 0.0
C101 C 0.92164 0.36662 0.57949 0.0
C102 C 0.99215 0.31981 0.63336 0.0
C103 C 0.92241 0.39998 0.56126 0.0
C104 C 0.99029 0.1798 0.70532 0.0
C105 C 0.98272 0.2145 0.68886 0.0
C106 C 0.94378 0.24429 0.62224 0.0
C107 C 0.9634 0.35376 0.59216 0.0
C108 C 0.96404 0.31755 0.61087 0.0
C109 C 0.97908 0.20872 0.66183 0.0
C110 C 0.97294 0.2463 0.64439 0.0
H111 H 0.03997 0.42339 0.56421 0.0
H112 H 0.03861 0.36576 0.5954 0.0
H113 H 0.91769 0.27665 0.58839 0.0
H114 H 0.9923 0.10047 0.65996 0.0
H115 H 0.98052 0.16147 0.63097 0.0
C116 C 0.6083 0.92788 0.06191 0.0
C117 C 0.59004 0.9674 0.05374 0.0
C118 C 0.64048 0.92591 0.08262 0.0
C119 C 0.68146 0.9878 0.13956 0.0
H120 H 0.79817 0.92442 0.132 0.0
C121 C 0.84585 0.02217 0.20205 0.0
C122 C 0.87433 0.98767 0.20969 0.0
C123 C 0.80784 0.01583 0.18513 0.0
C124 C 0.76542 0.94172 0.13464 0.0
H125 H 0.59132 0.03574 0.06097 0.0
H126 H 0.64692 0.03217 0.09663 0.0
H127 H 0.73743 0.91897 0.09846 0.0
H128 H 0.88415 0.91915 0.2062 0.0
H129 H 0.81766 0.90818 0.17697 0.0
H130 H 0.7096 0.01118 0.17545 0.0
C131 C 0.63619 1.00268 0.08735 0.0
C132 C 0.73064 0.93855 0.11542 0.0
C133 C 0.60454 0.00469 0.06669 0.0
C134 C 0.86316 0.94654 0.20058 0.0
C135 C 0.82517 0.94022 0.1837 0.0
C136 C 0.71612 0.99091 0.15877 0.0
C137 C 0.65442 0.96336 0.09564 0.0
C138 C 0.68877 0.96231 0.11741 0.0
C139 C 0.79742 0.97484 0.17553 0.0
C140 C 0.7589 0.96861 0.15628 0.0
H141 H 0.59778 0.8986 0.05233 0.0
H142 H 0.654 0.89513 0.08866 0.0
H143 H 0.64914 0.00592 0.14184 0.0
H144 H 0.85351 0.05425 0.20866 0.0
H145 H 0.78748 0.04329 0.17897 0.0
C146 C 0.01735 0.63934 0.53647 0.0
C147 C 0.04425 0.60346 0.54323 0.0
C148 C 0.01644 0.67516 0.55254 0.0
C149 C 0.07244 0.72446 0.61143 0.0
H150 H 0.95203 0.78331 0.61504 0.0
C151 C 0.01332 0.83414 0.69607 0.0
C152 C -0.00207 0.87521 0.68903 0.0
C153 C 0.02212 0.80328 0.6771 0.0
C154 C 0.98596 0.76742 0.61402 0.0
H155 H 0.09211 0.57673 0.57164 0.0
H156 H 0.0888 0.63852 0.60071 0.0
H157 H 0.9622 0.72476 0.58454 0.0
H158 H 0.97923 0.91607 0.65662 0.0
H159 H 0.99285 0.86116 0.62334 0.0
H160 H 0.09473 0.76606 0.64226 0.0
C161 C 0.06955 0.63985 0.58254 0.0
C162 C 0.99209 0.73395 0.59641 0.0
C163 C 0.07143 0.60431 0.56599 0.0
C164 C 0.99101 0.88467 0.66259 0.0
C165 C -0.00122 0.85338 0.6436 0.0
C166 C 0.06589 0.75739 0.62947 0.0
C167 C 0.04122 0.6755 0.57627 0.0
C168 C 0.03545 0.71193 0.59478 0.0
C169 C 0.01476 0.81255 0.65073 0.0
C170 C 0.02259 0.7791 0.63089 0.0
H171 H 0.99647 0.63947 0.5188 0.0
H172 H 0.99556 0.70231 0.54645 0.0
H173 H 0.10657 0.70897 0.61056 0.0
H174 H 0.01933 0.82598 0.71628 0.0
H175 H 0.03404 0.77191 0.68305 0.0
C176 C 0.38518 0.00384 0.92969 0.0
C177 C 0.39996 0.96669 0.94271 0.0
C178 C 0.35411 1.00148 0.90877 0.0
C179 C 0.2616 0.9362 0.87974 0.0
H180 H 0.28326 0.00935 0.82003 0.0
C181 C 0.13046 0.94379 0.79394 0.0
C182 C 0.11882 0.98498 0.78511 0.0
C183 C 0.16851 0.9375 0.81079 0.0
C184 C 0.27658 0.98891 0.83661 0.0
H185 H 0.39325 0.8978 0.94399 0.0
H186 H 0.33806 0.89373 0.90722 0.0
H187 H 0.34279 0.00468 0.85417 0.0
H188 H 0.13903 0.05169 0.78653 0.0
H189 H 0.20513 0.04078 0.81614 0.0
H190 H 0.19479 0.92134 0.86254 0.0
C191 C 0.35091 0.92466 0.9134 0.0
C192 C 0.31071 0.98614 0.85612 0.0
C193 C 0.38249 0.92698 0.93438 0.0
C194 C 0.14704 0.01956 0.79291 0.0
C195 C 0.1851 0.01325 0.80979 0.0
C196 C 0.22736 0.93903 0.86021 0.0
C197 C 0.33676 0.96195 0.90028 0.0
C198 C 0.30313 0.96051 0.87817 0.0
C199 C 0.19586 0.97222 0.81922 0.0
C200 C 0.23406 0.96611 0.83868 0.0
H201 H 0.39777 0.03503 0.93553 0.0
H202 H 0.34318 0.03085 0.89942 0.0
H203 H 0.25461 0.91648 0.8966 0.0
H204 H 0.10969 0.91634 0.78819 0.0
H205 H 0.1763 0.90543 0.81738 0.0
C206 C 0.06977 0.40196 0.4299 0.0
C207 C 0.04126 0.40373 0.45214 0.0
C208 C 0.0678 0.36634 0.41341 0.0
C209 C 0.989 0.27347 0.39855 0.0
H210 H 0.09366 0.23882 0.35483 0.0
C211 C 0.98973 0.12131 0.33347 0.0
C212 C -0.00253 0.13044 0.30706 0.0
C213 C -0.00297 0.15281 0.35239 0.0
C214 C 0.06426 0.2482 0.36704 0.0
H215 H 0.99093 0.36911 0.47573 0.0
H216 H 0.9898 0.30612 0.44826 0.0
H217 H 0.10475 0.29628 0.38636 0.0
H218 H 0.01988 0.17926 0.2798 0.0
H219 H 0.03381 0.23367 0.31293 0.0
H220 H 0.94915 0.22436 0.37954 0.0
C221 C 0.01181 0.33269 0.44246 0.0
C222 C 0.07038 0.28136 0.38496 0.0
C223 C 0.01281 0.36862 0.45844 0.0
C224 C 0.01323 0.17137 0.29998 0.0
C225 C 0.02158 0.20242 0.3189 0.0
C226 C 0.98329 0.23975 0.38107 0.0
C227 C 0.03809 0.33145 0.41925 0.0
C228 C 0.03267 0.29482 0.40084 0.0
C229 C 0.01337 0.19348 0.34523 0.0
C230 C 0.02067 0.22715 0.36498 0.0
H231 H 0.09175 0.42888 0.42461 0.0
H232 H 0.08825 0.36702 0.39564 0.0
H233 H 0.9586 0.28337 0.40978 0.0
H234 H 0.97766 0.09003 0.33945 0.0
H235 H 0.99043 0.1453 0.37263 0.0
C236 C 0.60378 1.00026 0.92949 0.0
C237 C 0.58927 0.03765 0.94235 0.0
C238 C 0.63516 1.00215 0.90872 0.0
C239 C 0.7289 0.06643 0.88008 0.0
H240 H 0.70793 0.99273 0.82052 0.0
C241 C 0.86069 0.05819 0.79471 0.0
C242 C 0.87238 0.01701 0.78589 0.0
C243 C 0.82266 0.06446 0.81155 0.0
C244 C 0.71442 0.0133 0.83707 0.0
H245 H 0.5967 0.10649 0.94345 0.0
H246 H 0.65242 0.10974 0.90692 0.0
H247 H 0.64775 0.99811 0.85426 0.0
H248 H 0.85236 0.95026 0.78735 0.0
H249 H 0.78622 0.96115 0.81697 0.0
H250 H 0.79611 0.08078 0.86322 0.0
C251 C 0.63913 0.07899 0.91312 0.0
C252 C 0.67992 0.01649 0.85635 0.0
C253 C 0.60724 0.07713 0.93396 0.0
C254 C 0.8443 0.98238 0.79373 0.0
C255 C 0.80623 0.98868 0.81062 0.0
C256 C 0.76349 0.0632 0.86078 0.0
C257 C 0.6531 0.04144 0.90021 0.0
C258 C 0.68722 0.04236 0.87833 0.0
C259 C 0.79538 0.02973 0.81999 0.0
C260 C 0.75701 0.03595 0.83931 0.0
H261 H 0.59079 0.96923 0.93538 0.0
H262 H 0.64593 0.9726 0.89953 0.0
H263 H 0.73569 0.08631 0.8969 0.0
H264 H 0.88134 0.08568 0.78892 0.0
H265 H 0.81479 0.09655 0.81808 0.0
C266 C 0.91965 0.60769 0.43517 0.0
C267 C 0.96354 0.59153 0.44338 0.0
C268 C 0.91754 0.64365 0.4189 0.0
C269 C 0.98723 0.73819 0.401 0.0
H270 H 0.91506 0.73963 0.33695 0.0
C271 C 0.98506 0.88411 0.33165 0.0
C272 C 0.99212 0.87428 0.30527 0.0
C273 C 0.9762 0.85162 0.34971 0.0
C274 C 0.93526 0.73971 0.35484 0.0
H275 H 0.03956 0.59991 0.44027 0.0
H276 H 0.03563 0.66196 0.41234 0.0
H277 H 0.90882 0.67834 0.36632 0.0
H278 H 0.9952 0.82265 0.27716 0.0
H279 H 0.97998 0.7663 0.30858 0.0
H280 H 0.01474 0.79882 0.38931 0.0
C281 C 0.0029 0.64733 0.41862 0.0
C282 C 0.93134 0.70484 0.37172 0.0
C283 C 0.00505 0.61144 0.43451 0.0
C284 C 0.99006 0.83137 0.29734 0.0
C285 C 0.98083 0.79905 0.3153 0.0
C286 C 0.99082 0.77315 0.38428 0.0
C287 C 0.95925 0.66423 0.41092 0.0
C288 C 0.95824 0.70328 0.39463 0.0
C289 C 0.97374 0.80875 0.34168 0.0
C290 C 0.96575 0.77386 0.36073 0.0
H291 H 0.88706 0.59313 0.44167 0.0
H292 H 0.88339 0.65602 0.41313 0.0
H293 H 0.008 0.738 0.41869 0.0
H294 H 0.98621 0.91686 0.33834 0.0
H295 H 0.97075 0.86006 0.36992 0.0
loop_
_geom_bond_atom_site_label_1
_geom_bond_atom_site_label_2
_geom_bond_distance
_geom_bond_site_symmetry_2
_ccdc_geom_bond_type
C0 O2 1.245 1_545 S
C0 O4 1.260 . S
C1 O8 1.257 . S
C1 O9 1.248 1_545 S
O2 C0 1.245 1_565 S
O2 Zn3 2.028 1_556 S
Zn3 O2 2.028 1_554 S
Zn3 O7 2.035 1_554 S
Zn3 O9 2.035 . S
Zn3 O10 2.028 . S
O4 C0 1.260 . S
O4 Zn5 2.035 1_556 S
Zn5 O4 2.035 1_554 S
Zn5 O6 2.028 1_554 S
Zn5 O8 2.028 . S
Zn5 O11 2.035 . S
O6 Zn5 2.028 1_556 S
O6 C12 1.257 . S
O7 Zn3 2.035 1_556 S
O7 C12 1.248 1_565 S
O8 C1 1.257 . S
O8 Zn5 2.028 . S
O9 C1 1.248 1_565 S
O9 Zn3 2.035 . S
O10 Zn3 2.028 . S
O10 C13 1.245 1_565 S
O11 Zn5 2.035 . S
O11 C13 1.260 . S
C12 O6 1.257 . S
C12 O7 1.248 1_545 S
C13 O10 1.245 1_545 S
C13 O11 1.260 . S
C14 O16 1.246 . S
C14 O18 1.259 1_655 S
C15 O22 1.251 . S
C15 O23 1.254 1_455 S
O16 C14 1.246 . S
O16 Zn17 2.028 . S
Zn17 O16 2.028 . S
Zn17 O21 2.035 . S
Zn17 O23 2.035 . S
Zn17 O24 2.028 . S
O18 C14 1.259 1_455 S
O18 Zn19 2.035 . S
Zn19 O18 2.035 . S
Zn19 O20 2.028 . S
Zn19 O22 2.028 . S
Zn19 O25 2.035 . S
O20 Zn19 2.028 . S
O20 C26 1.251 . S
O21 Zn17 2.035 . S
O21 C26 1.254 1_655 S
O22 C15 1.251 . S
O22 Zn19 2.028 . S
O23 C15 1.254 1_655 S
O23 Zn17 2.035 . S
O24 Zn17 2.028 . S
O24 C27 1.246 . S
O25 Zn19 2.035 . S
O25 C27 1.259 1_455 S
C26 O20 1.251 . S
C26 O21 1.254 1_455 S
C27 O24 1.246 . S
C27 O25 1.259 1_655 S
O28 Cd29 2.223 1_655 S
O28 C36 1.315 . S
Cd29 O28 2.223 1_455 S
Cd29 O32 2.297 1_455 S
Cd29 O33 2.439 1_455 S
Cd29 O39 2.240 1_565 S
Cd30 O31 2.240 1_545 S
Cd30 O38 2.223 1_655 S
Cd30 O40 2.297 1_655 S
Cd30 O41 2.439 1_655 S
O31 Cd30 2.240 1_565 S
O31 C36 1.279 . S
O32 Cd29 2.297 1_655 S
O32 C34 1.247 . S
O33 Cd29 2.439 1_655 S
O33 C34 1.208 . S
C34 O32 1.247 . S
C34 O33 1.208 . S
C35 O40 1.247 . S
C35 O41 1.208 . S
C36 O28 1.315 . S
C36 O31 1.279 . S
C37 O38 1.315 . S
C37 O39 1.279 . S
O38 Cd30 2.223 1_455 S
O38 C37 1.315 . S
O39 Cd29 2.240 1_545 S
O39 C37 1.279 . S
O40 Cd30 2.297 1_455 S
O40 C35 1.247 . S
O41 Cd30 2.439 1_455 S
O41 C35 1.208 . S
O42 Cd43 2.223 1_655 S
O42 C50 1.315 . S
Cd43 O42 2.223 1_455 S
Cd43 O46 2.297 1_455 S
Cd43 O47 2.439 1_455 S
Cd43 O53 2.240 1_545 S
Cd44 O45 2.240 1_565 S
Cd44 O52 2.223 1_655 S
Cd44 O54 2.297 1_655 S
Cd44 O55 2.439 1_655 S
O45 Cd44 2.240 1_545 S
O45 C50 1.279 . S
O46 Cd43 2.297 1_655 S
O46 C48 1.247 . S
O47 Cd43 2.439 1_655 S
O47 C48 1.208 . S
C48 O46 1.247 . S
C48 O47 1.208 . S
C49 O54 1.247 . S
C49 O55 1.208 . S
C50 O42 1.315 . S
C50 O45 1.279 . S
C51 O52 1.315 . S
C51 O53 1.279 . S
O52 Cd44 2.223 1_455 S
O52 C51 1.315 . S
O53 Cd43 2.240 1_565 S
O53 C51 1.279 . S
O54 Cd44 2.297 1_455 S
O54 C49 1.247 . S
O55 Cd44 2.439 1_455 S
O55 C49 1.208 . S
C56 C57 1.349 . S
C56 C58 1.327 . S
C56 H81 0.950 . S
C57 C56 1.349 . S
C57 C73 1.349 1_545 S
C58 C56 1.327 . S
C58 C77 1.429 . S
C58 H82 0.950 . S
C59 C76 1.574 . S
C59 C78 1.368 1_565 S
C59 H83 0.949 . S
H60 C64 0.949 . S
C61 C62 1.349 1_565 S
C61 C63 1.327 . S
C61 H84 0.950 . S
C62 C61 1.349 1_545 S
C62 C74 1.349 . S
C63 C61 1.327 . S
C63 C79 1.429 1_565 S
C63 H85 0.950 . S
C64 H60 0.949 . S
C64 C72 1.574 . S
C64 C80 1.368 . S
H65 C73 0.950 . S
H66 C71 0.950 . S
H67 C72 0.949 . S
H68 C74 0.950 . S
H69 C75 0.950 . S
H70 C76 0.949 . S
C71 H66 0.950 . S
C71 C73 1.327 . S
C71 C77 1.429 1_565 S
C72 C64 1.574 . S
C72 H67 0.949 . S
C72 C78 1.368 . S
C73 C57 1.349 1_565 S
C73 H65 0.950 . S
C73 C71 1.327 . S
C74 C62 1.349 . S
C74 H68 0.950 . S
C74 C75 1.327 . S
C75 H69 0.950 . S
C75 C74 1.327 . S
C75 C79 1.429 . S
C76 C59 1.574 . S
C76 H70 0.949 . S
C76 C80 1.368 1_565 S
C77 C58 1.429 . S
C77 C71 1.429 1_545 S
C77 C78 1.523 . S
C78 C59 1.368 1_545 S
C78 C72 1.368 . S
C78 C77 1.523 . S
C79 C63 1.429 1_545 S
C79 C75 1.429 . S
C79 C80 1.523 . S
C80 C64 1.368 . S
C80 C76 1.368 1_545 S
C80 C79 1.523 . S
H81 C56 0.950 . S
H82 C58 0.950 . S
H83 C59 0.949 . S
H84 C61 0.950 . S
H85 C63 0.950 . S
C86 C87 1.349 1_455 S
C86 C88 1.327 . S
C86 H111 0.950 . S
C87 C86 1.349 1_655 S
C87 C103 1.349 . S
C88 C86 1.327 . S
C88 C107 1.429 1_455 S
C88 H112 0.950 . S
C89 C106 1.574 . S
C89 C108 1.368 . S
C89 H113 0.949 . S
H90 C94 0.949 . S
C91 C92 1.349 . S
C91 C93 1.327 . S
C91 H114 0.950 . S
C92 C91 1.349 . S
C92 C104 1.349 . S
C93 C91 1.327 . S
C93 C109 1.429 . S
C93 H115 0.950 . S
C94 H90 0.949 . S
C94 C102 1.574 . S
C94 C110 1.368 1_455 S
H95 C103 0.950 . S
H96 C101 0.950 . S
H97 C102 0.949 . S
H98 C104 0.950 1_455 S
H99 C105 0.950 1_455 S
H100 C106 0.949 . S
C101 H96 0.950 . S
C101 C103 1.327 . S
C101 C107 1.429 . S
C102 C94 1.574 . S
C102 H97 0.949 . S
C102 C108 1.368 1_455 S
C103 C87 1.349 . S
C103 H95 0.950 . S
C103 C101 1.327 . S
C104 C92 1.349 . S
C104 H98 0.950 1_655 S
C104 C105 1.327 . S
C105 H99 0.950 1_655 S
C105 C104 1.327 . S
C105 C109 1.429 . S
C106 C89 1.574 . S
C106 H100 0.949 . S
C106 C110 1.368 . S
C107 C88 1.429 1_655 S
C107 C101 1.429 . S
C107 C108 1.523 . S
C108 C89 1.368 . S
C108 C102 1.368 1_655 S
C108 C107 1.523 . S
C109 C93 1.429 . S
C109 C105 1.429 . S
C109 C110 1.523 . S
C110 C94 1.368 1_655 S
C110 C106 1.368 . S
C110 C109 1.523 . S
H111 C86 0.950 . S
H112 C88 0.950 . S
H113 C89 0.949 . S
H114 C91 0.950 . S
H115 C93 0.950 . S
C116 C117 1.349 . S
C116 C118 1.327 . S
C116 H141 0.950 . S
C117 C116 1.349 . S
C117 C133 1.349 1_565 S
C118 C116 1.327 . S
C118 C137 1.429 . S
C118 H142 0.950 . S
C119 C136 1.574 . S
C119 C138 1.368 1_545 S
C119 H143 0.949 . S
H120 C124 0.949 . S
C121 C122 1.349 1_545 S
C121 C123 1.327 . S
C121 H144 0.950 . S
C122 C121 1.349 1_565 S
C122 C134 1.349 . S
C123 C121 1.327 . S
C123 C139 1.429 1_545 S
C123 H145 0.950 . S
C124 H120 0.949 . S
C124 C132 1.574 . S
C124 C140 1.368 . S
H125 C133 0.950 . S
H126 C131 0.950 . S
H127 C132 0.949 . S
H128 C134 0.950 . S
H129 C135 0.950 . S
H130 C136 0.949 . S
C131 H126 0.950 . S
C131 C133 1.327 . S
C131 C137 1.429 1_545 S
C132 C124 1.574 . S
C132 H127 0.949 . S
C132 C138 1.368 . S
C133 C117 1.349 1_545 S
C133 H125 0.950 . S
C133 C131 1.327 . S
C134 C122 1.349 . S
C134 H128 0.950 . S
C134 C135 1.327 . S
C135 H129 0.950 . S
C135 C134 1.327 . S
C135 C139 1.429 . S
C136 C119 1.574 . S
C136 H130 0.949 . S
C136 C140 1.368 1_545 S
C137 C118 1.429 . S
C137 C131 1.429 1_565 S
C137 C138 1.523 . S
C138 C119 1.368 1_565 S
C138 C132 1.368 . S
C138 C137 1.523 . S
C139 C123 1.429 1_565 S
C139 C135 1.429 . S
C139 C140 1.523 . S
C140 C124 1.368 . S
C140 C136 1.368 1_565 S
C140 C139 1.523 . S
H141 C116 0.950 . S
H142 C118 0.950 . S
H143 C119 0.949 . S
H144 C121 0.950 . S
H145 C123 0.950 . S
C146 C147 1.349 1_655 S
C146 C148 1.327 . S
C146 H171 0.950 . S
C147 C146 1.349 1_455 S
C147 C163 1.349 . S
C148 C146 1.327 . S
C148 C167 1.429 1_655 S
C148 H172 0.950 . S
C149 C166 1.574 . S
C149 C168 1.368 . S
C149 H173 0.949 . S
H150 C154 0.949 . S
C151 C152 1.349 . S
C151 C153 1.327 . S
C151 H174 0.950 . S
C152 C151 1.349 . S
C152 C164 1.349 1_455 S
C153 C151 1.327 . S
C153 C169 1.429 . S
C153 H175 0.950 . S
C154 H150 0.949 . S
C154 C162 1.574 . S
C154 C170 1.368 1_655 S
H155 C163 0.950 . S
H156 C161 0.950 . S
H157 C162 0.949 . S
H158 C164 0.950 . S
H159 C165 0.950 . S
H160 C166 0.949 . S
C161 H156 0.950 . S
C161 C163 1.327 . S
C161 C167 1.429 . S
C162 C154 1.574 . S
C162 H157 0.949 . S
C162 C168 1.368 1_655 S
C163 C147 1.349 . S
C163 H155 0.950 . S
C163 C161 1.327 . S
C164 C152 1.349 1_655 S
C164 H158 0.950 . S
C164 C165 1.327 . S
C165 H159 0.950 . S
C165 C164 1.327 . S
C165 C169 1.429 1_655 S
C166 C149 1.574 . S
C166 H160 0.949 . S
C166 C170 1.368 . S
C167 C148 1.429 1_455 S
C167 C161 1.429 . S
C167 C168 1.523 . S
C168 C149 1.368 . S
C168 C162 1.368 1_455 S
C168 C167 1.523 . S
C169 C153 1.429 . S
C169 C165 1.429 1_455 S
C169 C170 1.523 . S
C170 C154 1.368 1_455 S
C170 C166 1.368 . S
C170 C169 1.523 . S
H171 C146 0.950 . S
H172 C148 0.950 . S
H173 C149 0.949 . S
H174 C151 0.950 . S
H175 C153 0.950 . S
C176 C177 1.349 1_545 S
C176 C178 1.327 . S
C176 H201 0.950 . S
C177 C176 1.349 1_565 S
C177 C193 1.349 . S
C178 C176 1.327 . S
C178 C197 1.429 1_545 S
C178 H202 0.950 . S
C179 C196 1.574 . S
C179 C198 1.368 . S
C179 H203 0.949 . S
H180 C184 0.949 . S
C181 C182 1.349 . S
C181 C183 1.327 . S
C181 H204 0.950 . S
C182 C181 1.349 . S
C182 C194 1.349 1_565 S
C183 C181 1.327 . S
C183 C199 1.429 . S
C183 H205 0.950 . S
C184 H180 0.949 . S
C184 C192 1.574 . S
C184 C200 1.368 1_545 S
H185 C193 0.950 . S
H186 C191 0.950 . S
H187 C192 0.949 . S
H188 C194 0.950 . S
H189 C195 0.950 . S
H190 C196 0.949 . S
C191 H186 0.950 . S
C191 C193 1.327 . S
C191 C197 1.429 . S
C192 C184 1.574 . S
C192 H187 0.949 . S
C192 C198 1.368 1_545 S
C193 C177 1.349 . S
C193 H185 0.950 . S
C193 C191 1.327 . S
C194 C182 1.349 1_545 S
C194 H188 0.950 . S
C194 C195 1.327 . S
C195 H189 0.950 . S
C195 C194 1.327 . S
C195 C199 1.429 1_545 S
C196 C179 1.574 . S
C196 H190 0.949 . S
C196 C200 1.368 . S
C197 C178 1.429 1_565 S
C197 C191 1.429 . S
C197 C198 1.523 . S
C198 C179 1.368 . S
C198 C192 1.368 1_565 S
C198 C197 1.523 . S
C199 C183 1.429 . S
C199 C195 1.429 1_565 S
C199 C200 1.523 . S
C200 C184 1.368 1_565 S
C200 C196 1.368 . S
C200 C199 1.523 . S
H201 C176 0.950 . S
H202 C178 0.950 . S
H203 C179 0.949 . S
H204 C181 0.950 . S
H205 C183 0.950 . S
C206 C207 1.349 . S
C206 C208 1.327 . S
C206 H231 0.950 . S
C207 C206 1.349 . S
C207 C223 1.349 1_455 S
C208 C206 1.327 . S
C208 C227 1.429 . S
C208 H232 0.950 . S
C209 C226 1.574 . S
C209 C228 1.368 1_655 S
C209 H233 0.949 . S
H210 C214 0.949 . S
C211 C212 1.349 1_655 S
C211 C213 1.327 . S
C211 H234 0.950 . S
C212 C211 1.349 1_455 S
C212 C224 1.349 . S
C213 C211 1.327 . S
C213 C229 1.429 1_655 S
C213 H235 0.950 . S
C214 H210 0.949 . S
C214 C222 1.574 . S
C214 C230 1.368 . S
H215 C223 0.950 . S
H216 C221 0.950 . S
H217 C222 0.949 . S
H218 C224 0.950 . S
H219 C225 0.950 . S
H220 C226 0.949 . S
C221 H216 0.950 . S
C221 C223 1.327 . S
C221 C227 1.429 1_655 S
C222 C214 1.574 . S
C222 H217 0.949 . S
C222 C228 1.368 . S
C223 C207 1.349 1_655 S
C223 H215 0.950 . S
C223 C221 1.327 . S
C224 C212 1.349 . S
C224 H218 0.950 . S
C224 C225 1.327 . S
C225 H219 0.950 . S
C225 C224 1.327 . S
C225 C229 1.429 . S
C226 C209 1.574 . S
C226 H220 0.949 . S
C226 C230 1.368 1_655 S
C227 C208 1.429 . S
C227 C221 1.429 1_455 S
C227 C228 1.523 . S
C228 C209 1.368 1_455 S
C228 C222 1.368 . S
C228 C227 1.523 . S
C229 C213 1.429 1_455 S
C229 C225 1.429 . S
C229 C230 1.523 . S
C230 C214 1.368 . S
C230 C226 1.368 1_455 S
C230 C229 1.523 . S
H231 C206 0.950 . S
H232 C208 0.950 . S
H233 C209 0.949 . S
H234 C211 0.950 . S
H235 C213 0.950 . S
C236 C237 1.349 1_565 S
C236 C238 1.327 . S
C236 H261 0.950 . S
C237 C236 1.349 1_545 S
C237 C253 1.349 . S
C238 C236 1.327 . S
C238 C257 1.429 1_565 S
C238 H262 0.950 . S
C239 C256 1.574 . S
C239 C258 1.368 . S
C239 H263 0.949 . S
H240 C244 0.949 . S
C241 C242 1.349 . S
C241 C243 1.327 . S
C241 H264 0.950 . S
C242 C241 1.349 . S
C242 C254 1.349 1_545 S
C243 C241 1.327 . S
C243 C259 1.429 . S
C243 H265 0.950 . S
C244 H240 0.949 . S
C244 C252 1.574 . S
C244 C260 1.368 1_565 S
H245 C253 0.950 . S
H246 C251 0.950 . S
H247 C252 0.949 . S
H248 C254 0.950 . S
H249 C255 0.950 . S
H250 C256 0.949 . S
C251 H246 0.950 . S
C251 C253 1.327 . S
C251 C257 1.429 . S
C252 C244 1.574 . S
C252 H247 0.949 . S
C252 C258 1.368 1_565 S
C253 C237 1.349 . S
C253 H245 0.950 . S
C253 C251 1.327 . S
C254 C242 1.349 1_565 S
C254 H248 0.950 . S
C254 C255 1.327 . S
C255 H249 0.950 . S
C255 C254 1.327 . S
C255 C259 1.429 1_565 S
C256 C239 1.574 . S
C256 H250 0.949 . S
C256 C260 1.368 . S
C257 C238 1.429 1_545 S
C257 C251 1.429 . S
C257 C258 1.523 . S
C258 C239 1.368 . S
C258 C252 1.368 1_545 S
C258 C257 1.523 . S
C259 C243 1.429 . S
C259 C255 1.429 1_545 S
C259 C260 1.523 . S
C260 C244 1.368 1_545 S
C260 C256 1.368 . S
C260 C259 1.523 . S
H261 C236 0.950 . S
H262 C238 0.950 . S
H263 C239 0.949 . S
H264 C241 0.950 . S
H265 C243 0.950 . S
C266 C267 1.349 . S
C266 C268 1.327 . S
C266 H291 0.950 . S
C267 C266 1.349 . S
C267 C283 1.349 1_655 S
C268 C266 1.327 . S
C268 C287 1.429 . S
C268 H292 0.950 . S
C269 C286 1.574 . S
C269 C288 1.368 1_455 S
C269 H293 0.949 . S
H270 C274 0.949 . S
C271 C272 1.349 . S
C271 C273 1.327 . S
C271 H294 0.950 1_655 S
C272 C271 1.349 . S
C272 C284 1.349 . S
C273 C271 1.327 . S
C273 C289 1.429 . S
C273 H295 0.950 1_655 S
C274 H270 0.949 . S
C274 C282 1.574 . S
C274 C290 1.368 . S
H275 C283 0.950 . S
H276 C281 0.950 . S
H277 C282 0.949 . S
H278 C284 0.950 . S
H279 C285 0.950 . S
H280 C286 0.949 . S
C281 H276 0.950 . S
C281 C283 1.327 . S
C281 C287 1.429 1_455 S
C282 C274 1.574 . S
C282 H277 0.949 . S
C282 C288 1.368 . S
C283 C267 1.349 1_455 S
C283 H275 0.950 . S
C283 C281 1.327 . S
C284 C272 1.349 . S
C284 H278 0.950 . S
C284 C285 1.327 . S
C285 H279 0.950 . S
C285 C284 1.327 . S
C285 C289 1.429 . S
C286 C269 1.574 . S
C286 H280 0.949 . S
C286 C290 1.368 1_455 S
C287 C268 1.429 . S
C287 C281 1.429 1_655 S
C287 C288 1.523 . S
C288 C269 1.368 1_655 S
C288 C282 1.368 . S
C288 C287 1.523 . S
C289 C273 1.429 . S
C289 C285 1.429 . S
C289 C290 1.523 . S
C290 C274 1.368 . S
C290 C286 1.368 1_655 S
C290 C289 1.523 . S
H291 C266 0.950 . S
H292 C268 0.950 . S
H293 C269 0.949 . S
H294 C271 0.950 1_455 S
H295 C273 0.950 1_455 S
C62 C37 1.544 . S
C57 C13 1.538 . S
C92 C48 1.501 . S
C87 C15 1.555 1_655 S
C122 C36 1.544 . S
C117 C1 1.541 1_565 S
C152 C49 1.501 . S
C147 C27 1.555 1_455 S
C182 C51 1.544 . S
C177 C0 1.544 1_565 S
C212 C35 1.501 . S
C207 C26 1.555 . S
C242 C50 1.544 . S
C237 C12 1.548 . S
C267 C14 1.555 . S
C272 C34 1.501 . S
