# Generated by pormake.
# Topology gar, (4,6)-cn, num edge types: 1
# Building blocks:
#     Node 0, Type 0, BuildingBlock: KUFVIS_clean_sbu_0, # of connection points: 4
#     Node 1, Type 0, BuildingBlock: KUFVIS_clean_sbu_0, # of connection points: 4
#     Node 2, Type 0, BuildingBlock: KUFVIS_clean_sbu_0, # of connection points: 4
#     Node 3, Type 0, BuildingBlock: KUFVIS_clean_sbu_0, # of connection points: 4
#     Node 4, Type 0, BuildingBlock: KUFVIS_clean_sbu_0, # of connection points: 4
#     Node 5, Type 0, BuildingBlock: KUFVIS_clean_sbu_0, # of connection points: 4
#     Node 6, Type 0, BuildingBlock: KUFVIS_clean_sbu_0, # of connection points: 4
#     Node 7, Type 0, BuildingBlock: KUFVIS_clean_sbu_0, # of connection points: 4
#     Node 8, Type 0, BuildingBlock: KUFVIS_clean_sbu_0, # of connection points: 4
#     Node 9, Type 0, BuildingBlock: KUFVIS_clean_sbu_0, # of connection points: 4
#     Node 10, Type 0, BuildingBlock: KUFVIS_clean_sbu_0, # of connection points: 4
#     Node 11, Type 0, BuildingBlock: KUFVIS_clean_sbu_0, # of connection points: 4
#     Node 12, Type 0, BuildingBlock: KUFVIS_clean_sbu_0, # of connection points: 4
#     Node 13, Type 0, BuildingBlock: KUFVIS_clean_sbu_0, # of connection points: 4
#     Node 14, Type 0, BuildingBlock: KUFVIS_clean_sbu_0, # of connection points: 4
#     Node 15, Type 0, BuildingBlock: KUFVIS_clean_sbu_0, # of connection points: 4
#     Node 16, Type 0, BuildingBlock: KUFVIS_clean_sbu_0, # of connection points: 4
#     Node 17, Type 0, BuildingBlock: KUFVIS_clean_sbu_0, # of connection points: 4
#     Node 18, Type 0, BuildingBlock: KUFVIS_clean_sbu_0, # of connection points: 4
#     Node 19, Type 0, BuildingBlock: KUFVIS_clean_sbu_0, # of connection points: 4
#     Node 20, Type 0, BuildingBlock: KUFVIS_clean_sbu_0, # of connection points: 4
#     Node 21, Type 0, BuildingBlock: KUFVIS_clean_sbu_0, # of connection points: 4
#     Node 22, Type 0, BuildingBlock: KUFVIS_clean_sbu_0, # of connection points: 4
#     Node 23, Type 0, BuildingBlock: KUFVIS_clean_sbu_0, # of connection points: 4
#     Node 24, Type 1, BuildingBlock: KUMBUR_clean_sbu_0, # of connection points: 6
#     Node 25, Type 1, BuildingBlock: KUMBUR_clean_sbu_0, # of connection points: 6
#     Node 26, Type 1, BuildingBlock: KUMBUR_clean_sbu_0, # of connection points: 6
#     Node 27, Type 1, BuildingBlock: KUMBUR_clean_sbu_0, # of connection points: 6
#     Node 28, Type 1, BuildingBlock: KUMBUR_clean_sbu_0, # of connection points: 6
#     Node 29, Type 1, BuildingBlock: KUMBUR_clean_sbu_0, # of connection points: 6
#     Node 30, Type 1, BuildingBlock: KUMBUR_clean_sbu_0, # of connection points: 6
#     Node 31, Type 1, BuildingBlock: KUMBUR_clean_sbu_0, # of connection points: 6
#     Node 32, Type 1, BuildingBlock: KUMBUR_clean_sbu_0, # of connection points: 6
#     Node 33, Type 1, BuildingBlock: KUMBUR_clean_sbu_0, # of connection points: 6
#     Node 34, Type 1, BuildingBlock: KUMBUR_clean_sbu_0, # of connection points: 6
#     Node 35, Type 1, BuildingBlock: KUMBUR_clean_sbu_0, # of connection points: 6
#     Node 36, Type 1, BuildingBlock: KUMBUR_clean_sbu_0, # of connection points: 6
#     Node 37, Type 1, BuildingBlock: KUMBUR_clean_sbu_0, # of connection points: 6
#     Node 38, Type 1, BuildingBlock: KUMBUR_clean_sbu_0, # of connection points: 6
#     Node 39, Type 1, BuildingBlock: KUMBUR_clean_sbu_0, # of connection points: 6
#     Edge 40, Type (0, 1), BuildingBlock: ZUJKAS_clean_linker_0, # of connection points: 2
#     Edge 41, Type (0, 1), BuildingBlock: ZUJKAS_clean_linker_0, # of connection points: 2
#     Edge 42, Type (0, 1), BuildingBlock: ZUJKAS_clean_linker_0, # of connection points: 2
#     Edge 43, Type (0, 1), BuildingBlock: ZUJKAS_clean_linker_0, # of connection points: 2
#     Edge 44, Type (0, 1), BuildingBlock: ZUJKAS_clean_linker_0, # of connection points: 2
#     Edge 45, Type (0, 1), BuildingBlock: ZUJKAS_clean_linker_0, # of connection points: 2
#     Edge 46, Type (0, 1), BuildingBlock: ZUJKAS_clean_linker_0, # of connection points: 2
#     Edge 47, Type (0, 1), BuildingBlock: ZUJKAS_clean_linker_0, # of connection points: 2
#     Edge 48, Type (0, 1), BuildingBlock: ZUJKAS_clean_linker_0, # of connection points: 2
#     Edge 49, Type (0, 1), BuildingBlock: ZUJKAS_clean_linker_0, # of connection points: 2
#     Edge 50, Type (0, 1), BuildingBlock: ZUJKAS_clean_linker_0, # of connection points: 2
#     Edge 51, Type (0, 1), BuildingBlock: ZUJKAS_clean_linker_0, # of connection points: 2
#     Edge 52, Type (0, 1), BuildingBlock: ZUJKAS_clean_linker_0, # of connection points: 2
#     Edge 53, Type (0, 1), BuildingBlock: ZUJKAS_clean_linker_0, # of connection points: 2
#     Edge 54, Type (0, 1), BuildingBlock: ZUJKAS_clean_linker_0, # of connection points: 2
#     Edge 55, Type (0, 1), BuildingBlock: ZUJKAS_clean_linker_0, # of connection points: 2
#     Edge 56, Type (0, 1), BuildingBlock: ZUJKAS_clean_linker_0, # of connection points: 2
#     Edge 57, Type (0, 1), BuildingBlock: ZUJKAS_clean_linker_0, # of connection points: 2
#     Edge 58, Type (0, 1), BuildingBlock: ZUJKAS_clean_linker_0, # of connection points: 2
#     Edge 59, Type (0, 1), BuildingBlock: ZUJKAS_clean_linker_0, # of connection points: 2
#     Edge 60, Type (0, 1), BuildingBlock: ZUJKAS_clean_linker_0, # of connection points: 2
#     Edge 61, Type (0, 1), BuildingBlock: ZUJKAS_clean_linker_0, # of connection points: 2
#     Edge 62, Type (0, 1), BuildingBlock: ZUJKAS_clean_linker_0, # of connection points: 2
#     Edge 63, Type (0, 1), BuildingBlock: ZUJKAS_clean_linker_0, # of connection points: 2
#     Edge 64, Type (0, 1), BuildingBlock: ZUJKAS_clean_linker_0, # of connection points: 2
#     Edge 65, Type (0, 1), BuildingBlock: ZUJKAS_clean_linker_0, # of connection points: 2
#     Edge 66, Type (0, 1), BuildingBlock: ZUJKAS_clean_linker_0, # of connection points: 2
#     Edge 67, Type (0, 1), BuildingBlock: ZUJKAS_clean_linker_0, # of connection points: 2
#     Edge 68, Type (0, 1), BuildingBlock: ZUJKAS_clean_linker_0, # of connection points: 2
#     Edge 69, Type (0, 1), BuildingBlock: ZUJKAS_clean_linker_0, # of connection points: 2
#     Edge 70, Type (0, 1), BuildingBlock: ZUJKAS_clean_linker_0, # of connection points: 2
#     Edge 71, Type (0, 1), BuildingBlock: ZUJKAS_clean_linker_0, # of connection points: 2
#     Edge 72, Type (0, 1), BuildingBlock: ZUJKAS_clean_linker_0, # of connection points: 2
#     Edge 73, Type (0, 1), BuildingBlock: ZUJKAS_clean_linker_0, # of connection points: 2
#     Edge 74, Type (0, 1), BuildingBlock: ZUJKAS_clean_linker_0, # of connection points: 2
#     Edge 75, Type (0, 1), BuildingBlock: ZUJKAS_clean_linker_0, # of connection points: 2
#     Edge 76, Type (0, 1), BuildingBlock: ZUJKAS_clean_linker_0, # of connection points: 2
#     Edge 77, Type (0, 1), BuildingBlock: ZUJKAS_clean_linker_0, # of connection points: 2
#     Edge 78, Type (0, 1), BuildingBlock: ZUJKAS_clean_linker_0, # of connection points: 2
#     Edge 79, Type (0, 1), BuildingBlock: ZUJKAS_clean_linker_0, # of connection points: 2
#     Edge 80, Type (0, 1), BuildingBlock: ZUJKAS_clean_linker_0, # of connection points: 2
#     Edge 81, Type (0, 1), BuildingBlock: ZUJKAS_clean_linker_0, # of connection points: 2
#     Edge 82, Type (0, 1), BuildingBlock: ZUJKAS_clean_linker_0, # of connection points: 2
#     Edge 83, Type (0, 1), BuildingBlock: ZUJKAS_clean_linker_0, # of connection points: 2
#     Edge 84, Type (0, 1), BuildingBlock: ZUJKAS_clean_linker_0, # of connection points: 2
#     Edge 85, Type (0, 1), BuildingBlock: ZUJKAS_clean_linker_0, # of connection points: 2
#     Edge 86, Type (0, 1), BuildingBlock: ZUJKAS_clean_linker_0, # of connection points: 2
#     Edge 87, Type (0, 1), BuildingBlock: ZUJKAS_clean_linker_0, # of connection points: 2
#     Edge 88, Type (0, 1), BuildingBlock: ZUJKAS_clean_linker_0, # of connection points: 2
#     Edge 89, Type (0, 1), BuildingBlock: ZUJKAS_clean_linker_0, # of connection points: 2
#     Edge 90, Type (0, 1), BuildingBlock: ZUJKAS_clean_linker_0, # of connection points: 2
#     Edge 91, Type (0, 1), BuildingBlock: ZUJKAS_clean_linker_0, # of connection points: 2
#     Edge 92, Type (0, 1), BuildingBlock: ZUJKAS_clean_linker_0, # of connection points: 2
#     Edge 93, Type (0, 1), BuildingBlock: ZUJKAS_clean_linker_0, # of connection points: 2
#     Edge 94, Type (0, 1), BuildingBlock: ZUJKAS_clean_linker_0, # of connection points: 2
#     Edge 95, Type (0, 1), BuildingBlock: ZUJKAS_clean_linker_0, # of connection points: 2
#     Edge 96, Type (0, 1), BuildingBlock: ZUJKAS_clean_linker_0, # of connection points: 2
#     Edge 97, Type (0, 1), BuildingBlock: ZUJKAS_clean_linker_0, # of connection points: 2
#     Edge 98, Type (0, 1), BuildingBlock: ZUJKAS_clean_linker_0, # of connection points: 2
#     Edge 99, Type (0, 1), BuildingBlock: ZUJKAS_clean_linker_0, # of connection points: 2
#     Edge 100, Type (0, 1), BuildingBlock: ZUJKAS_clean_linker_0, # of connection points: 2
#     Edge 101, Type (0, 1), BuildingBlock: ZUJKAS_clean_linker_0, # of connection points: 2
#     Edge 102, Type (0, 1), BuildingBlock: ZUJKAS_clean_linker_0, # of connection points: 2
#     Edge 103, Type (0, 1), BuildingBlock: ZUJKAS_clean_linker_0, # of connection points: 2
#     Edge 104, Type (0, 1), BuildingBlock: ZUJKAS_clean_linker_0, # of connection points: 2
#     Edge 105, Type (0, 1), BuildingBlock: ZUJKAS_clean_linker_0, # of connection points: 2
#     Edge 106, Type (0, 1), BuildingBlock: ZUJKAS_clean_linker_0, # of connection points: 2
#     Edge 107, Type (0, 1), BuildingBlock: ZUJKAS_clean_linker_0, # of connection points: 2
#     Edge 108, Type (0, 1), BuildingBlock: ZUJKAS_clean_linker_0, # of connection points: 2
#     Edge 109, Type (0, 1), BuildingBlock: ZUJKAS_clean_linker_0, # of connection points: 2
#     Edge 110, Type (0, 1), BuildingBlock: ZUJKAS_clean_linker_0, # of connection points: 2
#     Edge 111, Type (0, 1), BuildingBlock: ZUJKAS_clean_linker_0, # of connection points: 2
#     Edge 112, Type (0, 1), BuildingBlock: ZUJKAS_clean_linker_0, # of connection points: 2
#     Edge 113, Type (0, 1), BuildingBlock: ZUJKAS_clean_linker_0, # of connection points: 2
#     Edge 114, Type (0, 1), BuildingBlock: ZUJKAS_clean_linker_0, # of connection points: 2
#     Edge 115, Type (0, 1), BuildingBlock: ZUJKAS_clean_linker_0, # of connection points: 2
#     Edge 116, Type (0, 1), BuildingBlock: ZUJKAS_clean_linker_0, # of connection points: 2
#     Edge 117, Type (0, 1), BuildingBlock: ZUJKAS_clean_linker_0, # of connection points: 2
#     Edge 118, Type (0, 1), BuildingBlock: ZUJKAS_clean_linker_0, # of connection points: 2
#     Edge 119, Type (0, 1), BuildingBlock: ZUJKAS_clean_linker_0, # of connection points: 2
#     Edge 120, Type (0, 1), BuildingBlock: ZUJKAS_clean_linker_0, # of connection points: 2
#     Edge 121, Type (0, 1), BuildingBlock: ZUJKAS_clean_linker_0, # of connection points: 2
#     Edge 122, Type (0, 1), BuildingBlock: ZUJKAS_clean_linker_0, # of connection points: 2
#     Edge 123, Type (0, 1), BuildingBlock: ZUJKAS_clean_linker_0, # of connection points: 2
#     Edge 124, Type (0, 1), BuildingBlock: ZUJKAS_clean_linker_0, # of connection points: 2
#     Edge 125, Type (0, 1), BuildingBlock: ZUJKAS_clean_linker_0, # of connection points: 2
#     Edge 126, Type (0, 1), BuildingBlock: ZUJKAS_clean_linker_0, # of connection points: 2
#     Edge 127, Type (0, 1), BuildingBlock: ZUJKAS_clean_linker_0, # of connection points: 2
#     Edge 128, Type (0, 1), BuildingBlock: ZUJKAS_clean_linker_0, # of connection points: 2
#     Edge 129, Type (0, 1), BuildingBlock: ZUJKAS_clean_linker_0, # of connection points: 2
#     Edge 130, Type (0, 1), BuildingBlock: ZUJKAS_clean_linker_0, # of connection points: 2
#     Edge 131, Type (0, 1), BuildingBlock: ZUJKAS_clean_linker_0, # of connection points: 2
#     Edge 132, Type (0, 1), BuildingBlock: ZUJKAS_clean_linker_0, # of connection points: 2
#     Edge 133, Type (0, 1), BuildingBlock: ZUJKAS_clean_linker_0, # of connection points: 2
#     Edge 134, Type (0, 1), BuildingBlock: ZUJKAS_clean_linker_0, # of connection points: 2
#     Edge 135, Type (0, 1), BuildingBlock: ZUJKAS_clean_linker_0, # of connection points: 2
# Relax obj value: 0.113
# Max RMSD: 0.313
# Mean RMSD: 0.146
data_MOF--net-gar--node1-KUFVIS_clean_sbu_0--node2-KUMBUR_clean_sbu_0--edge1-ZUJKAS_clean_linker_0
_symmetry_space_group_name_H-M    P1
_symmetry_Int_Tables_number       1
_symmetry_cell_setting            triclinic
loop_
_symmetry_equiv_pos_as_xyz
'x, y, z'
_cell_length_a     75.738896
_cell_length_b     71.338568
_cell_length_c     72.826789
_cell_angle_alpha  99.681637
_cell_angle_beta   93.106948
_cell_angle_gamma 101.92331
loop_
_atom_site_label
_atom_site_type_symbol
_atom_site_fract_x
_atom_site_fract_y
_atom_site_fract_z
_atom_type_partial_charge
Mn0 Mn 0.09583 0.3133 0.39044 0.0
Mn1 Mn 0.09137 0.34037 0.35725 0.0
C2 C 0.06758 0.31792 0.38146 0.0
C3 C 0.09682 0.28396 0.39994 0.0
C4 C 0.10461 0.35803 0.39754 0.0
O5 O 0.11954 0.31438 0.37851 0.0
O6 O 0.11512 0.33279 0.35721 0.0
C7 C 0.09012 0.30927 0.32435 0.0
N8 N 0.08266 0.32334 0.33392 0.0
C9 C 0.05831 0.31759 0.30962 0.0
C10 C 0.06579 0.30311 0.29944 0.0
C11 C 0.08173 0.29889 0.30688 0.0
C12 C 0.06726 0.32741 0.32697 0.0
H13 H 0.10238 0.30601 0.33 0.0
C14 C 0.12474 0.32323 0.3653 0.0
O15 O 0.10441 0.30059 0.41038 0.0
O16 O 0.08932 0.28435 0.38359 0.0
N17 N 0.06918 0.34898 0.35516 0.0
C18 C 0.0634 0.36288 0.36704 0.0
C19 C 0.04771 0.36892 0.36165 0.0
C20 C 0.03813 0.36061 0.34413 0.0
C21 C 0.04435 0.34637 0.33212 0.0
C22 C 0.06028 0.34122 0.3381 0.0
H23 H 0.07078 0.36942 0.38046 0.0
O24 O 0.07087 0.31323 0.39755 0.0
O25 O 0.0809 0.31956 0.37078 0.0
O26 O 0.10416 0.34193 0.4031 0.0
O27 O 0.09996 0.35911 0.38071 0.0
C28 C 0.0353 0.33695 0.31455 0.0
C29 C 0.04221 0.32249 0.30335 0.0
H30 H 0.05935 0.29506 0.28596 0.0
H31 H 0.08754 0.28768 0.29914 0.0
H32 H 0.04301 0.37996 0.37099 0.0
H33 H 0.02595 0.36521 0.34007 0.0
H34 H 0.02288 0.34055 0.30961 0.0
H35 H 0.03501 0.31516 0.28997 0.0
Mn36 Mn 0.02197 0.78349 0.65128 0.0
Mn37 Mn 0.03426 0.82494 0.68337 0.0
C38 C 0.05149 0.79405 0.66426 0.0
C39 C 0.01079 0.75019 0.64217 0.0
C40 C 0.02882 0.82453 0.64198 0.0
O41 O 0.99801 0.7875 0.66004 0.0
O42 O 1.00739 0.81571 0.68065 0.0
C43 C 0.02282 0.80862 0.71676 0.0
N44 N 0.03598 0.81849 0.70775 0.0
C45 C 0.05768 0.82422 0.73457 0.0
C46 C 0.04434 0.81421 0.74416 0.0
C47 C 0.02685 0.8063 0.73518 0.0
C48 C 0.0529 0.82597 0.71619 0.0
H49 H 0.00933 0.80259 0.70998 0.0
C50 C 0.99499 0.80139 0.67204 0.0
O51 O 0.00961 0.76217 0.63083 0.0
O52 O 0.01819 0.75759 0.65906 0.0
N53 N 0.05984 0.83528 0.68783 0.0
C54 C 0.07146 0.84336 0.67623 0.0
C55 C 0.08969 0.85131 0.68286 0.0
C56 C 0.09569 0.85114 0.70141 0.0
C57 C 0.08345 0.84283 0.71311 0.0
C58 C 0.06551 0.83495 0.70568 0.0
H59 H 0.06689 0.84362 0.66199 0.0
O60 O 0.04772 0.7827 0.64798 0.0
O61 O 0.03787 0.79902 0.67242 0.0
O62 O 0.02383 0.80612 0.63732 0.0
O63 O 0.03336 0.83331 0.65886 0.0
C64 C 0.08837 0.84194 0.73183 0.0
C65 C 0.07556 0.83247 0.74249 0.0
H66 H 0.04738 0.81244 0.75839 0.0
H67 H 0.01649 0.7985 0.74247 0.0
H68 H 0.09906 0.85764 0.67372 0.0
H69 H 0.10975 0.85732 0.70648 0.0
H70 H 0.10206 0.84826 0.7381 0.0
H71 H 0.07962 0.83153 0.75674 0.0
Mn72 Mn 0.5967 0.81376 0.88903 0.0
Mn73 Mn 0.58855 0.84058 0.85672 0.0
C74 C 0.56825 0.81975 0.88442 0.0
C75 C 0.59863 0.78414 0.89734 0.0
C76 C 0.60908 0.85786 0.89469 0.0
O77 O 0.618 0.81387 0.87328 0.0
O78 O 0.60959 0.82897 0.85051 0.0
C79 C 0.57731 0.80927 0.82341 0.0
N80 N 0.57379 0.8246 0.8354 0.0
C81 C 0.54551 0.8225 0.8176 0.0
C82 C 0.54887 0.80675 0.805 0.0
C83 C 0.56481 0.80007 0.80796 0.0
C84 C 0.55847 0.8311 0.83272 0.0
H85 H 0.58957 0.80413 0.82563 0.0
C86 C 0.6202 0.81983 0.85781 0.0
O87 O 0.60764 0.80058 0.90714 0.0
O88 O 0.58899 0.78489 0.88229 0.0
N89 N 0.56838 0.85259 0.86087 0.0
C90 C 0.56658 0.86702 0.87503 0.0
C91 C 0.55114 0.875 0.87447 0.0
C92 C 0.5378 0.8682 0.85931 0.0
C93 C 0.53992 0.85333 0.84492 0.0
C94 C 0.55566 0.84603 0.84616 0.0
H95 H 0.57686 0.87242 0.88664 0.0
O96 O 0.57324 0.81476 0.89989 0.0
O97 O 0.57993 0.82079 0.87197 0.0
O98 O 0.60687 0.84211 0.90114 0.0
O99 O 0.60353 0.85873 0.87806 0.0
C100 C 0.52688 0.8452 0.82957 0.0
C101 C 0.52965 0.82977 0.81595 0.0
H102 H 0.53924 0.79956 0.7931 0.0
H103 H 0.56746 0.78786 0.79834 0.0
H104 H 0.54956 0.88642 0.88567 0.0
H105 H 0.52593 0.87443 0.85891 0.0
H106 H 0.51452 0.85048 0.8283 0.0
H107 H 0.51939 0.82341 0.8044 0.0
Mn108 Mn 0.51813 0.27372 0.15143 0.0
Mn109 Mn 0.4823 0.25848 0.11882 0.0
C110 C 0.50704 0.24084 0.14024 0.0
C111 C 0.54913 0.28358 0.16033 0.0
C112 C 0.47888 0.2728 0.15979 0.0
O113 O 0.51741 0.29811 0.14062 0.0
O114 O 0.49407 0.28598 0.11833 0.0
C115 C 0.50153 0.25979 0.08455 0.0
N116 N 0.49014 0.24959 0.09503 0.0
C117 C 0.48551 0.22041 0.07167 0.0
C118 C 0.49712 0.23064 0.06059 0.0
C119 C 0.50518 0.2504 0.06708 0.0
C120 C 0.48229 0.23056 0.08891 0.0
H121 H 0.50781 0.27497 0.08949 0.0
C122 C 0.50708 0.29976 0.12679 0.0
O123 O 0.53728 0.28821 0.17146 0.0
O124 O 0.54299 0.27387 0.1437 0.0
N125 N 0.47012 0.23192 0.11765 0.0
C126 C 0.46028 0.22382 0.13058 0.0
C127 C 0.45172 0.20398 0.12649 0.0
C128 C 0.45331 0.1927 0.10915 0.0
C129 C 0.46357 0.20133 0.09609 0.0
C130 C 0.47165 0.22122 0.10087 0.0
H131 H 0.459 0.2324 0.14394 0.0
O132 O 0.51626 0.24671 0.15648 0.0
O133 O 0.50446 0.25439 0.13118 0.0
O134 O 0.49569 0.27613 0.16512 0.0
O135 O 0.47252 0.26672 0.14274 0.0
C136 C 0.46632 0.19092 0.07863 0.0
C137 C 0.47732 0.20044 0.06646 0.0
H138 H 0.50006 0.22342 0.04716 0.0
H139 H 0.51422 0.25838 0.05865 0.0
H140 H 0.44391 0.19739 0.13667 0.0
H141 H 0.44669 0.17739 0.10606 0.0
H142 H 0.46023 0.17553 0.07453 0.0
H143 H 0.47956 0.19221 0.05321 0.0
Mn144 Mn 0.09445 0.81926 0.12781 0.0
Mn145 Mn 0.06271 0.80421 0.09079 0.0
C146 C 0.085 0.78583 0.11469 0.0
C147 C 0.12456 0.828 0.1425 0.0
C148 C 0.0531 0.81439 0.13057 0.0
O149 O 0.09479 0.84523 0.11784 0.0
O150 O 0.07264 0.83291 0.09451 0.0
C151 C 0.08736 0.81234 0.06149 0.0
N152 N 0.07465 0.79968 0.06853 0.0
C153 C 0.07452 0.77403 0.04239 0.0
C154 C 0.08752 0.78683 0.0348 0.0
C155 C 0.09401 0.80605 0.04443 0.0
C156 C 0.06841 0.78113 0.05945 0.0
H157 H 0.0924 0.82712 0.06882 0.0
C158 C 0.0843 0.84733 0.10414 0.0
O159 O 0.111 0.83256 0.15098 0.0
O160 O 0.12097 0.82014 0.12492 0.0
N161 N 0.05179 0.77698 0.08499 0.0
C162 C 0.03971 0.76629 0.0945 0.0
C163 C 0.03196 0.74671 0.08679 0.0
C164 C 0.03657 0.7384 0.06931 0.0
C165 C 0.04897 0.7497 0.05975 0.0
C166 C 0.05611 0.76918 0.06804 0.0
H167 H 0.036 0.77264 0.10787 0.0
O168 O 0.09191 0.79169 0.13187 0.0
O169 O 0.08363 0.79972 0.10544 0.0
O170 O 0.06949 0.81999 0.13788 0.0
O171 O 0.04902 0.80798 0.11306 0.0
C172 C 0.05469 0.74233 0.04244 0.0
C173 C 0.06752 0.75446 0.0338 0.0
H174 H 0.0927 0.78203 0.02166 0.0
H175 H 0.1041 0.81599 0.0387 0.0
H176 H 0.02242 0.73806 0.09427 0.0
H177 H 0.03057 0.7233 0.06339 0.0
H178 H 0.04947 0.72729 0.03574 0.0
H179 H 0.07197 0.74857 0.02059 0.0
Mn180 Mn 0.52325 0.76937 0.42227 0.0
Mn181 Mn 0.51987 0.79277 0.38551 0.0
C182 C 0.49428 0.76974 0.40819 0.0
C183 C 0.52745 0.74132 0.4349 0.0
C184 C 0.52785 0.81428 0.42589 0.0
O185 O 0.54913 0.77323 0.41346 0.0
O186 O 0.54426 0.78731 0.38887 0.0
C187 C 0.52276 0.76011 0.35563 0.0
N188 N 0.51392 0.77409 0.3628 0.0
C189 C 0.49243 0.76605 0.33559 0.0
C190 C 0.50135 0.75163 0.32785 0.0
C191 C 0.51653 0.74858 0.33796 0.0
C192 C 0.49916 0.77694 0.35332 0.0
H193 H 0.5345 0.75784 0.36333 0.0
C194 C 0.55455 0.78056 0.39931 0.0
O195 O 0.53158 0.75885 0.44463 0.0
O196 O 0.52076 0.73994 0.4178 0.0
N197 N 0.49739 0.79962 0.37978 0.0
C198 C 0.49036 0.81411 0.38926 0.0
C199 C 0.47553 0.81949 0.38086 0.0
C200 C 0.46795 0.80984 0.36285 0.0
C201 C 0.47554 0.79514 0.35326 0.0
C202 C 0.49066 0.79079 0.36215 0.0
H203 H 0.49624 0.82177 0.403 0.0
O204 O 0.49633 0.76596 0.42492 0.0
O205 O 0.50913 0.77264 0.39982 0.0
O206 O 0.52738 0.79917 0.43345 0.0
O207 O 0.52563 0.81321 0.4082 0.0
C208 C 0.46871 0.78463 0.33525 0.0
C209 C 0.47706 0.76998 0.32649 0.0
H210 H 0.49663 0.74275 0.3142 0.0
H211 H 0.52345 0.73744 0.33211 0.0
H212 H 0.46998 0.8311 0.38823 0.0
H213 H 0.45635 0.81387 0.35651 0.0
H214 H 0.45695 0.78757 0.32809 0.0
H215 H 0.47156 0.76183 0.31273 0.0
Mn216 Mn 0.5917 0.31477 0.62785 0.0
Mn217 Mn 0.5602 0.29895 0.59064 0.0
C218 C 0.58333 0.28141 0.61439 0.0
C219 C 0.62182 0.32478 0.64241 0.0
C220 C 0.55031 0.30887 0.6304 0.0
O221 O 0.59091 0.3406 0.61808 0.0
O222 O 0.56959 0.32771 0.59398 0.0
C223 C 0.58471 0.30697 0.56122 0.0
N224 N 0.57234 0.29422 0.56855 0.0
C225 C 0.57362 0.26794 0.54352 0.0
C226 C 0.58628 0.28082 0.53564 0.0
C227 C 0.59188 0.30041 0.54455 0.0
C228 C 0.56693 0.27532 0.56014 0.0
H229 H 0.58909 0.32202 0.56805 0.0
C230 C 0.58065 0.34238 0.60404 0.0
O231 O 0.60804 0.32851 0.65102 0.0
O232 O 0.61834 0.31691 0.62482 0.0
N233 N 0.54987 0.27155 0.58542 0.0
C234 C 0.53781 0.26093 0.59501 0.0
C235 C 0.53092 0.24101 0.588 0.0
C236 C 0.53635 0.23228 0.57112 0.0
C237 C 0.54858 0.24355 0.56136 0.0
C238 C 0.55486 0.26337 0.56895 0.0
H239 H 0.53353 0.26757 0.60797 0.0
O240 O 0.59025 0.28716 0.63157 0.0
O241 O 0.58137 0.29533 0.60544 0.0
O242 O 0.56663 0.3143 0.6379 0.0
O243 O 0.54638 0.30286 0.61281 0.0
C244 C 0.55496 0.23585 0.54453 0.0
C245 C 0.56751 0.24803 0.53565 0.0
H246 H 0.59188 0.2758 0.52281 0.0
H247 H 0.6017 0.31041 0.5386 0.0
H248 H 0.52147 0.23241 0.5956 0.0
H249 H 0.53105 0.21691 0.56578 0.0
H250 H 0.55043 0.22055 0.5384 0.0
H251 H 0.57245 0.2419 0.52281 0.0
Mn252 Mn 0.02156 0.27245 0.92428 0.0
Mn253 Mn 0.02022 0.29548 0.88697 0.0
C254 C 0.99336 0.27281 0.90855 0.0
C255 C 0.02486 0.24445 0.93752 0.0
C256 C 0.02632 0.31738 0.92723 0.0
O257 O 0.0479 0.27615 0.91688 0.0
O258 O 0.04455 0.29041 0.89203 0.0
C259 C 0.02473 0.26248 0.85834 0.0
N260 N 0.01541 0.27635 0.86453 0.0
C261 C 0.99495 0.26715 0.8365 0.0
C262 C 1.00438 0.25282 0.82976 0.0
C263 C 0.01928 0.25041 0.84079 0.0
C264 C 1.00087 0.27855 0.85421 0.0
H265 H 0.03625 0.26068 0.86674 0.0
C266 C 0.05416 0.28361 0.90312 0.0
O267 O 0.02851 0.262 0.94724 0.0
O268 O 0.0191 0.24304 0.9201 0.0
N269 N 0.99791 0.30192 0.87963 0.0
C270 C 0.99036 0.3165 0.88812 0.0
C271 C 0.97568 0.32124 0.8787 0.0
C272 C 0.96911 0.31118 0.86055 0.0
C273 C 0.97714 0.29634 0.85204 0.0
C274 C 0.99188 0.29243 0.86201 0.0
H275 H 0.99563 0.3246 0.90189 0.0
O276 O 0.99441 0.26911 0.92539 0.0
O277 O 0.0087 0.27559 0.90106 0.0
O278 O 0.02547 0.30236 0.93503 0.0
O279 O 0.02479 0.31617 0.90948 0.0
C280 C 0.97111 0.28527 0.83406 0.0
C281 C 0.9799 0.27055 0.82636 0.0
H282 H 1.00029 0.24356 0.81618 0.0
H283 H 0.0266 0.23935 0.83571 0.0
H284 H 0.96955 0.33274 0.88534 0.0
H285 H 0.95792 0.31502 0.85322 0.0
H286 H 0.95963 0.28786 0.82609 0.0
H287 H 0.97504 0.26201 0.81261 0.0
Mn288 Mn 0.42592 0.05642 0.30182 0.0
Mn289 Mn 0.38889 0.0556 0.32557 0.0
C290 C 0.40865 0.02703 0.30571 0.0
C291 C 0.44067 0.05757 0.27489 0.0
C292 C 0.42729 0.06705 0.34423 0.0
O293 O 0.42082 0.08327 0.30205 0.0
O294 O 0.39449 0.0803 0.31546 0.0
C295 C 0.36136 0.05345 0.29438 0.0
N296 N 0.36745 0.04574 0.30874 0.0
C297 C 0.34185 0.0185 0.30255 0.0
C298 C 0.33523 0.02623 0.2878 0.0
C299 C 0.34504 0.04377 0.28368 0.0
C300 C 0.3581 0.02889 0.31284 0.0
H301 H 0.36891 0.06684 0.29106 0.0
C302 C 0.40699 0.08969 0.30712 0.0
O303 O 0.44924 0.06402 0.29137 0.0
O304 O 0.42328 0.05072 0.27397 0.0
N305 N 0.38195 0.03222 0.33552 0.0
C306 C 0.39074 0.02607 0.34943 0.0
C307 C 0.38301 1.0084 0.35483 0.0
C308 C 0.36633 0.99726 0.34591 0.0
C309 C 0.35748 1.00393 0.33172 0.0
C310 C 0.36575 0.02175 0.32706 0.0
H311 H 0.40361 0.03449 0.35627 0.0
O312 O 0.42544 0.02844 0.30213 0.0
O313 O 0.40249 0.04287 0.3068 0.0
O314 O 0.43481 0.06351 0.32927 0.0
O315 O 0.4102 0.06554 0.34453 0.0
C316 C 0.34098 0.99339 0.32175 0.0
C317 C 0.33317 1.00067 0.30718 0.0
H318 H 0.32273 0.01873 0.27941 0.0
H319 H 0.34008 0.04977 0.27224 0.0
H320 H 0.38995 1.00333 0.36575 0.0
H321 H 0.36051 0.98353 0.34996 0.0
H322 H 0.33432 0.97952 0.32498 0.0
H323 H 0.32061 0.99229 0.29944 0.0
Mn324 Mn 0.29779 0.1983 0.51784 0.0
Mn325 Mn 0.28681 0.15819 0.48377 0.0
C326 C 0.26758 0.18305 0.50893 0.0
C327 C 0.3041 0.21284 0.54979 0.0
C328 C 0.29889 0.19912 0.47557 0.0
O329 O 0.32146 0.18855 0.51689 0.0
O330 O 0.31247 0.16187 0.49415 0.0
C331 C 0.28906 0.1281 0.50677 0.0
N332 N 0.27934 0.13554 0.49461 0.0
C333 C 0.25316 0.10964 0.49397 0.0
C334 C 0.26293 0.10164 0.50638 0.0
C335 C 0.28095 0.11093 0.51282 0.0
C336 C 0.26201 0.12667 0.48827 0.0
H337 H 0.30288 0.13523 0.51185 0.0
C338 C 0.32436 0.17331 0.5065 0.0
O339 O 0.30908 0.22252 0.53665 0.0
O340 O 0.29623 0.19465 0.54436 0.0
N341 N 0.26229 0.15279 0.47287 0.0
C342 C 0.25433 0.16317 0.46209 0.0
C343 C 0.23605 0.1563 0.45517 0.0
C344 C 0.22617 0.13882 0.45933 0.0
C345 C 0.23469 0.12832 0.47034 0.0
C346 C 0.25299 0.1358 0.47673 0.0
H347 H 0.2618 0.17669 0.45895 0.0
O348 O 0.272 0.2013 0.51679 0.0
O349 O 0.28098 0.17442 0.50615 0.0
O350 O 0.30125 0.20808 0.49261 0.0
O351 O 0.29378 0.18061 0.47104 0.0
C352 C 0.22561 0.111 0.47562 0.0
C353 C 0.23484 0.10166 0.48742 0.0
H354 H 0.25668 0.0885 0.51122 0.0
H355 H 0.28855 0.1049 0.52248 0.0
H356 H 0.22955 0.16452 0.44674 0.0
H357 H 0.21201 0.13369 0.45415 0.0
H358 H 0.21145 0.10492 0.47096 0.0
H359 H 0.22764 0.08852 0.49162 0.0
Mn360 Mn 0.17441 0.0201 0.76807 0.0
Mn361 Mn 0.21029 0.03136 0.8013 0.0
C362 C 0.19096 0.05346 0.77841 0.0
C363 C 0.16002 0.01576 0.73507 0.0
C364 C 0.17099 0.02251 0.81229 0.0
O365 O 0.18354 0.99269 0.76643 0.0
O366 O 0.20583 1.00259 0.79009 0.0
C367 C 0.23885 0.0246 0.77626 0.0
N368 N 0.23221 0.03668 0.78934 0.0
C369 C 0.25776 0.06306 0.78907 0.0
C370 C 0.26491 0.05084 0.77572 0.0
C371 C 0.25539 0.03154 0.76928 0.0
C372 C 0.24126 0.0553 0.79561 0.0
H373 H 0.23159 0.00978 0.77113 0.0
C374 C 0.19669 0.98915 0.77693 0.0
O375 O 0.15135 0.01035 0.74885 0.0
O376 O 0.1773 0.0216 0.73983 0.0
N377 N 0.2168 0.05829 0.81306 0.0
C378 C 0.2077 0.06853 0.82531 0.0
C379 C 0.2153 0.08818 0.83285 0.0
C380 C 0.23216 0.09713 0.82774 0.0
C381 C 0.24132 0.0863 0.81519 0.0
C382 C 0.23318 0.06669 0.80829 0.0
H383 H 0.19465 0.06186 0.82915 0.0
O384 O 0.17412 0.04917 0.77181 0.0
O385 O 0.19747 0.0381 0.77969 0.0
O386 O 0.16364 0.01839 0.7951 0.0
O387 O 0.18829 0.02705 0.81564 0.0
C388 C 0.25804 0.09432 0.80899 0.0
C389 C 0.26623 0.08272 0.79591 0.0
H390 H 0.27762 0.05617 0.77022 0.0
H391 H 0.26078 0.02205 0.7589 0.0
H392 H 0.20811 0.09646 0.84246 0.0
H393 H 0.23787 0.11236 0.8334 0.0
H394 H 0.2646 0.10947 0.81401 0.0
H395 H 0.27898 0.08912 0.79108 0.0
Mn396 Mn 0.31579 0.91866 0.03404 0.0
Mn397 Mn 0.32686 0.95691 0.01199 0.0
C398 C 0.34553 0.92997 0.02913 0.0
C399 C 0.31046 0.90686 0.06154 0.0
C400 C 0.31122 0.91564 0.99156 0.0
O401 O 0.29312 0.92964 0.03457 0.0
O402 O 0.3024 0.95557 0.02097 0.0
C403 C 0.32973 0.9876 0.04558 0.0
N404 N 0.33739 0.9792 0.03075 0.0
C405 C 0.36587 1.00212 0.03993 0.0
C406 C 0.35826 0.01108 0.05524 0.0
C407 C 0.34012 1.00376 0.05809 0.0
C408 C 0.35489 0.98598 0.02801 0.0
H409 H 0.31583 0.98195 0.0479 0.0
C410 C 0.29055 0.94487 0.02886 0.0
O411 O 0.30381 0.8963 0.04536 0.0
O412 O 0.31955 0.92441 0.06167 0.0
N413 N 0.35016 0.96048 1.00249 0.0
C414 C 0.35496 0.95117 0.98622 0.0
C415 C 0.37246 0.95725 0.98083 0.0
C416 C 0.38473 0.97301 0.99207 0.0
C417 C 0.37925 0.98283 0.00836 0.0
C418 C 0.36155 0.97629 0.01286 0.0
H419 H 0.34555 0.93915 0.97745 0.0
O420 O 0.34028 0.91268 0.03289 0.0
O421 O 0.33337 0.94046 0.02908 0.0
O422 O 0.30998 0.90775 1.00607 0.0
O423 O 0.3168 0.93397 0.99212 0.0
C424 C 0.39056 0.99901 0.02018 0.0
C425 C 0.38392 1.00856 0.03603 0.0
H426 H 0.36622 0.02357 0.0649 0.0
H427 H 0.33417 0.01055 0.06991 0.0
H428 H 0.37649 0.94975 0.9681 0.0
H429 H 0.39826 0.97754 0.98796 0.0
H430 H 0.40438 1.00427 0.01717 0.0
H431 H 0.39275 0.02097 0.04503 0.0
Mn432 Mn 0.31908 0.39606 0.04118 0.0
Mn433 Mn 0.32883 0.43374 0.0179 0.0
C434 C 0.34914 0.41107 0.039 0.0
C435 C 0.31303 0.38393 0.06904 0.0
C436 C 0.3184 0.39149 0.99809 0.0
O437 O 0.29465 0.40444 0.03915 0.0
O438 O 0.30326 0.42917 0.02377 0.0
C439 C 0.32526 0.46471 0.0492 0.0
N440 N 0.33519 0.45748 0.0358 0.0
C441 C 0.35958 0.4858 0.04416 0.0
C442 C 0.34958 0.49361 0.05799 0.0
C443 C 0.33238 0.48297 0.06058 0.0
C444 C 0.35185 0.46745 0.0334 0.0
H445 H 0.31201 0.4566 0.05119 0.0
C446 C 0.29133 0.41835 0.03143 0.0
O447 O 0.30832 0.37299 0.05264 0.0
O448 O 0.32054 0.40202 0.06922 0.0
N449 N 0.35303 0.44042 0.01098 0.0
C450 C 0.36088 0.43086 0.99698 0.0
C451 C 0.37789 0.43979 0.9922 0.0
C452 C 0.38652 0.45855 1.00165 0.0
C453 C 0.37821 0.46809 0.01601 0.0
C454 C 0.36114 0.45859 0.01998 0.0
H455 H 0.35415 0.41661 0.98939 0.0
O456 O 0.34501 0.39362 0.04266 0.0
O457 O 0.33565 0.41951 0.03705 0.0
O458 O 0.31598 0.38394 0.0128 0.0
O459 O 0.32299 0.40987 0.99863 0.0
C460 C 0.38616 0.4867 0.02648 0.0
C461 C 0.37691 0.49548 0.04066 0.0
H462 H 0.35499 0.50773 0.06674 0.0
H463 H 0.3246 0.48887 0.07126 0.0
H464 H 0.38424 0.43234 0.98109 0.0
H465 H 0.39947 0.46556 0.99769 0.0
H466 H 0.39942 0.49432 0.02382 0.0
H467 H 0.38322 0.50971 0.04873 0.0
Mn468 Mn 0.79415 0.1511 0.03039 0.0
Mn469 Mn 0.77219 0.11325 0.99716 0.0
C470 C 0.76293 0.14362 0.02632 0.0
C471 C 0.80671 0.16458 0.06082 0.0
C472 C 0.78862 0.15284 0.98871 0.0
O473 O 0.81396 0.13624 0.02437 0.0
O474 O 0.79796 0.11217 1.002 0.0
C475 C 0.77404 0.08209 0.01896 0.0
N476 N 0.7641 0.09127 0.00876 0.0
C477 C 0.73652 0.06853 0.01152 0.0
C478 C 0.74648 0.05876 0.02196 0.0
C479 C 0.76531 0.06561 0.02575 0.0
C480 C 0.74596 0.08488 1.00515 0.0
H481 H 0.78852 0.08729 0.02191 0.0
C482 C 0.81263 0.12079 0.01219 0.0
O483 O 0.81139 0.17312 0.04687 0.0
O484 O 0.79573 0.14759 0.05688 0.0
N485 N 0.74705 0.11188 0.99085 0.0
C486 C 0.73935 0.12337 0.98117 0.0
C487 C 0.72057 0.1185 0.97624 0.0
C488 C 0.70994 0.10182 0.98118 0.0
C489 C 0.71816 0.09022 0.99112 0.0
C490 C 0.73697 0.09563 0.99542 0.0
H491 H 0.74747 0.13611 0.97719 0.0
O492 O 0.7717 0.16089 0.03433 0.0
O493 O 0.77263 0.13087 0.02113 0.0
O494 O 0.79552 0.16049 1.00534 0.0
O495 O 0.77956 0.13529 0.9841 0.0
C496 C 0.70841 0.07361 0.9971 0.0
C497 C 0.71757 0.06283 1.00737 0.0
H498 H 0.73979 0.04606 0.02723 0.0
H499 H 0.77308 0.0582 0.03386 0.0
H500 H 0.7143 0.12756 0.96861 0.0
H501 H 0.69546 0.0981 0.97736 0.0
H502 H 0.69384 0.06914 0.99406 0.0
H503 H 0.70991 0.05023 0.01209 0.0
Mn504 Mn 0.18463 0.54174 0.24769 0.0
Mn505 Mn 0.21886 0.5666 0.28001 0.0
C506 C 0.19501 0.57485 0.24955 0.0
C507 C 0.17205 0.52345 0.2187 0.0
C508 C 0.18043 0.55577 0.28926 0.0
O509 O 0.19545 0.51992 0.25481 0.0
O510 O 0.21618 0.53793 0.27774 0.0
C511 C 0.24834 0.55501 0.25873 0.0
N512 N 0.24086 0.56921 0.26805 0.0
C513 C 0.26607 0.59427 0.26365 0.0
C514 C 0.27409 0.57991 0.2541 0.0
C515 C 0.26515 0.5602 0.25156 0.0
C516 C 0.24925 0.58822 0.27037 0.0
H517 H 0.24154 0.53985 0.25679 0.0
C518 C 0.20768 0.52155 0.26805 0.0
O519 O 0.16352 0.52272 0.23359 0.0
O520 O 0.18839 0.53422 0.22075 0.0
N521 N 0.2236 0.59446 0.28427 0.0
C522 C 0.21385 0.60655 0.29344 0.0
C523 C 0.22096 0.62675 0.29725 0.0
C524 C 0.23813 0.63429 0.29184 0.0
C525 C 0.24798 0.62158 0.28257 0.0
C526 C 0.24027 0.60157 0.27931 0.0
H527 H 0.20074 0.60081 0.29782 0.0
O528 O 0.17871 0.56627 0.24235 0.0
O529 O 0.20502 0.56385 0.25549 0.0
O530 O 0.17446 0.54585 0.27309 0.0
O531 O 0.19683 0.56505 0.29345 0.0
C532 C 0.26505 0.62799 0.27621 0.0
C533 C 0.27403 0.61435 0.26665 0.0
H534 H 0.28707 0.58384 0.24858 0.0
H535 H 0.27122 0.54904 0.24414 0.0
H536 H 0.21327 0.63647 0.3044 0.0
H537 H 0.24358 0.64988 0.2948 0.0
H538 H 0.27128 0.64338 0.27841 0.0
H539 H 0.28704 0.61946 0.26164 0.0
Mn540 Mn 0.81553 0.89595 0.53952 0.0
Mn541 Mn 0.82618 0.93355 0.51619 0.0
C542 C 0.84585 0.91061 0.53773 0.0
C543 C 0.80848 0.88377 0.56725 0.0
C544 C 0.81501 0.89131 0.49642 0.0
O545 O 0.79132 0.90478 0.53703 0.0
O546 O 0.80065 0.92975 0.52213 0.0
C547 C 0.82339 0.96497 0.5474 0.0
N548 N 0.83307 0.95733 0.53397 0.0
C549 C 0.85792 0.98524 0.54196 0.0
C550 C 0.84818 0.99347 0.55582 0.0
C551 C 0.83087 0.98324 0.5586 0.0
C552 C 0.84983 0.96691 0.53137 0.0
H553 H 0.81005 0.95718 0.54952 0.0
C554 C 0.78843 0.919 0.52952 0.0
O555 O 0.80402 0.87297 0.55076 0.0
O556 O 0.81648 0.90177 0.5676 0.0
N557 N 0.8504 0.93949 0.50919 0.0
C558 C 0.85802 0.92948 0.49529 0.0
C559 C 0.87513 0.93792 0.49037 0.0
C560 C 0.88411 0.95665 0.49959 0.0
C561 C 0.87603 0.96666 0.51386 0.0
C562 C 0.85885 0.95763 0.51797 0.0
H563 H 0.85101 0.91525 0.48786 0.0
O564 O 0.84141 0.89319 0.54146 0.0
O565 O 0.83251 0.91918 0.53547 0.0
O566 O 0.81274 0.88379 0.51116 0.0
O567 O 0.81971 0.90967 0.49691 0.0
C568 C 0.88434 0.98525 0.52413 0.0
C569 C 0.87535 0.99447 0.53828 0.0
H570 H 0.85388 1.00759 0.56443 0.0
H571 H 0.8233 0.98946 0.56931 0.0
H572 H 0.8813 0.93011 0.47934 0.0
H573 H 0.89715 0.96328 0.49554 0.0
H574 H 0.8977 0.99252 0.52136 0.0
H575 H 0.88194 1.00867 0.54622 0.0
Mn576 Mn 0.93986 0.07098 0.27133 0.0
Mn577 Mn 0.90544 0.0655 0.29984 0.0
C578 C 0.92378 0.03869 0.27461 0.0
C579 C 0.95296 0.0728 0.24035 0.0
C580 C 0.94542 0.07434 0.31605 0.0
O581 O 0.93115 0.09852 0.27395 0.0
O582 O 0.90974 0.09268 0.29371 0.0
C583 C 0.87603 0.0681 0.27236 0.0
N584 N 0.88274 0.05842 0.28477 0.0
C585 C 0.85537 0.03335 0.27971 0.0
C586 C 0.84813 0.04317 0.26704 0.0
C587 C 0.85854 0.06057 0.26328 0.0
C588 C 0.87291 0.04153 0.2883 0.0
H589 H 0.88393 0.08147 0.26935 0.0
C590 C 0.91832 0.10389 0.28346 0.0
O591 O 0.96215 0.07954 0.2565 0.0
O592 O 0.93593 0.06614 0.24203 0.0
N593 N 0.89852 0.04054 0.30699 0.0
C594 C 0.90774 0.03228 0.31886 0.0
C595 C 0.89921 0.01474 0.32397 0.0
C596 C 0.88124 1.00593 0.31695 0.0
C597 C 0.87203 0.01462 0.30472 0.0
C598 C 0.88115 0.03223 0.3003 0.0
H599 H 0.92151 0.03898 0.32443 0.0
O600 O 0.94005 0.04203 0.26933 0.0
O601 O 0.91722 0.05439 0.27798 0.0
O602 O 0.95201 0.07583 0.30007 0.0
O603 O 0.92827 0.07178 0.31719 0.0
C604 C 0.85424 1.00634 0.29656 0.0
C605 C 0.84595 0.01564 0.28398 0.0
H606 H 0.83464 0.03741 0.26 0.0
H607 H 0.8531 0.06818 0.25343 0.0
H608 H 0.90644 1.00805 0.33334 0.0
H609 H 0.87467 0.99242 0.32095 0.0
H610 H 0.8469 0.99268 0.29967 0.0
H611 H 0.83236 1.009 0.27759 0.0
Mn612 Mn 0.29584 0.656 0.52375 0.0
Mn613 Mn 0.27331 0.61477 0.49508 0.0
C614 C 0.26459 0.64928 0.519 0.0
C615 C 0.30813 0.67303 0.55334 0.0
C616 C 0.29324 0.65031 0.48109 0.0
O617 O 0.31485 0.63943 0.52107 0.0
O618 O 0.29781 0.61193 0.50346 0.0
C619 C 0.26946 0.58834 0.5226 0.0
N620 N 0.26178 0.59666 0.50964 0.0
C621 C 0.2319 0.57917 0.51367 0.0
C622 C 0.2395 0.57034 0.527 0.0
C623 C 0.25836 0.57498 0.53151 0.0
C624 C 0.24364 0.59238 0.50527 0.0
H625 H 0.28395 0.5919 0.52612 0.0
C626 C 0.31268 0.62175 0.51267 0.0
O627 O 0.31351 0.67909 0.5383 0.0
O628 O 0.29649 0.65651 0.55109 0.0
N629 N 0.24931 0.61544 0.48598 0.0
C630 C 0.24409 0.62572 0.47329 0.0
C631 C 0.22565 0.62275 0.46722 0.0
C632 C 0.21279 0.60918 0.47417 0.0
C633 C 0.21846 0.59879 0.48725 0.0
C634 C 0.23705 0.60217 0.49259 0.0
H635 H 0.25392 0.63606 0.46777 0.0
O636 O 0.27361 0.66701 0.52493 0.0
O637 O 0.27408 0.63602 0.51615 0.0
O638 O 0.29838 0.66102 0.49712 0.0
O639 O 0.28425 0.63271 0.47882 0.0
C640 C 0.20641 0.58531 0.49529 0.0
C641 C 0.21311 0.57559 0.50857 0.0
H642 H 0.23098 0.56006 0.53394 0.0
H643 H 0.26432 0.56828 0.54184 0.0
H644 H 0.22136 0.63085 0.45715 0.0
H645 H 0.1986 0.60683 0.46933 0.0
H646 H 0.19195 0.58247 0.49152 0.0
H647 H 0.2037 0.56544 0.51483 0.0
Mn648 Mn 0.44066 0.56884 0.77291 0.0
Mn649 Mn 0.40636 0.564 0.80162 0.0
C650 C 0.42427 0.53676 0.77666 0.0
C651 C 0.45392 0.57032 0.74203 0.0
C652 C 0.44639 0.57328 0.81766 0.0
O653 O 0.43205 0.59649 0.77527 0.0
O654 O 0.41021 0.59071 0.7946 0.0
C655 C 0.37658 0.5652 0.77394 0.0
N656 N 0.38371 0.55595 0.78649 0.0
C657 C 0.35685 0.53025 0.78184 0.0
C658 C 0.34919 0.53956 0.76897 0.0
C659 C 0.35916 0.55704 0.76491 0.0
C660 C 0.37441 0.53886 0.79012 0.0
H661 H 0.38407 0.5787 0.77083 0.0
C662 C 0.41895 0.60183 0.78438 0.0
O663 O 0.46302 0.57715 0.7582 0.0
O664 O 0.43684 0.56375 0.74359 0.0
N665 N 0.40001 0.53938 0.80959 0.0
C666 C 0.40904 0.53242 0.82274 0.0
C667 C 0.40085 0.51506 0.82841 0.0
C668 C 0.38328 0.50525 0.82086 0.0
C669 C 0.37403 0.51296 0.80779 0.0
C670 C 0.38294 0.53022 0.80252 0.0
H671 H 0.42244 0.53996 0.82887 0.0
O672 O 0.44046 0.5397 0.77114 0.0
O673 O 0.41806 0.55265 0.77992 0.0
O674 O 0.45286 0.5739 0.80153 0.0
O675 O 0.4293 0.57126 0.81898 0.0
C676 C 0.35617 0.50437 0.80005 0.0
C677 C 0.34766 0.51287 0.78691 0.0
H678 H 0.33568 0.53342 0.76213 0.0
H679 H 0.35337 0.5643 0.75496 0.0
H680 H 0.40803 0.50931 0.83865 0.0
H681 H 0.37698 0.4919 0.82532 0.0
H682 H 0.3489 0.49109 0.80397 0.0
H683 H 0.334 0.50596 0.78086 0.0
Mn684 Mn 0.6914 0.0488 0.74242 0.0
Mn685 Mn 0.72389 0.07864 0.774 0.0
C686 C 0.69601 0.08221 0.74495 0.0
C687 C 0.6803 0.03011 0.71318 0.0
C688 C 0.68774 0.05853 0.78448 0.0
O689 O 0.70742 0.03051 0.7484 0.0
O690 O 0.72832 0.05191 0.76914 0.0
C691 C 0.75486 0.07855 0.75085 0.0
N692 N 0.74434 0.08854 0.76145 0.0
C693 C 0.76282 0.11934 0.7581 0.0
C694 C 0.7739 0.10938 0.74721 0.0
C695 C 0.76985 0.0889 0.74351 0.0
C696 C 0.74802 0.10824 0.76494 0.0
H697 H 0.75183 0.06281 0.74804 0.0
C698 C 0.72181 0.03481 0.75963 0.0
O699 O 0.67265 0.02687 0.72817 0.0
O700 O 0.69512 0.04357 0.71528 0.0
N701 N 0.7216 0.10513 0.78012 0.0
C702 C 0.70916 0.11249 0.79025 0.0
C703 C 0.71132 0.13276 0.79532 0.0
C704 C 0.72632 0.14524 0.79008 0.0
C705 C 0.73884 0.13735 0.77949 0.0
C706 C 0.73611 0.11703 0.77507 0.0
H707 H 0.69776 0.10296 0.79459 0.0
O708 O 0.68046 0.07107 0.7381 0.0
O709 O 0.70839 0.07357 0.75029 0.0
O710 O 0.68171 0.04968 0.76799 0.0
O711 O 0.70343 0.06972 0.78845 0.0
C712 C 0.75385 0.14884 0.77306 0.0
C713 C 0.76577 0.13984 0.76226 0.0
H714 H 0.78549 0.11731 0.74153 0.0
H715 H 0.77831 0.08111 0.73507 0.0
H716 H 0.70156 0.13876 0.80342 0.0
H717 H 0.72809 0.16086 0.79425 0.0
H718 H 0.75622 0.1646 0.77613 0.0
H719 H 0.77712 0.14882 0.75717 0.0
Mn720 Mn 0.7992 0.69981 0.01475 0.0
Mn721 Mn 0.78868 0.65947 0.98099 0.0
C722 C 0.76887 0.68455 1.00521 0.0
C723 C 0.805 0.71434 0.04685 0.0
C724 C 0.80233 0.70025 0.97273 0.0
O725 O 0.82299 0.68992 0.01428 0.0
O726 O 0.81343 0.66214 0.99309 0.0
C727 C 0.78771 0.62896 1.00416 0.0
N728 N 0.77938 0.6369 0.99133 0.0
C729 C 0.75247 0.6114 0.98824 0.0
C730 C 0.76079 0.60291 1.00138 0.0
C731 C 0.77848 0.61176 0.0094 0.0
C732 C 0.76236 0.62851 0.98353 0.0
H733 H 0.8013 0.63572 0.01036 0.0
C734 C 0.82549 0.67383 1.00508 0.0
O735 O 0.81028 0.72401 0.03379 0.0
O736 O 0.79709 0.69618 0.04129 0.0
N737 N 0.76493 0.65512 0.96847 0.0
C738 C 0.75843 0.66584 0.95696 0.0
C739 C 0.74083 0.65916 0.94798 0.0
C740 C 0.73012 0.64154 0.95091 0.0
C741 C 0.737 0.63089 0.96302 0.0
C742 C 0.75473 0.63813 0.97137 0.0
H743 H 0.76663 0.67933 0.95455 0.0
O744 O 0.77328 0.70279 0.01311 0.0
O745 O 0.78235 0.67601 1.00279 0.0
O746 O 0.80332 0.70955 0.98956 0.0
O747 O 0.79764 0.68169 0.96854 0.0
C748 C 0.72691 0.61348 0.96728 0.0
C749 C 0.73462 0.60378 0.97993 0.0
H750 H 0.75369 0.5897 1.00553 0.0
H751 H 0.78496 0.60534 0.0196 0.0
H752 H 0.73556 0.66753 0.93876 0.0
H753 H 0.7166 0.63639 0.94384 0.0
H754 H 0.71313 0.60757 0.9611 0.0
H755 H 0.72663 0.59057 0.98332 0.0
Mn756 Mn 0.92492 0.5537 0.80015 0.0
Mn757 Mn 0.89319 0.53007 0.82401 0.0
C758 C 0.92018 0.52032 0.79781 0.0
C759 C 0.93516 0.56593 0.77413 0.0
C760 C 0.92957 0.55394 0.84216 0.0
O761 O 0.90886 0.5731 0.80608 0.0
O762 O 0.88799 0.55568 0.82121 0.0
C763 C 0.8613 0.52334 0.79639 0.0
N764 N 0.87254 0.51621 0.80729 0.0
C765 C 0.85493 0.48347 0.79736 0.0
C766 C 0.84313 0.49049 0.78609 0.0
C767 C 0.84637 0.5105 0.78556 0.0
C768 C 0.86961 0.49696 0.80781 0.0
H769 H 0.8637 0.53872 0.79597 0.0
C770 C 0.89432 0.57086 0.81437 0.0
O771 O 0.94327 0.57289 0.79076 0.0
O772 O 0.92035 0.55258 0.77274 0.0
N773 N 0.89642 0.50491 0.82738 0.0
C774 C 0.90964 0.50036 0.83815 0.0
C775 C 0.9085 0.4809 0.84007 0.0
C776 C 0.89375 0.46635 0.83099 0.0
C777 C 0.88042 0.47133 0.81982 0.0
C778 C 0.88218 0.491 0.81857 0.0
H779 H 0.92092 0.5115 0.84529 0.0
O780 O 0.93571 0.53025 0.79455 0.0
O781 O 0.90809 0.53024 0.80275 0.0
O782 O 0.93534 0.55899 0.82728 0.0
O783 O 0.91391 0.54328 0.84263 0.0
C784 C 0.86551 0.45755 0.80977 0.0
C785 C 0.85284 0.4636 0.79846 0.0
H786 H 0.83161 0.48063 0.77771 0.0
H787 H 0.83735 0.51601 0.77685 0.0
H788 H 0.9189 0.47715 0.84863 0.0
H789 H 0.89284 0.45139 0.83267 0.0
H790 H 0.86378 0.44224 0.81047 0.0
H791 H 0.8416 0.45283 0.79057 0.0
Mn792 Mn 0.81831 0.42901 0.53518 0.0
Mn793 Mn 0.83377 0.46829 0.5157 0.0
C794 C 0.84863 0.43772 0.53069 0.0
C795 C 0.81177 0.41561 0.56177 0.0
C796 C 0.81435 0.429 0.49306 0.0
O797 O 0.79754 0.44322 0.53724 0.0
O798 O 0.80988 0.46943 0.52518 0.0
C799 C 0.83947 0.4977 0.55063 0.0
N800 N 0.84614 0.48894 0.53526 0.0
C801 C 0.87594 0.50919 0.54446 0.0
C802 C 0.86937 0.51848 0.56034 0.0
C803 C 0.85106 0.51267 0.56346 0.0
C804 C 0.86379 0.49423 0.53227 0.0
H805 H 0.82543 0.49325 0.55313 0.0
C806 C 0.79708 0.45968 0.53278 0.0
O807 O 0.80429 0.40663 0.54528 0.0
O808 O 0.82227 0.43264 0.56279 0.0
N809 N 0.85689 0.46954 0.50599 0.0
C810 C 0.86085 0.45984 0.48948 0.0
C811 C 0.87848 0.46439 0.48393 0.0
C812 C 0.89176 0.47907 0.49525 0.0
C813 C 0.88724 0.48925 0.51189 0.0
C814 C 0.86941 0.48419 0.51661 0.0
H815 H 0.85067 0.4487 0.48061 0.0
O816 O 0.84163 0.42021 0.53303 0.0
O817 O 0.8378 0.44971 0.5315 0.0
O818 O 0.81186 0.42016 0.5069 0.0
O819 O 0.82183 0.44712 0.49485 0.0
C820 C 0.89967 0.50434 0.52388 0.0
C821 C 0.89406 0.51419 0.54024 0.0
H822 H 0.87825 0.53009 0.57023 0.0
H823 H 0.8459 0.51973 0.57572 0.0
H824 H 0.88181 0.4566 0.47097 0.0
H825 H 0.90537 0.48246 0.49099 0.0
H826 H 0.91359 0.50846 0.52068 0.0
H827 H 0.90378 0.52569 0.54941 0.0
Mn828 Mn 0.67432 0.52387 0.27046 0.0
Mn829 Mn 0.70979 0.53512 0.30415 0.0
C830 C 0.69095 0.55717 0.28071 0.0
C831 C 0.66032 0.51923 0.23744 0.0
C832 C 0.67029 0.52586 0.3144 0.0
O833 O 0.68318 0.49634 0.26935 0.0
O834 O 0.70581 0.5066 0.29264 0.0
C835 C 0.73904 0.52938 0.27975 0.0
N836 N 0.73193 0.54111 0.29271 0.0
C837 C 0.75708 0.56808 0.29302 0.0
C838 C 0.76471 0.55624 0.27978 0.0
C839 C 0.75564 0.53681 0.27311 0.0
C840 C 0.74056 0.55984 0.29922 0.0
H841 H 0.73209 0.51448 0.27445 0.0
C842 C 0.69651 0.49299 0.27975 0.0
O843 O 0.65144 0.51402 0.25117 0.0
O844 O 0.67759 0.52501 0.2423 0.0
N845 N 0.71564 0.56196 0.31618 0.0
C846 C 0.70611 0.57174 0.32832 0.0
C847 C 0.71321 0.59146 0.33603 0.0
C848 C 0.73003 0.60091 0.33123 0.0
C849 C 0.73965 0.59052 0.31883 0.0
C850 C 0.732 0.57083 0.31175 0.0
H851 H 0.69313 0.56462 0.33201 0.0
O852 O 0.6742 0.55297 0.27381 0.0
O853 O 0.69727 0.54178 0.28232 0.0
O854 O 0.66316 0.52259 0.29721 0.0
O855 O 0.68756 0.52993 0.31802 0.0
C856 C 0.75638 0.59904 0.31297 0.0
C857 C 0.76507 0.58784 0.30005 0.0
H858 H 0.77746 0.56194 0.27454 0.0
H859 H 0.76139 0.52761 0.26282 0.0
H860 H 0.70568 0.59938 0.34556 0.0
H861 H 0.73535 0.61618 0.33703 0.0
H862 H 0.76257 0.61426 0.31813 0.0
H863 H 0.77782 0.59461 0.29547 0.0
Tb864 Tb 0.04031 0.03301 0.01375 0.0
C865 C 0.08326 0.10894 0.0571 0.0
C866 C 0.08659 0.12993 0.03407 0.0
C867 C 0.0852 0.14374 0.06662 0.0
C868 C 0.08431 0.11113 0.03866 0.0
C869 C 0.08456 0.12537 0.07137 0.0
C870 C 0.08619 0.14602 0.04798 0.0
C871 C 0.08772 0.105 0.09409 0.0
N872 N 0.08307 0.09108 0.06125 0.0
C873 C 0.08636 0.08916 0.07949 0.0
C874 C 0.08629 0.12307 0.09003 0.0
Tb875 Tb 0.07993 0.06589 0.0362 0.0
N876 N 0.08492 0.09525 0.02559 0.0
C877 C 0.09018 0.09795 0.00828 0.0
C878 C 0.09016 0.13222 0.01588 0.0
C879 C 0.09243 0.11625 1.0031 0.0
H880 H 0.08714 0.07515 0.08284 0.0
H881 H 0.09594 0.11801 0.98919 0.0
H882 H 0.08755 0.16045 0.0446 0.0
H883 H 0.08969 0.10319 0.10847 0.0
H884 H 0.09242 0.08633 0.99791 0.0
H885 H 0.02894 0.97528 0.05438 0.0
H886 H 0.092 0.14637 0.01182 0.0
H887 H 0.02952 0.02893 0.96816 0.0
H888 H 0.03184 1.00874 0.04889 0.0
H889 H 0.0254 1.00378 0.93975 0.0
H890 H 0.08585 0.15645 0.07736 0.0
H891 H 0.03149 0.94892 0.02854 0.0
H892 H 0.03324 0.93817 0.99409 0.0
H893 H 0.08739 0.13534 0.10137 0.0
H894 H 0.03206 0.94598 0.96243 0.0
N895 N 0.03705 1.00201 0.02028 0.0
C896 C 0.03307 0.99756 0.03738 0.0
C897 C 0.0329 0.96368 0.02603 0.0
C898 C 0.03509 0.96792 1.00813 0.0
C899 C 0.03136 0.97849 0.04061 0.0
C900 C 0.03686 0.98741 1.00568 0.0
H901 H 0.02842 0.97035 0.94197 0.0
N902 N 0.03565 0.01028 0.98651 0.0
C903 C 0.0286 1.00022 0.95323 0.0
C904 C 0.03609 0.99172 0.98803 0.0
C905 C 0.031 0.01448 0.96945 0.0
C906 C 0.0304 0.98139 0.95453 0.0
C907 C 0.0337 0.9768 0.97214 0.0
O908 O 0.01776 0.04149 1.00209 0.0
O909 O 0.05395 0.06387 0.02157 0.0
O910 O 0.05886 0.06765 0.05708 0.0
O911 O 0.0352 0.04171 0.04398 0.0
O912 O 0.04148 0.05413 0.99508 0.0
O913 O 0.01472 0.02372 0.02315 0.0
O914 O 0.10097 0.05105 0.0303 0.0
O915 O 0.06597 0.03555 0.0299 0.0
O916 O 0.06141 0.0291 0.99363 0.0
O917 O 0.08391 0.05683 1.00554 0.0
O918 O 0.07822 0.04646 0.05655 0.0
O919 O 0.10669 0.0797 0.04691 0.0
C920 C 0.0504 0.06939 1.00627 0.0
C921 C 0.98936 0.02065 1.00165 0.0
C922 C 0.95798 0.01985 0.99151 0.0
C923 C 0.97481 0.02987 1.00092 0.0
C924 C 0.95589 1.00027 0.98281 0.0
C925 C 0.98719 1.00116 0.99286 0.0
C926 C 0.97046 0.99103 0.98345 0.0
C927 C 0.04278 0.056 0.05826 0.0
C928 C 1.0065 0.03197 0.01177 0.0
C929 C 0.0336 0.95762 0.97446 0.0
C930 C 0.03429 0.95318 0.99247 0.0
C931 C 0.06942 0.03079 0.04567 0.0
C932 C 0.12344 0.0574 0.05563 0.0
C933 C 0.13234 0.04222 0.05007 0.0
C934 C 0.14216 0.03524 0.06341 0.0
C935 C 0.14261 0.04333 0.08246 0.0
C936 C 0.12463 0.06569 0.07471 0.0
C937 C 0.13393 0.05849 0.08802 0.0
C938 C 0.07682 0.04157 0.99181 0.0
C939 C 0.11297 0.06429 0.0414 0.0
H940 H 0.97656 0.04486 1.00803 0.0
H941 H 0.94308 0.99219 0.97539 0.0
H942 H 0.9983 0.9938 0.99332 0.0
H943 H 0.96878 0.97598 0.97667 0.0
H944 H 0.13171 0.03594 0.03536 0.0
H945 H 0.15028 0.03846 0.09302 0.0
H946 H 0.11854 0.07784 0.07943 0.0
H947 H 0.13469 0.06493 0.10268 0.0
Tb948 Tb 0.31647 0.78903 0.26008 0.0
C949 C 0.30146 0.85238 0.32134 0.0
C950 C 0.33165 0.86383 0.33683 0.0
C951 C 0.30915 0.88324 0.34326 0.0
C952 C 0.31845 0.84936 0.32496 0.0
C953 C 0.2967 0.86966 0.32998 0.0
C954 C 0.32663 0.88026 0.34679 0.0
C955 C 0.26789 0.85893 0.31159 0.0
N956 N 0.28993 0.83879 0.3085 0.0
C957 C 0.2731 0.84184 0.30378 0.0
C958 C 0.27969 0.87285 0.3249 0.0
Tb959 Tb 0.29768 0.8089 0.30091 0.0
N960 N 0.32253 0.83319 0.31517 0.0
C961 C 0.34049 0.83273 0.31395 0.0
C962 C 0.34964 0.86194 0.33744 0.0
C963 C 0.35417 0.84668 0.32538 0.0
H964 H 0.2631 0.83085 0.29457 0.0
H965 H 0.36821 0.84578 0.32465 0.0
H966 H 0.33644 0.89129 0.35635 0.0
H967 H 0.25456 0.86109 0.30771 0.0
H968 H 0.34462 0.82196 0.30395 0.0
H969 H 0.2932 0.79163 0.18914 0.0
H970 H 0.36023 0.87282 0.3462 0.0
H971 H 0.32461 0.74959 0.27842 0.0
H972 H 0.30825 0.80527 0.22071 0.0
H973 H 0.31529 0.71454 0.27032 0.0
H974 H 0.30565 0.89641 0.35034 0.0
H975 H 0.28007 0.75629 0.18021 0.0
H976 H 0.2752 0.72305 0.18859 0.0
H977 H 0.27554 0.88597 0.33113 0.0
H978 H 0.28107 0.70216 0.21081 0.0
N979 N 0.30388 0.7779 0.22985 0.0
C980 C 0.30296 0.78976 0.21697 0.0
C981 C 0.28683 0.76218 0.1941 0.0
C982 C 0.28866 0.74999 0.20693 0.0
C983 C 0.29427 0.78211 0.19906 0.0
C984 C 0.2976 0.75837 0.22486 0.0
H985 H 0.29618 0.69884 0.24106 0.0
N986 N 0.31051 0.75525 0.25416 0.0
C987 C 0.31107 0.72341 0.26096 0.0
C988 C 0.30103 0.74667 0.23737 0.0
C989 C 0.31633 0.74373 0.26549 0.0
C990 C 0.30027 0.71459 0.24446 0.0
C991 C 0.29545 0.72617 0.23222 0.0
O992 O 0.34433 0.80023 0.26793 0.0
O993 O 0.31566 0.81435 0.28015 0.0
O994 O 0.28144 0.81297 0.27589 0.0
O995 O 0.28962 0.79322 0.25015 0.0
O996 O 0.31892 0.81845 0.25347 0.0
O997 O 0.33494 0.78534 0.23991 0.0
O998 O 0.26985 0.80153 0.30327 0.0
O999 O 0.29565 0.78439 0.2785 0.0
O1000 O 0.33006 0.78227 0.28538 0.0
O1001 O 0.31964 0.79735 0.31275 0.0
O1002 O 0.29327 0.77846 0.30473 0.0
O1003 O 0.28902 0.80779 0.32783 0.0
C1004 C 0.31709 0.8271 0.27 0.0
C1005 C 0.35959 0.81268 0.24389 0.0
C1006 C 0.36276 0.83573 0.22235 0.0
C1007 C 0.35301 0.81919 0.22828 0.0
C1008 C 0.37941 0.84575 0.23224 0.0
C1009 C 0.3763 0.82276 0.25351 0.0
C1010 C 0.38614 0.83921 0.24768 0.0
C1011 C 0.27898 0.80443 0.25789 0.0
C1012 C 0.34864 0.79623 0.25093 0.0
C1013 C 0.28566 0.71783 0.21483 0.0
C1014 C 0.28231 0.72972 0.20219 0.0
C1015 C 0.29218 0.77067 0.2874 0.0
C1016 C 0.26196 0.78303 0.32638 0.0
C1017 C 0.27046 0.77215 0.33709 0.0
C1018 C 0.26113 0.75377 0.33983 0.0
C1019 C 0.24314 0.7465 0.33203 0.0
C1020 C 0.24383 0.77564 0.31906 0.0
C1021 C 0.23452 0.75747 0.32184 0.0
C1022 C 0.33061 0.78711 0.304 0.0
C1023 C 0.27208 0.80107 0.32105 0.0
H1024 H 0.34003 0.81167 0.22095 0.0
H1025 H 0.38731 0.85848 0.22793 0.0
H1026 H 0.38159 0.81807 0.26567 0.0
H1027 H 0.39899 0.84698 0.25521 0.0
H1028 H 0.28447 0.77758 0.34273 0.0
H1029 H 0.23562 0.73246 0.33408 0.0
H1030 H 0.23699 0.78374 0.31076 0.0
H1031 H 0.22063 0.7518 0.31595 0.0
Tb1032 Tb 0.57735 0.05169 0.51937 0.0
C1033 C 0.51636 1.00601 0.55778 0.0
C1034 C 0.50125 0.97833 0.53436 0.0
C1035 C 0.50168 0.97595 0.56727 0.0
C1036 C 0.5115 0.99762 0.53929 0.0
C1037 C 0.51128 0.99543 0.57206 0.0
C1038 C 0.49667 0.9674 0.54843 0.0
C1039 C 0.5245 0.02451 0.59464 0.0
N1040 N 0.52555 0.02486 0.56176 0.0
C1041 C 0.52917 0.03441 0.57997 0.0
C1042 C 0.51567 1.00488 0.59069 0.0
Tb1043 Tb 0.53321 0.03965 0.53675 0.0
N1044 N 0.51611 1.00873 0.52619 0.0
C1045 C 0.50966 1.00177 0.50787 0.0
C1046 C 0.49551 0.9708 0.5155 0.0
C1047 C 0.49953 0.98268 0.50223 0.0
H1048 H 0.53607 0.04953 0.58332 0.0
H1049 H 0.49489 0.97714 0.48762 0.0
H1050 H 0.48892 0.9525 0.54492 0.0
H1051 H 0.52773 0.03205 0.609 0.0
H1052 H 0.51264 0.01064 0.49736 0.0
H1053 H 0.61551 0.11285 0.57024 0.0
H1054 H 0.48763 0.95603 0.51111 0.0
H1055 H 0.57493 0.04339 0.47295 0.0
H1056 H 0.59798 0.07943 0.55948 0.0
H1057 H 0.5833 0.06195 0.44794 0.0
H1058 H 0.49775 0.96751 0.57803 0.0
H1059 H 0.62268 0.13503 0.54767 0.0
H1060 H 0.62155 0.13982 0.5142 0.0
H1061 H 0.51203 0.99727 0.60208 0.0
H1062 H 0.61293 0.12589 0.48082 0.0
N1063 N 0.5946 0.08237 0.53088 0.0
C1064 C 0.60097 0.08872 0.54931 0.0
C1065 C 0.61494 0.12028 0.5428 0.0
C1066 C 0.60934 0.11337 0.52382 0.0
C1067 C 0.61096 0.10779 0.55556 0.0
C1068 C 0.59921 0.09408 0.51827 0.0
H1069 H 0.59886 0.09675 0.45594 0.0
N1070 N 0.58539 0.06747 0.49509 0.0
C1071 C 0.58648 0.06901 0.46245 0.0
C1072 C 0.59446 0.08632 0.49965 0.0
C1073 C 0.58182 0.05851 0.47671 0.0
C1074 C 0.59523 0.08866 0.46701 0.0
C1075 C 0.59953 0.09751 0.48582 0.0
O1076 O 0.59311 0.03362 0.50534 0.0
O1077 O 0.55431 0.02899 0.52216 0.0
O1078 O 0.55174 0.02704 0.55258 0.0
O1079 O 0.57862 0.04812 0.54883 0.0
O1080 O 0.56643 0.02557 0.49798 0.0
O1081 O 0.60066 0.04778 0.53397 0.0
O1082 O 0.51853 0.05942 0.54967 0.0
O1083 O 0.55618 0.06229 0.53363 0.0
O1084 O 0.55853 0.0641 0.50364 0.0
O1085 O 0.53174 0.04265 0.50715 0.0
O1086 O 0.54435 0.06601 0.55788 0.0
O1087 O 0.50849 0.04143 0.52296 0.0
C1088 C 0.5538 0.0173 0.50689 0.0
C1089 C 0.62411 0.03943 0.51638 0.0
C1090 C 0.65247 0.02787 0.51598 0.0
C1091 C 0.63401 0.0253 0.51933 0.0
C1092 C 0.66083 0.045 0.50987 0.0
C1093 C 0.63276 0.05631 0.51029 0.0
C1094 C 0.65104 0.05906 0.50709 0.0
C1095 C 0.56921 0.03476 0.55727 0.0
C1096 C 0.60483 0.03629 0.51981 0.0
C1097 C 0.60902 0.11698 0.49122 0.0
C1098 C 0.61392 0.12491 0.51021 0.0
C1099 C 0.55692 0.07414 0.54881 0.0
C1100 C 0.48689 0.05225 0.54218 0.0
C1101 C 0.47545 0.06408 0.53679 0.0
C1102 C 0.45814 0.06317 0.54348 0.0
C1103 C 0.45268 0.05002 0.55564 0.0
C1104 C 0.48088 0.03911 0.55396 0.0
C1105 C 0.46386 0.03803 0.56063 0.0
C1106 C 0.5412 0.05589 0.49863 0.0
C1107 C 0.50544 0.05464 0.5363 0.0
H1108 H 0.62724 0.01219 0.52392 0.0
H1109 H 0.67503 0.04764 0.50741 0.0
H1110 H 0.62538 0.06733 0.50802 0.0
H1111 H 0.65768 0.07216 0.50244 0.0
H1112 H 0.48015 0.07396 0.52742 0.0
H1113 H 0.43986 0.04916 0.56168 0.0
H1114 H 0.48945 0.02994 0.55827 0.0
H1115 H 0.45941 0.02804 0.56996 0.0
Tb1116 Tb 0.28614 0.30038 0.77316 0.0
C1117 C 0.34279 0.26662 0.811 0.0
C1118 C 0.35486 0.29108 0.83838 0.0
C1119 C 0.35382 0.25695 0.83916 0.0
C1120 C 0.34669 0.28577 0.81984 0.0
C1121 C 0.34677 0.25198 0.82031 0.0
C1122 C 0.35786 0.2765 0.8482 0.0
C1123 C 0.33861 0.22921 0.79109 0.0
N1124 N 0.33638 0.26258 0.79274 0.0
C1125 C 0.33507 0.24431 0.78246 0.0
C1126 C 0.34422 0.23299 0.81019 0.0
Tb1127 Tb 0.32957 0.28788 0.77998 0.0
N1128 N 0.34381 0.29933 0.80972 0.0
C1129 C 0.35051 0.3187 0.81685 0.0
C1130 C 0.36044 0.31087 0.84619 0.0
C1131 C 0.35861 0.32474 0.83522 0.0
H1132 H 0.33058 0.24118 0.76772 0.0
H1133 H 0.36333 0.3401 0.84094 0.0
H1134 H 0.36389 0.28026 0.86254 0.0
H1135 H 0.337 0.21467 0.78302 0.0
H1136 H 0.34917 0.32976 0.8088 0.0
H1137 H 0.2545 0.25249 0.70887 0.0
H1138 H 0.36672 0.31559 0.8604 0.0
H1139 H 0.28155 0.34532 0.78924 0.0
H1140 H 0.26789 0.26053 0.74139 0.0
H1141 H 0.27438 0.37304 0.77656 0.0
H1142 H 0.35677 0.2459 0.84666 0.0
H1143 H 0.25101 0.27882 0.69168 0.0
H1144 H 0.25333 0.31459 0.69236 0.0
H1145 H 0.34709 0.22131 0.81683 0.0
H1146 H 0.25878 0.34778 0.71098 0.0
N1147 N 0.27298 0.2913 0.74279 0.0
C1148 C 0.2666 0.27228 0.73426 0.0
C1149 C 0.25714 0.28245 0.70598 0.0
C1150 C 0.2623 0.30183 0.71521 0.0
C1151 C 0.25895 0.26759 0.71568 0.0
C1152 C 0.27003 0.30574 0.73389 0.0
H1153 H 0.2662 0.36967 0.74262 0.0
N1154 N 0.27841 0.32654 0.76265 0.0
C1155 C 0.27404 0.35941 0.76726 0.0
C1156 C 0.27291 0.32417 0.74426 0.0
C1157 C 0.27809 0.3436 0.77439 0.0
C1158 C 0.26952 0.35748 0.74809 0.0
C1159 C 0.26842 0.33952 0.73639 0.0
O1160 O 0.26946 0.30814 0.79427 0.0
O1161 O 0.30702 0.2967 0.79299 0.0
O1162 O 0.30893 0.26398 0.78787 0.0
O1163 O 0.28277 0.26818 0.77222 0.0
O1164 O 0.2955 0.32022 0.79961 0.0
O1165 O 0.26055 0.28209 0.77395 0.0
O1166 O 0.34639 0.27669 0.7607 0.0
O1167 O 0.3089 0.29168 0.75994 0.0
O1168 O 0.30615 0.32616 0.76781 0.0
O1169 O 0.33358 0.31973 0.77874 0.0
O1170 O 0.3199 0.26762 0.7539 0.0
O1171 O 0.35473 0.3056 0.77673 0.0
C1172 C 0.30717 0.31139 0.80551 0.0
C1173 C 0.23787 0.29747 0.78662 0.0
C1174 C 0.20877 0.29894 0.79965 0.0
C1175 C 0.2262 0.29468 0.80093 0.0
C1176 C 0.20328 0.30577 0.78369 0.0
C1177 C 0.23195 0.30433 0.77097 0.0
C1178 C 0.21476 0.30842 0.76953 0.0
C1179 C 0.29174 0.25724 0.78068 0.0
C1180 C 0.25619 0.29333 0.78815 0.0
C1181 C 0.26209 0.33613 0.71738 0.0
C1182 C 0.259 0.31725 0.70678 0.0
C1183 C 0.30876 0.27682 0.74755 0.0
C1184 C 0.37796 0.28939 0.76738 0.0
C1185 C 0.38992 0.29147 0.75323 0.0
C1186 C 0.40785 0.28883 0.75588 0.0
C1187 C 0.41349 0.28426 0.77303 0.0
C1188 C 0.38402 0.28473 0.78421 0.0
C1189 C 0.40167 0.28221 0.78699 0.0
C1190 C 0.32398 0.33165 0.77274 0.0
C1191 C 0.3593 0.29229 0.76455 0.0
H1192 H 0.2308 0.2895 0.81312 0.0
H1193 H 0.18993 0.30886 0.78199 0.0
H1194 H 0.24059 0.30647 0.75981 0.0
H1195 H 0.21028 0.31363 0.75734 0.0
H1196 H 0.38518 0.29492 0.74015 0.0
H1197 H 0.4272 0.28254 0.77584 0.0
H1198 H 0.37515 0.28317 0.79524 0.0
H1199 H 0.40627 0.27875 0.80009 0.0
Tb1200 Tb 0.05058 0.06767 0.53687 0.0
C1201 C 0.0823 0.02432 0.47369 0.0
C1202 C 0.0587 0.01611 0.44813 0.0
C1203 C 0.09025 0.0203 0.44158 0.0
C1204 C 0.06422 0.02061 0.46748 0.0
C1205 C 0.09554 0.02373 0.46085 0.0
C1206 C 0.07184 0.01651 0.43523 0.0
C1207 C 0.11794 0.02795 0.48695 0.0
N1208 N 0.08678 0.02726 0.49239 0.0
C1209 C 0.1043 0.02843 0.49912 0.0
C1210 C 0.11359 0.02588 0.46774 0.0
Tb1211 Tb 0.06348 0.02773 0.51129 0.0
N1212 N 0.05199 0.02004 0.48041 0.0
C1213 C 0.0339 0.01342 0.47476 0.0
C1214 C 0.04016 0.01061 0.44236 0.0
C1215 C 0.02772 1.00894 0.45575 0.0
H1216 H 0.10796 0.03018 0.51393 0.0
H1217 H 0.01335 1.00427 0.45145 0.0
H1218 H 0.06788 0.0133 0.42032 0.0
H1219 H 0.1318 0.02927 0.4924 0.0
H1220 H 0.02399 0.01203 0.48481 0.0
H1221 H 0.10009 0.08949 0.59772 0.0
H1222 H 0.03535 1.00709 0.42764 0.0
H1223 H 1.00693 0.07138 0.53466 0.0
H1224 H 0.09028 0.08444 0.56449 0.0
H1225 H 0.98311 0.07187 0.55618 0.0
H1226 H 0.10023 0.01997 0.43148 0.0
H1227 H 0.07765 0.08358 0.62063 0.0
H1228 H 0.04505 0.07643 0.62721 0.0
H1229 H 0.12416 0.02547 0.45833 0.0
H1230 H 0.01301 0.07186 0.61588 0.0
N1231 N 0.06215 0.07425 0.56769 0.0
C1232 C 0.08007 0.08146 0.57393 0.0
C1233 C 0.07313 0.08112 0.60587 0.0
C1234 C 0.05469 0.07573 0.59967 0.0
C1235 C 0.08583 0.08453 0.59299 0.0
C1236 C 0.04953 0.07267 0.58029 0.0
H1237 H 0.98989 0.07089 0.58955 0.0
N1238 N 0.02718 0.06932 0.5554 0.0
C1239 C 0.99659 0.07118 0.56132 0.0
C1240 C 0.03145 0.07021 0.57394 0.0
C1241 C 0.0102 0.07081 0.54911 0.0
C1242 C 1.00046 0.07056 0.58013 0.0
C1243 C 0.01815 0.07055 0.58676 0.0
O1244 O 0.05791 0.09023 0.5215 0.0
O1245 O 0.05097 0.05233 0.50814 0.0
O1246 O 0.08139 0.05387 0.50548 0.0
O1247 O 0.07977 0.07373 0.53349 0.0
O1248 O 0.02842 0.06234 0.51429 0.0
O1249 O 0.04998 0.09642 0.54921 0.0
O1250 O 0.07576 1.00567 0.51817 0.0
O1251 O 0.06185 0.04234 0.54034 0.0
O1252 O 0.02908 0.04295 0.53981 0.0
O1253 O 0.03513 0.01874 0.51709 0.0
O1254 O 0.08453 0.03256 0.53493 0.0
O1255 O 0.04812 0.9989 0.50586 0.0
C1256 C 0.03554 0.05367 0.50055 0.0
C1257 C 0.04241 0.11567 0.52765 0.0
C1258 C 0.03794 0.13883 0.50759 0.0
C1259 C 0.04837 0.12662 0.51397 0.0
C1260 C 0.02126 0.13971 0.51491 0.0
C1261 C 0.02585 0.11703 0.535 0.0
C1262 C 0.0153 0.12886 0.52852 0.0
C1263 C 0.0879 0.06971 0.51815 0.0
C1264 C 0.0539 0.10332 0.5342 0.0
C1265 C 0.02309 0.0719 0.60587 0.0
C1266 C 0.04133 0.07447 0.61232 0.0
C1267 C 0.07688 0.04061 0.54847 0.0
C1268 C 0.06431 0.97378 0.50135 0.0
C1269 C 0.05849 0.95682 0.50852 0.0
C1270 C 0.06224 0.93911 0.50005 0.0
C1271 C 0.0717 0.9384 0.48399 0.0
C1272 C 0.07351 0.97299 0.48513 0.0
C1273 C 0.0771 0.95528 0.47644 0.0
C1274 C 0.02482 0.02523 0.52964 0.0
C1275 C 0.06144 0.99202 0.51203 0.0
H1276 H 0.06137 0.12598 0.50864 0.0
H1277 H 0.01283 0.14879 0.51011 0.0
H1278 H 0.02109 0.10913 0.54585 0.0
H1279 H 1.00251 0.12975 0.53417 0.0
H1280 H 0.05165 0.95756 0.52125 0.0
H1281 H 0.07492 0.92489 0.4774 0.0
H1282 H 0.07815 0.98597 0.4794 0.0
H1283 H 0.08434 0.95471 0.46402 0.0
Tb1284 Tb 0.32576 0.80981 0.76923 0.0
C1285 C 0.27652 0.74975 0.80373 0.0
C1286 C 0.28831 0.72077 0.79527 0.0
C1287 C 0.27322 0.7254 0.82375 0.0
C1288 C 0.28589 0.73905 0.79193 0.0
C1289 C 0.26958 0.74279 0.81949 0.0
C1290 C 0.28254 0.71437 0.81161 0.0
C1291 C 0.25366 0.76896 0.82392 0.0
N1292 N 0.27286 0.76617 0.7988 0.0
C1293 C 0.26062 0.77508 0.80799 0.0
C1294 C 0.25845 0.75298 0.82994 0.0
Tb1295 Tb 0.28603 0.77582 0.77315 0.0
N1296 N 0.29091 0.7456 0.77614 0.0
C1297 C 0.29658 0.73344 0.76215 0.0
C1298 C 0.29546 0.70901 0.7816 0.0
C1299 C 0.29917 0.71517 0.76476 0.0
H1300 H 0.25626 0.78709 0.80336 0.0
H1301 H 0.30417 0.70594 0.75381 0.0
H1302 H 0.28453 0.70052 0.81457 0.0
H1303 H 0.24443 0.77646 0.83144 0.0
H1304 H 0.29954 0.73789 0.74902 0.0
H1305 H 0.31018 0.88037 0.79188 0.0
H1306 H 0.29748 0.69486 0.78359 0.0
H1307 H 0.35017 0.79559 0.73457 0.0
H1308 H 0.31421 0.84778 0.79529 0.0
H1309 H 0.36112 0.80682 0.70639 0.0
H1310 H 0.2682 0.71993 0.83592 0.0
H1311 H 0.31631 0.89231 0.76239 0.0
H1312 H 0.32798 0.88708 0.73069 0.0
H1313 H 0.25285 0.74812 0.84214 0.0
H1314 H 0.34209 0.86709 0.70742 0.0
N1315 N 0.32193 0.84068 0.76767 0.0
C1316 C 0.31693 0.85265 0.78227 0.0
C1317 C 0.31805 0.8779 0.76376 0.0
C1318 C 0.32442 0.8662 0.74937 0.0
C1319 C 0.31465 0.87124 0.78044 0.0
C1320 C 0.3264 0.84753 0.75189 0.0
H1321 H 0.35488 0.83733 0.69845 0.0
N1322 N 0.33708 0.81915 0.74263 0.0
C1323 C 0.35352 0.81524 0.71537 0.0
C1324 C 0.33435 0.8364 0.73891 0.0
C1325 C 0.34721 0.80891 0.73147 0.0
C1326 C 0.34992 0.83243 0.7109 0.0
C1327 C 0.34051 0.84343 0.72289 0.0
O1328 O 0.35263 0.8077 0.775 0.0
O1329 O 0.31587 0.7805 0.77609 0.0
O1330 O 0.29679 0.78691 0.80195 0.0
O1331 O 0.31712 0.81489 0.79766 0.0
O1332 O 0.33689 0.78381 0.76012 0.0
O1333 O 0.34264 0.8315 0.78976 0.0
O1334 O 0.26111 0.77924 0.76133 0.0
O1335 O 0.29614 0.80538 0.76718 0.0
O1336 O 0.31203 0.80029 0.74111 0.0
O1337 O 0.29651 0.77031 0.74573 0.0
O1338 O 0.27479 0.80176 0.78266 0.0
O1339 O 0.26868 0.75178 0.7557 0.0
C1340 C 0.32727 0.7711 0.76816 0.0
C1341 C 0.37412 0.83652 0.78631 0.0
C1342 C 0.40614 0.84553 0.79795 0.0
C1343 C 0.38795 0.83739 0.80011 0.0
C1344 C 0.40985 0.85432 0.78219 0.0
C1345 C 0.378 0.84552 0.77091 0.0
C1346 C 0.39581 0.85465 0.76904 0.0
C1347 C 0.30779 0.80393 0.80833 0.0
C1348 C 0.35657 0.8237 0.78731 0.0
C1349 C 0.33763 0.86151 0.71974 0.0
C1350 C 0.32959 0.87288 0.73297 0.0
C1351 C 0.28497 0.81487 0.77546 0.0
C1352 C 0.23764 0.7515 0.75784 0.0
C1353 C 0.22274 0.75709 0.74997 0.0
C1354 C 0.20508 0.74943 0.75406 0.0
C1355 C 0.20249 0.73565 0.76594 0.0
C1356 C 0.23487 0.7377 0.76966 0.0
C1357 C 0.21734 0.72981 0.77364 0.0
C1358 C 0.30323 0.78223 0.73457 0.0
C1359 C 0.25583 0.76097 0.75397 0.0
H1360 H 0.38436 0.83095 0.8122 0.0
H1361 H 0.42356 0.86044 0.77956 0.0
H1362 H 0.36747 0.84508 0.76015 0.0
H1363 H 0.39884 0.86135 0.75697 0.0
H1364 H 0.225 0.76748 0.74059 0.0
H1365 H 0.18907 0.7296 0.7695 0.0
H1366 H 0.24618 0.73309 0.77586 0.0
H1367 H 0.21526 0.71926 0.78283 0.0
Tb1368 Tb 0.56629 0.03242 0.04812 0.0
C1369 C 0.50777 0.04834 0.99278 0.0
C1370 C 0.4892 0.01647 0.98007 0.0
C1371 C 0.47635 0.04515 0.98134 0.0
C1372 C 0.50588 0.02851 0.98828 0.0
C1373 C 0.4932 0.05703 0.98898 0.0
C1374 C 0.47434 0.02487 0.97693 0.0
C1375 C 0.51348 0.08847 0.99902 0.0
N1376 N 0.52428 0.05921 1.00001 0.0
C1377 C 0.52751 0.07912 1.00252 0.0
C1378 C 0.49618 0.07738 0.99245 0.0
Tb1379 Tb 0.54658 0.04283 1.00529 0.0
N1380 N 0.52058 0.02107 0.99156 0.0
C1381 C 0.51974 1.0016 0.98579 0.0
C1382 C 0.48806 0.99644 0.97502 0.0
C1383 C 0.50346 0.98901 0.97772 0.0
H1384 H 0.54078 0.08788 1.0077 0.0
H1385 H 0.50282 0.97356 0.97361 0.0
H1386 H 0.46136 0.01586 0.97077 0.0
H1387 H 0.51603 0.10422 1.00143 0.0
H1388 H 0.53141 0.99548 0.98777 0.0
H1389 H 0.60661 0.09926 0.08923 0.0
H1390 H 0.47548 0.98666 0.96874 0.0
H1391 H 0.57401 0.98786 0.03883 0.0
H1392 H 0.57973 0.07869 0.0702 0.0
H1393 H 0.59956 0.97188 0.04282 0.0
H1394 H 0.46492 0.0515 0.97846 0.0
H1395 H 0.63375 0.08602 0.09456 0.0
H1396 H 0.64946 0.05818 0.08814 0.0
H1397 H 0.48535 0.08464 0.9897 0.0
H1398 H 0.6478 0.02368 0.07489 0.0
N1399 N 0.59145 0.05384 0.06392 0.0
C1400 C 0.59144 0.0726 0.07203 0.0
C1401 C 0.62207 0.07697 0.08575 0.0
C1402 C 0.62209 0.05783 0.07747 0.0
C1403 C 0.60674 0.08443 0.0829 0.0
C1404 C 0.60629 0.04643 0.06672 0.0
H1405 H 0.62922 0.99135 0.058 0.0
N1406 N 0.58931 0.01632 0.0507 0.0
C1407 C 0.60138 0.98743 0.04755 0.0
C1408 C 0.60528 0.02705 0.0596 0.0
C1409 C 0.58693 0.99654 0.04534 0.0
C1410 C 0.61811 0.99848 0.05607 0.0
C1411 C 0.62012 0.01847 0.06258 0.0
O1412 O 0.55661 0.01221 0.06514 0.0
O1413 O 0.54289 0.02747 0.02836 0.0
O1414 O 0.5327 0.05592 0.028 0.0
O1415 O 0.55335 0.05753 0.05371 0.0
O1416 O 0.54768 1.00405 0.03851 0.0
O1417 O 0.55915 0.04317 0.07464 0.0
O1418 O 0.55829 0.06081 0.98702 0.0
O1419 O 0.56925 0.04878 0.026 0.0
O1420 O 0.58194 0.02359 0.02528 0.0
O1421 O 0.55914 0.01731 1.00102 0.0
O1422 O 0.56532 0.07146 0.01402 0.0
O1423 O 0.55292 0.0295 0.97929 0.0
C1424 C 0.53627 0.00977 0.02827 0.0
C1425 C 0.56206 0.02429 0.09765 0.0
C1426 C 0.55676 0.02547 0.13042 0.0
C1427 C 0.5509 0.02659 0.11212 0.0
C1428 C 0.57419 0.02227 0.13416 0.0
C1429 C 0.57934 0.02084 0.10142 0.0
C1430 C 0.58539 0.01991 0.11966 0.0
C1431 C 0.53913 0.06241 0.04577 0.0
C1432 C 0.55516 0.02588 0.07894 0.0
C1433 C 0.63621 0.02996 0.07251 0.0
C1434 C 0.63715 0.04959 0.08006 0.0
C1435 C 0.57566 0.06649 0.02601 0.0
C1436 C 0.55234 0.04714 0.95489 0.0
C1437 C 0.56475 0.04763 0.94134 0.0
C1438 C 0.55919 0.04782 0.92265 0.0
C1439 C 0.54093 0.04777 0.91781 0.0
C1440 C 0.53421 0.04709 0.94987 0.0
C1441 C 0.52856 0.04746 0.93139 0.0
C1442 C 0.57498 0.01526 1.00811 0.0
C1443 C 0.55867 0.04604 0.97397 0.0
H1444 H 0.53765 0.02953 0.10912 0.0
H1445 H 0.57903 0.02134 0.14817 0.0
H1446 H 0.5881 0.01886 0.09039 0.0
H1447 H 0.59875 0.0173 0.12256 0.0
H1448 H 0.5788 0.04796 0.94546 0.0
H1449 H 0.53613 0.04768 0.90351 0.0
H1450 H 0.52445 0.04667 0.96013 0.0
H1451 H 0.51453 0.04734 0.92754 0.0
Tb1452 Tb 0.32429 0.32054 0.28713 0.0
C1453 C 0.25528 0.25917 0.26494 0.0
C1454 C 0.25068 0.23165 0.28092 0.0
C1455 C 0.22471 0.24292 0.26966 0.0
C1456 C 0.26227 0.24658 0.27409 0.0
C1457 C 0.23634 0.25733 0.2624 0.0
C1458 C 0.23187 0.23011 0.27893 0.0
C1459 C 0.24168 0.28345 0.24494 0.0
N1460 N 0.26702 0.27286 0.2581 0.0
C1461 C 0.26032 0.28467 0.24776 0.0
C1462 C 0.22963 0.26979 0.25234 0.0
Tb1463 Tb 0.29754 0.27349 0.26378 0.0
N1464 N 0.28046 0.24849 0.27565 0.0
C1465 C 0.28792 0.23502 0.28288 0.0
C1466 C 0.25832 0.21843 0.2891 0.0
C1467 C 0.27702 0.21998 0.28988 0.0
H1468 H 0.26902 0.29565 0.24199 0.0
H1469 H 0.28306 0.20965 0.29591 0.0
H1470 H 0.22274 0.21883 0.28419 0.0
H1471 H 0.23663 0.29313 0.23705 0.0
H1472 H 0.30242 0.2362 0.28366 0.0
H1473 H 0.34045 0.38194 0.25165 0.0
H1474 H 0.24988 0.20675 0.2945 0.0
H1475 H 0.35195 0.29982 0.31177 0.0
H1476 H 0.32044 0.35698 0.26531 0.0
H1477 H 0.38422 0.30168 0.3171 0.0
H1478 H 0.21015 0.24139 0.26794 0.0
H1479 H 0.37347 0.38374 0.25331 0.0
H1480 H 0.40007 0.3717 0.26501 0.0
H1481 H 0.21519 0.2688 0.25001 0.0
H1482 H 0.41194 0.35016 0.28317 0.0
N1483 N 0.34186 0.34432 0.27412 0.0
C1484 C 0.33487 0.35767 0.26612 0.0
C1485 C 0.36474 0.37272 0.25925 0.0
C1486 C 0.37193 0.35981 0.26835 0.0
C1487 C 0.34613 0.37179 0.25834 0.0
C1488 C 0.35998 0.34568 0.27583 0.0
H1489 H 0.40616 0.324 0.30251 0.0
N1490 N 0.35457 0.32077 0.29356 0.0
C1491 C 0.37945 0.31073 0.30827 0.0
C1492 C 0.36658 0.33352 0.28593 0.0
C1493 C 0.36089 0.30983 0.30515 0.0
C1494 C 0.39179 0.32328 0.29998 0.0
C1495 C 0.38545 0.3351 0.28887 0.0
O1496 O 0.3235 0.32677 0.31649 0.0
O1497 O 0.29808 0.30127 0.2808 0.0
O1498 O 0.29895 0.29482 0.24482 0.0
O1499 O 0.32428 0.31945 0.25674 0.0
O1500 O 0.29918 0.32966 0.27989 0.0
O1501 O 0.32351 0.34889 0.29989 0.0
O1502 O 0.29728 0.2683 0.2343 0.0
O1503 O 0.32376 0.29274 0.27049 0.0
O1504 O 0.32199 0.29966 0.3067 0.0
O1505 O 0.29777 0.27373 0.29403 0.0
O1506 O 0.32276 0.26436 0.27098 0.0
O1507 O 0.30013 0.2461 0.24995 0.0
C1508 C 0.28826 0.31307 0.27877 0.0
C1509 C 0.30493 0.34951 0.3249 0.0
C1510 C 0.28075 0.36783 0.32575 0.0
C1511 C 0.29502 0.36128 0.31691 0.0
C1512 C 0.27597 0.36153 0.3425 0.0
C1513 C 0.29985 0.34344 0.34155 0.0
C1514 C 0.28533 0.34927 0.35016 0.0
C1515 C 0.31167 0.31014 0.24306 0.0
C1516 C 0.32083 0.34415 0.3161 0.0
C1517 C 0.39742 0.34875 0.28104 0.0
C1518 C 0.39067 0.36101 0.27071 0.0
C1519 C 0.33361 0.28107 0.27276 0.0
C1520 C 0.31885 0.24924 0.2254 0.0
C1521 C 0.32855 0.23614 0.23119 0.0
C1522 C 0.3458 0.23528 0.2254 0.0
C1523 C 0.35287 0.24692 0.21261 0.0
C1524 C 0.32621 0.26087 0.21272 0.0
C1525 C 0.34306 0.25955 0.20627 0.0
C1526 C 0.30965 0.28382 0.30811 0.0
C1527 C 0.30197 0.25171 0.23399 0.0
H1528 H 0.29851 0.36539 0.30372 0.0
H1529 H 0.26532 0.3664 0.35001 0.0
H1530 H 0.30717 0.33432 0.34797 0.0
H1531 H 0.28154 0.3446 0.36306 0.0
H1532 H 0.32281 0.22682 0.24067 0.0
H1533 H 0.36611 0.2466 0.20784 0.0
H1534 H 0.31912 0.27118 0.20804 0.0
H1535 H 0.3487 0.26865 0.19661 0.0
Tb1536 Tb 0.55216 0.56872 0.0379 0.0
C1537 C 0.58582 0.52351 0.9765 0.0
C1538 C 0.5629 0.51469 0.9503 0.0
C1539 C 0.59466 0.51832 0.94474 0.0
C1540 C 0.56791 0.51978 0.96974 0.0
C1541 C 0.59943 0.52245 0.96414 0.0
C1542 C 0.57639 0.51445 0.93783 0.0
C1543 C 0.62121 0.52803 0.99098 0.0
N1544 N 0.5898 0.52727 0.9953 0.0
C1545 C 0.60723 0.52894 1.00267 0.0
C1546 C 0.61734 0.52502 0.97163 0.0
Tb1547 Tb 0.56599 0.5288 0.01344 0.0
N1548 N 0.55534 0.51992 0.98229 0.0
C1549 C 0.53733 0.51346 0.97618 0.0
C1550 C 0.54448 0.50933 0.94403 0.0
C1551 C 0.53164 0.50839 0.95705 0.0
H1552 H 0.61059 0.53139 0.01756 0.0
H1553 H 0.51735 0.50383 0.95238 0.0
H1554 H 0.57282 0.51076 0.92285 0.0
H1555 H 0.63498 0.52973 0.99694 0.0
H1556 H 0.52707 0.51256 0.98587 0.0
H1557 H 0.60512 0.59575 0.09583 0.0
H1558 H 0.54005 0.50536 0.92922 0.0
H1559 H 0.50758 0.56665 0.03785 0.0
H1560 H 0.59347 0.58833 0.06322 0.0
H1561 H 0.48513 0.5674 0.06096 0.0
H1562 H 0.60492 0.5176 0.93501 0.0
H1563 H 0.58442 0.59125 0.12053 0.0
H1564 H 0.55265 0.58362 0.12936 0.0
H1565 H 0.6282 0.52429 0.96261 0.0
H1566 H 0.51994 0.57623 0.11994 0.0
N1567 N 0.56569 0.57833 0.06824 0.0
C1568 C 0.58382 0.58595 0.07329 0.0
C1569 C 0.57901 0.58776 0.10598 0.0
C1570 C 0.56039 0.58157 0.10099 0.0
C1571 C 0.59071 0.59037 0.09209 0.0
C1572 C 0.55404 0.57711 0.08181 0.0
H1573 H 0.49473 0.57086 0.09457 0.0
N1574 N 0.52999 0.56989 0.0581 0.0
C1575 C 0.49926 0.56887 0.06554 0.0
C1576 C 0.5356 0.57286 0.07657 0.0
C1577 C 0.5121 0.5686 0.05248 0.0
C1578 C 0.50472 0.57072 0.08448 0.0
C1579 C 0.52309 0.57306 0.09025 0.0
O1580 O 0.56287 0.59233 0.02493 0.0
O1581 O 0.55293 0.55291 0.00939 0.0
O1582 O 0.58384 0.55449 1.00685 0.0
O1583 O 0.58123 0.57601 0.03361 0.0
O1584 O 0.52967 0.5612 0.0155 0.0
O1585 O 0.54333 0.59502 0.04471 0.0
O1586 O 0.57792 0.50739 0.02245 0.0
O1587 O 0.5639 0.54411 0.0421 0.0
O1588 O 0.53277 0.5429 0.04261 0.0
O1589 O 0.53738 0.51999 0.018 0.0
O1590 O 0.58707 0.53531 0.03727 0.0
O1591 O 0.55065 0.50003 0.00916 0.0
C1592 C 0.53727 0.55334 1.00176 0.0
C1593 C 0.54118 0.60989 0.01812 0.0
C1594 C 0.54059 0.62839 0.99283 0.0
C1595 C 0.55026 0.62222 1.00689 0.0
C1596 C 0.52164 0.62188 0.99007 0.0
C1597 C 0.52222 0.6037 0.0152 0.0
C1598 C 0.51256 0.6096 1.00119 0.0
C1599 C 0.5899 0.57096 0.01885 0.0
C1600 C 0.55185 0.60271 0.03189 0.0
C1601 C 0.52935 0.5763 0.10925 0.0
C1602 C 0.54797 0.5805 0.11461 0.0
C1603 C 0.5791 0.54337 0.05048 0.0
C1604 C 0.56622 0.4745 0.00839 0.0
C1605 C 0.5603 0.45906 0.01768 0.0
C1606 C 0.56276 0.44029 0.01075 0.0
C1607 C 0.57143 0.43721 0.99426 0.0
C1608 C 0.57468 0.47132 0.99187 0.0
C1609 C 0.57727 0.45266 0.98485 0.0
C1610 C 0.52792 0.5256 0.03173 0.0
C1611 C 0.56355 0.49366 0.01688 0.0
H1612 H 0.56491 0.62674 0.00893 0.0
H1613 H 0.51377 0.62657 0.97955 0.0
H1614 H 0.51484 0.59417 0.02358 0.0
H1615 H 0.49797 0.6047 0.99898 0.0
H1616 H 0.55405 0.4618 0.03064 0.0
H1617 H 0.57351 0.42287 0.98858 0.0
H1618 H 0.57934 0.48316 0.98455 0.0
H1619 H 0.58385 0.45017 0.97212 0.0
Tb1620 Tb 0.82373 0.31204 0.26854 0.0
C1621 C 0.78275 0.26643 0.32108 0.0
C1622 C 0.7922 0.23568 0.31782 0.0
C1623 C 0.78276 0.24957 0.34748 0.0
C1624 C 0.78952 0.25202 0.31039 0.0
C1625 C 0.77905 0.26521 0.33968 0.0
C1626 C 0.78928 0.23481 0.33656 0.0
C1627 C 0.76707 0.2942 0.34108 0.0
N1628 N 0.77917 0.28128 0.31299 0.0
C1629 C 0.7709 0.29481 0.3226 0.0
C1630 C 0.77132 0.27947 0.34973 0.0
Tb1631 Tb 0.78645 0.28049 0.28258 0.0
N1632 N 0.79197 0.25319 0.29224 0.0
C1633 C 0.79516 0.23754 0.28031 0.0
C1634 C 0.79688 0.22026 0.30594 0.0
C1635 C 0.79791 0.221 0.287 0.0
H1636 H 0.76776 0.3066 0.31649 0.0
H1637 H 0.80091 0.20888 0.27754 0.0
H1638 H 0.79148 0.22249 0.34257 0.0
H1639 H 0.76093 0.3052 0.3487 0.0
H1640 H 0.79576 0.2377 0.26561 0.0
H1641 H 0.80679 0.38231 0.27204 0.0
H1642 H 0.79901 0.20743 0.31108 0.0
H1643 H 0.84382 0.28672 0.23527 0.0
H1644 H 0.81392 0.35456 0.28475 0.0
H1645 H 0.85048 0.28777 0.20299 0.0
H1646 H 0.78014 0.24848 0.36179 0.0
H1647 H 0.80769 0.3828 0.23821 0.0
H1648 H 0.81557 0.36758 0.2069 0.0
H1649 H 0.76831 0.27906 0.36405 0.0
H1650 H 0.82806 0.34212 0.18826 0.0
N1651 N 0.81723 0.3386 0.25821 0.0
C1652 C 0.81386 0.3543 0.2699 0.0
C1653 C 0.81054 0.37041 0.24368 0.0
C1654 C 0.81575 0.35516 0.23208 0.0
C1655 C 0.81004 0.37021 0.26278 0.0
C1656 C 0.81929 0.33938 0.23993 0.0
H1657 H 0.84155 0.31264 0.18683 0.0
N1658 N 0.83092 0.31097 0.23805 0.0
C1659 C 0.84371 0.29836 0.21028 0.0
C1660 C 0.82662 0.32525 0.22954 0.0
C1661 C 0.83993 0.29793 0.22881 0.0
C1662 C 0.8386 0.31239 0.20119 0.0
C1663 C 0.83016 0.32622 0.21087 0.0
O1664 O 0.84677 0.31526 0.28747 0.0
O1665 O 0.81485 0.28343 0.27667 0.0
O1666 O 0.80351 0.29715 0.30765 0.0
O1667 O 0.81608 0.32451 0.29585 0.0
O1668 O 0.83919 0.28844 0.2667 0.0
O1669 O 0.84456 0.33714 0.27118 0.0
O1670 O 0.76452 0.27751 0.26228 0.0
O1671 O 0.79555 0.30927 0.27505 0.0
O1672 O 0.80694 0.29489 0.24352 0.0
O1673 O 0.79456 0.2677 0.25562 0.0
O1674 O 0.77102 0.30416 0.28465 0.0
O1675 O 0.76445 0.25653 0.28017 0.0
C1676 C 0.82863 0.27537 0.27365 0.0
C1677 C 0.87343 0.3303 0.27585 0.0
C1678 C 0.90438 0.32706 0.28301 0.0
C1679 C 0.88708 0.32814 0.28863 0.0
C1680 C 0.90782 0.3281 0.26438 0.0
C1681 C 0.8772 0.33147 0.25732 0.0
C1682 C 0.8943 0.33032 0.25166 0.0
C1683 C 0.8119 0.31566 0.31012 0.0
C1684 C 0.85526 0.33076 0.28192 0.0
C1685 C 0.8256 0.34124 0.20264 0.0
C1686 C 0.81842 0.35569 0.21323 0.0
C1687 C 0.78178 0.3173 0.278 0.0
C1688 C 0.73657 0.26488 0.27319 0.0
C1689 C 0.72385 0.26723 0.25946 0.0
C1690 C 0.70648 0.26953 0.264 0.0
C1691 C 0.70208 0.26958 0.28253 0.0
C1692 C 0.73181 0.26489 0.2916 0.0
C1693 C 0.71468 0.26726 0.29619 0.0
C1694 C 0.79891 0.27628 0.24124 0.0
C1695 C 0.75485 0.26292 0.26831 0.0
H1696 H 0.88425 0.3275 0.30297 0.0
H1697 H 0.92091 0.32701 0.25957 0.0
H1698 H 0.86698 0.33321 0.24717 0.0
H1699 H 0.89706 0.3311 0.23735 0.0
H1700 H 0.72743 0.26707 0.24523 0.0
H1701 H 0.68895 0.27163 0.28654 0.0
H1702 H 0.74129 0.26312 0.3025 0.0
H1703 H 0.71116 0.26736 0.31041 0.0
Tb1704 Tb 0.06926 0.54852 0.55302 0.0
C1705 C 1.00548 0.55505 0.49895 0.0
C1706 C 0.98599 0.52286 0.49119 0.0
C1707 C 0.9733 0.55139 0.49047 0.0
C1708 C 1.00324 0.53515 0.49678 0.0
C1709 C 0.99064 0.56346 0.49545 0.0
C1710 C 0.97098 0.53111 0.48837 0.0
C1711 C 0.01145 0.59485 0.50059 0.0
N1712 N 0.02245 0.56613 0.50365 0.0
C1713 C 0.02574 0.58578 0.5038 0.0
C1714 C 0.99378 0.58367 0.4966 0.0
Tb1715 Tb 0.04502 0.55003 0.50876 0.0
N1716 N 0.01809 0.52781 0.4997 0.0
C1717 C 0.01672 0.50808 0.4962 0.0
C1718 C 0.98442 0.50268 0.48839 0.0
C1719 C 0.9999 0.49527 0.49074 0.0
H1720 H 0.03931 0.59461 0.50693 0.0
H1721 H 0.99888 0.47968 0.48842 0.0
H1722 H 0.95759 0.52193 0.48423 0.0
H1723 H 0.01408 0.61045 0.50119 0.0
H1724 H 0.02846 0.50201 0.49803 0.0
H1725 H 0.11426 0.61927 0.57562 0.0
H1726 H 0.97141 0.49273 0.48418 0.0
H1727 H 0.07563 0.50427 0.55493 0.0
H1728 H 0.085 0.59658 0.56544 0.0
H1729 H 0.10121 0.4888 0.56037 0.0
H1730 H 0.96168 0.55757 0.48788 0.0
H1731 H 0.14214 0.60674 0.57901 0.0
H1732 H 0.15664 0.57791 0.57762 0.0
H1733 H 0.98274 0.59071 0.49404 0.0
H1734 H 0.1531 0.54229 0.57344 0.0
N1735 N 0.09596 0.57108 0.56239 0.0
C1736 C 0.09692 0.59071 0.56678 0.0
C1737 C 0.12929 0.59663 0.57438 0.0
C1738 C 0.12812 0.57653 0.57078 0.0
C1739 C 0.11357 0.60374 0.57258 0.0
C1740 C 0.11103 0.56402 0.56496 0.0
H1741 H 0.13241 0.50892 0.56728 0.0
N1742 N 0.09216 0.53291 0.55826 0.0
C1743 C 0.10363 0.5044 0.56103 0.0
C1744 C 0.10906 0.54417 0.56276 0.0
C1745 C 0.08914 0.51326 0.55802 0.0
C1746 C 0.12122 0.51579 0.56487 0.0
C1747 C 0.12409 0.53599 0.56607 0.0
O1748 O 0.06076 0.53471 0.57538 0.0
O1749 O 0.04454 0.53968 0.53486 0.0
O1750 O 0.03267 0.5658 0.53102 0.0
O1751 O 0.05691 0.57414 0.55425 0.0
O1752 O 0.05025 0.52025 0.55047 0.0
O1753 O 0.06483 0.56597 0.57775 0.0
O1754 O 0.05573 0.56393 0.4873 0.0
O1755 O 0.06973 0.55856 0.52691 0.0
O1756 O 0.08149 0.53275 0.5306 0.0
O1757 O 0.05715 0.52431 0.50751 0.0
O1758 O 0.06421 0.57836 0.51162 0.0
O1759 O 0.04656 0.53266 0.48277 0.0
C1760 C 0.03832 0.52318 0.53873 0.0
C1761 C 0.0678 0.554 0.60561 0.0
C1762 C 0.06193 0.55878 0.63842 0.0
C1763 C 0.05578 0.55543 0.61939 0.0
C1764 C 0.08051 0.56087 0.64351 0.0
C1765 C 0.08628 0.55595 0.61075 0.0
C1766 C 0.09258 0.55937 0.62969 0.0
C1767 C 0.04101 0.57614 0.54713 0.0
C1768 C 0.06045 0.55117 0.58614 0.0
C1769 C 0.14134 0.54828 0.57098 0.0
C1770 C 0.14335 0.56854 0.57336 0.0
C1771 C 0.07593 0.57521 0.52347 0.0
C1772 C 0.04506 0.5481 0.45664 0.0
C1773 C 0.05635 0.54881 0.4421 0.0
C1774 C 0.04971 0.5506 0.42426 0.0
C1775 C 0.0315 0.5516 0.42106 0.0
C1776 C 0.02683 0.54884 0.45327 0.0
C1777 C 0.02009 0.55056 0.43551 0.0
C1778 C 0.0729 0.52205 0.51475 0.0
C1779 C 0.05305 0.54769 0.47529 0.0
H1780 H 0.04156 0.55429 0.61524 0.0
H1781 H 0.08564 0.56342 0.65809 0.0
H1782 H 0.09574 0.55495 0.60021 0.0
H1783 H 0.10686 0.56091 0.63369 0.0
H1784 H 0.07051 0.54849 0.44482 0.0
H1785 H 0.0261 0.55301 0.40741 0.0
H1786 H 0.0179 0.54829 0.4643 0.0
H1787 H 1.00604 0.55122 0.43298 0.0
Tb1788 Tb 0.78775 0.802 0.27022 0.0
C1789 C 0.84367 0.7681 0.30938 0.0
C1790 C 0.85482 0.79208 0.33734 0.0
C1791 C 0.85394 0.75787 0.33753 0.0
C1792 C 0.84723 0.78711 0.31858 0.0
C1793 C 0.84743 0.75326 0.31853 0.0
C1794 C 0.85764 0.77728 0.34694 0.0
C1795 C 0.83998 0.73101 0.28894 0.0
N1796 N 0.83771 0.76441 0.291 0.0
C1797 C 0.83662 0.7463 0.28049 0.0
C1798 C 0.84515 0.73443 0.30812 0.0
Tb1799 Tb 0.8311 0.78999 0.27855 0.0
N1800 N 0.84454 0.8009 0.30866 0.0
C1801 C 0.85086 0.8202 0.31629 0.0
C1802 C 0.86 0.81177 0.34561 0.0
C1803 C 0.85836 0.8259 0.3349 0.0
H1804 H 0.83251 0.74342 0.26568 0.0
H1805 H 0.86276 0.84121 0.34099 0.0
H1806 H 0.86323 0.78077 0.36143 0.0
H1807 H 0.83858 0.7166 0.28066 0.0
H1808 H 0.84964 0.83145 0.30844 0.0
H1809 H 0.75793 0.75304 0.20587 0.0
H1810 H 0.86582 0.81622 0.36 0.0
H1811 H 0.78353 0.84732 0.28529 0.0
H1812 H 0.7703 0.76161 0.23874 0.0
H1813 H 0.77612 0.8745 0.27187 0.0
H1814 H 0.85673 0.74665 0.3449 0.0
H1815 H 0.7548 0.77894 0.18802 0.0
H1816 H 0.75641 0.8146 0.18825 0.0
H1817 H 0.84786 0.7226 0.31461 0.0
H1818 H 0.76119 0.84793 0.20642 0.0
N1819 N 0.77504 0.79232 0.23974 0.0
C1820 C 0.76905 0.7732 0.23135 0.0
C1821 C 0.76033 0.78284 0.20252 0.0
C1822 C 0.76495 0.8023 0.21163 0.0
C1823 C 0.76199 0.7682 0.21258 0.0
C1824 C 0.77217 0.80654 0.2305 0.0
H1825 H 0.76803 0.87033 0.23782 0.0
N1826 N 0.78022 0.82788 0.25904 0.0
C1827 C 0.77582 0.86071 0.26286 0.0
C1828 C 0.77482 0.82509 0.24058 0.0
C1829 C 0.78001 0.8452 0.27042 0.0
C1830 C 0.77134 0.85833 0.24364 0.0
C1831 C 0.77041 0.84021 0.23228 0.0
O1832 O 0.77063 0.8101 0.29072 0.0
O1833 O 0.80817 0.79873 0.29079 0.0
O1834 O 0.81039 0.76613 0.28637 0.0
O1835 O 0.78451 0.76991 0.26985 0.0
O1836 O 0.79661 0.82229 0.29655 0.0
O1837 O 0.76214 0.78363 0.2708 0.0
O1838 O 0.8483 0.77979 0.25916 0.0
O1839 O 0.81084 0.79337 0.2578 0.0
O1840 O 0.80803 0.82712 0.26391 0.0
O1841 O 0.83468 0.82197 0.278 0.0
O1842 O 0.82208 0.76949 0.25243 0.0
O1843 O 0.85653 0.80798 0.27656 0.0
C1844 C 0.80803 0.81354 0.30307 0.0
C1845 C 0.73907 0.79864 0.28314 0.0
C1846 C 0.70904 0.79717 0.29493 0.0
C1847 C 0.72683 0.79387 0.29652 0.0
C1848 C 0.704 0.80565 0.27988 0.0
C1849 C 0.73351 0.80687 0.26827 0.0
C1850 C 0.71611 0.8104 0.26672 0.0
C1851 C 0.79331 0.75924 0.27889 0.0
C1852 C 0.75758 0.795 0.28479 0.0
C1853 C 0.76443 0.83647 0.21315 0.0
C1854 C 0.76171 0.8175 0.20281 0.0
C1855 C 0.811 0.77845 0.24561 0.0
C1856 C 0.87984 0.79218 0.26639 0.0
C1857 C 0.8923 0.79627 0.25303 0.0
C1858 C 0.91022 0.79353 0.2555 0.0
C1859 C 0.9152 0.78634 0.27145 0.0
C1860 C 0.88532 0.78519 0.28213 0.0
C1861 C 0.90287 0.78225 0.28459 0.0
C1862 C 0.8255 0.83332 0.27036 0.0
C1863 C 0.86123 0.7953 0.26381 0.0
H1864 H 0.73107 0.78734 0.30793 0.0
H1865 H 0.69069 0.80884 0.27834 0.0
H1866 H 0.74262 0.81057 0.25785 0.0
H1867 H 0.71197 0.81688 0.25525 0.0
H1868 H 0.88812 0.80185 0.24094 0.0
H1869 H 0.92862 0.78363 0.2737 0.0
H1870 H 0.87603 0.78201 0.29253 0.0
H1871 H 0.90694 0.77674 0.29675 0.0
Tb1872 Tb 0.81655 0.28835 0.75591 0.0
C1873 C 0.78562 0.35122 0.79943 0.0
C1874 C 0.81133 0.3786 0.80702 0.0
C1875 C 0.78102 0.38433 0.80246 0.0
C1876 C 0.80414 0.35831 0.80275 0.0
C1877 C 0.77381 0.36418 0.79982 0.0
C1878 C 0.79976 0.39153 0.80611 0.0
C1879 C 0.74868 0.33668 0.79772 0.0
N1880 N 0.77914 0.33167 0.79735 0.0
C1881 C 0.7609 0.32442 0.7976 0.0
C1882 C 0.75513 0.3566 0.79845 0.0
Tb1883 Tb 0.8007 0.31308 0.79638 0.0
N1884 N 0.8149 0.34538 0.80377 0.0
C1885 C 0.83257 0.35191 0.81107 0.0
C1886 C 0.82969 0.38528 0.81325 0.0
C1887 C 0.84017 0.37184 0.81586 0.0
H1888 H 0.75557 0.30916 0.79739 0.0
H1889 H 0.85405 0.3767 0.82184 0.0
H1890 H 0.80509 0.40715 0.80903 0.0
H1891 H 0.73428 0.33076 0.79736 0.0
H1892 H 0.84108 0.34204 0.8134 0.0
H1893 H 0.78978 0.28875 0.68547 0.0
H1894 H 0.83565 0.40073 0.81699 0.0
H1895 H 0.82258 0.24924 0.77581 0.0
H1896 H 0.80662 0.30303 0.71607 0.0
H1897 H 0.81186 0.21434 0.76911 0.0
H1898 H 0.77218 0.39449 0.80255 0.0
H1899 H 0.77465 0.25383 0.67852 0.0
H1900 H 0.76899 0.22129 0.68831 0.0
H1901 H 0.74562 0.36607 0.7987 0.0
H1902 H 0.77533 0.20107 0.71096 0.0
N1903 N 0.8011 0.27654 0.72682 0.0
C1904 C 0.80041 0.28769 0.71324 0.0
C1905 C 0.78213 0.26002 0.69203 0.0
C1906 C 0.78392 0.24839 0.70538 0.0
C1907 C 0.79071 0.27969 0.69586 0.0
C1908 C 0.79382 0.25713 0.72278 0.0
H1909 H 0.79138 0.19832 0.74085 0.0
N1910 N 0.80794 0.25466 0.75173 0.0
C1911 C 0.80757 0.22303 0.75961 0.0
C1912 C 0.7974 0.24581 0.73559 0.0
C1913 C 0.81357 0.24331 0.76337 0.0
C1914 C 0.79601 0.21403 0.74367 0.0
C1915 C 0.79103 0.22535 0.73126 0.0
O1916 O 0.84497 0.29722 0.76085 0.0
O1917 O 0.82002 0.3154 0.77582 0.0
O1918 O 0.78422 0.31769 0.77211 0.0
O1919 O 0.79036 0.29529 0.74714 0.0
O1920 O 0.81944 0.31703 0.74812 0.0
O1921 O 0.83294 0.28081 0.73446 0.0
O1922 O 0.79763 0.29423 0.816 0.0
O1923 O 0.80048 0.28537 0.77882 0.0
O1924 O 0.8291 0.28172 0.78147 0.0
O1925 O 0.82852 0.30955 0.8025 0.0
O1926 O 0.7764 0.28968 0.78894 0.0
O1927 O 0.80109 0.32496 0.82493 0.0
C1928 C 0.82144 0.32729 0.76467 0.0
C1929 C 0.8588 0.30626 0.73486 0.0
C1930 C 0.86107 0.32942 0.7134 0.0
C1931 C 0.85116 0.31356 0.7203 0.0
C1932 C 0.87897 0.33773 0.72109 0.0
C1933 C 0.87671 0.31468 0.74224 0.0
C1934 C 0.88674 0.3303 0.73534 0.0
C1935 C 0.7809 0.30804 0.75455 0.0
C1936 C 0.84775 0.29132 0.74375 0.0
C1937 C 0.78039 0.21672 0.7144 0.0
C1938 C 0.77678 0.22822 0.70151 0.0
C1939 C 0.78385 0.27771 0.77854 0.0
C1940 C 0.78327 0.3044 0.84248 0.0
C1941 C 0.78362 0.29012 0.85345 0.0
C1942 C 0.7703 0.28609 0.86579 0.0
C1943 C 0.75649 0.29662 0.86699 0.0
C1944 C 0.76947 0.3149 0.84393 0.0
C1945 C 0.75611 0.31092 0.85609 0.0
C1946 C 0.83507 0.29381 0.79753 0.0
C1947 C 0.79767 0.3081 0.82995 0.0
H1948 H 0.83732 0.30732 0.71469 0.0
H1949 H 0.88702 0.34985 0.71598 0.0
H1950 H 0.88281 0.30943 0.75362 0.0
H1951 H 0.90052 0.33681 0.7412 0.0
H1952 H 0.79456 0.2824 0.8526 0.0
H1953 H 0.74596 0.29374 0.87628 0.0
H1954 H 0.76906 0.32622 0.83583 0.0
H1955 H 0.74547 0.319 0.85712 0.0
Tb1956 Tb 0.82469 0.81773 0.78234 0.0
C1957 C 0.75556 0.76515 0.73486 0.0
C1958 C 0.73058 0.76156 0.75415 0.0
C1959 C 0.72467 0.75927 0.72063 0.0
C1960 C 0.74936 0.7653 0.75222 0.0
C1961 C 0.74333 0.76175 0.71875 0.0
C1962 C 0.71829 0.75911 0.73833 0.0
C1963 C 0.76869 0.76127 0.70011 0.0
N1964 N 0.77358 0.76704 0.7337 0.0
C1965 C 0.78021 0.76435 0.71653 0.0
C1966 C 0.75018 0.7602 0.70123 0.0
Tb1967 Tb 0.79169 0.77257 0.76128 0.0
N1968 N 0.76171 0.76763 0.76705 0.0
C1969 C 0.75597 0.76462 0.78402 0.0
C1970 C 0.72474 0.75951 0.77172 0.0
C1971 C 0.73751 0.76064 0.78663 0.0
H1972 H 0.79452 0.76531 0.71545 0.0
H1973 H 0.73319 0.75848 0.80018 0.0
H1974 H 0.70382 0.75648 0.73954 0.0
H1975 H 0.77411 0.75973 0.68663 0.0
H1976 H 0.76552 0.76549 0.79576 0.0
H1977 H 0.88455 0.833 0.74543 0.0
H1978 H 0.71044 0.75649 0.7738 0.0
H1979 H 0.82112 0.82564 0.82814 0.0
H1980 H 0.85197 0.82695 0.74919 0.0
H1981 H 0.84088 0.83072 0.85728 0.0
H1982 H 0.71504 0.75681 0.70844 0.0
H1983 H 0.90645 0.83316 0.77195 0.0
H1984 H 0.91211 0.8318 0.80598 0.0
H1985 H 0.74125 0.75765 0.6885 0.0
H1986 H 0.90015 0.83137 0.83672 0.0
N1987 N 0.8549 0.82261 0.77733 0.0
C1988 C 0.8612 0.82666 0.76086 0.0
C1989 C 0.89207 0.83024 0.77362 0.0
C1990 C 0.88571 0.82755 0.79085 0.0
C1991 C 0.87976 0.83025 0.75867 0.0
C1992 C 0.86686 0.82409 0.79231 0.0
H1993 H 0.87361 0.83152 0.85608 0.0
N1994 N 0.84225 0.82304 0.81029 0.0
C1995 C 0.84653 0.82888 0.84392 0.0
C1996 C 0.86026 0.82429 0.8095 0.0
C1997 C 0.83537 0.82608 0.82731 0.0
C1998 C 0.86496 0.82921 0.84319 0.0
C1999 C 0.87213 0.82732 0.82584 0.0
O2000 O 0.82043 0.84481 0.79548 0.0
O2001 O 0.79702 0.80202 0.77607 0.0
O2002 O 0.78994 0.79543 0.74455 0.0
O2003 O 0.81931 0.81465 0.75161 0.0
O2004 O 0.80258 0.82334 0.79936 0.0
O2005 O 0.8288 0.8408 0.76747 0.0
O2006 O 0.79492 0.74517 0.74786 0.0
O2007 O 0.81934 0.78852 0.76673 0.0
O2008 O 0.82662 0.7949 0.79898 0.0
O2009 O 0.79725 0.7758 0.79202 0.0
O2010 O 0.81347 0.76635 0.74423 0.0
O2011 O 0.78866 0.74995 0.77669 0.0
C2012 C 0.78985 0.8107 0.78908 0.0
C2013 C 0.83649 0.87254 0.78513 0.0
C2014 C 0.83952 0.90681 0.78343 0.0
C2015 C 0.82936 0.88757 0.77983 0.0
C2016 C 0.8571 0.91085 0.79252 0.0
C2017 C 0.8541 0.87656 0.79398 0.0
C2018 C 0.86437 0.89573 0.79764 0.0
C2019 C 0.80381 0.80854 0.7406 0.0
C2020 C 0.8249 0.85297 0.7812 0.0
C2021 C 0.89081 0.82923 0.82436 0.0
C2022 C 0.89761 0.82942 0.80686 0.0
C2023 C 0.82639 0.77923 0.75395 0.0
C2024 C 0.77912 0.71812 0.75958 0.0
C2025 C 0.78447 0.70399 0.76836 0.0
C2026 C 0.77389 0.68499 0.76557 0.0
C2027 C 0.75765 0.68022 0.75386 0.0
C2028 C 0.76273 0.71344 0.74816 0.0
C2029 C 0.75202 0.6945 0.74536 0.0
C2030 C 0.81272 0.78194 0.80304 0.0
C2031 C 0.7913 0.73736 0.76255 0.0
H2032 H 0.8156 0.88431 0.77325 0.0
H2033 H 0.86518 0.92562 0.79556 0.0
H2034 H 0.8598 0.86501 0.79813 0.0
H2035 H 0.87795 0.89889 0.80455 0.0
H2036 H 0.79727 0.70768 0.77701 0.0
H2037 H 0.74936 0.66556 0.75136 0.0
H2038 H 0.75835 0.72429 0.74134 0.0
H2039 H 0.73944 0.69082 0.73644 0.0
Tb2040 Tb 0.53898 0.53371 0.51546 0.0
C2041 C 0.58887 0.58633 0.57781 0.0
C2042 C 0.59009 0.61981 0.57483 0.0
C2043 C 0.59575 0.61176 0.60548 0.0
C2044 C 0.5871 0.5999 0.56679 0.0
C2045 C 0.5932 0.59199 0.59726 0.0
C2046 C 0.5942 0.62565 0.59428 0.0
C2047 C 0.59199 0.55814 0.5988 0.0
N2048 N 0.58582 0.56734 0.56933 0.0
C2049 C 0.58769 0.55326 0.5794 0.0
C2050 C 0.5947 0.57758 0.60778 0.0
Tb2051 Tb 0.58028 0.56082 0.53752 0.0
N2052 N 0.58335 0.59361 0.54803 0.0
C2053 C 0.58436 0.60685 0.53641 0.0
C2054 C 0.58943 0.63326 0.56299 0.0
C2055 C 0.58685 0.62676 0.54365 0.0
H2056 H 0.58582 0.53829 0.57247 0.0
H2057 H 0.58731 0.63711 0.53429 0.0
H2058 H 0.59647 0.64088 0.60075 0.0
H2059 H 0.59327 0.54692 0.60678 0.0
H2060 H 0.58422 0.60209 0.52156 0.0
H2061 H 0.53096 0.45742 0.51921 0.0
H2062 H 0.59166 0.64871 0.56859 0.0
H2063 H 0.53481 0.55604 0.48009 0.0
H2064 H 0.53407 0.49248 0.5317 0.0
H2065 H 0.52934 0.54742 0.44556 0.0
H2066 H 0.59904 0.61646 0.62044 0.0
H2067 H 0.528 0.44571 0.48495 0.0
H2068 H 0.52496 0.45348 0.45252 0.0
H2069 H 0.59799 0.5813 0.6228 0.0
H2070 H 0.52376 0.47788 0.43246 0.0
N2071 N 0.53576 0.50084 0.50517 0.0
C2072 C 0.5342 0.48765 0.51688 0.0
C2073 C 0.53004 0.46117 0.49044 0.0
C2074 C 0.53005 0.47457 0.47845 0.0
C2075 C 0.53182 0.46772 0.50978 0.0
C2076 C 0.53273 0.49448 0.48638 0.0
H2077 H 0.52533 0.51305 0.42973 0.0
N2078 N 0.53426 0.52698 0.48355 0.0
C2079 C 0.53 0.5362 0.45373 0.0
C2080 C 0.53155 0.508 0.47514 0.0
C2081 C 0.53313 0.54106 0.47324 0.0
C2082 C 0.52769 0.51676 0.44484 0.0
C2083 C 0.5284 0.50235 0.45559 0.0
O2084 O 0.5144 0.54181 0.51002 0.0
O2085 O 0.55845 0.5616 0.51765 0.0
O2086 O 0.55922 0.56383 0.55846 0.0
O2087 O 0.53749 0.53596 0.54664 0.0
O2088 O 0.53214 0.56239 0.51793 0.0
O2089 O 0.51528 0.5171 0.52345 0.0
O2090 O 0.60429 0.55082 0.53989 0.0
O2091 O 0.5607 0.5331 0.53537 0.0
O2092 O 0.56065 0.53006 0.49544 0.0
O2093 O 0.5811 0.55904 0.50629 0.0
O2094 O 0.58698 0.53207 0.53531 0.0
O2095 O 0.60456 0.57867 0.53193 0.0
C2096 C 0.54789 0.57334 0.51883 0.0
C2097 C 0.48776 0.51728 0.5061 0.0
C2098 C 0.45613 0.51756 0.49812 0.0
C2099 C 0.47308 0.52636 0.50794 0.0
C2100 C 0.45412 0.49947 0.48611 0.0
C2101 C 0.48554 0.49913 0.49427 0.0
C2102 C 0.46876 0.49032 0.48427 0.0
C2103 C 0.54398 0.55121 0.56047 0.0
C2104 C 0.50505 0.52746 0.51675 0.0
C2105 C 0.52618 0.48259 0.44749 0.0
C2106 C 0.52696 0.46871 0.45891 0.0
C2107 C 0.57114 0.52126 0.53424 0.0
C2108 C 0.63093 0.57469 0.54909 0.0
C2109 C 0.64411 0.56348 0.54905 0.0
C2110 C 0.65996 0.5698 0.56137 0.0
C2111 C 0.66243 0.58759 0.57394 0.0
C2112 C 0.63371 0.59257 0.56151 0.0
C2113 C 0.64938 0.59891 0.57392 0.0
C2114 C 0.57524 0.54325 0.49287 0.0
C2115 C 0.61429 0.56674 0.5364 0.0
H2116 H 0.47497 0.54051 0.51695 0.0
H2117 H 0.44119 0.49228 0.4784 0.0
H2118 H 0.49663 0.49176 0.49278 0.0
H2119 H 0.46708 0.47633 0.47511 0.0
H2120 H 0.64182 0.54957 0.53957 0.0
H2121 H 0.67455 0.59289 0.58354 0.0
H2122 H 0.62383 0.60157 0.5617 0.0
H2123 H 0.65144 0.61266 0.58354 0.0
Tb2124 Tb 0.0821 0.55429 0.02403 0.0
C2125 C 0.01635 0.50824 0.05471 0.0
C2126 C 1.00218 0.48268 0.02885 0.0
C2127 C 0.99973 0.47726 0.06077 0.0
C2128 C 0.01274 0.50155 0.03575 0.0
C2129 C 0.00963 0.49637 0.06751 0.0
C2130 C 0.99602 0.47042 0.04145 0.0
C2131 C 0.02182 0.52364 0.09251 0.0
N2132 N 0.02584 0.5268 0.06058 0.0
C2133 C 0.02813 0.53487 0.07923 0.0
C2134 C 0.0127 0.50423 0.08664 0.0
Tb2135 Tb 0.03638 0.54378 0.03788 0.0
N2136 N 0.01884 0.51393 0.02411 0.0
C2137 C 0.01358 0.50878 1.00534 0.0
C2138 C 0.99773 0.47694 0.00955 0.0
C2139 C 1.00322 0.49016 0.99778 0.0
H2140 H 0.03528 0.5498 0.08393 0.0
H2141 H 0.99956 0.48602 0.98285 0.0
H2142 H 0.98803 0.4558 0.03643 0.0
H2143 H 0.02402 0.52996 0.10726 0.0
H2144 H 0.01774 0.51868 0.99594 0.0
H2145 H 0.11709 0.61378 0.07857 0.0
H2146 H 0.9897 0.46254 1.00365 0.0
H2147 H 0.08708 0.54617 0.97869 0.0
H2148 H 0.09917 0.58095 0.06592 0.0
H2149 H 0.09985 0.56478 0.95511 0.0
H2150 H 0.99457 0.46782 0.07037 0.0
H2151 H 0.12814 0.63628 0.05724 0.0
H2152 H 0.1309 0.64198 0.02428 0.0
H2153 H 0.00777 0.49558 0.09695 0.0
H2154 H 0.12618 0.6286 0.99047 0.0
N2155 N 0.09909 0.58466 0.03742 0.0
C2156 C 0.10368 0.59045 0.05627 0.0
C2157 C 0.12 0.62189 0.05156 0.0
C2158 C 0.11617 0.61557 0.03225 0.0
C2159 C 0.1139 0.60918 0.06361 0.0
C2160 C 0.10573 0.59659 0.02559 0.0
H2161 H 0.1149 0.59964 0.96453 0.0
N2162 N 0.09418 0.57036 1.00129 0.0
C2163 C 0.10079 0.57188 0.96959 0.0
C2164 C 0.10315 0.58915 1.00677 0.0
C2165 C 0.09357 0.56136 0.98305 0.0
C2166 C 0.10921 0.59156 0.97494 0.0
C2167 C 0.11081 0.60035 0.99381 0.0
O2168 O 0.09729 0.53454 0.0118 0.0
O2169 O 0.05778 0.53235 0.02482 0.0
O2170 O 0.05286 0.52938 0.05419 0.0
O2171 O 0.08076 0.54985 0.05313 0.0
O2172 O 0.07128 0.5291 1.00159 0.0
O2173 O 0.10447 0.54997 0.03997 0.0
O2174 O 0.02051 0.56166 0.05201 0.0
O2175 O 0.06038 0.56599 0.03653 0.0
O2176 O 0.06601 0.56667 1.0053 0.0
O2177 O 0.03689 0.54956 0.00917 0.0
O2178 O 0.04745 0.56891 0.06023 0.0
O2179 O 0.01399 0.5491 0.02285 0.0
C2180 C 0.05759 0.52111 0.00936 0.0
C2181 C 0.12807 0.54042 0.02339 0.0
C2182 C 0.15599 0.52802 0.02253 0.0
C2183 C 0.13748 0.5257 0.02569 0.0
C2184 C 0.16487 0.54543 0.01728 0.0
C2185 C 0.13727 0.55757 0.01815 0.0
C2186 C 0.15557 0.56004 0.01514 0.0
C2187 C 0.07012 0.53636 0.06039 0.0
C2188 C 0.10871 0.53768 0.02654 0.0
C2189 C 0.12035 0.61966 1.00021 0.0
C2190 C 0.12303 0.62727 0.01944 0.0
C2191 C 0.06057 0.57732 0.05196 0.0
C2192 C 0.98983 0.55634 0.03985 0.0
C2193 C 0.97987 0.57041 0.03681 0.0
C2194 C 0.96101 0.56688 0.03831 0.0
C2195 C 0.95239 0.54918 0.04317 0.0
C2196 C 0.9809 0.53886 0.04469 0.0
C2197 C 0.96229 0.53536 0.04639 0.0
C2198 C 0.04833 0.56094 1.0004 0.0
C2199 C 0.00933 0.55985 0.03726 0.0
H2200 H 0.13033 0.51238 0.02963 0.0
H2201 H 0.17912 0.54789 0.01503 0.0
H2202 H 0.13032 0.56905 0.01643 0.0
H2203 H 0.1626 0.57336 0.01115 0.0
H2204 H 0.98673 0.58386 0.03286 0.0
H2205 H 0.93797 0.54607 0.04463 0.0
H2206 H 0.98827 0.5279 0.04705 0.0
H2207 H 0.95548 0.52182 0.05014 0.0
H2208 H 0.03297 0.24273 0.97451 0.0
H2209 H 0.03718 0.2147 0.98819 0.0
H2210 H 0.02738 0.17853 0.93337 0.0
H2211 H 0.02249 0.20644 0.91972 0.0
H2212 H 0.01099 0.15843 0.95652 0.0
H2213 H 0.07981 0.19113 0.9913 0.0
H2214 H 0.06364 0.20508 0.99925 0.0
H2215 H 0.06888 0.20276 0.97523 0.0
C2216 C 0.03174 0.22883 0.9653 0.0
C2217 C 0.02744 0.22707 0.9459 0.0
C2218 C 0.03436 0.21271 0.97318 0.0
C2219 C 0.03312 0.19425 0.96194 0.0
C2220 C 0.02859 0.19244 0.94256 0.0
H2221 H 0.05287 0.08059 0.97287 0.0
H2222 H 0.04839 0.11079 0.96365 0.0
C2223 C 0.0258 0.20852 0.93469 0.0
C2224 C 0.03601 0.17679 0.97028 0.0
H2225 H 0.06535 0.1608 0.99874 0.0
C2226 C 0.02294 0.1591 0.96571 0.0
C2227 C 0.05156 0.17719 0.98241 0.0
C2228 C 0.06685 0.19499 0.9872 0.0
C2229 C 0.0249 0.14223 0.97278 0.0
C2230 C 0.04039 0.14268 0.98486 0.0
C2231 C 0.05336 0.16034 0.98969 0.0
C2232 C 0.04387 0.12453 0.99124 0.0
C2233 C 0.01029 0.12389 0.96725 0.0
C2234 C 0.04316 0.12195 0.01004 0.0
C2235 C 0.04571 0.10439 0.01542 0.0
C2236 C 0.04949 0.08922 1.0022 0.0
C2237 C 0.05028 0.09201 0.98352 0.0
C2238 C 0.04764 0.10933 0.97817 0.0
H2239 H 0.99753 0.12686 0.96136 0.0
H2240 H 0.01501 0.11358 0.95646 0.0
H2241 H 1.00739 0.11666 0.97946 0.0
H2242 H 0.04024 0.13334 0.02048 0.0
H2243 H 0.04445 0.10259 0.0298 0.0
H2244 H 0.13677 0.84601 0.17873 0.0
H2245 H 0.16395 0.84372 0.19728 0.0
H2246 H 0.17907 0.80787 0.14954 0.0
H2247 H 0.15232 0.81078 0.13079 0.0
H2248 H 0.17311 0.81407 0.20819 0.0
H2249 H 0.22715 0.84259 0.16567 0.0
H2250 H 0.20407 0.84477 0.1613 0.0
H2251 H 0.21083 0.82246 0.15225 0.0
C2252 C 0.14611 0.83802 0.17202 0.0
C2253 C 0.14236 0.82881 0.15311 0.0
C2254 C 0.16167 0.83659 0.18273 0.0
C2255 C 0.17397 0.82583 0.17493 0.0
C2256 C 0.17031 0.81679 0.15595 0.0
H2257 H 0.26327 0.78285 0.22377 0.0
H2258 H 0.23841 0.78829 0.20373 0.0
C2259 C 0.15486 0.81841 0.14517 0.0
C2260 C 0.18987 0.82314 0.18691 0.0
H2261 H 0.23576 0.82564 0.18919 0.0
C2262 C 0.1868 0.8168 0.20402 0.0
C2263 C 0.20793 0.82661 0.18172 0.0
C2264 C 0.21274 0.83468 0.16433 0.0
C2265 C 0.20097 0.8136 0.21572 0.0
C2266 C 0.21888 0.81675 0.21035 0.0
C2267 C 0.22204 0.82307 0.19331 0.0
C2268 C 0.23446 0.81375 0.22239 0.0
C2269 C 0.19666 0.80651 0.23368 0.0
C2270 C 0.24086 0.82638 0.23952 0.0
C2271 C 0.25531 0.82348 0.25091 0.0
C2272 C 0.26369 0.80773 0.24563 0.0
C2273 C 0.25733 0.79521 0.22835 0.0
C2274 C 0.24301 0.79825 0.21686 0.0
H2275 H 0.18184 0.80166 0.23441 0.0
H2276 H 0.20325 0.79424 0.23519 0.0
H2277 H 0.20208 0.81852 0.2457 0.0
H2278 H 0.23476 0.83863 0.24404 0.0
H2279 H 0.26007 0.83382 0.26371 0.0
H2280 H 0.52946 0.84891 0.41392 0.0
H2281 H 0.53189 0.88124 0.43217 0.0
H2282 H 0.53393 0.85831 0.48313 0.0
H2283 H 0.53154 0.82541 0.46477 0.0
H2284 H 0.50814 0.89376 0.45696 0.0
H2285 H 0.57719 0.90568 0.49318 0.0
H2286 H 0.56907 0.88663 0.47305 0.0
H2287 H 0.56126 0.88388 0.49548 0.0
C2288 C 0.53055 0.85053 0.42901 0.0
C2289 C 0.53033 0.83425 0.43775 0.0
C2290 C 0.5319 0.86921 0.43948 0.0
C2291 C 0.53323 0.87246 0.4591 0.0
C2292 C 0.5332 0.85636 0.46802 0.0
H2293 H 0.54986 0.99039 0.53073 0.0
H2294 H 0.54289 0.95455 0.52152 0.0
C2295 C 0.53177 0.83748 0.45747 0.0
C2296 C 0.5341 0.89266 0.46976 0.0
H2297 H 0.56216 0.93156 0.49868 0.0
C2298 C 0.5199 0.90191 0.46623 0.0
C2299 C 0.54934 0.90344 0.48203 0.0
C2300 C 0.56519 0.89455 0.48615 0.0
C2301 C 0.5207 0.92157 0.47411 0.0
C2302 C 0.53631 0.93266 0.48563 0.0
C2303 C 0.55018 0.9232 0.48986 0.0
C2304 C 0.53919 0.95437 0.49178 0.0
C2305 C 0.50478 0.93033 0.46986 0.0
C2306 C 0.53939 0.96635 0.47829 0.0
C2307 C 0.54326 0.98668 0.48354 0.0
C2308 C 0.54694 0.99575 0.50244 0.0
C2309 C 0.54659 0.98387 0.51609 0.0
C2310 C 0.54278 0.96337 0.51079 0.0
H2311 H 0.49202 0.91898 0.46647 0.0
H2312 H 0.503 0.94144 0.48183 0.0
H2313 H 0.50712 0.93746 0.45753 0.0
H2314 H 0.53714 0.95998 0.46355 0.0
H2315 H 0.5438 0.99542 0.47268 0.0
H2316 H 0.55218 0.31654 0.66894 0.0
H2317 H 0.52709 0.3138 0.68885 0.0
H2318 H 0.48877 0.29819 0.63991 0.0
H2319 H 0.51369 0.30046 0.61989 0.0
H2320 H 0.49919 0.33227 0.69362 0.0
H2321 H 0.47154 0.25361 0.66671 0.0
H2322 H 0.49337 0.26613 0.66144 0.0
H2323 H 0.47299 0.26814 0.64876 0.0
C2324 C 0.53843 0.31257 0.66235 0.0
C2325 C 0.53508 0.30859 0.64271 0.0
C2326 C 0.52405 0.31101 0.67381 0.0
C2327 C 0.50595 0.30539 0.66596 0.0
C2328 C 0.50256 0.30205 0.64638 0.0
H2329 H 0.41273 0.31556 0.73213 0.0
H2330 H 0.43551 0.31983 0.7096 0.0
C2331 C 0.5169 0.3035 0.63491 0.0
C2332 C 0.49069 0.30292 0.67822 0.0
H2333 H 0.45393 0.26989 0.68713 0.0
C2334 C 0.48929 0.31862 0.69218 0.0
C2335 C 0.47783 0.28505 0.67659 0.0
C2336 C 0.47905 0.2672 0.6627 0.0
C2337 C 0.47545 0.317 0.70441 0.0
C2338 C 0.46233 0.29928 0.70247 0.0
C2339 C 0.46378 0.28357 0.68854 0.0
C2340 C 0.4477 0.29629 0.71542 0.0
C2341 C 0.47539 0.33413 0.71969 0.0
C2342 C 0.44631 0.28112 0.72567 0.0
C2343 C 0.43312 0.27844 0.73831 0.0
C2344 C 0.42088 0.29087 0.74113 0.0
C2345 C 0.42186 0.30567 0.73038 0.0
C2346 C 0.43509 0.30831 0.71764 0.0
H2347 H 0.48876 0.34456 0.72231 0.0
H2348 H 0.46514 0.34204 0.71544 0.0
H2349 H 0.47183 0.32924 0.73297 0.0
H2350 H 0.45568 0.27148 0.72413 0.0
H2351 H 0.43259 0.26661 0.74597 0.0
H2352 H 0.01326 0.81308 0.60607 0.0
H2353 H 0.01801 0.83072 0.5802 0.0
H2354 H 0.05318 0.8792 0.61725 0.0
H2355 H 0.04806 0.86187 0.64341 0.0
H2356 H 0.03077 0.89121 0.59433 0.0
H2357 H 0.06312 0.8373 0.55284 0.0
H2358 H 0.04088 0.82674 0.55837 0.0
H2359 H 0.05876 0.83679 0.57688 0.0
C2360 C 0.02195 0.82753 0.60876 0.0
C2361 C 0.03043 0.836 0.62678 0.0
C2362 C 0.02477 0.83752 0.59391 0.0
C2363 C 0.03636 0.85602 0.59669 0.0
C2364 C 0.04433 0.86483 0.61477 0.0
H2365 H 0.08505 0.91896 0.51382 0.0
H2366 H 0.07817 0.89695 0.53624 0.0
C2367 C 0.04135 0.85493 0.62972 0.0
C2368 C 0.04003 0.86627 0.58076 0.0
H2369 H 0.05554 0.86189 0.5374 0.0
C2370 C 0.03622 0.88482 0.5819 0.0
C2371 C 0.04743 0.85802 0.56469 0.0
C2372 C 0.05297 0.83871 0.56316 0.0
C2373 C 0.03941 0.89529 0.56733 0.0
C2374 C 0.04605 0.88669 0.5509 0.0
C2375 C 0.05012 0.86826 0.54985 0.0
C2376 C 0.04956 0.89708 0.53506 0.0
C2377 C 0.03605 0.91568 0.5699 0.0
C2378 C 0.03558 0.90349 0.52623 0.0
C2379 C 0.03952 0.91612 0.51359 0.0
C2380 C 0.05742 0.92215 0.5093 0.0
C2381 C 0.07113 0.91433 0.51682 0.0
C2382 C 0.06722 0.90188 0.52968 0.0
H2383 H 0.03582 0.92194 0.5849 0.0
H2384 H 0.04662 0.92554 0.56392 0.0
H2385 H 0.02269 0.91528 0.56262 0.0
H2386 H 0.02179 0.89951 0.52982 0.0
H2387 H 0.02876 0.92199 0.5079 0.0
H2388 H 0.54675 0.83809 0.90648 0.0
H2389 H 0.51523 0.83946 0.8984 0.0
H2390 H 0.51625 0.80368 0.84444 0.0
H2391 H 0.54681 0.80082 0.85339 0.0
H2392 H 0.5028 0.85577 0.87592 0.0
H2393 H 0.46785 0.77971 0.85238 0.0
H2394 H 0.49031 0.78591 0.86431 0.0
H2395 H 0.48701 0.7833 0.83911 0.0
C2396 C 0.53996 0.83026 0.89307 0.0
C2397 C 0.54924 0.8201 0.88013 0.0
C2398 C 0.52201 0.83105 0.88842 0.0
C2399 C 0.51315 0.82162 0.87079 0.0
C2400 C 0.52235 0.81064 0.85834 0.0
H2401 H 0.44092 0.86854 0.80653 0.0
H2402 H 0.46564 0.86273 0.82574 0.0
C2403 C 0.54005 0.80945 0.8632 0.0
C2404 C 0.49528 0.82498 0.86444 0.0
H2405 H 0.45705 0.80311 0.83571 0.0
C2406 C 0.49263 0.84415 0.86745 0.0
C2407 C 0.4815 0.80986 0.85401 0.0
C2408 C 0.48179 0.78856 0.85253 0.0
C2409 C 0.47729 0.84878 0.85925 0.0
C2410 C 0.46473 0.83402 0.84682 0.0
C2411 C 0.46682 0.81467 0.84479 0.0
C2412 C 0.44951 0.83814 0.8355 0.0
C2413 C 0.47481 0.86943 0.86423 0.0
C2414 C 0.43231 0.82573 0.83365 0.0
C2415 C 0.41846 0.82804 0.82146 0.0
C2416 C 0.42105 0.84348 0.81135 0.0
C2417 C 0.4382 0.8563 0.8137 0.0
C2418 C 0.45237 0.85333 0.82522 0.0
H2419 H 0.4807 0.87613 0.87874 0.0
H2420 H 0.48213 0.87834 0.85475 0.0
H2421 H 0.4603 0.87013 0.86307 0.0
H2422 H 0.42966 0.8138 0.84128 0.0
H2423 H 0.40591 0.8172 0.81973 0.0
H2424 H 0.51696 0.22948 0.10602 0.0
H2425 H 0.51686 0.1965 0.09032 0.0
H2426 H 0.49613 0.17404 0.13822 0.0
H2427 H 0.49508 0.20724 0.15349 0.0
H2428 H 0.53739 0.1752 0.10265 0.0
H2429 H 0.46583 0.13436 0.09605 0.0
H2430 H 0.47224 0.1606 0.10167 0.0
H2431 H 0.47442 0.14639 0.11948 0.0
C2432 C 0.51166 0.2174 0.11285 0.0
C2433 C 0.50532 0.22069 0.13057 0.0
C2434 C 0.5118 0.1986 0.10398 0.0
C2435 C 0.50622 0.18273 0.11295 0.0
C2436 C 0.49997 0.18597 0.13079 0.0
H2437 H 0.54908 0.07976 0.08231 0.0
H2438 H 0.539 0.10713 0.09981 0.0
C2439 C 0.49954 0.20489 0.13957 0.0
C2440 C 0.50907 0.16336 0.10437 0.0
H2441 H 0.48804 0.11569 0.08857 0.0
C2442 C 0.52655 0.16222 0.09954 0.0
C2443 C 0.49493 0.14645 0.10027 0.0
C2444 C 0.47575 0.14696 0.10447 0.0
C2445 C 0.53028 0.14475 0.09053 0.0
C2446 C 0.51627 0.12774 0.08682 0.0
C2447 C 0.49876 0.12876 0.09164 0.0
C2448 C 0.51972 0.10896 0.07752 0.0
C2449 C 0.54912 0.14484 0.08465 0.0
C2450 C 0.51131 0.10011 0.05965 0.0
C2451 C 0.51686 0.08417 0.04961 0.0
C2452 C 0.53112 0.07713 0.05721 0.0
C2453 C 0.53844 0.08511 0.07573 0.0
C2454 C 0.53271 0.1008 0.08581 0.0
H2455 H 0.55672 0.15979 0.08409 0.0
H2456 H 0.5568 0.13901 0.09494 0.0
H2457 H 0.54862 0.13554 0.07069 0.0
H2458 H 0.50104 0.10605 0.05313 0.0
H2459 H 0.51039 0.07785 0.03573 0.0
H2460 H 0.14605 0.2975 0.3709 0.0
H2461 H 0.17472 0.29501 0.35753 0.0
H2462 H 0.17226 0.34407 0.33084 0.0
H2463 H 0.14377 0.3467 0.34397 0.0
H2464 H 0.17861 0.29026 0.31663 0.0
H2465 H 0.22464 0.35628 0.35866 0.0
H2466 H 0.20362 0.34465 0.36658 0.0
H2467 H 0.20337 0.35985 0.34929 0.0
C2468 C 0.15173 0.3079 0.36237 0.0
C2469 C 0.14261 0.32227 0.35847 0.0
C2470 C 0.16806 0.30642 0.35473 0.0
C2471 C 0.17559 0.31948 0.34338 0.0
C2472 C 0.16673 0.33403 0.33977 0.0
H2473 H 0.26553 0.33752 0.27589 0.0
H2474 H 0.23751 0.33822 0.29124 0.0
C2475 C 0.15039 0.33541 0.34721 0.0
C2476 C 0.19215 0.31732 0.33427 0.0
H2477 H 0.23584 0.3405 0.33188 0.0
C2478 C 0.19117 0.30118 0.31999 0.0
C2479 C 0.20841 0.33168 0.33871 0.0
C2480 C 0.21022 0.34904 0.35425 0.0
C2481 C 0.20597 0.29934 0.30958 0.0
C2482 C 0.22212 0.31389 0.31381 0.0
C2483 C 0.22324 0.32973 0.32842 0.0
C2484 C 0.23821 0.31275 0.30351 0.0
C2485 C 0.20412 0.2822 0.29383 0.0
C2486 C 0.24782 0.29834 0.30552 0.0
C2487 C 0.26379 0.29805 0.29697 0.0
C2488 C 0.27031 0.31197 0.28601 0.0
C2489 C 0.26058 0.32635 0.28391 0.0
C2490 C 0.24466 0.32679 0.29268 0.0
H2491 H 0.18983 0.27405 0.2903 0.0
H2492 H 0.2094 0.2872 0.28116 0.0
H2493 H 0.21225 0.27205 0.29795 0.0
H2494 H 0.24327 0.28766 0.31418 0.0
H2495 H 0.27116 0.2872 0.29943 0.0
H2496 H 0.98807 0.08941 0.23224 0.0
H2497 H 1.00195 0.08703 0.20244 0.0
H2498 H 0.95233 0.04969 0.17477 0.0
H2499 H 0.93826 0.05295 0.20431 0.0
H2500 H 0.0132 0.06405 0.17879 0.0
H2501 H 0.95807 0.07838 0.13455 0.0
H2502 H 0.95771 0.08123 0.15954 0.0
H2503 H 0.95004 0.0575 0.14484 0.0
C2504 C 0.97989 0.08089 0.2198 0.0
C2505 C 0.96163 0.0717 0.22129 0.0
C2506 C 0.98802 0.0794 0.2024 0.0
C2507 C 0.97851 0.06853 0.18525 0.0
C2508 C 0.96034 0.05899 0.1869 0.0
H2509 H 0.00992 0.03439 0.06741 0.0
H2510 H 0.99514 0.03736 0.09674 0.0
C2511 C 0.95214 0.0607 0.20425 0.0
C2512 C 0.98768 0.06681 0.16625 0.0
H2513 H 0.98077 0.06575 0.11842 0.0
C2514 C 1.00591 0.06463 0.16576 0.0
C2515 C 0.97895 0.06748 0.14843 0.0
C2516 C 0.96021 0.07148 0.14684 0.0
C2517 C 0.01503 0.06278 0.1489 0.0
C2518 C 1.00619 0.06314 0.13113 0.0
C2519 C 0.98799 0.06526 0.13153 0.0
C2520 C 0.01549 0.06148 0.11232 0.0
C2521 C 0.03417 0.05988 0.15031 0.0
C2522 C 0.03207 0.07408 0.11004 0.0
C2523 C 0.04055 0.07253 0.09288 0.0
C2524 C 0.0332 0.05818 0.07682 0.0
C2525 C 0.01648 0.0457 0.07902 0.0
C2526 C 0.00784 0.04741 0.09613 0.0
H2527 H 0.03736 0.0544 0.16323 0.0
H2528 H 0.03655 0.04947 0.13803 0.0
H2529 H 0.04372 0.07406 0.15075 0.0
H2530 H 0.03851 0.08553 0.12158 0.0
H2531 H 0.05297 0.08286 0.09228 0.0
H2532 H 0.28585 0.63228 0.44437 0.0
H2533 H 0.28651 0.64778 0.41692 0.0
H2534 H 0.30756 0.70392 0.45204 0.0
H2535 H 0.30729 0.68858 0.47954 0.0
H2536 H 0.26578 0.67377 0.41305 0.0
H2537 H 0.33748 0.70786 0.40773 0.0
H2538 H 0.33095 0.68915 0.42152 0.0
H2539 H 0.33049 0.71408 0.43071 0.0
C2540 C 0.29104 0.64787 0.44625 0.0
C2541 C 0.29638 0.65919 0.46422 0.0
C2542 C 0.29143 0.65669 0.43051 0.0
C2543 C 0.29723 0.67697 0.4324 0.0
C2544 C 0.30342 0.6882 0.45018 0.0
H2545 H 0.28026 0.76647 0.37403 0.0
H2546 H 0.29115 0.74656 0.39456 0.0
C2547 C 0.30311 0.67939 0.46594 0.0
C2548 C 0.29438 0.68661 0.41634 0.0
H2549 H 0.31504 0.72017 0.39152 0.0
C2550 C 0.27661 0.68364 0.40809 0.0
C2551 C 0.3085 0.69959 0.41004 0.0
C2552 C 0.32796 0.70273 0.41784 0.0
C2553 C 0.27242 0.6939 0.39426 0.0
C2554 C 0.28646 0.70724 0.38826 0.0
C2555 C 0.30433 0.70989 0.39614 0.0
C2556 C 0.28248 0.71947 0.37474 0.0
C2557 C 0.25284 0.69104 0.38685 0.0
C2558 C 0.27464 0.71091 0.35658 0.0
C2559 C 0.26831 0.72222 0.34491 0.0
C2560 C 0.26991 0.74228 0.35116 0.0
C2561 C 0.27887 0.75104 0.36887 0.0
C2562 C 0.28509 0.7397 0.38059 0.0
H2563 H 0.24338 0.68346 0.39575 0.0
H2564 H 0.24936 0.70525 0.38593 0.0
H2565 H 0.25064 0.68205 0.37258 0.0
H2566 H 0.27284 0.69537 0.35169 0.0
H2567 H 0.26181 0.71522 0.33115 0.0
H2568 H 0.687 0.04156 0.67983 0.0
H2569 H 0.66638 0.03258 0.65124 0.0
H2570 H 0.63125 0.98971 0.67572 0.0
H2571 H 0.65158 0.99897 0.70458 0.0
H2572 H 0.65002 0.99897 0.62524 0.0
H2573 H 0.59954 0.02802 0.66814 0.0
H2574 H 0.62285 0.03119 0.67702 0.0
H2575 H 0.60739 1.00804 0.6753 0.0
C2576 C 0.67515 0.02986 0.67896 0.0
C2577 C 0.67073 0.02121 0.69455 0.0
C2578 C 0.66335 0.02475 0.66261 0.0
C2579 C 0.64704 0.01086 0.66158 0.0
C2580 C 0.64353 1.00082 0.67643 0.0
H2581 H 0.55655 1.00602 0.57736 0.0
H2582 H 0.57379 0.99548 0.60181 0.0
C2583 C 0.65523 1.00605 0.69285 0.0
C2584 C 0.633 1.00868 0.64592 0.0
H2585 H 0.59221 0.01979 0.63581 0.0
C2586 C 0.63724 1.00319 0.62754 0.0
C2587 C 0.61629 0.01416 0.64897 0.0
C2588 C 0.61121 0.02083 0.66838 0.0
C2589 C 0.62558 1.00388 0.61214 0.0
C2590 C 0.60941 0.01043 0.61525 0.0
C2591 C 0.60461 0.01471 0.63354 0.0
C2592 C 0.59886 0.01588 0.60008 0.0
C2593 C 0.63096 0.99825 0.59267 0.0
C2594 C 0.60712 0.03114 0.59148 0.0
C2595 C 0.59734 0.03735 0.57785 0.0
C2596 C 0.579 0.02844 0.57245 0.0
C2597 C 0.57062 0.01324 0.58123 0.0
C2598 C 0.58047 1.0071 0.59508 0.0
H2599 H 0.64009 0.98787 0.59233 0.0
H2600 H 0.61887 0.99156 0.58259 0.0
H2601 H 0.63837 0.01149 0.58801 0.0
H2602 H 0.62115 0.03847 0.59552 0.0
H2603 H 0.60428 0.04921 0.57161 0.0
H2604 H 0.31116 0.35105 0.98892 0.0
H2605 H 0.31111 0.33098 0.95786 0.0
H2606 H 0.3224 0.3829 0.9338 0.0
H2607 H 0.32244 0.40287 0.96428 0.0
H2608 H 0.2897 0.3295 0.92229 0.0
H2609 H 0.36333 0.35441 0.91808 0.0
H2610 H 0.35307 0.35693 0.93994 0.0
H2611 H 0.35219 0.37412 0.92463 0.0
C2612 C 0.31352 0.35818 0.97699 0.0
C2613 C 0.31691 0.37867 0.97929 0.0
C2614 C 0.31352 0.34668 0.95925 0.0
C2615 C 0.31711 0.35546 0.94354 0.0
C2616 C 0.31997 0.37579 0.94574 0.0
H2617 H 0.31765 0.34575 0.82859 0.0
H2618 H 0.32139 0.3524 0.86271 0.0
C2619 C 0.31988 0.38721 0.96329 0.0
C2620 C 0.31788 0.34379 0.92467 0.0
H2621 H 0.34519 0.34099 0.88886 0.0
C2622 C 0.30193 0.33158 0.9151 0.0
C2623 C 0.33386 0.34643 0.91528 0.0
C2624 C 0.35164 0.35853 0.92506 0.0
C2625 C 0.30122 0.3232 0.89601 0.0
C2626 C 0.31693 0.32693 0.88631 0.0
C2627 C 0.33314 0.33812 0.89624 0.0
C2628 C 0.31615 0.32209 0.8655 0.0
C2629 C 0.28339 0.3115 0.88599 0.0
C2630 C 0.31238 0.30275 0.85556 0.0
C2631 C 0.31039 0.2989 0.83584 0.0
C2632 C 0.31226 0.31436 0.82589 0.0
C2633 C 0.3164 0.33358 0.83592 0.0
C2634 C 0.31852 0.3374 0.85542 0.0
H2635 H 0.27206 0.31156 0.89506 0.0
H2636 H 0.28008 0.31738 0.87336 0.0
H2637 H 0.28445 0.29618 0.88132 0.0
H2638 H 0.31065 0.29069 0.86302 0.0
H2639 H 0.30679 0.28395 0.82844 0.0
H2640 H 0.93449 0.06997 0.35126 0.0
H2641 H 0.95117 0.06651 0.37962 0.0
H2642 H 1.0004 0.07325 0.35229 0.0
H2643 H 0.98354 0.07669 0.32349 0.0
H2644 H 0.96822 0.04095 0.38986 0.0
H2645 H 0.02176 0.10834 0.40041 0.0
H2646 H 1.00238 0.10411 0.38352 0.0
H2647 H 0.0211 0.09282 0.37815 0.0
C2648 C 0.94893 0.07098 0.35102 0.0
C2649 C 0.95725 0.07393 0.33433 0.0
C2650 C 0.95866 0.06885 0.36765 0.0
C2651 C 0.97756 0.06977 0.36911 0.0
C2652 C 0.98606 0.07284 0.3525 0.0
H2653 H 0.05426 0.05996 0.46784 0.0
H2654 H 0.0414 0.06306 0.43672 0.0
C2655 C 0.97622 0.0748 0.33564 0.0
C2656 C 0.98767 0.06686 0.38758 0.0
H2657 H 0.02427 0.0865 0.42106 0.0
C2658 C 0.98046 0.05111 0.39651 0.0
C2659 C 1.00398 0.07956 0.39703 0.0
C2660 C 0.01274 0.09727 0.38945 0.0
C2661 C 0.98868 0.04768 0.41358 0.0
C2662 C 1.0047 0.06067 0.42336 0.0
C2663 C 0.01211 0.07629 0.4143 0.0
C2664 C 0.0133 0.05854 0.44291 0.0
C2665 C 0.98019 0.02945 0.42054 0.0
C2666 C 1.00254 0.05514 0.45786 0.0
C2667 C 0.00995 0.05311 0.47567 0.0
C2668 C 0.0287 0.05438 0.48008 0.0
C2669 C 0.03974 0.05824 0.46538 0.0
C2670 C 0.03224 0.06024 0.44733 0.0
H2671 H 0.97296 0.01787 0.40883 0.0
H2672 H 0.99047 0.02362 0.42793 0.0
H2673 H 0.97004 0.0328 0.4303 0.0
H2674 H 0.98815 0.05443 0.45599 0.0
H2675 H 1.00073 0.05069 0.48633 0.0
H2676 H 0.30034 0.66312 0.58697 0.0
H2677 H 0.30194 0.68524 0.61678 0.0
H2678 H 0.32698 0.73365 0.59188 0.0
H2679 H 0.32561 0.71152 0.56189 0.0
H2680 H 0.34116 0.73412 0.63041 0.0
H2681 H 0.2663 0.72287 0.62093 0.0
H2682 H 0.27426 0.70065 0.61896 0.0
H2683 H 0.27961 0.71618 0.60206 0.0
C2684 C 0.30655 0.67839 0.58789 0.0
C2685 C 0.31266 0.68561 0.57202 0.0
C2686 C 0.30736 0.69103 0.60492 0.0
C2687 C 0.31418 0.7111 0.60637 0.0
C2688 C 0.32153 0.7182 0.59096 0.0
H2689 H 0.31398 0.8014 0.70586 0.0
H2690 H 0.31734 0.78661 0.67364 0.0
C2691 C 0.32078 0.70552 0.57387 0.0
C2692 C 0.31233 0.72465 0.62357 0.0
H2693 H 0.28055 0.73836 0.65124 0.0
C2694 C 0.32795 0.73532 0.63489 0.0
C2695 C 0.29505 0.72632 0.6292 0.0
C2696 C 0.27783 0.71605 0.61708 0.0
C2697 C 0.32667 0.74676 0.65228 0.0
C2698 C 0.30935 0.7476 0.65829 0.0
C2699 C 0.29379 0.73762 0.64658 0.0
C2700 C 0.30702 0.75702 0.67744 0.0
C2701 C 0.34376 0.75709 0.66455 0.0
C2702 C 0.29964 0.74533 0.68998 0.0
C2703 C 0.29788 0.75366 0.70832 0.0
C2704 C 0.30345 0.77392 0.71454 0.0
C2705 C 0.31008 0.78572 0.70168 0.0
C2706 C 0.31197 0.77731 0.68327 0.0
H2707 H 0.35605 0.75316 0.65876 0.0
H2708 H 0.34522 0.77309 0.66594 0.0
H2709 H 0.34298 0.75352 0.6788 0.0
H2710 H 0.29558 0.72964 0.68566 0.0
H2711 H 0.29249 0.74408 0.71769 0.0
H2712 H 0.65169 0.04139 0.78058 0.0
H2713 H 0.63094 0.03941 0.80489 0.0
H2714 H 0.67496 0.06819 0.8468 0.0
H2715 H 0.69587 0.0708 0.82241 0.0
H2716 H 0.62993 0.02176 0.83458 0.0
H2717 H 0.63838 0.10153 0.85803 0.0
H2718 H 0.64712 0.09126 0.837 0.0
H2719 H 0.65914 0.09324 0.85947 0.0
C2720 C 0.65705 0.04729 0.79496 0.0
C2721 C 0.67547 0.05637 0.79951 0.0
C2722 C 0.64512 0.04613 0.80885 0.0
C2723 C 0.65133 0.05394 0.82761 0.0
C2724 C 0.6698 0.0625 0.83234 0.0
H2725 H 0.58666 0.02812 0.91928 0.0
H2726 H 0.60935 0.02969 0.89676 0.0
C2727 C 0.68175 0.06385 0.8184 0.0
C2728 C 0.63831 0.05301 0.84208 0.0
H2729 H 0.62034 0.0811 0.87553 0.0
C2730 C 0.62783 0.03473 0.84355 0.0
C2731 C 0.63541 0.06998 0.85355 0.0
C2732 C 0.64547 0.09013 0.85186 0.0
C2733 C 0.61449 0.03294 0.85616 0.0
C2734 C 0.61193 0.04986 0.86799 0.0
C2735 C 0.62242 0.06814 0.86653 0.0
C2736 C 0.59823 0.04899 0.88177 0.0
C2737 C 0.60293 0.013 0.85626 0.0
C2738 C 0.58474 0.05979 0.88117 0.0
C2739 C 0.57198 0.05931 0.89433 0.0
C2740 C 0.57247 0.04801 0.90834 0.0
C2741 C 0.586 0.03717 0.90884 0.0
C2742 C 0.59884 0.03781 0.8958 0.0
H2743 H 0.60294 1.0028 0.84293 0.0
H2744 H 0.60845 1.00681 0.86775 0.0
H2745 H 0.58871 0.01377 0.85856 0.0
H2746 H 0.5841 0.06861 0.87051 0.0
H2747 H 0.56194 0.06807 0.8937 0.0
H2748 H 0.3037 0.34561 0.07313 0.0
H2749 H 0.3028 0.33264 0.10231 0.0
H2750 H 0.31756 0.3911 0.13417 0.0
H2751 H 0.3186 0.40417 0.10511 0.0
H2752 H 0.33246 0.33962 0.13176 0.0
H2753 H 0.27192 0.36442 0.15756 0.0
H2754 H 0.27669 0.36238 0.13336 0.0
H2755 H 0.28891 0.38272 0.15044 0.0
C2756 C 0.30657 0.35573 0.08634 0.0
C2757 C 0.31114 0.37597 0.08672 0.0
C2758 C 0.30613 0.34828 0.10303 0.0
C2759 C 0.30998 0.36086 0.1205 0.0
C2760 C 0.31432 0.38107 0.12092 0.0
H2761 H 0.33913 0.33483 0.23009 0.0
H2762 H 0.33883 0.34695 0.2006 0.0
C2763 C 0.31494 0.38853 0.10425 0.0
C2764 C 0.30997 0.35291 0.13825 0.0
H2765 H 0.28875 0.35114 0.17846 0.0
C2766 C 0.32288 0.3421 0.14196 0.0
C2767 C 0.29739 0.35599 0.15153 0.0
C2768 C 0.28282 0.36687 0.14806 0.0
C2769 C 0.32374 0.3346 0.15864 0.0
C2770 C 0.31142 0.33807 0.17213 0.0
C2771 C 0.2983 0.34859 0.16826 0.0
C2772 C 0.31173 0.33068 0.1902 0.0
C2773 C 0.33766 0.32276 0.16155 0.0
C2774 C 0.29653 0.3177 0.19447 0.0
C2775 C 0.29661 0.31087 0.21146 0.0
C2776 C 0.3118 0.31707 0.22478 0.0
C2777 C 0.32705 0.33001 0.22042 0.0
C2778 C 0.32698 0.33678 0.20339 0.0
H2779 H 0.34293 0.31734 0.14819 0.0
H2780 H 0.34927 0.33204 0.17109 0.0
H2781 H 0.33189 0.31011 0.16806 0.0
H2782 H 0.28459 0.31273 0.18458 0.0
H2783 H 0.28464 0.30085 0.21418 0.0
H2784 H 0.27837 0.97355 0.0149 0.0
H2785 H 0.25057 0.98472 0.02072 0.0
H2786 H 0.2354 0.94143 0.05512 0.0
H2787 H 0.26323 0.92982 0.04918 0.0
H2788 H 0.20632 0.94553 0.03021 0.0
H2789 H 0.24382 0.01653 0.07135 0.0
H2790 H 0.25171 0.01096 0.0487 0.0
H2791 H 0.25418 0.9959 0.06575 0.0
C2792 C 0.26917 0.96631 0.02369 0.0
C2793 C 0.27317 0.9509 0.03175 0.0
C2794 C 0.25328 0.97276 0.02701 0.0
C2795 C 0.24114 0.96413 0.03861 0.0
C2796 C 0.2447 0.94834 0.04621 0.0
H2797 H 0.14578 1.00356 0.07886 0.0
H2798 H 0.1681 0.98339 0.0723 0.0
C2799 C 0.26061 0.94177 0.04282 0.0
C2800 C 0.22505 0.97214 0.04311 0.0
H2801 H 0.21284 0.0144 0.06121 0.0
C2802 C 0.20767 0.9605 0.0372 0.0
C2803 C 0.22692 0.99161 0.05239 0.0
C2804 C 0.24515 1.00443 0.06009 0.0
C2805 C 0.19212 0.96821 0.03957 0.0
C2806 C 0.19415 0.98793 0.04803 0.0
C2807 C 0.21144 0.99932 0.05451 0.0
C2808 C 0.17865 0.99747 0.04987 0.0
C2809 C 0.1737 0.95556 0.03252 0.0
C2810 C 0.17704 0.01172 0.03917 0.0
C2811 C 0.16439 0.02324 0.04288 0.0
C2812 C 0.15326 0.02082 0.05751 0.0
C2813 C 0.1543 1.00585 0.06761 0.0
C2814 C 0.16692 0.99424 0.06381 0.0
H2815 H 0.17454 0.94095 0.02491 0.0
H2816 H 0.16549 0.95364 0.04451 0.0
H2817 H 0.16648 0.96278 0.02305 0.0
H2818 H 0.18612 0.01448 0.02845 0.0
H2819 H 0.16408 0.03479 0.035 0.0
H2820 H 0.75763 0.65122 0.01835 0.0
H2821 H 0.72675 0.63274 0.01852 0.0
H2822 H 0.70625 0.67642 0.99476 0.0
H2823 H 0.73747 0.69399 0.99304 0.0
H2824 H 0.70107 0.63988 0.03638 0.0
H2825 H 0.67588 0.63054 0.96196 0.0
H2826 H 0.69922 0.64094 0.97031 0.0
H2827 H 0.68265 0.65578 0.97265 0.0
C2828 C 0.74654 0.65644 0.01246 0.0
C2829 C 0.74997 0.67343 1.00472 0.0
C2830 C 0.72882 0.64605 0.01287 0.0
C2831 C 0.71394 0.65278 1.00621 0.0
C2832 C 0.71735 0.67035 0.99926 0.0
H2833 H 0.60648 0.60641 0.04016 0.0
H2834 H 0.63574 0.62691 0.0369 0.0
C2835 C 0.7352 0.68052 0.99844 0.0
C2836 C 0.69504 0.64178 1.00756 0.0
H2837 H 0.6538 0.62167 0.98285 0.0
C2838 C 0.69082 0.63584 0.02458 0.0
C2839 C 0.68148 0.63631 0.99225 0.0
C2840 C 0.68507 0.64106 0.97321 0.0
C2841 C 0.67374 0.62452 0.02664 0.0
C2842 C 0.66007 0.61955 0.0115 0.0
C2843 C 0.66418 0.62557 0.99453 0.0
C2844 C 0.64162 0.60766 0.01282 0.0
C2845 C 0.67081 0.61746 0.04489 0.0
C2846 C 0.63453 0.59048 0.99975 0.0
C2847 C 0.61754 0.57887 1.00135 0.0
C2848 C 0.60734 0.58397 0.01625 0.0
C2849 C 0.61413 0.60161 0.02884 0.0
C2850 C 0.63098 0.61337 0.02706 0.0
H2851 H 0.68386 0.61737 0.0526 0.0
H2852 H 0.66403 0.62741 0.05393 0.0
H2853 H 0.66216 0.60252 0.04257 0.0
H2854 H 0.64228 0.58586 0.98842 0.0
H2855 H 0.61251 0.56583 0.99097 0.0
H2856 H 0.71479 0.47877 0.30645 0.0
H2857 H 0.72844 0.45048 0.30438 0.0
H2858 H 0.7081 0.43264 0.24644 0.0
H2859 H 0.69428 0.46139 0.24849 0.0
H2860 H 0.71886 0.41257 0.2993 0.0
H2861 H 0.75794 0.42472 0.23893 0.0
H2862 H 0.74661 0.4427 0.25046 0.0
H2863 H 0.73398 0.42197 0.23395 0.0
C2864 C 0.71293 0.46892 0.29311 0.0
C2865 C 0.70293 0.47313 0.27772 0.0
C2866 C 0.721 0.45234 0.29193 0.0
C2867 C 0.72011 0.4387 0.27516 0.0
C2868 C 0.70984 0.44258 0.25969 0.0
H2869 H 0.76838 0.33066 0.24679 0.0
H2870 H 0.75397 0.35858 0.24599 0.0
C2871 C 0.70149 0.45922 0.26093 0.0
C2872 C 0.72964 0.42083 0.27442 0.0
H2873 H 0.75889 0.39587 0.25047 0.0
C2874 C 0.72762 0.40917 0.28852 0.0
C2875 C 0.74131 0.41534 0.26058 0.0
C2876 C 0.74529 0.42689 0.2452 0.0
C2877 C 0.73612 0.3929 0.28901 0.0
C2878 C 0.74816 0.38764 0.27542 0.0
C2879 C 0.75006 0.3992 0.2612 0.0
C2880 C 0.75853 0.37048 0.27568 0.0
C2881 C 0.73127 0.38097 0.30398 0.0
C2882 C 0.76707 0.36701 0.29232 0.0
C2883 C 0.77545 0.35076 0.29275 0.0
C2884 C 0.77671 0.33718 0.27646 0.0
C2885 C 0.76862 0.34081 0.2597 0.0
C2886 C 0.76005 0.35702 0.25929 0.0
H2887 H 0.71773 0.38206 0.30866 0.0
H2888 H 0.73111 0.36535 0.29899 0.0
H2889 H 0.74132 0.38664 0.31635 0.0
H2890 H 0.7672 0.37686 0.30537 0.0
H2891 H 0.78076 0.34861 0.30616 0.0
H2892 H 0.87224 0.42899 0.5055 0.0
H2893 H 0.90483 0.44237 0.50817 0.0
H2894 H 0.90192 0.47136 0.56479 0.0
H2895 H 0.86904 0.46068 0.56058 0.0
H2896 H 0.92266 0.49403 0.55378 0.0
H2897 H 0.94644 0.42792 0.52708 0.0
H2898 H 0.93164 0.43159 0.50874 0.0
H2899 H 0.92297 0.42677 0.53059 0.0
C2900 C 0.87871 0.43846 0.51835 0.0
C2901 C 0.86832 0.44449 0.53256 0.0
C2902 C 0.89745 0.4457 0.52015 0.0
C2903 C 0.90628 0.45768 0.53687 0.0
C2904 C 0.89571 0.46252 0.55155 0.0
H2905 H 0.02489 0.48621 0.54293 0.0
H2906 H 0.9934 0.47068 0.54513 0.0
C2907 C 0.8769 0.45634 0.54925 0.0
C2908 C 0.92615 0.46643 0.53865 0.0
H2909 H 0.96669 0.4584 0.52491 0.0
C2910 C 0.93225 0.48591 0.54784 0.0
C2911 C 0.93914 0.45609 0.53143 0.0
C2912 C 0.93467 0.43439 0.52416 0.0
C2913 C 0.95059 0.49527 0.54983 0.0
C2914 C 0.96318 0.48567 0.54065 0.0
C2915 C 0.95718 0.46611 0.53167 0.0
C2916 C 0.98252 0.49546 0.54018 0.0
C2917 C 0.95608 0.51503 0.56244 0.0
C2918 C 0.98722 0.51468 0.53698 0.0
C2919 C 1.00534 0.52395 0.5371 0.0
C2920 C 0.01908 0.51363 0.53841 0.0
C2921 C 0.01448 0.49433 0.54129 0.0
C2922 C 0.99643 0.48542 0.54242 0.0
H2923 H 0.94707 0.51621 0.57393 0.0
H2924 H 0.97023 0.51792 0.56884 0.0
H2925 H 0.9546 0.52651 0.55427 0.0
H2926 H 0.97695 0.52265 0.53435 0.0
H2927 H 0.00844 0.53908 0.53583 0.0
H2928 H 0.43058 0.11483 0.29041 0.0
H2929 H 0.42427 0.142 0.27665 0.0
H2930 H 0.37103 0.13288 0.29626 0.0
H2931 H 0.3771 0.10567 0.31005 0.0
H2932 H 0.37272 0.133 0.25635 0.0
H2933 H 0.41818 0.19762 0.30142 0.0
H2934 H 0.42793 0.17716 0.29305 0.0
H2935 H 0.41099 0.17476 0.30928 0.0
C2936 C 0.41763 0.11878 0.29212 0.0
C2937 C 0.40432 0.10795 0.30131 0.0
C2938 C 0.41409 0.13437 0.28427 0.0
C2939 C 0.39721 0.13943 0.28548 0.0
C2940 C 0.38416 0.12917 0.29521 0.0
H2941 H 0.34855 0.22992 0.26155 0.0
H2942 H 0.36372 0.20757 0.27459 0.0
C2943 C 0.38769 0.11366 0.30315 0.0
C2944 C 0.39256 0.15438 0.27543 0.0
H2945 H 0.40109 0.20333 0.27567 0.0
C2946 C 0.37901 0.14837 0.26044 0.0
C2947 C 0.40085 0.17436 0.28086 0.0
C2948 C 0.41523 0.18151 0.2971 0.0
C2949 C 0.3732 0.16189 0.25096 0.0
C2950 C 0.3813 0.18192 0.25653 0.0
C2951 C 0.3951 0.18792 0.27131 0.0
C2952 C 0.37404 0.19691 0.24868 0.0
C2953 C 0.35791 0.15475 0.23558 0.0
C2954 C 0.37518 0.19866 0.22983 0.0
C2955 C 0.36644 0.21151 0.22225 0.0
C2956 C 0.35639 0.22271 0.23343 0.0
C2957 C 0.35595 0.22138 0.25247 0.0
C2958 C 0.36473 0.20869 0.26001 0.0
H2959 H 0.35142 0.13914 0.2348 0.0
H2960 H 0.34741 0.1635 0.23775 0.0
H2961 H 0.36325 0.1565 0.22193 0.0
H2962 H 0.38247 0.18978 0.22091 0.0
H2963 H 0.36707 0.21221 0.20756 0.0
H2964 H 0.34469 0.15828 0.48047 0.0
H2965 H 0.36999 0.14276 0.48577 0.0
H2966 H 0.36695 0.15662 0.54536 0.0
H2967 H 0.34244 0.17336 0.54004 0.0
H2968 H 0.4004 0.15861 0.53961 0.0
H2969 H 0.36217 0.08951 0.49615 0.0
H2970 H 0.36653 0.10854 0.48272 0.0
H2971 H 0.3523 0.11042 0.50174 0.0
C2972 C 0.34971 0.15837 0.49471 0.0
C2973 C 0.34158 0.16703 0.50984 0.0
C2974 C 0.36401 0.14922 0.49774 0.0
C2975 C 0.37003 0.14774 0.51596 0.0
C2976 C 0.36254 0.15732 0.53114 0.0
H2977 H 0.42075 0.05502 0.53937 0.0
H2978 H 0.40081 0.07637 0.53356 0.0
C2979 C 0.34855 0.16699 0.52811 0.0
C2980 C 0.38355 0.13567 0.51916 0.0
H2981 H 0.39275 0.09059 0.50598 0.0
C2982 C 0.39867 0.1437 0.5323 0.0
C2983 C 0.38125 0.11601 0.50996 0.0
C2984 C 0.36459 0.10555 0.49703 0.0
C2985 C 0.41141 0.13276 0.53646 0.0
C2986 C 0.40952 0.1134 0.52663 0.0
C2987 C 0.39445 0.10544 0.51344 0.0
C2988 C 0.42224 0.10063 0.53048 0.0
C2989 C 0.42632 0.14193 0.5519 0.0
C2990 C 0.44114 0.10681 0.53055 0.0
C2991 C 0.45279 0.09476 0.53463 0.0
C2992 C 0.44584 0.07594 0.53826 0.0
C2993 C 0.42685 0.06955 0.53733 0.0
C2994 C 0.41529 0.08174 0.53371 0.0
H2995 H 0.42261 0.15393 0.56168 0.0
H2996 H 0.42948 0.13104 0.56007 0.0
H2997 H 0.43874 0.14825 0.5457 0.0
H2998 H 0.44697 0.12099 0.52748 0.0
H2999 H 0.46725 0.10042 0.53524 0.0
H3000 H 0.68496 0.59216 0.29922 0.0
H3001 H 0.70261 0.62535 0.3005 0.0
H3002 H 0.73993 0.60264 0.26501 0.0
H3003 H 0.7228 0.56934 0.26479 0.0
H3004 H 0.75936 0.6314 0.28629 0.0
H3005 H 0.70101 0.66101 0.26633 0.0
H3006 H 0.69797 0.65225 0.28781 0.0
H3007 H 0.6988 0.63545 0.26651 0.0
C3008 C 0.69701 0.59419 0.29178 0.0
C3009 C 0.70249 0.57774 0.28223 0.0
C3010 C 0.70709 0.61344 0.29226 0.0
C3011 C 0.72267 0.61729 0.28238 0.0
C3012 C 0.72811 0.60072 0.2728 0.0
H3013 H 0.76302 0.73583 0.25717 0.0
H3014 H 0.74755 0.70244 0.25801 0.0
C3015 C 0.71824 0.58144 0.27269 0.0
C3016 C 0.73324 0.63823 0.28206 0.0
H3017 H 0.72827 0.68429 0.27755 0.0
C3018 C 0.75241 0.64284 0.28426 0.0
C3019 C 0.72475 0.65371 0.27904 0.0
C3020 C 0.70453 0.65032 0.27458 0.0
C3021 C 0.76298 0.66179 0.28371 0.0
C3022 C 0.75445 0.67752 0.28168 0.0
C3023 C 0.73528 0.67284 0.27936 0.0
C3024 C 0.76482 0.69853 0.28113 0.0
C3025 C 0.78329 0.66431 0.28453 0.0
C3026 C 0.78007 0.70854 0.29378 0.0
C3027 C 0.7894 0.72784 0.29296 0.0
C3028 C 0.78361 0.73836 0.27984 0.0
C3029 C 0.76814 0.72857 0.26753 0.0
C3030 C 0.7591 0.70918 0.26807 0.0
H3031 H 0.78719 0.65026 0.27958 0.0
H3032 H 0.78939 0.67492 0.27588 0.0
H3033 H 0.78913 0.66957 0.29925 0.0
H3034 H 0.78474 0.70161 0.30464 0.0
H3035 H 0.801 0.73468 0.30294 0.0
H3036 H 0.93892 0.49264 0.80362 0.0
H3037 H 0.92894 0.45722 0.79294 0.0
H3038 H 0.87998 0.46585 0.76555 0.0
H3039 H 0.89045 0.50093 0.77524 0.0
H3040 H 0.90213 0.43627 0.80383 0.0
H3041 H 0.8882 0.42328 0.72768 0.0
H3042 H 0.90123 0.44631 0.74052 0.0
H3043 H 0.87679 0.44176 0.73728 0.0
C3044 C 0.92622 0.48684 0.795 0.0
C3045 C 0.91505 0.49924 0.79081 0.0
C3046 C 0.92055 0.46668 0.78883 0.0
C3047 C 0.90377 0.45877 0.7782 0.0
C3048 C 0.89319 0.47144 0.7732 0.0
H3049 H 0.81492 0.36245 0.76054 0.0
H3050 H 0.83734 0.39348 0.76412 0.0
C3051 C 0.89895 0.49149 0.77918 0.0
C3052 C 0.89582 0.43751 0.775 0.0
H3053 H 0.86817 0.40069 0.74379 0.0
C3054 C 0.89504 0.42835 0.7906 0.0
C3055 C 0.88676 0.42701 0.75765 0.0
C3056 C 0.8885 0.43511 0.73984 0.0
C3057 C 0.88402 0.40986 0.78994 0.0
C3058 C 0.87369 0.40002 0.77298 0.0
C3059 C 0.87566 0.40847 0.75692 0.0
C3060 C 0.86016 0.38146 0.77168 0.0
C3061 C 0.88207 0.40238 0.80804 0.0
C3062 C 0.86559 0.36444 0.77449 0.0
C3063 C 0.85276 0.347 0.77307 0.0
C3064 C 0.83437 0.34618 0.76825 0.0
C3065 C 0.82898 0.36296 0.76472 0.0
C3066 C 0.84177 0.38057 0.76666 0.0
H3067 H 0.8935 0.40982 0.81872 0.0
H3068 H 0.86946 0.40548 0.81364 0.0
H3069 H 0.88136 0.38653 0.80614 0.0
H3070 H 0.87976 0.36458 0.77763 0.0
H3071 H 0.85727 0.33408 0.77538 0.0
H3072 H 0.10477 0.88466 0.12042 0.0
H3073 H 0.10383 0.91598 0.11053 0.0
H3074 H 0.06444 0.88576 0.06471 0.0
H3075 H 0.06521 0.85495 0.07426 0.0
H3076 H 0.10993 0.9297 0.07481 0.0
H3077 H 0.03913 0.92674 0.09193 0.0
H3078 H 0.05289 0.91169 0.10064 0.0
H3079 H 0.04223 0.90508 0.07711 0.0
C3080 C 0.09594 0.88466 0.10822 0.0
C3081 C 0.08495 0.86697 0.0984 0.0
C3082 C 0.09543 0.90265 0.10252 0.0
C3083 C 0.08382 0.9035 0.08694 0.0
C3084 C 0.07327 0.88582 0.07694 0.0
H3085 H 0.078 0.99869 0.02301 0.0
H3086 H 0.08239 0.96813 0.03248 0.0
C3087 C 0.0738 0.86801 0.08252 0.0
C3088 C 0.08218 0.92255 0.08111 0.0
H3089 H 0.05133 0.95043 0.07405 0.0
C3090 C 0.09713 0.93424 0.07475 0.0
C3091 C 0.06553 0.92879 0.08095 0.0
C3092 C 0.04905 0.91755 0.08817 0.0
C3093 C 0.09577 0.95154 0.06804 0.0
C3094 C 0.07898 0.95746 0.06749 0.0
C3095 C 0.06417 0.94595 0.07415 0.0
C3096 C 0.07668 0.9761 0.06124 0.0
C3097 C 0.11242 0.96358 0.06187 0.0
C3098 C 0.07177 0.99087 0.07397 0.0
C3099 C 0.06932 1.00824 0.06857 0.0
C3100 C 0.07116 0.01136 0.05011 0.0
C3101 C 0.07611 0.99666 0.03724 0.0
C3102 C 0.07882 0.97924 0.04274 0.0
H3103 H 0.12501 0.95936 0.06656 0.0
H3104 H 0.11129 0.96147 0.04637 0.0
H3105 H 0.11359 0.97932 0.06739 0.0
H3106 H 0.07 0.98904 0.08827 0.0
H3107 H 0.06579 0.01932 0.07894 0.0
H3108 H 0.96764 0.29272 0.92063 0.0
H3109 H 0.93916 0.29396 0.90351 0.0
H3110 H 0.9502 0.25339 0.85689 0.0
H3111 H 0.97831 0.25177 0.87428 0.0
H3112 H 0.93378 0.30739 0.87352 0.0
H3113 H 0.89834 0.23006 0.85746 0.0
H3114 H 0.9183 0.23863 0.87378 0.0
H3115 H 0.92033 0.23324 0.84899 0.0
C3116 C 0.96382 0.28387 0.90682 0.0
C3117 C 0.97551 0.27261 0.89857 0.0
C3118 C 0.94751 0.2846 0.89697 0.0
C3119 C 0.94219 0.27371 0.87877 0.0
C3120 C 0.95352 0.26168 0.87096 0.0
H3121 H 0.8583 0.26915 0.78873 0.0
H3122 H 0.8838 0.26461 0.80847 0.0
C3123 C 0.96983 0.26098 0.88082 0.0
C3124 C 0.92566 0.27609 0.86753 0.0
H3125 H 0.88729 0.2511 0.83948 0.0
C3126 C 0.92374 0.29499 0.86601 0.0
C3127 C 0.91208 0.2601 0.8579 0.0
C3128 C 0.91225 0.23939 0.85977 0.0
C3129 C 0.9095 0.29834 0.85452 0.0
C3130 C 0.89595 0.28237 0.84482 0.0
C3131 C 0.89759 0.26345 0.84668 0.0
C3132 C 0.88004 0.28498 0.83279 0.0
C3133 C 0.90968 0.31906 0.85236 0.0
C3134 C 0.86894 0.29767 0.83972 0.0
C3135 C 0.85448 0.30051 0.82831 0.0
C3136 C 0.85033 0.29041 0.80971 0.0
C3137 C 0.86104 0.27724 0.80294 0.0
C3138 C 0.87568 0.2746 0.81429 0.0
H3139 H 0.9236 0.32836 0.85524 0.0
H3140 H 0.90433 0.31977 0.83806 0.0
H3141 H 0.90115 0.32532 0.86258 0.0
H3142 H 0.87138 0.30539 0.85405 0.0
H3143 H 0.84643 0.31056 0.83417 0.0
H3144 H 0.56567 0.24924 0.62683 0.0
H3145 H 0.56304 0.21478 0.61298 0.0
H3146 H 0.59419 0.23196 0.5684 0.0
H3147 H 0.59688 0.26644 0.58234 0.0
H3148 H 0.54784 0.19379 0.57716 0.0
H3149 H 0.62095 0.19346 0.58781 0.0
H3150 H 0.61136 0.21283 0.59963 0.0
H3151 H 0.61573 0.21177 0.57553 0.0
C3152 C 0.57186 0.24563 0.61401 0.0
C3153 C 0.58099 0.26055 0.60536 0.0
C3154 C 0.57036 0.22592 0.60609 0.0
C3155 C 0.57847 0.2206 0.58963 0.0
C3156 C 0.58793 0.23554 0.58117 0.0
H3157 H 0.56 0.10002 0.52406 0.0
H3158 H 0.5663 0.1359 0.53215 0.0
C3159 C 0.58928 0.25528 0.58901 0.0
C3160 C 0.57692 0.19946 0.58145 0.0
H3161 H 0.60155 0.16417 0.57203 0.0
C3162 C 0.55962 0.18742 0.57586 0.0
C3163 C 0.59224 0.19091 0.57987 0.0
C3164 C 0.61114 0.20281 0.58614 0.0
C3165 C 0.55725 0.16728 0.56885 0.0
C3166 C 0.57252 0.15874 0.56744 0.0
C3167 C 0.58984 0.17072 0.5729 0.0
C3168 C 0.57049 0.13714 0.56199 0.0
C3169 C 0.53836 0.15503 0.56344 0.0
C3170 C 0.57109 0.12586 0.57596 0.0
C3171 C 0.56746 0.10546 0.57138 0.0
C3172 C 0.56349 0.09575 0.55266 0.0
C3173 C 0.56341 0.10703 0.53856 0.0
C3174 C 0.56689 0.12755 0.54319 0.0
H3175 H 0.5278 0.1637 0.5658 0.0
H3176 H 0.53702 0.14818 0.54842 0.0
H3177 H 0.53586 0.1431 0.57164 0.0
H3178 H 0.57375 0.13285 0.59054 0.0
H3179 H 0.56736 0.09719 0.58257 0.0
H3180 H 0.57901 0.75787 0.40669 0.0
H3181 H 0.60876 0.75843 0.39419 0.0
H3182 H 0.60201 0.8058 0.36667 0.0
H3183 H 0.57292 0.80552 0.37907 0.0
H3184 H 0.61633 0.75234 0.35684 0.0
H3185 H 0.65306 0.82595 0.39142 0.0
H3186 H 0.63228 0.81372 0.39926 0.0
H3187 H 0.63166 0.82668 0.3801 0.0
C3188 C 0.58408 0.76863 0.39829 0.0
C3189 C 0.57349 0.78164 0.39395 0.0
C3190 C 0.60105 0.76888 0.39105 0.0
C3191 C 0.60786 0.78237 0.37966 0.0
C3192 C 0.59739 0.79553 0.37571 0.0
H3193 H 0.67266 0.78105 0.28772 0.0
H3194 H 0.65002 0.77586 0.30992 0.0
C3195 C 0.58057 0.79522 0.38276 0.0
C3196 C 0.62522 0.78225 0.37073 0.0
H3197 H 0.66396 0.81281 0.36242 0.0
C3198 C 0.62691 0.76546 0.35835 0.0
C3199 C 0.63929 0.79921 0.3728 0.0
C3200 C 0.63909 0.81733 0.38678 0.0
C3201 C 0.64159 0.76558 0.34719 0.0
C3202 C 0.65484 0.78307 0.3481 0.0
C3203 C 0.65375 0.79945 0.36138 0.0
C3204 C 0.66911 0.78511 0.3346 0.0
C3205 C 0.64261 0.74695 0.33441 0.0
C3206 C 0.68757 0.79243 0.34088 0.0
C3207 C 0.70066 0.79573 0.32809 0.0
C3208 C 0.69558 0.79202 0.3087 0.0
C3209 C 0.67714 0.78433 0.30251 0.0
C3210 C 0.66412 0.78106 0.31524 0.0
H3211 H 0.63596 0.73399 0.34004 0.0
H3212 H 0.63537 0.74631 0.32058 0.0
H3213 H 0.65686 0.74608 0.33236 0.0
H3214 H 0.69184 0.79585 0.35573 0.0
H3215 H 0.71466 0.80182 0.33344 0.0
H3216 H 0.08011 0.24712 0.38211 0.0
H3217 H 0.07228 0.21806 0.39631 0.0
H3218 H 0.10063 0.25045 0.44868 0.0
H3219 H 0.1088 0.27939 0.43456 0.0
H3220 H 0.10482 0.21171 0.44084 0.0
H3221 H 0.03255 0.21679 0.43251 0.0
H3222 H 0.04363 0.2143 0.41132 0.0
H3223 H 0.05088 0.23598 0.42882 0.0
C3224 C 0.08499 0.24794 0.39654 0.0
C3225 C 0.09486 0.26562 0.4073 0.0
C3226 C 0.08042 0.23135 0.40464 0.0
C3227 C 0.08555 0.23225 0.42364 0.0
C3228 C 0.09647 0.24949 0.43402 0.0
H3229 H 0.03702 0.17696 0.5084 0.0
H3230 H 0.04876 0.19763 0.48632 0.0
C3231 C 0.1011 0.26603 0.42593 0.0
C3232 C 0.07827 0.21599 0.43327 0.0
H3233 H 0.03911 0.19233 0.44789 0.0
C3234 C 0.09044 0.20727 0.44222 0.0
C3235 C 0.05951 0.21046 0.43522 0.0
C3236 C 0.04585 0.21993 0.42661 0.0
C3237 C 0.08439 0.19344 0.45342 0.0
C3238 C 0.06565 0.18809 0.4555 0.0
C3239 C 0.05345 0.19643 0.44616 0.0
C3240 C 0.05852 0.17517 0.46857 0.0
C3241 C 0.09812 0.18534 0.46362 0.0
C3242 C 0.05995 0.15561 0.46577 0.0
C3243 C 0.05319 0.14371 0.47837 0.0
C3244 C 0.04477 0.15117 0.49388 0.0
C3245 C 0.0432 0.17071 0.49647 0.0
C3246 C 0.04998 0.18256 0.48392 0.0
H3247 H 0.11219 0.19368 0.46331 0.0
H3248 H 0.09525 0.18549 0.47843 0.0
H3249 H 0.09731 0.16999 0.45689 0.0
H3250 H 0.06619 0.14953 0.4538 0.0
H3251 H 0.05437 0.12864 0.47588 0.0
H3252 H 0.56498 0.3003 0.19537 0.0
H3253 H 0.59572 0.30137 0.20791 0.0
H3254 H 0.60806 0.27623 0.15329 0.0
H3255 H 0.57704 0.27465 0.14068 0.0
H3256 H 0.61638 0.25627 0.17882 0.0
H3257 H 0.64518 0.33422 0.20607 0.0
H3258 H 0.62367 0.32673 0.2148 0.0
H3259 H 0.62493 0.32599 0.19005 0.0
C3260 C 0.57433 0.2954 0.1859 0.0
C3261 C 0.56854 0.28731 0.16705 0.0
C3262 C 0.59199 0.29617 0.19308 0.0
C3263 C 0.60431 0.28912 0.18151 0.0
C3264 C 0.59881 0.28185 0.16246 0.0
H3265 H 0.71165 0.29201 0.23682 0.0
H3266 H 0.68866 0.29654 0.21388 0.0
C3267 C 0.58109 0.28098 0.15527 0.0
C3268 C 0.622 0.28712 0.18986 0.0
H3269 H 0.65827 0.31138 0.22075 0.0
C3270 C 0.62572 0.26842 0.18768 0.0
C3271 C 0.63438 0.30297 0.20119 0.0
C3272 C 0.63193 0.32363 0.20299 0.0
C3273 C 0.64082 0.26494 0.19747 0.0
C3274 C 0.65229 0.28048 0.21007 0.0
C3275 C 0.64929 0.29941 0.21131 0.0
C3276 C 0.66648 0.2771 0.22317 0.0
C3277 C 0.64412 0.24454 0.19448 0.0
C3278 C 0.6616 0.26477 0.23604 0.0
C3279 C 0.67465 0.26208 0.24902 0.0
C3280 C 0.69286 0.27182 0.24956 0.0
C3281 C 0.69777 0.28412 0.2366 0.0
C3282 C 0.68465 0.28681 0.22357 0.0
H3283 H 0.63828 0.23623 0.18042 0.0
H3284 H 0.65883 0.24471 0.19597 0.0
H3285 H 0.63746 0.23669 0.20505 0.0
H3286 H 0.6476 0.25743 0.23625 0.0
H3287 H 0.67045 0.25238 0.25869 0.0
H3288 H 0.62869 0.89185 0.88691 0.0
H3289 H 0.63545 0.92386 0.90743 0.0
H3290 H 0.6103 0.89763 0.95154 0.0
H3291 H 0.60481 0.86575 0.93165 0.0
H3292 H 0.61256 0.94215 0.91785 0.0
H3293 H 0.64812 0.93656 0.98336 0.0
H3294 H 0.64644 0.91816 0.96266 0.0
H3295 H 0.62906 0.91641 0.97876 0.0
C3296 C 0.62525 0.89293 0.90124 0.0
C3297 C 0.61626 0.87638 0.90774 0.0
C3298 C 0.62909 0.91121 0.91296 0.0
C3299 C 0.6236 0.91328 0.9312 0.0
C3300 C 0.61534 0.89652 0.93787 0.0
H3301 H 0.56135 0.98724 0.97768 0.0
H3302 H 0.57742 0.96599 0.95885 0.0
C3303 C 0.61201 0.87822 0.92637 0.0
C3304 C 0.62341 0.93285 0.94202 0.0
H3305 H 0.62471 0.95672 0.98692 0.0
C3306 C 0.6158 0.94558 0.93289 0.0
C3307 C 0.62811 0.93795 0.96158 0.0
C3308 C 0.6386 0.92658 0.97202 0.0
C3309 C 0.61101 0.962 0.94299 0.0
C3310 C 0.61305 0.96524 0.96276 0.0
C3311 C 0.62249 0.95385 0.97177 0.0
C3312 C 0.60369 0.97872 0.97418 0.0
C3313 C 0.60324 0.97528 0.93231 0.0
C3314 C 0.61288 0.99235 0.98969 0.0
C3315 C 0.60355 1.00422 1.00086 0.0
C3316 C 0.58491 1.00268 0.9966 0.0
C3317 C 0.57575 0.98897 0.98116 0.0
C3318 C 0.58499 0.97694 0.97024 0.0
H3319 H 0.60955 0.97606 0.91895 0.0
H3320 H 0.58849 0.96931 0.9287 0.0
H3321 H 0.60532 0.99028 0.94054 0.0
H3322 H 0.62725 0.9938 0.99316 0.0
H3323 H 0.61095 0.01468 0.01271 0.0
H3324 H 0.97875 0.83067 0.68674 0.0
H3325 H 0.94969 0.82712 0.70044 0.0
H3326 H 0.9416 0.76452 0.68623 0.0
H3327 H 0.96998 0.768 0.67162 0.0
H3328 H 0.91139 0.77394 0.6805 0.0
H3329 H 0.94204 0.81379 0.75056 0.0
H3330 H 0.94605 0.82882 0.73317 0.0
H3331 H 0.95556 0.80751 0.73181 0.0
C3332 C 0.9706 0.81618 0.68633 0.0
C3333 C 0.9766 0.79962 0.67815 0.0
C3334 C 0.95414 0.81416 0.69436 0.0
C3335 C 0.94375 0.79554 0.6949 0.0
C3336 C 0.94943 0.77903 0.68611 0.0
H3337 H 0.85849 0.7764 0.77057 0.0
H3338 H 0.88733 0.77878 0.75614 0.0
C3339 C 0.96563 0.78104 0.67768 0.0
C3340 C 0.92696 0.79312 0.7046 0.0
H3341 H 0.90979 0.80662 0.74589 0.0
C3342 C 0.91108 0.78103 0.69484 0.0
C3343 C 0.92664 0.80189 0.7235 0.0
C3344 C 0.94354 0.81353 0.73543 0.0
C3345 C 0.89482 0.77777 0.70328 0.0
C3346 C 0.8942 0.78769 0.72171 0.0
C3347 C 0.91017 0.79937 0.73165 0.0
C3348 C 0.87703 0.78651 0.73071 0.0
C3349 C 0.87868 0.76332 0.69244 0.0
C3350 C 0.86188 0.79047 0.72142 0.0
C3351 C 0.84548 0.78861 0.7294 0.0
C3352 C 0.84426 0.78403 0.74733 0.0
C3353 C 0.85944 0.78058 0.75696 0.0
C3354 C 0.87578 0.7818 0.74868 0.0
H3355 H 0.88302 0.75209 0.68227 0.0
H3356 H 0.86979 0.75582 0.70185 0.0
H3357 H 0.87067 0.77107 0.68435 0.0
H3358 H 0.86264 0.79476 0.70787 0.0
H3359 H 0.83372 0.79076 0.72157 0.0
H3360 H 0.18292 0.03806 0.84962 0.0
H3361 H 0.16667 0.04071 0.87764 0.0
H3362 H 0.11681 0.01141 0.84468 0.0
H3363 H 0.13311 1.00915 0.81611 0.0
H3364 H 0.13824 0.05936 0.88874 0.0
H3365 H 0.11434 0.98051 0.88817 0.0
H3366 H 0.13209 0.98968 0.87428 0.0
H3367 H 0.10885 0.98869 0.86695 0.0
C3368 C 0.16846 0.03207 0.84797 0.0
C3369 C 0.15976 0.02328 0.82981 0.0
C3370 C 0.159 0.03367 0.86443 0.0
C3371 C 0.14015 0.02617 0.86414 0.0
C3372 C 0.13129 0.01723 0.84606 0.0
H3373 H 0.06592 0.01491 0.95771 0.0
H3374 H 0.08006 0.01211 0.92818 0.0
C3375 C 0.14076 0.01597 0.82938 0.0
C3376 C 0.1302 0.02814 0.88254 0.0
H3377 H 0.1051 1.00197 0.91205 0.0
C3378 C 0.13102 0.04667 0.89369 0.0
C3379 C 0.12036 0.01201 0.88973 0.0
C3380 C 0.11887 0.99155 0.87934 0.0
C3381 C 0.12237 0.0495 0.91079 0.0
C3382 C 0.11296 0.03332 0.9184 0.0
C3383 C 0.11211 0.01475 0.90711 0.0
C3384 C 0.10387 0.03526 0.93749 0.0
C3385 C 0.12285 0.07021 0.91993 0.0
C3386 C 0.11189 0.04889 0.95391 0.0
C3387 C 0.10333 0.05087 0.97103 0.0
C3388 C 0.08632 0.03899 0.97321 0.0
C3389 C 0.07864 0.02481 0.95711 0.0
C3390 C 0.08704 0.02308 0.93986 0.0
H3391 H 0.12429 0.08007 0.90955 0.0
H3392 H 0.11038 0.07141 0.92693 0.0
H3393 H 0.13479 0.07546 0.93043 0.0
H3394 H 0.12513 0.05809 0.95378 0.0
H3395 H 0.1103 0.06178 0.98275 0.0
H3396 H 0.82501 0.43191 0.59768 0.0
H3397 H 0.828 0.41508 0.62383 0.0
H3398 H 0.79873 0.36102 0.58977 0.0
H3399 H 0.79588 0.37776 0.56332 0.0
H3400 H 0.80356 0.3916 0.64336 0.0
H3401 H 0.84868 0.35031 0.60389 0.0
H3402 H 0.84221 0.37105 0.59656 0.0
H3403 H 0.82646 0.34788 0.59253 0.0
C3404 C 0.81892 0.4165 0.5958 0.0
C3405 C 0.81041 0.40611 0.57835 0.0
C3406 C 0.82063 0.40691 0.61079 0.0
C3407 C 0.8139 0.38675 0.60862 0.0
C3408 C 0.8043 0.37654 0.59161 0.0
H3409 H 0.83946 0.30907 0.68206 0.0
H3410 H 0.82567 0.32214 0.65728 0.0
C3411 C 0.80258 0.38614 0.57656 0.0
C3412 C 0.81834 0.3764 0.62368 0.0
H3413 H 0.84403 0.34492 0.63434 0.0
C3414 C 0.81227 0.38126 0.64137 0.0
C3415 C 0.82979 0.36299 0.62105 0.0
C3416 C 0.83732 0.3578 0.60255 0.0
C3417 C 0.81747 0.37316 0.65656 0.0
C3418 C 0.82929 0.36014 0.65403 0.0
C3419 C 0.83496 0.3549 0.63623 0.0
C3420 C 0.8366 0.35235 0.66976 0.0
C3421 C 0.81026 0.37857 0.67517 0.0
C3422 C 0.84741 0.36501 0.68496 0.0
C3423 C 0.85527 0.3576 0.69919 0.0
C3424 C 0.85257 0.33736 0.6984 0.0
C3425 C 0.84166 0.32473 0.68319 0.0
C3426 C 0.83381 0.33216 0.66898 0.0
H3427 H 0.79757 0.38389 0.67351 0.0
H3428 H 0.80755 0.36597 0.68251 0.0
H3429 H 0.82048 0.39046 0.68413 0.0
H3430 H 0.85004 0.38064 0.68566 0.0
H3431 H 0.86341 0.36772 0.71083 0.0
H3432 H 0.42084 0.08547 0.37891 0.0
H3433 H 0.44106 0.09285 0.40799 0.0
H3434 H 0.47996 0.06579 0.37863 0.0
H3435 H 0.4605 0.05927 0.3498 0.0
H3436 H 0.45215 0.07037 0.42774 0.0
H3437 H 0.51371 0.11301 0.40604 0.0
H3438 H 0.49224 0.10785 0.39211 0.0
H3439 H 0.50701 0.09085 0.38928 0.0
C3440 C 0.43384 0.0814 0.37868 0.0
C3441 C 0.43915 0.07203 0.36199 0.0
C3442 C 0.4454 0.08566 0.39527 0.0
C3443 C 0.46235 0.08046 0.39542 0.0
C3444 C 0.4674 0.0708 0.37879 0.0
H3445 H 0.514 0.033 0.47424 0.0
H3446 H 0.49524 0.04284 0.45103 0.0
C3447 C 0.45609 0.06687 0.36228 0.0
C3448 C 0.47418 0.08318 0.41307 0.0
H3449 H 0.51884 0.09279 0.42938 0.0
C3450 C 0.46668 0.07575 0.42826 0.0
C3451 C 0.49312 0.09082 0.41423 0.0
C3452 C 0.50188 0.10129 0.39959 0.0
C3453 C 0.47776 0.07403 0.44369 0.0
C3454 C 0.49685 0.07907 0.44352 0.0
C3455 C 0.50425 0.08828 0.42925 0.0
C3456 C 0.50917 0.07324 0.45701 0.0
C3457 C 0.46882 0.06642 0.4598 0.0
C3458 C 0.52418 0.08673 0.46713 0.0
C3459 C 0.53536 0.08093 0.48008 0.0
C3460 C 0.53151 0.06164 0.48316 0.0
C3461 C 0.51704 0.04805 0.47239 0.0
C3462 C 0.50617 0.05372 0.45928 0.0
H3463 H 0.45565 0.0708 0.46147 0.0
H3464 H 0.46595 0.05025 0.45691 0.0
H3465 H 0.47754 0.07183 0.47318 0.0
H3466 H 0.52697 0.1018 0.46535 0.0
H3467 H 0.54647 0.09167 0.48821 0.0
H3468 H 0.79881 0.69631 0.0769 0.0
H3469 H 0.79995 0.71124 0.10986 0.0
H3470 H 0.81591 0.76828 0.09582 0.0
H3471 H 0.81492 0.75338 0.06265 0.0
H3472 H 0.83102 0.73782 0.13306 0.0
H3473 H 0.77096 0.77091 0.12728 0.0
H3474 H 0.77445 0.75115 0.10979 0.0
H3475 H 0.78784 0.77528 0.11109 0.0
C3476 C 0.80265 0.71204 0.08076 0.0
C3477 C 0.80679 0.72361 0.06705 0.0
C3478 C 0.80325 0.72057 0.09966 0.0
C3479 C 0.80777 0.74092 0.10537 0.0
C3480 C 0.81213 0.75257 0.09177 0.0
H3481 H 0.81262 0.80568 0.22214 0.0
H3482 H 0.81183 0.79873 0.18762 0.0
C3483 C 0.8117 0.74401 0.07282 0.0
C3484 C 0.80829 0.74967 0.12562 0.0
H3485 H 0.78578 0.77474 0.15743 0.0
C3486 C 0.82121 0.74603 0.13833 0.0
C3487 C 0.79562 0.76055 0.13258 0.0
C3488 C 0.78132 0.7647 0.11958 0.0
C3489 C 0.82161 0.75261 0.15772 0.0
C3490 C 0.80841 0.7627 0.16481 0.0
C3491 C 0.79586 0.76697 0.15207 0.0
C3492 C 0.80674 0.76738 0.18539 0.0
C3493 C 0.83619 0.74857 0.17049 0.0
C3494 C 0.80336 0.75216 0.19554 0.0
C3495 C 0.80383 0.75609 0.21502 0.0
C3496 C 0.80726 0.77534 0.22496 0.0
C3497 C 0.80969 0.7907 0.21483 0.0
C3498 C 0.80933 0.78672 0.19514 0.0
H3499 H 0.8482 0.74639 0.16298 0.0
H3500 H 0.84063 0.76066 0.18266 0.0
H3501 H 0.83079 0.73502 0.17582 0.0
H3502 H 0.80093 0.73713 0.18841 0.0
H3503 H 0.80195 0.74397 0.22246 0.0
H3504 H 0.1752 0.02681 0.70296 0.0
H3505 H 0.16042 0.03089 0.67339 0.0
H3506 H 0.1082 0.01246 0.69294 0.0
H3507 H 0.12297 1.00853 0.72251 0.0
H3508 H 0.13943 1.00948 0.64395 0.0
H3509 H 0.09657 0.05807 0.67474 0.0
H3510 H 0.11407 0.05174 0.68871 0.0
H3511 H 0.09233 0.03518 0.6826 0.0
C3512 C 0.16054 0.02352 0.7011 0.0
C3513 C 0.15062 0.0172 0.7158 0.0
C3514 C 0.15191 0.02594 0.68386 0.0
C3515 C 0.13276 0.02255 0.6802 0.0
C3516 C 0.12285 0.01594 0.69481 0.0
H3517 H 0.05757 0.03146 0.58013 0.0
H3518 H 0.07018 0.02708 0.61089 0.0
C3519 C 0.13148 0.01339 0.712 0.0
C3520 C 0.12345 0.02549 0.66129 0.0
H3521 H 0.09086 0.04634 0.64203 0.0
C3522 C 0.12889 0.01768 0.64381 0.0
C3523 C 0.10932 0.036 0.66002 0.0
C3524 C 0.10281 0.0459 0.67748 0.0
C3525 C 0.12085 0.01961 0.62602 0.0
C3526 C 0.10692 0.03038 0.62472 0.0
C3527 C 0.10136 0.03808 0.6422 0.0
C3528 C 0.09852 0.03405 0.60568 0.0
C3529 C 0.12711 1.00919 0.60865 0.0
C3530 C 0.10955 0.04022 0.59176 0.0
C3531 C 0.10226 0.04273 0.57408 0.0
C3532 C 0.08338 0.03982 0.56902 0.0
C3533 C 0.07214 0.03424 0.58306 0.0
C3534 C 0.07952 0.03159 0.60092 0.0
H3535 H 0.1323 0.99637 0.61147 0.0
H3536 H 0.11601 1.00409 0.59718 0.0
H3537 H 0.13841 0.01925 0.60387 0.0
H3538 H 0.12413 0.04318 0.59448 0.0
H3539 H 0.11168 0.04699 0.56408 0.0
H3540 H 0.81618 0.44218 0.4598 0.0
H3541 H 0.81394 0.42277 0.42845 0.0
H3542 H 0.8019 0.37003 0.45124 0.0
H3543 H 0.80379 0.38925 0.48262 0.0
H3544 H 0.83616 0.39812 0.41746 0.0
H3545 H 0.76453 0.35736 0.40639 0.0
H3546 H 0.77244 0.37843 0.42467 0.0
H3547 H 0.77617 0.35501 0.42772 0.0
C3548 C 0.81267 0.42645 0.45816 0.0
C3549 C 0.81019 0.41732 0.47382 0.0
C3550 C 0.81145 0.41537 0.4402 0.0
C3551 C 0.80764 0.39495 0.43747 0.0
C3552 C 0.8045 0.38576 0.45294 0.0
H3553 H 0.81013 0.30296 0.34352 0.0
H3554 H 0.80953 0.32234 0.37449 0.0
C3555 C 0.80565 0.39682 0.47093 0.0
C3556 C 0.80852 0.38337 0.41872 0.0
H3557 H 0.78448 0.34658 0.38477 0.0
C3558 C 0.82481 0.38695 0.41024 0.0
C3559 C 0.79374 0.36872 0.40939 0.0
C3560 C 0.77567 0.36474 0.41741 0.0
C3561 C 0.82682 0.37611 0.39283 0.0
C3562 C 0.81207 0.36144 0.38354 0.0
C3563 C 0.79578 0.35781 0.39198 0.0
C3564 C 0.81319 0.34987 0.3649 0.0
C3565 C 0.84482 0.38015 0.38469 0.0
C3566 C 0.81554 0.35895 0.34928 0.0
C3567 C 0.81579 0.34791 0.33155 0.0
C3568 C 0.81354 0.32755 0.32911 0.0
C3569 C 0.81166 0.31857 0.34489 0.0
C3570 C 0.81133 0.32961 0.3626 0.0
H3571 H 0.85591 0.38838 0.39545 0.0
H3572 H 0.84841 0.36637 0.37817 0.0
H3573 H 0.84392 0.38902 0.37367 0.0
H3574 H 0.81675 0.37454 0.35072 0.0
H3575 H 0.81718 0.3553 0.31971 0.0
H3576 H 0.4281 0.03924 0.23904 0.0
H3577 H 0.44623 0.03461 0.21238 0.0
H3578 H 0.49395 0.06923 0.24646 0.0
H3579 H 0.47604 0.07406 0.273 0.0
H3580 H 0.49018 0.07665 0.209 0.0
H3581 H 0.48247 0.99797 0.21231 0.0
H3582 H 0.46186 1.00654 0.21014 0.0
H3583 H 0.47701 0.01524 0.23106 0.0
C3584 C 0.4424 0.0461 0.24074 0.0
C3585 C 0.45072 0.05682 0.25813 0.0
C3586 C 0.45272 0.04336 0.22556 0.0
C3587 C 0.47143 0.05132 0.22764 0.0
C3588 C 0.47953 0.0629 0.24467 0.0
H3589 H 0.56508 0.0477 0.16548 0.0
H3590 H 0.544 0.05384 0.18904 0.0
C3591 C 0.46928 0.06559 0.25981 0.0
C3592 C 0.48293 0.04676 0.21254 0.0
H3593 H 0.50012 0.00984 0.1894 0.0
C3594 C 0.49231 0.06205 0.2046 0.0
C3595 C 0.48567 0.02769 0.20701 0.0
C3596 C 0.47636 0.01089 0.21562 0.0
C3597 C 0.50442 0.05875 0.19116 0.0
C3598 C 0.50742 0.03974 0.18589 0.0
C3599 C 0.49781 0.0244 0.19361 0.0
C3600 C 0.52036 0.0354 0.1722 0.0
C3601 C 0.51375 0.07555 0.18258 0.0
C3602 C 0.5141 0.0224 0.15536 0.0
C3603 C 0.52608 0.01871 0.14205 0.0
C3604 C 0.54455 0.02793 0.14539 0.0
C3605 C 0.55093 0.04038 0.16259 0.0
C3606 C 0.53889 0.04407 0.17592 0.0
H3607 H 0.50667 0.08782 0.1846 0.0
H3608 H 0.52778 0.08103 0.18934 0.0
H3609 H 0.51452 0.07086 0.16737 0.0
H3610 H 0.49987 0.01541 0.15236 0.0
H3611 H 0.52086 1.00882 0.12903 0.0
H3612 H 0.81215 0.7402 0.97332 0.0
H3613 H 0.81678 0.75684 0.94644 0.0
H3614 H 0.80491 0.70126 0.90905 0.0
H3615 H 0.80068 0.68467 0.93551 0.0
H3616 H 0.8334 0.72496 0.8988 0.0
H3617 H 0.77789 0.76455 0.90995 0.0
H3618 H 0.79492 0.76955 0.92932 0.0
H3619 H 0.78074 0.74552 0.92256 0.0
C3620 C 0.81059 0.73152 0.95939 0.0
C3621 C 0.80597 0.711 0.95678 0.0
C3622 C 0.81312 0.74108 0.94395 0.0
C3623 C 0.81094 0.73038 0.92553 0.0
C3624 C 0.80667 0.70996 0.923 0.0
H3625 H 0.78523 0.76106 0.8193 0.0
H3626 H 0.7864 0.74998 0.84906 0.0
C3627 C 0.80422 0.70045 0.9383 0.0
C3628 C 0.81294 0.74006 0.9087 0.0
H3629 H 0.79492 0.76997 0.88446 0.0
C3630 C 0.82507 0.73493 0.89576 0.0
C3631 C 0.80195 0.75291 0.90447 0.0
C3632 C 0.78801 0.75837 0.91718 0.0
C3633 C 0.8263 0.74193 0.87875 0.0
C3634 C 0.81535 0.75484 0.87456 0.0
C3635 C 0.80343 0.76022 0.88763 0.0
C3636 C 0.81509 0.76184 0.85621 0.0
C3637 C 0.83876 0.73474 0.86507 0.0
C3638 C 0.83082 0.7723 0.85001 0.0
C3639 C 0.83022 0.77859 0.8327 0.0
C3640 C 0.81381 0.77484 0.82125 0.0
C3641 C 0.79813 0.76436 0.82756 0.0
C3642 C 0.79876 0.75803 0.84475 0.0
H3643 H 0.84276 0.72142 0.86827 0.0
H3644 H 0.83225 0.73147 0.85052 0.0
H3645 H 0.85128 0.74622 0.86584 0.0
H3646 H 0.84359 0.77576 0.85861 0.0
H3647 H 0.84263 0.78638 0.82831 0.0
H3648 H 0.81451 0.08795 0.98774 0.0
H3649 H 0.83993 0.07214 0.98415 0.0
H3650 H 0.87238 0.11694 0.02708 0.0
H3651 H 0.84676 0.13295 0.03104 0.0
H3652 H 0.87455 0.0866 0.97449 0.0
H3653 H 0.8762 0.06581 0.04473 0.0
H3654 H 0.85726 0.07384 0.03494 0.0
H3655 H 0.87766 0.09127 0.04464 0.0
C3656 C 0.82701 0.09456 0.99647 0.0
C3657 C 0.82852 0.11175 0.00977 0.0
C3658 C 0.84156 0.08546 0.99435 0.0
C3659 C 0.85794 0.09324 1.00547 0.0
C3660 C 0.85971 0.11054 0.01857 0.0
H3661 H 0.9589 0.05678 0.98545 0.0
H3662 H 0.93463 0.07465 0.98834 0.0
C3663 C 0.84509 0.11972 0.02074 0.0
C3664 C 0.87303 0.08302 1.00318 0.0
H3665 H 0.89866 0.05795 0.02539 0.0
C3666 C 0.8799 0.08039 0.98563 0.0
C3667 C 0.87973 0.0747 0.01766 0.0
C3668 C 0.87227 0.07635 0.03653 0.0
C3669 C 0.89331 0.06966 0.98216 0.0
C3670 C 0.90021 0.06159 0.99673 0.0
C3671 C 0.89334 0.0642 0.01427 0.0
C3672 C 0.91463 0.05046 0.9941 0.0
C3673 C 0.89968 0.06665 0.96282 0.0
C3674 C 0.91145 0.03096 0.99651 0.0
C3675 C 0.92535 0.02074 0.99503 0.0
C3676 C 0.94271 0.02994 0.99129 0.0
C3677 C 0.94571 0.04936 0.98852 0.0
C3678 C 0.93183 0.05954 0.99 0.0
H3679 H 0.88987 0.0693 0.95217 0.0
H3680 H 0.91278 0.07703 0.96273 0.0
H3681 H 0.90182 0.05163 0.95869 0.0
H3682 H 0.89825 0.02374 0.99977 0.0
H3683 H 0.92269 1.00589 0.99744 0.0
H3684 H 0.37577 0.39818 0.0204 0.0
H3685 H 0.4076 0.41521 0.02125 0.0
H3686 H 0.39747 0.46331 0.06068 0.0
H3687 H 0.3658 0.4461 0.06005 0.0
H3688 H 0.41993 0.44969 0.01067 0.0
H3689 H 0.44418 0.45538 0.08477 0.0
H3690 H 0.42328 0.43915 0.07405 0.0
H3691 H 0.42403 0.46458 0.08218 0.0
C3692 C 0.38046 0.41233 0.02933 0.0
C3693 C 0.36832 0.42117 0.03971 0.0
C3694 C 0.39861 0.42202 0.02984 0.0
C3695 C 0.40503 0.44048 0.04116 0.0
C3696 C 0.39299 0.44894 0.05211 0.0
H3697 H 0.50397 0.53063 0.05833 0.0
H3698 H 0.4744 0.50985 0.06011 0.0
C3699 C 0.37484 0.43928 0.05152 0.0
C3700 C 0.42388 0.45154 0.04041 0.0
H3701 H 0.4629 0.47571 0.06731 0.0
C3702 C 0.4292 0.4556 0.02309 0.0
C3703 C 0.43626 0.45878 0.05654 0.0
C3704 C 0.43174 0.4541 0.07541 0.0
C3705 C 0.446 0.46771 0.02157 0.0
C3706 C 0.4585 0.47495 0.03768 0.0
C3707 C 0.45339 0.47033 0.05495 0.0
C3708 C 0.4768 0.48742 0.0369 0.0
C3709 C 0.44968 0.47328 1.0028 0.0
C3710 C 0.48837 0.48167 0.02365 0.0
C3711 C 0.50494 0.494 0.02208 0.0
C3712 C 0.51068 0.51217 0.03413 0.0
C3713 C 0.49967 0.51727 0.04825 0.0
C3714 C 0.48283 0.50518 0.04948 0.0
H3715 H 0.43687 0.47227 0.99412 0.0
H3716 H 0.45791 0.48835 1.00436 0.0
H3717 H 0.4571 0.46306 0.99506 0.0
H3718 H 0.48453 0.46768 0.01434 0.0
H3719 H 0.51318 0.48925 0.0113 0.0
H3720 H 0.39797 0.62061 0.80832 0.0
H3721 H 0.38344 0.64774 0.80587 0.0
H3722 H 0.40759 0.65453 0.75466 0.0
H3723 H 0.42223 0.62701 0.75706 0.0
H3724 H 0.39138 0.68553 0.80684 0.0
H3725 H 0.35816 0.65681 0.73548 0.0
H3726 H 0.36942 0.64235 0.74822 0.0
H3727 H 0.38236 0.66022 0.73657 0.0
C3728 C 0.40049 0.62778 0.79645 0.0
C3729 C 0.41181 0.62089 0.78302 0.0
C3730 C 0.39191 0.64369 0.79504 0.0
C3731 C 0.39358 0.65385 0.77985 0.0
C3732 C 0.40517 0.64728 0.76647 0.0
H3733 H 0.34533 0.74963 0.74416 0.0
H3734 H 0.36042 0.72319 0.74763 0.0
C3735 C 0.414 0.63138 0.768 0.0
C3736 C 0.38336 0.67093 0.77841 0.0
H3737 H 0.35565 0.68852 0.74893 0.0
C3738 C 0.38359 0.68595 0.79405 0.0
C3739 C 0.37275 0.67246 0.76203 0.0
C3740 C 0.37044 0.65705 0.74466 0.0
C3741 C 0.37453 0.70189 0.79369 0.0
C3742 C 0.3638 0.7034 0.77732 0.0
C3743 C 0.36352 0.68827 0.76172 0.0
C3744 C 0.35356 0.72048 0.77566 0.0
C3745 C 0.37735 0.71749 0.81097 0.0
C3746 C 0.34372 0.72898 0.78991 0.0
C3747 C 0.3349 0.74481 0.78793 0.0
C3748 C 0.3349 0.75285 0.77133 0.0
C3749 C 0.34448 0.74417 0.75717 0.0
C3750 C 0.35332 0.72862 0.75918 0.0
H3751 H 0.38996 0.71786 0.81969 0.0
H3752 H 0.37817 0.73212 0.80733 0.0
H3753 H 0.36585 0.71435 0.8196 0.0
H3754 H 0.34258 0.72331 0.80274 0.0
H3755 H 0.32811 0.75075 0.7995 0.0
H3756 H 0.23896 0.66483 0.50318 0.0
H3757 H 0.20609 0.65665 0.50571 0.0
H3758 H 0.21377 0.61543 0.54089 0.0
H3759 H 0.24648 0.62379 0.53855 0.0
H3760 H 0.18337 0.62019 0.49438 0.0
H3761 H 0.18118 0.64627 0.57005 0.0
H3762 H 0.20084 0.65368 0.55783 0.0
H3763 H 0.19673 0.63054 0.5654 0.0
C3764 C 0.23352 0.6541 0.51148 0.0
C3765 C 0.24497 0.64445 0.52021 0.0
C3766 C 0.21485 0.64949 0.51297 0.0
C3767 C 0.20755 0.63561 0.52367 0.0
C3768 C 0.21915 0.62644 0.53286 0.0
H3769 H 0.10528 0.55855 0.52094 0.0
H3770 H 0.137 0.57512 0.5215 0.0
C3771 C 0.23774 0.63097 0.53128 0.0
C3772 C 0.18774 0.62961 0.52423 0.0
H3773 H 0.15455 0.62388 0.55402 0.0
C3774 C 0.17707 0.62107 0.50739 0.0
C3775 C 0.17949 0.63115 0.54124 0.0
C3776 C 0.19012 0.64109 0.55964 0.0
C3777 C 0.15855 0.613 0.50719 0.0
C3778 C 0.15052 0.61373 0.52425 0.0
C3779 C 0.16091 0.62313 0.54102 0.0
C3780 C 0.13149 0.60401 0.5249 0.0
C3781 C 0.14771 0.60336 0.48882 0.0
C3782 C 0.11803 0.61487 0.52676 0.0
C3783 C 0.09989 0.60542 0.52651 0.0
C3784 C 0.09512 0.58508 0.52486 0.0
C3785 C 0.10864 0.57426 0.5229 0.0
C3786 C 0.12673 0.58369 0.52305 0.0
H3787 H 0.15529 0.60649 0.47664 0.0
H3788 H 0.1443 0.58734 0.48811 0.0
H3789 H 0.13478 0.6083 0.48776 0.0
H3790 H 0.12154 0.63058 0.52808 0.0
H3791 H 0.08959 0.61396 0.52768 0.0
H3792 H 0.72118 1.00072 0.7352 0.0
H3793 H 0.74107 0.97783 0.73758 0.0
H3794 H 0.76604 0.01243 0.79047 0.0
H3795 H 0.74641 0.03515 0.78832 0.0
H3796 H 0.78097 0.9892 0.74175 0.0
H3797 H 0.75259 0.95568 0.80029 0.0
H3798 H 0.73995 0.9679 0.78622 0.0
H3799 H 0.75681 0.98184 0.80445 0.0
C3800 C 0.73071 1.00324 0.74746 0.0
C3801 C 0.73223 0.01975 0.76155 0.0
C3802 C 0.74209 0.99024 0.74874 0.0
C3803 C 0.75489 0.99344 0.76426 0.0
C3804 C 0.7561 1.00961 0.7785 0.0
H3805 H 0.83843 0.94142 0.80553 0.0
H3806 H 0.81923 0.96389 0.79943 0.0
C3807 C 0.7449 0.02263 0.77718 0.0
C3808 C 0.76773 0.98057 0.76539 0.0
H3809 H 0.78171 0.95101 0.79266 0.0
C3810 C 0.78105 0.98064 0.75272 0.0
C3811 C 0.76783 0.96962 0.77983 0.0
C3812 C 0.75344 0.96856 0.7934 0.0
C3813 C 0.79488 0.97046 0.7545 0.0
C3814 C 0.79514 0.95976 0.76915 0.0
C3815 C 0.7816 0.95944 0.78159 0.0
C3816 C 0.8089 0.94817 0.77158 0.0
C3817 C 0.80935 0.97168 0.74104 0.0
C3818 C 0.8098 0.93225 0.75774 0.0
C3819 C 0.82081 0.91953 0.76114 0.0
C3820 C 0.83098 0.92241 0.77851 0.0
C3821 C 0.83086 0.93897 0.79197 0.0
C3822 C 0.81982 0.9517 0.78855 0.0
H3823 H 0.81005 0.98448 0.73405 0.0
H3824 H 0.82286 0.97261 0.74831 0.0
H3825 H 0.80619 0.95836 0.73004 0.0
H3826 H 0.80129 0.92908 0.74466 0.0
H3827 H 0.82074 0.90692 0.75049 0.0
H3828 H 0.77372 0.93546 0.50334 0.0
H3829 H 0.74659 0.94867 0.50404 0.0
H3830 H 0.73474 0.92805 0.55533 0.0
H3831 H 0.76236 0.91475 0.55479 0.0
H3832 H 0.70981 0.93149 0.50471 0.0
H3833 H 0.73632 0.9872 0.56877 0.0
H3834 H 0.75078 0.97378 0.55572 0.0
H3835 H 0.73528 0.96208 0.57024 0.0
C3836 C 0.76531 0.93353 0.51474 0.0
C3837 C 0.77034 0.92415 0.5291 0.0
C3838 C 0.74973 0.94109 0.51508 0.0
C3839 C 0.73871 0.93968 0.52987 0.0
C3840 C 0.74318 0.9296 0.54391 0.0
H3841 H 0.65262 1.0071 0.5447 0.0
H3842 H 0.67121 0.9835 0.54926 0.0
C3843 C 0.75885 0.92182 0.5435 0.0
C3844 C 0.7231 0.94952 0.53046 0.0
H3845 H 0.70945 0.98964 0.55268 0.0
C3846 C 0.70958 0.94401 0.51538 0.0
C3847 C 0.72272 0.96588 0.54437 0.0
C3848 C 0.73706 0.97277 0.56067 0.0
C3849 C 0.69618 0.95477 0.51346 0.0
C3850 C 0.69641 0.97176 0.52678 0.0
C3851 C 0.70931 0.97669 0.54241 0.0
C3852 C 0.68447 0.98546 0.52385 0.0
C3853 C 0.68206 0.948 0.49695 0.0
C3854 C 0.68577 0.99454 0.50815 0.0
C3855 C 0.67521 1.00799 0.50552 0.0
C3856 C 0.66308 0.01282 0.51858 0.0
C3857 C 0.66167 1.0036 0.53426 0.0
C3858 C 0.67236 0.99017 0.53694 0.0
H3859 H 0.68011 0.9321 0.49165 0.0
H3860 H 0.66882 0.95123 0.50063 0.0
H3861 H 0.68658 0.95569 0.48542 0.0
H3862 H 0.69521 0.99145 0.498 0.0
H3863 H 0.67657 0.01463 0.49321 0.0
H3864 H 0.39408 0.51609 0.75317 0.0
H3865 H 0.37828 0.48212 0.75024 0.0
H3866 H 0.41252 0.47659 0.79749 0.0
H3867 H 0.43014 0.50952 0.79803 0.0
H3868 H 0.40617 0.445 0.78262 0.0
H3869 H 0.33707 0.45512 0.76722 0.0
H3870 H 0.35038 0.46047 0.74844 0.0
H3871 H 0.35596 0.4755 0.77139 0.0
C3872 C 0.39819 0.50764 0.76301 0.0
C3873 C 0.4132 0.51612 0.77627 0.0
C3874 C 0.38875 0.48793 0.76161 0.0
C3875 C 0.39301 0.47594 0.77421 0.0
C3876 C 0.40827 0.48463 0.78736 0.0
H3877 H 0.31303 0.36659 0.78301 0.0
H3878 H 0.32964 0.40001 0.78356 0.0
C3879 C 0.41841 0.50392 0.78794 0.0
C3880 C 0.38245 0.4545 0.77346 0.0
H3881 H 0.34059 0.42257 0.76315 0.0
C3882 C 0.39173 0.44056 0.77867 0.0
C3883 C 0.36337 0.44739 0.76827 0.0
C3884 C 0.3511 0.46044 0.7637 0.0
C3885 C 0.38301 0.42089 0.77917 0.0
C3886 C 0.36421 0.41366 0.77311 0.0
C3887 C 0.35491 0.42742 0.76774 0.0
C3888 C 0.35382 0.3924 0.77266 0.0
C3889 C 0.39422 0.40842 0.7871 0.0
C3890 C 0.36113 0.37597 0.76616 0.0
C3891 C 0.35161 0.3566 0.7663 0.0
C3892 C 0.33395 0.35252 0.77214 0.0
C3893 C 0.32635 0.36878 0.77803 0.0
C3894 C 0.33606 0.38819 0.77841 0.0
H3895 H 0.40566 0.41748 0.79703 0.0
H3896 H 0.38597 0.39792 0.7946 0.0
H3897 H 0.40014 0.40027 0.77556 0.0
H3898 H 0.37425 0.37797 0.76072 0.0
H3899 H 0.35805 0.34468 0.76149 0.0
H3900 H 0.17787 0.6047 0.25728 0.0
H3901 H 0.19009 0.63925 0.25717 0.0
H3902 H 0.24008 0.62543 0.23916 0.0
H3903 H 0.22723 0.59086 0.23793 0.0
H3904 H 0.21467 0.66101 0.2789 0.0
H3905 H 0.2384 0.66553 0.20951 0.0
H3906 H 0.22404 0.6436 0.21409 0.0
H3907 H 0.24837 0.64809 0.21886 0.0
C3908 C 0.19134 0.60913 0.25299 0.0
C3909 C 0.20202 0.59542 0.24848 0.0
C3910 C 0.19833 0.62883 0.2529 0.0
C3911 C 0.21609 0.63515 0.24819 0.0
C3912 C 0.22624 0.62112 0.24246 0.0
H3913 H 0.28947 0.73903 0.30356 0.0
H3914 H 0.26972 0.70681 0.2929 0.0
C3915 C 0.2191 0.60138 0.24224 0.0
C3916 C 0.22479 0.65631 0.25172 0.0
H3917 H 0.25477 0.6909 0.23518 0.0
C3918 C 0.22315 0.66754 0.26911 0.0
C3919 C 0.23561 0.66524 0.23894 0.0
C3920 C 0.2365 0.65498 0.21924 0.0
C3921 C 0.23286 0.68684 0.27453 0.0
C3922 C 0.24499 0.69508 0.26247 0.0
C3923 C 0.24581 0.68439 0.24462 0.0
C3924 C 0.25736 0.71444 0.26846 0.0
C3925 C 0.23008 0.6981 0.29325 0.0
C3926 C 0.25744 0.72923 0.25792 0.0
C3927 C 0.26898 0.74756 0.26385 0.0
C3928 C 0.28074 0.7512 0.28025 0.0
C3929 C 0.28063 0.73643 0.29076 0.0
C3930 C 0.26925 0.71811 0.28476 0.0
H3931 H 0.21628 0.69276 0.29737 0.0
H3932 H 0.23995 0.69596 0.3041 0.0
H3933 H 0.23203 0.71394 0.29315 0.0
H3934 H 0.24841 0.72669 0.24527 0.0
H3935 H 0.26855 0.75888 0.25574 0.0
H3936 H 0.51776 0.70216 0.41887 0.0
H3937 H 0.5225 0.67402 0.43231 0.0
H3938 H 0.54872 0.71257 0.48274 0.0
H3939 H 0.54403 0.74072 0.46939 0.0
H3940 H 0.56746 0.68321 0.47116 0.0
H3941 H 0.49459 0.65042 0.47252 0.0
H3942 H 0.50098 0.65486 0.44998 0.0
H3943 H 0.50247 0.67506 0.46887 0.0
C3944 C 0.5245 0.7047 0.43285 0.0
C3945 C 0.53038 0.72389 0.443 0.0
C3946 C 0.52715 0.68849 0.4406 0.0
C3947 C 0.53581 0.6909 0.45876 0.0
C3948 C 0.54196 0.71008 0.46877 0.0
H3949 H 0.5326 0.60371 0.53083 0.0
H3950 H 0.53059 0.63185 0.51625 0.0
C3951 C 0.5392 0.72626 0.46109 0.0
C3952 C 0.53843 0.67358 0.46735 0.0
H3953 H 0.51542 0.63202 0.48077 0.0
C3954 C 0.55605 0.67201 0.47318 0.0
C3955 C 0.52365 0.65888 0.47033 0.0
C3956 C 0.50434 0.65988 0.46528 0.0
C3957 C 0.55924 0.6563 0.48159 0.0
C3958 C 0.54447 0.64146 0.48431 0.0
C3959 C 0.52686 0.64314 0.47863 0.0
C3960 C 0.54683 0.62458 0.49369 0.0
C3961 C 0.57843 0.65598 0.48796 0.0
C3962 C 0.55672 0.61081 0.48612 0.0
C3963 C 0.55789 0.59456 0.49455 0.0
C3964 C 0.54943 0.59177 0.51098 0.0
C3965 C 0.53966 0.6056 0.5185 0.0
C3966 C 0.5384 0.62169 0.51005 0.0
H3967 H 0.58776 0.67038 0.48878 0.0
H3968 H 0.57913 0.65163 0.50188 0.0
H3969 H 0.58327 0.64512 0.47784 0.0
H3970 H 0.56307 0.61226 0.47332 0.0
H3971 H 0.56502 0.58393 0.48795 0.0
H3972 H 0.6338 0.3432 0.67857 0.0
H3973 H 0.66177 0.34265 0.69682 0.0
H3974 H 0.67813 0.30833 0.64883 0.0
H3975 H 0.65056 0.30951 0.63039 0.0
H3976 H 0.67306 0.31402 0.70761 0.0
H3977 H 0.72491 0.34578 0.66438 0.0
H3978 H 0.70136 0.34641 0.66033 0.0
H3979 H 0.70935 0.32493 0.65107 0.0
C3980 C 0.64355 0.33592 0.67176 0.0
C3981 C 0.63992 0.32662 0.65286 0.0
C3982 C 0.65957 0.33549 0.68228 0.0
C3983 C 0.67245 0.32569 0.67431 0.0
C3984 C 0.66888 0.31654 0.65536 0.0
H3985 H 0.76347 0.28537 0.72151 0.0
H3986 H 0.73794 0.2904 0.7023 0.0
C3987 C 0.65297 0.31716 0.64476 0.0
C3988 C 0.68894 0.32407 0.68608 0.0
H3989 H 0.73513 0.32923 0.68752 0.0
C3990 C 0.68661 0.31757 0.70322 0.0
C3991 C 0.70683 0.32866 0.68061 0.0
C3992 C 0.7108 0.33703 0.6632 0.0
C3993 C 0.70139 0.31519 0.71463 0.0
C3994 C 0.71911 0.31932 0.70891 0.0
C3995 C 0.72155 0.32592 0.6919 0.0
C3996 C 0.73521 0.31674 0.72041 0.0
C3997 C 0.69797 0.30792 0.73268 0.0
C3998 C 0.74247 0.32998 0.73695 0.0
C3999 C 0.75739 0.32733 0.74784 0.0
C4000 C 0.76535 0.31126 0.74261 0.0
C4001 C 0.75804 0.2981 0.72594 0.0
C4002 C 0.74328 0.30087 0.71495 0.0
H4003 H 0.68327 0.30331 0.73423 0.0
H4004 H 0.70446 0.29541 0.73339 0.0
H4005 H 0.70416 0.31968 0.74466 0.0
H4006 H 0.73662 0.34243 0.74144 0.0
H4007 H 0.76273 0.33799 0.76032 0.0
H4008 H 0.02944 0.32898 0.96606 0.0
H4009 H 0.03218 0.36216 0.98402 0.0
H4010 H 0.03148 0.38445 0.93263 0.0
H4011 H 0.02866 0.35187 0.91478 0.0
H4012 H 0.0585 0.3973 0.98532 0.0
H4013 H 0.99152 0.40583 0.95844 0.0
H4014 H 0.9976 0.38242 0.95595 0.0
H4015 H 1.00478 0.39857 0.93995 0.0
C4016 C 0.02987 0.34094 0.95858 0.0
C4017 C 0.02869 0.33747 0.93885 0.0
C4018 C 0.03144 0.35996 0.96889 0.0
C4019 C 0.03167 0.37591 0.95973 0.0
C4020 C 0.03089 0.37247 0.94012 0.0
H4021 H 0.04911 0.49968 0.97468 0.0
H4022 H 0.04153 0.4642 0.96517 0.0
C4023 C 0.02938 0.35366 0.92989 0.0
C4024 C 0.03297 0.39626 0.97029 0.0
H4025 H 0.01292 0.43536 0.97209 0.0
C4026 C 0.04837 0.40551 0.98269 0.0
C4027 C 0.01978 0.40712 0.96699 0.0
C4028 C 1.0024 0.39793 0.95476 0.0
C4029 C 0.0514 0.42548 0.99094 0.0
C4030 C 0.03858 0.43654 0.98694 0.0
C4031 C 0.02284 0.42704 0.97516 0.0
C4032 C 0.04198 0.45826 0.99333 0.0
C4033 C 0.06879 0.43482 1.0031 0.0
C4034 C 0.04435 0.46703 0.01242 0.0
C4035 C 0.04861 0.4875 0.01791 0.0
C4036 C 0.05038 0.49961 1.00441 0.0
C4037 C 0.0476 0.49077 0.98541 0.0
C4038 C 0.04329 0.47044 0.97995 0.0
H4039 H 0.07872 0.42529 1.00205 0.0
H4040 H 0.07513 0.44891 0.99918 0.0
H4041 H 0.06578 0.43783 0.01791 0.0
H4042 H 0.04315 0.45806 0.02309 0.0
H4043 H 0.05103 0.4938 0.03266 0.0
H4044 H 0.01642 0.80241 0.12059 0.0
H4045 H 0.99174 0.8008 0.14091 0.0
H4046 H 0.03037 0.82401 0.18915 0.0
H4047 H 0.0552 0.82594 0.16891 0.0
H4048 H 0.98507 0.77982 0.16893 0.0
H4049 H 0.99403 0.85843 0.19815 0.0
H4050 H 1.00493 0.84969 0.17801 0.0
H4051 H 0.01419 0.84934 0.20119 0.0
C4052 C 0.01975 0.80741 0.1355 0.0
C4053 C 0.03795 0.81443 0.143 0.0
C4054 C 1.00554 0.80641 0.14714 0.0
C4055 C 0.00905 0.81252 0.16661 0.0
C4056 C 0.02718 0.8196 0.17417 0.0
H4057 H 0.94643 0.81069 0.2628 0.0
H4058 H 0.96934 0.81519 0.24066 0.0
C4059 C 0.04143 0.8206 0.16253 0.0
C4060 C 0.99383 0.8107 0.17899 0.0
H4061 H 0.97381 0.83645 0.21268 0.0
C4062 C 0.98253 0.79224 0.17838 0.0
C4063 C 0.99042 0.82686 0.19138 0.0
C4064 C 1.00141 0.84723 0.19215 0.0
C4065 C 0.96837 0.78941 0.19012 0.0
C4066 C 0.96506 0.80555 0.20264 0.0
C4067 C 0.97625 0.82405 0.20312 0.0
C4068 C 0.95064 0.80342 0.21594 0.0
C4069 C 0.95749 0.76901 0.18944 0.0
C4070 C 0.93226 0.79571 0.20955 0.0
C4071 C 0.91904 0.79297 0.22227 0.0
C4072 C 0.92386 0.79791 0.24171 0.0
C4073 C 0.94218 0.8063 0.24798 0.0
C4074 C 0.95535 0.80903 0.2353 0.0
H4075 H 0.96453 0.75782 0.18271 0.0
H4076 H 0.95474 0.76634 0.20371 0.0
H4077 H 0.9443 0.76709 0.18116 0.0
H4078 H 0.92814 0.79166 0.19469 0.0
H4079 H 0.90512 0.78647 0.21686 0.0
H4080 H 0.53784 0.32905 0.1342 0.0
H4081 H 0.54759 0.35428 0.11563 0.0
H4082 H 0.4968 0.33536 0.08119 0.0
H4083 H 0.4869 0.31015 0.09952 0.0
H4084 H 0.52853 0.33607 0.06143 0.0
H4085 H 0.53126 0.40562 0.11052 0.0
H4086 H 0.54228 0.38835 0.11913 0.0
H4087 H 0.51812 0.38253 0.11407 0.0
C4088 C 0.52853 0.33057 0.123 0.0
C4089 C 0.51162 0.31746 0.11831 0.0
C4090 C 0.53416 0.34499 0.11238 0.0
C4091 C 0.52292 0.34661 0.09703 0.0
C4092 C 0.50568 0.33427 0.09296 0.0
H4093 H 0.5306 0.43188 0.02593 0.0
H4094 H 0.52175 0.4085 0.04652 0.0
C4095 C 0.50004 0.3199 0.10352 0.0
C4096 C 0.52957 0.35996 0.08419 0.0
H4097 H 0.54204 0.40797 0.08094 0.0
C4098 C 0.53154 0.3518 0.06568 0.0
C4099 C 0.53341 0.38042 0.08982 0.0
C4100 C 0.53107 0.38985 0.10942 0.0
C4101 C 0.53714 0.3636 0.05256 0.0
C4102 C 0.541 0.38407 0.05819 0.0
C4103 C 0.53914 0.39224 0.07673 0.0
C4104 C 0.54617 0.39731 0.04484 0.0
C4105 C 0.53842 0.35414 0.03267 0.0
C4106 C 0.56274 0.39851 0.03685 0.0
C4107 C 0.56788 0.41192 0.02507 0.0
C4108 C 0.55655 0.42439 0.02124 0.0
C4109 C 0.53972 0.42265 0.02883 0.0
C4110 C 0.53464 0.40931 0.04058 0.0
H4111 H 0.53173 0.33841 0.02979 0.0
H4112 H 0.53215 0.36153 0.02265 0.0
H4113 H 0.5529 0.35548 0.03012 0.0
H4114 H 0.5719 0.38948 0.04014 0.0
H4115 H 0.58099 0.41308 0.01959 0.0
H4116 H 0.05001 0.30103 0.34748 0.0
H4117 H 0.01933 0.30161 0.33597 0.0
H4118 H 0.01055 0.32975 0.39101 0.0
H4119 H 0.04219 0.33147 0.40166 0.0
H4120 H 0.98837 0.28685 0.34181 0.0
H4121 H 0.99382 0.36637 0.36499 0.0
H4122 H 0.01238 0.35531 0.36967 0.0
H4123 H 0.99376 0.35328 0.38395 0.0
C4124 C 0.04173 0.30812 0.3568 0.0
C4125 C 0.0488 0.31759 0.37491 0.0
C4126 C 0.02402 0.30803 0.35042 0.0
C4127 C 0.01266 0.31649 0.36238 0.0
C4128 C 0.01923 0.32414 0.38115 0.0
H4129 H 0.90156 0.3038 0.30962 0.0
H4130 H 0.92582 0.30046 0.33171 0.0
C4131 C 0.03725 0.32497 0.38729 0.0
C4132 C 0.99419 0.31723 0.35478 0.0
H4133 H 0.96665 0.34835 0.34805 0.0
C4134 C 0.98367 0.30034 0.34325 0.0
C4135 C 0.98763 0.33469 0.35701 0.0
C4136 C 0.99754 0.35344 0.36946 0.0
C4137 C 0.96771 0.30077 0.33278 0.0
C4138 C 0.96179 0.31843 0.33431 0.0
C4139 C 0.97146 0.33492 0.3468 0.0
C4140 C 0.94677 0.32073 0.32165 0.0
C4141 C 0.95788 0.28262 0.31939 0.0
C4142 C 0.95048 0.33359 0.30905 0.0
C4143 C 0.93669 0.33571 0.29662 0.0
C4144 C 0.91889 0.325 0.29655 0.0
C4145 C 0.91513 0.31233 0.30941 0.0
C4146 C 0.92898 0.31025 0.3219 0.0
H4147 H 0.96596 0.2712 0.31756 0.0
H4148 H 0.94495 0.27654 0.32486 0.0
H4149 H 0.9546 0.2861 0.30547 0.0
H4150 H 0.96414 0.34187 0.30871 0.0
H4151 H 0.93997 0.34583 0.28714 0.0
H4152 H 0.98713 0.73092 0.61229 0.0
H4153 H 0.98307 0.69678 0.59738 0.0
H4154 H 0.01983 0.68801 0.64093 0.0
H4155 H 0.02325 0.72186 0.65631 0.0
H4156 H 0.0095 0.68386 0.58292 0.0
H4157 H 0.98462 0.6371 0.63327 0.0
H4158 H 0.98349 0.66247 0.63661 0.0
H4159 H 1.00397 0.65548 0.64388 0.0
C4160 C 0.99388 0.72151 0.61898 0.0
C4161 C 1.00559 0.729 0.63537 0.0
C4162 C 0.99153 0.70201 0.61046 0.0
C4163 C 1.00104 0.68974 0.61806 0.0
C4164 C 0.01195 0.69697 0.63503 0.0
H4165 H 0.05511 0.60242 0.57893 0.0
H4166 H 0.04162 0.62774 0.59555 0.0
C4167 C 0.01402 0.7164 0.64376 0.0
C4168 C 1.00204 0.6707 0.60677 0.0
H4169 H 1.00267 0.62356 0.60972 0.0
C4170 C 1.00749 0.67056 0.58862 0.0
C4171 C 0.99946 0.65331 0.61417 0.0
C4172 C 0.99237 0.65207 0.63298 0.0
C4173 C 0.01153 0.65388 0.57815 0.0
C4174 C 0.0101 0.63696 0.58606 0.0
C4175 C 1.00381 0.63669 0.6038 0.0
C4176 C 0.01703 0.62027 0.57688 0.0
C4177 C 0.01831 0.65475 0.55913 0.0
C4178 C 1.00749 0.6076 0.56101 0.0
C4179 C 0.01513 0.59301 0.55144 0.0
C4180 C 0.03252 0.59106 0.55752 0.0
C4181 C 0.04177 0.60354 0.57374 0.0
C4182 C 0.03406 0.61798 0.58335 0.0
H4183 H 0.0196 0.66942 0.55542 0.0
H4184 H 0.03174 0.65078 0.55874 0.0
H4185 H 0.00881 0.64401 0.54833 0.0
H4186 H 0.99428 0.60921 0.55589 0.0
H4187 H 1.00747 0.58339 0.53925 0.0
H4188 H 0.62625 0.82399 0.82192 0.0
H4189 H 0.65263 0.81905 0.80549 0.0
H4190 H 0.67608 0.80296 0.85424 0.0
H4191 H 0.64962 0.80747 0.87071 0.0
H4192 H 0.68743 0.83853 0.81515 0.0
H4193 H 0.68217 0.7597 0.81303 0.0
H4194 H 0.66365 0.77139 0.81863 0.0
H4195 H 0.68157 0.77247 0.83633 0.0
C4196 C 0.63695 0.81925 0.82913 0.0
C4197 C 0.63584 0.81613 0.84765 0.0
C4198 C 0.65197 0.8164 0.81968 0.0
C4199 C 0.66613 0.81035 0.82855 0.0
C4200 C 0.66506 0.80714 0.84698 0.0
H4201 H 0.77585 0.80759 0.8217 0.0
H4202 H 0.74442 0.80686 0.82857 0.0
C4203 C 0.64998 0.80986 0.85642 0.0
C4204 C 0.6826 0.80868 0.81904 0.0
H4205 H 0.71151 0.77844 0.80884 0.0
C4206 C 0.69255 0.82528 0.81336 0.0
C4207 C 0.68913 0.79132 0.81665 0.0
C4208 C 0.67846 0.77266 0.8213 0.0
C4209 C 0.70942 0.82531 0.80636 0.0
C4210 C 0.71637 0.80828 0.80499 0.0
C4211 C 0.70609 0.79145 0.8099 0.0
C4212 C 0.73503 0.80827 0.80034 0.0
C4213 C 0.72017 0.84379 0.80143 0.0
C4214 C 0.73999 0.80926 0.78218 0.0
C4215 C 0.75788 0.80946 0.77821 0.0
C4216 C 0.7708 0.80849 0.79236 0.0
C4217 C 0.76588 0.80787 0.81055 0.0
C4218 C 0.74804 0.80748 0.81446 0.0
H4219 H 0.71364 0.85633 0.80517 0.0
H4220 H 0.73404 0.84751 0.80874 0.0
H4221 H 0.72151 0.84152 0.78616 0.0
H4222 H 0.73005 0.80984 0.77114 0.0
H4223 H 0.76166 0.81055 0.76423 0.0
H4224 H 0.48906 0.58707 0.73447 0.0
H4225 H 0.50363 0.58424 0.70508 0.0
H4226 H 0.45439 0.5472 0.67638 0.0
H4227 H 0.43971 0.5502 0.70582 0.0
H4228 H 0.4838 0.53235 0.66401 0.0
H4229 H 0.50086 0.61064 0.66039 0.0
H4230 H 0.50958 0.60521 0.68183 0.0
H4231 H 0.48549 0.60116 0.67639 0.0
C4232 C 0.48111 0.57844 0.72195 0.0
C4233 C 0.46283 0.5691 0.72312 0.0
C4234 C 0.48959 0.57686 0.70479 0.0
C4235 C 0.48042 0.56566 0.68765 0.0
C4236 C 0.46221 0.55609 0.68887 0.0
H4237 H 0.5114 0.52954 0.56962 0.0
H4238 H 0.49631 0.53283 0.59849 0.0
C4239 C 0.45363 0.55791 0.70599 0.0
C4240 C 0.48976 0.56363 0.66889 0.0
H4241 H 0.5133 0.58982 0.63842 0.0
C4242 C 0.49013 0.54505 0.65851 0.0
C4243 C 0.4985 0.57981 0.66101 0.0
C4244 C 0.49851 0.60034 0.67033 0.0
C4245 C 0.49897 0.54227 0.64155 0.0
C4246 C 0.50748 0.55846 0.63342 0.0
C4247 C 0.50706 0.57706 0.64386 0.0
C4248 C 0.51687 0.55654 0.61458 0.0
C4249 C 0.49974 0.5217 0.63309 0.0
C4250 C 0.53346 0.5692 0.6123 0.0
C4251 C 0.54205 0.5676 0.59518 0.0
C4252 C 0.53472 0.55317 0.57917 0.0
C4253 C 0.51802 0.54071 0.58131 0.0
C4254 C 0.50931 0.54248 0.59832 0.0
H4255 H 0.4988 0.51224 0.64383 0.0
H4256 H 0.48803 0.51547 0.62246 0.0
H4257 H 0.51247 0.52116 0.62636 0.0
H4258 H 0.54006 0.58045 0.62394 0.0
H4259 H 0.55458 0.57785 0.59457 0.0
H4260 H 0.8059 0.19128 0.99257 0.0
H4261 H 0.80352 0.21313 0.9705 0.0
H4262 H 0.77104 0.16522 0.93064 0.0
H4263 H 0.77322 0.14319 0.95252 0.0
H4264 H 0.81195 0.21125 0.93161 0.0
H4265 H 0.73888 0.20635 0.94126 0.0
H4266 H 0.75397 0.19886 0.95723 0.0
H4267 H 0.7455 0.18348 0.93505 0.0
C4268 C 0.79845 0.18528 0.97902 0.0
C4269 C 0.78958 0.16548 0.97444 0.0
C4270 C 0.79712 0.19781 0.96645 0.0
C4271 C 0.78685 0.1908 0.94915 0.0
C4272 C 0.77879 0.17091 0.94409 0.0
H4273 H 0.77826 0.25031 0.85564 0.0
H4274 H 0.78231 0.2271 0.87586 0.0
C4275 C 0.78015 0.15835 0.95661 0.0
C4276 C 0.78384 0.20446 0.93676 0.0
H4277 H 0.75103 0.22431 0.91862 0.0
C4278 C 0.79865 0.21412 0.92872 0.0
C4279 C 0.76649 0.2083 0.93331 0.0
C4280 C 0.75028 0.19886 0.94226 0.0
C4281 C 0.79651 0.22739 0.91702 0.0
C4282 C 0.77908 0.23088 0.91322 0.0
C4283 C 0.76433 0.22143 0.92148 0.0
C4284 C 0.77597 0.24455 0.90088 0.0
C4285 C 0.81292 0.2378 0.90904 0.0
C4286 C 0.77051 0.26171 0.90819 0.0
C4287 C 0.76823 0.27503 0.8967 0.0
C4288 C 0.77128 0.27131 0.87769 0.0
C4289 C 0.77615 0.25375 0.87031 0.0
C4290 C 0.77847 0.24049 0.88181 0.0
H4291 H 0.82577 0.23671 0.91648 0.0
H4292 H 0.81276 0.23115 0.8941 0.0
H4293 H 0.81275 0.25344 0.90979 0.0
H4294 H 0.76844 0.265 0.92288 0.0
H4295 H 0.76462 0.28848 0.90283 0.0
H4296 H 0.14031 0.49629 0.2108 0.0
H4297 H 0.12088 0.48767 0.1814 0.0
H4298 H 0.1619 0.52326 0.15558 0.0
H4299 H 0.18156 0.53149 0.18476 0.0
H4300 H 0.10785 0.51443 0.16767 0.0
H4301 H 0.14377 0.47861 0.11304 0.0
H4302 H 0.15033 0.48083 0.13766 0.0
H4303 H 0.1583 0.50063 0.12561 0.0
C4304 C 0.14543 0.50176 0.19867 0.0
C4305 C 0.1624 0.51468 0.20009 0.0
C4306 C 0.13429 0.49682 0.18188 0.0
C4307 C 0.13992 0.50472 0.16623 0.0
C4308 C 0.15739 0.51659 0.16729 0.0
H4309 H 0.104 0.54989 0.07827 0.0
H4310 H 0.11818 0.53754 0.10298 0.0
C4311 C 0.16861 0.52139 0.18405 0.0
C4312 C 0.12669 0.50327 0.14998 0.0
H4313 H 0.12248 0.49688 0.10233 0.0
C4314 C 0.11078 0.51003 0.15336 0.0
C4315 C 0.13044 0.49747 0.13133 0.0
C4316 C 0.14656 0.48879 0.12672 0.0
C4317 C 0.09933 0.51264 0.13865 0.0
C4318 C 0.10389 0.50828 0.12012 0.0
C4319 C 0.11909 0.50028 0.11662 0.0
C4320 C 0.09483 0.51483 0.10466 0.0
C4321 C 0.08319 0.52138 0.14306 0.0
C4322 C 0.07689 0.50614 0.09745 0.0
C4323 C 0.06862 0.51319 0.08314 0.0
C4324 C 0.0782 0.52906 0.07597 0.0
C4325 C 0.09615 0.53765 0.08337 0.0
C4326 C 0.10436 0.53056 0.09748 0.0
H4327 H 0.08221 0.52516 0.15835 0.0
H4328 H 0.084 0.53476 0.13695 0.0
H4329 H 0.07057 0.51085 0.13668 0.0
H4330 H 0.06936 0.49391 0.10281 0.0
H4331 H 0.05485 0.50612 0.07762 0.0
H4332 H 0.81488 0.85192 0.48752 0.0
H4333 H 0.81389 0.83224 0.4561 0.0
H4334 H 0.80971 0.88215 0.43141 0.0
H4335 H 0.81067 0.90174 0.46238 0.0
H4336 H 0.78443 0.84612 0.41455 0.0
H4337 H 0.8561 0.83826 0.42057 0.0
H4338 H 0.8421 0.83212 0.43885 0.0
H4339 H 0.84836 0.85699 0.43586 0.0
C4340 C 0.81358 0.85864 0.47539 0.0
C4341 C 0.8129 0.87848 0.47759 0.0
C4342 C 0.81317 0.84741 0.45743 0.0
C4343 C 0.81194 0.85577 0.44135 0.0
C4344 C 0.81075 0.87536 0.44355 0.0
H4345 H 0.81716 0.84795 0.32632 0.0
H4346 H 0.81869 0.85448 0.36045 0.0
C4347 C 0.81131 0.88657 0.46136 0.0
C4348 C 0.81185 0.84447 0.4221 0.0
H4349 H 0.83966 0.82709 0.39101 0.0
C4350 C 0.79639 0.84159 0.40953 0.0
C4351 C 0.82748 0.83861 0.41545 0.0
C4352 C 0.84455 0.84166 0.42827 0.0
C4353 C 0.79635 0.8337 0.39047 0.0
C4354 C 0.81223 0.82873 0.38365 0.0
C4355 C 0.82746 0.83078 0.39629 0.0
C4356 C 0.8138 0.82419 0.36315 0.0
C4357 C 0.77956 0.83154 0.37748 0.0
C4358 C 0.81103 0.80491 0.35328 0.0
C4359 C 0.81022 0.8011 0.33358 0.0
C4360 C 0.8123 0.81657 0.32361 0.0
C4361 C 0.81571 0.83578 0.33366 0.0
C4362 C 0.81658 0.83954 0.35316 0.0
H4363 H 0.76748 0.8327 0.38525 0.0
H4364 H 0.78178 0.84319 0.36894 0.0
H4365 H 0.77674 0.81729 0.36774 0.0
H4366 H 0.80876 0.79284 0.36074 0.0
H4367 H 0.80717 0.78616 0.32617 0.0
H4368 H 0.48356 0.57135 0.82375 0.0
H4369 H 0.50071 0.56876 0.85263 0.0
H4370 H 0.45367 0.57136 0.88267 0.0
H4371 H 0.43681 0.57442 0.85421 0.0
H4372 H 0.47982 0.58995 0.90641 0.0
H4373 H 0.50552 0.52521 0.87741 0.0
H4374 H 0.51293 0.54534 0.86582 0.0
H4375 H 0.48919 0.53392 0.86409 0.0
C4376 C 0.47678 0.57156 0.83647 0.0
C4377 C 0.4584 0.57328 0.83592 0.0
C4378 C 0.48669 0.56971 0.8533 0.0
C4379 C 0.47885 0.56929 0.87065 0.0
C4380 C 0.46064 0.57146 0.87008 0.0
H4381 H 0.50268 0.55212 0.98804 0.0
H4382 H 0.49017 0.5561 0.95771 0.0
C4383 C 0.45079 0.57328 0.85338 0.0
C4384 C 0.48917 0.56699 0.88928 0.0
H4385 H 0.51648 0.54024 0.90861 0.0
C4386 C 0.48772 0.57893 0.90659 0.0
C4387 C 0.49996 0.55284 0.89061 0.0
C4388 C 0.5019 0.53846 0.87356 0.0
C4389 C 0.49636 0.57737 0.9242 0.0
C4390 C 0.5069 0.56307 0.92556 0.0
C4391 C 0.50864 0.5513 0.90828 0.0
C4392 C 0.51531 0.55978 0.94467 0.0
C4393 C 0.4944 0.59169 0.94132 0.0
C4394 C 0.53399 0.55973 0.94851 0.0
C4395 C 0.54143 0.55741 0.96645 0.0
C4396 C 0.53048 0.55447 0.98141 0.0
C4397 C 0.51187 0.55418 0.9773 0.0
C4398 C 0.50455 0.55669 0.95964 0.0
H4399 H 0.49159 0.60532 0.93756 0.0
H4400 H 0.48284 0.58509 0.94858 0.0
H4401 H 0.50681 0.59552 0.95122 0.0
H4402 H 0.54305 0.56195 0.9377 0.0
H4403 H 0.55582 0.55813 0.96862 0.0
H4404 H 0.80188 0.1495 0.09272 0.0
H4405 H 0.80263 0.16779 0.12444 0.0
H4406 H 0.82063 0.22167 0.10471 0.0
H4407 H 0.82053 0.20346 0.0731 0.0
H4408 H 0.83636 0.2232 0.13943 0.0
H4409 H 0.76207 0.19522 0.13695 0.0
H4410 H 0.77458 0.17632 0.1341 0.0
H4411 H 0.77449 0.19149 0.11671 0.0
C4412 C 0.8064 0.16522 0.09522 0.0
C4413 C 0.81094 0.17506 0.08038 0.0
C4414 C 0.80664 0.17566 0.11332 0.0
C4415 C 0.81108 0.19612 0.11681 0.0
C4416 C 0.81695 0.20589 0.1023 0.0
H4417 H 0.80065 0.28811 0.20745 0.0
H4418 H 0.80384 0.26864 0.17724 0.0
C4419 C 0.81695 0.19545 0.08424 0.0
C4420 C 0.80854 0.20739 0.13518 0.0
H4421 H 0.77665 0.21441 0.16558 0.0
C4422 C 0.82331 0.22129 0.14513 0.0
C4423 C 0.79141 0.20505 0.14251 0.0
C4424 C 0.77469 0.19137 0.13195 0.0
C4425 C 0.82148 0.23267 0.16234 0.0
C4426 C 0.80445 0.2301 0.16972 0.0
C4427 C 0.7897 0.21623 0.15985 0.0
C4428 C 0.8017 0.24171 0.18772 0.0
C4429 C 0.83776 0.2473 0.17264 0.0
C4430 C 0.79889 0.23284 0.20341 0.0
C4431 C 0.79723 0.24394 0.2207 0.0
C4432 C 0.79826 0.26409 0.22255 0.0
C4433 C 0.80015 0.27271 0.20655 0.0
C4434 C 0.80198 0.26163 0.1893 0.0
H4435 H 0.85058 0.24516 0.16675 0.0
H4436 H 0.83618 0.26222 0.17161 0.0
H4437 H 0.83881 0.24632 0.18771 0.0
H4438 H 0.7985 0.21743 0.20237 0.0
H4439 H 0.79576 0.23682 0.23269 0.0
H4440 H 0.14764 0.53129 0.28926 0.0
H4441 H 0.12571 0.53331 0.31238 0.0
H4442 H 0.16146 0.58471 0.34466 0.0
H4443 H 0.18385 0.58243 0.32183 0.0
H4444 H 0.14749 0.56043 0.36661 0.0
H4445 H 0.09196 0.56994 0.31908 0.0
H4446 H 0.0997 0.54834 0.31026 0.0
H4447 H 0.11484 0.57187 0.3126 0.0
C4448 C 0.15085 0.54308 0.30124 0.0
C4449 C 0.16744 0.5568 0.30363 0.0
C4450 C 0.13822 0.5443 0.31437 0.0
C4451 C 0.14173 0.55948 0.32996 0.0
C4452 C 0.15841 0.573 0.3326 0.0
H4453 H 0.05557 0.57807 0.40202 0.0
H4454 H 0.07842 0.58194 0.3795 0.0
C4455 C 0.17119 0.57165 0.31957 0.0
C4456 C 0.12822 0.56066 0.34382 0.0
H4457 H 0.08337 0.55973 0.3478 0.0
C4458 C 0.13352 0.56052 0.36254 0.0
C4459 C 0.11008 0.56123 0.3386 0.0
C4460 C 0.10386 0.56308 0.31907 0.0
C4461 C 0.12099 0.56004 0.37603 0.0
C4462 C 0.10256 0.55904 0.37049 0.0
C4463 C 0.09743 0.5601 0.35196 0.0
C4464 C 0.08836 0.55643 0.3836 0.0
C4465 C 0.12769 0.56069 0.39608 0.0
C4466 C 0.08601 0.5405 0.39289 0.0
C4467 C 0.07313 0.53838 0.40579 0.0
C4468 C 0.06212 0.55194 0.40935 0.0
C4469 C 0.06387 0.56739 0.39943 0.0
C4470 C 0.07694 0.56965 0.38667 0.0
H4471 H 0.14229 0.56788 0.39901 0.0
H4472 H 0.11991 0.56859 0.40601 0.0
H4473 H 0.12611 0.54559 0.39872 0.0
H4474 H 0.09424 0.52976 0.39026 0.0
H4475 H 0.07184 0.5262 0.41311 0.0
H4476 H 0.79473 0.84588 0.57085 0.0
H4477 H 0.79159 0.83251 0.5997 0.0
H4478 H 0.81292 0.88984 0.63234 0.0
H4479 H 0.81598 0.90331 0.6036 0.0
H4480 H 0.81823 0.8325 0.62714 0.0
H4481 H 0.76776 0.8715 0.65821 0.0
H4482 H 0.77232 0.87027 0.634 0.0
H4483 H 0.7873 0.88739 0.65207 0.0
C4484 C 0.79857 0.8557 0.58416 0.0
C4485 C 0.80553 0.87573 0.58482 0.0
C4486 C 0.79681 0.84801 0.60069 0.0
C4487 C 0.80178 0.86014 0.61833 0.0
C4488 C 0.80861 0.88017 0.61901 0.0
H4489 H 0.83131 0.82914 0.72417 0.0
H4490 H 0.82987 0.84069 0.69461 0.0
C4491 C 0.81045 0.88786 0.6025 0.0
C4492 C 0.8006 0.85175 0.63593 0.0
H4493 H 0.78261 0.85513 0.67825 0.0
C4494 C 0.81034 0.8374 0.63824 0.0
C4495 C 0.79015 0.85786 0.65044 0.0
C4496 C 0.77863 0.87246 0.64855 0.0
C4497 C 0.81036 0.82949 0.65474 0.0
C4498 C 0.8005 0.83617 0.66955 0.0
C4499 C 0.79031 0.85008 0.66704 0.0
C4500 C 0.80108 0.82928 0.68789 0.0
C4501 C 0.82089 0.81391 0.65613 0.0
C4502 C 0.78528 0.81939 0.69442 0.0
C4503 C 0.78604 0.81272 0.71152 0.0
C4504 C 0.80262 0.81591 0.72258 0.0
C4505 C 0.8183 0.82623 0.71613 0.0
C4506 C 0.81753 0.83279 0.69907 0.0
H4507 H 0.82354 0.80671 0.64212 0.0
H4508 H 0.83415 0.82065 0.66426 0.0
H4509 H 0.81352 0.80263 0.66345 0.0
H4510 H 0.77236 0.81662 0.68617 0.0
H4511 H 0.77363 0.80512 0.71608 0.0
H4512 H 0.76868 0.44748 0.55326 0.0
H4513 H 0.74411 0.46407 0.56171 0.0
H4514 H 0.76564 0.50873 0.53068 0.0
H4515 H 0.79012 0.49259 0.52237 0.0
H4516 H 0.75801 0.52329 0.56693 0.0
H4517 H 0.69992 0.46746 0.52749 0.0
H4518 H 0.71444 0.45932 0.54337 0.0
H4519 H 0.72312 0.46748 0.52296 0.0
C4520 C 0.76808 0.46074 0.5481 0.0
C4521 C 0.78142 0.46867 0.53712 0.0
C4522 C 0.75402 0.47017 0.55292 0.0
C4523 C 0.75304 0.48758 0.54674 0.0
C4524 C 0.76618 0.49534 0.53564 0.0
H4525 H 0.67262 0.55141 0.53056 0.0
H4526 H 0.69466 0.53073 0.52943 0.0
C4527 C 0.78017 0.48602 0.53087 0.0
C4528 C 0.73864 0.4982 0.55194 0.0
H4529 H 0.69348 0.49638 0.54355 0.0
C4530 C 0.74385 0.51735 0.56204 0.0
C4531 C 0.72023 0.4904 0.54541 0.0
C4532 C 0.714 0.47009 0.53409 0.0
C4533 C 0.73125 0.5292 0.56522 0.0
C4534 C 0.71289 0.52155 0.55837 0.0
C4535 C 0.70757 0.50217 0.54883 0.0
C4536 C 0.69934 0.53391 0.55948 0.0
C4537 C 0.73785 0.55009 0.57505 0.0
C4538 C 0.69463 0.54255 0.57678 0.0
C4539 C 0.68203 0.55446 0.57747 0.0
C4540 C 0.67381 0.55774 0.56086 0.0
C4541 C 0.67855 0.54899 0.5436 0.0
C4542 C 0.69115 0.53718 0.54292 0.0
H4543 H 0.75286 0.55475 0.57613 0.0
H4544 H 0.73196 0.56005 0.5676 0.0
H4545 H 0.7335 0.55169 0.58943 0.0
H4546 H 0.70059 0.53997 0.58972 0.0
H4547 H 0.67846 0.56078 0.59097 0.0
H4548 H 0.23642 0.19227 0.49616 0.0
H4549 H 0.20511 0.17464 0.49751 0.0
H4550 H 0.22532 0.13161 0.52262 0.0
H4551 H 0.25632 0.14994 0.52247 0.0
H4552 H 0.18628 0.14046 0.48224 0.0
H4553 H 0.19039 0.14304 0.55853 0.0
H4554 H 0.20819 0.15662 0.54748 0.0
H4555 H 0.20719 0.1313 0.54835 0.0
C4556 C 0.23406 0.17906 0.50199 0.0
C4557 C 0.24872 0.17207 0.50865 0.0
C4558 C 0.21621 0.16896 0.50273 0.0
C4559 C 0.21273 0.15186 0.51041 0.0
C4560 C 0.22749 0.14498 0.51707 0.0
H4561 H 0.11018 0.06565 0.48982 0.0
H4562 H 0.14005 0.08552 0.48779 0.0
C4563 C 0.24525 0.15523 0.51661 0.0
C4564 C 0.19374 0.14113 0.51135 0.0
H4565 H 0.16546 0.11986 0.54059 0.0
C4566 C 0.18166 0.13615 0.49507 0.0
C4567 C 0.18748 0.13578 0.52813 0.0
C4568 C 0.19895 0.14217 0.54663 0.0
C4569 C 0.1637 0.12574 0.49502 0.0
C4570 C 0.15782 0.11925 0.51151 0.0
C4571 C 0.16986 0.12454 0.52784 0.0
C4572 C 0.13934 0.10711 0.51237 0.0
C4573 C 0.15118 0.12235 0.47738 0.0
C4574 C 0.12901 0.11201 0.52721 0.0
C4575 C 0.11229 0.1 0.52896 0.0
C4576 C 0.10532 0.08285 0.51578 0.0
C4577 C 0.11532 0.07835 0.50056 0.0
C4578 C 0.1323 0.09005 0.49912 0.0
H4579 H 0.1554 0.13386 0.46895 0.0
H4580 H 0.15176 0.1082 0.46864 0.0
H4581 H 0.13695 0.12207 0.4805 0.0
H4582 H 0.13396 0.1251 0.53762 0.0
H4583 H 0.10489 0.10417 0.54072 0.0
H4584 H 0.21004 0.97138 0.80417 0.0
H4585 H 0.22409 0.94318 0.80187 0.0
H4586 H 0.21441 0.93311 0.74198 0.0
H4587 H 0.1999 0.9614 0.74431 0.0
H4588 H 0.21372 0.90343 0.78922 0.0
H4589 H 0.26758 0.92958 0.74547 0.0
H4590 H 0.25396 0.94533 0.75674 0.0
H4591 H 0.24487 0.92803 0.73579 0.0
C4592 C 0.21052 0.96314 0.79036 0.0
C4593 C 0.20313 0.96926 0.77452 0.0
C4594 C 0.21885 0.94669 0.78904 0.0
C4595 C 0.22107 0.9353 0.77172 0.0
C4596 C 0.21357 0.94121 0.75575 0.0
H4597 H 0.28018 0.83423 0.74413 0.0
H4598 H 0.26513 0.86179 0.74274 0.0
C4599 C 0.20481 0.95756 0.7571 0.0
C4600 C 0.23085 0.91757 0.7708 0.0
H4601 H 0.26642 0.89838 0.75281 0.0
C4602 C 0.22526 0.90257 0.78119 0.0
C4603 C 0.24604 0.91532 0.76035 0.0
C4604 C 0.25366 0.93043 0.74904 0.0
C4605 C 0.23364 0.88612 0.7812 0.0
C4606 C 0.2493 0.88414 0.7713 0.0
C4607 C 0.25479 0.89909 0.76072 0.0
C4608 C 0.25989 0.86713 0.77197 0.0
C4609 C 0.22471 0.87046 0.79136 0.0
C4610 C 0.26333 0.86025 0.78875 0.0
C4611 C 0.27183 0.84418 0.78945 0.0
C4612 C 0.27841 0.83408 0.77367 0.0
C4613 C 0.27582 0.84132 0.75688 0.0
C4614 C 0.26693 0.85737 0.7561 0.0
H4615 H 0.20997 0.86998 0.79174 0.0
H4616 H 0.22633 0.85583 0.78465 0.0
H4617 H 0.23077 0.87374 0.80606 0.0
H4618 H 0.25939 0.86731 0.80171 0.0
H4619 H 0.27324 0.83953 0.80277 0.0
H4620 H 0.36717 0.92053 1.00228 0.0
H4621 H 0.39946 0.9341 1.00206 0.0
H4622 H 0.40008 0.96723 0.05774 0.0
H4623 H 0.36725 0.95616 0.05625 0.0
H4624 H 0.42059 0.98802 0.04414 0.0
H4625 H 0.441 0.91909 0.02038 0.0
H4626 H 0.42554 0.9221 1.00229 0.0
H4627 H 0.41802 0.91939 0.0251 0.0
C4628 C 0.37431 0.93103 0.01424 0.0
C4629 C 0.36488 0.93795 0.02896 0.0
C4630 C 0.3929 0.93839 0.0144 0.0
C4631 C 0.40268 0.95137 0.03011 0.0
C4632 C 0.3931 0.9575 0.04525 0.0
H4633 H 0.52082 0.97291 0.03179 0.0
H4634 H 0.48901 0.95935 0.03446 0.0
C4635 C 0.37434 0.95114 0.0445 0.0
C4636 C 0.4226 0.95929 0.0305 0.0
H4637 H 0.46181 0.94811 0.01593 0.0
C4638 C 0.4296 0.97901 0.03843 0.0
C4639 C 0.4348 0.94779 0.02346 0.0
C4640 C 0.42942 0.92589 0.01759 0.0
C4641 C 0.44816 0.98739 0.03965 0.0
C4642 C 0.45998 0.9765 0.03061 0.0
C4643 C 0.45297 0.9568 0.02263 0.0
C4644 C 0.47957 0.98499 0.02948 0.0
C4645 C 0.4547 1.00745 0.05151 0.0
C4646 C 0.48528 1.004 0.026 0.0
C4647 C 0.50366 0.01229 0.02625 0.0
C4648 C 0.51669 1.00109 0.02758 0.0
C4649 C 0.51103 0.98179 0.0302 0.0
C4650 C 0.49275 0.97398 0.03157 0.0
H4651 H 0.44601 1.00975 0.06314 0.0
H4652 H 0.46886 0.00976 0.05772 0.0
H4653 H 0.45371 0.01866 0.04285 0.0
H4654 H 0.47563 0.01268 0.02333 0.0
H4655 H 0.50752 0.02745 0.02528 0.0
H4656 H 0.89674 0.5997 0.79345 0.0
H4657 H 0.87463 0.61959 0.78958 0.0
H4658 H 0.84382 0.59469 0.83111 0.0
H4659 H 0.86565 0.5745 0.83487 0.0
H4660 H 0.82303 0.59206 0.79886 0.0
H4661 H 0.86356 0.66739 0.82134 0.0
H4662 H 0.87375 0.65312 0.80404 0.0
H4663 H 0.87127 0.64643 0.82667 0.0
C4664 C 0.88552 0.59878 0.80211 0.0
C4665 C 0.88295 0.58544 0.81442 0.0
C4666 C 0.87289 0.6102 0.7999 0.0
C4667 C 0.85764 0.60869 0.81014 0.0
C4668 C 0.85549 0.59606 0.82306 0.0
H4669 H 0.78501 0.68733 0.80214 0.0
H4670 H 0.80296 0.66687 0.81495 0.0
C4671 C 0.86803 0.58457 0.82521 0.0
C4672 C 0.84315 0.61895 0.80621 0.0
H4673 H 0.83534 0.66374 0.80316 0.0
C4674 C 0.82564 0.60777 0.80002 0.0
C4675 C 0.84653 0.63943 0.80795 0.0
C4676 C 0.86475 0.65231 0.81555 0.0
C4677 C 0.81157 0.61647 0.7949 0.0
C4678 C 0.81523 0.63684 0.79566 0.0
C4679 C 0.83257 0.64809 0.80246 0.0
C4680 C 0.80161 0.64685 0.78878 0.0
C4681 C 0.79296 0.60377 0.78874 0.0
C4682 C 0.79437 0.64197 0.76999 0.0
C4683 C 0.78393 0.65352 0.76271 0.0
C4684 C 0.78086 0.67026 0.77408 0.0
C4685 C 0.78723 0.67447 0.79312 0.0
C4686 C 0.79751 0.66286 0.80042 0.0
H4687 H 0.79098 0.59013 0.79456 0.0
H4688 H 0.78218 0.61156 0.79311 0.0
H4689 H 0.79139 0.59963 0.77326 0.0
H4690 H 0.79768 0.62994 0.76066 0.0
H4691 H 0.7794 0.65017 0.74793 0.0
H4692 H 0.83504 0.64095 0.98751 0.0
H4693 H 0.86136 0.62819 0.99461 0.0
H4694 H 0.88189 0.67854 0.03782 0.0
H4695 H 0.85497 0.6914 0.0311 0.0
H4696 H 0.89686 0.64138 0.99306 0.0
H4697 H 0.88368 0.63491 0.06639 0.0
H4698 H 0.86718 0.64013 0.0503 0.0
H4699 H 0.88621 0.65899 0.06115 0.0
C4700 C 0.84508 0.64949 0.99854 0.0
C4701 C 0.84267 0.66726 0.0088 0.0
C4702 C 0.86024 0.6421 1.00256 0.0
C4703 C 0.87358 0.65216 0.01695 0.0
C4704 C 0.87162 0.67023 0.02692 0.0
H4705 H 0.9684 0.60647 0.05144 0.0
H4706 H 0.94918 0.62951 0.0467 0.0
C4707 C 0.85628 0.67767 0.02294 0.0
C4708 C 0.88922 0.64328 0.02127 0.0
H4709 H 0.9087 0.62355 0.0548 0.0
C4710 C 0.89954 0.63769 1.00665 0.0
C4711 C 0.89281 0.63838 0.03899 0.0
C4712 C 0.88183 0.64324 0.0551 0.0
C4713 C 0.91283 0.62692 0.00905 0.0
C4714 C 0.91597 0.6215 0.02653 0.0
C4715 C 0.90628 0.62776 0.04141 0.0
C4716 C 0.92805 0.60791 0.02906 0.0
C4717 C 0.92318 0.62097 0.99274 0.0
C4718 C 0.92259 0.58816 0.02072 0.0
C4719 C 0.93343 0.57501 0.02351 0.0
C4720 C 0.95009 0.5813 0.03462 0.0
C4721 C 0.95572 0.60119 0.0427 0.0
C4722 C 0.94472 0.61434 0.04008 0.0
H4723 H 0.92197 0.62955 0.98151 0.0
H4724 H 0.93775 0.62283 0.99739 0.0
H4725 H 0.91774 0.60533 0.98676 0.0
H4726 H 0.90976 0.58285 0.01223 0.0
H4727 H 0.92874 0.55984 0.01696 0.0
H4728 H 0.18449 0.08805 0.7973 0.0
H4729 H 0.20183 0.12147 0.79917 0.0
H4730 H 0.23962 0.09996 0.7635 0.0
H4731 H 0.2228 0.06641 0.7627 0.0
H4732 H 0.25876 0.12855 0.78512 0.0
H4733 H 0.20006 0.15799 0.766 0.0
H4734 H 0.19703 0.14871 0.78722 0.0
H4735 H 0.19806 0.13237 0.76566 0.0
C4736 C 0.19657 0.09039 0.78993 0.0
C4737 C 0.20229 0.07419 0.78018 0.0
C4738 C 0.20648 0.10978 0.79075 0.0
C4739 C 0.22211 0.11405 0.78102 0.0
C4740 C 0.22776 0.09773 0.7712 0.0
H4741 H 0.26147 0.23407 0.75875 0.0
H4742 H 0.24624 0.20042 0.75881 0.0
C4743 C 0.21807 0.07829 0.77076 0.0
C4744 C 0.23252 0.13517 0.78114 0.0
H4745 H 0.22713 0.18138 0.77776 0.0
C4746 C 0.25169 0.13998 0.78339 0.0
C4747 C 0.22388 0.15066 0.77851 0.0
C4748 C 0.20366 0.14714 0.774 0.0
C4749 C 0.26211 0.15911 0.78326 0.0
C4750 C 0.25343 0.17483 0.78165 0.0
C4751 C 0.23426 0.16995 0.77927 0.0
C4752 C 0.26364 0.19603 0.7816 0.0
C4753 C 0.28244 0.16184 0.78408 0.0
C4754 C 0.27887 0.20589 0.79434 0.0
C4755 C 0.28806 0.22536 0.79396 0.0
C4756 C 0.28214 0.2362 0.78122 0.0
C4757 C 0.26668 0.22657 0.76884 0.0
C4758 C 0.25778 0.20701 0.76893 0.0
H4759 H 0.28647 0.14794 0.77879 0.0
H4760 H 0.28847 0.17278 0.77572 0.0
H4761 H 0.28825 0.16678 0.79884 0.0
H4762 H 0.28364 0.1987 0.80494 0.0
H4763 H 0.29966 0.23206 0.80398 0.0
H4764 H 0.41316 0.99741 0.32323 0.0
H4765 H 0.39443 0.9641 0.31751 0.0
H4766 H 0.35928 0.9796 0.27669 0.0
H4767 H 0.37811 0.01279 0.28226 0.0
H4768 H 0.35594 0.95119 0.32028 0.0
H4769 H 0.37618 0.93167 0.24841 0.0
H4770 H 0.38868 0.95252 0.26503 0.0
H4771 H 0.36755 0.95349 0.25322 0.0
C4772 C 0.40131 0.99366 0.3132 0.0
C4773 C 0.39668 1.00764 0.30356 0.0
C4774 C 0.39066 0.97473 0.30994 0.0
C4775 C 0.37554 0.96942 0.29663 0.0
C4776 C 0.37096 0.98339 0.28692 0.0
H4777 H 0.29793 0.85574 0.27587 0.0
H4778 H 0.31054 0.89117 0.28316 0.0
C4779 C 0.38156 1.00234 0.29026 0.0
C4780 C 0.36489 0.9491 0.29263 0.0
H4781 H 0.35549 0.90756 0.25943 0.0
C4782 C 0.35563 0.94169 0.30691 0.0
C4783 C 0.36473 0.93675 0.27522 0.0
C4784 C 0.3749 0.94388 0.25958 0.0
C4785 C 0.34641 0.9221 0.30433 0.0
C4786 C 0.34643 0.90968 0.28705 0.0
C4787 C 0.35542 0.91719 0.27264 0.0
C4788 C 0.33852 0.88849 0.28414 0.0
C4789 C 0.3377 0.91443 0.32042 0.0
C4790 C 0.35007 0.87538 0.28237 0.0
C4791 C 0.34291 0.85534 0.27845 0.0
C4792 C 0.3241 0.84808 0.27637 0.0
C4793 C 0.31248 0.86111 0.27809 0.0
C4794 C 0.31966 0.88125 0.28213 0.0
H4795 H 0.33937 0.9258 0.33322 0.0
H4796 H 0.32302 0.90839 0.31646 0.0
H4797 H 0.34396 0.90245 0.32358 0.0
H4798 H 0.36464 0.88068 0.28372 0.0
H4799 H 0.35207 0.84548 0.27671 0.0
H4800 H 0.56277 0.34965 0.57319 0.0
H4801 H 0.56136 0.38045 0.56393 0.0
H4802 H 0.59684 0.41129 0.61266 0.0
H4803 H 0.59852 0.38004 0.6221 0.0
H4804 H 0.54839 0.41069 0.58004 0.0
H4805 H 0.62136 0.43706 0.57246 0.0
H4806 H 0.61204 0.41239 0.57518 0.0
H4807 H 0.61648 0.43184 0.59516 0.0
C4808 C 0.57043 0.36287 0.58208 0.0
C4809 C 0.58082 0.36201 0.59854 0.0
C4810 C 0.56953 0.38067 0.57668 0.0
C4811 C 0.57904 0.39851 0.58737 0.0
C4812 C 0.58955 0.39787 0.60383 0.0
H4813 H 0.55483 0.51081 0.56548 0.0
H4814 H 0.55631 0.48187 0.57931 0.0
C4815 C 0.59047 0.37989 0.60931 0.0
C4816 C 0.57752 0.41743 0.58111 0.0
H4817 H 0.60201 0.45809 0.56741 0.0
C4818 C 0.56018 0.42108 0.57742 0.0
C4819 C 0.59274 0.4311 0.57734 0.0
C4820 C 0.61171 0.42791 0.58006 0.0
C4821 C 0.55767 0.43763 0.57007 0.0
C4822 C 0.57289 0.45138 0.56643 0.0
C4823 C 0.59024 0.4478 0.57023 0.0
C4824 C 0.57116 0.46895 0.55783 0.0
C4825 C 0.5386 0.43982 0.5656 0.0
C4826 C 0.57909 0.4718 0.54118 0.0
C4827 C 0.5782 0.48832 0.53328 0.0
C4828 C 0.56923 0.50255 0.5416 0.0
C4829 C 0.56129 0.49984 0.5583 0.0
C4830 C 0.56219 0.48324 0.56625 0.0
H4831 H 0.52855 0.42586 0.56463 0.0
H4832 H 0.53514 0.45062 0.57688 0.0
H4833 H 0.53732 0.44512 0.5522 0.0
H4834 H 0.58616 0.46125 0.5343 0.0
H4835 H 0.58485 0.49015 0.5207 0.0
H4836 H 0.47892 0.75137 0.37312 0.0
H4837 H 0.44999 0.75301 0.35755 0.0
H4838 H 0.4369 0.7844 0.40919 0.0
H4839 H 0.46687 0.78478 0.42387 0.0
H4840 H 0.418 0.74147 0.35735 0.0
H4841 H 0.4237 0.82055 0.3812 0.0
H4842 H 0.44094 0.80892 0.38854 0.0
H4843 H 0.42062 0.80767 0.40029 0.0
C4844 C 0.47012 0.75927 0.3809 0.0
C4845 C 0.47582 0.76923 0.39927 0.0
C4846 C 0.45328 0.75992 0.3721 0.0
C4847 C 0.44121 0.76988 0.38165 0.0
C4848 C 0.44616 0.77787 0.40079 0.0
H4849 H 0.33622 0.7925 0.34247 0.0
H4850 H 0.36157 0.78674 0.36141 0.0
C4851 C 0.4633 0.77782 0.40937 0.0
C4852 C 0.4236 0.77146 0.3715 0.0
H4853 H 0.3962 0.80289 0.36413 0.0
C4854 C 0.4135 0.75507 0.35883 0.0
C4855 C 0.41689 0.78892 0.37346 0.0
C4856 C 0.42619 0.80751 0.38649 0.0
C4857 C 0.39752 0.75564 0.34812 0.0
C4858 C 0.39129 0.77322 0.34968 0.0
C4859 C 0.40095 0.78942 0.36267 0.0
C4860 C 0.37501 0.77535 0.33793 0.0
C4861 C 0.38727 0.73718 0.3355 0.0
C4862 C 0.3738 0.77091 0.31825 0.0
C4863 C 0.35915 0.77407 0.30731 0.0
C4864 C 0.34531 0.78199 0.31569 0.0
C4865 C 0.34647 0.78629 0.3354 0.0
C4866 C 0.36107 0.78304 0.34632 0.0
H4867 H 0.39008 0.72403 0.34035 0.0
H4868 H 0.37243 0.73626 0.33477 0.0
H4869 H 0.39166 0.73694 0.32119 0.0
H4870 H 0.38449 0.76551 0.31123 0.0
H4871 H 0.359 0.77078 0.29223 0.0
H4872 H 0.09457 0.76896 0.08094 0.0
H4873 H 0.09026 0.7341 0.06786 0.0
H4874 H 0.06744 0.72011 0.11816 0.0
H4875 H 0.07035 0.7548 0.13038 0.0
H4876 H 0.10331 0.70646 0.07623 0.0
H4877 H 0.03031 0.68363 0.08326 0.0
H4878 H 0.04179 0.70885 0.08899 0.0
H4879 H 0.04211 0.69321 0.10594 0.0
C4880 C 0.08794 0.75838 0.08882 0.0
C4881 C 0.08182 0.76467 0.10621 0.0
C4882 C 0.08576 0.73837 0.08149 0.0
C4883 C 0.07787 0.72406 0.09161 0.0
C4884 C 0.0727 0.7305 0.10949 0.0
H4885 H 0.06584 0.60015 0.08611 0.0
H4886 H 0.07113 0.63568 0.09418 0.0
C4887 C 0.07453 0.75045 0.1166 0.0
C4888 C 0.07588 0.70259 0.08395 0.0
H4889 H 0.04675 0.65786 0.07874 0.0
C4890 C 0.09078 0.69596 0.07651 0.0
C4891 C 0.05963 0.68848 0.08426 0.0
C4892 C 0.04254 0.69397 0.09087 0.0
C4893 C 0.09007 0.67594 0.07006 0.0
C4894 C 0.07406 0.66197 0.07097 0.0
C4895 C 0.05908 0.66852 0.07805 0.0
C4896 C 0.07275 0.64041 0.06573 0.0
C4897 C 0.10675 0.66969 0.06322 0.0
C4898 C 0.07207 0.63101 0.04696 0.0
C4899 C 0.06894 0.6105 0.04227 0.0
C4900 C 0.06663 0.59902 0.05628 0.0
C4901 C 0.06777 0.60855 0.075 0.0
C4902 C 0.07076 0.62891 0.07965 0.0
H4903 H 0.11843 0.68221 0.06405 0.0
H4904 H 0.11058 0.65939 0.07174 0.0
H4905 H 0.10384 0.66193 0.04847 0.0
H4906 H 0.07329 0.63948 0.03589 0.0
H4907 H 0.0677 0.60364 0.02768 0.0
H4908 H 0.07572 0.25701 0.90613 0.0
H4909 H 0.1055 0.2573 0.89377 0.0
H4910 H 0.10503 0.31252 0.87738 0.0
H4911 H 0.07571 0.31231 0.88954 0.0
H4912 H 0.11278 0.25858 0.85587 0.0
H4913 H 0.15617 0.32203 0.90312 0.0
H4914 H 0.1345 0.30967 0.90905 0.0
H4915 H 0.13568 0.32748 0.89407 0.0
C4916 C 0.08224 0.26942 0.90034 0.0
C4917 C 0.07336 0.28468 0.89892 0.0
C4918 C 0.09919 0.26951 0.89314 0.0
C4919 C 0.10768 0.28506 0.88478 0.0
C4920 C 0.09903 0.30054 0.88402 0.0
H4921 H 0.18745 0.32346 0.81401 0.0
H4922 H 0.16451 0.31815 0.83597 0.0
C4923 C 0.08216 0.30035 0.89095 0.0
C4924 C 0.12481 0.28479 0.87549 0.0
H4925 H 0.16663 0.31317 0.87286 0.0
C4926 C 0.12473 0.27026 0.85982 0.0
C4927 C 0.14043 0.30006 0.88056 0.0
C4928 C 0.14181 0.31559 0.89774 0.0
C4929 C 0.1393 0.27127 0.84846 0.0
C4930 C 0.15456 0.28708 0.85303 0.0
C4931 C 0.15497 0.30108 0.86923 0.0
C4932 C 0.16941 0.29035 0.84037 0.0
C4933 C 0.13776 0.25601 0.83103 0.0
C4934 C 0.18027 0.27674 0.83575 0.0
C4935 C 0.19349 0.27974 0.82303 0.0
C4936 C 0.1961 0.2964 0.81463 0.0
C4937 C 0.18564 0.31029 0.81988 0.0
C4938 C 0.17254 0.30732 0.83257 0.0
H4939 H 0.12375 0.24705 0.82755 0.0
H4940 H 0.1419 0.26289 0.81889 0.0
H4941 H 0.14691 0.24612 0.8332 0.0
H4942 H 0.17843 0.26371 0.84183 0.0
H4943 H 0.20125 0.26872 0.81934 0.0
H4944 H 0.57744 0.74831 0.88242 0.0
H4945 H 0.57187 0.7195 0.89719 0.0
H4946 H 0.61204 0.7494 0.94258 0.0
H4947 H 0.61758 0.77833 0.92806 0.0
H4948 H 0.59488 0.69557 0.91175 0.0
H4949 H 0.56289 0.73826 0.96634 0.0
H4950 H 0.56784 0.7459 0.94444 0.0
H4951 H 0.5857 0.7493 0.96275 0.0
C4952 C 0.58536 0.74862 0.89535 0.0
C4953 C 0.59775 0.76568 0.90423 0.0
C4954 C 0.58218 0.73214 0.90374 0.0
C4955 C 0.59134 0.73251 0.92109 0.0
C4956 C 0.60467 0.74898 0.92929 0.0
H4957 H 0.56842 0.66003 1.00474 0.0
H4958 H 0.5828 0.6838 0.98659 0.0
C4959 C 0.60783 0.76547 0.92095 0.0
C4960 C 0.58559 0.71657 0.93153 0.0
H4961 H 0.56444 0.70652 0.97003 0.0
C4962 C 0.58827 0.69791 0.92453 0.0
C4963 C 0.57689 0.71973 0.94812 0.0
C4964 C 0.57299 0.73932 0.95584 0.0
C4965 C 0.58265 0.6823 0.93388 0.0
C4966 C 0.57387 0.68547 0.95042 0.0
C4967 C 0.57128 0.70417 0.95741 0.0
C4968 C 0.56674 0.66963 0.9606 0.0
C4969 C 0.58637 0.66265 0.92614 0.0
C4970 C 0.55305 0.65367 0.95196 0.0
C4971 C 0.54489 0.63993 0.96227 0.0
C4972 C 0.55017 0.64204 0.98146 0.0
C4973 C 0.56419 0.65782 0.98994 0.0
C4974 C 0.57237 0.67148 0.97962 0.0
H4975 H 0.59748 0.66392 0.91676 0.0
H4976 H 0.59002 0.65523 0.93757 0.0
H4977 H 0.57398 0.65335 0.91786 0.0
H4978 H 0.54824 0.65217 0.93739 0.0
H4979 H 0.53427 0.62782 0.95527 0.0
H4980 H 0.05691 0.7877 0.69939 0.0
H4981 H 0.0852 0.78487 0.71523 0.0
H4982 H 0.11355 0.79902 0.66783 0.0
H4983 H 0.08503 0.80192 0.65192 0.0
H4984 H 0.11872 0.76506 0.67778 0.0
H4985 H 0.13064 0.82325 0.74084 0.0
H4986 H 0.10762 0.80959 0.73635 0.0
H4987 H 0.11726 0.82406 0.71983 0.0
C4988 C 0.06932 0.791 0.6927 0.0
C4989 C 0.069 0.79564 0.67474 0.0
C4990 C 0.08547 0.78932 0.70172 0.0
C4991 C 0.10154 0.79209 0.69285 0.0
C4992 C 0.10131 0.79706 0.67499 0.0
H4993 H 0.20367 0.78637 0.74954 0.0
H4994 H 0.17927 0.79679 0.73364 0.0
C4995 C 0.0851 0.79874 0.66595 0.0
C4996 C 0.11794 0.7875 0.70135 0.0
H4997 H 0.14596 0.79744 0.74165 0.0
C4998 C 0.12485 0.77229 0.69165 0.0
C4999 C 0.12603 0.7971 0.71932 0.0
C5000 C 0.12014 0.81454 0.72968 0.0
C5001 C 0.1393 0.766 0.69971 0.0
C5002 C 0.14661 0.77479 0.71819 0.0
C5003 C 0.1401 0.79045 0.72763 0.0
C5004 C 0.16126 0.76826 0.7279 0.0
C5005 C 0.14667 0.75015 0.68827 0.0
C5006 C 0.15908 0.74882 0.73033 0.0
C5007 C 0.17318 0.7427 0.7391 0.0
C5008 C 0.18959 0.756 0.74585 0.0
C5009 C 0.19139 0.77563 0.74408 0.0
C5010 C 0.1774 0.78167 0.73512 0.0
H5011 H 0.14352 0.74932 0.67303 0.0
H5012 H 0.16158 0.75255 0.69126 0.0
H5013 H 0.14029 0.73588 0.69175 0.0
H5014 H 0.14652 0.73835 0.72534 0.0
H5015 H 0.17136 0.72748 0.74021 0.0
H5016 H 0.11653 0.36286 0.4347 0.0
H5017 H 0.11888 0.39196 0.45868 0.0
H5018 H 0.10458 0.42335 0.41646 0.0
H5019 H 0.10265 0.39467 0.39239 0.0
H5020 H 0.13027 0.44652 0.44449 0.0
H5021 H 0.07108 0.40505 0.47373 0.0
H5022 H 0.09091 0.39491 0.47301 0.0
H5023 H 0.07859 0.39597 0.45156 0.0
C5024 C 0.1142 0.37606 0.43045 0.0
C5025 C 0.10904 0.37629 0.41164 0.0
C5026 C 0.11552 0.39265 0.44419 0.0
C5027 C 0.11151 0.40963 0.43937 0.0
C5028 C 0.10766 0.41034 0.42048 0.0
H5029 H 0.057 0.49379 0.48512 0.0
H5030 H 0.06931 0.46724 0.46921 0.0
C5031 C 0.10648 0.39386 0.40673 0.0
C5032 C 0.10929 0.42597 0.45388 0.0
H5033 H 0.08079 0.4382 0.48632 0.0
C5034 C 0.11968 0.44472 0.4539 0.0
C5035 C 0.09532 0.42351 0.46598 0.0
C5036 C 0.08321 0.40383 0.46607 0.0
C5037 C 0.11593 0.4612 0.46515 0.0
C5038 C 0.10159 0.45874 0.47675 0.0
C5039 C 0.09182 0.43994 0.47742 0.0
C5040 C 0.09486 0.47543 0.48643 0.0
C5041 C 0.12658 0.48118 0.46374 0.0
C5042 C 0.10523 0.48891 0.50136 0.0
C5043 C 0.09823 0.50427 0.51051 0.0
C5044 C 0.0807 0.50622 0.50495 0.0
C5045 C 0.0705 0.49274 0.48986 0.0
C5046 C 0.0775 0.4775 0.48075 0.0
H5047 H 0.13572 0.48068 0.45232 0.0
H5048 H 0.11725 0.49082 0.46125 0.0
H5049 H 0.13495 0.48782 0.47713 0.0
H5050 H 0.11861 0.48744 0.50603 0.0
H5051 H 0.10654 0.51457 0.5219 0.0
H5052 H 0.48665 0.28548 0.19764 0.0
H5053 H 0.46524 0.28653 0.22154 0.0
H5054 H 0.42057 0.26575 0.17874 0.0
H5055 H 0.44177 0.26442 0.15474 0.0
H5056 H 0.43849 0.30739 0.22603 0.0
H5057 H 0.40898 0.22821 0.21546 0.0
H5058 H 0.42963 0.23806 0.20582 0.0
H5059 H 0.40792 0.2376 0.19416 0.0
C5060 C 0.47227 0.28115 0.19326 0.0
C5061 C 0.46596 0.2748 0.17422 0.0
C5062 C 0.46007 0.28171 0.20697 0.0
C5063 C 0.44135 0.27581 0.20193 0.0
C5064 C 0.43499 0.2699 0.18295 0.0
H5065 H 0.34882 0.30249 0.24772 0.0
H5066 H 0.37742 0.30198 0.23445 0.0
C5067 C 0.44715 0.26935 0.16923 0.0
C5068 C 0.42839 0.27657 0.21638 0.0
H5069 H 0.39199 0.24925 0.23231 0.0
C5070 C 0.42842 0.29464 0.22753 0.0
C5071 C 0.41559 0.25983 0.21872 0.0
C5072 C 0.41562 0.23979 0.20804 0.0
C5073 C 0.41521 0.29664 0.24004 0.0
C5074 C 0.40149 0.28022 0.2412 0.0
C5075 C 0.40227 0.2619 0.23109 0.0
C5076 C 0.38521 0.28208 0.25112 0.0
C5077 C 0.41598 0.31631 0.25187 0.0
C5078 C 0.37986 0.27084 0.26477 0.0
C5079 C 0.36335 0.27117 0.27246 0.0
C5080 C 0.352 0.28269 0.26658 0.0
C5081 C 0.35749 0.29403 0.25307 0.0
C5082 C 0.37392 0.29374 0.24544 0.0
H5083 H 0.42986 0.32567 0.25356 0.0
H5084 H 0.40677 0.32386 0.24506 0.0
H5085 H 0.41161 0.31469 0.26592 0.0
H5086 H 0.38825 0.26149 0.26914 0.0
H5087 H 0.35928 0.26215 0.28273 0.0
H5088 H 0.63403 0.53042 0.31857 0.0
H5089 H 0.618 0.53347 0.34721 0.0
H5090 H 0.66397 0.52368 0.37858 0.0
H5091 H 0.68012 0.52168 0.35054 0.0
H5092 H 0.60374 0.51547 0.37177 0.0
H5093 H 0.65997 0.56752 0.41565 0.0
H5094 H 0.661 0.5603 0.39092 0.0
H5095 H 0.66708 0.54552 0.40708 0.0
C5096 C 0.64082 0.52889 0.33153 0.0
C5097 C 0.65878 0.52584 0.33161 0.0
C5098 C 0.63151 0.53072 0.34826 0.0
C5099 C 0.63955 0.52959 0.36611 0.0
C5100 C 0.65718 0.5257 0.36585 0.0
H5101 H 0.57086 0.51102 0.46357 0.0
H5102 H 0.58542 0.50745 0.43436 0.0
C5103 C 0.66652 0.5242 0.34933 0.0
C5104 C 0.62973 0.53215 0.38461 0.0
H5105 H 0.63641 0.55214 0.432 0.0
C5106 C 0.61108 0.52361 0.38482 0.0
C5107 C 0.63842 0.54312 0.40229 0.0
C5108 C 0.65764 0.55481 0.40397 0.0
C5109 C 0.60145 0.52524 0.40137 0.0
C5110 C 0.61045 0.53523 0.41928 0.0
C5111 C 0.62899 0.54411 0.41894 0.0
C5112 C 0.60109 0.53718 0.43813 0.0
C5113 C 0.58135 0.51673 0.39906 0.0
C5114 C 0.60499 0.55474 0.45164 0.0
C5115 C 0.59681 0.55666 0.46897 0.0
C5116 C 0.5841 0.54117 0.47399 0.0
C5117 C 0.58023 0.52358 0.46061 0.0
C5118 C 0.5886 0.52158 0.4434 0.0
H5119 H 0.57552 0.51602 0.38456 0.0
H5120 H 0.57886 0.50161 0.40179 0.0
H5121 H 0.57405 0.52542 0.40882 0.0
H5122 H 0.61438 0.56733 0.44878 0.0
H5123 H 0.60046 0.57054 0.47849 0.0
H5124 H 0.32153 0.92644 0.09704 0.0
H5125 H 0.32578 0.91237 0.12484 0.0
H5126 H 0.30221 0.85498 0.09332 0.0
H5127 H 0.29803 0.86894 0.06526 0.0
H5128 H 0.30227 0.88691 0.14484 0.0
H5129 H 0.35517 0.8535 0.11049 0.0
H5130 H 0.34624 0.87219 0.10174 0.0
H5131 H 0.33312 0.84762 0.09781 0.0
C5132 C 0.31693 0.91086 0.09607 0.0
C5133 C 0.30968 0.89875 0.0789 0.0
C5134 C 0.31933 0.90286 0.11199 0.0
C5135 C 0.31459 0.88264 0.111 0.0
C5136 C 0.30617 0.87062 0.09424 0.0
H5137 H 0.34617 0.81343 0.1893 0.0
H5138 H 0.3327 0.82425 0.16284 0.0
C5139 C 0.30372 0.87862 0.07827 0.0
C5140 C 0.3201 0.8742 0.127 0.0
H5141 H 0.35014 0.84863 0.14104 0.0
C5142 C 0.31263 0.87841 0.14402 0.0
C5143 C 0.33371 0.86325 0.12584 0.0
C5144 C 0.34268 0.85894 0.10806 0.0
C5145 C 0.31843 0.8719 0.15999 0.0
C5146 C 0.3323 0.86128 0.15891 0.0
C5147 C 0.33952 0.8568 0.14179 0.0
C5148 C 0.33978 0.85485 0.17538 0.0
C5149 C 0.30958 0.8763 0.17781 0.0
C5150 C 0.34843 0.86853 0.19111 0.0
C5151 C 0.35606 0.86238 0.20633 0.0
C5152 C 0.35527 0.84246 0.20601 0.0
C5153 C 0.34678 0.82886 0.1901 0.0
C5154 C 0.33913 0.835 0.17495 0.0
H5155 H 0.29609 0.87962 0.17501 0.0
H5156 H 0.3079 0.86386 0.18539 0.0
H5157 H 0.31827 0.88923 0.18707 0.0
H5158 H 0.34943 0.88396 0.19154 0.0
H5159 H 0.36236 0.87319 0.21844 0.0
H5160 H 0.96246 0.57969 0.8479 0.0
H5161 H 0.98519 0.58554 0.87453 0.0
H5162 H 0.94866 0.54665 0.90182 0.0
H5163 H 0.92577 0.54059 0.87524 0.0
H5164 H 0.98352 0.59859 0.91481 0.0
H5165 H 0.99532 0.52369 0.89582 0.0
H5166 H 0.98388 0.53492 0.8797 0.0
H5167 H 0.97204 0.52503 0.89783 0.0
C5168 C 0.95913 0.57251 0.85964 0.0
C5169 C 0.94233 0.55948 0.85932 0.0
C5170 C 0.97215 0.57593 0.87484 0.0
C5171 C 0.96866 0.56629 0.88993 0.0
C5172 C 0.95164 0.55402 0.89013 0.0
H5173 H 0.01776 0.57456 0.99877 0.0
H5174 H 1.00098 0.57917 0.97095 0.0
C5175 C 0.93856 0.55065 0.87497 0.0
C5176 C 0.98313 0.56829 0.90503 0.0
H5177 H 0.00923 0.54219 0.92508 0.0
C5178 C 0.98927 0.58634 0.91702 0.0
C5179 C 0.99085 0.55237 0.90754 0.0
C5180 C 0.98534 0.53293 0.89447 0.0
C5181 C 1.00241 0.58863 0.93207 0.0
C5182 C 0.00941 0.57241 0.93517 0.0
C5183 C 1.00383 0.55461 0.92266 0.0
C5184 C 0.02111 0.57287 0.95225 0.0
C5185 C 0.00854 0.6083 0.94463 0.0
C5186 C 0.03809 0.56794 0.95101 0.0
C5187 C 0.04771 0.56523 0.96696 0.0
C5188 C 0.04032 0.56717 0.98425 0.0
C5189 C 0.02371 0.57292 0.98556 0.0
C5190 C 0.0142 0.57575 0.96972 0.0
H5191 H 1.00641 0.62022 0.9373 0.0
H5192 H 1.00052 0.60877 0.95694 0.0
H5193 H 0.0231 0.61102 0.94973 0.0
H5194 H 0.04353 0.56541 0.93758 0.0
H5195 H 0.06026 0.56042 0.96551 0.0
H5196 H 0.31429 0.25187 0.56538 0.0
H5197 H 0.31412 0.267 0.59822 0.0
H5198 H 0.29762 0.2101 0.61252 0.0
H5199 H 0.29737 0.19499 0.57981 0.0
H5200 H 0.27689 0.23423 0.62724 0.0
H5201 H 0.34929 0.27205 0.64341 0.0
H5202 H 0.33794 0.27831 0.62377 0.0
H5203 H 0.34129 0.25393 0.62259 0.0
C5204 C 0.31088 0.24258 0.57558 0.0
C5205 C 0.3059 0.22219 0.56992 0.0
C5206 C 0.31085 0.25127 0.5944 0.0
C5207 C 0.30603 0.23974 0.60802 0.0
C5208 C 0.30139 0.21937 0.60238 0.0
H5209 H 0.29919 0.24257 0.72411 0.0
H5210 H 0.29691 0.23616 0.69002 0.0
C5211 C 0.30132 0.21072 0.58362 0.0
C5212 C 0.30494 0.24863 0.62797 0.0
H5213 H 0.32997 0.27672 0.66734 0.0
C5214 C 0.28851 0.24361 0.63594 0.0
C5215 C 0.31999 0.26107 0.63941 0.0
C5216 C 0.33818 0.26657 0.63196 0.0
C5217 C 0.28685 0.25017 0.65496 0.0
C5218 C 0.30204 0.26202 0.66655 0.0
C5219 C 0.31828 0.26775 0.65847 0.0
C5220 C 0.30197 0.2665 0.68735 0.0
C5221 C 0.26883 0.24408 0.66255 0.0
C5222 C 0.30564 0.28579 0.69742 0.0
C5223 C 0.30685 0.28952 0.71714 0.0
C5224 C 0.30455 0.27398 0.72701 0.0
C5225 C 0.30073 0.25481 0.71686 0.0
C5226 C 0.29937 0.25112 0.69733 0.0
H5227 H 0.25746 0.24069 0.65136 0.0
H5228 H 0.2687 0.23073 0.66852 0.0
H5229 H 0.26647 0.25563 0.67376 0.0
H5230 H 0.30785 0.29793 0.69004 0.0
H5231 H 0.31023 0.30444 0.72463 0.0
H5232 H 0.67584 0.53 0.20545 0.0
H5233 H 0.6613 0.5341 0.17577 0.0
H5234 H 0.60887 0.51611 0.19507 0.0
H5235 H 0.6234 0.51215 0.22475 0.0
H5236 H 0.64015 0.51238 0.14642 0.0
H5237 H 0.59818 0.56221 0.17683 0.0
H5238 H 0.61551 0.55568 0.19086 0.0
H5239 H 0.5936 0.53942 0.18487 0.0
C5240 C 0.66119 0.52681 0.2035 0.0
C5241 C 0.65111 0.52061 0.21813 0.0
C5242 C 0.6527 0.52924 0.18622 0.0
C5243 C 0.63358 0.52597 0.18249 0.0
C5244 C 0.62352 0.51947 0.19703 0.0
H5245 H 0.55938 0.53498 0.08201 0.0
H5246 H 0.57166 0.5308 0.11299 0.0
C5247 C 0.63199 0.51691 0.21426 0.0
C5248 C 0.62445 0.52893 0.16358 0.0
H5249 H 0.59244 0.55033 0.14414 0.0
C5250 C 0.6298 0.52082 0.14618 0.0
C5251 C 0.61057 0.53974 0.16225 0.0
C5252 C 0.60421 0.54993 0.17966 0.0
C5253 C 0.62189 0.52276 0.12837 0.0
C5254 C 0.60823 0.53383 0.12701 0.0
C5255 C 0.60275 0.54183 0.1444 0.0
C5256 C 0.60005 0.53754 0.10796 0.0
C5257 C 0.62799 0.51205 0.11105 0.0
C5258 C 0.61128 0.54358 0.09416 0.0
C5259 C 0.60419 0.54599 0.07638 0.0
C5260 C 0.58536 0.54305 0.07115 0.0
C5261 C 0.57393 0.53773 0.0851 0.0
C5262 C 0.5811 0.53519 0.10306 0.0
H5263 H 0.63294 0.49913 0.11396 0.0
H5264 H 0.61687 0.50706 0.0996 0.0
H5265 H 0.63942 0.52188 0.10621 0.0
H5266 H 0.62584 0.54646 0.09702 0.0
H5267 H 0.61373 0.55009 0.06643 0.0
H5268 H 0.3111 0.87686 0.98372 0.0
H5269 H 0.3099 0.85659 0.95299 0.0
H5270 H 0.30198 0.90448 0.9267 0.0
H5271 H 0.30395 0.92517 0.95747 0.0
H5272 H 0.28586 0.84378 0.92389 0.0
H5273 H 0.34559 0.89198 0.90304 0.0
H5274 H 0.33883 0.89532 0.92651 0.0
H5275 H 0.32773 0.90445 0.90849 0.0
C5276 C 0.30891 0.88305 0.97141 0.0
C5277 C 0.30779 0.90269 0.97303 0.0
C5278 C 0.30827 0.87144 0.95384 0.0
C5279 C 0.30634 0.87916 0.93755 0.0
C5280 C 0.3041 0.89841 0.9391 0.0
H5281 H 0.27899 0.81221 0.82557 0.0
H5282 H 0.27878 0.82925 0.85752 0.0
C5283 C 0.30505 0.91016 0.95668 0.0
C5284 C 0.30707 0.86715 0.91901 0.0
H5285 H 0.32873 0.86672 0.87912 0.0
C5286 C 0.2953 0.84874 0.91413 0.0
C5287 C 0.31972 0.87342 0.90648 0.0
C5288 C 0.33381 0.89227 0.91146 0.0
C5289 C 0.29555 0.8366 0.89691 0.0
C5290 C 0.30747 0.84336 0.88394 0.0
C5291 C 0.31948 0.8616 0.88898 0.0
C5292 C 0.30743 0.83204 0.86489 0.0
C5293 C 0.28329 0.81652 0.89301 0.0
C5294 C 0.3237 0.82846 0.85813 0.0
C5295 C 0.32383 0.81897 0.83972 0.0
C5296 C 0.30766 0.81264 0.82799 0.0
C5297 C 0.29144 0.81618 0.83469 0.0
C5298 C 0.29134 0.82595 0.85294 0.0
H5299 H 0.28008 0.81121 0.90619 0.0
H5300 H 0.27031 0.81713 0.88554 0.0
H5301 H 0.28951 0.80582 0.88421 0.0
H5302 H 0.33632 0.83322 0.86703 0.0
H5303 H 0.33653 0.81664 0.83462 0.0
H5304 H 0.92591 0.54777 0.73769 0.0
H5305 H 0.94564 0.54937 0.7122 0.0
H5306 H 0.98513 0.59518 0.74768 0.0
H5307 H 0.96549 0.59385 0.77315 0.0
H5308 H 0.98156 0.59832 0.70793 0.0
H5309 H 0.9913 0.52631 0.72106 0.0
H5310 H 0.96827 0.52801 0.7159 0.0
H5311 H 0.98093 0.54198 0.7371 0.0
C5312 C 0.93852 0.55862 0.73988 0.0
C5313 C 0.9443 0.57045 0.75751 0.0
C5314 C 0.9498 0.55944 0.72534 0.0
C5315 C 0.96696 0.57209 0.72827 0.0
C5316 C 0.97197 0.58524 0.74523 0.0
H5317 H 0.06545 0.58577 0.67076 0.0
H5318 H 0.04241 0.58952 0.69271 0.0
C5319 C 0.96073 0.58442 0.75977 0.0
C5320 C 0.98058 0.56995 0.71475 0.0
H5321 H 1.00705 0.53905 0.69738 0.0
C5322 C 0.98712 0.58537 0.70553 0.0
C5323 C 0.9879 0.55309 0.71189 0.0
C5324 C 0.9819 0.53643 0.72209 0.0
C5325 C 1.00063 0.5842 0.69316 0.0
C5326 C 0.00797 0.56734 0.69036 0.0
C5327 C 1.0014 0.55196 0.6996 0.0
C5328 C 0.02216 0.56504 0.67751 0.0
C5329 C 1.00667 0.60081 0.68295 0.0
C5330 C 0.01863 0.54959 0.66219 0.0
C5331 C 0.03178 0.54725 0.64987 0.0
C5332 C 0.04876 0.56032 0.65262 0.0
C5333 C 0.05251 0.57544 0.66833 0.0
C5334 C 0.03929 0.57777 0.6807 0.0
H5335 H 0.99676 0.61034 0.68314 0.0
H5336 H 0.01982 0.60985 0.68985 0.0
H5337 H 0.00862 0.59527 0.66818 0.0
H5338 H 1.00557 0.53946 0.65963 0.0
H5339 H 0.02861 0.53527 0.63805 0.0
H5340 H 0.29194 0.18483 0.43796 0.0
H5341 H 0.29496 0.20254 0.41208 0.0
H5342 H 0.31429 0.25659 0.45084 0.0
H5343 H 0.31126 0.23891 0.47721 0.0
H5344 H 0.27873 0.24457 0.41333 0.0
H5345 H 0.35071 0.24273 0.40293 0.0
H5346 H 0.33627 0.22273 0.41085 0.0
H5347 H 0.34294 0.24598 0.42605 0.0
C5348 C 0.29694 0.20048 0.44117 0.0
C5349 C 0.3014 0.21036 0.45988 0.0
C5350 C 0.29861 0.21059 0.42624 0.0
C5351 C 0.30486 0.23087 0.42947 0.0
C5352 C 0.30944 0.24091 0.44802 0.0
H5353 H 0.33306 0.29805 0.34011 0.0
H5354 H 0.3317 0.28705 0.37018 0.0
C5355 C 0.30771 0.23077 0.46309 0.0
C5356 C 0.30629 0.24126 0.41327 0.0
H5357 H 0.33449 0.25403 0.38016 0.0
C5358 C 0.29097 0.24685 0.40617 0.0
C5359 C 0.32226 0.24431 0.40399 0.0
C5360 C 0.33909 0.2387 0.41123 0.0
C5361 C 0.2911 0.25513 0.38987 0.0
C5362 C 0.30685 0.25736 0.37999 0.0
C5363 C 0.32235 0.25226 0.3875 0.0
C5364 C 0.3074 0.26444 0.36168 0.0
C5365 C 0.27436 0.26158 0.38362 0.0
C5366 C 0.29431 0.25545 0.34663 0.0
C5367 C 0.29489 0.26193 0.32948 0.0
C5368 C 0.30891 0.27722 0.32659 0.0
C5369 C 0.3221 0.28615 0.34163 0.0
C5370 C 0.32136 0.27983 0.35891 0.0
H5371 H 0.26644 0.26528 0.39559 0.0
H5372 H 0.27782 0.27447 0.37675 0.0
H5373 H 0.2655 0.24948 0.37351 0.0
H5374 H 0.28362 0.24325 0.34805 0.0
H5375 H 0.28424 0.25493 0.31851 0.0
H5376 H 0.34816 0.63725 0.52699 0.0
H5377 H 0.37332 0.62036 0.52634 0.0
H5378 H 0.33704 0.56703 0.49864 0.0
H5379 H 0.31194 0.58347 0.49943 0.0
H5380 H 0.35964 0.56205 0.52804 0.0
H5381 H 0.39809 0.60337 0.47914 0.0
H5382 H 0.39262 0.61782 0.49987 0.0
H5383 H 0.37477 0.60387 0.4827 0.0
C5384 C 0.34553 0.62192 0.52082 0.0
C5385 C 0.32802 0.61179 0.51314 0.0
C5386 C 0.35994 0.61233 0.52036 0.0
C5387 C 0.35705 0.59252 0.5122 0.0
C5388 C 0.33956 0.58234 0.50493 0.0
H5389 H 0.43149 0.52178 0.47099 0.0
H5390 H 0.40722 0.53975 0.47502 0.0
C5391 C 0.32522 0.59184 0.50536 0.0
C5392 C 0.3721 0.58215 0.51107 0.0
H5393 H 0.41113 0.57966 0.49036 0.0
C5394 C 0.37096 0.56595 0.51989 0.0
C5395 C 0.38667 0.58712 0.50019 0.0
C5396 C 0.38814 0.60389 0.48978 0.0
C5397 C 0.384 0.55452 0.51808 0.0
C5398 C 0.39869 0.55962 0.50738 0.0
C5399 C 0.39986 0.57585 0.4986 0.0
C5400 C 0.41294 0.54823 0.50506 0.0
C5401 C 0.38168 0.53679 0.52722 0.0
C5402 C 0.42412 0.54705 0.52061 0.0
C5403 C 0.43785 0.53671 0.51837 0.0
C5404 C 0.44077 0.52747 0.5005 0.0
C5405 C 0.42944 0.52854 0.48494 0.0
C5406 C 0.41569 0.53892 0.48721 0.0
H5407 H 0.36757 0.53217 0.53085 0.0
H5408 H 0.38527 0.52438 0.51793 0.0
H5409 H 0.39083 0.54026 0.54033 0.0
H5410 H 0.42237 0.55435 0.53447 0.0
H5411 H 0.44624 0.53601 0.53065 0.0
H5412 H 0.87266 0.8973 0.51969 0.0
H5413 H 0.9045 0.91426 0.52046 0.0
H5414 H 0.8942 0.96296 0.55896 0.0
H5415 H 0.8626 0.94574 0.55856 0.0
H5416 H 0.91728 0.94704 0.50893 0.0
H5417 H 0.9408 0.95752 0.58373 0.0
H5418 H 0.91972 0.94122 0.57369 0.0
H5419 H 0.92089 0.96695 0.58053 0.0
C5420 C 0.87732 0.91154 0.52844 0.0
C5421 C 0.86513 0.92054 0.5386 0.0
C5422 C 0.89549 0.92123 0.5289 0.0
C5423 C 0.90191 0.93988 0.53989 0.0
C5424 C 0.8898 0.94846 0.55067 0.0
H5425 H 0.99908 0.03204 0.55371 0.0
H5426 H 0.96966 0.01107 0.55563 0.0
C5427 C 0.87166 0.93877 0.55019 0.0
C5428 C 0.92075 0.95099 0.53893 0.0
H5429 H 0.9592 0.9775 0.56557 0.0
C5430 C 0.92632 0.95387 0.52135 0.0
C5431 C 0.93291 0.95945 0.55506 0.0
C5432 C 0.92835 0.95596 0.57428 0.0
C5433 C 0.94306 0.96595 0.51948 0.0
C5434 C 0.95522 0.97455 0.53561 0.0
C5435 C 0.94992 0.97111 0.55318 0.0
C5436 C 0.97338 0.98724 0.53457 0.0
C5437 C 0.94707 0.97 0.50026 0.0
C5438 C 0.9856 0.98085 0.52241 0.0
C5439 C 1.00222 0.99315 0.52084 0.0
C5440 C 1.00731 0.01202 0.53175 0.0
C5441 C 0.99545 0.01798 0.54462 0.0
C5442 C 0.97865 1.00583 0.5459 0.0
H5443 H 0.93441 0.96786 0.49097 0.0
H5444 H 0.95492 0.98511 0.50095 0.0
H5445 H 0.95506 0.95969 0.49372 0.0
H5446 H 0.98229 0.96633 0.51405 0.0
H5447 H 0.01106 0.98779 0.51101 0.0
H5448 H 0.90028 0.12449 0.30939 0.0
H5449 H 0.88573 0.15182 0.3076 0.0
H5450 H 0.9039 0.15483 0.25307 0.0
H5451 H 0.91875 0.12734 0.25493 0.0
H5452 H 0.89509 0.19021 0.30548 0.0
H5453 H 0.85182 0.1561 0.24007 0.0
H5454 H 0.86437 0.14252 0.25258 0.0
H5455 H 0.87562 0.15822 0.23787 0.0
C5456 C 0.90152 0.13093 0.29696 0.0
C5457 C 0.9113 0.12307 0.28245 0.0
C5458 C 0.89293 0.14692 0.29591 0.0
C5459 C 0.89293 0.15606 0.28005 0.0
C5460 C 0.9029 0.14844 0.26554 0.0
H5461 H 0.83903 0.24938 0.24602 0.0
H5462 H 0.85395 0.22235 0.24804 0.0
C5463 C 0.91184 0.13256 0.26672 0.0
C5464 C 0.8827 0.17319 0.27904 0.0
H5465 H 0.85086 0.18859 0.25238 0.0
C5466 C 0.88542 0.18963 0.29376 0.0
C5467 C 0.86979 0.17346 0.26401 0.0
C5468 C 0.86502 0.1566 0.24779 0.0
C5469 C 0.87653 0.20574 0.29369 0.0
C5470 C 0.86332 0.20591 0.27879 0.0
C5471 C 0.86061 0.18937 0.26408 0.0
C5472 C 0.8528 0.22292 0.27777 0.0
C5473 C 0.88229 0.22292 0.30951 0.0
C5474 C 0.84601 0.23326 0.29345 0.0
C5475 C 0.83731 0.24929 0.29226 0.0
C5476 C 0.83397 0.25554 0.27512 0.0
C5477 C 0.8404 0.245 0.25948 0.0
C5478 C 0.84927 0.22923 0.26069 0.0
H5479 H 0.89615 0.22374 0.31593 0.0
H5480 H 0.88217 0.23685 0.3047 0.0
H5481 H 0.8729 0.22128 0.3206 0.0
H5482 H 0.84741 0.2291 0.30695 0.0
H5483 H 0.83344 0.25701 0.30497 0.0
H5484 H 0.74339 0.11171 0.03701 0.0
H5485 H 0.7107 0.10336 0.03881 0.0
H5486 H 0.70613 0.15801 0.02301 0.0
H5487 H 0.73867 0.16526 0.01928 0.0
H5488 H 0.69084 0.11905 0.06043 0.0
H5489 H 0.66637 0.12445 0.98863 0.0
H5490 H 0.69013 0.12856 0.99583 0.0
H5491 H 0.67806 0.14746 1.0022 0.0
C5492 C 0.73522 0.12147 0.03313 0.0
C5493 C 0.74322 0.13846 0.02688 0.0
C5494 C 0.71661 0.11694 0.03452 0.0
C5495 C 0.70576 0.12981 0.03054 0.0
C5496 C 0.71399 0.14744 0.02537 0.0
H5497 H 0.58723 0.10552 0.03577 0.0
H5498 H 0.61874 0.12433 0.03998 0.0
C5499 C 0.73257 0.15165 0.02338 0.0
C5500 C 0.68604 0.1248 0.03264 0.0
H5501 H 0.644 0.11645 0.00924 0.0
C5502 C 0.68066 0.11855 0.04919 0.0
C5503 C 0.67259 0.12467 0.01824 0.0
C5504 C 0.67708 0.1315 1.00019 0.0
C5505 C 0.66244 0.11103 0.05123 0.0
C5506 C 0.64923 0.10983 0.03646 0.0
C5507 C 0.65432 0.11729 0.02046 0.0
C5508 C 0.63044 0.09891 0.03638 0.0
C5509 C 0.65741 0.10397 0.06897 0.0
C5510 C 0.62675 0.07849 0.03301 0.0
C5511 C 0.60889 0.06781 0.03031 0.0
C5512 C 0.59445 0.07737 0.03146 0.0
C5513 C 0.59819 0.09784 0.03524 0.0
C5514 C 0.61609 0.10856 0.03764 0.0
H5515 H 0.66863 0.10903 0.08034 0.0
H5516 H 0.6453 0.10917 0.07376 0.0
H5517 H 0.65405 0.0878 0.06614 0.0
H5518 H 0.63769 0.07082 0.03162 0.0
H5519 H 0.60652 0.05215 0.02663 0.0
H5520 H 0.21797 0.51566 0.30244 0.0
H5521 H 0.22808 0.4875 0.31047 0.0
H5522 H 0.21922 0.45951 0.2524 0.0
H5523 H 0.20813 0.48744 0.2444 0.0
H5524 H 0.20975 0.43341 0.27427 0.0
H5525 H 0.27738 0.47863 0.30168 0.0
H5526 H 0.25997 0.48746 0.31388 0.0
H5527 H 0.26084 0.4879 0.28925 0.0
C5528 C 0.21809 0.50346 0.29139 0.0
C5529 C 0.21253 0.50382 0.27276 0.0
C5530 C 0.22397 0.48742 0.29597 0.0
C5531 C 0.22499 0.47166 0.28196 0.0
C5532 C 0.21872 0.4716 0.26342 0.0
H5533 H 0.29531 0.3958 0.30561 0.0
H5534 H 0.2807 0.41834 0.29265 0.0
C5535 C 0.21242 0.48753 0.25886 0.0
C5536 C 0.23307 0.45562 0.28673 0.0
H5537 H 0.2702 0.44701 0.30965 0.0
C5538 C 0.22305 0.43632 0.28184 0.0
C5539 C 0.25059 0.45935 0.29624 0.0
C5540 C 0.26288 0.47943 0.30036 0.0
C5541 C 0.22989 0.42072 0.28663 0.0
C5542 C 0.24694 0.42464 0.2972 0.0
C5543 C 0.25705 0.44393 0.30174 0.0
C5544 C 0.25491 0.40914 0.30352 0.0
C5545 C 0.21893 0.40024 0.27995 0.0
C5546 C 0.2453 0.39614 0.31385 0.0
C5547 C 0.25345 0.38248 0.32072 0.0
C5548 C 0.27158 0.38181 0.31785 0.0
C5549 C 0.28117 0.39512 0.30767 0.0
C5550 C 0.27288 0.40836 0.30042 0.0
H5551 H 0.20978 0.3993 0.26722 0.0
H5552 H 0.22779 0.38973 0.27676 0.0
H5553 H 0.21033 0.39581 0.29102 0.0
H5554 H 0.23161 0.39679 0.317 0.0
H5555 H 0.24548 0.37264 0.32842 0.0
H5556 H 0.26623 0.4149 0.05767 0.0
H5557 H 0.2384 0.42784 0.05853 0.0
H5558 H 0.24817 0.44624 1.00586 0.0
H5559 H 0.27551 0.43344 1.00488 0.0
H5560 H 0.23682 0.46715 0.05865 0.0
H5561 H 0.19466 0.41981 0.99731 0.0
H5562 H 0.2139 0.41324 0.0083 0.0
H5563 H 0.2171 0.42941 0.99166 0.0
C5564 C 0.26214 0.42127 0.04609 0.0
C5565 C 0.27308 0.42309 0.0312 0.0
C5566 C 0.24631 0.42877 0.04664 0.0
C5567 C 0.24102 0.43783 0.03213 0.0
C5568 C 0.25167 0.43901 0.01703 0.0
H5569 H 0.18 0.51509 0.99947 0.0
H5570 H 0.19851 0.49161 1.00374 0.0
C5571 C 0.26743 0.43176 0.01657 0.0
C5572 C 0.22532 0.44754 0.03307 0.0
H5573 H 0.18811 0.45168 1.00657 0.0
C5574 C 0.2259 0.46349 0.04752 0.0
C5575 C 0.21106 0.44282 0.01854 0.0
C5576 C 0.20902 0.42526 1.00319 0.0
C5577 C 0.21337 0.47558 0.04714 0.0
C5578 C 0.19974 0.47149 0.03201 0.0
C5579 C 0.1986 0.45493 0.01811 0.0
C5580 C 0.18768 0.48514 0.0294 0.0
C5581 C 0.21546 0.49331 0.06232 0.0
C5582 C 0.1751 0.48912 0.04221 0.0
C5583 C 0.16444 0.50265 0.03981 0.0
C5584 C 0.16621 0.51252 0.02457 0.0
C5585 C 0.17848 0.50804 0.01153 0.0
C5586 C 0.18901 0.49451 0.01389 0.0
H5587 H 0.22843 0.49619 0.07128 0.0
H5588 H 0.21485 0.5064 0.05615 0.0
H5589 H 0.20416 0.49105 0.07136 0.0
H5590 H 0.1736 0.48186 0.05414 0.0
H5591 H 0.15518 0.50576 0.05014 0.0
H5592 H 0.88861 0.02001 0.25972 0.0
H5593 H 0.87233 0.98634 0.25943 0.0
H5594 H 0.92015 0.97488 0.2861 0.0
H5595 H 0.93589 1.00882 0.28742 0.0
H5596 H 0.87352 0.9522 0.24416 0.0
H5597 H 0.8878 0.95033 0.31873 0.0
H5598 H 0.89536 0.97221 0.30961 0.0
H5599 H 0.90839 0.95367 0.30751 0.0
C5600 C 0.89549 0.01052 0.26611 0.0
C5601 C 0.91339 0.0178 0.27454 0.0
C5602 C 0.88618 0.99093 0.26569 0.0
C5603 C 0.89443 0.9775 0.27338 0.0
C5604 C 0.91273 0.9846 0.28085 0.0
H5605 H 0.86099 0.85228 0.28335 0.0
H5606 H 0.87683 0.8858 0.28324 0.0
C5607 C 0.92193 1.00422 0.28144 0.0
C5608 C 0.8842 0.95621 0.27288 0.0
H5609 H 0.8752 0.91968 0.29898 0.0
C5610 C 0.87386 0.94531 0.25632 0.0
C5611 C 0.88443 0.94635 0.28841 0.0
C5612 C 0.89445 0.95631 0.30709 0.0
C5613 C 0.86441 0.92547 0.25472 0.0
C5614 C 0.86447 0.91573 0.27031 0.0
C5615 C 0.8748 0.92661 0.28685 0.0
C5616 C 0.85435 0.89444 0.26983 0.0
C5617 C 0.85508 0.915 0.23587 0.0
C5618 C 0.83603 0.88716 0.26247 0.0
C5619 C 0.82688 0.86757 0.26228 0.0
C5620 C 0.8354 0.85432 0.26984 0.0
C5621 C 0.85366 0.86165 0.27735 0.0
C5622 C 0.86285 0.88115 0.27736 0.0
H5623 H 0.86124 0.92171 0.22436 0.0
H5624 H 0.85573 0.89938 0.23333 0.0
H5625 H 0.84065 0.91602 0.23526 0.0
H5626 H 0.82854 0.89671 0.25703 0.0
H5627 H 0.813 0.86286 0.2562 0.0
H5628 H 0.67583 0.10954 0.75314 0.0
H5629 H 0.68446 0.1442 0.75112 0.0
H5630 H 0.73463 0.13488 0.72956 0.0
H5631 H 0.72529 0.1003 0.73028 0.0
H5632 H 0.70874 0.16861 0.7705 0.0
H5633 H 0.72659 0.17273 0.69935 0.0
H5634 H 0.71436 0.15028 0.70511 0.0
H5635 H 0.73887 0.15642 0.70752 0.0
C5636 C 0.68849 0.11498 0.74761 0.0
C5637 C 0.70033 0.10265 0.74264 0.0
C5638 C 0.69343 0.13472 0.74642 0.0
C5639 C 0.71021 0.14232 0.74011 0.0
C5640 C 0.72141 0.12953 0.73399 0.0
H5641 H 0.78532 0.24458 0.79096 0.0
H5642 H 0.76552 0.21233 0.77987 0.0
C5643 C 0.71632 0.10981 0.7349 0.0
C5644 C 0.71739 0.16373 0.74268 0.0
H5645 H 0.74506 0.19846 0.72408 0.0
C5646 C 0.71658 0.17505 0.76024 0.0
C5647 C 0.7269 0.17269 0.72908 0.0
C5648 C 0.72649 0.16236 0.70916 0.0
C5649 C 0.72662 0.19424 0.76528 0.0
C5650 C 0.73778 0.20237 0.75241 0.0
C5651 C 0.73713 0.19187 0.73421 0.0
C5652 C 0.75066 0.22141 0.75795 0.0
C5653 C 0.72546 0.20545 0.78454 0.0
C5654 C 0.7493 0.23694 0.74882 0.0
C5655 C 0.76076 0.25525 0.75502 0.0
C5656 C 0.77407 0.25803 0.76997 0.0
C5657 C 0.77555 0.24248 0.77896 0.0
C5658 C 0.7641 0.22421 0.77282 0.0
H5659 H 0.71243 0.19987 0.79013 0.0
H5660 H 0.73657 0.2037 0.79424 0.0
H5661 H 0.72682 0.22123 0.78442 0.0
H5662 H 0.73899 0.23508 0.73736 0.0
H5663 H 0.75894 0.26729 0.74843 0.0
loop_
_geom_bond_atom_site_label_1
_geom_bond_atom_site_label_2
_geom_bond_distance
_geom_bond_site_symmetry_2
_ccdc_geom_bond_type
Mn0 O5 2.095 . S
Mn0 O15 2.162 . S
Mn0 O16 2.297 . S
Mn0 O24 2.385 . S
Mn0 O25 2.209 . S
Mn0 O26 2.094 . S
Mn1 O6 2.121 . S
Mn1 N8 2.257 . S
Mn1 N17 2.282 . S
Mn1 O25 2.215 . S
Mn1 O27 2.117 . S
C2 O24 1.234 . S
C2 O25 1.283 . S
C3 O15 1.281 . S
C3 O16 1.236 . S
C4 O26 1.240 . S
C4 O27 1.264 . S
O5 Mn0 2.095 . S
O5 C14 1.250 . S
O6 Mn1 2.121 . S
O6 C14 1.258 . S
C7 N8 1.326 . S
C7 C11 1.460 . S
C7 H13 0.929 . S
N8 Mn1 2.257 . S
N8 C7 1.326 . S
N8 C12 1.362 . S
C9 C10 1.258 . S
C9 C12 1.431 . S
C9 C29 1.449 . S
C10 C9 1.258 . S
C10 C11 1.477 . S
C10 H30 0.931 . S
C11 C7 1.460 . S
C11 C10 1.477 . S
C11 H31 0.930 . S
C12 N8 1.362 . S
C12 C9 1.431 . S
C12 C22 1.476 . S
H13 C7 0.929 . S
C14 O5 1.250 . S
C14 O6 1.258 . S
O15 Mn0 2.162 . S
O15 C3 1.281 . S
O16 Mn0 2.297 . S
O16 C3 1.236 . S
N17 Mn1 2.282 . S
N17 C18 1.328 . S
N17 C22 1.318 . S
C18 N17 1.328 . S
C18 C19 1.457 . S
C18 H23 0.929 . S
C19 C18 1.457 . S
C19 C20 1.291 . S
C19 H32 0.931 . S
C20 C19 1.291 . S
C20 C21 1.373 . S
C20 H33 0.929 . S
C21 C20 1.373 . S
C21 C22 1.396 . S
C21 C28 1.403 . S
C22 C12 1.476 . S
C22 N17 1.318 . S
C22 C21 1.396 . S
H23 C18 0.929 . S
O24 Mn0 2.385 . S
O24 C2 1.234 . S
O25 Mn0 2.209 . S
O25 Mn1 2.215 . S
O25 C2 1.283 . S
O26 Mn0 2.094 . S
O26 C4 1.240 . S
O27 Mn1 2.117 . S
O27 C4 1.264 . S
C28 C21 1.403 . S
C28 C29 1.399 . S
C28 H34 0.929 . S
C29 C9 1.449 . S
C29 C28 1.399 . S
C29 H35 0.930 . S
H30 C10 0.931 . S
H31 C11 0.930 . S
H32 C19 0.931 . S
H33 C20 0.929 . S
H34 C28 0.929 . S
H35 C29 0.930 . S
Mn36 O41 2.059 1_455 S
Mn36 O51 2.163 1_455 S
Mn36 O52 2.302 1_455 S
Mn36 O60 2.423 . S
Mn36 O61 2.225 . S
Mn36 O62 2.091 . S
Mn37 O42 2.121 1_455 S
Mn37 N44 2.257 . S
Mn37 N53 2.282 . S
Mn37 O61 2.215 . S
Mn37 O63 2.117 . S
C38 O60 1.234 . S
C38 O61 1.283 . S
C39 O51 1.281 . S
C39 O52 1.236 . S
C40 O62 1.240 . S
C40 O63 1.264 . S
O41 Mn36 2.059 1_655 S
O41 C50 1.250 . S
O42 Mn37 2.121 1_655 S
O42 C50 1.258 . S
C43 N44 1.326 . S
C43 C47 1.460 . S
C43 H49 0.929 1_455 S
N44 Mn37 2.257 . S
N44 C43 1.326 . S
N44 C48 1.362 . S
C45 C46 1.258 . S
C45 C48 1.431 . S
C45 C65 1.449 . S
C46 C45 1.258 . S
C46 C47 1.477 . S
C46 H66 0.931 . S
C47 C43 1.460 . S
C47 C46 1.477 . S
C47 H67 0.930 . S
C48 N44 1.362 . S
C48 C45 1.431 . S
C48 C58 1.476 . S
H49 C43 0.929 1_655 S
C50 O41 1.250 . S
C50 O42 1.258 . S
O51 Mn36 2.163 1_655 S
O51 C39 1.281 . S
O52 Mn36 2.302 1_655 S
O52 C39 1.236 . S
N53 Mn37 2.282 . S
N53 C54 1.328 . S
N53 C58 1.318 . S
C54 N53 1.328 . S
C54 C55 1.457 . S
C54 H59 0.929 . S
C55 C54 1.457 . S
C55 C56 1.291 . S
C55 H68 0.931 . S
C56 C55 1.291 . S
C56 C57 1.373 . S
C56 H69 0.929 . S
C57 C56 1.373 . S
C57 C58 1.396 . S
C57 C64 1.403 . S
C58 C48 1.476 . S
C58 N53 1.318 . S
C58 C57 1.396 . S
H59 C54 0.929 . S
O60 Mn36 2.423 . S
O60 C38 1.234 . S
O61 Mn36 2.225 . S
O61 Mn37 2.215 . S
O61 C38 1.283 . S
O62 Mn36 2.091 . S
O62 C40 1.240 . S
O63 Mn37 2.117 . S
O63 C40 1.264 . S
C64 C57 1.403 . S
C64 C65 1.399 . S
C64 H70 0.929 . S
C65 C45 1.449 . S
C65 C64 1.399 . S
C65 H71 0.930 . S
H66 C46 0.931 . S
H67 C47 0.930 . S
H68 C55 0.931 . S
H69 C56 0.929 . S
H70 C64 0.929 . S
H71 C65 0.930 . S
Mn72 O77 2.095 . S
Mn72 O87 2.162 . S
Mn72 O88 2.297 . S
Mn72 O96 2.385 . S
Mn72 O97 2.209 . S
Mn72 O98 2.094 . S
Mn73 O78 2.121 . S
Mn73 N80 2.257 . S
Mn73 N89 2.282 . S
Mn73 O97 2.215 . S
Mn73 O99 2.117 . S
C74 O96 1.234 . S
C74 O97 1.283 . S
C75 O87 1.281 . S
C75 O88 1.236 . S
C76 O98 1.240 . S
C76 O99 1.264 . S
O77 Mn72 2.095 . S
O77 C86 1.250 . S
O78 Mn73 2.121 . S
O78 C86 1.258 . S
C79 N80 1.326 . S
C79 C83 1.460 . S
C79 H85 0.929 . S
N80 Mn73 2.257 . S
N80 C79 1.326 . S
N80 C84 1.362 . S
C81 C82 1.258 . S
C81 C84 1.431 . S
C81 C101 1.449 . S
C82 C81 1.258 . S
C82 C83 1.477 . S
C82 H102 0.931 . S
C83 C79 1.460 . S
C83 C82 1.477 . S
C83 H103 0.930 . S
C84 N80 1.362 . S
C84 C81 1.431 . S
C84 C94 1.476 . S
H85 C79 0.929 . S
C86 O77 1.250 . S
C86 O78 1.258 . S
O87 Mn72 2.162 . S
O87 C75 1.281 . S
O88 Mn72 2.297 . S
O88 C75 1.236 . S
N89 Mn73 2.282 . S
N89 C90 1.328 . S
N89 C94 1.318 . S
C90 N89 1.328 . S
C90 C91 1.457 . S
C90 H95 0.929 . S
C91 C90 1.457 . S
C91 C92 1.291 . S
C91 H104 0.931 . S
C92 C91 1.291 . S
C92 C93 1.373 . S
C92 H105 0.929 . S
C93 C92 1.373 . S
C93 C94 1.396 . S
C93 C100 1.403 . S
C94 C84 1.476 . S
C94 N89 1.318 . S
C94 C93 1.396 . S
H95 C90 0.929 . S
O96 Mn72 2.385 . S
O96 C74 1.234 . S
O97 Mn72 2.209 . S
O97 Mn73 2.215 . S
O97 C74 1.283 . S
O98 Mn72 2.094 . S
O98 C76 1.240 . S
O99 Mn73 2.117 . S
O99 C76 1.264 . S
C100 C93 1.403 . S
C100 C101 1.399 . S
C100 H106 0.929 . S
C101 C81 1.449 . S
C101 C100 1.399 . S
C101 H107 0.930 . S
H102 C82 0.931 . S
H103 C83 0.930 . S
H104 C91 0.931 . S
H105 C92 0.929 . S
H106 C100 0.929 . S
H107 C101 0.930 . S
Mn108 O113 2.095 . S
Mn108 O123 2.162 . S
Mn108 O124 2.297 . S
Mn108 O132 2.385 . S
Mn108 O133 2.209 . S
Mn108 O134 2.094 . S
Mn109 O114 2.121 . S
Mn109 N116 2.257 . S
Mn109 N125 2.282 . S
Mn109 O133 2.215 . S
Mn109 O135 2.117 . S
C110 O132 1.234 . S
C110 O133 1.283 . S
C111 O123 1.281 . S
C111 O124 1.236 . S
C112 O134 1.240 . S
C112 O135 1.264 . S
O113 Mn108 2.095 . S
O113 C122 1.250 . S
O114 Mn109 2.121 . S
O114 C122 1.258 . S
C115 N116 1.326 . S
C115 C119 1.460 . S
C115 H121 0.929 . S
N116 Mn109 2.257 . S
N116 C115 1.326 . S
N116 C120 1.362 . S
C117 C118 1.258 . S
C117 C120 1.431 . S
C117 C137 1.449 . S
C118 C117 1.258 . S
C118 C119 1.477 . S
C118 H138 0.931 . S
C119 C115 1.460 . S
C119 C118 1.477 . S
C119 H139 0.930 . S
C120 N116 1.362 . S
C120 C117 1.431 . S
C120 C130 1.476 . S
H121 C115 0.929 . S
C122 O113 1.250 . S
C122 O114 1.258 . S
O123 Mn108 2.162 . S
O123 C111 1.281 . S
O124 Mn108 2.297 . S
O124 C111 1.236 . S
N125 Mn109 2.282 . S
N125 C126 1.328 . S
N125 C130 1.318 . S
C126 N125 1.328 . S
C126 C127 1.457 . S
C126 H131 0.929 . S
C127 C126 1.457 . S
C127 C128 1.291 . S
C127 H140 0.931 . S
C128 C127 1.291 . S
C128 C129 1.373 . S
C128 H141 0.929 . S
C129 C128 1.373 . S
C129 C130 1.396 . S
C129 C136 1.403 . S
C130 C120 1.476 . S
C130 N125 1.318 . S
C130 C129 1.396 . S
H131 C126 0.929 . S
O132 Mn108 2.385 . S
O132 C110 1.234 . S
O133 Mn108 2.209 . S
O133 Mn109 2.215 . S
O133 C110 1.283 . S
O134 Mn108 2.094 . S
O134 C112 1.240 . S
O135 Mn109 2.117 . S
O135 C112 1.264 . S
C136 C129 1.403 . S
C136 C137 1.399 . S
C136 H142 0.929 . S
C137 C117 1.449 . S
C137 C136 1.399 . S
C137 H143 0.930 . S
H138 C118 0.931 . S
H139 C119 0.930 . S
H140 C127 0.931 . S
H141 C128 0.929 . S
H142 C136 0.929 . S
H143 C137 0.930 . S
Mn144 O149 2.095 . S
Mn144 O159 2.162 . S
Mn144 O160 2.297 . S
Mn144 O168 2.385 . S
Mn144 O169 2.209 . S
Mn144 O170 2.094 . S
Mn145 O150 2.121 . S
Mn145 N152 2.257 . S
Mn145 N161 2.282 . S
Mn145 O169 2.215 . S
Mn145 O171 2.117 . S
C146 O168 1.234 . S
C146 O169 1.283 . S
C147 O159 1.281 . S
C147 O160 1.236 . S
C148 O170 1.240 . S
C148 O171 1.264 . S
O149 Mn144 2.095 . S
O149 C158 1.250 . S
O150 Mn145 2.121 . S
O150 C158 1.258 . S
C151 N152 1.326 . S
C151 C155 1.460 . S
C151 H157 0.929 . S
N152 Mn145 2.257 . S
N152 C151 1.326 . S
N152 C156 1.362 . S
C153 C154 1.258 . S
C153 C156 1.431 . S
C153 C173 1.449 . S
C154 C153 1.258 . S
C154 C155 1.477 . S
C154 H174 0.931 1_554 S
C155 C151 1.460 . S
C155 C154 1.477 . S
C155 H175 0.930 . S
C156 N152 1.362 . S
C156 C153 1.431 . S
C156 C166 1.476 . S
H157 C151 0.929 . S
C158 O149 1.250 . S
C158 O150 1.258 . S
O159 Mn144 2.162 . S
O159 C147 1.281 . S
O160 Mn144 2.297 . S
O160 C147 1.236 . S
N161 Mn145 2.282 . S
N161 C162 1.328 . S
N161 C166 1.318 . S
C162 N161 1.328 . S
C162 C163 1.457 . S
C162 H167 0.929 . S
C163 C162 1.457 . S
C163 C164 1.291 . S
C163 H176 0.931 . S
C164 C163 1.291 . S
C164 C165 1.373 . S
C164 H177 0.929 . S
C165 C164 1.373 . S
C165 C166 1.396 . S
C165 C172 1.403 . S
C166 C156 1.476 . S
C166 N161 1.318 . S
C166 C165 1.396 . S
H167 C162 0.929 . S
O168 Mn144 2.385 . S
O168 C146 1.234 . S
O169 Mn144 2.209 . S
O169 Mn145 2.215 . S
O169 C146 1.283 . S
O170 Mn144 2.094 . S
O170 C148 1.240 . S
O171 Mn145 2.117 . S
O171 C148 1.264 . S
C172 C165 1.403 . S
C172 C173 1.399 . S
C172 H178 0.929 . S
C173 C153 1.449 . S
C173 C172 1.399 . S
C173 H179 0.930 1_554 S
H174 C154 0.931 1_556 S
H175 C155 0.930 . S
H176 C163 0.931 . S
H177 C164 0.929 . S
H178 C172 0.929 . S
H179 C173 0.930 1_556 S
Mn180 O185 2.095 . S
Mn180 O195 2.162 . S
Mn180 O196 2.297 . S
Mn180 O204 2.385 . S
Mn180 O205 2.209 . S
Mn180 O206 2.094 . S
Mn181 O186 2.121 . S
Mn181 N188 2.257 . S
Mn181 N197 2.282 . S
Mn181 O205 2.215 . S
Mn181 O207 2.117 . S
C182 O204 1.234 . S
C182 O205 1.283 . S
C183 O195 1.281 . S
C183 O196 1.236 . S
C184 O206 1.240 . S
C184 O207 1.264 . S
O185 Mn180 2.095 . S
O185 C194 1.250 . S
O186 Mn181 2.121 . S
O186 C194 1.258 . S
C187 N188 1.326 . S
C187 C191 1.460 . S
C187 H193 0.929 . S
N188 Mn181 2.257 . S
N188 C187 1.326 . S
N188 C192 1.362 . S
C189 C190 1.258 . S
C189 C192 1.431 . S
C189 C209 1.449 . S
C190 C189 1.258 . S
C190 C191 1.477 . S
C190 H210 0.931 . S
C191 C187 1.460 . S
C191 C190 1.477 . S
C191 H211 0.930 . S
C192 N188 1.362 . S
C192 C189 1.431 . S
C192 C202 1.476 . S
H193 C187 0.929 . S
C194 O185 1.250 . S
C194 O186 1.258 . S
O195 Mn180 2.162 . S
O195 C183 1.281 . S
O196 Mn180 2.297 . S
O196 C183 1.236 . S
N197 Mn181 2.282 . S
N197 C198 1.328 . S
N197 C202 1.318 . S
C198 N197 1.328 . S
C198 C199 1.457 . S
C198 H203 0.929 . S
C199 C198 1.457 . S
C199 C200 1.291 . S
C199 H212 0.931 . S
C200 C199 1.291 . S
C200 C201 1.373 . S
C200 H213 0.929 . S
C201 C200 1.373 . S
C201 C202 1.396 . S
C201 C208 1.403 . S
C202 C192 1.476 . S
C202 N197 1.318 . S
C202 C201 1.396 . S
H203 C198 0.929 . S
O204 Mn180 2.385 . S
O204 C182 1.234 . S
O205 Mn180 2.209 . S
O205 Mn181 2.215 . S
O205 C182 1.283 . S
O206 Mn180 2.094 . S
O206 C184 1.240 . S
O207 Mn181 2.117 . S
O207 C184 1.264 . S
C208 C201 1.403 . S
C208 C209 1.399 . S
C208 H214 0.929 . S
C209 C189 1.449 . S
C209 C208 1.399 . S
C209 H215 0.930 . S
H210 C190 0.931 . S
H211 C191 0.930 . S
H212 C199 0.931 . S
H213 C200 0.929 . S
H214 C208 0.929 . S
H215 C209 0.930 . S
Mn216 O221 2.095 . S
Mn216 O231 2.162 . S
Mn216 O232 2.297 . S
Mn216 O240 2.385 . S
Mn216 O241 2.209 . S
Mn216 O242 2.094 . S
Mn217 O222 2.121 . S
Mn217 N224 2.257 . S
Mn217 N233 2.282 . S
Mn217 O241 2.215 . S
Mn217 O243 2.117 . S
C218 O240 1.234 . S
C218 O241 1.283 . S
C219 O231 1.281 . S
C219 O232 1.236 . S
C220 O242 1.240 . S
C220 O243 1.264 . S
O221 Mn216 2.095 . S
O221 C230 1.250 . S
O222 Mn217 2.121 . S
O222 C230 1.258 . S
C223 N224 1.326 . S
C223 C227 1.460 . S
C223 H229 0.929 . S
N224 Mn217 2.257 . S
N224 C223 1.326 . S
N224 C228 1.362 . S
C225 C226 1.258 . S
C225 C228 1.431 . S
C225 C245 1.449 . S
C226 C225 1.258 . S
C226 C227 1.477 . S
C226 H246 0.931 . S
C227 C223 1.460 . S
C227 C226 1.477 . S
C227 H247 0.930 . S
C228 N224 1.362 . S
C228 C225 1.431 . S
C228 C238 1.476 . S
H229 C223 0.929 . S
C230 O221 1.250 . S
C230 O222 1.258 . S
O231 Mn216 2.162 . S
O231 C219 1.281 . S
O232 Mn216 2.297 . S
O232 C219 1.236 . S
N233 Mn217 2.282 . S
N233 C234 1.328 . S
N233 C238 1.318 . S
C234 N233 1.328 . S
C234 C235 1.457 . S
C234 H239 0.929 . S
C235 C234 1.457 . S
C235 C236 1.291 . S
C235 H248 0.931 . S
C236 C235 1.291 . S
C236 C237 1.373 . S
C236 H249 0.929 . S
C237 C236 1.373 . S
C237 C238 1.396 . S
C237 C244 1.403 . S
C238 C228 1.476 . S
C238 N233 1.318 . S
C238 C237 1.396 . S
H239 C234 0.929 . S
O240 Mn216 2.385 . S
O240 C218 1.234 . S
O241 Mn216 2.209 . S
O241 Mn217 2.215 . S
O241 C218 1.283 . S
O242 Mn216 2.094 . S
O242 C220 1.240 . S
O243 Mn217 2.117 . S
O243 C220 1.264 . S
C244 C237 1.403 . S
C244 C245 1.399 . S
C244 H250 0.929 . S
C245 C225 1.449 . S
C245 C244 1.399 . S
C245 H251 0.930 . S
H246 C226 0.931 . S
H247 C227 0.930 . S
H248 C235 0.931 . S
H249 C236 0.929 . S
H250 C244 0.929 . S
H251 C245 0.930 . S
Mn252 O257 2.095 . S
Mn252 O267 2.162 . S
Mn252 O268 2.297 . S
Mn252 O276 2.385 1_455 S
Mn252 O277 2.209 . S
Mn252 O278 2.094 . S
Mn253 O258 2.121 . S
Mn253 N260 2.257 . S
Mn253 N269 2.282 1_455 S
Mn253 O277 2.215 . S
Mn253 O279 2.117 . S
C254 O276 1.234 . S
C254 O277 1.283 1_655 S
C255 O267 1.281 . S
C255 O268 1.236 . S
C256 O278 1.240 . S
C256 O279 1.264 . S
O257 Mn252 2.095 . S
O257 C266 1.250 . S
O258 Mn253 2.121 . S
O258 C266 1.258 . S
C259 N260 1.326 . S
C259 C263 1.460 . S
C259 H265 0.929 . S
N260 Mn253 2.257 . S
N260 C259 1.326 . S
N260 C264 1.362 1_455 S
C261 C262 1.258 . S
C261 C264 1.431 . S
C261 C281 1.449 . S
C262 C261 1.258 . S
C262 C263 1.477 1_655 S
C262 H282 0.931 . S
C263 C259 1.460 . S
C263 C262 1.477 1_455 S
C263 H283 0.930 . S
C264 N260 1.362 1_655 S
C264 C261 1.431 . S
C264 C274 1.476 . S
H265 C259 0.929 . S
C266 O257 1.250 . S
C266 O258 1.258 . S
O267 Mn252 2.162 . S
O267 C255 1.281 . S
O268 Mn252 2.297 . S
O268 C255 1.236 . S
N269 Mn253 2.282 1_655 S
N269 C270 1.328 . S
N269 C274 1.318 . S
C270 N269 1.328 . S
C270 C271 1.457 . S
C270 H275 0.929 . S
C271 C270 1.457 . S
C271 C272 1.291 . S
C271 H284 0.931 . S
C272 C271 1.291 . S
C272 C273 1.373 . S
C272 H285 0.929 . S
C273 C272 1.373 . S
C273 C274 1.396 . S
C273 C280 1.403 . S
C274 C264 1.476 . S
C274 N269 1.318 . S
C274 C273 1.396 . S
H275 C270 0.929 . S
O276 Mn252 2.385 1_655 S
O276 C254 1.234 . S
O277 Mn252 2.209 . S
O277 Mn253 2.215 . S
O277 C254 1.283 1_455 S
O278 Mn252 2.094 . S
O278 C256 1.240 . S
O279 Mn253 2.117 . S
O279 C256 1.264 . S
C280 C273 1.403 . S
C280 C281 1.399 . S
C280 H286 0.929 . S
C281 C261 1.449 . S
C281 C280 1.399 . S
C281 H287 0.930 . S
H282 C262 0.931 . S
H283 C263 0.930 . S
H284 C271 0.931 . S
H285 C272 0.929 . S
H286 C280 0.929 . S
H287 C281 0.930 . S
Mn288 O293 2.095 . S
Mn288 O303 2.162 . S
Mn288 O304 2.297 . S
Mn288 O312 2.385 1_545 S
Mn288 O313 2.209 . S
Mn288 O314 2.094 . S
Mn289 O294 2.121 . S
Mn289 N296 2.257 . S
Mn289 N305 2.282 1_545 S
Mn289 O313 2.215 . S
Mn289 O315 2.117 . S
C290 O312 1.234 . S
C290 O313 1.283 1_565 S
C291 O303 1.281 . S
C291 O304 1.236 . S
C292 O314 1.240 . S
C292 O315 1.264 . S
O293 Mn288 2.095 . S
O293 C302 1.250 . S
O294 Mn289 2.121 . S
O294 C302 1.258 . S
C295 N296 1.326 . S
C295 C299 1.460 . S
C295 H301 0.929 . S
N296 Mn289 2.257 . S
N296 C295 1.326 . S
N296 C300 1.362 1_545 S
C297 C298 1.258 . S
C297 C300 1.431 . S
C297 C317 1.449 . S
C298 C297 1.258 . S
C298 C299 1.477 1_565 S
C298 H318 0.931 . S
C299 C295 1.460 . S
C299 C298 1.477 1_545 S
C299 H319 0.930 . S
C300 N296 1.362 1_565 S
C300 C297 1.431 . S
C300 C310 1.476 . S
H301 C295 0.929 . S
C302 O293 1.250 . S
C302 O294 1.258 . S
O303 Mn288 2.162 . S
O303 C291 1.281 . S
O304 Mn288 2.297 . S
O304 C291 1.236 . S
N305 Mn289 2.282 1_565 S
N305 C306 1.328 . S
N305 C310 1.318 . S
C306 N305 1.328 . S
C306 C307 1.457 . S
C306 H311 0.929 . S
C307 C306 1.457 . S
C307 C308 1.291 . S
C307 H320 0.931 . S
C308 C307 1.291 . S
C308 C309 1.373 . S
C308 H321 0.929 . S
C309 C308 1.373 . S
C309 C310 1.396 . S
C309 C316 1.403 . S
C310 C300 1.476 . S
C310 N305 1.318 . S
C310 C309 1.396 . S
H311 C306 0.929 . S
O312 Mn288 2.385 1_565 S
O312 C290 1.234 . S
O313 Mn288 2.209 . S
O313 Mn289 2.215 . S
O313 C290 1.283 1_545 S
O314 Mn288 2.094 . S
O314 C292 1.240 . S
O315 Mn289 2.117 . S
O315 C292 1.264 . S
C316 C309 1.403 . S
C316 C317 1.399 . S
C316 H322 0.929 . S
C317 C297 1.449 . S
C317 C316 1.399 . S
C317 H323 0.930 . S
H318 C298 0.931 . S
H319 C299 0.930 . S
H320 C307 0.931 . S
H321 C308 0.929 . S
H322 C316 0.929 . S
H323 C317 0.930 . S
Mn324 O329 2.095 . S
Mn324 O339 2.162 . S
Mn324 O340 2.297 . S
Mn324 O348 2.385 . S
Mn324 O349 2.209 . S
Mn324 O350 2.094 . S
Mn325 O330 2.121 . S
Mn325 N332 2.257 . S
Mn325 N341 2.282 . S
Mn325 O349 2.215 . S
Mn325 O351 2.117 . S
C326 O348 1.234 . S
C326 O349 1.283 . S
C327 O339 1.281 . S
C327 O340 1.236 . S
C328 O350 1.240 . S
C328 O351 1.264 . S
O329 Mn324 2.095 . S
O329 C338 1.250 . S
O330 Mn325 2.121 . S
O330 C338 1.258 . S
C331 N332 1.326 . S
C331 C335 1.460 . S
C331 H337 0.929 . S
N332 Mn325 2.257 . S
N332 C331 1.326 . S
N332 C336 1.362 . S
C333 C334 1.258 . S
C333 C336 1.431 . S
C333 C353 1.449 . S
C334 C333 1.258 . S
C334 C335 1.477 . S
C334 H354 0.931 . S
C335 C331 1.460 . S
C335 C334 1.477 . S
C335 H355 0.930 . S
C336 N332 1.362 . S
C336 C333 1.431 . S
C336 C346 1.476 . S
H337 C331 0.929 . S
C338 O329 1.250 . S
C338 O330 1.258 . S
O339 Mn324 2.162 . S
O339 C327 1.281 . S
O340 Mn324 2.297 . S
O340 C327 1.236 . S
N341 Mn325 2.282 . S
N341 C342 1.328 . S
N341 C346 1.318 . S
C342 N341 1.328 . S
C342 C343 1.457 . S
C342 H347 0.929 . S
C343 C342 1.457 . S
C343 C344 1.291 . S
C343 H356 0.931 . S
C344 C343 1.291 . S
C344 C345 1.373 . S
C344 H357 0.929 . S
C345 C344 1.373 . S
C345 C346 1.396 . S
C345 C352 1.403 . S
C346 C336 1.476 . S
C346 N341 1.318 . S
C346 C345 1.396 . S
H347 C342 0.929 . S
O348 Mn324 2.385 . S
O348 C326 1.234 . S
O349 Mn324 2.209 . S
O349 Mn325 2.215 . S
O349 C326 1.283 . S
O350 Mn324 2.094 . S
O350 C328 1.240 . S
O351 Mn325 2.117 . S
O351 C328 1.264 . S
C352 C345 1.403 . S
C352 C353 1.399 . S
C352 H358 0.929 . S
C353 C333 1.449 . S
C353 C352 1.399 . S
C353 H359 0.930 . S
H354 C334 0.931 . S
H355 C335 0.930 . S
H356 C343 0.931 . S
H357 C344 0.929 . S
H358 C352 0.929 . S
H359 C353 0.930 . S
Mn360 O365 2.103 . S
Mn360 O375 2.161 . S
Mn360 O376 2.296 . S
Mn360 O384 2.377 1_565 S
Mn360 O385 2.205 1_565 S
Mn360 O386 2.093 . S
Mn361 O366 2.121 1_545 S
Mn361 N368 2.257 . S
Mn361 N377 2.282 . S
Mn361 O385 2.215 . S
Mn361 O387 2.117 . S
C362 O384 1.234 . S
C362 O385 1.283 . S
C363 O375 1.281 . S
C363 O376 1.236 . S
C364 O386 1.245 1_545 S
C364 O387 1.264 . S
O365 Mn360 2.103 . S
O365 C374 1.250 . S
O366 Mn361 2.121 1_565 S
O366 C374 1.258 . S
C367 N368 1.326 . S
C367 C371 1.460 . S
C367 H373 0.922 1_545 S
N368 Mn361 2.257 . S
N368 C367 1.326 . S
N368 C372 1.362 . S
C369 C370 1.258 . S
C369 C372 1.431 . S
C369 C389 1.449 . S
C370 C369 1.258 . S
C370 C371 1.477 . S
C370 H390 0.931 . S
C371 C367 1.460 . S
C371 C370 1.477 . S
C371 H391 0.930 . S
C372 N368 1.362 . S
C372 C369 1.431 . S
C372 C382 1.476 . S
H373 C367 0.922 1_565 S
C374 O365 1.250 . S
C374 O366 1.258 . S
O375 Mn360 2.161 . S
O375 C363 1.281 . S
O376 Mn360 2.296 . S
O376 C363 1.236 . S
N377 Mn361 2.282 . S
N377 C378 1.328 . S
N377 C382 1.318 . S
C378 N377 1.328 . S
C378 C379 1.457 . S
C378 H383 0.929 . S
C379 C378 1.457 . S
C379 C380 1.291 . S
C379 H392 0.931 . S
C380 C379 1.291 . S
C380 C381 1.373 . S
C380 H393 0.929 . S
C381 C380 1.373 . S
C381 C382 1.396 . S
C381 C388 1.403 . S
C382 C372 1.476 . S
C382 N377 1.318 . S
C382 C381 1.396 . S
H383 C378 0.929 . S
O384 Mn360 2.377 1_545 S
O384 C362 1.234 . S
O385 Mn360 2.205 1_545 S
O385 Mn361 2.215 . S
O385 C362 1.283 . S
O386 Mn360 2.093 . S
O386 C364 1.245 1_565 S
O387 Mn361 2.117 . S
O387 C364 1.264 . S
C388 C381 1.403 . S
C388 C389 1.399 . S
C388 H394 0.929 . S
C389 C369 1.449 . S
C389 C388 1.399 . S
C389 H395 0.930 . S
H390 C370 0.931 . S
H391 C371 0.930 . S
H392 C379 0.931 . S
H393 C380 0.929 . S
H394 C388 0.929 . S
H395 C389 0.930 . S
Mn396 O401 2.095 . S
Mn396 O411 2.162 . S
Mn396 O412 2.297 . S
Mn396 O420 2.385 . S
Mn396 O421 2.209 . S
Mn396 O422 2.094 1_554 S
Mn397 O402 2.121 1_556 S
Mn397 N404 2.257 . S
Mn397 N413 2.282 . S
Mn397 O421 2.215 1_556 S
Mn397 O423 2.117 . S
C398 O420 1.234 . S
C398 O421 1.283 . S
C399 O411 1.281 . S
C399 O412 1.236 . S
C400 O422 1.240 . S
C400 O423 1.264 . S
O401 Mn396 2.095 . S
O401 C410 1.250 . S
O402 Mn397 2.121 1_554 S
O402 C410 1.258 . S
C403 N404 1.326 1_554 S
C403 C407 1.460 1_565 S
C403 H409 0.929 . S
N404 Mn397 2.257 . S
N404 C403 1.326 1_556 S
N404 C408 1.362 . S
C405 C406 1.235 1_556 S
C405 C408 1.431 1_545 S
C405 C425 1.449 . S
C406 C405 1.235 1_554 S
C406 C407 1.508 . S
C406 H426 0.927 . S
C407 C403 1.460 1_545 S
C407 C406 1.508 . S
C407 H427 0.930 . S
C408 N404 1.362 . S
C408 C405 1.431 1_565 S
C408 C418 1.476 . S
H409 C403 0.929 . S
C410 O401 1.250 . S
C410 O402 1.258 . S
O411 Mn396 2.162 . S
O411 C399 1.281 . S
O412 Mn396 2.297 . S
O412 C399 1.236 . S
N413 Mn397 2.282 . S
N413 C414 1.328 . S
N413 C418 1.318 . S
C414 N413 1.328 . S
C414 C415 1.457 . S
C414 H419 0.929 . S
C415 C414 1.457 . S
C415 C416 1.291 . S
C415 H428 0.931 . S
C416 C415 1.291 . S
C416 C417 1.373 . S
C416 H429 0.929 . S
C417 C416 1.373 . S
C417 C418 1.396 . S
C417 C424 1.403 1_565 S
C418 C408 1.476 . S
C418 N413 1.318 . S
C418 C417 1.396 . S
H419 C414 0.929 . S
O420 Mn396 2.385 . S
O420 C398 1.234 . S
O421 Mn396 2.209 . S
O421 Mn397 2.215 1_554 S
O421 C398 1.283 . S
O422 Mn396 2.094 1_556 S
O422 C400 1.240 . S
O423 Mn397 2.117 . S
O423 C400 1.264 . S
C424 C417 1.403 1_545 S
C424 C425 1.399 . S
C424 H430 0.929 . S
C425 C405 1.449 . S
C425 C424 1.399 . S
C425 H431 0.930 . S
H426 C406 0.927 . S
H427 C407 0.930 . S
H428 C415 0.931 . S
H429 C416 0.929 . S
H430 C424 0.929 . S
H431 C425 0.930 . S
Mn432 O437 2.095 . S
Mn432 O447 2.162 . S
Mn432 O448 2.297 . S
Mn432 O456 2.385 . S
Mn432 O457 2.209 . S
Mn432 O458 2.094 . S
Mn433 O438 2.121 . S
Mn433 N440 2.257 . S
Mn433 N449 2.282 1_554 S
Mn433 O457 2.215 . S
Mn433 O459 2.117 1_554 S
C434 O456 1.234 . S
C434 O457 1.283 . S
C435 O447 1.281 . S
C435 O448 1.236 . S
C436 O458 1.240 1_556 S
C436 O459 1.264 . S
O437 Mn432 2.095 . S
O437 C446 1.250 . S
O438 Mn433 2.121 . S
O438 C446 1.258 . S
C439 N440 1.326 . S
C439 C443 1.460 . S
C439 H445 0.929 . S
N440 Mn433 2.257 . S
N440 C439 1.326 . S
N440 C444 1.362 . S
C441 C442 1.258 . S
C441 C444 1.431 . S
C441 C461 1.449 . S
C442 C441 1.258 . S
C442 C443 1.477 . S
C442 H462 0.931 . S
C443 C439 1.460 . S
C443 C442 1.477 . S
C443 H463 0.930 . S
C444 N440 1.362 . S
C444 C441 1.431 . S
C444 C454 1.476 . S
H445 C439 0.929 . S
C446 O437 1.250 . S
C446 O438 1.258 . S
O447 Mn432 2.162 . S
O447 C435 1.281 . S
O448 Mn432 2.297 . S
O448 C435 1.236 . S
N449 Mn433 2.282 1_556 S
N449 C450 1.328 . S
N449 C454 1.318 1_556 S
C450 N449 1.328 . S
C450 C451 1.457 . S
C450 H455 0.929 . S
C451 C450 1.457 . S
C451 C452 1.291 . S
C451 H464 0.931 . S
C452 C451 1.291 . S
C452 C453 1.373 . S
C452 H465 0.929 . S
C453 C452 1.373 . S
C453 C454 1.396 1_556 S
C453 C460 1.403 . S
C454 C444 1.476 . S
C454 N449 1.318 1_554 S
C454 C453 1.396 1_554 S
H455 C450 0.929 . S
O456 Mn432 2.385 . S
O456 C434 1.234 . S
O457 Mn432 2.209 . S
O457 Mn433 2.215 . S
O457 C434 1.283 . S
O458 Mn432 2.094 . S
O458 C436 1.240 1_554 S
O459 Mn433 2.117 1_556 S
O459 C436 1.264 . S
C460 C453 1.403 . S
C460 C461 1.399 1_556 S
C460 H466 0.929 . S
C461 C441 1.449 . S
C461 C460 1.399 1_554 S
C461 H467 0.930 . S
H462 C442 0.931 . S
H463 C443 0.930 . S
H464 C451 0.931 . S
H465 C452 0.929 . S
H466 C460 0.929 . S
H467 C461 0.930 . S
Mn468 O473 2.095 . S
Mn468 O483 2.162 . S
Mn468 O484 2.297 . S
Mn468 O492 2.385 . S
Mn468 O493 2.209 . S
Mn468 O494 2.094 . S
Mn469 O474 2.121 1_556 S
Mn469 N476 2.257 . S
Mn469 N485 2.282 . S
Mn469 O493 2.215 1_556 S
Mn469 O495 2.117 . S
C470 O492 1.234 . S
C470 O493 1.283 . S
C471 O483 1.281 . S
C471 O484 1.236 . S
C472 O494 1.240 1_556 S
C472 O495 1.264 . S
O473 Mn468 2.095 . S
O473 C482 1.250 . S
O474 Mn469 2.121 1_554 S
O474 C482 1.258 . S
C475 N476 1.326 . S
C475 C479 1.460 . S
C475 H481 0.929 1_556 S
N476 Mn469 2.257 . S
N476 C475 1.326 . S
N476 C480 1.362 . S
C477 C478 1.258 . S
C477 C480 1.431 . S
C477 C497 1.449 . S
C478 C477 1.258 . S
C478 C479 1.477 . S
C478 H498 0.931 . S
C479 C475 1.460 . S
C479 C478 1.477 . S
C479 H499 0.948 . S
C480 N476 1.362 . S
C480 C477 1.431 . S
C480 C490 1.476 . S
H481 C475 0.929 1_554 S
C482 O473 1.250 . S
C482 O474 1.258 . S
O483 Mn468 2.162 . S
O483 C471 1.281 . S
O484 Mn468 2.297 . S
O484 C471 1.236 . S
N485 Mn469 2.282 . S
N485 C486 1.328 . S
N485 C490 1.318 . S
C486 N485 1.328 . S
C486 C487 1.457 . S
C486 H491 0.929 . S
C487 C486 1.457 . S
C487 C488 1.291 . S
C487 H500 0.931 . S
C488 C487 1.291 . S
C488 C489 1.373 . S
C488 H501 0.929 . S
C489 C488 1.373 . S
C489 C490 1.396 . S
C489 C496 1.403 . S
C490 C480 1.476 . S
C490 N485 1.318 . S
C490 C489 1.396 . S
H491 C486 0.929 . S
O492 Mn468 2.385 . S
O492 C470 1.234 . S
O493 Mn468 2.209 . S
O493 Mn469 2.215 1_554 S
O493 C470 1.283 . S
O494 Mn468 2.094 . S
O494 C472 1.240 1_554 S
O495 Mn469 2.117 . S
O495 C472 1.264 . S
C496 C489 1.403 . S
C496 C497 1.399 . S
C496 H502 0.929 . S
C497 C477 1.449 . S
C497 C496 1.399 . S
C497 H503 0.930 . S
H498 C478 0.931 . S
H499 C479 0.948 . S
H500 C487 0.931 . S
H501 C488 0.929 . S
H502 C496 0.929 . S
H503 C497 0.930 . S
Mn504 O509 2.095 . S
Mn504 O519 2.162 . S
Mn504 O520 2.297 . S
Mn504 O528 2.385 . S
Mn504 O529 2.209 . S
Mn504 O530 2.094 . S
Mn505 O510 2.121 . S
Mn505 N512 2.257 . S
Mn505 N521 2.282 . S
Mn505 O529 2.215 . S
Mn505 O531 2.117 . S
C506 O528 1.234 . S
C506 O529 1.283 . S
C507 O519 1.281 . S
C507 O520 1.236 . S
C508 O530 1.240 . S
C508 O531 1.264 . S
O509 Mn504 2.095 . S
O509 C518 1.250 . S
O510 Mn505 2.121 . S
O510 C518 1.258 . S
C511 N512 1.326 . S
C511 C515 1.460 . S
C511 H517 0.929 . S
N512 Mn505 2.257 . S
N512 C511 1.326 . S
N512 C516 1.362 . S
C513 C514 1.258 . S
C513 C516 1.431 . S
C513 C533 1.449 . S
C514 C513 1.258 . S
C514 C515 1.477 . S
C514 H534 0.931 . S
C515 C511 1.460 . S
C515 C514 1.477 . S
C515 H535 0.930 . S
C516 N512 1.362 . S
C516 C513 1.431 . S
C516 C526 1.476 . S
H517 C511 0.929 . S
C518 O509 1.250 . S
C518 O510 1.258 . S
O519 Mn504 2.162 . S
O519 C507 1.281 . S
O520 Mn504 2.297 . S
O520 C507 1.236 . S
N521 Mn505 2.282 . S
N521 C522 1.328 . S
N521 C526 1.318 . S
C522 N521 1.328 . S
C522 C523 1.457 . S
C522 H527 0.929 . S
C523 C522 1.457 . S
C523 C524 1.291 . S
C523 H536 0.931 . S
C524 C523 1.291 . S
C524 C525 1.373 . S
C524 H537 0.929 . S
C525 C524 1.373 . S
C525 C526 1.396 . S
C525 C532 1.403 . S
C526 C516 1.476 . S
C526 N521 1.318 . S
C526 C525 1.396 . S
H527 C522 0.929 . S
O528 Mn504 2.385 . S
O528 C506 1.234 . S
O529 Mn504 2.209 . S
O529 Mn505 2.215 . S
O529 C506 1.283 . S
O530 Mn504 2.094 . S
O530 C508 1.240 . S
O531 Mn505 2.117 . S
O531 C508 1.264 . S
C532 C525 1.403 . S
C532 C533 1.399 . S
C532 H538 0.929 . S
C533 C513 1.449 . S
C533 C532 1.399 . S
C533 H539 0.930 . S
H534 C514 0.931 . S
H535 C515 0.930 . S
H536 C523 0.931 . S
H537 C524 0.929 . S
H538 C532 0.929 . S
H539 C533 0.930 . S
Mn540 O545 2.095 . S
Mn540 O555 2.162 . S
Mn540 O556 2.297 . S
Mn540 O564 2.385 . S
Mn540 O565 2.209 . S
Mn540 O566 2.094 . S
Mn541 O546 2.121 . S
Mn541 N548 2.257 . S
Mn541 N557 2.282 . S
Mn541 O565 2.215 . S
Mn541 O567 2.117 . S
C542 O564 1.234 . S
C542 O565 1.283 . S
C543 O555 1.281 . S
C543 O556 1.236 . S
C544 O566 1.240 . S
C544 O567 1.264 . S
O545 Mn540 2.095 . S
O545 C554 1.250 . S
O546 Mn541 2.121 . S
O546 C554 1.258 . S
C547 N548 1.326 . S
C547 C551 1.460 . S
C547 H553 0.929 . S
N548 Mn541 2.257 . S
N548 C547 1.326 . S
N548 C552 1.362 . S
C549 C550 1.258 . S
C549 C552 1.431 . S
C549 C569 1.449 . S
C550 C549 1.258 . S
C550 C551 1.477 . S
C550 H570 0.931 . S
C551 C547 1.460 . S
C551 C550 1.477 . S
C551 H571 0.930 . S
C552 N548 1.362 . S
C552 C549 1.431 . S
C552 C562 1.476 . S
H553 C547 0.929 . S
C554 O545 1.250 . S
C554 O546 1.258 . S
O555 Mn540 2.162 . S
O555 C543 1.281 . S
O556 Mn540 2.297 . S
O556 C543 1.236 . S
N557 Mn541 2.282 . S
N557 C558 1.328 . S
N557 C562 1.318 . S
C558 N557 1.328 . S
C558 C559 1.457 . S
C558 H563 0.929 . S
C559 C558 1.457 . S
C559 C560 1.291 . S
C559 H572 0.931 . S
C560 C559 1.291 . S
C560 C561 1.373 . S
C560 H573 0.929 . S
C561 C560 1.373 . S
C561 C562 1.396 . S
C561 C568 1.403 . S
C562 C552 1.476 . S
C562 N557 1.318 . S
C562 C561 1.396 . S
H563 C558 0.929 . S
O564 Mn540 2.385 . S
O564 C542 1.234 . S
O565 Mn540 2.209 . S
O565 Mn541 2.215 . S
O565 C542 1.283 . S
O566 Mn540 2.094 . S
O566 C544 1.240 . S
O567 Mn541 2.117 . S
O567 C544 1.264 . S
C568 C561 1.403 . S
C568 C569 1.399 . S
C568 H574 0.929 . S
C569 C549 1.449 . S
C569 C568 1.399 . S
C569 H575 0.930 . S
H570 C550 0.931 . S
H571 C551 0.930 . S
H572 C559 0.931 . S
H573 C560 0.929 . S
H574 C568 0.929 . S
H575 C569 0.930 . S
Mn576 O581 2.095 . S
Mn576 O591 2.162 . S
Mn576 O592 2.297 . S
Mn576 O600 2.385 . S
Mn576 O601 2.209 . S
Mn576 O602 2.094 . S
Mn577 O582 2.121 . S
Mn577 N584 2.257 . S
Mn577 N593 2.282 . S
Mn577 O601 2.215 . S
Mn577 O603 2.117 . S
C578 O600 1.234 . S
C578 O601 1.283 . S
C579 O591 1.281 . S
C579 O592 1.236 . S
C580 O602 1.240 . S
C580 O603 1.264 . S
O581 Mn576 2.095 . S
O581 C590 1.250 . S
O582 Mn577 2.121 . S
O582 C590 1.258 . S
C583 N584 1.326 . S
C583 C587 1.460 . S
C583 H589 0.929 . S
N584 Mn577 2.257 . S
N584 C583 1.326 . S
N584 C588 1.362 . S
C585 C586 1.258 . S
C585 C588 1.431 . S
C585 C605 1.449 . S
C586 C585 1.258 . S
C586 C587 1.477 . S
C586 H606 0.931 . S
C587 C583 1.460 . S
C587 C586 1.477 . S
C587 H607 0.930 . S
C588 N584 1.362 . S
C588 C585 1.431 . S
C588 C598 1.476 . S
H589 C583 0.929 . S
C590 O581 1.250 . S
C590 O582 1.258 . S
O591 Mn576 2.162 . S
O591 C579 1.281 . S
O592 Mn576 2.297 . S
O592 C579 1.236 . S
N593 Mn577 2.282 . S
N593 C594 1.328 . S
N593 C598 1.318 . S
C594 N593 1.328 . S
C594 C595 1.457 . S
C594 H599 0.929 . S
C595 C594 1.457 . S
C595 C596 1.291 . S
C595 H608 0.931 . S
C596 C595 1.291 . S
C596 C597 1.373 . S
C596 H609 0.929 1_545 S
C597 C596 1.373 . S
C597 C598 1.396 . S
C597 C604 1.403 . S
C598 C588 1.476 . S
C598 N593 1.318 . S
C598 C597 1.396 . S
H599 C594 0.929 . S
O600 Mn576 2.385 . S
O600 C578 1.234 . S
O601 Mn576 2.209 . S
O601 Mn577 2.215 . S
O601 C578 1.283 . S
O602 Mn576 2.094 . S
O602 C580 1.240 . S
O603 Mn577 2.117 . S
O603 C580 1.264 . S
C604 C597 1.403 . S
C604 C605 1.399 . S
C604 H610 0.929 1_545 S
C605 C585 1.449 . S
C605 C604 1.399 . S
C605 H611 0.930 . S
H606 C586 0.931 . S
H607 C587 0.930 . S
H608 C595 0.931 . S
H609 C596 0.929 1_565 S
H610 C604 0.929 1_565 S
H611 C605 0.930 . S
Mn612 O617 2.095 . S
Mn612 O627 2.162 . S
Mn612 O628 2.297 . S
Mn612 O636 2.385 . S
Mn612 O637 2.209 . S
Mn612 O638 2.094 . S
Mn613 O618 2.121 . S
Mn613 N620 2.257 . S
Mn613 N629 2.282 . S
Mn613 O637 2.215 . S
Mn613 O639 2.117 . S
C614 O636 1.234 . S
C614 O637 1.283 . S
C615 O627 1.281 . S
C615 O628 1.236 . S
C616 O638 1.240 . S
C616 O639 1.264 . S
O617 Mn612 2.095 . S
O617 C626 1.250 . S
O618 Mn613 2.121 . S
O618 C626 1.258 . S
C619 N620 1.326 . S
C619 C623 1.460 . S
C619 H625 0.929 . S
N620 Mn613 2.257 . S
N620 C619 1.326 . S
N620 C624 1.362 . S
C621 C622 1.258 . S
C621 C624 1.431 . S
C621 C641 1.449 . S
C622 C621 1.258 . S
C622 C623 1.477 . S
C622 H642 0.931 . S
C623 C619 1.460 . S
C623 C622 1.477 . S
C623 H643 0.930 . S
C624 N620 1.362 . S
C624 C621 1.431 . S
C624 C634 1.476 . S
H625 C619 0.929 . S
C626 O617 1.250 . S
C626 O618 1.258 . S
O627 Mn612 2.162 . S
O627 C615 1.281 . S
O628 Mn612 2.297 . S
O628 C615 1.236 . S
N629 Mn613 2.282 . S
N629 C630 1.328 . S
N629 C634 1.318 . S
C630 N629 1.328 . S
C630 C631 1.457 . S
C630 H635 0.929 . S
C631 C630 1.457 . S
C631 C632 1.291 . S
C631 H644 0.931 . S
C632 C631 1.291 . S
C632 C633 1.373 . S
C632 H645 0.929 . S
C633 C632 1.373 . S
C633 C634 1.396 . S
C633 C640 1.403 . S
C634 C624 1.476 . S
C634 N629 1.318 . S
C634 C633 1.396 . S
H635 C630 0.929 . S
O636 Mn612 2.385 . S
O636 C614 1.234 . S
O637 Mn612 2.209 . S
O637 Mn613 2.215 . S
O637 C614 1.283 . S
O638 Mn612 2.094 . S
O638 C616 1.240 . S
O639 Mn613 2.117 . S
O639 C616 1.264 . S
C640 C633 1.403 . S
C640 C641 1.399 . S
C640 H646 0.929 . S
C641 C621 1.449 . S
C641 C640 1.399 . S
C641 H647 0.930 . S
H642 C622 0.931 . S
H643 C623 0.930 . S
H644 C631 0.931 . S
H645 C632 0.929 . S
H646 C640 0.929 . S
H647 C641 0.930 . S
Mn648 O653 2.095 . S
Mn648 O663 2.162 . S
Mn648 O664 2.297 . S
Mn648 O672 2.385 . S
Mn648 O673 2.209 . S
Mn648 O674 2.094 . S
Mn649 O654 2.121 . S
Mn649 N656 2.257 . S
Mn649 N665 2.282 . S
Mn649 O673 2.215 . S
Mn649 O675 2.117 . S
C650 O672 1.234 . S
C650 O673 1.283 . S
C651 O663 1.281 . S
C651 O664 1.236 . S
C652 O674 1.240 . S
C652 O675 1.264 . S
O653 Mn648 2.095 . S
O653 C662 1.250 . S
O654 Mn649 2.121 . S
O654 C662 1.258 . S
C655 N656 1.326 . S
C655 C659 1.460 . S
C655 H661 0.929 . S
N656 Mn649 2.257 . S
N656 C655 1.326 . S
N656 C660 1.362 . S
C657 C658 1.258 . S
C657 C660 1.431 . S
C657 C677 1.449 . S
C658 C657 1.258 . S
C658 C659 1.477 . S
C658 H678 0.931 . S
C659 C655 1.460 . S
C659 C658 1.477 . S
C659 H679 0.930 . S
C660 N656 1.362 . S
C660 C657 1.431 . S
C660 C670 1.476 . S
H661 C655 0.929 . S
C662 O653 1.250 . S
C662 O654 1.258 . S
O663 Mn648 2.162 . S
O663 C651 1.281 . S
O664 Mn648 2.297 . S
O664 C651 1.236 . S
N665 Mn649 2.282 . S
N665 C666 1.328 . S
N665 C670 1.318 . S
C666 N665 1.328 . S
C666 C667 1.457 . S
C666 H671 0.929 . S
C667 C666 1.457 . S
C667 C668 1.291 . S
C667 H680 0.931 . S
C668 C667 1.291 . S
C668 C669 1.373 . S
C668 H681 0.929 . S
C669 C668 1.373 . S
C669 C670 1.396 . S
C669 C676 1.403 . S
C670 C660 1.476 . S
C670 N665 1.318 . S
C670 C669 1.396 . S
H671 C666 0.929 . S
O672 Mn648 2.385 . S
O672 C650 1.234 . S
O673 Mn648 2.209 . S
O673 Mn649 2.215 . S
O673 C650 1.283 . S
O674 Mn648 2.094 . S
O674 C652 1.240 . S
O675 Mn649 2.117 . S
O675 C652 1.264 . S
C676 C669 1.403 . S
C676 C677 1.399 . S
C676 H682 0.929 . S
C677 C657 1.449 . S
C677 C676 1.399 . S
C677 H683 0.930 . S
H678 C658 0.931 . S
H679 C659 0.930 . S
H680 C667 0.931 . S
H681 C668 0.929 . S
H682 C676 0.929 . S
H683 C677 0.930 . S
Mn684 O689 2.095 . S
Mn684 O699 2.162 . S
Mn684 O700 2.297 . S
Mn684 O708 2.385 . S
Mn684 O709 2.209 . S
Mn684 O710 2.094 . S
Mn685 O690 2.121 . S
Mn685 N692 2.257 . S
Mn685 N701 2.282 . S
Mn685 O709 2.215 . S
Mn685 O711 2.117 . S
C686 O708 1.234 . S
C686 O709 1.283 . S
C687 O699 1.281 . S
C687 O700 1.236 . S
C688 O710 1.240 . S
C688 O711 1.264 . S
O689 Mn684 2.095 . S
O689 C698 1.250 . S
O690 Mn685 2.121 . S
O690 C698 1.258 . S
C691 N692 1.326 . S
C691 C695 1.460 . S
C691 H697 0.929 . S
N692 Mn685 2.257 . S
N692 C691 1.326 . S
N692 C696 1.362 . S
C693 C694 1.258 . S
C693 C696 1.431 . S
C693 C713 1.449 . S
C694 C693 1.258 . S
C694 C695 1.477 . S
C694 H714 0.931 . S
C695 C691 1.460 . S
C695 C694 1.477 . S
C695 H715 0.930 . S
C696 N692 1.362 . S
C696 C693 1.431 . S
C696 C706 1.476 . S
H697 C691 0.929 . S
C698 O689 1.250 . S
C698 O690 1.258 . S
O699 Mn684 2.162 . S
O699 C687 1.281 . S
O700 Mn684 2.297 . S
O700 C687 1.236 . S
N701 Mn685 2.282 . S
N701 C702 1.328 . S
N701 C706 1.318 . S
C702 N701 1.328 . S
C702 C703 1.457 . S
C702 H707 0.929 . S
C703 C702 1.457 . S
C703 C704 1.291 . S
C703 H716 0.931 . S
C704 C703 1.291 . S
C704 C705 1.373 . S
C704 H717 0.929 . S
C705 C704 1.373 . S
C705 C706 1.396 . S
C705 C712 1.403 . S
C706 C696 1.476 . S
C706 N701 1.318 . S
C706 C705 1.396 . S
H707 C702 0.929 . S
O708 Mn684 2.385 . S
O708 C686 1.234 . S
O709 Mn684 2.209 . S
O709 Mn685 2.215 . S
O709 C686 1.283 . S
O710 Mn684 2.094 . S
O710 C688 1.240 . S
O711 Mn685 2.117 . S
O711 C688 1.264 . S
C712 C705 1.403 . S
C712 C713 1.399 . S
C712 H718 0.929 . S
C713 C693 1.449 . S
C713 C712 1.399 . S
C713 H719 0.930 . S
H714 C694 0.931 . S
H715 C695 0.930 . S
H716 C703 0.931 . S
H717 C704 0.929 . S
H718 C712 0.929 . S
H719 C713 0.930 . S
Mn720 O725 2.095 1_554 S
Mn720 O735 2.162 . S
Mn720 O736 2.297 . S
Mn720 O744 2.385 . S
Mn720 O745 2.209 1_554 S
Mn720 O746 2.094 1_554 S
Mn721 O726 2.121 . S
Mn721 N728 2.257 . S
Mn721 N737 2.282 . S
Mn721 O745 2.215 . S
Mn721 O747 2.117 . S
C722 O744 1.234 1_556 S
C722 O745 1.283 . S
C723 O735 1.281 . S
C723 O736 1.236 . S
C724 O746 1.240 . S
C724 O747 1.264 . S
O725 Mn720 2.095 1_556 S
O725 C734 1.250 . S
O726 Mn721 2.121 . S
O726 C734 1.258 . S
C727 N728 1.326 . S
C727 C731 1.460 . S
C727 H733 0.929 . S
N728 Mn721 2.257 . S
N728 C727 1.326 . S
N728 C732 1.362 . S
C729 C730 1.258 . S
C729 C732 1.431 . S
C729 C749 1.449 . S
C730 C729 1.258 . S
C730 C731 1.477 . S
C730 H750 0.931 . S
C731 C727 1.460 . S
C731 C730 1.477 . S
C731 H751 0.930 . S
C732 N728 1.362 . S
C732 C729 1.431 . S
C732 C742 1.476 . S
H733 C727 0.929 . S
C734 O725 1.250 . S
C734 O726 1.258 . S
O735 Mn720 2.162 . S
O735 C723 1.281 . S
O736 Mn720 2.297 . S
O736 C723 1.236 . S
N737 Mn721 2.282 . S
N737 C738 1.328 . S
N737 C742 1.318 . S
C738 N737 1.328 . S
C738 C739 1.457 . S
C738 H743 0.929 . S
C739 C738 1.457 . S
C739 C740 1.291 . S
C739 H752 0.931 . S
C740 C739 1.291 . S
C740 C741 1.373 . S
C740 H753 0.929 . S
C741 C740 1.373 . S
C741 C742 1.396 . S
C741 C748 1.403 . S
C742 C732 1.476 . S
C742 N737 1.318 . S
C742 C741 1.396 . S
H743 C738 0.929 . S
O744 Mn720 2.385 . S
O744 C722 1.234 1_554 S
O745 Mn720 2.209 1_556 S
O745 Mn721 2.215 . S
O745 C722 1.283 . S
O746 Mn720 2.094 1_556 S
O746 C724 1.240 . S
O747 Mn721 2.117 . S
O747 C724 1.264 . S
C748 C741 1.403 . S
C748 C749 1.399 . S
C748 H754 0.929 . S
C749 C729 1.449 . S
C749 C748 1.399 . S
C749 H755 0.930 . S
H750 C730 0.931 . S
H751 C731 0.930 . S
H752 C739 0.931 . S
H753 C740 0.929 . S
H754 C748 0.929 . S
H755 C749 0.930 . S
Mn756 O761 2.095 . S
Mn756 O771 2.162 . S
Mn756 O772 2.297 . S
Mn756 O780 2.385 . S
Mn756 O781 2.209 . S
Mn756 O782 2.094 . S
Mn757 O762 2.121 . S
Mn757 N764 2.257 . S
Mn757 N773 2.282 . S
Mn757 O781 2.215 . S
Mn757 O783 2.117 . S
C758 O780 1.234 . S
C758 O781 1.283 . S
C759 O771 1.281 . S
C759 O772 1.236 . S
C760 O782 1.240 . S
C760 O783 1.264 . S
O761 Mn756 2.095 . S
O761 C770 1.250 . S
O762 Mn757 2.121 . S
O762 C770 1.258 . S
C763 N764 1.326 . S
C763 C767 1.460 . S
C763 H769 0.929 . S
N764 Mn757 2.257 . S
N764 C763 1.326 . S
N764 C768 1.362 . S
C765 C766 1.258 . S
C765 C768 1.431 . S
C765 C785 1.449 . S
C766 C765 1.258 . S
C766 C767 1.477 . S
C766 H786 0.931 . S
C767 C763 1.460 . S
C767 C766 1.477 . S
C767 H787 0.930 . S
C768 N764 1.362 . S
C768 C765 1.431 . S
C768 C778 1.476 . S
H769 C763 0.929 . S
C770 O761 1.250 . S
C770 O762 1.258 . S
O771 Mn756 2.162 . S
O771 C759 1.281 . S
O772 Mn756 2.297 . S
O772 C759 1.236 . S
N773 Mn757 2.282 . S
N773 C774 1.328 . S
N773 C778 1.318 . S
C774 N773 1.328 . S
C774 C775 1.457 . S
C774 H779 0.929 . S
C775 C774 1.457 . S
C775 C776 1.291 . S
C775 H788 0.931 . S
C776 C775 1.291 . S
C776 C777 1.373 . S
C776 H789 0.929 . S
C777 C776 1.373 . S
C777 C778 1.396 . S
C777 C784 1.403 . S
C778 C768 1.476 . S
C778 N773 1.318 . S
C778 C777 1.396 . S
H779 C774 0.929 . S
O780 Mn756 2.385 . S
O780 C758 1.234 . S
O781 Mn756 2.209 . S
O781 Mn757 2.215 . S
O781 C758 1.283 . S
O782 Mn756 2.094 . S
O782 C760 1.240 . S
O783 Mn757 2.117 . S
O783 C760 1.264 . S
C784 C777 1.403 . S
C784 C785 1.399 . S
C784 H790 0.929 . S
C785 C765 1.449 . S
C785 C784 1.399 . S
C785 H791 0.930 . S
H786 C766 0.931 . S
H787 C767 0.930 . S
H788 C775 0.931 . S
H789 C776 0.929 . S
H790 C784 0.929 . S
H791 C785 0.930 . S
Mn792 O797 2.095 . S
Mn792 O807 2.162 . S
Mn792 O808 2.297 . S
Mn792 O816 2.385 . S
Mn792 O817 2.209 . S
Mn792 O818 2.094 . S
Mn793 O798 2.121 . S
Mn793 N800 2.257 . S
Mn793 N809 2.282 . S
Mn793 O817 2.215 . S
Mn793 O819 2.117 . S
C794 O816 1.234 . S
C794 O817 1.283 . S
C795 O807 1.281 . S
C795 O808 1.236 . S
C796 O818 1.240 . S
C796 O819 1.264 . S
O797 Mn792 2.095 . S
O797 C806 1.250 . S
O798 Mn793 2.121 . S
O798 C806 1.258 . S
C799 N800 1.326 . S
C799 C803 1.460 . S
C799 H805 0.929 . S
N800 Mn793 2.257 . S
N800 C799 1.326 . S
N800 C804 1.362 . S
C801 C802 1.258 . S
C801 C804 1.431 . S
C801 C821 1.449 . S
C802 C801 1.258 . S
C802 C803 1.477 . S
C802 H822 0.931 . S
C803 C799 1.460 . S
C803 C802 1.477 . S
C803 H823 0.930 . S
C804 N800 1.362 . S
C804 C801 1.431 . S
C804 C814 1.476 . S
H805 C799 0.929 . S
C806 O797 1.250 . S
C806 O798 1.258 . S
O807 Mn792 2.162 . S
O807 C795 1.281 . S
O808 Mn792 2.297 . S
O808 C795 1.236 . S
N809 Mn793 2.282 . S
N809 C810 1.328 . S
N809 C814 1.318 . S
C810 N809 1.328 . S
C810 C811 1.457 . S
C810 H815 0.929 . S
C811 C810 1.457 . S
C811 C812 1.291 . S
C811 H824 0.931 . S
C812 C811 1.291 . S
C812 C813 1.373 . S
C812 H825 0.929 . S
C813 C812 1.373 . S
C813 C814 1.396 . S
C813 C820 1.403 . S
C814 C804 1.476 . S
C814 N809 1.318 . S
C814 C813 1.396 . S
H815 C810 0.929 . S
O816 Mn792 2.385 . S
O816 C794 1.234 . S
O817 Mn792 2.209 . S
O817 Mn793 2.215 . S
O817 C794 1.283 . S
O818 Mn792 2.094 . S
O818 C796 1.240 . S
O819 Mn793 2.117 . S
O819 C796 1.264 . S
C820 C813 1.403 . S
C820 C821 1.399 . S
C820 H826 0.929 . S
C821 C801 1.449 . S
C821 C820 1.399 . S
C821 H827 0.930 . S
H822 C802 0.931 . S
H823 C803 0.930 . S
H824 C811 0.931 . S
H825 C812 0.929 . S
H826 C820 0.929 . S
H827 C821 0.930 . S
Mn828 O833 2.095 . S
Mn828 O843 2.162 . S
Mn828 O844 2.297 . S
Mn828 O852 2.385 . S
Mn828 O853 2.209 . S
Mn828 O854 2.094 . S
Mn829 O834 2.121 . S
Mn829 N836 2.257 . S
Mn829 N845 2.282 . S
Mn829 O853 2.215 . S
Mn829 O855 2.117 . S
C830 O852 1.234 . S
C830 O853 1.283 . S
C831 O843 1.281 . S
C831 O844 1.236 . S
C832 O854 1.240 . S
C832 O855 1.264 . S
O833 Mn828 2.095 . S
O833 C842 1.250 . S
O834 Mn829 2.121 . S
O834 C842 1.258 . S
C835 N836 1.326 . S
C835 C839 1.460 . S
C835 H841 0.929 . S
N836 Mn829 2.257 . S
N836 C835 1.326 . S
N836 C840 1.362 . S
C837 C838 1.258 . S
C837 C840 1.431 . S
C837 C857 1.449 . S
C838 C837 1.258 . S
C838 C839 1.477 . S
C838 H858 0.931 . S
C839 C835 1.460 . S
C839 C838 1.477 . S
C839 H859 0.930 . S
C840 N836 1.362 . S
C840 C837 1.431 . S
C840 C850 1.476 . S
H841 C835 0.929 . S
C842 O833 1.250 . S
C842 O834 1.258 . S
O843 Mn828 2.162 . S
O843 C831 1.281 . S
O844 Mn828 2.297 . S
O844 C831 1.236 . S
N845 Mn829 2.282 . S
N845 C846 1.328 . S
N845 C850 1.318 . S
C846 N845 1.328 . S
C846 C847 1.457 . S
C846 H851 0.929 . S
C847 C846 1.457 . S
C847 C848 1.291 . S
C847 H860 0.931 . S
C848 C847 1.291 . S
C848 C849 1.373 . S
C848 H861 0.929 . S
C849 C848 1.373 . S
C849 C850 1.396 . S
C849 C856 1.403 . S
C850 C840 1.476 . S
C850 N845 1.318 . S
C850 C849 1.396 . S
H851 C846 0.929 . S
O852 Mn828 2.385 . S
O852 C830 1.234 . S
O853 Mn828 2.209 . S
O853 Mn829 2.215 . S
O853 C830 1.283 . S
O854 Mn828 2.094 . S
O854 C832 1.240 . S
O855 Mn829 2.117 . S
O855 C832 1.264 . S
C856 C849 1.403 . S
C856 C857 1.399 . S
C856 H862 0.929 . S
C857 C837 1.449 . S
C857 C856 1.399 . S
C857 H863 0.930 . S
H858 C838 0.931 . S
H859 C839 0.930 . S
H860 C847 0.931 . S
H861 C848 0.929 . S
H862 C856 0.929 . S
H863 C857 0.930 . S
Tb864 N895 2.660 1_545 S
Tb864 N902 2.600 1_544 S
Tb864 O908 2.546 1_454 S
Tb864 O909 2.610 . S
Tb864 O911 2.320 . S
Tb864 O912 2.567 . S
Tb864 O913 2.413 1_455 S
Tb864 O915 2.362 . S
Tb864 O916 2.421 1_554 S
Tb864 C928 2.833 1_454 S
C865 C868 1.432 . S
C865 C869 1.414 . S
C865 N872 1.359 . S
C866 C868 1.417 . S
C866 C870 1.432 . S
C866 C878 1.410 1_554 S
C867 C869 1.444 . S
C867 C870 1.317 . S
C867 H890 0.929 . S
C868 C865 1.432 . S
C868 C866 1.417 . S
C868 N876 1.360 . S
C869 C865 1.414 . S
C869 C867 1.444 . S
C869 C874 1.385 . S
C870 C866 1.432 . S
C870 C867 1.317 . S
C870 H882 0.930 . S
C871 C873 1.392 . S
C871 C874 1.370 . S
C871 H883 0.931 . S
N872 C865 1.359 . S
N872 C873 1.327 . S
N872 Tb875 2.600 . S
C873 C871 1.392 . S
C873 N872 1.327 . S
C873 H880 0.930 . S
C874 C869 1.385 . S
C874 C871 1.370 . S
C874 H893 0.930 . S
Tb875 N872 2.600 . S
Tb875 N876 2.660 . S
Tb875 O909 2.362 . S
Tb875 O910 2.421 . S
Tb875 O914 2.546 . S
Tb875 O915 2.610 . S
Tb875 O917 2.320 1_554 S
Tb875 O918 2.552 . S
Tb875 O919 2.413 . S
Tb875 C939 2.833 . S
N876 C868 1.360 . S
N876 Tb875 2.660 . S
N876 C877 1.305 1_554 S
C877 N876 1.305 1_556 S
C877 C879 1.407 . S
C877 H884 0.930 . S
C878 C866 1.410 1_556 S
C878 C879 1.345 . S
C878 H886 0.930 . S
C879 C877 1.407 . S
C879 C878 1.345 . S
C879 H881 0.930 . S
H880 C873 0.930 . S
H881 C879 0.930 . S
H882 C870 0.930 . S
H883 C871 0.931 . S
H884 C877 0.930 . S
H885 C899 0.930 . S
H886 C878 0.930 . S
H887 C905 0.953 . S
H888 C896 0.930 1_545 S
H889 C903 0.931 . S
H890 C867 0.929 . S
H891 C897 0.930 . S
H892 C930 0.933 1_554 S
H893 C874 0.930 . S
H894 C929 0.929 . S
N895 Tb864 2.660 1_565 S
N895 C896 1.305 . S
N895 C900 1.357 1_455 S
C896 H888 0.930 1_565 S
C896 N895 1.305 . S
C896 C899 1.407 . S
C897 H891 0.930 . S
C897 C898 1.410 . S
C897 C899 1.345 1_655 S
C898 C897 1.410 . S
C898 C900 1.420 . S
C898 C930 1.435 1_554 S
C899 H885 0.930 . S
C899 C896 1.407 . S
C899 C897 1.345 1_455 S
C900 N895 1.357 1_655 S
C900 C898 1.420 . S
C900 C904 1.433 1_554 S
H901 C906 0.930 . S
N902 Tb864 2.600 1_566 S
N902 C904 1.346 1_455 S
N902 C905 1.327 . S
C903 H889 0.931 . S
C903 C905 1.392 1_655 S
C903 C906 1.370 . S
C904 C900 1.433 1_556 S
C904 N902 1.346 1_655 S
C904 C907 1.425 . S
C905 H887 0.953 . S
C905 N902 1.327 . S
C905 C903 1.392 1_455 S
C906 H901 0.930 . S
C906 C903 1.370 . S
C906 C907 1.385 . S
C907 C904 1.425 . S
C907 C906 1.385 . S
C907 C929 1.444 . S
O908 Tb864 2.546 1_656 S
O908 C928 1.251 . S
O909 Tb864 2.610 . S
O909 Tb875 2.362 . S
O909 C920 1.283 . S
O910 Tb875 2.421 . S
O910 C927 1.262 . S
O911 Tb864 2.320 . S
O911 C927 1.260 . S
O912 Tb864 2.567 . S
O912 C920 1.267 . S
O913 Tb864 2.413 1_655 S
O913 C928 1.256 1_554 S
O914 Tb875 2.546 . S
O914 C939 1.251 . S
O915 Tb864 2.362 . S
O915 Tb875 2.610 . S
O915 C931 1.280 1_545 S
O916 Tb864 2.421 1_556 S
O916 C938 1.262 . S
O917 Tb875 2.320 1_556 S
O917 C938 1.260 . S
O918 Tb875 2.552 . S
O918 C931 1.242 1_545 S
O919 Tb875 2.413 . S
O919 C939 1.256 . S
C920 O909 1.283 . S
C920 O912 1.267 . S
C921 C923 1.382 1_556 S
C921 C925 1.393 . S
C921 C928 1.500 . S
C922 C923 1.397 1_556 S
C922 C924 1.396 . S
C923 C921 1.382 1_554 S
C923 C922 1.397 1_554 S
C923 H940 0.930 . S
C924 C922 1.396 . S
C924 C926 1.392 . S
C924 H941 0.931 . S
C925 C921 1.393 . S
C925 C926 1.401 . S
C925 H942 0.930 . S
C926 C924 1.392 . S
C926 C925 1.401 . S
C926 H943 0.930 . S
C927 O910 1.262 . S
C927 O911 1.260 . S
C928 Tb864 2.833 1_656 S
C928 O908 1.251 . S
C928 O913 1.256 1_556 S
C928 C921 1.500 . S
C929 H894 0.929 . S
C929 C907 1.444 . S
C929 C930 1.311 . S
C930 H892 0.933 1_556 S
C930 C898 1.435 1_556 S
C930 C929 1.311 . S
C931 O915 1.280 1_565 S
C931 O918 1.242 1_565 S
C932 C933 1.382 . S
C932 C936 1.393 . S
C932 C939 1.500 . S
C933 C932 1.382 . S
C933 C934 1.400 . S
C933 H944 0.930 . S
C934 C933 1.400 . S
C934 C935 1.384 . S
C935 C934 1.384 . S
C935 C937 1.392 . S
C935 H945 0.931 . S
C936 C932 1.393 . S
C936 C937 1.401 . S
C936 H946 0.930 . S
C937 C935 1.392 . S
C937 C936 1.401 . S
C937 H947 0.930 . S
C938 O916 1.262 . S
C938 O917 1.260 . S
C939 Tb875 2.833 . S
C939 O914 1.251 . S
C939 O919 1.256 . S
C939 C932 1.500 . S
H940 C923 0.930 . S
H941 C924 0.931 . S
H942 C925 0.930 . S
H943 C926 0.930 . S
H944 C933 0.930 . S
H945 C935 0.931 . S
H946 C936 0.930 . S
H947 C937 0.930 . S
Tb948 N979 2.660 . S
Tb948 N986 2.600 . S
Tb948 O992 2.546 . S
Tb948 O993 2.610 . S
Tb948 O995 2.320 . S
Tb948 O996 2.552 . S
Tb948 O997 2.413 . S
Tb948 O999 2.362 . S
Tb948 O1000 2.421 . S
Tb948 C1012 2.833 . S
C949 C952 1.432 . S
C949 C953 1.414 . S
C949 N956 1.359 . S
C950 C952 1.417 . S
C950 C954 1.432 . S
C950 C962 1.410 . S
C951 C953 1.444 . S
C951 C954 1.317 . S
C951 H974 0.929 . S
C952 C949 1.432 . S
C952 C950 1.417 . S
C952 N960 1.360 . S
C953 C949 1.414 . S
C953 C951 1.444 . S
C953 C958 1.385 . S
C954 C950 1.432 . S
C954 C951 1.317 . S
C954 H966 0.930 . S
C955 C957 1.392 . S
C955 C958 1.370 . S
C955 H967 0.931 . S
N956 C949 1.359 . S
N956 C957 1.327 . S
N956 Tb959 2.600 . S
C957 C955 1.392 . S
C957 N956 1.327 . S
C957 H964 0.930 . S
C958 C953 1.385 . S
C958 C955 1.370 . S
C958 H977 0.930 . S
Tb959 N956 2.600 . S
Tb959 N960 2.660 . S
Tb959 O993 2.362 . S
Tb959 O994 2.421 . S
Tb959 O998 2.546 . S
Tb959 O999 2.610 . S
Tb959 O1001 2.320 . S
Tb959 O1002 2.552 . S
Tb959 O1003 2.413 . S
Tb959 C1023 2.833 . S
N960 C952 1.360 . S
N960 Tb959 2.660 . S
N960 C961 1.305 . S
C961 N960 1.305 . S
C961 C963 1.407 . S
C961 H968 0.930 . S
C962 C950 1.410 . S
C962 C963 1.345 . S
C962 H970 0.930 . S
C963 C961 1.407 . S
C963 C962 1.345 . S
C963 H965 0.930 . S
H964 C957 0.930 . S
H965 C963 0.930 . S
H966 C954 0.930 . S
H967 C955 0.931 . S
H968 C961 0.930 . S
H969 C983 0.930 . S
H970 C962 0.930 . S
H971 C989 0.930 . S
H972 C980 0.930 . S
H973 C987 0.931 . S
H974 C951 0.929 . S
H975 C981 0.930 . S
H976 C1014 0.930 . S
H977 C958 0.930 . S
H978 C1013 0.929 . S
N979 Tb948 2.660 . S
N979 C980 1.305 . S
N979 C984 1.360 . S
C980 H972 0.930 . S
C980 N979 1.305 . S
C980 C983 1.407 . S
C981 H975 0.930 . S
C981 C982 1.410 . S
C981 C983 1.345 . S
C982 C981 1.410 . S
C982 C984 1.417 . S
C982 C1014 1.432 . S
C983 H969 0.930 . S
C983 C980 1.407 . S
C983 C981 1.345 . S
C984 N979 1.360 . S
C984 C982 1.417 . S
C984 C988 1.432 . S
H985 C990 0.930 . S
N986 Tb948 2.600 . S
N986 C988 1.359 . S
N986 C989 1.327 . S
C987 H973 0.931 . S
C987 C989 1.392 . S
C987 C990 1.370 . S
C988 C984 1.432 . S
C988 N986 1.359 . S
C988 C991 1.414 . S
C989 H971 0.930 . S
C989 N986 1.327 . S
C989 C987 1.392 . S
C990 H985 0.930 . S
C990 C987 1.370 . S
C990 C991 1.385 . S
C991 C988 1.414 . S
C991 C990 1.385 . S
C991 C1013 1.444 . S
O992 Tb948 2.546 . S
O992 C1012 1.251 . S
O993 Tb948 2.610 . S
O993 Tb959 2.362 . S
O993 C1004 1.283 . S
O994 Tb959 2.421 . S
O994 C1011 1.262 . S
O995 Tb948 2.320 . S
O995 C1011 1.260 . S
O996 Tb948 2.552 . S
O996 C1004 1.243 . S
O997 Tb948 2.413 . S
O997 C1012 1.256 . S
O998 Tb959 2.546 . S
O998 C1023 1.251 . S
O999 Tb948 2.362 . S
O999 Tb959 2.610 . S
O999 C1015 1.283 . S
O1000 Tb948 2.421 . S
O1000 C1022 1.262 . S
O1001 Tb959 2.320 . S
O1001 C1022 1.260 . S
O1002 Tb959 2.552 . S
O1002 C1015 1.243 . S
O1003 Tb959 2.413 . S
O1003 C1023 1.256 . S
C1004 O993 1.283 . S
C1004 O996 1.243 . S
C1005 C1007 1.382 . S
C1005 C1009 1.393 . S
C1005 C1012 1.500 . S
C1006 C1007 1.400 . S
C1006 C1008 1.384 . S
C1007 C1005 1.382 . S
C1007 C1006 1.400 . S
C1007 H1024 0.930 . S
C1008 C1006 1.384 . S
C1008 C1010 1.392 . S
C1008 H1025 0.931 . S
C1009 C1005 1.393 . S
C1009 C1010 1.401 . S
C1009 H1026 0.930 . S
C1010 C1008 1.392 . S
C1010 C1009 1.401 . S
C1010 H1027 0.930 . S
C1011 O994 1.262 . S
C1011 O995 1.260 . S
C1012 Tb948 2.833 . S
C1012 O992 1.251 . S
C1012 O997 1.256 . S
C1012 C1005 1.500 . S
C1013 H978 0.929 . S
C1013 C991 1.444 . S
C1013 C1014 1.317 . S
C1014 H976 0.930 . S
C1014 C982 1.432 . S
C1014 C1013 1.317 . S
C1015 O999 1.283 . S
C1015 O1002 1.243 . S
C1016 C1017 1.382 . S
C1016 C1020 1.393 . S
C1016 C1023 1.500 . S
C1017 C1016 1.382 . S
C1017 C1018 1.400 . S
C1017 H1028 0.930 . S
C1018 C1017 1.400 . S
C1018 C1019 1.384 . S
C1019 C1018 1.384 . S
C1019 C1021 1.392 . S
C1019 H1029 0.931 . S
C1020 C1016 1.393 . S
C1020 C1021 1.401 . S
C1020 H1030 0.930 . S
C1021 C1019 1.392 . S
C1021 C1020 1.401 . S
C1021 H1031 0.930 . S
C1022 O1000 1.262 . S
C1022 O1001 1.260 . S
C1023 Tb959 2.833 . S
C1023 O998 1.251 . S
C1023 O1003 1.256 . S
C1023 C1016 1.500 . S
H1024 C1007 0.930 . S
H1025 C1008 0.931 . S
H1026 C1009 0.930 . S
H1027 C1010 0.930 . S
H1028 C1017 0.930 . S
H1029 C1019 0.931 . S
H1030 C1020 0.930 . S
H1031 C1021 0.930 . S
Tb1032 N1063 2.660 . S
Tb1032 N1070 2.600 . S
Tb1032 O1076 2.546 . S
Tb1032 O1077 2.610 . S
Tb1032 O1079 2.320 . S
Tb1032 O1080 2.552 . S
Tb1032 O1081 2.413 . S
Tb1032 O1083 2.362 . S
Tb1032 O1084 2.421 . S
Tb1032 C1096 2.833 . S
C1033 C1036 1.430 1_545 S
C1033 C1037 1.398 1_545 S
C1033 N1040 1.377 . S
C1034 C1036 1.417 . S
C1034 C1038 1.432 . S
C1034 C1046 1.410 . S
C1035 C1037 1.444 . S
C1035 C1038 1.317 . S
C1035 H1058 0.929 . S
C1036 C1033 1.430 1_565 S
C1036 C1034 1.417 . S
C1036 N1044 1.360 1_565 S
C1037 C1033 1.398 1_565 S
C1037 C1035 1.444 . S
C1037 C1042 1.385 . S
C1038 C1034 1.432 . S
C1038 C1035 1.317 . S
C1038 H1050 0.930 . S
C1039 C1041 1.392 . S
C1039 C1042 1.370 1_545 S
C1039 H1051 0.931 . S
N1040 C1033 1.377 . S
N1040 C1041 1.327 . S
N1040 Tb1043 2.600 . S
C1041 C1039 1.392 . S
C1041 N1040 1.327 . S
C1041 H1048 0.930 . S
C1042 C1037 1.385 . S
C1042 C1039 1.370 1_565 S
C1042 H1061 0.930 . S
Tb1043 N1040 2.600 . S
Tb1043 N1044 2.660 . S
Tb1043 O1077 2.362 . S
Tb1043 O1078 2.421 . S
Tb1043 O1082 2.546 . S
Tb1043 O1083 2.610 . S
Tb1043 O1085 2.320 . S
Tb1043 O1086 2.552 . S
Tb1043 O1087 2.413 . S
Tb1043 C1107 2.833 . S
N1044 C1036 1.360 1_545 S
N1044 Tb1043 2.660 . S
N1044 C1045 1.305 . S
C1045 N1044 1.305 . S
C1045 C1047 1.407 1_545 S
C1045 H1052 0.930 . S
C1046 C1034 1.410 . S
C1046 C1047 1.345 . S
C1046 H1054 0.930 . S
C1047 C1045 1.407 1_565 S
C1047 C1046 1.345 . S
C1047 H1049 0.930 . S
H1048 C1041 0.930 . S
H1049 C1047 0.930 . S
H1050 C1038 0.930 . S
H1051 C1039 0.931 . S
H1052 C1045 0.930 . S
H1053 C1067 0.930 . S
H1054 C1046 0.930 . S
H1055 C1073 0.930 . S
H1056 C1064 0.930 . S
H1057 C1071 0.931 . S
H1058 C1035 0.929 . S
H1059 C1065 0.930 . S
H1060 C1098 0.930 . S
H1061 C1042 0.930 . S
H1062 C1097 0.929 . S
N1063 Tb1032 2.660 . S
N1063 C1064 1.305 . S
N1063 C1068 1.360 . S
C1064 H1056 0.930 . S
C1064 N1063 1.305 . S
C1064 C1067 1.407 . S
C1065 H1059 0.930 . S
C1065 C1066 1.410 . S
C1065 C1067 1.345 . S
C1066 C1065 1.410 . S
C1066 C1068 1.417 . S
C1066 C1098 1.432 . S
C1067 H1053 0.930 . S
C1067 C1064 1.407 . S
C1067 C1065 1.345 . S
C1068 N1063 1.360 . S
C1068 C1066 1.417 . S
C1068 C1072 1.432 . S
H1069 C1074 0.930 . S
N1070 Tb1032 2.600 . S
N1070 C1072 1.359 . S
N1070 C1073 1.327 . S
C1071 H1057 0.931 . S
C1071 C1073 1.392 . S
C1071 C1074 1.370 . S
C1072 C1068 1.432 . S
C1072 N1070 1.359 . S
C1072 C1075 1.414 . S
C1073 H1055 0.930 . S
C1073 N1070 1.327 . S
C1073 C1071 1.392 . S
C1074 H1069 0.930 . S
C1074 C1071 1.370 . S
C1074 C1075 1.385 . S
C1075 C1072 1.414 . S
C1075 C1074 1.385 . S
C1075 C1097 1.444 . S
O1076 Tb1032 2.546 . S
O1076 C1096 1.251 . S
O1077 Tb1032 2.610 . S
O1077 Tb1043 2.362 . S
O1077 C1088 1.283 . S
O1078 Tb1043 2.421 . S
O1078 C1095 1.262 . S
O1079 Tb1032 2.320 . S
O1079 C1095 1.260 . S
O1080 Tb1032 2.552 . S
O1080 C1088 1.243 . S
O1081 Tb1032 2.413 . S
O1081 C1096 1.256 . S
O1082 Tb1043 2.546 . S
O1082 C1107 1.251 . S
O1083 Tb1032 2.362 . S
O1083 Tb1043 2.610 . S
O1083 C1099 1.283 . S
O1084 Tb1032 2.421 . S
O1084 C1106 1.262 . S
O1085 Tb1043 2.320 . S
O1085 C1106 1.260 . S
O1086 Tb1043 2.552 . S
O1086 C1099 1.243 . S
O1087 Tb1043 2.413 . S
O1087 C1107 1.256 . S
C1088 O1077 1.283 . S
C1088 O1080 1.243 . S
C1089 C1091 1.382 . S
C1089 C1093 1.393 . S
C1089 C1096 1.500 . S
C1090 C1091 1.422 . S
C1090 C1092 1.387 . S
C1091 C1089 1.382 . S
C1091 C1090 1.422 . S
C1091 H1108 0.930 . S
C1092 C1090 1.387 . S
C1092 C1094 1.392 . S
C1092 H1109 0.931 1_545 S
C1093 C1089 1.393 . S
C1093 C1094 1.401 . S
C1093 H1110 0.930 . S
C1094 C1092 1.392 . S
C1094 C1093 1.401 . S
C1094 H1111 0.930 . S
C1095 O1078 1.262 . S
C1095 O1079 1.260 . S
C1096 Tb1032 2.833 . S
C1096 O1076 1.251 . S
C1096 O1081 1.256 . S
C1096 C1089 1.500 . S
C1097 H1062 0.929 . S
C1097 C1075 1.444 . S
C1097 C1098 1.317 . S
C1098 H1060 0.930 . S
C1098 C1066 1.432 . S
C1098 C1097 1.317 . S
C1099 O1083 1.283 . S
C1099 O1086 1.243 . S
C1100 C1101 1.382 . S
C1100 C1104 1.393 . S
C1100 C1107 1.500 . S
C1101 C1100 1.382 . S
C1101 C1102 1.400 . S
C1101 H1112 0.930 . S
C1102 C1101 1.400 . S
C1102 C1103 1.384 . S
C1103 C1102 1.384 . S
C1103 C1105 1.392 . S
C1103 H1113 0.931 . S
C1104 C1100 1.393 . S
C1104 C1105 1.401 . S
C1104 H1114 0.930 . S
C1105 C1103 1.392 . S
C1105 C1104 1.401 . S
C1105 H1115 0.930 . S
C1106 O1084 1.262 . S
C1106 O1085 1.260 . S
C1107 Tb1043 2.833 . S
C1107 O1082 1.251 . S
C1107 O1087 1.256 . S
C1107 C1100 1.500 . S
H1108 C1091 0.930 . S
H1109 C1092 0.931 1_565 S
H1110 C1093 0.930 . S
H1111 C1094 0.930 . S
H1112 C1101 0.930 . S
H1113 C1103 0.931 . S
H1114 C1104 0.930 . S
H1115 C1105 0.930 . S
Tb1116 N1147 2.660 . S
Tb1116 N1154 2.600 . S
Tb1116 O1160 2.546 . S
Tb1116 O1161 2.610 . S
Tb1116 O1163 2.320 . S
Tb1116 O1164 2.552 . S
Tb1116 O1165 2.413 . S
Tb1116 O1167 2.362 . S
Tb1116 O1168 2.421 . S
Tb1116 C1180 2.833 . S
C1117 C1120 1.432 . S
C1117 C1121 1.414 . S
C1117 N1124 1.359 . S
C1118 C1120 1.417 . S
C1118 C1122 1.432 . S
C1118 C1130 1.410 . S
C1119 C1121 1.444 . S
C1119 C1122 1.317 . S
C1119 H1142 0.929 . S
C1120 C1117 1.432 . S
C1120 C1118 1.417 . S
C1120 N1128 1.360 . S
C1121 C1117 1.414 . S
C1121 C1119 1.444 . S
C1121 C1126 1.385 . S
C1122 C1118 1.432 . S
C1122 C1119 1.317 . S
C1122 H1134 0.930 . S
C1123 C1125 1.392 . S
C1123 C1126 1.370 . S
C1123 H1135 0.931 . S
N1124 C1117 1.359 . S
N1124 C1125 1.327 . S
N1124 Tb1127 2.600 . S
C1125 C1123 1.392 . S
C1125 N1124 1.327 . S
C1125 H1132 0.930 . S
C1126 C1121 1.385 . S
C1126 C1123 1.370 . S
C1126 H1145 0.930 . S
Tb1127 N1124 2.600 . S
Tb1127 N1128 2.660 . S
Tb1127 O1161 2.362 . S
Tb1127 O1162 2.421 . S
Tb1127 O1166 2.546 . S
Tb1127 O1167 2.610 . S
Tb1127 O1169 2.320 . S
Tb1127 O1170 2.552 . S
Tb1127 O1171 2.413 . S
Tb1127 C1191 2.833 . S
N1128 C1120 1.360 . S
N1128 Tb1127 2.660 . S
N1128 C1129 1.305 . S
C1129 N1128 1.305 . S
C1129 C1131 1.407 . S
C1129 H1136 0.930 . S
C1130 C1118 1.410 . S
C1130 C1131 1.345 . S
C1130 H1138 0.930 . S
C1131 C1129 1.407 . S
C1131 C1130 1.345 . S
C1131 H1133 0.930 . S
H1132 C1125 0.930 . S
H1133 C1131 0.930 . S
H1134 C1122 0.930 . S
H1135 C1123 0.931 . S
H1136 C1129 0.930 . S
H1137 C1151 0.930 . S
H1138 C1130 0.930 . S
H1139 C1157 0.930 . S
H1140 C1148 0.930 . S
H1141 C1155 0.931 . S
H1142 C1119 0.929 . S
H1143 C1149 0.930 . S
H1144 C1182 0.930 . S
H1145 C1126 0.930 . S
H1146 C1181 0.929 . S
N1147 Tb1116 2.660 . S
N1147 C1148 1.305 . S
N1147 C1152 1.360 . S
C1148 H1140 0.930 . S
C1148 N1147 1.305 . S
C1148 C1151 1.407 . S
C1149 H1143 0.930 . S
C1149 C1150 1.410 . S
C1149 C1151 1.345 . S
C1150 C1149 1.410 . S
C1150 C1152 1.417 . S
C1150 C1182 1.432 . S
C1151 H1137 0.930 . S
C1151 C1148 1.407 . S
C1151 C1149 1.345 . S
C1152 N1147 1.360 . S
C1152 C1150 1.417 . S
C1152 C1156 1.432 . S
H1153 C1158 0.930 . S
N1154 Tb1116 2.600 . S
N1154 C1156 1.359 . S
N1154 C1157 1.327 . S
C1155 H1141 0.931 . S
C1155 C1157 1.392 . S
C1155 C1158 1.370 . S
C1156 C1152 1.432 . S
C1156 N1154 1.359 . S
C1156 C1159 1.414 . S
C1157 H1139 0.930 . S
C1157 N1154 1.327 . S
C1157 C1155 1.392 . S
C1158 H1153 0.930 . S
C1158 C1155 1.370 . S
C1158 C1159 1.385 . S
C1159 C1156 1.414 . S
C1159 C1158 1.385 . S
C1159 C1181 1.444 . S
O1160 Tb1116 2.546 . S
O1160 C1180 1.251 . S
O1161 Tb1116 2.610 . S
O1161 Tb1127 2.362 . S
O1161 C1172 1.283 . S
O1162 Tb1127 2.421 . S
O1162 C1179 1.262 . S
O1163 Tb1116 2.320 . S
O1163 C1179 1.260 . S
O1164 Tb1116 2.552 . S
O1164 C1172 1.243 . S
O1165 Tb1116 2.413 . S
O1165 C1180 1.256 . S
O1166 Tb1127 2.546 . S
O1166 C1191 1.251 . S
O1167 Tb1116 2.362 . S
O1167 Tb1127 2.610 . S
O1167 C1183 1.283 . S
O1168 Tb1116 2.421 . S
O1168 C1190 1.262 . S
O1169 Tb1127 2.320 . S
O1169 C1190 1.260 . S
O1170 Tb1127 2.552 . S
O1170 C1183 1.243 . S
O1171 Tb1127 2.413 . S
O1171 C1191 1.256 . S
C1172 O1161 1.283 . S
C1172 O1164 1.243 . S
C1173 C1175 1.382 . S
C1173 C1177 1.393 . S
C1173 C1180 1.500 . S
C1174 C1175 1.400 . S
C1174 C1176 1.384 . S
C1175 C1173 1.382 . S
C1175 C1174 1.400 . S
C1175 H1192 0.930 . S
C1176 C1174 1.384 . S
C1176 C1178 1.392 . S
C1176 H1193 0.931 . S
C1177 C1173 1.393 . S
C1177 C1178 1.401 . S
C1177 H1194 0.930 . S
C1178 C1176 1.392 . S
C1178 C1177 1.401 . S
C1178 H1195 0.930 . S
C1179 O1162 1.262 . S
C1179 O1163 1.260 . S
C1180 Tb1116 2.833 . S
C1180 O1160 1.251 . S
C1180 O1165 1.256 . S
C1180 C1173 1.500 . S
C1181 H1146 0.929 . S
C1181 C1159 1.444 . S
C1181 C1182 1.317 . S
C1182 H1144 0.930 . S
C1182 C1150 1.432 . S
C1182 C1181 1.317 . S
C1183 O1167 1.283 . S
C1183 O1170 1.243 . S
C1184 C1185 1.382 . S
C1184 C1188 1.393 . S
C1184 C1191 1.500 . S
C1185 C1184 1.382 . S
C1185 C1186 1.400 . S
C1185 H1196 0.930 . S
C1186 C1185 1.400 . S
C1186 C1187 1.384 . S
C1187 C1186 1.384 . S
C1187 C1189 1.392 . S
C1187 H1197 0.931 . S
C1188 C1184 1.393 . S
C1188 C1189 1.401 . S
C1188 H1198 0.930 . S
C1189 C1187 1.392 . S
C1189 C1188 1.401 . S
C1189 H1199 0.930 . S
C1190 O1168 1.262 . S
C1190 O1169 1.260 . S
C1191 Tb1127 2.833 . S
C1191 O1166 1.251 . S
C1191 O1171 1.256 . S
C1191 C1184 1.500 . S
H1192 C1175 0.930 . S
H1193 C1176 0.931 . S
H1194 C1177 0.930 . S
H1195 C1178 0.930 . S
H1196 C1185 0.930 . S
H1197 C1187 0.931 . S
H1198 C1188 0.930 . S
H1199 C1189 0.930 . S
Tb1200 N1231 2.660 . S
Tb1200 N1238 2.600 . S
Tb1200 O1244 2.546 . S
Tb1200 O1245 2.610 . S
Tb1200 O1247 2.320 . S
Tb1200 O1248 2.552 . S
Tb1200 O1249 2.413 . S
Tb1200 O1251 2.362 . S
Tb1200 O1252 2.421 . S
Tb1200 C1264 2.833 . S
C1201 C1204 1.432 . S
C1201 C1205 1.414 . S
C1201 N1208 1.367 . S
C1202 C1204 1.417 . S
C1202 C1206 1.432 . S
C1202 C1214 1.410 . S
C1203 C1205 1.444 . S
C1203 C1206 1.317 . S
C1203 H1226 0.929 . S
C1204 C1201 1.432 . S
C1204 C1202 1.417 . S
C1204 N1212 1.360 . S
C1205 C1201 1.414 . S
C1205 C1203 1.444 . S
C1205 C1210 1.385 . S
C1206 C1202 1.432 . S
C1206 C1203 1.317 . S
C1206 H1218 0.930 . S
C1207 C1209 1.392 1_565 S
C1207 C1210 1.370 . S
C1207 H1219 0.931 . S
N1208 C1201 1.367 . S
N1208 C1209 1.331 1_565 S
N1208 Tb1211 2.592 1_565 S
C1209 C1207 1.392 1_545 S
C1209 N1208 1.331 1_545 S
C1209 H1216 0.930 . S
C1210 C1205 1.385 . S
C1210 C1207 1.370 . S
C1210 H1229 0.930 . S
Tb1211 N1208 2.592 1_545 S
Tb1211 N1212 2.660 1_545 S
Tb1211 O1245 2.362 . S
Tb1211 O1246 2.421 . S
Tb1211 O1250 2.546 1_545 S
Tb1211 O1251 2.610 . S
Tb1211 O1253 2.320 . S
Tb1211 O1254 2.552 . S
Tb1211 O1255 2.413 1_545 S
Tb1211 C1275 2.833 1_545 S
N1212 C1204 1.360 . S
N1212 Tb1211 2.660 1_565 S
N1212 C1213 1.305 . S
C1213 N1212 1.305 . S
C1213 C1215 1.407 . S
C1213 H1220 0.930 . S
C1214 C1202 1.410 . S
C1214 C1215 1.345 . S
C1214 H1222 0.930 . S
C1215 C1213 1.407 . S
C1215 C1214 1.345 . S
C1215 H1217 0.930 1_455 S
H1216 C1209 0.930 . S
H1217 C1215 0.930 1_655 S
H1218 C1206 0.930 . S
H1219 C1207 0.931 . S
H1220 C1213 0.930 . S
H1221 C1235 0.930 . S
H1222 C1214 0.930 . S
H1223 C1241 0.930 . S
H1224 C1232 0.930 . S
H1225 C1239 0.934 1_655 S
H1226 C1203 0.929 . S
H1227 C1233 0.930 . S
H1228 C1266 0.930 . S
H1229 C1210 0.930 . S
H1230 C1265 0.929 . S
N1231 Tb1200 2.660 . S
N1231 C1232 1.305 . S
N1231 C1236 1.360 . S
C1232 H1224 0.930 . S
C1232 N1231 1.305 . S
C1232 C1235 1.407 . S
C1233 H1227 0.930 . S
C1233 C1234 1.410 . S
C1233 C1235 1.345 . S
C1234 C1233 1.410 . S
C1234 C1236 1.417 . S
C1234 C1266 1.432 . S
C1235 H1221 0.930 . S
C1235 C1232 1.407 . S
C1235 C1233 1.345 . S
C1236 N1231 1.360 . S
C1236 C1234 1.417 . S
C1236 C1240 1.432 . S
H1237 C1242 0.930 . S
N1238 Tb1200 2.600 . S
N1238 C1240 1.359 . S
N1238 C1241 1.327 . S
C1239 H1225 0.934 1_455 S
C1239 C1241 1.390 . S
C1239 C1242 1.369 . S
C1240 C1236 1.432 . S
C1240 N1238 1.359 . S
C1240 C1243 1.414 . S
C1241 H1223 0.930 . S
C1241 N1238 1.327 . S
C1241 C1239 1.390 . S
C1242 H1237 0.930 . S
C1242 C1239 1.369 . S
C1242 C1243 1.385 . S
C1243 C1240 1.414 . S
C1243 C1242 1.385 . S
C1243 C1265 1.444 . S
O1244 Tb1200 2.546 . S
O1244 C1264 1.251 . S
O1245 Tb1200 2.610 . S
O1245 Tb1211 2.362 . S
O1245 C1256 1.283 . S
O1246 Tb1211 2.421 . S
O1246 C1263 1.262 . S
O1247 Tb1200 2.320 . S
O1247 C1263 1.260 . S
O1248 Tb1200 2.552 . S
O1248 C1256 1.243 . S
O1249 Tb1200 2.413 . S
O1249 C1264 1.256 . S
O1250 Tb1211 2.546 1_565 S
O1250 C1275 1.251 . S
O1251 Tb1200 2.362 . S
O1251 Tb1211 2.610 . S
O1251 C1267 1.283 . S
O1252 Tb1200 2.421 . S
O1252 C1274 1.262 . S
O1253 Tb1211 2.320 . S
O1253 C1274 1.260 . S
O1254 Tb1211 2.552 . S
O1254 C1267 1.243 . S
O1255 Tb1211 2.413 1_565 S
O1255 C1275 1.256 . S
C1256 O1245 1.283 . S
C1256 O1248 1.243 . S
C1257 C1259 1.382 . S
C1257 C1261 1.393 . S
C1257 C1264 1.500 . S
C1258 C1259 1.400 . S
C1258 C1260 1.384 . S
C1259 C1257 1.382 . S
C1259 C1258 1.400 . S
C1259 H1276 0.930 . S
C1260 C1258 1.384 . S
C1260 C1262 1.392 . S
C1260 H1277 0.931 . S
C1261 C1257 1.393 . S
C1261 C1262 1.401 . S
C1261 H1278 0.930 . S
C1262 C1260 1.392 . S
C1262 C1261 1.401 . S
C1262 H1279 0.930 . S
C1263 O1246 1.262 . S
C1263 O1247 1.260 . S
C1264 Tb1200 2.833 . S
C1264 O1244 1.251 . S
C1264 O1249 1.256 . S
C1264 C1257 1.500 . S
C1265 H1230 0.929 . S
C1265 C1243 1.444 . S
C1265 C1266 1.317 . S
C1266 H1228 0.930 . S
C1266 C1234 1.432 . S
C1266 C1265 1.317 . S
C1267 O1251 1.283 . S
C1267 O1254 1.243 . S
C1268 C1269 1.382 . S
C1268 C1272 1.393 . S
C1268 C1275 1.500 . S
C1269 C1268 1.382 . S
C1269 C1270 1.400 . S
C1269 H1280 0.930 . S
C1270 C1269 1.400 . S
C1270 C1271 1.384 . S
C1271 C1270 1.384 . S
C1271 C1273 1.392 . S
C1271 H1281 0.931 . S
C1272 C1268 1.393 . S
C1272 C1273 1.401 . S
C1272 H1282 0.930 . S
C1273 C1271 1.392 . S
C1273 C1272 1.401 . S
C1273 H1283 0.930 . S
C1274 O1252 1.262 . S
C1274 O1253 1.260 . S
C1275 Tb1211 2.833 1_565 S
C1275 O1250 1.251 . S
C1275 O1255 1.256 . S
C1275 C1268 1.500 . S
H1276 C1259 0.930 . S
H1277 C1260 0.931 . S
H1278 C1261 0.930 . S
H1279 C1262 0.930 . S
H1280 C1269 0.930 . S
H1281 C1271 0.931 . S
H1282 C1272 0.930 . S
H1283 C1273 0.930 . S
Tb1284 N1315 2.660 . S
Tb1284 N1322 2.600 . S
Tb1284 O1328 2.546 . S
Tb1284 O1329 2.610 . S
Tb1284 O1331 2.320 . S
Tb1284 O1332 2.552 . S
Tb1284 O1333 2.413 . S
Tb1284 O1335 2.362 . S
Tb1284 O1336 2.421 . S
Tb1284 C1348 2.833 . S
C1285 C1288 1.432 . S
C1285 C1289 1.414 . S
C1285 N1292 1.359 . S
C1286 C1288 1.417 . S
C1286 C1290 1.432 . S
C1286 C1298 1.410 . S
C1287 C1289 1.444 . S
C1287 C1290 1.317 . S
C1287 H1310 0.929 . S
C1288 C1285 1.432 . S
C1288 C1286 1.417 . S
C1288 N1296 1.360 . S
C1289 C1285 1.414 . S
C1289 C1287 1.444 . S
C1289 C1294 1.385 . S
C1290 C1286 1.432 . S
C1290 C1287 1.317 . S
C1290 H1302 0.930 . S
C1291 C1293 1.392 . S
C1291 C1294 1.370 . S
C1291 H1303 0.931 . S
N1292 C1285 1.359 . S
N1292 C1293 1.327 . S
N1292 Tb1295 2.600 . S
C1293 C1291 1.392 . S
C1293 N1292 1.327 . S
C1293 H1300 0.930 . S
C1294 C1289 1.385 . S
C1294 C1291 1.370 . S
C1294 H1313 0.930 . S
Tb1295 N1292 2.600 . S
Tb1295 N1296 2.660 . S
Tb1295 O1329 2.362 . S
Tb1295 O1330 2.421 . S
Tb1295 O1334 2.546 . S
Tb1295 O1335 2.610 . S
Tb1295 O1337 2.320 . S
Tb1295 O1338 2.552 . S
Tb1295 O1339 2.413 . S
Tb1295 C1359 2.833 . S
N1296 C1288 1.360 . S
N1296 Tb1295 2.660 . S
N1296 C1297 1.305 . S
C1297 N1296 1.305 . S
C1297 C1299 1.407 . S
C1297 H1304 0.930 . S
C1298 C1286 1.410 . S
C1298 C1299 1.345 . S
C1298 H1306 0.930 . S
C1299 C1297 1.407 . S
C1299 C1298 1.345 . S
C1299 H1301 0.930 . S
H1300 C1293 0.930 . S
H1301 C1299 0.930 . S
H1302 C1290 0.930 . S
H1303 C1291 0.931 . S
H1304 C1297 0.930 . S
H1305 C1319 0.930 . S
H1306 C1298 0.930 . S
H1307 C1325 0.930 . S
H1308 C1316 0.930 . S
H1309 C1323 0.931 . S
H1310 C1287 0.929 . S
H1311 C1317 0.930 . S
H1312 C1350 0.930 . S
H1313 C1294 0.930 . S
H1314 C1349 0.929 . S
N1315 Tb1284 2.660 . S
N1315 C1316 1.305 . S
N1315 C1320 1.360 . S
C1316 H1308 0.930 . S
C1316 N1315 1.305 . S
C1316 C1319 1.407 . S
C1317 H1311 0.930 . S
C1317 C1318 1.410 . S
C1317 C1319 1.345 . S
C1318 C1317 1.410 . S
C1318 C1320 1.417 . S
C1318 C1350 1.432 . S
C1319 H1305 0.930 . S
C1319 C1316 1.407 . S
C1319 C1317 1.345 . S
C1320 N1315 1.360 . S
C1320 C1318 1.417 . S
C1320 C1324 1.432 . S
H1321 C1326 0.930 . S
N1322 Tb1284 2.600 . S
N1322 C1324 1.359 . S
N1322 C1325 1.327 . S
C1323 H1309 0.931 . S
C1323 C1325 1.392 . S
C1323 C1326 1.370 . S
C1324 C1320 1.432 . S
C1324 N1322 1.359 . S
C1324 C1327 1.414 . S
C1325 H1307 0.930 . S
C1325 N1322 1.327 . S
C1325 C1323 1.392 . S
C1326 H1321 0.930 . S
C1326 C1323 1.370 . S
C1326 C1327 1.385 . S
C1327 C1324 1.414 . S
C1327 C1326 1.385 . S
C1327 C1349 1.444 . S
O1328 Tb1284 2.546 . S
O1328 C1348 1.251 . S
O1329 Tb1284 2.610 . S
O1329 Tb1295 2.362 . S
O1329 C1340 1.283 . S
O1330 Tb1295 2.421 . S
O1330 C1347 1.262 . S
O1331 Tb1284 2.320 . S
O1331 C1347 1.260 . S
O1332 Tb1284 2.552 . S
O1332 C1340 1.243 . S
O1333 Tb1284 2.413 . S
O1333 C1348 1.256 . S
O1334 Tb1295 2.546 . S
O1334 C1359 1.251 . S
O1335 Tb1284 2.362 . S
O1335 Tb1295 2.610 . S
O1335 C1351 1.283 . S
O1336 Tb1284 2.421 . S
O1336 C1358 1.262 . S
O1337 Tb1295 2.320 . S
O1337 C1358 1.260 . S
O1338 Tb1295 2.552 . S
O1338 C1351 1.243 . S
O1339 Tb1295 2.413 . S
O1339 C1359 1.256 . S
C1340 O1329 1.283 . S
C1340 O1332 1.243 . S
C1341 C1343 1.382 . S
C1341 C1345 1.393 . S
C1341 C1348 1.500 . S
C1342 C1343 1.400 . S
C1342 C1344 1.384 . S
C1343 C1341 1.382 . S
C1343 C1342 1.400 . S
C1343 H1360 0.930 . S
C1344 C1342 1.384 . S
C1344 C1346 1.392 . S
C1344 H1361 0.931 . S
C1345 C1341 1.393 . S
C1345 C1346 1.401 . S
C1345 H1362 0.930 . S
C1346 C1344 1.392 . S
C1346 C1345 1.401 . S
C1346 H1363 0.930 . S
C1347 O1330 1.262 . S
C1347 O1331 1.260 . S
C1348 Tb1284 2.833 . S
C1348 O1328 1.251 . S
C1348 O1333 1.256 . S
C1348 C1341 1.500 . S
C1349 H1314 0.929 . S
C1349 C1327 1.444 . S
C1349 C1350 1.317 . S
C1350 H1312 0.930 . S
C1350 C1318 1.432 . S
C1350 C1349 1.317 . S
C1351 O1335 1.283 . S
C1351 O1338 1.243 . S
C1352 C1353 1.382 . S
C1352 C1356 1.393 . S
C1352 C1359 1.500 . S
C1353 C1352 1.382 . S
C1353 C1354 1.400 . S
C1353 H1364 0.930 . S
C1354 C1353 1.400 . S
C1354 C1355 1.384 . S
C1355 C1354 1.384 . S
C1355 C1357 1.392 . S
C1355 H1365 0.931 . S
C1356 C1352 1.393 . S
C1356 C1357 1.401 . S
C1356 H1366 0.930 . S
C1357 C1355 1.392 . S
C1357 C1356 1.401 . S
C1357 H1367 0.930 . S
C1358 O1336 1.262 . S
C1358 O1337 1.260 . S
C1359 Tb1295 2.833 . S
C1359 O1334 1.251 . S
C1359 O1339 1.256 . S
C1359 C1352 1.500 . S
H1360 C1343 0.930 . S
H1361 C1344 0.931 . S
H1362 C1345 0.930 . S
H1363 C1346 0.930 . S
H1364 C1353 0.930 . S
H1365 C1355 0.931 . S
H1366 C1356 0.930 . S
H1367 C1357 0.930 . S
Tb1368 N1399 2.660 . S
Tb1368 N1406 2.600 . S
Tb1368 O1412 2.546 . S
Tb1368 O1413 2.610 . S
Tb1368 O1415 2.320 . S
Tb1368 O1416 2.552 . S
Tb1368 O1417 2.413 . S
Tb1368 O1419 2.362 . S
Tb1368 O1420 2.421 . S
Tb1368 C1432 2.833 . S
C1369 C1372 1.432 . S
C1369 C1373 1.414 . S
C1369 N1376 1.359 . S
C1370 C1372 1.417 . S
C1370 C1374 1.432 . S
C1370 C1382 1.400 1_545 S
C1371 C1373 1.444 . S
C1371 C1374 1.317 . S
C1371 H1394 0.929 . S
C1372 C1369 1.432 . S
C1372 C1370 1.417 . S
C1372 N1380 1.360 . S
C1373 C1369 1.414 . S
C1373 C1371 1.444 . S
C1373 C1378 1.385 . S
C1374 C1370 1.432 . S
C1374 C1371 1.317 . S
C1374 H1386 0.930 . S
C1375 C1377 1.392 . S
C1375 C1378 1.370 . S
C1375 H1387 0.931 . S
N1376 C1369 1.359 . S
N1376 C1377 1.327 . S
N1376 Tb1379 2.600 . S
C1377 C1375 1.392 . S
C1377 N1376 1.327 . S
C1377 H1384 0.930 . S
C1378 C1373 1.385 . S
C1378 C1375 1.370 . S
C1378 H1397 0.930 . S
Tb1379 N1376 2.600 . S
Tb1379 N1380 2.660 . S
Tb1379 O1413 2.362 1_556 S
Tb1379 O1414 2.421 1_556 S
Tb1379 O1418 2.546 . S
Tb1379 O1419 2.610 1_556 S
Tb1379 O1421 2.320 . S
Tb1379 O1422 2.554 . S
Tb1379 O1423 2.413 . S
Tb1379 C1443 2.833 . S
N1380 C1372 1.360 . S
N1380 Tb1379 2.660 . S
N1380 C1381 1.305 . S
C1381 N1380 1.305 . S
C1381 C1383 1.407 1_545 S
C1381 H1388 0.930 . S
C1382 C1370 1.400 1_565 S
C1382 C1383 1.351 . S
C1382 H1390 0.934 . S
C1383 C1381 1.407 1_565 S
C1383 C1382 1.351 . S
C1383 H1385 0.930 . S
H1384 C1377 0.930 . S
H1385 C1383 0.930 . S
H1386 C1374 0.930 . S
H1387 C1375 0.931 . S
H1388 C1381 0.930 . S
H1389 C1403 0.930 . S
H1390 C1382 0.934 . S
H1391 C1409 0.939 . S
H1392 C1400 0.930 . S
H1393 C1407 0.931 . S
H1394 C1371 0.929 . S
H1395 C1401 0.930 . S
H1396 C1434 0.930 . S
H1397 C1378 0.930 . S
H1398 C1433 0.929 . S
N1399 Tb1368 2.660 . S
N1399 C1400 1.305 . S
N1399 C1404 1.360 . S
C1400 H1392 0.930 . S
C1400 N1399 1.305 . S
C1400 C1403 1.407 . S
C1401 H1395 0.930 . S
C1401 C1402 1.410 . S
C1401 C1403 1.345 . S
C1402 C1401 1.410 . S
C1402 C1404 1.417 . S
C1402 C1434 1.432 . S
C1403 H1389 0.930 . S
C1403 C1400 1.407 . S
C1403 C1401 1.345 . S
C1404 N1399 1.360 . S
C1404 C1402 1.417 . S
C1404 C1408 1.432 . S
H1405 C1410 0.930 1_565 S
N1406 Tb1368 2.600 . S
N1406 C1408 1.359 . S
N1406 C1409 1.299 1_545 S
C1407 H1393 0.931 . S
C1407 C1409 1.412 . S
C1407 C1410 1.370 1_565 S
C1408 C1404 1.432 . S
C1408 N1406 1.359 . S
C1408 C1411 1.414 . S
C1409 H1391 0.939 . S
C1409 N1406 1.299 1_565 S
C1409 C1407 1.412 . S
C1410 H1405 0.930 1_545 S
C1410 C1407 1.370 1_545 S
C1410 C1411 1.385 . S
C1411 C1408 1.414 . S
C1411 C1410 1.385 . S
C1411 C1433 1.444 . S
O1412 Tb1368 2.546 . S
O1412 C1432 1.251 . S
O1413 Tb1368 2.610 . S
O1413 Tb1379 2.362 1_554 S
O1413 C1424 1.283 . S
O1414 Tb1379 2.421 1_554 S
O1414 C1431 1.262 . S
O1415 Tb1368 2.320 . S
O1415 C1431 1.260 . S
O1416 Tb1368 2.552 . S
O1416 C1424 1.243 . S
O1417 Tb1368 2.413 . S
O1417 C1432 1.256 . S
O1418 Tb1379 2.546 . S
O1418 C1443 1.251 . S
O1419 Tb1368 2.362 . S
O1419 Tb1379 2.610 1_554 S
O1419 C1435 1.283 . S
O1420 Tb1368 2.421 . S
O1420 C1442 1.262 . S
O1421 Tb1379 2.320 . S
O1421 C1442 1.260 1_556 S
O1422 Tb1379 2.554 . S
O1422 C1435 1.208 1_556 S
O1423 Tb1379 2.413 . S
O1423 C1443 1.256 . S
C1424 O1413 1.283 . S
C1424 O1416 1.243 . S
C1425 C1427 1.382 . S
C1425 C1429 1.393 . S
C1425 C1432 1.500 . S
C1426 C1427 1.400 . S
C1426 C1428 1.384 . S
C1427 C1425 1.382 . S
C1427 C1426 1.400 . S
C1427 H1444 0.930 . S
C1428 C1426 1.384 . S
C1428 C1430 1.392 1_545 S
C1428 H1445 0.931 . S
C1429 C1425 1.393 . S
C1429 C1430 1.401 1_545 S
C1429 H1446 0.930 1_545 S
C1430 C1428 1.392 1_565 S
C1430 C1429 1.401 1_565 S
C1430 H1447 0.930 . S
C1431 O1414 1.262 . S
C1431 O1415 1.260 . S
C1432 Tb1368 2.833 . S
C1432 O1412 1.251 . S
C1432 O1417 1.256 . S
C1432 C1425 1.500 . S
C1433 H1398 0.929 . S
C1433 C1411 1.444 . S
C1433 C1434 1.317 . S
C1434 H1396 0.930 . S
C1434 C1402 1.432 . S
C1434 C1433 1.317 . S
C1435 O1419 1.283 . S
C1435 O1422 1.208 1_554 S
C1436 C1437 1.382 . S
C1436 C1440 1.393 . S
C1436 C1443 1.500 . S
C1437 C1436 1.382 . S
C1437 C1438 1.400 . S
C1437 H1448 0.930 . S
C1438 C1437 1.400 . S
C1438 C1439 1.384 . S
C1439 C1438 1.384 . S
C1439 C1441 1.392 . S
C1439 H1449 0.931 . S
C1440 C1436 1.393 . S
C1440 C1441 1.401 . S
C1440 H1450 0.930 . S
C1441 C1439 1.392 . S
C1441 C1440 1.401 . S
C1441 H1451 0.930 . S
C1442 O1420 1.262 . S
C1442 O1421 1.260 1_554 S
C1443 Tb1379 2.833 . S
C1443 O1418 1.251 . S
C1443 O1423 1.256 . S
C1443 C1436 1.500 . S
H1444 C1427 0.930 . S
H1445 C1428 0.931 . S
H1446 C1429 0.930 1_565 S
H1447 C1430 0.930 . S
H1448 C1437 0.930 . S
H1449 C1439 0.931 . S
H1450 C1440 0.930 . S
H1451 C1441 0.930 . S
Tb1452 N1483 2.660 . S
Tb1452 N1490 2.600 . S
Tb1452 O1496 2.546 . S
Tb1452 O1497 2.610 . S
Tb1452 O1499 2.320 . S
Tb1452 O1500 2.552 . S
Tb1452 O1501 2.413 . S
Tb1452 O1503 2.362 . S
Tb1452 O1504 2.421 . S
Tb1452 C1516 2.833 . S
C1453 C1456 1.432 . S
C1453 C1457 1.414 . S
C1453 N1460 1.359 . S
C1454 C1456 1.417 . S
C1454 C1458 1.432 . S
C1454 C1466 1.410 . S
C1455 C1457 1.444 . S
C1455 C1458 1.317 . S
C1455 H1478 0.929 . S
C1456 C1453 1.432 . S
C1456 C1454 1.417 . S
C1456 N1464 1.360 . S
C1457 C1453 1.414 . S
C1457 C1455 1.444 . S
C1457 C1462 1.385 . S
C1458 C1454 1.432 . S
C1458 C1455 1.317 . S
C1458 H1470 0.930 . S
C1459 C1461 1.392 . S
C1459 C1462 1.370 . S
C1459 H1471 0.931 . S
N1460 C1453 1.359 . S
N1460 C1461 1.327 . S
N1460 Tb1463 2.600 . S
C1461 C1459 1.392 . S
C1461 N1460 1.327 . S
C1461 H1468 0.930 . S
C1462 C1457 1.385 . S
C1462 C1459 1.370 . S
C1462 H1481 0.930 . S
Tb1463 N1460 2.600 . S
Tb1463 N1464 2.660 . S
Tb1463 O1497 2.362 . S
Tb1463 O1498 2.421 . S
Tb1463 O1502 2.546 . S
Tb1463 O1503 2.610 . S
Tb1463 O1505 2.320 . S
Tb1463 O1506 2.552 . S
Tb1463 O1507 2.413 . S
Tb1463 C1527 2.833 . S
N1464 C1456 1.360 . S
N1464 Tb1463 2.660 . S
N1464 C1465 1.305 . S
C1465 N1464 1.305 . S
C1465 C1467 1.407 . S
C1465 H1472 0.930 . S
C1466 C1454 1.410 . S
C1466 C1467 1.345 . S
C1466 H1474 0.930 . S
C1467 C1465 1.407 . S
C1467 C1466 1.345 . S
C1467 H1469 0.930 . S
H1468 C1461 0.930 . S
H1469 C1467 0.930 . S
H1470 C1458 0.930 . S
H1471 C1459 0.931 . S
H1472 C1465 0.930 . S
H1473 C1487 0.930 . S
H1474 C1466 0.930 . S
H1475 C1493 0.930 . S
H1476 C1484 0.930 . S
H1477 C1491 0.931 . S
H1478 C1455 0.929 . S
H1479 C1485 0.930 . S
H1480 C1518 0.930 . S
H1481 C1462 0.930 . S
H1482 C1517 0.929 . S
N1483 Tb1452 2.660 . S
N1483 C1484 1.305 . S
N1483 C1488 1.360 . S
C1484 H1476 0.930 . S
C1484 N1483 1.305 . S
C1484 C1487 1.407 . S
C1485 H1479 0.930 . S
C1485 C1486 1.410 . S
C1485 C1487 1.345 . S
C1486 C1485 1.410 . S
C1486 C1488 1.417 . S
C1486 C1518 1.432 . S
C1487 H1473 0.930 . S
C1487 C1484 1.407 . S
C1487 C1485 1.345 . S
C1488 N1483 1.360 . S
C1488 C1486 1.417 . S
C1488 C1492 1.432 . S
H1489 C1494 0.930 . S
N1490 Tb1452 2.600 . S
N1490 C1492 1.359 . S
N1490 C1493 1.327 . S
C1491 H1477 0.931 . S
C1491 C1493 1.392 . S
C1491 C1494 1.370 . S
C1492 C1488 1.432 . S
C1492 N1490 1.359 . S
C1492 C1495 1.414 . S
C1493 H1475 0.930 . S
C1493 N1490 1.327 . S
C1493 C1491 1.392 . S
C1494 H1489 0.930 . S
C1494 C1491 1.370 . S
C1494 C1495 1.385 . S
C1495 C1492 1.414 . S
C1495 C1494 1.385 . S
C1495 C1517 1.444 . S
O1496 Tb1452 2.546 . S
O1496 C1516 1.251 . S
O1497 Tb1452 2.610 . S
O1497 Tb1463 2.362 . S
O1497 C1508 1.283 . S
O1498 Tb1463 2.421 . S
O1498 C1515 1.262 . S
O1499 Tb1452 2.320 . S
O1499 C1515 1.260 . S
O1500 Tb1452 2.552 . S
O1500 C1508 1.243 . S
O1501 Tb1452 2.413 . S
O1501 C1516 1.256 . S
O1502 Tb1463 2.546 . S
O1502 C1527 1.251 . S
O1503 Tb1452 2.362 . S
O1503 Tb1463 2.610 . S
O1503 C1519 1.283 . S
O1504 Tb1452 2.421 . S
O1504 C1526 1.262 . S
O1505 Tb1463 2.320 . S
O1505 C1526 1.260 . S
O1506 Tb1463 2.552 . S
O1506 C1519 1.243 . S
O1507 Tb1463 2.413 . S
O1507 C1527 1.256 . S
C1508 O1497 1.283 . S
C1508 O1500 1.243 . S
C1509 C1511 1.382 . S
C1509 C1513 1.393 . S
C1509 C1516 1.500 . S
C1510 C1511 1.400 . S
C1510 C1512 1.384 . S
C1511 C1509 1.382 . S
C1511 C1510 1.400 . S
C1511 H1528 0.930 . S
C1512 C1510 1.384 . S
C1512 C1514 1.392 . S
C1512 H1529 0.931 . S
C1513 C1509 1.393 . S
C1513 C1514 1.401 . S
C1513 H1530 0.930 . S
C1514 C1512 1.392 . S
C1514 C1513 1.401 . S
C1514 H1531 0.930 . S
C1515 O1498 1.262 . S
C1515 O1499 1.260 . S
C1516 Tb1452 2.833 . S
C1516 O1496 1.251 . S
C1516 O1501 1.256 . S
C1516 C1509 1.500 . S
C1517 H1482 0.929 . S
C1517 C1495 1.444 . S
C1517 C1518 1.317 . S
C1518 H1480 0.930 . S
C1518 C1486 1.432 . S
C1518 C1517 1.317 . S
C1519 O1503 1.283 . S
C1519 O1506 1.243 . S
C1520 C1521 1.382 . S
C1520 C1524 1.393 . S
C1520 C1527 1.500 . S
C1521 C1520 1.382 . S
C1521 C1522 1.400 . S
C1521 H1532 0.930 . S
C1522 C1521 1.400 . S
C1522 C1523 1.384 . S
C1523 C1522 1.384 . S
C1523 C1525 1.392 . S
C1523 H1533 0.931 . S
C1524 C1520 1.393 . S
C1524 C1525 1.401 . S
C1524 H1534 0.930 . S
C1525 C1523 1.392 . S
C1525 C1524 1.401 . S
C1525 H1535 0.930 . S
C1526 O1504 1.262 . S
C1526 O1505 1.260 . S
C1527 Tb1463 2.833 . S
C1527 O1502 1.251 . S
C1527 O1507 1.256 . S
C1527 C1520 1.500 . S
H1528 C1511 0.930 . S
H1529 C1512 0.931 . S
H1530 C1513 0.930 . S
H1531 C1514 0.930 . S
H1532 C1521 0.930 . S
H1533 C1523 0.931 . S
H1534 C1524 0.930 . S
H1535 C1525 0.930 . S
Tb1536 N1567 2.660 . S
Tb1536 N1574 2.600 . S
Tb1536 O1580 2.546 . S
Tb1536 O1581 2.610 1_554 S
Tb1536 O1583 2.320 . S
Tb1536 O1584 2.552 1_554 S
Tb1536 O1585 2.413 . S
Tb1536 O1587 2.362 . S
Tb1536 O1588 2.421 . S
Tb1536 C1600 2.833 . S
C1537 C1540 1.432 . S
C1537 C1541 1.414 . S
C1537 N1544 1.359 . S
C1538 C1540 1.417 . S
C1538 C1542 1.432 . S
C1538 C1550 1.410 . S
C1539 C1541 1.444 . S
C1539 C1542 1.317 . S
C1539 H1562 0.929 . S
C1540 C1537 1.432 . S
C1540 C1538 1.417 . S
C1540 N1548 1.360 . S
C1541 C1537 1.414 . S
C1541 C1539 1.444 . S
C1541 C1546 1.385 . S
C1542 C1538 1.432 . S
C1542 C1539 1.317 . S
C1542 H1554 0.930 . S
C1543 C1545 1.392 . S
C1543 C1546 1.370 . S
C1543 H1555 0.931 . S
N1544 C1537 1.359 . S
N1544 C1545 1.327 . S
N1544 Tb1547 2.600 1_556 S
C1545 C1543 1.392 . S
C1545 N1544 1.327 . S
C1545 H1552 0.930 . S
C1546 C1541 1.385 . S
C1546 C1543 1.370 . S
C1546 H1565 0.930 . S
Tb1547 N1544 2.600 1_554 S
Tb1547 N1548 2.660 1_554 S
Tb1547 O1581 2.362 1_554 S
Tb1547 O1582 2.421 . S
Tb1547 O1586 2.546 . S
Tb1547 O1587 2.610 . S
Tb1547 O1589 2.320 . S
Tb1547 O1590 2.552 . S
Tb1547 O1591 2.413 . S
Tb1547 C1611 2.833 . S
N1548 C1540 1.360 . S
N1548 Tb1547 2.660 1_556 S
N1548 C1549 1.305 . S
C1549 N1548 1.305 . S
C1549 C1551 1.407 . S
C1549 H1556 0.930 . S
C1550 C1538 1.410 . S
C1550 C1551 1.345 . S
C1550 H1558 0.930 . S
C1551 C1549 1.407 . S
C1551 C1550 1.345 . S
C1551 H1553 0.930 . S
H1552 C1545 0.930 . S
H1553 C1551 0.930 . S
H1554 C1542 0.930 . S
H1555 C1543 0.931 . S
H1556 C1549 0.930 . S
H1557 C1571 0.930 . S
H1558 C1550 0.930 . S
H1559 C1577 0.930 . S
H1560 C1568 0.930 . S
H1561 C1575 0.931 . S
H1562 C1539 0.929 . S
H1563 C1569 0.930 . S
H1564 C1602 0.930 . S
H1565 C1546 0.930 . S
H1566 C1601 0.929 . S
N1567 Tb1536 2.660 . S
N1567 C1568 1.305 . S
N1567 C1572 1.360 . S
C1568 H1560 0.930 . S
C1568 N1567 1.305 . S
C1568 C1571 1.407 . S
C1569 H1563 0.930 . S
C1569 C1570 1.410 . S
C1569 C1571 1.345 . S
C1570 C1569 1.410 . S
C1570 C1572 1.417 . S
C1570 C1602 1.432 . S
C1571 H1557 0.930 . S
C1571 C1568 1.407 . S
C1571 C1569 1.345 . S
C1572 N1567 1.360 . S
C1572 C1570 1.417 . S
C1572 C1576 1.432 . S
H1573 C1578 0.930 . S
N1574 Tb1536 2.600 . S
N1574 C1576 1.359 . S
N1574 C1577 1.327 . S
C1575 H1561 0.931 . S
C1575 C1577 1.392 . S
C1575 C1578 1.370 . S
C1576 C1572 1.432 . S
C1576 N1574 1.359 . S
C1576 C1579 1.414 . S
C1577 H1559 0.930 . S
C1577 N1574 1.327 . S
C1577 C1575 1.392 . S
C1578 H1573 0.930 . S
C1578 C1575 1.370 . S
C1578 C1579 1.385 . S
C1579 C1576 1.414 . S
C1579 C1578 1.385 . S
C1579 C1601 1.444 . S
O1580 Tb1536 2.546 . S
O1580 C1600 1.251 . S
O1581 Tb1536 2.610 1_556 S
O1581 Tb1547 2.362 1_556 S
O1581 C1592 1.283 . S
O1582 Tb1547 2.421 . S
O1582 C1599 1.262 . S
O1583 Tb1536 2.320 . S
O1583 C1599 1.260 . S
O1584 Tb1536 2.552 1_556 S
O1584 C1592 1.243 . S
O1585 Tb1536 2.413 . S
O1585 C1600 1.256 . S
O1586 Tb1547 2.546 . S
O1586 C1611 1.251 . S
O1587 Tb1536 2.362 . S
O1587 Tb1547 2.610 . S
O1587 C1603 1.283 . S
O1588 Tb1536 2.421 . S
O1588 C1610 1.262 . S
O1589 Tb1547 2.320 . S
O1589 C1610 1.260 . S
O1590 Tb1547 2.552 . S
O1590 C1603 1.243 . S
O1591 Tb1547 2.413 . S
O1591 C1611 1.256 . S
C1592 O1581 1.283 . S
C1592 O1584 1.243 . S
C1593 C1595 1.382 . S
C1593 C1597 1.393 . S
C1593 C1600 1.500 . S
C1594 C1595 1.400 1_556 S
C1594 C1596 1.384 1_556 S
C1595 C1593 1.382 . S
C1595 C1594 1.400 1_554 S
C1595 H1612 0.918 1_554 S
C1596 C1594 1.384 1_554 S
C1596 C1598 1.392 . S
C1596 H1613 0.913 1_554 S
C1597 C1593 1.393 . S
C1597 C1598 1.401 . S
C1597 H1614 0.930 . S
C1598 C1596 1.392 . S
C1598 C1597 1.401 . S
C1598 H1615 0.930 . S
C1599 O1582 1.262 . S
C1599 O1583 1.260 . S
C1600 Tb1536 2.833 . S
C1600 O1580 1.251 . S
C1600 O1585 1.256 . S
C1600 C1593 1.500 . S
C1601 H1566 0.929 . S
C1601 C1579 1.444 . S
C1601 C1602 1.317 . S
C1602 H1564 0.930 . S
C1602 C1570 1.432 . S
C1602 C1601 1.317 . S
C1603 O1587 1.283 . S
C1603 O1590 1.243 . S
C1604 C1605 1.382 . S
C1604 C1608 1.393 . S
C1604 C1611 1.500 . S
C1605 C1604 1.382 . S
C1605 C1606 1.400 . S
C1605 H1616 0.930 . S
C1606 C1605 1.400 . S
C1606 C1607 1.384 . S
C1607 C1606 1.384 . S
C1607 C1609 1.392 . S
C1607 H1617 0.931 . S
C1608 C1604 1.393 . S
C1608 C1609 1.401 . S
C1608 H1618 0.930 . S
C1609 C1607 1.392 . S
C1609 C1608 1.401 . S
C1609 H1619 0.930 . S
C1610 O1588 1.262 . S
C1610 O1589 1.260 . S
C1611 Tb1547 2.833 . S
C1611 O1586 1.251 . S
C1611 O1591 1.256 . S
C1611 C1604 1.500 . S
H1612 C1595 0.918 1_556 S
H1613 C1596 0.913 1_556 S
H1614 C1597 0.930 . S
H1615 C1598 0.930 . S
H1616 C1605 0.930 . S
H1617 C1607 0.931 . S
H1618 C1608 0.930 . S
H1619 C1609 0.930 . S
Tb1620 N1651 2.660 . S
Tb1620 N1658 2.600 . S
Tb1620 O1664 2.546 . S
Tb1620 O1665 2.610 . S
Tb1620 O1667 2.320 . S
Tb1620 O1668 2.552 . S
Tb1620 O1669 2.413 . S
Tb1620 O1671 2.362 . S
Tb1620 O1672 2.421 . S
Tb1620 C1684 2.833 . S
C1621 C1624 1.432 . S
C1621 C1625 1.414 . S
C1621 N1628 1.359 . S
C1622 C1624 1.417 . S
C1622 C1626 1.432 . S
C1622 C1634 1.410 . S
C1623 C1625 1.444 . S
C1623 C1626 1.317 . S
C1623 H1646 0.929 . S
C1624 C1621 1.432 . S
C1624 C1622 1.417 . S
C1624 N1632 1.360 . S
C1625 C1621 1.414 . S
C1625 C1623 1.444 . S
C1625 C1630 1.385 . S
C1626 C1622 1.432 . S
C1626 C1623 1.317 . S
C1626 H1638 0.930 . S
C1627 C1629 1.392 . S
C1627 C1630 1.370 . S
C1627 H1639 0.931 . S
N1628 C1621 1.359 . S
N1628 C1629 1.327 . S
N1628 Tb1631 2.600 . S
C1629 C1627 1.392 . S
C1629 N1628 1.327 . S
C1629 H1636 0.930 . S
C1630 C1625 1.385 . S
C1630 C1627 1.370 . S
C1630 H1649 0.930 . S
Tb1631 N1628 2.600 . S
Tb1631 N1632 2.660 . S
Tb1631 O1665 2.362 . S
Tb1631 O1666 2.421 . S
Tb1631 O1670 2.546 . S
Tb1631 O1671 2.610 . S
Tb1631 O1673 2.320 . S
Tb1631 O1674 2.552 . S
Tb1631 O1675 2.413 . S
Tb1631 C1695 2.833 . S
N1632 C1624 1.360 . S
N1632 Tb1631 2.660 . S
N1632 C1633 1.305 . S
C1633 N1632 1.305 . S
C1633 C1635 1.407 . S
C1633 H1640 0.930 . S
C1634 C1622 1.410 . S
C1634 C1635 1.345 . S
C1634 H1642 0.930 . S
C1635 C1633 1.407 . S
C1635 C1634 1.345 . S
C1635 H1637 0.930 . S
H1636 C1629 0.930 . S
H1637 C1635 0.930 . S
H1638 C1626 0.930 . S
H1639 C1627 0.931 . S
H1640 C1633 0.930 . S
H1641 C1655 0.930 . S
H1642 C1634 0.930 . S
H1643 C1661 0.930 . S
H1644 C1652 0.930 . S
H1645 C1659 0.931 . S
H1646 C1623 0.929 . S
H1647 C1653 0.930 . S
H1648 C1686 0.930 . S
H1649 C1630 0.930 . S
H1650 C1685 0.929 . S
N1651 Tb1620 2.660 . S
N1651 C1652 1.305 . S
N1651 C1656 1.360 . S
C1652 H1644 0.930 . S
C1652 N1651 1.305 . S
C1652 C1655 1.407 . S
C1653 H1647 0.930 . S
C1653 C1654 1.410 . S
C1653 C1655 1.345 . S
C1654 C1653 1.410 . S
C1654 C1656 1.417 . S
C1654 C1686 1.432 . S
C1655 H1641 0.930 . S
C1655 C1652 1.407 . S
C1655 C1653 1.345 . S
C1656 N1651 1.360 . S
C1656 C1654 1.417 . S
C1656 C1660 1.432 . S
H1657 C1662 0.930 . S
N1658 Tb1620 2.600 . S
N1658 C1660 1.359 . S
N1658 C1661 1.327 . S
C1659 H1645 0.931 . S
C1659 C1661 1.392 . S
C1659 C1662 1.370 . S
C1660 C1656 1.432 . S
C1660 N1658 1.359 . S
C1660 C1663 1.414 . S
C1661 H1643 0.930 . S
C1661 N1658 1.327 . S
C1661 C1659 1.392 . S
C1662 H1657 0.930 . S
C1662 C1659 1.370 . S
C1662 C1663 1.385 . S
C1663 C1660 1.414 . S
C1663 C1662 1.385 . S
C1663 C1685 1.444 . S
O1664 Tb1620 2.546 . S
O1664 C1684 1.251 . S
O1665 Tb1620 2.610 . S
O1665 Tb1631 2.362 . S
O1665 C1676 1.283 . S
O1666 Tb1631 2.421 . S
O1666 C1683 1.262 . S
O1667 Tb1620 2.320 . S
O1667 C1683 1.260 . S
O1668 Tb1620 2.552 . S
O1668 C1676 1.243 . S
O1669 Tb1620 2.413 . S
O1669 C1684 1.256 . S
O1670 Tb1631 2.546 . S
O1670 C1695 1.251 . S
O1671 Tb1620 2.362 . S
O1671 Tb1631 2.610 . S
O1671 C1687 1.283 . S
O1672 Tb1620 2.421 . S
O1672 C1694 1.262 . S
O1673 Tb1631 2.320 . S
O1673 C1694 1.260 . S
O1674 Tb1631 2.552 . S
O1674 C1687 1.243 . S
O1675 Tb1631 2.413 . S
O1675 C1695 1.256 . S
C1676 O1665 1.283 . S
C1676 O1668 1.243 . S
C1677 C1679 1.382 . S
C1677 C1681 1.393 . S
C1677 C1684 1.500 . S
C1678 C1679 1.400 . S
C1678 C1680 1.384 . S
C1679 C1677 1.382 . S
C1679 C1678 1.400 . S
C1679 H1696 0.930 . S
C1680 C1678 1.384 . S
C1680 C1682 1.392 . S
C1680 H1697 0.931 . S
C1681 C1677 1.393 . S
C1681 C1682 1.401 . S
C1681 H1698 0.930 . S
C1682 C1680 1.392 . S
C1682 C1681 1.401 . S
C1682 H1699 0.930 . S
C1683 O1666 1.262 . S
C1683 O1667 1.260 . S
C1684 Tb1620 2.833 . S
C1684 O1664 1.251 . S
C1684 O1669 1.256 . S
C1684 C1677 1.500 . S
C1685 H1650 0.929 . S
C1685 C1663 1.444 . S
C1685 C1686 1.317 . S
C1686 H1648 0.930 . S
C1686 C1654 1.432 . S
C1686 C1685 1.317 . S
C1687 O1671 1.283 . S
C1687 O1674 1.243 . S
C1688 C1689 1.382 . S
C1688 C1692 1.393 . S
C1688 C1695 1.500 . S
C1689 C1688 1.382 . S
C1689 C1690 1.400 . S
C1689 H1700 0.930 . S
C1690 C1689 1.400 . S
C1690 C1691 1.384 . S
C1691 C1690 1.384 . S
C1691 C1693 1.392 . S
C1691 H1701 0.931 . S
C1692 C1688 1.393 . S
C1692 C1693 1.401 . S
C1692 H1702 0.930 . S
C1693 C1691 1.392 . S
C1693 C1692 1.401 . S
C1693 H1703 0.930 . S
C1694 O1672 1.262 . S
C1694 O1673 1.260 . S
C1695 Tb1631 2.833 . S
C1695 O1670 1.251 . S
C1695 O1675 1.256 . S
C1695 C1688 1.500 . S
H1696 C1679 0.930 . S
H1697 C1680 0.931 . S
H1698 C1681 0.930 . S
H1699 C1682 0.930 . S
H1700 C1689 0.930 . S
H1701 C1691 0.931 . S
H1702 C1692 0.930 . S
H1703 C1693 0.930 . S
Tb1704 N1735 2.660 . S
Tb1704 N1742 2.600 . S
Tb1704 O1748 2.546 . S
Tb1704 O1749 2.610 . S
Tb1704 O1751 2.320 . S
Tb1704 O1752 2.552 . S
Tb1704 O1753 2.413 . S
Tb1704 O1755 2.362 . S
Tb1704 O1756 2.421 . S
Tb1704 C1768 2.833 . S
C1705 C1708 1.432 . S
C1705 C1709 1.414 1_455 S
C1705 N1712 1.359 . S
C1706 C1708 1.417 1_655 S
C1706 C1710 1.432 . S
C1706 C1718 1.410 . S
C1707 C1709 1.444 . S
C1707 C1710 1.317 . S
C1707 H1730 0.929 . S
C1708 C1705 1.432 . S
C1708 C1706 1.417 1_455 S
C1708 N1716 1.360 . S
C1709 C1705 1.414 1_655 S
C1709 C1707 1.444 . S
C1709 C1714 1.385 . S
C1710 C1706 1.432 . S
C1710 C1707 1.317 . S
C1710 H1722 0.930 . S
C1711 C1713 1.392 . S
C1711 C1714 1.370 1_455 S
C1711 H1723 0.931 . S
N1712 C1705 1.359 . S
N1712 C1713 1.327 . S
N1712 Tb1715 2.600 . S
C1713 C1711 1.392 . S
C1713 N1712 1.327 . S
C1713 H1720 0.930 . S
C1714 C1709 1.385 . S
C1714 C1711 1.370 1_655 S
C1714 H1733 0.930 . S
Tb1715 N1712 2.600 . S
Tb1715 N1716 2.660 . S
Tb1715 O1749 2.362 . S
Tb1715 O1750 2.421 . S
Tb1715 O1754 2.546 . S
Tb1715 O1755 2.610 . S
Tb1715 O1757 2.320 . S
Tb1715 O1758 2.552 . S
Tb1715 O1759 2.413 . S
Tb1715 C1779 2.833 . S
N1716 C1708 1.360 . S
N1716 Tb1715 2.660 . S
N1716 C1717 1.305 . S
C1717 N1716 1.305 . S
C1717 C1719 1.407 . S
C1717 H1724 0.930 . S
C1718 C1706 1.410 . S
C1718 C1719 1.345 1_655 S
C1718 H1726 0.930 . S
C1719 C1717 1.407 . S
C1719 C1718 1.345 1_455 S
C1719 H1721 0.930 . S
H1720 C1713 0.930 . S
H1721 C1719 0.930 . S
H1722 C1710 0.930 . S
H1723 C1711 0.931 . S
H1724 C1717 0.930 . S
H1725 C1739 0.930 . S
H1726 C1718 0.930 . S
H1727 C1745 0.930 . S
H1728 C1736 0.930 . S
H1729 C1743 0.931 . S
H1730 C1707 0.929 . S
H1731 C1737 0.930 . S
H1732 C1770 0.930 . S
H1733 C1714 0.930 . S
H1734 C1769 0.929 . S
N1735 Tb1704 2.660 . S
N1735 C1736 1.305 . S
N1735 C1740 1.360 . S
C1736 H1728 0.930 . S
C1736 N1735 1.305 . S
C1736 C1739 1.407 . S
C1737 H1731 0.930 . S
C1737 C1738 1.410 . S
C1737 C1739 1.345 . S
C1738 C1737 1.410 . S
C1738 C1740 1.417 . S
C1738 C1770 1.432 . S
C1739 H1725 0.930 . S
C1739 C1736 1.407 . S
C1739 C1737 1.345 . S
C1740 N1735 1.360 . S
C1740 C1738 1.417 . S
C1740 C1744 1.432 . S
H1741 C1746 0.930 . S
N1742 Tb1704 2.600 . S
N1742 C1744 1.359 . S
N1742 C1745 1.327 . S
C1743 H1729 0.931 . S
C1743 C1745 1.392 . S
C1743 C1746 1.370 . S
C1744 C1740 1.432 . S
C1744 N1742 1.359 . S
C1744 C1747 1.414 . S
C1745 H1727 0.930 . S
C1745 N1742 1.327 . S
C1745 C1743 1.392 . S
C1746 H1741 0.930 . S
C1746 C1743 1.370 . S
C1746 C1747 1.385 . S
C1747 C1744 1.414 . S
C1747 C1746 1.385 . S
C1747 C1769 1.444 . S
O1748 Tb1704 2.546 . S
O1748 C1768 1.251 . S
O1749 Tb1704 2.610 . S
O1749 Tb1715 2.362 . S
O1749 C1760 1.283 . S
O1750 Tb1715 2.421 . S
O1750 C1767 1.262 . S
O1751 Tb1704 2.320 . S
O1751 C1767 1.260 . S
O1752 Tb1704 2.552 . S
O1752 C1760 1.243 . S
O1753 Tb1704 2.413 . S
O1753 C1768 1.256 . S
O1754 Tb1715 2.546 . S
O1754 C1779 1.251 . S
O1755 Tb1704 2.362 . S
O1755 Tb1715 2.610 . S
O1755 C1771 1.283 . S
O1756 Tb1704 2.421 . S
O1756 C1778 1.262 . S
O1757 Tb1715 2.320 . S
O1757 C1778 1.260 . S
O1758 Tb1715 2.552 . S
O1758 C1771 1.243 . S
O1759 Tb1715 2.413 . S
O1759 C1779 1.256 . S
C1760 O1749 1.283 . S
C1760 O1752 1.243 . S
C1761 C1763 1.382 . S
C1761 C1765 1.393 . S
C1761 C1768 1.500 . S
C1762 C1763 1.400 . S
C1762 C1764 1.384 . S
C1763 C1761 1.382 . S
C1763 C1762 1.400 . S
C1763 H1780 0.930 . S
C1764 C1762 1.384 . S
C1764 C1766 1.392 . S
C1764 H1781 0.931 . S
C1765 C1761 1.393 . S
C1765 C1766 1.401 . S
C1765 H1782 0.930 . S
C1766 C1764 1.392 . S
C1766 C1765 1.401 . S
C1766 H1783 0.930 . S
C1767 O1750 1.262 . S
C1767 O1751 1.260 . S
C1768 Tb1704 2.833 . S
C1768 O1748 1.251 . S
C1768 O1753 1.256 . S
C1768 C1761 1.500 . S
C1769 H1734 0.929 . S
C1769 C1747 1.444 . S
C1769 C1770 1.317 . S
C1770 H1732 0.930 . S
C1770 C1738 1.432 . S
C1770 C1769 1.317 . S
C1771 O1755 1.283 . S
C1771 O1758 1.243 . S
C1772 C1773 1.382 . S
C1772 C1776 1.393 . S
C1772 C1779 1.500 . S
C1773 C1772 1.382 . S
C1773 C1774 1.400 . S
C1773 H1784 0.930 . S
C1774 C1773 1.400 . S
C1774 C1775 1.384 . S
C1775 C1774 1.384 . S
C1775 C1777 1.392 . S
C1775 H1785 0.931 . S
C1776 C1772 1.393 . S
C1776 C1777 1.401 . S
C1776 H1786 0.930 . S
C1777 C1775 1.392 . S
C1777 C1776 1.401 . S
C1777 H1787 0.930 . S
C1778 O1756 1.262 . S
C1778 O1757 1.260 . S
C1779 Tb1715 2.833 . S
C1779 O1754 1.251 . S
C1779 O1759 1.256 . S
C1779 C1772 1.500 . S
H1780 C1763 0.930 . S
H1781 C1764 0.931 . S
H1782 C1765 0.930 . S
H1783 C1766 0.930 . S
H1784 C1773 0.930 . S
H1785 C1775 0.931 . S
H1786 C1776 0.930 . S
H1787 C1777 0.930 . S
Tb1788 N1819 2.660 . S
Tb1788 N1826 2.600 . S
Tb1788 O1832 2.546 . S
Tb1788 O1833 2.610 . S
Tb1788 O1835 2.320 . S
Tb1788 O1836 2.552 . S
Tb1788 O1837 2.413 . S
Tb1788 O1839 2.362 . S
Tb1788 O1840 2.421 . S
Tb1788 C1852 2.833 . S
C1789 C1792 1.432 . S
C1789 C1793 1.414 . S
C1789 N1796 1.359 . S
C1790 C1792 1.417 . S
C1790 C1794 1.432 . S
C1790 C1802 1.410 . S
C1791 C1793 1.444 . S
C1791 C1794 1.317 . S
C1791 H1814 0.929 . S
C1792 C1789 1.432 . S
C1792 C1790 1.417 . S
C1792 N1800 1.360 . S
C1793 C1789 1.414 . S
C1793 C1791 1.444 . S
C1793 C1798 1.385 . S
C1794 C1790 1.432 . S
C1794 C1791 1.317 . S
C1794 H1806 0.930 . S
C1795 C1797 1.392 . S
C1795 C1798 1.370 . S
C1795 H1807 0.931 . S
N1796 C1789 1.359 . S
N1796 C1797 1.327 . S
N1796 Tb1799 2.600 . S
C1797 C1795 1.392 . S
C1797 N1796 1.327 . S
C1797 H1804 0.930 . S
C1798 C1793 1.385 . S
C1798 C1795 1.370 . S
C1798 H1817 0.930 . S
Tb1799 N1796 2.600 . S
Tb1799 N1800 2.660 . S
Tb1799 O1833 2.362 . S
Tb1799 O1834 2.421 . S
Tb1799 O1838 2.546 . S
Tb1799 O1839 2.610 . S
Tb1799 O1841 2.320 . S
Tb1799 O1842 2.552 . S
Tb1799 O1843 2.413 . S
Tb1799 C1863 2.833 . S
N1800 C1792 1.360 . S
N1800 Tb1799 2.660 . S
N1800 C1801 1.305 . S
C1801 N1800 1.305 . S
C1801 C1803 1.407 . S
C1801 H1808 0.930 . S
C1802 C1790 1.410 . S
C1802 C1803 1.345 . S
C1802 H1810 0.930 . S
C1803 C1801 1.407 . S
C1803 C1802 1.345 . S
C1803 H1805 0.930 . S
H1804 C1797 0.930 . S
H1805 C1803 0.930 . S
H1806 C1794 0.930 . S
H1807 C1795 0.931 . S
H1808 C1801 0.930 . S
H1809 C1823 0.930 . S
H1810 C1802 0.930 . S
H1811 C1829 0.930 . S
H1812 C1820 0.930 . S
H1813 C1827 0.931 . S
H1814 C1791 0.929 . S
H1815 C1821 0.930 . S
H1816 C1854 0.930 . S
H1817 C1798 0.930 . S
H1818 C1853 0.929 . S
N1819 Tb1788 2.660 . S
N1819 C1820 1.305 . S
N1819 C1824 1.360 . S
C1820 H1812 0.930 . S
C1820 N1819 1.305 . S
C1820 C1823 1.407 . S
C1821 H1815 0.930 . S
C1821 C1822 1.410 . S
C1821 C1823 1.345 . S
C1822 C1821 1.410 . S
C1822 C1824 1.417 . S
C1822 C1854 1.432 . S
C1823 H1809 0.930 . S
C1823 C1820 1.407 . S
C1823 C1821 1.345 . S
C1824 N1819 1.360 . S
C1824 C1822 1.417 . S
C1824 C1828 1.432 . S
H1825 C1830 0.930 . S
N1826 Tb1788 2.600 . S
N1826 C1828 1.359 . S
N1826 C1829 1.327 . S
C1827 H1813 0.931 . S
C1827 C1829 1.392 . S
C1827 C1830 1.370 . S
C1828 C1824 1.432 . S
C1828 N1826 1.359 . S
C1828 C1831 1.414 . S
C1829 H1811 0.930 . S
C1829 N1826 1.327 . S
C1829 C1827 1.392 . S
C1830 H1825 0.930 . S
C1830 C1827 1.370 . S
C1830 C1831 1.385 . S
C1831 C1828 1.414 . S
C1831 C1830 1.385 . S
C1831 C1853 1.444 . S
O1832 Tb1788 2.546 . S
O1832 C1852 1.251 . S
O1833 Tb1788 2.610 . S
O1833 Tb1799 2.362 . S
O1833 C1844 1.283 . S
O1834 Tb1799 2.421 . S
O1834 C1851 1.262 . S
O1835 Tb1788 2.320 . S
O1835 C1851 1.260 . S
O1836 Tb1788 2.552 . S
O1836 C1844 1.243 . S
O1837 Tb1788 2.413 . S
O1837 C1852 1.256 . S
O1838 Tb1799 2.546 . S
O1838 C1863 1.251 . S
O1839 Tb1788 2.362 . S
O1839 Tb1799 2.610 . S
O1839 C1855 1.283 . S
O1840 Tb1788 2.421 . S
O1840 C1862 1.262 . S
O1841 Tb1799 2.320 . S
O1841 C1862 1.260 . S
O1842 Tb1799 2.552 . S
O1842 C1855 1.243 . S
O1843 Tb1799 2.413 . S
O1843 C1863 1.256 . S
C1844 O1833 1.283 . S
C1844 O1836 1.243 . S
C1845 C1847 1.382 . S
C1845 C1849 1.393 . S
C1845 C1852 1.500 . S
C1846 C1847 1.400 . S
C1846 C1848 1.384 . S
C1847 C1845 1.382 . S
C1847 C1846 1.400 . S
C1847 H1864 0.930 . S
C1848 C1846 1.384 . S
C1848 C1850 1.392 . S
C1848 H1865 0.931 . S
C1849 C1845 1.393 . S
C1849 C1850 1.401 . S
C1849 H1866 0.930 . S
C1850 C1848 1.392 . S
C1850 C1849 1.401 . S
C1850 H1867 0.930 . S
C1851 O1834 1.262 . S
C1851 O1835 1.260 . S
C1852 Tb1788 2.833 . S
C1852 O1832 1.251 . S
C1852 O1837 1.256 . S
C1852 C1845 1.500 . S
C1853 H1818 0.929 . S
C1853 C1831 1.444 . S
C1853 C1854 1.317 . S
C1854 H1816 0.930 . S
C1854 C1822 1.432 . S
C1854 C1853 1.317 . S
C1855 O1839 1.283 . S
C1855 O1842 1.243 . S
C1856 C1857 1.382 . S
C1856 C1860 1.393 . S
C1856 C1863 1.500 . S
C1857 C1856 1.382 . S
C1857 C1858 1.400 . S
C1857 H1868 0.930 . S
C1858 C1857 1.400 . S
C1858 C1859 1.384 . S
C1859 C1858 1.384 . S
C1859 C1861 1.392 . S
C1859 H1869 0.931 . S
C1860 C1856 1.393 . S
C1860 C1861 1.401 . S
C1860 H1870 0.930 . S
C1861 C1859 1.392 . S
C1861 C1860 1.401 . S
C1861 H1871 0.930 . S
C1862 O1840 1.262 . S
C1862 O1841 1.260 . S
C1863 Tb1799 2.833 . S
C1863 O1838 1.251 . S
C1863 O1843 1.256 . S
C1863 C1856 1.500 . S
H1864 C1847 0.930 . S
H1865 C1848 0.931 . S
H1866 C1849 0.930 . S
H1867 C1850 0.930 . S
H1868 C1857 0.930 . S
H1869 C1859 0.931 . S
H1870 C1860 0.930 . S
H1871 C1861 0.930 . S
Tb1872 N1903 2.660 . S
Tb1872 N1910 2.600 . S
Tb1872 O1916 2.546 . S
Tb1872 O1917 2.610 . S
Tb1872 O1919 2.320 . S
Tb1872 O1920 2.552 . S
Tb1872 O1921 2.413 . S
Tb1872 O1923 2.362 . S
Tb1872 O1924 2.421 . S
Tb1872 C1936 2.833 . S
C1873 C1876 1.432 . S
C1873 C1877 1.414 . S
C1873 N1880 1.359 . S
C1874 C1876 1.417 . S
C1874 C1878 1.432 . S
C1874 C1886 1.410 . S
C1875 C1877 1.444 . S
C1875 C1878 1.317 . S
C1875 H1898 0.929 . S
C1876 C1873 1.432 . S
C1876 C1874 1.417 . S
C1876 N1884 1.360 . S
C1877 C1873 1.414 . S
C1877 C1875 1.444 . S
C1877 C1882 1.385 . S
C1878 C1874 1.432 . S
C1878 C1875 1.317 . S
C1878 H1890 0.930 . S
C1879 C1881 1.392 . S
C1879 C1882 1.370 . S
C1879 H1891 0.931 . S
N1880 C1873 1.359 . S
N1880 C1881 1.327 . S
N1880 Tb1883 2.600 . S
C1881 C1879 1.392 . S
C1881 N1880 1.327 . S
C1881 H1888 0.930 . S
C1882 C1877 1.385 . S
C1882 C1879 1.370 . S
C1882 H1901 0.930 . S
Tb1883 N1880 2.600 . S
Tb1883 N1884 2.660 . S
Tb1883 O1917 2.362 . S
Tb1883 O1918 2.421 . S
Tb1883 O1922 2.546 . S
Tb1883 O1923 2.610 . S
Tb1883 O1925 2.320 . S
Tb1883 O1926 2.552 . S
Tb1883 O1927 2.413 . S
Tb1883 C1947 2.833 . S
N1884 C1876 1.360 . S
N1884 Tb1883 2.660 . S
N1884 C1885 1.305 . S
C1885 N1884 1.305 . S
C1885 C1887 1.407 . S
C1885 H1892 0.930 . S
C1886 C1874 1.410 . S
C1886 C1887 1.345 . S
C1886 H1894 0.930 . S
C1887 C1885 1.407 . S
C1887 C1886 1.345 . S
C1887 H1889 0.930 . S
H1888 C1881 0.930 . S
H1889 C1887 0.930 . S
H1890 C1878 0.930 . S
H1891 C1879 0.931 . S
H1892 C1885 0.930 . S
H1893 C1907 0.930 . S
H1894 C1886 0.930 . S
H1895 C1913 0.930 . S
H1896 C1904 0.930 . S
H1897 C1911 0.931 . S
H1898 C1875 0.929 . S
H1899 C1905 0.930 . S
H1900 C1938 0.930 . S
H1901 C1882 0.930 . S
H1902 C1937 0.929 . S
N1903 Tb1872 2.660 . S
N1903 C1904 1.305 . S
N1903 C1908 1.360 . S
C1904 H1896 0.930 . S
C1904 N1903 1.305 . S
C1904 C1907 1.407 . S
C1905 H1899 0.930 . S
C1905 C1906 1.410 . S
C1905 C1907 1.345 . S
C1906 C1905 1.410 . S
C1906 C1908 1.417 . S
C1906 C1938 1.432 . S
C1907 H1893 0.930 . S
C1907 C1904 1.407 . S
C1907 C1905 1.345 . S
C1908 N1903 1.360 . S
C1908 C1906 1.417 . S
C1908 C1912 1.432 . S
H1909 C1914 0.930 . S
N1910 Tb1872 2.600 . S
N1910 C1912 1.359 . S
N1910 C1913 1.327 . S
C1911 H1897 0.931 . S
C1911 C1913 1.392 . S
C1911 C1914 1.370 . S
C1912 C1908 1.432 . S
C1912 N1910 1.359 . S
C1912 C1915 1.414 . S
C1913 H1895 0.930 . S
C1913 N1910 1.327 . S
C1913 C1911 1.392 . S
C1914 H1909 0.930 . S
C1914 C1911 1.370 . S
C1914 C1915 1.385 . S
C1915 C1912 1.414 . S
C1915 C1914 1.385 . S
C1915 C1937 1.444 . S
O1916 Tb1872 2.546 . S
O1916 C1936 1.251 . S
O1917 Tb1872 2.610 . S
O1917 Tb1883 2.362 . S
O1917 C1928 1.283 . S
O1918 Tb1883 2.421 . S
O1918 C1935 1.262 . S
O1919 Tb1872 2.320 . S
O1919 C1935 1.260 . S
O1920 Tb1872 2.552 . S
O1920 C1928 1.243 . S
O1921 Tb1872 2.413 . S
O1921 C1936 1.256 . S
O1922 Tb1883 2.546 . S
O1922 C1947 1.251 . S
O1923 Tb1872 2.362 . S
O1923 Tb1883 2.610 . S
O1923 C1939 1.283 . S
O1924 Tb1872 2.421 . S
O1924 C1946 1.262 . S
O1925 Tb1883 2.320 . S
O1925 C1946 1.260 . S
O1926 Tb1883 2.552 . S
O1926 C1939 1.243 . S
O1927 Tb1883 2.413 . S
O1927 C1947 1.256 . S
C1928 O1917 1.283 . S
C1928 O1920 1.243 . S
C1929 C1931 1.382 . S
C1929 C1933 1.393 . S
C1929 C1936 1.500 . S
C1930 C1931 1.400 . S
C1930 C1932 1.384 . S
C1931 C1929 1.382 . S
C1931 C1930 1.400 . S
C1931 H1948 0.930 . S
C1932 C1930 1.384 . S
C1932 C1934 1.392 . S
C1932 H1949 0.931 . S
C1933 C1929 1.393 . S
C1933 C1934 1.401 . S
C1933 H1950 0.930 . S
C1934 C1932 1.392 . S
C1934 C1933 1.401 . S
C1934 H1951 0.930 . S
C1935 O1918 1.262 . S
C1935 O1919 1.260 . S
C1936 Tb1872 2.833 . S
C1936 O1916 1.251 . S
C1936 O1921 1.256 . S
C1936 C1929 1.500 . S
C1937 H1902 0.929 . S
C1937 C1915 1.444 . S
C1937 C1938 1.317 . S
C1938 H1900 0.930 . S
C1938 C1906 1.432 . S
C1938 C1937 1.317 . S
C1939 O1923 1.283 . S
C1939 O1926 1.243 . S
C1940 C1941 1.382 . S
C1940 C1944 1.393 . S
C1940 C1947 1.500 . S
C1941 C1940 1.382 . S
C1941 C1942 1.400 . S
C1941 H1952 0.930 . S
C1942 C1941 1.400 . S
C1942 C1943 1.384 . S
C1943 C1942 1.384 . S
C1943 C1945 1.392 . S
C1943 H1953 0.931 . S
C1944 C1940 1.393 . S
C1944 C1945 1.401 . S
C1944 H1954 0.930 . S
C1945 C1943 1.392 . S
C1945 C1944 1.401 . S
C1945 H1955 0.930 . S
C1946 O1924 1.262 . S
C1946 O1925 1.260 . S
C1947 Tb1883 2.833 . S
C1947 O1922 1.251 . S
C1947 O1927 1.256 . S
C1947 C1940 1.500 . S
H1948 C1931 0.930 . S
H1949 C1932 0.931 . S
H1950 C1933 0.930 . S
H1951 C1934 0.930 . S
H1952 C1941 0.930 . S
H1953 C1943 0.931 . S
H1954 C1944 0.930 . S
H1955 C1945 0.930 . S
Tb1956 N1987 2.660 . S
Tb1956 N1994 2.600 . S
Tb1956 O2000 2.546 . S
Tb1956 O2001 2.610 . S
Tb1956 O2003 2.320 . S
Tb1956 O2004 2.552 . S
Tb1956 O2005 2.413 . S
Tb1956 O2007 2.362 . S
Tb1956 O2008 2.421 . S
Tb1956 C2020 2.833 . S
C1957 C1960 1.432 . S
C1957 C1961 1.414 . S
C1957 N1964 1.359 . S
C1958 C1960 1.417 . S
C1958 C1962 1.432 . S
C1958 C1970 1.410 . S
C1959 C1961 1.444 . S
C1959 C1962 1.317 . S
C1959 H1982 0.929 . S
C1960 C1957 1.432 . S
C1960 C1958 1.417 . S
C1960 N1968 1.360 . S
C1961 C1957 1.414 . S
C1961 C1959 1.444 . S
C1961 C1966 1.385 . S
C1962 C1958 1.432 . S
C1962 C1959 1.317 . S
C1962 H1974 0.930 . S
C1963 C1965 1.392 . S
C1963 C1966 1.370 . S
C1963 H1975 0.931 . S
N1964 C1957 1.359 . S
N1964 C1965 1.327 . S
N1964 Tb1967 2.600 . S
C1965 C1963 1.392 . S
C1965 N1964 1.327 . S
C1965 H1972 0.930 . S
C1966 C1961 1.385 . S
C1966 C1963 1.370 . S
C1966 H1985 0.930 . S
Tb1967 N1964 2.600 . S
Tb1967 N1968 2.660 . S
Tb1967 O2001 2.362 . S
Tb1967 O2002 2.421 . S
Tb1967 O2006 2.546 . S
Tb1967 O2007 2.610 . S
Tb1967 O2009 2.320 . S
Tb1967 O2010 2.552 . S
Tb1967 O2011 2.413 . S
Tb1967 C2031 2.833 . S
N1968 C1960 1.360 . S
N1968 Tb1967 2.660 . S
N1968 C1969 1.305 . S
C1969 N1968 1.305 . S
C1969 C1971 1.407 . S
C1969 H1976 0.930 . S
C1970 C1958 1.410 . S
C1970 C1971 1.345 . S
C1970 H1978 0.930 . S
C1971 C1969 1.407 . S
C1971 C1970 1.345 . S
C1971 H1973 0.930 . S
H1972 C1965 0.930 . S
H1973 C1971 0.930 . S
H1974 C1962 0.930 . S
H1975 C1963 0.931 . S
H1976 C1969 0.930 . S
H1977 C1991 0.930 . S
H1978 C1970 0.930 . S
H1979 C1997 0.930 . S
H1980 C1988 0.930 . S
H1981 C1995 0.931 . S
H1982 C1959 0.929 . S
H1983 C1989 0.930 . S
H1984 C2022 0.930 . S
H1985 C1966 0.930 . S
H1986 C2021 0.929 . S
N1987 Tb1956 2.660 . S
N1987 C1988 1.305 . S
N1987 C1992 1.360 . S
C1988 H1980 0.930 . S
C1988 N1987 1.305 . S
C1988 C1991 1.407 . S
C1989 H1983 0.930 . S
C1989 C1990 1.410 . S
C1989 C1991 1.345 . S
C1990 C1989 1.410 . S
C1990 C1992 1.417 . S
C1990 C2022 1.432 . S
C1991 H1977 0.930 . S
C1991 C1988 1.407 . S
C1991 C1989 1.345 . S
C1992 N1987 1.360 . S
C1992 C1990 1.417 . S
C1992 C1996 1.432 . S
H1993 C1998 0.930 . S
N1994 Tb1956 2.600 . S
N1994 C1996 1.359 . S
N1994 C1997 1.327 . S
C1995 H1981 0.931 . S
C1995 C1997 1.392 . S
C1995 C1998 1.370 . S
C1996 C1992 1.432 . S
C1996 N1994 1.359 . S
C1996 C1999 1.414 . S
C1997 H1979 0.930 . S
C1997 N1994 1.327 . S
C1997 C1995 1.392 . S
C1998 H1993 0.930 . S
C1998 C1995 1.370 . S
C1998 C1999 1.385 . S
C1999 C1996 1.414 . S
C1999 C1998 1.385 . S
C1999 C2021 1.444 . S
O2000 Tb1956 2.546 . S
O2000 C2020 1.251 . S
O2001 Tb1956 2.610 . S
O2001 Tb1967 2.362 . S
O2001 C2012 1.283 . S
O2002 Tb1967 2.421 . S
O2002 C2019 1.262 . S
O2003 Tb1956 2.320 . S
O2003 C2019 1.260 . S
O2004 Tb1956 2.552 . S
O2004 C2012 1.243 . S
O2005 Tb1956 2.413 . S
O2005 C2020 1.256 . S
O2006 Tb1967 2.546 . S
O2006 C2031 1.251 . S
O2007 Tb1956 2.362 . S
O2007 Tb1967 2.610 . S
O2007 C2023 1.283 . S
O2008 Tb1956 2.421 . S
O2008 C2030 1.262 . S
O2009 Tb1967 2.320 . S
O2009 C2030 1.260 . S
O2010 Tb1967 2.552 . S
O2010 C2023 1.243 . S
O2011 Tb1967 2.413 . S
O2011 C2031 1.256 . S
C2012 O2001 1.283 . S
C2012 O2004 1.243 . S
C2013 C2015 1.382 . S
C2013 C2017 1.393 . S
C2013 C2020 1.500 . S
C2014 C2015 1.400 . S
C2014 C2016 1.384 . S
C2015 C2013 1.382 . S
C2015 C2014 1.400 . S
C2015 H2032 0.930 . S
C2016 C2014 1.384 . S
C2016 C2018 1.392 . S
C2016 H2033 0.931 . S
C2017 C2013 1.393 . S
C2017 C2018 1.401 . S
C2017 H2034 0.930 . S
C2018 C2016 1.392 . S
C2018 C2017 1.401 . S
C2018 H2035 0.930 . S
C2019 O2002 1.262 . S
C2019 O2003 1.260 . S
C2020 Tb1956 2.833 . S
C2020 O2000 1.251 . S
C2020 O2005 1.256 . S
C2020 C2013 1.500 . S
C2021 H1986 0.929 . S
C2021 C1999 1.444 . S
C2021 C2022 1.317 . S
C2022 H1984 0.930 . S
C2022 C1990 1.432 . S
C2022 C2021 1.317 . S
C2023 O2007 1.283 . S
C2023 O2010 1.243 . S
C2024 C2025 1.382 . S
C2024 C2028 1.393 . S
C2024 C2031 1.500 . S
C2025 C2024 1.382 . S
C2025 C2026 1.400 . S
C2025 H2036 0.930 . S
C2026 C2025 1.400 . S
C2026 C2027 1.384 . S
C2027 C2026 1.384 . S
C2027 C2029 1.392 . S
C2027 H2037 0.931 . S
C2028 C2024 1.393 . S
C2028 C2029 1.401 . S
C2028 H2038 0.930 . S
C2029 C2027 1.392 . S
C2029 C2028 1.401 . S
C2029 H2039 0.930 . S
C2030 O2008 1.262 . S
C2030 O2009 1.260 . S
C2031 Tb1967 2.833 . S
C2031 O2006 1.251 . S
C2031 O2011 1.256 . S
C2031 C2024 1.500 . S
H2032 C2015 0.930 . S
H2033 C2016 0.931 . S
H2034 C2017 0.930 . S
H2035 C2018 0.930 . S
H2036 C2025 0.930 . S
H2037 C2027 0.931 . S
H2038 C2028 0.930 . S
H2039 C2029 0.930 . S
Tb2040 N2071 2.660 . S
Tb2040 N2078 2.600 . S
Tb2040 O2084 2.546 . S
Tb2040 O2085 2.610 . S
Tb2040 O2087 2.320 . S
Tb2040 O2088 2.552 . S
Tb2040 O2089 2.413 . S
Tb2040 O2091 2.362 . S
Tb2040 O2092 2.421 . S
Tb2040 C2104 2.833 . S
C2041 C2044 1.432 . S
C2041 C2045 1.414 . S
C2041 N2048 1.359 . S
C2042 C2044 1.417 . S
C2042 C2046 1.432 . S
C2042 C2054 1.410 . S
C2043 C2045 1.444 . S
C2043 C2046 1.317 . S
C2043 H2066 0.929 . S
C2044 C2041 1.432 . S
C2044 C2042 1.417 . S
C2044 N2052 1.360 . S
C2045 C2041 1.414 . S
C2045 C2043 1.444 . S
C2045 C2050 1.385 . S
C2046 C2042 1.432 . S
C2046 C2043 1.317 . S
C2046 H2058 0.930 . S
C2047 C2049 1.392 . S
C2047 C2050 1.370 . S
C2047 H2059 0.931 . S
N2048 C2041 1.359 . S
N2048 C2049 1.327 . S
N2048 Tb2051 2.600 . S
C2049 C2047 1.392 . S
C2049 N2048 1.327 . S
C2049 H2056 0.930 . S
C2050 C2045 1.385 . S
C2050 C2047 1.370 . S
C2050 H2069 0.930 . S
Tb2051 N2048 2.600 . S
Tb2051 N2052 2.660 . S
Tb2051 O2085 2.362 . S
Tb2051 O2086 2.421 . S
Tb2051 O2090 2.546 . S
Tb2051 O2091 2.610 . S
Tb2051 O2093 2.320 . S
Tb2051 O2094 2.552 . S
Tb2051 O2095 2.413 . S
Tb2051 C2115 2.833 . S
N2052 C2044 1.360 . S
N2052 Tb2051 2.660 . S
N2052 C2053 1.305 . S
C2053 N2052 1.305 . S
C2053 C2055 1.407 . S
C2053 H2060 0.930 . S
C2054 C2042 1.410 . S
C2054 C2055 1.345 . S
C2054 H2062 0.930 . S
C2055 C2053 1.407 . S
C2055 C2054 1.345 . S
C2055 H2057 0.930 . S
H2056 C2049 0.930 . S
H2057 C2055 0.930 . S
H2058 C2046 0.930 . S
H2059 C2047 0.931 . S
H2060 C2053 0.930 . S
H2061 C2075 0.930 . S
H2062 C2054 0.930 . S
H2063 C2081 0.930 . S
H2064 C2072 0.930 . S
H2065 C2079 0.931 . S
H2066 C2043 0.929 . S
H2067 C2073 0.930 . S
H2068 C2106 0.930 . S
H2069 C2050 0.930 . S
H2070 C2105 0.929 . S
N2071 Tb2040 2.660 . S
N2071 C2072 1.305 . S
N2071 C2076 1.360 . S
C2072 H2064 0.930 . S
C2072 N2071 1.305 . S
C2072 C2075 1.407 . S
C2073 H2067 0.930 . S
C2073 C2074 1.410 . S
C2073 C2075 1.345 . S
C2074 C2073 1.410 . S
C2074 C2076 1.417 . S
C2074 C2106 1.432 . S
C2075 H2061 0.930 . S
C2075 C2072 1.407 . S
C2075 C2073 1.345 . S
C2076 N2071 1.360 . S
C2076 C2074 1.417 . S
C2076 C2080 1.432 . S
H2077 C2082 0.930 . S
N2078 Tb2040 2.600 . S
N2078 C2080 1.359 . S
N2078 C2081 1.327 . S
C2079 H2065 0.931 . S
C2079 C2081 1.392 . S
C2079 C2082 1.370 . S
C2080 C2076 1.432 . S
C2080 N2078 1.359 . S
C2080 C2083 1.414 . S
C2081 H2063 0.930 . S
C2081 N2078 1.327 . S
C2081 C2079 1.392 . S
C2082 H2077 0.930 . S
C2082 C2079 1.370 . S
C2082 C2083 1.385 . S
C2083 C2080 1.414 . S
C2083 C2082 1.385 . S
C2083 C2105 1.444 . S
O2084 Tb2040 2.546 . S
O2084 C2104 1.251 . S
O2085 Tb2040 2.610 . S
O2085 Tb2051 2.362 . S
O2085 C2096 1.283 . S
O2086 Tb2051 2.421 . S
O2086 C2103 1.262 . S
O2087 Tb2040 2.320 . S
O2087 C2103 1.260 . S
O2088 Tb2040 2.552 . S
O2088 C2096 1.243 . S
O2089 Tb2040 2.413 . S
O2089 C2104 1.256 . S
O2090 Tb2051 2.546 . S
O2090 C2115 1.251 . S
O2091 Tb2040 2.362 . S
O2091 Tb2051 2.610 . S
O2091 C2107 1.283 . S
O2092 Tb2040 2.421 . S
O2092 C2114 1.262 . S
O2093 Tb2051 2.320 . S
O2093 C2114 1.260 . S
O2094 Tb2051 2.552 . S
O2094 C2107 1.243 . S
O2095 Tb2051 2.413 . S
O2095 C2115 1.256 . S
C2096 O2085 1.283 . S
C2096 O2088 1.243 . S
C2097 C2099 1.382 . S
C2097 C2101 1.393 . S
C2097 C2104 1.500 . S
C2098 C2099 1.400 . S
C2098 C2100 1.384 . S
C2099 C2097 1.382 . S
C2099 C2098 1.400 . S
C2099 H2116 0.930 . S
C2100 C2098 1.384 . S
C2100 C2102 1.392 . S
C2100 H2117 0.931 . S
C2101 C2097 1.393 . S
C2101 C2102 1.401 . S
C2101 H2118 0.930 . S
C2102 C2100 1.392 . S
C2102 C2101 1.401 . S
C2102 H2119 0.930 . S
C2103 O2086 1.262 . S
C2103 O2087 1.260 . S
C2104 Tb2040 2.833 . S
C2104 O2084 1.251 . S
C2104 O2089 1.256 . S
C2104 C2097 1.500 . S
C2105 H2070 0.929 . S
C2105 C2083 1.444 . S
C2105 C2106 1.317 . S
C2106 H2068 0.930 . S
C2106 C2074 1.432 . S
C2106 C2105 1.317 . S
C2107 O2091 1.283 . S
C2107 O2094 1.243 . S
C2108 C2109 1.382 . S
C2108 C2112 1.393 . S
C2108 C2115 1.500 . S
C2109 C2108 1.382 . S
C2109 C2110 1.400 . S
C2109 H2120 0.930 . S
C2110 C2109 1.400 . S
C2110 C2111 1.384 . S
C2111 C2110 1.384 . S
C2111 C2113 1.392 . S
C2111 H2121 0.931 . S
C2112 C2108 1.393 . S
C2112 C2113 1.401 . S
C2112 H2122 0.930 . S
C2113 C2111 1.392 . S
C2113 C2112 1.401 . S
C2113 H2123 0.930 . S
C2114 O2092 1.262 . S
C2114 O2093 1.260 . S
C2115 Tb2051 2.833 . S
C2115 O2090 1.251 . S
C2115 O2095 1.256 . S
C2115 C2108 1.500 . S
H2116 C2099 0.930 . S
H2117 C2100 0.931 . S
H2118 C2101 0.930 . S
H2119 C2102 0.930 . S
H2120 C2109 0.930 . S
H2121 C2111 0.931 . S
H2122 C2112 0.930 . S
H2123 C2113 0.930 . S
Tb2124 N2155 2.660 . S
Tb2124 N2162 2.600 1_554 S
Tb2124 O2168 2.546 1_554 S
Tb2124 O2169 2.610 . S
Tb2124 O2171 2.320 . S
Tb2124 O2172 2.552 . S
Tb2124 O2173 2.413 . S
Tb2124 O2175 2.362 . S
Tb2124 O2176 2.421 1_554 S
Tb2124 C2188 2.833 1_554 S
C2125 C2128 1.431 1_455 S
C2125 C2129 1.404 1_455 S
C2125 N2132 1.372 . S
C2126 C2128 1.417 . S
C2126 C2130 1.432 . S
C2126 C2138 1.410 1_554 S
C2127 C2129 1.444 . S
C2127 C2130 1.317 . S
C2127 H2150 0.929 . S
C2128 C2125 1.431 1_655 S
C2128 C2126 1.417 . S
C2128 N2136 1.360 1_655 S
C2129 C2125 1.404 1_655 S
C2129 C2127 1.444 . S
C2129 C2134 1.385 . S
C2130 C2126 1.432 . S
C2130 C2127 1.317 . S
C2130 H2142 0.930 . S
C2131 C2133 1.392 . S
C2131 C2134 1.370 1_455 S
C2131 H2143 0.931 . S
N2132 C2125 1.372 . S
N2132 C2133 1.327 . S
N2132 Tb2135 2.600 . S
C2133 C2131 1.392 . S
C2133 N2132 1.327 . S
C2133 H2140 0.930 . S
C2134 C2129 1.385 . S
C2134 C2131 1.370 1_655 S
C2134 H2153 0.930 . S
Tb2135 N2132 2.600 . S
Tb2135 N2136 2.660 . S
Tb2135 O2169 2.362 . S
Tb2135 O2170 2.421 . S
Tb2135 O2174 2.546 . S
Tb2135 O2175 2.610 . S
Tb2135 O2177 2.320 1_554 S
Tb2135 O2178 2.552 . S
Tb2135 O2179 2.360 1_455 S
Tb2135 C2199 2.833 1_455 S
N2136 C2128 1.360 1_455 S
N2136 Tb2135 2.660 . S
N2136 C2137 1.305 1_554 S
C2137 N2136 1.305 1_556 S
C2137 C2139 1.407 1_455 S
C2137 H2144 0.930 . S
C2138 C2126 1.410 1_556 S
C2138 C2139 1.345 . S
C2138 H2146 0.930 . S
C2139 C2137 1.407 1_655 S
C2139 C2138 1.345 . S
C2139 H2141 0.930 . S
H2140 C2133 0.930 . S
H2141 C2139 0.930 . S
H2142 C2130 0.930 . S
H2143 C2131 0.931 . S
H2144 C2137 0.930 . S
H2145 C2159 0.930 . S
H2146 C2138 0.930 . S
H2147 C2165 0.930 . S
H2148 C2156 0.930 . S
H2149 C2163 0.931 . S
H2150 C2127 0.929 . S
H2151 C2157 0.930 . S
H2152 C2190 0.930 . S
H2153 C2134 0.930 . S
H2154 C2189 0.929 . S
N2155 Tb2124 2.660 . S
N2155 C2156 1.305 . S
N2155 C2160 1.360 . S
C2156 H2148 0.930 . S
C2156 N2155 1.305 . S
C2156 C2159 1.407 . S
C2157 H2151 0.930 . S
C2157 C2158 1.410 . S
C2157 C2159 1.345 . S
C2158 C2157 1.410 . S
C2158 C2160 1.417 . S
C2158 C2190 1.432 . S
C2159 H2145 0.930 . S
C2159 C2156 1.407 . S
C2159 C2157 1.345 . S
C2160 N2155 1.360 . S
C2160 C2158 1.417 . S
C2160 C2164 1.432 1_554 S
H2161 C2166 0.930 . S
N2162 Tb2124 2.600 1_556 S
N2162 C2164 1.359 . S
N2162 C2165 1.327 . S
C2163 H2149 0.931 . S
C2163 C2165 1.392 . S
C2163 C2166 1.370 . S
C2164 C2160 1.432 1_556 S
C2164 N2162 1.359 . S
C2164 C2167 1.414 . S
C2165 H2147 0.930 . S
C2165 N2162 1.327 . S
C2165 C2163 1.392 . S
C2166 H2161 0.930 . S
C2166 C2163 1.370 . S
C2166 C2167 1.385 . S
C2167 C2164 1.414 . S
C2167 C2166 1.385 . S
C2167 C2189 1.444 . S
O2168 Tb2124 2.546 1_556 S
O2168 C2188 1.251 . S
O2169 Tb2124 2.610 . S
O2169 Tb2135 2.362 . S
O2169 C2180 1.283 . S
O2170 Tb2135 2.421 . S
O2170 C2187 1.262 . S
O2171 Tb2124 2.320 . S
O2171 C2187 1.260 . S
O2172 Tb2124 2.552 . S
O2172 C2180 1.243 . S
O2173 Tb2124 2.413 . S
O2173 C2188 1.256 1_554 S
O2174 Tb2135 2.546 . S
O2174 C2199 1.251 1_455 S
O2175 Tb2124 2.362 . S
O2175 Tb2135 2.610 . S
O2175 C2191 1.283 . S
O2176 Tb2124 2.421 1_556 S
O2176 C2198 1.262 . S
O2177 Tb2135 2.320 1_556 S
O2177 C2198 1.260 . S
O2178 Tb2135 2.552 . S
O2178 C2191 1.243 . S
O2179 Tb2135 2.360 1_655 S
O2179 C2199 1.272 . S
C2180 O2169 1.283 . S
C2180 O2172 1.243 . S
C2181 C2183 1.382 1_556 S
C2181 C2185 1.393 . S
C2181 C2188 1.500 . S
C2182 C2183 1.400 . S
C2182 C2184 1.384 1_554 S
C2183 C2181 1.382 1_554 S
C2183 C2182 1.400 . S
C2183 H2200 0.930 . S
C2184 C2182 1.384 1_556 S
C2184 C2186 1.392 . S
C2184 H2201 0.931 . S
C2185 C2181 1.393 . S
C2185 C2186 1.401 . S
C2185 H2202 0.930 . S
C2186 C2184 1.392 . S
C2186 C2185 1.401 . S
C2186 H2203 0.930 . S
C2187 O2170 1.262 . S
C2187 O2171 1.260 . S
C2188 Tb2124 2.833 1_556 S
C2188 O2168 1.251 . S
C2188 O2173 1.256 1_556 S
C2188 C2181 1.500 . S
C2189 H2154 0.929 . S
C2189 C2167 1.444 . S
C2189 C2190 1.317 1_556 S
C2190 H2152 0.930 . S
C2190 C2158 1.432 . S
C2190 C2189 1.317 1_554 S
C2191 O2175 1.283 . S
C2191 O2178 1.243 . S
C2192 C2193 1.382 . S
C2192 C2196 1.393 . S
C2192 C2199 1.500 . S
C2193 C2192 1.382 . S
C2193 C2194 1.400 . S
C2193 H2204 0.930 . S
C2194 C2193 1.400 . S
C2194 C2195 1.384 . S
C2195 C2194 1.384 . S
C2195 C2197 1.392 . S
C2195 H2205 0.931 . S
C2196 C2192 1.393 . S
C2196 C2197 1.401 . S
C2196 H2206 0.930 . S
C2197 C2195 1.392 . S
C2197 C2196 1.401 . S
C2197 H2207 0.930 . S
C2198 O2176 1.262 . S
C2198 O2177 1.260 . S
C2199 Tb2135 2.833 1_655 S
C2199 O2174 1.251 1_655 S
C2199 O2179 1.272 . S
C2199 C2192 1.500 . S
H2200 C2183 0.930 . S
H2201 C2184 0.931 . S
H2202 C2185 0.930 . S
H2203 C2186 0.930 . S
H2204 C2193 0.930 . S
H2205 C2195 0.931 . S
H2206 C2196 0.930 . S
H2207 C2197 0.930 . S
H2208 C2216 0.929 1_655 S
H2209 C2218 0.930 1_655 S
H2210 C2220 0.930 . S
H2211 C2223 0.929 . S
H2212 C2226 0.930 . S
H2213 C2228 0.960 1_554 S
H2214 C2228 0.960 1_554 S
H2215 C2228 0.960 . S
C2216 H2208 0.929 1_455 S
C2216 C2217 1.377 . S
C2216 C2218 1.384 . S
C2217 C2216 1.377 . S
C2217 C2223 1.390 . S
C2218 H2209 0.930 1_455 S
C2218 C2216 1.384 . S
C2218 C2219 1.372 . S
C2219 C2218 1.372 . S
C2219 C2220 1.400 . S
C2219 C2224 1.490 . S
C2220 H2210 0.930 . S
C2220 C2219 1.400 . S
C2220 C2223 1.386 . S
H2221 C2237 0.930 . S
H2222 C2238 0.931 . S
C2223 H2211 0.929 . S
C2223 C2217 1.390 . S
C2223 C2220 1.386 . S
C2224 C2219 1.490 . S
C2224 C2226 1.395 . S
C2224 C2227 1.403 . S
H2225 C2231 0.930 1_554 S
C2226 H2212 0.930 . S
C2226 C2224 1.395 . S
C2226 C2229 1.403 . S
C2227 C2224 1.403 . S
C2227 C2228 1.524 . S
C2227 C2231 1.400 . S
C2228 H2213 0.960 1_556 S
C2228 H2214 0.960 1_556 S
C2228 H2215 0.960 . S
C2228 C2227 1.524 . S
C2229 C2226 1.403 . S
C2229 C2230 1.392 . S
C2229 C2233 1.502 . S
C2230 C2229 1.392 . S
C2230 C2231 1.385 . S
C2230 C2232 1.478 . S
C2231 H2225 0.930 1_556 S
C2231 C2227 1.400 . S
C2231 C2230 1.385 . S
C2232 C2230 1.478 . S
C2232 C2234 1.381 1_556 S
C2232 C2238 1.383 . S
C2233 C2229 1.502 . S
C2233 H2239 0.949 1_455 S
C2233 H2240 0.970 . S
C2233 H2241 0.954 1_455 S
C2234 C2232 1.381 1_554 S
C2234 C2235 1.394 . S
C2234 H2242 0.930 . S
C2235 C2234 1.394 . S
C2235 C2236 1.383 . S
C2235 H2243 0.929 . S
C2236 C2235 1.383 . S
C2236 C2237 1.377 1_554 S
C2237 H2221 0.930 . S
C2237 C2236 1.377 1_556 S
C2237 C2238 1.379 . S
C2238 H2222 0.931 . S
C2238 C2232 1.383 . S
C2238 C2237 1.379 . S
H2239 C2233 0.949 1_655 S
H2240 C2233 0.970 . S
H2241 C2233 0.954 1_655 S
H2242 C2234 0.930 . S
H2243 C2235 0.929 . S
H2244 C2252 0.929 . S
H2245 C2254 0.930 . S
H2246 C2256 0.930 . S
H2247 C2259 0.929 . S
H2248 C2262 0.930 . S
H2249 C2264 0.960 . S
H2250 C2264 0.960 . S
H2251 C2264 0.960 . S
C2252 H2244 0.929 . S
C2252 C2253 1.377 . S
C2252 C2254 1.384 . S
C2253 C2252 1.377 . S
C2253 C2259 1.390 . S
C2254 H2245 0.930 . S
C2254 C2252 1.384 . S
C2254 C2255 1.372 . S
C2255 C2254 1.372 . S
C2255 C2256 1.400 . S
C2255 C2260 1.490 . S
C2256 H2246 0.930 . S
C2256 C2255 1.400 . S
C2256 C2259 1.386 . S
H2257 C2273 0.930 . S
H2258 C2274 0.931 . S
C2259 H2247 0.929 . S
C2259 C2253 1.390 . S
C2259 C2256 1.386 . S
C2260 C2255 1.490 . S
C2260 C2262 1.395 . S
C2260 C2263 1.403 . S
H2261 C2267 0.930 . S
C2262 H2248 0.930 . S
C2262 C2260 1.395 . S
C2262 C2265 1.403 . S
C2263 C2260 1.403 . S
C2263 C2264 1.524 . S
C2263 C2267 1.400 . S
C2264 H2249 0.960 . S
C2264 H2250 0.960 . S
C2264 H2251 0.960 . S
C2264 C2263 1.524 . S
C2265 C2262 1.403 . S
C2265 C2266 1.392 . S
C2265 C2269 1.495 . S
C2266 C2265 1.392 . S
C2266 C2267 1.385 . S
C2266 C2268 1.478 . S
C2267 H2261 0.930 . S
C2267 C2263 1.400 . S
C2267 C2266 1.385 . S
C2268 C2266 1.478 . S
C2268 C2270 1.381 . S
C2268 C2274 1.383 . S
C2269 C2265 1.495 . S
C2269 H2275 0.959 . S
C2269 H2276 0.961 . S
C2269 H2277 0.960 . S
C2270 C2268 1.381 . S
C2270 C2271 1.394 . S
C2270 H2278 0.930 . S
C2271 C2270 1.394 . S
C2271 C2272 1.383 . S
C2271 H2279 0.929 . S
C2272 C2271 1.383 . S
C2272 C2273 1.377 . S
C2273 H2257 0.930 . S
C2273 C2272 1.377 . S
C2273 C2274 1.379 . S
C2274 H2258 0.931 . S
C2274 C2268 1.383 . S
C2274 C2273 1.379 . S
H2275 C2269 0.959 . S
H2276 C2269 0.961 . S
H2277 C2269 0.960 . S
H2278 C2270 0.930 . S
H2279 C2271 0.929 . S
H2280 C2288 0.929 . S
H2281 C2290 0.930 . S
H2282 C2292 0.930 . S
H2283 C2295 0.929 . S
H2284 C2298 0.930 . S
H2285 C2300 0.960 . S
H2286 C2300 0.960 . S
H2287 C2300 0.960 . S
C2288 H2280 0.929 . S
C2288 C2289 1.377 . S
C2288 C2290 1.384 . S
C2289 C2288 1.377 . S
C2289 C2295 1.390 . S
C2290 H2281 0.930 . S
C2290 C2288 1.384 . S
C2290 C2291 1.372 . S
C2291 C2290 1.372 . S
C2291 C2292 1.400 . S
C2291 C2296 1.490 . S
C2292 H2282 0.930 . S
C2292 C2291 1.400 . S
C2292 C2295 1.386 . S
H2293 C2309 0.930 . S
H2294 C2310 0.931 . S
C2295 H2283 0.929 . S
C2295 C2289 1.390 . S
C2295 C2292 1.386 . S
C2296 C2291 1.490 . S
C2296 C2298 1.395 . S
C2296 C2299 1.403 . S
H2297 C2303 0.930 . S
C2298 H2284 0.930 . S
C2298 C2296 1.395 . S
C2298 C2301 1.403 . S
C2299 C2296 1.403 . S
C2299 C2300 1.524 . S
C2299 C2303 1.400 . S
C2300 H2285 0.960 . S
C2300 H2286 0.960 . S
C2300 H2287 0.960 . S
C2300 C2299 1.524 . S
C2301 C2298 1.403 . S
C2301 C2302 1.392 . S
C2301 C2305 1.495 . S
C2302 C2301 1.392 . S
C2302 C2303 1.385 . S
C2302 C2304 1.478 . S
C2303 H2297 0.930 . S
C2303 C2299 1.400 . S
C2303 C2302 1.385 . S
C2304 C2302 1.478 . S
C2304 C2306 1.381 . S
C2304 C2310 1.383 . S
C2305 C2301 1.495 . S
C2305 H2311 0.959 . S
C2305 H2312 0.961 . S
C2305 H2313 0.960 . S
C2306 C2304 1.381 . S
C2306 C2307 1.394 . S
C2306 H2314 0.930 . S
C2307 C2306 1.394 . S
C2307 C2308 1.383 . S
C2307 H2315 0.929 . S
C2308 C2307 1.383 . S
C2308 C2309 1.377 . S
C2309 H2293 0.930 . S
C2309 C2308 1.377 . S
C2309 C2310 1.379 . S
C2310 H2294 0.931 . S
C2310 C2304 1.383 . S
C2310 C2309 1.379 . S
H2311 C2305 0.959 . S
H2312 C2305 0.961 . S
H2313 C2305 0.960 . S
H2314 C2306 0.930 . S
H2315 C2307 0.929 . S
H2316 C2324 0.929 . S
H2317 C2326 0.930 . S
H2318 C2328 0.930 . S
H2319 C2331 0.929 . S
H2320 C2334 0.930 . S
H2321 C2336 0.960 . S
H2322 C2336 0.960 . S
H2323 C2336 0.960 . S
C2324 H2316 0.929 . S
C2324 C2325 1.377 . S
C2324 C2326 1.384 . S
C2325 C2324 1.377 . S
C2325 C2331 1.390 . S
C2326 H2317 0.930 . S
C2326 C2324 1.384 . S
C2326 C2327 1.372 . S
C2327 C2326 1.372 . S
C2327 C2328 1.400 . S
C2327 C2332 1.490 . S
C2328 H2318 0.930 . S
C2328 C2327 1.400 . S
C2328 C2331 1.386 . S
H2329 C2345 0.930 . S
H2330 C2346 0.931 . S
C2331 H2319 0.929 . S
C2331 C2325 1.390 . S
C2331 C2328 1.386 . S
C2332 C2327 1.490 . S
C2332 C2334 1.395 . S
C2332 C2335 1.403 . S
H2333 C2339 0.930 . S
C2334 H2320 0.930 . S
C2334 C2332 1.395 . S
C2334 C2337 1.403 . S
C2335 C2332 1.403 . S
C2335 C2336 1.524 . S
C2335 C2339 1.400 . S
C2336 H2321 0.960 . S
C2336 H2322 0.960 . S
C2336 H2323 0.960 . S
C2336 C2335 1.524 . S
C2337 C2334 1.403 . S
C2337 C2338 1.392 . S
C2337 C2341 1.495 . S
C2338 C2337 1.392 . S
C2338 C2339 1.385 . S
C2338 C2340 1.478 . S
C2339 H2333 0.930 . S
C2339 C2335 1.400 . S
C2339 C2338 1.385 . S
C2340 C2338 1.478 . S
C2340 C2342 1.381 . S
C2340 C2346 1.383 . S
C2341 C2337 1.495 . S
C2341 H2347 0.959 . S
C2341 H2348 0.961 . S
C2341 H2349 0.960 . S
C2342 C2340 1.381 . S
C2342 C2343 1.394 . S
C2342 H2350 0.930 . S
C2343 C2342 1.394 . S
C2343 C2344 1.383 . S
C2343 H2351 0.929 . S
C2344 C2343 1.383 . S
C2344 C2345 1.377 . S
C2345 H2329 0.930 . S
C2345 C2344 1.377 . S
C2345 C2346 1.379 . S
C2346 H2330 0.931 . S
C2346 C2340 1.383 . S
C2346 C2345 1.379 . S
H2347 C2341 0.959 . S
H2348 C2341 0.961 . S
H2349 C2341 0.960 . S
H2350 C2342 0.930 . S
H2351 C2343 0.929 . S
H2352 C2360 0.929 . S
H2353 C2362 0.930 . S
H2354 C2364 0.930 . S
H2355 C2367 0.929 . S
H2356 C2370 0.935 . S
H2357 C2372 0.960 . S
H2358 C2372 0.960 . S
H2359 C2372 0.960 . S
C2360 H2352 0.929 . S
C2360 C2361 1.377 1_655 S
C2360 C2362 1.384 . S
C2361 C2360 1.377 1_455 S
C2361 C2367 1.390 . S
C2362 H2353 0.930 . S
C2362 C2360 1.384 . S
C2362 C2363 1.372 1_655 S
C2363 C2362 1.372 1_455 S
C2363 C2364 1.400 . S
C2363 C2368 1.490 . S
C2364 H2354 0.930 . S
C2364 C2363 1.400 . S
C2364 C2367 1.386 . S
H2365 C2381 0.930 . S
H2366 C2382 0.931 . S
C2367 H2355 0.929 . S
C2367 C2361 1.390 . S
C2367 C2364 1.386 . S
C2368 C2363 1.490 . S
C2368 C2370 1.395 . S
C2368 C2371 1.403 . S
H2369 C2375 0.930 . S
C2370 H2356 0.935 . S
C2370 C2368 1.395 . S
C2370 C2373 1.403 . S
C2371 C2368 1.403 . S
C2371 C2372 1.524 . S
C2371 C2375 1.400 . S
C2372 H2357 0.960 . S
C2372 H2358 0.960 . S
C2372 H2359 0.960 . S
C2372 C2371 1.524 . S
C2373 C2370 1.403 . S
C2373 C2374 1.392 . S
C2373 C2377 1.495 . S
C2374 C2373 1.392 . S
C2374 C2375 1.385 . S
C2374 C2376 1.478 . S
C2375 H2369 0.930 . S
C2375 C2371 1.400 . S
C2375 C2374 1.385 . S
C2376 C2374 1.478 . S
C2376 C2378 1.381 . S
C2376 C2382 1.383 . S
C2377 C2373 1.495 . S
C2377 H2383 0.959 1_455 S
C2377 H2384 0.961 . S
C2377 H2385 0.960 1_455 S
C2378 C2376 1.381 . S
C2378 C2379 1.394 . S
C2378 H2386 0.930 . S
C2379 C2378 1.394 . S
C2379 C2380 1.383 . S
C2379 H2387 0.929 . S
C2380 C2379 1.383 . S
C2380 C2381 1.377 . S
C2381 H2365 0.930 . S
C2381 C2380 1.377 . S
C2381 C2382 1.379 . S
C2382 H2366 0.931 . S
C2382 C2376 1.383 . S
C2382 C2381 1.379 . S
H2383 C2377 0.959 1_655 S
H2384 C2377 0.961 . S
H2385 C2377 0.960 1_655 S
H2386 C2378 0.930 . S
H2387 C2379 0.929 . S
H2388 C2396 0.929 . S
H2389 C2398 0.930 . S
H2390 C2400 0.930 . S
H2391 C2403 0.929 . S
H2392 C2406 0.930 . S
H2393 C2408 0.960 . S
H2394 C2408 0.960 . S
H2395 C2408 0.960 . S
C2396 H2388 0.929 . S
C2396 C2397 1.377 . S
C2396 C2398 1.384 . S
C2397 C2396 1.377 . S
C2397 C2403 1.390 . S
C2398 H2389 0.930 . S
C2398 C2396 1.384 . S
C2398 C2399 1.372 . S
C2399 C2398 1.372 . S
C2399 C2400 1.400 . S
C2399 C2404 1.490 . S
C2400 H2390 0.930 . S
C2400 C2399 1.400 . S
C2400 C2403 1.386 . S
H2401 C2417 0.930 . S
H2402 C2418 0.931 . S
C2403 H2391 0.929 . S
C2403 C2397 1.390 . S
C2403 C2400 1.386 . S
C2404 C2399 1.490 . S
C2404 C2406 1.395 . S
C2404 C2407 1.403 . S
H2405 C2411 0.930 . S
C2406 H2392 0.930 . S
C2406 C2404 1.395 . S
C2406 C2409 1.403 . S
C2407 C2404 1.403 . S
C2407 C2408 1.524 . S
C2407 C2411 1.400 . S
C2408 H2393 0.960 . S
C2408 H2394 0.960 . S
C2408 H2395 0.960 . S
C2408 C2407 1.524 . S
C2409 C2406 1.403 . S
C2409 C2410 1.392 . S
C2409 C2413 1.495 . S
C2410 C2409 1.392 . S
C2410 C2411 1.385 . S
C2410 C2412 1.478 . S
C2411 H2405 0.930 . S
C2411 C2407 1.400 . S
C2411 C2410 1.385 . S
C2412 C2410 1.478 . S
C2412 C2414 1.381 . S
C2412 C2418 1.383 . S
C2413 C2409 1.495 . S
C2413 H2419 0.959 . S
C2413 H2420 0.961 . S
C2413 H2421 0.960 . S
C2414 C2412 1.381 . S
C2414 C2415 1.394 . S
C2414 H2422 0.930 . S
C2415 C2414 1.394 . S
C2415 C2416 1.383 . S
C2415 H2423 0.929 . S
C2416 C2415 1.383 . S
C2416 C2417 1.377 . S
C2417 H2401 0.930 . S
C2417 C2416 1.377 . S
C2417 C2418 1.379 . S
C2418 H2402 0.931 . S
C2418 C2412 1.383 . S
C2418 C2417 1.379 . S
H2419 C2413 0.959 . S
H2420 C2413 0.961 . S
H2421 C2413 0.960 . S
H2422 C2414 0.930 . S
H2423 C2415 0.929 . S
H2424 C2432 0.929 . S
H2425 C2434 0.930 . S
H2426 C2436 0.930 . S
H2427 C2439 0.929 . S
H2428 C2442 0.930 . S
H2429 C2444 0.960 . S
H2430 C2444 0.960 . S
H2431 C2444 0.960 . S
C2432 H2424 0.929 . S
C2432 C2433 1.377 . S
C2432 C2434 1.384 . S
C2433 C2432 1.377 . S
C2433 C2439 1.390 . S
C2434 H2425 0.930 . S
C2434 C2432 1.384 . S
C2434 C2435 1.372 . S
C2435 C2434 1.372 . S
C2435 C2436 1.400 . S
C2435 C2440 1.490 . S
C2436 H2426 0.930 . S
C2436 C2435 1.400 . S
C2436 C2439 1.386 . S
H2437 C2453 0.930 . S
H2438 C2454 0.931 . S
C2439 H2427 0.929 . S
C2439 C2433 1.390 . S
C2439 C2436 1.386 . S
C2440 C2435 1.490 . S
C2440 C2442 1.395 . S
C2440 C2443 1.403 . S
H2441 C2447 0.930 . S
C2442 H2428 0.930 . S
C2442 C2440 1.395 . S
C2442 C2445 1.403 . S
C2443 C2440 1.403 . S
C2443 C2444 1.524 . S
C2443 C2447 1.400 . S
C2444 H2429 0.960 . S
C2444 H2430 0.960 . S
C2444 H2431 0.960 . S
C2444 C2443 1.524 . S
C2445 C2442 1.403 . S
C2445 C2446 1.392 . S
C2445 C2449 1.495 . S
C2446 C2445 1.392 . S
C2446 C2447 1.385 . S
C2446 C2448 1.478 . S
C2447 H2441 0.930 . S
C2447 C2443 1.400 . S
C2447 C2446 1.385 . S
C2448 C2446 1.478 . S
C2448 C2450 1.381 . S
C2448 C2454 1.383 . S
C2449 C2445 1.495 . S
C2449 H2455 0.959 . S
C2449 H2456 0.961 . S
C2449 H2457 0.960 . S
C2450 C2448 1.381 . S
C2450 C2451 1.394 . S
C2450 H2458 0.930 . S
C2451 C2450 1.394 . S
C2451 C2452 1.383 . S
C2451 H2459 0.929 . S
C2452 C2451 1.383 . S
C2452 C2453 1.377 . S
C2453 H2437 0.930 . S
C2453 C2452 1.377 . S
C2453 C2454 1.379 . S
C2454 H2438 0.931 . S
C2454 C2448 1.383 . S
C2454 C2453 1.379 . S
H2455 C2449 0.959 . S
H2456 C2449 0.961 . S
H2457 C2449 0.960 . S
H2458 C2450 0.930 . S
H2459 C2451 0.929 . S
H2460 C2468 0.929 . S
H2461 C2470 0.930 . S
H2462 C2472 0.930 . S
H2463 C2475 0.929 . S
H2464 C2478 0.930 . S
H2465 C2480 0.960 . S
H2466 C2480 0.960 . S
H2467 C2480 0.960 . S
C2468 H2460 0.929 . S
C2468 C2469 1.377 . S
C2468 C2470 1.384 . S
C2469 C2468 1.377 . S
C2469 C2475 1.390 . S
C2470 H2461 0.930 . S
C2470 C2468 1.384 . S
C2470 C2471 1.372 . S
C2471 C2470 1.372 . S
C2471 C2472 1.400 . S
C2471 C2476 1.490 . S
C2472 H2462 0.930 . S
C2472 C2471 1.400 . S
C2472 C2475 1.386 . S
H2473 C2489 0.930 . S
H2474 C2490 0.931 . S
C2475 H2463 0.929 . S
C2475 C2469 1.390 . S
C2475 C2472 1.386 . S
C2476 C2471 1.490 . S
C2476 C2478 1.395 . S
C2476 C2479 1.403 . S
H2477 C2483 0.930 . S
C2478 H2464 0.930 . S
C2478 C2476 1.395 . S
C2478 C2481 1.403 . S
C2479 C2476 1.403 . S
C2479 C2480 1.524 . S
C2479 C2483 1.400 . S
C2480 H2465 0.960 . S
C2480 H2466 0.960 . S
C2480 H2467 0.960 . S
C2480 C2479 1.524 . S
C2481 C2478 1.403 . S
C2481 C2482 1.392 . S
C2481 C2485 1.495 . S
C2482 C2481 1.392 . S
C2482 C2483 1.385 . S
C2482 C2484 1.478 . S
C2483 H2477 0.930 . S
C2483 C2479 1.400 . S
C2483 C2482 1.385 . S
C2484 C2482 1.478 . S
C2484 C2486 1.381 . S
C2484 C2490 1.383 . S
C2485 C2481 1.495 . S
C2485 H2491 0.959 . S
C2485 H2492 0.961 . S
C2485 H2493 0.960 . S
C2486 C2484 1.381 . S
C2486 C2487 1.394 . S
C2486 H2494 0.930 . S
C2487 C2486 1.394 . S
C2487 C2488 1.383 . S
C2487 H2495 0.929 . S
C2488 C2487 1.383 . S
C2488 C2489 1.377 . S
C2489 H2473 0.930 . S
C2489 C2488 1.377 . S
C2489 C2490 1.379 . S
C2490 H2474 0.931 . S
C2490 C2484 1.383 . S
C2490 C2489 1.379 . S
H2491 C2485 0.959 . S
H2492 C2485 0.961 . S
H2493 C2485 0.960 . S
H2494 C2486 0.930 . S
H2495 C2487 0.929 . S
H2496 C2504 0.929 . S
H2497 C2506 0.930 1_455 S
H2498 C2508 0.930 . S
H2499 C2511 0.929 . S
H2500 C2514 0.930 . S
H2501 C2516 0.960 . S
H2502 C2516 0.960 . S
H2503 C2516 0.960 . S
C2504 H2496 0.929 . S
C2504 C2505 1.377 . S
C2504 C2506 1.384 . S
C2505 C2504 1.377 . S
C2505 C2511 1.390 . S
C2506 H2497 0.930 1_655 S
C2506 C2504 1.384 . S
C2506 C2507 1.372 . S
C2507 C2506 1.372 . S
C2507 C2508 1.400 . S
C2507 C2512 1.490 . S
C2508 H2498 0.930 . S
C2508 C2507 1.400 . S
C2508 C2511 1.386 . S
H2509 C2525 0.930 . S
H2510 C2526 0.931 1_655 S
C2511 H2499 0.929 . S
C2511 C2505 1.390 . S
C2511 C2508 1.386 . S
C2512 C2507 1.490 . S
C2512 C2514 1.395 1_655 S
C2512 C2515 1.403 . S
H2513 C2519 0.930 . S
C2514 H2500 0.930 . S
C2514 C2512 1.395 1_455 S
C2514 C2517 1.403 . S
C2515 C2512 1.403 . S
C2515 C2516 1.524 . S
C2515 C2519 1.400 . S
C2516 H2501 0.960 . S
C2516 H2502 0.960 . S
C2516 H2503 0.960 . S
C2516 C2515 1.524 . S
C2517 C2514 1.403 . S
C2517 C2518 1.392 . S
C2517 C2521 1.495 . S
C2518 C2517 1.392 . S
C2518 C2519 1.385 1_455 S
C2518 C2520 1.478 . S
C2519 H2513 0.930 . S
C2519 C2515 1.400 . S
C2519 C2518 1.385 1_655 S
C2520 C2518 1.478 . S
C2520 C2522 1.381 . S
C2520 C2526 1.383 . S
C2521 C2517 1.495 . S
C2521 H2527 0.959 . S
C2521 H2528 0.961 . S
C2521 H2529 0.960 . S
C2522 C2520 1.381 . S
C2522 C2523 1.394 . S
C2522 H2530 0.930 . S
C2523 C2522 1.394 . S
C2523 C2524 1.383 . S
C2523 H2531 0.929 . S
C2524 C2523 1.383 . S
C2524 C2525 1.377 . S
C2525 H2509 0.930 . S
C2525 C2524 1.377 . S
C2525 C2526 1.379 . S
C2526 H2510 0.931 1_455 S
C2526 C2520 1.383 . S
C2526 C2525 1.379 . S
H2527 C2521 0.959 . S
H2528 C2521 0.961 . S
H2529 C2521 0.960 . S
H2530 C2522 0.930 . S
H2531 C2523 0.929 . S
H2532 C2540 0.929 . S
H2533 C2542 0.930 . S
H2534 C2544 0.930 . S
H2535 C2547 0.929 . S
H2536 C2550 0.930 . S
H2537 C2552 0.960 . S
H2538 C2552 0.960 . S
H2539 C2552 0.960 . S
C2540 H2532 0.929 . S
C2540 C2541 1.377 . S
C2540 C2542 1.384 . S
C2541 C2540 1.377 . S
C2541 C2547 1.390 . S
C2542 H2533 0.930 . S
C2542 C2540 1.384 . S
C2542 C2543 1.372 . S
C2543 C2542 1.372 . S
C2543 C2544 1.400 . S
C2543 C2548 1.490 . S
C2544 H2534 0.930 . S
C2544 C2543 1.400 . S
C2544 C2547 1.386 . S
H2545 C2561 0.930 . S
H2546 C2562 0.931 . S
C2547 H2535 0.929 . S
C2547 C2541 1.390 . S
C2547 C2544 1.386 . S
C2548 C2543 1.490 . S
C2548 C2550 1.395 . S
C2548 C2551 1.403 . S
H2549 C2555 0.930 . S
C2550 H2536 0.930 . S
C2550 C2548 1.395 . S
C2550 C2553 1.403 . S
C2551 C2548 1.403 . S
C2551 C2552 1.524 . S
C2551 C2555 1.400 . S
C2552 H2537 0.960 . S
C2552 H2538 0.960 . S
C2552 H2539 0.960 . S
C2552 C2551 1.524 . S
C2553 C2550 1.403 . S
C2553 C2554 1.392 . S
C2553 C2557 1.495 . S
C2554 C2553 1.392 . S
C2554 C2555 1.385 . S
C2554 C2556 1.478 . S
C2555 H2549 0.930 . S
C2555 C2551 1.400 . S
C2555 C2554 1.385 . S
C2556 C2554 1.478 . S
C2556 C2558 1.381 . S
C2556 C2562 1.383 . S
C2557 C2553 1.495 . S
C2557 H2563 0.959 . S
C2557 H2564 0.961 . S
C2557 H2565 0.960 . S
C2558 C2556 1.381 . S
C2558 C2559 1.394 . S
C2558 H2566 0.930 . S
C2559 C2558 1.394 . S
C2559 C2560 1.383 . S
C2559 H2567 0.929 . S
C2560 C2559 1.383 . S
C2560 C2561 1.377 . S
C2561 H2545 0.930 . S
C2561 C2560 1.377 . S
C2561 C2562 1.379 . S
C2562 H2546 0.931 . S
C2562 C2556 1.383 . S
C2562 C2561 1.379 . S
H2563 C2557 0.959 . S
H2564 C2557 0.961 . S
H2565 C2557 0.960 . S
H2566 C2558 0.930 . S
H2567 C2559 0.929 . S
H2568 C2576 0.929 . S
H2569 C2578 0.930 . S
H2570 C2580 0.930 . S
H2571 C2583 0.929 . S
H2572 C2586 0.930 . S
H2573 C2588 0.960 . S
H2574 C2588 0.960 . S
H2575 C2588 0.960 . S
C2576 H2568 0.929 . S
C2576 C2577 1.377 . S
C2576 C2578 1.384 . S
C2577 C2576 1.377 . S
C2577 C2583 1.390 . S
C2578 H2569 0.930 . S
C2578 C2576 1.384 . S
C2578 C2579 1.372 . S
C2579 C2578 1.372 . S
C2579 C2580 1.400 . S
C2579 C2584 1.490 . S
C2580 H2570 0.930 . S
C2580 C2579 1.400 . S
C2580 C2583 1.386 . S
H2581 C2597 0.930 . S
H2582 C2598 0.931 . S
C2583 H2571 0.929 . S
C2583 C2577 1.390 . S
C2583 C2580 1.386 . S
C2584 C2579 1.490 . S
C2584 C2586 1.395 . S
C2584 C2587 1.403 . S
H2585 C2591 0.930 . S
C2586 H2572 0.930 . S
C2586 C2584 1.395 . S
C2586 C2589 1.403 . S
C2587 C2584 1.403 . S
C2587 C2588 1.524 . S
C2587 C2591 1.400 . S
C2588 H2573 0.960 . S
C2588 H2574 0.960 . S
C2588 H2575 0.960 . S
C2588 C2587 1.524 . S
C2589 C2586 1.403 . S
C2589 C2590 1.392 . S
C2589 C2593 1.495 . S
C2590 C2589 1.392 . S
C2590 C2591 1.385 . S
C2590 C2592 1.478 . S
C2591 H2585 0.930 . S
C2591 C2587 1.400 . S
C2591 C2590 1.385 . S
C2592 C2590 1.478 . S
C2592 C2594 1.381 . S
C2592 C2598 1.383 . S
C2593 C2589 1.495 . S
C2593 H2599 0.959 . S
C2593 H2600 0.961 . S
C2593 H2601 0.960 . S
C2594 C2592 1.381 . S
C2594 C2595 1.394 . S
C2594 H2602 0.930 . S
C2595 C2594 1.394 . S
C2595 C2596 1.383 . S
C2595 H2603 0.929 . S
C2596 C2595 1.383 . S
C2596 C2597 1.377 . S
C2597 H2581 0.930 . S
C2597 C2596 1.377 . S
C2597 C2598 1.379 . S
C2598 H2582 0.931 . S
C2598 C2592 1.383 . S
C2598 C2597 1.379 . S
H2599 C2593 0.959 . S
H2600 C2593 0.961 . S
H2601 C2593 0.960 . S
H2602 C2594 0.930 . S
H2603 C2595 0.929 . S
H2604 C2612 0.929 . S
H2605 C2614 0.930 . S
H2606 C2616 0.930 . S
H2607 C2619 0.929 . S
H2608 C2622 0.930 . S
H2609 C2624 0.960 . S
H2610 C2624 0.960 . S
H2611 C2624 0.960 . S
C2612 H2604 0.929 . S
C2612 C2613 1.377 . S
C2612 C2614 1.384 . S
C2613 C2612 1.377 . S
C2613 C2619 1.390 . S
C2614 H2605 0.930 . S
C2614 C2612 1.384 . S
C2614 C2615 1.372 . S
C2615 C2614 1.372 . S
C2615 C2616 1.400 . S
C2615 C2620 1.490 . S
C2616 H2606 0.930 . S
C2616 C2615 1.400 . S
C2616 C2619 1.386 . S
H2617 C2633 0.930 . S
H2618 C2634 0.931 . S
C2619 H2607 0.929 . S
C2619 C2613 1.390 . S
C2619 C2616 1.386 . S
C2620 C2615 1.490 . S
C2620 C2622 1.395 . S
C2620 C2623 1.403 . S
H2621 C2627 0.930 . S
C2622 H2608 0.930 . S
C2622 C2620 1.395 . S
C2622 C2625 1.403 . S
C2623 C2620 1.403 . S
C2623 C2624 1.524 . S
C2623 C2627 1.400 . S
C2624 H2609 0.960 . S
C2624 H2610 0.960 . S
C2624 H2611 0.960 . S
C2624 C2623 1.524 . S
C2625 C2622 1.403 . S
C2625 C2626 1.392 . S
C2625 C2629 1.495 . S
C2626 C2625 1.392 . S
C2626 C2627 1.385 . S
C2626 C2628 1.478 . S
C2627 H2621 0.930 . S
C2627 C2623 1.400 . S
C2627 C2626 1.385 . S
C2628 C2626 1.478 . S
C2628 C2630 1.381 . S
C2628 C2634 1.383 . S
C2629 C2625 1.495 . S
C2629 H2635 0.959 . S
C2629 H2636 0.961 . S
C2629 H2637 0.960 . S
C2630 C2628 1.381 . S
C2630 C2631 1.394 . S
C2630 H2638 0.930 . S
C2631 C2630 1.394 . S
C2631 C2632 1.383 . S
C2631 H2639 0.929 . S
C2632 C2631 1.383 . S
C2632 C2633 1.377 . S
C2633 H2617 0.930 . S
C2633 C2632 1.377 . S
C2633 C2634 1.379 . S
C2634 H2618 0.931 . S
C2634 C2628 1.383 . S
C2634 C2633 1.379 . S
H2635 C2629 0.959 . S
H2636 C2629 0.961 . S
H2637 C2629 0.960 . S
H2638 C2630 0.930 . S
H2639 C2631 0.929 . S
H2640 C2648 0.929 . S
H2641 C2650 0.930 . S
H2642 C2652 0.930 1_455 S
H2643 C2655 0.929 . S
H2644 C2658 0.930 . S
H2645 C2660 0.960 . S
H2646 C2660 0.960 . S
H2647 C2660 0.960 . S
C2648 H2640 0.929 . S
C2648 C2649 1.377 . S
C2648 C2650 1.384 . S
C2649 C2648 1.377 . S
C2649 C2655 1.390 . S
C2650 H2641 0.930 . S
C2650 C2648 1.384 . S
C2650 C2651 1.372 . S
C2651 C2650 1.372 . S
C2651 C2652 1.400 . S
C2651 C2656 1.490 . S
C2652 H2642 0.930 1_655 S
C2652 C2651 1.400 . S
C2652 C2655 1.386 . S
H2653 C2669 0.930 . S
H2654 C2670 0.931 . S
C2655 H2643 0.929 . S
C2655 C2649 1.390 . S
C2655 C2652 1.386 . S
C2656 C2651 1.490 . S
C2656 C2658 1.395 . S
C2656 C2659 1.403 1_655 S
H2657 C2663 0.930 . S
C2658 H2644 0.930 . S
C2658 C2656 1.395 . S
C2658 C2661 1.403 . S
C2659 C2656 1.403 1_455 S
C2659 C2660 1.524 . S
C2659 C2663 1.400 . S
C2660 H2645 0.960 . S
C2660 H2646 0.960 . S
C2660 H2647 0.960 . S
C2660 C2659 1.524 . S
C2661 C2658 1.403 . S
C2661 C2662 1.392 1_655 S
C2661 C2665 1.495 . S
C2662 C2661 1.392 1_455 S
C2662 C2663 1.385 . S
C2662 C2664 1.478 . S
C2663 H2657 0.930 . S
C2663 C2659 1.400 . S
C2663 C2662 1.385 . S
C2664 C2662 1.478 . S
C2664 C2666 1.381 . S
C2664 C2670 1.383 . S
C2665 C2661 1.495 . S
C2665 H2671 0.959 . S
C2665 H2672 0.961 . S
C2665 H2673 0.960 . S
C2666 C2664 1.381 . S
C2666 C2667 1.394 . S
C2666 H2674 0.930 1_455 S
C2667 C2666 1.394 . S
C2667 C2668 1.383 . S
C2667 H2675 0.929 . S
C2668 C2667 1.383 . S
C2668 C2669 1.377 . S
C2669 H2653 0.930 . S
C2669 C2668 1.377 . S
C2669 C2670 1.379 . S
C2670 H2654 0.931 . S
C2670 C2664 1.383 . S
C2670 C2669 1.379 . S
H2671 C2665 0.959 . S
H2672 C2665 0.961 . S
H2673 C2665 0.960 . S
H2674 C2666 0.930 1_655 S
H2675 C2667 0.929 . S
H2676 C2684 0.929 . S
H2677 C2686 0.930 . S
H2678 C2688 0.930 . S
H2679 C2691 0.929 . S
H2680 C2694 0.930 . S
H2681 C2696 0.960 . S
H2682 C2696 0.960 . S
H2683 C2696 0.960 . S
C2684 H2676 0.929 . S
C2684 C2685 1.377 . S
C2684 C2686 1.384 . S
C2685 C2684 1.377 . S
C2685 C2691 1.390 . S
C2686 H2677 0.930 . S
C2686 C2684 1.384 . S
C2686 C2687 1.372 . S
C2687 C2686 1.372 . S
C2687 C2688 1.400 . S
C2687 C2692 1.490 . S
C2688 H2678 0.930 . S
C2688 C2687 1.400 . S
C2688 C2691 1.386 . S
H2689 C2705 0.930 . S
H2690 C2706 0.931 . S
C2691 H2679 0.929 . S
C2691 C2685 1.390 . S
C2691 C2688 1.386 . S
C2692 C2687 1.490 . S
C2692 C2694 1.395 . S
C2692 C2695 1.403 . S
H2693 C2699 0.930 . S
C2694 H2680 0.930 . S
C2694 C2692 1.395 . S
C2694 C2697 1.403 . S
C2695 C2692 1.403 . S
C2695 C2696 1.524 . S
C2695 C2699 1.400 . S
C2696 H2681 0.960 . S
C2696 H2682 0.960 . S
C2696 H2683 0.960 . S
C2696 C2695 1.524 . S
C2697 C2694 1.403 . S
C2697 C2698 1.392 . S
C2697 C2701 1.495 . S
C2698 C2697 1.392 . S
C2698 C2699 1.385 . S
C2698 C2700 1.478 . S
C2699 H2693 0.930 . S
C2699 C2695 1.400 . S
C2699 C2698 1.385 . S
C2700 C2698 1.478 . S
C2700 C2702 1.381 . S
C2700 C2706 1.383 . S
C2701 C2697 1.495 . S
C2701 H2707 0.959 . S
C2701 H2708 0.961 . S
C2701 H2709 0.960 . S
C2702 C2700 1.381 . S
C2702 C2703 1.394 . S
C2702 H2710 0.930 . S
C2703 C2702 1.394 . S
C2703 C2704 1.383 . S
C2703 H2711 0.929 . S
C2704 C2703 1.383 . S
C2704 C2705 1.377 . S
C2705 H2689 0.930 . S
C2705 C2704 1.377 . S
C2705 C2706 1.379 . S
C2706 H2690 0.931 . S
C2706 C2700 1.383 . S
C2706 C2705 1.379 . S
H2707 C2701 0.959 . S
H2708 C2701 0.961 . S
H2709 C2701 0.960 . S
H2710 C2702 0.930 . S
H2711 C2703 0.929 . S
H2712 C2720 0.929 . S
H2713 C2722 0.930 . S
H2714 C2724 0.930 . S
H2715 C2727 0.929 . S
H2716 C2730 0.930 . S
H2717 C2732 0.960 . S
H2718 C2732 0.960 . S
H2719 C2732 0.960 . S
C2720 H2712 0.929 . S
C2720 C2721 1.377 . S
C2720 C2722 1.384 . S
C2721 C2720 1.377 . S
C2721 C2727 1.390 . S
C2722 H2713 0.930 . S
C2722 C2720 1.384 . S
C2722 C2723 1.372 . S
C2723 C2722 1.372 . S
C2723 C2724 1.400 . S
C2723 C2728 1.490 . S
C2724 H2714 0.930 . S
C2724 C2723 1.400 . S
C2724 C2727 1.386 . S
H2725 C2741 0.930 . S
H2726 C2742 0.931 . S
C2727 H2715 0.929 . S
C2727 C2721 1.390 . S
C2727 C2724 1.386 . S
C2728 C2723 1.490 . S
C2728 C2730 1.395 . S
C2728 C2731 1.403 . S
H2729 C2735 0.930 . S
C2730 H2716 0.930 . S
C2730 C2728 1.395 . S
C2730 C2733 1.403 . S
C2731 C2728 1.403 . S
C2731 C2732 1.524 . S
C2731 C2735 1.400 . S
C2732 H2717 0.960 . S
C2732 H2718 0.960 . S
C2732 H2719 0.960 . S
C2732 C2731 1.524 . S
C2733 C2730 1.403 . S
C2733 C2734 1.392 . S
C2733 C2737 1.495 . S
C2734 C2733 1.392 . S
C2734 C2735 1.385 . S
C2734 C2736 1.478 . S
C2735 H2729 0.930 . S
C2735 C2731 1.400 . S
C2735 C2734 1.385 . S
C2736 C2734 1.478 . S
C2736 C2738 1.381 . S
C2736 C2742 1.383 . S
C2737 C2733 1.495 . S
C2737 H2743 0.959 . S
C2737 H2744 0.961 . S
C2737 H2745 0.960 . S
C2738 C2736 1.381 . S
C2738 C2739 1.394 . S
C2738 H2746 0.930 . S
C2739 C2738 1.394 . S
C2739 C2740 1.383 . S
C2739 H2747 0.929 . S
C2740 C2739 1.383 . S
C2740 C2741 1.377 . S
C2741 H2725 0.930 . S
C2741 C2740 1.377 . S
C2741 C2742 1.379 . S
C2742 H2726 0.931 . S
C2742 C2736 1.383 . S
C2742 C2741 1.379 . S
H2743 C2737 0.959 . S
H2744 C2737 0.961 . S
H2745 C2737 0.960 . S
H2746 C2738 0.930 . S
H2747 C2739 0.929 . S
H2748 C2756 0.929 . S
H2749 C2758 0.930 . S
H2750 C2760 0.930 . S
H2751 C2763 0.929 . S
H2752 C2766 0.930 . S
H2753 C2768 0.960 . S
H2754 C2768 0.960 . S
H2755 C2768 0.960 . S
C2756 H2748 0.929 . S
C2756 C2757 1.377 . S
C2756 C2758 1.384 . S
C2757 C2756 1.377 . S
C2757 C2763 1.390 . S
C2758 H2749 0.930 . S
C2758 C2756 1.384 . S
C2758 C2759 1.372 . S
C2759 C2758 1.372 . S
C2759 C2760 1.400 . S
C2759 C2764 1.490 . S
C2760 H2750 0.930 . S
C2760 C2759 1.400 . S
C2760 C2763 1.386 . S
H2761 C2777 0.930 . S
H2762 C2778 0.931 . S
C2763 H2751 0.929 . S
C2763 C2757 1.390 . S
C2763 C2760 1.386 . S
C2764 C2759 1.490 . S
C2764 C2766 1.395 . S
C2764 C2767 1.403 . S
H2765 C2771 0.930 . S
C2766 H2752 0.930 . S
C2766 C2764 1.395 . S
C2766 C2769 1.403 . S
C2767 C2764 1.403 . S
C2767 C2768 1.524 . S
C2767 C2771 1.400 . S
C2768 H2753 0.960 . S
C2768 H2754 0.960 . S
C2768 H2755 0.960 . S
C2768 C2767 1.524 . S
C2769 C2766 1.403 . S
C2769 C2770 1.392 . S
C2769 C2773 1.495 . S
C2770 C2769 1.392 . S
C2770 C2771 1.385 . S
C2770 C2772 1.478 . S
C2771 H2765 0.930 . S
C2771 C2767 1.400 . S
C2771 C2770 1.385 . S
C2772 C2770 1.478 . S
C2772 C2774 1.381 . S
C2772 C2778 1.383 . S
C2773 C2769 1.495 . S
C2773 H2779 0.959 . S
C2773 H2780 0.961 . S
C2773 H2781 0.960 . S
C2774 C2772 1.381 . S
C2774 C2775 1.394 . S
C2774 H2782 0.930 . S
C2775 C2774 1.394 . S
C2775 C2776 1.383 . S
C2775 H2783 0.929 . S
C2776 C2775 1.383 . S
C2776 C2777 1.377 . S
C2777 H2761 0.930 . S
C2777 C2776 1.377 . S
C2777 C2778 1.379 . S
C2778 H2762 0.931 . S
C2778 C2772 1.383 . S
C2778 C2777 1.379 . S
H2779 C2773 0.959 . S
H2780 C2773 0.961 . S
H2781 C2773 0.960 . S
H2782 C2774 0.930 . S
H2783 C2775 0.929 . S
H2784 C2792 0.941 . S
H2785 C2794 0.913 1_556 S
H2786 C2796 0.930 . S
H2787 C2799 0.929 . S
H2788 C2802 0.930 . S
H2789 C2804 0.960 . S
H2790 C2804 0.959 1_565 S
H2791 C2804 0.960 . S
C2792 H2784 0.941 . S
C2792 C2793 1.366 1_556 S
C2792 C2794 1.383 1_556 S
C2793 C2792 1.366 1_554 S
C2793 C2799 1.390 . S
C2794 H2785 0.913 1_554 S
C2794 C2792 1.383 1_554 S
C2794 C2795 1.390 . S
C2795 C2794 1.390 . S
C2795 C2796 1.400 . S
C2795 C2800 1.490 . S
C2796 H2786 0.930 . S
C2796 C2795 1.400 . S
C2796 C2799 1.386 . S
H2797 C2813 0.930 . S
H2798 C2814 0.930 . S
C2799 H2787 0.929 . S
C2799 C2793 1.390 . S
C2799 C2796 1.386 . S
C2800 C2795 1.490 . S
C2800 C2802 1.395 . S
C2800 C2803 1.403 . S
H2801 C2807 0.930 1_545 S
C2802 H2788 0.930 . S
C2802 C2800 1.395 . S
C2802 C2805 1.403 . S
C2803 C2800 1.403 . S
C2803 C2804 1.524 1_565 S
C2803 C2807 1.400 . S
C2804 H2789 0.960 . S
C2804 H2790 0.959 1_545 S
C2804 H2791 0.960 . S
C2804 C2803 1.524 1_545 S
C2805 C2802 1.403 . S
C2805 C2806 1.392 . S
C2805 C2809 1.495 . S
C2806 C2805 1.392 . S
C2806 C2807 1.385 . S
C2806 C2808 1.478 . S
C2807 H2801 0.930 1_565 S
C2807 C2803 1.400 . S
C2807 C2806 1.385 . S
C2808 C2806 1.478 . S
C2808 C2810 1.381 . S
C2808 C2814 1.359 1_565 S
C2809 C2805 1.495 . S
C2809 H2815 0.959 . S
C2809 H2816 0.961 . S
C2809 H2817 0.960 . S
C2810 C2808 1.381 . S
C2810 C2811 1.394 . S
C2810 H2818 0.930 1_554 S
C2811 C2810 1.394 . S
C2811 C2812 1.383 1_565 S
C2811 H2819 0.929 1_554 S
C2812 C2811 1.383 1_545 S
C2812 C2813 1.377 . S
C2813 H2797 0.930 . S
C2813 C2812 1.377 . S
C2813 C2814 1.406 . S
C2814 H2798 0.930 . S
C2814 C2808 1.359 1_545 S
C2814 C2813 1.406 . S
H2815 C2809 0.959 . S
H2816 C2809 0.961 . S
H2817 C2809 0.960 . S
H2818 C2810 0.930 1_556 S
H2819 C2811 0.929 1_556 S
H2820 C2828 0.929 . S
H2821 C2830 0.930 . S
H2822 C2832 0.930 . S
H2823 C2835 0.929 . S
H2824 C2838 0.930 . S
H2825 C2840 0.969 . S
H2826 C2840 0.911 1_556 S
H2827 C2840 0.995 . S
C2828 H2820 0.929 . S
C2828 C2829 1.377 . S
C2828 C2830 1.384 . S
C2829 C2828 1.377 . S
C2829 C2835 1.390 1_556 S
C2830 H2821 0.930 . S
C2830 C2828 1.384 . S
C2830 C2831 1.372 . S
C2831 C2830 1.372 . S
C2831 C2832 1.400 1_556 S
C2831 C2836 1.490 . S
C2832 H2822 0.930 . S
C2832 C2831 1.400 1_554 S
C2832 C2835 1.386 . S
H2833 C2849 0.930 . S
H2834 C2850 0.931 . S
C2835 H2823 0.929 . S
C2835 C2829 1.390 1_554 S
C2835 C2832 1.386 . S
C2836 C2831 1.490 . S
C2836 C2838 1.395 . S
C2836 C2839 1.403 1_556 S
H2837 C2843 0.930 . S
C2838 H2824 0.930 . S
C2838 C2836 1.395 . S
C2838 C2841 1.403 . S
C2839 C2836 1.403 1_554 S
C2839 C2840 1.532 . S
C2839 C2843 1.400 . S
C2840 H2825 0.969 . S
C2840 H2826 0.911 1_554 S
C2840 H2827 0.995 . S
C2840 C2839 1.532 . S
C2841 C2838 1.403 . S
C2841 C2842 1.394 . S
C2841 C2845 1.495 . S
C2842 C2841 1.394 . S
C2842 C2843 1.387 1_556 S
C2842 C2844 1.463 1_556 S
C2843 H2837 0.930 . S
C2843 C2839 1.400 . S
C2843 C2842 1.387 1_554 S
C2844 C2842 1.463 1_554 S
C2844 C2846 1.342 1_554 S
C2844 C2850 1.435 . S
C2845 C2841 1.495 . S
C2845 H2851 0.959 . S
C2845 H2852 0.961 1_556 S
C2845 H2853 0.960 . S
C2846 C2844 1.342 1_556 S
C2846 C2847 1.394 . S
C2846 H2854 0.930 . S
C2847 C2846 1.394 . S
C2847 C2848 1.383 1_556 S
C2847 H2855 0.929 . S
C2848 C2847 1.383 1_554 S
C2848 C2849 1.377 . S
C2849 H2833 0.930 . S
C2849 C2848 1.377 . S
C2849 C2850 1.379 . S
C2850 H2834 0.931 . S
C2850 C2844 1.435 . S
C2850 C2849 1.379 . S
H2851 C2845 0.959 . S
H2852 C2845 0.961 1_554 S
H2853 C2845 0.960 . S
H2854 C2846 0.930 . S
H2855 C2847 0.929 . S
H2856 C2864 0.929 . S
H2857 C2866 0.930 . S
H2858 C2868 0.930 . S
H2859 C2871 0.929 . S
H2860 C2874 0.930 . S
H2861 C2876 0.960 . S
H2862 C2876 0.960 . S
H2863 C2876 0.960 . S
C2864 H2856 0.929 . S
C2864 C2865 1.377 . S
C2864 C2866 1.384 . S
C2865 C2864 1.377 . S
C2865 C2871 1.390 . S
C2866 H2857 0.930 . S
C2866 C2864 1.384 . S
C2866 C2867 1.372 . S
C2867 C2866 1.372 . S
C2867 C2868 1.400 . S
C2867 C2872 1.490 . S
C2868 H2858 0.930 . S
C2868 C2867 1.400 . S
C2868 C2871 1.386 . S
H2869 C2885 0.930 . S
H2870 C2886 0.931 . S
C2871 H2859 0.929 . S
C2871 C2865 1.390 . S
C2871 C2868 1.386 . S
C2872 C2867 1.490 . S
C2872 C2874 1.395 . S
C2872 C2875 1.403 . S
H2873 C2879 0.930 . S
C2874 H2860 0.930 . S
C2874 C2872 1.395 . S
C2874 C2877 1.403 . S
C2875 C2872 1.403 . S
C2875 C2876 1.524 . S
C2875 C2879 1.400 . S
C2876 H2861 0.960 . S
C2876 H2862 0.960 . S
C2876 H2863 0.960 . S
C2876 C2875 1.524 . S
C2877 C2874 1.403 . S
C2877 C2878 1.392 . S
C2877 C2881 1.495 . S
C2878 C2877 1.392 . S
C2878 C2879 1.385 . S
C2878 C2880 1.478 . S
C2879 H2873 0.930 . S
C2879 C2875 1.400 . S
C2879 C2878 1.385 . S
C2880 C2878 1.478 . S
C2880 C2882 1.381 . S
C2880 C2886 1.383 . S
C2881 C2877 1.495 . S
C2881 H2887 0.959 . S
C2881 H2888 0.961 . S
C2881 H2889 0.960 . S
C2882 C2880 1.381 . S
C2882 C2883 1.394 . S
C2882 H2890 0.930 . S
C2883 C2882 1.394 . S
C2883 C2884 1.383 . S
C2883 H2891 0.929 . S
C2884 C2883 1.383 . S
C2884 C2885 1.377 . S
C2885 H2869 0.930 . S
C2885 C2884 1.377 . S
C2885 C2886 1.379 . S
C2886 H2870 0.931 . S
C2886 C2880 1.383 . S
C2886 C2885 1.379 . S
H2887 C2881 0.959 . S
H2888 C2881 0.961 . S
H2889 C2881 0.960 . S
H2890 C2882 0.930 . S
H2891 C2883 0.929 . S
H2892 C2900 0.929 . S
H2893 C2902 0.930 . S
H2894 C2904 0.930 . S
H2895 C2907 0.929 . S
H2896 C2910 0.930 . S
H2897 C2912 0.960 . S
H2898 C2912 0.960 . S
H2899 C2912 0.960 . S
C2900 H2892 0.929 . S
C2900 C2901 1.377 . S
C2900 C2902 1.384 . S
C2901 C2900 1.377 . S
C2901 C2907 1.390 . S
C2902 H2893 0.930 . S
C2902 C2900 1.384 . S
C2902 C2903 1.372 . S
C2903 C2902 1.372 . S
C2903 C2904 1.400 . S
C2903 C2908 1.490 . S
C2904 H2894 0.930 . S
C2904 C2903 1.400 . S
C2904 C2907 1.386 . S
H2905 C2921 0.930 . S
H2906 C2922 0.931 . S
C2907 H2895 0.929 . S
C2907 C2901 1.390 . S
C2907 C2904 1.386 . S
C2908 C2903 1.490 . S
C2908 C2910 1.395 . S
C2908 C2911 1.403 . S
H2909 C2915 0.930 . S
C2910 H2896 0.930 . S
C2910 C2908 1.395 . S
C2910 C2913 1.403 . S
C2911 C2908 1.403 . S
C2911 C2912 1.524 . S
C2911 C2915 1.400 . S
C2912 H2897 0.960 . S
C2912 H2898 0.960 . S
C2912 H2899 0.960 . S
C2912 C2911 1.524 . S
C2913 C2910 1.403 . S
C2913 C2914 1.392 . S
C2913 C2917 1.495 . S
C2914 C2913 1.392 . S
C2914 C2915 1.385 . S
C2914 C2916 1.478 . S
C2915 H2909 0.930 . S
C2915 C2911 1.400 . S
C2915 C2914 1.385 . S
C2916 C2914 1.478 . S
C2916 C2918 1.381 . S
C2916 C2922 1.383 . S
C2917 C2913 1.495 . S
C2917 H2923 0.959 . S
C2917 H2924 0.961 . S
C2917 H2925 0.960 . S
C2918 C2916 1.381 . S
C2918 C2919 1.394 1_655 S
C2918 H2926 0.930 . S
C2919 C2918 1.394 1_455 S
C2919 C2920 1.383 . S
C2919 H2927 0.929 . S
C2920 C2919 1.383 . S
C2920 C2921 1.377 . S
C2921 H2905 0.930 . S
C2921 C2920 1.377 . S
C2921 C2922 1.379 1_455 S
C2922 H2906 0.931 . S
C2922 C2916 1.383 . S
C2922 C2921 1.379 1_655 S
H2923 C2917 0.959 . S
H2924 C2917 0.961 . S
H2925 C2917 0.960 . S
H2926 C2918 0.930 . S
H2927 C2919 0.929 . S
H2928 C2936 0.929 . S
H2929 C2938 0.930 . S
H2930 C2940 0.930 . S
H2931 C2943 0.929 . S
H2932 C2946 0.930 . S
H2933 C2948 0.960 . S
H2934 C2948 0.960 . S
H2935 C2948 0.960 . S
C2936 H2928 0.929 . S
C2936 C2937 1.377 . S
C2936 C2938 1.384 . S
C2937 C2936 1.377 . S
C2937 C2943 1.390 . S
C2938 H2929 0.930 . S
C2938 C2936 1.384 . S
C2938 C2939 1.372 . S
C2939 C2938 1.372 . S
C2939 C2940 1.400 . S
C2939 C2944 1.490 . S
C2940 H2930 0.930 . S
C2940 C2939 1.400 . S
C2940 C2943 1.386 . S
H2941 C2957 0.930 . S
H2942 C2958 0.931 . S
C2943 H2931 0.929 . S
C2943 C2937 1.390 . S
C2943 C2940 1.386 . S
C2944 C2939 1.490 . S
C2944 C2946 1.395 . S
C2944 C2947 1.403 . S
H2945 C2951 0.930 . S
C2946 H2932 0.930 . S
C2946 C2944 1.395 . S
C2946 C2949 1.403 . S
C2947 C2944 1.403 . S
C2947 C2948 1.524 . S
C2947 C2951 1.400 . S
C2948 H2933 0.960 . S
C2948 H2934 0.960 . S
C2948 H2935 0.960 . S
C2948 C2947 1.524 . S
C2949 C2946 1.403 . S
C2949 C2950 1.392 . S
C2949 C2953 1.495 . S
C2950 C2949 1.392 . S
C2950 C2951 1.385 . S
C2950 C2952 1.478 . S
C2951 H2945 0.930 . S
C2951 C2947 1.400 . S
C2951 C2950 1.385 . S
C2952 C2950 1.478 . S
C2952 C2954 1.381 . S
C2952 C2958 1.383 . S
C2953 C2949 1.495 . S
C2953 H2959 0.959 . S
C2953 H2960 0.961 . S
C2953 H2961 0.960 . S
C2954 C2952 1.381 . S
C2954 C2955 1.394 . S
C2954 H2962 0.930 . S
C2955 C2954 1.394 . S
C2955 C2956 1.383 . S
C2955 H2963 0.929 . S
C2956 C2955 1.383 . S
C2956 C2957 1.377 . S
C2957 H2941 0.930 . S
C2957 C2956 1.377 . S
C2957 C2958 1.379 . S
C2958 H2942 0.931 . S
C2958 C2952 1.383 . S
C2958 C2957 1.379 . S
H2959 C2953 0.959 . S
H2960 C2953 0.961 . S
H2961 C2953 0.960 . S
H2962 C2954 0.930 . S
H2963 C2955 0.929 . S
H2964 C2972 0.929 . S
H2965 C2974 0.930 . S
H2966 C2976 0.930 . S
H2967 C2979 0.929 . S
H2968 C2982 0.930 . S
H2969 C2984 0.960 . S
H2970 C2984 0.960 . S
H2971 C2984 0.960 . S
C2972 H2964 0.929 . S
C2972 C2973 1.377 . S
C2972 C2974 1.384 . S
C2973 C2972 1.377 . S
C2973 C2979 1.390 . S
C2974 H2965 0.930 . S
C2974 C2972 1.384 . S
C2974 C2975 1.372 . S
C2975 C2974 1.372 . S
C2975 C2976 1.400 . S
C2975 C2980 1.490 . S
C2976 H2966 0.930 . S
C2976 C2975 1.400 . S
C2976 C2979 1.386 . S
H2977 C2993 0.930 . S
H2978 C2994 0.931 . S
C2979 H2967 0.929 . S
C2979 C2973 1.390 . S
C2979 C2976 1.386 . S
C2980 C2975 1.490 . S
C2980 C2982 1.395 . S
C2980 C2983 1.403 . S
H2981 C2987 0.930 . S
C2982 H2968 0.930 . S
C2982 C2980 1.395 . S
C2982 C2985 1.403 . S
C2983 C2980 1.403 . S
C2983 C2984 1.524 . S
C2983 C2987 1.400 . S
C2984 H2969 0.960 . S
C2984 H2970 0.960 . S
C2984 H2971 0.960 . S
C2984 C2983 1.524 . S
C2985 C2982 1.403 . S
C2985 C2986 1.392 . S
C2985 C2989 1.495 . S
C2986 C2985 1.392 . S
C2986 C2987 1.385 . S
C2986 C2988 1.478 . S
C2987 H2981 0.930 . S
C2987 C2983 1.400 . S
C2987 C2986 1.385 . S
C2988 C2986 1.478 . S
C2988 C2990 1.381 . S
C2988 C2994 1.383 . S
C2989 C2985 1.495 . S
C2989 H2995 0.959 . S
C2989 H2996 0.961 . S
C2989 H2997 0.960 . S
C2990 C2988 1.381 . S
C2990 C2991 1.394 . S
C2990 H2998 0.930 . S
C2991 C2990 1.394 . S
C2991 C2992 1.383 . S
C2991 H2999 0.929 . S
C2992 C2991 1.383 . S
C2992 C2993 1.377 . S
C2993 H2977 0.930 . S
C2993 C2992 1.377 . S
C2993 C2994 1.379 . S
C2994 H2978 0.931 . S
C2994 C2988 1.383 . S
C2994 C2993 1.379 . S
H2995 C2989 0.959 . S
H2996 C2989 0.961 . S
H2997 C2989 0.960 . S
H2998 C2990 0.930 . S
H2999 C2991 0.929 . S
H3000 C3008 0.929 . S
H3001 C3010 0.930 . S
H3002 C3012 0.930 . S
H3003 C3015 0.929 . S
H3004 C3018 0.930 . S
H3005 C3020 0.960 . S
H3006 C3020 0.960 . S
H3007 C3020 0.960 . S
C3008 H3000 0.929 . S
C3008 C3009 1.377 . S
C3008 C3010 1.384 . S
C3009 C3008 1.377 . S
C3009 C3015 1.390 . S
C3010 H3001 0.930 . S
C3010 C3008 1.384 . S
C3010 C3011 1.372 . S
C3011 C3010 1.372 . S
C3011 C3012 1.400 . S
C3011 C3016 1.490 . S
C3012 H3002 0.930 . S
C3012 C3011 1.400 . S
C3012 C3015 1.386 . S
H3013 C3029 0.930 . S
H3014 C3030 0.931 . S
C3015 H3003 0.929 . S
C3015 C3009 1.390 . S
C3015 C3012 1.386 . S
C3016 C3011 1.490 . S
C3016 C3018 1.395 . S
C3016 C3019 1.403 . S
H3017 C3023 0.930 . S
C3018 H3004 0.930 . S
C3018 C3016 1.395 . S
C3018 C3021 1.403 . S
C3019 C3016 1.403 . S
C3019 C3020 1.524 . S
C3019 C3023 1.400 . S
C3020 H3005 0.960 . S
C3020 H3006 0.960 . S
C3020 H3007 0.960 . S
C3020 C3019 1.524 . S
C3021 C3018 1.403 . S
C3021 C3022 1.392 . S
C3021 C3025 1.495 . S
C3022 C3021 1.392 . S
C3022 C3023 1.385 . S
C3022 C3024 1.478 . S
C3023 H3017 0.930 . S
C3023 C3019 1.400 . S
C3023 C3022 1.385 . S
C3024 C3022 1.478 . S
C3024 C3026 1.381 . S
C3024 C3030 1.383 . S
C3025 C3021 1.495 . S
C3025 H3031 0.959 . S
C3025 H3032 0.961 . S
C3025 H3033 0.960 . S
C3026 C3024 1.381 . S
C3026 C3027 1.394 . S
C3026 H3034 0.930 . S
C3027 C3026 1.394 . S
C3027 C3028 1.383 . S
C3027 H3035 0.929 . S
C3028 C3027 1.383 . S
C3028 C3029 1.377 . S
C3029 H3013 0.930 . S
C3029 C3028 1.377 . S
C3029 C3030 1.379 . S
C3030 H3014 0.931 . S
C3030 C3024 1.383 . S
C3030 C3029 1.379 . S
H3031 C3025 0.959 . S
H3032 C3025 0.961 . S
H3033 C3025 0.960 . S
H3034 C3026 0.930 . S
H3035 C3027 0.929 . S
H3036 C3044 0.929 . S
H3037 C3046 0.930 . S
H3038 C3048 0.930 . S
H3039 C3051 0.929 . S
H3040 C3054 0.930 . S
H3041 C3056 0.960 . S
H3042 C3056 0.960 . S
H3043 C3056 0.960 . S
C3044 H3036 0.929 . S
C3044 C3045 1.377 . S
C3044 C3046 1.384 . S
C3045 C3044 1.377 . S
C3045 C3051 1.390 . S
C3046 H3037 0.930 . S
C3046 C3044 1.384 . S
C3046 C3047 1.372 . S
C3047 C3046 1.372 . S
C3047 C3048 1.400 . S
C3047 C3052 1.490 . S
C3048 H3038 0.930 . S
C3048 C3047 1.400 . S
C3048 C3051 1.386 . S
H3049 C3065 0.930 . S
H3050 C3066 0.931 . S
C3051 H3039 0.929 . S
C3051 C3045 1.390 . S
C3051 C3048 1.386 . S
C3052 C3047 1.490 . S
C3052 C3054 1.395 . S
C3052 C3055 1.403 . S
H3053 C3059 0.930 . S
C3054 H3040 0.930 . S
C3054 C3052 1.395 . S
C3054 C3057 1.403 . S
C3055 C3052 1.403 . S
C3055 C3056 1.524 . S
C3055 C3059 1.400 . S
C3056 H3041 0.960 . S
C3056 H3042 0.960 . S
C3056 H3043 0.960 . S
C3056 C3055 1.524 . S
C3057 C3054 1.403 . S
C3057 C3058 1.392 . S
C3057 C3061 1.495 . S
C3058 C3057 1.392 . S
C3058 C3059 1.385 . S
C3058 C3060 1.478 . S
C3059 H3053 0.930 . S
C3059 C3055 1.400 . S
C3059 C3058 1.385 . S
C3060 C3058 1.478 . S
C3060 C3062 1.381 . S
C3060 C3066 1.383 . S
C3061 C3057 1.495 . S
C3061 H3067 0.959 . S
C3061 H3068 0.961 . S
C3061 H3069 0.960 . S
C3062 C3060 1.381 . S
C3062 C3063 1.394 . S
C3062 H3070 0.930 . S
C3063 C3062 1.394 . S
C3063 C3064 1.383 . S
C3063 H3071 0.929 . S
C3064 C3063 1.383 . S
C3064 C3065 1.377 . S
C3065 H3049 0.930 . S
C3065 C3064 1.377 . S
C3065 C3066 1.379 . S
C3066 H3050 0.931 . S
C3066 C3060 1.383 . S
C3066 C3065 1.379 . S
H3067 C3061 0.959 . S
H3068 C3061 0.961 . S
H3069 C3061 0.960 . S
H3070 C3062 0.930 . S
H3071 C3063 0.929 . S
H3072 C3080 0.929 . S
H3073 C3082 0.930 . S
H3074 C3084 0.930 . S
H3075 C3087 0.929 . S
H3076 C3090 0.930 . S
H3077 C3092 0.960 . S
H3078 C3092 0.960 . S
H3079 C3092 0.960 . S
C3080 H3072 0.929 . S
C3080 C3081 1.377 . S
C3080 C3082 1.384 . S
C3081 C3080 1.377 . S
C3081 C3087 1.390 . S
C3082 H3073 0.930 . S
C3082 C3080 1.384 . S
C3082 C3083 1.372 . S
C3083 C3082 1.372 . S
C3083 C3084 1.400 . S
C3083 C3088 1.490 . S
C3084 H3074 0.930 . S
C3084 C3083 1.400 . S
C3084 C3087 1.386 . S
H3085 C3101 0.930 . S
H3086 C3102 0.931 . S
C3087 H3075 0.929 . S
C3087 C3081 1.390 . S
C3087 C3084 1.386 . S
C3088 C3083 1.490 . S
C3088 C3090 1.395 . S
C3088 C3091 1.403 . S
H3089 C3095 0.930 . S
C3090 H3076 0.930 . S
C3090 C3088 1.395 . S
C3090 C3093 1.403 . S
C3091 C3088 1.403 . S
C3091 C3092 1.524 . S
C3091 C3095 1.400 . S
C3092 H3077 0.960 . S
C3092 H3078 0.960 . S
C3092 H3079 0.960 . S
C3092 C3091 1.524 . S
C3093 C3090 1.403 . S
C3093 C3094 1.392 . S
C3093 C3097 1.495 . S
C3094 C3093 1.392 . S
C3094 C3095 1.385 . S
C3094 C3096 1.478 . S
C3095 H3089 0.930 . S
C3095 C3091 1.400 . S
C3095 C3094 1.385 . S
C3096 C3094 1.478 . S
C3096 C3098 1.381 . S
C3096 C3102 1.383 . S
C3097 C3093 1.495 . S
C3097 H3103 0.959 . S
C3097 H3104 0.961 . S
C3097 H3105 0.960 . S
C3098 C3096 1.381 . S
C3098 C3099 1.394 . S
C3098 H3106 0.930 . S
C3099 C3098 1.394 . S
C3099 C3100 1.383 . S
C3099 H3107 0.929 . S
C3100 C3099 1.383 . S
C3100 C3101 1.377 . S
C3101 H3085 0.930 . S
C3101 C3100 1.377 . S
C3101 C3102 1.379 . S
C3102 H3086 0.931 . S
C3102 C3096 1.383 . S
C3102 C3101 1.379 . S
H3103 C3097 0.959 . S
H3104 C3097 0.961 . S
H3105 C3097 0.960 . S
H3106 C3098 0.930 . S
H3107 C3099 0.929 . S
H3108 C3116 0.929 . S
H3109 C3118 0.930 . S
H3110 C3120 0.930 . S
H3111 C3123 0.929 . S
H3112 C3126 0.930 . S
H3113 C3128 0.960 . S
H3114 C3128 0.960 . S
H3115 C3128 0.960 . S
C3116 H3108 0.929 . S
C3116 C3117 1.377 . S
C3116 C3118 1.384 . S
C3117 C3116 1.377 . S
C3117 C3123 1.390 . S
C3118 H3109 0.930 . S
C3118 C3116 1.384 . S
C3118 C3119 1.372 . S
C3119 C3118 1.372 . S
C3119 C3120 1.400 . S
C3119 C3124 1.490 . S
C3120 H3110 0.930 . S
C3120 C3119 1.400 . S
C3120 C3123 1.386 . S
H3121 C3137 0.930 . S
H3122 C3138 0.931 . S
C3123 H3111 0.929 . S
C3123 C3117 1.390 . S
C3123 C3120 1.386 . S
C3124 C3119 1.490 . S
C3124 C3126 1.395 . S
C3124 C3127 1.403 . S
H3125 C3131 0.930 . S
C3126 H3112 0.930 . S
C3126 C3124 1.395 . S
C3126 C3129 1.403 . S
C3127 C3124 1.403 . S
C3127 C3128 1.524 . S
C3127 C3131 1.400 . S
C3128 H3113 0.960 . S
C3128 H3114 0.960 . S
C3128 H3115 0.960 . S
C3128 C3127 1.524 . S
C3129 C3126 1.403 . S
C3129 C3130 1.392 . S
C3129 C3133 1.495 . S
C3130 C3129 1.392 . S
C3130 C3131 1.385 . S
C3130 C3132 1.478 . S
C3131 H3125 0.930 . S
C3131 C3127 1.400 . S
C3131 C3130 1.385 . S
C3132 C3130 1.478 . S
C3132 C3134 1.381 . S
C3132 C3138 1.383 . S
C3133 C3129 1.495 . S
C3133 H3139 0.959 . S
C3133 H3140 0.961 . S
C3133 H3141 0.960 . S
C3134 C3132 1.381 . S
C3134 C3135 1.394 . S
C3134 H3142 0.930 . S
C3135 C3134 1.394 . S
C3135 C3136 1.383 . S
C3135 H3143 0.929 . S
C3136 C3135 1.383 . S
C3136 C3137 1.377 . S
C3137 H3121 0.930 . S
C3137 C3136 1.377 . S
C3137 C3138 1.379 . S
C3138 H3122 0.931 . S
C3138 C3132 1.383 . S
C3138 C3137 1.379 . S
H3139 C3133 0.959 . S
H3140 C3133 0.961 . S
H3141 C3133 0.960 . S
H3142 C3134 0.930 . S
H3143 C3135 0.929 . S
H3144 C3152 0.929 . S
H3145 C3154 0.930 . S
H3146 C3156 0.930 . S
H3147 C3159 0.929 . S
H3148 C3162 0.930 . S
H3149 C3164 0.960 . S
H3150 C3164 0.960 . S
H3151 C3164 0.960 . S
C3152 H3144 0.929 . S
C3152 C3153 1.377 . S
C3152 C3154 1.384 . S
C3153 C3152 1.377 . S
C3153 C3159 1.390 . S
C3154 H3145 0.930 . S
C3154 C3152 1.384 . S
C3154 C3155 1.372 . S
C3155 C3154 1.372 . S
C3155 C3156 1.400 . S
C3155 C3160 1.490 . S
C3156 H3146 0.930 . S
C3156 C3155 1.400 . S
C3156 C3159 1.386 . S
H3157 C3173 0.930 . S
H3158 C3174 0.931 . S
C3159 H3147 0.929 . S
C3159 C3153 1.390 . S
C3159 C3156 1.386 . S
C3160 C3155 1.490 . S
C3160 C3162 1.395 . S
C3160 C3163 1.403 . S
H3161 C3167 0.930 . S
C3162 H3148 0.930 . S
C3162 C3160 1.395 . S
C3162 C3165 1.403 . S
C3163 C3160 1.403 . S
C3163 C3164 1.524 . S
C3163 C3167 1.400 . S
C3164 H3149 0.960 . S
C3164 H3150 0.960 . S
C3164 H3151 0.960 . S
C3164 C3163 1.524 . S
C3165 C3162 1.403 . S
C3165 C3166 1.392 . S
C3165 C3169 1.495 . S
C3166 C3165 1.392 . S
C3166 C3167 1.385 . S
C3166 C3168 1.478 . S
C3167 H3161 0.930 . S
C3167 C3163 1.400 . S
C3167 C3166 1.385 . S
C3168 C3166 1.478 . S
C3168 C3170 1.381 . S
C3168 C3174 1.383 . S
C3169 C3165 1.495 . S
C3169 H3175 0.959 . S
C3169 H3176 0.961 . S
C3169 H3177 0.960 . S
C3170 C3168 1.381 . S
C3170 C3171 1.394 . S
C3170 H3178 0.930 . S
C3171 C3170 1.394 . S
C3171 C3172 1.383 . S
C3171 H3179 0.929 . S
C3172 C3171 1.383 . S
C3172 C3173 1.377 . S
C3173 H3157 0.930 . S
C3173 C3172 1.377 . S
C3173 C3174 1.379 . S
C3174 H3158 0.931 . S
C3174 C3168 1.383 . S
C3174 C3173 1.379 . S
H3175 C3169 0.959 . S
H3176 C3169 0.961 . S
H3177 C3169 0.960 . S
H3178 C3170 0.930 . S
H3179 C3171 0.929 . S
H3180 C3188 0.929 . S
H3181 C3190 0.930 . S
H3182 C3192 0.930 . S
H3183 C3195 0.929 . S
H3184 C3198 0.930 . S
H3185 C3200 0.960 . S
H3186 C3200 0.960 . S
H3187 C3200 0.960 . S
C3188 H3180 0.929 . S
C3188 C3189 1.377 . S
C3188 C3190 1.384 . S
C3189 C3188 1.377 . S
C3189 C3195 1.390 . S
C3190 H3181 0.930 . S
C3190 C3188 1.384 . S
C3190 C3191 1.372 . S
C3191 C3190 1.372 . S
C3191 C3192 1.400 . S
C3191 C3196 1.490 . S
C3192 H3182 0.930 . S
C3192 C3191 1.400 . S
C3192 C3195 1.386 . S
H3193 C3209 0.930 . S
H3194 C3210 0.931 . S
C3195 H3183 0.929 . S
C3195 C3189 1.390 . S
C3195 C3192 1.386 . S
C3196 C3191 1.490 . S
C3196 C3198 1.395 . S
C3196 C3199 1.403 . S
H3197 C3203 0.930 . S
C3198 H3184 0.930 . S
C3198 C3196 1.395 . S
C3198 C3201 1.403 . S
C3199 C3196 1.403 . S
C3199 C3200 1.524 . S
C3199 C3203 1.400 . S
C3200 H3185 0.960 . S
C3200 H3186 0.960 . S
C3200 H3187 0.960 . S
C3200 C3199 1.524 . S
C3201 C3198 1.403 . S
C3201 C3202 1.392 . S
C3201 C3205 1.495 . S
C3202 C3201 1.392 . S
C3202 C3203 1.385 . S
C3202 C3204 1.478 . S
C3203 H3197 0.930 . S
C3203 C3199 1.400 . S
C3203 C3202 1.385 . S
C3204 C3202 1.478 . S
C3204 C3206 1.381 . S
C3204 C3210 1.383 . S
C3205 C3201 1.495 . S
C3205 H3211 0.959 . S
C3205 H3212 0.961 . S
C3205 H3213 0.960 . S
C3206 C3204 1.381 . S
C3206 C3207 1.394 . S
C3206 H3214 0.930 . S
C3207 C3206 1.394 . S
C3207 C3208 1.383 . S
C3207 H3215 0.929 . S
C3208 C3207 1.383 . S
C3208 C3209 1.377 . S
C3209 H3193 0.930 . S
C3209 C3208 1.377 . S
C3209 C3210 1.379 . S
C3210 H3194 0.931 . S
C3210 C3204 1.383 . S
C3210 C3209 1.379 . S
H3211 C3205 0.959 . S
H3212 C3205 0.961 . S
H3213 C3205 0.960 . S
H3214 C3206 0.930 . S
H3215 C3207 0.929 . S
H3216 C3224 0.929 . S
H3217 C3226 0.930 . S
H3218 C3228 0.930 . S
H3219 C3231 0.929 . S
H3220 C3234 0.930 . S
H3221 C3236 0.960 . S
H3222 C3236 0.960 . S
H3223 C3236 0.960 . S
C3224 H3216 0.929 . S
C3224 C3225 1.377 . S
C3224 C3226 1.384 . S
C3225 C3224 1.377 . S
C3225 C3231 1.390 . S
C3226 H3217 0.930 . S
C3226 C3224 1.384 . S
C3226 C3227 1.372 . S
C3227 C3226 1.372 . S
C3227 C3228 1.400 . S
C3227 C3232 1.490 . S
C3228 H3218 0.930 . S
C3228 C3227 1.400 . S
C3228 C3231 1.386 . S
H3229 C3245 0.930 . S
H3230 C3246 0.931 . S
C3231 H3219 0.929 . S
C3231 C3225 1.390 . S
C3231 C3228 1.386 . S
C3232 C3227 1.490 . S
C3232 C3234 1.395 . S
C3232 C3235 1.403 . S
H3233 C3239 0.930 . S
C3234 H3220 0.930 . S
C3234 C3232 1.395 . S
C3234 C3237 1.403 . S
C3235 C3232 1.403 . S
C3235 C3236 1.524 . S
C3235 C3239 1.400 . S
C3236 H3221 0.960 . S
C3236 H3222 0.960 . S
C3236 H3223 0.960 . S
C3236 C3235 1.524 . S
C3237 C3234 1.403 . S
C3237 C3238 1.392 . S
C3237 C3241 1.495 . S
C3238 C3237 1.392 . S
C3238 C3239 1.385 . S
C3238 C3240 1.478 . S
C3239 H3233 0.930 . S
C3239 C3235 1.400 . S
C3239 C3238 1.385 . S
C3240 C3238 1.478 . S
C3240 C3242 1.381 . S
C3240 C3246 1.383 . S
C3241 C3237 1.495 . S
C3241 H3247 0.959 . S
C3241 H3248 0.961 . S
C3241 H3249 0.960 . S
C3242 C3240 1.381 . S
C3242 C3243 1.394 . S
C3242 H3250 0.930 . S
C3243 C3242 1.394 . S
C3243 C3244 1.383 . S
C3243 H3251 0.929 . S
C3244 C3243 1.383 . S
C3244 C3245 1.377 . S
C3245 H3229 0.930 . S
C3245 C3244 1.377 . S
C3245 C3246 1.379 . S
C3246 H3230 0.931 . S
C3246 C3240 1.383 . S
C3246 C3245 1.379 . S
H3247 C3241 0.959 . S
H3248 C3241 0.961 . S
H3249 C3241 0.960 . S
H3250 C3242 0.930 . S
H3251 C3243 0.929 . S
H3252 C3260 0.929 . S
H3253 C3262 0.930 . S
H3254 C3264 0.930 . S
H3255 C3267 0.929 . S
H3256 C3270 0.930 . S
H3257 C3272 0.960 . S
H3258 C3272 0.960 . S
H3259 C3272 0.960 . S
C3260 H3252 0.929 . S
C3260 C3261 1.377 . S
C3260 C3262 1.384 . S
C3261 C3260 1.377 . S
C3261 C3267 1.390 . S
C3262 H3253 0.930 . S
C3262 C3260 1.384 . S
C3262 C3263 1.372 . S
C3263 C3262 1.372 . S
C3263 C3264 1.400 . S
C3263 C3268 1.490 . S
C3264 H3254 0.930 . S
C3264 C3263 1.400 . S
C3264 C3267 1.386 . S
H3265 C3281 0.930 . S
H3266 C3282 0.931 . S
C3267 H3255 0.929 . S
C3267 C3261 1.390 . S
C3267 C3264 1.386 . S
C3268 C3263 1.490 . S
C3268 C3270 1.395 . S
C3268 C3271 1.403 . S
H3269 C3275 0.930 . S
C3270 H3256 0.930 . S
C3270 C3268 1.395 . S
C3270 C3273 1.403 . S
C3271 C3268 1.403 . S
C3271 C3272 1.524 . S
C3271 C3275 1.400 . S
C3272 H3257 0.960 . S
C3272 H3258 0.960 . S
C3272 H3259 0.960 . S
C3272 C3271 1.524 . S
C3273 C3270 1.403 . S
C3273 C3274 1.392 . S
C3273 C3277 1.495 . S
C3274 C3273 1.392 . S
C3274 C3275 1.385 . S
C3274 C3276 1.478 . S
C3275 H3269 0.930 . S
C3275 C3271 1.400 . S
C3275 C3274 1.385 . S
C3276 C3274 1.478 . S
C3276 C3278 1.381 . S
C3276 C3282 1.383 . S
C3277 C3273 1.495 . S
C3277 H3283 0.959 . S
C3277 H3284 0.961 . S
C3277 H3285 0.960 . S
C3278 C3276 1.381 . S
C3278 C3279 1.394 . S
C3278 H3286 0.930 . S
C3279 C3278 1.394 . S
C3279 C3280 1.383 . S
C3279 H3287 0.929 . S
C3280 C3279 1.383 . S
C3280 C3281 1.377 . S
C3281 H3265 0.930 . S
C3281 C3280 1.377 . S
C3281 C3282 1.379 . S
C3282 H3266 0.931 . S
C3282 C3276 1.383 . S
C3282 C3281 1.379 . S
H3283 C3277 0.959 . S
H3284 C3277 0.961 . S
H3285 C3277 0.960 . S
H3286 C3278 0.930 . S
H3287 C3279 0.929 . S
H3288 C3296 0.929 . S
H3289 C3298 0.930 . S
H3290 C3300 0.930 . S
H3291 C3303 0.929 . S
H3292 C3306 0.930 . S
H3293 C3308 0.960 . S
H3294 C3308 0.960 . S
H3295 C3308 0.960 . S
C3296 H3288 0.929 . S
C3296 C3297 1.377 . S
C3296 C3298 1.384 . S
C3297 C3296 1.377 . S
C3297 C3303 1.390 . S
C3298 H3289 0.930 . S
C3298 C3296 1.384 . S
C3298 C3299 1.372 . S
C3299 C3298 1.372 . S
C3299 C3300 1.400 . S
C3299 C3304 1.490 . S
C3300 H3290 0.930 . S
C3300 C3299 1.400 . S
C3300 C3303 1.386 . S
H3301 C3317 0.959 . S
H3302 C3318 0.931 . S
C3303 H3291 0.929 . S
C3303 C3297 1.390 . S
C3303 C3300 1.386 . S
C3304 C3299 1.490 . S
C3304 C3306 1.395 . S
C3304 C3307 1.403 . S
H3305 C3311 0.930 . S
C3306 H3292 0.930 . S
C3306 C3304 1.395 . S
C3306 C3309 1.403 . S
C3307 C3304 1.403 . S
C3307 C3308 1.524 . S
C3307 C3311 1.400 . S
C3308 H3293 0.960 . S
C3308 H3294 0.960 . S
C3308 H3295 0.960 . S
C3308 C3307 1.524 . S
C3309 C3306 1.403 . S
C3309 C3310 1.392 . S
C3309 C3313 1.495 . S
C3310 C3309 1.392 . S
C3310 C3311 1.385 . S
C3310 C3312 1.478 . S
C3311 H3305 0.930 . S
C3311 C3307 1.400 . S
C3311 C3310 1.385 . S
C3312 C3310 1.478 . S
C3312 C3314 1.381 . S
C3312 C3318 1.383 . S
C3313 C3309 1.495 . S
C3313 H3319 0.959 . S
C3313 H3320 0.961 . S
C3313 H3321 0.960 . S
C3314 C3312 1.381 . S
C3314 C3315 1.406 1_556 S
C3314 H3322 0.930 . S
C3315 C3314 1.406 1_554 S
C3315 C3316 1.375 1_564 S
C3315 H3323 0.926 1_565 S
C3316 C3315 1.375 1_546 S
C3316 C3317 1.377 1_545 S
C3317 H3301 0.959 . S
C3317 C3316 1.377 1_565 S
C3317 C3318 1.379 . S
C3318 H3302 0.931 . S
C3318 C3312 1.383 . S
C3318 C3317 1.379 . S
H3319 C3313 0.959 . S
H3320 C3313 0.961 . S
H3321 C3313 0.960 . S
H3322 C3314 0.930 . S
H3323 C3315 0.926 1_545 S
H3324 C3332 0.929 . S
H3325 C3334 0.930 . S
H3326 C3336 0.930 . S
H3327 C3339 0.929 . S
H3328 C3342 0.930 . S
H3329 C3344 0.960 . S
H3330 C3344 0.960 . S
H3331 C3344 0.960 . S
C3332 H3324 0.929 . S
C3332 C3333 1.377 . S
C3332 C3334 1.384 . S
C3333 C3332 1.377 . S
C3333 C3339 1.390 . S
C3334 H3325 0.930 . S
C3334 C3332 1.384 . S
C3334 C3335 1.372 . S
C3335 C3334 1.372 . S
C3335 C3336 1.400 . S
C3335 C3340 1.490 . S
C3336 H3326 0.930 . S
C3336 C3335 1.400 . S
C3336 C3339 1.386 . S
H3337 C3353 0.930 . S
H3338 C3354 0.931 . S
C3339 H3327 0.929 . S
C3339 C3333 1.390 . S
C3339 C3336 1.386 . S
C3340 C3335 1.490 . S
C3340 C3342 1.395 . S
C3340 C3343 1.403 . S
H3341 C3347 0.930 . S
C3342 H3328 0.930 . S
C3342 C3340 1.395 . S
C3342 C3345 1.403 . S
C3343 C3340 1.403 . S
C3343 C3344 1.524 . S
C3343 C3347 1.400 . S
C3344 H3329 0.960 . S
C3344 H3330 0.960 . S
C3344 H3331 0.960 . S
C3344 C3343 1.524 . S
C3345 C3342 1.403 . S
C3345 C3346 1.392 . S
C3345 C3349 1.495 . S
C3346 C3345 1.392 . S
C3346 C3347 1.385 . S
C3346 C3348 1.478 . S
C3347 H3341 0.930 . S
C3347 C3343 1.400 . S
C3347 C3346 1.385 . S
C3348 C3346 1.478 . S
C3348 C3350 1.381 . S
C3348 C3354 1.383 . S
C3349 C3345 1.495 . S
C3349 H3355 0.959 . S
C3349 H3356 0.961 . S
C3349 H3357 0.960 . S
C3350 C3348 1.381 . S
C3350 C3351 1.394 . S
C3350 H3358 0.930 . S
C3351 C3350 1.394 . S
C3351 C3352 1.383 . S
C3351 H3359 0.929 . S
C3352 C3351 1.383 . S
C3352 C3353 1.377 . S
C3353 H3337 0.930 . S
C3353 C3352 1.377 . S
C3353 C3354 1.379 . S
C3354 H3338 0.931 . S
C3354 C3348 1.383 . S
C3354 C3353 1.379 . S
H3355 C3349 0.959 . S
H3356 C3349 0.961 . S
H3357 C3349 0.960 . S
H3358 C3350 0.930 . S
H3359 C3351 0.929 . S
H3360 C3368 0.929 . S
H3361 C3370 0.930 . S
H3362 C3372 0.930 . S
H3363 C3375 0.929 . S
H3364 C3378 0.930 . S
H3365 C3380 0.960 . S
H3366 C3380 0.960 . S
H3367 C3380 0.960 . S
C3368 H3360 0.929 . S
C3368 C3369 1.377 1_565 S
C3368 C3370 1.384 . S
C3369 C3368 1.377 1_545 S
C3369 C3375 1.390 . S
C3370 H3361 0.930 . S
C3370 C3368 1.384 . S
C3370 C3371 1.372 1_565 S
C3371 C3370 1.372 1_545 S
C3371 C3372 1.400 . S
C3371 C3376 1.490 . S
C3372 H3362 0.930 . S
C3372 C3371 1.400 . S
C3372 C3375 1.386 . S
H3373 C3389 0.930 . S
H3374 C3390 0.931 . S
C3375 H3363 0.929 . S
C3375 C3369 1.390 . S
C3375 C3372 1.386 . S
C3376 C3371 1.490 . S
C3376 C3378 1.395 . S
C3376 C3379 1.403 1_545 S
H3377 C3383 0.930 1_565 S
C3378 H3364 0.930 . S
C3378 C3376 1.395 . S
C3378 C3381 1.403 . S
C3379 C3376 1.403 1_565 S
C3379 C3380 1.524 . S
C3379 C3383 1.400 1_565 S
C3380 H3365 0.960 . S
C3380 H3366 0.960 . S
C3380 H3367 0.960 . S
C3380 C3379 1.524 . S
C3381 C3378 1.403 . S
C3381 C3382 1.392 . S
C3381 C3385 1.495 . S
C3382 C3381 1.392 . S
C3382 C3383 1.385 . S
C3382 C3384 1.478 . S
C3383 H3377 0.930 1_545 S
C3383 C3379 1.400 1_545 S
C3383 C3382 1.385 . S
C3384 C3382 1.478 . S
C3384 C3386 1.381 . S
C3384 C3390 1.383 . S
C3385 C3381 1.495 . S
C3385 H3391 0.959 . S
C3385 H3392 0.961 . S
C3385 H3393 0.960 . S
C3386 C3384 1.381 . S
C3386 C3387 1.394 . S
C3386 H3394 0.930 1_545 S
C3387 C3386 1.394 . S
C3387 C3388 1.383 . S
C3387 H3395 0.929 1_545 S
C3388 C3387 1.383 . S
C3388 C3389 1.377 . S
C3389 H3373 0.930 . S
C3389 C3388 1.377 . S
C3389 C3390 1.379 . S
C3390 H3374 0.931 . S
C3390 C3384 1.383 . S
C3390 C3389 1.379 . S
H3391 C3385 0.959 . S
H3392 C3385 0.961 . S
H3393 C3385 0.960 . S
H3394 C3386 0.930 1_565 S
H3395 C3387 0.929 1_565 S
H3396 C3404 0.929 . S
H3397 C3406 0.930 . S
H3398 C3408 0.930 . S
H3399 C3411 0.929 . S
H3400 C3414 0.930 . S
H3401 C3416 0.960 . S
H3402 C3416 0.960 . S
H3403 C3416 0.960 . S
C3404 H3396 0.929 . S
C3404 C3405 1.377 . S
C3404 C3406 1.384 . S
C3405 C3404 1.377 . S
C3405 C3411 1.390 . S
C3406 H3397 0.930 . S
C3406 C3404 1.384 . S
C3406 C3407 1.372 . S
C3407 C3406 1.372 . S
C3407 C3408 1.400 . S
C3407 C3412 1.490 . S
C3408 H3398 0.930 . S
C3408 C3407 1.400 . S
C3408 C3411 1.386 . S
H3409 C3425 0.930 . S
H3410 C3426 0.931 . S
C3411 H3399 0.929 . S
C3411 C3405 1.390 . S
C3411 C3408 1.386 . S
C3412 C3407 1.490 . S
C3412 C3414 1.395 . S
C3412 C3415 1.403 . S
H3413 C3419 0.930 . S
C3414 H3400 0.930 . S
C3414 C3412 1.395 . S
C3414 C3417 1.403 . S
C3415 C3412 1.403 . S
C3415 C3416 1.524 . S
C3415 C3419 1.400 . S
C3416 H3401 0.960 . S
C3416 H3402 0.960 . S
C3416 H3403 0.960 . S
C3416 C3415 1.524 . S
C3417 C3414 1.403 . S
C3417 C3418 1.392 . S
C3417 C3421 1.495 . S
C3418 C3417 1.392 . S
C3418 C3419 1.385 . S
C3418 C3420 1.478 . S
C3419 H3413 0.930 . S
C3419 C3415 1.400 . S
C3419 C3418 1.385 . S
C3420 C3418 1.478 . S
C3420 C3422 1.381 . S
C3420 C3426 1.383 . S
C3421 C3417 1.495 . S
C3421 H3427 0.959 . S
C3421 H3428 0.961 . S
C3421 H3429 0.960 . S
C3422 C3420 1.381 . S
C3422 C3423 1.394 . S
C3422 H3430 0.930 . S
C3423 C3422 1.394 . S
C3423 C3424 1.383 . S
C3423 H3431 0.929 . S
C3424 C3423 1.383 . S
C3424 C3425 1.377 . S
C3425 H3409 0.930 . S
C3425 C3424 1.377 . S
C3425 C3426 1.379 . S
C3426 H3410 0.931 . S
C3426 C3420 1.383 . S
C3426 C3425 1.379 . S
H3427 C3421 0.959 . S
H3428 C3421 0.961 . S
H3429 C3421 0.960 . S
H3430 C3422 0.930 . S
H3431 C3423 0.929 . S
H3432 C3440 0.929 . S
H3433 C3442 0.930 . S
H3434 C3444 0.930 . S
H3435 C3447 0.929 . S
H3436 C3450 0.930 . S
H3437 C3452 0.960 . S
H3438 C3452 0.960 . S
H3439 C3452 0.960 . S
C3440 H3432 0.929 . S
C3440 C3441 1.377 . S
C3440 C3442 1.384 . S
C3441 C3440 1.377 . S
C3441 C3447 1.390 . S
C3442 H3433 0.930 . S
C3442 C3440 1.384 . S
C3442 C3443 1.372 . S
C3443 C3442 1.372 . S
C3443 C3444 1.400 . S
C3443 C3448 1.490 . S
C3444 H3434 0.930 . S
C3444 C3443 1.400 . S
C3444 C3447 1.386 . S
H3445 C3461 0.930 . S
H3446 C3462 0.931 . S
C3447 H3435 0.929 . S
C3447 C3441 1.390 . S
C3447 C3444 1.386 . S
C3448 C3443 1.490 . S
C3448 C3450 1.395 . S
C3448 C3451 1.403 . S
H3449 C3455 0.930 . S
C3450 H3436 0.930 . S
C3450 C3448 1.395 . S
C3450 C3453 1.403 . S
C3451 C3448 1.403 . S
C3451 C3452 1.524 . S
C3451 C3455 1.400 . S
C3452 H3437 0.960 . S
C3452 H3438 0.960 . S
C3452 H3439 0.960 . S
C3452 C3451 1.524 . S
C3453 C3450 1.403 . S
C3453 C3454 1.392 . S
C3453 C3457 1.495 . S
C3454 C3453 1.392 . S
C3454 C3455 1.385 . S
C3454 C3456 1.478 . S
C3455 H3449 0.930 . S
C3455 C3451 1.400 . S
C3455 C3454 1.385 . S
C3456 C3454 1.478 . S
C3456 C3458 1.381 . S
C3456 C3462 1.383 . S
C3457 C3453 1.495 . S
C3457 H3463 0.959 . S
C3457 H3464 0.961 . S
C3457 H3465 0.960 . S
C3458 C3456 1.381 . S
C3458 C3459 1.394 . S
C3458 H3466 0.930 . S
C3459 C3458 1.394 . S
C3459 C3460 1.383 . S
C3459 H3467 0.929 . S
C3460 C3459 1.383 . S
C3460 C3461 1.377 . S
C3461 H3445 0.930 . S
C3461 C3460 1.377 . S
C3461 C3462 1.379 . S
C3462 H3446 0.931 . S
C3462 C3456 1.383 . S
C3462 C3461 1.379 . S
H3463 C3457 0.959 . S
H3464 C3457 0.961 . S
H3465 C3457 0.960 . S
H3466 C3458 0.930 . S
H3467 C3459 0.929 . S
H3468 C3476 0.929 . S
H3469 C3478 0.930 . S
H3470 C3480 0.930 . S
H3471 C3483 0.929 . S
H3472 C3486 0.930 . S
H3473 C3488 0.960 . S
H3474 C3488 0.960 . S
H3475 C3488 0.960 . S
C3476 H3468 0.929 . S
C3476 C3477 1.377 . S
C3476 C3478 1.384 . S
C3477 C3476 1.377 . S
C3477 C3483 1.390 . S
C3478 H3469 0.930 . S
C3478 C3476 1.384 . S
C3478 C3479 1.372 . S
C3479 C3478 1.372 . S
C3479 C3480 1.400 . S
C3479 C3484 1.490 . S
C3480 H3470 0.930 . S
C3480 C3479 1.400 . S
C3480 C3483 1.386 . S
H3481 C3497 0.930 . S
H3482 C3498 0.931 . S
C3483 H3471 0.929 . S
C3483 C3477 1.390 . S
C3483 C3480 1.386 . S
C3484 C3479 1.490 . S
C3484 C3486 1.395 . S
C3484 C3487 1.403 . S
H3485 C3491 0.930 . S
C3486 H3472 0.930 . S
C3486 C3484 1.395 . S
C3486 C3489 1.403 . S
C3487 C3484 1.403 . S
C3487 C3488 1.524 . S
C3487 C3491 1.400 . S
C3488 H3473 0.960 . S
C3488 H3474 0.960 . S
C3488 H3475 0.960 . S
C3488 C3487 1.524 . S
C3489 C3486 1.403 . S
C3489 C3490 1.392 . S
C3489 C3493 1.495 . S
C3490 C3489 1.392 . S
C3490 C3491 1.385 . S
C3490 C3492 1.478 . S
C3491 H3485 0.930 . S
C3491 C3487 1.400 . S
C3491 C3490 1.385 . S
C3492 C3490 1.478 . S
C3492 C3494 1.381 . S
C3492 C3498 1.383 . S
C3493 C3489 1.495 . S
C3493 H3499 0.959 . S
C3493 H3500 0.961 . S
C3493 H3501 0.960 . S
C3494 C3492 1.381 . S
C3494 C3495 1.394 . S
C3494 H3502 0.930 . S
C3495 C3494 1.394 . S
C3495 C3496 1.383 . S
C3495 H3503 0.929 . S
C3496 C3495 1.383 . S
C3496 C3497 1.377 . S
C3497 H3481 0.930 . S
C3497 C3496 1.377 . S
C3497 C3498 1.379 . S
C3498 H3482 0.931 . S
C3498 C3492 1.383 . S
C3498 C3497 1.379 . S
H3499 C3493 0.959 . S
H3500 C3493 0.961 . S
H3501 C3493 0.960 . S
H3502 C3494 0.930 . S
H3503 C3495 0.929 . S
H3504 C3512 0.929 . S
H3505 C3514 0.930 . S
H3506 C3516 0.930 . S
H3507 C3519 0.929 . S
H3508 C3522 0.930 . S
H3509 C3524 0.960 . S
H3510 C3524 0.960 . S
H3511 C3524 0.960 . S
C3512 H3504 0.929 . S
C3512 C3513 1.377 . S
C3512 C3514 1.384 . S
C3513 C3512 1.377 . S
C3513 C3519 1.390 1_565 S
C3514 H3505 0.930 . S
C3514 C3512 1.384 . S
C3514 C3515 1.372 1_565 S
C3515 C3514 1.372 1_545 S
C3515 C3516 1.400 . S
C3515 C3520 1.490 . S
C3516 H3506 0.930 . S
C3516 C3515 1.400 . S
C3516 C3519 1.386 . S
H3517 C3533 0.930 . S
H3518 C3534 0.931 . S
C3519 H3507 0.929 . S
C3519 C3513 1.390 1_545 S
C3519 C3516 1.386 . S
C3520 C3515 1.490 . S
C3520 C3522 1.395 1_545 S
C3520 C3523 1.403 . S
H3521 C3527 0.930 . S
C3522 H3508 0.930 . S
C3522 C3520 1.395 1_565 S
C3522 C3525 1.403 . S
C3523 C3520 1.403 . S
C3523 C3524 1.524 . S
C3523 C3527 1.400 . S
C3524 H3509 0.960 . S
C3524 H3510 0.960 . S
C3524 H3511 0.960 . S
C3524 C3523 1.524 . S
C3525 C3522 1.403 . S
C3525 C3526 1.392 1_565 S
C3525 C3529 1.495 . S
C3526 C3525 1.392 1_545 S
C3526 C3527 1.385 . S
C3526 C3528 1.478 . S
C3527 H3521 0.930 . S
C3527 C3523 1.400 . S
C3527 C3526 1.385 . S
C3528 C3526 1.478 . S
C3528 C3530 1.381 . S
C3528 C3534 1.383 . S
C3529 C3525 1.495 . S
C3529 H3535 0.959 . S
C3529 H3536 0.961 . S
C3529 H3537 0.960 . S
C3530 C3528 1.381 . S
C3530 C3531 1.394 . S
C3530 H3538 0.930 . S
C3531 C3530 1.394 . S
C3531 C3532 1.383 . S
C3531 H3539 0.929 . S
C3532 C3531 1.383 . S
C3532 C3533 1.377 . S
C3533 H3517 0.930 . S
C3533 C3532 1.377 . S
C3533 C3534 1.379 . S
C3534 H3518 0.931 . S
C3534 C3528 1.383 . S
C3534 C3533 1.379 . S
H3535 C3529 0.959 . S
H3536 C3529 0.961 . S
H3537 C3529 0.960 . S
H3538 C3530 0.930 . S
H3539 C3531 0.929 . S
H3540 C3548 0.929 . S
H3541 C3550 0.930 . S
H3542 C3552 0.930 . S
H3543 C3555 0.929 . S
H3544 C3558 0.930 . S
H3545 C3560 0.960 . S
H3546 C3560 0.960 . S
H3547 C3560 0.960 . S
C3548 H3540 0.929 . S
C3548 C3549 1.377 . S
C3548 C3550 1.384 . S
C3549 C3548 1.377 . S
C3549 C3555 1.390 . S
C3550 H3541 0.930 . S
C3550 C3548 1.384 . S
C3550 C3551 1.372 . S
C3551 C3550 1.372 . S
C3551 C3552 1.400 . S
C3551 C3556 1.490 . S
C3552 H3542 0.930 . S
C3552 C3551 1.400 . S
C3552 C3555 1.386 . S
H3553 C3569 0.930 . S
H3554 C3570 0.931 . S
C3555 H3543 0.929 . S
C3555 C3549 1.390 . S
C3555 C3552 1.386 . S
C3556 C3551 1.490 . S
C3556 C3558 1.395 . S
C3556 C3559 1.403 . S
H3557 C3563 0.930 . S
C3558 H3544 0.930 . S
C3558 C3556 1.395 . S
C3558 C3561 1.403 . S
C3559 C3556 1.403 . S
C3559 C3560 1.524 . S
C3559 C3563 1.400 . S
C3560 H3545 0.960 . S
C3560 H3546 0.960 . S
C3560 H3547 0.960 . S
C3560 C3559 1.524 . S
C3561 C3558 1.403 . S
C3561 C3562 1.392 . S
C3561 C3565 1.495 . S
C3562 C3561 1.392 . S
C3562 C3563 1.385 . S
C3562 C3564 1.478 . S
C3563 H3557 0.930 . S
C3563 C3559 1.400 . S
C3563 C3562 1.385 . S
C3564 C3562 1.478 . S
C3564 C3566 1.381 . S
C3564 C3570 1.383 . S
C3565 C3561 1.495 . S
C3565 H3571 0.959 . S
C3565 H3572 0.961 . S
C3565 H3573 0.960 . S
C3566 C3564 1.381 . S
C3566 C3567 1.394 . S
C3566 H3574 0.930 . S
C3567 C3566 1.394 . S
C3567 C3568 1.383 . S
C3567 H3575 0.929 . S
C3568 C3567 1.383 . S
C3568 C3569 1.377 . S
C3569 H3553 0.930 . S
C3569 C3568 1.377 . S
C3569 C3570 1.379 . S
C3570 H3554 0.931 . S
C3570 C3564 1.383 . S
C3570 C3569 1.379 . S
H3571 C3565 0.959 . S
H3572 C3565 0.961 . S
H3573 C3565 0.960 . S
H3574 C3566 0.930 . S
H3575 C3567 0.929 . S
H3576 C3584 0.929 . S
H3577 C3586 0.930 . S
H3578 C3588 0.930 . S
H3579 C3591 0.929 . S
H3580 C3594 0.930 . S
H3581 C3596 0.960 . S
H3582 C3596 0.960 1_545 S
H3583 C3596 0.960 . S
C3584 H3576 0.929 . S
C3584 C3585 1.377 . S
C3584 C3586 1.384 . S
C3585 C3584 1.377 . S
C3585 C3591 1.390 . S
C3586 H3577 0.930 . S
C3586 C3584 1.384 . S
C3586 C3587 1.372 . S
C3587 C3586 1.372 . S
C3587 C3588 1.400 . S
C3587 C3592 1.490 . S
C3588 H3578 0.930 . S
C3588 C3587 1.400 . S
C3588 C3591 1.386 . S
H3589 C3605 0.930 . S
H3590 C3606 0.931 . S
C3591 H3579 0.929 . S
C3591 C3585 1.390 . S
C3591 C3588 1.386 . S
C3592 C3587 1.490 . S
C3592 C3594 1.395 . S
C3592 C3595 1.403 . S
H3593 C3599 0.930 . S
C3594 H3580 0.930 . S
C3594 C3592 1.395 . S
C3594 C3597 1.403 . S
C3595 C3592 1.403 . S
C3595 C3596 1.524 1_545 S
C3595 C3599 1.400 . S
C3596 H3581 0.960 . S
C3596 H3582 0.960 1_565 S
C3596 H3583 0.960 . S
C3596 C3595 1.524 1_565 S
C3597 C3594 1.403 . S
C3597 C3598 1.392 . S
C3597 C3601 1.495 . S
C3598 C3597 1.392 . S
C3598 C3599 1.385 . S
C3598 C3600 1.478 . S
C3599 H3593 0.930 . S
C3599 C3595 1.400 . S
C3599 C3598 1.385 . S
C3600 C3598 1.478 . S
C3600 C3602 1.381 . S
C3600 C3606 1.383 . S
C3601 C3597 1.495 . S
C3601 H3607 0.959 . S
C3601 H3608 0.961 . S
C3601 H3609 0.960 . S
C3602 C3600 1.381 . S
C3602 C3603 1.394 . S
C3602 H3610 0.930 . S
C3603 C3602 1.394 . S
C3603 C3604 1.383 . S
C3603 H3611 0.929 . S
C3604 C3603 1.383 . S
C3604 C3605 1.377 . S
C3605 H3589 0.930 . S
C3605 C3604 1.377 . S
C3605 C3606 1.379 . S
C3606 H3590 0.931 . S
C3606 C3600 1.383 . S
C3606 C3605 1.379 . S
H3607 C3601 0.959 . S
H3608 C3601 0.961 . S
H3609 C3601 0.960 . S
H3610 C3602 0.930 . S
H3611 C3603 0.929 . S
H3612 C3620 0.929 . S
H3613 C3622 0.930 . S
H3614 C3624 0.930 . S
H3615 C3627 0.929 . S
H3616 C3630 0.930 . S
H3617 C3632 0.960 . S
H3618 C3632 0.960 . S
H3619 C3632 0.960 . S
C3620 H3612 0.929 . S
C3620 C3621 1.377 . S
C3620 C3622 1.384 . S
C3621 C3620 1.377 . S
C3621 C3627 1.390 . S
C3622 H3613 0.930 . S
C3622 C3620 1.384 . S
C3622 C3623 1.372 . S
C3623 C3622 1.372 . S
C3623 C3624 1.400 . S
C3623 C3628 1.490 . S
C3624 H3614 0.930 . S
C3624 C3623 1.400 . S
C3624 C3627 1.386 . S
H3625 C3641 0.930 . S
H3626 C3642 0.931 . S
C3627 H3615 0.929 . S
C3627 C3621 1.390 . S
C3627 C3624 1.386 . S
C3628 C3623 1.490 . S
C3628 C3630 1.395 . S
C3628 C3631 1.403 . S
H3629 C3635 0.930 . S
C3630 H3616 0.930 . S
C3630 C3628 1.395 . S
C3630 C3633 1.403 . S
C3631 C3628 1.403 . S
C3631 C3632 1.524 . S
C3631 C3635 1.400 . S
C3632 H3617 0.960 . S
C3632 H3618 0.960 . S
C3632 H3619 0.960 . S
C3632 C3631 1.524 . S
C3633 C3630 1.403 . S
C3633 C3634 1.392 . S
C3633 C3637 1.495 . S
C3634 C3633 1.392 . S
C3634 C3635 1.385 . S
C3634 C3636 1.478 . S
C3635 H3629 0.930 . S
C3635 C3631 1.400 . S
C3635 C3634 1.385 . S
C3636 C3634 1.478 . S
C3636 C3638 1.381 . S
C3636 C3642 1.383 . S
C3637 C3633 1.495 . S
C3637 H3643 0.959 . S
C3637 H3644 0.961 . S
C3637 H3645 0.960 . S
C3638 C3636 1.381 . S
C3638 C3639 1.394 . S
C3638 H3646 0.930 . S
C3639 C3638 1.394 . S
C3639 C3640 1.383 . S
C3639 H3647 0.929 . S
C3640 C3639 1.383 . S
C3640 C3641 1.377 . S
C3641 H3625 0.930 . S
C3641 C3640 1.377 . S
C3641 C3642 1.379 . S
C3642 H3626 0.931 . S
C3642 C3636 1.383 . S
C3642 C3641 1.379 . S
H3643 C3637 0.959 . S
H3644 C3637 0.961 . S
H3645 C3637 0.960 . S
H3646 C3638 0.930 . S
H3647 C3639 0.929 . S
H3648 C3656 0.929 . S
H3649 C3658 0.930 . S
H3650 C3660 0.930 . S
H3651 C3663 0.929 . S
H3652 C3666 0.947 . S
H3653 C3668 0.960 . S
H3654 C3668 0.960 . S
H3655 C3668 0.960 . S
C3656 H3648 0.929 . S
C3656 C3657 1.377 . S
C3656 C3658 1.384 . S
C3657 C3656 1.377 . S
C3657 C3663 1.390 . S
C3658 H3649 0.930 . S
C3658 C3656 1.384 . S
C3658 C3659 1.372 . S
C3659 C3658 1.372 . S
C3659 C3660 1.400 . S
C3659 C3664 1.490 . S
C3660 H3650 0.930 . S
C3660 C3659 1.400 . S
C3660 C3663 1.386 . S
H3661 C3677 0.930 . S
H3662 C3678 0.931 . S
C3663 H3651 0.929 . S
C3663 C3657 1.390 . S
C3663 C3660 1.386 . S
C3664 C3659 1.490 . S
C3664 C3666 1.375 1_554 S
C3664 C3667 1.403 . S
H3665 C3671 0.930 . S
C3666 H3652 0.947 . S
C3666 C3664 1.375 1_556 S
C3666 C3669 1.407 . S
C3667 C3664 1.403 . S
C3667 C3668 1.524 . S
C3667 C3671 1.400 . S
C3668 H3653 0.960 . S
C3668 H3654 0.960 . S
C3668 H3655 0.960 . S
C3668 C3667 1.524 . S
C3669 C3666 1.407 . S
C3669 C3670 1.392 1_556 S
C3669 C3673 1.495 . S
C3670 C3669 1.392 1_554 S
C3670 C3671 1.385 . S
C3670 C3672 1.478 . S
C3671 H3665 0.930 . S
C3671 C3667 1.400 . S
C3671 C3670 1.385 . S
C3672 C3670 1.478 . S
C3672 C3674 1.381 . S
C3672 C3678 1.383 . S
C3673 C3669 1.495 . S
C3673 H3679 0.959 . S
C3673 H3680 0.961 . S
C3673 H3681 0.960 . S
C3674 C3672 1.381 . S
C3674 C3675 1.394 . S
C3674 H3682 0.930 . S
C3675 C3674 1.394 . S
C3675 C3676 1.383 . S
C3675 H3683 0.929 . S
C3676 C3675 1.383 . S
C3676 C3677 1.377 . S
C3677 H3661 0.930 . S
C3677 C3676 1.377 . S
C3677 C3678 1.379 . S
C3678 H3662 0.931 . S
C3678 C3672 1.383 . S
C3678 C3677 1.379 . S
H3679 C3673 0.959 . S
H3680 C3673 0.961 . S
H3681 C3673 0.960 . S
H3682 C3674 0.930 . S
H3683 C3675 0.929 . S
H3684 C3692 0.929 . S
H3685 C3694 0.930 . S
H3686 C3696 0.930 . S
H3687 C3699 0.929 . S
H3688 C3702 0.930 . S
H3689 C3704 0.960 . S
H3690 C3704 0.960 . S
H3691 C3704 0.960 . S
C3692 H3684 0.929 . S
C3692 C3693 1.377 . S
C3692 C3694 1.384 . S
C3693 C3692 1.377 . S
C3693 C3699 1.390 . S
C3694 H3685 0.930 . S
C3694 C3692 1.384 . S
C3694 C3695 1.372 . S
C3695 C3694 1.372 . S
C3695 C3696 1.400 . S
C3695 C3700 1.490 . S
C3696 H3686 0.930 . S
C3696 C3695 1.400 . S
C3696 C3699 1.386 . S
H3697 C3713 0.930 . S
H3698 C3714 0.931 . S
C3699 H3687 0.929 . S
C3699 C3693 1.390 . S
C3699 C3696 1.386 . S
C3700 C3695 1.490 . S
C3700 C3702 1.395 . S
C3700 C3703 1.403 . S
H3701 C3707 0.930 . S
C3702 H3688 0.930 . S
C3702 C3700 1.395 . S
C3702 C3705 1.403 . S
C3703 C3700 1.403 . S
C3703 C3704 1.524 . S
C3703 C3707 1.400 . S
C3704 H3689 0.960 . S
C3704 H3690 0.960 . S
C3704 H3691 0.960 . S
C3704 C3703 1.524 . S
C3705 C3702 1.403 . S
C3705 C3706 1.392 . S
C3705 C3709 1.495 . S
C3706 C3705 1.392 . S
C3706 C3707 1.385 . S
C3706 C3708 1.478 . S
C3707 H3701 0.930 . S
C3707 C3703 1.400 . S
C3707 C3706 1.385 . S
C3708 C3706 1.478 . S
C3708 C3710 1.381 . S
C3708 C3714 1.383 . S
C3709 C3705 1.495 . S
C3709 H3715 0.946 1_554 S
C3709 H3716 0.961 . S
C3709 H3717 0.960 1_554 S
C3710 C3708 1.381 . S
C3710 C3711 1.394 . S
C3710 H3718 0.930 . S
C3711 C3710 1.394 . S
C3711 C3712 1.383 . S
C3711 H3719 0.929 . S
C3712 C3711 1.383 . S
C3712 C3713 1.377 . S
C3713 H3697 0.930 . S
C3713 C3712 1.377 . S
C3713 C3714 1.379 . S
C3714 H3698 0.931 . S
C3714 C3708 1.383 . S
C3714 C3713 1.379 . S
H3715 C3709 0.946 1_556 S
H3716 C3709 0.961 . S
H3717 C3709 0.960 1_556 S
H3718 C3710 0.930 . S
H3719 C3711 0.929 . S
H3720 C3728 0.929 . S
H3721 C3730 0.930 . S
H3722 C3732 0.930 . S
H3723 C3735 0.929 . S
H3724 C3738 0.930 . S
H3725 C3740 0.960 . S
H3726 C3740 0.960 . S
H3727 C3740 0.960 . S
C3728 H3720 0.929 . S
C3728 C3729 1.377 . S
C3728 C3730 1.384 . S
C3729 C3728 1.377 . S
C3729 C3735 1.390 . S
C3730 H3721 0.930 . S
C3730 C3728 1.384 . S
C3730 C3731 1.372 . S
C3731 C3730 1.372 . S
C3731 C3732 1.400 . S
C3731 C3736 1.490 . S
C3732 H3722 0.930 . S
C3732 C3731 1.400 . S
C3732 C3735 1.386 . S
H3733 C3749 0.930 . S
H3734 C3750 0.931 . S
C3735 H3723 0.929 . S
C3735 C3729 1.390 . S
C3735 C3732 1.386 . S
C3736 C3731 1.490 . S
C3736 C3738 1.395 . S
C3736 C3739 1.403 . S
H3737 C3743 0.930 . S
C3738 H3724 0.930 . S
C3738 C3736 1.395 . S
C3738 C3741 1.403 . S
C3739 C3736 1.403 . S
C3739 C3740 1.524 . S
C3739 C3743 1.400 . S
C3740 H3725 0.960 . S
C3740 H3726 0.960 . S
C3740 H3727 0.960 . S
C3740 C3739 1.524 . S
C3741 C3738 1.403 . S
C3741 C3742 1.392 . S
C3741 C3745 1.495 . S
C3742 C3741 1.392 . S
C3742 C3743 1.385 . S
C3742 C3744 1.478 . S
C3743 H3737 0.930 . S
C3743 C3739 1.400 . S
C3743 C3742 1.385 . S
C3744 C3742 1.478 . S
C3744 C3746 1.381 . S
C3744 C3750 1.383 . S
C3745 C3741 1.495 . S
C3745 H3751 0.959 . S
C3745 H3752 0.961 . S
C3745 H3753 0.960 . S
C3746 C3744 1.381 . S
C3746 C3747 1.394 . S
C3746 H3754 0.930 . S
C3747 C3746 1.394 . S
C3747 C3748 1.383 . S
C3747 H3755 0.929 . S
C3748 C3747 1.383 . S
C3748 C3749 1.377 . S
C3749 H3733 0.930 . S
C3749 C3748 1.377 . S
C3749 C3750 1.379 . S
C3750 H3734 0.931 . S
C3750 C3744 1.383 . S
C3750 C3749 1.379 . S
H3751 C3745 0.959 . S
H3752 C3745 0.961 . S
H3753 C3745 0.960 . S
H3754 C3746 0.930 . S
H3755 C3747 0.929 . S
H3756 C3764 0.929 . S
H3757 C3766 0.930 . S
H3758 C3768 0.930 . S
H3759 C3771 0.929 . S
H3760 C3774 0.930 . S
H3761 C3776 0.960 . S
H3762 C3776 0.960 . S
H3763 C3776 0.960 . S
C3764 H3756 0.929 . S
C3764 C3765 1.377 . S
C3764 C3766 1.384 . S
C3765 C3764 1.377 . S
C3765 C3771 1.390 . S
C3766 H3757 0.930 . S
C3766 C3764 1.384 . S
C3766 C3767 1.372 . S
C3767 C3766 1.372 . S
C3767 C3768 1.400 . S
C3767 C3772 1.490 . S
C3768 H3758 0.930 . S
C3768 C3767 1.400 . S
C3768 C3771 1.386 . S
H3769 C3785 0.930 . S
H3770 C3786 0.931 . S
C3771 H3759 0.929 . S
C3771 C3765 1.390 . S
C3771 C3768 1.386 . S
C3772 C3767 1.490 . S
C3772 C3774 1.395 . S
C3772 C3775 1.403 . S
H3773 C3779 0.930 . S
C3774 H3760 0.930 . S
C3774 C3772 1.395 . S
C3774 C3777 1.403 . S
C3775 C3772 1.403 . S
C3775 C3776 1.524 . S
C3775 C3779 1.400 . S
C3776 H3761 0.960 . S
C3776 H3762 0.960 . S
C3776 H3763 0.960 . S
C3776 C3775 1.524 . S
C3777 C3774 1.403 . S
C3777 C3778 1.392 . S
C3777 C3781 1.495 . S
C3778 C3777 1.392 . S
C3778 C3779 1.385 . S
C3778 C3780 1.478 . S
C3779 H3773 0.930 . S
C3779 C3775 1.400 . S
C3779 C3778 1.385 . S
C3780 C3778 1.478 . S
C3780 C3782 1.381 . S
C3780 C3786 1.383 . S
C3781 C3777 1.495 . S
C3781 H3787 0.959 . S
C3781 H3788 0.961 . S
C3781 H3789 0.960 . S
C3782 C3780 1.381 . S
C3782 C3783 1.394 . S
C3782 H3790 0.930 . S
C3783 C3782 1.394 . S
C3783 C3784 1.383 . S
C3783 H3791 0.929 . S
C3784 C3783 1.383 . S
C3784 C3785 1.377 . S
C3785 H3769 0.930 . S
C3785 C3784 1.377 . S
C3785 C3786 1.379 . S
C3786 H3770 0.931 . S
C3786 C3780 1.383 . S
C3786 C3785 1.379 . S
H3787 C3781 0.959 . S
H3788 C3781 0.961 . S
H3789 C3781 0.960 . S
H3790 C3782 0.930 . S
H3791 C3783 0.929 . S
H3792 C3800 0.916 1_545 S
H3793 C3802 0.930 . S
H3794 C3804 0.930 . S
H3795 C3807 0.929 . S
H3796 C3810 0.930 . S
H3797 C3812 0.960 . S
H3798 C3812 0.960 . S
H3799 C3812 0.960 . S
C3800 H3792 0.916 1_565 S
C3800 C3801 1.361 1_565 S
C3800 C3802 1.414 . S
C3801 C3800 1.361 1_545 S
C3801 C3807 1.390 . S
C3802 H3793 0.930 . S
C3802 C3800 1.414 . S
C3802 C3803 1.372 . S
C3803 C3802 1.372 . S
C3803 C3804 1.400 . S
C3803 C3808 1.490 . S
C3804 H3794 0.930 . S
C3804 C3803 1.400 . S
C3804 C3807 1.386 1_565 S
H3805 C3821 0.930 . S
H3806 C3822 0.931 . S
C3807 H3795 0.929 . S
C3807 C3801 1.390 . S
C3807 C3804 1.386 1_545 S
C3808 C3803 1.490 . S
C3808 C3810 1.395 . S
C3808 C3811 1.403 . S
H3809 C3815 0.930 . S
C3810 H3796 0.930 . S
C3810 C3808 1.395 . S
C3810 C3813 1.403 . S
C3811 C3808 1.403 . S
C3811 C3812 1.524 . S
C3811 C3815 1.400 . S
C3812 H3797 0.960 . S
C3812 H3798 0.960 . S
C3812 H3799 0.960 . S
C3812 C3811 1.524 . S
C3813 C3810 1.403 . S
C3813 C3814 1.392 . S
C3813 C3817 1.495 . S
C3814 C3813 1.392 . S
C3814 C3815 1.385 . S
C3814 C3816 1.478 . S
C3815 H3809 0.930 . S
C3815 C3811 1.400 . S
C3815 C3814 1.385 . S
C3816 C3814 1.478 . S
C3816 C3818 1.381 . S
C3816 C3822 1.383 . S
C3817 C3813 1.495 . S
C3817 H3823 0.959 . S
C3817 H3824 0.961 . S
C3817 H3825 0.960 . S
C3818 C3816 1.381 . S
C3818 C3819 1.394 . S
C3818 H3826 0.930 . S
C3819 C3818 1.394 . S
C3819 C3820 1.383 . S
C3819 H3827 0.929 . S
C3820 C3819 1.383 . S
C3820 C3821 1.377 . S
C3821 H3805 0.930 . S
C3821 C3820 1.377 . S
C3821 C3822 1.379 . S
C3822 H3806 0.931 . S
C3822 C3816 1.383 . S
C3822 C3821 1.379 . S
H3823 C3817 0.959 . S
H3824 C3817 0.961 . S
H3825 C3817 0.960 . S
H3826 C3818 0.930 . S
H3827 C3819 0.929 . S
H3828 C3836 0.929 . S
H3829 C3838 0.930 . S
H3830 C3840 0.930 . S
H3831 C3843 0.929 . S
H3832 C3846 0.930 . S
H3833 C3848 0.960 . S
H3834 C3848 0.960 . S
H3835 C3848 0.960 . S
C3836 H3828 0.929 . S
C3836 C3837 1.377 . S
C3836 C3838 1.384 . S
C3837 C3836 1.377 . S
C3837 C3843 1.390 . S
C3838 H3829 0.930 . S
C3838 C3836 1.384 . S
C3838 C3839 1.372 . S
C3839 C3838 1.372 . S
C3839 C3840 1.400 . S
C3839 C3844 1.490 . S
C3840 H3830 0.930 . S
C3840 C3839 1.400 . S
C3840 C3843 1.386 . S
H3841 C3857 0.935 . S
H3842 C3858 0.931 . S
C3843 H3831 0.929 . S
C3843 C3837 1.390 . S
C3843 C3840 1.386 . S
C3844 C3839 1.490 . S
C3844 C3846 1.395 . S
C3844 C3847 1.403 . S
H3845 C3851 0.930 . S
C3846 H3832 0.930 . S
C3846 C3844 1.395 . S
C3846 C3849 1.403 . S
C3847 C3844 1.403 . S
C3847 C3848 1.524 . S
C3847 C3851 1.400 . S
C3848 H3833 0.960 . S
C3848 H3834 0.960 . S
C3848 H3835 0.960 . S
C3848 C3847 1.524 . S
C3849 C3846 1.403 . S
C3849 C3850 1.392 . S
C3849 C3853 1.495 . S
C3850 C3849 1.392 . S
C3850 C3851 1.385 . S
C3850 C3852 1.478 . S
C3851 H3845 0.930 . S
C3851 C3847 1.400 . S
C3851 C3850 1.385 . S
C3852 C3850 1.478 . S
C3852 C3854 1.381 . S
C3852 C3858 1.383 . S
C3853 C3849 1.495 . S
C3853 H3859 0.959 . S
C3853 H3860 0.961 . S
C3853 H3861 0.960 . S
C3854 C3852 1.381 . S
C3854 C3855 1.394 . S
C3854 H3862 0.930 . S
C3855 C3854 1.394 . S
C3855 C3856 1.383 . S
C3855 H3863 0.929 . S
C3856 C3855 1.383 . S
C3856 C3857 1.377 . S
C3857 H3841 0.935 . S
C3857 C3856 1.377 . S
C3857 C3858 1.379 . S
C3858 H3842 0.931 . S
C3858 C3852 1.383 . S
C3858 C3857 1.379 . S
H3859 C3853 0.959 . S
H3860 C3853 0.961 . S
H3861 C3853 0.960 . S
H3862 C3854 0.930 . S
H3863 C3855 0.929 . S
H3864 C3872 0.929 . S
H3865 C3874 0.930 . S
H3866 C3876 0.930 . S
H3867 C3879 0.929 . S
H3868 C3882 0.930 . S
H3869 C3884 0.960 . S
H3870 C3884 0.960 . S
H3871 C3884 0.960 . S
C3872 H3864 0.929 . S
C3872 C3873 1.377 . S
C3872 C3874 1.384 . S
C3873 C3872 1.377 . S
C3873 C3879 1.390 . S
C3874 H3865 0.930 . S
C3874 C3872 1.384 . S
C3874 C3875 1.372 . S
C3875 C3874 1.372 . S
C3875 C3876 1.400 . S
C3875 C3880 1.490 . S
C3876 H3866 0.930 . S
C3876 C3875 1.400 . S
C3876 C3879 1.386 . S
H3877 C3893 0.930 . S
H3878 C3894 0.931 . S
C3879 H3867 0.929 . S
C3879 C3873 1.390 . S
C3879 C3876 1.386 . S
C3880 C3875 1.490 . S
C3880 C3882 1.395 . S
C3880 C3883 1.403 . S
H3881 C3887 0.930 . S
C3882 H3868 0.930 . S
C3882 C3880 1.395 . S
C3882 C3885 1.403 . S
C3883 C3880 1.403 . S
C3883 C3884 1.524 . S
C3883 C3887 1.400 . S
C3884 H3869 0.960 . S
C3884 H3870 0.960 . S
C3884 H3871 0.960 . S
C3884 C3883 1.524 . S
C3885 C3882 1.403 . S
C3885 C3886 1.392 . S
C3885 C3889 1.495 . S
C3886 C3885 1.392 . S
C3886 C3887 1.385 . S
C3886 C3888 1.478 . S
C3887 H3881 0.930 . S
C3887 C3883 1.400 . S
C3887 C3886 1.385 . S
C3888 C3886 1.478 . S
C3888 C3890 1.381 . S
C3888 C3894 1.383 . S
C3889 C3885 1.495 . S
C3889 H3895 0.959 . S
C3889 H3896 0.961 . S
C3889 H3897 0.960 . S
C3890 C3888 1.381 . S
C3890 C3891 1.394 . S
C3890 H3898 0.930 . S
C3891 C3890 1.394 . S
C3891 C3892 1.383 . S
C3891 H3899 0.929 . S
C3892 C3891 1.383 . S
C3892 C3893 1.377 . S
C3893 H3877 0.930 . S
C3893 C3892 1.377 . S
C3893 C3894 1.379 . S
C3894 H3878 0.931 . S
C3894 C3888 1.383 . S
C3894 C3893 1.379 . S
H3895 C3889 0.959 . S
H3896 C3889 0.961 . S
H3897 C3889 0.960 . S
H3898 C3890 0.930 . S
H3899 C3891 0.929 . S
H3900 C3908 0.929 . S
H3901 C3910 0.930 . S
H3902 C3912 0.930 . S
H3903 C3915 0.929 . S
H3904 C3918 0.930 . S
H3905 C3920 0.960 . S
H3906 C3920 0.960 . S
H3907 C3920 0.960 . S
C3908 H3900 0.929 . S
C3908 C3909 1.377 . S
C3908 C3910 1.384 . S
C3909 C3908 1.377 . S
C3909 C3915 1.390 . S
C3910 H3901 0.930 . S
C3910 C3908 1.384 . S
C3910 C3911 1.372 . S
C3911 C3910 1.372 . S
C3911 C3912 1.400 . S
C3911 C3916 1.490 . S
C3912 H3902 0.930 . S
C3912 C3911 1.400 . S
C3912 C3915 1.386 . S
H3913 C3929 0.930 . S
H3914 C3930 0.931 . S
C3915 H3903 0.929 . S
C3915 C3909 1.390 . S
C3915 C3912 1.386 . S
C3916 C3911 1.490 . S
C3916 C3918 1.395 . S
C3916 C3919 1.403 . S
H3917 C3923 0.930 . S
C3918 H3904 0.930 . S
C3918 C3916 1.395 . S
C3918 C3921 1.403 . S
C3919 C3916 1.403 . S
C3919 C3920 1.524 . S
C3919 C3923 1.400 . S
C3920 H3905 0.960 . S
C3920 H3906 0.960 . S
C3920 H3907 0.960 . S
C3920 C3919 1.524 . S
C3921 C3918 1.403 . S
C3921 C3922 1.392 . S
C3921 C3925 1.495 . S
C3922 C3921 1.392 . S
C3922 C3923 1.385 . S
C3922 C3924 1.478 . S
C3923 H3917 0.930 . S
C3923 C3919 1.400 . S
C3923 C3922 1.385 . S
C3924 C3922 1.478 . S
C3924 C3926 1.381 . S
C3924 C3930 1.383 . S
C3925 C3921 1.495 . S
C3925 H3931 0.959 . S
C3925 H3932 0.961 . S
C3925 H3933 0.960 . S
C3926 C3924 1.381 . S
C3926 C3927 1.394 . S
C3926 H3934 0.930 . S
C3927 C3926 1.394 . S
C3927 C3928 1.383 . S
C3927 H3935 0.929 . S
C3928 C3927 1.383 . S
C3928 C3929 1.377 . S
C3929 H3913 0.930 . S
C3929 C3928 1.377 . S
C3929 C3930 1.379 . S
C3930 H3914 0.931 . S
C3930 C3924 1.383 . S
C3930 C3929 1.379 . S
H3931 C3925 0.959 . S
H3932 C3925 0.961 . S
H3933 C3925 0.960 . S
H3934 C3926 0.930 . S
H3935 C3927 0.929 . S
H3936 C3944 0.929 . S
H3937 C3946 0.930 . S
H3938 C3948 0.930 . S
H3939 C3951 0.929 . S
H3940 C3954 0.930 . S
H3941 C3956 0.960 . S
H3942 C3956 0.960 . S
H3943 C3956 0.960 . S
C3944 H3936 0.929 . S
C3944 C3945 1.377 . S
C3944 C3946 1.384 . S
C3945 C3944 1.377 . S
C3945 C3951 1.390 . S
C3946 H3937 0.930 . S
C3946 C3944 1.384 . S
C3946 C3947 1.372 . S
C3947 C3946 1.372 . S
C3947 C3948 1.400 . S
C3947 C3952 1.490 . S
C3948 H3938 0.930 . S
C3948 C3947 1.400 . S
C3948 C3951 1.386 . S
H3949 C3965 0.930 . S
H3950 C3966 0.931 . S
C3951 H3939 0.929 . S
C3951 C3945 1.390 . S
C3951 C3948 1.386 . S
C3952 C3947 1.490 . S
C3952 C3954 1.395 . S
C3952 C3955 1.403 . S
H3953 C3959 0.930 . S
C3954 H3940 0.930 . S
C3954 C3952 1.395 . S
C3954 C3957 1.403 . S
C3955 C3952 1.403 . S
C3955 C3956 1.524 . S
C3955 C3959 1.400 . S
C3956 H3941 0.960 . S
C3956 H3942 0.960 . S
C3956 H3943 0.960 . S
C3956 C3955 1.524 . S
C3957 C3954 1.403 . S
C3957 C3958 1.392 . S
C3957 C3961 1.495 . S
C3958 C3957 1.392 . S
C3958 C3959 1.385 . S
C3958 C3960 1.478 . S
C3959 H3953 0.930 . S
C3959 C3955 1.400 . S
C3959 C3958 1.385 . S
C3960 C3958 1.478 . S
C3960 C3962 1.381 . S
C3960 C3966 1.383 . S
C3961 C3957 1.495 . S
C3961 H3967 0.959 . S
C3961 H3968 0.961 . S
C3961 H3969 0.960 . S
C3962 C3960 1.381 . S
C3962 C3963 1.394 . S
C3962 H3970 0.930 . S
C3963 C3962 1.394 . S
C3963 C3964 1.383 . S
C3963 H3971 0.929 . S
C3964 C3963 1.383 . S
C3964 C3965 1.377 . S
C3965 H3949 0.930 . S
C3965 C3964 1.377 . S
C3965 C3966 1.379 . S
C3966 H3950 0.931 . S
C3966 C3960 1.383 . S
C3966 C3965 1.379 . S
H3967 C3961 0.959 . S
H3968 C3961 0.961 . S
H3969 C3961 0.960 . S
H3970 C3962 0.930 . S
H3971 C3963 0.929 . S
H3972 C3980 0.929 . S
H3973 C3982 0.930 . S
H3974 C3984 0.930 . S
H3975 C3987 0.929 . S
H3976 C3990 0.930 . S
H3977 C3992 0.960 . S
H3978 C3992 0.960 . S
H3979 C3992 0.960 . S
C3980 H3972 0.929 . S
C3980 C3981 1.377 . S
C3980 C3982 1.384 . S
C3981 C3980 1.377 . S
C3981 C3987 1.390 . S
C3982 H3973 0.930 . S
C3982 C3980 1.384 . S
C3982 C3983 1.372 . S
C3983 C3982 1.372 . S
C3983 C3984 1.400 . S
C3983 C3988 1.490 . S
C3984 H3974 0.930 . S
C3984 C3983 1.400 . S
C3984 C3987 1.386 . S
H3985 C4001 0.930 . S
H3986 C4002 0.931 . S
C3987 H3975 0.929 . S
C3987 C3981 1.390 . S
C3987 C3984 1.386 . S
C3988 C3983 1.490 . S
C3988 C3990 1.395 . S
C3988 C3991 1.403 . S
H3989 C3995 0.930 . S
C3990 H3976 0.930 . S
C3990 C3988 1.395 . S
C3990 C3993 1.403 . S
C3991 C3988 1.403 . S
C3991 C3992 1.524 . S
C3991 C3995 1.400 . S
C3992 H3977 0.960 . S
C3992 H3978 0.960 . S
C3992 H3979 0.960 . S
C3992 C3991 1.524 . S
C3993 C3990 1.403 . S
C3993 C3994 1.392 . S
C3993 C3997 1.495 . S
C3994 C3993 1.392 . S
C3994 C3995 1.385 . S
C3994 C3996 1.478 . S
C3995 H3989 0.930 . S
C3995 C3991 1.400 . S
C3995 C3994 1.385 . S
C3996 C3994 1.478 . S
C3996 C3998 1.381 . S
C3996 C4002 1.383 . S
C3997 C3993 1.495 . S
C3997 H4003 0.959 . S
C3997 H4004 0.961 . S
C3997 H4005 0.960 . S
C3998 C3996 1.381 . S
C3998 C3999 1.394 . S
C3998 H4006 0.930 . S
C3999 C3998 1.394 . S
C3999 C4000 1.383 . S
C3999 H4007 0.929 . S
C4000 C3999 1.383 . S
C4000 C4001 1.377 . S
C4001 H3985 0.930 . S
C4001 C4000 1.377 . S
C4001 C4002 1.379 . S
C4002 H3986 0.931 . S
C4002 C3996 1.383 . S
C4002 C4001 1.379 . S
H4003 C3997 0.959 . S
H4004 C3997 0.961 . S
H4005 C3997 0.960 . S
H4006 C3998 0.930 . S
H4007 C3999 0.929 . S
H4008 C4016 0.929 . S
H4009 C4018 0.930 . S
H4010 C4020 0.930 . S
H4011 C4023 0.929 . S
H4012 C4026 0.896 1_554 S
H4013 C4028 0.960 . S
H4014 C4028 0.960 . S
H4015 C4028 0.960 . S
C4016 H4008 0.929 . S
C4016 C4017 1.377 . S
C4016 C4018 1.384 . S
C4017 C4016 1.377 . S
C4017 C4023 1.390 . S
C4018 H4009 0.930 . S
C4018 C4016 1.384 . S
C4018 C4019 1.372 . S
C4019 C4018 1.372 . S
C4019 C4020 1.400 . S
C4019 C4024 1.490 . S
C4020 H4010 0.930 . S
C4020 C4019 1.400 . S
C4020 C4023 1.386 . S
H4021 C4037 0.930 1_556 S
H4022 C4038 0.931 . S
C4023 H4011 0.929 . S
C4023 C4017 1.390 . S
C4023 C4020 1.386 . S
C4024 C4019 1.490 . S
C4024 C4026 1.437 . S
C4024 C4027 1.403 . S
H4025 C4031 0.930 . S
C4026 H4012 0.896 1_556 S
C4026 C4024 1.437 . S
C4026 C4029 1.395 1_556 S
C4027 C4024 1.403 . S
C4027 C4028 1.524 . S
C4027 C4031 1.400 . S
C4028 H4013 0.960 . S
C4028 H4014 0.960 . S
C4028 H4015 0.960 . S
C4028 C4027 1.524 . S
C4029 C4026 1.395 1_554 S
C4029 C4030 1.392 1_554 S
C4029 C4033 1.495 . S
C4030 C4029 1.392 1_556 S
C4030 C4031 1.385 . S
C4030 C4032 1.478 1_556 S
C4031 H4025 0.930 . S
C4031 C4027 1.400 . S
C4031 C4030 1.385 . S
C4032 C4030 1.478 1_554 S
C4032 C4034 1.381 . S
C4032 C4038 1.383 1_554 S
C4033 C4029 1.495 . S
C4033 H4039 0.959 . S
C4033 H4040 0.961 . S
C4033 H4041 0.960 . S
C4034 C4032 1.381 . S
C4034 C4035 1.394 . S
C4034 H4042 0.930 . S
C4035 C4034 1.394 . S
C4035 C4036 1.383 . S
C4035 H4043 0.929 . S
C4036 C4035 1.383 . S
C4036 C4037 1.377 . S
C4037 H4021 0.930 1_554 S
C4037 C4036 1.377 . S
C4037 C4038 1.379 1_554 S
C4038 H4022 0.931 . S
C4038 C4032 1.383 1_556 S
C4038 C4037 1.379 1_556 S
H4039 C4033 0.959 . S
H4040 C4033 0.961 . S
H4041 C4033 0.960 . S
H4042 C4034 0.930 . S
H4043 C4035 0.929 . S
H4044 C4052 0.929 . S
H4045 C4054 0.930 . S
H4046 C4056 0.930 . S
H4047 C4059 0.929 . S
H4048 C4062 0.930 . S
H4049 C4064 0.961 . S
H4050 C4064 0.959 1_455 S
H4051 C4064 0.958 1_455 S
C4052 H4044 0.929 . S
C4052 C4053 1.377 . S
C4052 C4054 1.384 1_455 S
C4053 C4052 1.377 . S
C4053 C4059 1.390 . S
C4054 H4045 0.930 . S
C4054 C4052 1.384 1_655 S
C4054 C4055 1.372 . S
C4055 C4054 1.372 . S
C4055 C4056 1.400 1_655 S
C4055 C4060 1.490 . S
C4056 H4046 0.930 . S
C4056 C4055 1.400 1_455 S
C4056 C4059 1.386 . S
H4057 C4073 0.930 . S
H4058 C4074 0.931 . S
C4059 H4047 0.929 . S
C4059 C4053 1.390 . S
C4059 C4056 1.386 . S
C4060 C4055 1.490 . S
C4060 C4062 1.395 . S
C4060 C4063 1.403 . S
H4061 C4067 0.930 . S
C4062 H4048 0.930 . S
C4062 C4060 1.395 . S
C4062 C4065 1.403 . S
C4063 C4060 1.403 . S
C4063 C4064 1.526 . S
C4063 C4067 1.400 . S
C4064 H4049 0.961 . S
C4064 H4050 0.959 1_655 S
C4064 H4051 0.958 1_655 S
C4064 C4063 1.526 . S
C4065 C4062 1.403 . S
C4065 C4066 1.392 . S
C4065 C4069 1.495 . S
C4066 C4065 1.392 . S
C4066 C4067 1.385 . S
C4066 C4068 1.478 . S
C4067 H4061 0.930 . S
C4067 C4063 1.400 . S
C4067 C4066 1.385 . S
C4068 C4066 1.478 . S
C4068 C4070 1.381 . S
C4068 C4074 1.383 . S
C4069 C4065 1.495 . S
C4069 H4075 0.959 . S
C4069 H4076 0.961 . S
C4069 H4077 0.960 . S
C4070 C4068 1.381 . S
C4070 C4071 1.394 . S
C4070 H4078 0.930 . S
C4071 C4070 1.394 . S
C4071 C4072 1.383 . S
C4071 H4079 0.929 . S
C4072 C4071 1.383 . S
C4072 C4073 1.377 . S
C4073 H4057 0.930 . S
C4073 C4072 1.377 . S
C4073 C4074 1.379 . S
C4074 H4058 0.931 . S
C4074 C4068 1.383 . S
C4074 C4073 1.379 . S
H4075 C4069 0.959 . S
H4076 C4069 0.961 . S
H4077 C4069 0.960 . S
H4078 C4070 0.930 . S
H4079 C4071 0.929 . S
H4080 C4088 0.929 . S
H4081 C4090 0.930 . S
H4082 C4092 0.930 . S
H4083 C4095 0.929 . S
H4084 C4098 0.930 . S
H4085 C4100 0.960 . S
H4086 C4100 0.960 . S
H4087 C4100 0.960 . S
C4088 H4080 0.929 . S
C4088 C4089 1.377 . S
C4088 C4090 1.384 . S
C4089 C4088 1.377 . S
C4089 C4095 1.390 . S
C4090 H4081 0.930 . S
C4090 C4088 1.384 . S
C4090 C4091 1.372 . S
C4091 C4090 1.372 . S
C4091 C4092 1.400 . S
C4091 C4096 1.490 . S
C4092 H4082 0.930 . S
C4092 C4091 1.400 . S
C4092 C4095 1.386 . S
H4093 C4109 0.930 . S
H4094 C4110 0.931 . S
C4095 H4083 0.929 . S
C4095 C4089 1.390 . S
C4095 C4092 1.386 . S
C4096 C4091 1.490 . S
C4096 C4098 1.395 . S
C4096 C4099 1.403 . S
H4097 C4103 0.930 . S
C4098 H4084 0.930 . S
C4098 C4096 1.395 . S
C4098 C4101 1.403 . S
C4099 C4096 1.403 . S
C4099 C4100 1.524 . S
C4099 C4103 1.400 . S
C4100 H4085 0.960 . S
C4100 H4086 0.960 . S
C4100 H4087 0.960 . S
C4100 C4099 1.524 . S
C4101 C4098 1.403 . S
C4101 C4102 1.392 . S
C4101 C4105 1.495 . S
C4102 C4101 1.392 . S
C4102 C4103 1.385 . S
C4102 C4104 1.478 . S
C4103 H4097 0.930 . S
C4103 C4099 1.400 . S
C4103 C4102 1.385 . S
C4104 C4102 1.478 . S
C4104 C4106 1.381 . S
C4104 C4110 1.383 . S
C4105 C4101 1.495 . S
C4105 H4111 0.959 . S
C4105 H4112 0.961 . S
C4105 H4113 0.960 . S
C4106 C4104 1.381 . S
C4106 C4107 1.394 . S
C4106 H4114 0.930 . S
C4107 C4106 1.394 . S
C4107 C4108 1.383 . S
C4107 H4115 0.929 . S
C4108 C4107 1.383 . S
C4108 C4109 1.377 . S
C4109 H4093 0.930 . S
C4109 C4108 1.377 . S
C4109 C4110 1.379 . S
C4110 H4094 0.931 . S
C4110 C4104 1.383 . S
C4110 C4109 1.379 . S
H4111 C4105 0.959 . S
H4112 C4105 0.961 . S
H4113 C4105 0.960 . S
H4114 C4106 0.930 . S
H4115 C4107 0.929 . S
H4116 C4124 0.929 . S
H4117 C4126 0.930 . S
H4118 C4128 0.930 . S
H4119 C4131 0.929 . S
H4120 C4134 0.930 1_455 S
H4121 C4136 0.960 . S
H4122 C4136 0.960 1_455 S
H4123 C4136 0.960 1_455 S
C4124 H4116 0.929 . S
C4124 C4125 1.377 . S
C4124 C4126 1.384 . S
C4125 C4124 1.377 . S
C4125 C4131 1.390 . S
C4126 H4117 0.930 . S
C4126 C4124 1.384 . S
C4126 C4127 1.372 . S
C4127 C4126 1.372 . S
C4127 C4128 1.400 . S
C4127 C4132 1.490 . S
C4128 H4118 0.930 . S
C4128 C4127 1.400 . S
C4128 C4131 1.386 . S
H4129 C4145 0.930 . S
H4130 C4146 0.931 . S
C4131 H4119 0.929 . S
C4131 C4125 1.390 . S
C4131 C4128 1.386 . S
C4132 C4127 1.490 . S
C4132 C4134 1.395 1_455 S
C4132 C4135 1.403 1_455 S
H4133 C4139 0.930 . S
C4134 H4120 0.930 1_655 S
C4134 C4132 1.395 1_655 S
C4134 C4137 1.403 . S
C4135 C4132 1.403 1_655 S
C4135 C4136 1.524 . S
C4135 C4139 1.400 . S
C4136 H4121 0.960 . S
C4136 H4122 0.960 1_655 S
C4136 H4123 0.960 1_655 S
C4136 C4135 1.524 . S
C4137 C4134 1.403 . S
C4137 C4138 1.392 . S
C4137 C4141 1.495 . S
C4138 C4137 1.392 . S
C4138 C4139 1.385 . S
C4138 C4140 1.478 . S
C4139 H4133 0.930 . S
C4139 C4135 1.400 . S
C4139 C4138 1.385 . S
C4140 C4138 1.478 . S
C4140 C4142 1.381 . S
C4140 C4146 1.383 . S
C4141 C4137 1.495 . S
C4141 H4147 0.959 . S
C4141 H4148 0.961 . S
C4141 H4149 0.960 . S
C4142 C4140 1.381 . S
C4142 C4143 1.394 . S
C4142 H4150 0.930 . S
C4143 C4142 1.394 . S
C4143 C4144 1.383 . S
C4143 H4151 0.929 . S
C4144 C4143 1.383 . S
C4144 C4145 1.377 . S
C4145 H4129 0.930 . S
C4145 C4144 1.377 . S
C4145 C4146 1.379 . S
C4146 H4130 0.931 . S
C4146 C4140 1.383 . S
C4146 C4145 1.379 . S
H4147 C4141 0.959 . S
H4148 C4141 0.961 . S
H4149 C4141 0.960 . S
H4150 C4142 0.930 . S
H4151 C4143 0.929 . S
H4152 C4160 0.929 . S
H4153 C4162 0.930 . S
H4154 C4164 0.930 . S
H4155 C4167 0.929 . S
H4156 C4170 0.930 . S
H4157 C4172 0.960 . S
H4158 C4172 0.960 1_655 S
H4159 C4172 0.960 . S
C4160 H4152 0.929 . S
C4160 C4161 1.377 . S
C4160 C4162 1.384 . S
C4161 C4160 1.377 . S
C4161 C4167 1.390 1_655 S
C4162 H4153 0.930 . S
C4162 C4160 1.384 . S
C4162 C4163 1.372 1_655 S
C4163 C4162 1.372 1_455 S
C4163 C4164 1.400 . S
C4163 C4168 1.490 . S
C4164 H4154 0.930 . S
C4164 C4163 1.400 . S
C4164 C4167 1.386 . S
H4165 C4181 0.930 . S
H4166 C4182 0.931 . S
C4167 H4155 0.929 . S
C4167 C4161 1.390 1_455 S
C4167 C4164 1.386 . S
C4168 C4163 1.490 . S
C4168 C4170 1.395 . S
C4168 C4171 1.403 . S
H4169 C4175 0.930 . S
C4170 H4156 0.930 . S
C4170 C4168 1.395 . S
C4170 C4173 1.403 . S
C4171 C4168 1.403 . S
C4171 C4172 1.524 . S
C4171 C4175 1.400 . S
C4172 H4157 0.960 . S
C4172 H4158 0.960 1_455 S
C4172 H4159 0.960 . S
C4172 C4171 1.524 . S
C4173 C4170 1.403 . S
C4173 C4174 1.392 . S
C4173 C4177 1.495 . S
C4174 C4173 1.392 . S
C4174 C4175 1.385 . S
C4174 C4176 1.478 . S
C4175 H4169 0.930 . S
C4175 C4171 1.400 . S
C4175 C4174 1.385 . S
C4176 C4174 1.478 . S
C4176 C4178 1.381 . S
C4176 C4182 1.383 . S
C4177 C4173 1.495 . S
C4177 H4183 0.959 . S
C4177 H4184 0.961 . S
C4177 H4185 0.960 . S
C4178 C4176 1.381 . S
C4178 C4179 1.394 . S
C4178 H4186 0.930 . S
C4179 C4178 1.394 . S
C4179 C4180 1.383 . S
C4179 H4187 0.929 . S
C4180 C4179 1.383 . S
C4180 C4181 1.377 . S
C4181 H4165 0.930 . S
C4181 C4180 1.377 . S
C4181 C4182 1.379 . S
C4182 H4166 0.931 . S
C4182 C4176 1.383 . S
C4182 C4181 1.379 . S
H4183 C4177 0.959 . S
H4184 C4177 0.961 . S
H4185 C4177 0.960 . S
H4186 C4178 0.930 . S
H4187 C4179 0.929 . S
H4188 C4196 0.929 . S
H4189 C4198 0.930 . S
H4190 C4200 0.930 . S
H4191 C4203 0.929 . S
H4192 C4206 0.930 . S
H4193 C4208 0.960 . S
H4194 C4208 0.960 . S
H4195 C4208 0.960 . S
C4196 H4188 0.929 . S
C4196 C4197 1.377 . S
C4196 C4198 1.384 . S
C4197 C4196 1.377 . S
C4197 C4203 1.390 . S
C4198 H4189 0.930 . S
C4198 C4196 1.384 . S
C4198 C4199 1.372 . S
C4199 C4198 1.372 . S
C4199 C4200 1.400 . S
C4199 C4204 1.490 . S
C4200 H4190 0.930 . S
C4200 C4199 1.400 . S
C4200 C4203 1.386 . S
H4201 C4217 0.930 . S
H4202 C4218 0.931 . S
C4203 H4191 0.929 . S
C4203 C4197 1.390 . S
C4203 C4200 1.386 . S
C4204 C4199 1.490 . S
C4204 C4206 1.395 . S
C4204 C4207 1.403 . S
H4205 C4211 0.930 . S
C4206 H4192 0.930 . S
C4206 C4204 1.395 . S
C4206 C4209 1.403 . S
C4207 C4204 1.403 . S
C4207 C4208 1.524 . S
C4207 C4211 1.400 . S
C4208 H4193 0.960 . S
C4208 H4194 0.960 . S
C4208 H4195 0.960 . S
C4208 C4207 1.524 . S
C4209 C4206 1.403 . S
C4209 C4210 1.392 . S
C4209 C4213 1.495 . S
C4210 C4209 1.392 . S
C4210 C4211 1.385 . S
C4210 C4212 1.478 . S
C4211 H4205 0.930 . S
C4211 C4207 1.400 . S
C4211 C4210 1.385 . S
C4212 C4210 1.478 . S
C4212 C4214 1.381 . S
C4212 C4218 1.383 . S
C4213 C4209 1.495 . S
C4213 H4219 0.959 . S
C4213 H4220 0.961 . S
C4213 H4221 0.960 . S
C4214 C4212 1.381 . S
C4214 C4215 1.394 . S
C4214 H4222 0.930 . S
C4215 C4214 1.394 . S
C4215 C4216 1.383 . S
C4215 H4223 0.929 . S
C4216 C4215 1.383 . S
C4216 C4217 1.377 . S
C4217 H4201 0.930 . S
C4217 C4216 1.377 . S
C4217 C4218 1.379 . S
C4218 H4202 0.931 . S
C4218 C4212 1.383 . S
C4218 C4217 1.379 . S
H4219 C4213 0.959 . S
H4220 C4213 0.961 . S
H4221 C4213 0.960 . S
H4222 C4214 0.930 . S
H4223 C4215 0.929 . S
H4224 C4232 0.929 . S
H4225 C4234 0.930 . S
H4226 C4236 0.930 . S
H4227 C4239 0.929 . S
H4228 C4242 0.930 . S
H4229 C4244 0.960 . S
H4230 C4244 0.960 . S
H4231 C4244 0.960 . S
C4232 H4224 0.929 . S
C4232 C4233 1.377 . S
C4232 C4234 1.384 . S
C4233 C4232 1.377 . S
C4233 C4239 1.390 . S
C4234 H4225 0.930 . S
C4234 C4232 1.384 . S
C4234 C4235 1.372 . S
C4235 C4234 1.372 . S
C4235 C4236 1.400 . S
C4235 C4240 1.490 . S
C4236 H4226 0.930 . S
C4236 C4235 1.400 . S
C4236 C4239 1.386 . S
H4237 C4253 0.930 . S
H4238 C4254 0.931 . S
C4239 H4227 0.929 . S
C4239 C4233 1.390 . S
C4239 C4236 1.386 . S
C4240 C4235 1.490 . S
C4240 C4242 1.395 . S
C4240 C4243 1.403 . S
H4241 C4247 0.930 . S
C4242 H4228 0.930 . S
C4242 C4240 1.395 . S
C4242 C4245 1.403 . S
C4243 C4240 1.403 . S
C4243 C4244 1.524 . S
C4243 C4247 1.400 . S
C4244 H4229 0.960 . S
C4244 H4230 0.960 . S
C4244 H4231 0.960 . S
C4244 C4243 1.524 . S
C4245 C4242 1.403 . S
C4245 C4246 1.392 . S
C4245 C4249 1.495 . S
C4246 C4245 1.392 . S
C4246 C4247 1.385 . S
C4246 C4248 1.478 . S
C4247 H4241 0.930 . S
C4247 C4243 1.400 . S
C4247 C4246 1.385 . S
C4248 C4246 1.478 . S
C4248 C4250 1.381 . S
C4248 C4254 1.383 . S
C4249 C4245 1.495 . S
C4249 H4255 0.959 . S
C4249 H4256 0.961 . S
C4249 H4257 0.960 . S
C4250 C4248 1.381 . S
C4250 C4251 1.394 . S
C4250 H4258 0.930 . S
C4251 C4250 1.394 . S
C4251 C4252 1.383 . S
C4251 H4259 0.929 . S
C4252 C4251 1.383 . S
C4252 C4253 1.377 . S
C4253 H4237 0.930 . S
C4253 C4252 1.377 . S
C4253 C4254 1.379 . S
C4254 H4238 0.931 . S
C4254 C4248 1.383 . S
C4254 C4253 1.379 . S
H4255 C4249 0.959 . S
H4256 C4249 0.961 . S
H4257 C4249 0.960 . S
H4258 C4250 0.930 . S
H4259 C4251 0.929 . S
H4260 C4268 0.929 . S
H4261 C4270 0.930 . S
H4262 C4272 0.930 . S
H4263 C4275 0.929 . S
H4264 C4278 0.930 . S
H4265 C4280 0.960 . S
H4266 C4280 0.960 . S
H4267 C4280 0.960 . S
C4268 H4260 0.929 . S
C4268 C4269 1.377 . S
C4268 C4270 1.384 . S
C4269 C4268 1.377 . S
C4269 C4275 1.390 . S
C4270 H4261 0.930 . S
C4270 C4268 1.384 . S
C4270 C4271 1.372 . S
C4271 C4270 1.372 . S
C4271 C4272 1.400 . S
C4271 C4276 1.490 . S
C4272 H4262 0.930 . S
C4272 C4271 1.400 . S
C4272 C4275 1.386 . S
H4273 C4289 0.930 . S
H4274 C4290 0.931 . S
C4275 H4263 0.929 . S
C4275 C4269 1.390 . S
C4275 C4272 1.386 . S
C4276 C4271 1.490 . S
C4276 C4278 1.395 . S
C4276 C4279 1.403 . S
H4277 C4283 0.930 . S
C4278 H4264 0.930 . S
C4278 C4276 1.395 . S
C4278 C4281 1.403 . S
C4279 C4276 1.403 . S
C4279 C4280 1.524 . S
C4279 C4283 1.400 . S
C4280 H4265 0.960 . S
C4280 H4266 0.960 . S
C4280 H4267 0.960 . S
C4280 C4279 1.524 . S
C4281 C4278 1.403 . S
C4281 C4282 1.392 . S
C4281 C4285 1.495 . S
C4282 C4281 1.392 . S
C4282 C4283 1.385 . S
C4282 C4284 1.478 . S
C4283 H4277 0.930 . S
C4283 C4279 1.400 . S
C4283 C4282 1.385 . S
C4284 C4282 1.478 . S
C4284 C4286 1.381 . S
C4284 C4290 1.383 . S
C4285 C4281 1.495 . S
C4285 H4291 0.959 . S
C4285 H4292 0.961 . S
C4285 H4293 0.960 . S
C4286 C4284 1.381 . S
C4286 C4287 1.394 . S
C4286 H4294 0.930 . S
C4287 C4286 1.394 . S
C4287 C4288 1.383 . S
C4287 H4295 0.929 . S
C4288 C4287 1.383 . S
C4288 C4289 1.377 . S
C4289 H4273 0.930 . S
C4289 C4288 1.377 . S
C4289 C4290 1.379 . S
C4290 H4274 0.931 . S
C4290 C4284 1.383 . S
C4290 C4289 1.379 . S
H4291 C4285 0.959 . S
H4292 C4285 0.961 . S
H4293 C4285 0.960 . S
H4294 C4286 0.930 . S
H4295 C4287 0.929 . S
H4296 C4304 0.929 . S
H4297 C4306 0.930 . S
H4298 C4308 0.930 . S
H4299 C4311 0.929 . S
H4300 C4314 0.930 . S
H4301 C4316 0.960 . S
H4302 C4316 0.960 . S
H4303 C4316 0.960 . S
C4304 H4296 0.929 . S
C4304 C4305 1.377 . S
C4304 C4306 1.384 . S
C4305 C4304 1.377 . S
C4305 C4311 1.390 . S
C4306 H4297 0.930 . S
C4306 C4304 1.384 . S
C4306 C4307 1.372 . S
C4307 C4306 1.372 . S
C4307 C4308 1.400 . S
C4307 C4312 1.490 . S
C4308 H4298 0.930 . S
C4308 C4307 1.400 . S
C4308 C4311 1.386 . S
H4309 C4325 0.930 . S
H4310 C4326 0.931 . S
C4311 H4299 0.929 . S
C4311 C4305 1.390 . S
C4311 C4308 1.386 . S
C4312 C4307 1.490 . S
C4312 C4314 1.395 . S
C4312 C4315 1.403 . S
H4313 C4319 0.930 . S
C4314 H4300 0.930 . S
C4314 C4312 1.395 . S
C4314 C4317 1.403 . S
C4315 C4312 1.403 . S
C4315 C4316 1.524 . S
C4315 C4319 1.400 . S
C4316 H4301 0.960 . S
C4316 H4302 0.960 . S
C4316 H4303 0.960 . S
C4316 C4315 1.524 . S
C4317 C4314 1.403 . S
C4317 C4318 1.392 . S
C4317 C4321 1.495 . S
C4318 C4317 1.392 . S
C4318 C4319 1.385 . S
C4318 C4320 1.478 . S
C4319 H4313 0.930 . S
C4319 C4315 1.400 . S
C4319 C4318 1.385 . S
C4320 C4318 1.478 . S
C4320 C4322 1.381 . S
C4320 C4326 1.383 . S
C4321 C4317 1.495 . S
C4321 H4327 0.959 . S
C4321 H4328 0.961 . S
C4321 H4329 0.960 . S
C4322 C4320 1.381 . S
C4322 C4323 1.394 . S
C4322 H4330 0.930 . S
C4323 C4322 1.394 . S
C4323 C4324 1.383 . S
C4323 H4331 0.929 . S
C4324 C4323 1.383 . S
C4324 C4325 1.377 . S
C4325 H4309 0.930 . S
C4325 C4324 1.377 . S
C4325 C4326 1.379 . S
C4326 H4310 0.931 . S
C4326 C4320 1.383 . S
C4326 C4325 1.379 . S
H4327 C4321 0.959 . S
H4328 C4321 0.961 . S
H4329 C4321 0.960 . S
H4330 C4322 0.930 . S
H4331 C4323 0.929 . S
H4332 C4340 0.929 . S
H4333 C4342 0.930 . S
H4334 C4344 0.930 . S
H4335 C4347 0.929 . S
H4336 C4350 0.930 . S
H4337 C4352 0.960 . S
H4338 C4352 0.960 . S
H4339 C4352 0.960 . S
C4340 H4332 0.929 . S
C4340 C4341 1.377 . S
C4340 C4342 1.384 . S
C4341 C4340 1.377 . S
C4341 C4347 1.390 . S
C4342 H4333 0.930 . S
C4342 C4340 1.384 . S
C4342 C4343 1.372 . S
C4343 C4342 1.372 . S
C4343 C4344 1.400 . S
C4343 C4348 1.490 . S
C4344 H4334 0.930 . S
C4344 C4343 1.400 . S
C4344 C4347 1.386 . S
H4345 C4361 0.930 . S
H4346 C4362 0.931 . S
C4347 H4335 0.929 . S
C4347 C4341 1.390 . S
C4347 C4344 1.386 . S
C4348 C4343 1.490 . S
C4348 C4350 1.395 . S
C4348 C4351 1.403 . S
H4349 C4355 0.930 . S
C4350 H4336 0.930 . S
C4350 C4348 1.395 . S
C4350 C4353 1.403 . S
C4351 C4348 1.403 . S
C4351 C4352 1.524 . S
C4351 C4355 1.400 . S
C4352 H4337 0.960 . S
C4352 H4338 0.960 . S
C4352 H4339 0.960 . S
C4352 C4351 1.524 . S
C4353 C4350 1.403 . S
C4353 C4354 1.392 . S
C4353 C4357 1.495 . S
C4354 C4353 1.392 . S
C4354 C4355 1.385 . S
C4354 C4356 1.478 . S
C4355 H4349 0.930 . S
C4355 C4351 1.400 . S
C4355 C4354 1.385 . S
C4356 C4354 1.478 . S
C4356 C4358 1.381 . S
C4356 C4362 1.383 . S
C4357 C4353 1.495 . S
C4357 H4363 0.959 . S
C4357 H4364 0.961 . S
C4357 H4365 0.960 . S
C4358 C4356 1.381 . S
C4358 C4359 1.394 . S
C4358 H4366 0.930 . S
C4359 C4358 1.394 . S
C4359 C4360 1.383 . S
C4359 H4367 0.929 . S
C4360 C4359 1.383 . S
C4360 C4361 1.377 . S
C4361 H4345 0.930 . S
C4361 C4360 1.377 . S
C4361 C4362 1.379 . S
C4362 H4346 0.931 . S
C4362 C4356 1.383 . S
C4362 C4361 1.379 . S
H4363 C4357 0.959 . S
H4364 C4357 0.961 . S
H4365 C4357 0.960 . S
H4366 C4358 0.930 . S
H4367 C4359 0.929 . S
H4368 C4376 0.929 . S
H4369 C4378 0.930 . S
H4370 C4380 0.930 . S
H4371 C4383 0.929 . S
H4372 C4386 0.930 . S
H4373 C4388 0.960 . S
H4374 C4388 0.960 . S
H4375 C4388 0.960 . S
C4376 H4368 0.929 . S
C4376 C4377 1.377 . S
C4376 C4378 1.384 . S
C4377 C4376 1.377 . S
C4377 C4383 1.390 . S
C4378 H4369 0.930 . S
C4378 C4376 1.384 . S
C4378 C4379 1.372 . S
C4379 C4378 1.372 . S
C4379 C4380 1.400 . S
C4379 C4384 1.490 . S
C4380 H4370 0.930 . S
C4380 C4379 1.400 . S
C4380 C4383 1.386 . S
H4381 C4397 0.930 . S
H4382 C4398 0.931 . S
C4383 H4371 0.929 . S
C4383 C4377 1.390 . S
C4383 C4380 1.386 . S
C4384 C4379 1.490 . S
C4384 C4386 1.395 . S
C4384 C4387 1.403 . S
H4385 C4391 0.930 . S
C4386 H4372 0.930 . S
C4386 C4384 1.395 . S
C4386 C4389 1.403 . S
C4387 C4384 1.403 . S
C4387 C4388 1.524 . S
C4387 C4391 1.400 . S
C4388 H4373 0.960 . S
C4388 H4374 0.960 . S
C4388 H4375 0.960 . S
C4388 C4387 1.524 . S
C4389 C4386 1.403 . S
C4389 C4390 1.392 . S
C4389 C4393 1.495 . S
C4390 C4389 1.392 . S
C4390 C4391 1.385 . S
C4390 C4392 1.478 . S
C4391 H4385 0.930 . S
C4391 C4387 1.400 . S
C4391 C4390 1.385 . S
C4392 C4390 1.478 . S
C4392 C4394 1.381 . S
C4392 C4398 1.383 . S
C4393 C4389 1.495 . S
C4393 H4399 0.959 . S
C4393 H4400 0.961 . S
C4393 H4401 0.960 . S
C4394 C4392 1.381 . S
C4394 C4395 1.394 . S
C4394 H4402 0.930 . S
C4395 C4394 1.394 . S
C4395 C4396 1.383 . S
C4395 H4403 0.929 . S
C4396 C4395 1.383 . S
C4396 C4397 1.377 . S
C4397 H4381 0.930 . S
C4397 C4396 1.377 . S
C4397 C4398 1.379 . S
C4398 H4382 0.931 . S
C4398 C4392 1.383 . S
C4398 C4397 1.379 . S
H4399 C4393 0.959 . S
H4400 C4393 0.961 . S
H4401 C4393 0.960 . S
H4402 C4394 0.930 . S
H4403 C4395 0.929 . S
H4404 C4412 0.929 . S
H4405 C4414 0.930 . S
H4406 C4416 0.930 . S
H4407 C4419 0.929 . S
H4408 C4422 0.930 . S
H4409 C4424 0.960 . S
H4410 C4424 0.960 . S
H4411 C4424 0.960 . S
C4412 H4404 0.929 . S
C4412 C4413 1.377 . S
C4412 C4414 1.384 . S
C4413 C4412 1.377 . S
C4413 C4419 1.390 . S
C4414 H4405 0.930 . S
C4414 C4412 1.384 . S
C4414 C4415 1.372 . S
C4415 C4414 1.372 . S
C4415 C4416 1.400 . S
C4415 C4420 1.490 . S
C4416 H4406 0.930 . S
C4416 C4415 1.400 . S
C4416 C4419 1.386 . S
H4417 C4433 0.930 . S
H4418 C4434 0.931 . S
C4419 H4407 0.929 . S
C4419 C4413 1.390 . S
C4419 C4416 1.386 . S
C4420 C4415 1.490 . S
C4420 C4422 1.395 . S
C4420 C4423 1.403 . S
H4421 C4427 0.930 . S
C4422 H4408 0.930 . S
C4422 C4420 1.395 . S
C4422 C4425 1.403 . S
C4423 C4420 1.403 . S
C4423 C4424 1.524 . S
C4423 C4427 1.400 . S
C4424 H4409 0.960 . S
C4424 H4410 0.960 . S
C4424 H4411 0.960 . S
C4424 C4423 1.524 . S
C4425 C4422 1.403 . S
C4425 C4426 1.392 . S
C4425 C4429 1.495 . S
C4426 C4425 1.392 . S
C4426 C4427 1.385 . S
C4426 C4428 1.478 . S
C4427 H4421 0.930 . S
C4427 C4423 1.400 . S
C4427 C4426 1.385 . S
C4428 C4426 1.478 . S
C4428 C4430 1.381 . S
C4428 C4434 1.383 . S
C4429 C4425 1.495 . S
C4429 H4435 0.959 . S
C4429 H4436 0.961 . S
C4429 H4437 0.960 . S
C4430 C4428 1.381 . S
C4430 C4431 1.394 . S
C4430 H4438 0.930 . S
C4431 C4430 1.394 . S
C4431 C4432 1.383 . S
C4431 H4439 0.929 . S
C4432 C4431 1.383 . S
C4432 C4433 1.377 . S
C4433 H4417 0.930 . S
C4433 C4432 1.377 . S
C4433 C4434 1.379 . S
C4434 H4418 0.931 . S
C4434 C4428 1.383 . S
C4434 C4433 1.379 . S
H4435 C4429 0.959 . S
H4436 C4429 0.961 . S
H4437 C4429 0.960 . S
H4438 C4430 0.930 . S
H4439 C4431 0.929 . S
H4440 C4448 0.929 . S
H4441 C4450 0.930 . S
H4442 C4452 0.930 . S
H4443 C4455 0.929 . S
H4444 C4458 0.930 . S
H4445 C4460 0.960 . S
H4446 C4460 0.960 . S
H4447 C4460 0.960 . S
C4448 H4440 0.929 . S
C4448 C4449 1.377 . S
C4448 C4450 1.384 . S
C4449 C4448 1.377 . S
C4449 C4455 1.390 . S
C4450 H4441 0.930 . S
C4450 C4448 1.384 . S
C4450 C4451 1.372 . S
C4451 C4450 1.372 . S
C4451 C4452 1.400 . S
C4451 C4456 1.490 . S
C4452 H4442 0.930 . S
C4452 C4451 1.400 . S
C4452 C4455 1.386 . S
H4453 C4469 0.930 . S
H4454 C4470 0.931 . S
C4455 H4443 0.929 . S
C4455 C4449 1.390 . S
C4455 C4452 1.386 . S
C4456 C4451 1.490 . S
C4456 C4458 1.395 . S
C4456 C4459 1.403 . S
H4457 C4463 0.930 . S
C4458 H4444 0.930 . S
C4458 C4456 1.395 . S
C4458 C4461 1.403 . S
C4459 C4456 1.403 . S
C4459 C4460 1.524 . S
C4459 C4463 1.400 . S
C4460 H4445 0.960 . S
C4460 H4446 0.960 . S
C4460 H4447 0.960 . S
C4460 C4459 1.524 . S
C4461 C4458 1.403 . S
C4461 C4462 1.392 . S
C4461 C4465 1.495 . S
C4462 C4461 1.392 . S
C4462 C4463 1.385 . S
C4462 C4464 1.478 . S
C4463 H4457 0.930 . S
C4463 C4459 1.400 . S
C4463 C4462 1.385 . S
C4464 C4462 1.478 . S
C4464 C4466 1.381 . S
C4464 C4470 1.383 . S
C4465 C4461 1.495 . S
C4465 H4471 0.959 . S
C4465 H4472 0.961 . S
C4465 H4473 0.960 . S
C4466 C4464 1.381 . S
C4466 C4467 1.394 . S
C4466 H4474 0.930 . S
C4467 C4466 1.394 . S
C4467 C4468 1.383 . S
C4467 H4475 0.929 . S
C4468 C4467 1.383 . S
C4468 C4469 1.377 . S
C4469 H4453 0.930 . S
C4469 C4468 1.377 . S
C4469 C4470 1.379 . S
C4470 H4454 0.931 . S
C4470 C4464 1.383 . S
C4470 C4469 1.379 . S
H4471 C4465 0.959 . S
H4472 C4465 0.961 . S
H4473 C4465 0.960 . S
H4474 C4466 0.930 . S
H4475 C4467 0.929 . S
H4476 C4484 0.929 . S
H4477 C4486 0.930 . S
H4478 C4488 0.930 . S
H4479 C4491 0.929 . S
H4480 C4494 0.930 . S
H4481 C4496 0.960 . S
H4482 C4496 0.960 . S
H4483 C4496 0.960 . S
C4484 H4476 0.929 . S
C4484 C4485 1.377 . S
C4484 C4486 1.384 . S
C4485 C4484 1.377 . S
C4485 C4491 1.390 . S
C4486 H4477 0.930 . S
C4486 C4484 1.384 . S
C4486 C4487 1.372 . S
C4487 C4486 1.372 . S
C4487 C4488 1.400 . S
C4487 C4492 1.490 . S
C4488 H4478 0.930 . S
C4488 C4487 1.400 . S
C4488 C4491 1.386 . S
H4489 C4505 0.930 . S
H4490 C4506 0.931 . S
C4491 H4479 0.929 . S
C4491 C4485 1.390 . S
C4491 C4488 1.386 . S
C4492 C4487 1.490 . S
C4492 C4494 1.395 . S
C4492 C4495 1.403 . S
H4493 C4499 0.930 . S
C4494 H4480 0.930 . S
C4494 C4492 1.395 . S
C4494 C4497 1.403 . S
C4495 C4492 1.403 . S
C4495 C4496 1.524 . S
C4495 C4499 1.400 . S
C4496 H4481 0.960 . S
C4496 H4482 0.960 . S
C4496 H4483 0.960 . S
C4496 C4495 1.524 . S
C4497 C4494 1.403 . S
C4497 C4498 1.392 . S
C4497 C4501 1.495 . S
C4498 C4497 1.392 . S
C4498 C4499 1.385 . S
C4498 C4500 1.478 . S
C4499 H4493 0.930 . S
C4499 C4495 1.400 . S
C4499 C4498 1.385 . S
C4500 C4498 1.478 . S
C4500 C4502 1.381 . S
C4500 C4506 1.383 . S
C4501 C4497 1.495 . S
C4501 H4507 0.959 . S
C4501 H4508 0.961 . S
C4501 H4509 0.960 . S
C4502 C4500 1.381 . S
C4502 C4503 1.394 . S
C4502 H4510 0.930 . S
C4503 C4502 1.394 . S
C4503 C4504 1.383 . S
C4503 H4511 0.929 . S
C4504 C4503 1.383 . S
C4504 C4505 1.377 . S
C4505 H4489 0.930 . S
C4505 C4504 1.377 . S
C4505 C4506 1.379 . S
C4506 H4490 0.931 . S
C4506 C4500 1.383 . S
C4506 C4505 1.379 . S
H4507 C4501 0.959 . S
H4508 C4501 0.961 . S
H4509 C4501 0.960 . S
H4510 C4502 0.930 . S
H4511 C4503 0.929 . S
H4512 C4520 0.929 . S
H4513 C4522 0.930 . S
H4514 C4524 0.930 . S
H4515 C4527 0.929 . S
H4516 C4530 0.930 . S
H4517 C4532 0.960 . S
H4518 C4532 0.960 . S
H4519 C4532 0.960 . S
C4520 H4512 0.929 . S
C4520 C4521 1.377 . S
C4520 C4522 1.384 . S
C4521 C4520 1.377 . S
C4521 C4527 1.390 . S
C4522 H4513 0.930 . S
C4522 C4520 1.384 . S
C4522 C4523 1.372 . S
C4523 C4522 1.372 . S
C4523 C4524 1.400 . S
C4523 C4528 1.490 . S
C4524 H4514 0.930 . S
C4524 C4523 1.400 . S
C4524 C4527 1.386 . S
H4525 C4541 0.930 . S
H4526 C4542 0.931 . S
C4527 H4515 0.929 . S
C4527 C4521 1.390 . S
C4527 C4524 1.386 . S
C4528 C4523 1.490 . S
C4528 C4530 1.395 . S
C4528 C4531 1.403 . S
H4529 C4535 0.930 . S
C4530 H4516 0.930 . S
C4530 C4528 1.395 . S
C4530 C4533 1.403 . S
C4531 C4528 1.403 . S
C4531 C4532 1.524 . S
C4531 C4535 1.400 . S
C4532 H4517 0.960 . S
C4532 H4518 0.960 . S
C4532 H4519 0.960 . S
C4532 C4531 1.524 . S
C4533 C4530 1.403 . S
C4533 C4534 1.392 . S
C4533 C4537 1.495 . S
C4534 C4533 1.392 . S
C4534 C4535 1.385 . S
C4534 C4536 1.478 . S
C4535 H4529 0.930 . S
C4535 C4531 1.400 . S
C4535 C4534 1.385 . S
C4536 C4534 1.478 . S
C4536 C4538 1.381 . S
C4536 C4542 1.383 . S
C4537 C4533 1.495 . S
C4537 H4543 0.959 . S
C4537 H4544 0.961 . S
C4537 H4545 0.960 . S
C4538 C4536 1.381 . S
C4538 C4539 1.394 . S
C4538 H4546 0.930 . S
C4539 C4538 1.394 . S
C4539 C4540 1.383 . S
C4539 H4547 0.929 . S
C4540 C4539 1.383 . S
C4540 C4541 1.377 . S
C4541 H4525 0.930 . S
C4541 C4540 1.377 . S
C4541 C4542 1.379 . S
C4542 H4526 0.931 . S
C4542 C4536 1.383 . S
C4542 C4541 1.379 . S
H4543 C4537 0.959 . S
H4544 C4537 0.961 . S
H4545 C4537 0.960 . S
H4546 C4538 0.930 . S
H4547 C4539 0.929 . S
H4548 C4556 0.929 . S
H4549 C4558 0.930 . S
H4550 C4560 0.930 . S
H4551 C4563 0.929 . S
H4552 C4566 0.930 . S
H4553 C4568 0.960 . S
H4554 C4568 0.960 . S
H4555 C4568 0.960 . S
C4556 H4548 0.929 . S
C4556 C4557 1.377 . S
C4556 C4558 1.384 . S
C4557 C4556 1.377 . S
C4557 C4563 1.390 . S
C4558 H4549 0.930 . S
C4558 C4556 1.384 . S
C4558 C4559 1.372 . S
C4559 C4558 1.372 . S
C4559 C4560 1.400 . S
C4559 C4564 1.490 . S
C4560 H4550 0.930 . S
C4560 C4559 1.400 . S
C4560 C4563 1.386 . S
H4561 C4577 0.930 . S
H4562 C4578 0.931 . S
C4563 H4551 0.929 . S
C4563 C4557 1.390 . S
C4563 C4560 1.386 . S
C4564 C4559 1.490 . S
C4564 C4566 1.395 . S
C4564 C4567 1.403 . S
H4565 C4571 0.930 . S
C4566 H4552 0.930 . S
C4566 C4564 1.395 . S
C4566 C4569 1.403 . S
C4567 C4564 1.403 . S
C4567 C4568 1.524 . S
C4567 C4571 1.400 . S
C4568 H4553 0.960 . S
C4568 H4554 0.960 . S
C4568 H4555 0.960 . S
C4568 C4567 1.524 . S
C4569 C4566 1.403 . S
C4569 C4570 1.392 . S
C4569 C4573 1.495 . S
C4570 C4569 1.392 . S
C4570 C4571 1.385 . S
C4570 C4572 1.478 . S
C4571 H4565 0.930 . S
C4571 C4567 1.400 . S
C4571 C4570 1.385 . S
C4572 C4570 1.478 . S
C4572 C4574 1.381 . S
C4572 C4578 1.383 . S
C4573 C4569 1.495 . S
C4573 H4579 0.959 . S
C4573 H4580 0.961 . S
C4573 H4581 0.960 . S
C4574 C4572 1.381 . S
C4574 C4575 1.394 . S
C4574 H4582 0.930 . S
C4575 C4574 1.394 . S
C4575 C4576 1.383 . S
C4575 H4583 0.929 . S
C4576 C4575 1.383 . S
C4576 C4577 1.377 . S
C4577 H4561 0.930 . S
C4577 C4576 1.377 . S
C4577 C4578 1.379 . S
C4578 H4562 0.931 . S
C4578 C4572 1.383 . S
C4578 C4577 1.379 . S
H4579 C4573 0.959 . S
H4580 C4573 0.961 . S
H4581 C4573 0.960 . S
H4582 C4574 0.930 . S
H4583 C4575 0.929 . S
H4584 C4592 0.929 . S
H4585 C4594 0.930 . S
H4586 C4596 0.930 . S
H4587 C4599 0.929 . S
H4588 C4602 0.930 . S
H4589 C4604 0.960 . S
H4590 C4604 0.960 . S
H4591 C4604 0.960 . S
C4592 H4584 0.929 . S
C4592 C4593 1.377 . S
C4592 C4594 1.384 . S
C4593 C4592 1.377 . S
C4593 C4599 1.390 . S
C4594 H4585 0.930 . S
C4594 C4592 1.384 . S
C4594 C4595 1.372 . S
C4595 C4594 1.372 . S
C4595 C4596 1.400 . S
C4595 C4600 1.490 . S
C4596 H4586 0.930 . S
C4596 C4595 1.400 . S
C4596 C4599 1.386 . S
H4597 C4613 0.930 . S
H4598 C4614 0.931 . S
C4599 H4587 0.929 . S
C4599 C4593 1.390 . S
C4599 C4596 1.386 . S
C4600 C4595 1.490 . S
C4600 C4602 1.395 . S
C4600 C4603 1.403 . S
H4601 C4607 0.930 . S
C4602 H4588 0.930 . S
C4602 C4600 1.395 . S
C4602 C4605 1.403 . S
C4603 C4600 1.403 . S
C4603 C4604 1.524 . S
C4603 C4607 1.400 . S
C4604 H4589 0.960 . S
C4604 H4590 0.960 . S
C4604 H4591 0.960 . S
C4604 C4603 1.524 . S
C4605 C4602 1.403 . S
C4605 C4606 1.392 . S
C4605 C4609 1.495 . S
C4606 C4605 1.392 . S
C4606 C4607 1.385 . S
C4606 C4608 1.478 . S
C4607 H4601 0.930 . S
C4607 C4603 1.400 . S
C4607 C4606 1.385 . S
C4608 C4606 1.478 . S
C4608 C4610 1.381 . S
C4608 C4614 1.383 . S
C4609 C4605 1.495 . S
C4609 H4615 0.959 . S
C4609 H4616 0.961 . S
C4609 H4617 0.960 . S
C4610 C4608 1.381 . S
C4610 C4611 1.394 . S
C4610 H4618 0.930 . S
C4611 C4610 1.394 . S
C4611 C4612 1.383 . S
C4611 H4619 0.929 . S
C4612 C4611 1.383 . S
C4612 C4613 1.377 . S
C4613 H4597 0.930 . S
C4613 C4612 1.377 . S
C4613 C4614 1.379 . S
C4614 H4598 0.931 . S
C4614 C4608 1.383 . S
C4614 C4613 1.379 . S
H4615 C4609 0.959 . S
H4616 C4609 0.961 . S
H4617 C4609 0.960 . S
H4618 C4610 0.930 . S
H4619 C4611 0.929 . S
H4620 C4628 0.929 1_556 S
H4621 C4630 0.930 1_556 S
H4622 C4632 0.930 . S
H4623 C4635 0.929 . S
H4624 C4638 0.930 1_545 S
H4625 C4640 0.960 . S
H4626 C4640 0.960 . S
H4627 C4640 0.960 . S
C4628 H4620 0.929 1_554 S
C4628 C4629 1.377 . S
C4628 C4630 1.384 . S
C4629 C4628 1.377 . S
C4629 C4635 1.390 . S
C4630 H4621 0.930 1_554 S
C4630 C4628 1.384 . S
C4630 C4631 1.372 . S
C4631 C4630 1.372 . S
C4631 C4632 1.400 . S
C4631 C4636 1.490 . S
C4632 H4622 0.930 . S
C4632 C4631 1.400 . S
C4632 C4635 1.386 . S
H4633 C4649 0.930 . S
H4634 C4650 0.931 . S
C4635 H4623 0.929 . S
C4635 C4629 1.390 . S
C4635 C4632 1.386 . S
C4636 C4631 1.490 . S
C4636 C4638 1.395 . S
C4636 C4639 1.403 . S
H4637 C4643 0.930 . S
C4638 H4624 0.930 1_565 S
C4638 C4636 1.395 . S
C4638 C4641 1.403 1_565 S
C4639 C4636 1.403 . S
C4639 C4640 1.524 . S
C4639 C4643 1.400 . S
C4640 H4625 0.960 . S
C4640 H4626 0.960 . S
C4640 H4627 0.960 . S
C4640 C4639 1.524 . S
C4641 C4638 1.403 1_545 S
C4641 C4642 1.392 . S
C4641 C4645 1.495 . S
C4642 C4641 1.392 . S
C4642 C4643 1.385 1_545 S
C4642 C4644 1.478 . S
C4643 H4637 0.930 . S
C4643 C4639 1.400 . S
C4643 C4642 1.385 1_565 S
C4644 C4642 1.478 . S
C4644 C4646 1.381 . S
C4644 C4650 1.383 . S
C4645 C4641 1.495 . S
C4645 H4651 0.959 . S
C4645 H4652 0.961 . S
C4645 H4653 0.960 . S
C4646 C4644 1.381 . S
C4646 C4647 1.394 . S
C4646 H4654 0.930 1_554 S
C4647 C4646 1.394 . S
C4647 C4648 1.383 . S
C4647 H4655 0.929 1_554 S
C4648 C4647 1.383 . S
C4648 C4649 1.377 . S
C4649 H4633 0.930 . S
C4649 C4648 1.377 . S
C4649 C4650 1.379 . S
C4650 H4634 0.931 . S
C4650 C4644 1.383 . S
C4650 C4649 1.379 . S
H4651 C4645 0.959 . S
H4652 C4645 0.961 . S
H4653 C4645 0.960 . S
H4654 C4646 0.930 1_556 S
H4655 C4647 0.929 1_556 S
H4656 C4664 0.929 . S
H4657 C4666 0.930 . S
H4658 C4668 0.930 . S
H4659 C4671 0.929 . S
H4660 C4674 0.930 . S
H4661 C4676 0.960 . S
H4662 C4676 0.960 . S
H4663 C4676 0.960 . S
C4664 H4656 0.929 . S
C4664 C4665 1.377 . S
C4664 C4666 1.384 . S
C4665 C4664 1.377 . S
C4665 C4671 1.390 . S
C4666 H4657 0.930 . S
C4666 C4664 1.384 . S
C4666 C4667 1.372 . S
C4667 C4666 1.372 . S
C4667 C4668 1.400 . S
C4667 C4672 1.490 . S
C4668 H4658 0.930 . S
C4668 C4667 1.400 . S
C4668 C4671 1.386 . S
H4669 C4685 0.930 . S
H4670 C4686 0.931 . S
C4671 H4659 0.929 . S
C4671 C4665 1.390 . S
C4671 C4668 1.386 . S
C4672 C4667 1.490 . S
C4672 C4674 1.395 . S
C4672 C4675 1.403 . S
H4673 C4679 0.930 . S
C4674 H4660 0.930 . S
C4674 C4672 1.395 . S
C4674 C4677 1.403 . S
C4675 C4672 1.403 . S
C4675 C4676 1.524 . S
C4675 C4679 1.400 . S
C4676 H4661 0.960 . S
C4676 H4662 0.960 . S
C4676 H4663 0.960 . S
C4676 C4675 1.524 . S
C4677 C4674 1.403 . S
C4677 C4678 1.392 . S
C4677 C4681 1.495 . S
C4678 C4677 1.392 . S
C4678 C4679 1.385 . S
C4678 C4680 1.478 . S
C4679 H4673 0.930 . S
C4679 C4675 1.400 . S
C4679 C4678 1.385 . S
C4680 C4678 1.478 . S
C4680 C4682 1.381 . S
C4680 C4686 1.383 . S
C4681 C4677 1.495 . S
C4681 H4687 0.959 . S
C4681 H4688 0.961 . S
C4681 H4689 0.960 . S
C4682 C4680 1.381 . S
C4682 C4683 1.394 . S
C4682 H4690 0.930 . S
C4683 C4682 1.394 . S
C4683 C4684 1.383 . S
C4683 H4691 0.929 . S
C4684 C4683 1.383 . S
C4684 C4685 1.377 . S
C4685 H4669 0.930 . S
C4685 C4684 1.377 . S
C4685 C4686 1.379 . S
C4686 H4670 0.931 . S
C4686 C4680 1.383 . S
C4686 C4685 1.379 . S
H4687 C4681 0.959 . S
H4688 C4681 0.961 . S
H4689 C4681 0.960 . S
H4690 C4682 0.930 . S
H4691 C4683 0.929 . S
H4692 C4700 0.929 . S
H4693 C4702 0.930 . S
H4694 C4704 0.930 . S
H4695 C4707 0.929 . S
H4696 C4710 0.930 . S
H4697 C4712 0.960 . S
H4698 C4712 0.960 . S
H4699 C4712 0.960 . S
C4700 H4692 0.929 . S
C4700 C4701 1.381 . S
C4700 C4702 1.384 . S
C4701 C4700 1.381 . S
C4701 C4707 1.385 1_556 S
C4702 H4693 0.930 . S
C4702 C4700 1.384 . S
C4702 C4703 1.372 1_556 S
C4703 C4702 1.372 1_554 S
C4703 C4704 1.400 . S
C4703 C4708 1.490 . S
C4704 H4694 0.930 . S
C4704 C4703 1.400 . S
C4704 C4707 1.386 . S
H4705 C4721 0.930 . S
H4706 C4722 0.931 . S
C4707 H4695 0.929 . S
C4707 C4701 1.385 1_554 S
C4707 C4704 1.386 . S
C4708 C4703 1.490 . S
C4708 C4710 1.395 1_554 S
C4708 C4711 1.403 . S
H4709 C4715 0.930 . S
C4710 H4696 0.930 . S
C4710 C4708 1.395 1_556 S
C4710 C4713 1.403 . S
C4711 C4708 1.403 . S
C4711 C4712 1.524 . S
C4711 C4715 1.400 . S
C4712 H4697 0.960 . S
C4712 H4698 0.960 . S
C4712 H4699 0.960 . S
C4712 C4711 1.524 . S
C4713 C4710 1.403 . S
C4713 C4714 1.392 1_556 S
C4713 C4717 1.495 . S
C4714 C4713 1.392 1_554 S
C4714 C4715 1.385 . S
C4714 C4716 1.478 . S
C4715 H4709 0.930 . S
C4715 C4711 1.400 . S
C4715 C4714 1.385 . S
C4716 C4714 1.478 . S
C4716 C4718 1.381 . S
C4716 C4722 1.383 . S
C4717 C4713 1.495 . S
C4717 H4723 0.959 . S
C4717 H4724 0.961 . S
C4717 H4725 0.960 . S
C4718 C4716 1.381 . S
C4718 C4719 1.394 . S
C4718 H4726 0.930 1_554 S
C4719 C4718 1.394 . S
C4719 C4720 1.383 . S
C4719 H4727 0.929 . S
C4720 C4719 1.383 . S
C4720 C4721 1.377 . S
C4721 H4705 0.930 . S
C4721 C4720 1.377 . S
C4721 C4722 1.379 . S
C4722 H4706 0.931 . S
C4722 C4716 1.383 . S
C4722 C4721 1.379 . S
H4723 C4717 0.959 . S
H4724 C4717 0.961 . S
H4725 C4717 0.960 . S
H4726 C4718 0.930 1_556 S
H4727 C4719 0.929 . S
H4728 C4736 0.929 . S
H4729 C4738 0.930 . S
H4730 C4740 0.930 . S
H4731 C4743 0.929 . S
H4732 C4746 0.930 . S
H4733 C4748 0.960 . S
H4734 C4748 0.960 . S
H4735 C4748 0.960 . S
C4736 H4728 0.929 . S
C4736 C4737 1.377 . S
C4736 C4738 1.384 . S
C4737 C4736 1.377 . S
C4737 C4743 1.390 . S
C4738 H4729 0.930 . S
C4738 C4736 1.384 . S
C4738 C4739 1.372 . S
C4739 C4738 1.372 . S
C4739 C4740 1.400 . S
C4739 C4744 1.490 . S
C4740 H4730 0.930 . S
C4740 C4739 1.400 . S
C4740 C4743 1.386 . S
H4741 C4757 0.930 . S
H4742 C4758 0.931 . S
C4743 H4731 0.929 . S
C4743 C4737 1.390 . S
C4743 C4740 1.386 . S
C4744 C4739 1.490 . S
C4744 C4746 1.395 . S
C4744 C4747 1.403 . S
H4745 C4751 0.930 . S
C4746 H4732 0.930 . S
C4746 C4744 1.395 . S
C4746 C4749 1.403 . S
C4747 C4744 1.403 . S
C4747 C4748 1.524 . S
C4747 C4751 1.400 . S
C4748 H4733 0.960 . S
C4748 H4734 0.960 . S
C4748 H4735 0.960 . S
C4748 C4747 1.524 . S
C4749 C4746 1.403 . S
C4749 C4750 1.392 . S
C4749 C4753 1.495 . S
C4750 C4749 1.392 . S
C4750 C4751 1.385 . S
C4750 C4752 1.478 . S
C4751 H4745 0.930 . S
C4751 C4747 1.400 . S
C4751 C4750 1.385 . S
C4752 C4750 1.478 . S
C4752 C4754 1.381 . S
C4752 C4758 1.383 . S
C4753 C4749 1.495 . S
C4753 H4759 0.959 . S
C4753 H4760 0.961 . S
C4753 H4761 0.960 . S
C4754 C4752 1.381 . S
C4754 C4755 1.394 . S
C4754 H4762 0.930 . S
C4755 C4754 1.394 . S
C4755 C4756 1.383 . S
C4755 H4763 0.929 . S
C4756 C4755 1.383 . S
C4756 C4757 1.377 . S
C4757 H4741 0.930 . S
C4757 C4756 1.377 . S
C4757 C4758 1.379 . S
C4758 H4742 0.931 . S
C4758 C4752 1.383 . S
C4758 C4757 1.379 . S
H4759 C4753 0.959 . S
H4760 C4753 0.961 . S
H4761 C4753 0.960 . S
H4762 C4754 0.930 . S
H4763 C4755 0.929 . S
H4764 C4772 0.929 . S
H4765 C4774 0.930 . S
H4766 C4776 0.930 . S
H4767 C4779 0.929 . S
H4768 C4782 0.930 . S
H4769 C4784 0.960 . S
H4770 C4784 0.960 . S
H4771 C4784 0.960 . S
C4772 H4764 0.929 . S
C4772 C4773 1.377 . S
C4772 C4774 1.384 . S
C4773 C4772 1.377 . S
C4773 C4779 1.390 . S
C4774 H4765 0.930 . S
C4774 C4772 1.384 . S
C4774 C4775 1.372 . S
C4775 C4774 1.372 . S
C4775 C4776 1.400 . S
C4775 C4780 1.490 . S
C4776 H4766 0.930 . S
C4776 C4775 1.400 . S
C4776 C4779 1.386 . S
H4777 C4793 0.930 . S
H4778 C4794 0.931 . S
C4779 H4767 0.929 . S
C4779 C4773 1.390 . S
C4779 C4776 1.386 . S
C4780 C4775 1.490 . S
C4780 C4782 1.395 . S
C4780 C4783 1.403 . S
H4781 C4787 0.930 . S
C4782 H4768 0.930 . S
C4782 C4780 1.395 . S
C4782 C4785 1.403 . S
C4783 C4780 1.403 . S
C4783 C4784 1.524 . S
C4783 C4787 1.400 . S
C4784 H4769 0.960 . S
C4784 H4770 0.960 . S
C4784 H4771 0.960 . S
C4784 C4783 1.524 . S
C4785 C4782 1.403 . S
C4785 C4786 1.392 . S
C4785 C4789 1.495 . S
C4786 C4785 1.392 . S
C4786 C4787 1.385 . S
C4786 C4788 1.478 . S
C4787 H4781 0.930 . S
C4787 C4783 1.400 . S
C4787 C4786 1.385 . S
C4788 C4786 1.478 . S
C4788 C4790 1.381 . S
C4788 C4794 1.383 . S
C4789 C4785 1.495 . S
C4789 H4795 0.959 . S
C4789 H4796 0.961 . S
C4789 H4797 0.960 . S
C4790 C4788 1.381 . S
C4790 C4791 1.394 . S
C4790 H4798 0.930 . S
C4791 C4790 1.394 . S
C4791 C4792 1.383 . S
C4791 H4799 0.929 . S
C4792 C4791 1.383 . S
C4792 C4793 1.377 . S
C4793 H4777 0.930 . S
C4793 C4792 1.377 . S
C4793 C4794 1.379 . S
C4794 H4778 0.931 . S
C4794 C4788 1.383 . S
C4794 C4793 1.379 . S
H4795 C4789 0.959 . S
H4796 C4789 0.961 . S
H4797 C4789 0.960 . S
H4798 C4790 0.930 . S
H4799 C4791 0.929 . S
H4800 C4808 0.929 . S
H4801 C4810 0.930 . S
H4802 C4812 0.930 . S
H4803 C4815 0.929 . S
H4804 C4818 0.930 . S
H4805 C4820 0.960 . S
H4806 C4820 0.960 . S
H4807 C4820 0.960 . S
C4808 H4800 0.929 . S
C4808 C4809 1.377 . S
C4808 C4810 1.384 . S
C4809 C4808 1.377 . S
C4809 C4815 1.390 . S
C4810 H4801 0.930 . S
C4810 C4808 1.384 . S
C4810 C4811 1.372 . S
C4811 C4810 1.372 . S
C4811 C4812 1.400 . S
C4811 C4816 1.490 . S
C4812 H4802 0.930 . S
C4812 C4811 1.400 . S
C4812 C4815 1.386 . S
H4813 C4829 0.930 . S
H4814 C4830 0.931 . S
C4815 H4803 0.929 . S
C4815 C4809 1.390 . S
C4815 C4812 1.386 . S
C4816 C4811 1.490 . S
C4816 C4818 1.395 . S
C4816 C4819 1.403 . S
H4817 C4823 0.930 . S
C4818 H4804 0.930 . S
C4818 C4816 1.395 . S
C4818 C4821 1.403 . S
C4819 C4816 1.403 . S
C4819 C4820 1.524 . S
C4819 C4823 1.400 . S
C4820 H4805 0.960 . S
C4820 H4806 0.960 . S
C4820 H4807 0.960 . S
C4820 C4819 1.524 . S
C4821 C4818 1.403 . S
C4821 C4822 1.392 . S
C4821 C4825 1.495 . S
C4822 C4821 1.392 . S
C4822 C4823 1.385 . S
C4822 C4824 1.478 . S
C4823 H4817 0.930 . S
C4823 C4819 1.400 . S
C4823 C4822 1.385 . S
C4824 C4822 1.478 . S
C4824 C4826 1.381 . S
C4824 C4830 1.383 . S
C4825 C4821 1.495 . S
C4825 H4831 0.959 . S
C4825 H4832 0.961 . S
C4825 H4833 0.960 . S
C4826 C4824 1.381 . S
C4826 C4827 1.394 . S
C4826 H4834 0.930 . S
C4827 C4826 1.394 . S
C4827 C4828 1.383 . S
C4827 H4835 0.929 . S
C4828 C4827 1.383 . S
C4828 C4829 1.377 . S
C4829 H4813 0.930 . S
C4829 C4828 1.377 . S
C4829 C4830 1.379 . S
C4830 H4814 0.931 . S
C4830 C4824 1.383 . S
C4830 C4829 1.379 . S
H4831 C4825 0.959 . S
H4832 C4825 0.961 . S
H4833 C4825 0.960 . S
H4834 C4826 0.930 . S
H4835 C4827 0.929 . S
H4836 C4844 0.929 . S
H4837 C4846 0.930 . S
H4838 C4848 0.930 . S
H4839 C4851 0.929 . S
H4840 C4854 0.930 . S
H4841 C4856 0.960 . S
H4842 C4856 0.960 . S
H4843 C4856 0.960 . S
C4844 H4836 0.929 . S
C4844 C4845 1.377 . S
C4844 C4846 1.384 . S
C4845 C4844 1.377 . S
C4845 C4851 1.390 . S
C4846 H4837 0.930 . S
C4846 C4844 1.384 . S
C4846 C4847 1.372 . S
C4847 C4846 1.372 . S
C4847 C4848 1.400 . S
C4847 C4852 1.490 . S
C4848 H4838 0.930 . S
C4848 C4847 1.400 . S
C4848 C4851 1.386 . S
H4849 C4865 0.930 . S
H4850 C4866 0.931 . S
C4851 H4839 0.929 . S
C4851 C4845 1.390 . S
C4851 C4848 1.386 . S
C4852 C4847 1.490 . S
C4852 C4854 1.395 . S
C4852 C4855 1.403 . S
H4853 C4859 0.930 . S
C4854 H4840 0.930 . S
C4854 C4852 1.395 . S
C4854 C4857 1.403 . S
C4855 C4852 1.403 . S
C4855 C4856 1.524 . S
C4855 C4859 1.400 . S
C4856 H4841 0.960 . S
C4856 H4842 0.960 . S
C4856 H4843 0.960 . S
C4856 C4855 1.524 . S
C4857 C4854 1.403 . S
C4857 C4858 1.392 . S
C4857 C4861 1.495 . S
C4858 C4857 1.392 . S
C4858 C4859 1.385 . S
C4858 C4860 1.478 . S
C4859 H4853 0.930 . S
C4859 C4855 1.400 . S
C4859 C4858 1.385 . S
C4860 C4858 1.478 . S
C4860 C4862 1.381 . S
C4860 C4866 1.383 . S
C4861 C4857 1.495 . S
C4861 H4867 0.959 . S
C4861 H4868 0.961 . S
C4861 H4869 0.960 . S
C4862 C4860 1.381 . S
C4862 C4863 1.394 . S
C4862 H4870 0.930 . S
C4863 C4862 1.394 . S
C4863 C4864 1.383 . S
C4863 H4871 0.929 . S
C4864 C4863 1.383 . S
C4864 C4865 1.377 . S
C4865 H4849 0.930 . S
C4865 C4864 1.377 . S
C4865 C4866 1.379 . S
C4866 H4850 0.931 . S
C4866 C4860 1.383 . S
C4866 C4865 1.379 . S
H4867 C4861 0.959 . S
H4868 C4861 0.961 . S
H4869 C4861 0.960 . S
H4870 C4862 0.930 . S
H4871 C4863 0.929 . S
H4872 C4880 0.929 . S
H4873 C4882 0.930 . S
H4874 C4884 0.930 . S
H4875 C4887 0.929 . S
H4876 C4890 0.930 . S
H4877 C4892 0.960 . S
H4878 C4892 0.960 . S
H4879 C4892 0.960 . S
C4880 H4872 0.929 . S
C4880 C4881 1.377 . S
C4880 C4882 1.384 . S
C4881 C4880 1.377 . S
C4881 C4887 1.390 . S
C4882 H4873 0.930 . S
C4882 C4880 1.384 . S
C4882 C4883 1.372 . S
C4883 C4882 1.372 . S
C4883 C4884 1.400 . S
C4883 C4888 1.490 . S
C4884 H4874 0.930 . S
C4884 C4883 1.400 . S
C4884 C4887 1.386 . S
H4885 C4901 0.930 . S
H4886 C4902 0.931 . S
C4887 H4875 0.929 . S
C4887 C4881 1.390 . S
C4887 C4884 1.386 . S
C4888 C4883 1.490 . S
C4888 C4890 1.395 . S
C4888 C4891 1.403 . S
H4889 C4895 0.930 . S
C4890 H4876 0.930 . S
C4890 C4888 1.395 . S
C4890 C4893 1.403 . S
C4891 C4888 1.403 . S
C4891 C4892 1.524 . S
C4891 C4895 1.400 . S
C4892 H4877 0.960 . S
C4892 H4878 0.960 . S
C4892 H4879 0.960 . S
C4892 C4891 1.524 . S
C4893 C4890 1.403 . S
C4893 C4894 1.392 . S
C4893 C4897 1.495 . S
C4894 C4893 1.392 . S
C4894 C4895 1.385 . S
C4894 C4896 1.478 . S
C4895 H4889 0.930 . S
C4895 C4891 1.400 . S
C4895 C4894 1.385 . S
C4896 C4894 1.478 . S
C4896 C4898 1.381 . S
C4896 C4902 1.383 . S
C4897 C4893 1.495 . S
C4897 H4903 0.959 . S
C4897 H4904 0.961 . S
C4897 H4905 0.960 . S
C4898 C4896 1.381 . S
C4898 C4899 1.394 . S
C4898 H4906 0.930 . S
C4899 C4898 1.394 . S
C4899 C4900 1.383 . S
C4899 H4907 0.929 . S
C4900 C4899 1.383 . S
C4900 C4901 1.377 . S
C4901 H4885 0.930 . S
C4901 C4900 1.377 . S
C4901 C4902 1.379 . S
C4902 H4886 0.931 . S
C4902 C4896 1.383 . S
C4902 C4901 1.379 . S
H4903 C4897 0.959 . S
H4904 C4897 0.961 . S
H4905 C4897 0.960 . S
H4906 C4898 0.930 . S
H4907 C4899 0.929 . S
H4908 C4916 0.929 . S
H4909 C4918 0.930 . S
H4910 C4920 0.930 . S
H4911 C4923 0.929 . S
H4912 C4926 0.930 . S
H4913 C4928 0.960 . S
H4914 C4928 0.960 . S
H4915 C4928 0.960 . S
C4916 H4908 0.929 . S
C4916 C4917 1.377 . S
C4916 C4918 1.384 . S
C4917 C4916 1.377 . S
C4917 C4923 1.390 . S
C4918 H4909 0.930 . S
C4918 C4916 1.384 . S
C4918 C4919 1.372 . S
C4919 C4918 1.372 . S
C4919 C4920 1.400 . S
C4919 C4924 1.490 . S
C4920 H4910 0.930 . S
C4920 C4919 1.400 . S
C4920 C4923 1.386 . S
H4921 C4937 0.930 . S
H4922 C4938 0.931 . S
C4923 H4911 0.929 . S
C4923 C4917 1.390 . S
C4923 C4920 1.386 . S
C4924 C4919 1.490 . S
C4924 C4926 1.395 . S
C4924 C4927 1.403 . S
H4925 C4931 0.930 . S
C4926 H4912 0.930 . S
C4926 C4924 1.395 . S
C4926 C4929 1.403 . S
C4927 C4924 1.403 . S
C4927 C4928 1.524 . S
C4927 C4931 1.400 . S
C4928 H4913 0.960 . S
C4928 H4914 0.960 . S
C4928 H4915 0.960 . S
C4928 C4927 1.524 . S
C4929 C4926 1.403 . S
C4929 C4930 1.392 . S
C4929 C4933 1.495 . S
C4930 C4929 1.392 . S
C4930 C4931 1.385 . S
C4930 C4932 1.478 . S
C4931 H4925 0.930 . S
C4931 C4927 1.400 . S
C4931 C4930 1.385 . S
C4932 C4930 1.478 . S
C4932 C4934 1.381 . S
C4932 C4938 1.383 . S
C4933 C4929 1.495 . S
C4933 H4939 0.959 . S
C4933 H4940 0.961 . S
C4933 H4941 0.960 . S
C4934 C4932 1.381 . S
C4934 C4935 1.394 . S
C4934 H4942 0.930 . S
C4935 C4934 1.394 . S
C4935 C4936 1.383 . S
C4935 H4943 0.929 . S
C4936 C4935 1.383 . S
C4936 C4937 1.377 . S
C4937 H4921 0.930 . S
C4937 C4936 1.377 . S
C4937 C4938 1.379 . S
C4938 H4922 0.931 . S
C4938 C4932 1.383 . S
C4938 C4937 1.379 . S
H4939 C4933 0.959 . S
H4940 C4933 0.961 . S
H4941 C4933 0.960 . S
H4942 C4934 0.930 . S
H4943 C4935 0.929 . S
H4944 C4952 0.929 . S
H4945 C4954 0.930 . S
H4946 C4956 0.930 . S
H4947 C4959 0.929 . S
H4948 C4962 0.930 . S
H4949 C4964 0.960 . S
H4950 C4964 0.960 . S
H4951 C4964 0.960 . S
C4952 H4944 0.929 . S
C4952 C4953 1.377 . S
C4952 C4954 1.384 . S
C4953 C4952 1.377 . S
C4953 C4959 1.390 . S
C4954 H4945 0.930 . S
C4954 C4952 1.384 . S
C4954 C4955 1.372 . S
C4955 C4954 1.372 . S
C4955 C4956 1.400 . S
C4955 C4960 1.490 . S
C4956 H4946 0.930 . S
C4956 C4955 1.400 . S
C4956 C4959 1.386 . S
H4957 C4973 0.930 . S
H4958 C4974 0.931 . S
C4959 H4947 0.929 . S
C4959 C4953 1.390 . S
C4959 C4956 1.386 . S
C4960 C4955 1.490 . S
C4960 C4962 1.395 . S
C4960 C4963 1.403 . S
H4961 C4967 0.930 . S
C4962 H4948 0.930 . S
C4962 C4960 1.395 . S
C4962 C4965 1.403 . S
C4963 C4960 1.403 . S
C4963 C4964 1.524 . S
C4963 C4967 1.400 . S
C4964 H4949 0.960 . S
C4964 H4950 0.960 . S
C4964 H4951 0.960 . S
C4964 C4963 1.524 . S
C4965 C4962 1.403 . S
C4965 C4966 1.392 . S
C4965 C4969 1.495 . S
C4966 C4965 1.392 . S
C4966 C4967 1.385 . S
C4966 C4968 1.478 . S
C4967 H4961 0.930 . S
C4967 C4963 1.400 . S
C4967 C4966 1.385 . S
C4968 C4966 1.478 . S
C4968 C4970 1.381 . S
C4968 C4974 1.383 . S
C4969 C4965 1.495 . S
C4969 H4975 0.959 . S
C4969 H4976 0.961 . S
C4969 H4977 0.960 . S
C4970 C4968 1.381 . S
C4970 C4971 1.394 . S
C4970 H4978 0.930 . S
C4971 C4970 1.394 . S
C4971 C4972 1.383 . S
C4971 H4979 0.929 . S
C4972 C4971 1.383 . S
C4972 C4973 1.377 . S
C4973 H4957 0.930 . S
C4973 C4972 1.377 . S
C4973 C4974 1.379 . S
C4974 H4958 0.931 . S
C4974 C4968 1.383 . S
C4974 C4973 1.379 . S
H4975 C4969 0.959 . S
H4976 C4969 0.961 . S
H4977 C4969 0.960 . S
H4978 C4970 0.930 . S
H4979 C4971 0.929 . S
H4980 C4988 0.929 . S
H4981 C4990 0.930 . S
H4982 C4992 0.930 . S
H4983 C4995 0.929 . S
H4984 C4998 0.930 . S
H4985 C5000 0.960 . S
H4986 C5000 0.960 . S
H4987 C5000 0.960 . S
C4988 H4980 0.929 . S
C4988 C4989 1.377 . S
C4988 C4990 1.384 . S
C4989 C4988 1.377 . S
C4989 C4995 1.390 . S
C4990 H4981 0.930 . S
C4990 C4988 1.384 . S
C4990 C4991 1.372 . S
C4991 C4990 1.372 . S
C4991 C4992 1.400 . S
C4991 C4996 1.490 . S
C4992 H4982 0.930 . S
C4992 C4991 1.400 . S
C4992 C4995 1.386 . S
H4993 C5009 0.930 . S
H4994 C5010 0.931 . S
C4995 H4983 0.929 . S
C4995 C4989 1.390 . S
C4995 C4992 1.386 . S
C4996 C4991 1.490 . S
C4996 C4998 1.395 . S
C4996 C4999 1.403 . S
H4997 C5003 0.930 . S
C4998 H4984 0.930 . S
C4998 C4996 1.395 . S
C4998 C5001 1.403 . S
C4999 C4996 1.403 . S
C4999 C5000 1.524 . S
C4999 C5003 1.400 . S
C5000 H4985 0.960 . S
C5000 H4986 0.960 . S
C5000 H4987 0.960 . S
C5000 C4999 1.524 . S
C5001 C4998 1.403 . S
C5001 C5002 1.392 . S
C5001 C5005 1.495 . S
C5002 C5001 1.392 . S
C5002 C5003 1.385 . S
C5002 C5004 1.478 . S
C5003 H4997 0.930 . S
C5003 C4999 1.400 . S
C5003 C5002 1.385 . S
C5004 C5002 1.478 . S
C5004 C5006 1.381 . S
C5004 C5010 1.383 . S
C5005 C5001 1.495 . S
C5005 H5011 0.959 . S
C5005 H5012 0.961 . S
C5005 H5013 0.960 . S
C5006 C5004 1.381 . S
C5006 C5007 1.394 . S
C5006 H5014 0.930 . S
C5007 C5006 1.394 . S
C5007 C5008 1.383 . S
C5007 H5015 0.929 . S
C5008 C5007 1.383 . S
C5008 C5009 1.377 . S
C5009 H4993 0.930 . S
C5009 C5008 1.377 . S
C5009 C5010 1.379 . S
C5010 H4994 0.931 . S
C5010 C5004 1.383 . S
C5010 C5009 1.379 . S
H5011 C5005 0.959 . S
H5012 C5005 0.961 . S
H5013 C5005 0.960 . S
H5014 C5006 0.930 . S
H5015 C5007 0.929 . S
H5016 C5024 0.929 . S
H5017 C5026 0.930 . S
H5018 C5028 0.930 . S
H5019 C5031 0.929 . S
H5020 C5034 0.930 . S
H5021 C5036 0.960 . S
H5022 C5036 0.960 . S
H5023 C5036 0.960 . S
C5024 H5016 0.929 . S
C5024 C5025 1.377 . S
C5024 C5026 1.384 . S
C5025 C5024 1.377 . S
C5025 C5031 1.390 . S
C5026 H5017 0.930 . S
C5026 C5024 1.384 . S
C5026 C5027 1.372 . S
C5027 C5026 1.372 . S
C5027 C5028 1.400 . S
C5027 C5032 1.490 . S
C5028 H5018 0.930 . S
C5028 C5027 1.400 . S
C5028 C5031 1.386 . S
H5029 C5045 0.930 . S
H5030 C5046 0.931 . S
C5031 H5019 0.929 . S
C5031 C5025 1.390 . S
C5031 C5028 1.386 . S
C5032 C5027 1.490 . S
C5032 C5034 1.395 . S
C5032 C5035 1.403 . S
H5033 C5039 0.930 . S
C5034 H5020 0.930 . S
C5034 C5032 1.395 . S
C5034 C5037 1.403 . S
C5035 C5032 1.403 . S
C5035 C5036 1.524 . S
C5035 C5039 1.400 . S
C5036 H5021 0.960 . S
C5036 H5022 0.960 . S
C5036 H5023 0.960 . S
C5036 C5035 1.524 . S
C5037 C5034 1.403 . S
C5037 C5038 1.392 . S
C5037 C5041 1.495 . S
C5038 C5037 1.392 . S
C5038 C5039 1.385 . S
C5038 C5040 1.478 . S
C5039 H5033 0.930 . S
C5039 C5035 1.400 . S
C5039 C5038 1.385 . S
C5040 C5038 1.478 . S
C5040 C5042 1.381 . S
C5040 C5046 1.383 . S
C5041 C5037 1.495 . S
C5041 H5047 0.959 . S
C5041 H5048 0.961 . S
C5041 H5049 0.960 . S
C5042 C5040 1.381 . S
C5042 C5043 1.394 . S
C5042 H5050 0.930 . S
C5043 C5042 1.394 . S
C5043 C5044 1.383 . S
C5043 H5051 0.929 . S
C5044 C5043 1.383 . S
C5044 C5045 1.377 . S
C5045 H5029 0.930 . S
C5045 C5044 1.377 . S
C5045 C5046 1.379 . S
C5046 H5030 0.931 . S
C5046 C5040 1.383 . S
C5046 C5045 1.379 . S
H5047 C5041 0.959 . S
H5048 C5041 0.961 . S
H5049 C5041 0.960 . S
H5050 C5042 0.930 . S
H5051 C5043 0.929 . S
H5052 C5060 0.929 . S
H5053 C5062 0.930 . S
H5054 C5064 0.930 . S
H5055 C5067 0.929 . S
H5056 C5070 0.930 . S
H5057 C5072 0.960 . S
H5058 C5072 0.960 . S
H5059 C5072 0.960 . S
C5060 H5052 0.929 . S
C5060 C5061 1.377 . S
C5060 C5062 1.384 . S
C5061 C5060 1.377 . S
C5061 C5067 1.390 . S
C5062 H5053 0.930 . S
C5062 C5060 1.384 . S
C5062 C5063 1.372 . S
C5063 C5062 1.372 . S
C5063 C5064 1.400 . S
C5063 C5068 1.490 . S
C5064 H5054 0.930 . S
C5064 C5063 1.400 . S
C5064 C5067 1.386 . S
H5065 C5081 0.930 . S
H5066 C5082 0.931 . S
C5067 H5055 0.929 . S
C5067 C5061 1.390 . S
C5067 C5064 1.386 . S
C5068 C5063 1.490 . S
C5068 C5070 1.395 . S
C5068 C5071 1.403 . S
H5069 C5075 0.930 . S
C5070 H5056 0.930 . S
C5070 C5068 1.395 . S
C5070 C5073 1.403 . S
C5071 C5068 1.403 . S
C5071 C5072 1.524 . S
C5071 C5075 1.400 . S
C5072 H5057 0.960 . S
C5072 H5058 0.960 . S
C5072 H5059 0.960 . S
C5072 C5071 1.524 . S
C5073 C5070 1.403 . S
C5073 C5074 1.392 . S
C5073 C5077 1.495 . S
C5074 C5073 1.392 . S
C5074 C5075 1.385 . S
C5074 C5076 1.478 . S
C5075 H5069 0.930 . S
C5075 C5071 1.400 . S
C5075 C5074 1.385 . S
C5076 C5074 1.478 . S
C5076 C5078 1.381 . S
C5076 C5082 1.383 . S
C5077 C5073 1.495 . S
C5077 H5083 0.959 . S
C5077 H5084 0.961 . S
C5077 H5085 0.960 . S
C5078 C5076 1.381 . S
C5078 C5079 1.394 . S
C5078 H5086 0.930 . S
C5079 C5078 1.394 . S
C5079 C5080 1.383 . S
C5079 H5087 0.929 . S
C5080 C5079 1.383 . S
C5080 C5081 1.377 . S
C5081 H5065 0.930 . S
C5081 C5080 1.377 . S
C5081 C5082 1.379 . S
C5082 H5066 0.931 . S
C5082 C5076 1.383 . S
C5082 C5081 1.379 . S
H5083 C5077 0.959 . S
H5084 C5077 0.961 . S
H5085 C5077 0.960 . S
H5086 C5078 0.930 . S
H5087 C5079 0.929 . S
H5088 C5096 0.929 . S
H5089 C5098 0.930 . S
H5090 C5100 0.930 . S
H5091 C5103 0.929 . S
H5092 C5106 0.930 . S
H5093 C5108 0.960 . S
H5094 C5108 0.960 . S
H5095 C5108 0.960 . S
C5096 H5088 0.929 . S
C5096 C5097 1.377 . S
C5096 C5098 1.384 . S
C5097 C5096 1.377 . S
C5097 C5103 1.390 . S
C5098 H5089 0.930 . S
C5098 C5096 1.384 . S
C5098 C5099 1.372 . S
C5099 C5098 1.372 . S
C5099 C5100 1.400 . S
C5099 C5104 1.490 . S
C5100 H5090 0.930 . S
C5100 C5099 1.400 . S
C5100 C5103 1.386 . S
H5101 C5117 0.930 . S
H5102 C5118 0.931 . S
C5103 H5091 0.929 . S
C5103 C5097 1.390 . S
C5103 C5100 1.386 . S
C5104 C5099 1.490 . S
C5104 C5106 1.395 . S
C5104 C5107 1.403 . S
H5105 C5111 0.930 . S
C5106 H5092 0.930 . S
C5106 C5104 1.395 . S
C5106 C5109 1.403 . S
C5107 C5104 1.403 . S
C5107 C5108 1.524 . S
C5107 C5111 1.400 . S
C5108 H5093 0.960 . S
C5108 H5094 0.960 . S
C5108 H5095 0.960 . S
C5108 C5107 1.524 . S
C5109 C5106 1.403 . S
C5109 C5110 1.392 . S
C5109 C5113 1.495 . S
C5110 C5109 1.392 . S
C5110 C5111 1.385 . S
C5110 C5112 1.478 . S
C5111 H5105 0.930 . S
C5111 C5107 1.400 . S
C5111 C5110 1.385 . S
C5112 C5110 1.478 . S
C5112 C5114 1.381 . S
C5112 C5118 1.383 . S
C5113 C5109 1.495 . S
C5113 H5119 0.959 . S
C5113 H5120 0.961 . S
C5113 H5121 0.960 . S
C5114 C5112 1.381 . S
C5114 C5115 1.394 . S
C5114 H5122 0.930 . S
C5115 C5114 1.394 . S
C5115 C5116 1.383 . S
C5115 H5123 0.929 . S
C5116 C5115 1.383 . S
C5116 C5117 1.377 . S
C5117 H5101 0.930 . S
C5117 C5116 1.377 . S
C5117 C5118 1.379 . S
C5118 H5102 0.931 . S
C5118 C5112 1.383 . S
C5118 C5117 1.379 . S
H5119 C5113 0.959 . S
H5120 C5113 0.961 . S
H5121 C5113 0.960 . S
H5122 C5114 0.930 . S
H5123 C5115 0.929 . S
H5124 C5132 0.929 . S
H5125 C5134 0.930 . S
H5126 C5136 0.930 . S
H5127 C5139 0.929 . S
H5128 C5142 0.930 . S
H5129 C5144 0.960 . S
H5130 C5144 0.960 . S
H5131 C5144 0.960 . S
C5132 H5124 0.929 . S
C5132 C5133 1.377 . S
C5132 C5134 1.384 . S
C5133 C5132 1.377 . S
C5133 C5139 1.390 . S
C5134 H5125 0.930 . S
C5134 C5132 1.384 . S
C5134 C5135 1.372 . S
C5135 C5134 1.372 . S
C5135 C5136 1.400 . S
C5135 C5140 1.490 . S
C5136 H5126 0.930 . S
C5136 C5135 1.400 . S
C5136 C5139 1.386 . S
H5137 C5153 0.930 . S
H5138 C5154 0.931 . S
C5139 H5127 0.929 . S
C5139 C5133 1.390 . S
C5139 C5136 1.386 . S
C5140 C5135 1.490 . S
C5140 C5142 1.395 . S
C5140 C5143 1.403 . S
H5141 C5147 0.930 . S
C5142 H5128 0.930 . S
C5142 C5140 1.395 . S
C5142 C5145 1.403 . S
C5143 C5140 1.403 . S
C5143 C5144 1.524 . S
C5143 C5147 1.400 . S
C5144 H5129 0.960 . S
C5144 H5130 0.960 . S
C5144 H5131 0.960 . S
C5144 C5143 1.524 . S
C5145 C5142 1.403 . S
C5145 C5146 1.392 . S
C5145 C5149 1.495 . S
C5146 C5145 1.392 . S
C5146 C5147 1.385 . S
C5146 C5148 1.478 . S
C5147 H5141 0.930 . S
C5147 C5143 1.400 . S
C5147 C5146 1.385 . S
C5148 C5146 1.478 . S
C5148 C5150 1.381 . S
C5148 C5154 1.383 . S
C5149 C5145 1.495 . S
C5149 H5155 0.959 . S
C5149 H5156 0.961 . S
C5149 H5157 0.960 . S
C5150 C5148 1.381 . S
C5150 C5151 1.394 . S
C5150 H5158 0.930 . S
C5151 C5150 1.394 . S
C5151 C5152 1.383 . S
C5151 H5159 0.929 . S
C5152 C5151 1.383 . S
C5152 C5153 1.377 . S
C5153 H5137 0.930 . S
C5153 C5152 1.377 . S
C5153 C5154 1.379 . S
C5154 H5138 0.931 . S
C5154 C5148 1.383 . S
C5154 C5153 1.379 . S
H5155 C5149 0.959 . S
H5156 C5149 0.961 . S
H5157 C5149 0.960 . S
H5158 C5150 0.930 . S
H5159 C5151 0.929 . S
H5160 C5168 0.929 . S
H5161 C5170 0.930 . S
H5162 C5172 0.930 . S
H5163 C5175 0.929 . S
H5164 C5178 0.930 . S
H5165 C5180 0.960 . S
H5166 C5180 0.960 . S
H5167 C5180 0.960 . S
C5168 H5160 0.929 . S
C5168 C5169 1.377 . S
C5168 C5170 1.384 . S
C5169 C5168 1.377 . S
C5169 C5175 1.390 . S
C5170 H5161 0.930 . S
C5170 C5168 1.384 . S
C5170 C5171 1.372 . S
C5171 C5170 1.372 . S
C5171 C5172 1.400 . S
C5171 C5176 1.490 . S
C5172 H5162 0.930 . S
C5172 C5171 1.400 . S
C5172 C5175 1.386 . S
H5173 C5189 0.930 . S
H5174 C5190 0.931 . S
C5175 H5163 0.929 . S
C5175 C5169 1.390 . S
C5175 C5172 1.386 . S
C5176 C5171 1.490 . S
C5176 C5178 1.395 . S
C5176 C5179 1.403 . S
H5177 C5183 0.930 . S
C5178 H5164 0.930 . S
C5178 C5176 1.395 . S
C5178 C5181 1.403 1_655 S
C5179 C5176 1.403 . S
C5179 C5180 1.524 . S
C5179 C5183 1.400 . S
C5180 H5165 0.960 . S
C5180 H5166 0.960 . S
C5180 H5167 0.960 . S
C5180 C5179 1.524 . S
C5181 C5178 1.403 1_455 S
C5181 C5182 1.392 1_455 S
C5181 C5185 1.495 . S
C5182 C5181 1.392 1_655 S
C5182 C5183 1.385 . S
C5182 C5184 1.478 1_655 S
C5183 H5177 0.930 . S
C5183 C5179 1.400 . S
C5183 C5182 1.385 . S
C5184 C5182 1.478 1_455 S
C5184 C5186 1.381 . S
C5184 C5190 1.383 . S
C5185 C5181 1.495 . S
C5185 H5191 0.959 . S
C5185 H5192 0.961 . S
C5185 H5193 0.960 . S
C5186 C5184 1.381 . S
C5186 C5187 1.394 . S
C5186 H5194 0.930 . S
C5187 C5186 1.394 . S
C5187 C5188 1.383 . S
C5187 H5195 0.929 . S
C5188 C5187 1.383 . S
C5188 C5189 1.377 . S
C5189 H5173 0.930 . S
C5189 C5188 1.377 . S
C5189 C5190 1.379 . S
C5190 H5174 0.931 . S
C5190 C5184 1.383 . S
C5190 C5189 1.379 . S
H5191 C5185 0.959 . S
H5192 C5185 0.961 . S
H5193 C5185 0.960 . S
H5194 C5186 0.930 . S
H5195 C5187 0.929 . S
H5196 C5204 0.929 . S
H5197 C5206 0.930 . S
H5198 C5208 0.930 . S
H5199 C5211 0.929 . S
H5200 C5214 0.930 . S
H5201 C5216 0.960 . S
H5202 C5216 0.960 . S
H5203 C5216 0.960 . S
C5204 H5196 0.929 . S
C5204 C5205 1.377 . S
C5204 C5206 1.384 . S
C5205 C5204 1.377 . S
C5205 C5211 1.390 . S
C5206 H5197 0.930 . S
C5206 C5204 1.384 . S
C5206 C5207 1.372 . S
C5207 C5206 1.372 . S
C5207 C5208 1.400 . S
C5207 C5212 1.490 . S
C5208 H5198 0.930 . S
C5208 C5207 1.400 . S
C5208 C5211 1.386 . S
H5209 C5225 0.930 . S
H5210 C5226 0.931 . S
C5211 H5199 0.929 . S
C5211 C5205 1.390 . S
C5211 C5208 1.386 . S
C5212 C5207 1.490 . S
C5212 C5214 1.395 . S
C5212 C5215 1.403 . S
H5213 C5219 0.930 . S
C5214 H5200 0.930 . S
C5214 C5212 1.395 . S
C5214 C5217 1.403 . S
C5215 C5212 1.403 . S
C5215 C5216 1.524 . S
C5215 C5219 1.400 . S
C5216 H5201 0.960 . S
C5216 H5202 0.960 . S
C5216 H5203 0.960 . S
C5216 C5215 1.524 . S
C5217 C5214 1.403 . S
C5217 C5218 1.392 . S
C5217 C5221 1.495 . S
C5218 C5217 1.392 . S
C5218 C5219 1.385 . S
C5218 C5220 1.478 . S
C5219 H5213 0.930 . S
C5219 C5215 1.400 . S
C5219 C5218 1.385 . S
C5220 C5218 1.478 . S
C5220 C5222 1.381 . S
C5220 C5226 1.383 . S
C5221 C5217 1.495 . S
C5221 H5227 0.959 . S
C5221 H5228 0.961 . S
C5221 H5229 0.960 . S
C5222 C5220 1.381 . S
C5222 C5223 1.394 . S
C5222 H5230 0.930 . S
C5223 C5222 1.394 . S
C5223 C5224 1.383 . S
C5223 H5231 0.929 . S
C5224 C5223 1.383 . S
C5224 C5225 1.377 . S
C5225 H5209 0.930 . S
C5225 C5224 1.377 . S
C5225 C5226 1.379 . S
C5226 H5210 0.931 . S
C5226 C5220 1.383 . S
C5226 C5225 1.379 . S
H5227 C5221 0.959 . S
H5228 C5221 0.961 . S
H5229 C5221 0.960 . S
H5230 C5222 0.930 . S
H5231 C5223 0.929 . S
H5232 C5240 0.929 . S
H5233 C5242 0.930 . S
H5234 C5244 0.930 . S
H5235 C5247 0.929 . S
H5236 C5250 0.930 . S
H5237 C5252 0.960 . S
H5238 C5252 0.960 . S
H5239 C5252 0.960 . S
C5240 H5232 0.929 . S
C5240 C5241 1.377 . S
C5240 C5242 1.384 . S
C5241 C5240 1.377 . S
C5241 C5247 1.390 . S
C5242 H5233 0.930 . S
C5242 C5240 1.384 . S
C5242 C5243 1.372 . S
C5243 C5242 1.372 . S
C5243 C5244 1.400 . S
C5243 C5248 1.490 . S
C5244 H5234 0.930 . S
C5244 C5243 1.400 . S
C5244 C5247 1.386 . S
H5245 C5261 0.930 . S
H5246 C5262 0.931 . S
C5247 H5235 0.929 . S
C5247 C5241 1.390 . S
C5247 C5244 1.386 . S
C5248 C5243 1.490 . S
C5248 C5250 1.395 . S
C5248 C5251 1.403 . S
H5249 C5255 0.930 . S
C5250 H5236 0.930 . S
C5250 C5248 1.395 . S
C5250 C5253 1.403 . S
C5251 C5248 1.403 . S
C5251 C5252 1.524 . S
C5251 C5255 1.400 . S
C5252 H5237 0.960 . S
C5252 H5238 0.960 . S
C5252 H5239 0.960 . S
C5252 C5251 1.524 . S
C5253 C5250 1.403 . S
C5253 C5254 1.392 . S
C5253 C5257 1.495 . S
C5254 C5253 1.392 . S
C5254 C5255 1.385 . S
C5254 C5256 1.478 . S
C5255 H5249 0.930 . S
C5255 C5251 1.400 . S
C5255 C5254 1.385 . S
C5256 C5254 1.478 . S
C5256 C5258 1.381 . S
C5256 C5262 1.383 . S
C5257 C5253 1.495 . S
C5257 H5263 0.959 . S
C5257 H5264 0.961 . S
C5257 H5265 0.960 . S
C5258 C5256 1.381 . S
C5258 C5259 1.394 . S
C5258 H5266 0.930 . S
C5259 C5258 1.394 . S
C5259 C5260 1.383 . S
C5259 H5267 0.929 . S
C5260 C5259 1.383 . S
C5260 C5261 1.377 . S
C5261 H5245 0.930 . S
C5261 C5260 1.377 . S
C5261 C5262 1.379 . S
C5262 H5246 0.931 . S
C5262 C5256 1.383 . S
C5262 C5261 1.379 . S
H5263 C5257 0.959 . S
H5264 C5257 0.961 . S
H5265 C5257 0.960 . S
H5266 C5258 0.930 . S
H5267 C5259 0.929 . S
H5268 C5276 0.929 . S
H5269 C5278 0.930 . S
H5270 C5280 0.930 . S
H5271 C5283 0.929 . S
H5272 C5286 0.930 . S
H5273 C5288 0.960 . S
H5274 C5288 0.960 . S
H5275 C5288 0.960 . S
C5276 H5268 0.929 . S
C5276 C5277 1.377 . S
C5276 C5278 1.384 . S
C5277 C5276 1.377 . S
C5277 C5283 1.390 . S
C5278 H5269 0.930 . S
C5278 C5276 1.384 . S
C5278 C5279 1.372 . S
C5279 C5278 1.372 . S
C5279 C5280 1.400 . S
C5279 C5284 1.490 . S
C5280 H5270 0.930 . S
C5280 C5279 1.400 . S
C5280 C5283 1.386 . S
H5281 C5297 0.930 . S
H5282 C5298 0.931 . S
C5283 H5271 0.929 . S
C5283 C5277 1.390 . S
C5283 C5280 1.386 . S
C5284 C5279 1.490 . S
C5284 C5286 1.395 . S
C5284 C5287 1.403 . S
H5285 C5291 0.930 . S
C5286 H5272 0.930 . S
C5286 C5284 1.395 . S
C5286 C5289 1.403 . S
C5287 C5284 1.403 . S
C5287 C5288 1.524 . S
C5287 C5291 1.400 . S
C5288 H5273 0.960 . S
C5288 H5274 0.960 . S
C5288 H5275 0.960 . S
C5288 C5287 1.524 . S
C5289 C5286 1.403 . S
C5289 C5290 1.392 . S
C5289 C5293 1.495 . S
C5290 C5289 1.392 . S
C5290 C5291 1.385 . S
C5290 C5292 1.478 . S
C5291 H5285 0.930 . S
C5291 C5287 1.400 . S
C5291 C5290 1.385 . S
C5292 C5290 1.478 . S
C5292 C5294 1.381 . S
C5292 C5298 1.383 . S
C5293 C5289 1.495 . S
C5293 H5299 0.959 . S
C5293 H5300 0.961 . S
C5293 H5301 0.960 . S
C5294 C5292 1.381 . S
C5294 C5295 1.394 . S
C5294 H5302 0.930 . S
C5295 C5294 1.394 . S
C5295 C5296 1.383 . S
C5295 H5303 0.929 . S
C5296 C5295 1.383 . S
C5296 C5297 1.377 . S
C5297 H5281 0.930 . S
C5297 C5296 1.377 . S
C5297 C5298 1.379 . S
C5298 H5282 0.931 . S
C5298 C5292 1.383 . S
C5298 C5297 1.379 . S
H5299 C5293 0.959 . S
H5300 C5293 0.961 . S
H5301 C5293 0.960 . S
H5302 C5294 0.930 . S
H5303 C5295 0.929 . S
H5304 C5312 0.929 . S
H5305 C5314 0.930 . S
H5306 C5316 0.930 . S
H5307 C5319 0.929 . S
H5308 C5322 0.930 . S
H5309 C5324 0.960 . S
H5310 C5324 0.960 . S
H5311 C5324 0.960 . S
C5312 H5304 0.929 . S
C5312 C5313 1.377 . S
C5312 C5314 1.384 . S
C5313 C5312 1.377 . S
C5313 C5319 1.390 . S
C5314 H5305 0.930 . S
C5314 C5312 1.384 . S
C5314 C5315 1.372 . S
C5315 C5314 1.372 . S
C5315 C5316 1.400 . S
C5315 C5320 1.490 . S
C5316 H5306 0.930 . S
C5316 C5315 1.400 . S
C5316 C5319 1.386 . S
H5317 C5333 0.930 . S
H5318 C5334 0.931 . S
C5319 H5307 0.929 . S
C5319 C5313 1.390 . S
C5319 C5316 1.386 . S
C5320 C5315 1.490 . S
C5320 C5322 1.395 . S
C5320 C5323 1.403 . S
H5321 C5327 0.930 . S
C5322 H5308 0.930 . S
C5322 C5320 1.395 . S
C5322 C5325 1.403 . S
C5323 C5320 1.403 . S
C5323 C5324 1.524 . S
C5323 C5327 1.400 . S
C5324 H5309 0.960 . S
C5324 H5310 0.960 . S
C5324 H5311 0.960 . S
C5324 C5323 1.524 . S
C5325 C5322 1.403 . S
C5325 C5326 1.392 . S
C5325 C5329 1.495 . S
C5326 C5325 1.392 . S
C5326 C5327 1.385 . S
C5326 C5328 1.478 . S
C5327 H5321 0.930 . S
C5327 C5323 1.400 . S
C5327 C5326 1.385 . S
C5328 C5326 1.478 . S
C5328 C5330 1.381 . S
C5328 C5334 1.383 1_655 S
C5329 C5325 1.495 . S
C5329 H5335 0.959 . S
C5329 H5336 0.961 . S
C5329 H5337 0.960 . S
C5330 C5328 1.381 . S
C5330 C5331 1.394 . S
C5330 H5338 0.930 . S
C5331 C5330 1.394 . S
C5331 C5332 1.383 1_655 S
C5331 H5339 0.929 . S
C5332 C5331 1.383 1_455 S
C5332 C5333 1.377 . S
C5333 H5317 0.930 . S
C5333 C5332 1.377 . S
C5333 C5334 1.379 . S
C5334 H5318 0.931 . S
C5334 C5328 1.383 1_455 S
C5334 C5333 1.379 . S
H5335 C5329 0.959 . S
H5336 C5329 0.961 . S
H5337 C5329 0.960 . S
H5338 C5330 0.930 . S
H5339 C5331 0.929 . S
H5340 C5348 0.929 . S
H5341 C5350 0.930 . S
H5342 C5352 0.930 . S
H5343 C5355 0.929 . S
H5344 C5358 0.930 . S
H5345 C5360 0.960 . S
H5346 C5360 0.960 . S
H5347 C5360 0.960 . S
C5348 H5340 0.929 . S
C5348 C5349 1.377 . S
C5348 C5350 1.384 . S
C5349 C5348 1.377 . S
C5349 C5355 1.390 . S
C5350 H5341 0.930 . S
C5350 C5348 1.384 . S
C5350 C5351 1.372 . S
C5351 C5350 1.372 . S
C5351 C5352 1.400 . S
C5351 C5356 1.490 . S
C5352 H5342 0.930 . S
C5352 C5351 1.400 . S
C5352 C5355 1.386 . S
H5353 C5369 0.930 . S
H5354 C5370 0.931 . S
C5355 H5343 0.929 . S
C5355 C5349 1.390 . S
C5355 C5352 1.386 . S
C5356 C5351 1.490 . S
C5356 C5358 1.395 . S
C5356 C5359 1.403 . S
H5357 C5363 0.930 . S
C5358 H5344 0.930 . S
C5358 C5356 1.395 . S
C5358 C5361 1.403 . S
C5359 C5356 1.403 . S
C5359 C5360 1.524 . S
C5359 C5363 1.400 . S
C5360 H5345 0.960 . S
C5360 H5346 0.960 . S
C5360 H5347 0.960 . S
C5360 C5359 1.524 . S
C5361 C5358 1.403 . S
C5361 C5362 1.392 . S
C5361 C5365 1.495 . S
C5362 C5361 1.392 . S
C5362 C5363 1.385 . S
C5362 C5364 1.478 . S
C5363 H5357 0.930 . S
C5363 C5359 1.400 . S
C5363 C5362 1.385 . S
C5364 C5362 1.478 . S
C5364 C5366 1.381 . S
C5364 C5370 1.383 . S
C5365 C5361 1.495 . S
C5365 H5371 0.959 . S
C5365 H5372 0.961 . S
C5365 H5373 0.960 . S
C5366 C5364 1.381 . S
C5366 C5367 1.394 . S
C5366 H5374 0.930 . S
C5367 C5366 1.394 . S
C5367 C5368 1.383 . S
C5367 H5375 0.929 . S
C5368 C5367 1.383 . S
C5368 C5369 1.377 . S
C5369 H5353 0.930 . S
C5369 C5368 1.377 . S
C5369 C5370 1.379 . S
C5370 H5354 0.931 . S
C5370 C5364 1.383 . S
C5370 C5369 1.379 . S
H5371 C5365 0.959 . S
H5372 C5365 0.961 . S
H5373 C5365 0.960 . S
H5374 C5366 0.930 . S
H5375 C5367 0.929 . S
H5376 C5384 0.929 . S
H5377 C5386 0.930 . S
H5378 C5388 0.930 . S
H5379 C5391 0.929 . S
H5380 C5394 0.930 . S
H5381 C5396 0.960 . S
H5382 C5396 0.960 . S
H5383 C5396 0.960 . S
C5384 H5376 0.929 . S
C5384 C5385 1.377 . S
C5384 C5386 1.384 . S
C5385 C5384 1.377 . S
C5385 C5391 1.390 . S
C5386 H5377 0.930 . S
C5386 C5384 1.384 . S
C5386 C5387 1.372 . S
C5387 C5386 1.372 . S
C5387 C5388 1.400 . S
C5387 C5392 1.490 . S
C5388 H5378 0.930 . S
C5388 C5387 1.400 . S
C5388 C5391 1.386 . S
H5389 C5405 0.930 . S
H5390 C5406 0.931 . S
C5391 H5379 0.929 . S
C5391 C5385 1.390 . S
C5391 C5388 1.386 . S
C5392 C5387 1.490 . S
C5392 C5394 1.395 . S
C5392 C5395 1.403 . S
H5393 C5399 0.930 . S
C5394 H5380 0.930 . S
C5394 C5392 1.395 . S
C5394 C5397 1.403 . S
C5395 C5392 1.403 . S
C5395 C5396 1.524 . S
C5395 C5399 1.400 . S
C5396 H5381 0.960 . S
C5396 H5382 0.960 . S
C5396 H5383 0.960 . S
C5396 C5395 1.524 . S
C5397 C5394 1.403 . S
C5397 C5398 1.392 . S
C5397 C5401 1.495 . S
C5398 C5397 1.392 . S
C5398 C5399 1.385 . S
C5398 C5400 1.478 . S
C5399 H5393 0.930 . S
C5399 C5395 1.400 . S
C5399 C5398 1.385 . S
C5400 C5398 1.478 . S
C5400 C5402 1.381 . S
C5400 C5406 1.383 . S
C5401 C5397 1.495 . S
C5401 H5407 0.959 . S
C5401 H5408 0.961 . S
C5401 H5409 0.960 . S
C5402 C5400 1.381 . S
C5402 C5403 1.394 . S
C5402 H5410 0.930 . S
C5403 C5402 1.394 . S
C5403 C5404 1.383 . S
C5403 H5411 0.929 . S
C5404 C5403 1.383 . S
C5404 C5405 1.377 . S
C5405 H5389 0.930 . S
C5405 C5404 1.377 . S
C5405 C5406 1.379 . S
C5406 H5390 0.931 . S
C5406 C5400 1.383 . S
C5406 C5405 1.379 . S
H5407 C5401 0.959 . S
H5408 C5401 0.961 . S
H5409 C5401 0.960 . S
H5410 C5402 0.930 . S
H5411 C5403 0.929 . S
H5412 C5420 0.929 . S
H5413 C5422 0.930 . S
H5414 C5424 0.930 . S
H5415 C5427 0.929 . S
H5416 C5430 0.930 . S
H5417 C5432 0.960 . S
H5418 C5432 0.960 . S
H5419 C5432 0.960 . S
C5420 H5412 0.929 . S
C5420 C5421 1.377 . S
C5420 C5422 1.384 . S
C5421 C5420 1.377 . S
C5421 C5427 1.390 . S
C5422 H5413 0.930 . S
C5422 C5420 1.384 . S
C5422 C5423 1.372 . S
C5423 C5422 1.372 . S
C5423 C5424 1.400 . S
C5423 C5428 1.490 . S
C5424 H5414 0.930 . S
C5424 C5423 1.400 . S
C5424 C5427 1.386 . S
H5425 C5441 0.930 . S
H5426 C5442 0.934 . S
C5427 H5415 0.929 . S
C5427 C5421 1.390 . S
C5427 C5424 1.386 . S
C5428 C5423 1.490 . S
C5428 C5430 1.395 . S
C5428 C5431 1.403 . S
H5429 C5435 0.930 . S
C5430 H5416 0.930 . S
C5430 C5428 1.395 . S
C5430 C5433 1.403 . S
C5431 C5428 1.403 . S
C5431 C5432 1.524 . S
C5431 C5435 1.400 . S
C5432 H5417 0.960 . S
C5432 H5418 0.960 . S
C5432 H5419 0.960 . S
C5432 C5431 1.524 . S
C5433 C5430 1.403 . S
C5433 C5434 1.392 . S
C5433 C5437 1.495 . S
C5434 C5433 1.392 . S
C5434 C5435 1.385 . S
C5434 C5436 1.478 . S
C5435 H5429 0.930 . S
C5435 C5431 1.400 . S
C5435 C5434 1.385 . S
C5436 C5434 1.478 . S
C5436 C5438 1.381 . S
C5436 C5442 1.378 1_565 S
C5437 C5433 1.495 . S
C5437 H5443 0.959 . S
C5437 H5444 0.961 . S
C5437 H5445 0.960 . S
C5438 C5436 1.381 . S
C5438 C5439 1.394 . S
C5438 H5446 0.930 . S
C5439 C5438 1.394 . S
C5439 C5440 1.383 1_565 S
C5439 H5447 0.910 1_655 S
C5440 C5439 1.383 1_545 S
C5440 C5441 1.377 . S
C5441 H5425 0.930 . S
C5441 C5440 1.377 . S
C5441 C5442 1.381 . S
C5442 H5426 0.934 . S
C5442 C5436 1.378 1_545 S
C5442 C5441 1.381 . S
H5443 C5437 0.959 . S
H5444 C5437 0.961 . S
H5445 C5437 0.960 . S
H5446 C5438 0.930 . S
H5447 C5439 0.910 1_455 S
H5448 C5456 0.929 . S
H5449 C5458 0.930 . S
H5450 C5460 0.930 . S
H5451 C5463 0.929 . S
H5452 C5466 0.930 . S
H5453 C5468 0.960 . S
H5454 C5468 0.960 . S
H5455 C5468 0.960 . S
C5456 H5448 0.929 . S
C5456 C5457 1.377 . S
C5456 C5458 1.384 . S
C5457 C5456 1.377 . S
C5457 C5463 1.390 . S
C5458 H5449 0.930 . S
C5458 C5456 1.384 . S
C5458 C5459 1.372 . S
C5459 C5458 1.372 . S
C5459 C5460 1.400 . S
C5459 C5464 1.490 . S
C5460 H5450 0.930 . S
C5460 C5459 1.400 . S
C5460 C5463 1.386 . S
H5461 C5477 0.930 . S
H5462 C5478 0.931 . S
C5463 H5451 0.929 . S
C5463 C5457 1.390 . S
C5463 C5460 1.386 . S
C5464 C5459 1.490 . S
C5464 C5466 1.395 . S
C5464 C5467 1.403 . S
H5465 C5471 0.930 . S
C5466 H5452 0.930 . S
C5466 C5464 1.395 . S
C5466 C5469 1.403 . S
C5467 C5464 1.403 . S
C5467 C5468 1.524 . S
C5467 C5471 1.400 . S
C5468 H5453 0.960 . S
C5468 H5454 0.960 . S
C5468 H5455 0.960 . S
C5468 C5467 1.524 . S
C5469 C5466 1.403 . S
C5469 C5470 1.392 . S
C5469 C5473 1.495 . S
C5470 C5469 1.392 . S
C5470 C5471 1.385 . S
C5470 C5472 1.478 . S
C5471 H5465 0.930 . S
C5471 C5467 1.400 . S
C5471 C5470 1.385 . S
C5472 C5470 1.478 . S
C5472 C5474 1.381 . S
C5472 C5478 1.383 . S
C5473 C5469 1.495 . S
C5473 H5479 0.959 . S
C5473 H5480 0.961 . S
C5473 H5481 0.960 . S
C5474 C5472 1.381 . S
C5474 C5475 1.394 . S
C5474 H5482 0.930 . S
C5475 C5474 1.394 . S
C5475 C5476 1.383 . S
C5475 H5483 0.929 . S
C5476 C5475 1.383 . S
C5476 C5477 1.377 . S
C5477 H5461 0.930 . S
C5477 C5476 1.377 . S
C5477 C5478 1.379 . S
C5478 H5462 0.931 . S
C5478 C5472 1.383 . S
C5478 C5477 1.379 . S
H5479 C5473 0.959 . S
H5480 C5473 0.961 . S
H5481 C5473 0.960 . S
H5482 C5474 0.930 . S
H5483 C5475 0.929 . S
H5484 C5492 0.929 1_556 S
H5485 C5494 0.930 1_556 S
H5486 C5496 0.930 . S
H5487 C5499 0.929 . S
H5488 C5502 0.930 . S
H5489 C5504 0.960 . S
H5490 C5504 0.960 . S
H5491 C5504 0.960 . S
C5492 H5484 0.929 1_554 S
C5492 C5493 1.377 . S
C5492 C5494 1.384 . S
C5493 C5492 1.377 . S
C5493 C5499 1.390 . S
C5494 H5485 0.930 1_554 S
C5494 C5492 1.384 . S
C5494 C5495 1.372 . S
C5495 C5494 1.372 . S
C5495 C5496 1.400 . S
C5495 C5500 1.490 . S
C5496 H5486 0.930 . S
C5496 C5495 1.400 . S
C5496 C5499 1.386 . S
H5497 C5513 0.930 . S
H5498 C5514 0.931 . S
C5499 H5487 0.929 . S
C5499 C5493 1.390 . S
C5499 C5496 1.386 . S
C5500 C5495 1.490 . S
C5500 C5502 1.395 . S
C5500 C5503 1.403 . S
H5501 C5507 0.930 . S
C5502 H5488 0.930 . S
C5502 C5500 1.395 . S
C5502 C5505 1.403 . S
C5503 C5500 1.403 . S
C5503 C5504 1.524 . S
C5503 C5507 1.400 . S
C5504 H5489 0.960 . S
C5504 H5490 0.960 . S
C5504 H5491 0.960 . S
C5504 C5503 1.524 . S
C5505 C5502 1.403 . S
C5505 C5506 1.392 . S
C5505 C5509 1.495 . S
C5506 C5505 1.392 . S
C5506 C5507 1.385 . S
C5506 C5508 1.478 . S
C5507 H5501 0.930 . S
C5507 C5503 1.400 . S
C5507 C5506 1.385 . S
C5508 C5506 1.478 . S
C5508 C5510 1.381 . S
C5508 C5514 1.383 . S
C5509 C5505 1.495 . S
C5509 H5515 0.959 . S
C5509 H5516 0.961 . S
C5509 H5517 0.960 . S
C5510 C5508 1.381 . S
C5510 C5511 1.394 . S
C5510 H5518 0.930 1_554 S
C5511 C5510 1.394 . S
C5511 C5512 1.383 . S
C5511 H5519 0.929 1_554 S
C5512 C5511 1.383 . S
C5512 C5513 1.377 . S
C5513 H5497 0.930 . S
C5513 C5512 1.377 . S
C5513 C5514 1.379 . S
C5514 H5498 0.931 . S
C5514 C5508 1.383 . S
C5514 C5513 1.379 . S
H5515 C5509 0.959 . S
H5516 C5509 0.961 . S
H5517 C5509 0.960 . S
H5518 C5510 0.930 1_556 S
H5519 C5511 0.929 1_556 S
H5520 C5528 0.929 . S
H5521 C5530 0.930 . S
H5522 C5532 0.930 . S
H5523 C5535 0.929 . S
H5524 C5538 0.930 . S
H5525 C5540 0.960 . S
H5526 C5540 0.960 . S
H5527 C5540 0.960 . S
C5528 H5520 0.929 . S
C5528 C5529 1.377 . S
C5528 C5530 1.384 . S
C5529 C5528 1.377 . S
C5529 C5535 1.390 . S
C5530 H5521 0.930 . S
C5530 C5528 1.384 . S
C5530 C5531 1.372 . S
C5531 C5530 1.372 . S
C5531 C5532 1.400 . S
C5531 C5536 1.490 . S
C5532 H5522 0.930 . S
C5532 C5531 1.400 . S
C5532 C5535 1.386 . S
H5533 C5549 0.930 . S
H5534 C5550 0.931 . S
C5535 H5523 0.929 . S
C5535 C5529 1.390 . S
C5535 C5532 1.386 . S
C5536 C5531 1.490 . S
C5536 C5538 1.395 . S
C5536 C5539 1.403 . S
H5537 C5543 0.930 . S
C5538 H5524 0.930 . S
C5538 C5536 1.395 . S
C5538 C5541 1.403 . S
C5539 C5536 1.403 . S
C5539 C5540 1.524 . S
C5539 C5543 1.400 . S
C5540 H5525 0.960 . S
C5540 H5526 0.960 . S
C5540 H5527 0.960 . S
C5540 C5539 1.524 . S
C5541 C5538 1.403 . S
C5541 C5542 1.392 . S
C5541 C5545 1.495 . S
C5542 C5541 1.392 . S
C5542 C5543 1.385 . S
C5542 C5544 1.478 . S
C5543 H5537 0.930 . S
C5543 C5539 1.400 . S
C5543 C5542 1.385 . S
C5544 C5542 1.478 . S
C5544 C5546 1.381 . S
C5544 C5550 1.383 . S
C5545 C5541 1.495 . S
C5545 H5551 0.959 . S
C5545 H5552 0.961 . S
C5545 H5553 0.960 . S
C5546 C5544 1.381 . S
C5546 C5547 1.394 . S
C5546 H5554 0.930 . S
C5547 C5546 1.394 . S
C5547 C5548 1.383 . S
C5547 H5555 0.929 . S
C5548 C5547 1.383 . S
C5548 C5549 1.377 . S
C5549 H5533 0.930 . S
C5549 C5548 1.377 . S
C5549 C5550 1.379 . S
C5550 H5534 0.931 . S
C5550 C5544 1.383 . S
C5550 C5549 1.379 . S
H5551 C5545 0.959 . S
H5552 C5545 0.961 . S
H5553 C5545 0.960 . S
H5554 C5546 0.930 . S
H5555 C5547 0.929 . S
H5556 C5564 0.929 . S
H5557 C5566 0.930 . S
H5558 C5568 0.930 . S
H5559 C5571 0.929 . S
H5560 C5574 0.930 . S
H5561 C5576 0.960 . S
H5562 C5576 0.960 . S
H5563 C5576 0.926 1_556 S
C5564 H5556 0.929 . S
C5564 C5565 1.377 . S
C5564 C5566 1.384 . S
C5565 C5564 1.377 . S
C5565 C5571 1.390 . S
C5566 H5557 0.930 . S
C5566 C5564 1.384 . S
C5566 C5567 1.372 . S
C5567 C5566 1.372 . S
C5567 C5568 1.400 . S
C5567 C5572 1.490 . S
C5568 H5558 0.930 . S
C5568 C5567 1.400 . S
C5568 C5571 1.386 . S
H5569 C5585 0.930 . S
H5570 C5586 0.933 . S
C5571 H5559 0.929 . S
C5571 C5565 1.390 . S
C5571 C5568 1.386 . S
C5572 C5567 1.490 . S
C5572 C5574 1.395 . S
C5572 C5575 1.403 . S
H5573 C5579 0.930 . S
C5574 H5560 0.930 . S
C5574 C5572 1.395 . S
C5574 C5577 1.403 . S
C5575 C5572 1.403 . S
C5575 C5576 1.524 . S
C5575 C5579 1.400 . S
C5576 H5561 0.960 . S
C5576 H5562 0.960 . S
C5576 H5563 0.926 1_554 S
C5576 C5575 1.524 . S
C5577 C5574 1.403 . S
C5577 C5578 1.392 . S
C5577 C5581 1.495 . S
C5578 C5577 1.392 . S
C5578 C5579 1.385 . S
C5578 C5580 1.478 . S
C5579 H5573 0.930 . S
C5579 C5575 1.400 . S
C5579 C5578 1.385 . S
C5580 C5578 1.478 . S
C5580 C5582 1.381 . S
C5580 C5586 1.380 1_554 S
C5581 C5577 1.495 . S
C5581 H5587 0.959 . S
C5581 H5588 0.961 . S
C5581 H5589 0.960 . S
C5582 C5580 1.381 . S
C5582 C5583 1.394 . S
C5582 H5590 0.930 . S
C5583 C5582 1.394 . S
C5583 C5584 1.383 . S
C5583 H5591 0.929 . S
C5584 C5583 1.383 . S
C5584 C5585 1.377 1_554 S
C5585 H5569 0.930 . S
C5585 C5584 1.377 1_556 S
C5585 C5586 1.380 . S
C5586 H5570 0.933 . S
C5586 C5580 1.380 1_556 S
C5586 C5585 1.380 . S
H5587 C5581 0.959 . S
H5588 C5581 0.961 . S
H5589 C5581 0.960 . S
H5590 C5582 0.930 . S
H5591 C5583 0.929 . S
H5592 C5600 0.929 . S
H5593 C5602 0.930 . S
H5594 C5604 0.930 . S
H5595 C5607 0.929 . S
H5596 C5610 0.930 . S
H5597 C5612 0.960 . S
H5598 C5612 0.960 . S
H5599 C5612 0.960 . S
C5600 H5592 0.929 . S
C5600 C5601 1.377 . S
C5600 C5602 1.384 1_545 S
C5601 C5600 1.377 . S
C5601 C5607 1.390 1_545 S
C5602 H5593 0.930 . S
C5602 C5600 1.384 1_565 S
C5602 C5603 1.372 . S
C5603 C5602 1.372 . S
C5603 C5604 1.400 . S
C5603 C5608 1.490 . S
C5604 H5594 0.930 . S
C5604 C5603 1.400 . S
C5604 C5607 1.386 . S
H5605 C5621 0.930 . S
H5606 C5622 0.931 . S
C5607 H5595 0.929 . S
C5607 C5601 1.390 1_565 S
C5607 C5604 1.386 . S
C5608 C5603 1.490 . S
C5608 C5610 1.395 . S
C5608 C5611 1.403 . S
H5609 C5615 0.930 . S
C5610 H5596 0.930 . S
C5610 C5608 1.395 . S
C5610 C5613 1.403 . S
C5611 C5608 1.403 . S
C5611 C5612 1.524 . S
C5611 C5615 1.400 . S
C5612 H5597 0.960 . S
C5612 H5598 0.960 . S
C5612 H5599 0.960 . S
C5612 C5611 1.524 . S
C5613 C5610 1.403 . S
C5613 C5614 1.392 . S
C5613 C5617 1.495 . S
C5614 C5613 1.392 . S
C5614 C5615 1.385 . S
C5614 C5616 1.478 . S
C5615 H5609 0.930 . S
C5615 C5611 1.400 . S
C5615 C5614 1.385 . S
C5616 C5614 1.478 . S
C5616 C5618 1.381 . S
C5616 C5622 1.383 . S
C5617 C5613 1.495 . S
C5617 H5623 0.959 . S
C5617 H5624 0.961 . S
C5617 H5625 0.960 . S
C5618 C5616 1.381 . S
C5618 C5619 1.394 . S
C5618 H5626 0.930 . S
C5619 C5618 1.394 . S
C5619 C5620 1.383 . S
C5619 H5627 0.929 . S
C5620 C5619 1.383 . S
C5620 C5621 1.377 . S
C5621 H5605 0.930 . S
C5621 C5620 1.377 . S
C5621 C5622 1.379 . S
C5622 H5606 0.931 . S
C5622 C5616 1.383 . S
C5622 C5621 1.379 . S
H5623 C5617 0.959 . S
H5624 C5617 0.961 . S
H5625 C5617 0.960 . S
H5626 C5618 0.930 . S
H5627 C5619 0.929 . S
H5628 C5636 0.929 . S
H5629 C5638 0.930 . S
H5630 C5640 0.930 . S
H5631 C5643 0.929 . S
H5632 C5646 0.930 . S
H5633 C5648 0.960 . S
H5634 C5648 0.960 . S
H5635 C5648 0.960 . S
C5636 H5628 0.929 . S
C5636 C5637 1.377 . S
C5636 C5638 1.384 . S
C5637 C5636 1.377 . S
C5637 C5643 1.390 . S
C5638 H5629 0.930 . S
C5638 C5636 1.384 . S
C5638 C5639 1.372 . S
C5639 C5638 1.372 . S
C5639 C5640 1.400 . S
C5639 C5644 1.490 . S
C5640 H5630 0.930 . S
C5640 C5639 1.400 . S
C5640 C5643 1.386 . S
H5641 C5657 0.930 . S
H5642 C5658 0.931 . S
C5643 H5631 0.929 . S
C5643 C5637 1.390 . S
C5643 C5640 1.386 . S
C5644 C5639 1.490 . S
C5644 C5646 1.395 . S
C5644 C5647 1.403 . S
H5645 C5651 0.930 . S
C5646 H5632 0.930 . S
C5646 C5644 1.395 . S
C5646 C5649 1.403 . S
C5647 C5644 1.403 . S
C5647 C5648 1.524 . S
C5647 C5651 1.400 . S
C5648 H5633 0.960 . S
C5648 H5634 0.960 . S
C5648 H5635 0.960 . S
C5648 C5647 1.524 . S
C5649 C5646 1.403 . S
C5649 C5650 1.392 . S
C5649 C5653 1.495 . S
C5650 C5649 1.392 . S
C5650 C5651 1.385 . S
C5650 C5652 1.478 . S
C5651 H5645 0.930 . S
C5651 C5647 1.400 . S
C5651 C5650 1.385 . S
C5652 C5650 1.478 . S
C5652 C5654 1.381 . S
C5652 C5658 1.383 . S
C5653 C5649 1.495 . S
C5653 H5659 0.959 . S
C5653 H5660 0.961 . S
C5653 H5661 0.960 . S
C5654 C5652 1.381 . S
C5654 C5655 1.394 . S
C5654 H5662 0.930 . S
C5655 C5654 1.394 . S
C5655 C5656 1.383 . S
C5655 H5663 0.929 . S
C5656 C5655 1.383 . S
C5656 C5657 1.377 . S
C5657 H5641 0.930 . S
C5657 C5656 1.377 . S
C5657 C5658 1.379 . S
C5658 H5642 0.931 . S
C5658 C5652 1.383 . S
C5658 C5657 1.379 . S
H5659 C5653 0.959 . S
H5660 C5653 0.961 . S
H5661 C5653 0.960 . S
H5662 C5654 0.930 . S
H5663 C5655 0.929 . S
C2217 C255 1.576 . S
C2236 C920 1.426 . S
C2253 C147 2.186 . S
C2272 C1011 2.137 . S
C2289 C184 1.376 . S
C2308 C1088 1.299 1_565 S
C2344 C1186 1.551 . S
C2325 C220 1.726 . S
C2361 C40 1.547 . S
C2380 C1270 1.500 . S
C2416 C1342 0.984 . S
C2397 C74 0.983 . S
C2452 C1431 0.627 . S
C2433 C110 0.678 . S
C2469 C14 1.201 . S
C2488 C1508 1.117 . S
C2524 C927 1.972 . S
C2505 C579 2.092 . S
C2541 C616 0.585 . S
C2560 C1018 0.575 . S
C2596 C1095 1.212 . S
C2577 C687 1.259 . S
C2632 C1172 1.555 . S
C2613 C436 1.620 . S
C2649 C580 2.037 . S
C2668 C1256 1.916 . S
C2704 C1358 1.053 . S
C2685 C615 1.137 . S
C2740 C1438 0.694 . S
C2721 C688 0.736 . S
C2776 C1515 1.342 . S
C2757 C435 1.485 . S
C2812 C934 1.446 . S
C2793 C410 1.516 . S
C2829 C722 2.066 . S
C2848 C1599 1.982 . S
C2884 C1687 2.218 . S
C2865 C842 2.323 . S
C2920 C1760 0.583 . S
C2901 C794 0.373 . S
C2937 C302 0.711 . S
C2956 C1522 0.721 . S
C2973 C338 1.431 . S
C2992 C1102 1.374 . S
C3009 C830 2.425 . S
C3028 C1851 2.352 . S
C3064 C1928 0.830 . S
C3045 C758 0.781 . S
C3100 C931 1.371 . S
C3081 C158 1.430 . S
C3136 C1946 2.097 . S
C3117 C254 2.178 . S
C3153 C218 1.366 . S
C3172 C1099 1.288 . S
C3189 C194 1.623 . S
C3208 C1846 1.554 . S
C3244 C1258 1.501 . S
C3225 C3 1.544 . S
C3261 C111 0.842 . S
C3280 C1690 0.798 . S
C3316 C1442 0.708 1_556 S
C3297 C76 0.669 . S
C3352 C2023 1.120 . S
C3333 C50 1.197 . S
C3388 C938 1.921 . S
C3369 C364 2.027 . S
C3424 C1930 0.591 . S
C3405 C795 0.535 . S
C3441 C292 1.204 . S
C3460 C1106 1.140 . S
C3477 C723 1.570 . S
C3496 C1855 1.429 . S
C3513 C363 2.036 . S
C3532 C1267 1.848 . S
C3568 C1683 1.022 . S
C3549 C796 1.115 . S
C3585 C291 0.707 . S
C3604 C1426 0.738 . S
C3621 C724 1.468 . S
C3640 C2030 1.400 . S
C3657 C482 1.487 . S
C3676 C922 1.382 1_554 S
C3693 C434 2.026 . S
C3712 C1610 1.936 . S
C3729 C662 2.275 . S
C3748 C1340 2.156 . S
C3765 C614 0.331 . S
C3784 C1771 0.400 . S
C3820 C2014 0.668 . S
C3801 C698 0.720 . S
C3837 C554 1.359 . S
C3856 C1090 1.372 1_565 S
C3892 C1190 2.276 . S
C3873 C650 2.351 . S
C3928 C1015 0.652 . S
C3909 C506 0.710 . S
C3945 C183 1.575 . S
C3964 C2096 1.484 . S
C4000 C1935 2.129 . S
C3981 C219 2.185 . S
C4017 C256 1.369 . S
C4036 C2180 1.330 . S
C4053 C148 1.725 . S
C4072 C1858 1.570 . S
C4089 C122 1.582 . S
C4108 C1606 1.499 . S
C4144 C1678 0.837 . S
C4125 C2 0.928 . S
C4180 C1767 0.610 . S
C4161 C39 0.623 . S
C4216 C2012 1.218 . S
C4197 C86 1.294 . S
C4252 C2103 1.985 . S
C4233 C651 2.104 . S
C4269 C472 0.587 . S
C4288 C1942 0.697 . S
C4324 C2187 1.199 . S
C4305 C507 1.247 . S
C4360 C1844 1.514 . S
C4341 C544 1.631 . S
C4396 C1592 1.876 . S
C4377 C652 2.043 . S
C4413 C471 1.125 . S
C4432 C1694 1.057 . S
C4468 C1774 0.802 . S
C4449 C508 0.739 . S
C4485 C543 1.511 . S
C4504 C2019 1.375 . S
C4540 C2110 1.425 . S
C4521 C806 1.545 . S
C4557 C326 2.037 . S
C4576 C1263 1.968 . S
C4612 C1351 2.191 . S
C4593 C374 2.299 . S
C4648 C1424 0.599 . S
C4629 C398 0.401 . S
C4684 C2026 0.660 . S
C4665 C770 0.694 . S
C4701 C734 1.422 . S
C4720 C2194 1.394 . S
C4756 C1179 2.334 . S
C4737 C362 2.407 . S
C4792 C1004 0.855 . S
C4773 C290 0.804 . S
C4809 C230 1.433 . S
C4828 C2107 1.417 . S
C4864 C1022 2.129 . S
C4845 C182 2.182 . S
C4881 C146 1.369 . S
C4900 C2191 1.345 . S
C4917 C266 1.626 . S
C4936 C1174 1.528 . S
C4953 C75 1.583 . S
C4972 C1594 1.523 . S
C5008 C1354 0.964 . S
C4989 C38 0.966 . S
C5025 C4 0.577 . S
C5044 C1778 0.633 . S
C5061 C112 1.238 . S
C5080 C1519 1.168 . S
C5116 C2114 1.905 . S
C5097 C832 2.024 . S
C5133 C399 0.559 . S
C5152 C1006 0.675 . S
C5188 C2198 1.150 . S
C5169 C760 1.189 . S
C5205 C327 1.568 . S
C5224 C1183 1.465 . S
C5241 C831 2.072 . S
C5260 C1603 1.875 . S
C5296 C1347 1.063 . S
C5277 C400 1.113 . S
C5313 C759 0.719 . S
C5332 C1762 0.798 . S
C5368 C1526 1.371 . S
C5349 C328 1.477 . S
C5404 C2098 1.415 . S
C5385 C626 1.494 . S
C5440 C1274 1.937 1_655 S
C5421 C542 2.032 . S
C5457 C590 2.239 . S
C5476 C1676 2.151 . S
C5512 C1435 0.565 . S
C5493 C470 0.338 . S
C5529 C518 0.662 . S
C5548 C1510 0.665 . S
C5565 C446 1.363 . S
C5584 C2182 1.368 . S
C5620 C1862 2.286 . S
C5601 C578 2.361 . S
C5656 C1939 0.714 . S
C5637 C686 0.679 . S
