# Generated by pormake.
# Topology gar, (4,6)-cn, num edge types: 1
# Building blocks:
#     Node 0, Type 0, BuildingBlock: TATPOV_clean_sbu_0, # of connection points: 4
#     Node 1, Type 0, BuildingBlock: TATPOV_clean_sbu_0, # of connection points: 4
#     Node 2, Type 0, BuildingBlock: TATPOV_clean_sbu_0, # of connection points: 4
#     Node 3, Type 0, BuildingBlock: TATPOV_clean_sbu_0, # of connection points: 4
#     Node 4, Type 0, BuildingBlock: TATPOV_clean_sbu_0, # of connection points: 4
#     Node 5, Type 0, BuildingBlock: TATPOV_clean_sbu_0, # of connection points: 4
#     Node 6, Type 0, BuildingBlock: TATPOV_clean_sbu_0, # of connection points: 4
#     Node 7, Type 0, BuildingBlock: TATPOV_clean_sbu_0, # of connection points: 4
#     Node 8, Type 0, BuildingBlock: TATPOV_clean_sbu_0, # of connection points: 4
#     Node 9, Type 0, BuildingBlock: TATPOV_clean_sbu_0, # of connection points: 4
#     Node 10, Type 0, BuildingBlock: TATPOV_clean_sbu_0, # of connection points: 4
#     Node 11, Type 0, BuildingBlock: TATPOV_clean_sbu_0, # of connection points: 4
#     Node 12, Type 0, BuildingBlock: TATPOV_clean_sbu_0, # of connection points: 4
#     Node 13, Type 0, BuildingBlock: TATPOV_clean_sbu_0, # of connection points: 4
#     Node 14, Type 0, BuildingBlock: TATPOV_clean_sbu_0, # of connection points: 4
#     Node 15, Type 0, BuildingBlock: TATPOV_clean_sbu_0, # of connection points: 4
#     Node 16, Type 0, BuildingBlock: TATPOV_clean_sbu_0, # of connection points: 4
#     Node 17, Type 0, BuildingBlock: TATPOV_clean_sbu_0, # of connection points: 4
#     Node 18, Type 0, BuildingBlock: TATPOV_clean_sbu_0, # of connection points: 4
#     Node 19, Type 0, BuildingBlock: TATPOV_clean_sbu_0, # of connection points: 4
#     Node 20, Type 0, BuildingBlock: TATPOV_clean_sbu_0, # of connection points: 4
#     Node 21, Type 0, BuildingBlock: TATPOV_clean_sbu_0, # of connection points: 4
#     Node 22, Type 0, BuildingBlock: TATPOV_clean_sbu_0, # of connection points: 4
#     Node 23, Type 0, BuildingBlock: TATPOV_clean_sbu_0, # of connection points: 4
#     Node 24, Type 1, BuildingBlock: BETDEL_clean_sbu_0, # of connection points: 6
#     Node 25, Type 1, BuildingBlock: BETDEL_clean_sbu_0, # of connection points: 6
#     Node 26, Type 1, BuildingBlock: BETDEL_clean_sbu_0, # of connection points: 6
#     Node 27, Type 1, BuildingBlock: BETDEL_clean_sbu_0, # of connection points: 6
#     Node 28, Type 1, BuildingBlock: BETDEL_clean_sbu_0, # of connection points: 6
#     Node 29, Type 1, BuildingBlock: BETDEL_clean_sbu_0, # of connection points: 6
#     Node 30, Type 1, BuildingBlock: BETDEL_clean_sbu_0, # of connection points: 6
#     Node 31, Type 1, BuildingBlock: BETDEL_clean_sbu_0, # of connection points: 6
#     Node 32, Type 1, BuildingBlock: BETDEL_clean_sbu_0, # of connection points: 6
#     Node 33, Type 1, BuildingBlock: BETDEL_clean_sbu_0, # of connection points: 6
#     Node 34, Type 1, BuildingBlock: BETDEL_clean_sbu_0, # of connection points: 6
#     Node 35, Type 1, BuildingBlock: BETDEL_clean_sbu_0, # of connection points: 6
#     Node 36, Type 1, BuildingBlock: BETDEL_clean_sbu_0, # of connection points: 6
#     Node 37, Type 1, BuildingBlock: BETDEL_clean_sbu_0, # of connection points: 6
#     Node 38, Type 1, BuildingBlock: BETDEL_clean_sbu_0, # of connection points: 6
#     Node 39, Type 1, BuildingBlock: BETDEL_clean_sbu_0, # of connection points: 6
#     Edge 40, Type (0, 1), BuildingBlock: KIFKEQ_clean_linker_1, # of connection points: 2
#     Edge 41, Type (0, 1), BuildingBlock: KIFKEQ_clean_linker_1, # of connection points: 2
#     Edge 42, Type (0, 1), BuildingBlock: KIFKEQ_clean_linker_1, # of connection points: 2
#     Edge 43, Type (0, 1), BuildingBlock: KIFKEQ_clean_linker_1, # of connection points: 2
#     Edge 44, Type (0, 1), BuildingBlock: KIFKEQ_clean_linker_1, # of connection points: 2
#     Edge 45, Type (0, 1), BuildingBlock: KIFKEQ_clean_linker_1, # of connection points: 2
#     Edge 46, Type (0, 1), BuildingBlock: KIFKEQ_clean_linker_1, # of connection points: 2
#     Edge 47, Type (0, 1), BuildingBlock: KIFKEQ_clean_linker_1, # of connection points: 2
#     Edge 48, Type (0, 1), BuildingBlock: KIFKEQ_clean_linker_1, # of connection points: 2
#     Edge 49, Type (0, 1), BuildingBlock: KIFKEQ_clean_linker_1, # of connection points: 2
#     Edge 50, Type (0, 1), BuildingBlock: KIFKEQ_clean_linker_1, # of connection points: 2
#     Edge 51, Type (0, 1), BuildingBlock: KIFKEQ_clean_linker_1, # of connection points: 2
#     Edge 52, Type (0, 1), BuildingBlock: KIFKEQ_clean_linker_1, # of connection points: 2
#     Edge 53, Type (0, 1), BuildingBlock: KIFKEQ_clean_linker_1, # of connection points: 2
#     Edge 54, Type (0, 1), BuildingBlock: KIFKEQ_clean_linker_1, # of connection points: 2
#     Edge 55, Type (0, 1), BuildingBlock: KIFKEQ_clean_linker_1, # of connection points: 2
#     Edge 56, Type (0, 1), BuildingBlock: KIFKEQ_clean_linker_1, # of connection points: 2
#     Edge 57, Type (0, 1), BuildingBlock: KIFKEQ_clean_linker_1, # of connection points: 2
#     Edge 58, Type (0, 1), BuildingBlock: KIFKEQ_clean_linker_1, # of connection points: 2
#     Edge 59, Type (0, 1), BuildingBlock: KIFKEQ_clean_linker_1, # of connection points: 2
#     Edge 60, Type (0, 1), BuildingBlock: KIFKEQ_clean_linker_1, # of connection points: 2
#     Edge 61, Type (0, 1), BuildingBlock: KIFKEQ_clean_linker_1, # of connection points: 2
#     Edge 62, Type (0, 1), BuildingBlock: KIFKEQ_clean_linker_1, # of connection points: 2
#     Edge 63, Type (0, 1), BuildingBlock: KIFKEQ_clean_linker_1, # of connection points: 2
#     Edge 64, Type (0, 1), BuildingBlock: KIFKEQ_clean_linker_1, # of connection points: 2
#     Edge 65, Type (0, 1), BuildingBlock: KIFKEQ_clean_linker_1, # of connection points: 2
#     Edge 66, Type (0, 1), BuildingBlock: KIFKEQ_clean_linker_1, # of connection points: 2
#     Edge 67, Type (0, 1), BuildingBlock: KIFKEQ_clean_linker_1, # of connection points: 2
#     Edge 68, Type (0, 1), BuildingBlock: KIFKEQ_clean_linker_1, # of connection points: 2
#     Edge 69, Type (0, 1), BuildingBlock: KIFKEQ_clean_linker_1, # of connection points: 2
#     Edge 70, Type (0, 1), BuildingBlock: KIFKEQ_clean_linker_1, # of connection points: 2
#     Edge 71, Type (0, 1), BuildingBlock: KIFKEQ_clean_linker_1, # of connection points: 2
#     Edge 72, Type (0, 1), BuildingBlock: KIFKEQ_clean_linker_1, # of connection points: 2
#     Edge 73, Type (0, 1), BuildingBlock: KIFKEQ_clean_linker_1, # of connection points: 2
#     Edge 74, Type (0, 1), BuildingBlock: KIFKEQ_clean_linker_1, # of connection points: 2
#     Edge 75, Type (0, 1), BuildingBlock: KIFKEQ_clean_linker_1, # of connection points: 2
#     Edge 76, Type (0, 1), BuildingBlock: KIFKEQ_clean_linker_1, # of connection points: 2
#     Edge 77, Type (0, 1), BuildingBlock: KIFKEQ_clean_linker_1, # of connection points: 2
#     Edge 78, Type (0, 1), BuildingBlock: KIFKEQ_clean_linker_1, # of connection points: 2
#     Edge 79, Type (0, 1), BuildingBlock: KIFKEQ_clean_linker_1, # of connection points: 2
#     Edge 80, Type (0, 1), BuildingBlock: KIFKEQ_clean_linker_1, # of connection points: 2
#     Edge 81, Type (0, 1), BuildingBlock: KIFKEQ_clean_linker_1, # of connection points: 2
#     Edge 82, Type (0, 1), BuildingBlock: KIFKEQ_clean_linker_1, # of connection points: 2
#     Edge 83, Type (0, 1), BuildingBlock: KIFKEQ_clean_linker_1, # of connection points: 2
#     Edge 84, Type (0, 1), BuildingBlock: KIFKEQ_clean_linker_1, # of connection points: 2
#     Edge 85, Type (0, 1), BuildingBlock: KIFKEQ_clean_linker_1, # of connection points: 2
#     Edge 86, Type (0, 1), BuildingBlock: KIFKEQ_clean_linker_1, # of connection points: 2
#     Edge 87, Type (0, 1), BuildingBlock: KIFKEQ_clean_linker_1, # of connection points: 2
#     Edge 88, Type (0, 1), BuildingBlock: KIFKEQ_clean_linker_1, # of connection points: 2
#     Edge 89, Type (0, 1), BuildingBlock: KIFKEQ_clean_linker_1, # of connection points: 2
#     Edge 90, Type (0, 1), BuildingBlock: KIFKEQ_clean_linker_1, # of connection points: 2
#     Edge 91, Type (0, 1), BuildingBlock: KIFKEQ_clean_linker_1, # of connection points: 2
#     Edge 92, Type (0, 1), BuildingBlock: KIFKEQ_clean_linker_1, # of connection points: 2
#     Edge 93, Type (0, 1), BuildingBlock: KIFKEQ_clean_linker_1, # of connection points: 2
#     Edge 94, Type (0, 1), BuildingBlock: KIFKEQ_clean_linker_1, # of connection points: 2
#     Edge 95, Type (0, 1), BuildingBlock: KIFKEQ_clean_linker_1, # of connection points: 2
#     Edge 96, Type (0, 1), BuildingBlock: KIFKEQ_clean_linker_1, # of connection points: 2
#     Edge 97, Type (0, 1), BuildingBlock: KIFKEQ_clean_linker_1, # of connection points: 2
#     Edge 98, Type (0, 1), BuildingBlock: KIFKEQ_clean_linker_1, # of connection points: 2
#     Edge 99, Type (0, 1), BuildingBlock: KIFKEQ_clean_linker_1, # of connection points: 2
#     Edge 100, Type (0, 1), BuildingBlock: KIFKEQ_clean_linker_1, # of connection points: 2
#     Edge 101, Type (0, 1), BuildingBlock: KIFKEQ_clean_linker_1, # of connection points: 2
#     Edge 102, Type (0, 1), BuildingBlock: KIFKEQ_clean_linker_1, # of connection points: 2
#     Edge 103, Type (0, 1), BuildingBlock: KIFKEQ_clean_linker_1, # of connection points: 2
#     Edge 104, Type (0, 1), BuildingBlock: KIFKEQ_clean_linker_1, # of connection points: 2
#     Edge 105, Type (0, 1), BuildingBlock: KIFKEQ_clean_linker_1, # of connection points: 2
#     Edge 106, Type (0, 1), BuildingBlock: KIFKEQ_clean_linker_1, # of connection points: 2
#     Edge 107, Type (0, 1), BuildingBlock: KIFKEQ_clean_linker_1, # of connection points: 2
#     Edge 108, Type (0, 1), BuildingBlock: KIFKEQ_clean_linker_1, # of connection points: 2
#     Edge 109, Type (0, 1), BuildingBlock: KIFKEQ_clean_linker_1, # of connection points: 2
#     Edge 110, Type (0, 1), BuildingBlock: KIFKEQ_clean_linker_1, # of connection points: 2
#     Edge 111, Type (0, 1), BuildingBlock: KIFKEQ_clean_linker_1, # of connection points: 2
#     Edge 112, Type (0, 1), BuildingBlock: KIFKEQ_clean_linker_1, # of connection points: 2
#     Edge 113, Type (0, 1), BuildingBlock: KIFKEQ_clean_linker_1, # of connection points: 2
#     Edge 114, Type (0, 1), BuildingBlock: KIFKEQ_clean_linker_1, # of connection points: 2
#     Edge 115, Type (0, 1), BuildingBlock: KIFKEQ_clean_linker_1, # of connection points: 2
#     Edge 116, Type (0, 1), BuildingBlock: KIFKEQ_clean_linker_1, # of connection points: 2
#     Edge 117, Type (0, 1), BuildingBlock: KIFKEQ_clean_linker_1, # of connection points: 2
#     Edge 118, Type (0, 1), BuildingBlock: KIFKEQ_clean_linker_1, # of connection points: 2
#     Edge 119, Type (0, 1), BuildingBlock: KIFKEQ_clean_linker_1, # of connection points: 2
#     Edge 120, Type (0, 1), BuildingBlock: KIFKEQ_clean_linker_1, # of connection points: 2
#     Edge 121, Type (0, 1), BuildingBlock: KIFKEQ_clean_linker_1, # of connection points: 2
#     Edge 122, Type (0, 1), BuildingBlock: KIFKEQ_clean_linker_1, # of connection points: 2
#     Edge 123, Type (0, 1), BuildingBlock: KIFKEQ_clean_linker_1, # of connection points: 2
#     Edge 124, Type (0, 1), BuildingBlock: KIFKEQ_clean_linker_1, # of connection points: 2
#     Edge 125, Type (0, 1), BuildingBlock: KIFKEQ_clean_linker_1, # of connection points: 2
#     Edge 126, Type (0, 1), BuildingBlock: KIFKEQ_clean_linker_1, # of connection points: 2
#     Edge 127, Type (0, 1), BuildingBlock: KIFKEQ_clean_linker_1, # of connection points: 2
#     Edge 128, Type (0, 1), BuildingBlock: KIFKEQ_clean_linker_1, # of connection points: 2
#     Edge 129, Type (0, 1), BuildingBlock: KIFKEQ_clean_linker_1, # of connection points: 2
#     Edge 130, Type (0, 1), BuildingBlock: KIFKEQ_clean_linker_1, # of connection points: 2
#     Edge 131, Type (0, 1), BuildingBlock: KIFKEQ_clean_linker_1, # of connection points: 2
#     Edge 132, Type (0, 1), BuildingBlock: KIFKEQ_clean_linker_1, # of connection points: 2
#     Edge 133, Type (0, 1), BuildingBlock: KIFKEQ_clean_linker_1, # of connection points: 2
#     Edge 134, Type (0, 1), BuildingBlock: KIFKEQ_clean_linker_1, # of connection points: 2
#     Edge 135, Type (0, 1), BuildingBlock: KIFKEQ_clean_linker_1, # of connection points: 2
# Relax obj value: 0.151
# Max RMSD: 0.269
# Mean RMSD: 0.169
data_MOF--net-gar--node1-TATPOV_clean_sbu_0--node2-BETDEL_clean_sbu_0--edge1-KIFKEQ_clean_linker_1
_symmetry_space_group_name_H-M    P1
_symmetry_Int_Tables_number       1
_symmetry_cell_setting            triclinic
loop_
_symmetry_equiv_pos_as_xyz
'x, y, z'
_cell_length_a     56.427855
_cell_length_b     54.000487
_cell_length_c     56.244691
_cell_angle_alpha  95.63715
_cell_angle_beta   92.667305
_cell_angle_gamma 102.18289
loop_
_atom_site_label
_atom_site_type_symbol
_atom_site_fract_x
_atom_site_fract_y
_atom_site_fract_z
_atom_type_partial_charge
Zn0 Zn 0.99486 0.26678 0.43449 0.0
Zn1 Zn 0.02795 0.26633 0.40369 0.0
O2 O 0.03909 0.3025 0.42217 0.0
O3 O 0.01224 0.30115 0.44951 0.0
O4 O 0.05454 0.26354 0.38091 0.0
O5 O -0.00024 0.23632 0.44884 0.0
O6 O 0.02808 0.23513 0.42347 0.0
C7 C 0.03069 0.31302 0.44026 0.0
C8 C 0.97488 0.26403 0.38669 0.0
O9 O 0.99689 0.26498 0.38178 0.0
O10 O 0.96908 0.26372 0.40813 0.0
C11 C 0.05595 0.27267 0.36087 0.0
O12 O 0.03947 0.28494 0.35408 0.0
C13 C 0.01606 0.22586 0.44048 0.0
Zn14 Zn 0.98154 0.72164 0.65304 0.0
Zn15 Zn 0.99142 0.76063 0.62875 0.0
O16 O 0.96506 0.76856 0.65177 0.0
O17 O 0.96096 0.73761 0.67496 0.0
O18 O 0.99737 0.79101 0.60932 0.0
O19 O 0.01692 0.72515 0.66177 0.0
O20 O 0.0256 0.76057 0.64459 0.0
C21 C 0.95574 0.75809 0.66957 0.0
C22 C 0.97114 0.70607 0.60389 0.0
O23 O 0.98092 0.7295 0.60306 0.0
O24 O 0.96703 0.69787 0.62394 0.0
C25 C 0.98613 0.7908 0.5891 0.0
O26 O 0.96999 0.77029 0.5803 0.0
C27 C 0.03246 0.74389 0.65626 0.0
Zn28 Zn 0.50198 0.76609 0.93729 0.0
Zn29 Zn 0.53367 0.76732 0.90381 0.0
O30 O 0.54436 0.80319 0.92298 0.0
O31 O 0.5197 0.80052 0.95237 0.0
O32 O 0.55958 0.76559 0.88005 0.0
O33 O 0.50897 0.73516 0.94994 0.0
O34 O 0.53455 0.7351 0.9216 0.0
C35 C 0.53697 0.81307 0.94203 0.0
C36 C 0.48038 0.76496 0.88946 0.0
O37 O 0.5021 0.76626 0.88349 0.0
O38 O 0.47551 0.76369 0.91113 0.0
C39 C 0.55951 0.77322 0.85934 0.0
O40 O 0.54178 0.78369 0.85224 0.0
C41 C 0.52433 0.72508 0.93922 0.0
Zn42 Zn 0.47649 0.21813 0.15099 0.0
Zn43 Zn 0.4864 0.25711 0.12669 0.0
O44 O 0.46037 0.26521 0.15006 0.0
O45 O 0.45623 0.23423 0.17321 0.0
O46 O 0.49195 0.28745 0.10715 0.0
O47 O 0.512 0.22163 0.15925 0.0
O48 O 0.52071 0.25715 0.14221 0.0
C49 C 0.45116 0.25482 0.16795 0.0
C50 C 0.46616 0.20234 0.10202 0.0
O51 O 0.47598 0.22576 0.10124 0.0
O52 O 0.46176 0.19419 0.12204 0.0
C53 C 0.48202 0.28675 0.0862 0.0
O54 O 0.46752 0.26554 0.07636 0.0
C55 C 0.52757 0.24032 0.15369 0.0
Zn56 Zn 0.07173 0.796 0.11201 0.0
Zn57 Zn 0.03298 0.7894 0.13616 0.0
O58 O 0.02888 0.81641 0.11287 0.0
O59 O 0.06128 0.82036 0.09209 0.0
O60 O 0.00213 0.787 0.15422 0.0
O61 O 0.06489 0.75885 0.10054 0.0
O62 O 0.03107 0.75286 0.11924 0.0
C63 C 0.04142 0.82646 0.09658 0.0
C64 C 0.08454 0.80822 0.16134 0.0
O65 O 0.0617 0.80022 0.16257 0.0
O66 O 0.09344 0.80939 0.14118 0.0
C67 C 0.00096 0.78572 0.17665 0.0
O68 O 0.02065 0.78487 0.18966 0.0
C69 C 0.04585 0.74408 0.10597 0.0
Zn70 Zn 0.45531 0.74593 0.39213 0.0
Zn71 Zn 0.49123 0.75182 0.36431 0.0
O72 O 0.49406 0.78913 0.3795 0.0
O73 O 0.46153 0.78368 0.40021 0.0
O74 O 0.51939 0.75177 0.34308 0.0
O75 O 0.46981 0.72533 0.41375 0.0
O76 O 0.49831 0.72675 0.38824 0.0
C77 C 0.47971 0.79833 0.39301 0.0
C78 C 0.43823 0.73135 0.3438 0.0
O79 O 0.46057 0.74014 0.34072 0.0
O80 O 0.43137 0.72965 0.36479 0.0
C81 C 0.53338 0.77101 0.33613 0.0
O82 O 0.52965 0.7939 0.34231 0.0
C83 C 0.48897 0.71897 0.40712 0.0
Zn84 Zn 0.57579 0.30381 0.61998 0.0
Zn85 Zn 0.53383 0.29491 0.63972 0.0
O86 O 0.53203 0.32207 0.61632 0.0
O87 O 0.56668 0.32834 0.59912 0.0
O88 O 0.50204 0.29386 0.65548 0.0
O89 O 0.56908 0.26635 0.60823 0.0
O90 O 0.53279 0.25901 0.62242 0.0
C91 C 0.5459 0.33312 0.60147 0.0
C92 C 0.58263 0.31343 0.67013 0.0
O93 O 0.5598 0.30412 0.66843 0.0
O94 O 0.594 0.31692 0.65148 0.0
C95 C 0.49518 0.28227 0.67343 0.0
O96 O 0.50881 0.26814 0.68258 0.0
C97 C 0.54927 0.25107 0.61098 0.0
Zn98 Zn 0.94446 0.23597 0.88469 0.0
Zn99 Zn 0.9839 0.24508 0.86091 0.0
O100 O 0.98453 0.28083 0.87816 0.0
O101 O 0.95072 0.27321 0.89683 0.0
O102 O 0.01469 0.24886 0.84318 0.0
O103 O 0.95626 0.21152 0.90388 0.0
O104 O 0.98899 0.21815 0.88361 0.0
C105 C 0.96939 0.28871 0.89156 0.0
C106 C 0.93317 0.22584 0.83459 0.0
O107 O 0.95597 0.23461 0.83405 0.0
O108 O 0.92384 0.22317 0.85445 0.0
C109 C 0.01917 0.26181 0.82558 0.0
O110 O 0.00317 0.2743 0.81808 0.0
C111 C 0.97678 0.20697 0.89952 0.0
Zn112 Zn 0.43959 0.02476 0.28049 0.0
Zn113 Zn 0.4055 0.05183 0.27647 0.0
O114 O 0.42702 0.07149 0.30616 0.0
O115 O 0.45693 0.05099 0.3065 0.0
O116 O 0.37915 0.0712 0.27097 0.0
O117 O 0.44874 0.02889 0.24712 0.0
O118 O 0.42175 0.05272 0.2442 0.0
C119 C 0.44753 0.06898 0.31495 0.0
C120 C 0.39205 -0.00396 0.28728 0.0
O121 O 0.38605 0.0166 0.28261 0.0
O122 O 0.41418 0.99462 0.28795 0.0
C123 C 0.36877 0.08149 0.28764 0.0
O124 O 0.37563 0.0802 0.31005 0.0
C125 C 0.43833 0.04272 0.23522 0.0
Zn126 Zn 0.22721 0.17615 0.48076 0.0
Zn127 Zn 0.26364 0.15387 0.48502 0.0
O128 O 0.27104 0.17609 0.45633 0.0
O129 O 0.2438 0.19988 0.45842 0.0
O130 O 0.29176 0.13537 0.48776 0.0
O131 O 0.22977 0.18652 0.51623 0.0
O132 O 0.26432 0.17382 0.51902 0.0
C133 C 0.26216 0.19416 0.44907 0.0
C134 C 0.21153 0.12276 0.47105 0.0
O135 O 0.23336 0.12386 0.47887 0.0
O136 O 0.20457 0.14303 0.46778 0.0
C137 C 0.30561 0.13218 0.47099 0.0
O138 O 0.30229 0.14155 0.45071 0.0
C139 C 0.24832 0.18434 0.52869 0.0
Zn140 Zn 0.11532 0.03209 0.78435 0.0
Zn141 Zn 0.15016 0.00692 0.77986 0.0
O142 O 0.13153 0.99434 0.80966 0.0
O143 O 0.10195 0.01527 0.81191 0.0
O144 O 0.17521 0.98454 0.77622 0.0
O145 O 0.10078 0.01927 0.7514 0.0
O146 O 0.13124 0.00013 0.74625 0.0
C147 C 0.11294 -0.00068 0.81968 0.0
C148 C 0.16269 0.06528 0.78835 0.0
O149 O 0.16987 0.04438 0.78486 0.0
O150 O 0.14027 0.06493 0.78949 0.0
C151 C 0.16715 0.96092 0.76948 0.0
O152 O 0.14354 0.95247 0.76555 0.0
C153 C 0.11205 0.00623 0.738 0.0
Zn154 Zn 0.29155 0.87569 -0.00381 0.0
Zn155 Zn 0.25482 0.8975 0.98648 0.0
O156 O 0.25079 0.86998 0.95764 0.0
O157 O 0.28369 0.85506 0.96428 0.0
O158 O 0.22719 0.91555 0.98297 0.0
O159 O 0.27614 0.86113 0.02406 0.0
O160 O 0.24781 0.88299 0.01872 0.0
C161 C 0.2647 0.85504 0.95137 0.0
C162 C 0.30767 0.9281 -0.00754 0.0
O163 O 0.28544 0.92591 0.98568 0.0
O164 O 0.31503 0.9095 -0.00012 0.0
C165 C 0.22911 0.93755 0.97598 0.0
O166 O 0.2498 0.94902 0.96835 0.0
C167 C 0.25723 0.86814 0.03054 0.0
Zn168 Zn 0.27896 0.34962 0.02373 0.0
Zn169 Zn 0.25223 0.38251 0.02172 0.0
O170 O 0.24902 0.36317 0.98668 0.0
O171 O 0.27205 0.33533 0.98968 0.0
O172 O 0.22797 0.40625 0.02096 0.0
O173 O 0.26238 0.33125 0.04926 0.0
O174 O 0.24219 0.362 0.05151 0.0
C175 C 0.25851 0.34545 0.97696 0.0
C176 C 0.30714 0.40115 0.0309 0.0
O177 O 0.2865 0.40676 0.02706 0.0
O178 O 0.30835 0.37809 0.03167 0.0
C179 C 0.20894 0.40105 0.00665 0.0
O180 O 0.20486 0.38006 -0.00824 0.0
C181 C 0.24724 0.34213 0.05944 0.0
Zn182 Zn 0.74596 0.17015 0.01902 0.0
Zn183 Zn 0.77974 0.14575 0.01357 0.0
O184 O 0.77641 0.15879 0.98078 0.0
O185 O 0.74209 0.17165 0.98374 0.0
O186 O 0.80553 0.12545 0.01009 0.0
O187 O 0.76794 0.19919 0.03893 0.0
O188 O 0.79361 0.1739 0.04136 0.0
C189 C 0.75924 0.16735 0.97137 0.0
C190 C 0.73098 0.12034 0.03056 0.0
O191 O 0.75035 0.1184 0.02055 0.0
O192 O 0.72559 0.14185 0.03457 0.0
C193 C 0.80275 0.10703 -0.00643 0.0
O194 O 0.78337 0.10227 0.97856 0.0
C195 C 0.78742 0.19482 0.04782 0.0
Zn196 Zn 0.0854 0.53036 0.21058 0.0
Zn197 Zn 0.11636 0.5006 0.21665 0.0
O198 O 0.09915 0.50048 0.24825 0.0
O199 O 0.07621 0.52828 0.24427 0.0
O200 O 0.13995 0.47819 0.22147 0.0
O201 O 0.06677 0.50487 0.18448 0.0
O202 O 0.09563 0.48308 0.18595 0.0
C203 C 0.08429 0.51324 0.25677 0.0
C204 C 0.13463 0.5558 0.2066 0.0
O205 O 0.13873 0.53486 0.21255 0.0
O206 O 0.11298 0.55843 0.20334 0.0
C207 C 0.1564 0.48405 0.23853 0.0
O208 O 0.15767 0.50492 0.25312 0.0
C209 C 0.07583 0.48652 0.1764 0.0
Zn210 Zn 0.78843 0.86032 0.52668 0.0
Zn211 Zn 0.75764 0.88899 0.52216 0.0
O212 O 0.7545 0.86855 0.488 0.0
O213 O 0.78345 0.84732 0.492 0.0
O214 O 0.73185 0.91064 0.52128 0.0
O215 O 0.77098 0.83983 0.55048 0.0
O216 O 0.74818 0.86829 0.55172 0.0
C217 C 0.76721 0.85345 0.47896 0.0
C218 C 0.81181 0.91266 0.53399 0.0
O219 O 0.79072 0.91529 0.52696 0.0
O220 O 0.81528 0.89085 0.53741 0.0
C221 C 0.7278 0.9234 0.50421 0.0
O222 O 0.74088 0.92304 0.4855 0.0
C223 C 0.75431 0.849 0.55976 0.0
Zn224 Zn 0.91501 -0.00066 0.22471 0.0
Zn225 Zn 0.89218 0.03517 0.22873 0.0
O226 O 0.91028 0.03697 0.26278 0.0
O227 O 0.93088 0.00672 0.25739 0.0
O228 O 0.87545 0.06581 0.23167 0.0
O229 O 0.93347 0.01026 0.19785 0.0
O230 O 0.91343 0.04105 0.19834 0.0
C231 C 0.92497 0.02419 0.27087 0.0
C232 C 0.86466 0.97913 0.21902 0.0
O233 O 0.86403 0.00261 0.22365 0.0
O234 O 0.88478 0.97251 0.21775 0.0
C235 C 0.85257 0.06401 0.2323 0.0
O236 O 0.83822 0.04129 0.23105 0.0
C237 C 0.92867 0.02922 0.18875 0.0
Zn238 Zn 0.24986 0.67873 0.52175 0.0
Zn239 Zn 0.28023 0.65035 0.5181 0.0
O240 O 0.2774 0.66094 0.48404 0.0
O241 O 0.24539 0.67803 0.48646 0.0
O242 O 0.30465 0.62816 0.51618 0.0
O243 O 0.27334 0.70756 0.54027 0.0
O244 O 0.29588 0.67948 0.54439 0.0
C245 C 0.26125 0.67061 0.47413 0.0
C246 C 0.23052 0.63106 0.53658 0.0
O247 O 0.24941 0.62619 0.52726 0.0
O248 O 0.22735 0.65364 0.53869 0.0
C249 C 0.30102 0.60777 0.50188 0.0
O250 O 0.28092 0.6012 0.48785 0.0
C251 C 0.29176 0.7016 0.54983 0.0
Zn252 Zn 0.42389 0.50881 0.71957 0.0
Zn253 Zn 0.39454 0.53877 0.72563 0.0
O254 O 0.41072 0.5378 0.76003 0.0
O255 O 0.43687 0.51335 0.75325 0.0
O256 O 0.37605 0.56767 0.73069 0.0
O257 O 0.44364 0.52667 0.69596 0.0
O258 O 0.41625 0.55029 0.69715 0.0
C259 C 0.42705 0.52676 0.76776 0.0
C260 C 0.37354 0.4827 0.71024 0.0
O261 O 0.36932 0.50469 0.71643 0.0
O262 O 0.39526 0.48005 0.70924 0.0
C263 C 0.35313 0.5658 0.7304 0.0
O264 O 0.33864 0.5431 0.7267 0.0
C265 C 0.43504 0.54433 0.68827 0.0
Zn266 Zn 0.58611 0.03212 0.71373 0.0
Zn267 Zn 0.61755 0.00286 0.71804 0.0
O268 O 0.60146 0.00257 0.75031 0.0
O269 O 0.57842 0.03054 0.74782 0.0
O270 O 0.64128 0.98024 0.72181 0.0
O271 O 0.56635 0.00657 0.68838 0.0
O272 O 0.59572 0.98543 0.68796 0.0
C273 C 0.587 0.01535 0.75969 0.0
C274 C 0.63467 0.05808 0.7074 0.0
O275 O 0.63946 0.03734 0.71318 0.0
O276 O 0.61281 0.06032 0.70516 0.0
C277 C 0.65786 0.98541 0.73876 0.0
O278 O 0.65948 0.00593 0.7539 0.0
C279 C 0.57538 0.98856 0.67937 0.0
Zn280 Zn 0.72937 0.68243 0.98751 0.0
Zn281 Zn 0.76122 0.65535 0.98568 0.0
O282 O 0.76688 0.67621 0.95548 0.0
O283 O 0.73705 0.69663 0.9571 0.0
O284 O 0.78696 0.63351 0.98568 0.0
O285 O 0.74227 0.70233 0.01847 0.0
O286 O 0.7671 0.6761 0.02007 0.0
C287 C 0.75488 0.69119 0.94659 0.0
C288 C 0.70678 0.63029 0.98505 0.0
O289 O 0.72862 0.62784 0.98277 0.0
O290 O 0.70224 0.65229 0.98789 0.0
C291 C 0.80624 0.63722 0.97439 0.0
O292 O 0.81063 0.65649 0.9615 0.0
C293 C 0.75827 0.69421 0.02997 0.0
Zn294 Zn 0.93997 0.52399 0.78281 0.0
Zn295 Zn 0.90764 0.55182 0.77668 0.0
O296 O 0.92854 0.57114 0.80696 0.0
O297 O 0.95835 0.55062 0.80799 0.0
O298 O 0.88224 0.57209 0.76998 0.0
O299 O 0.9491 0.5248 0.74916 0.0
O300 O 0.92472 0.55111 0.74474 0.0
C301 C 0.94885 0.56861 0.81622 0.0
C302 C 0.89203 0.4969 0.78932 0.0
O303 O 0.88676 0.51723 0.78301 0.0
O304 O 0.91403 0.49515 0.79152 0.0
C305 C 0.87129 0.58221 0.78626 0.0
O306 O 0.87704 0.58027 0.8088 0.0
C307 C 0.94015 0.53897 0.73635 0.0
Zn308 Zn 0.77945 0.35924 0.4782 0.0
Zn309 Zn 0.74944 0.38917 0.4803 0.0
O310 O 0.73548 0.3621 0.45159 0.0
O311 O 0.75691 0.333 0.45591 0.0
O312 O 0.72505 0.4116 0.48357 0.0
O313 O 0.78012 0.35635 0.51303 0.0
O314 O 0.75003 0.37641 0.51374 0.0
C315 C 0.73978 0.34022 0.44524 0.0
C316 C 0.80108 0.40846 0.46649 0.0
O317 O 0.78127 0.41338 0.47354 0.0
O318 O 0.80423 0.38587 0.46526 0.0
C319 C 0.7263 0.43216 0.47396 0.0
O320 O 0.74402 0.43943 0.46014 0.0
C321 C 0.76406 0.36468 0.52431 0.0
Zn322 Zn 0.61693 0.5351 0.28561 0.0
Zn323 Zn 0.6446 0.50227 0.27802 0.0
O324 O 0.62394 0.49103 0.30703 0.0
O325 O 0.59794 0.5163 0.3093 0.0
O326 O 0.66375 0.47411 0.27259 0.0
O327 O 0.6037 0.52938 0.25167 0.0
O328 O 0.62564 0.50048 0.24498 0.0
C329 C 0.6057 0.49779 0.3163 0.0
C330 C 0.66725 0.55906 0.29218 0.0
O331 O 0.66985 0.53677 0.28459 0.0
O332 O 0.64631 0.56298 0.29581 0.0
C333 C 0.68616 0.47699 0.26856 0.0
O334 O 0.69922 0.50009 0.26785 0.0
C335 C 0.61039 0.5129 0.23753 0.0
Dy336 Dy 0.9861 0.01218 0.9897 0.0
C337 C 0.08994 0.02278 0.00596 0.0
C338 C 0.9383 0.0145 0.98545 0.0
Dy339 Dy 0.04194 0.02465 0.00397 0.0
O340 O 0.95305 0.01723 0.9684 0.0
O341 O 0.94953 0.00981 0.00461 0.0
O342 O 0.99067 0.98506 0.95796 0.0
O343 O 0.01916 0.01594 0.97079 0.0
C344 C 0.01351 -0.00441 0.95678 0.0
C345 C 0.01399 0.03938 0.03769 0.0
O346 O 0.03934 0.05958 0.98691 0.0
O347 O 0.99771 0.05468 0.99022 0.0
O348 O 0.0749 0.01527 0.02192 0.0
O349 O 0.07893 0.03224 0.98944 0.0
O350 O 0.03662 0.05083 0.03646 0.0
O351 O 0.00905 0.01976 0.0228 0.0
O352 O 0.98832 0.97746 0.00716 0.0
O353 O 0.02998 0.98199 0.00362 0.0
C354 C 0.01918 0.06836 0.98589 0.0
C355 C 0.00842 0.96852 0.00825 0.0
Dy356 Dy 0.26404 0.78179 0.22727 0.0
C357 C 0.26328 0.74446 0.31938 0.0
C358 C 0.25558 0.80045 0.18538 0.0
Dy359 Dy 0.26131 0.76797 0.27906 0.0
O360 O 0.26962 0.78465 0.18841 0.0
O361 O 0.24638 0.80637 0.20531 0.0
O362 O 0.29694 0.76463 0.22222 0.0
O363 O 0.29033 0.78044 0.25613 0.0
C364 C 0.30341 0.76776 0.24498 0.0
C365 C 0.22251 0.78263 0.26108 0.0
O366 O 0.27924 0.80919 0.28748 0.0
O367 O 0.27388 0.82027 0.24882 0.0
O368 O 0.24408 0.74217 0.3051 0.0
O369 O 0.28142 0.76034 0.31214 0.0
O370 O 0.2297 0.78705 0.2837 0.0
O371 O 0.23501 0.76909 0.25009 0.0
O372 O 0.24352 0.74158 0.22095 0.0
O373 O 0.25835 0.73046 0.25645 0.0
C374 C 0.28033 0.82644 0.27203 0.0
C375 C 0.24747 0.7241 0.23463 0.0
Dy376 Dy 0.5444 0.02911 0.49539 0.0
C377 C 0.44314 0.03964 0.48883 0.0
C378 C 0.58692 0.01309 0.50303 0.0
Dy379 Dy 0.48748 0.02662 0.49353 0.0
O380 O 0.58503 0.03318 0.4926 0.0
O381 O 0.5658 0.00233 0.50954 0.0
O382 O 0.54925 0.05919 0.46958 0.0
O383 O 0.51637 0.03235 0.46924 0.0
C384 C 0.52666 0.05239 0.46107 0.0
C385 C 0.50529 0.00258 0.52705 0.0
O386 O 0.48681 0.99152 0.46858 0.0
O387 O 0.52795 0.99088 0.47495 0.0
O388 O 0.45442 0.03759 0.50898 0.0
O389 O 0.45576 0.03379 0.47122 0.0
O390 O 0.48293 0.99548 0.51791 0.0
O391 O 0.51553 0.02322 0.51977 0.0
O392 O 0.54333 0.06197 0.52247 0.0
O393 O 0.50543 0.06696 0.50805 0.0
C394 C 0.50557 0.98044 0.4656 0.0
C395 C 0.52617 0.07542 0.52141 0.0
Dy396 Dy 0.23031 0.27881 0.74761 0.0
C397 C 0.33584 0.29619 0.74253 0.0
C398 C 0.18216 0.27315 0.7557 0.0
Dy399 Dy 0.28818 0.28218 0.7521 0.0
O400 O 0.19759 0.29477 0.75607 0.0
O401 O 0.19293 0.25445 0.75043 0.0
O402 O 0.23682 0.31007 0.72343 0.0
O403 O 0.26367 0.30823 0.74994 0.0
C404 C 0.25893 0.3196 0.73238 0.0
C405 C 0.26321 0.2362 0.7612 0.0
O406 O 0.28302 0.30122 0.78835 0.0
O407 O 0.24058 0.28827 0.78701 0.0
O408 O 0.32823 0.28684 0.76201 0.0
O409 O 0.31744 0.29878 0.72893 0.0
O410 O 0.28684 0.24245 0.76254 0.0
O411 O 0.2553 0.25496 0.75527 0.0
O412 O 0.2341 0.25661 0.7129 0.0
O413 O 0.27661 0.26766 0.71341 0.0
C414 C 0.26195 0.29877 0.79867 0.0
C415 C 0.25487 0.25699 0.70257 0.0
Dy416 Dy 0.00647 0.99513 0.47646 0.0
C417 C 0.05776 0.01873 0.56871 0.0
C418 C 0.97783 0.99212 0.43521 0.0
Dy419 Dy 0.02969 0.0129 0.52681 0.0
O420 O 0.99555 0.9804 0.4377 0.0
O421 O 0.97517 0.00446 0.45552 0.0
O422 O 0.0418 0.98721 0.46381 0.0
O423 O 0.0424 0.01614 0.49128 0.0
C424 C 0.05542 0.00358 0.47994 0.0
C425 C 0.98092 0.00571 0.52314 0.0
O426 O 0.03637 0.05075 0.51218 0.0
O427 O 0.00636 0.03697 0.48143 0.0
O428 O 0.03971 0.02967 0.56506 0.0
O429 O 0.06095 0.00523 0.54921 0.0
O430 O 0.99484 0.02215 0.53897 0.0
O431 O 0.9935 0.9923 0.51208 0.0
O432 O 2e-05 0.95718 0.49108 0.0
O433 O 0.02943 0.97095 0.52246 0.0
C434 C 0.02156 0.05557 0.49507 0.0
C435 C 0.01429 0.95236 0.50872 0.0
Dy436 Dy 0.30089 0.78933 0.75922 0.0
C437 C 0.20644 0.74919 0.71074 0.0
C438 C 0.34252 0.80066 0.78855 0.0
Dy439 Dy 0.24994 0.76244 0.73716 0.0
O440 O 0.34145 0.80286 0.76576 0.0
O441 O 0.32076 0.79324 0.79542 0.0
O442 O 0.31121 0.8022 0.72376 0.0
O443 O 0.28663 0.7673 0.72525 0.0
C444 C 0.2968 0.78268 0.71145 0.0
C445 C 0.25447 0.77051 0.7851 0.0
O446 O 0.26722 0.72859 0.73432 0.0
O447 O 0.29964 0.74729 0.76163 0.0
O448 O 0.21133 0.74052 0.7307 0.0
O449 O 0.22572 0.76437 0.7046 0.0
O450 O 0.23909 0.75135 0.77352 0.0
O451 O 0.2644 0.78484 0.77056 0.0
O452 O 0.28416 0.82375 0.76044 0.0
O453 O 0.251 0.80413 0.73413 0.0
C454 C 0.28629 0.72691 0.74835 0.0
C455 C 0.26464 0.82483 0.74668 0.0
Dy456 Dy 0.50909 0.02845 0.02575 0.0
C457 C 0.54024 0.01861 0.92905 0.0
C458 C 0.49165 0.03935 0.06896 0.0
Dy459 Dy 0.52272 0.02652 0.97271 0.0
O460 O 0.51249 0.05065 0.06216 0.0
O461 O 0.48053 0.02183 0.05233 0.0
O462 O 0.51891 0.99101 0.03045 0.0
O463 O 0.50753 -0.00154 -0.00373 0.0
C464 C 0.51701 0.98357 0.00765 0.0
C465 C 0.5155 0.07149 -0.00777 0.0
O466 O 0.48217 0.01567 0.96736 0.0
O467 O 0.47568 0.03306 0.00532 0.0
O468 O 0.54833 0.03828 0.94467 0.0
O469 O 0.52229 0.00317 0.93714 0.0
O470 O 0.51105 0.06371 0.96956 0.0
O471 O 0.52519 0.05598 0.00233 0.0
O472 O 0.54923 0.04036 0.03118 0.0
O473 O 0.55707 0.02369 -0.00665 0.0
C474 C 0.46778 0.02358 0.98307 0.0
C475 C 0.56422 0.03315 0.01584 0.0
Dy476 Dy 0.25776 0.30313 0.26311 0.0
C477 C 0.25668 0.19598 0.25142 0.0
C478 C 0.25287 0.35211 0.26116 0.0
Dy479 Dy 0.24956 0.24461 0.25181 0.0
O480 O 0.25442 0.34151 0.28077 0.0
O481 O 0.25452 0.33613 0.24288 0.0
O482 O 0.28133 0.30215 0.2964 0.0
O483 O 0.25289 0.27101 0.28412 0.0
C484 C 0.27078 0.2788 0.29925 0.0
C485 C 0.23685 0.26917 0.21563 0.0
O486 O 0.21386 0.24591 0.26691 0.0
O487 O 0.21728 0.28943 0.26527 0.0
O488 O 0.2599 0.20971 0.23366 0.0
O489 O 0.24847 0.20844 0.26893 0.0
O490 O 0.22609 0.2459 0.21853 0.0
O491 O 0.25473 0.27671 0.2308 0.0
O492 O 0.29354 0.30162 0.24847 0.0
O493 O 0.29023 0.2588 0.25306 0.0
C494 C 0.2046 0.26661 0.26908 0.0
C495 C 0.30299 0.28114 0.24821 0.0
Dy496 Dy 0.50058 0.49005 0.97093 0.0
C497 C 0.54945 0.51698 0.06757 0.0
C498 C 0.46931 0.48502 0.93159 0.0
Dy499 Dy 0.52243 0.5108 0.02511 0.0
O500 O 0.48622 0.47204 0.93386 0.0
O501 O 0.46882 0.49959 0.95131 0.0
O502 O 0.53751 0.49415 0.95455 0.0
O503 O 0.53468 0.50401 0.99031 0.0
C504 C 0.54976 0.50357 0.97479 0.0
C505 C 0.47381 0.50368 0.01656 0.0
O506 O 0.53257 0.54622 0.00709 0.0
O507 O 0.50429 0.53265 0.97433 0.0
O508 O 0.53315 0.52987 0.06264 0.0
O509 O 0.55129 0.5012 0.04917 0.0
O510 O 0.48618 0.51976 0.03377 0.0
O511 O 0.48778 0.49098 0.00696 0.0
O512 O 0.49698 0.45261 0.98647 0.0
O513 O 0.51894 0.46838 0.02337 0.0
C514 C 0.52033 0.55076 0.98784 0.0
C515 C 0.50758 0.44928 0.0073 0.0
Dy516 Dy 0.79454 0.28462 0.25644 0.0
C517 C 0.7015 0.24396 0.20681 0.0
C518 C 0.8365 0.29687 0.28532 0.0
Dy519 Dy 0.74462 0.2575 0.23389 0.0
O520 O 0.83513 0.29787 0.26236 0.0
O521 O 0.8148 0.29017 0.29263 0.0
O522 O 0.80498 0.29794 0.221 0.0
O523 O 0.78121 0.26264 0.22225 0.0
C524 C 0.79121 0.27812 0.20852 0.0
C525 C 0.74772 0.26419 0.28189 0.0
O526 O 0.76261 0.22402 0.23114 0.0
O527 O 0.79391 0.24294 0.25947 0.0
O528 O 0.70625 0.23508 0.2267 0.0
O529 O 0.72077 0.25947 0.20107 0.0
O530 O 0.73385 0.2446 0.26934 0.0
O531 O 0.75779 0.2795 0.26807 0.0
O532 O 0.77824 0.31906 0.25759 0.0
O533 O 0.7444 0.29931 0.23229 0.0
C534 C 0.78138 0.22254 0.2457 0.0
C535 C 0.75829 0.32007 0.24457 0.0
Dy536 Dy 0.00793 0.52746 0.52342 0.0
C537 C 0.03317 0.51785 0.42519 0.0
C538 C 0.9903 0.53318 0.5674 0.0
Dy539 Dy 0.01974 0.52764 0.47041 0.0
O540 O 0.98786 0.51172 0.55397 0.0
O541 O 0.00264 0.55165 0.55693 0.0
O542 O 0.02475 0.49388 0.52623 0.0
O543 O 0.00728 0.49816 0.49338 0.0
C544 C 0.02022 0.48541 0.5037 0.0
C545 C 0.01087 0.57141 0.49106 0.0
O546 O 0.98074 0.50775 0.46725 0.0
O547 O 0.97194 0.5256 0.50389 0.0
O548 O 0.01559 0.52887 0.43082 0.0
O549 O 0.04383 0.51241 0.44435 0.0
O550 O 0.00674 0.56434 0.46828 0.0
O551 O 0.02171 0.55646 0.50051 0.0
O552 O 0.04792 0.54209 0.52901 0.0
O553 O 0.05685 0.53338 0.48934 0.0
C554 C 0.96491 0.51392 0.48213 0.0
C555 C 0.06362 0.53992 0.51248 0.0
Dy556 Dy 0.73702 0.76733 0.25189 0.0
C557 C 0.84049 0.78502 0.24987 0.0
C558 C 0.68834 0.75726 0.25893 0.0
Dy559 Dy 0.79202 0.77372 0.2579 0.0
O560 O 0.69925 0.77401 0.24577 0.0
O561 O 0.70394 0.74534 0.26763 0.0
O562 O 0.74169 0.79889 0.22833 0.0
O563 O 0.76775 0.80008 0.25659 0.0
C564 C 0.76249 0.81089 0.2388 0.0
C565 C 0.76642 0.73024 0.27116 0.0
O566 O 0.78731 0.79513 0.29285 0.0
O567 O 0.74548 0.78018 0.29138 0.0
O568 O 0.83023 0.76758 0.26272 0.0
O569 O 0.8244 0.79687 0.24212 0.0
O570 O 0.78728 0.7422 0.2816 0.0
O571 O 0.76129 0.74097 0.25327 0.0
O572 O 0.7417 0.74598 0.21692 0.0
O573 O 0.78355 0.7608 0.21847 0.0
C574 C 0.76634 0.79216 0.30314 0.0
C575 C 0.76268 0.74898 0.20666 0.0
Dy576 Dy 0.76165 0.28615 0.72774 0.0
C577 C 0.76265 0.2461 0.81821 0.0
C578 C 0.75739 0.30955 0.6877 0.0
Dy579 Dy 0.76044 0.27058 0.77851 0.0
O580 O 0.73958 0.2943 0.69618 0.0
O581 O 0.77738 0.3115 0.70076 0.0
O582 O 0.79188 0.26582 0.71989 0.0
O583 O 0.78894 0.28233 0.75478 0.0
C584 C 0.80016 0.26865 0.74217 0.0
C585 C 0.72193 0.28788 0.76359 0.0
O586 O 0.77993 0.31104 0.78741 0.0
O587 O 0.76749 0.32336 0.75134 0.0
O588 O 0.74329 0.24449 0.80433 0.0
O589 O 0.78092 0.26171 0.81083 0.0
O590 O 0.73059 0.2916 0.78578 0.0
O591 O 0.73308 0.27388 0.75132 0.0
O592 O 0.74312 0.2455 0.71871 0.0
O593 O 0.75533 0.23336 0.75494 0.0
C594 C 0.77774 0.32894 0.77347 0.0
C595 C 0.74552 0.22768 0.73265 0.0
Dy596 Dy 0.75889 0.80254 0.76003 0.0
C597 C 0.75819 0.69525 0.7478 0.0
C598 C 0.75329 0.85133 0.75821 0.0
Dy599 Dy 0.75067 0.74364 0.74747 0.0
O600 O 0.75632 0.84117 0.77786 0.0
O601 O 0.75393 0.83505 0.73986 0.0
O602 O 0.7809 0.79991 0.79417 0.0
O603 O 0.75274 0.76964 0.7796 0.0
C604 C 0.76981 0.77636 0.79564 0.0
C605 C 0.73925 0.76925 0.71176 0.0
O606 O 0.71445 0.74474 0.76155 0.0
O607 O 0.71832 0.78858 0.76142 0.0
O608 O 0.76031 0.70825 0.72948 0.0
O609 O 0.75083 0.70828 0.7655 0.0
O610 O 0.72841 0.74573 0.71371 0.0
O611 O 0.75666 0.77648 0.72752 0.0
O612 O 0.79508 0.80147 0.74627 0.0
O613 O 0.79139 0.7582 0.74928 0.0
C614 C 0.70534 0.76554 0.7642 0.0
C615 C 0.8044 0.78087 0.74552 0.0
Dy616 Dy 0.48718 0.51571 0.49347 0.0
C617 C 0.59105 0.52369 0.50147 0.0
C618 C 0.43956 0.51885 0.49421 0.0
Dy619 Dy 0.54365 0.52759 0.50332 0.0
O620 O 0.45087 0.51568 0.47491 0.0
O621 O 0.45412 0.51966 0.51293 0.0
O622 O 0.49047 0.48865 0.46108 0.0
O623 O 0.51834 0.52082 0.47203 0.0
C624 C 0.51236 0.50082 0.45765 0.0
C625 C 0.51878 0.54264 0.53935 0.0
O626 O 0.54062 0.56345 0.48811 0.0
O627 O 0.49886 0.55793 0.49152 0.0
O628 O 0.5792 0.52336 0.52076 0.0
O629 O 0.57721 0.52699 0.48353 0.0
O630 O 0.5409 0.5543 0.53604 0.0
O631 O 0.51253 0.52268 0.5249 0.0
O632 O 0.49029 0.48077 0.51005 0.0
O633 O 0.53153 0.48511 0.5043 0.0
C634 C 0.52025 0.57196 0.4872 0.0
C635 C 0.51034 0.47172 0.50993 0.0
Dy636 Dy 0.03427 0.51793 -0.00248 0.0
C637 C 0.93406 0.53178 0.98816 0.0
C638 C 0.07814 0.50388 0.00279 0.0
Dy639 Dy 0.97736 0.51692 -0.00532 0.0
O640 O 0.0684 0.5089 0.98291 0.0
O641 O 0.06423 0.5074 0.02007 0.0
O642 O 0.04011 0.55037 0.9744 0.0
O643 O 0.00707 0.52326 0.97131 0.0
C644 C 0.01794 0.54399 0.96467 0.0
C645 C 0.99292 0.48976 0.02667 0.0
O646 O 0.97689 0.48222 0.96934 0.0
O647 O 0.01633 0.47854 0.98061 0.0
O648 O 0.943 0.52663 0.00836 0.0
O649 O 0.9484 0.52795 0.97142 0.0
O650 O 0.97034 0.48507 0.01818 0.0
O651 O 0.00437 0.51057 0.02058 0.0
O652 O 0.03454 0.55187 0.02366 0.0
O653 O 0.9954 0.55612 0.01211 0.0
C654 C 0.9947 0.46953 0.96894 0.0
C655 C 0.01686 0.56471 0.0242 0.0
H656 H 0.02368 0.20012 0.90456 0.0
H657 H 0.9509 0.1722 0.92527 0.0
H658 H 0.03853 0.17044 0.92877 0.0
H659 H 0.9653 0.14228 0.94837 0.0
H660 H 0.99415 0.1031 0.0027 0.0
H661 H 0.98782 0.14016 0.98396 0.0
H662 H 0.03725 0.12579 0.93036 0.0
H663 H 0.04459 0.0895 0.95018 0.0
C664 C 0.01088 0.18757 0.91415 0.0
C665 C 0.98617 0.18861 0.91315 0.0
C666 C 0.01935 0.17058 0.92799 0.0
C667 C 0.0032 0.15426 0.9409 0.0
C668 C 0.97846 0.15511 0.93939 0.0
C669 C 0.97011 0.17214 0.92588 0.0
C670 C 0.00413 0.10835 0.9873 0.0
C671 C 0.01965 0.09345 0.9777 0.0
C672 C 0.00036 0.12939 0.97639 0.0
C673 C 0.01144 0.1355 0.95519 0.0
C674 C 0.02842 0.12167 0.94664 0.0
C675 C 0.03263 0.10088 0.95796 0.0
H676 H 0.07874 0.78744 0.20393 0.0
H677 H 0.1295 0.83878 0.16653 0.0
H678 H 0.11194 0.78509 0.23293 0.0
H679 H 0.16232 0.83613 0.19518 0.0
H680 H 0.20607 0.77333 0.21442 0.0
H681 H 0.1712 0.7855 0.19545 0.0
H682 H 0.15435 0.81862 0.26385 0.0
H683 H 0.19016 0.80721 0.28301 0.0
C684 C 0.09669 0.79902 0.20249 0.0
C685 C 0.10167 0.81293 0.18277 0.0
C686 C 0.11563 0.79764 0.21902 0.0
C687 C 0.13956 0.81022 0.21595 0.0
C688 C 0.14398 0.82621 0.19776 0.0
C689 C 0.12519 0.82766 0.18139 0.0
C690 C 0.19517 0.78347 0.22543 0.0
C691 C 0.20102 0.7897 0.2501 0.0
C692 C 0.17519 0.79033 0.21459 0.0
C693 C 0.16034 0.80308 0.22826 0.0
C694 C 0.16568 0.80883 0.25305 0.0
C695 C 0.1861 0.80237 0.2639 0.0
H696 H 0.51731 0.83701 0.38344 0.0
H697 H 0.45073 0.82243 0.41981 0.0
H698 H 0.52332 0.88251 0.39735 0.0
H699 H 0.45697 0.86724 0.43389 0.0
H700 H 0.46332 0.95151 0.44254 0.0
H701 H 0.45722 0.90877 0.4213 0.0
H702 H 0.53328 0.90947 0.43547 0.0
H703 H 0.53955 0.95217 0.4561 0.0
C704 C 0.50398 0.84346 0.3943 0.0
C705 C 0.48364 0.82604 0.40059 0.0
C706 C 0.50742 0.86948 0.40232 0.0
C707 C 0.49054 0.87851 0.41665 0.0
C708 C 0.47008 0.86107 0.42253 0.0
C709 C 0.46667 0.83524 0.41461 0.0
C710 C 0.47878 0.94265 0.44092 0.0
C711 C 0.50184 0.95522 0.45127 0.0
C712 C 0.47528 0.91813 0.42881 0.0
C713 C 0.49475 0.90564 0.42683 0.0
C714 C 0.51796 0.91861 0.43641 0.0
C715 C 0.52147 0.94308 0.44846 0.0
H716 H 0.46842 0.31767 0.66529 0.0
H717 H 0.47095 0.25517 0.70702 0.0
H718 H 0.43186 0.32418 0.68388 0.0
H719 H 0.43368 0.26093 0.72495 0.0
H720 H 0.37612 0.28835 0.76724 0.0
H721 H 0.41568 0.28694 0.75179 0.0
H722 H 0.39038 0.30603 0.6836 0.0
H723 H 0.35151 0.30846 0.69942 0.0
C724 C 0.46104 0.30513 0.67829 0.0
C725 C 0.47258 0.28579 0.68456 0.0
C726 C 0.43995 0.30881 0.68893 0.0
C727 C 0.42959 0.29305 0.70594 0.0
C728 C 0.44125 0.27375 0.71226 0.0
C729 C 0.46254 0.27026 0.7018 0.0
C730 C 0.37928 0.29272 0.74912 0.0
C731 C 0.36076 0.29855 0.73456 0.0
C732 C 0.40184 0.29161 0.74012 0.0
C733 C 0.40631 0.29613 0.7163 0.0
C734 C 0.3879 0.30277 0.70209 0.0
C735 C 0.36549 0.30408 0.71114 0.0
H736 H 0.0137 0.83829 0.60425 0.0
H737 H 0.96943 0.7946 0.54338 0.0
H738 H 0.02089 0.87564 0.5825 0.0
H739 H 0.97728 0.83178 0.52123 0.0
H740 H 0.97438 0.91271 0.50104 0.0
H741 H 0.96796 0.87273 0.51923 0.0
H742 H 0.04181 0.89325 0.55059 0.0
H743 H 0.04781 0.93337 0.53317 0.0
C744 C 0.00568 0.83658 0.58613 0.0
C745 C 0.99098 0.81343 0.57561 0.0
C746 C 0.00995 0.85799 0.57353 0.0
C747 C -0.00019 0.85679 0.54996 0.0
C748 C 0.98517 0.83356 0.5394 0.0
C749 C 0.98077 0.81217 0.55209 0.0
C750 C 0.98934 0.9084 0.51146 0.0
C751 C 0.01152 0.92626 0.51582 0.0
C752 C 0.98569 0.88548 0.52193 0.0
C753 C 0.00424 0.87987 0.53678 0.0
C754 C 0.02687 0.89717 0.53987 0.0
C755 C 0.0304 0.92011 0.52967 0.0
H756 H 0.48569 0.78939 0.84906 0.0
H757 H 0.43164 0.74811 0.8909 0.0
H758 H 0.45364 0.80086 0.82457 0.0
H759 H 0.39959 0.75837 0.86584 0.0
H760 H 0.38667 0.79717 0.77264 0.0
H761 H 0.42071 0.78748 0.79556 0.0
H762 H 0.38254 0.79341 0.86011 0.0
H763 H 0.34811 0.8017 0.83684 0.0
C764 C 0.46691 0.78222 0.85261 0.0
C765 C 0.46114 0.76798 0.87196 0.0
C766 C 0.44851 0.78883 0.8386 0.0
C767 C 0.42396 0.78102 0.84348 0.0
C768 C 0.41827 0.76551 0.86203 0.0
C769 C 0.43663 0.7593 0.87622 0.0
C770 C 0.38581 0.79681 0.79181 0.0
C771 C 0.36478 0.80005 0.80301 0.0
C772 C 0.40532 0.79124 0.80497 0.0
C773 C 0.40426 0.78913 0.82967 0.0
C774 C 0.38373 0.79403 0.84102 0.0
C775 C 0.36411 0.79917 0.82778 0.0
H776 H 0.48143 0.2111 0.05731 0.0
H777 H 0.44834 0.15099 0.09851 0.0
H778 H 0.49008 0.17906 0.02696 0.0
H779 H 0.45741 0.11938 0.06842 0.0
H780 H 0.52457 0.08936 0.03906 0.0
H781 H 0.5062 0.12028 0.06188 0.0
H782 H 0.4682 0.13262 -0.00278 0.0
H783 H 0.48578 0.10041 0.97436 0.0
C784 C 0.47526 0.19111 0.05953 0.0
C785 C 0.46466 0.18364 0.0806 0.0
C786 C 0.48023 0.17283 0.04215 0.0
C787 C 0.47474 0.14694 0.0457 0.0
C788 C 0.46199 0.13933 0.06549 0.0
C789 C 0.4568 0.15748 0.08268 0.0
C790 C 0.51202 0.09833 0.02977 0.0
C791 C 0.50616 0.09212 0.00513 0.0
C792 C 0.5016 0.11607 0.04277 0.0
C793 C 0.48555 0.12842 0.03127 0.0
C794 C 0.48041 0.12311 0.00642 0.0
C795 C 0.49051 0.10485 -0.00658 0.0
H796 H 0.06457 0.29028 0.31736 0.0
H797 H 0.09314 0.24854 0.36947 0.0
H798 H 0.09827 0.28659 0.2926 0.0
H799 H 0.12707 0.24526 0.34492 0.0
H800 H 0.17566 0.22612 0.28708 0.0
H801 H 0.13827 0.22584 0.30733 0.0
H802 H 0.14156 0.30381 0.29381 0.0
H803 H 0.17852 0.30399 0.27325 0.0
C804 C 0.07802 0.2803 0.32355 0.0
C805 C 0.07616 0.26982 0.3455 0.0
C806 C 0.09742 0.27827 0.30938 0.0
C807 C 0.11546 0.26567 0.31675 0.0
C808 C 0.11336 0.2548 0.3385 0.0
C809 C 0.09398 0.25686 0.3527 0.0
C810 C 0.16819 0.24307 0.28806 0.0
C811 C 0.18023 0.2651 0.27857 0.0
C812 C 0.14686 0.24298 0.29989 0.0
C813 C 0.13697 0.26487 0.30242 0.0
C814 C 0.14848 0.28653 0.29206 0.0
C815 C 0.16981 0.28665 0.28032 0.0
H816 H 0.93461 0.07397 0.16652 0.0
H817 H 0.94765 -0.00242 0.15903 0.0
H818 H 0.95363 0.0815 0.12831 0.0
H819 H 0.96598 0.00502 0.12187 0.0
H820 H 0.97048 0.01034 0.04571 0.0
H821 H 0.94725 0.01321 0.08069 0.0
H822 H 0.00022 0.07978 0.11141 0.0
H823 H 0.02336 0.0775 0.07545 0.0
C824 C 0.94141 0.05889 0.15683 0.0
C825 C 0.93963 0.03523 0.16592 0.0
C826 C 0.95234 0.06321 0.13511 0.0
C827 C 0.96105 0.04372 0.1221 0.0
C828 C 0.95919 0.02029 0.13132 0.0
C829 C 0.94875 0.01613 0.15282 0.0
C830 C 0.97679 0.0262 0.05939 0.0
C831 C -0.00126 0.0437 0.05776 0.0
C832 C 0.9635 0.02777 0.07953 0.0
C833 C 0.97198 0.04666 0.09878 0.0
C834 C 0.99318 0.06519 0.09669 0.0
C835 C 0.00649 0.06373 0.07626 0.0
H836 H 0.29881 0.67158 0.4447 0.0
H837 H 0.22445 0.68019 0.44646 0.0
H838 H 0.30044 0.68542 0.40446 0.0
H839 H 0.22622 0.69436 0.40699 0.0
H840 H 0.22871 0.70545 0.33066 0.0
H841 H 0.22928 0.68173 0.36522 0.0
H842 H 0.30076 0.72686 0.38887 0.0
H843 H 0.30047 0.75006 0.35362 0.0
C844 C 0.28275 0.676 0.43635 0.0
C845 C 0.26159 0.67508 0.44875 0.0
C846 C 0.28373 0.68409 0.41346 0.0
C847 C 0.2635 0.69109 0.40266 0.0
C848 C 0.24202 0.68882 0.41467 0.0
C849 C 0.24108 0.68089 0.43741 0.0
C850 C 0.2446 0.71018 0.34318 0.0
C851 C 0.26437 0.72983 0.33985 0.0
C852 C 0.24495 0.69658 0.36291 0.0
C853 C 0.26495 0.70261 0.37985 0.0
C854 C 0.28519 0.72163 0.37598 0.0
C855 C 0.28493 0.7351 0.35603 0.0
H856 H 0.59793 0.97158 0.64121 0.0
H857 H 0.52727 0.97512 0.66583 0.0
H858 H 0.58059 0.96404 0.59979 0.0
H859 H 0.50996 0.96738 0.62466 0.0
H860 H 0.55003 0.01884 0.54977 0.0
H861 H 0.56706 0.00202 0.58345 0.0
H862 H 0.50161 0.94342 0.58216 0.0
H863 H 0.48476 0.95985 0.54741 0.0
C864 C 0.5785 0.96944 0.63785 0.0
C865 C 0.56398 0.97447 0.65655 0.0
C866 C 0.56861 0.96523 0.61417 0.0
C867 C 0.54407 0.96564 0.60907 0.0
C868 C 0.52892 0.96695 0.62805 0.0
C869 C 0.53886 0.97153 0.65163 0.0
C870 C 0.53959 0.00181 0.55605 0.0
C871 C 0.51614 0.99058 0.54593 0.0
C872 C 0.54941 0.99206 0.5753 0.0
C873 C 0.53575 0.97122 0.58526 0.0
C874 C 0.51257 0.95936 0.57464 0.0
C875 C 0.50291 0.96885 0.55494 0.0
H876 H 0.27782 0.30934 0.95238 0.0
H877 H 0.23498 0.36541 0.94162 0.0
H878 H 0.27896 0.30028 0.90943 0.0
H879 H 0.23609 0.35603 0.89811 0.0
H880 H 0.22306 0.30789 0.82252 0.0
H881 H 0.22133 0.32005 0.86514 0.0
H882 H 0.2981 0.32278 0.87609 0.0
H883 H 0.29992 0.31049 0.83326 0.0
C884 C 0.26844 0.31967 0.94087 0.0
C885 C 0.25633 0.33822 0.95059 0.0
C886 C 0.26934 0.31459 0.91617 0.0
C887 C 0.25798 0.32771 0.90035 0.0
C888 C 0.24508 0.34563 0.90988 0.0
C889 C 0.24437 0.35095 0.93478 0.0
C890 C 0.23966 0.31118 0.83393 0.0
C891 C 0.26163 0.30796 0.82443 0.0
C892 C 0.23865 0.31836 0.85838 0.0
C893 C 0.25951 0.32224 0.87404 0.0
C894 C 0.28163 0.31964 0.8645 0.0
C895 C 0.28271 0.31272 0.83995 0.0
H896 H 0.89919 0.03125 0.31017 0.0
H897 H 0.96949 0.02183 0.28887 0.0
H898 H 0.91019 0.02345 0.35105 0.0
H899 H 0.98084 0.01494 0.32954 0.0
H900 H 0.98275 0.9688 0.39114 0.0
H901 H 0.96953 0.97982 0.35244 0.0
H902 H 0.93575 0.03662 0.38813 0.0
H903 H 0.9484 0.02491 0.42689 0.0
C904 C 0.91729 0.02848 0.31447 0.0
C905 C 0.93348 0.02705 0.29641 0.0
C906 C 0.92356 0.02381 0.33782 0.0
C907 C 0.94616 0.01782 0.34343 0.0
C908 C 0.96298 0.01859 0.3257 0.0
C909 C 0.95664 0.02294 0.30247 0.0
C910 C 0.97214 0.98332 0.39069 0.0
C911 C 0.96665 -0.00399 0.41198 0.0
C912 C 0.96482 0.98991 0.36853 0.0
C913 C 0.95203 0.00956 0.36714 0.0
C914 C 0.94555 0.02143 0.3885 0.0
C915 C 0.95278 0.0147 0.41071 0.0
H916 H 0.31832 0.68877 0.58661 0.0
H917 H 0.29447 0.75249 0.55994 0.0
H918 H 0.32654 0.71241 0.62643 0.0
H919 H 0.30266 0.77598 0.59976 0.0
H920 H 0.27942 0.73582 0.68774 0.0
H921 H 0.28832 0.7199 0.64806 0.0
H922 H 0.33139 0.79409 0.63879 0.0
H923 H 0.32281 0.81018 0.67922 0.0
C924 C 0.31586 0.7082 0.58897 0.0
C925 C 0.30509 0.71855 0.57043 0.0
C926 C 0.32046 0.72166 0.61177 0.0
C927 C 0.31461 0.74567 0.61612 0.0
C928 C 0.30719 0.75745 0.59683 0.0
C929 C 0.3024 0.74393 0.57409 0.0
C930 C 0.29082 0.7488 0.67734 0.0
C931 C 0.30047 0.77422 0.68653 0.0
C932 C 0.2962 0.73958 0.65476 0.0
C933 C 0.31107 0.75564 0.64072 0.0
C934 C 0.32022 0.7813 0.64953 0.0
C935 C 0.31514 0.7905 0.67245 0.0
H936 H 0.59261 0.9783 0.78842 0.0
H937 H 0.56734 0.04848 0.78757 0.0
H938 H 0.58254 0.97665 0.8304 0.0
H939 H 0.55777 0.04687 0.82911 0.0
H940 H 0.5737 0.05265 0.90935 0.0
H941 H 0.58638 0.04959 0.8685 0.0
H942 H 0.54034 0.97433 0.85395 0.0
H943 H 0.52732 0.97745 0.89504 0.0
C944 C 0.58496 0.9933 0.79715 0.0
C945 C 0.58079 0.01352 0.78474 0.0
C946 C 0.57914 0.99228 0.82103 0.0
C947 C 0.56959 0.01174 0.83284 0.0
C948 C 0.56535 0.0318 0.82039 0.0
C949 C 0.57074 0.03261 0.79658 0.0
C950 C 0.56646 0.03534 0.89753 0.0
C951 C 0.54934 0.0154 0.90515 0.0
C952 C 0.57372 0.03361 0.87423 0.0
C953 C 0.56419 0.0118 0.85821 0.0
C954 C 0.54796 0.99127 0.86611 0.0
C955 C 0.54045 0.99312 0.88946 0.0
H956 H 0.23438 0.29281 0.06816 0.0
H957 H 0.23967 0.36953 0.1011 0.0
H958 H 0.22722 0.27655 0.10672 0.0
H959 H 0.23286 0.35323 0.14009 0.0
H960 H 0.26414 0.31341 0.20305 0.0
H961 H 0.26046 0.33263 0.16596 0.0
H962 H 0.1991 0.27177 0.14075 0.0
H963 H 0.20231 0.2529 0.17836 0.0
C964 C 0.23338 0.30614 0.08359 0.0
C965 C 0.23753 0.33243 0.0816 0.0
C966 C 0.22923 0.29681 0.1057 0.0
C967 C 0.22962 0.3136 0.12651 0.0
C968 C 0.23259 0.33984 0.12437 0.0
C969 C 0.23624 0.34916 0.10205 0.0
C970 C 0.24938 0.30453 0.18995 0.0
C971 C 0.23336 0.28176 0.1938 0.0
C972 C 0.2473 0.31555 0.16864 0.0
C973 C 0.22943 0.3038 0.15042 0.0
C974 C 0.21308 0.28127 0.15444 0.0
C975 C 0.21492 0.27047 0.17596 0.0
H976 H 0.1853 0.92041 -0.00595 0.0
H977 H 0.22789 0.98584 0.96565 0.0
H978 H 0.15374 0.94392 0.00233 0.0
H979 H 0.19629 0.00951 0.97428 0.0
H980 H 0.11914 0.02904 0.96883 0.0
H981 H 0.15385 0.00964 0.96135 0.0
H982 H 0.14814 0.98001 0.02997 0.0
H983 H 0.11322 -0.00092 0.03723 0.0
C984 C 0.18792 0.93979 0.98949 0.0
C985 C 0.20916 0.95125 0.97922 0.0
C986 C 0.16992 0.95335 -0.00553 0.0
C987 C 0.17268 0.9787 0.98927 0.0
C988 C 0.19363 0.98999 0.97845 0.0
C989 C 0.21172 0.97642 0.97352 0.0
C990 C 0.12568 0.01887 0.98253 0.0
C991 C 0.11351 0.01548 0.00359 0.0
C992 C 0.14553 0.00774 0.97824 0.0
C993 C 0.1535 0.99299 -0.00508 0.0
C994 C 0.1421 0.99084 0.01657 0.0
C995 C 0.12228 0.00197 0.02085 0.0
H996 H 0.70322 0.5804 0.96584 0.0
H997 H 0.66406 0.63 0.00488 0.0
H998 H 0.66749 0.54495 0.96479 0.0
H999 H 0.62902 0.59513 0.0039 0.0
H1000 H 0.57528 0.52682 0.01602 0.0
H1001 H 0.61621 0.55348 0.02024 0.0
H1002 H 0.62383 0.53564 0.94482 0.0
H1003 H 0.5828 0.50858 0.9407 0.0
C1004 C 0.68716 0.58365 0.97438 0.0
C1005 C 0.68639 0.60801 0.98529 0.0
C1006 C 0.66675 0.56345 0.97372 0.0
C1007 C 0.64555 0.56724 0.98443 0.0
C1008 C 0.64518 0.59145 -0.00417 0.0
C1009 C 0.66524 0.61154 -0.00383 0.0
C1010 C 0.58589 0.52808 0.00047 0.0
C1011 C 0.57582 0.51586 0.978 0.0
C1012 C 0.60929 0.54341 0.00286 0.0
C1013 C 0.6231 0.54688 0.98279 0.0
C1014 C 0.61367 0.53321 0.96061 0.0
C1015 C 0.59017 0.51784 0.95823 0.0
H1016 H 0.73393 0.47637 0.26198 0.0
H1017 H 0.66385 0.42639 0.26581 0.0
H1018 H 0.7522 0.43937 0.25487 0.0
H1019 H 0.68217 0.38948 0.25898 0.0
H1020 H 0.71692 0.32867 0.22248 0.0
H1021 H 0.70026 0.36677 0.22757 0.0
H1022 H 0.76231 0.40442 0.27528 0.0
H1023 H 0.7792 0.36631 0.27002 0.0
C1024 C 0.7224 0.45752 0.26136 0.0
C1025 C 0.69738 0.45443 0.26445 0.0
C1026 C 0.73293 0.43628 0.25739 0.0
C1027 C 0.71869 0.41138 0.25627 0.0
C1028 C 0.69366 0.40833 0.25938 0.0
C1029 C 0.68316 0.42954 0.26346 0.0
C1030 C 0.7272 0.34511 0.2339 0.0
C1031 C 0.74944 0.34428 0.24588 0.0
C1032 C 0.7175 0.36694 0.23696 0.0
C1033 C 0.72978 0.38864 0.25203 0.0
C1034 C 0.7524 0.38814 0.26342 0.0
C1035 C 0.76208 0.36622 0.26043 0.0
H1036 H 0.84036 0.40334 0.44207 0.0
H1037 H 0.80796 0.4598 0.48021 0.0
H1038 H 0.87772 0.4348 0.44113 0.0
H1039 H 0.8456 0.49181 0.47884 0.0
H1040 H 0.92718 0.51612 0.51038 0.0
H1041 H 0.88465 0.49602 0.5009 0.0
H1042 H 0.90039 0.47356 0.42846 0.0
H1043 H 0.94323 0.49307 0.43816 0.0
C1044 C 0.84105 0.4227 0.44976 0.0
C1045 C 0.82144 0.42899 0.46167 0.0
C1046 C 0.86243 0.44087 0.44899 0.0
C1047 C 0.86474 0.46579 0.46013 0.0
C1048 C 0.84444 0.47265 0.47039 0.0
C1049 C 0.82289 0.45439 0.47107 0.0
C1050 C 0.92155 0.50729 0.4923 0.0
C1051 C 0.93867 0.50559 0.47519 0.0
C1052 C 0.89706 0.49599 0.48678 0.0
C1053 C 0.88918 0.4829 0.464 0.0
C1054 C 0.906 0.4831 0.44631 0.0
C1055 C 0.93054 0.49425 0.45188 0.0
H1056 H 0.34881 0.11305 0.31781 0.0
H1057 H 0.34468 0.08038 0.2441 0.0
H1058 H 0.31838 0.13692 0.30771 0.0
H1059 H 0.31349 0.10342 0.23411 0.0
H1060 H 0.28522 0.17567 0.22079 0.0
H1061 H 0.31004 0.14534 0.22908 0.0
H1062 H 0.27718 0.13543 0.29643 0.0
H1063 H 0.25312 0.1667 0.28843 0.0
C1064 C 0.34116 0.1107 0.2995 0.0
C1065 C 0.34934 0.09499 0.28173 0.0
C1066 C 0.32351 0.12423 0.29371 0.0
C1067 C 0.31337 0.12216 0.27004 0.0
C1068 C 0.32113 0.10586 0.25242 0.0
C1069 C 0.33897 0.09256 0.25817 0.0
C1070 C 0.28292 0.16656 0.23711 0.0
C1071 C 0.26734 0.1736 0.25401 0.0
C1072 C 0.29714 0.1491 0.24189 0.0
C1073 C 0.29592 0.1381 0.26361 0.0
C1074 C 0.27906 0.14394 0.27978 0.0
C1075 C 0.26502 0.16162 0.27509 0.0
H1076 H 0.34229 0.12843 0.4417 0.0
H1077 H 0.31315 0.10318 0.50698 0.0
H1078 H 0.37428 0.10502 0.44624 0.0
H1079 H 0.34466 0.07882 0.5111 0.0
H1080 H 0.41994 0.0606 0.52451 0.0
H1081 H 0.38645 0.08233 0.52044 0.0
H1082 H 0.38296 0.06429 0.44356 0.0
H1083 H 0.41715 0.04355 0.44775 0.0
C1084 C 0.34258 0.1177 0.45696 0.0
C1085 C 0.32512 0.11776 0.47399 0.0
C1086 C 0.36088 0.10403 0.45948 0.0
C1087 C 0.36215 0.08976 0.47898 0.0
C1088 C 0.34459 0.0898 0.49601 0.0
C1089 C 0.32639 0.1037 0.4936 0.0
C1090 C 0.41183 0.06111 0.50677 0.0
C1091 C 0.42117 0.05039 0.48645 0.0
C1092 C 0.39252 0.0735 0.5044 0.0
C1093 C 0.38191 0.07532 0.48164 0.0
C1094 C 0.39089 0.06383 0.46137 0.0
C1095 C 0.41035 0.05167 0.46375 0.0
H1096 H 0.70393 0.56763 0.26213 0.0
H1097 H 0.67534 0.60156 0.32413 0.0
H1098 H 0.73068 0.60894 0.25799 0.0
H1099 H 0.70255 0.64253 0.32038 0.0
H1100 H 0.77059 0.70748 0.31178 0.0
H1101 H 0.75047 0.66426 0.31924 0.0
H1102 H 0.71498 0.6515 0.24811 0.0
H1103 H 0.73448 0.69484 0.24087 0.0
C1104 C 0.70404 0.58365 0.27538 0.0
C1105 C 0.68762 0.58146 0.29346 0.0
C1106 C 0.71914 0.60728 0.27286 0.0
C1107 C 0.71846 0.62885 0.28877 0.0
C1108 C 0.70344 0.62616 0.30795 0.0
C1109 C 0.68794 0.60274 0.31011 0.0
C1110 C 0.75845 0.6954 0.29779 0.0
C1111 C 0.754 0.70445 0.27579 0.0
C1112 C 0.74704 0.67075 0.30204 0.0
C1113 C 0.73148 0.65455 0.28413 0.0
C1114 C 0.72721 0.66353 0.26206 0.0
C1115 C 0.73816 0.68836 0.25802 0.0
H1116 H 0.89745 0.45152 0.8037 0.0
H1117 H 0.84265 0.49188 0.78292 0.0
H1118 H 0.86626 0.41323 0.80489 0.0
H1119 H 0.81119 0.45345 0.78466 0.0
H1120 H 0.77505 0.37064 0.75059 0.0
H1121 H 0.80002 0.4133 0.75941 0.0
H1122 H 0.83128 0.39147 0.82364 0.0
H1123 H 0.80664 0.34833 0.81445 0.0
C1124 C 0.87868 0.45237 0.79978 0.0
C1125 C 0.8726 0.47469 0.79286 0.0
C1126 C 0.86072 0.43041 0.80071 0.0
C1127 C 0.83621 0.43022 0.79479 0.0
C1128 C 0.82996 0.45291 0.78903 0.0
C1129 C 0.84797 0.47494 0.7881 0.0
C1130 C 0.78691 0.37498 0.76684 0.0
C1131 C 0.78917 0.35591 0.78158 0.0
C1132 C 0.80112 0.39959 0.77201 0.0
C1133 C 0.8179 0.40573 0.79207 0.0
C1134 C 0.81884 0.38719 0.8078 0.0
C1135 C 0.80461 0.36251 0.80261 0.0
H1136 H 0.99537 0.83521 0.08916 0.0
H1137 H 0.07011 0.86142 0.07332 0.0
H1138 H 0.9834 0.86626 0.06457 0.0
H1139 H 0.05859 0.89271 0.05 0.0
H1140 H 0.03492 0.93398 -0.00582 0.0
H1141 H 0.03922 0.89658 0.01343 0.0
H1142 H 0.98598 0.9109 0.06295 0.0
H1143 H 0.9807 0.94748 0.04254 0.0
C1144 C 0.0092 0.8477 0.08059 0.0
C1145 C 0.03361 0.84572 0.08296 0.0
C1146 C 0.00239 0.86547 0.06654 0.0
C1147 C 0.01995 0.8817 0.05487 0.0
C1148 C 0.04439 0.87999 0.05791 0.0
C1149 C 0.05107 0.86215 0.07155 0.0
C1150 C 0.02376 0.92872 0.00883 0.0
C1151 C 0.00767 0.94363 0.01706 0.0
C1152 C 0.02635 0.90746 0.02004 0.0
C1153 C 0.01347 0.90112 0.04023 0.0
C1154 C 0.99616 0.91514 0.04745 0.0
C1155 C 0.99315 0.93613 0.03581 0.0
H1156 H 0.88754 0.19658 0.82721 0.0
H1157 H 0.94072 0.2496 0.79385 0.0
H1158 H 0.85566 0.20323 0.79936 0.0
H1159 H 0.90852 0.25598 0.76576 0.0
H1160 H 0.8199 0.27607 0.78773 0.0
H1161 H 0.8533 0.25921 0.80393 0.0
H1162 H 0.86193 0.22377 0.73367 0.0
H1163 H 0.82758 0.24002 0.71733 0.0
C1164 C 0.89258 0.20884 0.8133 0.0
C1165 C 0.91653 0.22295 0.81297 0.0
C1166 C 0.87434 0.21256 0.79736 0.0
C1167 C 0.87977 0.23021 0.78069 0.0
C1168 C 0.90407 0.24213 0.77843 0.0
C1169 C 0.92244 0.23844 0.79448 0.0
C1170 C 0.82866 0.26444 0.77575 0.0
C1171 C 0.82094 0.259 0.75138 0.0
C1172 C 0.84781 0.25494 0.78498 0.0
C1173 C 0.8599 0.24016 0.76998 0.0
C1174 C 0.85271 0.23511 0.74548 0.0
C1175 C 0.83316 0.24436 0.73623 0.0
H1176 H 0.50797 0.21287 0.60834 0.0
H1177 H 0.58256 0.22845 0.5892 0.0
H1178 H 0.50228 0.16934 0.58863 0.0
H1179 H 0.57675 0.18549 0.56933 0.0
H1180 H 0.56505 0.09986 0.55228 0.0
H1181 H 0.57009 0.141 0.57638 0.0
H1182 H 0.50004 0.14878 0.54757 0.0
H1183 H 0.49477 0.10764 0.5239 0.0
C1184 C 0.52314 0.20702 0.60006 0.0
C1185 C 0.54565 0.22422 0.60026 0.0
C1186 C 0.51987 0.18214 0.58867 0.0
C1187 C 0.53907 0.17395 0.57738 0.0
C1188 C 0.56168 0.19102 0.5781 0.0
C1189 C 0.56492 0.21578 0.58937 0.0
C1190 C 0.55072 0.11032 0.55111 0.0
C1191 C 0.52959 0.10046 0.53603 0.0
C1192 C 0.55361 0.13393 0.56489 0.0
C1193 C 0.53544 0.14817 0.56391 0.0
C1194 C 0.51422 0.13815 0.54904 0.0
C1195 C 0.51133 0.11462 0.53526 0.0
H1196 H 0.56764 0.80785 0.31934 0.0
H1197 H 0.54696 0.72641 0.32149 0.0
H1198 H 0.6034 0.80245 0.29845 0.0
H1199 H 0.58251 0.72098 0.3002 0.0
H1200 H 0.66516 0.72755 0.29106 0.0
H1201 H 0.62638 0.7297 0.30784 0.0
H1202 H 0.61654 0.78593 0.26083 0.0
H1203 H 0.65551 0.78405 0.24443 0.0
C1204 C 0.57057 0.78877 0.31516 0.0
C1205 C 0.55444 0.7676 0.32221 0.0
C1206 C 0.59103 0.78564 0.30303 0.0
C1207 C 0.59588 0.76126 0.29762 0.0
C1208 C 0.57951 0.74005 0.30432 0.0
C1209 C 0.55904 0.74317 0.31643 0.0
C1210 C 0.65449 0.74005 0.28407 0.0
C1211 C 0.66337 0.75569 0.2665 0.0
C1212 C 0.63224 0.74126 0.29364 0.0
C1213 C 0.6184 0.75818 0.28586 0.0
C1214 C 0.6269 0.77303 0.26755 0.0
C1215 C 0.64913 0.77179 0.25799 0.0
H1216 H 0.05082 0.19795 0.42986 0.0
H1217 H 0.99022 0.20077 0.47368 0.0
H1218 H 0.05469 0.15769 0.44518 0.0
H1219 H 0.99407 0.16104 0.48844 0.0
H1220 H 0.98529 0.0735 0.47455 0.0
H1221 H 0.98684 0.11582 0.46246 0.0
H1222 H 0.06189 0.13941 0.48956 0.0
H1223 H 0.06032 0.09668 0.50215 0.0
C1224 C 0.03851 0.19018 0.44282 0.0
C1225 C 0.02007 0.20247 0.45032 0.0
C1226 C 0.04084 0.1673 0.45166 0.0
C1227 C 0.02458 0.15636 0.46787 0.0
C1228 C 0.00672 0.16905 0.47585 0.0
C1229 C 0.00455 0.19184 0.46731 0.0
C1230 C 0.00212 0.0877 0.47809 0.0
C1231 C 0.02265 0.08187 0.48942 0.0
C1232 C 0.00299 0.11189 0.47116 0.0
C1233 C 0.02449 0.13075 0.47506 0.0
C1234 C 0.04516 0.12506 0.48629 0.0
C1235 C 0.04417 0.1008 0.49368 0.0
H1236 H 0.56705 0.28067 0.15424 0.0
H1237 H 0.54716 0.20116 0.16556 0.0
H1238 H 0.60973 0.28075 0.16497 0.0
H1239 H 0.58929 0.20094 0.17516 0.0
H1240 H 0.65982 0.21653 0.22115 0.0
H1241 H 0.61846 0.21639 0.20721 0.0
H1242 H 0.64546 0.26526 0.15353 0.0
H1243 H 0.68723 0.26608 0.1683 0.0
C1244 C 0.57178 0.26324 0.15886 0.0
C1245 C 0.55364 0.24107 0.15946 0.0
C1246 C 0.59623 0.26319 0.16481 0.0
C1247 C 0.60296 0.2409 0.17122 0.0
C1248 C 0.5848 0.21863 0.17098 0.0
C1249 C 0.56054 0.21877 0.16538 0.0
C1250 C 0.65696 0.22695 0.20615 0.0
C1251 C 0.67672 0.24118 0.19572 0.0
C1252 C 0.63319 0.22685 0.19807 0.0
C1253 C 0.62852 0.24079 0.17916 0.0
C1254 C 0.64837 0.25457 0.16831 0.0
C1255 C 0.67227 0.25479 0.17655 0.0
H1256 H 0.55306 0.83512 0.98687 0.0
H1257 H 0.5364 0.85212 0.91553 0.0
H1258 H 0.55363 0.87894 0.00257 0.0
H1259 H 0.53489 0.89538 0.93116 0.0
H1260 H 0.53708 0.97524 0.96517 0.0
H1261 H 0.54935 0.93659 0.94895 0.0
H1262 H 0.5236 0.90035 0.01104 0.0
H1263 H 0.5128 0.93944 0.02742 0.0
C1264 C 0.55015 0.84854 0.97451 0.0
C1265 C 0.54484 0.84043 0.95005 0.0
C1266 C 0.54995 0.87354 0.9835 0.0
C1267 C 0.54343 0.89066 0.96833 0.0
C1268 C 0.54006 0.88297 0.9435 0.0
C1269 C 0.54101 0.85814 0.93443 0.0
C1270 C 0.53388 0.95884 0.97506 0.0
C1271 C 0.52359 0.96006 -0.00277 0.0
C1272 C 0.54103 0.93668 0.9659 0.0
C1273 C 0.53763 0.91512 0.97861 0.0
C1274 C 0.52724 0.9166 0.00089 0.0
C1275 C 0.52066 0.93891 0.01021 0.0
H1276 H 0.92425 0.78708 0.65496 0.0
H1277 H 0.94641 0.75223 0.71571 0.0
H1278 H 0.88975 0.79676 0.67618 0.0
H1279 H 0.91268 0.76252 0.73708 0.0
H1280 H 0.83122 0.74466 0.74789 0.0
H1281 H 0.87005 0.744 0.73158 0.0
H1282 H 0.87386 0.81934 0.71016 0.0
H1283 H 0.83433 0.81982 0.72622 0.0
C1284 C 0.92212 0.78212 0.67306 0.0
C1285 C 0.93775 0.76851 0.68352 0.0
C1286 C 0.90241 0.7877 0.68525 0.0
C1287 C 0.89817 0.77995 0.70817 0.0
C1288 C 0.915 0.76815 0.71922 0.0
C1289 C 0.93442 0.76235 0.70701 0.0
C1290 C 0.84038 0.76128 0.74 0.0
C1291 C 0.82957 0.78227 0.73835 0.0
C1292 C 0.86282 0.76097 0.73074 0.0
C1293 C 0.87518 0.78166 0.71957 0.0
C1294 C 0.86474 0.80303 0.71848 0.0
C1295 C 0.8422 0.80338 0.72788 0.0
H1296 H 0.07559 0.9592 0.8224 0.0
H1297 H 0.12928 0.0168 0.86531 0.0
H1298 H 0.05244 0.95114 0.85757 0.0
H1299 H 0.10592 0.0098 0.90029 0.0
H1300 H 0.06096 0.99296 0.9621 0.0
H1301 H 0.08807 0.98636 0.93057 0.0
H1302 H 0.02734 0.97461 0.87778 0.0
H1303 H 0.00056 0.98086 0.90957 0.0
C1304 C 0.08289 0.96937 0.83964 0.0
C1305 C 0.10435 0.98827 0.84136 0.0
C1306 C 0.06945 0.96515 0.85971 0.0
C1307 C 0.07696 0.98019 0.88176 0.0
C1308 C 0.09956 -0.00235 0.88378 0.0
C1309 C 0.1131 0.00163 0.86375 0.0
C1310 C 0.05362 0.98915 0.94372 0.0
C1311 C 0.02898 0.98826 0.93811 0.0
C1312 C 0.06904 0.98513 0.92563 0.0
C1313 C 0.06008 0.98025 0.90146 0.0
C1314 C 0.03498 0.97798 0.89612 0.0
C1315 C 0.01958 0.98174 0.9143 0.0
H1316 H 0.79704 0.35038 0.55346 0.0
H1317 H 0.72626 0.36927 0.55236 0.0
H1318 H 0.79341 0.34096 0.59448 0.0
H1319 H 0.72272 0.35984 0.59405 0.0
H1320 H 0.7192 0.30189 0.65413 0.0
H1321 H 0.71932 0.31951 0.61555 0.0
H1322 H 0.79204 0.36389 0.63463 0.0
H1323 H 0.7921 0.34598 0.67267 0.0
C1324 C 0.78074 0.35269 0.56205 0.0
C1325 C 0.76189 0.36047 0.54967 0.0
C1326 C 0.77876 0.3475 0.58565 0.0
C1327 C 0.75786 0.34987 0.59746 0.0
C1328 C 0.739 0.35786 0.58526 0.0
C1329 C 0.74108 0.36333 0.56153 0.0
C1330 C 0.73501 0.31569 0.6501 0.0
C1331 C 0.75583 0.32225 0.666 0.0
C1332 C 0.73501 0.32589 0.62819 0.0
C1333 C 0.75582 0.34278 0.62207 0.0
C1334 C 0.77594 0.35056 0.63877 0.0
C1335 C 0.77598 0.34031 0.6605 0.0
H1336 H 0.42575 0.08255 0.3549 0.0
H1337 H 0.49565 0.08745 0.32554 0.0
H1338 H 0.44551 0.08951 0.39538 0.0
H1339 H 0.51537 0.09455 0.36577 0.0
H1340 H 0.54427 0.09751 0.44261 0.0
H1341 H 0.52473 0.11501 0.40996 0.0
H1342 H 0.46317 0.05146 0.40632 0.0
H1343 H 0.48305 0.03356 0.43735 0.0
C1344 C 0.44541 0.08659 0.35709 0.0
C1345 C 0.4592 0.08397 0.33725 0.0
C1346 C 0.45672 0.09045 0.38023 0.0
C1347 C 0.48189 0.09197 0.38364 0.0
C1348 C 0.49597 0.09341 0.36371 0.0
C1349 C 0.48466 0.08925 0.34065 0.0
C1350 C 0.52643 0.08759 0.43494 0.0
C1351 C 0.51493 0.06441 0.44276 0.0
C1352 C 0.5152 0.09769 0.41651 0.0
C1353 C 0.49216 0.08494 0.40606 0.0
C1354 C 0.4805 0.06223 0.41456 0.0
C1355 C 0.4919 0.05194 0.4324 0.0
H1356 H 0.78406 0.67573 0.06463 0.0
H1357 H 0.74433 0.73443 0.05381 0.0
H1358 H 0.78633 0.68794 0.10809 0.0
H1359 H 0.74634 0.74609 0.09673 0.0
H1360 H 0.7246 0.73479 0.17273 0.0
H1361 H 0.72618 0.72157 0.13013 0.0
H1362 H 0.8035 0.72733 0.14034 0.0
H1363 H 0.80207 0.74076 0.18296 0.0
C1364 C 0.77622 0.69145 0.07141 0.0
C1365 C 0.76381 0.7039 0.0557 0.0
C1366 C 0.77742 0.69835 0.09626 0.0
C1367 C 0.76603 0.71758 0.10573 0.0
C1368 C 0.75479 0.73082 0.08995 0.0
C1369 C 0.75382 0.72419 0.0653 0.0
C1370 C 0.7419 0.73303 0.16597 0.0
C1371 C 0.76321 0.73901 0.18122 0.0
C1372 C 0.74283 0.72558 0.14157 0.0
C1373 C 0.76502 0.72362 0.13194 0.0
C1374 C 0.78618 0.72863 0.1473 0.0
C1375 C 0.78532 0.73645 0.17167 0.0
H1376 H 0.13994 -0.0 0.70007 0.0
H1377 H 0.06679 0.00268 0.71774 0.0
H1378 H 0.12867 0.00265 0.65791 0.0
H1379 H 0.05547 0.00478 0.67589 0.0
H1380 H 0.05173 0.04539 0.61058 0.0
H1381 H 0.06575 0.03923 0.65073 0.0
H1382 H 0.10299 0.98242 0.62095 0.0
H1383 H 0.08925 0.98904 0.58054 0.0
C1384 C 0.12131 0.00037 0.69484 0.0
C1385 C 0.10431 0.00145 0.7122 0.0
C1386 C 0.11488 0.00202 0.67074 0.0
C1387 C 0.09136 0.00465 0.66371 0.0
C1388 C 0.07395 0.0036 0.68086 0.0
C1389 C 0.08037 0.00213 0.7048 0.0
C1390 C 0.06321 0.03187 0.61259 0.0
C1391 C 0.06932 0.01761 0.59251 0.0
C1392 C 0.07103 0.02812 0.63558 0.0
C1393 C 0.08503 0.00991 0.63904 0.0
C1394 C 0.09219 -0.00347 0.61887 0.0
C1395 C 0.08436 0.00035 0.59577 0.0
H1396 H 0.73504 0.2894 0.43301 0.0
H1397 H 0.72095 0.35754 0.40618 0.0
H1398 H 0.73164 0.26848 0.39226 0.0
H1399 H 0.71737 0.33646 0.36531 0.0
H1400 H 0.71923 0.2371 0.3126 0.0
H1401 H 0.70844 0.25318 0.35204 0.0
H1402 H 0.75422 0.32678 0.34537 0.0
H1403 H 0.76502 0.31083 0.30632 0.0
C1404 C 0.73023 0.29954 0.41844 0.0
C1405 C 0.72878 0.32525 0.42265 0.0
C1406 C 0.72826 0.28753 0.39512 0.0
C1407 C 0.7249 0.30113 0.37569 0.0
C1408 C 0.72046 0.32578 0.38006 0.0
C1409 C 0.72224 0.33775 0.40344 0.0
C1410 C 0.72704 0.25665 0.31971 0.0
C1411 C 0.74295 0.27274 0.30649 0.0
C1412 C 0.72074 0.26586 0.34212 0.0
C1413 C 0.73005 0.29135 0.35145 0.0
C1414 C 0.74622 0.30725 0.3383 0.0
C1415 C 0.75269 0.29801 0.31611 0.0
H1416 H 0.41203 0.05574 0.19796 0.0
H1417 H 0.4816 0.03941 0.21775 0.0
H1418 H 0.42407 0.05941 0.15682 0.0
H1419 H 0.49356 0.04332 0.17708 0.0
H1420 H 0.44701 0.01987 0.08377 0.0
H1421 H 0.43322 0.02562 0.12414 0.0
H1422 H 0.50191 0.07667 0.14744 0.0
H1423 H 0.51566 0.07104 0.10705 0.0
C1424 C 0.42995 0.05329 0.1936 0.0
C1425 C 0.44581 0.04709 0.21094 0.0
C1426 C 0.43678 0.05531 0.17014 0.0
C1427 C 0.45975 0.05172 0.1639 0.0
C1428 C 0.47586 0.04647 0.18149 0.0
C1429 C 0.46892 0.04401 0.20471 0.0
C1430 C 0.45899 0.03259 0.09747 0.0
C1431 C 0.48248 0.04476 0.0925 0.0
C1432 C 0.45104 0.03603 0.12046 0.0
C1433 C 0.46657 0.05149 0.13884 0.0
C1434 C 0.48968 0.06452 0.13357 0.0
C1435 C 0.49753 0.06129 0.11052 0.0
H1436 H 0.79775 0.69792 0.92308 0.0
H1437 H 0.72406 0.70887 0.91797 0.0
H1438 H 0.80521 0.71744 0.88539 0.0
H1439 H 0.73143 0.72781 0.88113 0.0
H1440 H 0.73982 0.73258 0.80429 0.0
H1441 H 0.74016 0.70977 0.8393 0.0
H1442 H 0.80417 0.76437 0.8698 0.0
H1443 H 0.80427 0.7872 0.8339 0.0
C1444 C 0.7832 0.7043 0.91394 0.0
C1445 C 0.76033 0.70183 0.92357 0.0
C1446 C 0.7875 0.71559 0.89253 0.0
C1447 C 0.76883 0.724 0.8803 0.0
C1448 C 0.7461 0.7213 0.88997 0.0
C1449 C 0.74194 0.71049 0.91124 0.0
C1450 C 0.75444 0.73943 0.81805 0.0
C1451 C 0.77205 0.7617 0.81626 0.0
C1452 C 0.75453 0.72639 0.83821 0.0
C1453 C 0.77211 0.73535 0.85733 0.0
C1454 C 0.79052 0.75695 0.85522 0.0
C1455 C 0.79045 0.7701 0.83481 0.0
H1456 H 0.80504 0.06942 0.95793 0.0
H1457 H 0.84106 0.10768 0.02519 0.0
H1458 H 0.83489 0.04254 0.95519 0.0
H1459 H 0.8708 0.08099 0.02234 0.0
H1460 H 0.90879 0.01634 0.02211 0.0
H1461 H 0.87345 0.03576 0.02356 0.0
H1462 H 0.87942 0.049 0.94935 0.0
H1463 H 0.91465 0.02935 0.94786 0.0
C1464 C 0.81927 0.07207 0.97214 0.0
C1465 C 0.82073 0.09072 -0.00825 0.0
C1466 C 0.83636 0.0567 0.97053 0.0
C1467 C 0.85505 0.05954 0.98863 0.0
C1468 C 0.85636 0.07806 0.00831 0.0
C1469 C 0.83944 0.09352 0.00983 0.0
C1470 C 0.90219 0.02288 0.00597 0.0
C1471 C 0.91448 0.02154 0.98492 0.0
C1472 C 0.88211 0.03416 0.00685 0.0
C1473 C 0.87392 0.04421 0.98666 0.0
C1474 C 0.88527 0.04133 0.96515 0.0
C1475 C 0.90544 0.03013 0.96431 0.0
H1476 H 0.31415 0.45194 0.02302 0.0
H1477 H 0.35276 0.39409 0.04018 0.0
H1478 H 0.35326 0.48099 0.01833 0.0
H1479 H 0.39108 0.42265 0.03501 0.0
H1480 H 0.4469 0.46279 0.9884 0.0
H1481 H 0.40492 0.44146 -0.00734 0.0
H1482 H 0.39835 0.50092 0.04743 0.0
H1483 H 0.44078 0.52232 0.04347 0.0
C1484 C 0.33086 0.44556 0.02616 0.0
C1485 C 0.33024 0.42056 0.03173 0.0
C1486 C 0.35315 0.46213 0.0234 0.0
C1487 C 0.37501 0.45378 0.02589 0.0
C1488 C 0.37442 0.42936 0.03261 0.0
C1489 C 0.35239 0.41305 0.03565 0.0
C1490 C 0.43641 0.47164 0.00101 0.0
C1491 C 0.44721 0.49402 0.01585 0.0
C1492 C 0.41241 0.45942 0.00345 0.0
C1493 C 0.39859 0.46948 0.02053 0.0
C1494 C 0.40868 0.49287 0.03411 0.0
C1495 C 0.43291 0.50503 0.03186 0.0
H1496 H 0.30516 0.56872 0.73075 0.0
H1497 H 0.37774 0.61581 0.73796 0.0
H1498 H 0.28834 0.60681 0.73625 0.0
H1499 H 0.36092 0.65388 0.74298 0.0
H1500 H 0.32481 0.71637 0.774 0.0
H1501 H 0.34025 0.67742 0.77052 0.0
H1502 H 0.28277 0.64305 0.71643 0.0
H1503 H 0.26702 0.68189 0.72022 0.0
C1504 C 0.31757 0.58719 0.73346 0.0
C1505 C 0.34286 0.5891 0.73391 0.0
C1506 C 0.30788 0.60909 0.73648 0.0
C1507 C 0.3232 0.63355 0.74009 0.0
C1508 C 0.34851 0.63542 0.74062 0.0
C1509 C 0.35819 0.61353 0.73757 0.0
C1510 C 0.3153 0.70047 0.76147 0.0
C1511 C 0.29462 0.7024 0.74739 0.0
C1512 C 0.32431 0.67813 0.75934 0.0
C1513 C 0.31293 0.65702 0.74306 0.0
C1514 C 0.29192 0.65875 0.72934 0.0
C1515 C 0.2829 0.68113 0.73146 0.0
H1516 H 0.22102 0.58092 0.51801 0.0
H1517 H 0.19417 0.6348 0.5657 0.0
H1518 H 0.18181 0.55093 0.51686 0.0
H1519 H 0.15515 0.60531 0.56423 0.0
H1520 H 0.08497 0.55151 0.55806 0.0
H1521 H 0.12821 0.56553 0.56992 0.0
H1522 H 0.14458 0.55573 0.49573 0.0
H1523 H 0.10161 0.54118 0.48393 0.0
C1524 C 0.20705 0.586 0.52888 0.0
C1525 C 0.21036 0.61039 0.54148 0.0
C1526 C 0.18456 0.56892 0.52809 0.0
C1527 C 0.16522 0.57599 0.54 0.0
C1528 C 0.16961 0.5992 0.55485 0.0
C1529 C 0.19196 0.61624 0.55555 0.0
C1530 C 0.09782 0.552 0.54431 0.0
C1531 C 0.08981 0.54582 0.51998 0.0
C1532 C 0.12259 0.55994 0.55114 0.0
C1533 C 0.13981 0.56193 0.53377 0.0
C1534 C 0.13185 0.55412 0.50962 0.0
C1535 C 0.10712 0.54611 0.5028 0.0
H1536 H 0.65966 0.94207 0.71019 0.0
H1537 H 0.69427 0.98967 0.77391 0.0
H1538 H 0.68634 0.91285 0.71552 0.0
H1539 H 0.7214 0.96049 0.779 0.0
H1540 H 0.73955 0.88204 0.79418 0.0
H1541 H 0.71894 0.91702 0.78956 0.0
H1542 H 0.72835 0.90958 0.71356 0.0
H1543 H 0.74834 0.87434 0.71816 0.0
C1544 C 0.67311 0.94643 0.72524 0.0
C1545 C 0.67478 0.96819 0.74165 0.0
C1546 C 0.68857 0.92976 0.7282 0.0
C1547 C 0.70613 0.93441 0.74762 0.0
C1548 C 0.70796 0.95628 0.76395 0.0
C1549 C 0.69248 0.97304 0.76096 0.0
C1550 C 0.73764 0.8883 0.77661 0.0
C1551 C 0.74531 0.87541 0.7565 0.0
C1552 C 0.72587 0.90833 0.77394 0.0
C1553 C 0.72165 0.91581 0.75112 0.0
C1554 C 0.73082 0.90391 0.7313 0.0
C1555 C 0.74245 0.88388 0.73395 0.0
H1556 H 0.69843 0.92996 0.54085 0.0
H1557 H 0.71285 0.95048 0.4698 0.0
H1558 H 0.66602 0.95354 0.54208 0.0
H1559 H 0.68006 0.97351 0.47077 0.0
H1560 H 0.63195 0.03044 0.48677 0.0
H1561 H 0.66703 0.0104 0.48828 0.0
H1562 H 0.62595 0.95054 0.52498 0.0
H1563 H 0.59138 0.9709 0.52394 0.0
C1564 C 0.69468 0.93946 0.52545 0.0
C1565 C 0.70827 0.93819 0.50519 0.0
C1566 C 0.67597 0.95291 0.52611 0.0
C1567 C 0.67024 0.96545 0.50649 0.0
C1568 C 0.68407 0.96445 0.48636 0.0
C1569 C 0.70282 0.95103 0.48573 0.0
C1570 C 0.63059 0.01316 0.49537 0.0
C1571 C 0.60892 0.00226 0.50523 0.0
C1572 C 0.65062 0.00152 0.49608 0.0
C1573 C 0.64942 0.97872 0.50669 0.0
C1574 C 0.6278 0.96821 0.51695 0.0
C1575 C 0.60786 0.97983 0.51624 0.0
H1576 H 0.37761 0.43445 0.69527 0.0
H1577 H 0.32505 0.47778 0.71877 0.0
H1578 H 0.34834 0.39501 0.69815 0.0
H1579 H 0.2954 0.43773 0.72111 0.0
H1580 H 0.24735 0.35212 0.7016 0.0
H1581 H 0.27298 0.39247 0.69263 0.0
H1582 H 0.33098 0.38054 0.73992 0.0
H1583 H 0.30526 0.34098 0.74958 0.0
C1584 C 0.35964 0.43563 0.70058 0.0
C1585 C 0.35382 0.45937 0.70716 0.0
C1586 C 0.34292 0.41297 0.70223 0.0
C1587 C 0.31982 0.41342 0.71014 0.0
C1588 C 0.31317 0.43699 0.71497 0.0
C1589 C 0.33011 0.45985 0.7136 0.0
C1590 C 0.2656 0.35815 0.71001 0.0
C1591 C 0.27447 0.3433 0.72606 0.0
C1592 C 0.28014 0.38122 0.70495 0.0
C1593 C 0.30391 0.38942 0.71549 0.0
C1594 C 0.31277 0.37446 0.73139 0.0
C1595 C 0.29811 0.35179 0.73683 0.0
H1596 H 0.13245 0.60079 0.18955 0.0
H1597 H 0.18266 0.56073 0.22092 0.0
H1598 H 0.16424 0.63921 0.19261 0.0
H1599 H 0.21479 0.59937 0.22364 0.0
H1600 H 0.24489 0.68331 0.26037 0.0
H1601 H 0.22129 0.64017 0.24922 0.0
H1602 H 0.20302 0.66018 0.1792 0.0
H1603 H 0.2262 0.70353 0.19049 0.0
C1604 C 0.15042 0.60005 0.1967 0.0
C1605 C 0.15495 0.5778 0.20527 0.0
C1606 C 0.16874 0.62205 0.19826 0.0
C1607 C 0.19202 0.62235 0.20845 0.0
C1608 C 0.19694 0.59975 0.21592 0.0
C1609 C 0.17858 0.57762 0.21426 0.0
C1610 C 0.23625 0.6784 0.24243 0.0
C1611 C 0.23702 0.69698 0.22648 0.0
C1612 C 0.22284 0.65359 0.23598 0.0
C1613 C 0.21003 0.64688 0.21343 0.0
C1614 C 0.21233 0.66495 0.19687 0.0
C1615 C 0.22566 0.68976 0.20333 0.0
H1616 H 0.51742 0.6859 0.39198 0.0
H1617 H 0.48496 0.71394 0.45429 0.0
H1618 H 0.52951 0.6534 0.41439 0.0
H1619 H 0.49776 0.68234 0.47684 0.0
H1620 H 0.5559 0.60233 0.46486 0.0
H1621 H 0.55329 0.64179 0.44778 0.0
H1622 H 0.48199 0.6374 0.47424 0.0
H1623 H 0.4848 0.59883 0.49159 0.0
C1624 C 0.5134 0.68549 0.4106 0.0
C1625 C 0.4998 0.70202 0.42126 0.0
C1626 C 0.52044 0.66699 0.42349 0.0
C1627 C 0.5142 0.665 0.44728 0.0
C1628 C 0.50228 0.68293 0.45837 0.0
C1629 C 0.49499 0.70106 0.44545 0.0
C1630 C 0.53992 0.61015 0.4674 0.0
C1631 C 0.5205 0.59739 0.47946 0.0
C1632 C 0.53835 0.63261 0.45746 0.0
C1633 C 0.51744 0.64274 0.45962 0.0
C1634 C 0.49854 0.63042 0.47252 0.0
C1635 C 0.50006 0.60809 0.48233 0.0
H1636 H 0.57644 0.28128 0.70466 0.0
H1637 H 0.62231 0.35029 0.68603 0.0
H1638 H 0.60838 0.27692 0.73398 0.0
H1639 H 0.65382 0.34632 0.71588 0.0
H1640 H 0.70049 0.32579 0.78197 0.0
H1641 H 0.6624 0.33583 0.76646 0.0
H1642 H 0.6534 0.2723 0.71152 0.0
H1643 H 0.69156 0.26291 0.72622 0.0
C1644 C 0.59276 0.29623 0.70777 0.0
C1645 C 0.59708 0.31601 0.69303 0.0
C1646 C 0.61102 0.29367 0.72444 0.0
C1647 C 0.63342 0.31127 0.72699 0.0
C1648 C 0.63657 0.33269 0.71432 0.0
C1649 C 0.61859 0.33491 0.69726 0.0
C1650 C 0.6902 0.31397 0.76668 0.0
C1651 C 0.69887 0.29369 0.75518 0.0
C1652 C 0.6685 0.31962 0.75795 0.0
C1653 C 0.65496 0.3045 0.73816 0.0
C1654 C 0.6634 0.2839 0.72709 0.0
C1655 C 0.68529 0.27871 0.73535 0.0
H1656 H 0.00741 0.32815 0.88532 0.0
H1657 H 0.93938 0.31098 0.91896 0.0
H1658 H 0.01305 0.37289 0.90145 0.0
H1659 H 0.94523 0.35532 0.93526 0.0
H1660 H 0.95258 0.44103 0.94511 0.0
H1661 H 0.94639 0.39817 0.92393 0.0
H1662 H 0.02165 0.3974 0.94097 0.0
H1663 H 0.028 0.44006 0.96163 0.0
C1664 C 0.9937 0.33388 0.89611 0.0
C1665 C 0.97304 0.31595 0.90093 0.0
C1666 C 0.99693 0.35948 0.9054 0.0
C1667 C 0.97954 0.36764 0.9196 0.0
C1668 C 0.95876 0.34975 0.9241 0.0
C1669 C 0.95557 0.32425 0.9149 0.0
C1670 C 0.96783 0.43178 0.94418 0.0
C1671 C 0.99072 0.44397 0.95522 0.0
C1672 C 0.96427 0.4072 0.93213 0.0
C1673 C 0.98354 0.39439 0.9308 0.0
C1674 C 0.00651 0.40684 0.94138 0.0
C1675 C 0.01006 0.43129 0.95344 0.0
H1676 H 0.99226 0.78332 0.22398 0.0
H1677 H 0.95723 0.78936 0.15549 0.0
H1678 H 0.95463 0.7851 0.24307 0.0
H1679 H 0.91951 0.79072 0.17452 0.0
H1680 H 0.86219 0.81696 0.21874 0.0
H1681 H 0.9015 0.81812 0.20187 0.0
H1682 H 0.9139 0.75963 0.24512 0.0
H1683 H 0.87476 0.75882 0.2622 0.0
C1684 C 0.97652 0.78492 0.21295 0.0
C1685 C 0.97782 0.78618 0.18816 0.0
C1686 C 0.95489 0.78585 0.22391 0.0
C1687 C 0.934 0.78814 0.21038 0.0
C1688 C 0.93532 0.78936 0.18558 0.0
C1689 C 0.95693 0.78837 0.17461 0.0
C1690 C 0.87349 0.80462 0.22487 0.0
C1691 C 0.86543 0.78782 0.24179 0.0
C1692 C 0.89592 0.8051 0.21504 0.0
C1693 C 0.91082 0.7888 0.22195 0.0
C1694 C 0.90303 0.77259 0.2395 0.0
C1695 C 0.88057 0.77208 0.24928 0.0
H1696 H 0.50515 0.33542 0.10336 0.0
H1697 H 0.46878 0.28999 0.03932 0.0
H1698 H 0.51166 0.37314 0.08217 0.0
H1699 H 0.47607 0.32765 0.01775 0.0
H1700 H 0.47018 0.40737 -0.00391 0.0
H1701 H 0.4643 0.36719 0.01406 0.0
H1702 H 0.53471 0.39271 0.05264 0.0
H1703 H 0.54 0.43291 0.03549 0.0
C1704 C 0.49876 0.33342 0.08467 0.0
C1705 C 0.48647 0.30966 0.07307 0.0
C1706 C 0.50264 0.35507 0.0724 0.0
C1707 C 0.49458 0.35352 0.0481 0.0
C1708 C 0.48231 0.32969 0.03648 0.0
C1709 C 0.47825 0.30804 0.04884 0.0
C1710 C 0.48451 0.40411 0.00809 0.0
C1711 C 0.50544 0.42333 0.01454 0.0
C1712 C 0.48118 0.3811 0.01843 0.0
C1713 C 0.49884 0.3768 0.03521 0.0
C1714 C 0.52037 0.39556 0.04042 0.0
C1715 C 0.52352 0.41856 0.03039 0.0
H1716 H 0.92663 0.24399 0.38563 0.0
H1717 H 0.98076 0.28942 0.3468 0.0
H1718 H 0.89456 0.25363 0.36018 0.0
H1719 H 0.94851 0.3001 0.32172 0.0
H1720 H 0.84241 0.29736 0.33356 0.0
H1721 H 0.87728 0.28944 0.35641 0.0
H1722 H 0.91551 0.28582 0.29172 0.0
H1723 H 0.8809 0.2949 0.26913 0.0
C1724 C 0.93163 0.25587 0.37143 0.0
C1725 C 0.95614 0.26604 0.36823 0.0
C1726 C 0.91326 0.26171 0.35704 0.0
C1727 C 0.9189 0.27827 0.33933 0.0
C1728 C 0.94349 0.28732 0.33521 0.0
C1729 C 0.96198 0.28114 0.34949 0.0
C1730 C 0.85848 0.2954 0.32437 0.0
C1731 C 0.85897 0.29665 0.29963 0.0
C1732 C 0.87836 0.29051 0.33735 0.0
C1733 C 0.89902 0.28632 0.3258 0.0
C1734 C 0.89996 0.28895 0.30122 0.0
C1735 C 0.88014 0.29418 0.28827 0.0
H1736 H 0.98595 0.71467 0.55898 0.0
H1737 H 0.95201 0.655 0.60025 0.0
H1738 H 0.99259 0.68223 0.52783 0.0
H1739 H 0.9591 0.62303 0.56939 0.0
H1740 H 0.02406 0.59072 0.53706 0.0
H1741 H 0.00859 0.62337 0.56077 0.0
H1742 H 0.96635 0.63492 0.4985 0.0
H1743 H 0.98104 0.60105 0.47477 0.0
C1744 C 0.9792 0.69474 0.56108 0.0
C1745 C 0.96889 0.68743 0.58233 0.0
C1746 C 0.98301 0.67625 0.54325 0.0
C1747 C 0.97661 0.65033 0.54654 0.0
C1748 C 0.96429 0.64299 0.56664 0.0
C1749 C 0.96027 0.66134 0.58428 0.0
C1750 C 0.01121 0.59992 0.52849 0.0
C1751 C 0.00322 0.59294 0.50432 0.0
C1752 C 0.0025 0.61867 0.54199 0.0
C1753 C 0.98607 0.63125 0.53143 0.0
C1754 C 0.9789 0.62525 0.50695 0.0
C1755 C 0.98731 0.60602 0.49347 0.0
H1756 H 0.56594 0.78901 0.81478 0.0
H1757 H 0.59778 0.75059 0.86767 0.0
H1758 H 0.59872 0.78473 0.7889 0.0
H1759 H 0.63068 0.74665 0.84195 0.0
H1760 H 0.67704 0.7254 0.78317 0.0
H1761 H 0.64011 0.72546 0.80415 0.0
H1762 H 0.64209 0.80255 0.78848 0.0
H1763 H 0.67864 0.80239 0.76725 0.0
C1764 C 0.5799 0.77963 0.8209 0.0
C1765 C 0.57924 0.77026 0.84338 0.0
C1766 C 0.59874 0.77724 0.80607 0.0
C1767 C 0.61736 0.76532 0.81331 0.0
C1768 C 0.61648 0.75561 0.83564 0.0
C1769 C 0.59769 0.75807 0.85049 0.0
C1770 C 0.66933 0.74218 0.78377 0.0
C1771 C 0.68094 0.76393 0.77359 0.0
C1772 C 0.64829 0.74231 0.79602 0.0
C1773 C 0.63825 0.76411 0.79824 0.0
C1774 C 0.64919 0.78537 0.78702 0.0
C1775 C 0.67026 0.7853 0.7749 0.0
H1776 H 0.48275 0.56201 0.68306 0.0
H1777 H 0.41191 0.54986 0.64605 0.0
H1778 H 0.50184 0.56787 0.64539 0.0
H1779 H 0.43104 0.55523 0.608 0.0
H1780 H 0.4764 0.51473 0.55253 0.0
H1781 H 0.45426 0.52358 0.58739 0.0
H1782 H 0.5083 0.59268 0.60866 0.0
H1783 H 0.53008 0.58426 0.573 0.0
C1784 C 0.47133 0.56159 0.66693 0.0
C1785 C 0.44591 0.55561 0.66741 0.0
C1786 C 0.48224 0.56491 0.64535 0.0
C1787 C 0.46793 0.56175 0.62372 0.0
C1788 C 0.44249 0.55764 0.62442 0.0
C1789 C 0.43155 0.55484 0.64618 0.0
C1790 C 0.48314 0.53226 0.56415 0.0
C1791 C 0.5048 0.54897 0.55985 0.0
C1792 C 0.47045 0.53733 0.58416 0.0
C1793 C 0.47941 0.55896 0.60064 0.0
C1794 C 0.50091 0.57592 0.59618 0.0
C1795 C 0.5134 0.57107 0.57586 0.0
H1796 H 0.79667 0.16961 0.94164 0.0
H1797 H 0.72321 0.18081 0.94535 0.0
H1798 H 0.79855 0.18551 0.90232 0.0
H1799 H 0.72531 0.19704 0.90673 0.0
H1800 H 0.72729 0.20818 0.83001 0.0
H1801 H 0.72739 0.18458 0.86467 0.0
H1802 H 0.79996 0.22746 0.88738 0.0
H1803 H 0.80009 0.2506 0.85202 0.0
C1804 C 0.78088 0.17517 0.93397 0.0
C1805 C 0.75985 0.17412 0.94662 0.0
C1806 C 0.78203 0.18442 0.91159 0.0
C1807 C 0.76211 0.19255 0.90151 0.0
C1808 C 0.74085 0.1906 0.91385 0.0
C1809 C 0.73972 0.18145 0.93611 0.0
C1810 C 0.74332 0.21245 0.84234 0.0
C1811 C 0.76354 0.23142 0.83868 0.0
C1812 C 0.74337 0.19895 0.86216 0.0
C1813 C 0.76357 0.20437 0.87885 0.0
C1814 C 0.78421 0.22274 0.87469 0.0
C1815 C 0.78422 0.23614 0.85466 0.0
H1816 H 0.0963 0.48435 0.13411 0.0
H1817 H 0.0302 0.45769 0.16801 0.0
H1818 H 0.0741 0.47509 0.09514 0.0
H1819 H 0.00794 0.44624 0.12889 0.0
H1820 H 0.97457 0.48474 0.06973 0.0
H1821 H 0.99414 0.47274 0.10481 0.0
H1822 H 0.05079 0.45352 0.06179 0.0
H1823 H 0.03139 0.46697 0.02698 0.0
C1824 C 0.07721 0.4751 0.133 0.0
C1825 C 0.06482 0.47189 0.15385 0.0
C1826 C 0.06435 0.46972 0.11061 0.0
C1827 C 0.03892 0.4606 0.10877 0.0
C1828 C 0.02729 0.45417 0.12963 0.0
C1829 C 0.04004 0.46031 0.15203 0.0
C1830 C 0.99092 0.4774 0.0678 0.0
C1831 C 0.00191 0.47727 0.04605 0.0
C1832 C 0.00215 0.47026 0.08786 0.0
C1833 C 0.0244 0.4624 0.0864 0.0
C1834 C 0.0341 0.46013 0.06385 0.0
C1835 C 0.02306 0.4678 0.04391 0.0
H1836 H 0.79189 0.82117 0.45603 0.0
H1837 H 0.73721 0.86447 0.44297 0.0
H1838 H 0.79104 0.80799 0.41355 0.0
H1839 H 0.73643 0.851 0.39986 0.0
H1840 H 0.72641 0.79546 0.32819 0.0
H1841 H 0.72538 0.81105 0.37027 0.0
H1842 H 0.80382 0.82884 0.37745 0.0
H1843 H 0.80495 0.81314 0.33542 0.0
C1844 C 0.77956 0.82786 0.44412 0.0
C1845 C 0.76467 0.84404 0.45302 0.0
C1846 C 0.77925 0.82039 0.41966 0.0
C1847 C 0.76396 0.82874 0.40329 0.0
C1848 C 0.74844 0.84428 0.41209 0.0
C1849 C 0.74887 0.85197 0.43674 0.0
C1850 C 0.74348 0.80278 0.33868 0.0
C1851 C 0.7658 0.80283 0.32843 0.0
C1852 C 0.74284 0.81189 0.36277 0.0
C1853 C 0.76449 0.82103 0.37722 0.0
C1854 C 0.7868 0.8216 0.36684 0.0
C1855 C 0.78745 0.81269 0.34272 0.0
H1856 H 0.46942 0.52117 0.7887 0.0
H1857 H 0.39748 0.53013 0.80495 0.0
H1858 H 0.47658 0.51028 0.82889 0.0
H1859 H 0.40453 0.51873 0.84549 0.0
H1860 H 0.4404 0.51828 0.92325 0.0
H1861 H 0.42903 0.53086 0.88445 0.0
H1862 H 0.46113 0.47266 0.8489 0.0
H1863 H 0.4729 0.46051 0.88764 0.0
C1864 C 0.45525 0.52121 0.80105 0.0
C1865 C 0.43284 0.52636 0.79362 0.0
C1866 C 0.45923 0.51463 0.824 0.0
C1867 C 0.44086 0.51285 0.84016 0.0
C1868 C 0.41899 0.51975 0.83338 0.0
C1869 C 0.41501 0.52648 0.81026 0.0
C1870 C 0.44453 0.50782 0.90709 0.0
C1871 C 0.45771 0.48853 0.90843 0.0
C1872 C 0.43805 0.51507 0.88488 0.0
C1873 C 0.44467 0.50318 0.86362 0.0
C1874 C 0.45633 0.48268 0.865 0.0
C1875 C 0.46283 0.47548 0.88716 0.0
H1876 H 0.78814 0.24527 0.05744 0.0
H1877 H 0.8147 0.18348 0.08487 0.0
H1878 H 0.79639 0.26965 0.09688 0.0
H1879 H 0.82289 0.20796 0.12439 0.0
H1880 H 0.77458 0.23106 0.18517 0.0
H1881 H 0.78383 0.21485 0.14579 0.0
H1882 H 0.82619 0.28915 0.13585 0.0
H1883 H 0.81738 0.30556 0.17616 0.0
C1884 C 0.79665 0.23734 0.07168 0.0
C1885 C 0.80021 0.21226 0.06836 0.0
C1886 C 0.8015 0.25138 0.09419 0.0
C1887 C 0.80977 0.24038 0.11362 0.0
C1888 C 0.81626 0.21665 0.10959 0.0
C1889 C 0.81165 0.2027 0.087 0.0
C1890 C 0.78596 0.24402 0.17474 0.0
C1891 C 0.79533 0.26957 0.18373 0.0
C1892 C 0.79152 0.23462 0.1523 0.0
C1893 C 0.80625 0.25062 0.13815 0.0
C1894 C 0.81515 0.27641 0.14672 0.0
C1895 C 0.80993 0.28578 0.16956 0.0
H1896 H 0.05765 0.54231 0.28104 0.0
H1897 H 0.09391 0.48019 0.2884 0.0
H1898 H 0.04536 0.54048 0.32149 0.0
H1899 H 0.08076 0.47783 0.32921 0.0
H1900 H 0.07524 0.50574 0.41043 0.0
H1901 H 0.0875 0.50195 0.36919 0.0
H1902 H 0.01768 0.51372 0.34363 0.0
H1903 H 0.00607 0.51855 0.3846 0.0
C1904 C 0.06279 0.52802 0.29122 0.0
C1905 C 0.07666 0.5113 0.28142 0.0
C1906 C 0.05557 0.52686 0.31444 0.0
C1907 C 0.06176 0.50876 0.32849 0.0
C1908 C 0.07578 0.49204 0.31883 0.0
C1909 C 0.08319 0.49332 0.29547 0.0
C1910 C 0.06257 0.50732 0.39588 0.0
C1911 C 0.03993 0.51287 0.40057 0.0
C1912 C 0.06948 0.505 0.37231 0.0
C1913 C 0.05371 0.50796 0.35318 0.0
C1914 C 0.03052 0.51203 0.35799 0.0
C1915 C 0.02381 0.5147 0.38144 0.0
H1916 H 0.74266 0.79907 0.5665 0.0
H1917 H 0.74366 0.87418 0.60127 0.0
H1918 H 0.73389 0.78097 0.60403 0.0
H1919 H 0.7354 0.85605 0.63925 0.0
H1920 H 0.76696 0.81409 0.70103 0.0
H1921 H 0.76399 0.83485 0.66475 0.0
H1922 H 0.70315 0.77458 0.63686 0.0
H1923 H 0.70548 0.75424 0.67377 0.0
C1924 C 0.74037 0.81161 0.58209 0.0
C1925 C 0.74378 0.83801 0.581 0.0
C1926 C 0.73531 0.80124 0.60357 0.0
C1927 C 0.73409 0.8171 0.6246 0.0
C1928 C 0.73632 0.8434 0.62329 0.0
C1929 C 0.74084 0.85374 0.60157 0.0
C1930 C 0.75241 0.8057 0.68757 0.0
C1931 C 0.73624 0.7827 0.69044 0.0
C1932 C 0.75075 0.81758 0.66673 0.0
C1933 C 0.73324 0.80643 0.64802 0.0
C1934 C 0.71678 0.78363 0.65102 0.0
C1935 C 0.71815 0.77199 0.67211 0.0
H1936 H 0.72293 0.47672 0.45593 0.0
H1937 H 0.68881 0.42354 0.50325 0.0
H1938 H 0.69303 0.50266 0.46414 0.0
H1939 H 0.65882 0.44919 0.51111 0.0
H1940 H 0.61929 0.50975 0.53626 0.0
H1941 H 0.65426 0.4902 0.53065 0.0
H1942 H 0.64955 0.49935 0.45522 0.0
H1943 H 0.61494 0.51923 0.46096 0.0
C1944 C 0.70907 0.47055 0.46807 0.0
C1945 C 0.70822 0.448 0.47886 0.0
C1946 C 0.69191 0.48539 0.47272 0.0
C1947 C 0.6736 0.47806 0.48835 0.0
C1948 C 0.67292 0.45563 0.4993 0.0
C1949 C 0.69001 0.44078 0.49461 0.0
C1950 C 0.62609 0.50805 0.51861 0.0
C1951 C 0.61442 0.51592 0.49904 0.0
C1952 C 0.64595 0.49666 0.51534 0.0
C1953 C 0.65451 0.49294 0.49243 0.0
C1954 C 0.64356 0.50208 0.47312 0.0
C1955 C 0.62369 0.51343 0.47639 0.0
H1956 H 0.20844 0.08336 0.4985 0.0
H1957 H 0.17264 0.10822 0.43861 0.0
H1958 H 0.17306 0.04831 0.5 0.0
H1959 H 0.13774 0.07288 0.43968 0.0
H1960 H 0.08708 0.0323 0.51473 0.0
H1961 H 0.1287 0.05513 0.51059 0.0
H1962 H 0.12413 0.02189 0.4371 0.0
H1963 H 0.08262 -0.00167 0.44147 0.0
C1964 C 0.19341 0.08078 0.48514 0.0
C1965 C 0.19319 0.09851 0.46849 0.0
C1966 C 0.17317 0.06085 0.48609 0.0
C1967 C 0.15272 0.05796 0.46997 0.0
C1968 C 0.15335 0.07454 0.45217 0.0
C1969 C 0.17327 0.09479 0.4516 0.0
C1970 C 0.09523 0.02928 0.49793 0.0
C1971 C 0.08168 0.0136 0.47843 0.0
C1972 C 0.11905 0.04226 0.49558 0.0
C1973 C 0.12958 0.04024 0.47353 0.0
C1974 C 0.11641 0.02369 0.4543 0.0
C1975 C 0.09273 0.0102 0.45683 0.0
H1976 H 0.15463 0.91046 0.75302 0.0
H1977 H 0.21713 0.97041 0.77739 0.0
H1978 H 0.18081 0.8805 0.74652 0.0
H1979 H 0.24366 0.94012 0.77053 0.0
H1980 H 0.2753 0.86653 0.78087 0.0
H1981 H 0.25366 0.90139 0.78579 0.0
H1982 H 0.21084 0.87149 0.71959 0.0
H1983 H 0.23201 0.83671 0.71491 0.0
C1984 C 0.17401 0.91734 0.75692 0.0
C1985 C 0.18371 0.94295 0.76568 0.0
C1986 C 0.18911 0.90011 0.753 0.0
C1987 C 0.21444 0.90789 0.75771 0.0
C1988 C 0.22424 0.93346 0.76675 0.0
C1989 C 0.20904 0.95083 0.7706 0.0
C1990 C 0.26163 0.86775 0.76713 0.0
C1991 C 0.25523 0.84863 0.74763 0.0
C1992 C 0.24919 0.88773 0.76996 0.0
C1993 C 0.23013 0.88899 0.75334 0.0
C1994 C 0.22495 0.87078 0.73308 0.0
C1995 C 0.23724 0.85088 0.7303 0.0
H1996 H 0.31395 0.95292 0.9527 0.0
H1997 H 0.34253 0.95416 0.0254 0.0
H1998 H 0.35025 0.98461 0.94506 0.0
H1999 H 0.37807 0.98629 0.01817 0.0
H2000 H 0.43984 0.99009 0.9477 0.0
H2001 H 0.39575 0.97495 0.94675 0.0
H2002 H 0.39229 0.03258 0.00454 0.0
H2003 H 0.43614 0.04797 0.00538 0.0
C2004 C 0.32753 0.96079 0.96725 0.0
C2005 C 0.32568 0.9513 0.98962 0.0
C2006 C 0.34822 0.97875 0.96286 0.0
C2007 C 0.36679 0.98787 0.98105 0.0
C2008 C 0.36384 0.9798 0.00394 0.0
C2009 C 0.34361 0.96141 0.00809 0.0
C2010 C 0.42955 0.00021 0.95948 0.0
C2011 C 0.44144 0.01966 0.97709 0.0
C2012 C 0.40431 0.99162 0.95887 0.0
C2013 C 0.39083 0.00241 0.97586 0.0
C2014 C 0.40239 0.02386 0.99144 0.0
C2015 C 0.42749 0.0325 -0.00803 0.0
H2016 H 0.85068 0.6137 0.81581 0.0
H2017 H 0.8485 0.58157 0.74212 0.0
H2018 H 0.82032 0.63736 0.80505 0.0
H2019 H 0.81729 0.60435 0.73145 0.0
H2020 H 0.7873 0.67538 0.71746 0.0
H2021 H 0.8127 0.64571 0.72615 0.0
H2022 H 0.77941 0.63543 0.79325 0.0
H2023 H 0.75487 0.66615 0.7849 0.0
C2024 C 0.84349 0.61145 0.79734 0.0
C2025 C 0.85215 0.5959 0.77981 0.0
C2026 C 0.82585 0.62485 0.79117 0.0
C2027 C 0.81618 0.6228 0.76733 0.0
C2028 C 0.82453 0.60677 0.7499 0.0
C2029 C 0.84239 0.59361 0.75603 0.0
C2030 C 0.78505 0.66633 0.73381 0.0
C2031 C 0.76921 0.67313 0.75055 0.0
C2032 C 0.79961 0.64924 0.73883 0.0
C2033 C 0.79845 0.63835 0.76062 0.0
C2034 C 0.78131 0.64391 0.77659 0.0
C2035 C 0.76697 0.66125 0.77168 0.0
H2036 H 0.80373 0.59609 0.00013 0.0
H2037 H 0.84854 0.63962 0.95192 0.0
H2038 H 0.83277 0.56852 0.0026 0.0
H2039 H 0.87771 0.61248 0.95474 0.0
H2040 H 0.91587 0.54663 0.94738 0.0
H2041 H 0.88375 0.57031 0.9434 0.0
H2042 H 0.87327 0.56911 0.01892 0.0
H2043 H 0.90505 0.54493 0.02268 0.0
C2044 C 0.81977 0.59982 0.99007 0.0
C2045 C 0.82374 0.62015 0.97584 0.0
C2046 C 0.83651 0.58407 -0.00842 0.0
C2047 C 0.85766 0.58817 0.97885 0.0
C2048 C 0.8615 0.60841 0.96451 0.0
C2049 C 0.8448 0.62416 0.96303 0.0
C2050 C 0.90645 0.55113 0.96305 0.0
C2051 C 0.91296 0.54389 0.98534 0.0
C2052 C 0.88818 0.56493 0.96083 0.0
C2053 C 0.87596 0.57188 0.98087 0.0
C2054 C 0.88205 0.56392 0.00304 0.0
C2055 C 0.90034 0.55011 0.00524 0.0
H2056 H 0.15426 0.11201 0.80295 0.0
H2057 H 0.20932 0.07529 0.77397 0.0
H2058 H 0.17919 0.15346 0.79791 0.0
H2059 H 0.23421 0.117 0.76853 0.0
H2060 H 0.28054 0.19846 0.77956 0.0
H2061 H 0.25765 0.15731 0.78876 0.0
H2062 H 0.19097 0.17685 0.76407 0.0
H2063 H 0.21403 0.21812 0.75514 0.0
C2064 C 0.17182 0.11278 0.79569 0.0
C2065 C 0.17973 0.09029 0.78868 0.0
C2066 C 0.18602 0.13658 0.79262 0.0
C2067 C 0.20849 0.13854 0.78243 0.0
C2068 C 0.217 0.11615 0.77651 0.0
C2069 C 0.20276 0.09224 0.77964 0.0
C2070 C 0.26096 0.19396 0.77618 0.0
C2071 C 0.24895 0.21155 0.76684 0.0
C2072 C 0.24788 0.17034 0.78134 0.0
C2073 C 0.22248 0.16379 0.77725 0.0
C2074 C 0.21049 0.18146 0.76786 0.0
C2075 C 0.22362 0.2051 0.7627 0.0
H2076 H 0.39897 0.95067 0.30055 0.0
H2077 H 0.34252 0.98993 0.28211 0.0
H2078 H 0.3685 0.91175 0.30202 0.0
H2079 H 0.3119 0.95086 0.28395 0.0
H2080 H 0.30922 0.84615 0.31293 0.0
H2081 H 0.3336 0.88953 0.32192 0.0
H2082 H 0.3019 0.91069 0.2576 0.0
H2083 H 0.27738 0.86774 0.24886 0.0
C2084 C 0.38001 0.95112 0.29716 0.0
C2085 C 0.37321 0.97333 0.29086 0.0
C2086 C 0.36251 0.92883 0.29826 0.0
C2087 C 0.33778 0.92819 0.29302 0.0
C2088 C 0.33085 0.95072 0.28783 0.0
C2089 C 0.34839 0.97309 0.28682 0.0
C2090 C 0.30703 0.86025 0.30105 0.0
C2091 C 0.29165 0.85343 0.28 0.0
C2092 C 0.3211 0.88503 0.30612 0.0
C2093 C 0.31988 0.90346 0.29032 0.0
C2094 C 0.30318 0.89704 0.27022 0.0
C2095 C 0.28926 0.87231 0.26511 0.0
H2096 H 0.49964 0.34004 0.59208 0.0
H2097 H 0.57457 0.36782 0.57762 0.0
H2098 H 0.48731 0.36984 0.56641 0.0
H2099 H 0.56258 0.398 0.55307 0.0
H2100 H 0.53799 0.43805 0.49631 0.0
H2101 H 0.54332 0.40127 0.51606 0.0
H2102 H 0.48898 0.41414 0.56481 0.0
H2103 H 0.48278 0.45011 0.54406 0.0
C2104 C 0.51345 0.3526 0.58355 0.0
C2105 C 0.53804 0.35151 0.58676 0.0
C2106 C 0.50642 0.36968 0.56888 0.0
C2107 C 0.52389 0.38612 0.55737 0.0
C2108 C 0.54848 0.38514 0.56098 0.0
C2109 C 0.55543 0.36797 0.57531 0.0
C2110 C 0.52682 0.4326 0.5109 0.0
C2111 C 0.51017 0.44698 0.51885 0.0
C2112 C 0.53 0.41169 0.52238 0.0
C2113 C 0.51706 0.40513 0.54247 0.0
C2114 C 0.49921 0.41855 0.54938 0.0
C2115 C 0.49566 0.4392 0.53752 0.0
H2116 H 0.44312 0.74631 0.29862 0.0
H2117 H 0.39043 0.7084 0.34395 0.0
H2118 H 0.40994 0.75093 0.27084 0.0
H2119 H 0.35763 0.71339 0.31643 0.0
H2120 H 0.32019 0.77756 0.29147 0.0
H2121 H 0.35243 0.76188 0.31134 0.0
H2122 H 0.36665 0.72436 0.24384 0.0
H2123 H 0.33322 0.73919 0.2239 0.0
C2124 C 0.42458 0.73817 0.30224 0.0
C2125 C 0.4194 0.72747 0.32375 0.0
C2126 C 0.40563 0.74084 0.28634 0.0
C2127 C 0.38136 0.73287 0.29182 0.0
C2128 C 0.37625 0.71991 0.31201 0.0
C2129 C 0.39507 0.71708 0.32774 0.0
C2130 C 0.32979 0.76554 0.28092 0.0
C2131 C 0.32385 0.75909 0.25629 0.0
C2132 C 0.34832 0.75668 0.29225 0.0
C2133 C 0.36169 0.74164 0.27912 0.0
C2134 C 0.35639 0.73578 0.25431 0.0
C2135 C 0.33738 0.74427 0.24297 0.0
H2136 H 0.07614 0.72016 0.08079 0.0
H2137 H 0.00548 0.70609 0.10974 0.0
H2138 H 0.06889 0.67612 0.06358 0.0
H2139 H 0.99837 0.66142 0.09263 0.0
H2140 H 0.9846 0.59571 0.03028 0.0
H2141 H 0.99134 0.63776 0.05249 0.0
H2142 H 0.06459 0.63281 0.0738 0.0
H2143 H 0.05806 0.59075 0.05112 0.0
C2144 C 0.05907 0.70762 0.08367 0.0
C2145 C 0.0413 0.71676 0.09656 0.0
C2146 C 0.05504 0.68223 0.07394 0.0
C2147 C 0.03311 0.66522 0.07678 0.0
C2148 C 0.0154 0.67416 0.08997 0.0
C2149 C 0.01948 0.69969 0.09984 0.0
C2150 C 0.00216 0.60346 0.03974 0.0
C2151 C 0.02089 0.58988 0.03868 0.0
C2152 C 0.00592 0.62753 0.05269 0.0
C2153 C 0.02849 0.63867 0.06489 0.0
C2154 C 0.04706 0.62487 0.06433 0.0
C2155 C 0.04331 0.60073 0.05138 0.0
H2156 H 0.03612 0.28994 0.7895 0.0
H2157 H 0.05446 0.23547 0.83463 0.0
H2158 H 0.07429 0.29158 0.77034 0.0
H2159 H 0.09266 0.23734 0.81566 0.0
H2160 H 0.14964 0.22944 0.76217 0.0
H2161 H 0.10922 0.22582 0.77737 0.0
H2162 H 0.11788 0.30757 0.78118 0.0
H2163 H 0.15804 0.31107 0.76581 0.0
C2164 C 0.04826 0.2783 0.79533 0.0
C2165 C 0.04223 0.26264 0.81367 0.0
C2166 C 0.07018 0.27931 0.7844 0.0
C2167 C 0.08654 0.26458 0.79145 0.0
C2168 C 0.08035 0.24868 0.80957 0.0
C2169 C 0.05851 0.24777 0.82059 0.0
C2170 C 0.14273 0.24656 0.76601 0.0
C2171 C 0.15695 0.27053 0.76284 0.0
C2172 C 0.11968 0.24453 0.77487 0.0
C2173 C 0.11035 0.26642 0.78059 0.0
C2174 C 0.12438 0.2903 0.77673 0.0
C2175 C 0.14744 0.29233 0.76802 0.0
H2176 H 0.51766 0.70796 0.98273 0.0
H2177 H 0.54191 0.688 0.91311 0.0
H2178 H 0.52076 0.6665 -0.00558 0.0
H2179 H 0.54493 0.64615 0.9249 0.0
H2180 H 0.50667 0.5654 0.94512 0.0
H2181 H 0.51248 0.6084 0.9335 0.0
H2182 H 0.55017 0.6385 0.00219 0.0
H2183 H 0.54441 0.59531 0.01397 0.0
C2184 C 0.52396 0.6948 0.97001 0.0
C2185 C 0.52935 0.70115 0.94691 0.0
C2186 C 0.5259 0.67111 0.97679 0.0
C2187 C 0.53299 0.65305 0.96055 0.0
C2188 C 0.53926 0.65968 0.93772 0.0
C2189 C 0.53766 0.68364 0.93102 0.0
C2190 C 0.51631 0.58112 0.95777 0.0
C2191 C 0.52483 0.57692 0.98061 0.0
C2192 C 0.51986 0.60575 0.95096 0.0
C2193 C 0.5318 0.6268 0.96691 0.0
C2194 C 0.54079 0.62261 0.98958 0.0
C2195 C 0.53749 0.5979 -0.00369 0.0
H2196 H 0.0522 0.70532 0.66951 0.0
H2197 H 0.07177 0.78431 0.65633 0.0
H2198 H 0.09433 0.7056 0.67968 0.0
H2199 H 0.11444 0.7849 0.66761 0.0
H2200 H 0.19206 0.77037 0.67168 0.0
H2201 H 0.15028 0.76921 0.65674 0.0
H2202 H 0.12338 0.72209 0.71172 0.0
H2203 H 0.16476 0.72256 0.72585 0.0
C2204 C 0.06551 0.72292 0.66903 0.0
C2205 C 0.05852 0.74493 0.66241 0.0
C2206 C 0.08976 0.72308 0.67497 0.0
C2207 C 0.10783 0.74535 0.67483 0.0
C2208 C 0.10101 0.76734 0.66775 0.0
C2209 C 0.07657 0.7671 0.66148 0.0
C2210 C 0.17713 0.75941 0.6802 0.0
C2211 C 0.18161 0.74636 0.69977 0.0
C2212 C 0.15322 0.759 0.67186 0.0
C2213 C 0.1334 0.74557 0.683 0.0
C2214 C 0.1381 0.73225 0.70236 0.0
C2215 C 0.16187 0.73254 0.71055 0.0
H2216 H 0.04644 0.35283 0.41427 0.0
H2217 H 0.03423 0.33404 0.48615 0.0
H2218 H 0.05034 0.39815 0.42818 0.0
H2219 H 0.03801 0.37878 0.5 0.0
H2220 H 0.05188 0.46061 0.5233 0.0
H2221 H 0.06308 0.42164 0.50663 0.0
H2222 H 0.01869 0.42139 0.44185 0.0
H2223 H 0.00796 0.46091 0.45843 0.0
C2224 C 0.04552 0.3585 0.43316 0.0
C2225 C 0.03998 0.34006 0.44918 0.0
C2226 C 0.04744 0.38434 0.44106 0.0
C2227 C 0.04424 0.39201 0.46513 0.0
C2228 C 0.04079 0.37362 0.4814 0.0
C2229 C 0.03857 0.34794 0.47348 0.0
C2230 C 0.04476 0.45239 0.50537 0.0
C2231 C 0.02865 0.46338 0.49231 0.0
C2232 C 0.05121 0.43012 0.49582 0.0
C2233 C 0.04156 0.41826 0.47305 0.0
C2234 C 0.02659 0.43016 0.45938 0.0
C2235 C 0.02022 0.4526 0.46893 0.0
H2236 H 0.41953 0.2839 0.15388 0.0
H2237 H 0.44314 0.24979 0.21448 0.0
H2238 H 0.38594 0.2945 0.17605 0.0
H2239 H 0.41041 0.26108 0.23683 0.0
H2240 H 0.33232 0.31921 0.22721 0.0
H2241 H 0.37118 0.31785 0.20998 0.0
H2242 H 0.36785 0.24335 0.23326 0.0
H2243 H 0.32977 0.24493 0.25077 0.0
C2244 C 0.41792 0.27929 0.17213 0.0
C2245 C 0.43367 0.26562 0.1823 0.0
C2246 C 0.39873 0.28541 0.18488 0.0
C2247 C 0.39518 0.27817 0.20808 0.0
C2248 C 0.41217 0.2663 0.21878 0.0
C2249 C 0.43102 0.25993 0.206 0.0
C2250 C 0.34018 0.30278 0.22903 0.0
C2251 C 0.32789 0.28217 0.24038 0.0
C2252 C 0.36233 0.30192 0.21897 0.0
C2253 C 0.37269 0.28051 0.22021 0.0
C2254 C 0.3607 0.26036 0.23226 0.0
C2255 C 0.33868 0.26119 0.24221 0.0
H2256 H 0.62655 0.49408 0.36007 0.0
H2257 H 0.55811 0.47684 0.31799 0.0
H2258 H 0.60479 0.4884 0.39662 0.0
H2259 H 0.53638 0.47068 0.35422 0.0
H2260 H 0.50404 0.45723 0.42615 0.0
H2261 H 0.52838 0.44779 0.39262 0.0
H2262 H 0.57864 0.51994 0.4121 0.0
H2263 H 0.5539 0.52981 0.44446 0.0
C2264 C 0.60694 0.48782 0.35856 0.0
C2265 C 0.59394 0.48577 0.33633 0.0
C2266 C 0.59448 0.4848 0.37943 0.0
C2267 C 0.56889 0.47932 0.37823 0.0
C2268 C 0.55607 0.4747 0.35569 0.0
C2269 C 0.56849 0.47819 0.33495 0.0
C2270 C 0.52041 0.47089 0.42332 0.0
C2271 C 0.52732 0.49407 0.43816 0.0
C2272 C 0.53438 0.46544 0.40427 0.0
C2273 C 0.55566 0.48291 0.40006 0.0
C2274 C 0.56275 0.50578 0.4153 0.0
C2275 C 0.54857 0.51142 0.43389 0.0
H2276 H 0.25029 0.89489 0.07227 0.0
H2277 H 0.24084 0.81891 0.0361 0.0
H2278 H 0.24393 0.8772 0.11058 0.0
H2279 H 0.2335 0.8011 0.07393 0.0
H2280 H 0.2732 0.78817 0.14309 0.0
H2281 H 0.26595 0.80383 0.10503 0.0
H2282 H 0.21899 0.84917 0.13764 0.0
H2283 H 0.22658 0.83351 0.1762 0.0
C2284 C 0.24576 0.8744 0.07247 0.0
C2285 C 0.24624 0.85813 0.05158 0.0
C2286 C 0.24211 0.86426 0.0943 0.0
C2287 C 0.23879 0.83781 0.09523 0.0
C2288 C 0.2366 0.82157 0.07378 0.0
C2289 C 0.24061 0.83169 0.05216 0.0
C2290 C 0.26122 0.80136 0.14212 0.0
C2291 C 0.25052 0.80975 0.16247 0.0
C2292 C 0.25684 0.81013 0.12028 0.0
C2293 C 0.24162 0.82747 0.11831 0.0
C2294 C 0.23076 0.8358 0.13869 0.0
C2295 C 0.2351 0.82688 0.16066 0.0
H2296 H 0.92501 0.58134 0.85495 0.0
H2297 H 0.99668 0.58595 0.82972 0.0
H2298 H 0.94218 0.58584 0.89627 0.0
H2299 H 0.01385 0.59073 0.87087 0.0
H2300 H 0.03716 0.59031 0.94922 0.0
H2301 H 0.02031 0.60963 0.91623 0.0
H2302 H 0.95848 0.54611 0.90637 0.0
H2303 H 0.97585 0.52638 0.93774 0.0
C2304 C 0.94456 0.58486 0.85827 0.0
C2305 C 0.95951 0.58281 0.83925 0.0
C2306 C 0.95438 0.58729 0.8819 0.0
C2307 C 0.97925 0.58806 0.88666 0.0
C2308 C 0.99464 0.59015 0.86773 0.0
C2309 C 0.9848 0.58736 0.84415 0.0
C2310 C 0.01982 0.58078 0.94013 0.0
C2311 C 0.00753 0.55709 0.94632 0.0
C2312 C 0.01012 0.59191 0.92148 0.0
C2313 C 0.98779 0.57969 0.9092 0.0
C2314 C 0.97528 0.55644 0.91604 0.0
C2315 C 0.98522 0.54511 0.93409 0.0
H2316 H 0.21146 0.18291 0.55785 0.0
H2317 H 0.28946 0.20568 0.558 0.0
H2318 H 0.21324 0.19861 0.59989 0.0
H2319 H 0.29139 0.2233 0.59999 0.0
H2320 H 0.28945 0.23597 0.681 0.0
H2321 H 0.28837 0.21696 0.63977 0.0
H2322 H 0.21804 0.23464 0.62581 0.0
H2323 H 0.21862 0.25197 0.66742 0.0
C2324 C 0.22905 0.19157 0.56692 0.0
C2325 C 0.25032 0.1932 0.55462 0.0
C2326 C 0.23009 0.20087 0.59108 0.0
C2327 C 0.25242 0.21278 0.60358 0.0
C2328 C 0.27383 0.21405 0.59125 0.0
C2329 C 0.2728 0.20408 0.5671 0.0
C2330 C 0.27371 0.2356 0.66908 0.0
C2331 C 0.25404 0.24531 0.67749 0.0
C2332 C 0.27315 0.22487 0.6453 0.0
C2333 C 0.2531 0.22406 0.62913 0.0
C2334 C 0.23356 0.23415 0.63765 0.0
C2335 C 0.2339 0.24431 0.66156 0.0
H2336 H 0.6325 0.49757 0.19792 0.0
H2337 H 0.56784 0.52166 0.21993 0.0
H2338 H 0.61968 0.49917 0.15598 0.0
H2339 H 0.55462 0.52234 0.17839 0.0
H2340 H 0.54958 0.55066 0.10685 0.0
H2341 H 0.56544 0.54848 0.14746 0.0
H2342 H 0.59069 0.48072 0.12302 0.0
H2343 H 0.57565 0.48365 0.08221 0.0
C2344 C 0.61532 0.50264 0.19374 0.0
C2345 C 0.60127 0.50971 0.21214 0.0
C2346 C 0.60798 0.50362 0.16976 0.0
C2347 C 0.58636 0.51143 0.16382 0.0
C2348 C 0.57176 0.51708 0.18229 0.0
C2349 C 0.5792 0.51641 0.20612 0.0
C2350 C 0.55882 0.53554 0.11015 0.0
C2351 C 0.56132 0.51729 0.0915 0.0
C2352 C 0.5677 0.53409 0.13344 0.0
C2353 C 0.57896 0.51412 0.13863 0.0
C2354 C 0.58225 0.49641 0.11969 0.0
C2355 C 0.57358 0.49804 0.09632 0.0
H2356 H 0.22578 0.84845 0.91826 0.0
H2357 H 0.29239 0.8233 0.93297 0.0
H2358 H 0.22058 0.82346 0.8787 0.0
H2359 H 0.28712 0.79895 0.89368 0.0
H2360 H 0.28377 0.81213 0.80934 0.0
H2361 H 0.28312 0.82857 0.85109 0.0
H2362 H 0.2235 0.76635 0.86025 0.0
H2363 H 0.22456 0.74908 0.81816 0.0
C2364 C 0.23904 0.83735 0.91327 0.0
C2365 C 0.25965 0.83814 0.92861 0.0
C2366 C 0.23593 0.82295 0.89081 0.0
C2367 C 0.25342 0.80934 0.88354 0.0
C2368 C 0.27337 0.8092 0.89919 0.0
C2369 C 0.27639 0.82331 0.92157 0.0
C2370 C 0.2708 0.80162 0.82028 0.0
C2371 C 0.25446 0.77913 0.81067 0.0
C2372 C 0.27032 0.81117 0.84405 0.0
C2373 C 0.25322 0.79866 0.85854 0.0
C2374 C 0.23674 0.77621 0.84914 0.0
C2375 C 0.23748 0.76634 0.82527 0.0
H2376 H 0.92814 0.56984 0.70357 0.0
H2377 H 0.96849 0.51126 0.7128 0.0
H2378 H 0.93921 0.57012 0.66184 0.0
H2379 H 0.97928 0.51163 0.67163 0.0
H2380 H 0.96746 0.49507 0.59139 0.0
H2381 H 0.95421 0.4983 0.63196 0.0
H2382 H 0.9788 0.58015 0.63809 0.0
H2383 H 0.99215 0.57692 0.59714 0.0
C2384 C 0.93938 0.55715 0.69678 0.0
C2385 C 0.94729 0.54042 0.71147 0.0
C2386 C 0.94576 0.55739 0.67299 0.0
C2387 C 0.95985 0.54069 0.66354 0.0
C2388 C 0.96808 0.52441 0.67837 0.0
C2389 C 0.96196 0.52432 0.70203 0.0
C2390 C 0.96991 0.51377 0.60132 0.0
C2391 C 0.98105 0.53572 0.59132 0.0
C2392 C 0.96238 0.51561 0.62452 0.0
C2393 C 0.96571 0.53945 0.63817 0.0
C2394 C 0.97599 0.56157 0.62787 0.0
C2395 C 0.98373 0.55971 0.60459 0.0
H2396 H 0.278 0.1738 0.40781 0.0
H2397 H 0.2661 0.24416 0.44347 0.0
H2398 H 0.28476 0.19409 0.37072 0.0
H2399 H 0.27358 0.26456 0.40681 0.0
H2400 H 0.24653 0.23228 0.30937 0.0
H2401 H 0.25118 0.21153 0.34536 0.0
H2402 H 0.30708 0.27611 0.37488 0.0
H2403 H 0.30334 0.29642 0.33806 0.0
C2404 C 0.27765 0.19379 0.40794 0.0
C2405 C 0.2715 0.20741 0.42847 0.0
C2406 C 0.28136 0.20534 0.38672 0.0
C2407 C 0.27965 0.23088 0.38592 0.0
C2408 C 0.2752 0.24493 0.40695 0.0
C2409 C 0.27087 0.23324 0.42791 0.0
C2410 C 0.26043 0.24168 0.3231 0.0
C2411 C 0.27484 0.26579 0.32065 0.0
C2412 C 0.26302 0.22982 0.34378 0.0
C2413 C 0.27963 0.24211 0.36282 0.0
C2414 C 0.29424 0.26616 0.36039 0.0
C2415 C 0.29207 0.27777 0.33936 0.0
H2416 H 0.30067 0.56473 0.47153 0.0
H2417 H 0.34287 0.61465 0.53034 0.0
H2418 H 0.33151 0.539 0.46987 0.0
H2419 H 0.37365 0.58921 0.52847 0.0
H2420 H 0.41591 0.52875 0.53378 0.0
H2421 H 0.38 0.54711 0.53593 0.0
H2422 H 0.37407 0.54395 0.45877 0.0
H2423 H 0.40983 0.52515 0.45665 0.0
C2424 C 0.31646 0.57018 0.48413 0.0
C2425 C 0.31934 0.59177 0.50103 0.0
C2426 C 0.33414 0.55548 0.48312 0.0
C2427 C 0.35495 0.56199 0.49911 0.0
C2428 C 0.35764 0.58342 0.51616 0.0
C2429 C 0.34007 0.59814 0.5171 0.0
C2430 C 0.40662 0.5315 0.51726 0.0
C2431 C 0.41568 0.52572 0.49505 0.0
C2432 C 0.38619 0.54219 0.5185 0.0
C2433 C 0.37442 0.54733 0.49754 0.0
C2434 C 0.38266 0.54011 0.47522 0.0
C2435 C 0.40315 0.52941 0.474 0.0
H2436 H 0.823 0.94767 0.50223 0.0
H2437 H 0.8495 0.92417 0.56772 0.0
H2438 H 0.86307 0.97536 0.49907 0.0
H2439 H 0.8891 0.95241 0.56501 0.0
H2440 H 0.95323 0.01926 0.55857 0.0
H2441 H 0.9099 0.00225 0.56232 0.0
H2442 H 0.90519 0.95805 0.4934 0.0
H2443 H 0.94869 0.97441 0.48993 0.0
C2444 C 0.83709 0.94921 0.5164 0.0
C2445 C 0.83323 0.93392 0.53527 0.0
C2446 C 0.86 0.96484 0.51448 0.0
C2447 C 0.87909 0.9659 0.53177 0.0
C2448 C 0.87462 0.95205 0.55155 0.0
C2449 C 0.852 0.93595 0.55311 0.0
C2450 C 0.94286 0.0062 0.54407 0.0
C2451 C 0.9543 -0.00202 0.52402 0.0
C2452 C 0.91812 -0.00348 0.54624 0.0
C2453 C 0.90428 0.97897 0.52811 0.0
C2454 C 0.91544 0.97179 0.50749 0.0
C2455 C 0.9403 0.98102 0.50556 0.0
H2456 H 0.87646 0.11445 0.23715 0.0
H2457 H 0.8045 0.06614 0.23229 0.0
H2458 H 0.85874 0.1521 0.24062 0.0
H2459 H 0.78686 0.10369 0.23608 0.0
H2460 H 0.76328 0.17697 0.21786 0.0
H2461 H 0.78036 0.13888 0.21456 0.0
H2462 H 0.83743 0.17556 0.26826 0.0
H2463 H 0.82062 0.21362 0.27137 0.0
C2464 C 0.85688 0.11182 0.23687 0.0
C2465 C 0.84197 0.08717 0.23443 0.0
C2466 C 0.84669 0.13345 0.239 0.0
C2467 C 0.82131 0.13103 0.23867 0.0
C2468 C 0.80643 0.10636 0.23613 0.0
C2469 C 0.81661 0.08477 0.2341 0.0
C2470 C 0.77935 0.17685 0.22911 0.0
C2471 C 0.79049 0.19847 0.24488 0.0
C2472 C 0.78915 0.15495 0.22725 0.0
C2473 C 0.81042 0.15411 0.24103 0.0
C2474 C 0.8213 0.1756 0.25706 0.0
C2475 C 0.81148 0.19742 0.25898 0.0
H2476 H 0.71181 0.08116 -0.00295 0.0
H2477 H 0.7082 0.10937 0.07087 0.0
H2478 H 0.67267 0.05232 -0.00222 0.0
H2479 H 0.66999 0.07875 0.07267 0.0
H2480 H 0.59825 0.00854 -0.00221 0.0
H2481 H 0.64212 0.02039 0.00701 0.0
H2482 H 0.63215 0.08126 0.05919 0.0
H2483 H 0.58876 0.06819 0.05111 0.0
C2484 C 0.70312 0.08013 0.01382 0.0
C2485 C 0.71259 0.0976 0.03378 0.0
C2486 C 0.68062 0.06349 0.01435 0.0
C2487 C 0.66754 0.06368 0.03511 0.0
C2488 C 0.67892 0.07882 0.05605 0.0
C2489 C 0.70097 0.09612 0.05521 0.0
C2490 C 0.60559 0.02409 0.01159 0.0
C2491 C 0.59022 0.03773 0.02348 0.0
C2492 C 0.63074 0.03099 0.01683 0.0
C2493 C 0.641 0.05213 0.03358 0.0
C2494 C 0.62526 0.06463 0.04646 0.0
C2495 C 0.60019 0.05732 0.04164 0.0
H2496 H 0.1597 0.44099 0.2104 0.0
H2497 H 0.19217 0.48933 0.2745 0.0
H2498 H 0.1871 0.41268 0.21656 0.0
H2499 H 0.21997 0.46101 0.28047 0.0
H2500 H 0.23794 0.38247 0.29653 0.0
H2501 H 0.21741 0.41735 0.2912 0.0
H2502 H 0.22976 0.41076 0.21581 0.0
H2503 H 0.24973 0.37562 0.22109 0.0
C2504 C 0.17282 0.4457 0.22572 0.0
C2505 C 0.17369 0.46738 0.242 0.0
C2506 C 0.18869 0.42957 0.22914 0.0
C2507 C 0.20584 0.43469 0.24892 0.0
C2508 C 0.20688 0.45649 0.26513 0.0
C2509 C 0.191 0.47273 0.26166 0.0
C2510 C 0.23673 0.38892 0.27897 0.0
C2511 C 0.24516 0.37626 0.25918 0.0
C2512 C 0.22501 0.4089 0.2759 0.0
C2513 C 0.22161 0.41651 0.253 0.0
C2514 C 0.23164 0.40496 0.23358 0.0
C2515 C 0.24324 0.38498 0.23663 0.0
H2516 H 0.20649 0.44186 0.03942 0.0
H2517 H 0.17103 0.39869 0.97397 0.0
H2518 H 0.17648 0.46879 0.03931 0.0
H2519 H 0.14129 0.42537 0.97391 0.0
H2520 H 0.10589 0.49223 0.96679 0.0
H2521 H 0.13875 0.4693 0.9683 0.0
H2522 H 0.13187 0.46571 0.04408 0.0
H2523 H 0.09887 0.48883 0.04253 0.0
C2524 C 0.1924 0.43815 0.02498 0.0
C2525 C 0.19125 0.41807 0.00669 0.0
C2526 C 0.17512 0.45351 0.02499 0.0
C2527 C 0.15649 0.44936 0.00654 0.0
C2528 C 0.15554 0.42939 0.98823 0.0
C2529 C 0.17257 0.41395 0.98835 0.0
C2530 C 0.11156 0.48682 0.98384 0.0
C2531 C 0.09976 0.49234 0.00453 0.0
C2532 C 0.13031 0.47351 0.98468 0.0
C2533 C 0.13787 0.46542 0.00627 0.0
C2534 C 0.12664 0.47177 0.02719 0.0
C2535 C 0.10771 0.48498 0.0263 0.0
H2536 H 0.85177 0.93875 0.18523 0.0
H2537 H 0.82946 0.9728 0.2507 0.0
H2538 H 0.82276 0.89896 0.18888 0.0
H2539 H 0.80077 0.93259 0.25477 0.0
H2540 H 0.79515 0.84568 0.26892 0.0
H2541 H 0.81428 0.88926 0.26221 0.0
H2542 H 0.77621 0.8783 0.19234 0.0
H2543 H 0.75659 0.83479 0.19925 0.0
C2544 C 0.83998 0.93793 0.19994 0.0
C2545 C 0.84263 0.95876 0.2176 0.0
C2546 C 0.82347 0.91518 0.20207 0.0
C2547 C 0.80978 0.91271 0.22222 0.0
C2548 C 0.81125 0.93408 0.23912 0.0
C2549 C 0.8274 0.9571 0.23667 0.0
C2550 C 0.7908 0.85263 0.25219 0.0
C2551 C 0.77448 0.83692 0.23456 0.0
C2552 C 0.80151 0.87761 0.24847 0.0
C2553 C 0.79644 0.88716 0.22689 0.0
C2554 C 0.78024 0.8714 0.20919 0.0
C2555 C 0.76914 0.84656 0.21311 0.0
H2556 H 0.63046 0.1029 0.69108 0.0
H2557 H 0.68353 0.0638 0.71853 0.0
H2558 H 0.66151 0.14175 0.6927 0.0
H2559 H 0.71494 0.10286 0.71969 0.0
H2560 H 0.74563 0.18611 0.75666 0.0
H2561 H 0.72233 0.14296 0.74561 0.0
H2562 H 0.69866 0.16439 0.6779 0.0
H2563 H 0.72156 0.20791 0.6892 0.0
C2564 C 0.64889 0.10245 0.69704 0.0
C2565 C 0.65444 0.08035 0.70502 0.0
C2566 C 0.66679 0.12473 0.69775 0.0
C2567 C 0.6907 0.12546 0.70645 0.0
C2568 C 0.6966 0.10296 0.71317 0.0
C2569 C 0.67864 0.08058 0.7124 0.0
C2570 C 0.73583 0.18158 0.73922 0.0
C2571 C 0.7351 0.20061 0.72401 0.0
C2572 C 0.7226 0.15671 0.73279 0.0
C2573 C 0.7084 0.1503 0.71099 0.0
C2574 C 0.70909 0.16887 0.69502 0.0
C2575 C 0.7223 0.19379 0.70147 0.0
loop_
_geom_bond_atom_site_label_1
_geom_bond_atom_site_label_2
_geom_bond_distance
_geom_bond_site_symmetry_2
_ccdc_geom_bond_type
Zn0 O3 2.036 . S
Zn0 O5 2.049 . S
Zn0 O10 2.067 . S
Zn1 O2 1.962 . S
Zn1 O4 1.986 . S
Zn1 O6 1.996 . S
Zn1 O9 1.943 . S
O2 Zn1 1.962 . S
O2 C7 1.254 . S
O3 Zn0 2.036 . S
O3 C7 1.248 1_655 S
O4 Zn1 1.986 . S
O4 C11 1.262 . S
O5 Zn0 2.049 . S
O5 C13 1.260 1_655 S
O6 Zn1 1.996 . S
O6 C13 1.257 . S
C7 O2 1.254 . S
C7 O3 1.248 1_455 S
C8 O9 1.249 1_655 S
C8 O10 1.270 . S
O9 Zn1 1.943 . S
O9 C8 1.249 1_455 S
O10 Zn0 2.067 . S
O10 C8 1.270 . S
C11 O4 1.262 . S
C11 O12 1.232 . S
O12 C11 1.232 . S
C13 O5 1.260 1_455 S
C13 O6 1.257 . S
Zn14 O17 2.031 1_455 S
Zn14 O19 2.049 . S
Zn14 O24 2.067 . S
Zn15 O16 1.962 1_455 S
Zn15 O18 1.986 . S
Zn15 O20 1.996 . S
Zn15 O23 1.943 . S
O16 Zn15 1.962 1_655 S
O16 C21 1.254 . S
O17 Zn14 2.031 1_655 S
O17 C21 1.269 . S
O18 Zn15 1.986 . S
O18 C25 1.262 . S
O19 Zn14 2.049 . S
O19 C27 1.260 . S
O20 Zn15 1.996 . S
O20 C27 1.257 . S
C21 O16 1.254 . S
C21 O17 1.269 . S
C22 O23 1.249 . S
C22 O24 1.270 . S
O23 Zn15 1.943 . S
O23 C22 1.249 . S
O24 Zn14 2.067 . S
O24 C22 1.270 . S
C25 O18 1.262 . S
C25 O26 1.232 1_455 S
O26 C25 1.232 1_655 S
C27 O19 1.260 . S
C27 O20 1.257 . S
Zn28 O31 2.031 . S
Zn28 O33 2.049 . S
Zn28 O38 2.067 . S
Zn29 O30 1.962 . S
Zn29 O32 1.986 . S
Zn29 O34 1.996 . S
Zn29 O37 1.943 . S
O30 Zn29 1.962 . S
O30 C35 1.254 . S
O31 Zn28 2.031 . S
O31 C35 1.269 . S
O32 Zn29 1.986 . S
O32 C39 1.262 . S
O33 Zn28 2.049 . S
O33 C41 1.260 . S
O34 Zn29 1.996 . S
O34 C41 1.257 . S
C35 O30 1.254 . S
C35 O31 1.269 . S
C36 O37 1.249 . S
C36 O38 1.270 . S
O37 Zn29 1.943 . S
O37 C36 1.249 . S
O38 Zn28 2.067 . S
O38 C36 1.270 . S
C39 O32 1.262 . S
C39 O40 1.232 . S
O40 C39 1.232 . S
C41 O33 1.260 . S
C41 O34 1.257 . S
Zn42 O45 2.031 . S
Zn42 O47 2.049 . S
Zn42 O52 2.067 . S
Zn43 O44 1.962 . S
Zn43 O46 1.986 . S
Zn43 O48 1.996 . S
Zn43 O51 1.943 . S
O44 Zn43 1.962 . S
O44 C49 1.254 . S
O45 Zn42 2.031 . S
O45 C49 1.269 . S
O46 Zn43 1.986 . S
O46 C53 1.262 . S
O47 Zn42 2.049 . S
O47 C55 1.260 . S
O48 Zn43 1.996 . S
O48 C55 1.257 . S
C49 O44 1.254 . S
C49 O45 1.269 . S
C50 O51 1.249 . S
C50 O52 1.270 . S
O51 Zn43 1.943 . S
O51 C50 1.249 . S
O52 Zn42 2.067 . S
O52 C50 1.270 . S
C53 O46 1.262 . S
C53 O54 1.232 . S
O54 C53 1.232 . S
C55 O47 1.260 . S
C55 O48 1.257 . S
Zn56 O59 2.031 . S
Zn56 O61 2.049 . S
Zn56 O66 2.067 . S
Zn57 O58 1.962 . S
Zn57 O60 1.986 1_455 S
Zn57 O62 1.996 . S
Zn57 O65 1.943 . S
O58 Zn57 1.962 . S
O58 C63 1.254 . S
O59 Zn56 2.031 . S
O59 C63 1.269 . S
O60 Zn57 1.986 1_655 S
O60 C67 1.262 . S
O61 Zn56 2.049 . S
O61 C69 1.260 . S
O62 Zn57 1.996 . S
O62 C69 1.257 . S
C63 O58 1.254 . S
C63 O59 1.269 . S
C64 O65 1.249 . S
C64 O66 1.270 . S
O65 Zn57 1.943 . S
O65 C64 1.249 . S
O66 Zn56 2.067 . S
O66 C64 1.270 . S
C67 O60 1.262 . S
C67 O68 1.232 . S
O68 C67 1.232 . S
C69 O61 1.260 . S
C69 O62 1.257 . S
Zn70 O73 2.031 . S
Zn70 O75 2.049 . S
Zn70 O80 2.067 . S
Zn71 O72 1.962 . S
Zn71 O74 1.986 . S
Zn71 O76 1.996 . S
Zn71 O79 1.943 . S
O72 Zn71 1.962 . S
O72 C77 1.254 . S
O73 Zn70 2.031 . S
O73 C77 1.269 . S
O74 Zn71 1.986 . S
O74 C81 1.262 . S
O75 Zn70 2.049 . S
O75 C83 1.260 . S
O76 Zn71 1.996 . S
O76 C83 1.257 . S
C77 O72 1.254 . S
C77 O73 1.269 . S
C78 O79 1.249 . S
C78 O80 1.270 . S
O79 Zn71 1.943 . S
O79 C78 1.249 . S
O80 Zn70 2.067 . S
O80 C78 1.270 . S
C81 O74 1.262 . S
C81 O82 1.232 . S
O82 C81 1.232 . S
C83 O75 1.260 . S
C83 O76 1.257 . S
Zn84 O87 2.031 . S
Zn84 O89 2.049 . S
Zn84 O94 2.067 . S
Zn85 O86 1.962 . S
Zn85 O88 1.986 . S
Zn85 O90 1.996 . S
Zn85 O93 1.943 . S
O86 Zn85 1.962 . S
O86 C91 1.254 . S
O87 Zn84 2.031 . S
O87 C91 1.269 . S
O88 Zn85 1.986 . S
O88 C95 1.262 . S
O89 Zn84 2.049 . S
O89 C97 1.260 . S
O90 Zn85 1.996 . S
O90 C97 1.257 . S
C91 O86 1.254 . S
C91 O87 1.269 . S
C92 O93 1.249 . S
C92 O94 1.270 . S
O93 Zn85 1.943 . S
O93 C92 1.249 . S
O94 Zn84 2.067 . S
O94 C92 1.270 . S
C95 O88 1.262 . S
C95 O96 1.232 . S
O96 C95 1.232 . S
C97 O89 1.260 . S
C97 O90 1.257 . S
Zn98 O101 2.031 . S
Zn98 O103 2.049 . S
Zn98 O108 2.067 . S
Zn99 O100 1.962 . S
Zn99 O102 1.986 . S
Zn99 O104 1.996 . S
Zn99 O107 1.943 1_455 S
O100 Zn99 1.962 . S
O100 C105 1.294 . S
O101 Zn98 2.031 . S
O101 C105 1.232 1_655 S
O102 Zn99 1.986 . S
O102 C109 1.262 . S
O103 Zn98 2.049 . S
O103 C111 1.260 . S
O104 Zn99 1.996 . S
O104 C111 1.257 1_455 S
C105 O100 1.294 . S
C105 O101 1.232 1_455 S
C106 O107 1.249 . S
C106 O108 1.270 . S
O107 Zn99 1.943 1_655 S
O107 C106 1.249 . S
O108 Zn98 2.067 . S
O108 C106 1.270 . S
C109 O102 1.262 . S
C109 O110 1.232 . S
O110 C109 1.232 . S
C111 O103 1.260 . S
C111 O104 1.257 1_655 S
Zn112 O115 2.031 1_565 S
Zn112 O117 2.049 . S
Zn112 O122 2.067 . S
Zn113 O114 1.962 . S
Zn113 O116 1.986 . S
Zn113 O118 1.996 . S
Zn113 O121 1.943 . S
O114 Zn113 1.962 . S
O114 C119 1.254 . S
O115 Zn112 2.031 1_545 S
O115 C119 1.269 . S
O116 Zn113 1.986 . S
O116 C123 1.262 . S
O117 Zn112 2.049 . S
O117 C125 1.260 1_565 S
O118 Zn113 1.996 . S
O118 C125 1.257 . S
C119 O114 1.254 . S
C119 O115 1.269 . S
C120 O121 1.249 1_565 S
C120 O122 1.270 . S
O121 Zn113 1.943 . S
O121 C120 1.249 1_545 S
O122 Zn112 2.067 . S
O122 C120 1.270 . S
C123 O116 1.262 . S
C123 O124 1.232 . S
O124 C123 1.232 . S
C125 O117 1.260 1_545 S
C125 O118 1.257 . S
Zn126 O129 2.031 . S
Zn126 O131 2.049 . S
Zn126 O136 2.067 . S
Zn127 O128 1.962 . S
Zn127 O130 1.986 . S
Zn127 O132 1.996 . S
Zn127 O135 1.943 . S
O128 Zn127 1.962 . S
O128 C133 1.254 . S
O129 Zn126 2.031 . S
O129 C133 1.269 . S
O130 Zn127 1.986 . S
O130 C137 1.262 . S
O131 Zn126 2.049 . S
O131 C139 1.260 . S
O132 Zn127 1.996 . S
O132 C139 1.257 . S
C133 O128 1.254 . S
C133 O129 1.269 . S
C134 O135 1.249 . S
C134 O136 1.270 . S
O135 Zn127 1.943 . S
O135 C134 1.249 . S
O136 Zn126 2.067 . S
O136 C134 1.270 . S
C137 O130 1.262 . S
C137 O138 1.232 . S
O138 C137 1.232 . S
C139 O131 1.260 . S
C139 O132 1.257 . S
Zn140 O143 2.031 . S
Zn140 O145 2.049 . S
Zn140 O150 2.067 . S
Zn141 O142 1.962 . S
Zn141 O144 1.986 . S
Zn141 O146 1.996 . S
Zn141 O149 1.943 1_565 S
O142 Zn141 1.962 . S
O142 C147 1.254 1_565 S
O143 Zn140 2.031 . S
O143 C147 1.269 . S
O144 Zn141 1.986 . S
O144 C151 1.262 . S
O145 Zn140 2.049 . S
O145 C153 1.260 . S
O146 Zn141 1.996 . S
O146 C153 1.257 1_565 S
C147 O142 1.254 1_545 S
C147 O143 1.269 . S
C148 O149 1.249 . S
C148 O150 1.270 . S
O149 Zn141 1.943 1_545 S
O149 C148 1.249 . S
O150 Zn140 2.067 . S
O150 C148 1.270 . S
C151 O144 1.262 . S
C151 O152 1.232 . S
O152 C151 1.232 . S
C153 O145 1.260 . S
C153 O146 1.257 1_545 S
Zn154 O157 2.031 1_554 S
Zn154 O159 2.049 . S
Zn154 O164 2.067 . S
Zn155 O156 1.962 1_554 S
Zn155 O158 1.986 . S
Zn155 O160 1.996 . S
Zn155 O163 1.943 . S
O156 Zn155 1.962 1_556 S
O156 C161 1.254 . S
O157 Zn154 2.031 1_556 S
O157 C161 1.269 . S
O158 Zn155 1.986 . S
O158 C165 1.262 . S
O159 Zn154 2.049 . S
O159 C167 1.260 . S
O160 Zn155 1.996 . S
O160 C167 1.257 . S
C161 O156 1.254 . S
C161 O157 1.269 . S
C162 O163 1.249 . S
C162 O164 1.270 . S
O163 Zn155 1.943 . S
O163 C162 1.249 . S
O164 Zn154 2.067 . S
O164 C162 1.270 . S
C165 O158 1.262 . S
C165 O166 1.232 . S
O166 C165 1.232 . S
C167 O159 1.260 . S
C167 O160 1.257 . S
Zn168 O171 2.031 1_554 S
Zn168 O173 2.049 . S
Zn168 O178 2.067 . S
Zn169 O170 1.962 1_554 S
Zn169 O172 1.986 . S
Zn169 O174 1.996 . S
Zn169 O177 1.943 . S
O170 Zn169 1.962 1_556 S
O170 C175 1.254 . S
O171 Zn168 2.031 1_556 S
O171 C175 1.269 . S
O172 Zn169 1.986 . S
O172 C179 1.262 . S
O173 Zn168 2.049 . S
O173 C181 1.260 . S
O174 Zn169 1.996 . S
O174 C181 1.257 . S
C175 O170 1.254 . S
C175 O171 1.269 . S
C176 O177 1.249 . S
C176 O178 1.270 . S
O177 Zn169 1.943 . S
O177 C176 1.249 . S
O178 Zn168 2.067 . S
O178 C176 1.270 . S
C179 O172 1.262 . S
C179 O180 1.232 1_554 S
O180 C179 1.232 1_556 S
C181 O173 1.260 . S
C181 O174 1.257 . S
Zn182 O185 2.031 1_554 S
Zn182 O187 2.049 . S
Zn182 O192 2.067 . S
Zn183 O184 1.924 1_554 S
Zn183 O186 2.006 . S
Zn183 O188 2.027 . S
Zn183 O191 1.950 1_554 S
O184 Zn183 1.924 1_556 S
O184 C189 1.254 . S
O185 Zn182 2.031 1_556 S
O185 C189 1.269 . S
O186 Zn183 2.006 . S
O186 C193 1.245 1_554 S
O187 Zn182 2.049 . S
O187 C195 1.260 . S
O188 Zn183 2.027 . S
O188 C195 1.257 . S
C189 O184 1.254 . S
C189 O185 1.269 . S
C190 O191 1.244 1_554 S
C190 O192 1.279 . S
O191 Zn183 1.950 1_556 S
O191 C190 1.244 1_556 S
O192 Zn182 2.067 . S
O192 C190 1.279 . S
C193 O186 1.245 1_556 S
C193 O194 1.253 . S
O194 C193 1.253 . S
C195 O187 1.260 . S
C195 O188 1.257 . S
Zn196 O199 2.031 . S
Zn196 O201 2.049 . S
Zn196 O206 2.067 . S
Zn197 O198 1.962 . S
Zn197 O200 1.986 . S
Zn197 O202 1.996 . S
Zn197 O205 1.943 . S
O198 Zn197 1.962 . S
O198 C203 1.254 . S
O199 Zn196 2.031 . S
O199 C203 1.269 . S
O200 Zn197 1.986 . S
O200 C207 1.262 . S
O201 Zn196 2.049 . S
O201 C209 1.260 . S
O202 Zn197 1.996 . S
O202 C209 1.257 . S
C203 O198 1.254 . S
C203 O199 1.269 . S
C204 O205 1.249 . S
C204 O206 1.270 . S
O205 Zn197 1.943 . S
O205 C204 1.249 . S
O206 Zn196 2.067 . S
O206 C204 1.270 . S
C207 O200 1.262 . S
C207 O208 1.232 . S
O208 C207 1.232 . S
C209 O201 1.260 . S
C209 O202 1.257 . S
Zn210 O213 2.031 . S
Zn210 O215 2.049 . S
Zn210 O220 2.067 . S
Zn211 O212 1.962 . S
Zn211 O214 1.986 . S
Zn211 O216 1.996 . S
Zn211 O219 1.943 . S
O212 Zn211 1.962 . S
O212 C217 1.254 . S
O213 Zn210 2.031 . S
O213 C217 1.269 . S
O214 Zn211 1.986 . S
O214 C221 1.262 . S
O215 Zn210 2.049 . S
O215 C223 1.260 . S
O216 Zn211 1.996 . S
O216 C223 1.257 . S
C217 O212 1.254 . S
C217 O213 1.269 . S
C218 O219 1.249 . S
C218 O220 1.270 . S
O219 Zn211 1.943 . S
O219 C218 1.249 . S
O220 Zn210 2.067 . S
O220 C218 1.270 . S
C221 O214 1.262 . S
C221 O222 1.232 . S
O222 C221 1.232 . S
C223 O215 1.260 . S
C223 O216 1.257 . S
Zn224 O227 2.031 . S
Zn224 O229 2.049 . S
Zn224 O234 2.067 1_545 S
Zn225 O226 1.962 . S
Zn225 O228 1.986 . S
Zn225 O230 1.996 . S
Zn225 O233 1.943 . S
O226 Zn225 1.962 . S
O226 C231 1.254 . S
O227 Zn224 2.031 . S
O227 C231 1.269 . S
O228 Zn225 1.986 . S
O228 C235 1.262 . S
O229 Zn224 2.049 . S
O229 C237 1.260 . S
O230 Zn225 1.996 . S
O230 C237 1.257 . S
C231 O226 1.254 . S
C231 O227 1.269 . S
C232 O233 1.249 . S
C232 O234 1.270 1_545 S
O233 Zn225 1.943 . S
O233 C232 1.249 . S
O234 Zn224 2.067 1_565 S
O234 C232 1.270 1_565 S
C235 O228 1.262 . S
C235 O236 1.232 . S
O236 C235 1.232 . S
C237 O229 1.260 . S
C237 O230 1.257 . S
Zn238 O241 2.031 . S
Zn238 O243 2.049 . S
Zn238 O248 2.067 . S
Zn239 O240 1.962 . S
Zn239 O242 1.986 . S
Zn239 O244 1.996 . S
Zn239 O247 1.943 . S
O240 Zn239 1.962 . S
O240 C245 1.254 . S
O241 Zn238 2.031 . S
O241 C245 1.269 . S
O242 Zn239 1.986 . S
O242 C249 1.262 . S
O243 Zn238 2.049 . S
O243 C251 1.260 . S
O244 Zn239 1.996 . S
O244 C251 1.257 . S
C245 O240 1.254 . S
C245 O241 1.269 . S
C246 O247 1.249 . S
C246 O248 1.270 . S
O247 Zn239 1.943 . S
O247 C246 1.249 . S
O248 Zn238 2.067 . S
O248 C246 1.270 . S
C249 O242 1.262 . S
C249 O250 1.232 . S
O250 C249 1.232 . S
C251 O243 1.260 . S
C251 O244 1.257 . S
Zn252 O255 2.031 . S
Zn252 O257 2.049 . S
Zn252 O262 2.067 . S
Zn253 O254 1.962 . S
Zn253 O256 1.986 . S
Zn253 O258 1.996 . S
Zn253 O261 1.943 . S
O254 Zn253 1.962 . S
O254 C259 1.254 . S
O255 Zn252 2.031 . S
O255 C259 1.269 . S
O256 Zn253 1.986 . S
O256 C263 1.262 . S
O257 Zn252 2.049 . S
O257 C265 1.260 . S
O258 Zn253 1.996 . S
O258 C265 1.257 . S
C259 O254 1.254 . S
C259 O255 1.269 . S
C260 O261 1.249 . S
C260 O262 1.270 . S
O261 Zn253 1.943 . S
O261 C260 1.249 . S
O262 Zn252 2.067 . S
O262 C260 1.270 . S
C263 O256 1.262 . S
C263 O264 1.232 . S
O264 C263 1.232 . S
C265 O257 1.260 . S
C265 O258 1.257 . S
Zn266 O269 2.031 . S
Zn266 O271 2.049 . S
Zn266 O276 2.067 . S
Zn267 O268 1.962 . S
Zn267 O270 1.986 1_545 S
Zn267 O272 1.996 . S
Zn267 O275 1.943 . S
O268 Zn267 1.962 . S
O268 C273 1.254 . S
O269 Zn266 2.031 . S
O269 C273 1.269 . S
O270 Zn267 1.986 1_565 S
O270 C277 1.262 . S
O271 Zn266 2.049 . S
O271 C279 1.260 . S
O272 Zn267 1.996 . S
O272 C279 1.257 . S
C273 O268 1.254 . S
C273 O269 1.269 . S
C274 O275 1.249 . S
C274 O276 1.270 . S
O275 Zn267 1.943 . S
O275 C274 1.249 . S
O276 Zn266 2.067 . S
O276 C274 1.270 . S
C277 O270 1.262 . S
C277 O278 1.232 . S
O278 C277 1.232 . S
C279 O271 1.260 . S
C279 O272 1.257 . S
Zn280 O283 2.031 1_554 S
Zn280 O285 2.049 . S
Zn280 O290 2.067 . S
Zn281 O282 1.962 1_554 S
Zn281 O284 1.986 . S
Zn281 O286 1.996 . S
Zn281 O289 1.943 . S
O282 Zn281 1.962 1_556 S
O282 C287 1.254 . S
O283 Zn280 2.031 1_556 S
O283 C287 1.269 . S
O284 Zn281 1.986 . S
O284 C291 1.262 . S
O285 Zn280 2.049 . S
O285 C293 1.260 . S
O286 Zn281 1.996 . S
O286 C293 1.257 . S
C287 O282 1.254 . S
C287 O283 1.269 . S
C288 O289 1.249 . S
C288 O290 1.270 . S
O289 Zn281 1.943 . S
O289 C288 1.249 . S
O290 Zn280 2.067 . S
O290 C288 1.270 . S
C291 O284 1.262 . S
C291 O292 1.232 1_554 S
O292 C291 1.232 1_556 S
C293 O285 1.260 . S
C293 O286 1.257 . S
Zn294 O297 2.031 . S
Zn294 O299 2.049 . S
Zn294 O304 2.067 . S
Zn295 O296 1.962 . S
Zn295 O298 1.986 . S
Zn295 O300 1.996 . S
Zn295 O303 1.943 . S
O296 Zn295 1.962 . S
O296 C301 1.254 . S
O297 Zn294 2.031 . S
O297 C301 1.269 . S
O298 Zn295 1.986 . S
O298 C305 1.262 . S
O299 Zn294 2.049 . S
O299 C307 1.260 . S
O300 Zn295 1.996 . S
O300 C307 1.257 . S
C301 O296 1.254 . S
C301 O297 1.269 . S
C302 O303 1.249 . S
C302 O304 1.270 . S
O303 Zn295 1.943 . S
O303 C302 1.249 . S
O304 Zn294 2.067 . S
O304 C302 1.270 . S
C305 O298 1.262 . S
C305 O306 1.232 . S
O306 C305 1.232 . S
C307 O299 1.260 . S
C307 O300 1.257 . S
Zn308 O311 2.031 . S
Zn308 O313 2.049 . S
Zn308 O318 2.067 . S
Zn309 O310 1.962 . S
Zn309 O312 1.986 . S
Zn309 O314 1.996 . S
Zn309 O317 1.943 . S
O310 Zn309 1.962 . S
O310 C315 1.254 . S
O311 Zn308 2.031 . S
O311 C315 1.269 . S
O312 Zn309 1.986 . S
O312 C319 1.262 . S
O313 Zn308 2.049 . S
O313 C321 1.260 . S
O314 Zn309 1.996 . S
O314 C321 1.257 . S
C315 O310 1.254 . S
C315 O311 1.269 . S
C316 O317 1.249 . S
C316 O318 1.270 . S
O317 Zn309 1.943 . S
O317 C316 1.249 . S
O318 Zn308 2.067 . S
O318 C316 1.270 . S
C319 O312 1.262 . S
C319 O320 1.232 . S
O320 C319 1.232 . S
C321 O313 1.260 . S
C321 O314 1.257 . S
Zn322 O325 2.031 . S
Zn322 O327 2.049 . S
Zn322 O332 2.067 . S
Zn323 O324 1.962 . S
Zn323 O326 1.986 . S
Zn323 O328 1.996 . S
Zn323 O331 1.943 . S
O324 Zn323 1.962 . S
O324 C329 1.254 . S
O325 Zn322 2.031 . S
O325 C329 1.269 . S
O326 Zn323 1.986 . S
O326 C333 1.262 . S
O327 Zn322 2.049 . S
O327 C335 1.260 . S
O328 Zn323 1.996 . S
O328 C335 1.257 . S
C329 O324 1.254 . S
C329 O325 1.269 . S
C330 O331 1.249 . S
C330 O332 1.270 . S
O331 Zn323 1.943 . S
O331 C330 1.249 . S
O332 Zn322 2.067 . S
O332 C330 1.270 . S
C333 O326 1.262 . S
C333 O334 1.232 . S
O334 C333 1.232 . S
C335 O327 1.260 . S
C335 O328 1.257 . S
Dy336 O340 2.424 . S
Dy336 O341 2.482 1_556 S
Dy336 O342 2.444 . S
Dy336 O343 2.676 1_655 S
Dy336 O347 2.341 1_655 S
Dy336 O351 2.275 1_656 S
Dy336 O352 2.335 1_546 S
C337 O348 1.185 . S
C337 O349 1.355 . S
C338 O340 1.185 . S
C338 O341 1.355 1_556 S
Dy339 O343 2.310 1_554 S
Dy339 O346 2.351 . S
Dy339 O348 2.398 . S
Dy339 O349 2.491 . S
Dy339 O350 2.403 . S
Dy339 O351 2.664 . S
Dy339 O353 2.326 1_545 S
O340 Dy336 2.424 . S
O340 C338 1.185 . S
O341 Dy336 2.482 1_554 S
O341 C338 1.355 1_554 S
O342 Dy336 2.444 . S
O342 C344 1.254 1_655 S
O343 Dy336 2.676 1_455 S
O343 Dy339 2.310 1_556 S
O343 C344 1.268 . S
C344 O342 1.254 1_455 S
C344 O343 1.268 . S
C345 O350 1.254 . S
C345 O351 1.268 . S
O346 Dy339 2.351 . S
O346 C354 1.249 . S
O347 Dy336 2.341 1_455 S
O347 C354 1.267 1_556 S
O348 C337 1.185 . S
O348 Dy339 2.398 . S
O349 C337 1.355 . S
O349 Dy339 2.491 . S
O350 Dy339 2.403 . S
O350 C345 1.254 . S
O351 Dy336 2.275 1_454 S
O351 Dy339 2.664 . S
O351 C345 1.268 . S
O352 Dy336 2.335 1_564 S
O352 C355 1.249 1_655 S
O353 Dy339 2.326 1_565 S
O353 C355 1.267 . S
C354 O346 1.249 . S
C354 O347 1.267 1_554 S
C355 O352 1.249 1_455 S
C355 O353 1.267 . S
Dy356 O360 2.398 . S
Dy356 O361 2.491 . S
Dy356 O362 2.403 . S
Dy356 O363 2.664 . S
Dy356 O367 2.326 . S
Dy356 O371 2.310 . S
Dy356 O372 2.351 . S
C357 O368 1.185 . S
C357 O369 1.355 . S
C358 O360 1.185 . S
C358 O361 1.355 . S
Dy359 O363 2.310 . S
Dy359 O366 2.351 . S
Dy359 O368 2.398 . S
Dy359 O369 2.491 . S
Dy359 O370 2.403 . S
Dy359 O371 2.664 . S
Dy359 O373 2.326 . S
O360 Dy356 2.398 . S
O360 C358 1.185 . S
O361 Dy356 2.491 . S
O361 C358 1.355 . S
O362 Dy356 2.403 . S
O362 C364 1.254 . S
O363 Dy356 2.664 . S
O363 Dy359 2.310 . S
O363 C364 1.268 . S
C364 O362 1.254 . S
C364 O363 1.268 . S
C365 O370 1.254 . S
C365 O371 1.268 . S
O366 Dy359 2.351 . S
O366 C374 1.249 . S
O367 Dy356 2.326 . S
O367 C374 1.267 . S
O368 C357 1.185 . S
O368 Dy359 2.398 . S
O369 C357 1.355 . S
O369 Dy359 2.491 . S
O370 Dy359 2.403 . S
O370 C365 1.254 . S
O371 Dy356 2.310 . S
O371 Dy359 2.664 . S
O371 C365 1.268 . S
O372 Dy356 2.351 . S
O372 C375 1.249 . S
O373 Dy359 2.326 . S
O373 C375 1.267 . S
C374 O366 1.249 . S
C374 O367 1.267 . S
C375 O372 1.249 . S
C375 O373 1.267 . S
Dy376 O380 2.398 . S
Dy376 O381 2.491 1_545 S
Dy376 O382 2.403 . S
Dy376 O383 2.664 . S
Dy376 O387 2.326 1_545 S
Dy376 O391 2.310 . S
Dy376 O392 2.351 . S
C377 O388 1.185 . S
C377 O389 1.355 . S
C378 O380 1.185 1_565 S
C378 O381 1.355 . S
Dy379 O383 2.310 . S
Dy379 O386 2.351 1_545 S
Dy379 O388 2.398 . S
Dy379 O389 2.491 . S
Dy379 O390 2.403 . S
Dy379 O391 2.664 . S
Dy379 O393 2.326 . S
O380 Dy376 2.398 . S
O380 C378 1.185 1_545 S
O381 Dy376 2.491 1_565 S
O381 C378 1.355 . S
O382 Dy376 2.403 . S
O382 C384 1.254 . S
O383 Dy376 2.664 . S
O383 Dy379 2.310 . S
O383 C384 1.268 . S
C384 O382 1.254 . S
C384 O383 1.268 . S
C385 O390 1.254 . S
C385 O391 1.268 . S
O386 Dy379 2.351 1_565 S
O386 C394 1.249 . S
O387 Dy376 2.326 1_565 S
O387 C394 1.267 . S
O388 C377 1.185 . S
O388 Dy379 2.398 . S
O389 C377 1.355 . S
O389 Dy379 2.491 . S
O390 Dy379 2.403 . S
O390 C385 1.254 . S
O391 Dy376 2.310 . S
O391 Dy379 2.664 . S
O391 C385 1.268 . S
O392 Dy376 2.351 . S
O392 C395 1.249 . S
O393 Dy379 2.326 . S
O393 C395 1.267 . S
C394 O386 1.249 . S
C394 O387 1.267 . S
C395 O392 1.249 . S
C395 O393 1.267 . S
Dy396 O400 2.398 . S
Dy396 O401 2.491 . S
Dy396 O402 2.403 . S
Dy396 O403 2.664 . S
Dy396 O407 2.326 . S
Dy396 O411 2.310 . S
Dy396 O412 2.351 . S
C397 O408 1.185 . S
C397 O409 1.355 . S
C398 O400 1.185 . S
C398 O401 1.355 . S
Dy399 O403 2.310 . S
Dy399 O406 2.351 . S
Dy399 O408 2.398 . S
Dy399 O409 2.491 . S
Dy399 O410 2.403 . S
Dy399 O411 2.664 . S
Dy399 O413 2.326 . S
O400 Dy396 2.398 . S
O400 C398 1.185 . S
O401 Dy396 2.491 . S
O401 C398 1.355 . S
O402 Dy396 2.403 . S
O402 C404 1.254 . S
O403 Dy396 2.664 . S
O403 Dy399 2.310 . S
O403 C404 1.268 . S
C404 O402 1.254 . S
C404 O403 1.268 . S
C405 O410 1.254 . S
C405 O411 1.268 . S
O406 Dy399 2.351 . S
O406 C414 1.249 . S
O407 Dy396 2.326 . S
O407 C414 1.267 . S
O408 C397 1.185 . S
O408 Dy399 2.398 . S
O409 C397 1.355 . S
O409 Dy399 2.491 . S
O410 Dy399 2.403 . S
O410 C405 1.254 . S
O411 Dy396 2.310 . S
O411 Dy399 2.664 . S
O411 C405 1.268 . S
O412 Dy396 2.351 . S
O412 C415 1.249 . S
O413 Dy399 2.326 . S
O413 C415 1.267 . S
C414 O406 1.249 . S
C414 O407 1.267 . S
C415 O412 1.249 . S
C415 O413 1.267 . S
Dy416 O420 2.398 . S
Dy416 O421 2.491 1_455 S
Dy416 O422 2.403 . S
Dy416 O423 2.664 . S
Dy416 O427 2.326 . S
Dy416 O431 2.310 1_455 S
Dy416 O432 2.351 1_545 S
C417 O428 1.185 . S
C417 O429 1.355 . S
C418 O420 1.185 1_655 S
C418 O421 1.355 . S
Dy419 O423 2.310 . S
Dy419 O426 2.351 . S
Dy419 O428 2.398 . S
Dy419 O429 2.491 . S
Dy419 O430 2.403 1_455 S
Dy419 O431 2.664 1_455 S
Dy419 O433 2.326 1_545 S
O420 Dy416 2.398 . S
O420 C418 1.185 1_455 S
O421 Dy416 2.491 1_655 S
O421 C418 1.355 . S
O422 Dy416 2.403 . S
O422 C424 1.254 . S
O423 Dy416 2.664 . S
O423 Dy419 2.310 . S
O423 C424 1.268 . S
C424 O422 1.254 . S
C424 O423 1.268 . S
C425 O430 1.254 . S
C425 O431 1.268 . S
O426 Dy419 2.351 . S
O426 C434 1.249 . S
O427 Dy416 2.326 . S
O427 C434 1.267 . S
O428 C417 1.185 . S
O428 Dy419 2.398 . S
O429 C417 1.355 . S
O429 Dy419 2.491 . S
O430 Dy419 2.403 1_655 S
O430 C425 1.254 . S
O431 Dy416 2.310 1_655 S
O431 Dy419 2.664 1_655 S
O431 C425 1.268 . S
O432 Dy416 2.351 1_565 S
O432 C435 1.249 . S
O433 Dy419 2.326 1_565 S
O433 C435 1.267 . S
C434 O426 1.249 . S
C434 O427 1.267 . S
C435 O432 1.249 . S
C435 O433 1.267 . S
Dy436 O440 2.398 . S
Dy436 O441 2.491 . S
Dy436 O442 2.403 . S
Dy436 O443 2.664 . S
Dy436 O447 2.326 . S
Dy436 O451 2.310 . S
Dy436 O452 2.351 . S
C437 O448 1.185 . S
C437 O449 1.355 . S
C438 O440 1.185 . S
C438 O441 1.355 . S
Dy439 O443 2.310 . S
Dy439 O446 2.351 . S
Dy439 O448 2.398 . S
Dy439 O449 2.491 . S
Dy439 O450 2.403 . S
Dy439 O451 2.664 . S
Dy439 O453 2.326 . S
O440 Dy436 2.398 . S
O440 C438 1.185 . S
O441 Dy436 2.491 . S
O441 C438 1.355 . S
O442 Dy436 2.403 . S
O442 C444 1.254 . S
O443 Dy436 2.664 . S
O443 Dy439 2.310 . S
O443 C444 1.268 . S
C444 O442 1.254 . S
C444 O443 1.268 . S
C445 O450 1.254 . S
C445 O451 1.268 . S
O446 Dy439 2.351 . S
O446 C454 1.249 . S
O447 Dy436 2.326 . S
O447 C454 1.267 . S
O448 C437 1.185 . S
O448 Dy439 2.398 . S
O449 C437 1.355 . S
O449 Dy439 2.491 . S
O450 Dy439 2.403 . S
O450 C445 1.254 . S
O451 Dy436 2.310 . S
O451 Dy439 2.664 . S
O451 C445 1.268 . S
O452 Dy436 2.351 . S
O452 C455 1.249 . S
O453 Dy439 2.326 . S
O453 C455 1.267 . S
C454 O446 1.249 . S
C454 O447 1.267 . S
C455 O452 1.249 . S
C455 O453 1.267 . S
Dy456 O460 2.398 1_545 S
Dy456 O461 2.491 . S
Dy456 O462 2.403 1_545 S
Dy456 O463 2.664 1_554 S
Dy456 O467 2.326 . S
Dy456 O471 2.310 . S
Dy456 O472 2.351 . S
C457 O468 1.185 . S
C457 O469 1.355 . S
C458 O460 1.185 1_545 S
C458 O461 1.355 . S
Dy459 O463 2.310 . S
Dy459 O466 2.351 . S
Dy459 O468 2.398 . S
Dy459 O469 2.491 . S
Dy459 O470 2.403 . S
Dy459 O471 2.664 1_556 S
Dy459 O473 2.326 . S
O460 Dy456 2.398 1_565 S
O460 C458 1.185 1_565 S
O461 Dy456 2.491 . S
O461 C458 1.355 . S
O462 Dy456 2.403 1_565 S
O462 C464 1.254 1_554 S
O463 Dy456 2.664 1_556 S
O463 Dy459 2.310 . S
O463 C464 1.268 1_545 S
C464 O462 1.254 1_556 S
C464 O463 1.268 1_565 S
C465 O470 1.254 1_554 S
C465 O471 1.268 . S
O466 Dy459 2.351 . S
O466 C474 1.249 1_556 S
O467 Dy456 2.326 . S
O467 C474 1.267 . S
O468 C457 1.185 . S
O468 Dy459 2.398 . S
O469 C457 1.355 . S
O469 Dy459 2.491 . S
O470 Dy459 2.403 . S
O470 C465 1.254 1_556 S
O471 Dy456 2.310 . S
O471 Dy459 2.664 1_554 S
O471 C465 1.268 . S
O472 Dy456 2.351 . S
O472 C475 1.249 . S
O473 Dy459 2.326 . S
O473 C475 1.267 1_556 S
C474 O466 1.249 1_554 S
C474 O467 1.267 . S
C475 O472 1.249 . S
C475 O473 1.267 1_554 S
Dy476 O480 2.398 . S
Dy476 O481 2.491 . S
Dy476 O482 2.403 . S
Dy476 O483 2.664 . S
Dy476 O487 2.326 . S
Dy476 O491 2.310 . S
Dy476 O492 2.351 . S
C477 O488 1.185 . S
C477 O489 1.355 . S
C478 O480 1.185 . S
C478 O481 1.355 . S
Dy479 O483 2.310 . S
Dy479 O486 2.351 . S
Dy479 O488 2.398 . S
Dy479 O489 2.491 . S
Dy479 O490 2.403 . S
Dy479 O491 2.664 . S
Dy479 O493 2.326 . S
O480 Dy476 2.398 . S
O480 C478 1.185 . S
O481 Dy476 2.491 . S
O481 C478 1.355 . S
O482 Dy476 2.403 . S
O482 C484 1.254 . S
O483 Dy476 2.664 . S
O483 Dy479 2.310 . S
O483 C484 1.268 . S
C484 O482 1.254 . S
C484 O483 1.268 . S
C485 O490 1.254 . S
C485 O491 1.268 . S
O486 Dy479 2.351 . S
O486 C494 1.249 . S
O487 Dy476 2.326 . S
O487 C494 1.267 . S
O488 C477 1.185 . S
O488 Dy479 2.398 . S
O489 C477 1.355 . S
O489 Dy479 2.491 . S
O490 Dy479 2.403 . S
O490 C485 1.254 . S
O491 Dy476 2.310 . S
O491 Dy479 2.664 . S
O491 C485 1.268 . S
O492 Dy476 2.351 . S
O492 C495 1.249 . S
O493 Dy479 2.326 . S
O493 C495 1.267 . S
C494 O486 1.249 . S
C494 O487 1.267 . S
C495 O492 1.249 . S
C495 O493 1.267 . S
Dy496 O500 2.398 . S
Dy496 O501 2.491 . S
Dy496 O502 2.403 . S
Dy496 O503 2.664 1_556 S
Dy496 O507 2.326 . S
Dy496 O511 2.283 1_556 S
Dy496 O512 2.351 . S
C497 O508 1.185 . S
C497 O509 1.355 . S
C498 O500 1.185 . S
C498 O501 1.355 . S
Dy499 O503 2.310 . S
Dy499 O506 2.351 . S
Dy499 O508 2.398 . S
Dy499 O509 2.491 . S
Dy499 O510 2.403 . S
Dy499 O511 2.690 . S
Dy499 O513 2.326 . S
O500 Dy496 2.398 . S
O500 C498 1.185 . S
O501 Dy496 2.491 . S
O501 C498 1.355 . S
O502 Dy496 2.403 . S
O502 C504 1.254 . S
O503 Dy496 2.664 1_554 S
O503 Dy499 2.310 . S
O503 C504 1.268 1_554 S
C504 O502 1.254 . S
C504 O503 1.268 1_556 S
C505 O510 1.254 . S
C505 O511 1.292 . S
O506 Dy499 2.351 . S
O506 C514 1.249 1_554 S
O507 Dy496 2.326 . S
O507 C514 1.267 . S
O508 C497 1.185 . S
O508 Dy499 2.398 . S
O509 C497 1.355 . S
O509 Dy499 2.491 . S
O510 Dy499 2.403 . S
O510 C505 1.254 . S
O511 Dy496 2.283 1_554 S
O511 Dy499 2.690 . S
O511 C505 1.292 . S
O512 Dy496 2.351 . S
O512 C515 1.249 1_556 S
O513 Dy499 2.326 . S
O513 C515 1.267 . S
C514 O506 1.249 1_556 S
C514 O507 1.267 . S
C515 O512 1.249 1_554 S
C515 O513 1.267 . S
Dy516 O520 2.398 . S
Dy516 O521 2.491 . S
Dy516 O522 2.403 . S
Dy516 O523 2.664 . S
Dy516 O527 2.326 . S
Dy516 O531 2.310 . S
Dy516 O532 2.351 . S
C517 O528 1.185 . S
C517 O529 1.355 . S
C518 O520 1.185 . S
C518 O521 1.355 . S
Dy519 O523 2.310 . S
Dy519 O526 2.351 . S
Dy519 O528 2.398 . S
Dy519 O529 2.491 . S
Dy519 O530 2.403 . S
Dy519 O531 2.664 . S
Dy519 O533 2.326 . S
O520 Dy516 2.398 . S
O520 C518 1.185 . S
O521 Dy516 2.491 . S
O521 C518 1.355 . S
O522 Dy516 2.403 . S
O522 C524 1.254 . S
O523 Dy516 2.664 . S
O523 Dy519 2.310 . S
O523 C524 1.268 . S
C524 O522 1.254 . S
C524 O523 1.268 . S
C525 O530 1.254 . S
C525 O531 1.268 . S
O526 Dy519 2.351 . S
O526 C534 1.249 . S
O527 Dy516 2.326 . S
O527 C534 1.267 . S
O528 C517 1.185 . S
O528 Dy519 2.398 . S
O529 C517 1.355 . S
O529 Dy519 2.491 . S
O530 Dy519 2.403 . S
O530 C525 1.254 . S
O531 Dy516 2.310 . S
O531 Dy519 2.664 . S
O531 C525 1.268 . S
O532 Dy516 2.351 . S
O532 C535 1.249 . S
O533 Dy519 2.326 . S
O533 C535 1.267 . S
C534 O526 1.249 . S
C534 O527 1.267 . S
C535 O532 1.249 . S
C535 O533 1.267 . S
Dy536 O540 2.398 1_455 S
Dy536 O541 2.491 1_455 S
Dy536 O542 2.403 . S
Dy536 O543 2.664 . S
Dy536 O547 2.326 1_455 S
Dy536 O551 2.310 . S
Dy536 O552 2.351 . S
C537 O548 1.185 . S
C537 O549 1.355 . S
C538 O540 1.185 . S
C538 O541 1.355 . S
Dy539 O543 2.310 . S
Dy539 O546 2.351 1_455 S
Dy539 O548 2.398 . S
Dy539 O549 2.491 . S
Dy539 O550 2.403 . S
Dy539 O551 2.664 . S
Dy539 O553 2.326 . S
O540 Dy536 2.398 1_655 S
O540 C538 1.185 . S
O541 Dy536 2.491 1_655 S
O541 C538 1.355 . S
O542 Dy536 2.403 . S
O542 C544 1.254 . S
O543 Dy536 2.664 . S
O543 Dy539 2.310 . S
O543 C544 1.268 . S
C544 O542 1.254 . S
C544 O543 1.268 . S
C545 O550 1.254 . S
C545 O551 1.268 . S
O546 Dy539 2.351 1_655 S
O546 C554 1.249 . S
O547 Dy536 2.326 1_655 S
O547 C554 1.267 . S
O548 C537 1.185 . S
O548 Dy539 2.398 . S
O549 C537 1.355 . S
O549 Dy539 2.491 . S
O550 Dy539 2.403 . S
O550 C545 1.254 . S
O551 Dy536 2.310 . S
O551 Dy539 2.664 . S
O551 C545 1.268 . S
O552 Dy536 2.351 . S
O552 C555 1.249 . S
O553 Dy539 2.326 . S
O553 C555 1.267 . S
C554 O546 1.249 . S
C554 O547 1.267 . S
C555 O552 1.249 . S
C555 O553 1.267 . S
Dy556 O560 2.398 . S
Dy556 O561 2.491 . S
Dy556 O562 2.403 . S
Dy556 O563 2.664 . S
Dy556 O567 2.326 . S
Dy556 O571 2.310 . S
Dy556 O572 2.351 . S
C557 O568 1.185 . S
C557 O569 1.355 . S
C558 O560 1.185 . S
C558 O561 1.355 . S
Dy559 O563 2.310 . S
Dy559 O566 2.351 . S
Dy559 O568 2.398 . S
Dy559 O569 2.491 . S
Dy559 O570 2.403 . S
Dy559 O571 2.664 . S
Dy559 O573 2.326 . S
O560 Dy556 2.398 . S
O560 C558 1.185 . S
O561 Dy556 2.491 . S
O561 C558 1.355 . S
O562 Dy556 2.403 . S
O562 C564 1.254 . S
O563 Dy556 2.664 . S
O563 Dy559 2.310 . S
O563 C564 1.268 . S
C564 O562 1.254 . S
C564 O563 1.268 . S
C565 O570 1.254 . S
C565 O571 1.268 . S
O566 Dy559 2.351 . S
O566 C574 1.249 . S
O567 Dy556 2.326 . S
O567 C574 1.267 . S
O568 C557 1.185 . S
O568 Dy559 2.398 . S
O569 C557 1.355 . S
O569 Dy559 2.491 . S
O570 Dy559 2.403 . S
O570 C565 1.254 . S
O571 Dy556 2.310 . S
O571 Dy559 2.664 . S
O571 C565 1.268 . S
O572 Dy556 2.351 . S
O572 C575 1.249 . S
O573 Dy559 2.326 . S
O573 C575 1.267 . S
C574 O566 1.249 . S
C574 O567 1.267 . S
C575 O572 1.249 . S
C575 O573 1.267 . S
Dy576 O580 2.398 . S
Dy576 O581 2.491 . S
Dy576 O582 2.403 . S
Dy576 O583 2.664 . S
Dy576 O587 2.326 . S
Dy576 O591 2.310 . S
Dy576 O592 2.351 . S
C577 O588 1.185 . S
C577 O589 1.355 . S
C578 O580 1.185 . S
C578 O581 1.355 . S
Dy579 O583 2.310 . S
Dy579 O586 2.351 . S
Dy579 O588 2.398 . S
Dy579 O589 2.491 . S
Dy579 O590 2.403 . S
Dy579 O591 2.664 . S
Dy579 O593 2.326 . S
O580 Dy576 2.398 . S
O580 C578 1.185 . S
O581 Dy576 2.491 . S
O581 C578 1.355 . S
O582 Dy576 2.403 . S
O582 C584 1.254 . S
O583 Dy576 2.664 . S
O583 Dy579 2.310 . S
O583 C584 1.268 . S
C584 O582 1.254 . S
C584 O583 1.268 . S
C585 O590 1.254 . S
C585 O591 1.268 . S
O586 Dy579 2.351 . S
O586 C594 1.249 . S
O587 Dy576 2.326 . S
O587 C594 1.267 . S
O588 C577 1.185 . S
O588 Dy579 2.398 . S
O589 C577 1.355 . S
O589 Dy579 2.491 . S
O590 Dy579 2.403 . S
O590 C585 1.254 . S
O591 Dy576 2.310 . S
O591 Dy579 2.664 . S
O591 C585 1.268 . S
O592 Dy576 2.351 . S
O592 C595 1.249 . S
O593 Dy579 2.326 . S
O593 C595 1.267 . S
C594 O586 1.249 . S
C594 O587 1.267 . S
C595 O592 1.249 . S
C595 O593 1.267 . S
Dy596 O600 2.398 . S
Dy596 O601 2.491 . S
Dy596 O602 2.403 . S
Dy596 O603 2.664 . S
Dy596 O607 2.326 . S
Dy596 O611 2.310 . S
Dy596 O612 2.351 . S
C597 O608 1.185 . S
C597 O609 1.355 . S
C598 O600 1.185 . S
C598 O601 1.355 . S
Dy599 O603 2.310 . S
Dy599 O606 2.351 . S
Dy599 O608 2.398 . S
Dy599 O609 2.491 . S
Dy599 O610 2.403 . S
Dy599 O611 2.664 . S
Dy599 O613 2.326 . S
O600 Dy596 2.398 . S
O600 C598 1.185 . S
O601 Dy596 2.491 . S
O601 C598 1.355 . S
O602 Dy596 2.403 . S
O602 C604 1.254 . S
O603 Dy596 2.664 . S
O603 Dy599 2.310 . S
O603 C604 1.268 . S
C604 O602 1.254 . S
C604 O603 1.268 . S
C605 O610 1.254 . S
C605 O611 1.268 . S
O606 Dy599 2.351 . S
O606 C614 1.249 . S
O607 Dy596 2.326 . S
O607 C614 1.267 . S
O608 C597 1.185 . S
O608 Dy599 2.398 . S
O609 C597 1.355 . S
O609 Dy599 2.491 . S
O610 Dy599 2.403 . S
O610 C605 1.254 . S
O611 Dy596 2.310 . S
O611 Dy599 2.664 . S
O611 C605 1.268 . S
O612 Dy596 2.351 . S
O612 C615 1.249 . S
O613 Dy599 2.326 . S
O613 C615 1.267 . S
C614 O606 1.249 . S
C614 O607 1.267 . S
C615 O612 1.249 . S
C615 O613 1.267 . S
Dy616 O620 2.398 . S
Dy616 O621 2.491 . S
Dy616 O622 2.403 . S
Dy616 O623 2.664 . S
Dy616 O627 2.326 . S
Dy616 O631 2.310 . S
Dy616 O632 2.351 . S
C617 O628 1.185 . S
C617 O629 1.355 . S
C618 O620 1.185 . S
C618 O621 1.355 . S
Dy619 O623 2.310 . S
Dy619 O626 2.351 . S
Dy619 O628 2.398 . S
Dy619 O629 2.491 . S
Dy619 O630 2.403 . S
Dy619 O631 2.664 . S
Dy619 O633 2.326 . S
O620 Dy616 2.398 . S
O620 C618 1.185 . S
O621 Dy616 2.491 . S
O621 C618 1.355 . S
O622 Dy616 2.403 . S
O622 C624 1.254 . S
O623 Dy616 2.664 . S
O623 Dy619 2.310 . S
O623 C624 1.268 . S
C624 O622 1.254 . S
C624 O623 1.268 . S
C625 O630 1.254 . S
C625 O631 1.268 . S
O626 Dy619 2.351 . S
O626 C634 1.249 . S
O627 Dy616 2.326 . S
O627 C634 1.267 . S
O628 C617 1.185 . S
O628 Dy619 2.398 . S
O629 C617 1.355 . S
O629 Dy619 2.491 . S
O630 Dy619 2.403 . S
O630 C625 1.254 . S
O631 Dy616 2.310 . S
O631 Dy619 2.664 . S
O631 C625 1.268 . S
O632 Dy616 2.351 . S
O632 C635 1.249 . S
O633 Dy619 2.326 . S
O633 C635 1.267 . S
C634 O626 1.249 . S
C634 O627 1.267 . S
C635 O632 1.249 . S
C635 O633 1.267 . S
Dy636 O640 2.398 1_554 S
Dy636 O641 2.491 . S
Dy636 O642 2.403 1_554 S
Dy636 O643 2.664 1_454 S
Dy636 O647 2.326 1_554 S
Dy636 O651 2.310 . S
Dy636 O652 2.351 . S
C637 O648 1.185 . S
C637 O649 1.355 . S
C638 O640 1.185 . S
C638 O641 1.355 1_556 S
Dy639 O643 2.310 1_554 S
Dy639 O646 2.351 . S
Dy639 O648 2.398 . S
Dy639 O649 2.491 . S
Dy639 O650 2.403 . S
Dy639 O651 2.664 1_655 S
Dy639 O653 2.326 . S
O640 Dy636 2.398 1_556 S
O640 C638 1.185 . S
O641 Dy636 2.491 . S
O641 C638 1.355 1_554 S
O642 Dy636 2.403 1_556 S
O642 C644 1.254 . S
O643 Dy636 2.664 1_656 S
O643 Dy639 2.310 1_556 S
O643 C644 1.268 1_655 S
C644 O642 1.254 . S
C644 O643 1.268 1_455 S
C645 O650 1.254 1_455 S
C645 O651 1.268 . S
O646 Dy639 2.351 . S
O646 C654 1.249 1_654 S
O647 Dy636 2.326 1_556 S
O647 C654 1.267 . S
O648 C637 1.185 . S
O648 Dy639 2.398 . S
O649 C637 1.355 . S
O649 Dy639 2.491 . S
O650 Dy639 2.403 . S
O650 C645 1.254 1_655 S
O651 Dy636 2.310 . S
O651 Dy639 2.664 1_455 S
O651 C645 1.268 . S
O652 Dy636 2.351 . S
O652 C655 1.249 . S
O653 Dy639 2.326 . S
O653 C655 1.267 1_655 S
C654 O646 1.249 1_456 S
C654 O647 1.267 . S
C655 O652 1.249 . S
C655 O653 1.267 1_455 S
H656 C664 0.950 . S
H657 C669 0.950 . S
H658 C666 0.950 . S
H659 C668 0.950 . S
H660 C670 0.950 . S
H661 C672 0.950 . S
H662 C674 0.950 . S
H663 C675 0.950 . S
C664 H656 0.950 . S
C664 C665 1.386 1_455 S
C664 C666 1.391 . S
C665 C664 1.386 1_655 S
C665 C669 1.393 . S
C666 H658 0.950 . S
C666 C664 1.391 . S
C666 C667 1.400 . S
C667 C666 1.400 . S
C667 C668 1.398 1_455 S
C667 C673 1.491 . S
C668 H659 0.950 . S
C668 C667 1.398 1_655 S
C668 C669 1.391 . S
C669 H657 0.950 . S
C669 C665 1.393 . S
C669 C668 1.391 . S
C670 H660 0.950 . S
C670 C671 1.386 1_655 S
C670 C672 1.391 . S
C671 C670 1.386 1_455 S
C671 C675 1.393 . S
C672 H661 0.950 . S
C672 C670 1.391 . S
C672 C673 1.400 1_655 S
C673 C667 1.491 . S
C673 C672 1.400 1_455 S
C673 C674 1.398 . S
C674 H662 0.950 . S
C674 C673 1.398 . S
C674 C675 1.391 . S
C675 H663 0.950 . S
C675 C671 1.393 . S
C675 C674 1.391 . S
H676 C684 0.950 . S
H677 C689 0.950 . S
H678 C686 0.950 . S
H679 C688 0.950 . S
H680 C690 0.950 . S
H681 C692 0.950 . S
H682 C694 0.950 . S
H683 C695 0.950 . S
C684 H676 0.950 . S
C684 C685 1.386 . S
C684 C686 1.391 . S
C685 C684 1.386 . S
C685 C689 1.393 . S
C686 H678 0.950 . S
C686 C684 1.391 . S
C686 C687 1.400 . S
C687 C686 1.400 . S
C687 C688 1.398 . S
C687 C693 1.491 . S
C688 H679 0.950 . S
C688 C687 1.398 . S
C688 C689 1.391 . S
C689 H677 0.950 . S
C689 C685 1.393 . S
C689 C688 1.391 . S
C690 H680 0.950 . S
C690 C691 1.386 . S
C690 C692 1.391 . S
C691 C690 1.386 . S
C691 C695 1.393 . S
C692 H681 0.950 . S
C692 C690 1.391 . S
C692 C693 1.400 . S
C693 C687 1.491 . S
C693 C692 1.400 . S
C693 C694 1.398 . S
C694 H682 0.950 . S
C694 C693 1.398 . S
C694 C695 1.391 . S
C695 H683 0.950 . S
C695 C691 1.393 . S
C695 C694 1.391 . S
H696 C704 0.950 . S
H697 C709 0.950 . S
H698 C706 0.950 . S
H699 C708 0.950 . S
H700 C710 0.950 . S
H701 C712 0.950 . S
H702 C714 0.950 . S
H703 C715 0.950 . S
C704 H696 0.950 . S
C704 C705 1.386 . S
C704 C706 1.391 . S
C705 C704 1.386 . S
C705 C709 1.393 . S
C706 H698 0.950 . S
C706 C704 1.391 . S
C706 C707 1.400 . S
C707 C706 1.400 . S
C707 C708 1.398 . S
C707 C713 1.491 . S
C708 H699 0.950 . S
C708 C707 1.398 . S
C708 C709 1.391 . S
C709 H697 0.950 . S
C709 C705 1.393 . S
C709 C708 1.391 . S
C710 H700 0.950 . S
C710 C711 1.386 . S
C710 C712 1.391 . S
C711 C710 1.386 . S
C711 C715 1.393 . S
C712 H701 0.950 . S
C712 C710 1.391 . S
C712 C713 1.400 . S
C713 C707 1.491 . S
C713 C712 1.400 . S
C713 C714 1.398 . S
C714 H702 0.950 . S
C714 C713 1.398 . S
C714 C715 1.391 . S
C715 H703 0.950 . S
C715 C711 1.393 . S
C715 C714 1.391 . S
H716 C724 0.950 . S
H717 C729 0.950 . S
H718 C726 0.950 . S
H719 C728 0.950 . S
H720 C730 0.950 . S
H721 C732 0.950 . S
H722 C734 0.950 . S
H723 C735 0.950 . S
C724 H716 0.950 . S
C724 C725 1.386 . S
C724 C726 1.391 . S
C725 C724 1.386 . S
C725 C729 1.393 . S
C726 H718 0.950 . S
C726 C724 1.391 . S
C726 C727 1.400 . S
C727 C726 1.400 . S
C727 C728 1.398 . S
C727 C733 1.491 . S
C728 H719 0.950 . S
C728 C727 1.398 . S
C728 C729 1.391 . S
C729 H717 0.950 . S
C729 C725 1.393 . S
C729 C728 1.391 . S
C730 H720 0.950 . S
C730 C731 1.386 . S
C730 C732 1.391 . S
C731 C730 1.386 . S
C731 C735 1.393 . S
C732 H721 0.950 . S
C732 C730 1.391 . S
C732 C733 1.400 . S
C733 C727 1.491 . S
C733 C732 1.400 . S
C733 C734 1.398 . S
C734 H722 0.950 . S
C734 C733 1.398 . S
C734 C735 1.391 . S
C735 H723 0.950 . S
C735 C731 1.393 . S
C735 C734 1.391 . S
H736 C744 0.950 . S
H737 C749 0.950 1_655 S
H738 C746 0.950 . S
H739 C748 0.950 1_655 S
H740 C750 0.950 . S
H741 C752 0.950 1_655 S
H742 C754 0.950 . S
H743 C755 0.950 . S
C744 H736 0.950 . S
C744 C745 1.386 . S
C744 C746 1.391 . S
C745 C744 1.386 . S
C745 C749 1.393 . S
C746 H738 0.950 . S
C746 C744 1.391 . S
C746 C747 1.400 . S
C747 C746 1.400 . S
C747 C748 1.398 . S
C747 C753 1.491 . S
C748 H739 0.950 1_455 S
C748 C747 1.398 . S
C748 C749 1.391 . S
C749 H737 0.950 1_455 S
C749 C745 1.393 . S
C749 C748 1.391 . S
C750 H740 0.950 . S
C750 C751 1.386 . S
C750 C752 1.391 . S
C751 C750 1.386 . S
C751 C755 1.393 . S
C752 H741 0.950 1_455 S
C752 C750 1.391 . S
C752 C753 1.400 . S
C753 C747 1.491 . S
C753 C752 1.400 . S
C753 C754 1.398 . S
C754 H742 0.950 . S
C754 C753 1.398 . S
C754 C755 1.391 . S
C755 H743 0.950 . S
C755 C751 1.393 . S
C755 C754 1.391 . S
H756 C764 0.950 . S
H757 C769 0.950 . S
H758 C766 0.950 . S
H759 C768 0.950 . S
H760 C770 0.950 . S
H761 C772 0.950 . S
H762 C774 0.950 . S
H763 C775 0.950 . S
C764 H756 0.950 . S
C764 C765 1.386 . S
C764 C766 1.391 . S
C765 C764 1.386 . S
C765 C769 1.393 . S
C766 H758 0.950 . S
C766 C764 1.391 . S
C766 C767 1.400 . S
C767 C766 1.400 . S
C767 C768 1.398 . S
C767 C773 1.491 . S
C768 H759 0.950 . S
C768 C767 1.398 . S
C768 C769 1.391 . S
C769 H757 0.950 . S
C769 C765 1.393 . S
C769 C768 1.391 . S
C770 H760 0.950 . S
C770 C771 1.386 . S
C770 C772 1.391 . S
C771 C770 1.386 . S
C771 C775 1.393 . S
C772 H761 0.950 . S
C772 C770 1.391 . S
C772 C773 1.400 . S
C773 C767 1.491 . S
C773 C772 1.400 . S
C773 C774 1.398 . S
C774 H762 0.950 . S
C774 C773 1.398 . S
C774 C775 1.391 . S
C775 H763 0.950 . S
C775 C771 1.393 . S
C775 C774 1.391 . S
H776 C784 0.950 . S
H777 C789 0.950 . S
H778 C786 0.950 . S
H779 C788 0.950 . S
H780 C790 0.950 . S
H781 C792 0.950 . S
H782 C794 0.950 . S
H783 C795 0.950 . S
C784 H776 0.950 . S
C784 C785 1.386 . S
C784 C786 1.391 . S
C785 C784 1.386 . S
C785 C789 1.393 . S
C786 H778 0.950 . S
C786 C784 1.391 . S
C786 C787 1.400 . S
C787 C786 1.400 . S
C787 C788 1.398 . S
C787 C793 1.491 . S
C788 H779 0.950 . S
C788 C787 1.398 . S
C788 C789 1.391 . S
C789 H777 0.950 . S
C789 C785 1.393 . S
C789 C788 1.391 . S
C790 H780 0.950 . S
C790 C791 1.386 . S
C790 C792 1.391 . S
C791 C790 1.386 . S
C791 C795 1.393 . S
C792 H781 0.950 . S
C792 C790 1.391 . S
C792 C793 1.400 . S
C793 C787 1.491 . S
C793 C792 1.400 . S
C793 C794 1.398 . S
C794 H782 0.950 . S
C794 C793 1.398 . S
C794 C795 1.391 . S
C795 H783 0.950 . S
C795 C791 1.393 . S
C795 C794 1.391 . S
H796 C804 0.950 . S
H797 C809 0.950 . S
H798 C806 0.950 . S
H799 C808 0.950 . S
H800 C810 0.950 . S
H801 C812 0.950 . S
H802 C814 0.950 . S
H803 C815 0.950 . S
C804 H796 0.950 . S
C804 C805 1.386 . S
C804 C806 1.391 . S
C805 C804 1.386 . S
C805 C809 1.393 . S
C806 H798 0.950 . S
C806 C804 1.391 . S
C806 C807 1.400 . S
C807 C806 1.400 . S
C807 C808 1.398 . S
C807 C813 1.491 . S
C808 H799 0.950 . S
C808 C807 1.398 . S
C808 C809 1.391 . S
C809 H797 0.950 . S
C809 C805 1.393 . S
C809 C808 1.391 . S
C810 H800 0.950 . S
C810 C811 1.386 . S
C810 C812 1.391 . S
C811 C810 1.386 . S
C811 C815 1.393 . S
C812 H801 0.950 . S
C812 C810 1.391 . S
C812 C813 1.400 . S
C813 C807 1.491 . S
C813 C812 1.400 . S
C813 C814 1.398 . S
C814 H802 0.950 . S
C814 C813 1.398 . S
C814 C815 1.391 . S
C815 H803 0.950 . S
C815 C811 1.393 . S
C815 C814 1.391 . S
H816 C824 0.950 . S
H817 C829 0.950 . S
H818 C826 0.950 . S
H819 C828 0.950 . S
H820 C830 0.950 . S
H821 C832 0.950 . S
H822 C834 0.950 1_455 S
H823 C835 0.950 . S
C824 H816 0.950 . S
C824 C825 1.386 . S
C824 C826 1.391 . S
C825 C824 1.386 . S
C825 C829 1.393 . S
C826 H818 0.950 . S
C826 C824 1.391 . S
C826 C827 1.400 . S
C827 C826 1.400 . S
C827 C828 1.398 . S
C827 C833 1.491 . S
C828 H819 0.950 . S
C828 C827 1.398 . S
C828 C829 1.391 . S
C829 H817 0.950 . S
C829 C825 1.393 . S
C829 C828 1.391 . S
C830 H820 0.950 . S
C830 C831 1.386 . S
C830 C832 1.391 . S
C831 C830 1.386 . S
C831 C835 1.393 1_655 S
C832 H821 0.950 . S
C832 C830 1.391 . S
C832 C833 1.400 . S
C833 C827 1.491 . S
C833 C832 1.400 . S
C833 C834 1.398 . S
C834 H822 0.950 1_655 S
C834 C833 1.398 . S
C834 C835 1.391 1_655 S
C835 H823 0.950 . S
C835 C831 1.393 1_455 S
C835 C834 1.391 1_455 S
H836 C844 0.950 . S
H837 C849 0.950 . S
H838 C846 0.950 . S
H839 C848 0.950 . S
H840 C850 0.950 . S
H841 C852 0.950 . S
H842 C854 0.950 . S
H843 C855 0.950 . S
C844 H836 0.950 . S
C844 C845 1.386 . S
C844 C846 1.391 . S
C845 C844 1.386 . S
C845 C849 1.393 . S
C846 H838 0.950 . S
C846 C844 1.391 . S
C846 C847 1.400 . S
C847 C846 1.400 . S
C847 C848 1.398 . S
C847 C853 1.491 . S
C848 H839 0.950 . S
C848 C847 1.398 . S
C848 C849 1.391 . S
C849 H837 0.950 . S
C849 C845 1.393 . S
C849 C848 1.391 . S
C850 H840 0.950 . S
C850 C851 1.386 . S
C850 C852 1.391 . S
C851 C850 1.386 . S
C851 C855 1.393 . S
C852 H841 0.950 . S
C852 C850 1.391 . S
C852 C853 1.400 . S
C853 C847 1.491 . S
C853 C852 1.400 . S
C853 C854 1.398 . S
C854 H842 0.950 . S
C854 C853 1.398 . S
C854 C855 1.391 . S
C855 H843 0.950 . S
C855 C851 1.393 . S
C855 C854 1.391 . S
H856 C864 0.950 . S
H857 C869 0.950 . S
H858 C866 0.950 . S
H859 C868 0.950 . S
H860 C870 0.950 . S
H861 C872 0.950 . S
H862 C874 0.950 . S
H863 C875 0.950 . S
C864 H856 0.950 . S
C864 C865 1.386 1_565 S
C864 C866 1.391 . S
C865 C864 1.386 1_545 S
C865 C869 1.393 . S
C866 H858 0.950 . S
C866 C864 1.391 . S
C866 C867 1.400 1_565 S
C867 C866 1.400 1_545 S
C867 C868 1.398 . S
C867 C873 1.491 . S
C868 H859 0.950 . S
C868 C867 1.398 . S
C868 C869 1.391 . S
C869 H857 0.950 . S
C869 C865 1.393 . S
C869 C868 1.391 . S
C870 H860 0.950 . S
C870 C871 1.386 . S
C870 C872 1.391 . S
C871 C870 1.386 . S
C871 C875 1.393 1_545 S
C872 H861 0.950 . S
C872 C870 1.391 . S
C872 C873 1.400 . S
C873 C867 1.491 . S
C873 C872 1.400 . S
C873 C874 1.398 1_545 S
C874 H862 0.950 . S
C874 C873 1.398 1_565 S
C874 C875 1.391 . S
C875 H863 0.950 . S
C875 C871 1.393 1_565 S
C875 C874 1.391 . S
H876 C884 0.950 . S
H877 C889 0.950 . S
H878 C886 0.950 . S
H879 C888 0.950 . S
H880 C890 0.950 . S
H881 C892 0.950 . S
H882 C894 0.950 . S
H883 C895 0.950 . S
C884 H876 0.950 . S
C884 C885 1.386 . S
C884 C886 1.391 . S
C885 C884 1.386 . S
C885 C889 1.393 . S
C886 H878 0.950 . S
C886 C884 1.391 . S
C886 C887 1.400 . S
C887 C886 1.400 . S
C887 C888 1.398 . S
C887 C893 1.491 . S
C888 H879 0.950 . S
C888 C887 1.398 . S
C888 C889 1.391 . S
C889 H877 0.950 . S
C889 C885 1.393 . S
C889 C888 1.391 . S
C890 H880 0.950 . S
C890 C891 1.386 . S
C890 C892 1.391 . S
C891 C890 1.386 . S
C891 C895 1.393 . S
C892 H881 0.950 . S
C892 C890 1.391 . S
C892 C893 1.400 . S
C893 C887 1.491 . S
C893 C892 1.400 . S
C893 C894 1.398 . S
C894 H882 0.950 . S
C894 C893 1.398 . S
C894 C895 1.391 . S
C895 H883 0.950 . S
C895 C891 1.393 . S
C895 C894 1.391 . S
H896 C904 0.950 . S
H897 C909 0.950 . S
H898 C906 0.950 . S
H899 C908 0.950 . S
H900 C910 0.950 1_455 S
H901 C912 0.950 . S
H902 C914 0.950 . S
H903 C915 0.950 . S
C904 H896 0.950 . S
C904 C905 1.386 . S
C904 C906 1.391 . S
C905 C904 1.386 . S
C905 C909 1.393 . S
C906 H898 0.950 . S
C906 C904 1.391 . S
C906 C907 1.400 . S
C907 C906 1.400 . S
C907 C908 1.398 . S
C907 C913 1.491 . S
C908 H899 0.950 . S
C908 C907 1.398 . S
C908 C909 1.391 . S
C909 H897 0.950 . S
C909 C905 1.393 . S
C909 C908 1.391 . S
C910 H900 0.950 1_655 S
C910 C911 1.386 . S
C910 C912 1.391 . S
C911 C910 1.386 . S
C911 C915 1.393 . S
C912 H901 0.950 . S
C912 C910 1.391 . S
C912 C913 1.400 . S
C913 C907 1.491 . S
C913 C912 1.400 . S
C913 C914 1.398 . S
C914 H902 0.950 . S
C914 C913 1.398 . S
C914 C915 1.391 . S
C915 H903 0.950 . S
C915 C911 1.393 . S
C915 C914 1.391 . S
H916 C924 0.950 . S
H917 C929 0.950 . S
H918 C926 0.950 . S
H919 C928 0.950 . S
H920 C930 0.950 . S
H921 C932 0.950 . S
H922 C934 0.950 . S
H923 C935 0.950 . S
C924 H916 0.950 . S
C924 C925 1.386 . S
C924 C926 1.391 . S
C925 C924 1.386 . S
C925 C929 1.393 . S
C926 H918 0.950 . S
C926 C924 1.391 . S
C926 C927 1.400 . S
C927 C926 1.400 . S
C927 C928 1.398 . S
C927 C933 1.491 . S
C928 H919 0.950 . S
C928 C927 1.398 . S
C928 C929 1.391 . S
C929 H917 0.950 . S
C929 C925 1.393 . S
C929 C928 1.391 . S
C930 H920 0.950 . S
C930 C931 1.386 . S
C930 C932 1.391 . S
C931 C930 1.386 . S
C931 C935 1.393 . S
C932 H921 0.950 . S
C932 C930 1.391 . S
C932 C933 1.400 . S
C933 C927 1.491 . S
C933 C932 1.400 . S
C933 C934 1.398 . S
C934 H922 0.950 . S
C934 C933 1.398 . S
C934 C935 1.391 . S
C935 H923 0.950 . S
C935 C931 1.393 . S
C935 C934 1.391 . S
H936 C944 0.950 . S
H937 C949 0.950 . S
H938 C946 0.950 . S
H939 C948 0.950 . S
H940 C950 0.950 . S
H941 C952 0.950 . S
H942 C954 0.950 . S
H943 C955 0.950 . S
C944 H936 0.950 . S
C944 C945 1.386 . S
C944 C946 1.391 . S
C945 C944 1.386 . S
C945 C949 1.393 . S
C946 H938 0.950 . S
C946 C944 1.391 . S
C946 C947 1.400 . S
C947 C946 1.400 . S
C947 C948 1.398 . S
C947 C953 1.491 . S
C948 H939 0.950 . S
C948 C947 1.398 . S
C948 C949 1.391 . S
C949 H937 0.950 . S
C949 C945 1.393 . S
C949 C948 1.391 . S
C950 H940 0.950 . S
C950 C951 1.386 . S
C950 C952 1.391 . S
C951 C950 1.386 . S
C951 C955 1.393 . S
C952 H941 0.950 . S
C952 C950 1.391 . S
C952 C953 1.400 . S
C953 C947 1.491 . S
C953 C952 1.400 . S
C953 C954 1.398 . S
C954 H942 0.950 . S
C954 C953 1.398 . S
C954 C955 1.391 . S
C955 H943 0.950 . S
C955 C951 1.393 . S
C955 C954 1.391 . S
H956 C964 0.950 . S
H957 C969 0.950 . S
H958 C966 0.950 . S
H959 C968 0.950 . S
H960 C970 0.950 . S
H961 C972 0.950 . S
H962 C974 0.950 . S
H963 C975 0.950 . S
C964 H956 0.950 . S
C964 C965 1.386 . S
C964 C966 1.391 . S
C965 C964 1.386 . S
C965 C969 1.393 . S
C966 H958 0.950 . S
C966 C964 1.391 . S
C966 C967 1.400 . S
C967 C966 1.400 . S
C967 C968 1.398 . S
C967 C973 1.491 . S
C968 H959 0.950 . S
C968 C967 1.398 . S
C968 C969 1.391 . S
C969 H957 0.950 . S
C969 C965 1.393 . S
C969 C968 1.391 . S
C970 H960 0.950 . S
C970 C971 1.386 . S
C970 C972 1.391 . S
C971 C970 1.386 . S
C971 C975 1.393 . S
C972 H961 0.950 . S
C972 C970 1.391 . S
C972 C973 1.400 . S
C973 C967 1.491 . S
C973 C972 1.400 . S
C973 C974 1.398 . S
C974 H962 0.950 . S
C974 C973 1.398 . S
C974 C975 1.391 . S
C975 H963 0.950 . S
C975 C971 1.393 . S
C975 C974 1.391 . S
H976 C984 0.950 . S
H977 C989 0.950 1_556 S
H978 C986 0.950 . S
H979 C988 0.950 1_556 S
H980 C990 0.950 . S
H981 C992 0.950 1_556 S
H982 C994 0.950 . S
H983 C995 0.950 1_545 S
C984 H976 0.950 . S
C984 C985 1.386 . S
C984 C986 1.391 . S
C985 C984 1.386 . S
C985 C989 1.393 . S
C986 H978 0.950 . S
C986 C984 1.391 . S
C986 C987 1.400 . S
C987 C986 1.400 . S
C987 C988 1.398 . S
C987 C993 1.491 . S
C988 H979 0.950 1_554 S
C988 C987 1.398 . S
C988 C989 1.391 . S
C989 H977 0.950 1_554 S
C989 C985 1.393 . S
C989 C988 1.391 . S
C990 H980 0.950 . S
C990 C991 1.386 . S
C990 C992 1.391 . S
C991 C990 1.386 . S
C991 C995 1.393 . S
C992 H981 0.950 1_554 S
C992 C990 1.391 . S
C992 C993 1.400 . S
C993 C987 1.491 . S
C993 C992 1.400 . S
C993 C994 1.398 . S
C994 H982 0.950 . S
C994 C993 1.398 . S
C994 C995 1.391 . S
C995 H983 0.950 1_565 S
C995 C991 1.393 . S
C995 C994 1.391 . S
H996 C1004 0.950 . S
H997 C1009 0.950 . S
H998 C1006 0.950 . S
H999 C1008 0.950 . S
H1000 C1010 0.950 . S
H1001 C1012 0.950 . S
H1002 C1014 0.950 . S
H1003 C1015 0.950 . S
C1004 H996 0.950 . S
C1004 C1005 1.376 1_556 S
C1004 C1006 1.391 . S
C1005 C1004 1.376 1_554 S
C1005 C1009 1.404 . S
C1006 H998 0.950 . S
C1006 C1004 1.391 . S
C1006 C1007 1.384 1_556 S
C1007 C1006 1.384 1_554 S
C1007 C1008 1.411 . S
C1007 C1013 1.494 . S
C1008 H999 0.950 . S
C1008 C1007 1.411 . S
C1008 C1009 1.391 . S
C1009 H997 0.950 . S
C1009 C1005 1.404 . S
C1009 C1008 1.391 . S
C1010 H1000 0.950 . S
C1010 C1011 1.386 . S
C1010 C1012 1.391 . S
C1011 C1010 1.386 . S
C1011 C1015 1.393 1_554 S
C1012 H1001 0.950 . S
C1012 C1010 1.391 . S
C1012 C1013 1.400 . S
C1013 C1007 1.494 . S
C1013 C1012 1.400 . S
C1013 C1014 1.398 1_554 S
C1014 H1002 0.950 . S
C1014 C1013 1.398 1_556 S
C1014 C1015 1.391 . S
C1015 H1003 0.950 . S
C1015 C1011 1.393 1_556 S
C1015 C1014 1.391 . S
H1016 C1024 0.950 . S
H1017 C1029 0.950 . S
H1018 C1026 0.950 . S
H1019 C1028 0.950 . S
H1020 C1030 0.950 . S
H1021 C1032 0.950 . S
H1022 C1034 0.950 . S
H1023 C1035 0.950 . S
C1024 H1016 0.950 . S
C1024 C1025 1.386 . S
C1024 C1026 1.391 . S
C1025 C1024 1.386 . S
C1025 C1029 1.393 . S
C1026 H1018 0.950 . S
C1026 C1024 1.391 . S
C1026 C1027 1.400 . S
C1027 C1026 1.400 . S
C1027 C1028 1.398 . S
C1027 C1033 1.491 . S
C1028 H1019 0.950 . S
C1028 C1027 1.398 . S
C1028 C1029 1.391 . S
C1029 H1017 0.950 . S
C1029 C1025 1.393 . S
C1029 C1028 1.391 . S
C1030 H1020 0.950 . S
C1030 C1031 1.386 . S
C1030 C1032 1.391 . S
C1031 C1030 1.386 . S
C1031 C1035 1.393 . S
C1032 H1021 0.950 . S
C1032 C1030 1.391 . S
C1032 C1033 1.400 . S
C1033 C1027 1.491 . S
C1033 C1032 1.400 . S
C1033 C1034 1.398 . S
C1034 H1022 0.950 . S
C1034 C1033 1.398 . S
C1034 C1035 1.391 . S
C1035 H1023 0.950 . S
C1035 C1031 1.393 . S
C1035 C1034 1.391 . S
H1036 C1044 0.950 . S
H1037 C1049 0.950 . S
H1038 C1046 0.950 . S
H1039 C1048 0.950 . S
H1040 C1050 0.950 . S
H1041 C1052 0.950 . S
H1042 C1054 0.950 . S
H1043 C1055 0.950 . S
C1044 H1036 0.950 . S
C1044 C1045 1.386 . S
C1044 C1046 1.391 . S
C1045 C1044 1.386 . S
C1045 C1049 1.393 . S
C1046 H1038 0.950 . S
C1046 C1044 1.391 . S
C1046 C1047 1.400 . S
C1047 C1046 1.400 . S
C1047 C1048 1.398 . S
C1047 C1053 1.491 . S
C1048 H1039 0.950 . S
C1048 C1047 1.398 . S
C1048 C1049 1.391 . S
C1049 H1037 0.950 . S
C1049 C1045 1.393 . S
C1049 C1048 1.391 . S
C1050 H1040 0.950 . S
C1050 C1051 1.386 . S
C1050 C1052 1.391 . S
C1051 C1050 1.386 . S
C1051 C1055 1.393 . S
C1052 H1041 0.950 . S
C1052 C1050 1.391 . S
C1052 C1053 1.400 . S
C1053 C1047 1.491 . S
C1053 C1052 1.400 . S
C1053 C1054 1.398 . S
C1054 H1042 0.950 . S
C1054 C1053 1.398 . S
C1054 C1055 1.391 . S
C1055 H1043 0.950 . S
C1055 C1051 1.393 . S
C1055 C1054 1.391 . S
H1056 C1064 0.950 . S
H1057 C1069 0.950 . S
H1058 C1066 0.950 . S
H1059 C1068 0.950 . S
H1060 C1070 0.950 . S
H1061 C1072 0.950 . S
H1062 C1074 0.950 . S
H1063 C1075 0.950 . S
C1064 H1056 0.950 . S
C1064 C1065 1.386 . S
C1064 C1066 1.391 . S
C1065 C1064 1.386 . S
C1065 C1069 1.393 . S
C1066 H1058 0.950 . S
C1066 C1064 1.391 . S
C1066 C1067 1.400 . S
C1067 C1066 1.400 . S
C1067 C1068 1.398 . S
C1067 C1073 1.491 . S
C1068 H1059 0.950 . S
C1068 C1067 1.398 . S
C1068 C1069 1.391 . S
C1069 H1057 0.950 . S
C1069 C1065 1.393 . S
C1069 C1068 1.391 . S
C1070 H1060 0.950 . S
C1070 C1071 1.386 . S
C1070 C1072 1.391 . S
C1071 C1070 1.386 . S
C1071 C1075 1.393 . S
C1072 H1061 0.950 . S
C1072 C1070 1.391 . S
C1072 C1073 1.400 . S
C1073 C1067 1.491 . S
C1073 C1072 1.400 . S
C1073 C1074 1.398 . S
C1074 H1062 0.950 . S
C1074 C1073 1.398 . S
C1074 C1075 1.391 . S
C1075 H1063 0.950 . S
C1075 C1071 1.393 . S
C1075 C1074 1.391 . S
H1076 C1084 0.950 . S
H1077 C1089 0.950 . S
H1078 C1086 0.950 . S
H1079 C1088 0.950 . S
H1080 C1090 0.950 . S
H1081 C1092 0.950 . S
H1082 C1094 0.950 . S
H1083 C1095 0.950 . S
C1084 H1076 0.950 . S
C1084 C1085 1.386 . S
C1084 C1086 1.391 . S
C1085 C1084 1.386 . S
C1085 C1089 1.393 . S
C1086 H1078 0.950 . S
C1086 C1084 1.391 . S
C1086 C1087 1.400 . S
C1087 C1086 1.400 . S
C1087 C1088 1.398 . S
C1087 C1093 1.491 . S
C1088 H1079 0.950 . S
C1088 C1087 1.398 . S
C1088 C1089 1.391 . S
C1089 H1077 0.950 . S
C1089 C1085 1.393 . S
C1089 C1088 1.391 . S
C1090 H1080 0.950 . S
C1090 C1091 1.386 . S
C1090 C1092 1.391 . S
C1091 C1090 1.386 . S
C1091 C1095 1.393 . S
C1092 H1081 0.950 . S
C1092 C1090 1.391 . S
C1092 C1093 1.400 . S
C1093 C1087 1.491 . S
C1093 C1092 1.400 . S
C1093 C1094 1.398 . S
C1094 H1082 0.950 . S
C1094 C1093 1.398 . S
C1094 C1095 1.391 . S
C1095 H1083 0.950 . S
C1095 C1091 1.393 . S
C1095 C1094 1.391 . S
H1096 C1104 0.950 . S
H1097 C1109 0.950 . S
H1098 C1106 0.950 . S
H1099 C1108 0.950 . S
H1100 C1110 0.950 . S
H1101 C1112 0.950 . S
H1102 C1114 0.950 . S
H1103 C1115 0.950 . S
C1104 H1096 0.950 . S
C1104 C1105 1.386 . S
C1104 C1106 1.391 . S
C1105 C1104 1.386 . S
C1105 C1109 1.393 . S
C1106 H1098 0.950 . S
C1106 C1104 1.391 . S
C1106 C1107 1.400 . S
C1107 C1106 1.400 . S
C1107 C1108 1.398 . S
C1107 C1113 1.491 . S
C1108 H1099 0.950 . S
C1108 C1107 1.398 . S
C1108 C1109 1.391 . S
C1109 H1097 0.950 . S
C1109 C1105 1.393 . S
C1109 C1108 1.391 . S
C1110 H1100 0.950 . S
C1110 C1111 1.386 . S
C1110 C1112 1.391 . S
C1111 C1110 1.386 . S
C1111 C1115 1.393 . S
C1112 H1101 0.950 . S
C1112 C1110 1.391 . S
C1112 C1113 1.400 . S
C1113 C1107 1.491 . S
C1113 C1112 1.400 . S
C1113 C1114 1.398 . S
C1114 H1102 0.950 . S
C1114 C1113 1.398 . S
C1114 C1115 1.391 . S
C1115 H1103 0.950 . S
C1115 C1111 1.393 . S
C1115 C1114 1.391 . S
H1116 C1124 0.950 . S
H1117 C1129 0.950 . S
H1118 C1126 0.950 . S
H1119 C1128 0.950 . S
H1120 C1130 0.950 . S
H1121 C1132 0.950 . S
H1122 C1134 0.950 . S
H1123 C1135 0.950 . S
C1124 H1116 0.950 . S
C1124 C1125 1.386 . S
C1124 C1126 1.391 . S
C1125 C1124 1.386 . S
C1125 C1129 1.393 . S
C1126 H1118 0.950 . S
C1126 C1124 1.391 . S
C1126 C1127 1.400 . S
C1127 C1126 1.400 . S
C1127 C1128 1.398 . S
C1127 C1133 1.491 . S
C1128 H1119 0.950 . S
C1128 C1127 1.398 . S
C1128 C1129 1.391 . S
C1129 H1117 0.950 . S
C1129 C1125 1.393 . S
C1129 C1128 1.391 . S
C1130 H1120 0.950 . S
C1130 C1131 1.386 . S
C1130 C1132 1.391 . S
C1131 C1130 1.386 . S
C1131 C1135 1.393 . S
C1132 H1121 0.950 . S
C1132 C1130 1.391 . S
C1132 C1133 1.400 . S
C1133 C1127 1.491 . S
C1133 C1132 1.400 . S
C1133 C1134 1.398 . S
C1134 H1122 0.950 . S
C1134 C1133 1.398 . S
C1134 C1135 1.391 . S
C1135 H1123 0.950 . S
C1135 C1131 1.393 . S
C1135 C1134 1.391 . S
H1136 C1144 0.950 1_655 S
H1137 C1149 0.950 . S
H1138 C1146 0.950 1_655 S
H1139 C1148 0.950 . S
H1140 C1150 0.950 . S
H1141 C1152 0.950 . S
H1142 C1154 0.950 1_655 S
H1143 C1155 0.981 . S
C1144 H1136 0.950 1_455 S
C1144 C1145 1.386 . S
C1144 C1146 1.391 . S
C1145 C1144 1.386 . S
C1145 C1149 1.393 . S
C1146 H1138 0.950 1_455 S
C1146 C1144 1.391 . S
C1146 C1147 1.400 . S
C1147 C1146 1.400 . S
C1147 C1148 1.398 . S
C1147 C1153 1.491 . S
C1148 H1139 0.950 . S
C1148 C1147 1.398 . S
C1148 C1149 1.391 . S
C1149 H1137 0.950 . S
C1149 C1145 1.393 . S
C1149 C1148 1.391 . S
C1150 H1140 0.950 . S
C1150 C1151 1.386 . S
C1150 C1152 1.391 . S
C1151 C1150 1.386 . S
C1151 C1155 1.372 1_455 S
C1152 H1141 0.950 . S
C1152 C1150 1.391 . S
C1152 C1153 1.400 . S
C1153 C1147 1.491 . S
C1153 C1152 1.400 . S
C1153 C1154 1.398 . S
C1154 H1142 0.950 1_455 S
C1154 C1153 1.398 . S
C1154 C1155 1.381 1_455 S
C1155 H1143 0.981 . S
C1155 C1151 1.372 1_655 S
C1155 C1154 1.381 1_655 S
H1156 C1164 0.950 . S
H1157 C1169 0.950 . S
H1158 C1166 0.950 . S
H1159 C1168 0.950 . S
H1160 C1170 0.950 . S
H1161 C1172 0.950 . S
H1162 C1174 0.950 . S
H1163 C1175 0.950 . S
C1164 H1156 0.950 . S
C1164 C1165 1.386 . S
C1164 C1166 1.391 . S
C1165 C1164 1.386 . S
C1165 C1169 1.393 . S
C1166 H1158 0.950 . S
C1166 C1164 1.391 . S
C1166 C1167 1.400 . S
C1167 C1166 1.400 . S
C1167 C1168 1.398 . S
C1167 C1173 1.491 . S
C1168 H1159 0.950 . S
C1168 C1167 1.398 . S
C1168 C1169 1.391 . S
C1169 H1157 0.950 . S
C1169 C1165 1.393 . S
C1169 C1168 1.391 . S
C1170 H1160 0.950 . S
C1170 C1171 1.386 . S
C1170 C1172 1.391 . S
C1171 C1170 1.386 . S
C1171 C1175 1.393 . S
C1172 H1161 0.950 . S
C1172 C1170 1.391 . S
C1172 C1173 1.400 . S
C1173 C1167 1.491 . S
C1173 C1172 1.400 . S
C1173 C1174 1.398 . S
C1174 H1162 0.950 . S
C1174 C1173 1.398 . S
C1174 C1175 1.391 . S
C1175 H1163 0.950 . S
C1175 C1171 1.393 . S
C1175 C1174 1.391 . S
H1176 C1184 0.950 . S
H1177 C1189 0.950 . S
H1178 C1186 0.950 . S
H1179 C1188 0.950 . S
H1180 C1190 0.950 . S
H1181 C1192 0.950 . S
H1182 C1194 0.950 . S
H1183 C1195 0.950 . S
C1184 H1176 0.950 . S
C1184 C1185 1.386 . S
C1184 C1186 1.391 . S
C1185 C1184 1.386 . S
C1185 C1189 1.393 . S
C1186 H1178 0.950 . S
C1186 C1184 1.391 . S
C1186 C1187 1.400 . S
C1187 C1186 1.400 . S
C1187 C1188 1.398 . S
C1187 C1193 1.491 . S
C1188 H1179 0.950 . S
C1188 C1187 1.398 . S
C1188 C1189 1.391 . S
C1189 H1177 0.950 . S
C1189 C1185 1.393 . S
C1189 C1188 1.391 . S
C1190 H1180 0.950 . S
C1190 C1191 1.386 . S
C1190 C1192 1.391 . S
C1191 C1190 1.386 . S
C1191 C1195 1.393 . S
C1192 H1181 0.950 . S
C1192 C1190 1.391 . S
C1192 C1193 1.400 . S
C1193 C1187 1.491 . S
C1193 C1192 1.400 . S
C1193 C1194 1.398 . S
C1194 H1182 0.950 . S
C1194 C1193 1.398 . S
C1194 C1195 1.391 . S
C1195 H1183 0.950 . S
C1195 C1191 1.393 . S
C1195 C1194 1.391 . S
H1196 C1204 0.950 . S
H1197 C1209 0.950 . S
H1198 C1206 0.950 . S
H1199 C1208 0.950 . S
H1200 C1210 0.950 . S
H1201 C1212 0.950 . S
H1202 C1214 0.950 . S
H1203 C1215 0.950 . S
C1204 H1196 0.950 . S
C1204 C1205 1.386 . S
C1204 C1206 1.391 . S
C1205 C1204 1.386 . S
C1205 C1209 1.393 . S
C1206 H1198 0.950 . S
C1206 C1204 1.391 . S
C1206 C1207 1.400 . S
C1207 C1206 1.400 . S
C1207 C1208 1.398 . S
C1207 C1213 1.491 . S
C1208 H1199 0.950 . S
C1208 C1207 1.398 . S
C1208 C1209 1.391 . S
C1209 H1197 0.950 . S
C1209 C1205 1.393 . S
C1209 C1208 1.391 . S
C1210 H1200 0.950 . S
C1210 C1211 1.386 . S
C1210 C1212 1.391 . S
C1211 C1210 1.386 . S
C1211 C1215 1.393 . S
C1212 H1201 0.950 . S
C1212 C1210 1.391 . S
C1212 C1213 1.400 . S
C1213 C1207 1.491 . S
C1213 C1212 1.400 . S
C1213 C1214 1.398 . S
C1214 H1202 0.950 . S
C1214 C1213 1.398 . S
C1214 C1215 1.391 . S
C1215 H1203 0.950 . S
C1215 C1211 1.393 . S
C1215 C1214 1.391 . S
H1216 C1224 0.950 . S
H1217 C1229 0.950 . S
H1218 C1226 0.950 . S
H1219 C1228 0.950 . S
H1220 C1230 0.950 . S
H1221 C1232 0.950 . S
H1222 C1234 0.950 . S
H1223 C1235 0.950 . S
C1224 H1216 0.950 . S
C1224 C1225 1.386 . S
C1224 C1226 1.391 . S
C1225 C1224 1.386 . S
C1225 C1229 1.393 . S
C1226 H1218 0.950 . S
C1226 C1224 1.391 . S
C1226 C1227 1.400 . S
C1227 C1226 1.400 . S
C1227 C1228 1.398 . S
C1227 C1233 1.491 . S
C1228 H1219 0.950 . S
C1228 C1227 1.398 . S
C1228 C1229 1.391 . S
C1229 H1217 0.950 . S
C1229 C1225 1.393 . S
C1229 C1228 1.391 . S
C1230 H1220 0.950 . S
C1230 C1231 1.386 . S
C1230 C1232 1.391 . S
C1231 C1230 1.386 . S
C1231 C1235 1.393 . S
C1232 H1221 0.950 . S
C1232 C1230 1.391 . S
C1232 C1233 1.400 . S
C1233 C1227 1.491 . S
C1233 C1232 1.400 . S
C1233 C1234 1.398 . S
C1234 H1222 0.950 . S
C1234 C1233 1.398 . S
C1234 C1235 1.391 . S
C1235 H1223 0.950 . S
C1235 C1231 1.393 . S
C1235 C1234 1.391 . S
H1236 C1244 0.950 . S
H1237 C1249 0.950 . S
H1238 C1246 0.950 . S
H1239 C1248 0.950 . S
H1240 C1250 0.950 . S
H1241 C1252 0.950 . S
H1242 C1254 0.950 . S
H1243 C1255 0.950 . S
C1244 H1236 0.950 . S
C1244 C1245 1.386 . S
C1244 C1246 1.391 . S
C1245 C1244 1.386 . S
C1245 C1249 1.393 . S
C1246 H1238 0.950 . S
C1246 C1244 1.391 . S
C1246 C1247 1.400 . S
C1247 C1246 1.400 . S
C1247 C1248 1.398 . S
C1247 C1253 1.491 . S
C1248 H1239 0.950 . S
C1248 C1247 1.398 . S
C1248 C1249 1.391 . S
C1249 H1237 0.950 . S
C1249 C1245 1.393 . S
C1249 C1248 1.391 . S
C1250 H1240 0.950 . S
C1250 C1251 1.386 . S
C1250 C1252 1.391 . S
C1251 C1250 1.386 . S
C1251 C1255 1.393 . S
C1252 H1241 0.950 . S
C1252 C1250 1.391 . S
C1252 C1253 1.400 . S
C1253 C1247 1.491 . S
C1253 C1252 1.400 . S
C1253 C1254 1.398 . S
C1254 H1242 0.950 . S
C1254 C1253 1.398 . S
C1254 C1255 1.391 . S
C1255 H1243 0.950 . S
C1255 C1251 1.393 . S
C1255 C1254 1.391 . S
H1256 C1264 0.950 . S
H1257 C1269 0.950 . S
H1258 C1266 0.950 . S
H1259 C1268 0.950 . S
H1260 C1270 0.950 . S
H1261 C1272 0.950 . S
H1262 C1274 0.950 . S
H1263 C1275 0.950 1_554 S
C1264 H1256 0.950 . S
C1264 C1265 1.386 . S
C1264 C1266 1.391 . S
C1265 C1264 1.386 . S
C1265 C1269 1.393 . S
C1266 H1258 0.950 . S
C1266 C1264 1.391 . S
C1266 C1267 1.400 . S
C1267 C1266 1.400 . S
C1267 C1268 1.398 . S
C1267 C1273 1.491 . S
C1268 H1259 0.950 . S
C1268 C1267 1.398 . S
C1268 C1269 1.391 . S
C1269 H1257 0.950 . S
C1269 C1265 1.393 . S
C1269 C1268 1.391 . S
C1270 H1260 0.950 . S
C1270 C1271 1.386 . S
C1270 C1272 1.391 . S
C1271 C1270 1.386 . S
C1271 C1275 1.393 . S
C1272 H1261 0.950 . S
C1272 C1270 1.391 . S
C1272 C1273 1.400 . S
C1273 C1267 1.491 . S
C1273 C1272 1.400 . S
C1273 C1274 1.398 . S
C1274 H1262 0.950 . S
C1274 C1273 1.398 . S
C1274 C1275 1.391 . S
C1275 H1263 0.950 1_556 S
C1275 C1271 1.393 . S
C1275 C1274 1.391 . S
H1276 C1284 0.950 . S
H1277 C1289 0.950 . S
H1278 C1286 0.950 . S
H1279 C1288 0.950 . S
H1280 C1290 0.950 . S
H1281 C1292 0.950 . S
H1282 C1294 0.950 . S
H1283 C1295 0.950 . S
C1284 H1276 0.950 . S
C1284 C1285 1.386 . S
C1284 C1286 1.391 . S
C1285 C1284 1.386 . S
C1285 C1289 1.393 . S
C1286 H1278 0.950 . S
C1286 C1284 1.391 . S
C1286 C1287 1.400 . S
C1287 C1286 1.400 . S
C1287 C1288 1.398 . S
C1287 C1293 1.491 . S
C1288 H1279 0.950 . S
C1288 C1287 1.398 . S
C1288 C1289 1.391 . S
C1289 H1277 0.950 . S
C1289 C1285 1.393 . S
C1289 C1288 1.391 . S
C1290 H1280 0.950 . S
C1290 C1291 1.386 . S
C1290 C1292 1.391 . S
C1291 C1290 1.386 . S
C1291 C1295 1.393 . S
C1292 H1281 0.950 . S
C1292 C1290 1.391 . S
C1292 C1293 1.400 . S
C1293 C1287 1.491 . S
C1293 C1292 1.400 . S
C1293 C1294 1.398 . S
C1294 H1282 0.950 . S
C1294 C1293 1.398 . S
C1294 C1295 1.391 . S
C1295 H1283 0.950 . S
C1295 C1291 1.393 . S
C1295 C1294 1.391 . S
H1296 C1304 0.950 . S
H1297 C1309 0.950 . S
H1298 C1306 0.950 . S
H1299 C1308 0.950 . S
H1300 C1310 0.950 . S
H1301 C1312 0.950 . S
H1302 C1314 0.950 . S
H1303 C1315 0.950 . S
C1304 H1296 0.950 . S
C1304 C1305 1.386 1_565 S
C1304 C1306 1.391 . S
C1305 C1304 1.386 1_545 S
C1305 C1309 1.393 . S
C1306 H1298 0.950 . S
C1306 C1304 1.391 . S
C1306 C1307 1.400 1_565 S
C1307 C1306 1.400 1_545 S
C1307 C1308 1.398 . S
C1307 C1313 1.491 . S
C1308 H1299 0.950 . S
C1308 C1307 1.398 . S
C1308 C1309 1.391 . S
C1309 H1297 0.950 . S
C1309 C1305 1.393 . S
C1309 C1308 1.391 . S
C1310 H1300 0.950 . S
C1310 C1311 1.386 . S
C1310 C1312 1.391 . S
C1311 C1310 1.386 . S
C1311 C1315 1.393 1_545 S
C1312 H1301 0.950 . S
C1312 C1310 1.391 . S
C1312 C1313 1.400 . S
C1313 C1307 1.491 . S
C1313 C1312 1.400 . S
C1313 C1314 1.398 1_545 S
C1314 H1302 0.950 . S
C1314 C1313 1.398 1_565 S
C1314 C1315 1.391 . S
C1315 H1303 0.950 . S
C1315 C1311 1.393 1_565 S
C1315 C1314 1.391 . S
H1316 C1324 0.950 . S
H1317 C1329 0.950 . S
H1318 C1326 0.950 . S
H1319 C1328 0.950 . S
H1320 C1330 0.950 . S
H1321 C1332 0.950 . S
H1322 C1334 0.950 . S
H1323 C1335 0.950 . S
C1324 H1316 0.950 . S
C1324 C1325 1.386 . S
C1324 C1326 1.391 . S
C1325 C1324 1.386 . S
C1325 C1329 1.393 . S
C1326 H1318 0.950 . S
C1326 C1324 1.391 . S
C1326 C1327 1.400 . S
C1327 C1326 1.400 . S
C1327 C1328 1.398 . S
C1327 C1333 1.491 . S
C1328 H1319 0.950 . S
C1328 C1327 1.398 . S
C1328 C1329 1.391 . S
C1329 H1317 0.950 . S
C1329 C1325 1.393 . S
C1329 C1328 1.391 . S
C1330 H1320 0.950 . S
C1330 C1331 1.386 . S
C1330 C1332 1.391 . S
C1331 C1330 1.386 . S
C1331 C1335 1.393 . S
C1332 H1321 0.950 . S
C1332 C1330 1.391 . S
C1332 C1333 1.400 . S
C1333 C1327 1.491 . S
C1333 C1332 1.400 . S
C1333 C1334 1.398 . S
C1334 H1322 0.950 . S
C1334 C1333 1.398 . S
C1334 C1335 1.391 . S
C1335 H1323 0.950 . S
C1335 C1331 1.393 . S
C1335 C1334 1.391 . S
H1336 C1344 0.950 1_565 S
H1337 C1349 0.950 . S
H1338 C1346 0.950 1_565 S
H1339 C1348 0.950 . S
H1340 C1350 0.950 . S
H1341 C1352 0.950 . S
H1342 C1354 0.956 . S
H1343 C1355 0.956 . S
C1344 H1336 0.950 1_545 S
C1344 C1345 1.386 . S
C1344 C1346 1.391 . S
C1345 C1344 1.386 . S
C1345 C1349 1.393 . S
C1346 H1338 0.950 1_545 S
C1346 C1344 1.391 . S
C1346 C1347 1.400 . S
C1347 C1346 1.400 . S
C1347 C1348 1.398 . S
C1347 C1353 1.491 . S
C1348 H1339 0.950 . S
C1348 C1347 1.398 . S
C1348 C1349 1.391 . S
C1349 H1337 0.950 . S
C1349 C1345 1.393 . S
C1349 C1348 1.391 . S
C1350 H1340 0.950 . S
C1350 C1351 1.386 . S
C1350 C1352 1.391 . S
C1351 C1350 1.386 . S
C1351 C1355 1.393 . S
C1352 H1341 0.950 . S
C1352 C1350 1.391 . S
C1352 C1353 1.400 . S
C1353 C1347 1.491 . S
C1353 C1352 1.400 . S
C1353 C1354 1.398 . S
C1354 H1342 0.956 . S
C1354 C1353 1.398 . S
C1354 C1355 1.391 . S
C1355 H1343 0.956 . S
C1355 C1351 1.393 . S
C1355 C1354 1.391 . S
H1356 C1364 0.950 . S
H1357 C1369 0.950 . S
H1358 C1366 0.950 . S
H1359 C1368 0.950 . S
H1360 C1370 0.950 . S
H1361 C1372 0.950 . S
H1362 C1374 0.950 . S
H1363 C1375 0.950 . S
C1364 H1356 0.950 . S
C1364 C1365 1.386 . S
C1364 C1366 1.391 . S
C1365 C1364 1.386 . S
C1365 C1369 1.393 . S
C1366 H1358 0.950 . S
C1366 C1364 1.391 . S
C1366 C1367 1.400 . S
C1367 C1366 1.400 . S
C1367 C1368 1.398 . S
C1367 C1373 1.491 . S
C1368 H1359 0.950 . S
C1368 C1367 1.398 . S
C1368 C1369 1.391 . S
C1369 H1357 0.950 . S
C1369 C1365 1.393 . S
C1369 C1368 1.391 . S
C1370 H1360 0.950 . S
C1370 C1371 1.386 . S
C1370 C1372 1.391 . S
C1371 C1370 1.386 . S
C1371 C1375 1.393 . S
C1372 H1361 0.950 . S
C1372 C1370 1.391 . S
C1372 C1373 1.400 . S
C1373 C1367 1.491 . S
C1373 C1372 1.400 . S
C1373 C1374 1.398 . S
C1374 H1362 0.950 . S
C1374 C1373 1.398 . S
C1374 C1375 1.391 . S
C1375 H1363 0.950 . S
C1375 C1371 1.393 . S
C1375 C1374 1.391 . S
H1376 C1384 0.950 . S
H1377 C1389 0.950 . S
H1378 C1386 0.950 . S
H1379 C1388 0.950 . S
H1380 C1390 0.950 . S
H1381 C1392 0.950 . S
H1382 C1394 0.950 1_565 S
H1383 C1395 0.950 . S
C1384 H1376 0.950 . S
C1384 C1385 1.386 . S
C1384 C1386 1.391 . S
C1385 C1384 1.386 . S
C1385 C1389 1.393 1_565 S
C1386 H1378 0.950 . S
C1386 C1384 1.391 . S
C1386 C1387 1.400 1_565 S
C1387 C1386 1.400 1_545 S
C1387 C1388 1.398 . S
C1387 C1393 1.491 . S
C1388 H1379 0.950 . S
C1388 C1387 1.398 . S
C1388 C1389 1.391 . S
C1389 H1377 0.950 . S
C1389 C1385 1.393 1_545 S
C1389 C1388 1.391 . S
C1390 H1380 0.950 . S
C1390 C1391 1.386 . S
C1390 C1392 1.391 . S
C1391 C1390 1.386 . S
C1391 C1395 1.393 . S
C1392 H1381 0.950 . S
C1392 C1390 1.391 . S
C1392 C1393 1.400 . S
C1393 C1387 1.491 . S
C1393 C1392 1.400 . S
C1393 C1394 1.398 . S
C1394 H1382 0.950 1_545 S
C1394 C1393 1.398 . S
C1394 C1395 1.391 . S
C1395 H1383 0.950 . S
C1395 C1391 1.393 . S
C1395 C1394 1.391 . S
H1396 C1404 0.950 . S
H1397 C1409 0.950 . S
H1398 C1406 0.950 . S
H1399 C1408 0.950 . S
H1400 C1410 0.950 . S
H1401 C1412 0.950 . S
H1402 C1414 0.950 . S
H1403 C1415 0.950 . S
C1404 H1396 0.950 . S
C1404 C1405 1.386 . S
C1404 C1406 1.391 . S
C1405 C1404 1.386 . S
C1405 C1409 1.393 . S
C1406 H1398 0.950 . S
C1406 C1404 1.391 . S
C1406 C1407 1.400 . S
C1407 C1406 1.400 . S
C1407 C1408 1.398 . S
C1407 C1413 1.491 . S
C1408 H1399 0.950 . S
C1408 C1407 1.398 . S
C1408 C1409 1.391 . S
C1409 H1397 0.950 . S
C1409 C1405 1.393 . S
C1409 C1408 1.391 . S
C1410 H1400 0.950 . S
C1410 C1411 1.386 . S
C1410 C1412 1.391 . S
C1411 C1410 1.386 . S
C1411 C1415 1.393 . S
C1412 H1401 0.950 . S
C1412 C1410 1.391 . S
C1412 C1413 1.400 . S
C1413 C1407 1.491 . S
C1413 C1412 1.400 . S
C1413 C1414 1.398 . S
C1414 H1402 0.950 . S
C1414 C1413 1.398 . S
C1414 C1415 1.391 . S
C1415 H1403 0.950 . S
C1415 C1411 1.393 . S
C1415 C1414 1.391 . S
H1416 C1424 0.950 . S
H1417 C1429 0.950 1_565 S
H1418 C1426 0.950 . S
H1419 C1428 0.953 1_565 S
H1420 C1430 0.950 . S
H1421 C1432 0.950 . S
H1422 C1434 0.950 . S
H1423 C1435 0.950 . S
C1424 H1416 0.950 . S
C1424 C1425 1.386 . S
C1424 C1426 1.391 . S
C1425 C1424 1.386 . S
C1425 C1429 1.393 . S
C1426 H1418 0.950 . S
C1426 C1424 1.391 . S
C1426 C1427 1.400 . S
C1427 C1426 1.400 . S
C1427 C1428 1.396 . S
C1427 C1433 1.491 . S
C1428 H1419 0.953 1_545 S
C1428 C1427 1.396 . S
C1428 C1429 1.390 . S
C1429 H1417 0.950 1_545 S
C1429 C1425 1.393 . S
C1429 C1428 1.390 . S
C1430 H1420 0.950 . S
C1430 C1431 1.386 1_565 S
C1430 C1432 1.391 . S
C1431 C1430 1.386 1_545 S
C1431 C1435 1.393 . S
C1432 H1421 0.950 . S
C1432 C1430 1.391 . S
C1432 C1433 1.400 1_565 S
C1433 C1427 1.491 . S
C1433 C1432 1.400 1_545 S
C1433 C1434 1.398 . S
C1434 H1422 0.950 . S
C1434 C1433 1.398 . S
C1434 C1435 1.391 . S
C1435 H1423 0.950 . S
C1435 C1431 1.393 . S
C1435 C1434 1.391 . S
H1436 C1444 0.950 . S
H1437 C1449 0.950 . S
H1438 C1446 0.950 . S
H1439 C1448 0.950 . S
H1440 C1450 0.950 . S
H1441 C1452 0.950 . S
H1442 C1454 0.950 . S
H1443 C1455 0.950 . S
C1444 H1436 0.950 . S
C1444 C1445 1.386 . S
C1444 C1446 1.391 . S
C1445 C1444 1.386 . S
C1445 C1449 1.393 . S
C1446 H1438 0.950 . S
C1446 C1444 1.391 . S
C1446 C1447 1.400 . S
C1447 C1446 1.400 . S
C1447 C1448 1.398 . S
C1447 C1453 1.491 . S
C1448 H1439 0.950 . S
C1448 C1447 1.398 . S
C1448 C1449 1.391 . S
C1449 H1437 0.950 . S
C1449 C1445 1.393 . S
C1449 C1448 1.391 . S
C1450 H1440 0.950 . S
C1450 C1451 1.386 . S
C1450 C1452 1.391 . S
C1451 C1450 1.386 . S
C1451 C1455 1.393 . S
C1452 H1441 0.950 . S
C1452 C1450 1.391 . S
C1452 C1453 1.400 . S
C1453 C1447 1.491 . S
C1453 C1452 1.400 . S
C1453 C1454 1.398 . S
C1454 H1442 0.950 . S
C1454 C1453 1.398 . S
C1454 C1455 1.391 . S
C1455 H1443 0.950 . S
C1455 C1451 1.393 . S
C1455 C1454 1.391 . S
H1456 C1464 0.950 . S
H1457 C1469 0.950 . S
H1458 C1466 0.950 . S
H1459 C1468 0.950 . S
H1460 C1470 0.950 . S
H1461 C1472 0.950 . S
H1462 C1474 0.950 . S
H1463 C1475 0.950 . S
C1464 H1456 0.950 . S
C1464 C1465 1.362 1_556 S
C1464 C1466 1.391 . S
C1465 C1464 1.362 1_554 S
C1465 C1469 1.413 . S
C1466 H1458 0.950 . S
C1466 C1464 1.391 . S
C1466 C1467 1.400 . S
C1467 C1466 1.400 . S
C1467 C1468 1.398 1_556 S
C1467 C1473 1.491 . S
C1468 H1459 0.950 . S
C1468 C1467 1.398 1_554 S
C1468 C1469 1.391 . S
C1469 H1457 0.950 . S
C1469 C1465 1.413 . S
C1469 C1468 1.391 . S
C1470 H1460 0.950 . S
C1470 C1471 1.386 1_554 S
C1470 C1472 1.391 . S
C1471 C1470 1.386 1_556 S
C1471 C1475 1.393 . S
C1472 H1461 0.950 . S
C1472 C1470 1.391 . S
C1472 C1473 1.400 1_554 S
C1473 C1467 1.491 . S
C1473 C1472 1.400 1_556 S
C1473 C1474 1.398 . S
C1474 H1462 0.950 . S
C1474 C1473 1.398 . S
C1474 C1475 1.391 . S
C1475 H1463 0.950 . S
C1475 C1471 1.393 . S
C1475 C1474 1.391 . S
H1476 C1484 0.945 1_556 S
H1477 C1489 0.950 . S
H1478 C1486 0.956 . S
H1479 C1488 0.950 . S
H1480 C1490 0.950 . S
H1481 C1492 0.950 . S
H1482 C1494 0.950 . S
H1483 C1495 0.950 . S
C1484 H1476 0.945 1_554 S
C1484 C1485 1.391 . S
C1484 C1486 1.389 1_554 S
C1485 C1484 1.391 . S
C1485 C1489 1.393 . S
C1486 H1478 0.956 . S
C1486 C1484 1.389 1_556 S
C1486 C1487 1.395 1_556 S
C1487 C1486 1.395 1_554 S
C1487 C1488 1.398 . S
C1487 C1493 1.491 . S
C1488 H1479 0.950 . S
C1488 C1487 1.398 . S
C1488 C1489 1.391 . S
C1489 H1477 0.950 . S
C1489 C1485 1.393 . S
C1489 C1488 1.391 . S
C1490 H1480 0.950 . S
C1490 C1491 1.386 . S
C1490 C1492 1.391 . S
C1491 C1490 1.386 . S
C1491 C1495 1.393 1_554 S
C1492 H1481 0.950 . S
C1492 C1490 1.391 . S
C1492 C1493 1.400 . S
C1493 C1487 1.491 . S
C1493 C1492 1.400 . S
C1493 C1494 1.398 1_554 S
C1494 H1482 0.950 . S
C1494 C1493 1.398 1_556 S
C1494 C1495 1.391 . S
C1495 H1483 0.950 . S
C1495 C1491 1.393 1_556 S
C1495 C1494 1.391 . S
H1496 C1504 0.950 . S
H1497 C1509 0.950 . S
H1498 C1506 0.950 . S
H1499 C1508 0.950 . S
H1500 C1510 0.950 . S
H1501 C1512 0.950 . S
H1502 C1514 0.950 . S
H1503 C1515 0.950 . S
C1504 H1496 0.950 . S
C1504 C1505 1.386 . S
C1504 C1506 1.391 . S
C1505 C1504 1.386 . S
C1505 C1509 1.393 . S
C1506 H1498 0.950 . S
C1506 C1504 1.391 . S
C1506 C1507 1.400 . S
C1507 C1506 1.400 . S
C1507 C1508 1.398 . S
C1507 C1513 1.491 . S
C1508 H1499 0.950 . S
C1508 C1507 1.398 . S
C1508 C1509 1.391 . S
C1509 H1497 0.950 . S
C1509 C1505 1.393 . S
C1509 C1508 1.391 . S
C1510 H1500 0.950 . S
C1510 C1511 1.386 . S
C1510 C1512 1.391 . S
C1511 C1510 1.386 . S
C1511 C1515 1.393 . S
C1512 H1501 0.950 . S
C1512 C1510 1.391 . S
C1512 C1513 1.400 . S
C1513 C1507 1.491 . S
C1513 C1512 1.400 . S
C1513 C1514 1.398 . S
C1514 H1502 0.950 . S
C1514 C1513 1.398 . S
C1514 C1515 1.391 . S
C1515 H1503 0.950 . S
C1515 C1511 1.393 . S
C1515 C1514 1.391 . S
H1516 C1524 0.950 . S
H1517 C1529 0.950 . S
H1518 C1526 0.950 . S
H1519 C1528 0.950 . S
H1520 C1530 0.950 . S
H1521 C1532 0.950 . S
H1522 C1534 0.950 . S
H1523 C1535 0.950 . S
C1524 H1516 0.950 . S
C1524 C1525 1.386 . S
C1524 C1526 1.391 . S
C1525 C1524 1.386 . S
C1525 C1529 1.393 . S
C1526 H1518 0.950 . S
C1526 C1524 1.391 . S
C1526 C1527 1.400 . S
C1527 C1526 1.400 . S
C1527 C1528 1.398 . S
C1527 C1533 1.491 . S
C1528 H1519 0.950 . S
C1528 C1527 1.398 . S
C1528 C1529 1.391 . S
C1529 H1517 0.950 . S
C1529 C1525 1.393 . S
C1529 C1528 1.391 . S
C1530 H1520 0.950 . S
C1530 C1531 1.386 . S
C1530 C1532 1.391 . S
C1531 C1530 1.386 . S
C1531 C1535 1.393 . S
C1532 H1521 0.950 . S
C1532 C1530 1.391 . S
C1532 C1533 1.400 . S
C1533 C1527 1.491 . S
C1533 C1532 1.400 . S
C1533 C1534 1.398 . S
C1534 H1522 0.950 . S
C1534 C1533 1.398 . S
C1534 C1535 1.391 . S
C1535 H1523 0.950 . S
C1535 C1531 1.393 . S
C1535 C1534 1.391 . S
H1536 C1544 0.950 . S
H1537 C1549 0.950 . S
H1538 C1546 0.950 . S
H1539 C1548 0.950 . S
H1540 C1550 0.950 . S
H1541 C1552 0.950 . S
H1542 C1554 0.950 . S
H1543 C1555 0.950 . S
C1544 H1536 0.950 . S
C1544 C1545 1.386 . S
C1544 C1546 1.391 . S
C1545 C1544 1.386 . S
C1545 C1549 1.393 . S
C1546 H1538 0.950 . S
C1546 C1544 1.391 . S
C1546 C1547 1.400 . S
C1547 C1546 1.400 . S
C1547 C1548 1.398 . S
C1547 C1553 1.491 . S
C1548 H1539 0.950 . S
C1548 C1547 1.398 . S
C1548 C1549 1.391 . S
C1549 H1537 0.950 . S
C1549 C1545 1.393 . S
C1549 C1548 1.391 . S
C1550 H1540 0.950 . S
C1550 C1551 1.386 . S
C1550 C1552 1.391 . S
C1551 C1550 1.386 . S
C1551 C1555 1.393 . S
C1552 H1541 0.950 . S
C1552 C1550 1.391 . S
C1552 C1553 1.400 . S
C1553 C1547 1.491 . S
C1553 C1552 1.400 . S
C1553 C1554 1.398 . S
C1554 H1542 0.950 . S
C1554 C1553 1.398 . S
C1554 C1555 1.391 . S
C1555 H1543 0.950 . S
C1555 C1551 1.393 . S
C1555 C1554 1.391 . S
H1556 C1564 0.950 . S
H1557 C1569 0.950 . S
H1558 C1566 0.950 . S
H1559 C1568 0.950 . S
H1560 C1570 0.950 . S
H1561 C1572 0.950 . S
H1562 C1574 0.950 . S
H1563 C1575 0.950 . S
C1564 H1556 0.950 . S
C1564 C1565 1.386 . S
C1564 C1566 1.391 . S
C1565 C1564 1.386 . S
C1565 C1569 1.393 . S
C1566 H1558 0.950 . S
C1566 C1564 1.391 . S
C1566 C1567 1.400 . S
C1567 C1566 1.400 . S
C1567 C1568 1.398 . S
C1567 C1573 1.491 . S
C1568 H1559 0.950 . S
C1568 C1567 1.398 . S
C1568 C1569 1.391 . S
C1569 H1557 0.950 . S
C1569 C1565 1.393 . S
C1569 C1568 1.391 . S
C1570 H1560 0.950 . S
C1570 C1571 1.386 . S
C1570 C1572 1.391 . S
C1571 C1570 1.386 . S
C1571 C1575 1.393 . S
C1572 H1561 0.950 . S
C1572 C1570 1.391 . S
C1572 C1573 1.400 . S
C1573 C1567 1.491 . S
C1573 C1572 1.400 . S
C1573 C1574 1.398 . S
C1574 H1562 0.950 . S
C1574 C1573 1.398 . S
C1574 C1575 1.391 . S
C1575 H1563 0.950 . S
C1575 C1571 1.393 . S
C1575 C1574 1.391 . S
H1576 C1584 0.950 . S
H1577 C1589 0.950 . S
H1578 C1586 0.950 . S
H1579 C1588 0.950 . S
H1580 C1590 0.950 . S
H1581 C1592 0.950 . S
H1582 C1594 0.950 . S
H1583 C1595 0.950 . S
C1584 H1576 0.950 . S
C1584 C1585 1.386 . S
C1584 C1586 1.391 . S
C1585 C1584 1.386 . S
C1585 C1589 1.393 . S
C1586 H1578 0.950 . S
C1586 C1584 1.391 . S
C1586 C1587 1.400 . S
C1587 C1586 1.400 . S
C1587 C1588 1.398 . S
C1587 C1593 1.491 . S
C1588 H1579 0.950 . S
C1588 C1587 1.398 . S
C1588 C1589 1.391 . S
C1589 H1577 0.950 . S
C1589 C1585 1.393 . S
C1589 C1588 1.391 . S
C1590 H1580 0.950 . S
C1590 C1591 1.386 . S
C1590 C1592 1.391 . S
C1591 C1590 1.386 . S
C1591 C1595 1.393 . S
C1592 H1581 0.950 . S
C1592 C1590 1.391 . S
C1592 C1593 1.400 . S
C1593 C1587 1.491 . S
C1593 C1592 1.400 . S
C1593 C1594 1.398 . S
C1594 H1582 0.950 . S
C1594 C1593 1.398 . S
C1594 C1595 1.391 . S
C1595 H1583 0.950 . S
C1595 C1591 1.393 . S
C1595 C1594 1.391 . S
H1596 C1604 0.950 . S
H1597 C1609 0.950 . S
H1598 C1606 0.950 . S
H1599 C1608 0.950 . S
H1600 C1610 0.950 . S
H1601 C1612 0.950 . S
H1602 C1614 0.950 . S
H1603 C1615 0.950 . S
C1604 H1596 0.950 . S
C1604 C1605 1.386 . S
C1604 C1606 1.391 . S
C1605 C1604 1.386 . S
C1605 C1609 1.393 . S
C1606 H1598 0.950 . S
C1606 C1604 1.391 . S
C1606 C1607 1.400 . S
C1607 C1606 1.400 . S
C1607 C1608 1.398 . S
C1607 C1613 1.491 . S
C1608 H1599 0.950 . S
C1608 C1607 1.398 . S
C1608 C1609 1.391 . S
C1609 H1597 0.950 . S
C1609 C1605 1.393 . S
C1609 C1608 1.391 . S
C1610 H1600 0.950 . S
C1610 C1611 1.386 . S
C1610 C1612 1.391 . S
C1611 C1610 1.386 . S
C1611 C1615 1.393 . S
C1612 H1601 0.950 . S
C1612 C1610 1.391 . S
C1612 C1613 1.400 . S
C1613 C1607 1.491 . S
C1613 C1612 1.400 . S
C1613 C1614 1.398 . S
C1614 H1602 0.950 . S
C1614 C1613 1.398 . S
C1614 C1615 1.391 . S
C1615 H1603 0.950 . S
C1615 C1611 1.393 . S
C1615 C1614 1.391 . S
H1616 C1624 0.950 . S
H1617 C1629 0.950 . S
H1618 C1626 0.950 . S
H1619 C1628 0.950 . S
H1620 C1630 0.950 . S
H1621 C1632 0.950 . S
H1622 C1634 0.950 . S
H1623 C1635 0.950 . S
C1624 H1616 0.950 . S
C1624 C1625 1.386 . S
C1624 C1626 1.391 . S
C1625 C1624 1.386 . S
C1625 C1629 1.393 . S
C1626 H1618 0.950 . S
C1626 C1624 1.391 . S
C1626 C1627 1.400 . S
C1627 C1626 1.400 . S
C1627 C1628 1.398 . S
C1627 C1633 1.491 . S
C1628 H1619 0.950 . S
C1628 C1627 1.398 . S
C1628 C1629 1.391 . S
C1629 H1617 0.950 . S
C1629 C1625 1.393 . S
C1629 C1628 1.391 . S
C1630 H1620 0.950 . S
C1630 C1631 1.386 . S
C1630 C1632 1.391 . S
C1631 C1630 1.386 . S
C1631 C1635 1.393 . S
C1632 H1621 0.950 . S
C1632 C1630 1.391 . S
C1632 C1633 1.400 . S
C1633 C1627 1.491 . S
C1633 C1632 1.400 . S
C1633 C1634 1.398 . S
C1634 H1622 0.950 . S
C1634 C1633 1.398 . S
C1634 C1635 1.391 . S
C1635 H1623 0.950 . S
C1635 C1631 1.393 . S
C1635 C1634 1.391 . S
H1636 C1644 0.950 . S
H1637 C1649 0.950 . S
H1638 C1646 0.950 . S
H1639 C1648 0.950 . S
H1640 C1650 0.950 . S
H1641 C1652 0.950 . S
H1642 C1654 0.950 . S
H1643 C1655 0.950 . S
C1644 H1636 0.950 . S
C1644 C1645 1.386 . S
C1644 C1646 1.391 . S
C1645 C1644 1.386 . S
C1645 C1649 1.393 . S
C1646 H1638 0.950 . S
C1646 C1644 1.391 . S
C1646 C1647 1.400 . S
C1647 C1646 1.400 . S
C1647 C1648 1.398 . S
C1647 C1653 1.491 . S
C1648 H1639 0.950 . S
C1648 C1647 1.398 . S
C1648 C1649 1.391 . S
C1649 H1637 0.950 . S
C1649 C1645 1.393 . S
C1649 C1648 1.391 . S
C1650 H1640 0.950 . S
C1650 C1651 1.386 . S
C1650 C1652 1.391 . S
C1651 C1650 1.386 . S
C1651 C1655 1.393 . S
C1652 H1641 0.950 . S
C1652 C1650 1.391 . S
C1652 C1653 1.400 . S
C1653 C1647 1.491 . S
C1653 C1652 1.400 . S
C1653 C1654 1.398 . S
C1654 H1642 0.950 . S
C1654 C1653 1.398 . S
C1654 C1655 1.391 . S
C1655 H1643 0.950 . S
C1655 C1651 1.393 . S
C1655 C1654 1.391 . S
H1656 C1664 0.950 . S
H1657 C1669 0.950 . S
H1658 C1666 0.950 . S
H1659 C1668 0.950 . S
H1660 C1670 0.950 . S
H1661 C1672 0.950 . S
H1662 C1674 0.950 . S
H1663 C1675 0.950 . S
C1664 H1656 0.950 . S
C1664 C1665 1.386 . S
C1664 C1666 1.391 . S
C1665 C1664 1.386 . S
C1665 C1669 1.393 1_455 S
C1666 H1658 0.950 . S
C1666 C1664 1.391 . S
C1666 C1667 1.400 . S
C1667 C1666 1.400 . S
C1667 C1668 1.398 1_455 S
C1667 C1673 1.491 . S
C1668 H1659 0.950 . S
C1668 C1667 1.398 1_655 S
C1668 C1669 1.391 . S
C1669 H1657 0.950 . S
C1669 C1665 1.393 1_655 S
C1669 C1668 1.391 . S
C1670 H1660 0.950 . S
C1670 C1671 1.386 1_655 S
C1670 C1672 1.391 . S
C1671 C1670 1.386 1_455 S
C1671 C1675 1.393 . S
C1672 H1661 0.950 . S
C1672 C1670 1.391 . S
C1672 C1673 1.400 1_655 S
C1673 C1667 1.491 . S
C1673 C1672 1.400 1_455 S
C1673 C1674 1.398 . S
C1674 H1662 0.950 . S
C1674 C1673 1.398 . S
C1674 C1675 1.391 . S
C1675 H1663 0.950 . S
C1675 C1671 1.393 . S
C1675 C1674 1.391 . S
H1676 C1684 0.950 . S
H1677 C1689 0.950 . S
H1678 C1686 0.950 . S
H1679 C1688 0.950 . S
H1680 C1690 0.950 . S
H1681 C1692 0.950 . S
H1682 C1694 0.950 . S
H1683 C1695 0.950 . S
C1684 H1676 0.950 . S
C1684 C1685 1.386 . S
C1684 C1686 1.391 . S
C1685 C1684 1.386 . S
C1685 C1689 1.393 . S
C1686 H1678 0.950 . S
C1686 C1684 1.391 . S
C1686 C1687 1.400 . S
C1687 C1686 1.400 . S
C1687 C1688 1.398 . S
C1687 C1693 1.491 . S
C1688 H1679 0.950 . S
C1688 C1687 1.398 . S
C1688 C1689 1.391 . S
C1689 H1677 0.950 . S
C1689 C1685 1.393 . S
C1689 C1688 1.391 . S
C1690 H1680 0.950 . S
C1690 C1691 1.386 . S
C1690 C1692 1.391 . S
C1691 C1690 1.386 . S
C1691 C1695 1.393 . S
C1692 H1681 0.950 . S
C1692 C1690 1.391 . S
C1692 C1693 1.400 . S
C1693 C1687 1.491 . S
C1693 C1692 1.400 . S
C1693 C1694 1.398 . S
C1694 H1682 0.950 . S
C1694 C1693 1.398 . S
C1694 C1695 1.391 . S
C1695 H1683 0.950 . S
C1695 C1691 1.393 . S
C1695 C1694 1.391 . S
H1696 C1704 0.950 . S
H1697 C1709 0.950 . S
H1698 C1706 0.950 . S
H1699 C1708 0.950 . S
H1700 C1710 0.950 . S
H1701 C1712 0.950 . S
H1702 C1714 0.950 . S
H1703 C1715 0.950 . S
C1704 H1696 0.950 . S
C1704 C1705 1.386 . S
C1704 C1706 1.391 . S
C1705 C1704 1.386 . S
C1705 C1709 1.393 . S
C1706 H1698 0.950 . S
C1706 C1704 1.391 . S
C1706 C1707 1.400 . S
C1707 C1706 1.400 . S
C1707 C1708 1.398 . S
C1707 C1713 1.491 . S
C1708 H1699 0.950 . S
C1708 C1707 1.398 . S
C1708 C1709 1.391 . S
C1709 H1697 0.950 . S
C1709 C1705 1.393 . S
C1709 C1708 1.391 . S
C1710 H1700 0.950 . S
C1710 C1711 1.386 . S
C1710 C1712 1.391 . S
C1711 C1710 1.386 . S
C1711 C1715 1.393 . S
C1712 H1701 0.950 . S
C1712 C1710 1.391 . S
C1712 C1713 1.400 . S
C1713 C1707 1.491 . S
C1713 C1712 1.400 . S
C1713 C1714 1.398 . S
C1714 H1702 0.950 . S
C1714 C1713 1.398 . S
C1714 C1715 1.391 . S
C1715 H1703 0.950 . S
C1715 C1711 1.393 . S
C1715 C1714 1.391 . S
H1716 C1724 0.950 . S
H1717 C1729 0.950 . S
H1718 C1726 0.950 . S
H1719 C1728 0.950 . S
H1720 C1730 0.950 . S
H1721 C1732 0.950 . S
H1722 C1734 0.950 . S
H1723 C1735 0.950 . S
C1724 H1716 0.950 . S
C1724 C1725 1.386 . S
C1724 C1726 1.391 . S
C1725 C1724 1.386 . S
C1725 C1729 1.393 . S
C1726 H1718 0.950 . S
C1726 C1724 1.391 . S
C1726 C1727 1.400 . S
C1727 C1726 1.400 . S
C1727 C1728 1.398 . S
C1727 C1733 1.491 . S
C1728 H1719 0.950 . S
C1728 C1727 1.398 . S
C1728 C1729 1.391 . S
C1729 H1717 0.950 . S
C1729 C1725 1.393 . S
C1729 C1728 1.391 . S
C1730 H1720 0.950 . S
C1730 C1731 1.386 . S
C1730 C1732 1.391 . S
C1731 C1730 1.386 . S
C1731 C1735 1.393 . S
C1732 H1721 0.950 . S
C1732 C1730 1.391 . S
C1732 C1733 1.400 . S
C1733 C1727 1.491 . S
C1733 C1732 1.400 . S
C1733 C1734 1.398 . S
C1734 H1722 0.950 . S
C1734 C1733 1.398 . S
C1734 C1735 1.391 . S
C1735 H1723 0.950 . S
C1735 C1731 1.393 . S
C1735 C1734 1.391 . S
H1736 C1744 0.950 . S
H1737 C1749 0.950 . S
H1738 C1746 0.951 . S
H1739 C1748 0.950 . S
H1740 C1750 0.950 . S
H1741 C1752 0.950 . S
H1742 C1754 0.950 . S
H1743 C1755 0.950 . S
C1744 H1736 0.950 . S
C1744 C1745 1.386 1_655 S
C1744 C1746 1.403 . S
C1745 C1744 1.386 1_455 S
C1745 C1749 1.394 . S
C1746 H1738 0.951 . S
C1746 C1744 1.403 . S
C1746 C1747 1.390 1_655 S
C1747 C1746 1.390 1_455 S
C1747 C1748 1.398 . S
C1747 C1753 1.491 . S
C1748 H1739 0.950 . S
C1748 C1747 1.398 . S
C1748 C1749 1.391 . S
C1749 H1737 0.950 . S
C1749 C1745 1.394 . S
C1749 C1748 1.391 . S
C1750 H1740 0.950 . S
C1750 C1751 1.386 . S
C1750 C1752 1.391 . S
C1751 C1750 1.386 . S
C1751 C1755 1.388 1_455 S
C1752 H1741 0.950 . S
C1752 C1750 1.391 . S
C1752 C1753 1.400 . S
C1753 C1747 1.491 . S
C1753 C1752 1.400 . S
C1753 C1754 1.398 1_455 S
C1754 H1742 0.950 . S
C1754 C1753 1.398 1_655 S
C1754 C1755 1.396 . S
C1755 H1743 0.950 . S
C1755 C1751 1.388 1_655 S
C1755 C1754 1.396 . S
H1756 C1764 0.950 . S
H1757 C1769 0.950 . S
H1758 C1766 0.950 . S
H1759 C1768 0.950 . S
H1760 C1770 0.950 . S
H1761 C1772 0.950 . S
H1762 C1774 0.950 . S
H1763 C1775 0.950 . S
C1764 H1756 0.950 . S
C1764 C1765 1.386 . S
C1764 C1766 1.391 . S
C1765 C1764 1.386 . S
C1765 C1769 1.393 . S
C1766 H1758 0.950 . S
C1766 C1764 1.391 . S
C1766 C1767 1.400 . S
C1767 C1766 1.400 . S
C1767 C1768 1.398 . S
C1767 C1773 1.491 . S
C1768 H1759 0.950 . S
C1768 C1767 1.398 . S
C1768 C1769 1.391 . S
C1769 H1757 0.950 . S
C1769 C1765 1.393 . S
C1769 C1768 1.391 . S
C1770 H1760 0.950 . S
C1770 C1771 1.386 . S
C1770 C1772 1.391 . S
C1771 C1770 1.386 . S
C1771 C1775 1.393 . S
C1772 H1761 0.950 . S
C1772 C1770 1.391 . S
C1772 C1773 1.400 . S
C1773 C1767 1.491 . S
C1773 C1772 1.400 . S
C1773 C1774 1.398 . S
C1774 H1762 0.950 . S
C1774 C1773 1.398 . S
C1774 C1775 1.391 . S
C1775 H1763 0.950 . S
C1775 C1771 1.393 . S
C1775 C1774 1.391 . S
H1776 C1784 0.950 . S
H1777 C1789 0.950 . S
H1778 C1786 0.950 . S
H1779 C1788 0.950 . S
H1780 C1790 0.950 . S
H1781 C1792 0.950 . S
H1782 C1794 0.950 . S
H1783 C1795 0.950 . S
C1784 H1776 0.950 . S
C1784 C1785 1.386 . S
C1784 C1786 1.391 . S
C1785 C1784 1.386 . S
C1785 C1789 1.393 . S
C1786 H1778 0.950 . S
C1786 C1784 1.391 . S
C1786 C1787 1.400 . S
C1787 C1786 1.400 . S
C1787 C1788 1.398 . S
C1787 C1793 1.491 . S
C1788 H1779 0.950 . S
C1788 C1787 1.398 . S
C1788 C1789 1.391 . S
C1789 H1777 0.950 . S
C1789 C1785 1.393 . S
C1789 C1788 1.391 . S
C1790 H1780 0.950 . S
C1790 C1791 1.386 . S
C1790 C1792 1.391 . S
C1791 C1790 1.386 . S
C1791 C1795 1.393 . S
C1792 H1781 0.950 . S
C1792 C1790 1.391 . S
C1792 C1793 1.400 . S
C1793 C1787 1.491 . S
C1793 C1792 1.400 . S
C1793 C1794 1.398 . S
C1794 H1782 0.950 . S
C1794 C1793 1.398 . S
C1794 C1795 1.391 . S
C1795 H1783 0.950 . S
C1795 C1791 1.393 . S
C1795 C1794 1.391 . S
H1796 C1804 0.950 . S
H1797 C1809 0.950 . S
H1798 C1806 0.950 . S
H1799 C1808 0.950 . S
H1800 C1810 0.950 . S
H1801 C1812 0.950 . S
H1802 C1814 0.950 . S
H1803 C1815 0.950 . S
C1804 H1796 0.950 . S
C1804 C1805 1.386 . S
C1804 C1806 1.391 . S
C1805 C1804 1.386 . S
C1805 C1809 1.393 . S
C1806 H1798 0.950 . S
C1806 C1804 1.391 . S
C1806 C1807 1.400 . S
C1807 C1806 1.400 . S
C1807 C1808 1.398 . S
C1807 C1813 1.491 . S
C1808 H1799 0.950 . S
C1808 C1807 1.398 . S
C1808 C1809 1.391 . S
C1809 H1797 0.950 . S
C1809 C1805 1.393 . S
C1809 C1808 1.391 . S
C1810 H1800 0.950 . S
C1810 C1811 1.386 . S
C1810 C1812 1.391 . S
C1811 C1810 1.386 . S
C1811 C1815 1.393 . S
C1812 H1801 0.950 . S
C1812 C1810 1.391 . S
C1812 C1813 1.400 . S
C1813 C1807 1.491 . S
C1813 C1812 1.400 . S
C1813 C1814 1.398 . S
C1814 H1802 0.950 . S
C1814 C1813 1.398 . S
C1814 C1815 1.391 . S
C1815 H1803 0.950 . S
C1815 C1811 1.393 . S
C1815 C1814 1.391 . S
H1816 C1824 0.950 . S
H1817 C1829 0.950 . S
H1818 C1826 0.950 . S
H1819 C1828 0.950 . S
H1820 C1830 0.950 . S
H1821 C1832 0.950 . S
H1822 C1834 0.950 . S
H1823 C1835 0.950 . S
C1824 H1816 0.950 . S
C1824 C1825 1.386 . S
C1824 C1826 1.391 . S
C1825 C1824 1.386 . S
C1825 C1829 1.393 . S
C1826 H1818 0.950 . S
C1826 C1824 1.391 . S
C1826 C1827 1.400 . S
C1827 C1826 1.400 . S
C1827 C1828 1.398 . S
C1827 C1833 1.491 . S
C1828 H1819 0.950 . S
C1828 C1827 1.398 . S
C1828 C1829 1.391 . S
C1829 H1817 0.950 . S
C1829 C1825 1.393 . S
C1829 C1828 1.391 . S
C1830 H1820 0.950 . S
C1830 C1831 1.386 . S
C1830 C1832 1.391 . S
C1831 C1830 1.386 . S
C1831 C1835 1.393 . S
C1832 H1821 0.950 . S
C1832 C1830 1.391 . S
C1832 C1833 1.400 . S
C1833 C1827 1.491 . S
C1833 C1832 1.400 . S
C1833 C1834 1.398 . S
C1834 H1822 0.950 . S
C1834 C1833 1.398 . S
C1834 C1835 1.391 . S
C1835 H1823 0.950 . S
C1835 C1831 1.393 . S
C1835 C1834 1.391 . S
H1836 C1844 0.950 . S
H1837 C1849 0.950 . S
H1838 C1846 0.950 . S
H1839 C1848 0.950 . S
H1840 C1850 0.950 . S
H1841 C1852 0.950 . S
H1842 C1854 0.950 . S
H1843 C1855 0.950 . S
C1844 H1836 0.950 . S
C1844 C1845 1.386 . S
C1844 C1846 1.391 . S
C1845 C1844 1.386 . S
C1845 C1849 1.393 . S
C1846 H1838 0.950 . S
C1846 C1844 1.391 . S
C1846 C1847 1.400 . S
C1847 C1846 1.400 . S
C1847 C1848 1.398 . S
C1847 C1853 1.491 . S
C1848 H1839 0.950 . S
C1848 C1847 1.398 . S
C1848 C1849 1.391 . S
C1849 H1837 0.950 . S
C1849 C1845 1.393 . S
C1849 C1848 1.391 . S
C1850 H1840 0.950 . S
C1850 C1851 1.386 . S
C1850 C1852 1.391 . S
C1851 C1850 1.386 . S
C1851 C1855 1.393 . S
C1852 H1841 0.950 . S
C1852 C1850 1.391 . S
C1852 C1853 1.400 . S
C1853 C1847 1.491 . S
C1853 C1852 1.400 . S
C1853 C1854 1.398 . S
C1854 H1842 0.950 . S
C1854 C1853 1.398 . S
C1854 C1855 1.391 . S
C1855 H1843 0.950 . S
C1855 C1851 1.393 . S
C1855 C1854 1.391 . S
H1856 C1864 0.950 . S
H1857 C1869 0.950 . S
H1858 C1866 0.950 . S
H1859 C1868 0.950 . S
H1860 C1870 0.950 . S
H1861 C1872 0.950 . S
H1862 C1874 0.950 . S
H1863 C1875 0.950 . S
C1864 H1856 0.950 . S
C1864 C1865 1.386 . S
C1864 C1866 1.391 . S
C1865 C1864 1.386 . S
C1865 C1869 1.393 . S
C1866 H1858 0.950 . S
C1866 C1864 1.391 . S
C1866 C1867 1.400 . S
C1867 C1866 1.400 . S
C1867 C1868 1.398 . S
C1867 C1873 1.491 . S
C1868 H1859 0.950 . S
C1868 C1867 1.398 . S
C1868 C1869 1.391 . S
C1869 H1857 0.950 . S
C1869 C1865 1.393 . S
C1869 C1868 1.391 . S
C1870 H1860 0.950 . S
C1870 C1871 1.386 . S
C1870 C1872 1.391 . S
C1871 C1870 1.386 . S
C1871 C1875 1.393 . S
C1872 H1861 0.950 . S
C1872 C1870 1.391 . S
C1872 C1873 1.400 . S
C1873 C1867 1.491 . S
C1873 C1872 1.400 . S
C1873 C1874 1.398 . S
C1874 H1862 0.950 . S
C1874 C1873 1.398 . S
C1874 C1875 1.391 . S
C1875 H1863 0.950 . S
C1875 C1871 1.393 . S
C1875 C1874 1.391 . S
H1876 C1884 0.950 . S
H1877 C1889 0.950 . S
H1878 C1886 0.950 . S
H1879 C1888 0.950 . S
H1880 C1890 0.950 . S
H1881 C1892 0.950 . S
H1882 C1894 0.950 . S
H1883 C1895 0.950 . S
C1884 H1876 0.950 . S
C1884 C1885 1.386 . S
C1884 C1886 1.391 . S
C1885 C1884 1.386 . S
C1885 C1889 1.393 . S
C1886 H1878 0.950 . S
C1886 C1884 1.391 . S
C1886 C1887 1.400 . S
C1887 C1886 1.400 . S
C1887 C1888 1.398 . S
C1887 C1893 1.491 . S
C1888 H1879 0.950 . S
C1888 C1887 1.398 . S
C1888 C1889 1.391 . S
C1889 H1877 0.950 . S
C1889 C1885 1.393 . S
C1889 C1888 1.391 . S
C1890 H1880 0.950 . S
C1890 C1891 1.386 . S
C1890 C1892 1.391 . S
C1891 C1890 1.386 . S
C1891 C1895 1.393 . S
C1892 H1881 0.950 . S
C1892 C1890 1.391 . S
C1892 C1893 1.400 . S
C1893 C1887 1.491 . S
C1893 C1892 1.400 . S
C1893 C1894 1.398 . S
C1894 H1882 0.950 . S
C1894 C1893 1.398 . S
C1894 C1895 1.391 . S
C1895 H1883 0.950 . S
C1895 C1891 1.393 . S
C1895 C1894 1.391 . S
H1896 C1904 0.950 . S
H1897 C1909 0.950 . S
H1898 C1906 0.950 . S
H1899 C1908 0.950 . S
H1900 C1910 0.950 . S
H1901 C1912 0.950 . S
H1902 C1914 0.950 . S
H1903 C1915 0.950 . S
C1904 H1896 0.950 . S
C1904 C1905 1.386 . S
C1904 C1906 1.391 . S
C1905 C1904 1.386 . S
C1905 C1909 1.393 . S
C1906 H1898 0.950 . S
C1906 C1904 1.391 . S
C1906 C1907 1.400 . S
C1907 C1906 1.400 . S
C1907 C1908 1.398 . S
C1907 C1913 1.491 . S
C1908 H1899 0.950 . S
C1908 C1907 1.398 . S
C1908 C1909 1.391 . S
C1909 H1897 0.950 . S
C1909 C1905 1.393 . S
C1909 C1908 1.391 . S
C1910 H1900 0.950 . S
C1910 C1911 1.386 . S
C1910 C1912 1.391 . S
C1911 C1910 1.386 . S
C1911 C1915 1.393 . S
C1912 H1901 0.950 . S
C1912 C1910 1.391 . S
C1912 C1913 1.400 . S
C1913 C1907 1.491 . S
C1913 C1912 1.400 . S
C1913 C1914 1.398 . S
C1914 H1902 0.950 . S
C1914 C1913 1.398 . S
C1914 C1915 1.391 . S
C1915 H1903 0.950 . S
C1915 C1911 1.393 . S
C1915 C1914 1.391 . S
H1916 C1924 0.950 . S
H1917 C1929 0.950 . S
H1918 C1926 0.950 . S
H1919 C1928 0.950 . S
H1920 C1930 0.950 . S
H1921 C1932 0.950 . S
H1922 C1934 0.950 . S
H1923 C1935 0.950 . S
C1924 H1916 0.950 . S
C1924 C1925 1.386 . S
C1924 C1926 1.391 . S
C1925 C1924 1.386 . S
C1925 C1929 1.393 . S
C1926 H1918 0.950 . S
C1926 C1924 1.391 . S
C1926 C1927 1.400 . S
C1927 C1926 1.400 . S
C1927 C1928 1.398 . S
C1927 C1933 1.491 . S
C1928 H1919 0.950 . S
C1928 C1927 1.398 . S
C1928 C1929 1.391 . S
C1929 H1917 0.950 . S
C1929 C1925 1.393 . S
C1929 C1928 1.391 . S
C1930 H1920 0.950 . S
C1930 C1931 1.386 . S
C1930 C1932 1.391 . S
C1931 C1930 1.386 . S
C1931 C1935 1.393 . S
C1932 H1921 0.950 . S
C1932 C1930 1.391 . S
C1932 C1933 1.400 . S
C1933 C1927 1.491 . S
C1933 C1932 1.400 . S
C1933 C1934 1.398 . S
C1934 H1922 0.950 . S
C1934 C1933 1.398 . S
C1934 C1935 1.391 . S
C1935 H1923 0.950 . S
C1935 C1931 1.393 . S
C1935 C1934 1.391 . S
H1936 C1944 0.950 . S
H1937 C1949 0.950 . S
H1938 C1946 0.950 . S
H1939 C1948 0.950 . S
H1940 C1950 0.950 . S
H1941 C1952 0.950 . S
H1942 C1954 0.950 . S
H1943 C1955 0.950 . S
C1944 H1936 0.950 . S
C1944 C1945 1.386 . S
C1944 C1946 1.391 . S
C1945 C1944 1.386 . S
C1945 C1949 1.393 . S
C1946 H1938 0.950 . S
C1946 C1944 1.391 . S
C1946 C1947 1.400 . S
C1947 C1946 1.400 . S
C1947 C1948 1.398 . S
C1947 C1953 1.491 . S
C1948 H1939 0.950 . S
C1948 C1947 1.398 . S
C1948 C1949 1.391 . S
C1949 H1937 0.950 . S
C1949 C1945 1.393 . S
C1949 C1948 1.391 . S
C1950 H1940 0.950 . S
C1950 C1951 1.386 . S
C1950 C1952 1.391 . S
C1951 C1950 1.386 . S
C1951 C1955 1.393 . S
C1952 H1941 0.950 . S
C1952 C1950 1.391 . S
C1952 C1953 1.400 . S
C1953 C1947 1.491 . S
C1953 C1952 1.400 . S
C1953 C1954 1.398 . S
C1954 H1942 0.950 . S
C1954 C1953 1.398 . S
C1954 C1955 1.391 . S
C1955 H1943 0.950 . S
C1955 C1951 1.393 . S
C1955 C1954 1.391 . S
H1956 C1964 0.950 . S
H1957 C1969 0.950 . S
H1958 C1966 0.950 . S
H1959 C1968 0.950 . S
H1960 C1970 0.950 . S
H1961 C1972 0.950 . S
H1962 C1974 0.950 . S
H1963 C1975 0.950 . S
C1964 H1956 0.950 . S
C1964 C1965 1.386 . S
C1964 C1966 1.391 . S
C1965 C1964 1.386 . S
C1965 C1969 1.393 . S
C1966 H1958 0.950 . S
C1966 C1964 1.391 . S
C1966 C1967 1.400 . S
C1967 C1966 1.400 . S
C1967 C1968 1.398 . S
C1967 C1973 1.491 . S
C1968 H1959 0.950 . S
C1968 C1967 1.398 . S
C1968 C1969 1.391 . S
C1969 H1957 0.950 . S
C1969 C1965 1.393 . S
C1969 C1968 1.391 . S
C1970 H1960 0.950 . S
C1970 C1971 1.386 . S
C1970 C1972 1.391 . S
C1971 C1970 1.386 . S
C1971 C1975 1.393 . S
C1972 H1961 0.950 . S
C1972 C1970 1.391 . S
C1972 C1973 1.400 . S
C1973 C1967 1.491 . S
C1973 C1972 1.400 . S
C1973 C1974 1.398 . S
C1974 H1962 0.950 . S
C1974 C1973 1.398 . S
C1974 C1975 1.391 . S
C1975 H1963 0.950 . S
C1975 C1971 1.393 . S
C1975 C1974 1.391 . S
H1976 C1984 0.950 . S
H1977 C1989 0.950 . S
H1978 C1986 0.950 . S
H1979 C1988 0.950 . S
H1980 C1990 0.950 . S
H1981 C1992 0.950 . S
H1982 C1994 0.950 . S
H1983 C1995 0.950 . S
C1984 H1976 0.950 . S
C1984 C1985 1.386 . S
C1984 C1986 1.391 . S
C1985 C1984 1.386 . S
C1985 C1989 1.393 . S
C1986 H1978 0.950 . S
C1986 C1984 1.391 . S
C1986 C1987 1.400 . S
C1987 C1986 1.400 . S
C1987 C1988 1.398 . S
C1987 C1993 1.491 . S
C1988 H1979 0.950 . S
C1988 C1987 1.398 . S
C1988 C1989 1.391 . S
C1989 H1977 0.950 . S
C1989 C1985 1.393 . S
C1989 C1988 1.391 . S
C1990 H1980 0.950 . S
C1990 C1991 1.386 . S
C1990 C1992 1.391 . S
C1991 C1990 1.386 . S
C1991 C1995 1.393 . S
C1992 H1981 0.950 . S
C1992 C1990 1.391 . S
C1992 C1993 1.400 . S
C1993 C1987 1.491 . S
C1993 C1992 1.400 . S
C1993 C1994 1.398 . S
C1994 H1982 0.950 . S
C1994 C1993 1.398 . S
C1994 C1995 1.391 . S
C1995 H1983 0.950 . S
C1995 C1991 1.393 . S
C1995 C1994 1.391 . S
H1996 C2004 0.950 1_556 S
H1997 C2009 0.950 . S
H1998 C2006 0.958 . S
H1999 C2008 0.950 . S
H2000 C2010 0.950 . S
H2001 C2012 0.950 . S
H2002 C2014 0.950 . S
H2003 C2015 0.950 . S
C2004 H1996 0.950 1_554 S
C2004 C2005 1.386 . S
C2004 C2006 1.389 1_554 S
C2005 C2004 1.386 . S
C2005 C2009 1.393 . S
C2006 H1998 0.958 . S
C2006 C2004 1.389 1_556 S
C2006 C2007 1.394 1_556 S
C2007 C2006 1.394 1_554 S
C2007 C2008 1.398 . S
C2007 C2013 1.491 . S
C2008 H1999 0.950 . S
C2008 C2007 1.398 . S
C2008 C2009 1.391 . S
C2009 H1997 0.950 . S
C2009 C2005 1.393 . S
C2009 C2008 1.391 . S
C2010 H2000 0.950 . S
C2010 C2011 1.386 1_565 S
C2010 C2012 1.391 . S
C2011 C2010 1.386 1_545 S
C2011 C2015 1.393 1_554 S
C2012 H2001 0.950 . S
C2012 C2010 1.391 . S
C2012 C2013 1.400 . S
C2013 C2007 1.491 . S
C2013 C2012 1.400 . S
C2013 C2014 1.398 1_554 S
C2014 H2002 0.950 . S
C2014 C2013 1.398 1_556 S
C2014 C2015 1.391 1_565 S
C2015 H2003 0.950 . S
C2015 C2011 1.393 1_556 S
C2015 C2014 1.391 1_545 S
H2016 C2024 0.950 . S
H2017 C2029 0.950 . S
H2018 C2026 0.950 . S
H2019 C2028 0.950 . S
H2020 C2030 0.950 . S
H2021 C2032 0.950 . S
H2022 C2034 0.950 . S
H2023 C2035 0.950 . S
C2024 H2016 0.950 . S
C2024 C2025 1.386 . S
C2024 C2026 1.391 . S
C2025 C2024 1.386 . S
C2025 C2029 1.393 . S
C2026 H2018 0.950 . S
C2026 C2024 1.391 . S
C2026 C2027 1.400 . S
C2027 C2026 1.400 . S
C2027 C2028 1.398 . S
C2027 C2033 1.491 . S
C2028 H2019 0.950 . S
C2028 C2027 1.398 . S
C2028 C2029 1.391 . S
C2029 H2017 0.950 . S
C2029 C2025 1.393 . S
C2029 C2028 1.391 . S
C2030 H2020 0.950 . S
C2030 C2031 1.386 . S
C2030 C2032 1.391 . S
C2031 C2030 1.386 . S
C2031 C2035 1.393 . S
C2032 H2021 0.950 . S
C2032 C2030 1.391 . S
C2032 C2033 1.400 . S
C2033 C2027 1.491 . S
C2033 C2032 1.400 . S
C2033 C2034 1.398 . S
C2034 H2022 0.950 . S
C2034 C2033 1.398 . S
C2034 C2035 1.391 . S
C2035 H2023 0.950 . S
C2035 C2031 1.393 . S
C2035 C2034 1.391 . S
H2036 C2044 0.950 . S
H2037 C2049 0.933 1_556 S
H2038 C2046 0.950 . S
H2039 C2048 0.940 1_556 S
H2040 C2050 0.950 . S
H2041 C2052 0.950 . S
H2042 C2054 0.950 . S
H2043 C2055 0.950 . S
C2044 H2036 0.950 . S
C2044 C2045 1.386 . S
C2044 C2046 1.391 . S
C2045 C2044 1.386 . S
C2045 C2049 1.404 . S
C2046 H2038 0.950 . S
C2046 C2044 1.391 . S
C2046 C2047 1.400 . S
C2047 C2046 1.400 . S
C2047 C2048 1.398 . S
C2047 C2053 1.491 . S
C2048 H2039 0.940 1_554 S
C2048 C2047 1.398 . S
C2048 C2049 1.398 . S
C2049 H2037 0.933 1_554 S
C2049 C2045 1.404 . S
C2049 C2048 1.398 . S
C2050 H2040 0.950 . S
C2050 C2051 1.386 . S
C2050 C2052 1.391 . S
C2051 C2050 1.386 . S
C2051 C2055 1.393 . S
C2052 H2041 0.950 . S
C2052 C2050 1.391 . S
C2052 C2053 1.400 . S
C2053 C2047 1.491 . S
C2053 C2052 1.400 . S
C2053 C2054 1.398 . S
C2054 H2042 0.950 . S
C2054 C2053 1.398 . S
C2054 C2055 1.391 . S
C2055 H2043 0.950 . S
C2055 C2051 1.393 . S
C2055 C2054 1.391 . S
H2056 C2064 0.950 . S
H2057 C2069 0.950 . S
H2058 C2066 0.950 . S
H2059 C2068 0.950 . S
H2060 C2070 0.950 . S
H2061 C2072 0.950 . S
H2062 C2074 0.950 . S
H2063 C2075 0.950 . S
C2064 H2056 0.950 . S
C2064 C2065 1.386 . S
C2064 C2066 1.391 . S
C2065 C2064 1.386 . S
C2065 C2069 1.393 . S
C2066 H2058 0.950 . S
C2066 C2064 1.391 . S
C2066 C2067 1.400 . S
C2067 C2066 1.400 . S
C2067 C2068 1.398 . S
C2067 C2073 1.491 . S
C2068 H2059 0.950 . S
C2068 C2067 1.398 . S
C2068 C2069 1.391 . S
C2069 H2057 0.950 . S
C2069 C2065 1.393 . S
C2069 C2068 1.391 . S
C2070 H2060 0.950 . S
C2070 C2071 1.386 . S
C2070 C2072 1.391 . S
C2071 C2070 1.386 . S
C2071 C2075 1.393 . S
C2072 H2061 0.950 . S
C2072 C2070 1.391 . S
C2072 C2073 1.400 . S
C2073 C2067 1.491 . S
C2073 C2072 1.400 . S
C2073 C2074 1.398 . S
C2074 H2062 0.950 . S
C2074 C2073 1.398 . S
C2074 C2075 1.391 . S
C2075 H2063 0.950 . S
C2075 C2071 1.393 . S
C2075 C2074 1.391 . S
H2076 C2084 0.950 . S
H2077 C2089 0.950 . S
H2078 C2086 0.950 . S
H2079 C2088 0.950 . S
H2080 C2090 0.950 . S
H2081 C2092 0.950 . S
H2082 C2094 0.950 . S
H2083 C2095 0.950 . S
C2084 H2076 0.950 . S
C2084 C2085 1.386 . S
C2084 C2086 1.391 . S
C2085 C2084 1.386 . S
C2085 C2089 1.393 . S
C2086 H2078 0.950 . S
C2086 C2084 1.391 . S
C2086 C2087 1.400 . S
C2087 C2086 1.400 . S
C2087 C2088 1.398 . S
C2087 C2093 1.491 . S
C2088 H2079 0.950 . S
C2088 C2087 1.398 . S
C2088 C2089 1.391 . S
C2089 H2077 0.950 . S
C2089 C2085 1.393 . S
C2089 C2088 1.391 . S
C2090 H2080 0.950 . S
C2090 C2091 1.386 . S
C2090 C2092 1.391 . S
C2091 C2090 1.386 . S
C2091 C2095 1.393 . S
C2092 H2081 0.950 . S
C2092 C2090 1.391 . S
C2092 C2093 1.400 . S
C2093 C2087 1.491 . S
C2093 C2092 1.400 . S
C2093 C2094 1.398 . S
C2094 H2082 0.950 . S
C2094 C2093 1.398 . S
C2094 C2095 1.391 . S
C2095 H2083 0.950 . S
C2095 C2091 1.393 . S
C2095 C2094 1.391 . S
H2096 C2104 0.950 . S
H2097 C2109 0.950 . S
H2098 C2106 0.950 . S
H2099 C2108 0.950 . S
H2100 C2110 0.950 . S
H2101 C2112 0.950 . S
H2102 C2114 0.950 . S
H2103 C2115 0.950 . S
C2104 H2096 0.950 . S
C2104 C2105 1.386 . S
C2104 C2106 1.391 . S
C2105 C2104 1.386 . S
C2105 C2109 1.393 . S
C2106 H2098 0.950 . S
C2106 C2104 1.391 . S
C2106 C2107 1.400 . S
C2107 C2106 1.400 . S
C2107 C2108 1.398 . S
C2107 C2113 1.491 . S
C2108 H2099 0.950 . S
C2108 C2107 1.398 . S
C2108 C2109 1.391 . S
C2109 H2097 0.950 . S
C2109 C2105 1.393 . S
C2109 C2108 1.391 . S
C2110 H2100 0.950 . S
C2110 C2111 1.386 . S
C2110 C2112 1.391 . S
C2111 C2110 1.386 . S
C2111 C2115 1.393 . S
C2112 H2101 0.950 . S
C2112 C2110 1.391 . S
C2112 C2113 1.400 . S
C2113 C2107 1.491 . S
C2113 C2112 1.400 . S
C2113 C2114 1.398 . S
C2114 H2102 0.950 . S
C2114 C2113 1.398 . S
C2114 C2115 1.391 . S
C2115 H2103 0.950 . S
C2115 C2111 1.393 . S
C2115 C2114 1.391 . S
H2116 C2124 0.950 . S
H2117 C2129 0.950 . S
H2118 C2126 0.950 . S
H2119 C2128 0.950 . S
H2120 C2130 0.950 . S
H2121 C2132 0.950 . S
H2122 C2134 0.950 . S
H2123 C2135 0.950 . S
C2124 H2116 0.950 . S
C2124 C2125 1.386 . S
C2124 C2126 1.391 . S
C2125 C2124 1.386 . S
C2125 C2129 1.393 . S
C2126 H2118 0.950 . S
C2126 C2124 1.391 . S
C2126 C2127 1.400 . S
C2127 C2126 1.400 . S
C2127 C2128 1.398 . S
C2127 C2133 1.491 . S
C2128 H2119 0.950 . S
C2128 C2127 1.398 . S
C2128 C2129 1.391 . S
C2129 H2117 0.950 . S
C2129 C2125 1.393 . S
C2129 C2128 1.391 . S
C2130 H2120 0.950 . S
C2130 C2131 1.386 . S
C2130 C2132 1.391 . S
C2131 C2130 1.386 . S
C2131 C2135 1.393 . S
C2132 H2121 0.950 . S
C2132 C2130 1.391 . S
C2132 C2133 1.400 . S
C2133 C2127 1.491 . S
C2133 C2132 1.400 . S
C2133 C2134 1.398 . S
C2134 H2122 0.950 . S
C2134 C2133 1.398 . S
C2134 C2135 1.391 . S
C2135 H2123 0.950 . S
C2135 C2131 1.393 . S
C2135 C2134 1.391 . S
H2136 C2144 0.950 . S
H2137 C2149 0.950 . S
H2138 C2146 0.950 . S
H2139 C2148 0.950 . S
H2140 C2150 0.950 . S
H2141 C2152 0.950 . S
H2142 C2154 0.950 . S
H2143 C2155 0.950 1_556 S
C2144 H2136 0.950 . S
C2144 C2145 1.386 . S
C2144 C2146 1.391 . S
C2145 C2144 1.386 . S
C2145 C2149 1.393 . S
C2146 H2138 0.950 . S
C2146 C2144 1.391 . S
C2146 C2147 1.400 . S
C2147 C2146 1.400 . S
C2147 C2148 1.398 . S
C2147 C2153 1.491 . S
C2148 H2139 0.950 . S
C2148 C2147 1.398 . S
C2148 C2149 1.391 . S
C2149 H2137 0.950 . S
C2149 C2145 1.393 . S
C2149 C2148 1.391 . S
C2150 H2140 0.950 . S
C2150 C2151 1.386 . S
C2150 C2152 1.391 . S
C2151 C2150 1.386 . S
C2151 C2155 1.393 . S
C2152 H2141 0.950 . S
C2152 C2150 1.391 . S
C2152 C2153 1.400 . S
C2153 C2147 1.491 . S
C2153 C2152 1.400 . S
C2153 C2154 1.398 . S
C2154 H2142 0.950 . S
C2154 C2153 1.398 . S
C2154 C2155 1.391 . S
C2155 H2143 0.950 1_554 S
C2155 C2151 1.393 . S
C2155 C2154 1.391 . S
H2156 C2164 0.950 . S
H2157 C2169 0.950 . S
H2158 C2166 0.950 . S
H2159 C2168 0.950 . S
H2160 C2170 0.950 . S
H2161 C2172 0.950 . S
H2162 C2174 0.950 . S
H2163 C2175 0.950 . S
C2164 H2156 0.950 . S
C2164 C2165 1.386 . S
C2164 C2166 1.391 . S
C2165 C2164 1.386 . S
C2165 C2169 1.393 . S
C2166 H2158 0.950 . S
C2166 C2164 1.391 . S
C2166 C2167 1.400 . S
C2167 C2166 1.400 . S
C2167 C2168 1.398 . S
C2167 C2173 1.491 . S
C2168 H2159 0.950 . S
C2168 C2167 1.398 . S
C2168 C2169 1.391 . S
C2169 H2157 0.950 . S
C2169 C2165 1.393 . S
C2169 C2168 1.391 . S
C2170 H2160 0.950 . S
C2170 C2171 1.386 . S
C2170 C2172 1.391 . S
C2171 C2170 1.386 . S
C2171 C2175 1.393 . S
C2172 H2161 0.950 . S
C2172 C2170 1.391 . S
C2172 C2173 1.400 . S
C2173 C2167 1.491 . S
C2173 C2172 1.400 . S
C2173 C2174 1.398 . S
C2174 H2162 0.950 . S
C2174 C2173 1.398 . S
C2174 C2175 1.391 . S
C2175 H2163 0.950 . S
C2175 C2171 1.393 . S
C2175 C2174 1.391 . S
H2176 C2184 0.950 . S
H2177 C2189 0.950 . S
H2178 C2186 0.950 . S
H2179 C2188 0.950 . S
H2180 C2190 0.950 . S
H2181 C2192 0.950 . S
H2182 C2194 0.950 . S
H2183 C2195 0.950 . S
C2184 H2176 0.950 . S
C2184 C2185 1.386 . S
C2184 C2186 1.391 . S
C2185 C2184 1.386 . S
C2185 C2189 1.393 . S
C2186 H2178 0.950 . S
C2186 C2184 1.391 . S
C2186 C2187 1.400 . S
C2187 C2186 1.400 . S
C2187 C2188 1.398 . S
C2187 C2193 1.491 . S
C2188 H2179 0.950 . S
C2188 C2187 1.398 . S
C2188 C2189 1.391 . S
C2189 H2177 0.950 . S
C2189 C2185 1.393 . S
C2189 C2188 1.391 . S
C2190 H2180 0.950 . S
C2190 C2191 1.386 . S
C2190 C2192 1.391 . S
C2191 C2190 1.386 . S
C2191 C2195 1.393 . S
C2192 H2181 0.950 . S
C2192 C2190 1.391 . S
C2192 C2193 1.400 . S
C2193 C2187 1.491 . S
C2193 C2192 1.400 . S
C2193 C2194 1.398 . S
C2194 H2182 0.950 . S
C2194 C2193 1.398 . S
C2194 C2195 1.391 . S
C2195 H2183 0.950 . S
C2195 C2191 1.393 . S
C2195 C2194 1.391 . S
H2196 C2204 0.950 . S
H2197 C2209 0.950 . S
H2198 C2206 0.950 . S
H2199 C2208 0.950 . S
H2200 C2210 0.950 . S
H2201 C2212 0.950 . S
H2202 C2214 0.950 . S
H2203 C2215 0.950 . S
C2204 H2196 0.950 . S
C2204 C2205 1.386 . S
C2204 C2206 1.391 . S
C2205 C2204 1.386 . S
C2205 C2209 1.393 . S
C2206 H2198 0.950 . S
C2206 C2204 1.391 . S
C2206 C2207 1.400 . S
C2207 C2206 1.400 . S
C2207 C2208 1.398 . S
C2207 C2213 1.491 . S
C2208 H2199 0.950 . S
C2208 C2207 1.398 . S
C2208 C2209 1.391 . S
C2209 H2197 0.950 . S
C2209 C2205 1.393 . S
C2209 C2208 1.391 . S
C2210 H2200 0.950 . S
C2210 C2211 1.386 . S
C2210 C2212 1.391 . S
C2211 C2210 1.386 . S
C2211 C2215 1.393 . S
C2212 H2201 0.950 . S
C2212 C2210 1.391 . S
C2212 C2213 1.400 . S
C2213 C2207 1.491 . S
C2213 C2212 1.400 . S
C2213 C2214 1.398 . S
C2214 H2202 0.950 . S
C2214 C2213 1.398 . S
C2214 C2215 1.391 . S
C2215 H2203 0.950 . S
C2215 C2211 1.393 . S
C2215 C2214 1.391 . S
H2216 C2224 0.930 1_655 S
H2217 C2229 0.950 . S
H2218 C2226 0.988 . S
H2219 C2228 0.950 . S
H2220 C2230 0.950 . S
H2221 C2232 0.950 . S
H2222 C2234 0.950 . S
H2223 C2235 0.950 . S
C2224 H2216 0.930 1_455 S
C2224 C2225 1.414 . S
C2224 C2226 1.373 1_455 S
C2225 C2224 1.414 . S
C2225 C2229 1.393 . S
C2226 H2218 0.988 . S
C2226 C2224 1.373 1_655 S
C2226 C2227 1.374 1_655 S
C2227 C2226 1.374 1_455 S
C2227 C2228 1.398 . S
C2227 C2233 1.491 . S
C2228 H2219 0.950 . S
C2228 C2227 1.398 . S
C2228 C2229 1.391 . S
C2229 H2217 0.950 . S
C2229 C2225 1.393 . S
C2229 C2228 1.391 . S
C2230 H2220 0.950 . S
C2230 C2231 1.386 . S
C2230 C2232 1.391 . S
C2231 C2230 1.386 . S
C2231 C2235 1.393 1_455 S
C2232 H2221 0.950 . S
C2232 C2230 1.391 . S
C2232 C2233 1.400 . S
C2233 C2227 1.491 . S
C2233 C2232 1.400 . S
C2233 C2234 1.398 1_455 S
C2234 H2222 0.950 . S
C2234 C2233 1.398 1_655 S
C2234 C2235 1.391 . S
C2235 H2223 0.950 . S
C2235 C2231 1.393 1_655 S
C2235 C2234 1.391 . S
H2236 C2244 0.950 . S
H2237 C2249 0.950 . S
H2238 C2246 0.950 . S
H2239 C2248 0.950 . S
H2240 C2250 0.950 . S
H2241 C2252 0.950 . S
H2242 C2254 0.950 . S
H2243 C2255 0.950 . S
C2244 H2236 0.950 . S
C2244 C2245 1.386 . S
C2244 C2246 1.391 . S
C2245 C2244 1.386 . S
C2245 C2249 1.393 . S
C2246 H2238 0.950 . S
C2246 C2244 1.391 . S
C2246 C2247 1.400 . S
C2247 C2246 1.400 . S
C2247 C2248 1.398 . S
C2247 C2253 1.491 . S
C2248 H2239 0.950 . S
C2248 C2247 1.398 . S
C2248 C2249 1.391 . S
C2249 H2237 0.950 . S
C2249 C2245 1.393 . S
C2249 C2248 1.391 . S
C2250 H2240 0.950 . S
C2250 C2251 1.386 . S
C2250 C2252 1.391 . S
C2251 C2250 1.386 . S
C2251 C2255 1.393 . S
C2252 H2241 0.950 . S
C2252 C2250 1.391 . S
C2252 C2253 1.400 . S
C2253 C2247 1.491 . S
C2253 C2252 1.400 . S
C2253 C2254 1.398 . S
C2254 H2242 0.950 . S
C2254 C2253 1.398 . S
C2254 C2255 1.391 . S
C2255 H2243 0.950 . S
C2255 C2251 1.393 . S
C2255 C2254 1.391 . S
H2256 C2264 0.950 . S
H2257 C2269 0.950 . S
H2258 C2266 0.950 . S
H2259 C2268 0.950 . S
H2260 C2270 0.950 . S
H2261 C2272 0.950 . S
H2262 C2274 0.950 . S
H2263 C2275 0.950 . S
C2264 H2256 0.950 . S
C2264 C2265 1.386 . S
C2264 C2266 1.391 . S
C2265 C2264 1.386 . S
C2265 C2269 1.393 . S
C2266 H2258 0.950 . S
C2266 C2264 1.391 . S
C2266 C2267 1.400 . S
C2267 C2266 1.400 . S
C2267 C2268 1.398 . S
C2267 C2273 1.491 . S
C2268 H2259 0.950 . S
C2268 C2267 1.398 . S
C2268 C2269 1.391 . S
C2269 H2257 0.950 . S
C2269 C2265 1.393 . S
C2269 C2268 1.391 . S
C2270 H2260 0.950 . S
C2270 C2271 1.386 . S
C2270 C2272 1.391 . S
C2271 C2270 1.386 . S
C2271 C2275 1.393 . S
C2272 H2261 0.950 . S
C2272 C2270 1.391 . S
C2272 C2273 1.400 . S
C2273 C2267 1.491 . S
C2273 C2272 1.400 . S
C2273 C2274 1.398 . S
C2274 H2262 0.950 . S
C2274 C2273 1.398 . S
C2274 C2275 1.391 . S
C2275 H2263 0.950 . S
C2275 C2271 1.393 . S
C2275 C2274 1.391 . S
H2276 C2284 0.950 . S
H2277 C2289 0.950 . S
H2278 C2286 0.950 . S
H2279 C2288 0.950 . S
H2280 C2290 0.950 . S
H2281 C2292 0.950 . S
H2282 C2294 0.950 . S
H2283 C2295 0.950 . S
C2284 H2276 0.950 . S
C2284 C2285 1.386 . S
C2284 C2286 1.391 . S
C2285 C2284 1.386 . S
C2285 C2289 1.393 . S
C2286 H2278 0.950 . S
C2286 C2284 1.391 . S
C2286 C2287 1.400 . S
C2287 C2286 1.400 . S
C2287 C2288 1.398 . S
C2287 C2293 1.491 . S
C2288 H2279 0.950 . S
C2288 C2287 1.398 . S
C2288 C2289 1.391 . S
C2289 H2277 0.950 . S
C2289 C2285 1.393 . S
C2289 C2288 1.391 . S
C2290 H2280 0.950 . S
C2290 C2291 1.386 . S
C2290 C2292 1.391 . S
C2291 C2290 1.386 . S
C2291 C2295 1.393 . S
C2292 H2281 0.950 . S
C2292 C2290 1.391 . S
C2292 C2293 1.400 . S
C2293 C2287 1.491 . S
C2293 C2292 1.400 . S
C2293 C2294 1.398 . S
C2294 H2282 0.950 . S
C2294 C2293 1.398 . S
C2294 C2295 1.391 . S
C2295 H2283 0.950 . S
C2295 C2291 1.393 . S
C2295 C2294 1.391 . S
H2296 C2304 0.950 . S
H2297 C2309 0.950 . S
H2298 C2306 0.950 . S
H2299 C2308 0.950 . S
H2300 C2310 0.950 . S
H2301 C2312 0.950 1_455 S
H2302 C2314 0.950 . S
H2303 C2315 0.950 . S
C2304 H2296 0.950 . S
C2304 C2305 1.386 . S
C2304 C2306 1.391 . S
C2305 C2304 1.386 . S
C2305 C2309 1.393 . S
C2306 H2298 0.950 . S
C2306 C2304 1.391 . S
C2306 C2307 1.400 . S
C2307 C2306 1.400 . S
C2307 C2308 1.398 . S
C2307 C2313 1.491 . S
C2308 H2299 0.950 . S
C2308 C2307 1.398 . S
C2308 C2309 1.391 . S
C2309 H2297 0.950 . S
C2309 C2305 1.393 . S
C2309 C2308 1.391 . S
C2310 H2300 0.950 . S
C2310 C2311 1.386 1_455 S
C2310 C2312 1.391 1_455 S
C2311 C2310 1.386 1_655 S
C2311 C2315 1.393 . S
C2312 H2301 0.950 1_655 S
C2312 C2310 1.391 1_655 S
C2312 C2313 1.400 . S
C2313 C2307 1.491 . S
C2313 C2312 1.400 . S
C2313 C2314 1.398 . S
C2314 H2302 0.950 . S
C2314 C2313 1.398 . S
C2314 C2315 1.391 . S
C2315 H2303 0.950 . S
C2315 C2311 1.393 . S
C2315 C2314 1.391 . S
H2316 C2324 0.950 . S
H2317 C2329 0.950 . S
H2318 C2326 0.950 . S
H2319 C2328 0.950 . S
H2320 C2330 0.950 . S
H2321 C2332 0.950 . S
H2322 C2334 0.950 . S
H2323 C2335 0.950 . S
C2324 H2316 0.950 . S
C2324 C2325 1.386 . S
C2324 C2326 1.391 . S
C2325 C2324 1.386 . S
C2325 C2329 1.393 . S
C2326 H2318 0.950 . S
C2326 C2324 1.391 . S
C2326 C2327 1.400 . S
C2327 C2326 1.400 . S
C2327 C2328 1.398 . S
C2327 C2333 1.491 . S
C2328 H2319 0.950 . S
C2328 C2327 1.398 . S
C2328 C2329 1.391 . S
C2329 H2317 0.950 . S
C2329 C2325 1.393 . S
C2329 C2328 1.391 . S
C2330 H2320 0.950 . S
C2330 C2331 1.386 . S
C2330 C2332 1.391 . S
C2331 C2330 1.386 . S
C2331 C2335 1.393 . S
C2332 H2321 0.950 . S
C2332 C2330 1.391 . S
C2332 C2333 1.400 . S
C2333 C2327 1.491 . S
C2333 C2332 1.400 . S
C2333 C2334 1.398 . S
C2334 H2322 0.950 . S
C2334 C2333 1.398 . S
C2334 C2335 1.391 . S
C2335 H2323 0.950 . S
C2335 C2331 1.393 . S
C2335 C2334 1.391 . S
H2336 C2344 0.950 . S
H2337 C2349 0.950 . S
H2338 C2346 0.950 . S
H2339 C2348 0.950 . S
H2340 C2350 0.950 . S
H2341 C2352 0.950 . S
H2342 C2354 0.950 . S
H2343 C2355 0.950 . S
C2344 H2336 0.950 . S
C2344 C2345 1.386 . S
C2344 C2346 1.391 . S
C2345 C2344 1.386 . S
C2345 C2349 1.393 . S
C2346 H2338 0.950 . S
C2346 C2344 1.391 . S
C2346 C2347 1.400 . S
C2347 C2346 1.400 . S
C2347 C2348 1.398 . S
C2347 C2353 1.491 . S
C2348 H2339 0.950 . S
C2348 C2347 1.398 . S
C2348 C2349 1.391 . S
C2349 H2337 0.950 . S
C2349 C2345 1.393 . S
C2349 C2348 1.391 . S
C2350 H2340 0.950 . S
C2350 C2351 1.386 . S
C2350 C2352 1.391 . S
C2351 C2350 1.386 . S
C2351 C2355 1.393 . S
C2352 H2341 0.950 . S
C2352 C2350 1.391 . S
C2352 C2353 1.400 . S
C2353 C2347 1.491 . S
C2353 C2352 1.400 . S
C2353 C2354 1.398 . S
C2354 H2342 0.950 . S
C2354 C2353 1.398 . S
C2354 C2355 1.391 . S
C2355 H2343 0.950 . S
C2355 C2351 1.393 . S
C2355 C2354 1.391 . S
H2356 C2364 0.950 . S
H2357 C2369 0.950 . S
H2358 C2366 0.950 . S
H2359 C2368 0.950 . S
H2360 C2370 0.950 . S
H2361 C2372 0.950 . S
H2362 C2374 0.950 . S
H2363 C2375 0.950 . S
C2364 H2356 0.950 . S
C2364 C2365 1.386 . S
C2364 C2366 1.391 . S
C2365 C2364 1.386 . S
C2365 C2369 1.393 . S
C2366 H2358 0.950 . S
C2366 C2364 1.391 . S
C2366 C2367 1.400 . S
C2367 C2366 1.400 . S
C2367 C2368 1.398 . S
C2367 C2373 1.491 . S
C2368 H2359 0.950 . S
C2368 C2367 1.398 . S
C2368 C2369 1.391 . S
C2369 H2357 0.950 . S
C2369 C2365 1.393 . S
C2369 C2368 1.391 . S
C2370 H2360 0.950 . S
C2370 C2371 1.386 . S
C2370 C2372 1.391 . S
C2371 C2370 1.386 . S
C2371 C2375 1.393 . S
C2372 H2361 0.950 . S
C2372 C2370 1.391 . S
C2372 C2373 1.400 . S
C2373 C2367 1.491 . S
C2373 C2372 1.400 . S
C2373 C2374 1.398 . S
C2374 H2362 0.950 . S
C2374 C2373 1.398 . S
C2374 C2375 1.391 . S
C2375 H2363 0.950 . S
C2375 C2371 1.393 . S
C2375 C2374 1.391 . S
H2376 C2384 0.950 . S
H2377 C2389 0.950 . S
H2378 C2386 0.950 . S
H2379 C2388 0.950 . S
H2380 C2390 0.950 . S
H2381 C2392 0.950 . S
H2382 C2394 0.950 . S
H2383 C2395 0.950 . S
C2384 H2376 0.950 . S
C2384 C2385 1.386 . S
C2384 C2386 1.391 . S
C2385 C2384 1.386 . S
C2385 C2389 1.393 . S
C2386 H2378 0.950 . S
C2386 C2384 1.391 . S
C2386 C2387 1.400 . S
C2387 C2386 1.400 . S
C2387 C2388 1.398 . S
C2387 C2393 1.491 . S
C2388 H2379 0.950 . S
C2388 C2387 1.398 . S
C2388 C2389 1.391 . S
C2389 H2377 0.950 . S
C2389 C2385 1.393 . S
C2389 C2388 1.391 . S
C2390 H2380 0.950 . S
C2390 C2391 1.386 . S
C2390 C2392 1.391 . S
C2391 C2390 1.386 . S
C2391 C2395 1.393 . S
C2392 H2381 0.950 . S
C2392 C2390 1.391 . S
C2392 C2393 1.400 . S
C2393 C2387 1.491 . S
C2393 C2392 1.400 . S
C2393 C2394 1.398 . S
C2394 H2382 0.950 . S
C2394 C2393 1.398 . S
C2394 C2395 1.391 . S
C2395 H2383 0.950 . S
C2395 C2391 1.393 . S
C2395 C2394 1.391 . S
H2396 C2404 0.950 . S
H2397 C2409 0.950 . S
H2398 C2406 0.950 . S
H2399 C2408 0.950 . S
H2400 C2410 0.950 . S
H2401 C2412 0.950 . S
H2402 C2414 0.950 . S
H2403 C2415 0.950 . S
C2404 H2396 0.950 . S
C2404 C2405 1.386 . S
C2404 C2406 1.391 . S
C2405 C2404 1.386 . S
C2405 C2409 1.393 . S
C2406 H2398 0.950 . S
C2406 C2404 1.391 . S
C2406 C2407 1.400 . S
C2407 C2406 1.400 . S
C2407 C2408 1.398 . S
C2407 C2413 1.491 . S
C2408 H2399 0.950 . S
C2408 C2407 1.398 . S
C2408 C2409 1.391 . S
C2409 H2397 0.950 . S
C2409 C2405 1.393 . S
C2409 C2408 1.391 . S
C2410 H2400 0.950 . S
C2410 C2411 1.386 . S
C2410 C2412 1.391 . S
C2411 C2410 1.386 . S
C2411 C2415 1.393 . S
C2412 H2401 0.950 . S
C2412 C2410 1.391 . S
C2412 C2413 1.400 . S
C2413 C2407 1.491 . S
C2413 C2412 1.400 . S
C2413 C2414 1.398 . S
C2414 H2402 0.950 . S
C2414 C2413 1.398 . S
C2414 C2415 1.391 . S
C2415 H2403 0.950 . S
C2415 C2411 1.393 . S
C2415 C2414 1.391 . S
H2416 C2424 0.950 . S
H2417 C2429 0.950 . S
H2418 C2426 0.950 . S
H2419 C2428 0.950 . S
H2420 C2430 0.950 . S
H2421 C2432 0.950 . S
H2422 C2434 0.950 . S
H2423 C2435 0.950 . S
C2424 H2416 0.950 . S
C2424 C2425 1.386 . S
C2424 C2426 1.391 . S
C2425 C2424 1.386 . S
C2425 C2429 1.393 . S
C2426 H2418 0.950 . S
C2426 C2424 1.391 . S
C2426 C2427 1.400 . S
C2427 C2426 1.400 . S
C2427 C2428 1.398 . S
C2427 C2433 1.491 . S
C2428 H2419 0.950 . S
C2428 C2427 1.398 . S
C2428 C2429 1.391 . S
C2429 H2417 0.950 . S
C2429 C2425 1.393 . S
C2429 C2428 1.391 . S
C2430 H2420 0.950 . S
C2430 C2431 1.386 . S
C2430 C2432 1.391 . S
C2431 C2430 1.386 . S
C2431 C2435 1.393 . S
C2432 H2421 0.950 . S
C2432 C2430 1.391 . S
C2432 C2433 1.400 . S
C2433 C2427 1.491 . S
C2433 C2432 1.400 . S
C2433 C2434 1.398 . S
C2434 H2422 0.950 . S
C2434 C2433 1.398 . S
C2434 C2435 1.391 . S
C2435 H2423 0.950 . S
C2435 C2431 1.393 . S
C2435 C2434 1.391 . S
H2436 C2444 0.950 . S
H2437 C2449 0.950 . S
H2438 C2446 0.950 . S
H2439 C2448 0.950 . S
H2440 C2450 0.950 . S
H2441 C2452 0.950 . S
H2442 C2454 0.950 . S
H2443 C2455 0.950 . S
C2444 H2436 0.950 . S
C2444 C2445 1.386 . S
C2444 C2446 1.391 . S
C2445 C2444 1.386 . S
C2445 C2449 1.393 . S
C2446 H2438 0.950 . S
C2446 C2444 1.391 . S
C2446 C2447 1.400 . S
C2447 C2446 1.400 . S
C2447 C2448 1.398 . S
C2447 C2453 1.491 . S
C2448 H2439 0.950 . S
C2448 C2447 1.398 . S
C2448 C2449 1.391 . S
C2449 H2437 0.950 . S
C2449 C2445 1.393 . S
C2449 C2448 1.391 . S
C2450 H2440 0.950 . S
C2450 C2451 1.386 1_545 S
C2450 C2452 1.391 1_545 S
C2451 C2450 1.386 1_565 S
C2451 C2455 1.393 . S
C2452 H2441 0.950 . S
C2452 C2450 1.391 1_565 S
C2452 C2453 1.400 . S
C2453 C2447 1.491 . S
C2453 C2452 1.400 . S
C2453 C2454 1.398 . S
C2454 H2442 0.950 . S
C2454 C2453 1.398 . S
C2454 C2455 1.391 . S
C2455 H2443 0.950 . S
C2455 C2451 1.393 . S
C2455 C2454 1.391 . S
H2456 C2464 0.950 . S
H2457 C2469 0.950 . S
H2458 C2466 0.950 . S
H2459 C2468 0.950 . S
H2460 C2470 0.950 . S
H2461 C2472 0.950 . S
H2462 C2474 0.950 . S
H2463 C2475 0.950 . S
C2464 H2456 0.950 . S
C2464 C2465 1.386 . S
C2464 C2466 1.391 . S
C2465 C2464 1.386 . S
C2465 C2469 1.393 . S
C2466 H2458 0.950 . S
C2466 C2464 1.391 . S
C2466 C2467 1.400 . S
C2467 C2466 1.400 . S
C2467 C2468 1.398 . S
C2467 C2473 1.491 . S
C2468 H2459 0.950 . S
C2468 C2467 1.398 . S
C2468 C2469 1.391 . S
C2469 H2457 0.950 . S
C2469 C2465 1.393 . S
C2469 C2468 1.391 . S
C2470 H2460 0.950 . S
C2470 C2471 1.386 . S
C2470 C2472 1.391 . S
C2471 C2470 1.386 . S
C2471 C2475 1.393 . S
C2472 H2461 0.950 . S
C2472 C2470 1.391 . S
C2472 C2473 1.400 . S
C2473 C2467 1.491 . S
C2473 C2472 1.400 . S
C2473 C2474 1.398 . S
C2474 H2462 0.950 . S
C2474 C2473 1.398 . S
C2474 C2475 1.391 . S
C2475 H2463 0.950 . S
C2475 C2471 1.393 . S
C2475 C2474 1.391 . S
H2476 C2484 0.950 . S
H2477 C2489 0.950 . S
H2478 C2486 0.950 . S
H2479 C2488 0.950 . S
H2480 C2490 0.950 . S
H2481 C2492 0.950 . S
H2482 C2494 0.950 . S
H2483 C2495 0.950 . S
C2484 H2476 0.950 . S
C2484 C2485 1.386 1_554 S
C2484 C2486 1.391 . S
C2485 C2484 1.386 1_556 S
C2485 C2489 1.393 . S
C2486 H2478 0.950 . S
C2486 C2484 1.391 . S
C2486 C2487 1.400 1_554 S
C2487 C2486 1.400 1_556 S
C2487 C2488 1.398 . S
C2487 C2493 1.494 . S
C2488 H2479 0.950 . S
C2488 C2487 1.398 . S
C2488 C2489 1.391 . S
C2489 H2477 0.950 . S
C2489 C2485 1.393 . S
C2489 C2488 1.391 . S
C2490 H2480 0.950 . S
C2490 C2491 1.386 1_556 S
C2490 C2492 1.391 . S
C2491 C2490 1.386 1_554 S
C2491 C2495 1.393 . S
C2492 H2481 0.950 . S
C2492 C2490 1.391 . S
C2492 C2493 1.404 . S
C2493 C2487 1.494 . S
C2493 C2492 1.404 . S
C2493 C2494 1.391 1_556 S
C2494 H2482 0.950 . S
C2494 C2493 1.391 1_554 S
C2494 C2495 1.391 . S
C2495 H2483 0.950 . S
C2495 C2491 1.393 . S
C2495 C2494 1.391 . S
H2496 C2504 0.950 . S
H2497 C2509 0.950 . S
H2498 C2506 0.950 . S
H2499 C2508 0.950 . S
H2500 C2510 0.950 . S
H2501 C2512 0.950 . S
H2502 C2514 0.950 . S
H2503 C2515 0.950 . S
C2504 H2496 0.950 . S
C2504 C2505 1.386 . S
C2504 C2506 1.391 . S
C2505 C2504 1.386 . S
C2505 C2509 1.393 . S
C2506 H2498 0.950 . S
C2506 C2504 1.391 . S
C2506 C2507 1.400 . S
C2507 C2506 1.400 . S
C2507 C2508 1.398 . S
C2507 C2513 1.491 . S
C2508 H2499 0.950 . S
C2508 C2507 1.398 . S
C2508 C2509 1.391 . S
C2509 H2497 0.950 . S
C2509 C2505 1.393 . S
C2509 C2508 1.391 . S
C2510 H2500 0.950 . S
C2510 C2511 1.386 . S
C2510 C2512 1.391 . S
C2511 C2510 1.386 . S
C2511 C2515 1.393 . S
C2512 H2501 0.950 . S
C2512 C2510 1.391 . S
C2512 C2513 1.400 . S
C2513 C2507 1.491 . S
C2513 C2512 1.400 . S
C2513 C2514 1.398 . S
C2514 H2502 0.950 . S
C2514 C2513 1.398 . S
C2514 C2515 1.391 . S
C2515 H2503 0.950 . S
C2515 C2511 1.393 . S
C2515 C2514 1.391 . S
H2516 C2524 0.950 . S
H2517 C2529 0.950 . S
H2518 C2526 0.950 . S
H2519 C2528 0.950 . S
H2520 C2530 0.950 . S
H2521 C2532 0.950 . S
H2522 C2534 0.950 . S
H2523 C2535 0.950 . S
C2524 H2516 0.950 . S
C2524 C2525 1.386 . S
C2524 C2526 1.391 . S
C2525 C2524 1.386 . S
C2525 C2529 1.393 1_554 S
C2526 H2518 0.950 . S
C2526 C2524 1.391 . S
C2526 C2527 1.400 . S
C2527 C2526 1.400 . S
C2527 C2528 1.398 1_554 S
C2527 C2533 1.487 1_554 S
C2528 H2519 0.950 . S
C2528 C2527 1.398 1_556 S
C2528 C2529 1.391 . S
C2529 H2517 0.950 . S
C2529 C2525 1.393 1_556 S
C2529 C2528 1.391 . S
C2530 H2520 0.950 . S
C2530 C2531 1.386 . S
C2530 C2532 1.391 . S
C2531 C2530 1.386 . S
C2531 C2535 1.393 1_556 S
C2532 H2521 0.950 . S
C2532 C2530 1.391 . S
C2532 C2533 1.423 . S
C2533 C2527 1.487 1_556 S
C2533 C2532 1.423 . S
C2533 C2534 1.380 1_556 S
C2534 H2522 0.950 . S
C2534 C2533 1.380 1_554 S
C2534 C2535 1.391 . S
C2535 H2523 0.950 . S
C2535 C2531 1.393 1_554 S
C2535 C2534 1.391 . S
H2536 C2544 0.950 . S
H2537 C2549 0.950 . S
H2538 C2546 0.950 . S
H2539 C2548 0.950 . S
H2540 C2550 0.950 . S
H2541 C2552 0.950 . S
H2542 C2554 0.950 . S
H2543 C2555 0.950 . S
C2544 H2536 0.950 . S
C2544 C2545 1.386 . S
C2544 C2546 1.391 . S
C2545 C2544 1.386 . S
C2545 C2549 1.393 . S
C2546 H2538 0.950 . S
C2546 C2544 1.391 . S
C2546 C2547 1.400 . S
C2547 C2546 1.400 . S
C2547 C2548 1.398 . S
C2547 C2553 1.491 . S
C2548 H2539 0.950 . S
C2548 C2547 1.398 . S
C2548 C2549 1.391 . S
C2549 H2537 0.950 . S
C2549 C2545 1.393 . S
C2549 C2548 1.391 . S
C2550 H2540 0.950 . S
C2550 C2551 1.386 . S
C2550 C2552 1.391 . S
C2551 C2550 1.386 . S
C2551 C2555 1.393 . S
C2552 H2541 0.950 . S
C2552 C2550 1.391 . S
C2552 C2553 1.400 . S
C2553 C2547 1.491 . S
C2553 C2552 1.400 . S
C2553 C2554 1.398 . S
C2554 H2542 0.950 . S
C2554 C2553 1.398 . S
C2554 C2555 1.391 . S
C2555 H2543 0.950 . S
C2555 C2551 1.393 . S
C2555 C2554 1.391 . S
H2556 C2564 0.950 . S
H2557 C2569 0.950 . S
H2558 C2566 0.950 . S
H2559 C2568 0.950 . S
H2560 C2570 0.950 . S
H2561 C2572 0.950 . S
H2562 C2574 0.950 . S
H2563 C2575 0.950 . S
C2564 H2556 0.950 . S
C2564 C2565 1.386 . S
C2564 C2566 1.391 . S
C2565 C2564 1.386 . S
C2565 C2569 1.393 . S
C2566 H2558 0.950 . S
C2566 C2564 1.391 . S
C2566 C2567 1.400 . S
C2567 C2566 1.400 . S
C2567 C2568 1.398 . S
C2567 C2573 1.491 . S
C2568 H2559 0.950 . S
C2568 C2567 1.398 . S
C2568 C2569 1.391 . S
C2569 H2557 0.950 . S
C2569 C2565 1.393 . S
C2569 C2568 1.391 . S
C2570 H2560 0.950 . S
C2570 C2571 1.386 . S
C2570 C2572 1.391 . S
C2571 C2570 1.386 . S
C2571 C2575 1.393 . S
C2572 H2561 0.950 . S
C2572 C2570 1.391 . S
C2572 C2573 1.400 . S
C2573 C2567 1.491 . S
C2573 C2572 1.400 . S
C2573 C2574 1.398 . S
C2574 H2562 0.950 . S
C2574 C2573 1.398 . S
C2574 C2575 1.391 . S
C2575 H2563 0.950 . S
C2575 C2571 1.393 . S
C2575 C2574 1.391 . S
C665 C111 1.446 . S
C671 C354 1.456 1_556 S
C685 C64 1.585 . S
C691 C365 1.648 . S
C705 C77 0.913 . S
C711 C394 0.916 . S
C731 C397 1.258 . S
C725 C95 1.268 . S
C745 C25 1.419 . S
C751 C435 1.360 . S
C771 C438 0.962 . S
C765 C36 0.962 . S
C791 C465 1.474 . S
C785 C50 1.407 . S
C805 C11 1.542 . S
C811 C494 1.496 . S
C831 C345 1.475 1_655 S
C825 C237 1.370 . S
C845 C245 0.826 . S
C851 C357 0.822 . S
C871 C385 1.480 . S
C865 C279 1.386 . S
C891 C414 1.019 . S
C885 C175 1.040 . S
C905 C231 0.857 . S
C911 C418 0.878 . S
C931 C444 1.522 . S
C925 C251 1.448 . S
C951 C457 0.757 . S
C945 C273 0.758 . S
C971 C485 1.536 . S
C965 C181 1.457 . S
C991 C337 1.409 1_565 S
C985 C165 1.424 . S
C1005 C288 1.704 . S
C1011 C504 1.724 1_554 S
C1031 C535 1.463 . S
C1025 C333 1.516 . S
C1051 C554 0.877 . S
C1045 C316 0.901 . S
C1065 C123 1.245 . S
C1071 C477 1.228 . S
C1085 C137 1.372 . S
C1091 C377 1.355 . S
C1105 C330 1.535 . S
C1111 C565 1.582 . S
C1131 C594 0.867 . S
C1125 C302 0.896 . S
C1151 C355 1.605 . S
C1145 C63 1.632 . S
C1171 C584 1.652 . S
C1165 C106 1.632 . S
C1185 C97 0.976 . S
C1191 C395 0.983 . S
C1205 C81 1.316 . S
C1211 C558 1.312 . S
C1231 C434 1.508 . S
C1225 C13 1.474 . S
C1245 C55 0.933 . S
C1251 C517 0.963 . S
C1271 C464 1.446 . S
C1265 C35 1.448 . S
C1291 C615 1.681 . S
C1285 C21 1.727 . S
C1311 C344 1.572 . S
C1305 C147 1.584 . S
C1331 C578 0.841 . S
C1325 C321 0.840 . S
C1345 C119 1.530 . S
C1351 C384 1.526 . S
C1365 C293 1.116 . S
C1371 C575 1.165 . S
C1385 C153 0.956 1_565 S
C1391 C417 1.022 . S
C1411 C525 1.571 . S
C1405 C315 1.591 . S
C1425 C125 0.710 . S
C1431 C458 0.739 . S
C1445 C287 1.649 . S
C1451 C604 1.621 . S
C1465 C193 1.466 1_554 S
C1471 C338 1.463 . S
C1485 C176 1.724 . S
C1491 C505 1.743 . S
C1505 C263 1.478 . S
C1511 C454 1.423 . S
C1525 C246 1.040 . S
C1531 C555 1.041 . S
C1551 C598 1.324 . S
C1545 C277 1.328 . S
C1565 C221 1.384 . S
C1571 C378 1.387 . S
C1591 C404 1.631 . S
C1585 C260 1.610 . S
C1611 C375 0.998 . S
C1605 C204 0.957 . S
C1625 C83 1.471 . S
C1631 C634 1.476 . S
C1651 C585 1.646 . S
C1645 C92 1.588 . S
C1665 C105 0.912 . S
C1671 C654 0.920 . S
C1685 C67 1.257 . S
C1691 C557 1.259 . S
C1705 C53 1.418 . S
C1711 C515 1.362 . S
C1731 C518 0.969 . S
C1725 C8 0.944 . S
C1751 C545 1.476 . S
C1745 C22 1.409 . S
C1771 C614 1.495 . S
C1765 C39 1.542 . S
C1791 C625 1.476 . S
C1785 C265 1.367 . S
C1805 C189 0.826 . S
C1811 C577 0.818 . S
C1831 C645 1.475 . S
C1825 C209 1.404 . S
C1851 C574 1.019 . S
C1845 C217 1.035 . S
C1871 C498 0.869 . S
C1865 C259 0.875 . S
C1885 C195 1.439 . S
C1891 C524 1.511 . S
C1911 C537 0.757 . S
C1905 C203 0.740 . S
C1925 C223 1.457 . S
C1931 C605 1.536 . S
C1951 C617 1.406 . S
C1945 C319 1.418 . S
C1965 C134 1.682 . S
C1971 C424 1.718 . S
C1991 C455 1.440 . S
C1985 C151 1.523 . S
C2011 C474 0.877 . S
C2005 C162 0.901 . S
C2031 C597 1.229 . S
C2025 C305 1.245 . S
C2045 C291 1.373 . S
C2051 C637 1.350 . S
C2071 C405 1.587 . S
C2065 C148 1.538 . S
C2091 C374 0.893 . S
C2085 C120 0.870 . S
C2105 C91 1.634 . S
C2111 C635 1.600 . S
C2131 C364 1.656 . S
C2125 C78 1.634 . S
C2145 C69 0.950 . S
C2151 C655 1.000 . S
C2165 C109 1.321 . S
C2171 C398 1.317 . S
C2185 C41 1.473 . S
C2191 C514 1.496 . S
C2211 C437 0.960 . S
C2205 C27 0.870 . S
C2225 C7 1.443 . S
C2231 C544 1.447 . S
C2245 C49 1.723 . S
C2251 C495 1.662 . S
C2271 C624 1.581 . S
C2265 C329 1.577 . S
C2285 C167 0.808 . S
C2291 C358 0.843 . S
C2311 C644 1.526 1_655 S
C2305 C301 1.530 . S
C2325 C139 1.124 . S
C2331 C415 1.184 . S
C2345 C335 0.978 . S
C2351 C497 1.026 . S
C2371 C445 1.573 . S
C2365 C161 1.594 . S
C2385 C307 0.739 . S
C2391 C538 0.759 . S
C2411 C484 1.625 . S
C2405 C133 1.648 . S
C2431 C618 1.467 . S
C2425 C249 1.471 . S
C2451 C425 1.730 1_565 S
C2445 C218 1.733 . S
C2465 C235 1.492 . S
C2471 C534 1.443 . S
C2491 C475 1.051 . S
C2485 C190 1.024 1_556 S
C2505 C207 1.329 . S
C2511 C478 1.326 . S
C2525 C179 1.387 . S
C2531 C638 1.389 . S
C2551 C564 1.629 . S
C2545 C232 1.597 1_565 S
C2571 C595 1.000 . S
C2565 C274 0.957 . S
