# Generated by pormake.
# Topology ocu, (6,8)-cn, num edge types: 1
# Building blocks:
#     Node 0, Type 0, BuildingBlock: MIFKUJ_clean_sbu_0, # of connection points: 6
#     Node 1, Type 0, BuildingBlock: MIFKUJ_clean_sbu_0, # of connection points: 6
#     Node 2, Type 0, BuildingBlock: MIFKUJ_clean_sbu_0, # of connection points: 6
#     Node 3, Type 0, BuildingBlock: MIFKUJ_clean_sbu_0, # of connection points: 6
#     Node 4, Type 0, BuildingBlock: MIFKUJ_clean_sbu_0, # of connection points: 6
#     Node 5, Type 0, BuildingBlock: MIFKUJ_clean_sbu_0, # of connection points: 6
#     Node 6, Type 0, BuildingBlock: MIFKUJ_clean_sbu_0, # of connection points: 6
#     Node 7, Type 0, BuildingBlock: MIFKUJ_clean_sbu_0, # of connection points: 6
#     Node 8, Type 1, BuildingBlock: TAGTUT_clean_sbu_1, # of connection points: 8
#     Node 9, Type 1, BuildingBlock: TAGTUT_clean_sbu_1, # of connection points: 8
#     Node 10, Type 1, BuildingBlock: TAGTUT_clean_sbu_1, # of connection points: 8
#     Node 11, Type 1, BuildingBlock: TAGTUT_clean_sbu_1, # of connection points: 8
#     Node 12, Type 1, BuildingBlock: TAGTUT_clean_sbu_1, # of connection points: 8
#     Node 13, Type 1, BuildingBlock: TAGTUT_clean_sbu_1, # of connection points: 8
#     Edge 14, Type (0, 1), BuildingBlock: UVAHIK_clean_linker_0, # of connection points: 2
#     Edge 15, Type (0, 1), BuildingBlock: UVAHIK_clean_linker_0, # of connection points: 2
#     Edge 16, Type (0, 1), BuildingBlock: UVAHIK_clean_linker_0, # of connection points: 2
#     Edge 17, Type (0, 1), BuildingBlock: UVAHIK_clean_linker_0, # of connection points: 2
#     Edge 18, Type (0, 1), BuildingBlock: UVAHIK_clean_linker_0, # of connection points: 2
#     Edge 19, Type (0, 1), BuildingBlock: UVAHIK_clean_linker_0, # of connection points: 2
#     Edge 20, Type (0, 1), BuildingBlock: UVAHIK_clean_linker_0, # of connection points: 2
#     Edge 21, Type (0, 1), BuildingBlock: UVAHIK_clean_linker_0, # of connection points: 2
#     Edge 22, Type (0, 1), BuildingBlock: UVAHIK_clean_linker_0, # of connection points: 2
#     Edge 23, Type (0, 1), BuildingBlock: UVAHIK_clean_linker_0, # of connection points: 2
#     Edge 24, Type (0, 1), BuildingBlock: UVAHIK_clean_linker_0, # of connection points: 2
#     Edge 25, Type (0, 1), BuildingBlock: UVAHIK_clean_linker_0, # of connection points: 2
#     Edge 26, Type (0, 1), BuildingBlock: UVAHIK_clean_linker_0, # of connection points: 2
#     Edge 27, Type (0, 1), BuildingBlock: UVAHIK_clean_linker_0, # of connection points: 2
#     Edge 28, Type (0, 1), BuildingBlock: UVAHIK_clean_linker_0, # of connection points: 2
#     Edge 29, Type (0, 1), BuildingBlock: UVAHIK_clean_linker_0, # of connection points: 2
#     Edge 30, Type (0, 1), BuildingBlock: UVAHIK_clean_linker_0, # of connection points: 2
#     Edge 31, Type (0, 1), BuildingBlock: UVAHIK_clean_linker_0, # of connection points: 2
#     Edge 32, Type (0, 1), BuildingBlock: UVAHIK_clean_linker_0, # of connection points: 2
#     Edge 33, Type (0, 1), BuildingBlock: UVAHIK_clean_linker_0, # of connection points: 2
#     Edge 34, Type (0, 1), BuildingBlock: UVAHIK_clean_linker_0, # of connection points: 2
#     Edge 35, Type (0, 1), BuildingBlock: UVAHIK_clean_linker_0, # of connection points: 2
#     Edge 36, Type (0, 1), BuildingBlock: UVAHIK_clean_linker_0, # of connection points: 2
#     Edge 37, Type (0, 1), BuildingBlock: UVAHIK_clean_linker_0, # of connection points: 2
#     Edge 38, Type (0, 1), BuildingBlock: UVAHIK_clean_linker_0, # of connection points: 2
#     Edge 39, Type (0, 1), BuildingBlock: UVAHIK_clean_linker_0, # of connection points: 2
#     Edge 40, Type (0, 1), BuildingBlock: UVAHIK_clean_linker_0, # of connection points: 2
#     Edge 41, Type (0, 1), BuildingBlock: UVAHIK_clean_linker_0, # of connection points: 2
#     Edge 42, Type (0, 1), BuildingBlock: UVAHIK_clean_linker_0, # of connection points: 2
#     Edge 43, Type (0, 1), BuildingBlock: UVAHIK_clean_linker_0, # of connection points: 2
#     Edge 44, Type (0, 1), BuildingBlock: UVAHIK_clean_linker_0, # of connection points: 2
#     Edge 45, Type (0, 1), BuildingBlock: UVAHIK_clean_linker_0, # of connection points: 2
#     Edge 46, Type (0, 1), BuildingBlock: UVAHIK_clean_linker_0, # of connection points: 2
#     Edge 47, Type (0, 1), BuildingBlock: UVAHIK_clean_linker_0, # of connection points: 2
#     Edge 48, Type (0, 1), BuildingBlock: UVAHIK_clean_linker_0, # of connection points: 2
#     Edge 49, Type (0, 1), BuildingBlock: UVAHIK_clean_linker_0, # of connection points: 2
#     Edge 50, Type (0, 1), BuildingBlock: UVAHIK_clean_linker_0, # of connection points: 2
#     Edge 51, Type (0, 1), BuildingBlock: UVAHIK_clean_linker_0, # of connection points: 2
#     Edge 52, Type (0, 1), BuildingBlock: UVAHIK_clean_linker_0, # of connection points: 2
#     Edge 53, Type (0, 1), BuildingBlock: UVAHIK_clean_linker_0, # of connection points: 2
#     Edge 54, Type (0, 1), BuildingBlock: UVAHIK_clean_linker_0, # of connection points: 2
#     Edge 55, Type (0, 1), BuildingBlock: UVAHIK_clean_linker_0, # of connection points: 2
#     Edge 56, Type (0, 1), BuildingBlock: UVAHIK_clean_linker_0, # of connection points: 2
#     Edge 57, Type (0, 1), BuildingBlock: UVAHIK_clean_linker_0, # of connection points: 2
#     Edge 58, Type (0, 1), BuildingBlock: UVAHIK_clean_linker_0, # of connection points: 2
#     Edge 59, Type (0, 1), BuildingBlock: UVAHIK_clean_linker_0, # of connection points: 2
#     Edge 60, Type (0, 1), BuildingBlock: UVAHIK_clean_linker_0, # of connection points: 2
#     Edge 61, Type (0, 1), BuildingBlock: UVAHIK_clean_linker_0, # of connection points: 2
# Relax obj value: 0.064
# Max RMSD: 0.219
# Mean RMSD: 0.129
data_MOF--net-ocu--node1-MIFKUJ_clean_sbu_0--node2-TAGTUT_clean_sbu_1--edge1-UVAHIK_clean_linker_0
_symmetry_space_group_name_H-M    P1
_symmetry_Int_Tables_number       1
_symmetry_cell_setting            triclinic
loop_
_symmetry_equiv_pos_as_xyz
'x, y, z'
_cell_length_a     49.049916
_cell_length_b     48.662784
_cell_length_c     49.384526
_cell_angle_alpha  92.319447
_cell_angle_beta   95.41546
_cell_angle_gamma 105.90188
loop_
_atom_site_label
_atom_site_type_symbol
_atom_site_fract_x
_atom_site_fract_y
_atom_site_fract_z
_atom_type_partial_charge
Zn0 Zn 0.22103 0.2543 0.23135 0.0
Zn1 Zn 0.27385 0.23953 0.26101 0.0
C2 C 0.19643 0.27963 0.27018 0.0
O3 O 0.17572 0.25834 0.25797 0.0
C4 C 0.29865 0.21678 0.22049 0.0
O5 O 0.3186 0.23909 0.23212 0.0
O6 O 0.18978 0.26187 0.20528 0.0
O7 O 0.2572 0.26511 0.21127 0.0
O8 O 0.28787 0.28001 0.24758 0.0
C9 C 0.19435 0.274 0.18317 0.0
O10 O 0.21945 0.27806 0.17427 0.0
O11 O 0.22159 0.28288 0.2635 0.0
C12 C 0.29969 0.21183 0.3016 0.0
O13 O 0.2731 0.19616 0.30069 0.0
O14 O 0.30556 0.23339 0.28727 0.0
O15 O 0.23762 0.22788 0.28112 0.0
O16 O 0.2063 0.21415 0.24499 0.0
O17 O 0.27401 0.21125 0.2289 0.0
C18 C 0.28108 0.28112 0.22222 0.0
C19 C 0.21336 0.21253 0.27022 0.0
Zn20 Zn 0.74487 0.27716 0.22051 0.0
Zn21 Zn 0.75185 0.22354 0.2852 0.0
C22 C 0.68974 0.28544 0.20562 0.0
O23 O 0.68168 0.25751 0.20699 0.0
C24 C 0.80695 0.21238 0.29911 0.0
O25 O 0.81718 0.24035 0.29951 0.0
O26 O 0.78088 0.29428 0.20526 0.0
O27 O 0.75441 0.27471 0.26017 0.0
O28 O 0.76472 0.26469 0.3015 0.0
C29 C 0.78211 0.28853 0.18023 0.0
O30 O 0.75897 0.27381 0.16485 0.0
O31 O 0.71596 0.29885 0.21139 0.0
C32 C 0.69964 0.1834 0.28769 0.0
O33 O 0.70896 0.17086 0.26795 0.0
O34 O 0.71589 0.20598 0.30033 0.0
O35 O 0.74075 0.22252 0.24453 0.0
O36 O 0.73123 0.23646 0.20406 0.0
O37 O 0.78025 0.20108 0.29366 0.0
C38 C 0.76246 0.28337 0.28484 0.0
C39 C 0.73251 0.21638 0.21934 0.0
Zn40 Zn 0.78085 0.72762 0.24861 0.0
Zn41 Zn 0.71023 0.76118 0.24601 0.0
C42 C 0.81318 0.72267 0.29967 0.0
O43 O 0.82392 0.75049 0.29916 0.0
C44 C 0.67889 0.76937 0.19555 0.0
O45 O 0.66723 0.74157 0.1947 0.0
O46 O 0.79403 0.71119 0.21669 0.0
O47 O 0.73808 0.718 0.24394 0.0
O48 O 0.69357 0.7179 0.23962 0.0
C49 C 0.79012 0.68426 0.21557 0.0
O50 O 0.77721 0.66936 0.23461 0.0
O51 O 0.79384 0.70933 0.28111 0.0
C52 C 0.70113 0.80316 0.28111 0.0
O53 O 0.71448 0.81917 0.26297 0.0
O54 O 0.6969 0.77621 0.27863 0.0
O55 O 0.75284 0.77053 0.24985 0.0
O56 O 0.7974 0.77103 0.25329 0.0
O57 O 0.69809 0.78131 0.21471 0.0
C58 C 0.71208 0.70414 0.23859 0.0
C59 C 0.7788 0.78466 0.25429 0.0
Zn60 Zn 0.23165 0.7673 0.25114 0.0
Zn61 Zn 0.2545 0.71942 0.23456 0.0
C62 C 0.17934 0.73125 0.26656 0.0
O63 O 0.16884 0.75054 0.25498 0.0
C64 C 0.30763 0.75661 0.2217 0.0
O65 O 0.31851 0.7405 0.23773 0.0
O66 O 0.21965 0.80073 0.26697 0.0
O67 O 0.27157 0.77145 0.26749 0.0
O68 O 0.26277 0.7259 0.2755 0.0
C69 C 0.21931 0.79916 0.29261 0.0
O70 O 0.22881 0.77939 0.30439 0.0
O71 O 0.20576 0.73339 0.26663 0.0
C72 C 0.269 0.68573 0.19518 0.0
O73 O 0.26035 0.70471 0.18124 0.0
O74 O 0.26707 0.6857 0.22067 0.0
O75 O 0.21484 0.71613 0.21729 0.0
O76 O 0.22471 0.76197 0.21028 0.0
O77 O 0.28075 0.75222 0.21809 0.0
C78 C 0.27607 0.75193 0.28213 0.0
C79 C 0.21222 0.73607 0.20224 0.0
Zn80 Zn 0.23518 0.77442 0.71383 0.0
Zn81 Zn 0.25987 0.72165 0.77203 0.0
C82 C 0.18 0.78535 0.70439 0.0
O83 O 0.17059 0.75815 0.70898 0.0
C84 C 0.30143 0.70397 0.80221 0.0
O85 O 0.28794 0.71377 0.82045 0.0
O86 O 0.26867 0.78918 0.69351 0.0
O87 O 0.2508 0.77869 0.75452 0.0
O88 O 0.2676 0.76094 0.79103 0.0
C89 C 0.29135 0.80613 0.70561 0.0
O90 O 0.29149 0.81636 0.73059 0.0
O91 O 0.20674 0.79691 0.70585 0.0
C92 C 0.21413 0.67221 0.78065 0.0
O93 O 0.22297 0.65911 0.76093 0.0
O94 O 0.22758 0.69775 0.78886 0.0
O95 O 0.2447 0.7275 0.73509 0.0
O96 O 0.21942 0.73303 0.69881 0.0
O97 O 0.29366 0.70535 0.77709 0.0
C98 C 0.26044 0.7814 0.77967 0.0
C99 C 0.22884 0.71631 0.71363 0.0
Zn100 Zn 0.28231 0.23004 0.74777 0.0
Zn101 Zn 0.21027 0.26179 0.74478 0.0
C102 C 0.32211 0.21809 0.7854 0.0
O103 O 0.33783 0.23745 0.77124 0.0
C104 C 0.1839 0.27454 0.69292 0.0
O105 O 0.18173 0.2478 0.68524 0.0
O106 O 0.29902 0.21574 0.71718 0.0
O107 O 0.2391 0.21857 0.73978 0.0
O108 O 0.19463 0.21909 0.73427 0.0
C109 C 0.29723 0.18921 0.71683 0.0
O110 O 0.28419 0.17374 0.73548 0.0
O111 O 0.29514 0.21188 0.78054 0.0
C112 C 0.20629 0.29947 0.78524 0.0
O113 O 0.21985 0.31597 0.76753 0.0
O114 O 0.19837 0.27255 0.77996 0.0
O115 O 0.25302 0.27146 0.74903 0.0
O116 O 0.29782 0.27322 0.75425 0.0
O117 O 0.19602 0.28467 0.71648 0.0
C118 C 0.21313 0.2054 0.73237 0.0
C119 C 0.27867 0.28609 0.75525 0.0
Zn120 Zn 0.71964 0.26516 0.76248 0.0
Zn121 Zn 0.77837 0.23099 0.74377 0.0
C122 C 0.67451 0.23765 0.79178 0.0
O123 O 0.66157 0.2528 0.77652 0.0
C124 C 0.81596 0.27947 0.72403 0.0
O125 O 0.83148 0.27663 0.74635 0.0
O126 O 0.70863 0.30243 0.7643 0.0
O127 O 0.76153 0.26846 0.76584 0.0
O128 O 0.79337 0.24854 0.78221 0.0
C129 C 0.70673 0.31228 0.78808 0.0
O130 O 0.71216 0.29842 0.80926 0.0
O131 O 0.70066 0.23979 0.79004 0.0
C132 C 0.79142 0.19575 0.70496 0.0
O133 O 0.77921 0.21194 0.69037 0.0
O134 O 0.7939 0.19906 0.73084 0.0
O135 O 0.73498 0.21801 0.74264 0.0
O136 O 0.70588 0.24204 0.72667 0.0
O137 O 0.79092 0.26273 0.71862 0.0
C138 C 0.77819 0.26542 0.78606 0.0
C139 C 0.71793 0.22221 0.72325 0.0
Zn140 Zn 0.71753 0.76981 0.73853 0.0
Zn141 Zn 0.77365 0.72123 0.74771 0.0
C142 C 0.6888 0.79341 0.77375 0.0
O143 O 0.66971 0.77149 0.76043 0.0
C144 C 0.80214 0.69197 0.71529 0.0
O145 O 0.82339 0.71025 0.73037 0.0
O146 O 0.68783 0.77397 0.70882 0.0
O147 O 0.75583 0.78327 0.72229 0.0
O148 O 0.78776 0.75895 0.72956 0.0
C149 C 0.69301 0.79993 0.70281 0.0
O150 O 0.71691 0.81818 0.71378 0.0
O151 O 0.71458 0.79859 0.76845 0.0
C152 C 0.79778 0.69497 0.78906 0.0
O153 O 0.77339 0.67579 0.78116 0.0
O154 O 0.80327 0.7189 0.77832 0.0
O155 O 0.73473 0.70702 0.76298 0.0
O156 O 0.70331 0.73183 0.75613 0.0
O157 O 0.77666 0.6919 0.71853 0.0
C158 C 0.78037 0.77993 0.7197 0.0
C159 C 0.71021 0.71042 0.76558 0.0
C160 C 0.92946 0.05827 0.52284 0.0
C161 C 0.96113 0.05413 0.44437 0.0
C162 C 0.94615 0.94404 0.45591 0.0
Mg163 Mg 0.98856 0.05983 0.50357 0.0
O164 O 0.97351 0.02026 0.50639 0.0
Mg165 Mg 0.93537 0.00097 0.48561 0.0
Mg166 Mg 0.99523 0.99432 0.49294 0.0
O167 O 0.01694 0.96845 0.47928 0.0
Mg168 Mg 0.00229 0.92881 0.48191 0.0
Mg169 Mg 0.05539 0.98804 0.49927 0.0
C170 C 0.0443 0.04451 0.53036 0.0
C171 C 0.04202 0.02986 0.45285 0.0
O172 O 0.91855 0.03357 0.51001 0.0
O173 O 0.95592 0.07194 0.52339 0.0
O174 O 0.94332 0.03153 0.45095 0.0
O175 O 0.98246 0.0681 0.46099 0.0
O176 O 0.03076 0.06337 0.52551 0.0
O177 O 0.03395 0.01821 0.52141 0.0
C178 C 0.94775 0.9593 0.53276 0.0
O179 O 0.97343 0.96356 0.52623 0.0
O180 O 0.93023 0.9712 0.52052 0.0
O181 O 0.07184 0.95579 0.47404 0.0
O182 O 0.0348 0.91689 0.46132 0.0
O183 O 0.04851 0.95752 0.53403 0.0
C184 C 0.06106 0.93103 0.46129 0.0
O185 O 0.00912 0.92112 0.52453 0.0
O186 O 0.95959 0.92509 0.46078 0.0
C187 C 0.03076 0.93499 0.54084 0.0
O188 O 0.95686 0.97041 0.46445 0.0
O189 O 0.0165 0.02516 0.45978 0.0
O190 O 0.05993 0.01809 0.46453 0.0
C191 C 0.42597 0.05629 0.04394 0.0
C192 C 0.44741 0.05118 0.96123 0.0
C193 C 0.43848 0.94387 0.96751 0.0
Mg194 Mg 0.48233 0.05826 0.01776 0.0
O195 O 0.4691 0.01871 0.0208 0.0
Mg196 Mg 0.42916 -0.00117 0.00408 0.0
Mg197 Mg 0.48972 0.99349 0.00337 0.0
O198 O 0.51027 0.96855 0.9856 0.0
Mg199 Mg 0.49695 0.92861 0.98503 0.0
Mg200 Mg 0.54987 0.9879 0.00284 0.0
C201 C 0.54156 0.0441 0.03596 0.0
C202 C 0.52951 0.02883 0.96027 0.0
O203 O 0.41417 0.03136 0.0317 0.0
O204 O 0.45207 0.06993 0.042 0.0
O205 O 0.43078 0.02854 0.96909 0.0
O206 O 0.47023 0.06524 0.97591 0.0
O207 O 0.52729 0.06271 0.03339 0.0
O208 O 0.53049 0.01753 0.0283 0.0
C209 C 0.451 0.9587 0.04725 0.0
O210 O 0.47474 0.96328 0.03689 0.0
O211 O 0.43125 0.96986 0.03861 0.0
O212 O 0.56556 0.95689 0.97448 0.0
O213 O 0.52787 0.91922 0.96039 0.0
O214 O 0.54641 0.95627 0.03605 0.0
C215 C 0.55418 0.9331 0.96017 0.0
O216 O 0.50799 0.91867 0.02623 0.0
O217 O 0.45305 0.9255 0.96728 0.0
C218 C 0.52999 0.9326 0.04216 0.0
O219 O 0.44877 0.9692 0.97891 0.0
O220 O 0.50524 0.02384 0.96977 0.0
O221 O 0.54912 0.01786 0.96956 0.0
C222 C 0.93643 0.56019 0.03036 0.0
C223 C 0.96485 0.55795 0.95108 0.0
C224 C 0.95603 0.44834 0.96357 0.0
Mg225 Mg 0.99492 0.56477 0.00922 0.0
O226 O 0.98226 0.52515 0.01266 0.0
Mg227 Mg 0.94408 0.50411 0.99305 0.0
Mg228 Mg 0.00476 0.50127 -0.00299 0.0
O229 O 0.02763 0.47806 0.98125 0.0
Mg230 Mg 0.01562 0.43858 0.98329 0.0
Mg231 Mg 0.0663 0.49937 -0.00013 0.0
C232 C 0.05406 0.55402 0.03043 0.0
C233 C 0.04391 0.53839 0.95571 0.0
O234 O 0.92652 0.53504 0.01827 0.0
O235 O 0.96229 0.57533 0.03001 0.0
O236 O 0.94802 0.53476 0.95793 0.0
O237 O 0.98654 0.5722 0.96705 0.0
O238 O 0.03906 0.57181 0.02731 0.0
O239 O 0.04423 0.52731 0.02319 0.0
C240 C 0.96445 0.46479 0.03792 0.0
O241 O 0.98923 0.47105 0.02957 0.0
O242 O 0.94438 0.47487 0.02786 0.0
O243 O 0.08382 0.46873 0.97321 0.0
O244 O 0.04692 0.42972 0.96043 0.0
O245 O 0.064 0.46838 0.03477 0.0
C246 C 0.07293 0.44419 0.96 0.0
O247 O 0.02654 0.43012 0.02435 0.0
O248 O 0.97138 0.43087 0.96621 0.0
C249 C 0.04779 0.44444 0.04074 0.0
O250 O 0.96569 0.47509 0.97083 0.0
O251 O 0.01923 0.53069 0.96402 0.0
O252 O 0.0649 0.5296 0.96572 0.0
C253 C 0.43726 0.56218 0.03103 0.0
C254 C 0.46521 0.55789 0.95034 0.0
C255 C 0.44638 0.44686 0.96078 0.0
Mg256 Mg 0.49483 0.56211 0.00885 0.0
O257 O 0.47861 0.52262 0.01084 0.0
Mg258 Mg 0.43947 0.50474 0.99145 0.0
Mg259 Mg 0.49846 0.49535 -0.00347 0.0
O260 O 0.51807 0.46793 0.98264 0.0
Mg261 Mg 0.50129 0.42852 0.98509 0.0
Mg262 Mg 0.55709 0.48529 0.00249 0.0
C263 C 0.54994 0.54341 0.03315 0.0
C264 C 0.54673 0.52902 0.95647 0.0
O265 O 0.42529 0.53802 0.01755 0.0
O266 O 0.46386 0.57513 0.03103 0.0
O267 O 0.44708 0.53561 0.95707 0.0
O268 O 0.48727 0.57103 0.96654 0.0
O269 O 0.53756 0.56326 0.02861 0.0
O270 O 0.53789 0.51711 0.02504 0.0
C271 C 0.4513 0.46148 0.03717 0.0
O272 O 0.47651 0.46498 0.02977 0.0
O273 O 0.43413 0.47438 0.02596 0.0
O274 O 0.57074 0.45209 0.97553 0.0
O275 O 0.53122 0.41612 0.96165 0.0
O276 O 0.54936 0.45407 0.03648 0.0
C277 C 0.55783 0.42864 0.96121 0.0
O278 O 0.50936 0.41851 0.02697 0.0
O279 O 0.45852 0.42693 0.96564 0.0
C280 C 0.53149 0.43156 0.04309 0.0
O281 O 0.45871 0.47319 0.96853 0.0
O282 O 0.52103 0.52571 0.96274 0.0
O283 O 0.56308 0.51601 0.96888 0.0
C284 C 0.9356 0.55399 0.53024 0.0
C285 C 0.96775 0.56266 0.4529 0.0
C286 C 0.95236 0.45104 0.44614 0.0
Mg287 Mg 0.99538 0.55873 0.51048 0.0
O288 O 0.98025 0.51874 0.50675 0.0
Mg289 Mg 0.94206 0.50245 0.48483 0.0
Mg290 Mg 0.00178 0.49456 0.48929 0.0
O291 O 0.02278 0.46999 0.47181 0.0
Mg292 Mg 0.00668 0.4301 0.46772 0.0
Mg293 Mg 0.06079 0.48548 0.49384 0.0
C294 C 0.05095 0.53911 0.53136 0.0
C295 C 0.04876 0.53322 0.45389 0.0
O296 O 0.92488 0.53107 0.51443 0.0
O297 O 0.96225 0.56752 0.53252 0.0
O298 O 0.9502 0.53859 0.45615 0.0
O299 O 0.98907 0.5742 0.47056 0.0
O300 O 0.03769 0.55862 0.53049 0.0
O301 O 0.04017 0.51395 0.51956 0.0
C302 C 0.95456 0.45406 0.52338 0.0
O303 O 0.98056 0.46069 0.51799 0.0
O304 O 0.93656 0.46664 0.51332 0.0
O305 O 0.07757 0.45535 0.46475 0.0
O306 O 0.03926 0.42094 0.44513 0.0
O307 O 0.05094 0.4503 0.52366 0.0
C308 C 0.06619 0.43326 0.44799 0.0
O309 O 0.01204 0.415 0.50809 0.0
O310 O 0.96468 0.43079 0.44729 0.0
C311 C 0.03253 0.42662 0.52658 0.0
O312 O 0.96363 0.47564 0.45879 0.0
O313 O 0.02326 0.52825 0.46061 0.0
O314 O 0.06624 0.51992 0.46384 0.0
C315 C 0.42808 0.05898 0.52442 0.0
C316 C 0.45767 0.05662 0.44679 0.0
C317 C 0.44199 0.94579 0.45603 0.0
Mg318 Mg 0.48647 0.05972 0.50497 0.0
O319 O 0.47075 0.02043 0.50764 0.0
Mg320 Mg 0.43249 0.00178 0.48657 0.0
Mg321 Mg 0.49196 0.99457 0.49357 0.0
O322 O 0.51284 0.96838 0.47939 0.0
Mg323 Mg 0.49671 0.92879 0.48068 0.0
Mg324 Mg 0.55032 0.98629 0.50148 0.0
C325 C 0.54258 0.04418 0.5281 0.0
C326 C 0.53714 0.02851 0.45575 0.0
O327 O 0.41679 0.03425 0.51175 0.0
O328 O 0.45464 0.07233 0.52513 0.0
O329 O 0.43936 0.03382 0.45243 0.0
O330 O 0.47961 0.06886 0.46337 0.0
O331 O 0.53 0.06367 0.52307 0.0
O332 O 0.53034 0.01747 0.52255 0.0
C333 C 0.44751 0.95933 0.5314 0.0
O334 O 0.47283 0.96558 0.52461 0.0
O335 O 0.42827 0.96994 0.5203 0.0
O336 O 0.56666 0.95341 0.47743 0.0
O337 O 0.52924 0.9159 0.46184 0.0
O338 O 0.54033 0.9545 0.53528 0.0
C339 C 0.55594 0.929 0.46405 0.0
O340 O 0.50094 0.91877 0.52253 0.0
O341 O 0.45466 0.92614 0.45968 0.0
C342 C 0.52163 0.93165 0.54024 0.0
O343 O 0.45337 0.97191 0.46468 0.0
O344 O 0.51178 0.0235 0.46249 0.0
O345 O 0.55565 0.01724 0.46735 0.0
C346 C 0.19261 0.20352 0.3149 0.0
C347 C 0.19284 0.19458 0.28752 0.0
C348 C 0.17362 0.18688 0.33147 0.0
C349 C 0.1099 0.12028 0.32925 0.0
H350 H 0.1291 0.13035 0.40764 0.0
C351 C 0.06279 0.03819 0.40846 0.0
C352 C 0.05188 0.0489 0.43069 0.0
C353 C 0.07669 0.05655 0.38969 0.0
C354 C 0.12328 0.12744 0.38579 0.0
H355 H 0.17322 0.16076 0.2562 0.0
H356 H 0.14164 0.13076 0.2852 0.0
H357 H 0.1605 0.15978 0.37839 0.0
H358 H 0.04713 0.08744 0.45066 0.0
H359 H 0.07243 0.11985 0.41832 0.0
H360 H 0.07356 0.08626 0.33724 0.0
C361 C 0.15511 0.15124 0.29399 0.0
C362 C 0.14129 0.14459 0.36873 0.0
C363 C 0.17354 0.1684 0.27717 0.0
C364 C 0.05483 0.07848 0.43348 0.0
C365 C 0.06953 0.09703 0.4151 0.0
C366 C 0.09236 0.10257 0.34635 0.0
C367 C 0.15467 0.16007 0.3216 0.0
C368 C 0.13503 0.14154 0.34 0.0
C369 C 0.08093 0.08631 0.39313 0.0
C370 C 0.09874 0.10599 0.37486 0.0
H371 H 0.20688 0.22378 0.32348 0.0
H372 H 0.17385 0.19548 0.35203 0.0
H373 H 0.1034 0.11719 0.30756 0.0
H374 H 0.06123 0.01556 0.40601 0.0
H375 H 0.08533 0.0476 0.37316 0.0
C376 C 0.85455 0.20645 0.31684 0.0
C377 C 0.82604 0.19416 0.30597 0.0
C378 C 0.87192 0.1891 0.32503 0.0
C379 C 0.86577 0.11648 0.34751 0.0
H380 H 0.94763 0.13803 0.34484 0.0
C381 C 0.93161 0.05014 0.3995 0.0
C382 C 0.95393 0.06639 0.41855 0.0
C383 C 0.9194 0.06335 0.37897 0.0
C384 C 0.92478 0.13171 0.34565 0.0
H385 H 0.79387 0.15399 0.29383 0.0
H386 H 0.82424 0.12382 0.30755 0.0
H387 H 0.91889 0.16589 0.32178 0.0
H388 H 0.98307 0.10866 0.42897 0.0
H389 H 0.96158 0.13177 0.39326 0.0
H390 H 0.87155 0.08282 0.37181 0.0
C391 C 0.83304 0.14685 0.31043 0.0
C392 C 0.90831 0.14772 0.33255 0.0
C393 C 0.81563 0.16417 0.30246 0.0
C394 C 0.96576 0.09556 0.41478 0.0
C395 C 0.95346 0.10882 0.39424 0.0
C396 C 0.88214 0.10046 0.36041 0.0
C397 C 0.86123 0.15905 0.32236 0.0
C398 C 0.87864 0.1406 0.33377 0.0
C399 C 0.92921 0.09311 0.37703 0.0
C400 C 0.9119 0.10814 0.36007 0.0
H401 H 0.86324 0.22949 0.31979 0.0
H402 H 0.89339 0.19929 0.3344 0.0
H403 H 0.84311 0.11062 0.34939 0.0
H404 H 0.92232 0.02748 0.40146 0.0
H405 H 0.90122 0.05053 0.36556 0.0
C406 C 0.80988 0.83467 0.25465 0.0
C407 C 0.78722 0.81479 0.26455 0.0
C408 C 0.822 0.86142 0.2687 0.0
C409 C 0.8602 0.89199 0.31756 0.0
H410 H 0.82638 0.92648 0.37295 0.0
C411 C 0.90895 0.9075 0.42563 0.0
C412 C 0.91994 0.93598 0.43643 0.0
C413 C 0.88928 0.90088 0.40243 0.0
C414 C 0.83611 0.91744 0.35733 0.0
H415 H 0.75854 0.80727 0.29578 0.0
H416 H 0.77964 0.85334 0.32055 0.0
H417 H 0.7972 0.90415 0.33043 0.0
H418 H 0.91632 0.97923 0.43311 0.0
H419 H 0.88162 0.96739 0.39244 0.0
H420 H 0.89849 0.90371 0.34501 0.0
C421 C 0.78765 0.8492 0.30156 0.0
C422 C 0.81951 0.90465 0.33307 0.0
C423 C 0.77544 0.82267 0.28736 0.0
C424 C 0.90854 0.95716 0.42517 0.0
C425 C 0.88869 0.95046 0.4019 0.0
C426 C 0.8766 0.90462 0.34166 0.0
C427 C 0.81218 0.86818 0.29335 0.0
C428 C 0.83098 0.89026 0.31367 0.0
C429 C 0.88006 0.92252 0.38971 0.0
C430 C 0.86426 0.91594 0.3623 0.0
H431 H 0.81919 0.82892 0.23698 0.0
H432 H 0.84052 0.8758 0.26153 0.0
H433 H 0.86989 0.88111 0.30332 0.0
H434 H 0.91687 0.89056 0.43397 0.0
H435 H 0.88241 0.87905 0.39351 0.0
C436 C 0.18666 0.80025 0.32745 0.0
C437 C 0.20364 0.81481 0.30835 0.0
C438 C 0.17218 0.81438 0.3435 0.0
C439 C 0.14846 0.88037 0.35052 0.0
H440 H 0.13955 0.85607 0.42385 0.0
C441 C 0.10273 0.93718 0.43425 0.0
C442 C 0.07924 0.91899 0.44486 0.0
C443 C 0.119 0.92592 0.41743 0.0
C444 C 0.14189 0.86301 0.40341 0.0
H445 H 0.21875 0.8554 0.29063 0.0
H446 H 0.19437 0.88087 0.31977 0.0
H447 H 0.16679 0.8347 0.39485 0.0
H448 H 0.05469 0.87477 0.44662 0.0
H449 H 0.08381 0.85505 0.41796 0.0
H450 H 0.12411 0.90942 0.35985 0.0
C451 C 0.19162 0.85824 0.32186 0.0
C452 C 0.1573 0.85066 0.38665 0.0
C453 C 0.20567 0.84379 0.30524 0.0
C454 C 0.07265 0.8893 0.43873 0.0
C455 C 0.08929 0.87802 0.42241 0.0
C456 C 0.13348 0.89315 0.36756 0.0
C457 C 0.17489 0.84371 0.3414 0.0
C458 C 0.1603 0.8587 0.35976 0.0
C459 C 0.11243 0.89626 0.41146 0.0
C460 C 0.12969 0.88418 0.39395 0.0
H461 H 0.1843 0.7777 0.32983 0.0
H462 H 0.15877 0.80214 0.35752 0.0
H463 H 0.15005 0.88694 0.32991 0.0
H464 H 0.10817 0.96018 0.43845 0.0
H465 H 0.13685 0.94034 0.40928 0.0
C466 C 0.13038 0.7882 0.69039 0.0
C467 C 0.15978 0.80181 0.69557 0.0
C468 C 0.11161 0.80317 0.67986 0.0
C469 C 0.10474 0.87599 0.6681 0.0
H470 H 0.05411 0.83785 0.60444 0.0
C471 C 0.06356 0.93624 0.58316 0.0
C472 C 0.03778 0.92299 0.56689 0.0
C473 C 0.07338 0.92229 0.60454 0.0
C474 C 0.06752 0.84869 0.62257 0.0
H475 H 0.19233 0.84218 0.69479 0.0
H476 H 0.15964 0.86819 0.67633 0.0
H477 H 0.0812 0.81157 0.63129 0.0
H478 H 0.00064 0.88597 0.56227 0.0
H479 H 0.01754 0.86184 0.60001 0.0
H480 H 0.09157 0.91337 0.65892 0.0
C481 C 0.15104 0.846 0.68057 0.0
C482 C 0.08317 0.83358 0.63794 0.0
C483 C 0.16983 0.83101 0.69097 0.0
C484 C 0.02082 0.89658 0.57409 0.0
C485 C 0.0306 0.88267 0.59563 0.0
C486 C 0.08894 0.89109 0.65279 0.0
C487 C 0.12179 0.83212 0.67442 0.0
C488 C 0.10251 0.84724 0.66046 0.0
C489 C 0.05756 0.89483 0.61037 0.0
C490 C 0.0707 0.87784 0.62938 0.0
H491 H 0.12191 0.76577 0.69382 0.0
H492 H 0.08915 0.79196 0.6756 0.0
H493 H 0.11915 0.88698 0.68561 0.0
H494 H 0.07711 0.95671 0.57843 0.0
H495 H 0.09427 0.93234 0.61528 0.0
C496 C 0.17738 0.15824 0.71851 0.0
C497 C 0.2049 0.17662 0.71816 0.0
C498 C 0.16806 0.13328 0.70117 0.0
C499 C 0.18139 0.11087 0.63349 0.0
H500 H 0.11497 0.04826 0.6423 0.0
C501 C 0.08846 0.03451 0.55325 0.0
C502 C 0.07074 0.05281 0.54953 0.0
C503 C 0.11139 0.0412 0.57388 0.0
C504 C 0.13406 0.06505 0.63965 0.0
H505 H 0.24391 0.18342 0.69941 0.0
H506 H 0.22889 0.13895 0.67086 0.0
H507 H 0.14519 0.07435 0.68269 0.0
H508 H 0.06351 0.09256 0.5645 0.0
H509 H 0.10336 0.10401 0.60016 0.0
H510 H 0.16891 0.10278 0.59054 0.0
C511 C 0.21433 0.14368 0.68433 0.0
C512 C 0.15115 0.08024 0.6627 0.0
C513 C 0.22335 0.16885 0.70126 0.0
C514 C 0.07685 0.07815 0.56643 0.0
C515 C 0.09952 0.08467 0.58698 0.0
C516 C 0.16439 0.09562 0.61056 0.0
C517 C 0.18611 0.12624 0.68309 0.0
C518 C 0.1739 0.10453 0.65986 0.0
C519 C 0.11671 0.06617 0.591 0.0
C520 C 0.13977 0.07374 0.61355 0.0
H521 H 0.1626 0.1639 0.73118 0.0
H522 H 0.14603 0.12074 0.70057 0.0
H523 H 0.19858 0.12944 0.6303 0.0
H524 H 0.08436 0.01484 0.54063 0.0
H525 H 0.12465 0.02681 0.57668 0.0
C526 C 0.79283 0.14869 0.68444 0.0
C527 C 0.806 0.17793 0.69093 0.0
C528 C 0.80425 0.13329 0.66615 0.0
C529 C 0.84783 0.14624 0.609 0.0
H530 H 0.8569 0.07043 0.61857 0.0
C531 C 0.9208 0.09977 0.54856 0.0
C532 C 0.91133 0.07082 0.5389 0.0
C533 C 0.90492 0.11124 0.56551 0.0
C534 C 0.85405 0.09142 0.61546 0.0
H535 H 0.84122 0.21411 0.68443 0.0
H536 H 0.86167 0.18724 0.65312 0.0
H537 H 0.83571 0.09307 0.65305 0.0
H538 H 0.87744 0.0313 0.53906 0.0
H539 H 0.84971 0.05148 0.56893 0.0
H540 H 0.86657 0.14493 0.57177 0.0
C541 C 0.84248 0.17614 0.66172 0.0
C542 C 0.84201 0.10437 0.63519 0.0
C543 C 0.83107 0.19142 0.67986 0.0
C544 C 0.88527 0.05372 0.5461 0.0
C545 C 0.86949 0.06517 0.56334 0.0
C546 C 0.85986 0.13337 0.58939 0.0
C547 C 0.82876 0.14714 0.65404 0.0
C548 C 0.83941 0.13218 0.63242 0.0
C549 C 0.87931 0.09399 0.57335 0.0
C550 C 0.86364 0.1061 0.59268 0.0
H551 H 0.77307 0.13819 0.69243 0.0
H552 H 0.79318 0.11101 0.66048 0.0
H553 H 0.84539 0.16739 0.60596 0.0
H554 H 0.94074 0.11354 0.54336 0.0
H555 H 0.91315 0.13346 0.57315 0.0
C556 C 0.8298 0.80644 0.70858 0.0
C557 C 0.79993 0.79941 0.70257 0.0
C558 C 0.84807 0.82363 0.69166 0.0
C559 C 0.85454 0.84242 0.62132 0.0
H560 H 0.90877 0.91419 0.64957 0.0
C561 C 0.93945 0.913 0.55696 0.0
C562 C 0.9373 0.94117 0.55548 0.0
C563 C 0.92509 0.8949 0.57592 0.0
C564 C 0.89392 0.89408 0.64139 0.0
H565 H 0.76608 0.80465 0.67351 0.0
H566 H 0.79795 0.83349 0.64342 0.0
H567 H 0.87866 0.88422 0.68033 0.0
H568 H 0.91929 0.9726 0.57348 0.0
H569 H 0.89567 0.94176 0.60714 0.0
H570 H 0.87005 0.85208 0.58244 0.0
C571 C 0.80718 0.82623 0.66161 0.0
C572 C 0.87669 0.87689 0.65904 0.0
C573 C 0.78891 0.80985 0.67899 0.0
C574 C 0.92157 0.9511 0.57417 0.0
C575 C 0.90797 0.9334 0.59349 0.0
C576 C 0.87233 0.85922 0.60381 0.0
C577 C 0.83702 0.83342 0.66772 0.0
C578 C 0.85644 0.85104 0.64918 0.0
C579 C 0.90894 0.90484 0.59431 0.0
C580 C 0.89201 0.88551 0.6135 0.0
H581 H 0.83906 0.79873 0.72648 0.0
H582 H 0.87092 0.82875 0.69697 0.0
H583 H 0.83926 0.82259 0.61306 0.0
H584 H 0.95105 0.90454 0.54266 0.0
H585 H 0.92637 0.87304 0.57604 0.0
C586 C 0.33326 0.20722 0.19008 0.0
C587 C 0.30627 0.19814 0.19952 0.0
C588 C 0.34262 0.18929 0.17268 0.0
C589 C 0.32187 0.1267 0.12347 0.0
H590 H 0.39935 0.1244 0.14472 0.0
C591 C 0.38046 0.05649 0.06437 0.0
C592 C 0.40917 0.07003 0.06108 0.0
C593 C 0.36525 0.06966 0.08102 0.0
C594 C 0.37777 0.12491 0.13831 0.0
H595 H 0.26731 0.16333 0.19677 0.0
H596 H 0.2838 0.13174 0.16582 0.0
H597 H 0.3771 0.15164 0.17353 0.0
H598 H 0.44397 0.10851 0.07241 0.0
H599 H 0.41768 0.1312 0.10097 0.0
H600 H 0.32296 0.10026 0.08783 0.0
C601 C 0.29768 0.15289 0.17225 0.0
C602 C 0.36496 0.14051 0.1549 0.0
C603 C 0.28825 0.17095 0.18996 0.0
C604 C 0.42204 0.09718 0.07455 0.0
C605 C 0.40695 0.11021 0.09113 0.0
C606 C 0.3348 0.11105 0.1067 0.0
C607 C 0.32532 0.16166 0.16401 0.0
C608 C 0.33714 0.14222 0.14742 0.0
C609 C 0.37846 0.09657 0.09489 0.0
C610 C 0.36322 0.11058 0.11362 0.0
H611 H 0.34763 0.22813 0.19659 0.0
H612 H 0.36375 0.19701 0.16625 0.0
H613 H 0.3004 0.1276 0.11716 0.0
H614 H 0.36977 0.03563 0.05425 0.0
H615 H 0.34336 0.05851 0.08349 0.0
C616 C 0.83505 0.30614 0.18622 0.0
C617 C 0.80941 0.29807 0.16882 0.0
C618 C 0.86088 0.31728 0.17574 0.0
C619 C 0.89411 0.33173 0.11123 0.0
H620 H 0.93344 0.4049 0.14999 0.0
C621 C 0.94109 0.44889 0.07905 0.0
C622 C 0.95833 0.44465 0.05917 0.0
C623 C 0.93266 0.42823 0.09754 0.0
C624 C 0.92304 0.38431 0.13919 0.0
H625 H 0.79062 0.29364 0.1268 0.0
H626 H 0.83556 0.31428 0.10853 0.0
H627 H 0.89853 0.36991 0.17184 0.0
H628 H 0.9803 0.41589 0.04277 0.0
H629 H 0.96589 0.37972 0.07539 0.0
H630 H 0.91678 0.34739 0.07762 0.0
C631 C 0.83591 0.31136 0.13017 0.0
C632 C 0.90321 0.36413 0.15174 0.0
C633 C 0.81011 0.29986 0.14063 0.0
C634 C 0.96783 0.41998 0.05852 0.0
C635 C 0.9593 0.39919 0.07693 0.0
C636 C 0.91389 0.35199 0.09863 0.0
C637 C 0.86145 0.32088 0.14773 0.0
C638 C 0.88748 0.33828 0.13733 0.0
C639 C 0.94112 0.40289 0.09619 0.0
C640 C 0.92733 0.379 0.11204 0.0
H641 H 0.83511 0.30438 0.20802 0.0
H642 H 0.88028 0.32405 0.18966 0.0
H643 H 0.88263 0.31175 0.09987 0.0
H644 H 0.93349 0.4678 0.0798 0.0
H645 H 0.91816 0.43137 0.11183 0.0
C646 C 0.64141 0.77528 0.16017 0.0
C647 C 0.66644 0.78744 0.17774 0.0
C648 C 0.6269 0.79281 0.147 0.0
C649 C 0.63272 0.86599 0.12709 0.0
H650 H 0.55129 0.84434 0.13267 0.0
C651 C 0.56359 0.93468 0.08391 0.0
C652 C 0.53976 0.91913 0.06607 0.0
C653 C 0.5778 0.92054 0.10191 0.0
C654 C 0.57397 0.85061 0.13089 0.0
H655 H 0.69715 0.82746 0.19362 0.0
H656 H 0.67176 0.85795 0.17056 0.0
H657 H 0.58037 0.81522 0.15237 0.0
H658 H 0.51042 0.87705 0.05519 0.0
H659 H 0.53527 0.85239 0.08646 0.0
H660 H 0.62628 0.90104 0.1051 0.0
C661 C 0.66328 0.83492 0.16713 0.0
C662 C 0.59058 0.83389 0.14202 0.0
C663 C 0.67775 0.81742 0.18037 0.0
C664 C 0.52877 0.88962 0.06855 0.0
C665 C 0.54304 0.87548 0.08653 0.0
C666 C 0.61608 0.88268 0.11584 0.0
C667 C 0.63723 0.82276 0.15106 0.0
C668 C 0.62001 0.84114 0.13983 0.0
C669 C 0.56842 0.89063 0.10248 0.0
C670 C 0.58644 0.87491 0.11727 0.0
H671 H 0.63231 0.75228 0.1575 0.0
H672 H 0.60717 0.78291 0.13417 0.0
H673 H 0.65537 0.87203 0.12509 0.0
H674 H 0.57235 0.95756 0.08283 0.0
H675 H 0.59689 0.93287 0.11447 0.0
C676 C 0.22077 0.73512 0.15366 0.0
C677 C 0.20187 0.72767 0.1736 0.0
C678 C 0.21673 0.71747 0.12967 0.0
C679 C 0.19347 0.64333 0.11382 0.0
H680 H 0.15602 0.64822 0.04232 0.0
C681 C 0.09022 0.57269 0.06968 0.0
C682 C 0.08382 0.56513 0.04174 0.0
C683 C 0.11783 0.5879 0.08013 0.0
C684 C 0.16756 0.64659 0.06173 0.0
H685 H 0.16209 0.69922 0.18289 0.0
H686 H 0.15419 0.6694 0.14046 0.0
H687 H 0.17958 0.69207 0.07079 0.0
H688 H 0.10077 0.5657 0.00281 0.0
H689 H 0.14926 0.59361 0.02105 0.0
H690 H 0.17788 0.59783 0.10647 0.0
C691 C 0.17258 0.68804 0.14371 0.0
C692 C 0.18094 0.6717 0.07798 0.0
C693 C 0.17685 0.70523 0.16772 0.0
C694 C 0.10553 0.57132 0.0245 0.0
C695 C 0.13315 0.58708 0.03487 0.0
C696 C 0.17978 0.61827 0.09777 0.0
C697 C 0.19346 0.69292 0.12554 0.0
C698 C 0.1919 0.66993 0.10484 0.0
C699 C 0.13921 0.59627 0.06263 0.0
C700 C 0.16466 0.61979 0.07259 0.0
H701 H 0.24035 0.75228 0.15807 0.0
H702 H 0.23286 0.72158 0.11565 0.0
H703 H 0.20205 0.64171 0.13456 0.0
H704 H 0.07357 0.56816 0.08316 0.0
H705 H 0.1218 0.59528 0.10152 0.0
C706 C 0.24797 0.81549 0.81193 0.0
C707 C 0.26706 0.80935 0.79479 0.0
C708 C 0.25629 0.84032 0.82954 0.0
C709 C 0.31394 0.9081 0.84768 0.0
H710 H 0.31416 0.88179 0.92076 0.0
C711 C 0.41226 0.93321 0.92171 0.0
C712 C 0.41156 0.93748 0.94979 0.0
C713 C 0.38732 0.92744 0.90397 0.0
C714 C 0.31363 0.89002 0.90072 0.0
H715 H 0.30919 0.82412 0.78175 0.0
H716 H 0.32354 0.86766 0.81177 0.0
H717 H 0.28043 0.85317 0.88413 0.0
H718 H 0.38484 0.93992 0.98172 0.0
H719 H 0.34023 0.92805 0.95048 0.0
H720 H 0.34884 0.94374 0.86393 0.0
C721 C 0.30203 0.85382 0.81148 0.0
C722 C 0.29426 0.8736 0.87968 0.0
C723 C 0.29388 0.82888 0.79429 0.0
C724 C 0.3856 0.93643 0.96004 0.0
C725 C 0.3603 0.92987 0.94223 0.0
C726 C 0.33323 0.92456 0.86873 0.0
C727 C 0.28373 0.85931 0.82999 0.0
C728 C 0.29568 0.88148 0.85266 0.0
C729 C 0.361 0.92528 0.91401 0.0
C730 C 0.33459 0.91454 0.89499 0.0
H731 H 0.2272 0.80046 0.8126 0.0
H732 H 0.24186 0.84399 0.84369 0.0
H733 H 0.31511 0.9149 0.82709 0.0
H734 H 0.43222 0.93432 0.91346 0.0
H735 H 0.38852 0.92344 0.88244 0.0
C736 C 0.17661 0.29744 0.8237 0.0
C737 C 0.19948 0.31237 0.81015 0.0
C738 C 0.16735 0.31148 0.84463 0.0
C739 C 0.1785 0.36786 0.89545 0.0
H740 H 0.11069 0.38413 0.86099 0.0
C741 C 0.12047 0.4425 0.94612 0.0
C742 C 0.09063 0.43146 0.94377 0.0
C743 C 0.13672 0.42902 0.93133 0.0
C744 C 0.12944 0.37958 0.871 0.0
H745 H 0.23227 0.35256 0.80926 0.0
H746 H 0.21632 0.37682 0.84637 0.0
H747 H 0.13456 0.35533 0.83575 0.0
H748 H 0.05446 0.39794 0.92383 0.0
H749 H 0.08258 0.37456 0.8987 0.0
H750 H 0.17286 0.39153 0.93108 0.0
C751 C 0.20558 0.35446 0.84061 0.0
C752 C 0.14299 0.36314 0.85658 0.0
C753 C 0.21447 0.34066 0.81931 0.0
C754 C 0.0774 0.40704 0.92621 0.0
C755 C 0.09351 0.3937 0.91159 0.0
C756 C 0.16463 0.38409 0.91015 0.0
C757 C 0.18135 0.34026 0.85258 0.0
C758 C 0.16735 0.35699 0.86879 0.0
C759 C 0.12328 0.4045 0.91393 0.0
C760 C 0.13976 0.38975 0.89809 0.0
H761 H 0.16475 0.2756 0.81701 0.0
H762 H 0.14834 0.30043 0.85355 0.0
H763 H 0.19753 0.36343 0.90493 0.0
H764 H 0.13123 0.46125 0.95957 0.0
H765 H 0.15969 0.43783 0.93333 0.0
C766 C 0.6665 0.19248 0.81546 0.0
C767 C 0.65837 0.21722 0.80953 0.0
C768 C 0.65012 0.17206 0.83074 0.0
C769 C 0.57821 0.1485 0.85467 0.0
H770 H 0.6158 0.10539 0.90227 0.0
C771 C 0.5295 0.0742 0.9385 0.0
C772 C 0.53593 0.04786 0.93809 0.0
C773 C 0.54069 0.09442 0.92019 0.0
C774 C 0.60506 0.11719 0.8889 0.0
H775 H 0.62751 0.24072 0.81551 0.0
H776 H 0.59962 0.20576 0.84351 0.0
H777 H 0.64433 0.14301 0.87759 0.0
H778 H 0.55728 0.02091 0.91747 0.0
H779 H 0.57705 0.05627 0.88573 0.0
H780 H 0.53891 0.12298 0.86719 0.0
C781 C 0.61796 0.20149 0.8355 0.0
C782 C 0.62135 0.13865 0.87464 0.0
C783 C 0.63403 0.22163 0.81968 0.0
C784 C 0.55219 0.04123 0.9182 0.0
C785 C 0.56346 0.06136 0.90011 0.0
C786 C 0.56191 0.12729 0.8694 0.0
C787 C 0.62563 0.17629 0.84097 0.0
C788 C 0.60815 0.15434 0.85705 0.0
C789 C 0.55864 0.08844 0.90163 0.0
C790 C 0.57527 0.11127 0.88629 0.0
H791 H 0.68503 0.18846 0.80757 0.0
H792 H 0.65638 0.15267 0.834 0.0
H793 H 0.56729 0.15989 0.84104 0.0
H794 H 0.51773 0.07997 0.95418 0.0
H795 H 0.53696 0.11533 0.92179 0.0
C796 C 0.81098 0.66358 0.82342 0.0
C797 C 0.81949 0.68693 0.80738 0.0
C798 C 0.83121 0.6533 0.83832 0.0
C799 C 0.90438 0.64836 0.83913 0.0
H800 H 0.89005 0.62006 0.91022 0.0
C801 C 0.97215 0.59838 0.91998 0.0
C802 C 0.9561 0.57112 0.92636 0.0
C803 C 0.9601 0.61426 0.90176 0.0
C804 C 0.89431 0.62796 0.89039 0.0
H805 H 0.85591 0.71832 0.79481 0.0
H806 H 0.89156 0.70019 0.82106 0.0
H807 H 0.86025 0.64754 0.88875 0.0
H808 H 0.91626 0.5378 0.91587 0.0
H809 H 0.89535 0.56573 0.88454 0.0
H810 H 0.93857 0.62834 0.84112 0.0
C811 C 0.86912 0.68987 0.82195 0.0
C812 C 0.87727 0.64361 0.87809 0.0
C813 C 0.84875 0.70039 0.80718 0.0
C814 C 0.92911 0.55885 0.91181 0.0
C815 C 0.91707 0.57478 0.89384 0.0
C816 C 0.92169 0.63279 0.85165 0.0
C817 C 0.8605 0.666 0.83747 0.0
C818 C 0.88153 0.65329 0.85198 0.0
C819 C 0.93195 0.60304 0.88972 0.0
C820 C 0.91618 0.62188 0.87705 0.0
H821 H 0.78859 0.65275 0.82398 0.0
H822 H 0.82382 0.63467 0.84978 0.0
H823 H 0.90806 0.65541 0.81893 0.0
H824 H 0.99317 0.60832 0.93053 0.0
H825 H 0.97191 0.63605 0.89877 0.0
C826 C 0.17856 0.3013 0.14593 0.0
C827 C 0.17394 0.28857 0.17072 0.0
C828 C 0.16215 0.31885 0.13613 0.0
C829 C 0.09576 0.33955 0.14287 0.0
H830 H 0.13719 0.40735 0.11002 0.0
C831 C 0.04224 0.40209 0.06893 0.0
C832 C 0.05614 0.43088 0.06533 0.0
C833 C 0.05398 0.38699 0.08804 0.0
C834 C 0.12526 0.3889 0.11962 0.0
H835 H 0.14761 0.28333 0.20415 0.0
H836 H 0.11907 0.31418 0.18707 0.0
H837 H 0.16274 0.37554 0.12972 0.0
H838 H 0.09129 0.46736 0.08144 0.0
H839 H 0.1113 0.44123 0.11541 0.0
H840 H 0.05824 0.35315 0.13289 0.0
C841 C 0.13527 0.31042 0.17512 0.0
C842 C 0.13991 0.3703 0.13047 0.0
C843 C 0.15163 0.29271 0.18488 0.0
C844 C 0.08035 0.44505 0.08329 0.0
C845 C 0.09194 0.42999 0.10265 0.0
C846 C 0.08106 0.35829 0.13211 0.0
C847 C 0.14084 0.32427 0.15097 0.0
C848 C 0.12526 0.345 0.14154 0.0
C849 C 0.07973 0.40041 0.10425 0.0
C850 C 0.09555 0.38286 0.11974 0.0
H851 H 0.19542 0.29839 0.13443 0.0
H852 H 0.16649 0.32855 0.11707 0.0
H853 H 0.08383 0.32029 0.15134 0.0
H854 H 0.02334 0.39053 0.05569 0.0
H855 H 0.04392 0.36428 0.08858 0.0
C856 C 0.16675 0.63546 0.77773 0.0
C857 C 0.1873 0.65885 0.79179 0.0
C858 C 0.14058 0.62432 0.78787 0.0
C859 C 0.09597 0.64051 0.84034 0.0
H860 H 0.0746 0.55834 0.84601 0.0
C861 C 0.07201 0.58034 0.9342 0.0
C862 C 0.04788 0.55679 0.933 0.0
C863 C 0.07764 0.59582 0.91132 0.0
C864 C 0.07964 0.58122 0.84387 0.0
H865 H 0.19692 0.68882 0.82747 0.0
H866 H 0.1522 0.66886 0.84562 0.0
H867 H 0.10813 0.57939 0.81424 0.0
H868 H 0.00982 0.5315 0.9081 0.0
H869 H 0.02086 0.55767 0.86714 0.0
H870 H 0.07006 0.64232 0.8726 0.0
C871 C 0.15552 0.65965 0.8263 0.0
C872 C 0.09886 0.59332 0.82569 0.0
C873 C 0.1814 0.67084 0.81611 0.0
C874 C 0.0286 0.54969 0.90922 0.0
C875 C 0.03474 0.56462 0.886 0.0
C876 C 0.07723 0.62843 0.85893 0.0
C877 C 0.13473 0.63635 0.81229 0.0
C878 C 0.10851 0.62323 0.82497 0.0
C879 C 0.05961 0.58736 0.88684 0.0
C880 C 0.07016 0.59888 0.8617 0.0
H881 H 0.17068 0.62608 0.75873 0.0
H882 H 0.12497 0.60634 0.77665 0.0
H883 H 0.1024 0.66359 0.83962 0.0
H884 H 0.0869 0.58618 0.95253 0.0
H885 H 0.09715 0.61312 0.91217 0.0
C886 C 0.3656 0.20778 0.80785 0.0
C887 C 0.33573 0.20079 0.80315 0.0
C888 C 0.37884 0.19004 0.82226 0.0
C889 C 0.36777 0.11618 0.84181 0.0
H890 H 0.42975 0.15049 0.89817 0.0
C891 C 0.40977 0.05239 0.92382 0.0
C892 C 0.43806 0.06306 0.93602 0.0
C893 C 0.39905 0.06689 0.90344 0.0
C894 C 0.41296 0.1405 0.88208 0.0
H895 H 0.29625 0.16988 0.81024 0.0
H896 H 0.31952 0.13894 0.83577 0.0
H897 H 0.40686 0.18093 0.87229 0.0
H898 H 0.478 0.09568 0.93438 0.0
H899 H 0.45976 0.1201 0.89793 0.0
H900 H 0.37387 0.07567 0.85165 0.0
C901 C 0.33261 0.15804 0.82796 0.0
C902 C 0.39969 0.15801 0.86739 0.0
C903 C 0.31932 0.17591 0.81363 0.0
C904 C 0.45607 0.08703 0.92568 0.0
C905 C 0.44548 0.10123 0.90494 0.0
C906 C 0.38125 0.0986 0.85638 0.0
C907 C 0.36251 0.16487 0.83224 0.0
C908 C 0.3768 0.14605 0.84731 0.0
C909 C 0.4165 0.09214 0.89451 0.0
C910 C 0.40385 0.11056 0.87691 0.0
H911 H 0.37887 0.22672 0.79995 0.0
H912 H 0.40193 0.19572 0.82509 0.0
H913 H 0.35041 0.10644 0.82614 0.0
H914 H 0.39529 0.03385 0.93115 0.0
H915 H 0.37661 0.05926 0.89601 0.0
C916 C 0.79588 0.2768 0.83578 0.0
C917 C 0.78147 0.28285 0.81184 0.0
C918 C 0.8023 0.29622 0.85876 0.0
C919 C 0.81472 0.37409 0.87169 0.0
H920 H 0.84193 0.35694 0.94347 0.0
C921 C 0.90359 0.43353 0.96618 0.0
C922 C 0.92683 0.43706 0.95083 0.0
C923 C 0.87613 0.41871 0.95433 0.0
C924 C 0.83357 0.36217 0.92384 0.0
H925 H 0.76296 0.31385 0.79308 0.0
H926 H 0.77056 0.34549 0.83361 0.0
H927 H 0.80812 0.31902 0.91352 0.0
H928 H 0.94028 0.42933 0.91148 0.0
H929 H 0.89242 0.40436 0.89049 0.0
H930 H 0.84133 0.41671 0.88152 0.0
C931 C 0.77779 0.32646 0.83481 0.0
C932 C 0.81465 0.34038 0.90648 0.0
C933 C 0.77268 0.30786 0.81165 0.0
C934 C 0.92245 0.42697 0.92344 0.0
C935 C 0.89516 0.41283 0.91152 0.0
C936 C 0.83325 0.39573 0.88908 0.0
C937 C 0.79401 0.3218 0.85824 0.0
C938 C 0.80655 0.34568 0.8795 0.0
C939 C 0.8719 0.40809 0.92697 0.0
C940 C 0.84434 0.38945 0.91446 0.0
H941 H 0.80337 0.25783 0.83632 0.0
H942 H 0.8153 0.29196 0.87615 0.0
H943 H 0.80935 0.37941 0.85119 0.0
H944 H 0.90684 0.441 0.9875 0.0
H945 H 0.85842 0.415 0.96655 0.0
C946 C 0.65031 0.80588 0.79657 0.0
C947 C 0.67959 0.81109 0.79423 0.0
C948 C 0.64075 0.82097 0.8164 0.0
C949 C 0.65758 0.88615 0.86121 0.0
H950 H 0.59839 0.83971 0.90018 0.0
C951 C 0.60161 0.93295 0.94422 0.0
C952 C 0.57184 0.9211 0.9427 0.0
C953 C 0.61798 0.92091 0.928 0.0
C954 C 0.61477 0.85306 0.8894 0.0
H955 H 0.72183 0.83707 0.8104 0.0
H956 H 0.70487 0.86376 0.84551 0.0
H957 H 0.62166 0.81665 0.86848 0.0
H958 H 0.53599 0.88775 0.92225 0.0
H959 H 0.56426 0.86722 0.89401 0.0
H960 H 0.65001 0.92267 0.88178 0.0
C961 C 0.68946 0.8478 0.83179 0.0
C962 C 0.62818 0.83982 0.8713 0.0
C963 C 0.69914 0.83251 0.81179 0.0
C964 C 0.55886 0.89728 0.92429 0.0
C965 C 0.57513 0.88537 0.90814 0.0
C966 C 0.64402 0.8995 0.87939 0.0
C967 C 0.66014 0.84173 0.83455 0.0
C968 C 0.64914 0.85619 0.85641 0.0
C969 C 0.60492 0.89676 0.90997 0.0
C970 C 0.62187 0.88307 0.89308 0.0
H971 H 0.63455 0.78989 0.78317 0.0
H972 H 0.618 0.81627 0.81758 0.0
H973 H 0.67367 0.89929 0.84999 0.0
H974 H 0.61233 0.95129 0.95817 0.0
H975 H 0.64088 0.93014 0.92997 0.0
C976 C 0.81872 0.68653 0.17628 0.0
C977 C 0.80097 0.67006 0.19385 0.0
C978 C 0.83094 0.67331 0.15715 0.0
C979 C 0.82539 0.60655 0.1183 0.0
H980 H 0.90729 0.63741 0.1193 0.0
C981 C 0.89472 0.55333 0.05717 0.0
C982 C 0.91768 0.57179 0.04614 0.0
C983 C 0.87855 0.5644 0.07416 0.0
C984 C 0.88436 0.62881 0.11845 0.0
H985 H 0.78091 0.62683 0.20437 0.0
H986 H 0.80236 0.60369 0.17062 0.0
H987 H 0.88206 0.6584 0.1507 0.0
H988 H 0.9407 0.61619 0.04269 0.0
H989 H 0.91193 0.63556 0.07156 0.0
H990 H 0.82766 0.57719 0.08568 0.0
C991 C 0.80679 0.6268 0.17185 0.0
C992 C 0.86999 0.64076 0.1365 0.0
C993 C 0.7947 0.64005 0.1912 0.0
C994 C 0.9234 0.60148 0.05133 0.0
C995 C 0.90702 0.61253 0.06796 0.0
C996 C 0.83977 0.59471 0.09997 0.0
C997 C 0.82545 0.64342 0.1551 0.0
C998 C 0.84039 0.62992 0.13639 0.0
C999 C 0.88489 0.5941 0.08009 0.0
C1000 C 0.86938 0.60595 0.09971 0.0
H1001 H 0.82379 0.70969 0.17774 0.0
H1002 H 0.845 0.68649 0.14414 0.0
H1003 H 0.8025 0.59792 0.11791 0.0
H1004 H 0.88994 0.53032 0.05352 0.0
H1005 H 0.86176 0.54965 0.08338 0.0
C1006 C 0.35587 0.78705 0.21334 0.0
C1007 C 0.32614 0.77845 0.20663 0.0
C1008 C 0.3732 0.80755 0.19863 0.0
C1009 C 0.36912 0.86485 0.15284 0.0
H1010 H 0.44187 0.85818 0.13319 0.0
C1011 C 0.43466 0.95043 0.0927 0.0
C1012 C 0.44605 0.9408 0.07042 0.0
C1013 C 0.42546 0.93221 0.113 0.0
C1014 C 0.42156 0.86026 0.13846 0.0
H1015 H 0.29129 0.78392 0.17888 0.0
H1016 H 0.32137 0.81889 0.1529 0.0
H1017 H 0.41379 0.82228 0.16044 0.0
H1018 H 0.4585 0.90547 0.05234 0.0
H1019 H 0.44105 0.87278 0.0873 0.0
H1020 H 0.37572 0.90162 0.12981 0.0
C1021 C 0.33137 0.81057 0.16997 0.0
C1022 C 0.40563 0.83989 0.15431 0.0
C1023 C 0.3141 0.7904 0.1848 0.0
C1024 C 0.44977 0.91324 0.06947 0.0
C1025 C 0.43987 0.89464 0.08954 0.0
C1026 C 0.38479 0.8849 0.13686 0.0
C1027 C 0.36109 0.81961 0.17684 0.0
C1028 C 0.37905 0.84182 0.16138 0.0
C1029 C 0.42659 0.90365 0.11097 0.0
C1030 C 0.41116 0.88288 0.12937 0.0
H1031 H 0.36572 0.77816 0.23009 0.0
H1032 H 0.39599 0.81425 0.20458 0.0
H1033 H 0.34899 0.8673 0.15829 0.0
H1034 H 0.43208 0.97185 0.09398 0.0
H1035 H 0.41631 0.9402 0.12971 0.0
C1036 C 0.69243 0.17266 0.20821 0.0
C1037 C 0.72143 0.1867 0.20812 0.0
C1038 C 0.68011 0.14712 0.1923 0.0
C1039 C 0.65854 0.09094 0.15763 0.0
H1040 H 0.67332 0.10963 0.0838 0.0
C1041 C 0.58176 0.03322 0.06447 0.0
C1042 C 0.57062 0.05314 0.05057 0.0
C1043 C 0.60674 0.0425 0.08248 0.0
C1044 C 0.66933 0.10376 0.10429 0.0
H1045 H 0.76081 0.18503 0.19273 0.0
H1046 H 0.7392 0.14031 0.16443 0.0
H1047 H 0.70562 0.13684 0.12217 0.0
H1048 H 0.57806 0.098 0.04295 0.0
H1049 H 0.62194 0.11411 0.07392 0.0
H1050 H 0.62111 0.05908 0.13958 0.0
C1051 C 0.72605 0.14877 0.17704 0.0
C1052 C 0.68792 0.11916 0.12629 0.0
C1053 C 0.73841 0.17422 0.19319 0.0
C1054 C 0.58605 0.08219 0.05346 0.0
C1055 C 0.61126 0.09138 0.07105 0.0
C1056 C 0.6401 0.07528 0.13557 0.0
C1057 C 0.69654 0.13564 0.17557 0.0
C1058 C 0.68189 0.1139 0.15318 0.0
C1059 C 0.62131 0.07175 0.08641 0.0
C1060 C 0.64459 0.08259 0.10878 0.0
H1061 H 0.67897 0.18232 0.2193 0.0
H1062 H 0.65727 0.13778 0.19135 0.0
H1063 H 0.65352 0.08632 0.17816 0.0
H1064 H 0.57028 0.01068 0.06275 0.0
H1065 H 0.6141 0.02698 0.09407 0.0
C1066 C 0.69742 0.66736 0.79422 0.0
C1067 C 0.69008 0.69049 0.78217 0.0
C1068 C 0.67945 0.64989 0.81115 0.0
C1069 C 0.61884 0.64755 0.85327 0.0
H1070 H 0.61474 0.56694 0.8531 0.0
C1071 C 0.54633 0.56738 0.92203 0.0
C1072 C 0.55897 0.54752 0.93428 0.0
C1073 C 0.55969 0.58487 0.90204 0.0
C1074 C 0.61571 0.58946 0.85371 0.0
H1075 H 0.65734 0.71282 0.77876 0.0
H1076 H 0.62604 0.68229 0.80781 0.0
H1077 H 0.64301 0.59673 0.82177 0.0
H1078 H 0.59572 0.53067 0.93423 0.0
H1079 H 0.61836 0.5605 0.90042 0.0
H1080 H 0.59155 0.64006 0.8855 0.0
C1081 C 0.64595 0.67782 0.80447 0.0
C1082 C 0.63212 0.60669 0.83562 0.0
C1083 C 0.66391 0.69528 0.78749 0.0
C1084 C 0.58503 0.54556 0.92559 0.0
C1085 C 0.59811 0.56268 0.90576 0.0
C1086 C 0.60235 0.63023 0.87146 0.0
C1087 C 0.65341 0.65483 0.81672 0.0
C1088 C 0.63442 0.63618 0.8353 0.0
C1089 C 0.58583 0.58267 0.89352 0.0
C1090 C 0.60092 0.60095 0.87235 0.0
H1091 H 0.71733 0.66291 0.79093 0.0
H1092 H 0.68641 0.63281 0.82037 0.0
H1093 H 0.62005 0.67012 0.85395 0.0
H1094 H 0.52637 0.56964 0.92806 0.0
H1095 H 0.5494 0.5999 0.89308 0.0
C1096 C 0.3374 0.67735 0.79259 0.0
C1097 C 0.3243 0.69071 0.81127 0.0
C1098 C 0.35819 0.66398 0.80186 0.0
C1099 C 0.40781 0.66179 0.86282 0.0
H1100 H 0.40177 0.58455 0.83481 0.0
C1101 C 0.43249 0.55737 0.9081 0.0
C1102 C 0.45805 0.57063 0.92473 0.0
C1103 C 0.42203 0.57204 0.88768 0.0
C1104 C 0.40386 0.60618 0.84277 0.0
H1105 H 0.3229 0.70059 0.8543 0.0
H1106 H 0.35864 0.67738 0.87026 0.0
H1107 H 0.37135 0.6113 0.81275 0.0
H1108 H 0.49434 0.60844 0.93065 0.0
H1109 H 0.47637 0.63384 0.8946 0.0
H1110 H 0.43887 0.65632 0.89379 0.0
C1111 C 0.35332 0.67749 0.84848 0.0
C1112 C 0.3866 0.6216 0.82996 0.0
C1113 C 0.33261 0.69066 0.83928 0.0
C1114 C 0.47434 0.59777 0.91857 0.0
C1115 C 0.46393 0.61241 0.89799 0.0
C1116 C 0.42497 0.64643 0.8756 0.0
C1117 C 0.36639 0.66396 0.82995 0.0
C1118 C 0.38772 0.64923 0.84045 0.0
C1119 C 0.43697 0.60028 0.88322 0.0
C1120 C 0.42263 0.61809 0.8663 0.0
H1121 H 0.33141 0.67695 0.77087 0.0
H1122 H 0.36792 0.65378 0.78708 0.0
H1123 H 0.40956 0.68322 0.87112 0.0
H1124 H 0.41951 0.5363 0.91195 0.0
H1125 H 0.40121 0.56193 0.87683 0.0
C1126 C 0.30567 0.3378 0.76013 0.0
C1127 C 0.28593 0.31452 0.76955 0.0
C1128 C 0.31705 0.36305 0.77687 0.0
C1129 C 0.35627 0.39471 0.82588 0.0
H1130 H 0.31976 0.41898 0.88527 0.0
C1131 C 0.40502 0.41075 0.93469 0.0
C1132 C 0.4194 0.43958 0.94241 0.0
C1133 C 0.38391 0.40365 0.9126 0.0
C1134 C 0.33012 0.41289 0.86851 0.0
H1135 H 0.26262 0.29888 0.8034 0.0
H1136 H 0.28221 0.34256 0.83258 0.0
H1137 H 0.29051 0.39371 0.84382 0.0
H1138 H 0.42092 0.48353 0.93452 0.0
H1139 H 0.38387 0.47084 0.89568 0.0
H1140 H 0.39561 0.41224 0.85128 0.0
C1141 C 0.28824 0.34213 0.81206 0.0
C1142 C 0.31351 0.3984 0.8449 0.0
C1143 C 0.27694 0.31705 0.79536 0.0
C1144 C 0.41031 0.46114 0.92911 0.0
C1145 C 0.38916 0.45397 0.90688 0.0
C1146 C 0.37276 0.40916 0.84937 0.0
C1147 C 0.30919 0.36506 0.80343 0.0
C1148 C 0.32635 0.38783 0.82398 0.0
C1149 C 0.37668 0.4252 0.89795 0.0
C1150 C 0.3597 0.41716 0.87125 0.0
H1151 H 0.31324 0.33597 0.74041 0.0
H1152 H 0.33318 0.38035 0.76966 0.0
H1153 H 0.36689 0.38667 0.81038 0.0
H1154 H 0.41127 0.39361 0.94459 0.0
H1155 H 0.37441 0.38129 0.90588 0.0
C1156 C 0.70686 0.35695 0.81364 0.0
C1157 C 0.69435 0.33606 0.79237 0.0
C1158 C 0.69122 0.374 0.82421 0.0
C1159 C 0.62037 0.36001 0.83993 0.0
H1160 H 0.64367 0.43804 0.87198 0.0
C1161 C 0.55755 0.39811 0.91928 0.0
C1162 C 0.57308 0.41786 0.9406 0.0
C1163 C 0.57097 0.39099 0.89748 0.0
C1164 C 0.63701 0.41611 0.86337 0.0
H1165 H 0.65683 0.31802 0.76373 0.0
H1166 H 0.62891 0.3474 0.78283 0.0
H1167 H 0.66979 0.42412 0.83645 0.0
H1168 H 0.6152 0.44461 0.95629 0.0
H1169 H 0.63893 0.43108 0.91882 0.0
H1170 H 0.58908 0.35114 0.86793 0.0
C1171 C 0.65098 0.35092 0.79097 0.0
C1172 C 0.6517 0.40833 0.84278 0.0
C1173 C 0.66694 0.33427 0.77998 0.0
C1174 C 0.6026 0.4294 0.94015 0.0
C1175 C 0.61612 0.42194 0.91846 0.0
C1176 C 0.606 0.36763 0.86074 0.0
C1177 C 0.66257 0.36981 0.81409 0.0
C1178 C 0.64381 0.38006 0.83126 0.0
C1179 C 0.60036 0.40304 0.8966 0.0
C1180 C 0.61448 0.39562 0.87313 0.0
H1181 H 0.72794 0.35855 0.82352 0.0
H1182 H 0.7006 0.38827 0.84212 0.0
H1183 H 0.61427 0.33788 0.83185 0.0
H1184 H 0.53472 0.38898 0.91879 0.0
H1185 H 0.55804 0.37662 0.88092 0.0
C1186 C 0.64066 0.28533 0.18612 0.0
C1187 C 0.66896 0.30069 0.19532 0.0
C1188 C 0.62156 0.29934 0.17444 0.0
C1189 C 0.60959 0.37082 0.16681 0.0
H1190 H 0.56567 0.33512 0.09887 0.0
C1191 C 0.56391 0.43274 0.08567 0.0
C1192 C 0.5392 0.41847 0.06828 0.0
C1193 C 0.57513 0.41839 0.10587 0.0
C1194 C 0.57722 0.34517 0.11812 0.0
H1195 H 0.69911 0.34299 0.20024 0.0
H1196 H 0.66582 0.36738 0.17974 0.0
H1197 H 0.59461 0.30994 0.12489 0.0
H1198 H 0.50537 0.37873 0.0604 0.0
H1199 H 0.52475 0.35379 0.09603 0.0
H1200 H 0.59267 0.40638 0.15964 0.0
C1201 C 0.65832 0.34453 0.18175 0.0
C1202 C 0.59393 0.33072 0.13303 0.0
C1203 C 0.67747 0.33051 0.19335 0.0
C1204 C 0.5246 0.39028 0.0732 0.0
C1205 C 0.53585 0.3759 0.09348 0.0
C1206 C 0.59278 0.38526 0.15192 0.0
C1207 C 0.63026 0.32904 0.17178 0.0
C1208 C 0.61069 0.34355 0.15731 0.0
C1209 C 0.56187 0.38943 0.10931 0.0
C1210 C 0.57677 0.37282 0.12712 0.0
H1211 H 0.63336 0.26236 0.18741 0.0
H1212 H 0.6 0.28683 0.16727 0.0
H1213 H 0.62194 0.38111 0.18565 0.0
H1214 H 0.5756 0.45458 0.08271 0.0
H1215 H 0.59521 0.42953 0.11757 0.0
C1216 C 0.68003 0.65429 0.23488 0.0
C1217 C 0.7037 0.67448 0.22687 0.0
C1218 C 0.66857 0.62808 0.21971 0.0
C1219 C 0.63348 0.5967 0.16944 0.0
H1220 H 0.67179 0.56395 0.11675 0.0
C1221 C 0.59081 0.5793 0.06003 0.0
C1222 C 0.57667 0.55053 0.05187 0.0
C1223 C 0.61099 0.58617 0.08285 0.0
C1224 C 0.66084 0.5725 0.13163 0.0
H1225 H 0.73455 0.68316 0.19763 0.0
H1226 H 0.7146 0.63805 0.17089 0.0
H1227 H 0.69862 0.58783 0.15981 0.0
H1228 H 0.57506 0.50648 0.05943 0.0
H1229 H 0.61045 0.51878 0.0996 0.0
H1230 H 0.59621 0.58269 0.14074 0.0
C1231 C 0.7053 0.64151 0.18931 0.0
C1232 C 0.6761 0.58623 0.15617 0.0
C1233 C 0.71686 0.66748 0.20466 0.0
C1234 C 0.58544 0.52884 0.06525 0.0
C1235 C 0.60568 0.53579 0.08822 0.0
C1236 C 0.61838 0.583 0.14512 0.0
C1237 C 0.68009 0.62213 0.19578 0.0
C1238 C 0.66292 0.5999 0.17465 0.0
C1239 C 0.61749 0.56446 0.09782 0.0
C1240 C 0.63226 0.57213 0.12553 0.0
H1241 H 0.6696 0.65935 0.25203 0.0
H1242 H 0.6495 0.61339 0.2256 0.0
H1243 H 0.6225 0.60704 0.18286 0.0
H1244 H 0.58487 0.59653 0.04999 0.0
H1245 H 0.62008 0.60848 0.08998 0.0
C1246 C 0.28014 0.64164 0.17741 0.0
C1247 C 0.28794 0.67138 0.18294 0.0
C1248 C 0.29708 0.62906 0.16249 0.0
C1249 C 0.35127 0.6486 0.11372 0.0
H1250 H 0.36173 0.57383 0.12623 0.0
C1251 C 0.43047 0.60314 0.05958 0.0
C1252 C 0.42 0.57477 0.04826 0.0
C1253 C 0.41457 0.6146 0.07664 0.0
C1254 C 0.35881 0.59467 0.12245 0.0
H1255 H 0.3196 0.71134 0.17864 0.0
H1256 H 0.34981 0.68952 0.15382 0.0
H1257 H 0.3342 0.59425 0.15611 0.0
H1258 H 0.3846 0.53616 0.04616 0.0
H1259 H 0.35701 0.55622 0.07608 0.0
H1260 H 0.37623 0.64917 0.08035 0.0
C1261 C 0.33034 0.67579 0.15999 0.0
C1262 C 0.343 0.60634 0.13949 0.0
C1263 C 0.31325 0.68829 0.17444 0.0
C1264 C 0.39326 0.55814 0.05441 0.0
C1265 C 0.37754 0.5695 0.07172 0.0
C1266 C 0.3673 0.63708 0.09693 0.0
C1267 C 0.32213 0.64612 0.15316 0.0
C1268 C 0.33905 0.63348 0.13533 0.0
C1269 C 0.38803 0.59783 0.083 0.0
C1270 C 0.3712 0.61001 0.10108 0.0
H1271 H 0.26046 0.62835 0.18361 0.0
H1272 H 0.28997 0.60619 0.1574 0.0
H1273 H 0.34813 0.66923 0.10943 0.0
H1274 H 0.45098 0.61653 0.05531 0.0
H1275 H 0.42323 0.63646 0.0852 0.0
C1276 C 0.3033 0.28842 0.17815 0.0
C1277 C 0.30174 0.29866 0.20482 0.0
C1278 C 0.3223 0.30476 0.16139 0.0
C1279 C 0.38341 0.37347 0.16204 0.0
H1280 H 0.36678 0.35867 0.08367 0.0
C1281 C 0.42813 0.4531 0.08035 0.0
C1282 C 0.44102 0.44267 0.05942 0.0
C1283 C 0.4145 0.43493 0.09936 0.0
C1284 C 0.37189 0.36291 0.10553 0.0
H1285 H 0.31898 0.33443 0.23467 0.0
H1286 H 0.35047 0.36382 0.20522 0.0
H1287 H 0.33574 0.32944 0.11335 0.0
H1288 H 0.44962 0.40474 0.04214 0.0
H1289 H 0.4247 0.37253 0.07487 0.0
H1290 H 0.41854 0.4085 0.15349 0.0
C1291 C 0.33812 0.34261 0.19722 0.0
C1292 C 0.35409 0.3459 0.12286 0.0
C1293 C 0.31973 0.3258 0.21428 0.0
C1294 C 0.44029 0.41353 0.05824 0.0
C1295 C 0.42583 0.39508 0.07684 0.0
C1296 C 0.40069 0.39098 0.14463 0.0
C1297 C 0.33987 0.3325 0.1703 0.0
C1298 C 0.35939 0.35072 0.15159 0.0
C1299 C 0.41252 0.40553 0.0975 0.0
C1300 C 0.39521 0.38589 0.11614 0.0
H1301 H 0.29007 0.26741 0.1703 0.0
H1302 H 0.32314 0.29521 0.14146 0.0
H1303 H 0.3892 0.37796 0.18376 0.0
H1304 H 0.42808 0.47537 0.08166 0.0
H1305 H 0.40439 0.44366 0.11486 0.0
C1306 C 0.8323 0.66191 0.70057 0.0
C1307 C 0.80849 0.67229 0.6949 0.0
C1308 C 0.84042 0.64542 0.68076 0.0
C1309 C 0.84331 0.63756 0.60904 0.0
H1310 H 0.86016 0.56583 0.62366 0.0
C1311 C 0.92473 0.59463 0.55569 0.0
C1312 C 0.91657 0.56558 0.5462 0.0
C1313 C 0.90714 0.60571 0.57103 0.0
C1314 C 0.85525 0.58566 0.61916 0.0
H1315 H 0.77431 0.67353 0.66425 0.0
H1316 H 0.7893 0.64533 0.62893 0.0
H1317 H 0.83641 0.58774 0.6564 0.0
H1318 H 0.88338 0.52545 0.54526 0.0
H1319 H 0.85299 0.54475 0.57288 0.0
H1320 H 0.86357 0.6363 0.57253 0.0
C1321 C 0.80123 0.64958 0.64898 0.0
C1322 C 0.84177 0.5982 0.63789 0.0
C1323 C 0.7926 0.66551 0.66914 0.0
C1324 C 0.89027 0.54791 0.55226 0.0
C1325 C 0.87291 0.5589 0.56809 0.0
C1326 C 0.85731 0.6253 0.59056 0.0
C1327 C 0.82532 0.63954 0.65464 0.0
C1328 C 0.83605 0.62445 0.63318 0.0
C1329 C 0.88122 0.58791 0.57764 0.0
C1330 C 0.86378 0.59944 0.59565 0.0
H1331 H 0.84489 0.66686 0.7203 0.0
H1332 H 0.8592 0.63814 0.68555 0.0
H1333 H 0.83934 0.65795 0.6051 0.0
H1334 H 0.94474 0.60889 0.55123 0.0
H1335 H 0.91419 0.62809 0.57835 0.0
C1336 C 0.31628 0.80654 0.66402 0.0
C1337 C 0.3175 0.81347 0.69201 0.0
C1338 C 0.34067 0.81506 0.65073 0.0
C1339 C 0.39475 0.8322 0.62509 0.0
H1340 H 0.43029 0.9131 0.64393 0.0
C1341 C 0.46198 0.93788 0.57314 0.0
C1342 C 0.44074 0.93881 0.55227 0.0
C1343 C 0.45621 0.91763 0.59248 0.0
C1344 C 0.42121 0.89034 0.6388 0.0
H1345 H 0.34549 0.83247 0.72862 0.0
H1346 H 0.38836 0.84704 0.70539 0.0
H1347 H 0.40306 0.88417 0.6763 0.0
H1348 H 0.39724 0.91921 0.53459 0.0
H1349 H 0.38707 0.88354 0.56856 0.0
H1350 H 0.41034 0.83966 0.58617 0.0
C1351 C 0.36842 0.83564 0.69359 0.0
C1352 C 0.40568 0.87364 0.65738 0.0
C1353 C 0.34387 0.82742 0.70685 0.0
C1354 C 0.41378 0.91902 0.5507 0.0
C1355 C 0.40818 0.89843 0.56976 0.0
C1356 C 0.40979 0.8491 0.60629 0.0
C1357 C 0.36688 0.8304 0.66522 0.0
C1358 C 0.39075 0.84483 0.64998 0.0
C1359 C 0.42931 0.89776 0.59079 0.0
C1360 C 0.4217 0.87853 0.6126 0.0
H1361 H 0.29626 0.79554 0.65211 0.0
H1362 H 0.33845 0.81108 0.62879 0.0
H1363 H 0.38423 0.80985 0.61917 0.0
H1364 H 0.48294 0.9531 0.57472 0.0
H1365 H 0.47258 0.91759 0.60882 0.0
C1366 C 0.15098 0.27907 0.6524 0.0
C1367 C 0.16917 0.29168 0.67598 0.0
C1368 C 0.13447 0.29428 0.63828 0.0
C1369 C 0.12809 0.36653 0.62729 0.0
H1370 H 0.04801 0.32731 0.60725 0.0
C1371 C 0.05523 0.42562 0.57366 0.0
C1372 C 0.03826 0.41071 0.55025 0.0
C1373 C 0.06757 0.41109 0.59287 0.0
C1374 C 0.07033 0.33853 0.61256 0.0
H1375 H 0.18536 0.33067 0.70243 0.0
H1376 H 0.1567 0.35721 0.67763 0.0
H1377 H 0.07895 0.30228 0.63101 0.0
H1378 H 0.01872 0.36871 0.52984 0.0
H1379 H 0.04064 0.34334 0.56301 0.0
H1380 H 0.1199 0.40246 0.6082 0.0
C1381 C 0.15511 0.33552 0.67018 0.0
C1382 C 0.08805 0.32416 0.62611 0.0
C1383 C 0.17147 0.32027 0.6844 0.0
C1384 C 0.03165 0.38073 0.54772 0.0
C1385 C 0.04429 0.3662 0.56678 0.0
C1386 C 0.11045 0.38082 0.61355 0.0
C1387 C 0.13599 0.32247 0.64733 0.0
C1388 C 0.11716 0.33793 0.63338 0.0
C1389 C 0.06347 0.3814 0.58889 0.0
C1390 C 0.08138 0.36693 0.6058 0.0
H1391 H 0.14883 0.25715 0.64527 0.0
H1392 H 0.12029 0.28388 0.62041 0.0
H1393 H 0.15048 0.37761 0.63247 0.0
H1394 H 0.06035 0.44875 0.57631 0.0
H1395 H 0.08149 0.42334 0.61011 0.0
C1396 C 0.71943 0.1775 0.69745 0.0
C1397 C 0.70993 0.20224 0.69868 0.0
C1398 C 0.71156 0.15822 0.67451 0.0
C1399 C 0.67462 0.14903 0.60343 0.0
H1400 H 0.65464 0.06864 0.61758 0.0
C1401 C 0.59325 0.07186 0.52838 0.0
C1402 C 0.57198 0.05301 0.54093 0.0
C1403 C 0.61991 0.08457 0.54287 0.0
C1404 C 0.65998 0.09099 0.6132 0.0
H1405 H 0.684 0.22573 0.6772 0.0
H1406 H 0.66859 0.19131 0.63807 0.0
H1407 H 0.68139 0.10402 0.65318 0.0
H1408 H 0.5619 0.03054 0.57713 0.0
H1409 H 0.60726 0.05414 0.60328 0.0
H1410 H 0.65059 0.13661 0.56474 0.0
C1411 C 0.68349 0.18744 0.65405 0.0
C1412 C 0.67583 0.11138 0.63359 0.0
C1413 C 0.69198 0.20707 0.6767 0.0
C1414 C 0.57817 0.04523 0.56725 0.0
C1415 C 0.60442 0.05864 0.5821 0.0
C1416 C 0.65811 0.12878 0.58338 0.0
C1417 C 0.69316 0.16272 0.65262 0.0
C1418 C 0.68204 0.14079 0.6294 0.0
C1419 C 0.62519 0.07962 0.57055 0.0
C1420 C 0.64922 0.09958 0.58851 0.0
H1421 H 0.73285 0.17285 0.71433 0.0
H1422 H 0.71967 0.13966 0.67415 0.0
H1423 H 0.68007 0.17138 0.59903 0.0
H1424 H 0.58886 0.07759 0.50777 0.0
H1425 H 0.63568 0.09959 0.53282 0.0
C1426 C 0.78044 0.33524 0.27588 0.0
C1427 C 0.77064 0.314 0.29391 0.0
C1428 C 0.79228 0.36383 0.28584 0.0
C1429 C 0.8069 0.41221 0.34965 0.0
H1430 H 0.88556 0.42614 0.33494 0.0
C1431 C 0.90883 0.4189 0.41929 0.0
C1432 C 0.92567 0.44669 0.42791 0.0
C1433 C 0.88586 0.41475 0.39921 0.0
C1434 C 0.8636 0.42335 0.33875 0.0
H1435 H 0.7625 0.30614 0.33565 0.0
H1436 H 0.78286 0.35553 0.35296 0.0
H1437 H 0.84769 0.39691 0.30203 0.0
H1438 H 0.9312 0.49192 0.42272 0.0
H1439 H 0.89076 0.48439 0.38733 0.0
H1440 H 0.82352 0.43587 0.38806 0.0
C1441 C 0.78164 0.35052 0.33123 0.0
C1442 C 0.84182 0.4067 0.31985 0.0
C1443 C 0.77037 0.32206 0.32142 0.0
C1444 C 0.91835 0.47027 0.41677 0.0
C1445 C 0.8954 0.46607 0.39646 0.0
C1446 C 0.82875 0.42878 0.36862 0.0
C1447 C 0.79391 0.37154 0.31383 0.0
C1448 C 0.81352 0.3989 0.32628 0.0
C1449 C 0.87943 0.43823 0.38729 0.0
C1450 C 0.85725 0.43261 0.36403 0.0
H1451 H 0.78059 0.32954 0.25448 0.0
H1452 H 0.80159 0.37957 0.27198 0.0
H1453 H 0.78517 0.40699 0.35482 0.0
H1454 H 0.91387 0.40035 0.42752 0.0
H1455 H 0.87358 0.39308 0.3923 0.0
C1456 C 0.70315 0.84507 0.31264 0.0
C1457 C 0.69053 0.81627 0.30363 0.0
C1458 C 0.69237 0.85771 0.33346 0.0
C1459 C 0.64424 0.84018 0.38789 0.0
H1460 H 0.63788 0.91715 0.37946 0.0
C1461 C 0.5649 0.88752 0.43858 0.0
C1462 C 0.57499 0.91581 0.45014 0.0
C1463 C 0.58239 0.87556 0.42413 0.0
C1464 C 0.63993 0.8958 0.38227 0.0
H1465 H 0.65686 0.77804 0.30895 0.0
H1466 H 0.63727 0.80031 0.34448 0.0
H1467 H 0.66211 0.89596 0.3471 0.0
H1468 H 0.61161 0.95343 0.45634 0.0
H1469 H 0.64201 0.93246 0.43067 0.0
H1470 H 0.62074 0.83972 0.42235 0.0
C1471 C 0.65606 0.81296 0.33626 0.0
C1472 C 0.65386 0.88367 0.36381 0.0
C1473 C 0.66714 0.80022 0.3158 0.0
C1474 C 0.60317 0.93162 0.44758 0.0
C1475 C 0.62055 0.91971 0.43288 0.0
C1476 C 0.63001 0.8522 0.40613 0.0
C1477 C 0.6685 0.84185 0.3453 0.0
C1478 C 0.65581 0.85557 0.36619 0.0
C1479 C 0.61016 0.89173 0.4208 0.0
C1480 C 0.62746 0.87996 0.40324 0.0
H1481 H 0.72142 0.85778 0.30368 0.0
H1482 H 0.70271 0.87988 0.34025 0.0
H1483 H 0.64588 0.81869 0.3906 0.0
H1484 H 0.54336 0.87472 0.44034 0.0
H1485 H 0.57386 0.85399 0.41476 0.0
C1486 C 0.13461 0.71098 0.28822 0.0
C1487 C 0.16164 0.7094 0.28226 0.0
C1488 C 0.11938 0.69212 0.3057 0.0
C1489 C 0.1328 0.64954 0.36199 0.0
H1490 H 0.05214 0.60945 0.34943 0.0
C1491 C 0.08485 0.5561 0.4235 0.0
C1492 C 0.05856 0.55414 0.43352 0.0
C1493 C 0.09488 0.57579 0.40465 0.0
C1494 C 0.07457 0.62086 0.35334 0.0
H1495 H 0.19321 0.68593 0.28865 0.0
H1496 H 0.16655 0.65294 0.3188 0.0
H1497 H 0.07433 0.64211 0.31609 0.0
H1498 H 0.02172 0.57075 0.43072 0.0
H1499 H 0.03974 0.60597 0.39795 0.0
H1500 H 0.13335 0.62851 0.399 0.0
C1501 C 0.15738 0.66908 0.31044 0.0
C1502 C 0.08725 0.63943 0.33428 0.0
C1503 C 0.17257 0.68787 0.29308 0.0
C1504 C 0.04218 0.57198 0.42367 0.0
C1505 C 0.05239 0.59198 0.40478 0.0
C1506 C 0.1202 0.63119 0.38096 0.0
C1507 C 0.13098 0.67147 0.31747 0.0
C1508 C 0.11664 0.65336 0.33818 0.0
C1509 C 0.07907 0.5943 0.39544 0.0
C1510 C 0.09115 0.6161 0.37653 0.0
H1511 H 0.12567 0.7274 0.28021 0.0
H1512 H 0.09911 0.69445 0.31086 0.0
H1513 H 0.15533 0.66062 0.36589 0.0
H1514 H 0.09785 0.54236 0.43015 0.0
H1515 H 0.11516 0.57653 0.39725 0.0
C1516 C 0.31652 0.18455 0.33809 0.0
C1517 C 0.32253 0.20195 0.31619 0.0
C1518 C 0.3369 0.17229 0.35005 0.0
C1519 C 0.3931 0.14275 0.33434 0.0
H1520 H 0.41369 0.14822 0.41257 0.0
C1521 C 0.46762 0.09996 0.41972 0.0
C1522 C 0.45097 0.07189 0.42276 0.0
C1523 C 0.45737 0.11751 0.40212 0.0
C1524 C 0.40835 0.14678 0.39066 0.0
H1525 H 0.35465 0.22046 0.28976 0.0
H1526 H 0.39018 0.19821 0.31035 0.0
H1527 H 0.38478 0.1778 0.39289 0.0
H1528 H 0.41222 0.03916 0.40707 0.0
H1529 H 0.39475 0.06982 0.3758 0.0
H1530 H 0.41523 0.11027 0.33247 0.0
C1531 C 0.36978 0.19451 0.31839 0.0
C1532 C 0.39181 0.16358 0.37947 0.0
C1533 C 0.34957 0.20736 0.30681 0.0
C1534 C 0.42545 0.06073 0.40544 0.0
C1535 C 0.41546 0.07821 0.38749 0.0
C1536 C 0.40915 0.12541 0.34565 0.0
C1537 C 0.36346 0.17669 0.33995 0.0
C1538 C 0.38375 0.16145 0.35127 0.0
C1539 C 0.43071 0.10708 0.38674 0.0
C1540 C 0.41662 0.12718 0.37392 0.0
H1541 H 0.29583 0.17998 0.34567 0.0
H1542 H 0.33151 0.15848 0.36656 0.0
H1543 H 0.38689 0.14062 0.31254 0.0
H1544 H 0.48755 0.10919 0.43244 0.0
H1545 H 0.46947 0.13973 0.40172 0.0
C1546 C 0.6761 0.84036 0.68574 0.0
C1547 C 0.67147 0.81068 0.6869 0.0
C1548 C 0.6557 0.85138 0.6722 0.0
C1549 C 0.57976 0.83494 0.64512 0.0
H1550 H 0.60918 0.9015 0.60482 0.0
C1551 C 0.51673 0.88746 0.56577 0.0
C1552 C 0.5272 0.9174 0.56521 0.0
C1553 C 0.52919 0.87285 0.58496 0.0
C1554 C 0.60061 0.88318 0.61632 0.0
H1555 H 0.6416 0.76917 0.67473 0.0
H1556 H 0.60594 0.78861 0.65005 0.0
H1557 H 0.64187 0.87781 0.62673 0.0
H1558 H 0.55543 0.95582 0.58688 0.0
H1559 H 0.57678 0.9304 0.62051 0.0
H1560 H 0.53814 0.8402 0.63357 0.0
C1561 C 0.62533 0.80328 0.66015 0.0
C1562 C 0.61937 0.86953 0.62885 0.0
C1563 C 0.64582 0.79216 0.67405 0.0
C1564 C 0.54742 0.93271 0.5864 0.0
C1565 C 0.55968 0.91816 0.60561 0.0
C1566 C 0.56079 0.84855 0.63219 0.0
C1567 C 0.63018 0.83307 0.65901 0.0
C1568 C 0.60934 0.84561 0.64389 0.0
C1569 C 0.55204 0.88807 0.60389 0.0
C1570 C 0.57121 0.87317 0.61815 0.0
H1571 H 0.69539 0.85532 0.69572 0.0
H1572 H 0.65989 0.87443 0.67234 0.0
H1573 H 0.57137 0.81657 0.65658 0.0
H1574 H 0.5009 0.87507 0.54987 0.0
H1575 H 0.52275 0.84965 0.58333 0.0
C1576 C 0.65082 0.14981 0.2782 0.0
C1577 C 0.67055 0.17178 0.29488 0.0
C1578 C 0.62413 0.13704 0.28644 0.0
C1579 C 0.59165 0.09757 0.3243 0.0
H1580 H 0.55422 0.13152 0.37688 0.0
C1581 C 0.57287 0.05604 0.42717 0.0
C1582 C 0.54453 0.04665 0.43303 0.0
C1583 C 0.5794 0.07165 0.40454 0.0
C1584 C 0.56395 0.12175 0.36176 0.0
H1585 H 0.67705 0.19961 0.33179 0.0
H1586 H 0.63121 0.17652 0.34679 0.0
H1587 H 0.57927 0.16108 0.34291 0.0
H1588 H 0.50085 0.04613 0.4198 0.0
H1589 H 0.5127 0.07467 0.38085 0.0
H1590 H 0.57826 0.05894 0.34454 0.0
C1591 C 0.63587 0.16943 0.32711 0.0
C1592 C 0.57827 0.13854 0.34245 0.0
C1593 C 0.6624 0.18235 0.31876 0.0
C1594 C 0.52296 0.05371 0.41621 0.0
C1595 C 0.52958 0.06974 0.39381 0.0
C1596 C 0.5775 0.08094 0.3436 0.0
C1597 C 0.61698 0.14582 0.31162 0.0
C1598 C 0.59372 0.12697 0.32468 0.0
C1599 C 0.55774 0.07826 0.38766 0.0
C1600 C 0.56503 0.09339 0.36329 0.0
H1601 H 0.65633 0.14181 0.25928 0.0
H1602 H 0.60978 0.11913 0.27396 0.0
H1603 H 0.60345 0.08799 0.31109 0.0
H1604 H 0.58993 0.05103 0.4398 0.0
H1605 H 0.60136 0.07843 0.40004 0.0
C1606 C 0.85044 0.72029 0.33708 0.0
C1607 C 0.82671 0.70624 0.31854 0.0
C1608 C 0.86594 0.70456 0.35179 0.0
C1609 C 0.88295 0.63606 0.34595 0.0
H1610 H 0.91536 0.65555 0.42123 0.0
C1611 C 0.93752 0.56565 0.41026 0.0
C1612 C 0.95966 0.57929 0.43067 0.0
C1613 C 0.92366 0.58167 0.39412 0.0
C1614 C 0.90689 0.65019 0.40003 0.0
H1615 H 0.79942 0.6646 0.30229 0.0
H1616 H 0.82641 0.63726 0.32809 0.0
H1617 H 0.88368 0.68158 0.40056 0.0
H1618 H 0.98674 0.62047 0.44803 0.0
H1619 H 0.96284 0.64852 0.41939 0.0
H1620 H 0.90609 0.60461 0.34543 0.0
C1621 C 0.83333 0.66043 0.33084 0.0
C1622 C 0.8886 0.66497 0.38828 0.0
C1623 C 0.81778 0.67612 0.31622 0.0
C1624 C 0.96964 0.60931 0.43263 0.0
C1625 C 0.95571 0.62537 0.41647 0.0
C1626 C 0.9013 0.62131 0.35768 0.0
C1627 C 0.85802 0.67451 0.34818 0.0
C1628 C 0.87647 0.65808 0.36112 0.0
C1629 C 0.93174 0.61167 0.39799 0.0
C1630 C 0.91354 0.62828 0.38484 0.0
H1631 H 0.85778 0.74345 0.33941 0.0
H1632 H 0.88491 0.71601 0.36498 0.0
H1633 H 0.87427 0.63057 0.32481 0.0
H1634 H 0.92949 0.54251 0.40803 0.0
H1635 H 0.90533 0.57044 0.38003 0.0
C1636 C 0.31836 0.78182 0.30965 0.0
C1637 C 0.29193 0.76129 0.30888 0.0
C1638 C 0.3273 0.80263 0.33116 0.0
C1639 C 0.32103 0.82966 0.39774 0.0
H1640 H 0.33267 0.90112 0.36219 0.0
C1641 C 0.38952 0.92893 0.45549 0.0
C1642 C 0.41352 0.93766 0.44134 0.0
C1643 C 0.36337 0.91348 0.44147 0.0
C1644 C 0.32886 0.88141 0.37252 0.0
H1645 H 0.25634 0.74301 0.3315 0.0
H1646 H 0.27226 0.77968 0.36965 0.0
H1647 H 0.31203 0.85564 0.33543 0.0
H1648 H 0.42922 0.94042 0.40183 0.0
H1649 H 0.38396 0.9134 0.37726 0.0
H1650 H 0.3401 0.85515 0.43438 0.0
C1651 C 0.28572 0.77988 0.35344 0.0
C1652 C 0.31731 0.85546 0.35723 0.0
C1653 C 0.27687 0.75877 0.33188 0.0
C1654 C 0.41074 0.93375 0.41294 0.0
C1655 C 0.3847 0.91849 0.39892 0.0
C1656 C 0.33278 0.85569 0.41307 0.0
C1657 C 0.30984 0.80302 0.35201 0.0
C1658 C 0.31508 0.8295 0.36948 0.0
C1659 C 0.36128 0.90655 0.4133 0.0
C1660 C 0.33865 0.88166 0.40018 0.0
H1661 H 0.33026 0.78396 0.29206 0.0
H1662 H 0.34647 0.81996 0.33019 0.0
H1663 H 0.31903 0.80979 0.40753 0.0
H1664 H 0.3915 0.93197 0.47752 0.0
H1665 H 0.34555 0.9048 0.45294 0.0
C1666 C 0.16116 0.30306 0.28617 0.0
C1667 C 0.18908 0.30036 0.28913 0.0
C1668 C 0.15282 0.32155 0.30384 0.0
C1669 C 0.16747 0.3567 0.37272 0.0
H1670 H 0.11718 0.39947 0.34227 0.0
C1671 C 0.11396 0.42698 0.43812 0.0
C1672 C 0.08443 0.42166 0.4308 0.0
C1673 C 0.1306 0.41532 0.42177 0.0
C1674 C 0.13118 0.38766 0.35114 0.0
H1675 H 0.23026 0.31516 0.31316 0.0
H1676 H 0.21539 0.34751 0.34479 0.0
H1677 H 0.1401 0.37427 0.31195 0.0
H1678 H 0.04944 0.40015 0.40031 0.0
H1679 H 0.07832 0.38046 0.37185 0.0
H1680 H 0.15787 0.36979 0.41201 0.0
C1681 C 0.20008 0.33522 0.32846 0.0
C1682 C 0.14435 0.37321 0.33376 0.0
C1683 C 0.20864 0.31687 0.31031 0.0
C1684 C 0.07207 0.40468 0.40668 0.0
C1685 C 0.08869 0.39351 0.39021 0.0
C1686 C 0.15429 0.37133 0.39022 0.0
C1687 C 0.17203 0.33784 0.32529 0.0
C1688 C 0.16197 0.35679 0.34423 0.0
C1689 C 0.11815 0.39863 0.39749 0.0
C1690 C 0.13531 0.38627 0.37954 0.0
H1691 H 0.14554 0.29083 0.27001 0.0
H1692 H 0.13098 0.32264 0.30096 0.0
H1693 H 0.18081 0.34416 0.38146 0.0
H1694 H 0.12415 0.43984 0.45663 0.0
H1695 H 0.15325 0.41968 0.42792 0.0
C1696 C 0.29575 0.14602 0.68763 0.0
C1697 C 0.3073 0.17545 0.69447 0.0
C1698 C 0.30511 0.13293 0.66619 0.0
C1699 C 0.34469 0.14865 0.60594 0.0
H1700 H 0.35811 0.07477 0.61706 0.0
C1701 C 0.41972 0.10154 0.54825 0.0
C1702 C 0.40995 0.07239 0.53927 0.0
C1703 C 0.40342 0.11387 0.56386 0.0
C1704 C 0.354 0.09518 0.61353 0.0
H1705 H 0.33761 0.21438 0.68471 0.0
H1706 H 0.35488 0.1913 0.64789 0.0
H1707 H 0.33724 0.09695 0.65166 0.0
H1708 H 0.37505 0.03355 0.53868 0.0
H1709 H 0.34675 0.05519 0.56646 0.0
H1710 H 0.36284 0.14727 0.5683 0.0
C1711 C 0.33799 0.17848 0.65846 0.0
C1712 C 0.34205 0.10787 0.63328 0.0
C1713 C 0.3283 0.19165 0.67963 0.0
C1714 C 0.38316 0.05604 0.54541 0.0
C1715 C 0.367 0.06833 0.56129 0.0
C1716 C 0.35697 0.13607 0.58632 0.0
C1717 C 0.32649 0.14899 0.65155 0.0
C1718 C 0.33754 0.13485 0.6298 0.0
C1719 C 0.37725 0.09719 0.57091 0.0
C1720 C 0.36192 0.10938 0.59015 0.0
H1721 H 0.27923 0.13318 0.69861 0.0
H1722 H 0.29553 0.11026 0.66103 0.0
H1723 H 0.34102 0.16925 0.60252 0.0
H1724 H 0.44017 0.11474 0.54362 0.0
H1725 H 0.41179 0.13614 0.57131 0.0
C1726 C 0.81673 0.29628 0.67682 0.0
C1727 C 0.82887 0.29948 0.70409 0.0
C1728 C 0.8308 0.31315 0.65736 0.0
C1729 C 0.90269 0.35473 0.64447 0.0
H1730 H 0.86171 0.38493 0.58747 0.0
C1731 C 0.95892 0.43333 0.5684 0.0
C1732 C 0.94452 0.43193 0.54226 0.0
C1733 C 0.94594 0.41593 0.58813 0.0
C1734 C 0.87348 0.37626 0.60297 0.0
H1735 H 0.86446 0.32376 0.73266 0.0
H1736 H 0.8887 0.3536 0.69879 0.0
H1737 H 0.8359 0.35846 0.62223 0.0
H1738 H 0.90673 0.41012 0.51527 0.0
H1739 H 0.88482 0.37857 0.549 0.0
H1740 H 0.94025 0.37229 0.62506 0.0
C1741 C 0.86871 0.33758 0.69232 0.0
C1742 C 0.85864 0.36119 0.62297 0.0
C1743 C 0.85473 0.32062 0.71173 0.0
C1744 C 0.91805 0.41162 0.53546 0.0
C1745 C 0.9054 0.39386 0.55488 0.0
C1746 C 0.91754 0.36967 0.62433 0.0
C1747 C 0.85718 0.33364 0.66484 0.0
C1748 C 0.87305 0.35022 0.64391 0.0
C1749 C 0.91862 0.39657 0.58177 0.0
C1750 C 0.90308 0.3805 0.60325 0.0
H1751 H 0.79691 0.28002 0.67029 0.0
H1752 H 0.82149 0.30944 0.6363 0.0
H1753 H 0.91434 0.34619 0.66016 0.0
H1754 H 0.97926 0.44912 0.57407 0.0
H1755 H 0.95669 0.41872 0.60865 0.0
C1756 C 0.18983 0.67117 0.70523 0.0
C1757 C 0.21901 0.68537 0.70691 0.0
C1758 C 0.17909 0.64432 0.69113 0.0
C1759 C 0.1859 0.61889 0.62842 0.0
H1760 H 0.13584 0.54531 0.64211 0.0
C1761 C 0.10395 0.55523 0.54243 0.0
C1762 C 0.07672 0.54432 0.5506 0.0
C1763 C 0.12783 0.56359 0.56202 0.0
C1764 C 0.14971 0.56579 0.63787 0.0
H1765 H 0.26022 0.68237 0.69719 0.0
H1766 H 0.24112 0.63587 0.67109 0.0
H1767 H 0.16606 0.57607 0.68012 0.0
H1768 H 0.05265 0.53215 0.58477 0.0
H1769 H 0.09362 0.54748 0.61894 0.0
H1770 H 0.16762 0.61077 0.58706 0.0
C1771 C 0.22681 0.645 0.68148 0.0
C1772 C 0.16723 0.58313 0.65963 0.0
C1773 C 0.23766 0.6715 0.69631 0.0
C1774 C 0.07363 0.54055 0.57818 0.0
C1775 C 0.09728 0.54907 0.59772 0.0
C1776 C 0.16789 0.602 0.60684 0.0
C1777 C 0.1973 0.63189 0.67781 0.0
C1778 C 0.18472 0.61019 0.6551 0.0
C1779 C 0.12467 0.56153 0.59007 0.0
C1780 C 0.14858 0.57576 0.61145 0.0
H1781 H 0.17514 0.68171 0.71314 0.0
H1782 H 0.15622 0.6347 0.68826 0.0
H1783 H 0.199 0.63993 0.62459 0.0
H1784 H 0.10663 0.5582 0.52112 0.0
H1785 H 0.14857 0.57257 0.55523 0.0
loop_
_geom_bond_atom_site_label_1
_geom_bond_atom_site_label_2
_geom_bond_distance
_geom_bond_site_symmetry_2
_ccdc_geom_bond_type
Zn0 O6 1.969 . S
Zn0 O7 1.965 . S
Zn0 O11 2.024 . S
Zn0 O16 1.969 . S
Zn1 O8 1.969 . S
Zn1 O14 1.969 . S
Zn1 O15 1.965 . S
Zn1 O17 2.024 . S
C2 O3 1.229 . S
C2 O11 1.058 . S
O3 C2 1.229 . S
C4 O5 1.229 . S
C4 O17 1.058 . S
O5 C4 1.229 . S
O6 Zn0 1.969 . S
O6 C9 1.267 . S
O7 Zn0 1.965 . S
O7 C18 1.260 . S
O8 Zn1 1.969 . S
O8 C18 1.258 . S
C9 O6 1.267 . S
C9 O10 1.228 . S
O10 C9 1.228 . S
O11 Zn0 2.024 . S
O11 C2 1.058 . S
C12 O13 1.228 . S
C12 O14 1.267 . S
O13 C12 1.228 . S
O14 Zn1 1.969 . S
O14 C12 1.267 . S
O15 Zn1 1.965 . S
O15 C19 1.260 . S
O16 Zn0 1.969 . S
O16 C19 1.258 . S
O17 Zn1 2.024 . S
O17 C4 1.058 . S
C18 O7 1.260 . S
C18 O8 1.258 . S
C19 O15 1.260 . S
C19 O16 1.258 . S
Zn20 O26 1.969 . S
Zn20 O27 1.965 . S
Zn20 O31 2.024 . S
Zn20 O36 1.969 . S
Zn21 O28 1.969 . S
Zn21 O34 1.969 . S
Zn21 O35 1.965 . S
Zn21 O37 2.024 . S
C22 O23 1.229 . S
C22 O31 1.058 . S
O23 C22 1.229 . S
C24 O25 1.229 . S
C24 O37 1.058 . S
O25 C24 1.229 . S
O26 Zn20 1.969 . S
O26 C29 1.267 . S
O27 Zn20 1.965 . S
O27 C38 1.260 . S
O28 Zn21 1.969 . S
O28 C38 1.258 . S
C29 O26 1.267 . S
C29 O30 1.228 . S
O30 C29 1.228 . S
O31 Zn20 2.024 . S
O31 C22 1.058 . S
C32 O33 1.228 . S
C32 O34 1.267 . S
O33 C32 1.228 . S
O34 Zn21 1.969 . S
O34 C32 1.267 . S
O35 Zn21 1.965 . S
O35 C39 1.260 . S
O36 Zn20 1.969 . S
O36 C39 1.258 . S
O37 Zn21 2.024 . S
O37 C24 1.058 . S
C38 O27 1.260 . S
C38 O28 1.258 . S
C39 O35 1.260 . S
C39 O36 1.258 . S
Zn40 O46 1.969 . S
Zn40 O47 1.965 . S
Zn40 O51 2.024 . S
Zn40 O56 1.969 . S
Zn41 O48 1.969 . S
Zn41 O54 1.969 . S
Zn41 O55 1.965 . S
Zn41 O57 2.024 . S
C42 O43 1.229 . S
C42 O51 1.058 . S
O43 C42 1.229 . S
C44 O45 1.229 . S
C44 O57 1.058 . S
O45 C44 1.229 . S
O46 Zn40 1.969 . S
O46 C49 1.267 . S
O47 Zn40 1.965 . S
O47 C58 1.260 . S
O48 Zn41 1.969 . S
O48 C58 1.258 . S
C49 O46 1.267 . S
C49 O50 1.228 . S
O50 C49 1.228 . S
O51 Zn40 2.024 . S
O51 C42 1.058 . S
C52 O53 1.228 . S
C52 O54 1.267 . S
O53 C52 1.228 . S
O54 Zn41 1.969 . S
O54 C52 1.267 . S
O55 Zn41 1.965 . S
O55 C59 1.260 . S
O56 Zn40 1.969 . S
O56 C59 1.258 . S
O57 Zn41 2.024 . S
O57 C44 1.058 . S
C58 O47 1.260 . S
C58 O48 1.258 . S
C59 O55 1.260 . S
C59 O56 1.258 . S
Zn60 O66 1.969 . S
Zn60 O67 1.965 . S
Zn60 O71 2.024 . S
Zn60 O76 1.969 . S
Zn61 O68 1.969 . S
Zn61 O74 1.969 . S
Zn61 O75 1.965 . S
Zn61 O77 2.024 . S
C62 O63 1.229 . S
C62 O71 1.058 . S
O63 C62 1.229 . S
C64 O65 1.229 . S
C64 O77 1.058 . S
O65 C64 1.229 . S
O66 Zn60 1.969 . S
O66 C69 1.267 . S
O67 Zn60 1.965 . S
O67 C78 1.260 . S
O68 Zn61 1.969 . S
O68 C78 1.258 . S
C69 O66 1.267 . S
C69 O70 1.228 . S
O70 C69 1.228 . S
O71 Zn60 2.024 . S
O71 C62 1.058 . S
C72 O73 1.228 . S
C72 O74 1.267 . S
O73 C72 1.228 . S
O74 Zn61 1.969 . S
O74 C72 1.267 . S
O75 Zn61 1.965 . S
O75 C79 1.260 . S
O76 Zn60 1.969 . S
O76 C79 1.258 . S
O77 Zn61 2.024 . S
O77 C64 1.058 . S
C78 O67 1.260 . S
C78 O68 1.258 . S
C79 O75 1.260 . S
C79 O76 1.258 . S
Zn80 O86 1.969 . S
Zn80 O87 1.965 . S
Zn80 O91 2.024 . S
Zn80 O96 1.969 . S
Zn81 O88 1.969 . S
Zn81 O94 1.969 . S
Zn81 O95 1.965 . S
Zn81 O97 2.024 . S
C82 O83 1.229 . S
C82 O91 1.058 . S
O83 C82 1.229 . S
C84 O85 1.229 . S
C84 O97 1.058 . S
O85 C84 1.229 . S
O86 Zn80 1.969 . S
O86 C89 1.267 . S
O87 Zn80 1.965 . S
O87 C98 1.260 . S
O88 Zn81 1.969 . S
O88 C98 1.258 . S
C89 O86 1.267 . S
C89 O90 1.228 . S
O90 C89 1.228 . S
O91 Zn80 2.024 . S
O91 C82 1.058 . S
C92 O93 1.228 . S
C92 O94 1.267 . S
O93 C92 1.228 . S
O94 Zn81 1.969 . S
O94 C92 1.267 . S
O95 Zn81 1.965 . S
O95 C99 1.260 . S
O96 Zn80 1.969 . S
O96 C99 1.258 . S
O97 Zn81 2.024 . S
O97 C84 1.058 . S
C98 O87 1.260 . S
C98 O88 1.258 . S
C99 O95 1.260 . S
C99 O96 1.258 . S
Zn100 O106 1.969 . S
Zn100 O107 1.965 . S
Zn100 O111 2.024 . S
Zn100 O116 1.969 . S
Zn101 O108 1.969 . S
Zn101 O114 1.969 . S
Zn101 O115 1.965 . S
Zn101 O117 2.024 . S
C102 O103 1.229 . S
C102 O111 1.058 . S
O103 C102 1.229 . S
C104 O105 1.229 . S
C104 O117 1.058 . S
O105 C104 1.229 . S
O106 Zn100 1.969 . S
O106 C109 1.267 . S
O107 Zn100 1.965 . S
O107 C118 1.260 . S
O108 Zn101 1.969 . S
O108 C118 1.258 . S
C109 O106 1.267 . S
C109 O110 1.228 . S
O110 C109 1.228 . S
O111 Zn100 2.024 . S
O111 C102 1.058 . S
C112 O113 1.228 . S
C112 O114 1.267 . S
O113 C112 1.228 . S
O114 Zn101 1.969 . S
O114 C112 1.267 . S
O115 Zn101 1.965 . S
O115 C119 1.260 . S
O116 Zn100 1.969 . S
O116 C119 1.258 . S
O117 Zn101 2.024 . S
O117 C104 1.058 . S
C118 O107 1.260 . S
C118 O108 1.258 . S
C119 O115 1.260 . S
C119 O116 1.258 . S
Zn120 O126 1.969 . S
Zn120 O127 1.965 . S
Zn120 O131 2.024 . S
Zn120 O136 1.969 . S
Zn121 O128 1.969 . S
Zn121 O134 1.969 . S
Zn121 O135 1.965 . S
Zn121 O137 2.024 . S
C122 O123 1.229 . S
C122 O131 1.058 . S
O123 C122 1.229 . S
C124 O125 1.229 . S
C124 O137 1.058 . S
O125 C124 1.229 . S
O126 Zn120 1.969 . S
O126 C129 1.267 . S
O127 Zn120 1.965 . S
O127 C138 1.260 . S
O128 Zn121 1.969 . S
O128 C138 1.258 . S
C129 O126 1.267 . S
C129 O130 1.228 . S
O130 C129 1.228 . S
O131 Zn120 2.024 . S
O131 C122 1.058 . S
C132 O133 1.228 . S
C132 O134 1.267 . S
O133 C132 1.228 . S
O134 Zn121 1.969 . S
O134 C132 1.267 . S
O135 Zn121 1.965 . S
O135 C139 1.260 . S
O136 Zn120 1.969 . S
O136 C139 1.258 . S
O137 Zn121 2.024 . S
O137 C124 1.058 . S
C138 O127 1.260 . S
C138 O128 1.258 . S
C139 O135 1.260 . S
C139 O136 1.258 . S
Zn140 O146 1.969 . S
Zn140 O147 1.965 . S
Zn140 O151 2.024 . S
Zn140 O156 1.969 . S
Zn141 O148 1.969 . S
Zn141 O154 1.969 . S
Zn141 O155 1.965 . S
Zn141 O157 2.024 . S
C142 O143 1.229 . S
C142 O151 1.058 . S
O143 C142 1.229 . S
C144 O145 1.229 . S
C144 O157 1.058 . S
O145 C144 1.229 . S
O146 Zn140 1.969 . S
O146 C149 1.267 . S
O147 Zn140 1.965 . S
O147 C158 1.260 . S
O148 Zn141 1.969 . S
O148 C158 1.258 . S
C149 O146 1.267 . S
C149 O150 1.228 . S
O150 C149 1.228 . S
O151 Zn140 2.024 . S
O151 C142 1.058 . S
C152 O153 1.228 . S
C152 O154 1.267 . S
O153 C152 1.228 . S
O154 Zn141 1.969 . S
O154 C152 1.267 . S
O155 Zn141 1.965 . S
O155 C159 1.260 . S
O156 Zn140 1.969 . S
O156 C159 1.258 . S
O157 Zn141 2.024 . S
O157 C144 1.058 . S
C158 O147 1.260 . S
C158 O148 1.258 . S
C159 O155 1.260 . S
C159 O156 1.258 . S
C160 O172 1.241 . S
C160 O173 1.280 . S
C161 O174 1.277 . S
C161 O175 1.245 . S
C162 O186 1.247 . S
C162 O188 1.289 . S
Mg163 O164 1.926 . S
Mg163 O173 1.984 . S
Mg163 O175 1.988 . S
Mg163 O176 2.061 1_655 S
O164 Mg163 1.926 . S
O164 Mg165 1.986 . S
O164 Mg166 1.917 1_655 S
Mg165 O164 1.986 . S
Mg165 O172 2.042 . S
Mg165 O174 2.041 . S
Mg165 O180 2.038 1_545 S
Mg165 O188 2.238 1_545 S
Mg166 O164 1.917 1_455 S
Mg166 O167 1.917 1_545 S
Mg166 O177 2.106 . S
Mg166 O179 2.079 1_445 S
Mg166 O188 2.106 1_445 S
Mg166 O189 2.079 . S
O167 Mg166 1.917 1_565 S
O167 Mg168 1.926 . S
O167 Mg169 1.986 . S
Mg168 O167 1.926 . S
Mg168 O182 1.984 . S
Mg168 O185 1.988 . S
Mg168 O186 2.061 1_455 S
Mg169 O167 1.986 . S
Mg169 O177 2.238 1_565 S
Mg169 O181 2.042 . S
Mg169 O183 2.041 . S
Mg169 O190 2.038 1_565 S
C170 O176 1.247 . S
C170 O177 1.289 . S
C171 O189 1.245 . S
C171 O190 1.274 . S
O172 C160 1.241 . S
O172 Mg165 2.042 . S
O173 C160 1.280 . S
O173 Mg163 1.984 . S
O174 C161 1.277 . S
O174 Mg165 2.041 . S
O175 C161 1.245 . S
O175 Mg163 1.988 . S
O176 Mg163 2.061 1_455 S
O176 C170 1.247 . S
O177 Mg166 2.106 . S
O177 Mg169 2.238 1_545 S
O177 C170 1.289 . S
C178 O179 1.245 . S
C178 O180 1.274 . S
O179 Mg166 2.079 1_665 S
O179 C178 1.245 . S
O180 Mg165 2.038 1_565 S
O180 C178 1.274 . S
O181 Mg169 2.042 . S
O181 C184 1.241 . S
O182 Mg168 1.984 . S
O182 C184 1.280 . S
O183 Mg169 2.041 . S
O183 C187 1.277 . S
C184 O181 1.241 . S
C184 O182 1.280 . S
O185 Mg168 1.988 . S
O185 C187 1.245 . S
O186 C162 1.247 . S
O186 Mg168 2.061 1_655 S
C187 O183 1.277 . S
C187 O185 1.245 . S
O188 C162 1.289 . S
O188 Mg165 2.238 1_565 S
O188 Mg166 2.106 1_665 S
O189 Mg166 2.079 . S
O189 C171 1.245 . S
O190 Mg169 2.038 1_545 S
O190 C171 1.274 . S
C191 O203 1.241 . S
C191 O204 1.280 . S
C192 O205 1.277 . S
C192 O206 1.245 . S
C193 O217 1.247 . S
C193 O219 1.289 . S
Mg194 O195 1.926 . S
Mg194 O204 1.984 . S
Mg194 O206 1.988 1_554 S
Mg194 O207 2.061 . S
O195 Mg194 1.926 . S
O195 Mg196 1.986 1_554 S
O195 Mg197 1.917 . S
Mg196 O195 1.986 1_556 S
Mg196 O203 2.042 1_556 S
Mg196 O205 2.041 . S
Mg196 O211 2.038 1_546 S
Mg196 O219 2.238 1_545 S
Mg197 O195 1.917 . S
Mg197 O198 1.917 1_544 S
Mg197 O208 2.106 . S
Mg197 O210 2.079 1_545 S
Mg197 O219 2.106 1_544 S
Mg197 O220 2.079 1_554 S
O198 Mg197 1.917 1_566 S
O198 Mg199 1.926 . S
O198 Mg200 1.986 1_556 S
Mg199 O198 1.926 . S
Mg199 O213 1.984 . S
Mg199 O216 1.988 1_556 S
Mg199 O217 2.061 . S
Mg200 O198 1.986 1_554 S
Mg200 O208 2.238 1_565 S
Mg200 O212 2.042 1_554 S
Mg200 O214 2.041 . S
Mg200 O221 2.038 1_564 S
C201 O207 1.247 . S
C201 O208 1.289 . S
C202 O220 1.245 . S
C202 O221 1.274 . S
O203 C191 1.241 . S
O203 Mg196 2.042 1_554 S
O204 C191 1.280 . S
O204 Mg194 1.984 . S
O205 C192 1.277 . S
O205 Mg196 2.041 . S
O206 C192 1.245 . S
O206 Mg194 1.988 1_556 S
O207 Mg194 2.061 . S
O207 C201 1.247 . S
O208 Mg197 2.106 . S
O208 Mg200 2.238 1_545 S
O208 C201 1.289 . S
C209 O210 1.245 . S
C209 O211 1.274 . S
O210 Mg197 2.079 1_565 S
O210 C209 1.245 . S
O211 Mg196 2.038 1_564 S
O211 C209 1.274 . S
O212 Mg200 2.042 1_556 S
O212 C215 1.241 . S
O213 Mg199 1.984 . S
O213 C215 1.280 . S
O214 Mg200 2.041 . S
O214 C218 1.277 . S
C215 O212 1.241 . S
C215 O213 1.280 . S
O216 Mg199 1.988 1_554 S
O216 C218 1.245 . S
O217 C193 1.247 . S
O217 Mg199 2.061 . S
C218 O214 1.277 . S
C218 O216 1.245 . S
O219 C193 1.289 . S
O219 Mg196 2.238 1_565 S
O219 Mg197 2.106 1_566 S
O220 Mg197 2.079 1_556 S
O220 C202 1.245 . S
O221 Mg200 2.038 1_546 S
O221 C202 1.274 . S
C222 O234 1.241 . S
C222 O235 1.280 . S
C223 O236 1.277 . S
C223 O237 1.245 . S
C224 O248 1.247 . S
C224 O250 1.289 . S
Mg225 O226 1.926 . S
Mg225 O235 1.984 . S
Mg225 O237 1.988 1_554 S
Mg225 O238 2.061 1_655 S
O226 Mg225 1.926 . S
O226 Mg227 1.986 1_554 S
O226 Mg228 1.917 1_655 S
Mg227 O226 1.986 1_556 S
Mg227 O234 2.042 1_556 S
Mg227 O236 2.041 . S
Mg227 O242 2.038 1_556 S
Mg227 O250 2.238 . S
Mg228 O226 1.917 1_455 S
Mg228 O229 1.917 1_554 S
Mg228 O239 2.106 . S
Mg228 O241 2.079 1_455 S
Mg228 O250 2.106 1_454 S
Mg228 O251 2.079 1_554 S
O229 Mg228 1.917 1_556 S
O229 Mg230 1.926 . S
O229 Mg231 1.986 1_556 S
Mg230 O229 1.926 . S
Mg230 O244 1.984 . S
Mg230 O247 1.988 1_556 S
Mg230 O248 2.061 1_455 S
Mg231 O229 1.986 1_554 S
Mg231 O239 2.238 . S
Mg231 O243 2.042 1_554 S
Mg231 O245 2.041 . S
Mg231 O252 2.038 1_554 S
C232 O238 1.247 . S
C232 O239 1.289 . S
C233 O251 1.245 . S
C233 O252 1.274 . S
O234 C222 1.241 . S
O234 Mg227 2.042 1_554 S
O235 C222 1.280 . S
O235 Mg225 1.984 . S
O236 C223 1.277 . S
O236 Mg227 2.041 . S
O237 C223 1.245 . S
O237 Mg225 1.988 1_556 S
O238 Mg225 2.061 1_455 S
O238 C232 1.247 . S
O239 Mg228 2.106 . S
O239 Mg231 2.238 . S
O239 C232 1.289 . S
C240 O241 1.245 . S
C240 O242 1.274 . S
O241 Mg228 2.079 1_655 S
O241 C240 1.245 . S
O242 Mg227 2.038 1_554 S
O242 C240 1.274 . S
O243 Mg231 2.042 1_556 S
O243 C246 1.241 . S
O244 Mg230 1.984 . S
O244 C246 1.280 . S
O245 Mg231 2.041 . S
O245 C249 1.277 . S
C246 O243 1.241 . S
C246 O244 1.280 . S
O247 Mg230 1.988 1_554 S
O247 C249 1.245 . S
O248 C224 1.247 . S
O248 Mg230 2.061 1_655 S
C249 O245 1.277 . S
C249 O247 1.245 . S
O250 C224 1.289 . S
O250 Mg227 2.238 . S
O250 Mg228 2.106 1_656 S
O251 Mg228 2.079 1_556 S
O251 C233 1.245 . S
O252 Mg231 2.038 1_556 S
O252 C233 1.274 . S
C253 O265 1.241 . S
C253 O266 1.280 . S
C254 O267 1.277 . S
C254 O268 1.245 . S
C255 O279 1.247 . S
C255 O281 1.289 . S
Mg256 O257 1.926 . S
Mg256 O266 1.984 . S
Mg256 O268 1.988 1_554 S
Mg256 O269 2.061 . S
O257 Mg256 1.926 . S
O257 Mg258 1.986 1_554 S
O257 Mg259 1.917 . S
Mg258 O257 1.986 1_556 S
Mg258 O265 2.042 1_556 S
Mg258 O267 2.041 . S
Mg258 O273 2.038 1_556 S
Mg258 O281 2.238 . S
Mg259 O257 1.917 . S
Mg259 O260 1.917 1_554 S
Mg259 O270 2.106 . S
Mg259 O272 2.079 . S
Mg259 O281 2.106 1_554 S
Mg259 O282 2.079 1_554 S
O260 Mg259 1.917 1_556 S
O260 Mg261 1.926 . S
O260 Mg262 1.986 1_556 S
Mg261 O260 1.926 . S
Mg261 O275 1.984 . S
Mg261 O278 1.988 1_556 S
Mg261 O279 2.061 . S
Mg262 O260 1.986 1_554 S
Mg262 O270 2.238 . S
Mg262 O274 2.042 1_554 S
Mg262 O276 2.041 . S
Mg262 O283 2.038 1_554 S
C263 O269 1.247 . S
C263 O270 1.289 . S
C264 O282 1.245 . S
C264 O283 1.274 . S
O265 C253 1.241 . S
O265 Mg258 2.042 1_554 S
O266 C253 1.280 . S
O266 Mg256 1.984 . S
O267 C254 1.277 . S
O267 Mg258 2.041 . S
O268 C254 1.245 . S
O268 Mg256 1.988 1_556 S
O269 Mg256 2.061 . S
O269 C263 1.247 . S
O270 Mg259 2.106 . S
O270 Mg262 2.238 . S
O270 C263 1.289 . S
C271 O272 1.245 . S
C271 O273 1.274 . S
O272 Mg259 2.079 . S
O272 C271 1.245 . S
O273 Mg258 2.038 1_554 S
O273 C271 1.274 . S
O274 Mg262 2.042 1_556 S
O274 C277 1.241 . S
O275 Mg261 1.984 . S
O275 C277 1.280 . S
O276 Mg262 2.041 . S
O276 C280 1.277 . S
C277 O274 1.241 . S
C277 O275 1.280 . S
O278 Mg261 1.988 1_554 S
O278 C280 1.245 . S
O279 C255 1.247 . S
O279 Mg261 2.061 . S
C280 O276 1.277 . S
C280 O278 1.245 . S
O281 C255 1.289 . S
O281 Mg258 2.238 . S
O281 Mg259 2.106 1_556 S
O282 Mg259 2.079 1_556 S
O282 C264 1.245 . S
O283 Mg262 2.038 1_556 S
O283 C264 1.274 . S
C284 O296 1.241 . S
C284 O297 1.280 . S
C285 O298 1.277 . S
C285 O299 1.245 . S
C286 O310 1.247 . S
C286 O312 1.289 . S
Mg287 O288 1.926 . S
Mg287 O297 1.984 . S
Mg287 O299 1.988 . S
Mg287 O300 2.061 1_655 S
O288 Mg287 1.926 . S
O288 Mg289 1.986 . S
O288 Mg290 1.917 1_655 S
Mg289 O288 1.986 . S
Mg289 O296 2.042 . S
Mg289 O298 2.041 . S
Mg289 O304 2.038 . S
Mg289 O312 2.238 . S
Mg290 O288 1.917 1_455 S
Mg290 O291 1.917 . S
Mg290 O301 2.106 . S
Mg290 O303 2.079 1_455 S
Mg290 O312 2.106 1_455 S
Mg290 O313 2.079 . S
O291 Mg290 1.917 . S
O291 Mg292 1.926 . S
O291 Mg293 1.986 . S
Mg292 O291 1.926 . S
Mg292 O306 1.984 . S
Mg292 O309 1.988 . S
Mg292 O310 2.061 1_455 S
Mg293 O291 1.986 . S
Mg293 O301 2.238 . S
Mg293 O305 2.042 . S
Mg293 O307 2.041 . S
Mg293 O314 2.038 . S
C294 O300 1.247 . S
C294 O301 1.289 . S
C295 O313 1.245 . S
C295 O314 1.274 . S
O296 C284 1.241 . S
O296 Mg289 2.042 . S
O297 C284 1.280 . S
O297 Mg287 1.984 . S
O298 C285 1.277 . S
O298 Mg289 2.041 . S
O299 C285 1.245 . S
O299 Mg287 1.988 . S
O300 Mg287 2.061 1_455 S
O300 C294 1.247 . S
O301 Mg290 2.106 . S
O301 Mg293 2.238 . S
O301 C294 1.289 . S
C302 O303 1.245 . S
C302 O304 1.274 . S
O303 Mg290 2.079 1_655 S
O303 C302 1.245 . S
O304 Mg289 2.038 . S
O304 C302 1.274 . S
O305 Mg293 2.042 . S
O305 C308 1.241 . S
O306 Mg292 1.984 . S
O306 C308 1.280 . S
O307 Mg293 2.041 . S
O307 C311 1.277 . S
C308 O305 1.241 . S
C308 O306 1.280 . S
O309 Mg292 1.988 . S
O309 C311 1.245 . S
O310 C286 1.247 . S
O310 Mg292 2.061 1_655 S
C311 O307 1.277 . S
C311 O309 1.245 . S
O312 C286 1.289 . S
O312 Mg289 2.238 . S
O312 Mg290 2.106 1_655 S
O313 Mg290 2.079 . S
O313 C295 1.245 . S
O314 Mg293 2.038 . S
O314 C295 1.274 . S
C315 O327 1.241 . S
C315 O328 1.280 . S
C316 O329 1.277 . S
C316 O330 1.245 . S
C317 O341 1.247 . S
C317 O343 1.289 . S
Mg318 O319 1.926 . S
Mg318 O328 1.984 . S
Mg318 O330 1.988 . S
Mg318 O331 2.061 . S
O319 Mg318 1.926 . S
O319 Mg320 1.986 . S
O319 Mg321 1.917 . S
Mg320 O319 1.986 . S
Mg320 O327 2.042 . S
Mg320 O329 2.041 . S
Mg320 O335 2.038 1_545 S
Mg320 O343 2.238 1_545 S
Mg321 O319 1.917 . S
Mg321 O322 1.917 1_545 S
Mg321 O332 2.106 . S
Mg321 O334 2.079 1_545 S
Mg321 O343 2.106 1_545 S
Mg321 O344 2.079 . S
O322 Mg321 1.917 1_565 S
O322 Mg323 1.926 . S
O322 Mg324 1.986 . S
Mg323 O322 1.926 . S
Mg323 O337 1.984 . S
Mg323 O340 1.988 . S
Mg323 O341 2.061 . S
Mg324 O322 1.986 . S
Mg324 O332 2.238 1_565 S
Mg324 O336 2.042 . S
Mg324 O338 2.041 . S
Mg324 O345 2.038 1_565 S
C325 O331 1.247 . S
C325 O332 1.289 . S
C326 O344 1.245 . S
C326 O345 1.274 . S
O327 C315 1.241 . S
O327 Mg320 2.042 . S
O328 C315 1.280 . S
O328 Mg318 1.984 . S
O329 C316 1.277 . S
O329 Mg320 2.041 . S
O330 C316 1.245 . S
O330 Mg318 1.988 . S
O331 Mg318 2.061 . S
O331 C325 1.247 . S
O332 Mg321 2.106 . S
O332 Mg324 2.238 1_545 S
O332 C325 1.289 . S
C333 O334 1.245 . S
C333 O335 1.274 . S
O334 Mg321 2.079 1_565 S
O334 C333 1.245 . S
O335 Mg320 2.038 1_565 S
O335 C333 1.274 . S
O336 Mg324 2.042 . S
O336 C339 1.241 . S
O337 Mg323 1.984 . S
O337 C339 1.280 . S
O338 Mg324 2.041 . S
O338 C342 1.277 . S
C339 O336 1.241 . S
C339 O337 1.280 . S
O340 Mg323 1.988 . S
O340 C342 1.245 . S
O341 C317 1.247 . S
O341 Mg323 2.061 . S
C342 O338 1.277 . S
C342 O340 1.245 . S
O343 C317 1.289 . S
O343 Mg320 2.238 1_565 S
O343 Mg321 2.106 1_565 S
O344 Mg321 2.079 . S
O344 C326 1.245 . S
O345 Mg324 2.038 1_545 S
O345 C326 1.274 . S
C346 C347 1.349 . S
C346 C348 1.327 . S
C346 H371 0.950 . S
C347 C346 1.349 . S
C347 C363 1.349 . S
C348 C346 1.327 . S
C348 C367 1.429 . S
C348 H372 0.950 . S
C349 C366 1.574 . S
C349 C368 1.368 . S
C349 H373 0.949 . S
H350 C354 0.949 . S
C351 C352 1.349 . S
C351 C353 1.327 . S
C351 H374 0.950 . S
C352 C351 1.349 . S
C352 C364 1.349 . S
C353 C351 1.327 . S
C353 C369 1.429 . S
C353 H375 0.950 . S
C354 H350 0.949 . S
C354 C362 1.574 . S
C354 C370 1.368 . S
H355 C363 0.950 . S
H356 C361 0.950 . S
H357 C362 0.949 . S
H358 C364 0.950 . S
H359 C365 0.950 . S
H360 C366 0.949 . S
C361 H356 0.950 . S
C361 C363 1.327 . S
C361 C367 1.429 . S
C362 C354 1.574 . S
C362 H357 0.949 . S
C362 C368 1.368 . S
C363 C347 1.349 . S
C363 H355 0.950 . S
C363 C361 1.327 . S
C364 C352 1.349 . S
C364 H358 0.950 . S
C364 C365 1.327 . S
C365 H359 0.950 . S
C365 C364 1.327 . S
C365 C369 1.429 . S
C366 C349 1.574 . S
C366 H360 0.949 . S
C366 C370 1.368 . S
C367 C348 1.429 . S
C367 C361 1.429 . S
C367 C368 1.523 . S
C368 C349 1.368 . S
C368 C362 1.368 . S
C368 C367 1.523 . S
C369 C353 1.429 . S
C369 C365 1.429 . S
C369 C370 1.523 . S
C370 C354 1.368 . S
C370 C366 1.368 . S
C370 C369 1.523 . S
H371 C346 0.950 . S
H372 C348 0.950 . S
H373 C349 0.949 . S
H374 C351 0.950 . S
H375 C353 0.950 . S
C376 C377 1.349 . S
C376 C378 1.327 . S
C376 H401 0.950 . S
C377 C376 1.349 . S
C377 C393 1.349 . S
C378 C376 1.327 . S
C378 C397 1.429 . S
C378 H402 0.950 . S
C379 C396 1.574 . S
C379 C398 1.368 . S
C379 H403 0.949 . S
H380 C384 0.949 . S
C381 C382 1.349 . S
C381 C383 1.327 . S
C381 H404 0.950 . S
C382 C381 1.349 . S
C382 C394 1.349 . S
C383 C381 1.327 . S
C383 C399 1.429 . S
C383 H405 0.950 . S
C384 H380 0.949 . S
C384 C392 1.574 . S
C384 C400 1.368 . S
H385 C393 0.950 . S
H386 C391 0.950 . S
H387 C392 0.949 . S
H388 C394 0.950 . S
H389 C395 0.950 . S
H390 C396 0.949 . S
C391 H386 0.950 . S
C391 C393 1.327 . S
C391 C397 1.429 . S
C392 C384 1.574 . S
C392 H387 0.949 . S
C392 C398 1.368 . S
C393 C377 1.349 . S
C393 H385 0.950 . S
C393 C391 1.327 . S
C394 C382 1.349 . S
C394 H388 0.950 . S
C394 C395 1.327 . S
C395 H389 0.950 . S
C395 C394 1.327 . S
C395 C399 1.429 . S
C396 C379 1.574 . S
C396 H390 0.949 . S
C396 C400 1.368 . S
C397 C378 1.429 . S
C397 C391 1.429 . S
C397 C398 1.523 . S
C398 C379 1.368 . S
C398 C392 1.368 . S
C398 C397 1.523 . S
C399 C383 1.429 . S
C399 C395 1.429 . S
C399 C400 1.523 . S
C400 C384 1.368 . S
C400 C396 1.368 . S
C400 C399 1.523 . S
H401 C376 0.950 . S
H402 C378 0.950 . S
H403 C379 0.949 . S
H404 C381 0.950 . S
H405 C383 0.950 . S
C406 C407 1.349 . S
C406 C408 1.327 . S
C406 H431 0.950 . S
C407 C406 1.349 . S
C407 C423 1.349 . S
C408 C406 1.327 . S
C408 C427 1.429 . S
C408 H432 0.950 . S
C409 C426 1.574 . S
C409 C428 1.368 . S
C409 H433 0.949 . S
H410 C414 0.949 . S
C411 C412 1.349 . S
C411 C413 1.327 . S
C411 H434 0.950 . S
C412 C411 1.349 . S
C412 C424 1.349 . S
C413 C411 1.327 . S
C413 C429 1.429 . S
C413 H435 0.950 . S
C414 H410 0.949 . S
C414 C422 1.574 . S
C414 C430 1.368 . S
H415 C423 0.950 . S
H416 C421 0.950 . S
H417 C422 0.949 . S
H418 C424 0.950 . S
H419 C425 0.950 . S
H420 C426 0.949 . S
C421 H416 0.950 . S
C421 C423 1.327 . S
C421 C427 1.429 . S
C422 C414 1.574 . S
C422 H417 0.949 . S
C422 C428 1.368 . S
C423 C407 1.349 . S
C423 H415 0.950 . S
C423 C421 1.327 . S
C424 C412 1.349 . S
C424 H418 0.950 . S
C424 C425 1.327 . S
C425 H419 0.950 . S
C425 C424 1.327 . S
C425 C429 1.429 . S
C426 C409 1.574 . S
C426 H420 0.949 . S
C426 C430 1.368 . S
C427 C408 1.429 . S
C427 C421 1.429 . S
C427 C428 1.523 . S
C428 C409 1.368 . S
C428 C422 1.368 . S
C428 C427 1.523 . S
C429 C413 1.429 . S
C429 C425 1.429 . S
C429 C430 1.523 . S
C430 C414 1.368 . S
C430 C426 1.368 . S
C430 C429 1.523 . S
H431 C406 0.950 . S
H432 C408 0.950 . S
H433 C409 0.949 . S
H434 C411 0.950 . S
H435 C413 0.950 . S
C436 C437 1.349 . S
C436 C438 1.327 . S
C436 H461 0.950 . S
C437 C436 1.349 . S
C437 C453 1.349 . S
C438 C436 1.327 . S
C438 C457 1.429 . S
C438 H462 0.950 . S
C439 C456 1.574 . S
C439 C458 1.368 . S
C439 H463 0.949 . S
H440 C444 0.949 . S
C441 C442 1.349 . S
C441 C443 1.327 . S
C441 H464 0.950 . S
C442 C441 1.349 . S
C442 C454 1.349 . S
C443 C441 1.327 . S
C443 C459 1.429 . S
C443 H465 0.950 . S
C444 H440 0.949 . S
C444 C452 1.574 . S
C444 C460 1.368 . S
H445 C453 0.950 . S
H446 C451 0.950 . S
H447 C452 0.949 . S
H448 C454 0.950 . S
H449 C455 0.950 . S
H450 C456 0.949 . S
C451 H446 0.950 . S
C451 C453 1.327 . S
C451 C457 1.429 . S
C452 C444 1.574 . S
C452 H447 0.949 . S
C452 C458 1.368 . S
C453 C437 1.349 . S
C453 H445 0.950 . S
C453 C451 1.327 . S
C454 C442 1.349 . S
C454 H448 0.950 . S
C454 C455 1.327 . S
C455 H449 0.950 . S
C455 C454 1.327 . S
C455 C459 1.429 . S
C456 C439 1.574 . S
C456 H450 0.949 . S
C456 C460 1.368 . S
C457 C438 1.429 . S
C457 C451 1.429 . S
C457 C458 1.523 . S
C458 C439 1.368 . S
C458 C452 1.368 . S
C458 C457 1.523 . S
C459 C443 1.429 . S
C459 C455 1.429 . S
C459 C460 1.523 . S
C460 C444 1.368 . S
C460 C456 1.368 . S
C460 C459 1.523 . S
H461 C436 0.950 . S
H462 C438 0.950 . S
H463 C439 0.949 . S
H464 C441 0.950 . S
H465 C443 0.950 . S
C466 C467 1.349 . S
C466 C468 1.327 . S
C466 H491 0.950 . S
C467 C466 1.349 . S
C467 C483 1.349 . S
C468 C466 1.327 . S
C468 C487 1.429 . S
C468 H492 0.950 . S
C469 C486 1.574 . S
C469 C488 1.368 . S
C469 H493 0.949 . S
H470 C474 0.949 . S
C471 C472 1.349 . S
C471 C473 1.327 . S
C471 H494 0.950 . S
C472 C471 1.349 . S
C472 C484 1.349 . S
C473 C471 1.327 . S
C473 C489 1.429 . S
C473 H495 0.950 . S
C474 H470 0.949 . S
C474 C482 1.574 . S
C474 C490 1.368 . S
H475 C483 0.950 . S
H476 C481 0.950 . S
H477 C482 0.949 . S
H478 C484 0.950 . S
H479 C485 0.950 . S
H480 C486 0.949 . S
C481 H476 0.950 . S
C481 C483 1.327 . S
C481 C487 1.429 . S
C482 C474 1.574 . S
C482 H477 0.949 . S
C482 C488 1.368 . S
C483 C467 1.349 . S
C483 H475 0.950 . S
C483 C481 1.327 . S
C484 C472 1.349 . S
C484 H478 0.950 . S
C484 C485 1.327 . S
C485 H479 0.950 . S
C485 C484 1.327 . S
C485 C489 1.429 . S
C486 C469 1.574 . S
C486 H480 0.949 . S
C486 C490 1.368 . S
C487 C468 1.429 . S
C487 C481 1.429 . S
C487 C488 1.523 . S
C488 C469 1.368 . S
C488 C482 1.368 . S
C488 C487 1.523 . S
C489 C473 1.429 . S
C489 C485 1.429 . S
C489 C490 1.523 . S
C490 C474 1.368 . S
C490 C486 1.368 . S
C490 C489 1.523 . S
H491 C466 0.950 . S
H492 C468 0.950 . S
H493 C469 0.949 . S
H494 C471 0.950 . S
H495 C473 0.950 . S
C496 C497 1.349 . S
C496 C498 1.327 . S
C496 H521 0.950 . S
C497 C496 1.349 . S
C497 C513 1.349 . S
C498 C496 1.327 . S
C498 C517 1.429 . S
C498 H522 0.950 . S
C499 C516 1.574 . S
C499 C518 1.368 . S
C499 H523 0.949 . S
H500 C504 0.949 . S
C501 C502 1.349 . S
C501 C503 1.327 . S
C501 H524 0.950 . S
C502 C501 1.349 . S
C502 C514 1.349 . S
C503 C501 1.327 . S
C503 C519 1.429 . S
C503 H525 0.950 . S
C504 H500 0.949 . S
C504 C512 1.574 . S
C504 C520 1.368 . S
H505 C513 0.950 . S
H506 C511 0.950 . S
H507 C512 0.949 . S
H508 C514 0.950 . S
H509 C515 0.950 . S
H510 C516 0.949 . S
C511 H506 0.950 . S
C511 C513 1.327 . S
C511 C517 1.429 . S
C512 C504 1.574 . S
C512 H507 0.949 . S
C512 C518 1.368 . S
C513 C497 1.349 . S
C513 H505 0.950 . S
C513 C511 1.327 . S
C514 C502 1.349 . S
C514 H508 0.950 . S
C514 C515 1.327 . S
C515 H509 0.950 . S
C515 C514 1.327 . S
C515 C519 1.429 . S
C516 C499 1.574 . S
C516 H510 0.949 . S
C516 C520 1.368 . S
C517 C498 1.429 . S
C517 C511 1.429 . S
C517 C518 1.523 . S
C518 C499 1.368 . S
C518 C512 1.368 . S
C518 C517 1.523 . S
C519 C503 1.429 . S
C519 C515 1.429 . S
C519 C520 1.523 . S
C520 C504 1.368 . S
C520 C516 1.368 . S
C520 C519 1.523 . S
H521 C496 0.950 . S
H522 C498 0.950 . S
H523 C499 0.949 . S
H524 C501 0.950 . S
H525 C503 0.950 . S
C526 C527 1.349 . S
C526 C528 1.327 . S
C526 H551 0.950 . S
C527 C526 1.349 . S
C527 C543 1.349 . S
C528 C526 1.327 . S
C528 C547 1.429 . S
C528 H552 0.950 . S
C529 C546 1.574 . S
C529 C548 1.368 . S
C529 H553 0.949 . S
H530 C534 0.949 . S
C531 C532 1.349 . S
C531 C533 1.327 . S
C531 H554 0.950 . S
C532 C531 1.349 . S
C532 C544 1.349 . S
C533 C531 1.327 . S
C533 C549 1.429 . S
C533 H555 0.950 . S
C534 H530 0.949 . S
C534 C542 1.574 . S
C534 C550 1.368 . S
H535 C543 0.950 . S
H536 C541 0.950 . S
H537 C542 0.949 . S
H538 C544 0.950 . S
H539 C545 0.950 . S
H540 C546 0.949 . S
C541 H536 0.950 . S
C541 C543 1.327 . S
C541 C547 1.429 . S
C542 C534 1.574 . S
C542 H537 0.949 . S
C542 C548 1.368 . S
C543 C527 1.349 . S
C543 H535 0.950 . S
C543 C541 1.327 . S
C544 C532 1.349 . S
C544 H538 0.950 . S
C544 C545 1.327 . S
C545 H539 0.950 . S
C545 C544 1.327 . S
C545 C549 1.429 . S
C546 C529 1.574 . S
C546 H540 0.949 . S
C546 C550 1.368 . S
C547 C528 1.429 . S
C547 C541 1.429 . S
C547 C548 1.523 . S
C548 C529 1.368 . S
C548 C542 1.368 . S
C548 C547 1.523 . S
C549 C533 1.429 . S
C549 C545 1.429 . S
C549 C550 1.523 . S
C550 C534 1.368 . S
C550 C546 1.368 . S
C550 C549 1.523 . S
H551 C526 0.950 . S
H552 C528 0.950 . S
H553 C529 0.949 . S
H554 C531 0.950 . S
H555 C533 0.950 . S
C556 C557 1.349 . S
C556 C558 1.327 . S
C556 H581 0.950 . S
C557 C556 1.349 . S
C557 C573 1.349 . S
C558 C556 1.327 . S
C558 C577 1.429 . S
C558 H582 0.950 . S
C559 C576 1.574 . S
C559 C578 1.368 . S
C559 H583 0.949 . S
H560 C564 0.949 . S
C561 C562 1.349 . S
C561 C563 1.327 . S
C561 H584 0.950 . S
C562 C561 1.349 . S
C562 C574 1.349 . S
C563 C561 1.327 . S
C563 C579 1.429 . S
C563 H585 0.950 . S
C564 H560 0.949 . S
C564 C572 1.574 . S
C564 C580 1.368 . S
H565 C573 0.950 . S
H566 C571 0.950 . S
H567 C572 0.949 . S
H568 C574 0.950 . S
H569 C575 0.950 . S
H570 C576 0.949 . S
C571 H566 0.950 . S
C571 C573 1.327 . S
C571 C577 1.429 . S
C572 C564 1.574 . S
C572 H567 0.949 . S
C572 C578 1.368 . S
C573 C557 1.349 . S
C573 H565 0.950 . S
C573 C571 1.327 . S
C574 C562 1.349 . S
C574 H568 0.950 . S
C574 C575 1.327 . S
C575 H569 0.950 . S
C575 C574 1.327 . S
C575 C579 1.429 . S
C576 C559 1.574 . S
C576 H570 0.949 . S
C576 C580 1.368 . S
C577 C558 1.429 . S
C577 C571 1.429 . S
C577 C578 1.523 . S
C578 C559 1.368 . S
C578 C572 1.368 . S
C578 C577 1.523 . S
C579 C563 1.429 . S
C579 C575 1.429 . S
C579 C580 1.523 . S
C580 C564 1.368 . S
C580 C576 1.368 . S
C580 C579 1.523 . S
H581 C556 0.950 . S
H582 C558 0.950 . S
H583 C559 0.949 . S
H584 C561 0.950 . S
H585 C563 0.950 . S
C586 C587 1.349 . S
C586 C588 1.327 . S
C586 H611 0.950 . S
C587 C586 1.349 . S
C587 C603 1.349 . S
C588 C586 1.327 . S
C588 C607 1.429 . S
C588 H612 0.950 . S
C589 C606 1.574 . S
C589 C608 1.368 . S
C589 H613 0.949 . S
H590 C594 0.949 . S
C591 C592 1.349 . S
C591 C593 1.327 . S
C591 H614 0.950 . S
C592 C591 1.349 . S
C592 C604 1.349 . S
C593 C591 1.327 . S
C593 C609 1.429 . S
C593 H615 0.950 . S
C594 H590 0.949 . S
C594 C602 1.574 . S
C594 C610 1.368 . S
H595 C603 0.950 . S
H596 C601 0.950 . S
H597 C602 0.949 . S
H598 C604 0.950 . S
H599 C605 0.950 . S
H600 C606 0.949 . S
C601 H596 0.950 . S
C601 C603 1.327 . S
C601 C607 1.429 . S
C602 C594 1.574 . S
C602 H597 0.949 . S
C602 C608 1.368 . S
C603 C587 1.349 . S
C603 H595 0.950 . S
C603 C601 1.327 . S
C604 C592 1.349 . S
C604 H598 0.950 . S
C604 C605 1.327 . S
C605 H599 0.950 . S
C605 C604 1.327 . S
C605 C609 1.429 . S
C606 C589 1.574 . S
C606 H600 0.949 . S
C606 C610 1.368 . S
C607 C588 1.429 . S
C607 C601 1.429 . S
C607 C608 1.523 . S
C608 C589 1.368 . S
C608 C602 1.368 . S
C608 C607 1.523 . S
C609 C593 1.429 . S
C609 C605 1.429 . S
C609 C610 1.523 . S
C610 C594 1.368 . S
C610 C606 1.368 . S
C610 C609 1.523 . S
H611 C586 0.950 . S
H612 C588 0.950 . S
H613 C589 0.949 . S
H614 C591 0.950 . S
H615 C593 0.950 . S
C616 C617 1.349 . S
C616 C618 1.327 . S
C616 H641 0.950 . S
C617 C616 1.349 . S
C617 C633 1.349 . S
C618 C616 1.327 . S
C618 C637 1.429 . S
C618 H642 0.950 . S
C619 C636 1.574 . S
C619 C638 1.368 . S
C619 H643 0.949 . S
H620 C624 0.949 . S
C621 C622 1.349 . S
C621 C623 1.327 . S
C621 H644 0.950 . S
C622 C621 1.349 . S
C622 C634 1.349 . S
C623 C621 1.327 . S
C623 C639 1.429 . S
C623 H645 0.950 . S
C624 H620 0.949 . S
C624 C632 1.574 . S
C624 C640 1.368 . S
H625 C633 0.950 . S
H626 C631 0.950 . S
H627 C632 0.949 . S
H628 C634 0.950 . S
H629 C635 0.950 . S
H630 C636 0.949 . S
C631 H626 0.950 . S
C631 C633 1.327 . S
C631 C637 1.429 . S
C632 C624 1.574 . S
C632 H627 0.949 . S
C632 C638 1.368 . S
C633 C617 1.349 . S
C633 H625 0.950 . S
C633 C631 1.327 . S
C634 C622 1.349 . S
C634 H628 0.950 . S
C634 C635 1.327 . S
C635 H629 0.950 . S
C635 C634 1.327 . S
C635 C639 1.429 . S
C636 C619 1.574 . S
C636 H630 0.949 . S
C636 C640 1.368 . S
C637 C618 1.429 . S
C637 C631 1.429 . S
C637 C638 1.523 . S
C638 C619 1.368 . S
C638 C632 1.368 . S
C638 C637 1.523 . S
C639 C623 1.429 . S
C639 C635 1.429 . S
C639 C640 1.523 . S
C640 C624 1.368 . S
C640 C636 1.368 . S
C640 C639 1.523 . S
H641 C616 0.950 . S
H642 C618 0.950 . S
H643 C619 0.949 . S
H644 C621 0.950 . S
H645 C623 0.950 . S
C646 C647 1.349 . S
C646 C648 1.327 . S
C646 H671 0.950 . S
C647 C646 1.349 . S
C647 C663 1.349 . S
C648 C646 1.327 . S
C648 C667 1.429 . S
C648 H672 0.950 . S
C649 C666 1.574 . S
C649 C668 1.368 . S
C649 H673 0.949 . S
H650 C654 0.949 . S
C651 C652 1.349 . S
C651 C653 1.327 . S
C651 H674 0.950 . S
C652 C651 1.349 . S
C652 C664 1.349 . S
C653 C651 1.327 . S
C653 C669 1.429 . S
C653 H675 0.950 . S
C654 H650 0.949 . S
C654 C662 1.574 . S
C654 C670 1.368 . S
H655 C663 0.950 . S
H656 C661 0.950 . S
H657 C662 0.949 . S
H658 C664 0.950 . S
H659 C665 0.950 . S
H660 C666 0.949 . S
C661 H656 0.950 . S
C661 C663 1.327 . S
C661 C667 1.429 . S
C662 C654 1.574 . S
C662 H657 0.949 . S
C662 C668 1.368 . S
C663 C647 1.349 . S
C663 H655 0.950 . S
C663 C661 1.327 . S
C664 C652 1.349 . S
C664 H658 0.950 . S
C664 C665 1.327 . S
C665 H659 0.950 . S
C665 C664 1.327 . S
C665 C669 1.429 . S
C666 C649 1.574 . S
C666 H660 0.949 . S
C666 C670 1.368 . S
C667 C648 1.429 . S
C667 C661 1.429 . S
C667 C668 1.523 . S
C668 C649 1.368 . S
C668 C662 1.368 . S
C668 C667 1.523 . S
C669 C653 1.429 . S
C669 C665 1.429 . S
C669 C670 1.523 . S
C670 C654 1.368 . S
C670 C666 1.368 . S
C670 C669 1.523 . S
H671 C646 0.950 . S
H672 C648 0.950 . S
H673 C649 0.949 . S
H674 C651 0.950 . S
H675 C653 0.950 . S
C676 C677 1.349 . S
C676 C678 1.327 . S
C676 H701 0.950 . S
C677 C676 1.349 . S
C677 C693 1.349 . S
C678 C676 1.327 . S
C678 C697 1.429 . S
C678 H702 0.950 . S
C679 C696 1.574 . S
C679 C698 1.368 . S
C679 H703 0.949 . S
H680 C684 0.949 . S
C681 C682 1.349 . S
C681 C683 1.327 . S
C681 H704 0.950 . S
C682 C681 1.349 . S
C682 C694 1.349 . S
C683 C681 1.327 . S
C683 C699 1.429 . S
C683 H705 0.950 . S
C684 H680 0.949 . S
C684 C692 1.574 . S
C684 C700 1.368 . S
H685 C693 0.950 . S
H686 C691 0.950 . S
H687 C692 0.949 . S
H688 C694 0.950 . S
H689 C695 0.950 . S
H690 C696 0.949 . S
C691 H686 0.950 . S
C691 C693 1.327 . S
C691 C697 1.429 . S
C692 C684 1.574 . S
C692 H687 0.949 . S
C692 C698 1.368 . S
C693 C677 1.349 . S
C693 H685 0.950 . S
C693 C691 1.327 . S
C694 C682 1.349 . S
C694 H688 0.950 . S
C694 C695 1.327 . S
C695 H689 0.950 . S
C695 C694 1.327 . S
C695 C699 1.429 . S
C696 C679 1.574 . S
C696 H690 0.949 . S
C696 C700 1.368 . S
C697 C678 1.429 . S
C697 C691 1.429 . S
C697 C698 1.523 . S
C698 C679 1.368 . S
C698 C692 1.368 . S
C698 C697 1.523 . S
C699 C683 1.429 . S
C699 C695 1.429 . S
C699 C700 1.523 . S
C700 C684 1.368 . S
C700 C696 1.368 . S
C700 C699 1.523 . S
H701 C676 0.950 . S
H702 C678 0.950 . S
H703 C679 0.949 . S
H704 C681 0.950 . S
H705 C683 0.950 . S
C706 C707 1.349 . S
C706 C708 1.327 . S
C706 H731 0.950 . S
C707 C706 1.349 . S
C707 C723 1.349 . S
C708 C706 1.327 . S
C708 C727 1.429 . S
C708 H732 0.950 . S
C709 C726 1.574 . S
C709 C728 1.368 . S
C709 H733 0.949 . S
H710 C714 0.949 . S
C711 C712 1.349 . S
C711 C713 1.327 . S
C711 H734 0.950 . S
C712 C711 1.349 . S
C712 C724 1.349 . S
C713 C711 1.327 . S
C713 C729 1.429 . S
C713 H735 0.950 . S
C714 H710 0.949 . S
C714 C722 1.574 . S
C714 C730 1.368 . S
H715 C723 0.950 . S
H716 C721 0.950 . S
H717 C722 0.949 . S
H718 C724 0.950 . S
H719 C725 0.950 . S
H720 C726 0.949 . S
C721 H716 0.950 . S
C721 C723 1.327 . S
C721 C727 1.429 . S
C722 C714 1.574 . S
C722 H717 0.949 . S
C722 C728 1.368 . S
C723 C707 1.349 . S
C723 H715 0.950 . S
C723 C721 1.327 . S
C724 C712 1.349 . S
C724 H718 0.950 . S
C724 C725 1.327 . S
C725 H719 0.950 . S
C725 C724 1.327 . S
C725 C729 1.429 . S
C726 C709 1.574 . S
C726 H720 0.949 . S
C726 C730 1.368 . S
C727 C708 1.429 . S
C727 C721 1.429 . S
C727 C728 1.523 . S
C728 C709 1.368 . S
C728 C722 1.368 . S
C728 C727 1.523 . S
C729 C713 1.429 . S
C729 C725 1.429 . S
C729 C730 1.523 . S
C730 C714 1.368 . S
C730 C726 1.368 . S
C730 C729 1.523 . S
H731 C706 0.950 . S
H732 C708 0.950 . S
H733 C709 0.949 . S
H734 C711 0.950 . S
H735 C713 0.950 . S
C736 C737 1.349 . S
C736 C738 1.327 . S
C736 H761 0.950 . S
C737 C736 1.349 . S
C737 C753 1.349 . S
C738 C736 1.327 . S
C738 C757 1.429 . S
C738 H762 0.950 . S
C739 C756 1.574 . S
C739 C758 1.368 . S
C739 H763 0.949 . S
H740 C744 0.949 . S
C741 C742 1.349 . S
C741 C743 1.327 . S
C741 H764 0.950 . S
C742 C741 1.349 . S
C742 C754 1.349 . S
C743 C741 1.327 . S
C743 C759 1.429 . S
C743 H765 0.950 . S
C744 H740 0.949 . S
C744 C752 1.574 . S
C744 C760 1.368 . S
H745 C753 0.950 . S
H746 C751 0.950 . S
H747 C752 0.949 . S
H748 C754 0.950 . S
H749 C755 0.950 . S
H750 C756 0.949 . S
C751 H746 0.950 . S
C751 C753 1.327 . S
C751 C757 1.429 . S
C752 C744 1.574 . S
C752 H747 0.949 . S
C752 C758 1.368 . S
C753 C737 1.349 . S
C753 H745 0.950 . S
C753 C751 1.327 . S
C754 C742 1.349 . S
C754 H748 0.950 . S
C754 C755 1.327 . S
C755 H749 0.950 . S
C755 C754 1.327 . S
C755 C759 1.429 . S
C756 C739 1.574 . S
C756 H750 0.949 . S
C756 C760 1.368 . S
C757 C738 1.429 . S
C757 C751 1.429 . S
C757 C758 1.523 . S
C758 C739 1.368 . S
C758 C752 1.368 . S
C758 C757 1.523 . S
C759 C743 1.429 . S
C759 C755 1.429 . S
C759 C760 1.523 . S
C760 C744 1.368 . S
C760 C756 1.368 . S
C760 C759 1.523 . S
H761 C736 0.950 . S
H762 C738 0.950 . S
H763 C739 0.949 . S
H764 C741 0.950 . S
H765 C743 0.950 . S
C766 C767 1.349 . S
C766 C768 1.327 . S
C766 H791 0.950 . S
C767 C766 1.349 . S
C767 C783 1.349 . S
C768 C766 1.327 . S
C768 C787 1.429 . S
C768 H792 0.950 . S
C769 C786 1.574 . S
C769 C788 1.368 . S
C769 H793 0.949 . S
H770 C774 0.949 . S
C771 C772 1.349 . S
C771 C773 1.327 . S
C771 H794 0.950 . S
C772 C771 1.349 . S
C772 C784 1.349 . S
C773 C771 1.327 . S
C773 C789 1.429 . S
C773 H795 0.950 . S
C774 H770 0.949 . S
C774 C782 1.574 . S
C774 C790 1.368 . S
H775 C783 0.950 . S
H776 C781 0.950 . S
H777 C782 0.949 . S
H778 C784 0.950 . S
H779 C785 0.950 . S
H780 C786 0.949 . S
C781 H776 0.950 . S
C781 C783 1.327 . S
C781 C787 1.429 . S
C782 C774 1.574 . S
C782 H777 0.949 . S
C782 C788 1.368 . S
C783 C767 1.349 . S
C783 H775 0.950 . S
C783 C781 1.327 . S
C784 C772 1.349 . S
C784 H778 0.950 . S
C784 C785 1.327 . S
C785 H779 0.950 . S
C785 C784 1.327 . S
C785 C789 1.429 . S
C786 C769 1.574 . S
C786 H780 0.949 . S
C786 C790 1.368 . S
C787 C768 1.429 . S
C787 C781 1.429 . S
C787 C788 1.523 . S
C788 C769 1.368 . S
C788 C782 1.368 . S
C788 C787 1.523 . S
C789 C773 1.429 . S
C789 C785 1.429 . S
C789 C790 1.523 . S
C790 C774 1.368 . S
C790 C786 1.368 . S
C790 C789 1.523 . S
H791 C766 0.950 . S
H792 C768 0.950 . S
H793 C769 0.949 . S
H794 C771 0.950 . S
H795 C773 0.950 . S
C796 C797 1.349 . S
C796 C798 1.327 . S
C796 H821 0.950 . S
C797 C796 1.349 . S
C797 C813 1.349 . S
C798 C796 1.327 . S
C798 C817 1.429 . S
C798 H822 0.950 . S
C799 C816 1.574 . S
C799 C818 1.368 . S
C799 H823 0.949 . S
H800 C804 0.949 . S
C801 C802 1.349 . S
C801 C803 1.327 . S
C801 H824 0.950 . S
C802 C801 1.349 . S
C802 C814 1.349 . S
C803 C801 1.327 . S
C803 C819 1.429 . S
C803 H825 0.950 . S
C804 H800 0.949 . S
C804 C812 1.574 . S
C804 C820 1.368 . S
H805 C813 0.950 . S
H806 C811 0.950 . S
H807 C812 0.949 . S
H808 C814 0.950 . S
H809 C815 0.950 . S
H810 C816 0.949 . S
C811 H806 0.950 . S
C811 C813 1.327 . S
C811 C817 1.429 . S
C812 C804 1.574 . S
C812 H807 0.949 . S
C812 C818 1.368 . S
C813 C797 1.349 . S
C813 H805 0.950 . S
C813 C811 1.327 . S
C814 C802 1.349 . S
C814 H808 0.950 . S
C814 C815 1.327 . S
C815 H809 0.950 . S
C815 C814 1.327 . S
C815 C819 1.429 . S
C816 C799 1.574 . S
C816 H810 0.949 . S
C816 C820 1.368 . S
C817 C798 1.429 . S
C817 C811 1.429 . S
C817 C818 1.523 . S
C818 C799 1.368 . S
C818 C812 1.368 . S
C818 C817 1.523 . S
C819 C803 1.429 . S
C819 C815 1.429 . S
C819 C820 1.523 . S
C820 C804 1.368 . S
C820 C816 1.368 . S
C820 C819 1.523 . S
H821 C796 0.950 . S
H822 C798 0.950 . S
H823 C799 0.949 . S
H824 C801 0.950 . S
H825 C803 0.950 . S
C826 C827 1.349 . S
C826 C828 1.327 . S
C826 H851 0.950 . S
C827 C826 1.349 . S
C827 C843 1.349 . S
C828 C826 1.327 . S
C828 C847 1.429 . S
C828 H852 0.950 . S
C829 C846 1.574 . S
C829 C848 1.368 . S
C829 H853 0.949 . S
H830 C834 0.949 . S
C831 C832 1.349 . S
C831 C833 1.327 . S
C831 H854 0.950 . S
C832 C831 1.349 . S
C832 C844 1.349 . S
C833 C831 1.327 . S
C833 C849 1.429 . S
C833 H855 0.950 . S
C834 H830 0.949 . S
C834 C842 1.574 . S
C834 C850 1.368 . S
H835 C843 0.950 . S
H836 C841 0.950 . S
H837 C842 0.949 . S
H838 C844 0.950 . S
H839 C845 0.950 . S
H840 C846 0.949 . S
C841 H836 0.950 . S
C841 C843 1.327 . S
C841 C847 1.429 . S
C842 C834 1.574 . S
C842 H837 0.949 . S
C842 C848 1.368 . S
C843 C827 1.349 . S
C843 H835 0.950 . S
C843 C841 1.327 . S
C844 C832 1.349 . S
C844 H838 0.950 . S
C844 C845 1.327 . S
C845 H839 0.950 . S
C845 C844 1.327 . S
C845 C849 1.429 . S
C846 C829 1.574 . S
C846 H840 0.949 . S
C846 C850 1.368 . S
C847 C828 1.429 . S
C847 C841 1.429 . S
C847 C848 1.523 . S
C848 C829 1.368 . S
C848 C842 1.368 . S
C848 C847 1.523 . S
C849 C833 1.429 . S
C849 C845 1.429 . S
C849 C850 1.523 . S
C850 C834 1.368 . S
C850 C846 1.368 . S
C850 C849 1.523 . S
H851 C826 0.950 . S
H852 C828 0.950 . S
H853 C829 0.949 . S
H854 C831 0.950 . S
H855 C833 0.950 . S
C856 C857 1.349 . S
C856 C858 1.327 . S
C856 H881 0.950 . S
C857 C856 1.349 . S
C857 C873 1.349 . S
C858 C856 1.327 . S
C858 C877 1.429 . S
C858 H882 0.950 . S
C859 C876 1.574 . S
C859 C878 1.368 . S
C859 H883 0.949 . S
H860 C864 0.949 . S
C861 C862 1.349 . S
C861 C863 1.327 . S
C861 H884 0.950 . S
C862 C861 1.349 . S
C862 C874 1.349 . S
C863 C861 1.327 . S
C863 C879 1.429 . S
C863 H885 0.950 . S
C864 H860 0.949 . S
C864 C872 1.574 . S
C864 C880 1.368 . S
H865 C873 0.950 . S
H866 C871 0.950 . S
H867 C872 0.949 . S
H868 C874 0.950 . S
H869 C875 0.950 . S
H870 C876 0.949 . S
C871 H866 0.950 . S
C871 C873 1.327 . S
C871 C877 1.429 . S
C872 C864 1.574 . S
C872 H867 0.949 . S
C872 C878 1.368 . S
C873 C857 1.349 . S
C873 H865 0.950 . S
C873 C871 1.327 . S
C874 C862 1.349 . S
C874 H868 0.950 . S
C874 C875 1.327 . S
C875 H869 0.950 . S
C875 C874 1.327 . S
C875 C879 1.429 . S
C876 C859 1.574 . S
C876 H870 0.949 . S
C876 C880 1.368 . S
C877 C858 1.429 . S
C877 C871 1.429 . S
C877 C878 1.523 . S
C878 C859 1.368 . S
C878 C872 1.368 . S
C878 C877 1.523 . S
C879 C863 1.429 . S
C879 C875 1.429 . S
C879 C880 1.523 . S
C880 C864 1.368 . S
C880 C876 1.368 . S
C880 C879 1.523 . S
H881 C856 0.950 . S
H882 C858 0.950 . S
H883 C859 0.949 . S
H884 C861 0.950 . S
H885 C863 0.950 . S
C886 C887 1.349 . S
C886 C888 1.327 . S
C886 H911 0.950 . S
C887 C886 1.349 . S
C887 C903 1.349 . S
C888 C886 1.327 . S
C888 C907 1.429 . S
C888 H912 0.950 . S
C889 C906 1.574 . S
C889 C908 1.368 . S
C889 H913 0.949 . S
H890 C894 0.949 . S
C891 C892 1.349 . S
C891 C893 1.327 . S
C891 H914 0.950 . S
C892 C891 1.349 . S
C892 C904 1.349 . S
C893 C891 1.327 . S
C893 C909 1.429 . S
C893 H915 0.950 . S
C894 H890 0.949 . S
C894 C902 1.574 . S
C894 C910 1.368 . S
H895 C903 0.950 . S
H896 C901 0.950 . S
H897 C902 0.949 . S
H898 C904 0.950 . S
H899 C905 0.950 . S
H900 C906 0.949 . S
C901 H896 0.950 . S
C901 C903 1.327 . S
C901 C907 1.429 . S
C902 C894 1.574 . S
C902 H897 0.949 . S
C902 C908 1.368 . S
C903 C887 1.349 . S
C903 H895 0.950 . S
C903 C901 1.327 . S
C904 C892 1.349 . S
C904 H898 0.950 . S
C904 C905 1.327 . S
C905 H899 0.950 . S
C905 C904 1.327 . S
C905 C909 1.429 . S
C906 C889 1.574 . S
C906 H900 0.949 . S
C906 C910 1.368 . S
C907 C888 1.429 . S
C907 C901 1.429 . S
C907 C908 1.523 . S
C908 C889 1.368 . S
C908 C902 1.368 . S
C908 C907 1.523 . S
C909 C893 1.429 . S
C909 C905 1.429 . S
C909 C910 1.523 . S
C910 C894 1.368 . S
C910 C906 1.368 . S
C910 C909 1.523 . S
H911 C886 0.950 . S
H912 C888 0.950 . S
H913 C889 0.949 . S
H914 C891 0.950 . S
H915 C893 0.950 . S
C916 C917 1.349 . S
C916 C918 1.327 . S
C916 H941 0.950 . S
C917 C916 1.349 . S
C917 C933 1.349 . S
C918 C916 1.327 . S
C918 C937 1.429 . S
C918 H942 0.950 . S
C919 C936 1.574 . S
C919 C938 1.368 . S
C919 H943 0.949 . S
H920 C924 0.949 . S
C921 C922 1.349 . S
C921 C923 1.327 . S
C921 H944 0.950 . S
C922 C921 1.349 . S
C922 C934 1.349 . S
C923 C921 1.327 . S
C923 C939 1.429 . S
C923 H945 0.950 . S
C924 H920 0.949 . S
C924 C932 1.574 . S
C924 C940 1.368 . S
H925 C933 0.950 . S
H926 C931 0.950 . S
H927 C932 0.949 . S
H928 C934 0.950 . S
H929 C935 0.950 . S
H930 C936 0.949 . S
C931 H926 0.950 . S
C931 C933 1.327 . S
C931 C937 1.429 . S
C932 C924 1.574 . S
C932 H927 0.949 . S
C932 C938 1.368 . S
C933 C917 1.349 . S
C933 H925 0.950 . S
C933 C931 1.327 . S
C934 C922 1.349 . S
C934 H928 0.950 . S
C934 C935 1.327 . S
C935 H929 0.950 . S
C935 C934 1.327 . S
C935 C939 1.429 . S
C936 C919 1.574 . S
C936 H930 0.949 . S
C936 C940 1.368 . S
C937 C918 1.429 . S
C937 C931 1.429 . S
C937 C938 1.523 . S
C938 C919 1.368 . S
C938 C932 1.368 . S
C938 C937 1.523 . S
C939 C923 1.429 . S
C939 C935 1.429 . S
C939 C940 1.523 . S
C940 C924 1.368 . S
C940 C936 1.368 . S
C940 C939 1.523 . S
H941 C916 0.950 . S
H942 C918 0.950 . S
H943 C919 0.949 . S
H944 C921 0.950 . S
H945 C923 0.950 . S
C946 C947 1.349 . S
C946 C948 1.327 . S
C946 H971 0.950 . S
C947 C946 1.349 . S
C947 C963 1.349 . S
C948 C946 1.327 . S
C948 C967 1.429 . S
C948 H972 0.950 . S
C949 C966 1.574 . S
C949 C968 1.368 . S
C949 H973 0.949 . S
H950 C954 0.949 . S
C951 C952 1.349 . S
C951 C953 1.327 . S
C951 H974 0.950 . S
C952 C951 1.349 . S
C952 C964 1.349 . S
C953 C951 1.327 . S
C953 C969 1.429 . S
C953 H975 0.950 . S
C954 H950 0.949 . S
C954 C962 1.574 . S
C954 C970 1.368 . S
H955 C963 0.950 . S
H956 C961 0.950 . S
H957 C962 0.949 . S
H958 C964 0.950 . S
H959 C965 0.950 . S
H960 C966 0.949 . S
C961 H956 0.950 . S
C961 C963 1.327 . S
C961 C967 1.429 . S
C962 C954 1.574 . S
C962 H957 0.949 . S
C962 C968 1.368 . S
C963 C947 1.349 . S
C963 H955 0.950 . S
C963 C961 1.327 . S
C964 C952 1.349 . S
C964 H958 0.950 . S
C964 C965 1.327 . S
C965 H959 0.950 . S
C965 C964 1.327 . S
C965 C969 1.429 . S
C966 C949 1.574 . S
C966 H960 0.949 . S
C966 C970 1.368 . S
C967 C948 1.429 . S
C967 C961 1.429 . S
C967 C968 1.523 . S
C968 C949 1.368 . S
C968 C962 1.368 . S
C968 C967 1.523 . S
C969 C953 1.429 . S
C969 C965 1.429 . S
C969 C970 1.523 . S
C970 C954 1.368 . S
C970 C966 1.368 . S
C970 C969 1.523 . S
H971 C946 0.950 . S
H972 C948 0.950 . S
H973 C949 0.949 . S
H974 C951 0.950 . S
H975 C953 0.950 . S
C976 C977 1.349 . S
C976 C978 1.327 . S
C976 H1001 0.950 . S
C977 C976 1.349 . S
C977 C993 1.349 . S
C978 C976 1.327 . S
C978 C997 1.429 . S
C978 H1002 0.950 . S
C979 C996 1.574 . S
C979 C998 1.368 . S
C979 H1003 0.949 . S
H980 C984 0.949 . S
C981 C982 1.349 . S
C981 C983 1.327 . S
C981 H1004 0.950 . S
C982 C981 1.349 . S
C982 C994 1.349 . S
C983 C981 1.327 . S
C983 C999 1.429 . S
C983 H1005 0.950 . S
C984 H980 0.949 . S
C984 C992 1.574 . S
C984 C1000 1.368 . S
H985 C993 0.950 . S
H986 C991 0.950 . S
H987 C992 0.949 . S
H988 C994 0.950 . S
H989 C995 0.950 . S
H990 C996 0.949 . S
C991 H986 0.950 . S
C991 C993 1.327 . S
C991 C997 1.429 . S
C992 C984 1.574 . S
C992 H987 0.949 . S
C992 C998 1.368 . S
C993 C977 1.349 . S
C993 H985 0.950 . S
C993 C991 1.327 . S
C994 C982 1.349 . S
C994 H988 0.950 . S
C994 C995 1.327 . S
C995 H989 0.950 . S
C995 C994 1.327 . S
C995 C999 1.429 . S
C996 C979 1.574 . S
C996 H990 0.949 . S
C996 C1000 1.368 . S
C997 C978 1.429 . S
C997 C991 1.429 . S
C997 C998 1.523 . S
C998 C979 1.368 . S
C998 C992 1.368 . S
C998 C997 1.523 . S
C999 C983 1.429 . S
C999 C995 1.429 . S
C999 C1000 1.523 . S
C1000 C984 1.368 . S
C1000 C996 1.368 . S
C1000 C999 1.523 . S
H1001 C976 0.950 . S
H1002 C978 0.950 . S
H1003 C979 0.949 . S
H1004 C981 0.950 . S
H1005 C983 0.950 . S
C1006 C1007 1.349 . S
C1006 C1008 1.327 . S
C1006 H1031 0.950 . S
C1007 C1006 1.349 . S
C1007 C1023 1.349 . S
C1008 C1006 1.327 . S
C1008 C1027 1.429 . S
C1008 H1032 0.950 . S
C1009 C1026 1.574 . S
C1009 C1028 1.368 . S
C1009 H1033 0.949 . S
H1010 C1014 0.949 . S
C1011 C1012 1.349 . S
C1011 C1013 1.327 . S
C1011 H1034 0.950 . S
C1012 C1011 1.349 . S
C1012 C1024 1.349 . S
C1013 C1011 1.327 . S
C1013 C1029 1.429 . S
C1013 H1035 0.950 . S
C1014 H1010 0.949 . S
C1014 C1022 1.574 . S
C1014 C1030 1.368 . S
H1015 C1023 0.950 . S
H1016 C1021 0.950 . S
H1017 C1022 0.949 . S
H1018 C1024 0.950 . S
H1019 C1025 0.950 . S
H1020 C1026 0.949 . S
C1021 H1016 0.950 . S
C1021 C1023 1.327 . S
C1021 C1027 1.429 . S
C1022 C1014 1.574 . S
C1022 H1017 0.949 . S
C1022 C1028 1.368 . S
C1023 C1007 1.349 . S
C1023 H1015 0.950 . S
C1023 C1021 1.327 . S
C1024 C1012 1.349 . S
C1024 H1018 0.950 . S
C1024 C1025 1.327 . S
C1025 H1019 0.950 . S
C1025 C1024 1.327 . S
C1025 C1029 1.429 . S
C1026 C1009 1.574 . S
C1026 H1020 0.949 . S
C1026 C1030 1.368 . S
C1027 C1008 1.429 . S
C1027 C1021 1.429 . S
C1027 C1028 1.523 . S
C1028 C1009 1.368 . S
C1028 C1022 1.368 . S
C1028 C1027 1.523 . S
C1029 C1013 1.429 . S
C1029 C1025 1.429 . S
C1029 C1030 1.523 . S
C1030 C1014 1.368 . S
C1030 C1026 1.368 . S
C1030 C1029 1.523 . S
H1031 C1006 0.950 . S
H1032 C1008 0.950 . S
H1033 C1009 0.949 . S
H1034 C1011 0.950 . S
H1035 C1013 0.950 . S
C1036 C1037 1.349 . S
C1036 C1038 1.327 . S
C1036 H1061 0.950 . S
C1037 C1036 1.349 . S
C1037 C1053 1.349 . S
C1038 C1036 1.327 . S
C1038 C1057 1.429 . S
C1038 H1062 0.950 . S
C1039 C1056 1.574 . S
C1039 C1058 1.368 . S
C1039 H1063 0.949 . S
H1040 C1044 0.949 . S
C1041 C1042 1.349 . S
C1041 C1043 1.327 . S
C1041 H1064 0.950 . S
C1042 C1041 1.349 . S
C1042 C1054 1.349 . S
C1043 C1041 1.327 . S
C1043 C1059 1.429 . S
C1043 H1065 0.950 . S
C1044 H1040 0.949 . S
C1044 C1052 1.574 . S
C1044 C1060 1.368 . S
H1045 C1053 0.950 . S
H1046 C1051 0.950 . S
H1047 C1052 0.949 . S
H1048 C1054 0.950 . S
H1049 C1055 0.950 . S
H1050 C1056 0.949 . S
C1051 H1046 0.950 . S
C1051 C1053 1.327 . S
C1051 C1057 1.429 . S
C1052 C1044 1.574 . S
C1052 H1047 0.949 . S
C1052 C1058 1.368 . S
C1053 C1037 1.349 . S
C1053 H1045 0.950 . S
C1053 C1051 1.327 . S
C1054 C1042 1.349 . S
C1054 H1048 0.950 . S
C1054 C1055 1.327 . S
C1055 H1049 0.950 . S
C1055 C1054 1.327 . S
C1055 C1059 1.429 . S
C1056 C1039 1.574 . S
C1056 H1050 0.949 . S
C1056 C1060 1.368 . S
C1057 C1038 1.429 . S
C1057 C1051 1.429 . S
C1057 C1058 1.523 . S
C1058 C1039 1.368 . S
C1058 C1052 1.368 . S
C1058 C1057 1.523 . S
C1059 C1043 1.429 . S
C1059 C1055 1.429 . S
C1059 C1060 1.523 . S
C1060 C1044 1.368 . S
C1060 C1056 1.368 . S
C1060 C1059 1.523 . S
H1061 C1036 0.950 . S
H1062 C1038 0.950 . S
H1063 C1039 0.949 . S
H1064 C1041 0.950 . S
H1065 C1043 0.950 . S
C1066 C1067 1.349 . S
C1066 C1068 1.327 . S
C1066 H1091 0.950 . S
C1067 C1066 1.349 . S
C1067 C1083 1.349 . S
C1068 C1066 1.327 . S
C1068 C1087 1.429 . S
C1068 H1092 0.950 . S
C1069 C1086 1.574 . S
C1069 C1088 1.368 . S
C1069 H1093 0.949 . S
H1070 C1074 0.949 . S
C1071 C1072 1.349 . S
C1071 C1073 1.327 . S
C1071 H1094 0.950 . S
C1072 C1071 1.349 . S
C1072 C1084 1.349 . S
C1073 C1071 1.327 . S
C1073 C1089 1.429 . S
C1073 H1095 0.950 . S
C1074 H1070 0.949 . S
C1074 C1082 1.574 . S
C1074 C1090 1.368 . S
H1075 C1083 0.950 . S
H1076 C1081 0.950 . S
H1077 C1082 0.949 . S
H1078 C1084 0.950 . S
H1079 C1085 0.950 . S
H1080 C1086 0.949 . S
C1081 H1076 0.950 . S
C1081 C1083 1.327 . S
C1081 C1087 1.429 . S
C1082 C1074 1.574 . S
C1082 H1077 0.949 . S
C1082 C1088 1.368 . S
C1083 C1067 1.349 . S
C1083 H1075 0.950 . S
C1083 C1081 1.327 . S
C1084 C1072 1.349 . S
C1084 H1078 0.950 . S
C1084 C1085 1.327 . S
C1085 H1079 0.950 . S
C1085 C1084 1.327 . S
C1085 C1089 1.429 . S
C1086 C1069 1.574 . S
C1086 H1080 0.949 . S
C1086 C1090 1.368 . S
C1087 C1068 1.429 . S
C1087 C1081 1.429 . S
C1087 C1088 1.523 . S
C1088 C1069 1.368 . S
C1088 C1082 1.368 . S
C1088 C1087 1.523 . S
C1089 C1073 1.429 . S
C1089 C1085 1.429 . S
C1089 C1090 1.523 . S
C1090 C1074 1.368 . S
C1090 C1086 1.368 . S
C1090 C1089 1.523 . S
H1091 C1066 0.950 . S
H1092 C1068 0.950 . S
H1093 C1069 0.949 . S
H1094 C1071 0.950 . S
H1095 C1073 0.950 . S
C1096 C1097 1.349 . S
C1096 C1098 1.327 . S
C1096 H1121 0.950 . S
C1097 C1096 1.349 . S
C1097 C1113 1.349 . S
C1098 C1096 1.327 . S
C1098 C1117 1.429 . S
C1098 H1122 0.950 . S
C1099 C1116 1.574 . S
C1099 C1118 1.368 . S
C1099 H1123 0.949 . S
H1100 C1104 0.949 . S
C1101 C1102 1.349 . S
C1101 C1103 1.327 . S
C1101 H1124 0.950 . S
C1102 C1101 1.349 . S
C1102 C1114 1.349 . S
C1103 C1101 1.327 . S
C1103 C1119 1.429 . S
C1103 H1125 0.950 . S
C1104 H1100 0.949 . S
C1104 C1112 1.574 . S
C1104 C1120 1.368 . S
H1105 C1113 0.950 . S
H1106 C1111 0.950 . S
H1107 C1112 0.949 . S
H1108 C1114 0.950 . S
H1109 C1115 0.950 . S
H1110 C1116 0.949 . S
C1111 H1106 0.950 . S
C1111 C1113 1.327 . S
C1111 C1117 1.429 . S
C1112 C1104 1.574 . S
C1112 H1107 0.949 . S
C1112 C1118 1.368 . S
C1113 C1097 1.349 . S
C1113 H1105 0.950 . S
C1113 C1111 1.327 . S
C1114 C1102 1.349 . S
C1114 H1108 0.950 . S
C1114 C1115 1.327 . S
C1115 H1109 0.950 . S
C1115 C1114 1.327 . S
C1115 C1119 1.429 . S
C1116 C1099 1.574 . S
C1116 H1110 0.949 . S
C1116 C1120 1.368 . S
C1117 C1098 1.429 . S
C1117 C1111 1.429 . S
C1117 C1118 1.523 . S
C1118 C1099 1.368 . S
C1118 C1112 1.368 . S
C1118 C1117 1.523 . S
C1119 C1103 1.429 . S
C1119 C1115 1.429 . S
C1119 C1120 1.523 . S
C1120 C1104 1.368 . S
C1120 C1116 1.368 . S
C1120 C1119 1.523 . S
H1121 C1096 0.950 . S
H1122 C1098 0.950 . S
H1123 C1099 0.949 . S
H1124 C1101 0.950 . S
H1125 C1103 0.950 . S
C1126 C1127 1.349 . S
C1126 C1128 1.327 . S
C1126 H1151 0.950 . S
C1127 C1126 1.349 . S
C1127 C1143 1.349 . S
C1128 C1126 1.327 . S
C1128 C1147 1.429 . S
C1128 H1152 0.950 . S
C1129 C1146 1.574 . S
C1129 C1148 1.368 . S
C1129 H1153 0.949 . S
H1130 C1134 0.949 . S
C1131 C1132 1.349 . S
C1131 C1133 1.327 . S
C1131 H1154 0.950 . S
C1132 C1131 1.349 . S
C1132 C1144 1.349 . S
C1133 C1131 1.327 . S
C1133 C1149 1.429 . S
C1133 H1155 0.950 . S
C1134 H1130 0.949 . S
C1134 C1142 1.574 . S
C1134 C1150 1.368 . S
H1135 C1143 0.950 . S
H1136 C1141 0.950 . S
H1137 C1142 0.949 . S
H1138 C1144 0.950 . S
H1139 C1145 0.950 . S
H1140 C1146 0.949 . S
C1141 H1136 0.950 . S
C1141 C1143 1.327 . S
C1141 C1147 1.429 . S
C1142 C1134 1.574 . S
C1142 H1137 0.949 . S
C1142 C1148 1.368 . S
C1143 C1127 1.349 . S
C1143 H1135 0.950 . S
C1143 C1141 1.327 . S
C1144 C1132 1.349 . S
C1144 H1138 0.950 . S
C1144 C1145 1.327 . S
C1145 H1139 0.950 . S
C1145 C1144 1.327 . S
C1145 C1149 1.429 . S
C1146 C1129 1.574 . S
C1146 H1140 0.949 . S
C1146 C1150 1.368 . S
C1147 C1128 1.429 . S
C1147 C1141 1.429 . S
C1147 C1148 1.523 . S
C1148 C1129 1.368 . S
C1148 C1142 1.368 . S
C1148 C1147 1.523 . S
C1149 C1133 1.429 . S
C1149 C1145 1.429 . S
C1149 C1150 1.523 . S
C1150 C1134 1.368 . S
C1150 C1146 1.368 . S
C1150 C1149 1.523 . S
H1151 C1126 0.950 . S
H1152 C1128 0.950 . S
H1153 C1129 0.949 . S
H1154 C1131 0.950 . S
H1155 C1133 0.950 . S
C1156 C1157 1.349 . S
C1156 C1158 1.327 . S
C1156 H1181 0.950 . S
C1157 C1156 1.349 . S
C1157 C1173 1.349 . S
C1158 C1156 1.327 . S
C1158 C1177 1.429 . S
C1158 H1182 0.950 . S
C1159 C1176 1.574 . S
C1159 C1178 1.368 . S
C1159 H1183 0.949 . S
H1160 C1164 0.949 . S
C1161 C1162 1.349 . S
C1161 C1163 1.327 . S
C1161 H1184 0.950 . S
C1162 C1161 1.349 . S
C1162 C1174 1.349 . S
C1163 C1161 1.327 . S
C1163 C1179 1.429 . S
C1163 H1185 0.950 . S
C1164 H1160 0.949 . S
C1164 C1172 1.574 . S
C1164 C1180 1.368 . S
H1165 C1173 0.950 . S
H1166 C1171 0.950 . S
H1167 C1172 0.949 . S
H1168 C1174 0.950 . S
H1169 C1175 0.950 . S
H1170 C1176 0.949 . S
C1171 H1166 0.950 . S
C1171 C1173 1.327 . S
C1171 C1177 1.429 . S
C1172 C1164 1.574 . S
C1172 H1167 0.949 . S
C1172 C1178 1.368 . S
C1173 C1157 1.349 . S
C1173 H1165 0.950 . S
C1173 C1171 1.327 . S
C1174 C1162 1.349 . S
C1174 H1168 0.950 . S
C1174 C1175 1.327 . S
C1175 H1169 0.950 . S
C1175 C1174 1.327 . S
C1175 C1179 1.429 . S
C1176 C1159 1.574 . S
C1176 H1170 0.949 . S
C1176 C1180 1.368 . S
C1177 C1158 1.429 . S
C1177 C1171 1.429 . S
C1177 C1178 1.523 . S
C1178 C1159 1.368 . S
C1178 C1172 1.368 . S
C1178 C1177 1.523 . S
C1179 C1163 1.429 . S
C1179 C1175 1.429 . S
C1179 C1180 1.523 . S
C1180 C1164 1.368 . S
C1180 C1176 1.368 . S
C1180 C1179 1.523 . S
H1181 C1156 0.950 . S
H1182 C1158 0.950 . S
H1183 C1159 0.949 . S
H1184 C1161 0.950 . S
H1185 C1163 0.950 . S
C1186 C1187 1.349 . S
C1186 C1188 1.327 . S
C1186 H1211 0.950 . S
C1187 C1186 1.349 . S
C1187 C1203 1.349 . S
C1188 C1186 1.327 . S
C1188 C1207 1.429 . S
C1188 H1212 0.950 . S
C1189 C1206 1.574 . S
C1189 C1208 1.368 . S
C1189 H1213 0.949 . S
H1190 C1194 0.949 . S
C1191 C1192 1.349 . S
C1191 C1193 1.327 . S
C1191 H1214 0.950 . S
C1192 C1191 1.349 . S
C1192 C1204 1.349 . S
C1193 C1191 1.327 . S
C1193 C1209 1.429 . S
C1193 H1215 0.950 . S
C1194 H1190 0.949 . S
C1194 C1202 1.574 . S
C1194 C1210 1.368 . S
H1195 C1203 0.950 . S
H1196 C1201 0.950 . S
H1197 C1202 0.949 . S
H1198 C1204 0.950 . S
H1199 C1205 0.950 . S
H1200 C1206 0.949 . S
C1201 H1196 0.950 . S
C1201 C1203 1.327 . S
C1201 C1207 1.429 . S
C1202 C1194 1.574 . S
C1202 H1197 0.949 . S
C1202 C1208 1.368 . S
C1203 C1187 1.349 . S
C1203 H1195 0.950 . S
C1203 C1201 1.327 . S
C1204 C1192 1.349 . S
C1204 H1198 0.950 . S
C1204 C1205 1.327 . S
C1205 H1199 0.950 . S
C1205 C1204 1.327 . S
C1205 C1209 1.429 . S
C1206 C1189 1.574 . S
C1206 H1200 0.949 . S
C1206 C1210 1.368 . S
C1207 C1188 1.429 . S
C1207 C1201 1.429 . S
C1207 C1208 1.523 . S
C1208 C1189 1.368 . S
C1208 C1202 1.368 . S
C1208 C1207 1.523 . S
C1209 C1193 1.429 . S
C1209 C1205 1.429 . S
C1209 C1210 1.523 . S
C1210 C1194 1.368 . S
C1210 C1206 1.368 . S
C1210 C1209 1.523 . S
H1211 C1186 0.950 . S
H1212 C1188 0.950 . S
H1213 C1189 0.949 . S
H1214 C1191 0.950 . S
H1215 C1193 0.950 . S
C1216 C1217 1.349 . S
C1216 C1218 1.327 . S
C1216 H1241 0.950 . S
C1217 C1216 1.349 . S
C1217 C1233 1.349 . S
C1218 C1216 1.327 . S
C1218 C1237 1.429 . S
C1218 H1242 0.950 . S
C1219 C1236 1.574 . S
C1219 C1238 1.368 . S
C1219 H1243 0.949 . S
H1220 C1224 0.949 . S
C1221 C1222 1.349 . S
C1221 C1223 1.327 . S
C1221 H1244 0.950 . S
C1222 C1221 1.349 . S
C1222 C1234 1.349 . S
C1223 C1221 1.327 . S
C1223 C1239 1.429 . S
C1223 H1245 0.950 . S
C1224 H1220 0.949 . S
C1224 C1232 1.574 . S
C1224 C1240 1.368 . S
H1225 C1233 0.950 . S
H1226 C1231 0.950 . S
H1227 C1232 0.949 . S
H1228 C1234 0.950 . S
H1229 C1235 0.950 . S
H1230 C1236 0.949 . S
C1231 H1226 0.950 . S
C1231 C1233 1.327 . S
C1231 C1237 1.429 . S
C1232 C1224 1.574 . S
C1232 H1227 0.949 . S
C1232 C1238 1.368 . S
C1233 C1217 1.349 . S
C1233 H1225 0.950 . S
C1233 C1231 1.327 . S
C1234 C1222 1.349 . S
C1234 H1228 0.950 . S
C1234 C1235 1.327 . S
C1235 H1229 0.950 . S
C1235 C1234 1.327 . S
C1235 C1239 1.429 . S
C1236 C1219 1.574 . S
C1236 H1230 0.949 . S
C1236 C1240 1.368 . S
C1237 C1218 1.429 . S
C1237 C1231 1.429 . S
C1237 C1238 1.523 . S
C1238 C1219 1.368 . S
C1238 C1232 1.368 . S
C1238 C1237 1.523 . S
C1239 C1223 1.429 . S
C1239 C1235 1.429 . S
C1239 C1240 1.523 . S
C1240 C1224 1.368 . S
C1240 C1236 1.368 . S
C1240 C1239 1.523 . S
H1241 C1216 0.950 . S
H1242 C1218 0.950 . S
H1243 C1219 0.949 . S
H1244 C1221 0.950 . S
H1245 C1223 0.950 . S
C1246 C1247 1.349 . S
C1246 C1248 1.327 . S
C1246 H1271 0.950 . S
C1247 C1246 1.349 . S
C1247 C1263 1.349 . S
C1248 C1246 1.327 . S
C1248 C1267 1.429 . S
C1248 H1272 0.950 . S
C1249 C1266 1.574 . S
C1249 C1268 1.368 . S
C1249 H1273 0.949 . S
H1250 C1254 0.949 . S
C1251 C1252 1.349 . S
C1251 C1253 1.327 . S
C1251 H1274 0.950 . S
C1252 C1251 1.349 . S
C1252 C1264 1.349 . S
C1253 C1251 1.327 . S
C1253 C1269 1.429 . S
C1253 H1275 0.950 . S
C1254 H1250 0.949 . S
C1254 C1262 1.574 . S
C1254 C1270 1.368 . S
H1255 C1263 0.950 . S
H1256 C1261 0.950 . S
H1257 C1262 0.949 . S
H1258 C1264 0.950 . S
H1259 C1265 0.950 . S
H1260 C1266 0.949 . S
C1261 H1256 0.950 . S
C1261 C1263 1.327 . S
C1261 C1267 1.429 . S
C1262 C1254 1.574 . S
C1262 H1257 0.949 . S
C1262 C1268 1.368 . S
C1263 C1247 1.349 . S
C1263 H1255 0.950 . S
C1263 C1261 1.327 . S
C1264 C1252 1.349 . S
C1264 H1258 0.950 . S
C1264 C1265 1.327 . S
C1265 H1259 0.950 . S
C1265 C1264 1.327 . S
C1265 C1269 1.429 . S
C1266 C1249 1.574 . S
C1266 H1260 0.949 . S
C1266 C1270 1.368 . S
C1267 C1248 1.429 . S
C1267 C1261 1.429 . S
C1267 C1268 1.523 . S
C1268 C1249 1.368 . S
C1268 C1262 1.368 . S
C1268 C1267 1.523 . S
C1269 C1253 1.429 . S
C1269 C1265 1.429 . S
C1269 C1270 1.523 . S
C1270 C1254 1.368 . S
C1270 C1266 1.368 . S
C1270 C1269 1.523 . S
H1271 C1246 0.950 . S
H1272 C1248 0.950 . S
H1273 C1249 0.949 . S
H1274 C1251 0.950 . S
H1275 C1253 0.950 . S
C1276 C1277 1.349 . S
C1276 C1278 1.327 . S
C1276 H1301 0.950 . S
C1277 C1276 1.349 . S
C1277 C1293 1.349 . S
C1278 C1276 1.327 . S
C1278 C1297 1.429 . S
C1278 H1302 0.950 . S
C1279 C1296 1.574 . S
C1279 C1298 1.368 . S
C1279 H1303 0.949 . S
H1280 C1284 0.949 . S
C1281 C1282 1.349 . S
C1281 C1283 1.327 . S
C1281 H1304 0.950 . S
C1282 C1281 1.349 . S
C1282 C1294 1.349 . S
C1283 C1281 1.327 . S
C1283 C1299 1.429 . S
C1283 H1305 0.950 . S
C1284 H1280 0.949 . S
C1284 C1292 1.574 . S
C1284 C1300 1.368 . S
H1285 C1293 0.950 . S
H1286 C1291 0.950 . S
H1287 C1292 0.949 . S
H1288 C1294 0.950 . S
H1289 C1295 0.950 . S
H1290 C1296 0.949 . S
C1291 H1286 0.950 . S
C1291 C1293 1.327 . S
C1291 C1297 1.429 . S
C1292 C1284 1.574 . S
C1292 H1287 0.949 . S
C1292 C1298 1.368 . S
C1293 C1277 1.349 . S
C1293 H1285 0.950 . S
C1293 C1291 1.327 . S
C1294 C1282 1.349 . S
C1294 H1288 0.950 . S
C1294 C1295 1.327 . S
C1295 H1289 0.950 . S
C1295 C1294 1.327 . S
C1295 C1299 1.429 . S
C1296 C1279 1.574 . S
C1296 H1290 0.949 . S
C1296 C1300 1.368 . S
C1297 C1278 1.429 . S
C1297 C1291 1.429 . S
C1297 C1298 1.523 . S
C1298 C1279 1.368 . S
C1298 C1292 1.368 . S
C1298 C1297 1.523 . S
C1299 C1283 1.429 . S
C1299 C1295 1.429 . S
C1299 C1300 1.523 . S
C1300 C1284 1.368 . S
C1300 C1296 1.368 . S
C1300 C1299 1.523 . S
H1301 C1276 0.950 . S
H1302 C1278 0.950 . S
H1303 C1279 0.949 . S
H1304 C1281 0.950 . S
H1305 C1283 0.950 . S
C1306 C1307 1.349 . S
C1306 C1308 1.327 . S
C1306 H1331 0.950 . S
C1307 C1306 1.349 . S
C1307 C1323 1.349 . S
C1308 C1306 1.327 . S
C1308 C1327 1.429 . S
C1308 H1332 0.950 . S
C1309 C1326 1.574 . S
C1309 C1328 1.368 . S
C1309 H1333 0.949 . S
H1310 C1314 0.949 . S
C1311 C1312 1.349 . S
C1311 C1313 1.327 . S
C1311 H1334 0.950 . S
C1312 C1311 1.349 . S
C1312 C1324 1.349 . S
C1313 C1311 1.327 . S
C1313 C1329 1.429 . S
C1313 H1335 0.950 . S
C1314 H1310 0.949 . S
C1314 C1322 1.574 . S
C1314 C1330 1.368 . S
H1315 C1323 0.950 . S
H1316 C1321 0.950 . S
H1317 C1322 0.949 . S
H1318 C1324 0.950 . S
H1319 C1325 0.950 . S
H1320 C1326 0.949 . S
C1321 H1316 0.950 . S
C1321 C1323 1.327 . S
C1321 C1327 1.429 . S
C1322 C1314 1.574 . S
C1322 H1317 0.949 . S
C1322 C1328 1.368 . S
C1323 C1307 1.349 . S
C1323 H1315 0.950 . S
C1323 C1321 1.327 . S
C1324 C1312 1.349 . S
C1324 H1318 0.950 . S
C1324 C1325 1.327 . S
C1325 H1319 0.950 . S
C1325 C1324 1.327 . S
C1325 C1329 1.429 . S
C1326 C1309 1.574 . S
C1326 H1320 0.949 . S
C1326 C1330 1.368 . S
C1327 C1308 1.429 . S
C1327 C1321 1.429 . S
C1327 C1328 1.523 . S
C1328 C1309 1.368 . S
C1328 C1322 1.368 . S
C1328 C1327 1.523 . S
C1329 C1313 1.429 . S
C1329 C1325 1.429 . S
C1329 C1330 1.523 . S
C1330 C1314 1.368 . S
C1330 C1326 1.368 . S
C1330 C1329 1.523 . S
H1331 C1306 0.950 . S
H1332 C1308 0.950 . S
H1333 C1309 0.949 . S
H1334 C1311 0.950 . S
H1335 C1313 0.950 . S
C1336 C1337 1.349 . S
C1336 C1338 1.327 . S
C1336 H1361 0.950 . S
C1337 C1336 1.349 . S
C1337 C1353 1.349 . S
C1338 C1336 1.327 . S
C1338 C1357 1.429 . S
C1338 H1362 0.950 . S
C1339 C1356 1.574 . S
C1339 C1358 1.368 . S
C1339 H1363 0.949 . S
H1340 C1344 0.949 . S
C1341 C1342 1.349 . S
C1341 C1343 1.327 . S
C1341 H1364 0.950 . S
C1342 C1341 1.349 . S
C1342 C1354 1.349 . S
C1343 C1341 1.327 . S
C1343 C1359 1.429 . S
C1343 H1365 0.950 . S
C1344 H1340 0.949 . S
C1344 C1352 1.574 . S
C1344 C1360 1.368 . S
H1345 C1353 0.950 . S
H1346 C1351 0.950 . S
H1347 C1352 0.949 . S
H1348 C1354 0.950 . S
H1349 C1355 0.950 . S
H1350 C1356 0.949 . S
C1351 H1346 0.950 . S
C1351 C1353 1.327 . S
C1351 C1357 1.429 . S
C1352 C1344 1.574 . S
C1352 H1347 0.949 . S
C1352 C1358 1.368 . S
C1353 C1337 1.349 . S
C1353 H1345 0.950 . S
C1353 C1351 1.327 . S
C1354 C1342 1.349 . S
C1354 H1348 0.950 . S
C1354 C1355 1.327 . S
C1355 H1349 0.950 . S
C1355 C1354 1.327 . S
C1355 C1359 1.429 . S
C1356 C1339 1.574 . S
C1356 H1350 0.949 . S
C1356 C1360 1.368 . S
C1357 C1338 1.429 . S
C1357 C1351 1.429 . S
C1357 C1358 1.523 . S
C1358 C1339 1.368 . S
C1358 C1352 1.368 . S
C1358 C1357 1.523 . S
C1359 C1343 1.429 . S
C1359 C1355 1.429 . S
C1359 C1360 1.523 . S
C1360 C1344 1.368 . S
C1360 C1356 1.368 . S
C1360 C1359 1.523 . S
H1361 C1336 0.950 . S
H1362 C1338 0.950 . S
H1363 C1339 0.949 . S
H1364 C1341 0.950 . S
H1365 C1343 0.950 . S
C1366 C1367 1.349 . S
C1366 C1368 1.327 . S
C1366 H1391 0.950 . S
C1367 C1366 1.349 . S
C1367 C1383 1.349 . S
C1368 C1366 1.327 . S
C1368 C1387 1.429 . S
C1368 H1392 0.950 . S
C1369 C1386 1.574 . S
C1369 C1388 1.368 . S
C1369 H1393 0.949 . S
H1370 C1374 0.949 . S
C1371 C1372 1.349 . S
C1371 C1373 1.327 . S
C1371 H1394 0.950 . S
C1372 C1371 1.349 . S
C1372 C1384 1.349 . S
C1373 C1371 1.327 . S
C1373 C1389 1.429 . S
C1373 H1395 0.950 . S
C1374 H1370 0.949 . S
C1374 C1382 1.574 . S
C1374 C1390 1.368 . S
H1375 C1383 0.950 . S
H1376 C1381 0.950 . S
H1377 C1382 0.949 . S
H1378 C1384 0.950 . S
H1379 C1385 0.950 . S
H1380 C1386 0.949 . S
C1381 H1376 0.950 . S
C1381 C1383 1.327 . S
C1381 C1387 1.429 . S
C1382 C1374 1.574 . S
C1382 H1377 0.949 . S
C1382 C1388 1.368 . S
C1383 C1367 1.349 . S
C1383 H1375 0.950 . S
C1383 C1381 1.327 . S
C1384 C1372 1.349 . S
C1384 H1378 0.950 . S
C1384 C1385 1.327 . S
C1385 H1379 0.950 . S
C1385 C1384 1.327 . S
C1385 C1389 1.429 . S
C1386 C1369 1.574 . S
C1386 H1380 0.949 . S
C1386 C1390 1.368 . S
C1387 C1368 1.429 . S
C1387 C1381 1.429 . S
C1387 C1388 1.523 . S
C1388 C1369 1.368 . S
C1388 C1382 1.368 . S
C1388 C1387 1.523 . S
C1389 C1373 1.429 . S
C1389 C1385 1.429 . S
C1389 C1390 1.523 . S
C1390 C1374 1.368 . S
C1390 C1386 1.368 . S
C1390 C1389 1.523 . S
H1391 C1366 0.950 . S
H1392 C1368 0.950 . S
H1393 C1369 0.949 . S
H1394 C1371 0.950 . S
H1395 C1373 0.950 . S
C1396 C1397 1.349 . S
C1396 C1398 1.327 . S
C1396 H1421 0.950 . S
C1397 C1396 1.349 . S
C1397 C1413 1.349 . S
C1398 C1396 1.327 . S
C1398 C1417 1.429 . S
C1398 H1422 0.950 . S
C1399 C1416 1.574 . S
C1399 C1418 1.368 . S
C1399 H1423 0.949 . S
H1400 C1404 0.949 . S
C1401 C1402 1.349 . S
C1401 C1403 1.327 . S
C1401 H1424 0.950 . S
C1402 C1401 1.349 . S
C1402 C1414 1.349 . S
C1403 C1401 1.327 . S
C1403 C1419 1.429 . S
C1403 H1425 0.950 . S
C1404 H1400 0.949 . S
C1404 C1412 1.574 . S
C1404 C1420 1.368 . S
H1405 C1413 0.950 . S
H1406 C1411 0.950 . S
H1407 C1412 0.949 . S
H1408 C1414 0.950 . S
H1409 C1415 0.950 . S
H1410 C1416 0.949 . S
C1411 H1406 0.950 . S
C1411 C1413 1.327 . S
C1411 C1417 1.429 . S
C1412 C1404 1.574 . S
C1412 H1407 0.949 . S
C1412 C1418 1.368 . S
C1413 C1397 1.349 . S
C1413 H1405 0.950 . S
C1413 C1411 1.327 . S
C1414 C1402 1.349 . S
C1414 H1408 0.950 . S
C1414 C1415 1.327 . S
C1415 H1409 0.950 . S
C1415 C1414 1.327 . S
C1415 C1419 1.429 . S
C1416 C1399 1.574 . S
C1416 H1410 0.949 . S
C1416 C1420 1.368 . S
C1417 C1398 1.429 . S
C1417 C1411 1.429 . S
C1417 C1418 1.523 . S
C1418 C1399 1.368 . S
C1418 C1412 1.368 . S
C1418 C1417 1.523 . S
C1419 C1403 1.429 . S
C1419 C1415 1.429 . S
C1419 C1420 1.523 . S
C1420 C1404 1.368 . S
C1420 C1416 1.368 . S
C1420 C1419 1.523 . S
H1421 C1396 0.950 . S
H1422 C1398 0.950 . S
H1423 C1399 0.949 . S
H1424 C1401 0.950 . S
H1425 C1403 0.950 . S
C1426 C1427 1.349 . S
C1426 C1428 1.327 . S
C1426 H1451 0.950 . S
C1427 C1426 1.349 . S
C1427 C1443 1.349 . S
C1428 C1426 1.327 . S
C1428 C1447 1.429 . S
C1428 H1452 0.950 . S
C1429 C1446 1.574 . S
C1429 C1448 1.368 . S
C1429 H1453 0.949 . S
H1430 C1434 0.949 . S
C1431 C1432 1.349 . S
C1431 C1433 1.327 . S
C1431 H1454 0.950 . S
C1432 C1431 1.349 . S
C1432 C1444 1.349 . S
C1433 C1431 1.327 . S
C1433 C1449 1.429 . S
C1433 H1455 0.950 . S
C1434 H1430 0.949 . S
C1434 C1442 1.574 . S
C1434 C1450 1.368 . S
H1435 C1443 0.950 . S
H1436 C1441 0.950 . S
H1437 C1442 0.949 . S
H1438 C1444 0.950 . S
H1439 C1445 0.950 . S
H1440 C1446 0.949 . S
C1441 H1436 0.950 . S
C1441 C1443 1.327 . S
C1441 C1447 1.429 . S
C1442 C1434 1.574 . S
C1442 H1437 0.949 . S
C1442 C1448 1.368 . S
C1443 C1427 1.349 . S
C1443 H1435 0.950 . S
C1443 C1441 1.327 . S
C1444 C1432 1.349 . S
C1444 H1438 0.950 . S
C1444 C1445 1.327 . S
C1445 H1439 0.950 . S
C1445 C1444 1.327 . S
C1445 C1449 1.429 . S
C1446 C1429 1.574 . S
C1446 H1440 0.949 . S
C1446 C1450 1.368 . S
C1447 C1428 1.429 . S
C1447 C1441 1.429 . S
C1447 C1448 1.523 . S
C1448 C1429 1.368 . S
C1448 C1442 1.368 . S
C1448 C1447 1.523 . S
C1449 C1433 1.429 . S
C1449 C1445 1.429 . S
C1449 C1450 1.523 . S
C1450 C1434 1.368 . S
C1450 C1446 1.368 . S
C1450 C1449 1.523 . S
H1451 C1426 0.950 . S
H1452 C1428 0.950 . S
H1453 C1429 0.949 . S
H1454 C1431 0.950 . S
H1455 C1433 0.950 . S
C1456 C1457 1.349 . S
C1456 C1458 1.327 . S
C1456 H1481 0.950 . S
C1457 C1456 1.349 . S
C1457 C1473 1.349 . S
C1458 C1456 1.327 . S
C1458 C1477 1.429 . S
C1458 H1482 0.950 . S
C1459 C1476 1.574 . S
C1459 C1478 1.368 . S
C1459 H1483 0.949 . S
H1460 C1464 0.949 . S
C1461 C1462 1.349 . S
C1461 C1463 1.327 . S
C1461 H1484 0.950 . S
C1462 C1461 1.349 . S
C1462 C1474 1.349 . S
C1463 C1461 1.327 . S
C1463 C1479 1.429 . S
C1463 H1485 0.950 . S
C1464 H1460 0.949 . S
C1464 C1472 1.574 . S
C1464 C1480 1.368 . S
H1465 C1473 0.950 . S
H1466 C1471 0.950 . S
H1467 C1472 0.949 . S
H1468 C1474 0.950 . S
H1469 C1475 0.950 . S
H1470 C1476 0.949 . S
C1471 H1466 0.950 . S
C1471 C1473 1.327 . S
C1471 C1477 1.429 . S
C1472 C1464 1.574 . S
C1472 H1467 0.949 . S
C1472 C1478 1.368 . S
C1473 C1457 1.349 . S
C1473 H1465 0.950 . S
C1473 C1471 1.327 . S
C1474 C1462 1.349 . S
C1474 H1468 0.950 . S
C1474 C1475 1.327 . S
C1475 H1469 0.950 . S
C1475 C1474 1.327 . S
C1475 C1479 1.429 . S
C1476 C1459 1.574 . S
C1476 H1470 0.949 . S
C1476 C1480 1.368 . S
C1477 C1458 1.429 . S
C1477 C1471 1.429 . S
C1477 C1478 1.523 . S
C1478 C1459 1.368 . S
C1478 C1472 1.368 . S
C1478 C1477 1.523 . S
C1479 C1463 1.429 . S
C1479 C1475 1.429 . S
C1479 C1480 1.523 . S
C1480 C1464 1.368 . S
C1480 C1476 1.368 . S
C1480 C1479 1.523 . S
H1481 C1456 0.950 . S
H1482 C1458 0.950 . S
H1483 C1459 0.949 . S
H1484 C1461 0.950 . S
H1485 C1463 0.950 . S
C1486 C1487 1.349 . S
C1486 C1488 1.327 . S
C1486 H1511 0.950 . S
C1487 C1486 1.349 . S
C1487 C1503 1.349 . S
C1488 C1486 1.327 . S
C1488 C1507 1.429 . S
C1488 H1512 0.950 . S
C1489 C1506 1.574 . S
C1489 C1508 1.368 . S
C1489 H1513 0.949 . S
H1490 C1494 0.949 . S
C1491 C1492 1.349 . S
C1491 C1493 1.327 . S
C1491 H1514 0.950 . S
C1492 C1491 1.349 . S
C1492 C1504 1.349 . S
C1493 C1491 1.327 . S
C1493 C1509 1.429 . S
C1493 H1515 0.950 . S
C1494 H1490 0.949 . S
C1494 C1502 1.574 . S
C1494 C1510 1.368 . S
H1495 C1503 0.950 . S
H1496 C1501 0.950 . S
H1497 C1502 0.949 . S
H1498 C1504 0.950 . S
H1499 C1505 0.950 . S
H1500 C1506 0.949 . S
C1501 H1496 0.950 . S
C1501 C1503 1.327 . S
C1501 C1507 1.429 . S
C1502 C1494 1.574 . S
C1502 H1497 0.949 . S
C1502 C1508 1.368 . S
C1503 C1487 1.349 . S
C1503 H1495 0.950 . S
C1503 C1501 1.327 . S
C1504 C1492 1.349 . S
C1504 H1498 0.950 . S
C1504 C1505 1.327 . S
C1505 H1499 0.950 . S
C1505 C1504 1.327 . S
C1505 C1509 1.429 . S
C1506 C1489 1.574 . S
C1506 H1500 0.949 . S
C1506 C1510 1.368 . S
C1507 C1488 1.429 . S
C1507 C1501 1.429 . S
C1507 C1508 1.523 . S
C1508 C1489 1.368 . S
C1508 C1502 1.368 . S
C1508 C1507 1.523 . S
C1509 C1493 1.429 . S
C1509 C1505 1.429 . S
C1509 C1510 1.523 . S
C1510 C1494 1.368 . S
C1510 C1506 1.368 . S
C1510 C1509 1.523 . S
H1511 C1486 0.950 . S
H1512 C1488 0.950 . S
H1513 C1489 0.949 . S
H1514 C1491 0.950 . S
H1515 C1493 0.950 . S
C1516 C1517 1.349 . S
C1516 C1518 1.327 . S
C1516 H1541 0.950 . S
C1517 C1516 1.349 . S
C1517 C1533 1.349 . S
C1518 C1516 1.327 . S
C1518 C1537 1.429 . S
C1518 H1542 0.950 . S
C1519 C1536 1.574 . S
C1519 C1538 1.368 . S
C1519 H1543 0.949 . S
H1520 C1524 0.949 . S
C1521 C1522 1.349 . S
C1521 C1523 1.327 . S
C1521 H1544 0.950 . S
C1522 C1521 1.349 . S
C1522 C1534 1.349 . S
C1523 C1521 1.327 . S
C1523 C1539 1.429 . S
C1523 H1545 0.950 . S
C1524 H1520 0.949 . S
C1524 C1532 1.574 . S
C1524 C1540 1.368 . S
H1525 C1533 0.950 . S
H1526 C1531 0.950 . S
H1527 C1532 0.949 . S
H1528 C1534 0.950 . S
H1529 C1535 0.950 . S
H1530 C1536 0.949 . S
C1531 H1526 0.950 . S
C1531 C1533 1.327 . S
C1531 C1537 1.429 . S
C1532 C1524 1.574 . S
C1532 H1527 0.949 . S
C1532 C1538 1.368 . S
C1533 C1517 1.349 . S
C1533 H1525 0.950 . S
C1533 C1531 1.327 . S
C1534 C1522 1.349 . S
C1534 H1528 0.950 . S
C1534 C1535 1.327 . S
C1535 H1529 0.950 . S
C1535 C1534 1.327 . S
C1535 C1539 1.429 . S
C1536 C1519 1.574 . S
C1536 H1530 0.949 . S
C1536 C1540 1.368 . S
C1537 C1518 1.429 . S
C1537 C1531 1.429 . S
C1537 C1538 1.523 . S
C1538 C1519 1.368 . S
C1538 C1532 1.368 . S
C1538 C1537 1.523 . S
C1539 C1523 1.429 . S
C1539 C1535 1.429 . S
C1539 C1540 1.523 . S
C1540 C1524 1.368 . S
C1540 C1536 1.368 . S
C1540 C1539 1.523 . S
H1541 C1516 0.950 . S
H1542 C1518 0.950 . S
H1543 C1519 0.949 . S
H1544 C1521 0.950 . S
H1545 C1523 0.950 . S
C1546 C1547 1.349 . S
C1546 C1548 1.327 . S
C1546 H1571 0.950 . S
C1547 C1546 1.349 . S
C1547 C1563 1.349 . S
C1548 C1546 1.327 . S
C1548 C1567 1.429 . S
C1548 H1572 0.950 . S
C1549 C1566 1.574 . S
C1549 C1568 1.368 . S
C1549 H1573 0.949 . S
H1550 C1554 0.949 . S
C1551 C1552 1.349 . S
C1551 C1553 1.327 . S
C1551 H1574 0.950 . S
C1552 C1551 1.349 . S
C1552 C1564 1.349 . S
C1553 C1551 1.327 . S
C1553 C1569 1.429 . S
C1553 H1575 0.950 . S
C1554 H1550 0.949 . S
C1554 C1562 1.574 . S
C1554 C1570 1.368 . S
H1555 C1563 0.950 . S
H1556 C1561 0.950 . S
H1557 C1562 0.949 . S
H1558 C1564 0.950 . S
H1559 C1565 0.950 . S
H1560 C1566 0.949 . S
C1561 H1556 0.950 . S
C1561 C1563 1.327 . S
C1561 C1567 1.429 . S
C1562 C1554 1.574 . S
C1562 H1557 0.949 . S
C1562 C1568 1.368 . S
C1563 C1547 1.349 . S
C1563 H1555 0.950 . S
C1563 C1561 1.327 . S
C1564 C1552 1.349 . S
C1564 H1558 0.950 . S
C1564 C1565 1.327 . S
C1565 H1559 0.950 . S
C1565 C1564 1.327 . S
C1565 C1569 1.429 . S
C1566 C1549 1.574 . S
C1566 H1560 0.949 . S
C1566 C1570 1.368 . S
C1567 C1548 1.429 . S
C1567 C1561 1.429 . S
C1567 C1568 1.523 . S
C1568 C1549 1.368 . S
C1568 C1562 1.368 . S
C1568 C1567 1.523 . S
C1569 C1553 1.429 . S
C1569 C1565 1.429 . S
C1569 C1570 1.523 . S
C1570 C1554 1.368 . S
C1570 C1566 1.368 . S
C1570 C1569 1.523 . S
H1571 C1546 0.950 . S
H1572 C1548 0.950 . S
H1573 C1549 0.949 . S
H1574 C1551 0.950 . S
H1575 C1553 0.950 . S
C1576 C1577 1.349 . S
C1576 C1578 1.327 . S
C1576 H1601 0.950 . S
C1577 C1576 1.349 . S
C1577 C1593 1.349 . S
C1578 C1576 1.327 . S
C1578 C1597 1.429 . S
C1578 H1602 0.950 . S
C1579 C1596 1.574 . S
C1579 C1598 1.368 . S
C1579 H1603 0.949 . S
H1580 C1584 0.949 . S
C1581 C1582 1.349 . S
C1581 C1583 1.327 . S
C1581 H1604 0.950 . S
C1582 C1581 1.349 . S
C1582 C1594 1.349 . S
C1583 C1581 1.327 . S
C1583 C1599 1.429 . S
C1583 H1605 0.950 . S
C1584 H1580 0.949 . S
C1584 C1592 1.574 . S
C1584 C1600 1.368 . S
H1585 C1593 0.950 . S
H1586 C1591 0.950 . S
H1587 C1592 0.949 . S
H1588 C1594 0.950 . S
H1589 C1595 0.950 . S
H1590 C1596 0.949 . S
C1591 H1586 0.950 . S
C1591 C1593 1.327 . S
C1591 C1597 1.429 . S
C1592 C1584 1.574 . S
C1592 H1587 0.949 . S
C1592 C1598 1.368 . S
C1593 C1577 1.349 . S
C1593 H1585 0.950 . S
C1593 C1591 1.327 . S
C1594 C1582 1.349 . S
C1594 H1588 0.950 . S
C1594 C1595 1.327 . S
C1595 H1589 0.950 . S
C1595 C1594 1.327 . S
C1595 C1599 1.429 . S
C1596 C1579 1.574 . S
C1596 H1590 0.949 . S
C1596 C1600 1.368 . S
C1597 C1578 1.429 . S
C1597 C1591 1.429 . S
C1597 C1598 1.523 . S
C1598 C1579 1.368 . S
C1598 C1592 1.368 . S
C1598 C1597 1.523 . S
C1599 C1583 1.429 . S
C1599 C1595 1.429 . S
C1599 C1600 1.523 . S
C1600 C1584 1.368 . S
C1600 C1596 1.368 . S
C1600 C1599 1.523 . S
H1601 C1576 0.950 . S
H1602 C1578 0.950 . S
H1603 C1579 0.949 . S
H1604 C1581 0.950 . S
H1605 C1583 0.950 . S
C1606 C1607 1.349 . S
C1606 C1608 1.327 . S
C1606 H1631 0.950 . S
C1607 C1606 1.349 . S
C1607 C1623 1.349 . S
C1608 C1606 1.327 . S
C1608 C1627 1.429 . S
C1608 H1632 0.950 . S
C1609 C1626 1.574 . S
C1609 C1628 1.368 . S
C1609 H1633 0.949 . S
H1610 C1614 0.949 . S
C1611 C1612 1.349 . S
C1611 C1613 1.327 . S
C1611 H1634 0.950 . S
C1612 C1611 1.349 . S
C1612 C1624 1.349 . S
C1613 C1611 1.327 . S
C1613 C1629 1.429 . S
C1613 H1635 0.950 . S
C1614 H1610 0.949 . S
C1614 C1622 1.574 . S
C1614 C1630 1.368 . S
H1615 C1623 0.950 . S
H1616 C1621 0.950 . S
H1617 C1622 0.949 . S
H1618 C1624 0.950 . S
H1619 C1625 0.950 . S
H1620 C1626 0.949 . S
C1621 H1616 0.950 . S
C1621 C1623 1.327 . S
C1621 C1627 1.429 . S
C1622 C1614 1.574 . S
C1622 H1617 0.949 . S
C1622 C1628 1.368 . S
C1623 C1607 1.349 . S
C1623 H1615 0.950 . S
C1623 C1621 1.327 . S
C1624 C1612 1.349 . S
C1624 H1618 0.950 . S
C1624 C1625 1.327 . S
C1625 H1619 0.950 . S
C1625 C1624 1.327 . S
C1625 C1629 1.429 . S
C1626 C1609 1.574 . S
C1626 H1620 0.949 . S
C1626 C1630 1.368 . S
C1627 C1608 1.429 . S
C1627 C1621 1.429 . S
C1627 C1628 1.523 . S
C1628 C1609 1.368 . S
C1628 C1622 1.368 . S
C1628 C1627 1.523 . S
C1629 C1613 1.429 . S
C1629 C1625 1.429 . S
C1629 C1630 1.523 . S
C1630 C1614 1.368 . S
C1630 C1626 1.368 . S
C1630 C1629 1.523 . S
H1631 C1606 0.950 . S
H1632 C1608 0.950 . S
H1633 C1609 0.949 . S
H1634 C1611 0.950 . S
H1635 C1613 0.950 . S
C1636 C1637 1.349 . S
C1636 C1638 1.327 . S
C1636 H1661 0.950 . S
C1637 C1636 1.349 . S
C1637 C1653 1.349 . S
C1638 C1636 1.327 . S
C1638 C1657 1.429 . S
C1638 H1662 0.950 . S
C1639 C1656 1.574 . S
C1639 C1658 1.368 . S
C1639 H1663 0.949 . S
H1640 C1644 0.949 . S
C1641 C1642 1.349 . S
C1641 C1643 1.327 . S
C1641 H1664 0.950 . S
C1642 C1641 1.349 . S
C1642 C1654 1.349 . S
C1643 C1641 1.327 . S
C1643 C1659 1.429 . S
C1643 H1665 0.950 . S
C1644 H1640 0.949 . S
C1644 C1652 1.574 . S
C1644 C1660 1.368 . S
H1645 C1653 0.950 . S
H1646 C1651 0.950 . S
H1647 C1652 0.949 . S
H1648 C1654 0.950 . S
H1649 C1655 0.950 . S
H1650 C1656 0.949 . S
C1651 H1646 0.950 . S
C1651 C1653 1.327 . S
C1651 C1657 1.429 . S
C1652 C1644 1.574 . S
C1652 H1647 0.949 . S
C1652 C1658 1.368 . S
C1653 C1637 1.349 . S
C1653 H1645 0.950 . S
C1653 C1651 1.327 . S
C1654 C1642 1.349 . S
C1654 H1648 0.950 . S
C1654 C1655 1.327 . S
C1655 H1649 0.950 . S
C1655 C1654 1.327 . S
C1655 C1659 1.429 . S
C1656 C1639 1.574 . S
C1656 H1650 0.949 . S
C1656 C1660 1.368 . S
C1657 C1638 1.429 . S
C1657 C1651 1.429 . S
C1657 C1658 1.523 . S
C1658 C1639 1.368 . S
C1658 C1652 1.368 . S
C1658 C1657 1.523 . S
C1659 C1643 1.429 . S
C1659 C1655 1.429 . S
C1659 C1660 1.523 . S
C1660 C1644 1.368 . S
C1660 C1656 1.368 . S
C1660 C1659 1.523 . S
H1661 C1636 0.950 . S
H1662 C1638 0.950 . S
H1663 C1639 0.949 . S
H1664 C1641 0.950 . S
H1665 C1643 0.950 . S
C1666 C1667 1.349 . S
C1666 C1668 1.327 . S
C1666 H1691 0.950 . S
C1667 C1666 1.349 . S
C1667 C1683 1.349 . S
C1668 C1666 1.327 . S
C1668 C1687 1.429 . S
C1668 H1692 0.950 . S
C1669 C1686 1.574 . S
C1669 C1688 1.368 . S
C1669 H1693 0.949 . S
H1670 C1674 0.949 . S
C1671 C1672 1.349 . S
C1671 C1673 1.327 . S
C1671 H1694 0.950 . S
C1672 C1671 1.349 . S
C1672 C1684 1.349 . S
C1673 C1671 1.327 . S
C1673 C1689 1.429 . S
C1673 H1695 0.950 . S
C1674 H1670 0.949 . S
C1674 C1682 1.574 . S
C1674 C1690 1.368 . S
H1675 C1683 0.950 . S
H1676 C1681 0.950 . S
H1677 C1682 0.949 . S
H1678 C1684 0.950 . S
H1679 C1685 0.950 . S
H1680 C1686 0.949 . S
C1681 H1676 0.950 . S
C1681 C1683 1.327 . S
C1681 C1687 1.429 . S
C1682 C1674 1.574 . S
C1682 H1677 0.949 . S
C1682 C1688 1.368 . S
C1683 C1667 1.349 . S
C1683 H1675 0.950 . S
C1683 C1681 1.327 . S
C1684 C1672 1.349 . S
C1684 H1678 0.950 . S
C1684 C1685 1.327 . S
C1685 H1679 0.950 . S
C1685 C1684 1.327 . S
C1685 C1689 1.429 . S
C1686 C1669 1.574 . S
C1686 H1680 0.949 . S
C1686 C1690 1.368 . S
C1687 C1668 1.429 . S
C1687 C1681 1.429 . S
C1687 C1688 1.523 . S
C1688 C1669 1.368 . S
C1688 C1682 1.368 . S
C1688 C1687 1.523 . S
C1689 C1673 1.429 . S
C1689 C1685 1.429 . S
C1689 C1690 1.523 . S
C1690 C1674 1.368 . S
C1690 C1686 1.368 . S
C1690 C1689 1.523 . S
H1691 C1666 0.950 . S
H1692 C1668 0.950 . S
H1693 C1669 0.949 . S
H1694 C1671 0.950 . S
H1695 C1673 0.950 . S
C1696 C1697 1.349 . S
C1696 C1698 1.327 . S
C1696 H1721 0.950 . S
C1697 C1696 1.349 . S
C1697 C1713 1.349 . S
C1698 C1696 1.327 . S
C1698 C1717 1.429 . S
C1698 H1722 0.950 . S
C1699 C1716 1.574 . S
C1699 C1718 1.368 . S
C1699 H1723 0.949 . S
H1700 C1704 0.949 . S
C1701 C1702 1.349 . S
C1701 C1703 1.327 . S
C1701 H1724 0.950 . S
C1702 C1701 1.349 . S
C1702 C1714 1.349 . S
C1703 C1701 1.327 . S
C1703 C1719 1.429 . S
C1703 H1725 0.950 . S
C1704 H1700 0.949 . S
C1704 C1712 1.574 . S
C1704 C1720 1.368 . S
H1705 C1713 0.950 . S
H1706 C1711 0.950 . S
H1707 C1712 0.949 . S
H1708 C1714 0.950 . S
H1709 C1715 0.950 . S
H1710 C1716 0.949 . S
C1711 H1706 0.950 . S
C1711 C1713 1.327 . S
C1711 C1717 1.429 . S
C1712 C1704 1.574 . S
C1712 H1707 0.949 . S
C1712 C1718 1.368 . S
C1713 C1697 1.349 . S
C1713 H1705 0.950 . S
C1713 C1711 1.327 . S
C1714 C1702 1.349 . S
C1714 H1708 0.950 . S
C1714 C1715 1.327 . S
C1715 H1709 0.950 . S
C1715 C1714 1.327 . S
C1715 C1719 1.429 . S
C1716 C1699 1.574 . S
C1716 H1710 0.949 . S
C1716 C1720 1.368 . S
C1717 C1698 1.429 . S
C1717 C1711 1.429 . S
C1717 C1718 1.523 . S
C1718 C1699 1.368 . S
C1718 C1712 1.368 . S
C1718 C1717 1.523 . S
C1719 C1703 1.429 . S
C1719 C1715 1.429 . S
C1719 C1720 1.523 . S
C1720 C1704 1.368 . S
C1720 C1716 1.368 . S
C1720 C1719 1.523 . S
H1721 C1696 0.950 . S
H1722 C1698 0.950 . S
H1723 C1699 0.949 . S
H1724 C1701 0.950 . S
H1725 C1703 0.950 . S
C1726 C1727 1.349 . S
C1726 C1728 1.327 . S
C1726 H1751 0.950 . S
C1727 C1726 1.349 . S
C1727 C1743 1.349 . S
C1728 C1726 1.327 . S
C1728 C1747 1.429 . S
C1728 H1752 0.950 . S
C1729 C1746 1.574 . S
C1729 C1748 1.368 . S
C1729 H1753 0.949 . S
H1730 C1734 0.949 . S
C1731 C1732 1.349 . S
C1731 C1733 1.327 . S
C1731 H1754 0.950 . S
C1732 C1731 1.349 . S
C1732 C1744 1.349 . S
C1733 C1731 1.327 . S
C1733 C1749 1.429 . S
C1733 H1755 0.950 . S
C1734 H1730 0.949 . S
C1734 C1742 1.574 . S
C1734 C1750 1.368 . S
H1735 C1743 0.950 . S
H1736 C1741 0.950 . S
H1737 C1742 0.949 . S
H1738 C1744 0.950 . S
H1739 C1745 0.950 . S
H1740 C1746 0.949 . S
C1741 H1736 0.950 . S
C1741 C1743 1.327 . S
C1741 C1747 1.429 . S
C1742 C1734 1.574 . S
C1742 H1737 0.949 . S
C1742 C1748 1.368 . S
C1743 C1727 1.349 . S
C1743 H1735 0.950 . S
C1743 C1741 1.327 . S
C1744 C1732 1.349 . S
C1744 H1738 0.950 . S
C1744 C1745 1.327 . S
C1745 H1739 0.950 . S
C1745 C1744 1.327 . S
C1745 C1749 1.429 . S
C1746 C1729 1.574 . S
C1746 H1740 0.949 . S
C1746 C1750 1.368 . S
C1747 C1728 1.429 . S
C1747 C1741 1.429 . S
C1747 C1748 1.523 . S
C1748 C1729 1.368 . S
C1748 C1742 1.368 . S
C1748 C1747 1.523 . S
C1749 C1733 1.429 . S
C1749 C1745 1.429 . S
C1749 C1750 1.523 . S
C1750 C1734 1.368 . S
C1750 C1746 1.368 . S
C1750 C1749 1.523 . S
H1751 C1726 0.950 . S
H1752 C1728 0.950 . S
H1753 C1729 0.949 . S
H1754 C1731 0.950 . S
H1755 C1733 0.950 . S
C1756 C1757 1.349 . S
C1756 C1758 1.327 . S
C1756 H1781 0.950 . S
C1757 C1756 1.349 . S
C1757 C1773 1.349 . S
C1758 C1756 1.327 . S
C1758 C1777 1.429 . S
C1758 H1782 0.950 . S
C1759 C1776 1.574 . S
C1759 C1778 1.368 . S
C1759 H1783 0.949 . S
H1760 C1764 0.949 . S
C1761 C1762 1.349 . S
C1761 C1763 1.327 . S
C1761 H1784 0.950 . S
C1762 C1761 1.349 . S
C1762 C1774 1.349 . S
C1763 C1761 1.327 . S
C1763 C1779 1.429 . S
C1763 H1785 0.950 . S
C1764 H1760 0.949 . S
C1764 C1772 1.574 . S
C1764 C1780 1.368 . S
H1765 C1773 0.950 . S
H1766 C1771 0.950 . S
H1767 C1772 0.949 . S
H1768 C1774 0.950 . S
H1769 C1775 0.950 . S
H1770 C1776 0.949 . S
C1771 H1766 0.950 . S
C1771 C1773 1.327 . S
C1771 C1777 1.429 . S
C1772 C1764 1.574 . S
C1772 H1767 0.949 . S
C1772 C1778 1.368 . S
C1773 C1757 1.349 . S
C1773 H1765 0.950 . S
C1773 C1771 1.327 . S
C1774 C1762 1.349 . S
C1774 H1768 0.950 . S
C1774 C1775 1.327 . S
C1775 H1769 0.950 . S
C1775 C1774 1.327 . S
C1775 C1779 1.429 . S
C1776 C1759 1.574 . S
C1776 H1770 0.949 . S
C1776 C1780 1.368 . S
C1777 C1758 1.429 . S
C1777 C1771 1.429 . S
C1777 C1778 1.523 . S
C1778 C1759 1.368 . S
C1778 C1772 1.368 . S
C1778 C1777 1.523 . S
C1779 C1763 1.429 . S
C1779 C1775 1.429 . S
C1779 C1780 1.523 . S
C1780 C1764 1.368 . S
C1780 C1776 1.368 . S
C1780 C1779 1.523 . S
H1781 C1756 0.950 . S
H1782 C1758 0.950 . S
H1783 C1759 0.949 . S
H1784 C1761 0.950 . S
H1785 C1763 0.950 . S
C352 C171 2.084 . S
C347 C19 2.079 . S
C382 C161 1.683 . S
C377 C24 1.623 . S
C412 C162 0.829 . S
C407 C59 0.833 . S
C437 C69 1.449 . S
C442 C184 1.453 . S
C467 C82 1.623 . S
C472 C187 1.684 . S
C502 C170 0.829 . S
C497 C118 0.829 . S
C527 C132 1.449 . S
C532 C160 1.454 . S
C557 C158 2.081 . S
C562 C178 2.086 . S
C592 C191 1.765 . S
C587 C4 1.674 . S
C617 C29 0.925 . S
C622 C240 0.916 . S
C652 C218 1.691 . S
C647 C44 1.610 . S
C682 C232 0.821 . S
C677 C79 0.825 . S
C707 C98 0.827 . S
C712 C193 0.826 . S
C742 C246 1.460 . S
C737 C112 1.447 . S
C767 C122 1.157 . S
C772 C202 1.180 . S
C797 C152 1.391 . S
C802 C223 1.423 . S
C827 C9 1.391 . S
C832 C249 1.418 . S
C857 C92 0.925 . S
C862 C233 0.920 . S
C892 C192 1.691 . S
C887 C102 1.611 . S
C922 C224 0.821 . S
C917 C138 0.830 . S
C947 C142 1.677 . S
C952 C215 1.767 . S
C977 C49 1.447 . S
C982 C222 1.460 . S
C1012 C209 1.179 . S
C1007 C64 1.157 . S
C1037 C39 0.827 . S
C1042 C201 0.823 . S
C1067 C159 2.081 . S
C1072 C264 2.086 . S
C1097 C84 1.623 . S
C1102 C254 1.685 . S
C1132 C255 0.829 . S
C1127 C119 0.832 . S
C1162 C277 1.453 . S
C1157 C129 1.449 . S
C1187 C22 1.623 . S
C1192 C280 1.682 . S
C1222 C263 0.829 . S
C1217 C58 0.831 . S
C1247 C72 1.449 . S
C1252 C253 1.452 . S
C1277 C18 2.081 . S
C1282 C271 2.083 . S
C1307 C144 1.677 . S
C1312 C284 1.766 . S
C1342 C333 0.918 . S
C1337 C89 0.925 . S
C1367 C104 1.610 . S
C1372 C311 1.690 . S
C1397 C139 0.827 . S
C1402 C325 0.821 . S
C1432 C286 0.825 . S
C1427 C38 0.827 . S
C1457 C52 1.447 . S
C1462 C339 1.461 . S
C1492 C295 1.179 . S
C1487 C62 1.157 . S
C1522 C316 1.421 . S
C1517 C12 1.390 . S
C1552 C342 1.421 . S
C1547 C149 1.392 . S
C1577 C32 0.925 . S
C1582 C326 0.917 . S
C1607 C42 1.611 . S
C1612 C285 1.692 . S
C1642 C317 0.821 . S
C1637 C78 0.828 . S
C1667 C2 1.677 . S
C1672 C308 1.764 . S
C1697 C109 1.447 . S
C1702 C315 1.459 . S
C1732 C302 1.179 . S
C1727 C124 1.157 . S
C1762 C294 0.825 . S
C1757 C99 0.827 . S
