# Generated by pormake.
# Topology wbl, (4,4)-cn, num edge types: 1
# Building blocks:
#     Node 0, Type 0, BuildingBlock: MUDLON_clean_sbu_0, # of connection points: 4
#     Node 1, Type 0, BuildingBlock: MUDLON_clean_sbu_0, # of connection points: 4
#     Node 2, Type 0, BuildingBlock: MUDLON_clean_sbu_0, # of connection points: 4
#     Node 3, Type 0, BuildingBlock: MUDLON_clean_sbu_0, # of connection points: 4
#     Node 4, Type 0, BuildingBlock: MUDLON_clean_sbu_0, # of connection points: 4
#     Node 5, Type 0, BuildingBlock: MUDLON_clean_sbu_0, # of connection points: 4
#     Node 6, Type 0, BuildingBlock: MUDLON_clean_sbu_0, # of connection points: 4
#     Node 7, Type 0, BuildingBlock: MUDLON_clean_sbu_0, # of connection points: 4
#     Node 8, Type 1, BuildingBlock: TATPOV_clean_sbu_0, # of connection points: 4
#     Node 9, Type 1, BuildingBlock: TATPOV_clean_sbu_0, # of connection points: 4
#     Node 10, Type 1, BuildingBlock: TATPOV_clean_sbu_0, # of connection points: 4
#     Node 11, Type 1, BuildingBlock: TATPOV_clean_sbu_0, # of connection points: 4
#     Node 12, Type 1, BuildingBlock: TATPOV_clean_sbu_0, # of connection points: 4
#     Node 13, Type 1, BuildingBlock: TATPOV_clean_sbu_0, # of connection points: 4
#     Node 14, Type 1, BuildingBlock: TATPOV_clean_sbu_0, # of connection points: 4
#     Node 15, Type 1, BuildingBlock: TATPOV_clean_sbu_0, # of connection points: 4
#     Edge 16, Type (0, 1), BuildingBlock: MIFKUJ_clean_linker_0, # of connection points: 2
#     Edge 17, Type (0, 1), BuildingBlock: MIFKUJ_clean_linker_0, # of connection points: 2
#     Edge 18, Type (0, 1), BuildingBlock: MIFKUJ_clean_linker_0, # of connection points: 2
#     Edge 19, Type (0, 1), BuildingBlock: MIFKUJ_clean_linker_0, # of connection points: 2
#     Edge 20, Type (0, 1), BuildingBlock: MIFKUJ_clean_linker_0, # of connection points: 2
#     Edge 21, Type (0, 1), BuildingBlock: MIFKUJ_clean_linker_0, # of connection points: 2
#     Edge 22, Type (0, 1), BuildingBlock: MIFKUJ_clean_linker_0, # of connection points: 2
#     Edge 23, Type (0, 1), BuildingBlock: MIFKUJ_clean_linker_0, # of connection points: 2
#     Edge 24, Type (0, 1), BuildingBlock: MIFKUJ_clean_linker_0, # of connection points: 2
#     Edge 25, Type (0, 1), BuildingBlock: MIFKUJ_clean_linker_0, # of connection points: 2
#     Edge 26, Type (0, 1), BuildingBlock: MIFKUJ_clean_linker_0, # of connection points: 2
#     Edge 27, Type (0, 1), BuildingBlock: MIFKUJ_clean_linker_0, # of connection points: 2
#     Edge 28, Type (0, 1), BuildingBlock: MIFKUJ_clean_linker_0, # of connection points: 2
#     Edge 29, Type (0, 1), BuildingBlock: MIFKUJ_clean_linker_0, # of connection points: 2
#     Edge 30, Type (0, 1), BuildingBlock: MIFKUJ_clean_linker_0, # of connection points: 2
#     Edge 31, Type (0, 1), BuildingBlock: MIFKUJ_clean_linker_0, # of connection points: 2
#     Edge 32, Type (0, 1), BuildingBlock: MIFKUJ_clean_linker_0, # of connection points: 2
#     Edge 33, Type (0, 1), BuildingBlock: MIFKUJ_clean_linker_0, # of connection points: 2
#     Edge 34, Type (0, 1), BuildingBlock: MIFKUJ_clean_linker_0, # of connection points: 2
#     Edge 35, Type (0, 1), BuildingBlock: MIFKUJ_clean_linker_0, # of connection points: 2
#     Edge 36, Type (0, 1), BuildingBlock: MIFKUJ_clean_linker_0, # of connection points: 2
#     Edge 37, Type (0, 1), BuildingBlock: MIFKUJ_clean_linker_0, # of connection points: 2
#     Edge 38, Type (0, 1), BuildingBlock: MIFKUJ_clean_linker_0, # of connection points: 2
#     Edge 39, Type (0, 1), BuildingBlock: MIFKUJ_clean_linker_0, # of connection points: 2
#     Edge 40, Type (0, 1), BuildingBlock: MIFKUJ_clean_linker_0, # of connection points: 2
#     Edge 41, Type (0, 1), BuildingBlock: MIFKUJ_clean_linker_0, # of connection points: 2
#     Edge 42, Type (0, 1), BuildingBlock: MIFKUJ_clean_linker_0, # of connection points: 2
#     Edge 43, Type (0, 1), BuildingBlock: MIFKUJ_clean_linker_0, # of connection points: 2
#     Edge 44, Type (0, 1), BuildingBlock: MIFKUJ_clean_linker_0, # of connection points: 2
#     Edge 45, Type (0, 1), BuildingBlock: MIFKUJ_clean_linker_0, # of connection points: 2
#     Edge 46, Type (0, 1), BuildingBlock: MIFKUJ_clean_linker_0, # of connection points: 2
#     Edge 47, Type (0, 1), BuildingBlock: MIFKUJ_clean_linker_0, # of connection points: 2
# Relax obj value: 0.243
# Max RMSD: 0.231
# Mean RMSD: 0.173
data_MOF--net-wbl--node1-MUDLON_clean_sbu_0--node2-TATPOV_clean_sbu_0--edge1-MIFKUJ_clean_linker_0
_symmetry_space_group_name_H-M    P1
_symmetry_Int_Tables_number       1
_symmetry_cell_setting            triclinic
loop_
_symmetry_equiv_pos_as_xyz
'x, y, z'
_cell_length_a     44.73223
_cell_length_b     44.732204
_cell_length_c     95.263611
_cell_angle_alpha  91.188786
_cell_angle_beta   91.336465
_cell_angle_gamma 89.954173
loop_
_atom_site_label
_atom_site_type_symbol
_atom_site_fract_x
_atom_site_fract_y
_atom_site_fract_z
_atom_type_partial_charge
Mg0 Mg 0.21629 0.14546 0.356 0.0
C1 C 0.2185 0.08778 0.37422 0.0
O2 O 0.20917 0.07219 0.36313 0.0
C3 C 0.15419 0.12227 0.3442 0.0
O4 O 0.15197 0.10685 0.35572 0.0
C5 C 0.25213 0.13643 0.33016 0.0
O6 O 0.22622 0.14412 0.32456 0.0
O7 O 0.25589 0.13915 0.34341 0.0
O8 O 0.22207 0.1158 0.37342 0.0
O9 O 0.20567 0.18717 0.36722 0.0
C10 C 0.18187 0.18169 0.37382 0.0
O11 O 0.17035 0.15479 0.37252 0.0
O12 O 0.17765 0.13741 0.34215 0.0
Mg13 Mg 0.01765 0.67931 0.60565 0.0
C14 C 0.07507 0.6811 0.62377 0.0
O15 O 0.08652 0.69319 0.61268 0.0
C16 C 0.0277 0.61843 0.59071 0.0
O17 O 0.05049 0.61596 0.59957 0.0
C18 C 0.05611 0.7064 0.58546 0.0
O19 O 0.06001 0.67743 0.58394 0.0
O20 O 0.03648 0.71579 0.59394 0.0
O21 O 0.04846 0.67117 0.62309 0.0
O22 O 0.977 0.68634 0.61719 0.0
C23 C 0.95683 0.66634 0.61609 0.0
O24 O 0.9567 0.64818 0.60508 0.0
O25 O 0.01119 0.64151 0.59132 0.0
Mg26 Mg 0.50684 0.49798 0.85488 0.0
C27 C 0.5243 0.53211 0.88137 0.0
O28 O 0.53459 0.50567 0.88477 0.0
C29 C 0.56278 0.50887 0.83739 0.0
O30 O 0.56882 0.53002 0.8468 0.0
C31 C 0.47254 0.53363 0.83664 0.0
O32 O 0.5008 0.54138 0.83615 0.0
O33 O 0.46569 0.51172 0.84427 0.0
O34 O 0.51447 0.53602 0.86893 0.0
O35 O 0.5099 0.45883 0.86825 0.0
C36 C 0.53446 0.44457 0.86731 0.0
O37 O 0.55195 0.4505 0.85685 0.0
O38 O 0.53931 0.49325 0.83846 0.0
Mg39 Mg 0.66809 0.00425 0.1027 0.0
C40 C 0.69561 0.0564 0.11694 0.0
O41 O 0.71539 0.04838 0.10762 0.0
C42 C 0.62617 0.96712 0.08775 0.0
O43 O 0.65093 0.95161 0.08938 0.0
C44 C 0.69213 0.01498 0.07371 0.0
O45 O 0.66433 0.00853 0.07012 0.0
O46 O 0.70092 0.01112 0.08636 0.0
O47 O 0.6701 0.04381 0.11637 0.0
O48 O 0.67222 0.96794 0.11762 0.0
C49 C 0.68187 0.97389 0.13004 0.0
O50 O 0.69728 0.99854 0.13233 0.0
O51 O 0.62561 0.99389 0.09249 0.0
Mg52 Mg 0.00682 0.64807 0.92537 0.0
C53 C 0.00719 0.71061 0.91031 0.0
O54 O 0.97781 0.71057 0.91016 0.0
C55 C 0.94369 0.63098 0.93234 0.0
O56 O 0.94142 0.6271 0.91865 0.0
C57 C 0.03992 0.64917 0.95228 0.0
O58 O 0.01542 0.66414 0.95508 0.0
O59 O 0.04274 0.63773 0.94005 0.0
O60 O 0.02142 0.68978 0.91639 0.0
O61 O 0.00265 0.61565 0.90811 0.0
C62 C 0.99238 0.62573 0.89658 0.0
O63 O 0.98621 0.65433 0.89583 0.0
O64 O 0.96661 0.64428 0.93755 0.0
Mg65 Mg 0.54171 0.47369 0.17304 0.0
C66 C 0.47947 0.47907 0.15444 0.0
O67 O 0.47442 0.45013 0.15398 0.0
C68 C 0.54551 0.41139 0.19391 0.0
O69 O 0.52156 0.39462 0.19471 0.0
C70 C 0.52259 0.51344 0.19427 0.0
O71 O 0.50272 0.49189 0.19282 0.0
O72 O 0.54636 0.51157 0.18722 0.0
O73 O 0.50196 0.48941 0.16138 0.0
O74 O 0.57397 0.46816 0.15662 0.0
C75 C 0.56285 0.45544 0.14563 0.0
O76 O 0.53492 0.44658 0.14556 0.0
O77 O 0.54417 0.43435 0.18623 0.0
Mg78 Mg 0.69116 0.99894 0.42528 0.0
C79 C 0.69629 0.05694 0.40951 0.0
O80 O 0.70661 0.06731 0.42168 0.0
C81 C 0.62837 0.00534 0.43766 0.0
O82 O 0.61968 0.00863 0.42452 0.0
C83 C 0.7326 0.01799 0.44868 0.0
O84 O 0.70838 0.01211 0.45564 0.0
O85 O 0.73319 0.01104 0.43568 0.0
O86 O 0.6861 0.03048 0.40859 0.0
O87 O 0.68894 0.95708 0.41334 0.0
C88 C 0.66581 0.94093 0.41449 0.0
O89 O 0.64828 0.94603 0.42514 0.0
O90 O 0.65595 0.00172 0.44058 0.0
Mg91 Mg 0.17823 0.17189 0.67819 0.0
C92 C 0.23334 0.14188 0.66784 0.0
O93 O 0.22381 0.12159 0.67644 0.0
C94 C 0.16083 0.22369 0.69835 0.0
O95 O 0.1728 0.20774 0.70843 0.0
C96 C 0.19307 0.13895 0.70439 0.0
O97 O 0.21363 0.15993 0.70497 0.0
O98 O 0.17425 0.13844 0.69418 0.0
O99 O 0.22085 0.16743 0.66789 0.0
O100 O 0.14633 0.16566 0.66088 0.0
C101 C 0.15421 0.17888 0.64986 0.0
O102 O 0.18014 0.19263 0.64996 0.0
O103 O 0.16406 0.21556 0.68562 0.0
Zn104 Zn 0.36157 0.75819 0.00371 0.0
Zn105 Zn 0.38201 0.71752 0.02258 0.0
O106 O 0.33652 0.71095 0.02149 0.0
O107 O 0.31916 0.74649 0.00781 0.0
O108 O 0.3962 0.69074 0.0383 0.0
O109 O 0.38171 0.79222 0.01438 0.0
O110 O 0.39848 0.75851 0.02911 0.0
C111 C 0.31469 0.72439 0.01556 0.0
C112 C 0.39996 0.71063 0.9922 0.0
O113 O 0.40157 0.70155 0.00479 0.0
O114 O 0.38468 0.73367 0.98923 0.0
C115 C 0.38692 0.66407 0.03946 0.0
O116 O 0.36813 0.65303 0.0299 0.0
C117 C 0.39705 0.78555 0.02519 0.0
Zn118 Zn 0.43377 0.83068 0.28384 0.0
Zn119 Zn 0.46662 0.85777 0.26461 0.0
O120 O 0.43008 0.88597 0.2672 0.0
O121 O 0.40178 0.86179 0.28179 0.0
O122 O 0.48872 0.87331 0.2479 0.0
O123 O 0.43189 0.79135 0.2731 0.0
O124 O 0.45997 0.81413 0.25801 0.0
C125 C 0.40638 0.88445 0.27439 0.0
C126 C 0.49197 0.85333 0.29416 0.0
O127 O 0.49575 0.86129 0.28155 0.0
O128 O 0.4681 0.84023 0.29749 0.0
C129 C 0.50817 0.89403 0.2482 0.0
O130 O 0.51435 0.90819 0.26013 0.0
C131 C 0.44658 0.7907 0.26191 0.0
Zn132 Zn 0.33993 0.88221 0.51092 0.0
Zn133 Zn 0.33464 0.93047 0.52829 0.0
O134 O 0.37979 0.92403 0.52682 0.0
O135 O 0.38502 0.88412 0.51322 0.0
O136 O 0.33117 0.96236 0.54344 0.0
O137 O 0.31394 0.85688 0.52297 0.0
O138 O 0.30731 0.89785 0.53566 0.0
C139 C 0.39656 0.90548 0.52041 0.0
C140 C 0.31325 0.93566 0.49826 0.0
O141 O 0.31811 0.94813 0.51023 0.0
O142 O 0.31977 0.90833 0.49618 0.0
C143 C 0.31107 0.98246 0.54336 0.0
O144 O 0.29224 0.98384 0.5326 0.0
C145 C 0.30114 0.87053 0.53293 0.0
Zn146 Zn 0.28089 0.8124 0.7623 0.0
Zn147 Zn 0.23416 0.80196 0.77903 0.0
O148 O 0.23485 0.84743 0.77672 0.0
O149 O 0.27563 0.85713 0.7651 0.0
O150 O 0.20474 0.79532 0.79435 0.0
O151 O 0.30977 0.78851 0.77422 0.0
O152 O 0.2704 0.77888 0.78673 0.0
C153 C 0.25244 0.86607 0.77129 0.0
C154 C 0.22893 0.77997 0.74925 0.0
O155 O 0.21708 0.78231 0.76125 0.0
O156 O 0.25486 0.79051 0.74734 0.0
C157 C 0.17793 0.80467 0.79462 0.0
O158 O 0.16703 0.8197 0.78395 0.0
C159 C 0.298 0.77504 0.78425 0.0
Zn160 Zn 0.91964 0.30894 0.5218 0.0
Zn161 Zn 0.96526 0.29521 0.50447 0.0
O162 O 0.96582 0.3409 0.50626 0.0
O163 O 0.92592 0.35305 0.51825 0.0
O164 O 0.99583 0.28569 0.48976 0.0
O165 O 0.8905 0.28404 0.51011 0.0
O166 O 0.92809 0.27323 0.49643 0.0
C167 C 0.94892 0.36066 0.5117 0.0
C168 C 0.97027 0.27661 0.53472 0.0
O169 O 0.98123 0.27703 0.5225 0.0
O170 O 0.94503 0.28853 0.537 0.0
C171 C 0.01972 0.30045 0.48809 0.0
O172 O 0.02612 0.32308 0.49664 0.0
C173 C 0.90071 0.27023 0.49953 0.0
Zn174 Zn 0.85888 0.39284 0.76575 0.0
Zn175 Zn 0.86976 0.43974 0.74895 0.0
O176 O 0.82447 0.438 0.75079 0.0
O177 O 0.81414 0.39736 0.76237 0.0
O178 O 0.87495 0.47112 0.7343 0.0
O179 O 0.88427 0.36531 0.75395 0.0
O180 O 0.89369 0.40431 0.74108 0.0
C181 C 0.80549 0.42059 0.75608 0.0
C182 C 0.88988 0.4446 0.77922 0.0
O183 O 0.88816 0.45617 0.76713 0.0
O184 O 0.8794 0.41867 0.78116 0.0
C185 C 0.89504 0.49121 0.73488 0.0
O186 O 0.91375 0.49245 0.74571 0.0
C187 C 0.89784 0.37687 0.74389 0.0
Zn188 Zn 0.8036 0.34326 0.0219 0.0
Zn189 Zn 0.75906 0.3433 0.00251 0.0
O190 O 0.76619 0.29808 0.00578 0.0
O191 O 0.8041 0.29815 0.02095 0.0
O192 O 0.72889 0.34565 0.98643 0.0
O193 O 0.83026 0.36929 0.01042 0.0
O194 O 0.79258 0.37008 0.99522 0.0
C195 C 0.78465 0.28389 0.01362 0.0
C196 C 0.74773 0.3689 0.0316 0.0
O197 O 0.7382 0.36277 0.01917 0.0
O198 O 0.77452 0.363 0.03521 0.0
C199 C 0.70066 0.34399 0.98755 0.0
O200 O 0.68937 0.33872 0.99987 0.0
C201 C 0.81868 0.37875 0.99911 0.0
Zn202 Zn 0.86194 0.25511 0.2462 0.0
Zn203 Zn 0.83023 0.22608 0.26583 0.0
O204 O 0.80647 0.2646 0.26327 0.0
O205 O 0.83244 0.29016 0.24828 0.0
O206 O 0.80946 0.20428 0.28097 0.0
O207 O 0.90026 0.25055 0.25806 0.0
O208 O 0.87333 0.22735 0.27347 0.0
C209 C 0.80964 0.28769 0.25586 0.0
C210 C 0.83255 0.20021 0.2362 0.0
O211 O 0.8236 0.19918 0.24875 0.0
O212 O 0.8496 0.22117 0.23252 0.0
C213 C 0.79893 0.21776 0.29162 0.0
O214 O 0.80087 0.24703 0.29264 0.0
C215 C 0.89853 0.23687 0.26953 0.0
H216 H 0.24615 0.11938 0.30255 0.0
H217 H 0.27356 0.07984 0.2904 0.0
H218 H 0.33202 0.07043 0.32666 0.0
H219 H 0.3046 0.11002 0.33899 0.0
H220 H 0.36216 0.06214 0.30181 0.0
H221 H 0.27565 0.0262 0.32388 0.0
H222 H 0.22249 0.02404 0.33002 0.0
H223 H 0.19817 0.00553 0.28684 0.0
H224 H 0.25123 0.00815 0.2804 0.0
H225 H 0.35979 0.89072 0.29213 0.0
H226 H 0.33406 0.93649 0.29867 0.0
H227 H 0.38094 0.9839 0.2669 0.0
H228 H 0.40816 0.9381 0.26072 0.0
H229 H 0.29834 0.97465 0.28883 0.0
H230 H 0.39685 0.05316 0.27788 0.0
H231 H 0.45172 0.05042 0.27584 0.0
H232 H 0.45474 0.97657 0.30394 0.0
H233 H 0.39996 0.97907 0.30622 0.0
C234 C 0.26526 0.10945 0.30787 0.0
C235 C 0.2729 0.11764 0.32184 0.0
C236 C 0.28085 0.08675 0.3009 0.0
C237 C 0.30448 0.07186 0.30771 0.0
C238 C 0.31377 0.08159 0.32123 0.0
C239 C 0.29805 0.10422 0.32827 0.0
C240 C 0.31742 0.04437 0.30129 0.0
C241 C 0.3482 0.0431 0.29885 0.0
C242 C 0.29936 0.01916 0.29785 0.0
C243 C 0.26738 0.01783 0.30162 0.0
C244 C 0.25894 0.02204 0.31566 0.0
C245 C 0.22884 0.02066 0.3192 0.0
C246 C 0.20695 0.01477 0.30882 0.0
C247 C 0.21515 0.01019 0.29487 0.0
C248 C 0.24524 0.01164 0.29126 0.0
C249 C 0.36443 0.91072 0.28634 0.0
C250 C 0.38648 0.91078 0.27603 0.0
C251 C 0.34955 0.93698 0.2901 0.0
C252 C 0.35601 0.96393 0.28353 0.0
C253 C 0.37616 0.96358 0.2724 0.0
C254 C 0.39153 0.93731 0.26879 0.0
C255 C 0.34313 0.9924 0.28911 0.0
C256 C 0.31229 0.99386 0.29149 0.0
C257 C 0.36136 0.01724 0.29308 0.0
C258 C 0.39435 0.01617 0.29212 0.0
C259 C 0.40928 0.03647 0.28368 0.0
C260 C 0.44034 0.03491 0.28246 0.0
C261 C 0.45669 0.01328 0.28973 0.0
C262 C 0.44204 0.99325 0.29829 0.0
C263 C 0.411 0.99472 0.29954 0.0
H264 H 0.48072 0.01207 0.28874 0.0
H265 H 0.18365 0.01365 0.31158 0.0
H266 H 0.05033 0.76623 0.57965 0.0
H267 H 0.08957 0.79942 0.57096 0.0
H268 H 0.15162 0.72565 0.5706 0.0
H269 H 0.11281 0.69246 0.5787 0.0
H270 H 0.16909 0.78565 0.58592 0.0
H271 H 0.13402 0.73616 0.54236 0.0
H272 H 0.09543 0.72189 0.52458 0.0
H273 H 0.07549 0.81449 0.51787 0.0
H274 H 0.11368 0.82927 0.53582 0.0
H275 H 0.285 0.81154 0.53158 0.0
H276 H 0.24049 0.78889 0.54139 0.0
H277 H 0.21597 0.87394 0.55985 0.0
H278 H 0.26064 0.89675 0.55036 0.0
H279 H 0.17639 0.81446 0.53607 0.0
H280 H 0.20559 0.86094 0.58491 0.0
H281 H 0.24683 0.87243 0.60186 0.0
H282 H 0.2801 0.78278 0.59704 0.0
H283 H 0.2392 0.77101 0.57992 0.0
C284 C 0.07229 0.75717 0.57758 0.0
C285 C 0.07848 0.72678 0.57974 0.0
C286 C 0.09458 0.77606 0.57266 0.0
C287 C 0.12335 0.76482 0.5702 0.0
C288 C 0.12951 0.73462 0.57245 0.0
C289 C 0.10722 0.7157 0.57699 0.0
C290 C 0.14754 0.78423 0.56543 0.0
C291 C 0.17042 0.79238 0.57508 0.0
C292 C 0.14939 0.79264 0.55127 0.0
C293 C 0.12628 0.78379 0.5406 0.0
C294 C 0.1211 0.75346 0.53725 0.0
C295 C 0.09938 0.74528 0.5271 0.0
C296 C 0.08291 0.76726 0.52015 0.0
C297 C 0.08818 0.79748 0.5233 0.0
C298 C 0.10985 0.80577 0.53346 0.0
C299 C 0.27041 0.82535 0.53791 0.0
C300 C 0.27644 0.85592 0.54023 0.0
C301 C 0.24494 0.81241 0.54343 0.0
C302 C 0.2251 0.8298 0.55132 0.0
C303 C 0.23126 0.86014 0.55391 0.0
C304 C 0.25684 0.87307 0.54849 0.0
C305 C 0.19767 0.81612 0.5566 0.0
C306 C 0.17445 0.80866 0.54702 0.0
C307 C 0.19539 0.80836 0.5708 0.0
C308 C 0.21962 0.81521 0.58114 0.0
C309 C 0.22181 0.84378 0.58745 0.0
C310 C 0.24509 0.85033 0.59707 0.0
C311 C 0.26611 0.82836 0.60051 0.0
C312 C 0.26385 0.79979 0.59435 0.0
C313 C 0.24066 0.79318 0.58468 0.0
H314 H 0.28411 0.83346 0.60796 0.0
H315 H 0.06614 0.76089 0.51227 0.0
H316 H 0.48283 0.57652 0.81779 0.0
H317 H 0.44872 0.61531 0.8099 0.0
H318 H 0.37699 0.57459 0.83213 0.0
H319 H 0.4115 0.53541 0.84042 0.0
H320 H 0.36472 0.59972 0.80214 0.0
H321 H 0.40218 0.62572 0.84874 0.0
H322 H 0.4419 0.63137 0.86699 0.0
H323 H 0.48729 0.69439 0.84161 0.0
H324 H 0.44811 0.68867 0.82308 0.0
H325 H 0.27584 0.73133 0.80059 0.0
H326 H 0.30282 0.68864 0.81023 0.0
H327 H 0.3855 0.72311 0.79476 0.0
H328 H 0.3586 0.7658 0.78481 0.0
H329 H 0.38903 0.69984 0.82289 0.0
H330 H 0.35654 0.67265 0.77616 0.0
H331 H 0.32043 0.66643 0.75638 0.0
H332 H 0.26887 0.60584 0.78045 0.0
H333 H 0.30448 0.61209 0.80049 0.0
C334 C 0.45972 0.57541 0.82089 0.0
C335 C 0.44995 0.55312 0.82992 0.0
C336 C 0.44027 0.59762 0.81633 0.0
C337 C 0.41058 0.59795 0.82061 0.0
C338 C 0.39997 0.57462 0.82879 0.0
C339 C 0.41963 0.5523 0.83349 0.0
C340 C 0.39186 0.62421 0.81736 0.0
C341 C 0.36943 0.6215 0.80691 0.0
C342 C 0.39895 0.6527 0.82326 0.0
C343 C 0.42233 0.65656 0.83447 0.0
C344 C 0.42076 0.64059 0.847 0.0
C345 C 0.44316 0.64383 0.8574 0.0
C346 C 0.46713 0.66318 0.85545 0.0
C347 C 0.46872 0.67939 0.8431 0.0
C348 C 0.44641 0.67617 0.83265 0.0
C349 C 0.29985 0.73016 0.79942 0.0
C350 C 0.31509 0.7519 0.79188 0.0
C351 C 0.31516 0.70566 0.80488 0.0
C352 C 0.34602 0.70266 0.80307 0.0
C353 C 0.36163 0.72508 0.79622 0.0
C354 C 0.34624 0.74941 0.79055 0.0
C355 C 0.36168 0.67538 0.80773 0.0
C356 C 0.38378 0.67798 0.81834 0.0
C357 C 0.3545 0.64686 0.80187 0.0
C358 C 0.33293 0.64318 0.7899 0.0
C359 C 0.33731 0.65828 0.7773 0.0
C360 C 0.31698 0.65469 0.76603 0.0
C361 C 0.29231 0.63584 0.76718 0.0
C362 C 0.28796 0.6205 0.77959 0.0
C363 C 0.30821 0.62405 0.79091 0.0
H364 H 0.27661 0.63306 0.75843 0.0
H365 H 0.48445 0.66566 0.86351 0.0
H366 H 0.57149 0.99236 0.08146 0.0
H367 H 0.52834 0.96772 0.06979 0.0
H368 H 0.57875 0.88567 0.06651 0.0
H369 H 0.62171 0.91001 0.07781 0.0
H370 H 0.54962 0.89494 0.04282 0.0
H371 H 0.52701 0.89622 0.09192 0.0
H372 H 0.51888 0.91944 0.11523 0.0
H373 H 0.44655 0.97146 0.09812 0.0
H374 H 0.4545 0.94876 0.07465 0.0
H375 H 0.4442 0.77696 0.04327 0.0
H376 H 0.4787 0.81477 0.05298 0.0
H377 H 0.42662 0.88419 0.03342 0.0
H378 H 0.39217 0.8464 0.02331 0.0
H379 H 0.45219 0.88811 0.06645 0.0
H380 H 0.4759 0.87946 0.01655 0.0
H381 H 0.48572 0.85006 0.99495 0.0
H382 H 0.55856 0.80541 0.0159 0.0
H383 H 0.54885 0.83426 0.03769 0.0
C384 C 0.57332 0.9691 0.07819 0.0
C385 C 0.59996 0.95311 0.08058 0.0
C386 C 0.54867 0.95506 0.07157 0.0
C387 C 0.55032 0.92482 0.06735 0.0
C388 C 0.57702 0.90905 0.0696 0.0
C389 C 0.60156 0.92301 0.07614 0.0
C390 C 0.52431 0.90902 0.06079 0.0
C391 C 0.5283 0.89363 0.04798 0.0
C392 C 0.4964 0.9074 0.06745 0.0
C393 C 0.49159 0.92111 0.08151 0.0
C394 C 0.50954 0.91281 0.09311 0.0
C395 C 0.50493 0.92582 0.10635 0.0
C396 C 0.48228 0.94699 0.10815 0.0
C397 C 0.46413 0.95511 0.0967 0.0
C398 C 0.46867 0.94217 0.08343 0.0
C399 C 0.43977 0.80027 0.04118 0.0
C400 C 0.41553 0.8087 0.03248 0.0
C401 C 0.45952 0.82179 0.04672 0.0
C402 C 0.45512 0.85207 0.04383 0.0
C403 C 0.43023 0.86083 0.03572 0.0
C404 C 0.41068 0.83924 0.02996 0.0
C405 C 0.47781 0.87407 0.04864 0.0
C406 C 0.47326 0.89032 0.06114 0.0
C407 C 0.50546 0.87598 0.04189 0.0
C408 C 0.51144 0.85878 0.02877 0.0
C409 C 0.4938 0.86316 0.01658 0.0
C410 C 0.4994 0.84665 0.0043 0.0
C411 C 0.52269 0.82582 0.00406 0.0
C412 C 0.5405 0.82152 0.0161 0.0
C413 C 0.53498 0.83796 0.02841 0.0
H414 H 0.52699 0.81307 0.99454 0.0
H415 H 0.47874 0.95703 0.11841 0.0
H416 H 0.09628 0.62644 0.94895 0.0
H417 H 0.1395 0.63342 0.96486 0.0
H418 H 0.08397 0.67963 0.99471 0.0
H419 H 0.0407 0.67294 0.97887 0.0
H420 H 0.1332 0.71178 0.98792 0.0
H421 H 0.11246 0.61158 0.00233 0.0
H422 H 0.10212 0.55793 0.9982 0.0
H423 H 0.18687 0.54713 0.97845 0.0
H424 H 0.19755 0.60078 0.98229 0.0
H425 H 0.26359 0.74363 0.02808 0.0
H426 H 0.21283 0.72462 0.02311 0.0
H427 H 0.24906 0.65748 0.99498 0.0
H428 H 0.29948 0.67485 0.00096 0.0
H429 H 0.20425 0.63481 0.00504 0.0
H430 H 0.22114 0.73204 0.98487 0.0
H431 H 0.23253 0.78603 0.98535 0.0
H432 H 0.15745 0.80279 0.01167 0.0
H433 H 0.14582 0.74883 0.01147 0.0
C434 C 0.09314 0.63758 0.95901 0.0
C435 C 0.06512 0.64935 0.96259 0.0
C436 C 0.11783 0.64145 0.96812 0.0
C437 C 0.11487 0.65695 0.98099 0.0
C438 C 0.08669 0.6676 0.98483 0.0
C439 C 0.062 0.66372 0.97576 0.0
C440 C 0.14167 0.66463 0.98973 0.0
C441 C 0.14847 0.69497 0.99195 0.0
C442 C 0.16188 0.64267 0.9946 0.0
C443 C 0.15574 0.61025 0.99256 0.0
C444 C 0.12883 0.59779 0.99705 0.0
C445 C 0.12292 0.56737 0.99476 0.0
C446 C 0.14381 0.54914 0.98805 0.0
C447 C 0.17071 0.56127 0.98365 0.0
C448 C 0.17673 0.59167 0.98591 0.0
C449 C 0.26051 0.7242 0.02123 0.0
C450 C 0.2851 0.71045 0.01494 0.0
C451 C 0.23158 0.71357 0.01823 0.0
C452 C 0.2269 0.69012 0.00832 0.0
C453 C 0.25185 0.67555 0.00265 0.0
C454 C 0.2807 0.68547 0.00604 0.0
C455 C 0.19642 0.68212 0.00286 0.0
C456 C 0.18879 0.65171 0.00127 0.0
C457 C 0.1758 0.70404 0.99813 0.0
C458 C 0.18288 0.73641 0.99831 0.0
C459 C 0.20721 0.74724 0.99084 0.0
C460 C 0.21368 0.77782 0.99105 0.0
C461 C 0.1958 0.79781 0.99858 0.0
C462 C 0.17134 0.78727 0.00588 0.0
C463 C 0.1648 0.7567 0.00572 0.0
H464 H 0.20083 0.82148 0.99872 0.0
H465 H 0.13916 0.52561 0.98627 0.0
H466 H 0.46853 0.52823 0.2048 0.0
H467 H 0.45419 0.57498 0.21638 0.0
H468 H 0.54457 0.60744 0.2137 0.0
H469 H 0.55922 0.56058 0.20183 0.0
H470 H 0.51618 0.6173 0.24064 0.0
H471 H 0.49904 0.63163 0.19127 0.0
H472 H 0.4788 0.61827 0.16768 0.0
H473 H 0.38939 0.62355 0.18299 0.0
H474 H 0.40914 0.63634 0.20677 0.0
H475 H 0.4899 0.77682 0.24324 0.0
H476 H 0.49987 0.72809 0.23222 0.0
H477 H 0.42229 0.69136 0.25156 0.0
H478 H 0.41254 0.73993 0.26305 0.0
H479 H 0.44247 0.68307 0.21663 0.0
H480 H 0.46023 0.66205 0.26655 0.0
H481 H 0.48088 0.67407 0.29023 0.0
H482 H 0.5689 0.68091 0.27353 0.0
H483 H 0.5486 0.66943 0.2497 0.0
C484 C 0.48552 0.54514 0.20677 0.0
C485 C 0.51505 0.54077 0.20237 0.0
C486 C 0.4772 0.57187 0.21334 0.0
C487 C 0.49827 0.59462 0.21576 0.0
C488 C 0.52803 0.59004 0.21187 0.0
C489 C 0.53633 0.56336 0.20509 0.0
C490 C 0.48885 0.62347 0.22202 0.0
C491 C 0.50023 0.63176 0.23535 0.0
C492 C 0.46757 0.64195 0.21518 0.0
C493 C 0.4556 0.63461 0.20085 0.0
C494 C 0.47507 0.62965 0.18965 0.0
C495 C 0.46369 0.62222 0.17623 0.0
C496 C 0.43283 0.61998 0.17385 0.0
C497 C 0.4133 0.62524 0.18486 0.0
C498 C 0.42457 0.63259 0.19831 0.0
C499 C 0.47473 0.7585 0.24505 0.0
C500 C 0.45049 0.76217 0.25407 0.0
C501 C 0.48053 0.73071 0.23878 0.0
C502 C 0.46195 0.70628 0.24121 0.0
C503 C 0.43695 0.71004 0.24967 0.0
C504 C 0.43144 0.73774 0.2562 0.0
C505 C 0.46964 0.67666 0.23527 0.0
C506 C 0.45815 0.66838 0.22194 0.0
C507 C 0.49065 0.65804 0.24212 0.0
C508 C 0.50283 0.66547 0.25634 0.0
C509 C 0.4839 0.66661 0.2679 0.0
C510 C 0.49556 0.67319 0.28136 0.0
C511 C 0.52617 0.67841 0.28338 0.0
C512 C 0.54518 0.67699 0.27194 0.0
C513 C 0.53361 0.67047 0.25846 0.0
H514 H 0.53517 0.68342 0.2938 0.0
H515 H 0.42406 0.61423 0.16345 0.0
H516 H 0.63806 0.00778 0.46609 0.0
H517 H 0.60301 0.9946 0.48428 0.0
H518 H 0.53427 0.97865 0.45246 0.0
H519 H 0.56883 0.99291 0.43432 0.0
H520 H 0.50998 0.00264 0.47417 0.0
H521 H 0.57993 0.92158 0.46686 0.0
H522 H 0.62997 0.89849 0.46604 0.0
H523 H 0.64537 0.92093 0.50965 0.0
H524 H 0.59556 0.94455 0.51068 0.0
H525 H 0.43871 0.87249 0.50658 0.0
H526 H 0.48503 0.89184 0.49724 0.0
H527 H 0.47311 0.97442 0.52057 0.0
H528 H 0.42673 0.95536 0.52998 0.0
H529 H 0.53978 0.9197 0.50541 0.0
H530 H 0.47567 0.02886 0.49626 0.0
H531 H 0.42344 0.04685 0.49537 0.0
H532 H 0.39356 0.95996 0.48115 0.0
H533 H 0.44562 0.94165 0.48174 0.0
C534 C 0.61532 0.00188 0.463 0.0
C535 C 0.60626 0.0011 0.44875 0.0
C536 C 0.59536 0.99419 0.47341 0.0
C537 C 0.56617 0.98495 0.46974 0.0
C538 C 0.5567 0.9856 0.45557 0.0
C539 C 0.5765 0.99374 0.44519 0.0
C540 C 0.54583 0.97315 0.48043 0.0
C541 C 0.51671 0.98474 0.48108 0.0
C542 C 0.55434 0.9495 0.4894 0.0
C543 C 0.58418 0.93513 0.4888 0.0
C544 C 0.59408 0.92177 0.47625 0.0
C545 C 0.62239 0.90857 0.47575 0.0
C546 C 0.64088 0.90832 0.48778 0.0
C547 C 0.63105 0.9212 0.50034 0.0
C548 C 0.60279 0.93449 0.50089 0.0
C549 C 0.44645 0.89435 0.51015 0.0
C550 C 0.42859 0.91267 0.51874 0.0
C551 C 0.47303 0.90533 0.50483 0.0
C552 C 0.48205 0.93478 0.50798 0.0
C553 C 0.46625 0.95175 0.51789 0.0
C554 C 0.43973 0.94075 0.52327 0.0
C555 C 0.50425 0.94926 0.49906 0.0
C556 C 0.5335 0.9381 0.49871 0.0
C557 C 0.4957 0.97273 0.49007 0.0
C558 C 0.46446 0.98384 0.48922 0.0
C559 C 0.45795 0.01367 0.49289 0.0
C560 C 0.42838 0.0239 0.49244 0.0
C561 C 0.40519 0.0045 0.48829 0.0
C562 C 0.41153 0.9749 0.48444 0.0
C563 C 0.44105 0.96461 0.48483 0.0
H564 H 0.38232 0.01244 0.48797 0.0
H565 H 0.66278 0.89809 0.48737 0.0
H566 H 0.22412 0.13774 0.72935 0.0
H567 H 0.22995 0.0955 0.74506 0.0
H568 H 0.17071 0.04274 0.71812 0.0
H569 H 0.1641 0.08517 0.70258 0.0
H570 H 0.16184 0.03122 0.74533 0.0
H571 H 0.24751 0.03909 0.7151 0.0
H572 H 0.29016 0.06591 0.70528 0.0
H573 H 0.32895 0.07811 0.74666 0.0
H574 H 0.28632 0.05166 0.75674 0.0
H575 H 0.20415 0.88241 0.75627 0.0
H576 H 0.19104 0.93233 0.74858 0.0
H577 H 0.26411 0.96915 0.77388 0.0
H578 H 0.27894 0.91829 0.78046 0.0
H579 H 0.26559 0.99329 0.75088 0.0
H580 H 0.18241 0.97866 0.7809 0.0
H581 H 0.13957 0.95148 0.79032 0.0
H582 H 0.09548 0.952 0.74981 0.0
H583 H 0.13817 0.97886 0.7401 0.0
C584 C 0.21204 0.11726 0.72687 0.0
C585 C 0.19395 0.11463 0.71464 0.0
C586 C 0.21543 0.09314 0.73584 0.0
C587 C 0.20124 0.06579 0.73261 0.0
C588 C 0.18194 0.06362 0.7208 0.0
C589 C 0.17826 0.08785 0.7119 0.0
C590 C 0.2081 0.03881 0.74088 0.0
C591 C 0.18448 0.0228 0.74656 0.0
C592 C 0.23774 0.02832 0.74278 0.0
C593 C 0.26364 0.04365 0.73668 0.0
C594 C 0.26509 0.04761 0.7221 0.0
C595 C 0.28925 0.06274 0.71649 0.0
C596 C 0.31221 0.07377 0.72534 0.0
C597 C 0.31112 0.06959 0.73982 0.0
C598 C 0.28699 0.05451 0.74549 0.0
C599 C 0.21697 0.9013 0.76041 0.0
C600 C 0.24221 0.8968 0.76909 0.0
C601 C 0.20932 0.92995 0.75611 0.0
C602 C 0.22597 0.95492 0.76093 0.0
C603 C 0.25074 0.95038 0.77006 0.0
C604 C 0.25911 0.92145 0.77392 0.0
C605 C 0.21923 0.98513 0.75533 0.0
C606 C 0.24292 0.00182 0.75005 0.0
C607 C 0.18961 0.99625 0.75386 0.0
C608 C 0.16357 0.98071 0.75977 0.0
C609 C 0.16361 0.97292 0.774 0.0
C610 C 0.13935 0.95756 0.77939 0.0
C611 C 0.11484 0.95 0.77067 0.0
C612 C 0.11447 0.95789 0.75655 0.0
C613 C 0.13866 0.97325 0.75111 0.0
H614 H 0.09612 0.93805 0.77485 0.0
H615 H 0.33088 0.08551 0.72098 0.0
H616 H 0.55624 0.46624 0.81667 0.0
H617 H 0.59152 0.45294 0.79843 0.0
H618 H 0.65106 0.52289 0.8135 0.0
H619 H 0.61575 0.53656 0.83185 0.0
H620 H 0.64525 0.51754 0.78342 0.0
H621 H 0.66343 0.45501 0.82413 0.0
H622 H 0.64729 0.4196 0.84196 0.0
H623 H 0.62038 0.35673 0.80941 0.0
H624 H 0.63597 0.39199 0.79138 0.0
H625 H 0.78848 0.47698 0.76215 0.0
H626 H 0.74113 0.4929 0.77158 0.0
H627 H 0.7048 0.40455 0.76343 0.0
H628 H 0.75376 0.38778 0.75529 0.0
H629 H 0.69232 0.41756 0.78743 0.0
H630 H 0.67938 0.47562 0.7464 0.0
H631 H 0.693 0.51055 0.72791 0.0
H632 H 0.70637 0.58059 0.75892 0.0
H633 H 0.6932 0.54602 0.77762 0.0
C634 C 0.57672 0.47902 0.81607 0.0
C635 C 0.58336 0.50229 0.82581 0.0
C636 C 0.59679 0.47138 0.80561 0.0
C637 C 0.62391 0.4868 0.80472 0.0
C638 C 0.63015 0.5108 0.81404 0.0
C639 C 0.61006 0.51845 0.82456 0.0
C640 C 0.64669 0.47647 0.79473 0.0
C641 C 0.65577 0.49576 0.78425 0.0
C642 C 0.65937 0.44762 0.79555 0.0
C643 C 0.65059 0.42623 0.80642 0.0
C644 C 0.6539 0.43371 0.82078 0.0
C645 C 0.64488 0.41366 0.83092 0.0
C646 C 0.63275 0.38597 0.82682 0.0
C647 C 0.62974 0.37821 0.81257 0.0
C648 C 0.63868 0.3982 0.80239 0.0
C649 C 0.77012 0.46117 0.76197 0.0
C650 C 0.77467 0.43118 0.75795 0.0
C651 C 0.74279 0.47039 0.76728 0.0
C652 C 0.71888 0.45018 0.76807 0.0
C653 C 0.72282 0.42065 0.76301 0.0
C654 C 0.75067 0.41107 0.75825 0.0
C655 C 0.69164 0.45874 0.77593 0.0
C656 C 0.68162 0.43914 0.78618 0.0
C657 C 0.67776 0.48715 0.77468 0.0
C658 C 0.6854 0.50814 0.76342 0.0
C659 C 0.68535 0.49843 0.74929 0.0
C660 C 0.69299 0.51818 0.73877 0.0
C661 C 0.70058 0.54776 0.74224 0.0
C662 C 0.70047 0.55768 0.75624 0.0
C663 C 0.69285 0.53803 0.7668 0.0
H664 H 0.70651 0.563 0.73408 0.0
H665 H 0.62575 0.37049 0.83469 0.0
H666 H 0.73967 0.0511 0.08091 0.0
H667 H 0.75907 0.09196 0.06717 0.0
H668 H 0.70355 0.06391 0.03175 0.0
H669 H 0.6834 0.02323 0.04554 0.0
H670 H 0.76491 0.08792 0.02528 0.0
H671 H 0.67373 0.11187 0.04838 0.0
H672 H 0.63967 0.11355 0.06835 0.0
H673 H 0.70248 0.16813 0.09205 0.0
H674 H 0.73721 0.16628 0.07228 0.0
H675 H 0.74712 0.244 0.99949 0.0
H676 H 0.73535 0.19271 0.00637 0.0
H677 H 0.7999 0.19991 0.04054 0.0
H678 H 0.81244 0.25039 0.03361 0.0
H679 H 0.73088 0.18507 0.04542 0.0
H680 H 0.82309 0.15778 0.02183 0.0
H681 H 0.85552 0.15587 0.00125 0.0
H682 H 0.78737 0.10835 0.97745 0.0
H683 H 0.75434 0.11042 0.99786 0.0
C684 C 0.73216 0.053 0.07008 0.0
C685 C 0.70964 0.03413 0.06439 0.0
C686 C 0.74327 0.07643 0.06225 0.0
C687 C 0.73247 0.08111 0.04851 0.0
C688 C 0.71214 0.06066 0.04233 0.0
C689 C 0.70062 0.03747 0.05025 0.0
C690 C 0.73933 0.10948 0.04148 0.0
C691 C 0.75721 0.10914 0.02957 0.0
C692 C 0.72913 0.13713 0.04705 0.0
C693 C 0.70823 0.13861 0.05892 0.0
C694 C 0.68042 0.12397 0.0579 0.0
C695 C 0.66097 0.12499 0.06917 0.0
C696 C 0.66895 0.14085 0.08148 0.0
C697 C 0.69636 0.1558 0.08252 0.0
C698 C 0.71594 0.15477 0.07128 0.0
C699 C 0.75933 0.23439 0.00824 0.0
C700 C 0.78071 0.25141 0.01599 0.0
C701 C 0.75253 0.20514 0.01217 0.0
C702 C 0.76676 0.19268 0.02397 0.0
C703 C 0.78877 0.20916 0.03138 0.0
C704 C 0.79595 0.23804 0.02735 0.0
C705 C 0.75707 0.16359 0.02944 0.0
C706 C 0.73844 0.16384 0.04107 0.0
C707 C 0.76632 0.13598 0.02351 0.0
C708 C 0.78612 0.13464 0.01128 0.0
C709 C 0.81489 0.14725 0.01215 0.0
C710 C 0.83342 0.14606 0.00054 0.0
C711 C 0.82347 0.1321 0.98803 0.0
C712 C 0.79501 0.11922 0.98713 0.0
C713 C 0.77639 0.12039 0.99872 0.0
H714 H 0.83785 0.13119 0.97905 0.0
H715 H 0.65385 0.14163 0.0902 0.0
H716 H 0.15347 0.13977 0.31699 0.0
H717 H 0.11032 0.15705 0.3032 0.0
H718 H 0.05231 0.13549 0.33711 0.0
H719 H 0.0953 0.11713 0.35074 0.0
H720 H 0.02495 0.12396 0.31285 0.0
H721 H 0.08084 0.20765 0.33266 0.0
H722 H 0.12629 0.23798 0.33698 0.0
H723 H 0.13344 0.2516 0.29269 0.0
H724 H 0.08823 0.221 0.2881 0.0
H725 H 0.90256 0.21583 0.29622 0.0
H726 H 0.94677 0.19592 0.30827 0.0
H727 H 0.00067 0.21821 0.27301 0.0
H728 H 0.9566 0.23899 0.26102 0.0
H729 H 0.03088 0.22874 0.29698 0.0
H730 H 0.97417 0.14611 0.27726 0.0
H731 H 0.92888 0.11553 0.27299 0.0
H732 H 0.9233 0.09994 0.31718 0.0
H733 H 0.96838 0.13073 0.32173 0.0
C734 C 0.13142 0.13816 0.32139 0.0
C735 C 0.12775 0.12736 0.33499 0.0
C736 C 0.10681 0.14825 0.31354 0.0
C737 C 0.07818 0.14841 0.31928 0.0
C738 C 0.07422 0.13582 0.3325 0.0
C739 C 0.09879 0.12525 0.34028 0.0
C740 C 0.0527 0.16313 0.3119 0.0
C741 C 0.02615 0.14697 0.30952 0.0
C742 C 0.05444 0.19299 0.30726 0.0
C743 C 0.0813 0.21184 0.31004 0.0
C744 C 0.09219 0.21701 0.32384 0.0
C745 C 0.1179 0.23424 0.32634 0.0
C746 C 0.13277 0.24666 0.31512 0.0
C747 C 0.12191 0.24194 0.30138 0.0
C748 C 0.09623 0.22468 0.29882 0.0
C749 C 0.92388 0.21689 0.29109 0.0
C750 C 0.92599 0.22879 0.2776 0.0
C751 C 0.94913 0.2053 0.29797 0.0
C752 C 0.97691 0.20484 0.2914 0.0
C753 C 0.97942 0.21811 0.27824 0.0
C754 C 0.9542 0.23003 0.27141 0.0
C755 C 0.00302 0.18964 0.29805 0.0
C756 C 0.0297 0.20571 0.30028 0.0
C757 C 0.0014 0.15971 0.30257 0.0
C758 C 0.9745 0.14092 0.29984 0.0
C759 C 0.96318 0.13629 0.28607 0.0
C760 C 0.93756 0.11891 0.2836 0.0
C761 C 0.92318 0.10587 0.29481 0.0
C762 C 0.93445 0.1101 0.30851 0.0
C763 C 0.96005 0.12747 0.31104 0.0
H764 H 0.90333 0.09244 0.29288 0.0
H765 H 0.15269 0.25997 0.31707 0.0
H766 H 0.05688 0.56514 0.58653 0.0
H767 H 0.04531 0.52646 0.56866 0.0
H768 H 0.97342 0.58073 0.55219 0.0
H769 H 0.98448 0.6192 0.57006 0.0
H770 H 0.95567 0.52458 0.55662 0.0
H771 H 0.03842 0.57138 0.53424 0.0
H772 H 0.09003 0.59038 0.53307 0.0
H773 H 0.12437 0.50231 0.5405 0.0
H774 H 0.07299 0.48286 0.54192 0.0
H775 H 0.91736 0.41233 0.50769 0.0
H776 H 0.93283 0.46269 0.51549 0.0
H777 H 0.0185 0.42755 0.5291 0.0
H778 H 0.00417 0.37832 0.51993 0.0
H779 H 0.02785 0.4799 0.52348 0.0
H780 H 0.9496 0.43482 0.55088 0.0
H781 H 0.8995 0.4136 0.55448 0.0
H782 H 0.85881 0.4951 0.54054 0.0
H783 H 0.90869 0.51665 0.53673 0.0
C784 C 0.03871 0.56889 0.57906 0.0
C785 C 0.02152 0.59517 0.57977 0.0
C786 C 0.03228 0.54688 0.56879 0.0
C787 C 0.0087 0.55089 0.559 0.0
C788 C 0.99175 0.57724 0.55961 0.0
C789 C 0.9981 0.59917 0.56986 0.0
C790 C 0.0003 0.5268 0.54875 0.0
C791 C 0.97129 0.51512 0.54919 0.0
C792 C 0.02091 0.51407 0.53931 0.0
C793 C 0.05182 0.5257 0.53827 0.0
C794 C 0.05697 0.5561 0.53571 0.0
C795 C 0.08619 0.56695 0.53499 0.0
C796 C 0.11046 0.54758 0.53673 0.0
C797 C 0.10556 0.5173 0.53916 0.0
C798 C 0.07639 0.50634 0.53989 0.0
C799 C 0.93984 0.4158 0.51188 0.0
C800 C 0.95958 0.39163 0.51328 0.0
C801 C 0.94857 0.44443 0.51653 0.0
C802 C 0.9764 0.44883 0.52349 0.0
C803 C 0.99684 0.42496 0.52389 0.0
C804 C 0.98863 0.39672 0.51865 0.0
C805 C 0.98334 0.47695 0.5316 0.0
C806 C 0.01205 0.48952 0.53077 0.0
C807 C 0.96272 0.49008 0.541 0.0
C808 C 0.9328 0.47718 0.54337 0.0
C809 C 0.92994 0.44813 0.54853 0.0
C810 C 0.9016 0.43606 0.55061 0.0
C811 C 0.87599 0.45296 0.5477 0.0
C812 C 0.87866 0.48201 0.54275 0.0
C813 C 0.90695 0.49416 0.54064 0.0
H814 H 0.85407 0.44357 0.5493 0.0
H815 H 0.13306 0.55602 0.53618 0.0
H816 H 0.72984 0.04869 0.47363 0.0
H817 H 0.76066 0.09114 0.48138 0.0
H818 H 0.81661 0.07826 0.44553 0.0
H819 H 0.78545 0.03591 0.43745 0.0
H820 H 0.84652 0.0939 0.47401 0.0
H821 H 0.76968 0.12568 0.44062 0.0
H822 H 0.71767 0.12849 0.43162 0.0
H823 H 0.69097 0.17074 0.47021 0.0
H824 H 0.7428 0.16776 0.47954 0.0
H825 H 0.91608 0.23456 0.47714 0.0
H826 H 0.8883 0.19171 0.46733 0.0
H827 H 0.81567 0.21118 0.49509 0.0
H828 H 0.84304 0.25433 0.50482 0.0
H829 H 0.7947 0.1917 0.4699 0.0
H830 H 0.86681 0.16012 0.50409 0.0
H831 H 0.91682 0.15646 0.51536 0.0
H832 H 0.95025 0.11284 0.47834 0.0
H833 H 0.90048 0.11665 0.46676 0.0
C834 C 0.74906 0.05437 0.46751 0.0
C835 C 0.755 0.0391 0.45482 0.0
C836 C 0.76658 0.07871 0.47196 0.0
C837 C 0.79058 0.08794 0.46391 0.0
C838 C 0.79806 0.07142 0.45182 0.0
C839 C 0.78025 0.04727 0.44724 0.0
C840 C 0.80609 0.11629 0.46753 0.0
C841 C 0.83547 0.11535 0.47289 0.0
C842 C 0.79115 0.14407 0.46648 0.0
C843 C 0.76006 0.14621 0.46083 0.0
C844 C 0.75268 0.13532 0.44723 0.0
C845 C 0.72324 0.13699 0.44206 0.0
C846 C 0.701 0.1497 0.45035 0.0
C847 C 0.7082 0.16086 0.46381 0.0
C848 C 0.73761 0.15921 0.46904 0.0
C849 C 0.89396 0.23009 0.48099 0.0
C850 C 0.88196 0.24766 0.4919 0.0
C851 C 0.87818 0.2055 0.47541 0.0
C852 C 0.85022 0.1979 0.4807 0.0
C853 C 0.8373 0.21655 0.49091 0.0
C854 C 0.85302 0.2412 0.49648 0.0
C855 C 0.8354 0.16949 0.4763 0.0
C856 C 0.806 0.17035 0.47087 0.0
C857 C 0.85013 0.14157 0.47756 0.0
C858 C 0.88002 0.13897 0.48451 0.0
C859 C 0.88489 0.14995 0.49831 0.0
C860 C 0.91317 0.14782 0.50476 0.0
C861 C 0.93672 0.1345 0.49756 0.0
C862 C 0.93199 0.1232 0.4839 0.0
C863 C 0.90375 0.12532 0.47739 0.0
H864 H 0.95861 0.13287 0.50257 0.0
H865 H 0.67822 0.15096 0.44632 0.0
H866 H 0.15749 0.26638 0.71937 0.0
H867 H 0.11309 0.29548 0.72582 0.0
H868 H 0.06263 0.25168 0.69205 0.0
H869 H 0.10727 0.22522 0.6849 0.0
H870 H 0.04288 0.30166 0.69319 0.0
H871 H 0.06341 0.23113 0.72975 0.0
H872 H 0.09331 0.20709 0.74846 0.0
H873 H 0.09922 0.29069 0.77134 0.0
H874 H 0.06964 0.31529 0.75268 0.0
H875 H 0.91303 0.31808 0.7472 0.0
H876 H 0.95692 0.29232 0.73808 0.0
H877 H 0.9812 0.37161 0.71597 0.0
H878 H 0.93709 0.39725 0.72473 0.0
H879 H 0.01319 0.30389 0.74302 0.0
H880 H 0.01888 0.35396 0.68701 0.0
H881 H 0.98409 0.36881 0.66791 0.0
H882 H 0.91722 0.30968 0.68319 0.0
H883 H 0.95171 0.2942 0.70225 0.0
C884 C 0.13699 0.26367 0.7132 0.0
C885 C 0.13579 0.24384 0.7016 0.0
C886 C 0.11151 0.27993 0.71697 0.0
C887 C 0.08409 0.27534 0.70965 0.0
C888 C 0.08333 0.25594 0.69787 0.0
C889 C 0.10895 0.24073 0.69378 0.0
C890 C 0.05583 0.28973 0.71432 0.0
C891 C 0.03652 0.30208 0.7041 0.0
C892 C 0.04689 0.28986 0.72851 0.0
C893 C 0.0646 0.27509 0.73975 0.0
C894 C 0.07124 0.2444 0.73873 0.0
C895 C 0.08811 0.23069 0.74933 0.0
C896 C 0.09823 0.24737 0.76106 0.0
C897 C 0.09142 0.2778 0.76224 0.0
C898 C 0.0746 0.29164 0.75166 0.0
C899 C 0.92738 0.32986 0.74017 0.0
C900 C 0.92155 0.35975 0.73671 0.0
C901 C 0.95259 0.31516 0.73506 0.0
C902 C 0.9724 0.33004 0.72637 0.0
C903 C 0.96607 0.35953 0.72252 0.0
C904 C 0.94079 0.37418 0.72755 0.0
C905 C 0.00039 0.31528 0.72185 0.0
C906 C 0.01966 0.30324 0.73211 0.0
C907 C 0.00861 0.31399 0.70762 0.0
C908 C 0.98779 0.3232 0.69615 0.0
C909 C 0.99678 0.34409 0.68627 0.0
C910 C 0.97711 0.35262 0.67545 0.0
C911 C 0.94843 0.34028 0.67437 0.0
C912 C 0.93939 0.31933 0.68407 0.0
C913 C 0.95897 0.31071 0.6949 0.0
H914 H 0.93324 0.34692 0.66599 0.0
H915 H 0.11129 0.23671 0.76925 0.0
H916 H 0.95681 0.61439 0.95925 0.0
H917 H 0.93403 0.57346 0.97179 0.0
H918 H 0.8674 0.56289 0.93866 0.0
H919 H 0.89043 0.60348 0.92582 0.0
H920 H 0.84692 0.55589 0.96827 0.0
H921 H 0.92172 0.52141 0.93536 0.0
H922 H 0.97201 0.52186 0.9253 0.0
H923 H 0.01092 0.49966 0.96538 0.0
H924 H 0.96084 0.49961 0.97574 0.0
H925 H 0.79739 0.4085 0.97614 0.0
H926 H 0.81826 0.45323 0.96587 0.0
H927 H 0.89404 0.44925 0.99459 0.0
H928 H 0.87343 0.40432 0.00492 0.0
H929 H 0.91085 0.46506 0.96855 0.0
H930 H 0.83914 0.49649 0.00169 0.0
H931 H 0.79052 0.49768 0.01334 0.0
H932 H 0.74767 0.52733 0.9753 0.0
H933 H 0.79602 0.52589 0.96334 0.0
C934 C 0.9368 0.604 0.95478 0.0
C935 C 0.92557 0.61203 0.94145 0.0
C936 C 0.92391 0.5805 0.96196 0.0
C937 C 0.89932 0.56498 0.95604 0.0
C938 C 0.88644 0.5746 0.94335 0.0
C939 C 0.89962 0.59779 0.93604 0.0
C940 C 0.88907 0.53689 0.96232 0.0
C941 C 0.86069 0.53591 0.96821 0.0
C942 C 0.90752 0.51118 0.96261 0.0
C943 C 0.93758 0.51086 0.95636 0.0
C944 C 0.94102 0.51691 0.94206 0.0
C945 C 0.96948 0.51704 0.93629 0.0
C946 C 0.99465 0.51088 0.9447 0.0
C947 C 0.9914 0.50449 0.95889 0.0
C948 C 0.96299 0.5044 0.96471 0.0
C949 C 0.81873 0.4168 0.98015 0.0
C950 C 0.83361 0.40289 0.99144 0.0
C951 C 0.83053 0.44252 0.97432 0.0
C952 C 0.8574 0.45491 0.97965 0.0
C953 C 0.87317 0.44018 0.99038 0.0
C954 C 0.86134 0.41446 0.99626 0.0
C955 C 0.86838 0.48379 0.97434 0.0
C956 C 0.89699 0.48497 0.96866 0.0
C957 C 0.85031 0.50983 0.97446 0.0
C958 C 0.82116 0.51077 0.98158 0.0
C959 C 0.81931 0.50301 0.99577 0.0
C960 C 0.79181 0.50378 0.00244 0.0
C961 C 0.76601 0.5125 0.99505 0.0
C962 C 0.76767 0.52054 0.981 0.0
C963 C 0.79513 0.51977 0.97427 0.0
H964 H 0.74473 0.51309 1.00024 0.0
H965 H 0.01667 0.51098 0.94023 0.0
H966 H 0.59934 0.44155 0.19563 0.0
H967 H 0.64488 0.42731 0.20869 0.0
H968 H 0.60034 0.34891 0.22344 0.0
H969 H 0.5548 0.3631 0.2106 0.0
H970 H 0.6337 0.37612 0.24447 0.0
H971 H 0.64851 0.3452 0.19584 0.0
H972 H 0.65237 0.35321 0.1704 0.0
H973 H 0.72295 0.4168 0.17829 0.0
H974 H 0.71922 0.40946 0.20379 0.0
H975 H 0.75164 0.27866 0.26284 0.0
H976 H 0.7081 0.30664 0.25494 0.0
H977 H 0.76554 0.37231 0.23683 0.0
H978 H 0.80942 0.34322 0.24406 0.0
H979 H 0.72695 0.35779 0.21851 0.0
H980 H 0.71726 0.38698 0.26635 0.0
H981 H 0.71551 0.38047 0.29195 0.0
H982 H 0.63801 0.32449 0.2865 0.0
H983 H 0.6395 0.33034 0.26084 0.0
C984 C 0.5992 0.42131 0.20166 0.0
C985 C 0.57335 0.40341 0.20195 0.0
C986 C 0.6253 0.41316 0.20912 0.0
C987 C 0.62621 0.38686 0.21697 0.0
C988 C 0.60027 0.36931 0.2175 0.0
C989 C 0.57422 0.37743 0.21007 0.0
C990 C 0.65432 0.37704 0.22429 0.0
C991 C 0.65408 0.37193 0.2388 0.0
C992 C 0.68129 0.37257 0.21703 0.0
C993 C 0.68332 0.37707 0.20172 0.0
C994 C 0.66465 0.3611 0.19215 0.0
C995 C 0.66686 0.36547 0.17772 0.0
C996 C 0.68782 0.38558 0.17273 0.0
C997 C 0.70667 0.40129 0.18217 0.0
C998 C 0.70453 0.39704 0.1966 0.0
C999 C 0.75514 0.29946 0.25749 0.0
C1000 C 0.7841 0.30859 0.25403 0.0
C1001 C 0.73006 0.31563 0.25301 0.0
C1002 C 0.73326 0.34187 0.24532 0.0
C1003 C 0.76231 0.35209 0.24267 0.0
C1004 C 0.78745 0.33554 0.24689 0.0
C1005 C 0.7065 0.35658 0.23876 0.0
C1006 C 0.70686 0.36246 0.22433 0.0
C1007 C 0.67988 0.36224 0.24618 0.0
C1008 C 0.6786 0.35898 0.26164 0.0
C1009 C 0.69993 0.37315 0.27059 0.0
C1010 C 0.69897 0.36959 0.28512 0.0
C1011 C 0.67669 0.35204 0.29085 0.0
C1012 C 0.65525 0.33809 0.28205 0.0
C1013 C 0.65611 0.34157 0.26751 0.0
H1014 H 0.67601 0.34928 0.3021 0.0
H1015 H 0.6895 0.38892 0.16156 0.0
H1016 H 0.20837 0.02963 0.38154 0.0
H1017 H 0.2221 0.00621 0.40385 0.0
H1018 H 0.25963 0.08965 0.41937 0.0
H1019 H 0.24605 0.11316 0.39729 0.0
H1020 H 0.29716 0.04319 0.42422 0.0
H1021 H 0.19592 0.06841 0.43175 0.0
H1022 H 0.14167 0.07144 0.42689 0.0
H1023 H 0.13528 0.9757 0.42742 0.0
H1024 H 0.18965 0.97206 0.43208 0.0
H1025 H 0.31372 0.99633 0.49543 0.0
H1026 H 0.29533 0.02466 0.47522 0.0
H1027 H 0.26593 0.94271 0.45464 0.0
H1028 H 0.28454 0.91422 0.47466 0.0
H1029 H 0.22361 0.99167 0.45352 0.0
H1030 H 0.32825 0.96913 0.44518 0.0
H1031 H 0.38198 0.96958 0.45162 0.0
H1032 H 0.38073 0.06548 0.45444 0.0
H1033 H 0.32684 0.06559 0.44821 0.0
C1034 C 0.21948 0.04296 0.38972 0.0
C1035 C 0.2261 0.07321 0.38763 0.0
C1036 C 0.2272 0.02962 0.40246 0.0
C1037 C 0.24177 0.04629 0.41325 0.0
C1038 C 0.24844 0.07642 0.41117 0.0
C1039 C 0.24054 0.0898 0.39854 0.0
C1040 C 0.25065 0.03219 0.42663 0.0
C1041 C 0.28102 0.03225 0.43071 0.0
C1042 C 0.22958 0.01797 0.43508 0.0
C1043 C 0.19694 0.01994 0.43209 0.0
C1044 C 0.18302 0.04797 0.43067 0.0
C1045 C 0.15223 0.04981 0.42799 0.0
C1046 C 0.13505 0.02378 0.4268 0.0
C1047 C 0.14863 0.99585 0.42831 0.0
C1048 C 0.17944 0.99388 0.43098 0.0
C1049 C 0.30308 0.98441 0.48665 0.0
C1050 C 0.30063 0.95308 0.48657 0.0
C1051 C 0.29268 0.00058 0.47513 0.0
C1052 C 0.2794 0.98566 0.46349 0.0
C1053 C 0.27609 0.95453 0.46358 0.0
C1054 C 0.28686 0.93833 0.47497 0.0
C1055 C 0.27006 0.00224 0.4509 0.0
C1056 C 0.23964 0.00269 0.447 0.0
C1057 C 0.291 0.0174 0.44275 0.0
C1058 C 0.32346 0.01735 0.44635 0.0
C1059 C 0.33938 0.99031 0.44727 0.0
C1060 C 0.36987 0.99046 0.45086 0.0
C1061 C 0.38475 0.01754 0.45343 0.0
C1062 C 0.36917 0.04452 0.45243 0.0
C1063 C 0.33866 0.04449 0.44886 0.0
H1064 H 0.40836 0.01761 0.4562 0.0
H1065 H 0.1112 0.02525 0.42474 0.0
H1066 H 0.13399 0.694 0.62894 0.0
H1067 H 0.15811 0.70592 0.65171 0.0
H1068 H 0.07529 0.68931 0.67244 0.0
H1069 H 0.05106 0.6768 0.64978 0.0
H1070 H 0.10465 0.74678 0.67918 0.0
H1071 H 0.12387 0.64141 0.67788 0.0
H1072 H 0.1406 0.59399 0.66699 0.0
H1073 H 0.22923 0.62949 0.66357 0.0
H1074 H 0.2129 0.67732 0.67426 0.0
H1075 H 0.16988 0.76369 0.74794 0.0
H1076 H 0.14198 0.74257 0.72767 0.0
H1077 H 0.22212 0.74324 0.70335 0.0
H1078 H 0.25017 0.76423 0.72351 0.0
H1079 H 0.19077 0.69111 0.69953 0.0
H1080 H 0.17201 0.79677 0.6991 0.0
H1081 H 0.15622 0.84551 0.70896 0.0
H1082 H 0.06783 0.81119 0.71471 0.0
H1083 H 0.08324 0.76204 0.70508 0.0
C1084 C 0.12104 0.69239 0.63837 0.0
C1085 C 0.09067 0.68438 0.63756 0.0
C1086 C 0.13482 0.69926 0.65134 0.0
C1087 C 0.11838 0.69856 0.66369 0.0
C1088 C 0.08825 0.69001 0.66299 0.0
C1089 C 0.07456 0.68266 0.65004 0.0
C1090 C 0.1326 0.70776 0.67725 0.0
C1091 C 0.1231 0.73435 0.68382 0.0
C1092 C 0.15706 0.69184 0.68303 0.0
C1093 C 0.1671 0.66302 0.67676 0.0
C1094 C 0.14687 0.63919 0.67471 0.0
C1095 C 0.15629 0.61222 0.66859 0.0
C1096 C 0.18594 0.60875 0.66456 0.0
C1097 C 0.20626 0.63222 0.66668 0.0
C1098 C 0.19695 0.65925 0.67279 0.0
C1099 C 0.18161 0.75914 0.73831 0.0
C1100 C 0.21222 0.76575 0.73732 0.0
C1101 C 0.16562 0.74718 0.72673 0.0
C1102 C 0.17998 0.74157 0.714 0.0
C1103 C 0.21065 0.7474 0.7131 0.0
C1104 C 0.2266 0.75952 0.72461 0.0
C1105 C 0.163 0.7303 0.70146 0.0
C1106 C 0.17206 0.70337 0.69504 0.0
C1107 C 0.13825 0.74607 0.69576 0.0
C1108 C 0.12889 0.77561 0.70154 0.0
C1109 C 0.14928 0.79952 0.70259 0.0
C1110 C 0.14039 0.82724 0.70811 0.0
C1111 C 0.11107 0.83142 0.7125 0.0
C1112 C 0.09055 0.8079 0.71134 0.0
C1113 C 0.09935 0.7801 0.70584 0.0
H1114 H 0.10422 0.8529 0.71677 0.0
H1115 H 0.19319 0.58786 0.65982 0.0
H1116 H 0.53442 0.52714 0.90944 0.0
H1117 H 0.51633 0.5599 0.92819 0.0
H1118 H 0.4798 0.61993 0.89733 0.0
H1119 H 0.49846 0.58742 0.8785 0.0
H1120 H 0.50394 0.65034 0.91987 0.0
H1121 H 0.43469 0.56982 0.91192 0.0
H1122 H 0.41935 0.51707 0.90902 0.0
H1123 H 0.45135 0.49928 0.95087 0.0
H1124 H 0.46714 0.5519 0.95397 0.0
H1125 H 0.39918 0.72254 0.96415 0.0
H1126 H 0.42294 0.69412 0.94534 0.0
H1127 H 0.45914 0.63254 0.97557 0.0
H1128 H 0.43498 0.66057 0.99449 0.0
H1129 H 0.43506 0.60343 0.95306 0.0
H1130 H 0.50304 0.68593 0.96085 0.0
H1131 H 0.51711 0.73913 0.96314 0.0
H1132 H 0.48586 0.75373 0.92087 0.0
H1133 H 0.47121 0.70069 0.9184 0.0
C1134 C 0.5232 0.54764 0.90666 0.0
C1135 C 0.51784 0.55457 0.89251 0.0
C1136 C 0.51261 0.56622 0.91737 0.0
C1137 C 0.49619 0.59202 0.91414 0.0
C1138 C 0.49229 0.60001 0.90005 0.0
C1139 C 0.50298 0.58141 0.8893 0.0
C1140 C 0.48183 0.60971 0.92546 0.0
C1141 C 0.48863 0.6402 0.92704 0.0
C1142 C 0.46211 0.59633 0.9349 0.0
C1143 C 0.45234 0.56474 0.93313 0.0
C1144 C 0.43861 0.55462 0.92048 0.0
C1145 C 0.4298 0.52476 0.9188 0.0
C1146 C 0.43443 0.50482 0.92974 0.0
C1147 C 0.44777 0.51475 0.9424 0.0
C1148 C 0.45662 0.5446 0.94413 0.0
C1149 C 0.41231 0.70304 0.96684 0.0
C1150 C 0.41526 0.6939 0.98086 0.0
C1151 C 0.42597 0.68687 0.95606 0.0
C1152 C 0.44312 0.66142 0.95907 0.0
C1153 C 0.44606 0.65217 0.97302 0.0
C1154 C 0.43232 0.66828 0.98383 0.0
C1155 C 0.45745 0.64406 0.94761 0.0
C1156 C 0.45049 0.61359 0.94595 0.0
C1157 C 0.47682 0.65754 0.93804 0.0
C1158 C 0.48578 0.6894 0.93949 0.0
C1159 C 0.49897 0.70054 0.95208 0.0
C1160 C 0.50708 0.73066 0.95341 0.0
C1161 C 0.50232 0.74982 0.94217 0.0
C1162 C 0.4895 0.73888 0.92957 0.0
C1163 C 0.48132 0.70878 0.9282 0.0
H1164 H 0.50861 0.77313 0.94322 0.0
H1165 H 0.42762 0.4817 0.92842 0.0
H1166 H 0.6854 0.99109 0.15756 0.0
H1167 H 0.65722 0.97186 0.17691 0.0
H1168 H 0.61827 0.90402 0.14933 0.0
H1169 H 0.64655 0.92347 0.12973 0.0
H1170 H 0.57604 0.93182 0.16403 0.0
H1171 H 0.66914 0.88556 0.1757 0.0
H1172 H 0.72371 0.88337 0.17983 0.0
H1173 H 0.71687 0.94721 0.21389 0.0
H1174 H 0.66229 0.95007 0.20985 0.0
H1175 H 0.50387 0.86593 0.22237 0.0
H1176 H 0.53383 0.87492 0.20175 0.0
H1177 H 0.58056 0.94603 0.22427 0.0
H1178 H 0.55106 0.93684 0.24501 0.0
H1179 H 0.61903 0.91048 0.21123 0.0
H1180 H 0.52638 0.95911 0.1984 0.0
H1181 H 0.47206 0.9626 0.19369 0.0
H1182 H 0.47814 0.89449 0.16145 0.0
H1183 H 0.53245 0.89027 0.16611 0.0
C1184 C 0.67166 0.97146 0.15566 0.0
C1185 C 0.66865 0.95858 0.14211 0.0
C1186 C 0.65536 0.96054 0.16676 0.0
C1187 C 0.63577 0.93627 0.16465 0.0
C1188 C 0.63329 0.92274 0.15123 0.0
C1189 C 0.64963 0.93374 0.14006 0.0
C1190 C 0.61666 0.92652 0.17631 0.0
C1191 C 0.58546 0.92651 0.17427 0.0
C1192 C 0.62886 0.92021 0.18978 0.0
C1193 C 0.66163 0.91815 0.19241 0.0
C1194 C 0.67929 0.89924 0.18403 0.0
C1195 C 0.71023 0.89787 0.18635 0.0
C1196 C 0.72376 0.91518 0.19709 0.0
C1197 C 0.70636 0.93381 0.20557 0.0
C1198 C 0.67541 0.93528 0.20328 0.0
C1199 C 0.52038 0.88364 0.22292 0.0
C1200 C 0.52506 0.90066 0.23538 0.0
C1201 C 0.53745 0.88881 0.21108 0.0
C1202 C 0.55938 0.91128 0.21139 0.0
C1203 C 0.56384 0.92851 0.22377 0.0
C1204 C 0.54686 0.9233 0.23562 0.0
C1205 C 0.57838 0.91637 0.19903 0.0
C1206 C 0.60959 0.91543 0.20094 0.0
C1207 C 0.56614 0.92175 0.18546 0.0
C1208 C 0.53344 0.92411 0.18273 0.0
C1209 C 0.51609 0.94466 0.1904 0.0
C1210 C 0.48531 0.94681 0.18773 0.0
C1211 C 0.47164 0.9287 0.17732 0.0
C1212 C 0.48874 0.90845 0.16954 0.0
C1213 C 0.51952 0.90617 0.17219 0.0
H1214 H 0.44781 0.93043 0.17525 0.0
H1215 H 0.74772 0.91412 0.19887 0.0
H1216 H 0.06769 0.71558 0.90831 0.0
H1217 H 0.09517 0.73837 0.88961 0.0
H1218 H 0.0127 0.77202 0.87164 0.0
H1219 H 0.98471 0.74834 0.89022 0.0
H1220 H 0.04399 0.74247 0.85242 0.0
H1221 H 0.06794 0.81918 0.88719 0.0
H1222 H 0.08609 0.83847 0.91029 0.0
H1223 H 0.17201 0.79857 0.90346 0.0
H1224 H 0.15427 0.77873 0.8804 0.0
H1225 H 0.11859 0.81751 0.7982 0.0
H1226 H 0.08854 0.80753 0.81874 0.0
H1227 H 0.16556 0.769 0.83961 0.0
H1228 H 0.19575 0.779 0.81921 0.0
H1229 H 0.13527 0.80506 0.85734 0.0
H1230 H 0.1133 0.72436 0.82531 0.0
H1231 H 0.09802 0.70033 0.80276 0.0
H1232 H 0.0118 0.74218 0.80506 0.0
H1233 H 0.02674 0.76684 0.82756 0.0
C1234 C 0.05533 0.72833 0.90057 0.0
C1235 C 0.0239 0.72992 0.90073 0.0
C1236 C 0.07118 0.74154 0.88988 0.0
C1237 C 0.05608 0.75709 0.87922 0.0
C1238 C 0.02484 0.76012 0.87976 0.0
C1239 C 0.00888 0.74674 0.89044 0.0
C1240 C 0.07263 0.76751 0.86687 0.0
C1241 C 0.0635 0.75681 0.85348 0.0
C1242 C 0.09891 0.7851 0.86828 0.0
C1243 C 0.1097 0.79733 0.88209 0.0
C1244 C 0.09065 0.81438 0.89065 0.0
C1245 C 0.10088 0.82543 0.90373 0.0
C1246 C 0.13017 0.81971 0.90834 0.0
C1247 C 0.14933 0.80299 0.89987 0.0
C1248 C 0.13921 0.79189 0.88678 0.0
C1249 C 0.12914 0.80695 0.80716 0.0
C1250 C 0.15954 0.79892 0.80702 0.0
C1251 C 0.11193 0.80121 0.81889 0.0
C1252 C 0.12477 0.78736 0.83068 0.0
C1253 C 0.1552 0.77977 0.83064 0.0
C1254 C 0.17238 0.78537 0.81893 0.0
C1255 C 0.10642 0.78019 0.84296 0.0
C1256 C 0.11537 0.79126 0.85629 0.0
C1257 C 0.08033 0.76243 0.84157 0.0
C1258 C 0.07127 0.74776 0.82802 0.0
C1259 C 0.09118 0.72868 0.82094 0.0
C1260 C 0.08257 0.7149 0.80818 0.0
C1261 C 0.05399 0.71981 0.80245 0.0
C1262 C 0.03395 0.73846 0.80949 0.0
C1263 C 0.04248 0.75234 0.82225 0.0
H1264 H 0.04735 0.7091 0.79258 0.0
H1265 H 0.13803 0.82827 0.91848 0.0
H1266 H 0.44149 0.46433 0.13219 0.0
H1267 H 0.42378 0.49742 0.1136 0.0
H1268 H 0.4657 0.57262 0.13521 0.0
H1269 H 0.48266 0.53999 0.15395 0.0
H1270 H 0.41712 0.59138 0.12352 0.0
H1271 H 0.50076 0.53796 0.10708 0.0
H1272 H 0.53342 0.49514 0.1016 0.0
H1273 H 0.46518 0.45756 0.07414 0.0
H1274 H 0.43218 0.50048 0.07935 0.0
H1275 H 0.42354 0.6808 0.06178 0.0
H1276 H 0.43795 0.65106 0.08214 0.0
H1277 H 0.38583 0.57701 0.06532 0.0
H1278 H 0.37157 0.60638 0.04489 0.0
H1279 H 0.44147 0.55976 0.07488 0.0
H1280 H 0.36034 0.62333 0.09217 0.0
H1281 H 0.33753 0.67258 0.09707 0.0
H1282 H 0.41325 0.69738 0.12328 0.0
H1283 H 0.43666 0.64841 0.11841 0.0
C1284 C 0.44639 0.488 0.13314 0.0
C1285 C 0.46387 0.49937 0.14449 0.0
C1286 C 0.43652 0.50689 0.12242 0.0
C1287 C 0.44408 0.53745 0.12278 0.0
C1288 C 0.45977 0.54914 0.13457 0.0
C1289 C 0.46953 0.53035 0.1453 0.0
C1290 C 0.43692 0.55688 0.1106 0.0
C1291 C 0.42262 0.58449 0.1129 0.0
C1292 C 0.44453 0.54838 0.09673 0.0
C1293 C 0.46387 0.52218 0.09375 0.0
C1294 C 0.49261 0.52041 0.09997 0.0
C1295 C 0.51122 0.49616 0.09689 0.0
C1296 C 0.50129 0.47345 0.08764 0.0
C1297 C 0.4728 0.4751 0.08135 0.0
C1298 C 0.45417 0.49945 0.08432 0.0
C1299 C 0.41516 0.65816 0.0624 0.0
C1300 C 0.39632 0.646 0.0517 0.0
C1301 C 0.42332 0.64125 0.07409 0.0
C1302 C 0.41266 0.61191 0.07535 0.0
C1303 C 0.39423 0.59962 0.06459 0.0
C1304 C 0.38607 0.61648 0.05292 0.0
C1305 C 0.42087 0.5937 0.08775 0.0
C1306 C 0.43566 0.56642 0.08549 0.0
C1307 C 0.4148 0.60315 0.10168 0.0
C1308 C 0.40032 0.63228 0.10485 0.0
C1309 C 0.37216 0.63933 0.09893 0.0
C1310 C 0.35913 0.6672 0.10171 0.0
C1311 C 0.37396 0.68811 0.11046 0.0
C1312 C 0.4018 0.68117 0.1165 0.0
C1313 C 0.41493 0.65335 0.11376 0.0
H1314 H 0.36385 0.70969 0.11257 0.0
H1315 H 0.51573 0.45465 0.08528 0.0
H1316 H 0.6954 0.9247 0.39051 0.0
H1317 H 0.67317 0.90359 0.36874 0.0
H1318 H 0.58757 0.89882 0.38858 0.0
H1319 H 0.60977 0.91835 0.41036 0.0
H1320 H 0.59281 0.85305 0.37268 0.0
H1321 H 0.61141 0.9593 0.36662 0.0
H1322 H 0.64313 0.00428 0.36549 0.0
H1323 H 0.69348 0.96293 0.33252 0.0
H1324 H 0.66226 0.91758 0.33358 0.0
H1325 H 0.48148 0.86508 0.32152 0.0
H1326 H 0.51767 0.8757 0.34041 0.0
H1327 H 0.58964 0.8677 0.31118 0.0
H1328 H 0.55294 0.85848 0.2919 0.0
H1329 H 0.59975 0.91294 0.32963 0.0
H1330 H 0.57239 0.80937 0.33388 0.0
H1331 H 0.53636 0.7678 0.33499 0.0
H1332 H 0.49853 0.80762 0.37194 0.0
H1333 H 0.53409 0.84956 0.37097 0.0
C1334 C 0.67199 0.91848 0.3903 0.0
C1335 C 0.65434 0.92334 0.40217 0.0
C1336 C 0.65923 0.90672 0.37779 0.0
C1337 C 0.62849 0.90026 0.37687 0.0
C1338 C 0.61131 0.90366 0.38896 0.0
C1339 C 0.6241 0.91484 0.40147 0.0
C1340 C 0.61348 0.89107 0.36336 0.0
C1341 C 0.59434 0.86622 0.36329 0.0
C1342 C 0.61602 0.90768 0.35091 0.0
C1343 C 0.63477 0.93493 0.35031 0.0
C1344 C 0.62939 0.95973 0.35921 0.0
C1345 C 0.64725 0.9853 0.35857 0.0
C1346 C 0.67037 0.98642 0.34898 0.0
C1347 C 0.67562 0.96201 0.33997 0.0
C1348 C 0.65785 0.93638 0.34059 0.0
C1349 C 0.50501 0.86554 0.31909 0.0
C1350 C 0.51447 0.86049 0.3053 0.0
C1351 C 0.52572 0.87149 0.32992 0.0
C1352 C 0.55647 0.87153 0.32732 0.0
C1353 C 0.56603 0.86742 0.31345 0.0
C1354 C 0.54512 0.86212 0.30248 0.0
C1355 C 0.57822 0.87575 0.33923 0.0
C1356 C 0.59872 0.89946 0.33894 0.0
C1357 C 0.57661 0.85842 0.35146 0.0
C1358 C 0.55592 0.83261 0.35234 0.0
C1359 C 0.55638 0.80925 0.34224 0.0
C1360 C 0.53602 0.78564 0.34284 0.0
C1361 C 0.51517 0.78507 0.35353 0.0
C1362 C 0.51472 0.80805 0.36368 0.0
C1363 C 0.53503 0.8317 0.36314 0.0
H1364 H 0.49937 0.76682 0.35395 0.0
H1365 H 0.68416 0.00624 0.3485 0.0
H1366 H 0.23467 0.16688 0.64194 0.0
H1367 H 0.25334 0.1434 0.62048 0.0
H1368 H 0.29021 0.07101 0.64453 0.0
H1369 H 0.27088 0.09395 0.66609 0.0
H1370 H 0.32678 0.09384 0.62063 0.0
H1371 H 0.22873 0.0565 0.63232 0.0
H1372 H 0.17593 0.06268 0.63868 0.0
H1373 H 0.15825 0.1099 0.60059 0.0
H1374 H 0.21113 0.10435 0.5941 0.0
H1375 H 0.33773 0.97776 0.56932 0.0
H1376 H 0.32928 0.00888 0.59018 0.0
H1377 H 0.26844 0.06417 0.5663 0.0
H1378 H 0.276 0.0324 0.54549 0.0
H1379 H 0.24484 0.05262 0.58999 0.0
H1380 H 0.341 0.08765 0.57705 0.0
H1381 H 0.39392 0.08385 0.57055 0.0
H1382 H 0.41564 0.04423 0.61018 0.0
H1383 H 0.36276 0.04741 0.61684 0.0
C1384 C 0.24749 0.14643 0.64276 0.0
C1385 C 0.25115 0.13213 0.6557 0.0
C1386 C 0.25802 0.13299 0.63046 0.0
C1387 C 0.27283 0.10539 0.63096 0.0
C1388 C 0.27878 0.09233 0.64398 0.0
C1389 C 0.26775 0.10546 0.65626 0.0
C1390 C 0.27923 0.08869 0.61782 0.0
C1391 C 0.30899 0.08455 0.61395 0.0
C1392 C 0.25584 0.07731 0.60902 0.0
C1393 C 0.22397 0.08036 0.61282 0.0
C1394 C 0.21366 0.06846 0.62537 0.0
C1395 C 0.1837 0.07179 0.62898 0.0
C1396 C 0.16377 0.08677 0.62007 0.0
C1397 C 0.17374 0.09835 0.60749 0.0
C1398 C 0.20369 0.0951 0.60384 0.0
C1399 C 0.32275 0.9967 0.56846 0.0
C1400 C 0.30756 0.00263 0.55573 0.0
C1401 C 0.31804 0.0146 0.5804 0.0
C1402 C 0.29853 0.03919 0.5798 0.0
C1403 C 0.28363 0.04536 0.56704 0.0
C1404 C 0.28803 0.02723 0.55513 0.0
C1405 C 0.29263 0.05761 0.59263 0.0
C1406 C 0.26282 0.06202 0.59652 0.0
C1407 C 0.31602 0.06949 0.60136 0.0
C1408 C 0.34785 0.06753 0.59739 0.0
C1409 C 0.35702 0.07791 0.58434 0.0
C1410 C 0.38701 0.0759 0.58063 0.0
C1411 C 0.40812 0.06374 0.58993 0.0
C1412 C 0.39927 0.05362 0.60298 0.0
C1413 C 0.36929 0.05554 0.60673 0.0
H1414 H 0.43133 0.06222 0.58704 0.0
H1415 H 0.14059 0.08935 0.62288 0.0
H1416 H 0.50582 0.42567 0.89091 0.0
H1417 H 0.52898 0.40261 0.91163 0.0
H1418 H 0.61484 0.40499 0.89187 0.0
H1419 H 0.59172 0.42582 0.87105 0.0
H1420 H 0.61374 0.35782 0.90449 0.0
H1421 H 0.59489 0.45995 0.92159 0.0
H1422 H 0.56443 0.50473 0.92651 0.0
H1423 H 0.50127 0.45128 0.94817 0.0
H1424 H 0.53228 0.40634 0.94392 0.0
H1425 H 0.71673 0.36324 0.96176 0.0
H1426 H 0.68408 0.37521 0.94181 0.0
H1427 H 0.60701 0.35032 0.96531 0.0
H1428 H 0.6396 0.33891 0.98553 0.0
H1429 H 0.59829 0.40279 0.95179 0.0
H1430 H 0.63515 0.3039 0.93885 0.0
H1431 H 0.67525 0.26701 0.93483 0.0
H1432 H 0.71273 0.32313 0.90373 0.0
H1433 H 0.67307 0.36048 0.90767 0.0
C1434 C 0.52952 0.42074 0.89094 0.0
C1435 C 0.54686 0.42759 0.87931 0.0
C1436 C 0.54287 0.40797 0.90288 0.0
C1437 C 0.5739 0.40258 0.90353 0.0
C1438 C 0.5909 0.40873 0.89173 0.0
C1439 C 0.57755 0.42076 0.87976 0.0
C1440 C 0.58918 0.39083 0.91638 0.0
C1441 C 0.61037 0.36783 0.91481 0.0
C1442 C 0.58469 0.40331 0.92996 0.0
C1443 C 0.56558 0.42985 0.93226 0.0
C1444 C 0.5744 0.45778 0.92733 0.0
C1445 C 0.5571 0.48318 0.93003 0.0
C1446 C 0.53062 0.48081 0.93743 0.0
C1447 C 0.52169 0.45306 0.94237 0.0
C1448 C 0.53926 0.42767 0.93993 0.0
C1449 C 0.69286 0.36007 0.96269 0.0
C1450 C 0.68081 0.34992 0.97524 0.0
C1451 C 0.6742 0.36685 0.95123 0.0
C1452 C 0.64311 0.36318 0.95196 0.0
C1453 C 0.63095 0.35316 0.96448 0.0
C1454 C 0.64962 0.34656 0.97601 0.0
C1455 C 0.62335 0.37054 0.93975 0.0
C1456 C 0.60124 0.39251 0.94149 0.0
C1457 C 0.62783 0.35792 0.92622 0.0
C1458 C 0.65117 0.33501 0.92359 0.0
C1459 C 0.65198 0.30838 0.93118 0.0
C1460 C 0.67464 0.2874 0.92891 0.0
C1461 C 0.69653 0.29273 0.91904 0.0
C1462 C 0.69575 0.319 0.91136 0.0
C1463 C 0.67315 0.34005 0.91359 0.0
H1464 H 0.71409 0.27649 0.91733 0.0
H1465 H 0.51716 0.5005 0.93944 0.0
H1466 H 0.75218 0.07501 0.1233 0.0
H1467 H 0.77159 0.09455 0.14571 0.0
H1468 H 0.68282 0.09447 0.16234 0.0
H1469 H 0.66294 0.07385 0.13987 0.0
H1470 H 0.72133 0.15019 0.16672 0.0
H1471 H 0.71909 0.04563 0.17714 0.0
H1472 H 0.72672 0.99129 0.17377 0.0
H1473 H 0.82026 0.00565 0.16752 0.0
H1474 H 0.81338 0.05998 0.17123 0.0
H1475 H 0.78134 0.16778 0.23774 0.0
H1476 H 0.75598 0.1396 0.2187 0.0
H1477 H 0.8295 0.15656 0.19154 0.0
H1478 H 0.85478 0.18571 0.21041 0.0
H1479 H 0.79327 0.08949 0.19464 0.0
H1480 H 0.79133 0.19631 0.18085 0.0
H1481 H 0.78323 0.24952 0.18698 0.0
H1482 H 0.69489 0.22926 0.20071 0.0
H1483 H 0.70274 0.1758 0.19484 0.0
C1484 C 0.73657 0.07935 0.13162 0.0
C1485 C 0.70595 0.07281 0.12978 0.0
C1486 C 0.74781 0.09031 0.14446 0.0
C1487 C 0.72868 0.09542 0.15567 0.0
C1488 C 0.69789 0.09032 0.15378 0.0
C1489 C 0.68659 0.07879 0.14094 0.0
C1490 C 0.74141 0.10674 0.16917 0.0
C1491 C 0.73661 0.13675 0.17297 0.0
C1492 C 0.76158 0.08927 0.1772 0.0
C1493 C 0.76565 0.05687 0.17429 0.0
C1494 C 0.74122 0.03722 0.17488 0.0
C1495 C 0.74542 0.00643 0.17297 0.0
C1496 C 0.77385 0.99508 0.17025 0.0
C1497 C 0.79822 0.01448 0.16956 0.0
C1498 C 0.79423 0.04525 0.17166 0.0
C1499 C 0.79244 0.16505 0.22781 0.0
C1500 C 0.81997 0.17912 0.22552 0.0
C1501 C 0.77788 0.149 0.21697 0.0
C1502 C 0.79089 0.14629 0.20379 0.0
C1503 C 0.81921 0.15858 0.2017 0.0
C1504 C 0.83355 0.17521 0.21245 0.0
C1505 C 0.77368 0.13297 0.19189 0.0
C1506 C 0.7777 0.10271 0.18845 0.0
C1507 C 0.75266 0.15009 0.18423 0.0
C1508 C 0.74774 0.18213 0.18758 0.0
C1509 C 0.7703 0.2032 0.1853 0.0
C1510 C 0.76574 0.23339 0.1887 0.0
C1511 C 0.73859 0.24276 0.19428 0.0
C1512 C 0.71592 0.22196 0.19642 0.0
C1513 C 0.72041 0.19173 0.19306 0.0
H1514 H 0.73509 0.26614 0.1969 0.0
H1515 H 0.77702 0.97124 0.16877 0.0
H1516 H 0.20553 0.23229 0.38721 0.0
H1517 H 0.18123 0.26284 0.40553 0.0
H1518 H 0.10139 0.2092 0.40032 0.0
H1519 H 0.12483 0.17978 0.38205 0.0
H1520 H 0.08555 0.2635 0.40436 0.0
H1521 H 0.15692 0.19654 0.42629 0.0
H1522 H 0.20704 0.17572 0.43128 0.0
H1523 H 0.2375 0.26189 0.44627 0.0
H1524 H 0.18761 0.28329 0.44119 0.0
H1525 H 0.01199 0.25586 0.46831 0.0
H1526 H 0.04277 0.24486 0.44805 0.0
H1527 H 0.10218 0.31719 0.46026 0.0
H1528 H 0.07155 0.32829 0.48073 0.0
H1529 H 0.13228 0.26523 0.4521 0.0
H1530 H 0.05258 0.32696 0.4337 0.0
H1531 H 0.99976 0.3412 0.42992 0.0
H1532 H 0.98213 0.25672 0.40916 0.0
H1533 H 0.03472 0.24181 0.41298 0.0
C1534 C 0.1826 0.22758 0.38982 0.0
C1535 C 0.16721 0.20347 0.38331 0.0
C1536 C 0.16881 0.24484 0.40035 0.0
C1537 C 0.13957 0.23806 0.40447 0.0
C1538 C 0.1239 0.21498 0.39739 0.0
C1539 C 0.13748 0.19799 0.38696 0.0
C1540 C 0.12523 0.25332 0.41661 0.0
C1541 C 0.09586 0.26394 0.41478 0.0
C1542 C 0.13871 0.25436 0.43022 0.0
C1543 C 0.16872 0.2416 0.43316 0.0
C1544 C 0.1744 0.2111 0.43052 0.0
C1545 C 0.20274 0.19918 0.43339 0.0
C1546 C 0.22548 0.2175 0.43903 0.0
C1547 C 0.2199 0.24775 0.44185 0.0
C1548 C 0.19161 0.25979 0.43898 0.0
C1549 C 0.03163 0.26944 0.46674 0.0
C1550 C 0.0392 0.29308 0.47612 0.0
C1551 C 0.04914 0.26319 0.4551 0.0
C1552 C 0.07448 0.28054 0.45252 0.0
C1553 C 0.0826 0.30367 0.46202 0.0
C1554 C 0.06504 0.30998 0.4737 0.0
C1555 C 0.09236 0.27426 0.43986 0.0
C1556 C 0.12231 0.26547 0.44161 0.0
C1557 C 0.07913 0.27403 0.42622 0.0
C1558 C 0.0476 0.28324 0.42367 0.0
C1559 C 0.03741 0.31138 0.42838 0.0
C1560 C 0.00751 0.31956 0.42623 0.0
C1561 C 0.9876 0.29987 0.41932 0.0
C1562 C 0.99757 0.27197 0.4145 0.0
C1563 C 0.02744 0.26366 0.41664 0.0
H1564 H 0.96445 0.30624 0.41768 0.0
H1565 H 0.24739 0.20823 0.44126 0.0
H1566 H 0.91115 0.62616 0.61787 0.0
H1567 H 0.89535 0.60107 0.63904 0.0
H1568 H 0.9534 0.65831 0.66437 0.0
H1569 H 0.96907 0.68376 0.64334 0.0
H1570 H 0.96433 0.59588 0.66696 0.0
H1571 H 0.88172 0.66528 0.66825 0.0
H1572 H 0.83783 0.69127 0.65819 0.0
H1573 H 0.79326 0.60714 0.65109 0.0
H1574 H 0.83708 0.5806 0.66093 0.0
H1575 H 0.93326 0.53868 0.73331 0.0
H1576 H 0.93906 0.5723 0.71368 0.0
H1577 H 0.86963 0.52483 0.69028 0.0
H1578 H 0.86323 0.49149 0.70998 0.0
H1579 H 0.86354 0.58299 0.68663 0.0
H1580 H 0.94282 0.51268 0.68337 0.0
H1581 H 0.98609 0.48289 0.6914 0.0
H1582 H 0.03641 0.56331 0.69964 0.0
H1583 H 0.99325 0.59364 0.69184 0.0
C1584 C 0.91985 0.63404 0.62798 0.0
C1585 C 0.94151 0.65683 0.62888 0.0
C1586 C 0.91084 0.61963 0.64007 0.0
C1587 C 0.92342 0.6277 0.65323 0.0
C1588 C 0.94353 0.65172 0.65428 0.0
C1589 C 0.95227 0.66639 0.64224 0.0
C1590 C 0.91809 0.60913 0.66563 0.0
C1591 C 0.94241 0.5935 0.67146 0.0
C1592 C 0.88924 0.605 0.67101 0.0
C1593 C 0.86278 0.62094 0.66522 0.0
C1594 C 0.86265 0.6523 0.66444 0.0
C1595 C 0.83777 0.66714 0.6588 0.0
C1596 C 0.8128 0.65087 0.65397 0.0
C1597 C 0.81263 0.61972 0.65482 0.0
C1598 C 0.83746 0.60477 0.66045 0.0
C1599 C 0.91913 0.53544 0.72401 0.0
C1600 C 0.89792 0.51227 0.72319 0.0
C1601 C 0.92254 0.55464 0.71278 0.0
C1602 C 0.90506 0.55084 0.70042 0.0
C1603 C 0.88337 0.52818 0.69969 0.0
C1604 C 0.87983 0.50907 0.71096 0.0
C1605 C 0.90993 0.57008 0.68815 0.0
C1606 C 0.88554 0.58559 0.68225 0.0
C1607 C 0.93863 0.57357 0.68245 0.0
C1608 C 0.96467 0.55545 0.68718 0.0
C1609 C 0.96302 0.52403 0.68701 0.0
C1610 C 0.98754 0.50704 0.6915 0.0
C1611 C 0.01395 0.5212 0.69607 0.0
C1612 C 0.01591 0.55238 0.69613 0.0
C1613 C 0.99143 0.56948 0.69167 0.0
H1614 H 0.03292 0.508 0.69954 0.0
H1615 H 0.79356 0.6624 0.6496 0.0
H1616 H 0.70584 0.1169 0.40676 0.0
H1617 H 0.72043 0.14271 0.38549 0.0
H1618 H 0.71575 0.05944 0.36195 0.0
H1619 H 0.70025 0.03365 0.38296 0.0
H1620 H 0.77512 0.10349 0.36325 0.0
H1621 H 0.67084 0.08898 0.34992 0.0
H1622 H 0.61675 0.09069 0.35428 0.0
H1623 H 0.62209 0.18547 0.36206 0.0
H1624 H 0.6764 0.18418 0.35797 0.0
H1625 H 0.79958 0.15716 0.29469 0.0
H1626 H 0.77972 0.12878 0.31403 0.0
H1627 H 0.74907 0.21059 0.33368 0.0
H1628 H 0.76884 0.23924 0.31436 0.0
H1629 H 0.70683 0.16511 0.3339 0.0
H1630 H 0.81144 0.1794 0.34548 0.0
H1631 H 0.86545 0.17692 0.34096 0.0
H1632 H 0.86003 0.08141 0.33624 0.0
H1633 H 0.80585 0.08335 0.34054 0.0
C1634 C 0.70751 0.10421 0.39702 0.0
C1635 C 0.70185 0.07332 0.39653 0.0
C1636 C 0.71588 0.11892 0.38491 0.0
C1637 C 0.71919 0.10284 0.37225 0.0
C1638 C 0.71323 0.07212 0.37166 0.0
C1639 C 0.70422 0.05753 0.38366 0.0
C1640 C 0.72975 0.1181 0.35973 0.0
C1641 C 0.76021 0.11664 0.35668 0.0
C1642 C 0.71025 0.13548 0.3514 0.0
C1643 C 0.6777 0.13641 0.35386 0.0
C1644 C 0.66054 0.11012 0.35274 0.0
C1645 C 0.62984 0.11102 0.35511 0.0
C1646 C 0.616 0.13816 0.3585 0.0
C1647 C 0.63285 0.16446 0.35947 0.0
C1648 C 0.66359 0.16366 0.35713 0.0
C1649 C 0.78848 0.16914 0.30309 0.0
C1650 C 0.78587 0.20048 0.30303 0.0
C1651 C 0.77724 0.15288 0.31414 0.0
C1652 C 0.76318 0.16765 0.32532 0.0
C1653 C 0.7599 0.19883 0.32514 0.0
C1654 C 0.7713 0.21514 0.31413 0.0
C1655 C 0.75236 0.15063 0.33734 0.0
C1656 C 0.72182 0.15185 0.34038 0.0
C1657 C 0.77185 0.13282 0.34559 0.0
C1658 C 0.80451 0.13156 0.34319 0.0
C1659 C 0.82171 0.15788 0.34338 0.0
C1660 C 0.85236 0.15657 0.34087 0.0
C1661 C 0.86615 0.12903 0.33828 0.0
C1662 C 0.84931 0.10273 0.33823 0.0
C1663 C 0.81863 0.10392 0.34071 0.0
H1664 H 0.88988 0.12808 0.33634 0.0
H1665 H 0.59222 0.13883 0.36032 0.0
H1666 H 0.09299 0.17744 0.64934 0.0
H1667 H 0.05967 0.19143 0.62976 0.0
H1668 H 0.13602 0.20239 0.60346 0.0
H1669 H 0.16929 0.18938 0.62306 0.0
H1670 H 0.10122 0.24892 0.6014 0.0
H1671 H 0.08649 0.14254 0.5995 0.0
H1672 H 0.07442 0.09345 0.60921 0.0
H1673 H 0.98632 0.12457 0.61899 0.0
H1674 H 0.99805 0.17403 0.60954 0.0
H1675 H 0.02867 0.25861 0.53498 0.0
H1676 H 0.05784 0.23913 0.55479 0.0
H1677 H 0.98026 0.24468 0.58076 0.0
H1678 H 0.95085 0.26434 0.56101 0.0
H1679 H 0.01347 0.19063 0.58353 0.0
H1680 H 0.02889 0.29701 0.5848 0.0
H1681 H 0.04165 0.34563 0.57479 0.0
H1682 H 0.12967 0.3134 0.56566 0.0
H1683 H 0.11728 0.26439 0.57543 0.0
C1684 C 0.10254 0.18227 0.63929 0.0
C1685 C 0.13367 0.18237 0.63769 0.0
C1686 C 0.08352 0.1903 0.62812 0.0
C1687 C 0.09535 0.19793 0.61512 0.0
C1688 C 0.12639 0.19683 0.61341 0.0
C1689 C 0.14536 0.18923 0.62459 0.0
C1690 C 0.0757 0.20841 0.60345 0.0
C1691 C 0.08229 0.23593 0.59739 0.0
C1692 C 0.0505 0.19191 0.59844 0.0
C1693 C 0.04324 0.16206 0.60392 0.0
C1694 C 0.0646 0.13897 0.6038 0.0
C1695 C 0.05782 0.11108 0.60925 0.0
C1696 C 0.02963 0.10591 0.61474 0.0
C1697 C 0.00815 0.12861 0.61475 0.0
C1698 C 0.01484 0.15657 0.60933 0.0
C1699 C 0.01772 0.2555 0.54486 0.0
C1700 C 0.98747 0.26317 0.54644 0.0
C1701 C 0.03444 0.24444 0.55617 0.0
C1702 C 0.0212 0.24071 0.56923 0.0
C1703 C 0.99082 0.24744 0.57074 0.0
C1704 C 0.97413 0.25877 0.55947 0.0
C1705 C 0.03943 0.23073 0.5814 0.0
C1706 C 0.03246 0.20348 0.58758 0.0
C1707 C 0.06443 0.24735 0.58647 0.0
C1708 C 0.07205 0.27692 0.58072 0.0
C1709 C 0.05089 0.3002 0.58055 0.0
C1710 C 0.05807 0.32785 0.57494 0.0
C1711 C 0.08643 0.33258 0.56956 0.0
C1712 C 0.1077 0.30969 0.56982 0.0
C1713 C 0.10062 0.28198 0.57541 0.0
H1714 H 0.09194 0.35399 0.56521 0.0
H1715 H 0.02442 0.08431 0.61896 0.0
H1716 H 0.99233 0.56436 0.89557 0.0
H1717 H 0.9764 0.53193 0.87574 0.0
H1718 H 0.95966 0.60956 0.85058 0.0
H1719 H 0.97505 0.64197 0.8703 0.0
H1720 H 0.91409 0.57171 0.84827 0.0
H1721 H 0.0208 0.56576 0.84538 0.0
H1722 H 0.0722 0.55696 0.85426 0.0
H1723 H 0.05001 0.46584 0.86277 0.0
H1724 H 0.99831 0.47422 0.85412 0.0
H1725 H 0.9033 0.50418 0.78043 0.0
H1726 H 0.92223 0.53328 0.80075 0.0
H1727 H 0.92524 0.45348 0.82538 0.0
H1728 H 0.90608 0.42415 0.80515 0.0
H1729 H 0.97705 0.49053 0.82845 0.0
H1730 H 0.86987 0.49746 0.83022 0.0
H1731 H 0.81923 0.50748 0.82067 0.0
H1732 H 0.8435 0.59863 0.81345 0.0
H1733 H 0.89447 0.58903 0.82276 0.0
C1734 C 0.98552 0.57446 0.88576 0.0
C1735 C 0.98496 0.6057 0.88449 0.0
C1736 C 0.97645 0.55593 0.87445 0.0
C1737 C 0.96696 0.56837 0.86167 0.0
C1738 C 0.96677 0.59951 0.86036 0.0
C1739 C 0.97569 0.61799 0.87164 0.0
C1740 C 0.95661 0.54911 0.84969 0.0
C1741 C 0.928 0.55418 0.84384 0.0
C1742 C 0.97453 0.52587 0.84411 0.0
C1743 C 0.00561 0.52071 0.84924 0.0
C1744 C 0.02681 0.54391 0.84925 0.0
C1745 C 0.05601 0.53899 0.85422 0.0
C1746 C 0.06434 0.51088 0.85912 0.0
C1747 C 0.04351 0.48761 0.859 0.0
C1748 C 0.01426 0.49243 0.85405 0.0
C1749 C 0.90817 0.49276 0.79014 0.0
C1750 C 0.90306 0.46189 0.79121 0.0
C1751 C 0.91889 0.50943 0.80173 0.0
C1752 C 0.92486 0.49549 0.81455 0.0
C1753 C 0.92069 0.46457 0.81556 0.0
C1754 C 0.90966 0.44792 0.80401 0.0
C1755 C 0.93475 0.5134 0.827 0.0
C1756 C 0.96318 0.50802 0.83293 0.0
C1757 C 0.91679 0.53656 0.83259 0.0
C1758 C 0.88609 0.54244 0.82706 0.0
C1759 C 0.8645 0.51958 0.82648 0.0
C1760 C 0.83572 0.52519 0.82113 0.0
C1761 C 0.82818 0.55365 0.81642 0.0
C1762 C 0.84939 0.57658 0.81709 0.0
C1763 C 0.87822 0.57107 0.82241 0.0
H1764 H 0.80588 0.55796 0.81228 0.0
H1765 H 0.08696 0.50712 0.86296 0.0
H1766 H 0.54253 0.45442 0.11864 0.0
H1767 H 0.57124 0.44509 0.0975 0.0
H1768 H 0.65092 0.43256 0.12325 0.0
H1769 H 0.62261 0.44455 0.14428 0.0
H1770 H 0.66534 0.46161 0.10246 0.0
H1771 H 0.60341 0.37231 0.10628 0.0
H1772 H 0.55574 0.34477 0.10732 0.0
H1773 H 0.52766 0.38037 0.06762 0.0
H1774 H 0.57506 0.40828 0.0664 0.0
H1775 H 0.75776 0.37467 0.05981 0.0
H1776 H 0.72379 0.39398 0.07737 0.0
H1777 H 0.65782 0.41228 0.0449 0.0
H1778 H 0.69155 0.39199 0.02717 0.0
H1779 H 0.63288 0.38606 0.06645 0.0
H1780 H 0.6987 0.46964 0.06165 0.0
H1781 H 0.74725 0.49557 0.06072 0.0
H1782 H 0.76882 0.46893 0.1028 0.0
H1783 H 0.7206 0.44254 0.10392 0.0
C1784 C 0.56627 0.44998 0.11971 0.0
C1785 C 0.58052 0.45034 0.13301 0.0
C1786 C 0.58258 0.44426 0.10765 0.0
C1787 C 0.61317 0.43739 0.10874 0.0
C1788 C 0.62736 0.43782 0.12209 0.0
C1789 C 0.61125 0.44464 0.13411 0.0
C1790 C 0.63078 0.4303 0.09607 0.0
C1791 C 0.65833 0.44479 0.0947 0.0
C1792 C 0.62113 0.40935 0.08554 0.0
C1793 C 0.59263 0.3926 0.08633 0.0
C1794 C 0.58698 0.37439 0.09782 0.0
C1795 C 0.56004 0.35869 0.09843 0.0
C1796 C 0.53866 0.36089 0.08756 0.0
C1797 C 0.54421 0.37872 0.07604 0.0
C1798 C 0.57112 0.39445 0.07538 0.0
C1799 C 0.73614 0.38301 0.05635 0.0
C1800 C 0.7274 0.38193 0.04208 0.0
C1801 C 0.71678 0.3942 0.06641 0.0
C1802 C 0.6885 0.40512 0.06242 0.0
C1803 C 0.67963 0.40412 0.04819 0.0
C1804 C 0.69893 0.39259 0.03808 0.0
C1805 C 0.66793 0.41637 0.07328 0.0
C1806 C 0.63973 0.40295 0.07421 0.0
C1807 C 0.67707 0.43807 0.0835 0.0
C1808 C 0.70608 0.454 0.08283 0.0
C1809 C 0.71388 0.46916 0.07067 0.0
C1810 C 0.74133 0.48397 0.07012 0.0
C1811 C 0.76111 0.48387 0.08169 0.0
C1812 C 0.75348 0.469 0.09385 0.0
C1813 C 0.72607 0.45416 0.09445 0.0
H1814 H 0.78235 0.49535 0.08124 0.0
H1815 H 0.51782 0.34871 0.08805 0.0
loop_
_geom_bond_atom_site_label_1
_geom_bond_atom_site_label_2
_geom_bond_distance
_geom_bond_site_symmetry_2
_ccdc_geom_bond_type
Mg0 O7 2.141 . S
Mg0 O8 2.048 . S
Mg0 O9 2.048 . S
Mg0 O12 2.141 . S
C1 O2 1.313 . S
C1 O8 1.195 . S
O2 C1 1.313 . S
C3 O4 1.245 . S
C3 O12 1.289 . S
O4 C3 1.245 . S
C5 O6 1.245 . S
C5 O7 1.289 . S
O6 C5 1.245 . S
O7 Mg0 2.141 . S
O7 C5 1.289 . S
O8 Mg0 2.048 . S
O8 C1 1.195 . S
O9 Mg0 2.048 . S
O9 C10 1.195 . S
C10 O9 1.195 . S
C10 O11 1.313 . S
O11 C10 1.313 . S
O12 Mg0 2.141 . S
O12 C3 1.289 . S
Mg13 O20 2.141 . S
Mg13 O21 2.048 . S
Mg13 O22 2.048 1_455 S
Mg13 O25 2.141 . S
C14 O15 1.313 . S
C14 O21 1.195 . S
O15 C14 1.313 . S
C16 O17 1.245 . S
C16 O25 1.289 . S
O17 C16 1.245 . S
C18 O19 1.245 . S
C18 O20 1.289 . S
O19 C18 1.245 . S
O20 Mg13 2.141 . S
O20 C18 1.289 . S
O21 Mg13 2.048 . S
O21 C14 1.195 . S
O22 Mg13 2.048 1_655 S
O22 C23 1.195 1_655 S
C23 O22 1.195 1_455 S
C23 O24 1.313 . S
O24 C23 1.313 . S
O25 Mg13 2.141 . S
O25 C16 1.289 . S
Mg26 O33 2.141 . S
Mg26 O34 2.048 . S
Mg26 O35 2.048 . S
Mg26 O38 2.141 . S
C27 O28 1.313 . S
C27 O34 1.195 . S
O28 C27 1.313 . S
C29 O30 1.245 . S
C29 O38 1.289 . S
O30 C29 1.245 . S
C31 O32 1.245 . S
C31 O33 1.289 . S
O32 C31 1.245 . S
O33 Mg26 2.141 . S
O33 C31 1.289 . S
O34 Mg26 2.048 . S
O34 C27 1.195 . S
O35 Mg26 2.048 . S
O35 C36 1.195 . S
C36 O35 1.195 . S
C36 O37 1.313 . S
O37 C36 1.313 . S
O38 Mg26 2.141 . S
O38 C29 1.289 . S
Mg39 O46 2.141 . S
Mg39 O47 2.048 . S
Mg39 O48 2.048 1_545 S
Mg39 O51 2.141 1_545 S
C40 O41 1.313 . S
C40 O47 1.195 . S
O41 C40 1.313 . S
C42 O43 1.245 . S
C42 O51 1.289 . S
O43 C42 1.245 . S
C44 O45 1.245 . S
C44 O46 1.289 . S
O45 C44 1.245 . S
O46 Mg39 2.141 . S
O46 C44 1.289 . S
O47 Mg39 2.048 . S
O47 C40 1.195 . S
O48 Mg39 2.048 1_565 S
O48 C49 1.195 . S
C49 O48 1.195 . S
C49 O50 1.313 . S
O50 C49 1.313 . S
O51 Mg39 2.141 1_565 S
O51 C42 1.289 . S
Mg52 O59 2.141 . S
Mg52 O60 2.048 . S
Mg52 O61 2.048 1_455 S
Mg52 O64 2.141 1_455 S
C53 O54 1.313 . S
C53 O60 1.195 . S
O54 C53 1.313 . S
C55 O56 1.245 . S
C55 O64 1.289 . S
O56 C55 1.245 . S
C57 O58 1.245 . S
C57 O59 1.289 . S
O58 C57 1.245 . S
O59 Mg52 2.141 . S
O59 C57 1.289 . S
O60 Mg52 2.048 . S
O60 C53 1.195 . S
O61 Mg52 2.048 1_655 S
O61 C62 1.195 . S
C62 O61 1.195 . S
C62 O63 1.313 . S
O63 C62 1.313 . S
O64 Mg52 2.141 1_655 S
O64 C55 1.289 . S
Mg65 O72 2.141 . S
Mg65 O73 2.048 . S
Mg65 O74 2.048 . S
Mg65 O77 2.141 . S
C66 O67 1.313 . S
C66 O73 1.195 . S
O67 C66 1.313 . S
C68 O69 1.245 . S
C68 O77 1.289 . S
O69 C68 1.245 . S
C70 O71 1.245 . S
C70 O72 1.289 . S
O71 C70 1.245 . S
O72 Mg65 2.141 . S
O72 C70 1.289 . S
O73 Mg65 2.048 . S
O73 C66 1.195 . S
O74 Mg65 2.048 . S
O74 C75 1.195 . S
C75 O74 1.195 . S
C75 O76 1.313 . S
O76 C75 1.313 . S
O77 Mg65 2.141 . S
O77 C68 1.289 . S
Mg78 O85 2.141 1_565 S
Mg78 O86 2.048 1_565 S
Mg78 O87 2.048 . S
Mg78 O90 2.141 . S
C79 O80 1.313 . S
C79 O86 1.195 . S
O80 C79 1.313 . S
C81 O82 1.245 1_565 S
C81 O90 1.289 . S
O82 C81 1.245 1_545 S
C83 O84 1.245 . S
C83 O85 1.289 . S
O84 C83 1.245 . S
O85 Mg78 2.141 1_545 S
O85 C83 1.289 . S
O86 Mg78 2.048 1_545 S
O86 C79 1.195 . S
O87 Mg78 2.048 . S
O87 C88 1.195 . S
C88 O87 1.195 . S
C88 O89 1.313 1_565 S
O89 C88 1.313 1_545 S
O90 Mg78 2.141 . S
O90 C81 1.289 . S
Mg91 O98 2.141 . S
Mg91 O99 2.048 . S
Mg91 O100 2.048 . S
Mg91 O103 2.141 . S
C92 O93 1.313 . S
C92 O99 1.195 . S
O93 C92 1.313 . S
C94 O95 1.245 . S
C94 O103 1.289 . S
O95 C94 1.245 . S
C96 O97 1.245 . S
C96 O98 1.289 . S
O97 C96 1.245 . S
O98 Mg91 2.141 . S
O98 C96 1.289 . S
O99 Mg91 2.048 . S
O99 C92 1.195 . S
O100 Mg91 2.048 . S
O100 C101 1.195 . S
C101 O100 1.195 . S
C101 O102 1.313 . S
O102 C101 1.313 . S
O103 Mg91 2.141 . S
O103 C94 1.289 . S
Zn104 O107 2.031 . S
Zn104 O109 2.049 . S
Zn104 O114 2.067 1_554 S
Zn105 O106 1.962 . S
Zn105 O108 1.986 . S
Zn105 O110 1.996 . S
Zn105 O113 1.943 . S
O106 Zn105 1.962 . S
O106 C111 1.254 . S
O107 Zn104 2.031 . S
O107 C111 1.269 . S
O108 Zn105 1.986 . S
O108 C115 1.262 . S
O109 Zn104 2.049 . S
O109 C117 1.260 . S
O110 Zn105 1.996 . S
O110 C117 1.257 . S
C111 O106 1.254 . S
C111 O107 1.269 . S
C112 O113 1.304 . S
C112 O114 1.253 1_554 S
O113 Zn105 1.943 . S
O113 C112 1.304 . S
O114 Zn104 2.067 1_556 S
O114 C112 1.253 1_556 S
C115 O108 1.262 . S
C115 O116 1.232 . S
O116 C115 1.232 . S
C117 O109 1.260 . S
C117 O110 1.257 . S
Zn118 O121 2.031 . S
Zn118 O123 2.049 . S
Zn118 O128 2.067 . S
Zn119 O120 1.962 . S
Zn119 O122 1.986 . S
Zn119 O124 1.996 . S
Zn119 O127 1.943 . S
O120 Zn119 1.962 . S
O120 C125 1.254 . S
O121 Zn118 2.031 . S
O121 C125 1.269 . S
O122 Zn119 1.986 . S
O122 C129 1.262 . S
O123 Zn118 2.049 . S
O123 C131 1.260 . S
O124 Zn119 1.996 . S
O124 C131 1.257 . S
C125 O120 1.254 . S
C125 O121 1.269 . S
C126 O127 1.249 . S
C126 O128 1.270 . S
O127 Zn119 1.943 . S
O127 C126 1.249 . S
O128 Zn118 2.067 . S
O128 C126 1.270 . S
C129 O122 1.262 . S
C129 O130 1.232 . S
O130 C129 1.232 . S
C131 O123 1.260 . S
C131 O124 1.257 . S
Zn132 O135 2.031 . S
Zn132 O137 2.049 . S
Zn132 O142 2.067 . S
Zn133 O134 1.962 . S
Zn133 O136 1.986 . S
Zn133 O138 1.996 . S
Zn133 O141 1.943 . S
O134 Zn133 1.962 . S
O134 C139 1.254 . S
O135 Zn132 2.031 . S
O135 C139 1.269 . S
O136 Zn133 1.986 . S
O136 C143 1.262 . S
O137 Zn132 2.049 . S
O137 C145 1.260 . S
O138 Zn133 1.996 . S
O138 C145 1.257 . S
C139 O134 1.254 . S
C139 O135 1.269 . S
C140 O141 1.249 . S
C140 O142 1.270 . S
O141 Zn133 1.943 . S
O141 C140 1.249 . S
O142 Zn132 2.067 . S
O142 C140 1.270 . S
C143 O136 1.262 . S
C143 O144 1.232 . S
O144 C143 1.232 . S
C145 O137 1.260 . S
C145 O138 1.257 . S
Zn146 O149 2.031 . S
Zn146 O151 2.049 . S
Zn146 O156 2.067 . S
Zn147 O148 1.962 . S
Zn147 O150 1.986 . S
Zn147 O152 1.996 . S
Zn147 O155 1.943 . S
O148 Zn147 1.962 . S
O148 C153 1.254 . S
O149 Zn146 2.031 . S
O149 C153 1.269 . S
O150 Zn147 1.986 . S
O150 C157 1.262 . S
O151 Zn146 2.049 . S
O151 C159 1.260 . S
O152 Zn147 1.996 . S
O152 C159 1.257 . S
C153 O148 1.254 . S
C153 O149 1.269 . S
C154 O155 1.249 . S
C154 O156 1.270 . S
O155 Zn147 1.943 . S
O155 C154 1.249 . S
O156 Zn146 2.067 . S
O156 C154 1.270 . S
C157 O150 1.262 . S
C157 O158 1.232 . S
O158 C157 1.232 . S
C159 O151 1.260 . S
C159 O152 1.257 . S
Zn160 O163 2.031 . S
Zn160 O165 2.049 . S
Zn160 O170 2.067 . S
Zn161 O162 1.962 . S
Zn161 O164 1.986 . S
Zn161 O166 1.996 . S
Zn161 O169 1.943 . S
O162 Zn161 1.962 . S
O162 C167 1.254 . S
O163 Zn160 2.031 . S
O163 C167 1.269 . S
O164 Zn161 1.986 . S
O164 C171 1.262 1_655 S
O165 Zn160 2.049 . S
O165 C173 1.260 . S
O166 Zn161 1.996 . S
O166 C173 1.257 . S
C167 O162 1.254 . S
C167 O163 1.269 . S
C168 O169 1.249 . S
C168 O170 1.270 . S
O169 Zn161 1.943 . S
O169 C168 1.249 . S
O170 Zn160 2.067 . S
O170 C168 1.270 . S
C171 O164 1.262 1_455 S
C171 O172 1.232 . S
O172 C171 1.232 . S
C173 O165 1.260 . S
C173 O166 1.257 . S
Zn174 O177 2.031 . S
Zn174 O179 2.049 . S
Zn174 O184 2.067 . S
Zn175 O176 1.962 . S
Zn175 O178 1.986 . S
Zn175 O180 1.996 . S
Zn175 O183 1.943 . S
O176 Zn175 1.962 . S
O176 C181 1.254 . S
O177 Zn174 2.031 . S
O177 C181 1.269 . S
O178 Zn175 1.986 . S
O178 C185 1.262 . S
O179 Zn174 2.049 . S
O179 C187 1.260 . S
O180 Zn175 1.996 . S
O180 C187 1.257 . S
C181 O176 1.254 . S
C181 O177 1.269 . S
C182 O183 1.249 . S
C182 O184 1.270 . S
O183 Zn175 1.943 . S
O183 C182 1.249 . S
O184 Zn174 2.067 . S
O184 C182 1.270 . S
C185 O178 1.262 . S
C185 O186 1.232 . S
O186 C185 1.232 . S
C187 O179 1.260 . S
C187 O180 1.257 . S
Zn188 O191 2.031 . S
Zn188 O193 2.049 . S
Zn188 O198 2.067 . S
Zn189 O190 1.962 . S
Zn189 O192 1.986 . S
Zn189 O194 1.996 . S
Zn189 O197 1.943 1_556 S
O190 Zn189 1.962 . S
O190 C195 1.254 1_556 S
O191 Zn188 2.031 . S
O191 C195 1.269 . S
O192 Zn189 1.986 . S
O192 C199 1.262 . S
O193 Zn188 2.049 . S
O193 C201 1.260 . S
O194 Zn189 1.996 . S
O194 C201 1.257 1_556 S
C195 O190 1.254 1_554 S
C195 O191 1.269 . S
C196 O197 1.249 . S
C196 O198 1.270 . S
O197 Zn189 1.943 1_554 S
O197 C196 1.249 . S
O198 Zn188 2.067 . S
O198 C196 1.270 . S
C199 O192 1.262 . S
C199 O200 1.232 . S
O200 C199 1.232 . S
C201 O193 1.260 . S
C201 O194 1.257 1_554 S
Zn202 O205 2.031 . S
Zn202 O207 2.049 . S
Zn202 O212 2.067 . S
Zn203 O204 1.962 . S
Zn203 O206 1.986 . S
Zn203 O208 1.996 . S
Zn203 O211 1.943 . S
O204 Zn203 1.962 . S
O204 C209 1.254 . S
O205 Zn202 2.031 . S
O205 C209 1.269 . S
O206 Zn203 1.986 . S
O206 C213 1.262 . S
O207 Zn202 2.049 . S
O207 C215 1.260 . S
O208 Zn203 1.996 . S
O208 C215 1.257 . S
C209 O204 1.254 . S
C209 O205 1.269 . S
C210 O211 1.249 . S
C210 O212 1.270 . S
O211 Zn203 1.943 . S
O211 C210 1.249 . S
O212 Zn202 2.067 . S
O212 C210 1.270 . S
C213 O206 1.262 . S
C213 O214 1.232 . S
O214 C213 1.232 . S
C215 O207 1.260 . S
C215 O208 1.257 . S
H216 C234 0.951 . S
H217 C236 0.951 . S
H218 C238 0.950 . S
H219 C239 0.950 . S
H220 C241 0.950 . S
H221 C244 0.950 . S
H222 C245 0.950 . S
H223 C247 0.950 . S
H224 C248 0.950 . S
H225 C249 0.951 . S
H226 C251 0.951 . S
H227 C253 0.950 . S
H228 C254 0.950 . S
H229 C256 0.950 . S
H230 C259 0.950 . S
H231 C260 0.950 . S
H232 C262 0.950 . S
H233 C263 0.950 . S
C234 H216 0.951 . S
C234 C235 1.366 . S
C234 C236 1.388 . S
C235 C234 1.366 . S
C235 C239 1.385 . S
C236 H217 0.951 . S
C236 C234 1.388 . S
C236 C237 1.366 . S
C237 C236 1.366 . S
C237 C238 1.414 . S
C237 C240 1.499 . S
C238 H218 0.950 . S
C238 C237 1.414 . S
C238 C239 1.374 . S
C239 H219 0.950 . S
C239 C235 1.385 . S
C239 C238 1.374 . S
C240 C237 1.499 . S
C240 C241 1.373 . S
C240 C242 1.389 1_545 S
C241 H220 0.950 . S
C241 C240 1.373 . S
C241 C257 1.377 1_545 S
C242 C240 1.389 1_565 S
C242 C243 1.524 . S
C242 C256 1.377 . S
C243 C242 1.524 . S
C243 C244 1.397 . S
C243 C248 1.363 . S
C244 H221 0.950 . S
C244 C243 1.397 . S
C244 C245 1.334 . S
C245 H222 0.950 . S
C245 C244 1.334 . S
C245 C246 1.287 . S
C246 C245 1.287 . S
C246 C247 1.524 . S
C246 H265 0.913 . S
C247 H223 0.950 . S
C247 C246 1.524 . S
C247 C248 1.415 . S
C248 H224 0.950 . S
C248 C243 1.363 . S
C248 C247 1.415 . S
C249 H225 0.951 . S
C249 C250 1.366 . S
C249 C251 1.388 . S
C250 C249 1.366 . S
C250 C254 1.385 . S
C251 H226 0.951 . S
C251 C249 1.388 . S
C251 C252 1.366 . S
C252 C251 1.366 . S
C252 C253 1.414 . S
C252 C255 1.499 . S
C253 H227 0.950 . S
C253 C252 1.414 . S
C253 C254 1.374 . S
C254 H228 0.950 . S
C254 C250 1.385 . S
C254 C253 1.374 . S
C255 C252 1.499 . S
C255 C256 1.373 . S
C255 C257 1.389 . S
C256 H229 0.950 . S
C256 C242 1.377 . S
C256 C255 1.373 . S
C257 C241 1.377 1_565 S
C257 C255 1.389 . S
C257 C258 1.534 . S
C258 C257 1.534 . S
C258 C259 1.398 . S
C258 C263 1.351 1_565 S
C259 H230 0.950 . S
C259 C258 1.398 . S
C259 C260 1.334 1_565 S
C260 H231 0.950 . S
C260 C259 1.334 1_545 S
C260 C261 1.287 . S
C261 C260 1.287 . S
C261 C262 1.524 . S
C261 H264 0.999 . S
C262 H232 0.950 . S
C262 C261 1.524 . S
C262 C263 1.415 . S
C263 H233 0.950 . S
C263 C258 1.351 1_545 S
C263 C262 1.415 . S
H264 C261 0.999 . S
H265 C246 0.913 . S
H266 C284 0.951 . S
H267 C286 0.951 . S
H268 C288 0.950 . S
H269 C289 0.950 . S
H270 C291 0.950 . S
H271 C294 0.950 . S
H272 C295 0.950 . S
H273 C297 0.950 . S
H274 C298 0.950 . S
H275 C299 0.951 . S
H276 C301 0.951 . S
H277 C303 0.950 . S
H278 C304 0.950 . S
H279 C306 0.950 . S
H280 C309 0.950 . S
H281 C310 0.950 . S
H282 C312 0.950 . S
H283 C313 0.950 . S
C284 H266 0.951 . S
C284 C285 1.366 . S
C284 C286 1.388 . S
C285 C284 1.366 . S
C285 C289 1.385 . S
C286 H267 0.951 . S
C286 C284 1.388 . S
C286 C287 1.366 . S
C287 C286 1.366 . S
C287 C288 1.414 . S
C287 C290 1.499 . S
C288 H268 0.950 . S
C288 C287 1.414 . S
C288 C289 1.374 . S
C289 H269 0.950 . S
C289 C285 1.385 . S
C289 C288 1.374 . S
C290 C287 1.499 . S
C290 C291 1.373 . S
C290 C292 1.389 . S
C291 H270 0.950 . S
C291 C290 1.373 . S
C291 C307 1.377 . S
C292 C290 1.389 . S
C292 C293 1.524 . S
C292 C306 1.377 . S
C293 C292 1.524 . S
C293 C294 1.397 . S
C293 C298 1.363 . S
C294 H271 0.950 . S
C294 C293 1.397 . S
C294 C295 1.334 . S
C295 H272 0.950 . S
C295 C294 1.334 . S
C295 C296 1.287 . S
C296 C295 1.287 . S
C296 C297 1.524 . S
C296 H315 0.913 . S
C297 H273 0.950 . S
C297 C296 1.524 . S
C297 C298 1.415 . S
C298 H274 0.950 . S
C298 C293 1.363 . S
C298 C297 1.415 . S
C299 H275 0.951 . S
C299 C300 1.366 . S
C299 C301 1.388 . S
C300 C299 1.366 . S
C300 C304 1.385 . S
C301 H276 0.951 . S
C301 C299 1.388 . S
C301 C302 1.366 . S
C302 C301 1.366 . S
C302 C303 1.414 . S
C302 C305 1.499 . S
C303 H277 0.950 . S
C303 C302 1.414 . S
C303 C304 1.374 . S
C304 H278 0.950 . S
C304 C300 1.385 . S
C304 C303 1.374 . S
C305 C302 1.499 . S
C305 C306 1.373 . S
C305 C307 1.389 . S
C306 H279 0.950 . S
C306 C292 1.377 . S
C306 C305 1.373 . S
C307 C291 1.377 . S
C307 C305 1.389 . S
C307 C308 1.524 . S
C308 C307 1.524 . S
C308 C309 1.397 . S
C308 C313 1.363 . S
C309 H280 0.950 . S
C309 C308 1.397 . S
C309 C310 1.334 . S
C310 H281 0.950 . S
C310 C309 1.334 . S
C310 C311 1.287 . S
C311 C310 1.287 . S
C311 C312 1.524 . S
C311 H314 0.999 . S
C312 H282 0.950 . S
C312 C311 1.524 . S
C312 C313 1.415 . S
C313 H283 0.950 . S
C313 C308 1.363 . S
C313 C312 1.415 . S
H314 C311 0.999 . S
H315 C296 0.913 . S
H316 C334 0.951 . S
H317 C336 0.951 . S
H318 C338 0.950 . S
H319 C339 0.950 . S
H320 C341 0.950 . S
H321 C344 0.950 . S
H322 C345 0.950 . S
H323 C347 0.950 . S
H324 C348 0.950 . S
H325 C349 0.951 . S
H326 C351 0.951 . S
H327 C353 0.950 . S
H328 C354 0.950 . S
H329 C356 0.950 . S
H330 C359 0.950 . S
H331 C360 0.950 . S
H332 C362 0.950 . S
H333 C363 0.950 . S
C334 H316 0.951 . S
C334 C335 1.366 . S
C334 C336 1.388 . S
C335 C334 1.366 . S
C335 C339 1.385 . S
C336 H317 0.951 . S
C336 C334 1.388 . S
C336 C337 1.366 . S
C337 C336 1.366 . S
C337 C338 1.414 . S
C337 C340 1.499 . S
C338 H318 0.950 . S
C338 C337 1.414 . S
C338 C339 1.374 . S
C339 H319 0.950 . S
C339 C335 1.385 . S
C339 C338 1.374 . S
C340 C337 1.499 . S
C340 C341 1.373 . S
C340 C342 1.389 . S
C341 H320 0.950 . S
C341 C340 1.373 . S
C341 C357 1.377 . S
C342 C340 1.389 . S
C342 C343 1.524 . S
C342 C356 1.377 . S
C343 C342 1.524 . S
C343 C344 1.397 . S
C343 C348 1.363 . S
C344 H321 0.950 . S
C344 C343 1.397 . S
C344 C345 1.334 . S
C345 H322 0.950 . S
C345 C344 1.334 . S
C345 C346 1.287 . S
C346 C345 1.287 . S
C346 C347 1.524 . S
C346 H365 0.913 . S
C347 H323 0.950 . S
C347 C346 1.524 . S
C347 C348 1.415 . S
C348 H324 0.950 . S
C348 C343 1.363 . S
C348 C347 1.415 . S
C349 H325 0.951 . S
C349 C350 1.366 . S
C349 C351 1.388 . S
C350 C349 1.366 . S
C350 C354 1.385 . S
C351 H326 0.951 . S
C351 C349 1.388 . S
C351 C352 1.366 . S
C352 C351 1.366 . S
C352 C353 1.414 . S
C352 C355 1.499 . S
C353 H327 0.950 . S
C353 C352 1.414 . S
C353 C354 1.374 . S
C354 H328 0.950 . S
C354 C350 1.385 . S
C354 C353 1.374 . S
C355 C352 1.499 . S
C355 C356 1.373 . S
C355 C357 1.389 . S
C356 H329 0.950 . S
C356 C342 1.377 . S
C356 C355 1.373 . S
C357 C341 1.377 . S
C357 C355 1.389 . S
C357 C358 1.524 . S
C358 C357 1.524 . S
C358 C359 1.397 . S
C358 C363 1.363 . S
C359 H330 0.950 . S
C359 C358 1.397 . S
C359 C360 1.334 . S
C360 H331 0.950 . S
C360 C359 1.334 . S
C360 C361 1.287 . S
C361 C360 1.287 . S
C361 C362 1.524 . S
C361 H364 0.999 . S
C362 H332 0.950 . S
C362 C361 1.524 . S
C362 C363 1.415 . S
C363 H333 0.950 . S
C363 C358 1.363 . S
C363 C362 1.415 . S
H364 C361 0.999 . S
H365 C346 0.913 . S
H366 C384 0.951 . S
H367 C386 0.951 . S
H368 C388 0.950 . S
H369 C389 0.950 . S
H370 C391 0.950 . S
H371 C394 0.950 . S
H372 C395 0.950 . S
H373 C397 0.950 . S
H374 C398 0.950 . S
H375 C399 0.951 . S
H376 C401 0.951 . S
H377 C403 0.950 . S
H378 C404 0.950 . S
H379 C406 0.950 . S
H380 C409 0.950 . S
H381 C410 0.950 1_556 S
H382 C412 0.950 . S
H383 C413 0.950 . S
C384 H366 0.951 . S
C384 C385 1.366 . S
C384 C386 1.388 . S
C385 C384 1.366 . S
C385 C389 1.385 . S
C386 H367 0.951 . S
C386 C384 1.388 . S
C386 C387 1.366 . S
C387 C386 1.366 . S
C387 C388 1.414 . S
C387 C390 1.499 . S
C388 H368 0.950 . S
C388 C387 1.414 . S
C388 C389 1.374 . S
C389 H369 0.950 . S
C389 C385 1.385 . S
C389 C388 1.374 . S
C390 C387 1.499 . S
C390 C391 1.373 . S
C390 C392 1.389 . S
C391 H370 0.950 . S
C391 C390 1.373 . S
C391 C407 1.377 . S
C392 C390 1.389 . S
C392 C393 1.524 . S
C392 C406 1.377 . S
C393 C392 1.524 . S
C393 C394 1.397 . S
C393 C398 1.363 . S
C394 H371 0.950 . S
C394 C393 1.397 . S
C394 C395 1.334 . S
C395 H372 0.950 . S
C395 C394 1.334 . S
C395 C396 1.287 . S
C396 C395 1.287 . S
C396 C397 1.524 . S
C396 H415 0.913 . S
C397 H373 0.950 . S
C397 C396 1.524 . S
C397 C398 1.415 . S
C398 H374 0.950 . S
C398 C393 1.363 . S
C398 C397 1.415 . S
C399 H375 0.951 . S
C399 C400 1.366 . S
C399 C401 1.388 . S
C400 C399 1.366 . S
C400 C404 1.385 . S
C401 H376 0.951 . S
C401 C399 1.388 . S
C401 C402 1.366 . S
C402 C401 1.366 . S
C402 C403 1.414 . S
C402 C405 1.499 . S
C403 H377 0.950 . S
C403 C402 1.414 . S
C403 C404 1.374 . S
C404 H378 0.950 . S
C404 C400 1.385 . S
C404 C403 1.374 . S
C405 C402 1.499 . S
C405 C406 1.373 . S
C405 C407 1.389 . S
C406 H379 0.950 . S
C406 C392 1.377 . S
C406 C405 1.373 . S
C407 C391 1.377 . S
C407 C405 1.389 . S
C407 C408 1.524 . S
C408 C407 1.524 . S
C408 C409 1.397 . S
C408 C413 1.363 . S
C409 H380 0.950 . S
C409 C408 1.397 . S
C409 C410 1.334 . S
C410 H381 0.950 1_554 S
C410 C409 1.334 . S
C410 C411 1.287 . S
C411 C410 1.287 . S
C411 C412 1.524 . S
C411 H414 0.999 1_554 S
C412 H382 0.950 . S
C412 C411 1.524 . S
C412 C413 1.415 . S
C413 H383 0.950 . S
C413 C408 1.363 . S
C413 C412 1.415 . S
H414 C411 0.999 1_556 S
H415 C396 0.913 . S
H416 C434 0.951 . S
H417 C436 0.951 . S
H418 C438 0.950 . S
H419 C439 0.950 . S
H420 C441 0.950 . S
H421 C444 0.950 . S
H422 C445 0.950 . S
H423 C447 0.950 . S
H424 C448 0.950 . S
H425 C449 0.951 . S
H426 C451 0.951 . S
H427 C453 0.950 . S
H428 C454 0.950 . S
H429 C456 0.950 . S
H430 C459 0.950 . S
H431 C460 0.950 . S
H432 C462 0.950 . S
H433 C463 0.950 . S
C434 H416 0.951 . S
C434 C435 1.366 . S
C434 C436 1.388 . S
C435 C434 1.366 . S
C435 C439 1.385 . S
C436 H417 0.951 . S
C436 C434 1.388 . S
C436 C437 1.366 . S
C437 C436 1.366 . S
C437 C438 1.414 . S
C437 C440 1.499 . S
C438 H418 0.950 . S
C438 C437 1.414 . S
C438 C439 1.374 . S
C439 H419 0.950 . S
C439 C435 1.385 . S
C439 C438 1.374 . S
C440 C437 1.499 . S
C440 C441 1.373 . S
C440 C442 1.389 . S
C441 H420 0.950 . S
C441 C440 1.373 . S
C441 C457 1.377 . S
C442 C440 1.389 . S
C442 C443 1.524 . S
C442 C456 1.377 . S
C443 C442 1.524 . S
C443 C444 1.397 . S
C443 C448 1.363 . S
C444 H421 0.950 . S
C444 C443 1.397 . S
C444 C445 1.334 . S
C445 H422 0.950 . S
C445 C444 1.334 . S
C445 C446 1.287 . S
C446 C445 1.287 . S
C446 C447 1.524 . S
C446 H465 0.913 . S
C447 H423 0.950 . S
C447 C446 1.524 . S
C447 C448 1.415 . S
C448 H424 0.950 . S
C448 C443 1.363 . S
C448 C447 1.415 . S
C449 H425 0.951 . S
C449 C450 1.366 . S
C449 C451 1.388 . S
C450 C449 1.366 . S
C450 C454 1.385 1_554 S
C451 H426 0.951 . S
C451 C449 1.388 . S
C451 C452 1.366 1_554 S
C452 C451 1.366 1_556 S
C452 C453 1.414 . S
C452 C455 1.499 . S
C453 H427 0.950 . S
C453 C452 1.414 . S
C453 C454 1.374 . S
C454 H428 0.950 . S
C454 C450 1.385 1_556 S
C454 C453 1.374 . S
C455 C452 1.499 . S
C455 C456 1.373 . S
C455 C457 1.389 . S
C456 H429 0.950 . S
C456 C442 1.377 . S
C456 C455 1.373 . S
C457 C441 1.377 . S
C457 C455 1.389 . S
C457 C458 1.524 . S
C458 C457 1.524 . S
C458 C459 1.397 . S
C458 C463 1.363 1_556 S
C459 H430 0.950 . S
C459 C458 1.397 . S
C459 C460 1.334 . S
C460 H431 0.950 . S
C460 C459 1.334 . S
C460 C461 1.279 1_556 S
C461 C460 1.279 1_554 S
C461 C462 1.530 . S
C461 H464 1.003 . S
C462 H432 0.950 . S
C462 C461 1.530 . S
C462 C463 1.415 . S
C463 H433 0.950 . S
C463 C458 1.363 1_554 S
C463 C462 1.415 . S
H464 C461 1.003 . S
H465 C446 0.913 . S
H466 C484 0.951 . S
H467 C486 0.951 . S
H468 C488 0.950 . S
H469 C489 0.950 . S
H470 C491 0.950 . S
H471 C494 0.950 . S
H472 C495 0.950 . S
H473 C497 0.950 . S
H474 C498 0.950 . S
H475 C499 0.951 . S
H476 C501 0.951 . S
H477 C503 0.950 . S
H478 C504 0.950 . S
H479 C506 0.950 . S
H480 C509 0.950 . S
H481 C510 0.950 . S
H482 C512 0.950 . S
H483 C513 0.950 . S
C484 H466 0.951 . S
C484 C485 1.366 . S
C484 C486 1.388 . S
C485 C484 1.366 . S
C485 C489 1.385 . S
C486 H467 0.951 . S
C486 C484 1.388 . S
C486 C487 1.366 . S
C487 C486 1.366 . S
C487 C488 1.414 . S
C487 C490 1.499 . S
C488 H468 0.950 . S
C488 C487 1.414 . S
C488 C489 1.374 . S
C489 H469 0.950 . S
C489 C485 1.385 . S
C489 C488 1.374 . S
C490 C487 1.499 . S
C490 C491 1.373 . S
C490 C492 1.389 . S
C491 H470 0.950 . S
C491 C490 1.373 . S
C491 C507 1.377 . S
C492 C490 1.389 . S
C492 C493 1.524 . S
C492 C506 1.377 . S
C493 C492 1.524 . S
C493 C494 1.397 . S
C493 C498 1.363 . S
C494 H471 0.950 . S
C494 C493 1.397 . S
C494 C495 1.334 . S
C495 H472 0.950 . S
C495 C494 1.334 . S
C495 C496 1.287 . S
C496 C495 1.287 . S
C496 C497 1.524 . S
C496 H515 0.913 . S
C497 H473 0.950 . S
C497 C496 1.524 . S
C497 C498 1.415 . S
C498 H474 0.950 . S
C498 C493 1.363 . S
C498 C497 1.415 . S
C499 H475 0.951 . S
C499 C500 1.366 . S
C499 C501 1.388 . S
C500 C499 1.366 . S
C500 C504 1.385 . S
C501 H476 0.951 . S
C501 C499 1.388 . S
C501 C502 1.366 . S
C502 C501 1.366 . S
C502 C503 1.414 . S
C502 C505 1.499 . S
C503 H477 0.950 . S
C503 C502 1.414 . S
C503 C504 1.374 . S
C504 H478 0.950 . S
C504 C500 1.385 . S
C504 C503 1.374 . S
C505 C502 1.499 . S
C505 C506 1.373 . S
C505 C507 1.389 . S
C506 H479 0.950 . S
C506 C492 1.377 . S
C506 C505 1.373 . S
C507 C491 1.377 . S
C507 C505 1.389 . S
C507 C508 1.524 . S
C508 C507 1.524 . S
C508 C509 1.397 . S
C508 C513 1.363 . S
C509 H480 0.950 . S
C509 C508 1.397 . S
C509 C510 1.334 . S
C510 H481 0.950 . S
C510 C509 1.334 . S
C510 C511 1.287 . S
C511 C510 1.287 . S
C511 C512 1.524 . S
C511 H514 0.999 . S
C512 H482 0.950 . S
C512 C511 1.524 . S
C512 C513 1.415 . S
C513 H483 0.950 . S
C513 C508 1.363 . S
C513 C512 1.415 . S
H514 C511 0.999 . S
H515 C496 0.913 . S
H516 C534 0.951 . S
H517 C536 0.951 . S
H518 C538 0.950 . S
H519 C539 0.950 . S
H520 C541 0.950 . S
H521 C544 0.950 . S
H522 C545 0.950 . S
H523 C547 0.950 . S
H524 C548 0.950 . S
H525 C549 0.951 . S
H526 C551 0.951 . S
H527 C553 0.950 . S
H528 C554 0.950 . S
H529 C556 0.950 . S
H530 C559 0.950 . S
H531 C560 0.950 . S
H532 C562 0.950 . S
H533 C563 0.950 . S
C534 H516 0.951 . S
C534 C535 1.366 . S
C534 C536 1.388 . S
C535 C534 1.366 . S
C535 C539 1.385 . S
C536 H517 0.951 . S
C536 C534 1.388 . S
C536 C537 1.366 . S
C537 C536 1.366 . S
C537 C538 1.414 . S
C537 C540 1.499 . S
C538 H518 0.950 . S
C538 C537 1.414 . S
C538 C539 1.374 . S
C539 H519 0.950 . S
C539 C535 1.385 . S
C539 C538 1.374 . S
C540 C537 1.499 . S
C540 C541 1.373 . S
C540 C542 1.389 . S
C541 H520 0.950 . S
C541 C540 1.373 . S
C541 C557 1.377 . S
C542 C540 1.389 . S
C542 C543 1.524 . S
C542 C556 1.377 . S
C543 C542 1.524 . S
C543 C544 1.397 . S
C543 C548 1.363 . S
C544 H521 0.950 . S
C544 C543 1.397 . S
C544 C545 1.334 . S
C545 H522 0.950 . S
C545 C544 1.334 . S
C545 C546 1.287 . S
C546 C545 1.287 . S
C546 C547 1.524 . S
C546 H565 0.913 . S
C547 H523 0.950 . S
C547 C546 1.524 . S
C547 C548 1.415 . S
C548 H524 0.950 . S
C548 C543 1.363 . S
C548 C547 1.415 . S
C549 H525 0.951 . S
C549 C550 1.366 . S
C549 C551 1.388 . S
C550 C549 1.366 . S
C550 C554 1.385 . S
C551 H526 0.951 . S
C551 C549 1.388 . S
C551 C552 1.366 . S
C552 C551 1.366 . S
C552 C553 1.414 . S
C552 C555 1.499 . S
C553 H527 0.950 . S
C553 C552 1.414 . S
C553 C554 1.374 . S
C554 H528 0.950 . S
C554 C550 1.385 . S
C554 C553 1.374 . S
C555 C552 1.499 . S
C555 C556 1.373 . S
C555 C557 1.389 . S
C556 H529 0.950 . S
C556 C542 1.377 . S
C556 C555 1.373 . S
C557 C541 1.377 . S
C557 C555 1.389 . S
C557 C558 1.524 . S
C558 C557 1.524 . S
C558 C559 1.397 1_565 S
C558 C563 1.363 . S
C559 H530 0.950 . S
C559 C558 1.397 1_545 S
C559 C560 1.334 . S
C560 H531 0.950 . S
C560 C559 1.334 . S
C560 C561 1.287 . S
C561 C560 1.287 . S
C561 C562 1.524 1_545 S
C561 H564 0.999 . S
C562 H532 0.950 . S
C562 C561 1.524 1_565 S
C562 C563 1.415 . S
C563 H533 0.950 . S
C563 C558 1.363 . S
C563 C562 1.415 . S
H564 C561 0.999 . S
H565 C546 0.913 . S
H566 C584 0.951 . S
H567 C586 0.951 . S
H568 C588 0.950 . S
H569 C589 0.950 . S
H570 C591 0.950 . S
H571 C594 0.950 . S
H572 C595 0.950 . S
H573 C597 0.950 . S
H574 C598 0.950 . S
H575 C599 0.951 . S
H576 C601 0.951 . S
H577 C603 0.950 . S
H578 C604 0.950 . S
H579 C606 0.950 . S
H580 C609 0.950 . S
H581 C610 0.950 . S
H582 C612 0.950 . S
H583 C613 0.950 . S
C584 H566 0.951 . S
C584 C585 1.366 . S
C584 C586 1.388 . S
C585 C584 1.366 . S
C585 C589 1.385 . S
C586 H567 0.951 . S
C586 C584 1.388 . S
C586 C587 1.366 . S
C587 C586 1.366 . S
C587 C588 1.414 . S
C587 C590 1.499 . S
C588 H568 0.950 . S
C588 C587 1.414 . S
C588 C589 1.374 . S
C589 H569 0.950 . S
C589 C585 1.385 . S
C589 C588 1.374 . S
C590 C587 1.499 . S
C590 C591 1.373 . S
C590 C592 1.389 . S
C591 H570 0.950 . S
C591 C590 1.373 . S
C591 C607 1.377 1_545 S
C592 C590 1.389 . S
C592 C593 1.524 . S
C592 C606 1.377 1_545 S
C593 C592 1.524 . S
C593 C594 1.397 . S
C593 C598 1.363 . S
C594 H571 0.950 . S
C594 C593 1.397 . S
C594 C595 1.334 . S
C595 H572 0.950 . S
C595 C594 1.334 . S
C595 C596 1.287 . S
C596 C595 1.287 . S
C596 C597 1.524 . S
C596 H615 0.913 . S
C597 H573 0.950 . S
C597 C596 1.524 . S
C597 C598 1.415 . S
C598 H574 0.950 . S
C598 C593 1.363 . S
C598 C597 1.415 . S
C599 H575 0.951 . S
C599 C600 1.366 . S
C599 C601 1.388 . S
C600 C599 1.366 . S
C600 C604 1.385 . S
C601 H576 0.951 . S
C601 C599 1.388 . S
C601 C602 1.366 . S
C602 C601 1.366 . S
C602 C603 1.414 . S
C602 C605 1.499 . S
C603 H577 0.950 . S
C603 C602 1.414 . S
C603 C604 1.374 . S
C604 H578 0.950 . S
C604 C600 1.385 . S
C604 C603 1.374 . S
C605 C602 1.499 . S
C605 C606 1.373 . S
C605 C607 1.389 . S
C606 H579 0.950 . S
C606 C592 1.377 1_565 S
C606 C605 1.373 . S
C607 C591 1.377 1_565 S
C607 C605 1.389 . S
C607 C608 1.524 . S
C608 C607 1.524 . S
C608 C609 1.397 . S
C608 C613 1.363 . S
C609 H580 0.950 . S
C609 C608 1.397 . S
C609 C610 1.334 . S
C610 H581 0.950 . S
C610 C609 1.334 . S
C610 C611 1.287 . S
C611 C610 1.287 . S
C611 C612 1.524 . S
C611 H614 0.999 . S
C612 H582 0.950 . S
C612 C611 1.524 . S
C612 C613 1.415 . S
C613 H583 0.950 . S
C613 C608 1.363 . S
C613 C612 1.415 . S
H614 C611 0.999 . S
H615 C596 0.913 . S
H616 C634 0.951 . S
H617 C636 0.951 . S
H618 C638 0.950 . S
H619 C639 0.950 . S
H620 C641 0.950 . S
H621 C644 0.950 . S
H622 C645 0.950 . S
H623 C647 0.950 . S
H624 C648 0.950 . S
H625 C649 0.951 . S
H626 C651 0.951 . S
H627 C653 0.950 . S
H628 C654 0.950 . S
H629 C656 0.950 . S
H630 C659 0.950 . S
H631 C660 0.950 . S
H632 C662 0.950 . S
H633 C663 0.950 . S
C634 H616 0.951 . S
C634 C635 1.366 . S
C634 C636 1.388 . S
C635 C634 1.366 . S
C635 C639 1.385 . S
C636 H617 0.951 . S
C636 C634 1.388 . S
C636 C637 1.366 . S
C637 C636 1.366 . S
C637 C638 1.414 . S
C637 C640 1.499 . S
C638 H618 0.950 . S
C638 C637 1.414 . S
C638 C639 1.374 . S
C639 H619 0.950 . S
C639 C635 1.385 . S
C639 C638 1.374 . S
C640 C637 1.499 . S
C640 C641 1.373 . S
C640 C642 1.389 . S
C641 H620 0.950 . S
C641 C640 1.373 . S
C641 C657 1.377 . S
C642 C640 1.389 . S
C642 C643 1.524 . S
C642 C656 1.377 . S
C643 C642 1.524 . S
C643 C644 1.397 . S
C643 C648 1.363 . S
C644 H621 0.950 . S
C644 C643 1.397 . S
C644 C645 1.334 . S
C645 H622 0.950 . S
C645 C644 1.334 . S
C645 C646 1.287 . S
C646 C645 1.287 . S
C646 C647 1.524 . S
C646 H665 0.913 . S
C647 H623 0.950 . S
C647 C646 1.524 . S
C647 C648 1.415 . S
C648 H624 0.950 . S
C648 C643 1.363 . S
C648 C647 1.415 . S
C649 H625 0.951 . S
C649 C650 1.366 . S
C649 C651 1.388 . S
C650 C649 1.366 . S
C650 C654 1.385 . S
C651 H626 0.951 . S
C651 C649 1.388 . S
C651 C652 1.366 . S
C652 C651 1.366 . S
C652 C653 1.414 . S
C652 C655 1.499 . S
C653 H627 0.950 . S
C653 C652 1.414 . S
C653 C654 1.374 . S
C654 H628 0.950 . S
C654 C650 1.385 . S
C654 C653 1.374 . S
C655 C652 1.499 . S
C655 C656 1.373 . S
C655 C657 1.389 . S
C656 H629 0.950 . S
C656 C642 1.377 . S
C656 C655 1.373 . S
C657 C641 1.377 . S
C657 C655 1.389 . S
C657 C658 1.524 . S
C658 C657 1.524 . S
C658 C659 1.397 . S
C658 C663 1.363 . S
C659 H630 0.950 . S
C659 C658 1.397 . S
C659 C660 1.334 . S
C660 H631 0.950 . S
C660 C659 1.334 . S
C660 C661 1.287 . S
C661 C660 1.287 . S
C661 C662 1.524 . S
C661 H664 0.999 . S
C662 H632 0.950 . S
C662 C661 1.524 . S
C662 C663 1.415 . S
C663 H633 0.950 . S
C663 C658 1.363 . S
C663 C662 1.415 . S
H664 C661 0.999 . S
H665 C646 0.913 . S
H666 C684 0.951 . S
H667 C686 0.951 . S
H668 C688 0.950 . S
H669 C689 0.950 . S
H670 C691 0.950 . S
H671 C694 0.950 . S
H672 C695 0.950 . S
H673 C697 0.950 . S
H674 C698 0.950 . S
H675 C699 0.951 1_556 S
H676 C701 0.951 . S
H677 C703 0.950 . S
H678 C704 0.950 . S
H679 C706 0.950 . S
H680 C709 0.950 . S
H681 C710 0.950 . S
H682 C712 0.950 1_556 S
H683 C713 0.950 . S
C684 H666 0.951 . S
C684 C685 1.366 . S
C684 C686 1.388 . S
C685 C684 1.366 . S
C685 C689 1.385 . S
C686 H667 0.951 . S
C686 C684 1.388 . S
C686 C687 1.366 . S
C687 C686 1.366 . S
C687 C688 1.414 . S
C687 C690 1.499 . S
C688 H668 0.950 . S
C688 C687 1.414 . S
C688 C689 1.374 . S
C689 H669 0.950 . S
C689 C685 1.385 . S
C689 C688 1.374 . S
C690 C687 1.499 . S
C690 C691 1.373 . S
C690 C692 1.389 . S
C691 H670 0.950 . S
C691 C690 1.373 . S
C691 C707 1.377 . S
C692 C690 1.389 . S
C692 C693 1.524 . S
C692 C706 1.377 . S
C693 C692 1.524 . S
C693 C694 1.397 . S
C693 C698 1.363 . S
C694 H671 0.950 . S
C694 C693 1.397 . S
C694 C695 1.334 . S
C695 H672 0.950 . S
C695 C694 1.334 . S
C695 C696 1.287 . S
C696 C695 1.287 . S
C696 C697 1.524 . S
C696 H715 0.913 . S
C697 H673 0.950 . S
C697 C696 1.524 . S
C697 C698 1.415 . S
C698 H674 0.950 . S
C698 C693 1.363 . S
C698 C697 1.415 . S
C699 H675 0.951 1_554 S
C699 C700 1.366 . S
C699 C701 1.388 . S
C700 C699 1.366 . S
C700 C704 1.385 . S
C701 H676 0.951 . S
C701 C699 1.388 . S
C701 C702 1.366 . S
C702 C701 1.366 . S
C702 C703 1.414 . S
C702 C705 1.499 . S
C703 H677 0.950 . S
C703 C702 1.414 . S
C703 C704 1.374 . S
C704 H678 0.950 . S
C704 C700 1.385 . S
C704 C703 1.374 . S
C705 C702 1.499 . S
C705 C706 1.373 . S
C705 C707 1.389 . S
C706 H679 0.950 . S
C706 C692 1.377 . S
C706 C705 1.373 . S
C707 C691 1.377 . S
C707 C705 1.389 . S
C707 C708 1.524 . S
C708 C707 1.524 . S
C708 C709 1.397 . S
C708 C713 1.363 . S
C709 H680 0.950 . S
C709 C708 1.397 . S
C709 C710 1.334 . S
C710 H681 0.950 . S
C710 C709 1.334 . S
C710 C711 1.287 . S
C711 C710 1.287 . S
C711 C712 1.524 . S
C711 H714 0.978 1_554 S
C712 H682 0.950 1_554 S
C712 C711 1.524 . S
C712 C713 1.415 . S
C713 H683 0.950 . S
C713 C708 1.363 . S
C713 C712 1.415 . S
H714 C711 0.978 1_556 S
H715 C696 0.913 . S
H716 C734 0.951 . S
H717 C736 0.951 . S
H718 C738 0.950 . S
H719 C739 0.950 . S
H720 C741 0.950 . S
H721 C744 0.950 . S
H722 C745 0.950 . S
H723 C747 0.950 . S
H724 C748 0.950 . S
H725 C749 0.951 . S
H726 C751 0.951 . S
H727 C753 0.950 . S
H728 C754 0.950 . S
H729 C756 0.950 . S
H730 C759 0.950 . S
H731 C760 0.950 . S
H732 C762 0.950 . S
H733 C763 0.950 . S
C734 H716 0.951 . S
C734 C735 1.366 . S
C734 C736 1.388 . S
C735 C734 1.366 . S
C735 C739 1.385 . S
C736 H717 0.951 . S
C736 C734 1.388 . S
C736 C737 1.366 . S
C737 C736 1.366 . S
C737 C738 1.414 . S
C737 C740 1.499 . S
C738 H718 0.950 . S
C738 C737 1.414 . S
C738 C739 1.374 . S
C739 H719 0.950 . S
C739 C735 1.385 . S
C739 C738 1.374 . S
C740 C737 1.499 . S
C740 C741 1.373 . S
C740 C742 1.389 . S
C741 H720 0.950 . S
C741 C740 1.373 . S
C741 C757 1.377 . S
C742 C740 1.389 . S
C742 C743 1.524 . S
C742 C756 1.377 . S
C743 C742 1.524 . S
C743 C744 1.397 . S
C743 C748 1.363 . S
C744 H721 0.950 . S
C744 C743 1.397 . S
C744 C745 1.334 . S
C745 H722 0.950 . S
C745 C744 1.334 . S
C745 C746 1.287 . S
C746 C745 1.287 . S
C746 C747 1.524 . S
C746 H765 0.913 . S
C747 H723 0.950 . S
C747 C746 1.524 . S
C747 C748 1.415 . S
C748 H724 0.950 . S
C748 C743 1.363 . S
C748 C747 1.415 . S
C749 H725 0.951 . S
C749 C750 1.366 . S
C749 C751 1.388 . S
C750 C749 1.366 . S
C750 C754 1.385 . S
C751 H726 0.951 . S
C751 C749 1.388 . S
C751 C752 1.366 . S
C752 C751 1.366 . S
C752 C753 1.414 . S
C752 C755 1.500 1_655 S
C753 H727 0.950 . S
C753 C752 1.414 . S
C753 C754 1.374 . S
C754 H728 0.950 . S
C754 C750 1.385 . S
C754 C753 1.374 . S
C755 C752 1.500 1_455 S
C755 C756 1.372 . S
C755 C757 1.389 . S
C756 H729 0.950 . S
C756 C742 1.377 . S
C756 C755 1.372 . S
C757 C741 1.377 . S
C757 C755 1.389 . S
C757 C758 1.524 1_455 S
C758 C757 1.524 1_655 S
C758 C759 1.397 . S
C758 C763 1.363 . S
C759 H730 0.950 . S
C759 C758 1.397 . S
C759 C760 1.334 . S
C760 H731 0.950 . S
C760 C759 1.334 . S
C760 C761 1.287 . S
C761 C760 1.287 . S
C761 C762 1.524 . S
C761 H764 0.999 . S
C762 H732 0.950 . S
C762 C761 1.524 . S
C762 C763 1.415 . S
C763 H733 0.950 . S
C763 C758 1.363 . S
C763 C762 1.415 . S
H764 C761 0.999 . S
H765 C746 0.913 . S
H766 C784 0.951 . S
H767 C786 0.951 . S
H768 C788 0.950 . S
H769 C789 0.950 . S
H770 C791 0.950 . S
H771 C794 0.950 . S
H772 C795 0.950 . S
H773 C797 0.950 . S
H774 C798 0.950 . S
H775 C799 0.951 . S
H776 C801 0.951 . S
H777 C803 0.950 1_455 S
H778 C804 0.950 . S
H779 C806 0.950 . S
H780 C809 0.950 . S
H781 C810 0.950 . S
H782 C812 0.950 . S
H783 C813 0.950 . S
C784 H766 0.951 . S
C784 C785 1.366 . S
C784 C786 1.388 . S
C785 C784 1.366 . S
C785 C789 1.385 1_455 S
C786 H767 0.951 . S
C786 C784 1.388 . S
C786 C787 1.366 1_455 S
C787 C786 1.366 1_655 S
C787 C788 1.414 . S
C787 C790 1.499 . S
C788 H768 0.950 . S
C788 C787 1.414 . S
C788 C789 1.374 . S
C789 H769 0.950 . S
C789 C785 1.385 1_655 S
C789 C788 1.374 . S
C790 C787 1.499 . S
C790 C791 1.373 . S
C790 C792 1.389 1_655 S
C791 H770 0.950 . S
C791 C790 1.373 . S
C791 C807 1.377 . S
C792 C790 1.389 1_455 S
C792 C793 1.524 . S
C792 C806 1.377 . S
C793 C792 1.524 . S
C793 C794 1.397 . S
C793 C798 1.363 . S
C794 H771 0.950 . S
C794 C793 1.397 . S
C794 C795 1.334 . S
C795 H772 0.950 . S
C795 C794 1.334 . S
C795 C796 1.287 . S
C796 C795 1.287 . S
C796 C797 1.524 . S
C796 H815 0.913 . S
C797 H773 0.950 . S
C797 C796 1.524 . S
C797 C798 1.415 . S
C798 H774 0.950 . S
C798 C793 1.363 . S
C798 C797 1.415 . S
C799 H775 0.951 . S
C799 C800 1.366 . S
C799 C801 1.388 . S
C800 C799 1.366 . S
C800 C804 1.385 . S
C801 H776 0.951 . S
C801 C799 1.388 . S
C801 C802 1.366 . S
C802 C801 1.366 . S
C802 C803 1.414 . S
C802 C805 1.499 . S
C803 H777 0.950 1_655 S
C803 C802 1.414 . S
C803 C804 1.374 . S
C804 H778 0.950 . S
C804 C800 1.385 . S
C804 C803 1.374 . S
C805 C802 1.499 . S
C805 C806 1.373 1_655 S
C805 C807 1.389 . S
C806 H779 0.950 . S
C806 C792 1.377 . S
C806 C805 1.373 1_455 S
C807 C791 1.377 . S
C807 C805 1.389 . S
C807 C808 1.524 . S
C808 C807 1.524 . S
C808 C809 1.397 . S
C808 C813 1.363 . S
C809 H780 0.950 . S
C809 C808 1.397 . S
C809 C810 1.334 . S
C810 H781 0.950 . S
C810 C809 1.334 . S
C810 C811 1.287 . S
C811 C810 1.287 . S
C811 C812 1.524 . S
C811 H814 0.999 . S
C812 H782 0.950 . S
C812 C811 1.524 . S
C812 C813 1.415 . S
C813 H783 0.950 . S
C813 C808 1.363 . S
C813 C812 1.415 . S
H814 C811 0.999 . S
H815 C796 0.913 . S
H816 C834 0.951 . S
H817 C836 0.951 . S
H818 C838 0.950 . S
H819 C839 0.950 . S
H820 C841 0.950 . S
H821 C844 0.950 . S
H822 C845 0.950 . S
H823 C847 0.950 . S
H824 C848 0.950 . S
H825 C849 0.951 . S
H826 C851 0.951 . S
H827 C853 0.950 . S
H828 C854 0.950 . S
H829 C856 0.950 . S
H830 C859 0.950 . S
H831 C860 0.950 . S
H832 C862 0.950 . S
H833 C863 0.950 . S
C834 H816 0.951 . S
C834 C835 1.366 . S
C834 C836 1.388 . S
C835 C834 1.366 . S
C835 C839 1.385 . S
C836 H817 0.951 . S
C836 C834 1.388 . S
C836 C837 1.366 . S
C837 C836 1.366 . S
C837 C838 1.414 . S
C837 C840 1.499 . S
C838 H818 0.950 . S
C838 C837 1.414 . S
C838 C839 1.374 . S
C839 H819 0.950 . S
C839 C835 1.385 . S
C839 C838 1.374 . S
C840 C837 1.499 . S
C840 C841 1.373 . S
C840 C842 1.389 . S
C841 H820 0.950 . S
C841 C840 1.373 . S
C841 C857 1.377 . S
C842 C840 1.389 . S
C842 C843 1.524 . S
C842 C856 1.377 . S
C843 C842 1.524 . S
C843 C844 1.397 . S
C843 C848 1.363 . S
C844 H821 0.950 . S
C844 C843 1.397 . S
C844 C845 1.334 . S
C845 H822 0.950 . S
C845 C844 1.334 . S
C845 C846 1.287 . S
C846 C845 1.287 . S
C846 C847 1.524 . S
C846 H865 0.913 . S
C847 H823 0.950 . S
C847 C846 1.524 . S
C847 C848 1.415 . S
C848 H824 0.950 . S
C848 C843 1.363 . S
C848 C847 1.415 . S
C849 H825 0.951 . S
C849 C850 1.366 . S
C849 C851 1.388 . S
C850 C849 1.366 . S
C850 C854 1.385 . S
C851 H826 0.951 . S
C851 C849 1.388 . S
C851 C852 1.366 . S
C852 C851 1.366 . S
C852 C853 1.414 . S
C852 C855 1.499 . S
C853 H827 0.950 . S
C853 C852 1.414 . S
C853 C854 1.374 . S
C854 H828 0.950 . S
C854 C850 1.385 . S
C854 C853 1.374 . S
C855 C852 1.499 . S
C855 C856 1.373 . S
C855 C857 1.389 . S
C856 H829 0.950 . S
C856 C842 1.377 . S
C856 C855 1.373 . S
C857 C841 1.377 . S
C857 C855 1.389 . S
C857 C858 1.524 . S
C858 C857 1.524 . S
C858 C859 1.397 . S
C858 C863 1.363 . S
C859 H830 0.950 . S
C859 C858 1.397 . S
C859 C860 1.334 . S
C860 H831 0.950 . S
C860 C859 1.334 . S
C860 C861 1.287 . S
C861 C860 1.287 . S
C861 C862 1.524 . S
C861 H864 0.999 . S
C862 H832 0.950 . S
C862 C861 1.524 . S
C862 C863 1.415 . S
C863 H833 0.950 . S
C863 C858 1.363 . S
C863 C862 1.415 . S
H864 C861 0.999 . S
H865 C846 0.913 . S
H866 C884 0.951 . S
H867 C886 0.951 . S
H868 C888 0.950 . S
H869 C889 0.950 . S
H870 C891 0.950 . S
H871 C894 0.950 . S
H872 C895 0.950 . S
H873 C897 0.950 . S
H874 C898 0.950 . S
H875 C899 0.951 . S
H876 C901 0.951 . S
H877 C903 0.950 . S
H878 C904 0.950 . S
H879 C906 0.950 . S
H880 C909 0.950 . S
H881 C910 0.950 . S
H882 C912 0.950 . S
H883 C913 0.950 . S
C884 H866 0.951 . S
C884 C885 1.366 . S
C884 C886 1.388 . S
C885 C884 1.366 . S
C885 C889 1.385 . S
C886 H867 0.951 . S
C886 C884 1.388 . S
C886 C887 1.366 . S
C887 C886 1.366 . S
C887 C888 1.414 . S
C887 C890 1.499 . S
C888 H868 0.950 . S
C888 C887 1.414 . S
C888 C889 1.374 . S
C889 H869 0.950 . S
C889 C885 1.385 . S
C889 C888 1.374 . S
C890 C887 1.499 . S
C890 C891 1.373 . S
C890 C892 1.389 . S
C891 H870 0.950 . S
C891 C890 1.373 . S
C891 C907 1.377 1_455 S
C892 C890 1.389 . S
C892 C893 1.524 . S
C892 C906 1.377 . S
C893 C892 1.524 . S
C893 C894 1.397 . S
C893 C898 1.363 . S
C894 H871 0.950 . S
C894 C893 1.397 . S
C894 C895 1.334 . S
C895 H872 0.950 . S
C895 C894 1.334 . S
C895 C896 1.287 . S
C896 C895 1.287 . S
C896 C897 1.524 . S
C896 H915 0.913 . S
C897 H873 0.950 . S
C897 C896 1.524 . S
C897 C898 1.415 . S
C898 H874 0.950 . S
C898 C893 1.363 . S
C898 C897 1.415 . S
C899 H875 0.951 . S
C899 C900 1.366 . S
C899 C901 1.388 . S
C900 C899 1.366 . S
C900 C904 1.385 . S
C901 H876 0.951 . S
C901 C899 1.388 . S
C901 C902 1.366 . S
C902 C901 1.366 . S
C902 C903 1.414 . S
C902 C905 1.499 . S
C903 H877 0.950 . S
C903 C902 1.414 . S
C903 C904 1.374 . S
C904 H878 0.950 . S
C904 C900 1.385 . S
C904 C903 1.374 . S
C905 C902 1.499 . S
C905 C906 1.373 1_655 S
C905 C907 1.389 . S
C906 H879 0.950 . S
C906 C892 1.377 . S
C906 C905 1.373 1_455 S
C907 C891 1.377 1_655 S
C907 C905 1.389 . S
C907 C908 1.524 . S
C908 C907 1.524 . S
C908 C909 1.397 . S
C908 C913 1.363 . S
C909 H880 0.950 . S
C909 C908 1.397 . S
C909 C910 1.334 . S
C910 H881 0.950 . S
C910 C909 1.334 . S
C910 C911 1.287 . S
C911 C910 1.287 . S
C911 C912 1.524 . S
C911 H914 0.999 . S
C912 H882 0.950 . S
C912 C911 1.524 . S
C912 C913 1.415 . S
C913 H883 0.950 . S
C913 C908 1.363 . S
C913 C912 1.415 . S
H914 C911 0.999 . S
H915 C896 0.913 . S
H916 C934 0.951 . S
H917 C936 0.951 . S
H918 C938 0.950 . S
H919 C939 0.950 . S
H920 C941 0.950 . S
H921 C944 0.950 . S
H922 C945 0.950 . S
H923 C947 0.950 1_455 S
H924 C948 0.950 . S
H925 C949 0.951 . S
H926 C951 0.951 . S
H927 C953 0.950 . S
H928 C954 0.950 1_554 S
H929 C956 0.950 . S
H930 C959 0.950 1_554 S
H931 C960 0.950 . S
H932 C962 0.950 . S
H933 C963 0.950 . S
C934 H916 0.951 . S
C934 C935 1.366 . S
C934 C936 1.388 . S
C935 C934 1.366 . S
C935 C939 1.385 . S
C936 H917 0.951 . S
C936 C934 1.388 . S
C936 C937 1.366 . S
C937 C936 1.366 . S
C937 C938 1.414 . S
C937 C940 1.499 . S
C938 H918 0.950 . S
C938 C937 1.414 . S
C938 C939 1.374 . S
C939 H919 0.950 . S
C939 C935 1.385 . S
C939 C938 1.374 . S
C940 C937 1.499 . S
C940 C941 1.373 . S
C940 C942 1.389 . S
C941 H920 0.950 . S
C941 C940 1.373 . S
C941 C957 1.377 . S
C942 C940 1.389 . S
C942 C943 1.524 . S
C942 C956 1.377 . S
C943 C942 1.524 . S
C943 C944 1.397 . S
C943 C948 1.363 . S
C944 H921 0.950 . S
C944 C943 1.397 . S
C944 C945 1.334 . S
C945 H922 0.950 . S
C945 C944 1.334 . S
C945 C946 1.287 . S
C946 C945 1.287 . S
C946 C947 1.524 . S
C946 H965 0.913 1_655 S
C947 H923 0.950 1_655 S
C947 C946 1.524 . S
C947 C948 1.415 . S
C948 H924 0.950 . S
C948 C943 1.363 . S
C948 C947 1.415 . S
C949 H925 0.951 . S
C949 C950 1.366 . S
C949 C951 1.388 . S
C950 C949 1.366 . S
C950 C954 1.385 . S
C951 H926 0.951 . S
C951 C949 1.388 . S
C951 C952 1.366 . S
C952 C951 1.366 . S
C952 C953 1.414 . S
C952 C955 1.499 . S
C953 H927 0.950 . S
C953 C952 1.414 . S
C953 C954 1.374 . S
C954 H928 0.950 1_556 S
C954 C950 1.385 . S
C954 C953 1.374 . S
C955 C952 1.499 . S
C955 C956 1.373 . S
C955 C957 1.389 . S
C956 H929 0.950 . S
C956 C942 1.377 . S
C956 C955 1.373 . S
C957 C941 1.377 . S
C957 C955 1.389 . S
C957 C958 1.524 . S
C958 C957 1.524 . S
C958 C959 1.397 . S
C958 C963 1.363 . S
C959 H930 0.950 1_556 S
C959 C958 1.397 . S
C959 C960 1.334 1_556 S
C960 H931 0.950 . S
C960 C959 1.334 1_554 S
C960 C961 1.287 1_554 S
C961 C960 1.287 1_556 S
C961 C962 1.524 . S
C961 H964 0.999 1_556 S
C962 H932 0.950 . S
C962 C961 1.524 . S
C962 C963 1.415 . S
C963 H933 0.950 . S
C963 C958 1.363 . S
C963 C962 1.415 . S
H964 C961 0.999 1_554 S
H965 C946 0.913 1_455 S
H966 C984 0.951 . S
H967 C986 0.951 . S
H968 C988 0.950 . S
H969 C989 0.950 . S
H970 C991 0.950 . S
H971 C994 0.950 . S
H972 C995 0.950 . S
H973 C997 0.950 . S
H974 C998 0.950 . S
H975 C999 0.951 . S
H976 C1001 0.951 . S
H977 C1003 0.950 . S
H978 C1004 0.950 . S
H979 C1006 0.950 . S
H980 C1009 0.950 . S
H981 C1010 0.950 . S
H982 C1012 0.950 . S
H983 C1013 0.950 . S
C984 H966 0.951 . S
C984 C985 1.366 . S
C984 C986 1.388 . S
C985 C984 1.366 . S
C985 C989 1.385 . S
C986 H967 0.951 . S
C986 C984 1.388 . S
C986 C987 1.366 . S
C987 C986 1.366 . S
C987 C988 1.414 . S
C987 C990 1.499 . S
C988 H968 0.950 . S
C988 C987 1.414 . S
C988 C989 1.374 . S
C989 H969 0.950 . S
C989 C985 1.385 . S
C989 C988 1.374 . S
C990 C987 1.499 . S
C990 C991 1.373 . S
C990 C992 1.389 . S
C991 H970 0.950 . S
C991 C990 1.373 . S
C991 C1007 1.377 . S
C992 C990 1.389 . S
C992 C993 1.524 . S
C992 C1006 1.377 . S
C993 C992 1.524 . S
C993 C994 1.397 . S
C993 C998 1.363 . S
C994 H971 0.950 . S
C994 C993 1.397 . S
C994 C995 1.334 . S
C995 H972 0.950 . S
C995 C994 1.334 . S
C995 C996 1.287 . S
C996 C995 1.287 . S
C996 C997 1.524 . S
C996 H1015 0.913 . S
C997 H973 0.950 . S
C997 C996 1.524 . S
C997 C998 1.415 . S
C998 H974 0.950 . S
C998 C993 1.363 . S
C998 C997 1.415 . S
C999 H975 0.951 . S
C999 C1000 1.366 . S
C999 C1001 1.388 . S
C1000 C999 1.366 . S
C1000 C1004 1.385 . S
C1001 H976 0.951 . S
C1001 C999 1.388 . S
C1001 C1002 1.366 . S
C1002 C1001 1.366 . S
C1002 C1003 1.414 . S
C1002 C1005 1.499 . S
C1003 H977 0.950 . S
C1003 C1002 1.414 . S
C1003 C1004 1.374 . S
C1004 H978 0.950 . S
C1004 C1000 1.385 . S
C1004 C1003 1.374 . S
C1005 C1002 1.499 . S
C1005 C1006 1.373 . S
C1005 C1007 1.389 . S
C1006 H979 0.950 . S
C1006 C992 1.377 . S
C1006 C1005 1.373 . S
C1007 C991 1.377 . S
C1007 C1005 1.389 . S
C1007 C1008 1.524 . S
C1008 C1007 1.524 . S
C1008 C1009 1.397 . S
C1008 C1013 1.363 . S
C1009 H980 0.950 . S
C1009 C1008 1.397 . S
C1009 C1010 1.334 . S
C1010 H981 0.950 . S
C1010 C1009 1.334 . S
C1010 C1011 1.287 . S
C1011 C1010 1.287 . S
C1011 C1012 1.524 . S
C1011 H1014 0.999 . S
C1012 H982 0.950 . S
C1012 C1011 1.524 . S
C1012 C1013 1.415 . S
C1013 H983 0.950 . S
C1013 C1008 1.363 . S
C1013 C1012 1.415 . S
H1014 C1011 0.999 . S
H1015 C996 0.913 . S
H1016 C1034 0.951 . S
H1017 C1036 0.951 . S
H1018 C1038 0.950 . S
H1019 C1039 0.950 . S
H1020 C1041 0.950 . S
H1021 C1044 0.950 . S
H1022 C1045 0.950 . S
H1023 C1047 0.950 1_565 S
H1024 C1048 0.950 1_565 S
H1025 C1049 0.951 1_545 S
H1026 C1051 0.951 . S
H1027 C1053 0.950 . S
H1028 C1054 0.950 . S
H1029 C1056 0.950 . S
H1030 C1059 0.918 1_565 S
H1031 C1060 0.950 . S
H1032 C1062 0.950 . S
H1033 C1063 0.950 . S
C1034 H1016 0.951 . S
C1034 C1035 1.366 . S
C1034 C1036 1.388 . S
C1035 C1034 1.366 . S
C1035 C1039 1.385 . S
C1036 H1017 0.951 . S
C1036 C1034 1.388 . S
C1036 C1037 1.366 . S
C1037 C1036 1.366 . S
C1037 C1038 1.414 . S
C1037 C1040 1.499 . S
C1038 H1018 0.950 . S
C1038 C1037 1.414 . S
C1038 C1039 1.374 . S
C1039 H1019 0.950 . S
C1039 C1035 1.385 . S
C1039 C1038 1.374 . S
C1040 C1037 1.499 . S
C1040 C1041 1.373 . S
C1040 C1042 1.389 . S
C1041 H1020 0.950 . S
C1041 C1040 1.373 . S
C1041 C1057 1.377 . S
C1042 C1040 1.389 . S
C1042 C1043 1.524 . S
C1042 C1056 1.377 . S
C1043 C1042 1.524 . S
C1043 C1044 1.397 . S
C1043 C1048 1.363 . S
C1044 H1021 0.950 . S
C1044 C1043 1.397 . S
C1044 C1045 1.334 . S
C1045 H1022 0.950 . S
C1045 C1044 1.334 . S
C1045 C1046 1.287 . S
C1046 C1045 1.287 . S
C1046 C1047 1.524 . S
C1046 H1065 0.913 . S
C1047 H1023 0.950 1_545 S
C1047 C1046 1.524 . S
C1047 C1048 1.415 . S
C1048 H1024 0.950 1_545 S
C1048 C1043 1.363 . S
C1048 C1047 1.415 . S
C1049 H1025 0.951 1_565 S
C1049 C1050 1.366 . S
C1049 C1051 1.388 1_565 S
C1050 C1049 1.366 . S
C1050 C1054 1.385 . S
C1051 H1026 0.951 . S
C1051 C1049 1.388 1_545 S
C1051 C1052 1.366 1_545 S
C1052 C1051 1.366 1_565 S
C1052 C1053 1.414 . S
C1052 C1055 1.499 1_565 S
C1053 H1027 0.950 . S
C1053 C1052 1.414 . S
C1053 C1054 1.374 . S
C1054 H1028 0.950 . S
C1054 C1050 1.385 . S
C1054 C1053 1.374 . S
C1055 C1052 1.499 1_545 S
C1055 C1056 1.373 . S
C1055 C1057 1.389 . S
C1056 H1029 0.950 . S
C1056 C1042 1.377 . S
C1056 C1055 1.373 . S
C1057 C1041 1.377 . S
C1057 C1055 1.389 . S
C1057 C1058 1.524 . S
C1058 C1057 1.524 . S
C1058 C1059 1.433 . S
C1058 C1063 1.363 . S
C1059 H1030 0.918 1_545 S
C1059 C1058 1.433 . S
C1059 C1060 1.329 1_545 S
C1060 H1031 0.950 . S
C1060 C1059 1.329 1_565 S
C1060 C1061 1.287 1_565 S
C1061 C1060 1.287 1_545 S
C1061 C1062 1.524 . S
C1061 H1064 0.999 . S
C1062 H1032 0.950 . S
C1062 C1061 1.524 . S
C1062 C1063 1.415 . S
C1063 H1033 0.950 . S
C1063 C1058 1.363 . S
C1063 C1062 1.415 . S
H1064 C1061 0.999 . S
H1065 C1046 0.913 . S
H1066 C1084 0.951 . S
H1067 C1086 0.951 . S
H1068 C1088 0.950 . S
H1069 C1089 0.950 . S
H1070 C1091 0.950 . S
H1071 C1094 0.950 . S
H1072 C1095 0.950 . S
H1073 C1097 0.950 . S
H1074 C1098 0.950 . S
H1075 C1099 0.951 . S
H1076 C1101 0.951 . S
H1077 C1103 0.950 . S
H1078 C1104 0.950 . S
H1079 C1106 0.950 . S
H1080 C1109 0.950 . S
H1081 C1110 0.950 . S
H1082 C1112 0.950 . S
H1083 C1113 0.950 . S
C1084 H1066 0.951 . S
C1084 C1085 1.366 . S
C1084 C1086 1.388 . S
C1085 C1084 1.366 . S
C1085 C1089 1.385 . S
C1086 H1067 0.951 . S
C1086 C1084 1.388 . S
C1086 C1087 1.366 . S
C1087 C1086 1.366 . S
C1087 C1088 1.414 . S
C1087 C1090 1.499 . S
C1088 H1068 0.950 . S
C1088 C1087 1.414 . S
C1088 C1089 1.374 . S
C1089 H1069 0.950 . S
C1089 C1085 1.385 . S
C1089 C1088 1.374 . S
C1090 C1087 1.499 . S
C1090 C1091 1.373 . S
C1090 C1092 1.389 . S
C1091 H1070 0.950 . S
C1091 C1090 1.373 . S
C1091 C1107 1.377 . S
C1092 C1090 1.389 . S
C1092 C1093 1.524 . S
C1092 C1106 1.377 . S
C1093 C1092 1.524 . S
C1093 C1094 1.397 . S
C1093 C1098 1.363 . S
C1094 H1071 0.950 . S
C1094 C1093 1.397 . S
C1094 C1095 1.334 . S
C1095 H1072 0.950 . S
C1095 C1094 1.334 . S
C1095 C1096 1.287 . S
C1096 C1095 1.287 . S
C1096 C1097 1.524 . S
C1096 H1115 0.913 . S
C1097 H1073 0.950 . S
C1097 C1096 1.524 . S
C1097 C1098 1.415 . S
C1098 H1074 0.950 . S
C1098 C1093 1.363 . S
C1098 C1097 1.415 . S
C1099 H1075 0.951 . S
C1099 C1100 1.366 . S
C1099 C1101 1.388 . S
C1100 C1099 1.366 . S
C1100 C1104 1.385 . S
C1101 H1076 0.951 . S
C1101 C1099 1.388 . S
C1101 C1102 1.366 . S
C1102 C1101 1.366 . S
C1102 C1103 1.414 . S
C1102 C1105 1.499 . S
C1103 H1077 0.950 . S
C1103 C1102 1.414 . S
C1103 C1104 1.374 . S
C1104 H1078 0.950 . S
C1104 C1100 1.385 . S
C1104 C1103 1.374 . S
C1105 C1102 1.499 . S
C1105 C1106 1.373 . S
C1105 C1107 1.389 . S
C1106 H1079 0.950 . S
C1106 C1092 1.377 . S
C1106 C1105 1.373 . S
C1107 C1091 1.377 . S
C1107 C1105 1.389 . S
C1107 C1108 1.524 . S
C1108 C1107 1.524 . S
C1108 C1109 1.397 . S
C1108 C1113 1.363 . S
C1109 H1080 0.950 . S
C1109 C1108 1.397 . S
C1109 C1110 1.334 . S
C1110 H1081 0.950 . S
C1110 C1109 1.334 . S
C1110 C1111 1.287 . S
C1111 C1110 1.287 . S
C1111 C1112 1.524 . S
C1111 H1114 0.999 . S
C1112 H1082 0.950 . S
C1112 C1111 1.524 . S
C1112 C1113 1.415 . S
C1113 H1083 0.950 . S
C1113 C1108 1.363 . S
C1113 C1112 1.415 . S
H1114 C1111 0.999 . S
H1115 C1096 0.913 . S
H1116 C1134 0.951 . S
H1117 C1136 0.951 . S
H1118 C1138 0.950 . S
H1119 C1139 0.950 . S
H1120 C1141 0.950 . S
H1121 C1144 0.950 . S
H1122 C1145 0.950 . S
H1123 C1147 0.950 . S
H1124 C1148 0.950 . S
H1125 C1149 0.951 . S
H1126 C1151 0.951 . S
H1127 C1153 0.950 . S
H1128 C1154 0.950 . S
H1129 C1156 0.950 . S
H1130 C1159 0.950 . S
H1131 C1160 0.950 . S
H1132 C1162 0.950 . S
H1133 C1163 0.950 . S
C1134 H1116 0.951 . S
C1134 C1135 1.366 . S
C1134 C1136 1.388 . S
C1135 C1134 1.366 . S
C1135 C1139 1.385 . S
C1136 H1117 0.951 . S
C1136 C1134 1.388 . S
C1136 C1137 1.366 . S
C1137 C1136 1.366 . S
C1137 C1138 1.414 . S
C1137 C1140 1.499 . S
C1138 H1118 0.950 . S
C1138 C1137 1.414 . S
C1138 C1139 1.374 . S
C1139 H1119 0.950 . S
C1139 C1135 1.385 . S
C1139 C1138 1.374 . S
C1140 C1137 1.499 . S
C1140 C1141 1.373 . S
C1140 C1142 1.389 . S
C1141 H1120 0.950 . S
C1141 C1140 1.373 . S
C1141 C1157 1.377 . S
C1142 C1140 1.389 . S
C1142 C1143 1.524 . S
C1142 C1156 1.377 . S
C1143 C1142 1.524 . S
C1143 C1144 1.397 . S
C1143 C1148 1.363 . S
C1144 H1121 0.950 . S
C1144 C1143 1.397 . S
C1144 C1145 1.334 . S
C1145 H1122 0.950 . S
C1145 C1144 1.334 . S
C1145 C1146 1.287 . S
C1146 C1145 1.287 . S
C1146 C1147 1.524 . S
C1146 H1165 0.913 . S
C1147 H1123 0.950 . S
C1147 C1146 1.524 . S
C1147 C1148 1.415 . S
C1148 H1124 0.950 . S
C1148 C1143 1.363 . S
C1148 C1147 1.415 . S
C1149 H1125 0.951 . S
C1149 C1150 1.366 . S
C1149 C1151 1.388 . S
C1150 C1149 1.366 . S
C1150 C1154 1.385 . S
C1151 H1126 0.951 . S
C1151 C1149 1.388 . S
C1151 C1152 1.366 . S
C1152 C1151 1.366 . S
C1152 C1153 1.414 . S
C1152 C1155 1.499 . S
C1153 H1127 0.950 . S
C1153 C1152 1.414 . S
C1153 C1154 1.374 . S
C1154 H1128 0.950 . S
C1154 C1150 1.385 . S
C1154 C1153 1.374 . S
C1155 C1152 1.499 . S
C1155 C1156 1.373 . S
C1155 C1157 1.389 . S
C1156 H1129 0.950 . S
C1156 C1142 1.377 . S
C1156 C1155 1.373 . S
C1157 C1141 1.377 . S
C1157 C1155 1.389 . S
C1157 C1158 1.524 . S
C1158 C1157 1.524 . S
C1158 C1159 1.397 . S
C1158 C1163 1.363 . S
C1159 H1130 0.950 . S
C1159 C1158 1.397 . S
C1159 C1160 1.334 . S
C1160 H1131 0.950 . S
C1160 C1159 1.334 . S
C1160 C1161 1.287 . S
C1161 C1160 1.287 . S
C1161 C1162 1.524 . S
C1161 H1164 0.999 . S
C1162 H1132 0.950 . S
C1162 C1161 1.524 . S
C1162 C1163 1.415 . S
C1163 H1133 0.950 . S
C1163 C1158 1.363 . S
C1163 C1162 1.415 . S
H1164 C1161 0.999 . S
H1165 C1146 0.913 . S
H1166 C1184 0.951 . S
H1167 C1186 0.951 . S
H1168 C1188 0.950 . S
H1169 C1189 0.950 . S
H1170 C1191 0.950 . S
H1171 C1194 0.950 . S
H1172 C1195 0.950 . S
H1173 C1197 0.950 . S
H1174 C1198 0.950 . S
H1175 C1199 0.951 . S
H1176 C1201 0.951 . S
H1177 C1203 0.950 . S
H1178 C1204 0.950 . S
H1179 C1206 0.950 . S
H1180 C1209 0.950 . S
H1181 C1210 0.950 . S
H1182 C1212 0.950 . S
H1183 C1213 0.950 . S
C1184 H1166 0.951 . S
C1184 C1185 1.366 . S
C1184 C1186 1.388 . S
C1185 C1184 1.366 . S
C1185 C1189 1.385 . S
C1186 H1167 0.951 . S
C1186 C1184 1.388 . S
C1186 C1187 1.366 . S
C1187 C1186 1.366 . S
C1187 C1188 1.414 . S
C1187 C1190 1.499 . S
C1188 H1168 0.950 . S
C1188 C1187 1.414 . S
C1188 C1189 1.374 . S
C1189 H1169 0.950 . S
C1189 C1185 1.385 . S
C1189 C1188 1.374 . S
C1190 C1187 1.499 . S
C1190 C1191 1.373 . S
C1190 C1192 1.389 . S
C1191 H1170 0.950 . S
C1191 C1190 1.373 . S
C1191 C1207 1.377 . S
C1192 C1190 1.389 . S
C1192 C1193 1.524 . S
C1192 C1206 1.377 . S
C1193 C1192 1.524 . S
C1193 C1194 1.397 . S
C1193 C1198 1.363 . S
C1194 H1171 0.950 . S
C1194 C1193 1.397 . S
C1194 C1195 1.334 . S
C1195 H1172 0.950 . S
C1195 C1194 1.334 . S
C1195 C1196 1.287 . S
C1196 C1195 1.287 . S
C1196 C1197 1.524 . S
C1196 H1215 0.913 . S
C1197 H1173 0.950 . S
C1197 C1196 1.524 . S
C1197 C1198 1.415 . S
C1198 H1174 0.950 . S
C1198 C1193 1.363 . S
C1198 C1197 1.415 . S
C1199 H1175 0.951 . S
C1199 C1200 1.366 . S
C1199 C1201 1.388 . S
C1200 C1199 1.366 . S
C1200 C1204 1.385 . S
C1201 H1176 0.951 . S
C1201 C1199 1.388 . S
C1201 C1202 1.366 . S
C1202 C1201 1.366 . S
C1202 C1203 1.414 . S
C1202 C1205 1.499 . S
C1203 H1177 0.950 . S
C1203 C1202 1.414 . S
C1203 C1204 1.374 . S
C1204 H1178 0.950 . S
C1204 C1200 1.385 . S
C1204 C1203 1.374 . S
C1205 C1202 1.499 . S
C1205 C1206 1.373 . S
C1205 C1207 1.389 . S
C1206 H1179 0.950 . S
C1206 C1192 1.377 . S
C1206 C1205 1.373 . S
C1207 C1191 1.377 . S
C1207 C1205 1.389 . S
C1207 C1208 1.524 . S
C1208 C1207 1.524 . S
C1208 C1209 1.397 . S
C1208 C1213 1.363 . S
C1209 H1180 0.950 . S
C1209 C1208 1.397 . S
C1209 C1210 1.334 . S
C1210 H1181 0.950 . S
C1210 C1209 1.334 . S
C1210 C1211 1.287 . S
C1211 C1210 1.287 . S
C1211 C1212 1.524 . S
C1211 H1214 0.999 . S
C1212 H1182 0.950 . S
C1212 C1211 1.524 . S
C1212 C1213 1.415 . S
C1213 H1183 0.950 . S
C1213 C1208 1.363 . S
C1213 C1212 1.415 . S
H1214 C1211 0.999 . S
H1215 C1196 0.913 . S
H1216 C1234 0.951 . S
H1217 C1236 0.951 . S
H1218 C1238 0.950 . S
H1219 C1239 0.950 . S
H1220 C1241 0.950 . S
H1221 C1244 0.950 . S
H1222 C1245 0.950 . S
H1223 C1247 0.950 . S
H1224 C1248 0.950 . S
H1225 C1249 0.951 . S
H1226 C1251 0.951 . S
H1227 C1253 0.950 . S
H1228 C1254 0.950 . S
H1229 C1256 0.950 . S
H1230 C1259 0.950 . S
H1231 C1260 0.950 . S
H1232 C1262 0.950 . S
H1233 C1263 0.950 . S
C1234 H1216 0.951 . S
C1234 C1235 1.366 . S
C1234 C1236 1.388 . S
C1235 C1234 1.366 . S
C1235 C1239 1.385 . S
C1236 H1217 0.951 . S
C1236 C1234 1.388 . S
C1236 C1237 1.366 . S
C1237 C1236 1.366 . S
C1237 C1238 1.414 . S
C1237 C1240 1.499 . S
C1238 H1218 0.950 . S
C1238 C1237 1.414 . S
C1238 C1239 1.374 . S
C1239 H1219 0.950 . S
C1239 C1235 1.385 . S
C1239 C1238 1.374 . S
C1240 C1237 1.499 . S
C1240 C1241 1.373 . S
C1240 C1242 1.389 . S
C1241 H1220 0.950 . S
C1241 C1240 1.373 . S
C1241 C1257 1.377 . S
C1242 C1240 1.389 . S
C1242 C1243 1.524 . S
C1242 C1256 1.377 . S
C1243 C1242 1.524 . S
C1243 C1244 1.397 . S
C1243 C1248 1.363 . S
C1244 H1221 0.950 . S
C1244 C1243 1.397 . S
C1244 C1245 1.334 . S
C1245 H1222 0.950 . S
C1245 C1244 1.334 . S
C1245 C1246 1.287 . S
C1246 C1245 1.287 . S
C1246 C1247 1.524 . S
C1246 H1265 0.913 . S
C1247 H1223 0.950 . S
C1247 C1246 1.524 . S
C1247 C1248 1.415 . S
C1248 H1224 0.950 . S
C1248 C1243 1.363 . S
C1248 C1247 1.415 . S
C1249 H1225 0.951 . S
C1249 C1250 1.366 . S
C1249 C1251 1.388 . S
C1250 C1249 1.366 . S
C1250 C1254 1.385 . S
C1251 H1226 0.951 . S
C1251 C1249 1.388 . S
C1251 C1252 1.366 . S
C1252 C1251 1.366 . S
C1252 C1253 1.414 . S
C1252 C1255 1.499 . S
C1253 H1227 0.950 . S
C1253 C1252 1.414 . S
C1253 C1254 1.374 . S
C1254 H1228 0.950 . S
C1254 C1250 1.385 . S
C1254 C1253 1.374 . S
C1255 C1252 1.499 . S
C1255 C1256 1.373 . S
C1255 C1257 1.389 . S
C1256 H1229 0.950 . S
C1256 C1242 1.377 . S
C1256 C1255 1.373 . S
C1257 C1241 1.377 . S
C1257 C1255 1.389 . S
C1257 C1258 1.524 . S
C1258 C1257 1.524 . S
C1258 C1259 1.397 . S
C1258 C1263 1.363 . S
C1259 H1230 0.950 . S
C1259 C1258 1.397 . S
C1259 C1260 1.334 . S
C1260 H1231 0.950 . S
C1260 C1259 1.334 . S
C1260 C1261 1.287 . S
C1261 C1260 1.287 . S
C1261 C1262 1.524 . S
C1261 H1264 0.999 . S
C1262 H1232 0.950 . S
C1262 C1261 1.524 . S
C1262 C1263 1.415 . S
C1263 H1233 0.950 . S
C1263 C1258 1.363 . S
C1263 C1262 1.415 . S
H1264 C1261 0.999 . S
H1265 C1246 0.913 . S
H1266 C1284 0.951 . S
H1267 C1286 0.951 . S
H1268 C1288 0.950 . S
H1269 C1289 0.950 . S
H1270 C1291 0.950 . S
H1271 C1294 0.950 . S
H1272 C1295 0.950 . S
H1273 C1297 0.950 . S
H1274 C1298 0.950 . S
H1275 C1299 0.951 . S
H1276 C1301 0.951 . S
H1277 C1303 0.950 . S
H1278 C1304 0.950 . S
H1279 C1306 0.950 . S
H1280 C1309 0.950 . S
H1281 C1310 0.950 . S
H1282 C1312 0.950 . S
H1283 C1313 0.950 . S
C1284 H1266 0.951 . S
C1284 C1285 1.366 . S
C1284 C1286 1.388 . S
C1285 C1284 1.366 . S
C1285 C1289 1.385 . S
C1286 H1267 0.951 . S
C1286 C1284 1.388 . S
C1286 C1287 1.366 . S
C1287 C1286 1.366 . S
C1287 C1288 1.414 . S
C1287 C1290 1.499 . S
C1288 H1268 0.950 . S
C1288 C1287 1.414 . S
C1288 C1289 1.374 . S
C1289 H1269 0.950 . S
C1289 C1285 1.385 . S
C1289 C1288 1.374 . S
C1290 C1287 1.499 . S
C1290 C1291 1.373 . S
C1290 C1292 1.389 . S
C1291 H1270 0.950 . S
C1291 C1290 1.373 . S
C1291 C1307 1.377 . S
C1292 C1290 1.389 . S
C1292 C1293 1.524 . S
C1292 C1306 1.377 . S
C1293 C1292 1.524 . S
C1293 C1294 1.397 . S
C1293 C1298 1.363 . S
C1294 H1271 0.950 . S
C1294 C1293 1.397 . S
C1294 C1295 1.334 . S
C1295 H1272 0.950 . S
C1295 C1294 1.334 . S
C1295 C1296 1.287 . S
C1296 C1295 1.287 . S
C1296 C1297 1.524 . S
C1296 H1315 0.913 . S
C1297 H1273 0.950 . S
C1297 C1296 1.524 . S
C1297 C1298 1.415 . S
C1298 H1274 0.950 . S
C1298 C1293 1.363 . S
C1298 C1297 1.415 . S
C1299 H1275 0.951 . S
C1299 C1300 1.366 . S
C1299 C1301 1.388 . S
C1300 C1299 1.366 . S
C1300 C1304 1.385 . S
C1301 H1276 0.951 . S
C1301 C1299 1.388 . S
C1301 C1302 1.366 . S
C1302 C1301 1.366 . S
C1302 C1303 1.414 . S
C1302 C1305 1.499 . S
C1303 H1277 0.950 . S
C1303 C1302 1.414 . S
C1303 C1304 1.374 . S
C1304 H1278 0.950 . S
C1304 C1300 1.385 . S
C1304 C1303 1.374 . S
C1305 C1302 1.499 . S
C1305 C1306 1.373 . S
C1305 C1307 1.389 . S
C1306 H1279 0.950 . S
C1306 C1292 1.377 . S
C1306 C1305 1.373 . S
C1307 C1291 1.377 . S
C1307 C1305 1.389 . S
C1307 C1308 1.524 . S
C1308 C1307 1.524 . S
C1308 C1309 1.397 . S
C1308 C1313 1.363 . S
C1309 H1280 0.950 . S
C1309 C1308 1.397 . S
C1309 C1310 1.334 . S
C1310 H1281 0.950 . S
C1310 C1309 1.334 . S
C1310 C1311 1.287 . S
C1311 C1310 1.287 . S
C1311 C1312 1.524 . S
C1311 H1314 0.999 . S
C1312 H1282 0.950 . S
C1312 C1311 1.524 . S
C1312 C1313 1.415 . S
C1313 H1283 0.950 . S
C1313 C1308 1.363 . S
C1313 C1312 1.415 . S
H1314 C1311 0.999 . S
H1315 C1296 0.913 . S
H1316 C1334 0.951 . S
H1317 C1336 0.951 . S
H1318 C1338 0.950 . S
H1319 C1339 0.950 . S
H1320 C1341 0.950 . S
H1321 C1344 0.950 . S
H1322 C1345 0.950 . S
H1323 C1347 0.950 . S
H1324 C1348 0.950 . S
H1325 C1349 0.951 . S
H1326 C1351 0.951 . S
H1327 C1353 0.950 . S
H1328 C1354 0.950 . S
H1329 C1356 0.950 . S
H1330 C1359 0.950 . S
H1331 C1360 0.950 . S
H1332 C1362 0.950 . S
H1333 C1363 0.950 . S
C1334 H1316 0.951 . S
C1334 C1335 1.366 . S
C1334 C1336 1.388 . S
C1335 C1334 1.366 . S
C1335 C1339 1.385 . S
C1336 H1317 0.951 . S
C1336 C1334 1.388 . S
C1336 C1337 1.366 . S
C1337 C1336 1.366 . S
C1337 C1338 1.414 . S
C1337 C1340 1.499 . S
C1338 H1318 0.950 . S
C1338 C1337 1.414 . S
C1338 C1339 1.374 . S
C1339 H1319 0.950 . S
C1339 C1335 1.385 . S
C1339 C1338 1.374 . S
C1340 C1337 1.499 . S
C1340 C1341 1.373 . S
C1340 C1342 1.389 . S
C1341 H1320 0.950 . S
C1341 C1340 1.373 . S
C1341 C1357 1.377 . S
C1342 C1340 1.389 . S
C1342 C1343 1.524 . S
C1342 C1356 1.377 . S
C1343 C1342 1.524 . S
C1343 C1344 1.397 . S
C1343 C1348 1.363 . S
C1344 H1321 0.950 . S
C1344 C1343 1.397 . S
C1344 C1345 1.334 1_565 S
C1345 H1322 0.950 . S
C1345 C1344 1.334 1_545 S
C1345 C1346 1.287 1_545 S
C1346 C1345 1.287 1_565 S
C1346 C1347 1.524 . S
C1346 H1365 0.913 1_565 S
C1347 H1323 0.950 . S
C1347 C1346 1.524 . S
C1347 C1348 1.415 . S
C1348 H1324 0.950 . S
C1348 C1343 1.363 . S
C1348 C1347 1.415 . S
C1349 H1325 0.951 . S
C1349 C1350 1.366 . S
C1349 C1351 1.388 . S
C1350 C1349 1.366 . S
C1350 C1354 1.385 . S
C1351 H1326 0.951 . S
C1351 C1349 1.388 . S
C1351 C1352 1.366 . S
C1352 C1351 1.366 . S
C1352 C1353 1.414 . S
C1352 C1355 1.499 . S
C1353 H1327 0.950 . S
C1353 C1352 1.414 . S
C1353 C1354 1.374 . S
C1354 H1328 0.950 . S
C1354 C1350 1.385 . S
C1354 C1353 1.374 . S
C1355 C1352 1.499 . S
C1355 C1356 1.373 . S
C1355 C1357 1.389 . S
C1356 H1329 0.950 . S
C1356 C1342 1.377 . S
C1356 C1355 1.373 . S
C1357 C1341 1.377 . S
C1357 C1355 1.389 . S
C1357 C1358 1.524 . S
C1358 C1357 1.524 . S
C1358 C1359 1.397 . S
C1358 C1363 1.363 . S
C1359 H1330 0.950 . S
C1359 C1358 1.397 . S
C1359 C1360 1.334 . S
C1360 H1331 0.950 . S
C1360 C1359 1.334 . S
C1360 C1361 1.287 . S
C1361 C1360 1.287 . S
C1361 C1362 1.524 . S
C1361 H1364 0.999 . S
C1362 H1332 0.950 . S
C1362 C1361 1.524 . S
C1362 C1363 1.415 . S
C1363 H1333 0.950 . S
C1363 C1358 1.363 . S
C1363 C1362 1.415 . S
H1364 C1361 0.999 . S
H1365 C1346 0.913 1_545 S
H1366 C1384 0.951 . S
H1367 C1386 0.951 . S
H1368 C1388 0.950 . S
H1369 C1389 0.950 . S
H1370 C1391 0.950 . S
H1371 C1394 0.950 . S
H1372 C1395 0.950 . S
H1373 C1397 0.950 . S
H1374 C1398 0.950 . S
H1375 C1399 0.951 . S
H1376 C1401 0.948 1_565 S
H1377 C1403 0.950 . S
H1378 C1404 0.950 . S
H1379 C1406 0.950 . S
H1380 C1409 0.950 . S
H1381 C1410 0.950 . S
H1382 C1412 0.950 . S
H1383 C1413 0.950 . S
C1384 H1366 0.951 . S
C1384 C1385 1.366 . S
C1384 C1386 1.388 . S
C1385 C1384 1.366 . S
C1385 C1389 1.385 . S
C1386 H1367 0.951 . S
C1386 C1384 1.388 . S
C1386 C1387 1.366 . S
C1387 C1386 1.366 . S
C1387 C1388 1.414 . S
C1387 C1390 1.499 . S
C1388 H1368 0.950 . S
C1388 C1387 1.414 . S
C1388 C1389 1.374 . S
C1389 H1369 0.950 . S
C1389 C1385 1.385 . S
C1389 C1388 1.374 . S
C1390 C1387 1.499 . S
C1390 C1391 1.373 . S
C1390 C1392 1.389 . S
C1391 H1370 0.950 . S
C1391 C1390 1.373 . S
C1391 C1407 1.377 . S
C1392 C1390 1.389 . S
C1392 C1393 1.524 . S
C1392 C1406 1.377 . S
C1393 C1392 1.524 . S
C1393 C1394 1.397 . S
C1393 C1398 1.363 . S
C1394 H1371 0.950 . S
C1394 C1393 1.397 . S
C1394 C1395 1.334 . S
C1395 H1372 0.950 . S
C1395 C1394 1.334 . S
C1395 C1396 1.287 . S
C1396 C1395 1.287 . S
C1396 C1397 1.524 . S
C1396 H1415 0.913 . S
C1397 H1373 0.950 . S
C1397 C1396 1.524 . S
C1397 C1398 1.415 . S
C1398 H1374 0.950 . S
C1398 C1393 1.363 . S
C1398 C1397 1.415 . S
C1399 H1375 0.951 . S
C1399 C1400 1.366 . S
C1399 C1401 1.388 1_565 S
C1400 C1399 1.366 . S
C1400 C1404 1.385 1_565 S
C1401 H1376 0.948 1_545 S
C1401 C1399 1.388 1_545 S
C1401 C1402 1.366 . S
C1402 C1401 1.366 . S
C1402 C1403 1.414 . S
C1402 C1405 1.499 . S
C1403 H1377 0.950 . S
C1403 C1402 1.414 . S
C1403 C1404 1.374 . S
C1404 H1378 0.950 . S
C1404 C1400 1.385 1_545 S
C1404 C1403 1.374 . S
C1405 C1402 1.499 . S
C1405 C1406 1.373 . S
C1405 C1407 1.389 . S
C1406 H1379 0.950 . S
C1406 C1392 1.377 . S
C1406 C1405 1.373 . S
C1407 C1391 1.377 . S
C1407 C1405 1.389 . S
C1407 C1408 1.524 . S
C1408 C1407 1.524 . S
C1408 C1409 1.397 . S
C1408 C1413 1.363 . S
C1409 H1380 0.950 . S
C1409 C1408 1.397 . S
C1409 C1410 1.334 . S
C1410 H1381 0.950 . S
C1410 C1409 1.334 . S
C1410 C1411 1.287 . S
C1411 C1410 1.287 . S
C1411 C1412 1.524 . S
C1411 H1414 0.999 . S
C1412 H1382 0.950 . S
C1412 C1411 1.524 . S
C1412 C1413 1.415 . S
C1413 H1383 0.950 . S
C1413 C1408 1.363 . S
C1413 C1412 1.415 . S
H1414 C1411 0.999 . S
H1415 C1396 0.913 . S
H1416 C1434 0.951 . S
H1417 C1436 0.951 . S
H1418 C1438 0.950 . S
H1419 C1439 0.950 . S
H1420 C1441 0.950 . S
H1421 C1444 0.950 . S
H1422 C1445 0.950 . S
H1423 C1447 0.950 . S
H1424 C1448 0.950 . S
H1425 C1449 0.951 . S
H1426 C1451 0.951 . S
H1427 C1453 0.950 . S
H1428 C1454 0.950 . S
H1429 C1456 0.950 . S
H1430 C1459 0.950 . S
H1431 C1460 0.950 . S
H1432 C1462 0.950 . S
H1433 C1463 0.950 . S
C1434 H1416 0.951 . S
C1434 C1435 1.366 . S
C1434 C1436 1.388 . S
C1435 C1434 1.366 . S
C1435 C1439 1.385 . S
C1436 H1417 0.951 . S
C1436 C1434 1.388 . S
C1436 C1437 1.366 . S
C1437 C1436 1.366 . S
C1437 C1438 1.414 . S
C1437 C1440 1.499 . S
C1438 H1418 0.950 . S
C1438 C1437 1.414 . S
C1438 C1439 1.374 . S
C1439 H1419 0.950 . S
C1439 C1435 1.385 . S
C1439 C1438 1.374 . S
C1440 C1437 1.499 . S
C1440 C1441 1.373 . S
C1440 C1442 1.389 . S
C1441 H1420 0.950 . S
C1441 C1440 1.373 . S
C1441 C1457 1.377 . S
C1442 C1440 1.389 . S
C1442 C1443 1.524 . S
C1442 C1456 1.377 . S
C1443 C1442 1.524 . S
C1443 C1444 1.397 . S
C1443 C1448 1.363 . S
C1444 H1421 0.950 . S
C1444 C1443 1.397 . S
C1444 C1445 1.334 . S
C1445 H1422 0.950 . S
C1445 C1444 1.334 . S
C1445 C1446 1.287 . S
C1446 C1445 1.287 . S
C1446 C1447 1.524 . S
C1446 H1465 0.913 . S
C1447 H1423 0.950 . S
C1447 C1446 1.524 . S
C1447 C1448 1.415 . S
C1448 H1424 0.950 . S
C1448 C1443 1.363 . S
C1448 C1447 1.415 . S
C1449 H1425 0.951 . S
C1449 C1450 1.366 . S
C1449 C1451 1.388 . S
C1450 C1449 1.366 . S
C1450 C1454 1.385 . S
C1451 H1426 0.951 . S
C1451 C1449 1.388 . S
C1451 C1452 1.366 . S
C1452 C1451 1.366 . S
C1452 C1453 1.414 . S
C1452 C1455 1.499 . S
C1453 H1427 0.950 . S
C1453 C1452 1.414 . S
C1453 C1454 1.374 . S
C1454 H1428 0.950 . S
C1454 C1450 1.385 . S
C1454 C1453 1.374 . S
C1455 C1452 1.499 . S
C1455 C1456 1.373 . S
C1455 C1457 1.389 . S
C1456 H1429 0.950 . S
C1456 C1442 1.377 . S
C1456 C1455 1.373 . S
C1457 C1441 1.377 . S
C1457 C1455 1.389 . S
C1457 C1458 1.524 . S
C1458 C1457 1.524 . S
C1458 C1459 1.397 . S
C1458 C1463 1.363 . S
C1459 H1430 0.950 . S
C1459 C1458 1.397 . S
C1459 C1460 1.334 . S
C1460 H1431 0.950 . S
C1460 C1459 1.334 . S
C1460 C1461 1.287 . S
C1461 C1460 1.287 . S
C1461 C1462 1.524 . S
C1461 H1464 0.999 . S
C1462 H1432 0.950 . S
C1462 C1461 1.524 . S
C1462 C1463 1.415 . S
C1463 H1433 0.950 . S
C1463 C1458 1.363 . S
C1463 C1462 1.415 . S
H1464 C1461 0.999 . S
H1465 C1446 0.913 . S
H1466 C1484 0.951 . S
H1467 C1486 0.951 . S
H1468 C1488 0.950 . S
H1469 C1489 0.950 . S
H1470 C1491 0.950 . S
H1471 C1494 0.950 . S
H1472 C1495 0.950 1_565 S
H1473 C1497 0.950 1_565 S
H1474 C1498 0.950 . S
H1475 C1499 0.951 . S
H1476 C1501 0.951 . S
H1477 C1503 0.950 . S
H1478 C1504 0.950 . S
H1479 C1506 0.950 . S
H1480 C1509 0.950 . S
H1481 C1510 0.950 . S
H1482 C1512 0.950 . S
H1483 C1513 0.950 . S
C1484 H1466 0.951 . S
C1484 C1485 1.366 . S
C1484 C1486 1.388 . S
C1485 C1484 1.366 . S
C1485 C1489 1.385 . S
C1486 H1467 0.951 . S
C1486 C1484 1.388 . S
C1486 C1487 1.366 . S
C1487 C1486 1.366 . S
C1487 C1488 1.414 . S
C1487 C1490 1.499 . S
C1488 H1468 0.950 . S
C1488 C1487 1.414 . S
C1488 C1489 1.374 . S
C1489 H1469 0.950 . S
C1489 C1485 1.385 . S
C1489 C1488 1.374 . S
C1490 C1487 1.499 . S
C1490 C1491 1.373 . S
C1490 C1492 1.389 . S
C1491 H1470 0.950 . S
C1491 C1490 1.373 . S
C1491 C1507 1.377 . S
C1492 C1490 1.389 . S
C1492 C1493 1.524 . S
C1492 C1506 1.377 . S
C1493 C1492 1.524 . S
C1493 C1494 1.397 . S
C1493 C1498 1.363 . S
C1494 H1471 0.950 . S
C1494 C1493 1.397 . S
C1494 C1495 1.334 . S
C1495 H1472 0.950 1_545 S
C1495 C1494 1.334 . S
C1495 C1496 1.287 1_545 S
C1496 C1495 1.287 1_565 S
C1496 C1497 1.524 1_565 S
C1496 H1515 0.913 . S
C1497 H1473 0.950 1_545 S
C1497 C1496 1.524 1_545 S
C1497 C1498 1.415 . S
C1498 H1474 0.950 . S
C1498 C1493 1.363 . S
C1498 C1497 1.415 . S
C1499 H1475 0.951 . S
C1499 C1500 1.366 . S
C1499 C1501 1.388 . S
C1500 C1499 1.366 . S
C1500 C1504 1.385 . S
C1501 H1476 0.951 . S
C1501 C1499 1.388 . S
C1501 C1502 1.366 . S
C1502 C1501 1.366 . S
C1502 C1503 1.414 . S
C1502 C1505 1.499 . S
C1503 H1477 0.950 . S
C1503 C1502 1.414 . S
C1503 C1504 1.374 . S
C1504 H1478 0.950 . S
C1504 C1500 1.385 . S
C1504 C1503 1.374 . S
C1505 C1502 1.499 . S
C1505 C1506 1.373 . S
C1505 C1507 1.389 . S
C1506 H1479 0.950 . S
C1506 C1492 1.377 . S
C1506 C1505 1.373 . S
C1507 C1491 1.377 . S
C1507 C1505 1.389 . S
C1507 C1508 1.524 . S
C1508 C1507 1.524 . S
C1508 C1509 1.397 . S
C1508 C1513 1.363 . S
C1509 H1480 0.950 . S
C1509 C1508 1.397 . S
C1509 C1510 1.334 . S
C1510 H1481 0.950 . S
C1510 C1509 1.334 . S
C1510 C1511 1.287 . S
C1511 C1510 1.287 . S
C1511 C1512 1.524 . S
C1511 H1514 0.999 . S
C1512 H1482 0.950 . S
C1512 C1511 1.524 . S
C1512 C1513 1.415 . S
C1513 H1483 0.950 . S
C1513 C1508 1.363 . S
C1513 C1512 1.415 . S
H1514 C1511 0.999 . S
H1515 C1496 0.913 . S
H1516 C1534 0.951 . S
H1517 C1536 0.951 . S
H1518 C1538 0.950 . S
H1519 C1539 0.950 . S
H1520 C1541 0.950 . S
H1521 C1544 0.950 . S
H1522 C1545 0.950 . S
H1523 C1547 0.950 . S
H1524 C1548 0.950 . S
H1525 C1549 0.951 1_655 S
H1526 C1551 0.951 . S
H1527 C1553 0.950 . S
H1528 C1554 0.950 . S
H1529 C1556 0.950 . S
H1530 C1559 0.950 . S
H1531 C1560 0.950 . S
H1532 C1562 0.950 . S
H1533 C1563 0.950 . S
C1534 H1516 0.951 . S
C1534 C1535 1.366 . S
C1534 C1536 1.388 . S
C1535 C1534 1.366 . S
C1535 C1539 1.385 . S
C1536 H1517 0.951 . S
C1536 C1534 1.388 . S
C1536 C1537 1.366 . S
C1537 C1536 1.366 . S
C1537 C1538 1.414 . S
C1537 C1540 1.499 . S
C1538 H1518 0.950 . S
C1538 C1537 1.414 . S
C1538 C1539 1.374 . S
C1539 H1519 0.950 . S
C1539 C1535 1.385 . S
C1539 C1538 1.374 . S
C1540 C1537 1.499 . S
C1540 C1541 1.373 . S
C1540 C1542 1.389 . S
C1541 H1520 0.950 . S
C1541 C1540 1.373 . S
C1541 C1557 1.377 . S
C1542 C1540 1.389 . S
C1542 C1543 1.524 . S
C1542 C1556 1.377 . S
C1543 C1542 1.524 . S
C1543 C1544 1.397 . S
C1543 C1548 1.363 . S
C1544 H1521 0.950 . S
C1544 C1543 1.397 . S
C1544 C1545 1.334 . S
C1545 H1522 0.950 . S
C1545 C1544 1.334 . S
C1545 C1546 1.287 . S
C1546 C1545 1.287 . S
C1546 C1547 1.524 . S
C1546 H1565 0.913 . S
C1547 H1523 0.950 . S
C1547 C1546 1.524 . S
C1547 C1548 1.415 . S
C1548 H1524 0.950 . S
C1548 C1543 1.363 . S
C1548 C1547 1.415 . S
C1549 H1525 0.951 1_455 S
C1549 C1550 1.366 . S
C1549 C1551 1.388 . S
C1550 C1549 1.366 . S
C1550 C1554 1.385 . S
C1551 H1526 0.951 . S
C1551 C1549 1.388 . S
C1551 C1552 1.366 . S
C1552 C1551 1.366 . S
C1552 C1553 1.414 . S
C1552 C1555 1.499 . S
C1553 H1527 0.950 . S
C1553 C1552 1.414 . S
C1553 C1554 1.374 . S
C1554 H1528 0.950 . S
C1554 C1550 1.385 . S
C1554 C1553 1.374 . S
C1555 C1552 1.499 . S
C1555 C1556 1.373 . S
C1555 C1557 1.389 . S
C1556 H1529 0.950 . S
C1556 C1542 1.377 . S
C1556 C1555 1.373 . S
C1557 C1541 1.377 . S
C1557 C1555 1.389 . S
C1557 C1558 1.524 . S
C1558 C1557 1.524 . S
C1558 C1559 1.397 . S
C1558 C1563 1.363 . S
C1559 H1530 0.950 . S
C1559 C1558 1.397 . S
C1559 C1560 1.334 1_455 S
C1560 H1531 0.950 . S
C1560 C1559 1.334 1_655 S
C1560 C1561 1.287 . S
C1561 C1560 1.287 . S
C1561 C1562 1.524 . S
C1561 H1564 0.999 . S
C1562 H1532 0.950 . S
C1562 C1561 1.524 . S
C1562 C1563 1.415 1_655 S
C1563 H1533 0.950 . S
C1563 C1558 1.363 . S
C1563 C1562 1.415 1_455 S
H1564 C1561 0.999 . S
H1565 C1546 0.913 . S
H1566 C1584 0.951 . S
H1567 C1586 0.951 . S
H1568 C1588 0.950 . S
H1569 C1589 0.950 1_455 S
H1570 C1591 0.950 . S
H1571 C1594 0.950 . S
H1572 C1595 0.950 . S
H1573 C1597 0.950 . S
H1574 C1598 0.950 . S
H1575 C1599 0.951 . S
H1576 C1601 0.951 . S
H1577 C1603 0.950 . S
H1578 C1604 0.950 . S
H1579 C1606 0.950 . S
H1580 C1609 0.950 . S
H1581 C1610 0.950 . S
H1582 C1612 0.950 . S
H1583 C1613 0.950 1_455 S
C1584 H1566 0.951 . S
C1584 C1585 1.366 . S
C1584 C1586 1.388 . S
C1585 C1584 1.366 . S
C1585 C1589 1.385 . S
C1586 H1567 0.951 . S
C1586 C1584 1.388 . S
C1586 C1587 1.366 . S
C1587 C1586 1.366 . S
C1587 C1588 1.414 . S
C1587 C1590 1.499 . S
C1588 H1568 0.950 . S
C1588 C1587 1.414 . S
C1588 C1589 1.374 . S
C1589 H1569 0.950 1_655 S
C1589 C1585 1.385 . S
C1589 C1588 1.374 . S
C1590 C1587 1.499 . S
C1590 C1591 1.373 . S
C1590 C1592 1.389 . S
C1591 H1570 0.950 . S
C1591 C1590 1.373 . S
C1591 C1607 1.377 . S
C1592 C1590 1.389 . S
C1592 C1593 1.524 . S
C1592 C1606 1.377 . S
C1593 C1592 1.524 . S
C1593 C1594 1.397 . S
C1593 C1598 1.363 . S
C1594 H1571 0.950 . S
C1594 C1593 1.397 . S
C1594 C1595 1.334 . S
C1595 H1572 0.950 . S
C1595 C1594 1.334 . S
C1595 C1596 1.287 . S
C1596 C1595 1.287 . S
C1596 C1597 1.524 . S
C1596 H1615 0.913 . S
C1597 H1573 0.950 . S
C1597 C1596 1.524 . S
C1597 C1598 1.415 . S
C1598 H1574 0.950 . S
C1598 C1593 1.363 . S
C1598 C1597 1.415 . S
C1599 H1575 0.951 . S
C1599 C1600 1.366 . S
C1599 C1601 1.388 . S
C1600 C1599 1.366 . S
C1600 C1604 1.385 . S
C1601 H1576 0.951 . S
C1601 C1599 1.388 . S
C1601 C1602 1.366 . S
C1602 C1601 1.366 . S
C1602 C1603 1.414 . S
C1602 C1605 1.499 . S
C1603 H1577 0.950 . S
C1603 C1602 1.414 . S
C1603 C1604 1.374 . S
C1604 H1578 0.950 . S
C1604 C1600 1.385 . S
C1604 C1603 1.374 . S
C1605 C1602 1.499 . S
C1605 C1606 1.373 . S
C1605 C1607 1.389 . S
C1606 H1579 0.950 . S
C1606 C1592 1.377 . S
C1606 C1605 1.373 . S
C1607 C1591 1.377 . S
C1607 C1605 1.389 . S
C1607 C1608 1.524 . S
C1608 C1607 1.524 . S
C1608 C1609 1.397 . S
C1608 C1613 1.365 . S
C1609 H1580 0.950 . S
C1609 C1608 1.397 . S
C1609 C1610 1.334 . S
C1610 H1581 0.950 . S
C1610 C1609 1.334 . S
C1610 C1611 1.287 1_655 S
C1611 C1610 1.287 1_455 S
C1611 C1612 1.524 . S
C1611 H1614 0.999 . S
C1612 H1582 0.950 . S
C1612 C1611 1.524 . S
C1612 C1613 1.413 1_455 S
C1613 H1583 0.950 1_655 S
C1613 C1608 1.365 . S
C1613 C1612 1.413 1_655 S
H1614 C1611 0.999 . S
H1615 C1596 0.913 . S
H1616 C1634 0.951 . S
H1617 C1636 0.951 . S
H1618 C1638 0.950 . S
H1619 C1639 0.950 . S
H1620 C1641 0.950 . S
H1621 C1644 0.950 . S
H1622 C1645 0.950 . S
H1623 C1647 0.950 . S
H1624 C1648 0.950 . S
H1625 C1649 0.951 . S
H1626 C1651 0.951 . S
H1627 C1653 0.950 . S
H1628 C1654 0.950 . S
H1629 C1656 0.950 . S
H1630 C1659 0.950 . S
H1631 C1660 0.950 . S
H1632 C1662 0.950 . S
H1633 C1663 0.950 . S
C1634 H1616 0.951 . S
C1634 C1635 1.366 . S
C1634 C1636 1.388 . S
C1635 C1634 1.366 . S
C1635 C1639 1.385 . S
C1636 H1617 0.951 . S
C1636 C1634 1.388 . S
C1636 C1637 1.366 . S
C1637 C1636 1.366 . S
C1637 C1638 1.414 . S
C1637 C1640 1.499 . S
C1638 H1618 0.950 . S
C1638 C1637 1.414 . S
C1638 C1639 1.374 . S
C1639 H1619 0.950 . S
C1639 C1635 1.385 . S
C1639 C1638 1.374 . S
C1640 C1637 1.499 . S
C1640 C1641 1.373 . S
C1640 C1642 1.389 . S
C1641 H1620 0.950 . S
C1641 C1640 1.373 . S
C1641 C1657 1.377 . S
C1642 C1640 1.389 . S
C1642 C1643 1.524 . S
C1642 C1656 1.377 . S
C1643 C1642 1.524 . S
C1643 C1644 1.397 . S
C1643 C1648 1.363 . S
C1644 H1621 0.950 . S
C1644 C1643 1.397 . S
C1644 C1645 1.334 . S
C1645 H1622 0.950 . S
C1645 C1644 1.334 . S
C1645 C1646 1.287 . S
C1646 C1645 1.287 . S
C1646 C1647 1.524 . S
C1646 H1665 0.913 . S
C1647 H1623 0.950 . S
C1647 C1646 1.524 . S
C1647 C1648 1.415 . S
C1648 H1624 0.950 . S
C1648 C1643 1.363 . S
C1648 C1647 1.415 . S
C1649 H1625 0.951 . S
C1649 C1650 1.366 . S
C1649 C1651 1.388 . S
C1650 C1649 1.366 . S
C1650 C1654 1.385 . S
C1651 H1626 0.951 . S
C1651 C1649 1.388 . S
C1651 C1652 1.366 . S
C1652 C1651 1.366 . S
C1652 C1653 1.414 . S
C1652 C1655 1.499 . S
C1653 H1627 0.950 . S
C1653 C1652 1.414 . S
C1653 C1654 1.374 . S
C1654 H1628 0.950 . S
C1654 C1650 1.385 . S
C1654 C1653 1.374 . S
C1655 C1652 1.499 . S
C1655 C1656 1.373 . S
C1655 C1657 1.389 . S
C1656 H1629 0.950 . S
C1656 C1642 1.377 . S
C1656 C1655 1.373 . S
C1657 C1641 1.377 . S
C1657 C1655 1.389 . S
C1657 C1658 1.524 . S
C1658 C1657 1.524 . S
C1658 C1659 1.397 . S
C1658 C1663 1.363 . S
C1659 H1630 0.950 . S
C1659 C1658 1.397 . S
C1659 C1660 1.334 . S
C1660 H1631 0.950 . S
C1660 C1659 1.334 . S
C1660 C1661 1.287 . S
C1661 C1660 1.287 . S
C1661 C1662 1.524 . S
C1661 H1664 0.999 . S
C1662 H1632 0.950 . S
C1662 C1661 1.524 . S
C1662 C1663 1.415 . S
C1663 H1633 0.950 . S
C1663 C1658 1.363 . S
C1663 C1662 1.415 . S
H1664 C1661 0.999 . S
H1665 C1646 0.913 . S
H1666 C1684 0.951 . S
H1667 C1686 0.951 . S
H1668 C1688 0.950 . S
H1669 C1689 0.950 . S
H1670 C1691 0.950 . S
H1671 C1694 0.950 . S
H1672 C1695 0.950 . S
H1673 C1697 0.950 1_655 S
H1674 C1698 0.950 . S
H1675 C1699 0.951 . S
H1676 C1701 0.951 . S
H1677 C1703 0.950 1_655 S
H1678 C1704 0.950 . S
H1679 C1706 0.950 . S
H1680 C1709 0.950 . S
H1681 C1710 0.950 . S
H1682 C1712 0.950 . S
H1683 C1713 0.950 . S
C1684 H1666 0.951 . S
C1684 C1685 1.366 . S
C1684 C1686 1.388 . S
C1685 C1684 1.366 . S
C1685 C1689 1.385 . S
C1686 H1667 0.951 . S
C1686 C1684 1.388 . S
C1686 C1687 1.366 . S
C1687 C1686 1.366 . S
C1687 C1688 1.414 . S
C1687 C1690 1.499 . S
C1688 H1668 0.950 . S
C1688 C1687 1.414 . S
C1688 C1689 1.374 . S
C1689 H1669 0.950 . S
C1689 C1685 1.385 . S
C1689 C1688 1.374 . S
C1690 C1687 1.499 . S
C1690 C1691 1.373 . S
C1690 C1692 1.389 . S
C1691 H1670 0.950 . S
C1691 C1690 1.373 . S
C1691 C1707 1.377 . S
C1692 C1690 1.389 . S
C1692 C1693 1.524 . S
C1692 C1706 1.377 . S
C1693 C1692 1.524 . S
C1693 C1694 1.397 . S
C1693 C1698 1.363 . S
C1694 H1671 0.950 . S
C1694 C1693 1.397 . S
C1694 C1695 1.334 . S
C1695 H1672 0.950 . S
C1695 C1694 1.334 . S
C1695 C1696 1.287 . S
C1696 C1695 1.287 . S
C1696 C1697 1.524 . S
C1696 H1715 0.913 . S
C1697 H1673 0.950 1_455 S
C1697 C1696 1.524 . S
C1697 C1698 1.415 . S
C1698 H1674 0.950 . S
C1698 C1693 1.363 . S
C1698 C1697 1.415 . S
C1699 H1675 0.951 . S
C1699 C1700 1.394 . S
C1699 C1701 1.388 . S
C1700 C1699 1.394 . S
C1700 C1704 1.370 1_455 S
C1701 H1676 0.951 . S
C1701 C1699 1.388 . S
C1701 C1702 1.366 . S
C1702 C1701 1.366 . S
C1702 C1703 1.414 . S
C1702 C1705 1.499 . S
C1703 H1677 0.950 1_455 S
C1703 C1702 1.414 . S
C1703 C1704 1.374 1_455 S
C1704 H1678 0.950 . S
C1704 C1700 1.370 1_655 S
C1704 C1703 1.374 1_655 S
C1705 C1702 1.499 . S
C1705 C1706 1.373 . S
C1705 C1707 1.389 . S
C1706 H1679 0.950 . S
C1706 C1692 1.377 . S
C1706 C1705 1.373 . S
C1707 C1691 1.377 . S
C1707 C1705 1.389 . S
C1707 C1708 1.524 . S
C1708 C1707 1.524 . S
C1708 C1709 1.397 . S
C1708 C1713 1.363 . S
C1709 H1680 0.950 . S
C1709 C1708 1.397 . S
C1709 C1710 1.334 . S
C1710 H1681 0.950 . S
C1710 C1709 1.334 . S
C1710 C1711 1.287 . S
C1711 C1710 1.287 . S
C1711 C1712 1.524 . S
C1711 H1714 0.999 . S
C1712 H1682 0.950 . S
C1712 C1711 1.524 . S
C1712 C1713 1.415 . S
C1713 H1683 0.950 . S
C1713 C1708 1.363 . S
C1713 C1712 1.415 . S
H1714 C1711 0.999 . S
H1715 C1696 0.913 . S
H1716 C1734 0.951 . S
H1717 C1736 0.951 . S
H1718 C1738 0.950 . S
H1719 C1739 0.950 . S
H1720 C1741 0.950 . S
H1721 C1744 0.962 . S
H1722 C1745 0.950 . S
H1723 C1747 0.950 . S
H1724 C1748 0.950 . S
H1725 C1749 0.951 . S
H1726 C1751 0.951 . S
H1727 C1753 0.950 . S
H1728 C1754 0.950 . S
H1729 C1756 0.950 . S
H1730 C1759 0.950 . S
H1731 C1760 0.950 . S
H1732 C1762 0.950 . S
H1733 C1763 0.950 . S
C1734 H1716 0.951 . S
C1734 C1735 1.366 . S
C1734 C1736 1.388 . S
C1735 C1734 1.366 . S
C1735 C1739 1.385 . S
C1736 H1717 0.951 . S
C1736 C1734 1.388 . S
C1736 C1737 1.366 . S
C1737 C1736 1.366 . S
C1737 C1738 1.414 . S
C1737 C1740 1.499 . S
C1738 H1718 0.950 . S
C1738 C1737 1.414 . S
C1738 C1739 1.374 . S
C1739 H1719 0.950 . S
C1739 C1735 1.385 . S
C1739 C1738 1.374 . S
C1740 C1737 1.499 . S
C1740 C1741 1.373 . S
C1740 C1742 1.389 . S
C1741 H1720 0.950 . S
C1741 C1740 1.373 . S
C1741 C1757 1.377 . S
C1742 C1740 1.389 . S
C1742 C1743 1.524 . S
C1742 C1756 1.377 . S
C1743 C1742 1.524 . S
C1743 C1744 1.397 1_655 S
C1743 C1748 1.363 . S
C1744 H1721 0.962 . S
C1744 C1743 1.397 1_455 S
C1744 C1745 1.334 . S
C1745 H1722 0.950 . S
C1745 C1744 1.334 . S
C1745 C1746 1.287 . S
C1746 C1745 1.287 . S
C1746 C1747 1.524 . S
C1746 H1765 0.913 . S
C1747 H1723 0.950 . S
C1747 C1746 1.524 . S
C1747 C1748 1.415 1_455 S
C1748 H1724 0.950 . S
C1748 C1743 1.363 . S
C1748 C1747 1.415 1_655 S
C1749 H1725 0.951 . S
C1749 C1750 1.366 . S
C1749 C1751 1.388 . S
C1750 C1749 1.366 . S
C1750 C1754 1.385 . S
C1751 H1726 0.951 . S
C1751 C1749 1.388 . S
C1751 C1752 1.366 . S
C1752 C1751 1.366 . S
C1752 C1753 1.414 . S
C1752 C1755 1.499 . S
C1753 H1727 0.950 . S
C1753 C1752 1.414 . S
C1753 C1754 1.374 . S
C1754 H1728 0.950 . S
C1754 C1750 1.385 . S
C1754 C1753 1.374 . S
C1755 C1752 1.499 . S
C1755 C1756 1.373 . S
C1755 C1757 1.389 . S
C1756 H1729 0.950 . S
C1756 C1742 1.377 . S
C1756 C1755 1.373 . S
C1757 C1741 1.377 . S
C1757 C1755 1.389 . S
C1757 C1758 1.524 . S
C1758 C1757 1.524 . S
C1758 C1759 1.397 . S
C1758 C1763 1.363 . S
C1759 H1730 0.950 . S
C1759 C1758 1.397 . S
C1759 C1760 1.334 . S
C1760 H1731 0.950 . S
C1760 C1759 1.334 . S
C1760 C1761 1.287 . S
C1761 C1760 1.287 . S
C1761 C1762 1.524 . S
C1761 H1764 0.999 . S
C1762 H1732 0.950 . S
C1762 C1761 1.524 . S
C1762 C1763 1.415 . S
C1763 H1733 0.950 . S
C1763 C1758 1.363 . S
C1763 C1762 1.415 . S
H1764 C1761 0.999 . S
H1765 C1746 0.913 . S
H1766 C1784 0.951 . S
H1767 C1786 0.951 . S
H1768 C1788 0.950 . S
H1769 C1789 0.950 . S
H1770 C1791 0.950 . S
H1771 C1794 0.950 . S
H1772 C1795 0.950 . S
H1773 C1797 0.950 . S
H1774 C1798 0.950 . S
H1775 C1799 0.951 . S
H1776 C1801 0.951 . S
H1777 C1803 0.950 . S
H1778 C1804 0.950 . S
H1779 C1806 0.950 . S
H1780 C1809 0.950 . S
H1781 C1810 0.950 . S
H1782 C1812 0.950 . S
H1783 C1813 0.950 . S
C1784 H1766 0.951 . S
C1784 C1785 1.366 . S
C1784 C1786 1.388 . S
C1785 C1784 1.366 . S
C1785 C1789 1.385 . S
C1786 H1767 0.951 . S
C1786 C1784 1.388 . S
C1786 C1787 1.366 . S
C1787 C1786 1.366 . S
C1787 C1788 1.414 . S
C1787 C1790 1.499 . S
C1788 H1768 0.950 . S
C1788 C1787 1.414 . S
C1788 C1789 1.374 . S
C1789 H1769 0.950 . S
C1789 C1785 1.385 . S
C1789 C1788 1.374 . S
C1790 C1787 1.499 . S
C1790 C1791 1.373 . S
C1790 C1792 1.389 . S
C1791 H1770 0.950 . S
C1791 C1790 1.373 . S
C1791 C1807 1.377 . S
C1792 C1790 1.389 . S
C1792 C1793 1.524 . S
C1792 C1806 1.377 . S
C1793 C1792 1.524 . S
C1793 C1794 1.397 . S
C1793 C1798 1.363 . S
C1794 H1771 0.950 . S
C1794 C1793 1.397 . S
C1794 C1795 1.334 . S
C1795 H1772 0.950 . S
C1795 C1794 1.334 . S
C1795 C1796 1.287 . S
C1796 C1795 1.287 . S
C1796 C1797 1.524 . S
C1796 H1815 0.913 . S
C1797 H1773 0.950 . S
C1797 C1796 1.524 . S
C1797 C1798 1.415 . S
C1798 H1774 0.950 . S
C1798 C1793 1.363 . S
C1798 C1797 1.415 . S
C1799 H1775 0.951 . S
C1799 C1800 1.366 . S
C1799 C1801 1.388 . S
C1800 C1799 1.366 . S
C1800 C1804 1.385 . S
C1801 H1776 0.951 . S
C1801 C1799 1.388 . S
C1801 C1802 1.366 . S
C1802 C1801 1.366 . S
C1802 C1803 1.414 . S
C1802 C1805 1.499 . S
C1803 H1777 0.950 . S
C1803 C1802 1.414 . S
C1803 C1804 1.374 . S
C1804 H1778 0.950 . S
C1804 C1800 1.385 . S
C1804 C1803 1.374 . S
C1805 C1802 1.499 . S
C1805 C1806 1.373 . S
C1805 C1807 1.389 . S
C1806 H1779 0.950 . S
C1806 C1792 1.377 . S
C1806 C1805 1.373 . S
C1807 C1791 1.377 . S
C1807 C1805 1.389 . S
C1807 C1808 1.524 . S
C1808 C1807 1.524 . S
C1808 C1809 1.397 . S
C1808 C1813 1.363 . S
C1809 H1780 0.950 . S
C1809 C1808 1.397 . S
C1809 C1810 1.334 . S
C1810 H1781 0.950 . S
C1810 C1809 1.334 . S
C1810 C1811 1.287 . S
C1811 C1810 1.287 . S
C1811 C1812 1.524 . S
C1811 H1814 0.999 . S
C1812 H1782 0.950 . S
C1812 C1811 1.524 . S
C1812 C1813 1.415 . S
C1813 H1783 0.950 . S
C1813 C1808 1.363 . S
C1813 C1812 1.415 . S
H1814 C1811 0.999 . S
H1815 C1796 0.913 . S
C250 C125 1.398 . S
C235 C5 1.373 . S
C300 C145 1.459 . S
C285 C18 1.435 . S
C350 C159 1.474 . S
C335 C31 1.456 . S
C385 C42 1.475 . S
C400 C117 1.460 . S
C435 C57 1.197 . S
C450 C111 1.195 . S
C485 C70 1.179 . S
C500 C131 1.173 . S
C550 C139 1.082 . S
C535 C81 1.062 . S
C600 C153 1.144 . S
C585 C96 1.152 . S
C635 C29 1.112 . S
C650 C181 1.144 . S
C700 C195 1.081 . S
C685 C44 1.095 . S
C735 C3 1.138 . S
C750 C215 1.173 . S
C800 C167 1.195 . S
C785 C16 1.151 . S
C835 C83 1.446 . S
C850 C173 1.461 . S
C885 C94 1.492 . S
C900 C187 1.473 . S
C950 C201 1.460 1_556 S
C935 C55 1.475 . S
C985 C68 1.405 . S
C1000 C209 1.398 . S
C1050 C140 1.695 . S
C1035 C1 1.629 . S
C1100 C154 1.685 . S
C1085 C14 1.619 . S
C1135 C27 1.546 . S
C1150 C112 1.564 1_556 S
C1185 C49 1.461 . S
C1200 C129 1.472 . S
C1235 C53 1.062 . S
C1250 C157 1.067 . S
C1300 C115 1.030 . S
C1285 C66 1.026 . S
C1350 C126 1.198 . S
C1335 C88 1.185 . S
C1400 C143 1.125 . S
C1385 C92 1.119 . S
C1450 C199 1.125 . S
C1435 C36 1.113 . S
C1500 C210 1.197 . S
C1485 C40 1.191 . S
C1535 C10 1.021 . S
C1550 C171 1.031 . S
C1600 C185 1.067 . S
C1585 C23 1.055 1_655 S
C1650 C213 1.472 . S
C1635 C79 1.414 . S
C1685 C101 1.604 . S
C1700 C168 1.592 1_455 S
C1750 C182 1.685 . S
C1735 C62 1.679 . S
C1800 C196 1.695 . S
C1785 C75 1.686 . S
