# Generated by pormake.
# Topology pth, (4,4)-cn, num edge types: 1
# Building blocks:
#     Node 0, Type 0, BuildingBlock: NAHDIM_clean_sbu_0, # of connection points: 4
#     Node 1, Type 0, BuildingBlock: NAHDIM_clean_sbu_0, # of connection points: 4
#     Node 2, Type 0, BuildingBlock: NAHDIM_clean_sbu_0, # of connection points: 4
#     Node 3, Type 1, BuildingBlock: KOZSID_clean_sbu_0, # of connection points: 4
#     Node 4, Type 1, BuildingBlock: KOZSID_clean_sbu_0, # of connection points: 4
#     Node 5, Type 1, BuildingBlock: KOZSID_clean_sbu_0, # of connection points: 4
#     Edge 6, Type (0, 1), BuildingBlock: KIFKEQ_clean_linker_1, # of connection points: 2
#     Edge 7, Type (0, 1), BuildingBlock: KIFKEQ_clean_linker_1, # of connection points: 2
#     Edge 8, Type (0, 1), BuildingBlock: KIFKEQ_clean_linker_1, # of connection points: 2
#     Edge 9, Type (0, 1), BuildingBlock: KIFKEQ_clean_linker_1, # of connection points: 2
#     Edge 10, Type (0, 1), BuildingBlock: KIFKEQ_clean_linker_1, # of connection points: 2
#     Edge 11, Type (0, 1), BuildingBlock: KIFKEQ_clean_linker_1, # of connection points: 2
#     Edge 12, Type (0, 1), BuildingBlock: KIFKEQ_clean_linker_1, # of connection points: 2
#     Edge 13, Type (0, 1), BuildingBlock: KIFKEQ_clean_linker_1, # of connection points: 2
#     Edge 14, Type (0, 1), BuildingBlock: KIFKEQ_clean_linker_1, # of connection points: 2
#     Edge 15, Type (0, 1), BuildingBlock: KIFKEQ_clean_linker_1, # of connection points: 2
#     Edge 16, Type (0, 1), BuildingBlock: KIFKEQ_clean_linker_1, # of connection points: 2
#     Edge 17, Type (0, 1), BuildingBlock: KIFKEQ_clean_linker_1, # of connection points: 2
# Relax obj value: 0.042
# Max RMSD: 0.170
# Mean RMSD: 0.086
data_MOF--net-pth--node1-NAHDIM_clean_sbu_0--node2-KOZSID_clean_sbu_0--edge1-KIFKEQ_clean_linker_1
_symmetry_space_group_name_H-M    P1
_symmetry_Int_Tables_number       1
_symmetry_cell_setting            triclinic
loop_
_symmetry_equiv_pos_as_xyz
'x, y, z'
_cell_length_a     27.027178
_cell_length_b     27.172061
_cell_length_c     60.57949
_cell_angle_alpha  89.309517
_cell_angle_beta   87.37508
_cell_angle_gamma 120.65291
loop_
_atom_site_label
_atom_site_type_symbol
_atom_site_fract_x
_atom_site_fract_y
_atom_site_fract_z
_atom_type_partial_charge
C0 C 0.03495 0.97539 0.06639 0.0
O1 O 0.98897 0.98029 0.06735 0.0
O2 O 0.03925 0.10386 0.057 0.0
Zn3 Zn 0.06058 0.06102 0.03518 0.0
O4 O 0.99506 0.00844 0.01686 0.0
C5 C 0.13278 0.16665 0.01091 0.0
O6 O 0.09308 0.17613 0.01948 0.0
O7 O 0.07717 0.00865 0.05304 0.0
C8 C 0.97666 0.02161 0.0002 0.0
O9 O -0.00017 0.0756 0.99372 0.0
C10 C 0.00011 0.11613 0.05505 0.0
O11 O 0.96788 0.09844 0.038 0.0
O12 O 0.1289 0.11875 0.01516 0.0
C13 C 0.04599 0.18079 0.33473 0.0
O14 O 0.99702 0.13327 0.3398 0.0
O15 O 0.0637 0.05436 0.34452 0.0
Zn16 Zn 0.07766 0.12135 0.36295 0.0
O17 O 0.01201 0.1064 0.38452 0.0
C18 C 0.13607 0.09335 0.39173 0.0
O19 O 0.08612 0.04588 0.39057 0.0
O20 O 0.09159 0.18764 0.34285 0.0
C21 C 0.96678 0.0598 0.39087 0.0
O22 O 0.95811 0.01112 0.38328 0.0
C23 C 0.01967 0.0179 0.33488 0.0
O24 O 0.97236 0.02037 0.3362 0.0
O25 O 0.14519 0.13773 0.38075 0.0
C26 C 0.14511 0.05599 0.66337 0.0
O27 O 0.14077 0.10197 0.66361 0.0
O28 O 0.00944 0.04467 0.67672 0.0
Zn29 Zn 0.05895 0.02887 0.69606 0.0
O30 O 0.11167 0.09481 0.71442 0.0
C31 C 0.96417 0.9665 0.7259 0.0
O32 O 0.96322 0.0137 0.72216 0.0
O33 O 0.11145 0.01364 0.67639 0.0
C34 C 0.10323 0.13106 0.72433 0.0
O35 O 0.05372 0.12879 0.72315 0.0
C36 C 0.01501 0.09176 0.66994 0.0
O37 O 0.05933 0.14039 0.67543 0.0
O38 O 0.00399 0.96125 0.71629 0.0
C39 C 0.08276 0.66501 0.16243 0.0
C40 C 0.13524 0.70776 0.15277 0.0
C41 C 0.17706 0.70413 0.1631 0.0
C42 C 0.14794 0.65987 0.17848 0.0
N43 N 0.08993 0.63424 0.17841 0.0
Co44 Co 0.03138 0.5709 0.19913 0.0
N45 N 0.09327 0.56791 0.21513 0.0
C46 C 0.15081 0.60002 0.21045 0.0
C47 C 0.18248 0.58615 0.2234 0.0
C48 C 0.14284 0.54187 0.237 0.0
C49 C 0.089 0.53153 0.23162 0.0
N50 N 0.97293 0.50878 0.22027 0.0
C51 C 0.98024 0.47906 0.23664 0.0
C52 C 0.92816 0.43952 0.24752 0.0
C53 C 0.88626 0.44357 0.23737 0.0
C54 C 0.91504 0.48541 0.22102 0.0
N55 N 0.96949 0.57279 0.18274 0.0
C56 C 0.91183 0.53809 0.18643 0.0
C57 C 0.88031 0.54996 0.17252 0.0
C58 C 0.92015 0.59531 0.1593 0.0
C59 C 0.97385 0.60866 0.16603 0.0
N60 N 0.02833 0.51247 0.17895 0.0
C61 C 0.0226 0.42776 0.1509 0.0
C62 C 0.97343 0.4206 0.16253 0.0
C63 C 0.97715 0.46311 0.17615 0.0
C64 C 0.07494 0.47828 0.15361 0.0
C65 C 0.07686 0.51961 0.16769 0.0
N66 N 0.03392 0.62907 0.21931 0.0
C67 C 0.98414 0.66802 0.24005 0.0
C68 C 0.036 0.71282 0.24693 0.0
C69 C 0.08702 0.71487 0.2398 0.0
C70 C 0.08501 0.67284 0.2261 0.0
C71 C 0.98409 0.62703 0.22648 0.0
H72 H 0.12526 0.67677 0.22112 0.0
H73 H 0.94303 0.59448 0.22184 0.0
H74 H 0.93786 0.45461 0.18434 0.0
H75 H 0.11806 0.55686 0.16922 0.0
C76 C 0.17382 0.64213 0.19348 0.0
C77 C 0.02754 0.65733 0.1567 0.0
C78 C 0.0351 0.48485 0.24179 0.0
C79 C 0.88874 0.4993 0.20466 0.0
H80 H 0.14277 0.7392 0.13992 0.0
H81 H 0.22323 0.73131 0.16009 0.0
H82 H 0.22881 0.60515 0.2227 0.0
H83 H 0.15265 0.51909 0.24915 0.0
H84 H 0.92116 0.40981 0.26104 0.0
H85 H 0.84017 0.41764 0.24094 0.0
H86 H 0.83389 0.52953 0.17255 0.0
H87 H 0.91083 0.61711 0.14653 0.0
H88 H 0.93198 0.38186 0.16148 0.0
H89 H 0.11431 0.48631 0.14481 0.0
H90 H 0.94348 0.66499 0.24473 0.0
H91 H 0.12834 0.74848 0.24485 0.0
C92 C 0.47079 0.02124 0.56497 0.0
C93 C 0.42865 0.96791 0.57388 0.0
C94 C 0.43518 0.92822 0.56268 0.0
C95 C 0.4806 0.95935 0.54762 0.0
N96 N 0.50396 0.01665 0.54863 0.0
Co97 Co 0.57031 0.07764 0.52955 0.0
N98 N 0.57576 0.01881 0.5116 0.0
C99 C 0.54086 0.96127 0.51375 0.0
C100 C 0.55566 0.93179 0.49936 0.0
C101 C 0.60314 0.97282 0.48736 0.0
C102 C 0.6145 0.02533 0.49511 0.0
N103 N 0.63799 0.13855 0.51098 0.0
C104 C 0.67181 0.13364 0.49499 0.0
C105 C 0.71593 0.18682 0.4868 0.0
C106 C 0.71051 0.22681 0.49833 0.0
C107 C 0.66355 0.19593 0.5128 0.0
N108 N 0.56344 0.13638 0.54704 0.0
C109 C 0.59632 0.19401 0.5442 0.0
C110 C 0.57947 0.22311 0.55799 0.0
C111 C 0.53237 0.18163 0.57011 0.0
C112 C 0.52323 0.12946 0.56296 0.0
N113 N 0.62467 0.07729 0.55042 0.0
C114 C 0.7066 0.07864 0.57795 0.0
C115 C 0.70743 0.12899 0.5723 0.0
C116 C 0.66644 0.12734 0.55869 0.0
C117 C 0.66325 0.02732 0.56997 0.0
C118 C 0.62292 0.02759 0.5564 0.0
N119 N 0.51616 0.07843 0.50869 0.0
C120 C 0.48676 0.13135 0.48574 0.0
C121 C 0.43574 0.08132 0.48153 0.0
C122 C 0.42625 0.02952 0.49066 0.0
C123 C 0.46691 0.029 0.50396 0.0
C124 C 0.52593 0.12897 0.49926 0.0
H125 H 0.45728 0.98822 0.51042 0.0
H126 H 0.56332 0.16882 0.5021 0.0
H127 H 0.67012 0.16736 0.55486 0.0
H128 H 0.59109 0.98716 0.5508 0.0
C129 C 0.49835 0.93596 0.53091 0.0
C130 C 0.47495 0.07461 0.57144 0.0
C131 C 0.66457 0.07981 0.48729 0.0
C132 C 0.64235 0.21946 0.52827 0.0
H133 H 0.39539 0.95842 0.58667 0.0
H134 H 0.40852 0.88209 0.56467 0.0
H135 H 0.5357 0.88584 0.49833 0.0
H136 H 0.62752 0.96459 0.47483 0.0
H137 H 0.74894 0.19573 0.47396 0.0
H138 H 0.73787 0.27289 0.49653 0.0
H139 H 0.59864 0.269 0.55889 0.0
H140 H 0.5071 0.18886 0.58262 0.0
H141 H 0.74047 0.16995 0.57788 0.0
H142 H 0.66025 0.987 0.5742 0.0
H143 H 0.49582 0.17256 0.47916 0.0
H144 H 0.38764 0.98948 0.48754 0.0
C145 C 0.6449 0.60682 0.83151 0.0
C146 C 0.68962 0.59794 0.82499 0.0
C147 C 0.68285 0.55309 0.83777 0.0
C148 C 0.63491 0.53745 0.85141 0.0
N149 N 0.60997 0.56899 0.84794 0.0
Co150 Co 0.54228 0.56367 0.86536 0.0
N151 N 0.53404 0.49917 0.88474 0.0
C152 C 0.56675 0.4746 0.88349 0.0
C153 C 0.54998 0.43035 0.89865 0.0
C154 C 0.503 0.42554 0.91007 0.0
C155 C 0.49373 0.46723 0.90107 0.0
N156 N 0.47573 0.55949 0.88325 0.0
C157 C 0.44143 0.52228 0.89997 0.0
C158 C 0.39918 0.53374 0.90753 0.0
C159 C 0.40696 0.57965 0.89512 0.0
C160 C 0.45317 0.59355 0.8807 0.0
N161 N 0.54936 0.62686 0.84549 0.0
C162 C 0.51475 0.64938 0.84602 0.0
C163 C 0.53024 0.69207 0.83022 0.0
C164 C 0.57793 0.69757 0.81906 0.0
C165 C 0.589 0.65799 0.82885 0.0
N166 N 0.48838 0.50676 0.84506 0.0
C167 C 0.41047 0.42595 0.81655 0.0
C168 C 0.40205 0.46894 0.8249 0.0
C169 C 0.44112 0.50847 0.83892 0.0
C170 C 0.45865 0.42398 0.82278 0.0
C171 C 0.49676 0.46449 0.83697 0.0
N172 N 0.59618 0.62097 0.8856 0.0
C173 C 0.635 0.71316 0.90208 0.0
C174 C 0.67643 0.70607 0.91209 0.0
C175 C 0.6764 0.65519 0.90914 0.0
C176 C 0.63643 0.61364 0.89577 0.0
C177 C 0.59525 0.67021 0.88924 0.0
H178 H 0.63945 0.57639 0.89369 0.0
H179 H 0.56456 0.67826 0.88228 0.0
H180 H 0.43172 0.53974 0.84468 0.0
H181 H 0.53258 0.46073 0.84119 0.0
C182 C 0.61306 0.49417 0.86791 0.0
C183 C 0.63911 0.65344 0.8224 0.0
C184 C 0.44519 0.47366 0.90824 0.0
C185 C 0.47185 0.63358 0.86296 0.0
H186 H 0.72439 0.62205 0.81262 0.0
H187 H 0.71034 0.53486 0.8375 0.0
H188 H 0.56929 0.40434 0.90098 0.0
H189 H 0.47799 0.39442 0.92336 0.0
H190 H 0.3651 0.51034 0.92022 0.0
H191 H 0.38049 0.59901 0.89588 0.0
H192 H 0.51043 0.7175 0.82762 0.0
H193 H 0.60266 0.7282 0.80559 0.0
H194 H 0.36481 0.47169 0.82098 0.0
H195 H 0.4673 0.39169 0.81662 0.0
H196 H 0.63304 0.75168 0.90424 0.0
H197 H 0.70801 0.64813 0.91664 0.0
H198 H 0.04213 0.14334 0.09597 0.0
H199 H 0.95337 0.18283 0.04769 0.0
H200 H 0.04571 0.21734 0.11927 0.0
H201 H 0.95927 0.25869 0.07041 0.0
H202 H 0.9351 0.35888 0.12467 0.0
H203 H 0.92562 0.28037 0.103 0.0
H204 H 0.09397 0.31766 0.12097 0.0
H205 H 0.10147 0.39338 0.14409 0.0
C206 C 0.02333 0.16787 0.09036 0.0
C207 C 0.99747 0.15732 0.07002 0.0
C208 C 0.02588 0.21073 0.10361 0.0
C209 C 0.00341 0.24464 0.09666 0.0
C210 C 0.9764 0.23308 0.07648 0.0
C211 C 0.9731 0.18962 0.06339 0.0
C212 C 0.96981 0.34988 0.1243 0.0
C213 C 0.01887 0.38233 0.13636 0.0
C214 C 0.96471 0.30524 0.11156 0.0
C215 C 0.0089 0.29233 0.11023 0.0
C216 C 0.05852 0.32556 0.1219 0.0
C217 C 0.06331 0.36978 0.13489 0.0
H218 H 0.98161 0.14739 0.41652 0.0
H219 H 0.85351 0.97683 0.39903 0.0
H220 H 0.90901 0.1533 0.43986 0.0
H221 H 0.78069 0.98311 0.42237 0.0
H222 H 0.65953 0.05109 0.44418 0.0
H223 H 0.7332 0.04488 0.42121 0.0
H224 H 0.84629 0.10351 0.47521 0.0
H225 H 0.7721 0.10874 0.49819 0.0
C226 C 0.93798 0.11106 0.41772 0.0
C227 C 0.9232 0.06163 0.40591 0.0
C228 C 0.89654 0.11444 0.43115 0.0
C229 C 0.83931 0.06878 0.43282 0.0
C230 C 0.82449 0.01912 0.42118 0.0
C231 C 0.8662 0.01539 0.40797 0.0
C232 C 0.70029 0.06269 0.45099 0.0
C233 C 0.71047 0.08003 0.47285 0.0
C234 C 0.74213 0.05884 0.43798 0.0
C235 C 0.79514 0.07328 0.44653 0.0
C236 C 0.80582 0.09227 0.46822 0.0
C237 C 0.76365 0.09533 0.48132 0.0
H238 H 0.94057 0.85618 0.73237 0.0
H239 H 0.88373 0.97238 0.75251 0.0
H240 H 0.86199 0.77978 0.75587 0.0
H241 H 0.80563 0.89637 0.77573 0.0
H242 H 0.71245 0.76292 0.83296 0.0
H243 H 0.79305 0.83864 0.80997 0.0
H244 H 0.75317 0.72193 0.7568 0.0
H245 H 0.6724 0.64639 0.77994 0.0
C246 C 0.91154 0.86547 0.74185 0.0
C247 C 0.91835 0.92029 0.74058 0.0
C248 C 0.8664 0.8217 0.75517 0.0
C249 C 0.82773 0.83219 0.76761 0.0
C250 C 0.83509 0.88717 0.76651 0.0
C251 C 0.87972 0.93064 0.7531 0.0
C252 C 0.72104 0.75385 0.81632 0.0
C253 C 0.68683 0.69927 0.80811 0.0
C254 C 0.76693 0.79696 0.80318 0.0
C255 C 0.77949 0.78606 0.78163 0.0
C256 C 0.74495 0.73127 0.77344 0.0
C257 C 0.69871 0.6883 0.78654 0.0
H258 H 0.95523 0.90578 0.09861 0.0
H259 H 0.11547 0.94221 0.06488 0.0
H260 H 0.9527 0.8283 0.12009 0.0
H261 H 0.11315 0.86459 0.08671 0.0
H262 H 0.05157 0.67984 0.1123 0.0
H263 H 0.05478 0.75811 0.09041 0.0
H264 H 0.005 0.81448 0.14932 0.0
H265 H 0.00155 0.73596 0.17096 0.0
C266 C 0.99014 0.89748 0.09585 0.0
C267 C 0.03557 0.93016 0.08001 0.0
C268 C 0.98877 0.85318 0.10826 0.0
C269 C 0.03266 0.8403 0.10509 0.0
C270 C 0.07837 0.87315 0.08934 0.0
C271 C 0.07993 0.91783 0.07697 0.0
C272 C 0.04109 0.70901 0.12039 0.0
C273 C 0.02632 0.70242 0.14316 0.0
C274 C 0.04336 0.75392 0.10799 0.0
C275 C 0.03042 0.7926 0.11818 0.0
C276 C 0.01472 0.78511 0.14097 0.0
C277 C 0.01274 0.7404 0.15335 0.0
H278 H 0.2428 0.1842 0.39987 0.0
H279 H 0.13023 0.00249 0.41362 0.0
H280 H 0.31563 0.18257 0.4219 0.0
H281 H 0.20304 0.00059 0.43495 0.0
H282 H 0.31949 0.02596 0.49046 0.0
H283 H 0.24786 0.03133 0.46923 0.0
H284 H 0.38205 0.14732 0.42128 0.0
H285 H 0.45382 0.14255 0.44278 0.0
C286 C 0.23367 0.14397 0.40753 0.0
C287 C 0.18068 0.09356 0.40506 0.0
C288 C 0.27547 0.14294 0.42004 0.0
C289 C 0.2651 0.09145 0.43025 0.0
C290 C 0.21212 0.04117 0.42767 0.0
C291 C 0.17042 0.04224 0.4153 0.0
C292 C 0.33358 0.05218 0.47528 0.0
C293 C 0.39219 0.08357 0.46822 0.0
C294 C 0.29258 0.05534 0.46311 0.0
C295 C 0.30917 0.08966 0.4435 0.0
C296 C 0.36788 0.12116 0.43647 0.0
C297 C 0.40896 0.11824 0.44872 0.0
H298 H 0.10457 0.2206 0.74518 0.0
H299 H 0.20617 0.14096 0.73284 0.0
H300 H 0.18058 0.29224 0.76687 0.0
H301 H 0.282 0.21269 0.75436 0.0
H302 H 0.36978 0.31063 0.81644 0.0
H303 H 0.29651 0.23991 0.79364 0.0
H304 H 0.28187 0.37357 0.76089 0.0
H305 H 0.35569 0.44445 0.78337 0.0
C306 C 0.14308 0.21842 0.74704 0.0
C307 C 0.14924 0.17504 0.73731 0.0
C308 C 0.18672 0.25961 0.75936 0.0
C309 C 0.23719 0.258 0.76231 0.0
C310 C 0.24333 0.21465 0.75257 0.0
C311 C 0.19995 0.17375 0.74015 0.0
C312 C 0.35162 0.32508 0.80415 0.0
C313 C 0.36841 0.38318 0.80183 0.0
C314 C 0.30952 0.28454 0.79114 0.0
C315 C 0.28317 0.3012 0.77561 0.0
C316 C 0.30067 0.35935 0.77301 0.0
C317 C 0.34294 0.3999 0.7859 0.0
H318 H 0.00656 0.18279 0.65505 0.0
H319 H 0.92321 0.99845 0.65364 0.0
H320 H 0.9323 0.17999 0.63261 0.0
H321 H 0.84908 0.99577 0.63157 0.0
H322 H 0.76299 0.01957 0.57238 0.0
H323 H 0.83855 0.02394 0.59425 0.0
H324 H 0.82797 0.14613 0.63617 0.0
H325 H 0.75214 0.14157 0.61437 0.0
C326 C 0.97251 0.14175 0.64996 0.0
C327 C 0.97086 0.09089 0.65612 0.0
C328 C 0.92982 0.14012 0.63723 0.0
C329 C 0.88489 0.08764 0.63031 0.0
C330 C 0.88351 0.03692 0.6364 0.0
C331 C 0.9259 0.0385 0.64917 0.0
C332 C 0.77629 0.04684 0.58642 0.0
C333 C 0.75146 0.08012 0.59166 0.0
C334 C 0.81969 0.04948 0.59891 0.0
C335 C 0.83928 0.08547 0.61691 0.0
C336 C 0.81442 0.11868 0.62218 0.0
C337 C 0.77093 0.11598 0.60972 0.0
H338 H 0.94432 0.90898 0.00102 0.0
H339 H 0.90661 0.03043 0.97118 0.0
H340 H 0.87229 0.83339 0.97975 0.0
H341 H 0.83194 0.95401 0.95065 0.0
H342 H 0.74576 0.81847 0.89968 0.0
H343 H 0.81768 0.89476 0.92104 0.0
H344 H 0.77402 0.77365 0.97602 0.0
H345 H 0.70428 0.69712 0.95403 0.0
C346 C 0.91998 0.91935 0.9901 0.0
C347 C 0.93118 0.97568 0.98773 0.0
C348 C 0.87826 0.87581 0.97798 0.0
C349 C 0.84589 0.88725 0.96345 0.0
C350 C 0.85665 0.94364 0.96134 0.0
C351 C 0.89919 0.98747 0.97321 0.0
C352 C 0.75177 0.80842 0.91635 0.0
C353 C 0.71979 0.75207 0.92523 0.0
C354 C 0.79266 0.85215 0.92868 0.0
C355 C 0.80182 0.84068 0.95036 0.0
C356 C 0.76914 0.7841 0.95927 0.0
C357 C 0.72897 0.74019 0.94675 0.0
H358 H 0.11423 0.00881 0.32516 0.0
H359 H 0.93149 0.92528 0.31612 0.0
H360 H 0.11932 0.93489 0.30459 0.0
H361 H 0.93687 0.85136 0.2954 0.0
H362 H 0.95992 0.6981 0.2814 0.0
H363 H 0.95598 0.77174 0.30265 0.0
H364 H 0.10891 0.9021 0.26583 0.0
H365 H 0.11239 0.82858 0.24421 0.0
C366 C 0.07512 0.97472 0.31877 0.0
C367 C 0.0224 0.97295 0.32227 0.0
C368 C 0.07818 0.93256 0.30689 0.0
C369 C 0.02854 0.88742 0.29839 0.0
C370 C 0.97574 0.88541 0.30195 0.0
C371 C 0.97274 0.92789 0.3137 0.0
C372 C 0.99254 0.74249 0.27771 0.0
C373 C 0.03628 0.75744 0.26098 0.0
C374 C 0.99023 0.78461 0.2899 0.0
C375 C 0.03188 0.84264 0.28579 0.0
C376 C 0.07647 0.85762 0.26947 0.0
C377 C 0.07858 0.81548 0.25715 0.0
H378 H 0.17958 0.97682 0.66327 0.0
H379 H 0.21442 0.13521 0.63119 0.0
H380 H 0.25913 0.9807 0.64075 0.0
H381 H 0.29377 0.13924 0.60901 0.0
H382 H 0.39357 0.09561 0.55739 0.0
H383 H 0.31115 0.08831 0.57908 0.0
H384 H 0.36649 0.04157 0.63749 0.0
H385 H 0.44868 0.04871 0.61557 0.0
C386 C 0.20394 0.01222 0.65136 0.0
C387 C 0.19077 0.05574 0.64905 0.0
C388 C 0.2497 0.01466 0.6386 0.0
C389 C 0.28276 0.06038 0.62317 0.0
C390 C 0.26878 0.1032 0.6206 0.0
C391 C 0.22343 0.10098 0.63341 0.0
C392 C 0.38797 0.08415 0.5749 0.0
C393 C 0.4269 0.07272 0.58496 0.0
C394 C 0.34105 0.07997 0.5873 0.0
C395 C 0.33226 0.06413 0.60997 0.0
C396 C 0.37169 0.05305 0.62 0.0
C397 C 0.41882 0.05756 0.60759 0.0
H398 H 0.212 0.15726 0.98401 0.0
H399 H 0.16106 0.27748 0.00484 0.0
H400 H 0.28856 0.23188 0.95926 0.0
H401 H 0.23702 0.35138 0.98021 0.0
H402 H 0.41897 0.48374 0.95129 0.0
H403 H 0.3448 0.40877 0.97669 0.0
H404 H 0.29485 0.28809 0.92457 0.0
H405 H 0.36889 0.36343 0.89925 0.0
C406 C 0.21726 0.19954 0.98338 0.0
C407 C 0.18044 0.21143 0.99636 0.0
C408 C 0.2608 0.2421 0.96914 0.0
C409 C 0.2687 0.29741 0.96784 0.0
C410 C 0.23234 0.30935 0.98103 0.0
C411 C 0.1886 0.26682 0.99505 0.0
C412 C 0.39161 0.44125 0.94533 0.0
C413 C 0.39876 0.42912 0.9234 0.0
C414 C 0.34938 0.39843 0.95979 0.0
C415 C 0.31413 0.34259 0.95259 0.0
C416 C 0.32177 0.33055 0.93062 0.0
C417 C 0.36362 0.37354 0.91613 0.0
H418 H 0.9596 0.17024 0.31023 0.0
H419 H 0.13312 0.29237 0.32696 0.0
H420 H 0.9573 0.24391 0.28787 0.0
H421 H 0.13074 0.36643 0.30434 0.0
H422 H 0.07221 0.49366 0.28344 0.0
H423 H 0.07712 0.42022 0.30562 0.0
H424 H 0.00442 0.30217 0.25307 0.0
H425 H -0.00019 0.37581 0.23105 0.0
C426 C 0.99741 0.21281 0.30907 0.0
C427 C 0.04655 0.22553 0.3204 0.0
C428 C 0.99612 0.25492 0.29615 0.0
C429 C 0.04378 0.31089 0.29439 0.0
C430 C 0.09318 0.3237 0.30559 0.0
C431 C 0.09469 0.28129 0.31839 0.0
C432 C 0.05732 0.45187 0.27679 0.0
C433 C 0.0358 0.43995 0.25567 0.0
C434 C 0.06046 0.41012 0.28932 0.0
C435 C 0.04143 0.35561 0.28101 0.0
C436 C 0.01906 0.34367 0.25995 0.0
C437 C 0.01639 0.38556 0.24737 0.0
loop_
_geom_bond_atom_site_label_1
_geom_bond_atom_site_label_2
_geom_bond_distance
_geom_bond_site_symmetry_2
_ccdc_geom_bond_type
C0 O1 1.160 . S
C0 O7 1.185 1_565 S
O1 C0 1.160 . S
O2 Zn3 1.899 . S
O2 C10 1.284 . S
Zn3 O2 1.899 . S
Zn3 O4 2.032 . S
Zn3 O7 2.086 . S
Zn3 O12 1.977 . S
O4 Zn3 2.032 . S
O4 C8 1.278 1_455 S
C5 O6 1.203 . S
C5 O12 1.267 . S
O6 C5 1.203 . S
O7 C0 1.185 1_545 S
O7 Zn3 2.086 . S
C8 O4 1.278 1_655 S
C8 O9 1.211 1_654 S
O9 C8 1.211 1_456 S
C10 O2 1.284 . S
C10 O11 1.273 . S
O11 C10 1.273 . S
O12 Zn3 1.977 . S
O12 C5 1.267 . S
C13 O14 1.160 . S
C13 O20 1.185 . S
O14 C13 1.160 . S
O15 Zn16 1.899 . S
O15 C23 1.284 . S
Zn16 O15 1.899 . S
Zn16 O17 2.032 1_455 S
Zn16 O20 2.086 . S
Zn16 O25 1.977 . S
O17 Zn16 2.032 1_655 S
O17 C21 1.278 . S
C18 O19 1.203 . S
C18 O25 1.267 . S
O19 C18 1.203 . S
O20 C13 1.185 . S
O20 Zn16 2.086 . S
C21 O17 1.278 . S
C21 O22 1.211 . S
O22 C21 1.211 . S
C23 O15 1.284 . S
C23 O24 1.273 1_445 S
O24 C23 1.273 1_665 S
O25 Zn16 1.977 . S
O25 C18 1.267 . S
C26 O27 1.160 . S
C26 O33 1.185 1_545 S
O27 C26 1.160 . S
O28 Zn29 1.899 . S
O28 C36 1.284 1_455 S
Zn29 O28 1.899 . S
Zn29 O30 2.032 . S
Zn29 O33 2.086 1_545 S
Zn29 O38 1.977 1_545 S
O30 Zn29 2.032 . S
O30 C34 1.278 . S
C31 O32 1.203 . S
C31 O38 1.267 1_655 S
O32 C31 1.203 . S
O33 C26 1.185 1_565 S
O33 Zn29 2.086 1_565 S
C34 O30 1.278 . S
C34 O35 1.211 . S
O35 C34 1.211 . S
C36 O28 1.284 1_655 S
C36 O37 1.273 1_655 S
O37 C36 1.273 1_455 S
O38 Zn29 1.977 1_565 S
O38 C31 1.267 1_455 S
C39 C40 1.443 . S
C39 N43 1.376 . S
C39 C77 1.389 . S
C40 C39 1.443 . S
C40 C41 1.340 . S
C40 H80 0.951 . S
C41 C40 1.340 . S
C41 C42 1.439 . S
C41 H81 0.950 . S
C42 C41 1.439 . S
C42 N43 1.374 . S
C42 C76 1.395 . S
N43 C39 1.376 . S
N43 C42 1.374 . S
N43 Co44 2.008 . S
Co44 N43 2.008 . S
Co44 N45 1.995 . S
Co44 N50 2.008 1_455 S
Co44 N55 1.995 1_455 S
Co44 N60 2.282 . S
Co44 N66 2.282 . S
N45 Co44 1.995 . S
N45 C46 1.376 . S
N45 C49 1.383 . S
C46 N45 1.376 . S
C46 C47 1.446 . S
C46 C76 1.391 . S
C47 C46 1.446 . S
C47 C48 1.339 . S
C47 H82 0.949 . S
C48 C47 1.339 . S
C48 C49 1.439 . S
C48 H83 0.950 . S
C49 N45 1.383 . S
C49 C48 1.439 . S
C49 C78 1.392 . S
N50 Co44 2.008 1_655 S
N50 C51 1.376 . S
N50 C54 1.374 . S
C51 N50 1.376 . S
C51 C52 1.443 . S
C51 C78 1.389 1_655 S
C52 C51 1.443 . S
C52 C53 1.340 . S
C52 H84 0.951 . S
C53 C52 1.340 . S
C53 C54 1.439 . S
C53 H85 0.950 . S
C54 N50 1.374 . S
C54 C53 1.439 . S
C54 C79 1.395 . S
N55 Co44 1.995 1_655 S
N55 C56 1.376 . S
N55 C59 1.383 . S
C56 N55 1.376 . S
C56 C57 1.446 . S
C56 C79 1.391 . S
C57 C56 1.446 . S
C57 C58 1.339 . S
C57 H86 0.949 . S
C58 C57 1.339 . S
C58 C59 1.439 . S
C58 H87 0.950 . S
C59 N55 1.383 . S
C59 C58 1.439 . S
C59 C77 1.392 1_655 S
N60 Co44 2.282 . S
N60 C63 1.332 1_455 S
N60 C65 1.332 . S
C61 C62 1.386 1_455 S
C61 C64 1.388 . S
C62 C61 1.386 1_655 S
C62 C63 1.382 . S
C62 H88 0.950 . S
C63 N60 1.332 1_655 S
C63 C62 1.382 . S
C63 H74 0.952 . S
C64 C61 1.388 . S
C64 C65 1.382 . S
C64 H89 0.950 . S
C65 N60 1.332 . S
C65 C64 1.382 . S
C65 H75 0.948 . S
N66 Co44 2.282 . S
N66 C70 1.332 . S
N66 C71 1.332 1_455 S
C67 C68 1.388 1_655 S
C67 C71 1.382 . S
C67 H90 0.950 . S
C68 C67 1.388 1_455 S
C68 C69 1.386 . S
C69 C68 1.386 . S
C69 C70 1.382 . S
C69 H91 0.950 . S
C70 N66 1.332 . S
C70 C69 1.382 . S
C70 H72 0.952 . S
C71 N66 1.332 1_655 S
C71 C67 1.382 . S
C71 H73 0.948 . S
H72 C70 0.952 . S
H73 C71 0.948 . S
H74 C63 0.952 . S
H75 C65 0.948 . S
C76 C42 1.395 . S
C76 C46 1.391 . S
C77 C39 1.389 . S
C77 C59 1.392 1_455 S
C78 C49 1.392 . S
C78 C51 1.389 1_455 S
C79 C54 1.395 . S
C79 C56 1.391 . S
H80 C40 0.951 . S
H81 C41 0.950 . S
H82 C47 0.949 . S
H83 C48 0.950 . S
H84 C52 0.951 . S
H85 C53 0.950 . S
H86 C57 0.949 . S
H87 C58 0.950 . S
H88 C62 0.950 . S
H89 C64 0.950 . S
H90 C67 0.950 . S
H91 C69 0.950 . S
C92 C93 1.443 1_545 S
C92 N96 1.376 . S
C92 C130 1.389 . S
C93 C92 1.443 1_565 S
C93 C94 1.340 . S
C93 H133 0.951 . S
C94 C93 1.340 . S
C94 C95 1.439 . S
C94 H134 0.950 . S
C95 C94 1.439 . S
C95 N96 1.374 1_565 S
C95 C129 1.395 . S
N96 C92 1.376 . S
N96 C95 1.374 1_545 S
N96 Co97 2.008 . S
Co97 N96 2.008 . S
Co97 N98 1.995 . S
Co97 N103 2.008 . S
Co97 N108 1.995 . S
Co97 N113 2.282 . S
Co97 N119 2.282 . S
N98 Co97 1.995 . S
N98 C99 1.376 1_545 S
N98 C102 1.383 . S
C99 N98 1.376 1_565 S
C99 C100 1.446 . S
C99 C129 1.391 . S
C100 C99 1.446 . S
C100 C101 1.339 . S
C100 H135 0.949 . S
C101 C100 1.339 . S
C101 C102 1.439 1_565 S
C101 H136 0.950 . S
C102 N98 1.383 . S
C102 C101 1.439 1_545 S
C102 C131 1.392 . S
N103 Co97 2.008 . S
N103 C104 1.376 . S
N103 C107 1.374 . S
C104 N103 1.376 . S
C104 C105 1.443 . S
C104 C131 1.389 . S
C105 C104 1.443 . S
C105 C106 1.340 . S
C105 H137 0.951 . S
C106 C105 1.340 . S
C106 C107 1.439 . S
C106 H138 0.950 . S
C107 N103 1.374 . S
C107 C106 1.439 . S
C107 C132 1.395 . S
N108 Co97 1.995 . S
N108 C109 1.376 . S
N108 C112 1.383 . S
C109 N108 1.376 . S
C109 C110 1.446 . S
C109 C132 1.391 . S
C110 C109 1.446 . S
C110 C111 1.339 . S
C110 H139 0.949 . S
C111 C110 1.339 . S
C111 C112 1.439 . S
C111 H140 0.950 . S
C112 N108 1.383 . S
C112 C111 1.439 . S
C112 C130 1.392 . S
N113 Co97 2.282 . S
N113 C116 1.332 . S
N113 C118 1.332 . S
C114 C115 1.386 . S
C114 C117 1.388 . S
C115 C114 1.386 . S
C115 C116 1.382 . S
C115 H141 0.950 . S
C116 N113 1.332 . S
C116 C115 1.382 . S
C116 H127 0.952 . S
C117 C114 1.388 . S
C117 C118 1.382 . S
C117 H142 0.950 1_545 S
C118 N113 1.332 . S
C118 C117 1.382 . S
C118 H128 0.948 1_545 S
N119 Co97 2.282 . S
N119 C123 1.332 . S
N119 C124 1.332 . S
C120 C121 1.388 . S
C120 C124 1.382 . S
C120 H143 0.950 . S
C121 C120 1.388 . S
C121 C122 1.386 . S
C122 C121 1.386 . S
C122 C123 1.382 . S
C122 H144 0.950 . S
C123 N119 1.332 . S
C123 C122 1.382 . S
C123 H125 0.952 . S
C124 N119 1.332 . S
C124 C120 1.382 . S
C124 H126 0.948 . S
H125 C123 0.952 . S
H126 C124 0.948 . S
H127 C116 0.952 . S
H128 C118 0.948 1_565 S
C129 C95 1.395 . S
C129 C99 1.391 . S
C130 C92 1.389 . S
C130 C112 1.392 . S
C131 C102 1.392 . S
C131 C104 1.389 . S
C132 C107 1.395 . S
C132 C109 1.391 . S
H133 C93 0.951 . S
H134 C94 0.950 . S
H135 C100 0.949 . S
H136 C101 0.950 . S
H137 C105 0.951 . S
H138 C106 0.950 . S
H139 C110 0.949 . S
H140 C111 0.950 . S
H141 C115 0.950 . S
H142 C117 0.950 1_565 S
H143 C120 0.950 . S
H144 C122 0.950 . S
C145 C146 1.443 . S
C145 N149 1.376 . S
C145 C183 1.389 . S
C146 C145 1.443 . S
C146 C147 1.340 . S
C146 H186 0.951 . S
C147 C146 1.340 . S
C147 C148 1.439 . S
C147 H187 0.950 . S
C148 C147 1.439 . S
C148 N149 1.374 . S
C148 C182 1.395 . S
N149 C145 1.376 . S
N149 C148 1.374 . S
N149 Co150 2.008 . S
Co150 N149 2.008 . S
Co150 N151 1.995 . S
Co150 N156 2.008 . S
Co150 N161 1.995 . S
Co150 N166 2.282 . S
Co150 N172 2.282 . S
N151 Co150 1.995 . S
N151 C152 1.376 . S
N151 C155 1.383 . S
C152 N151 1.376 . S
C152 C153 1.446 . S
C152 C182 1.391 . S
C153 C152 1.446 . S
C153 C154 1.339 . S
C153 H188 0.949 . S
C154 C153 1.339 . S
C154 C155 1.439 . S
C154 H189 0.950 . S
C155 N151 1.383 . S
C155 C154 1.439 . S
C155 C184 1.392 . S
N156 Co150 2.008 . S
N156 C157 1.376 . S
N156 C160 1.374 . S
C157 N156 1.376 . S
C157 C158 1.443 . S
C157 C184 1.389 . S
C158 C157 1.443 . S
C158 C159 1.340 . S
C158 H190 0.951 . S
C159 C158 1.340 . S
C159 C160 1.439 . S
C159 H191 0.950 . S
C160 N156 1.374 . S
C160 C159 1.439 . S
C160 C185 1.395 . S
N161 Co150 1.995 . S
N161 C162 1.376 . S
N161 C165 1.383 . S
C162 N161 1.376 . S
C162 C163 1.446 . S
C162 C185 1.391 . S
C163 C162 1.446 . S
C163 C164 1.339 . S
C163 H192 0.949 . S
C164 C163 1.339 . S
C164 C165 1.439 . S
C164 H193 0.950 . S
C165 N161 1.383 . S
C165 C164 1.439 . S
C165 C183 1.392 . S
N166 Co150 2.282 . S
N166 C169 1.332 . S
N166 C171 1.332 . S
C167 C168 1.386 . S
C167 C170 1.388 . S
C168 C167 1.386 . S
C168 C169 1.382 . S
C168 H194 0.950 . S
C169 N166 1.332 . S
C169 C168 1.382 . S
C169 H180 0.952 . S
C170 C167 1.388 . S
C170 C171 1.382 . S
C170 H195 0.950 . S
C171 N166 1.332 . S
C171 C170 1.382 . S
C171 H181 0.948 . S
N172 Co150 2.282 . S
N172 C176 1.332 . S
N172 C177 1.332 . S
C173 C174 1.388 . S
C173 C177 1.382 . S
C173 H196 0.950 . S
C174 C173 1.388 . S
C174 C175 1.386 . S
C175 C174 1.386 . S
C175 C176 1.382 . S
C175 H197 0.950 . S
C176 N172 1.332 . S
C176 C175 1.382 . S
C176 H178 0.952 . S
C177 N172 1.332 . S
C177 C173 1.382 . S
C177 H179 0.948 . S
H178 C176 0.952 . S
H179 C177 0.948 . S
H180 C169 0.952 . S
H181 C171 0.948 . S
C182 C148 1.395 . S
C182 C152 1.391 . S
C183 C145 1.389 . S
C183 C165 1.392 . S
C184 C155 1.392 . S
C184 C157 1.389 . S
C185 C160 1.395 . S
C185 C162 1.391 . S
H186 C146 0.951 . S
H187 C147 0.950 . S
H188 C153 0.949 . S
H189 C154 0.950 . S
H190 C158 0.951 . S
H191 C159 0.950 . S
H192 C163 0.949 . S
H193 C164 0.950 . S
H194 C168 0.950 . S
H195 C170 0.950 . S
H196 C173 0.950 . S
H197 C175 0.950 . S
H198 C206 0.950 . S
H199 C211 0.950 . S
H200 C208 0.950 . S
H201 C210 0.950 . S
H202 C212 0.950 . S
H203 C214 0.950 . S
H204 C216 0.950 . S
H205 C217 0.950 . S
C206 H198 0.950 . S
C206 C207 1.386 . S
C206 C208 1.391 . S
C207 C206 1.386 . S
C207 C211 1.393 1_455 S
C208 H200 0.950 . S
C208 C206 1.391 . S
C208 C209 1.400 . S
C209 C208 1.400 . S
C209 C210 1.398 1_455 S
C209 C215 1.491 . S
C210 H201 0.950 . S
C210 C209 1.398 1_655 S
C210 C211 1.391 . S
C211 H199 0.950 . S
C211 C207 1.393 1_655 S
C211 C210 1.391 . S
C212 H202 0.950 . S
C212 C213 1.386 1_655 S
C212 C214 1.391 . S
C213 C212 1.386 1_455 S
C213 C217 1.393 . S
C214 H203 0.950 . S
C214 C212 1.391 . S
C214 C215 1.400 1_655 S
C215 C209 1.491 . S
C215 C214 1.400 1_455 S
C215 C216 1.398 . S
C216 H204 0.950 . S
C216 C215 1.398 . S
C216 C217 1.391 . S
C217 H205 0.950 . S
C217 C213 1.393 . S
C217 C216 1.391 . S
H218 C226 0.950 . S
H219 C231 0.950 . S
H220 C228 0.950 . S
H221 C230 0.950 . S
H222 C232 0.950 . S
H223 C234 0.950 . S
H224 C236 0.950 . S
H225 C237 0.950 . S
C226 H218 0.950 . S
C226 C227 1.386 . S
C226 C228 1.391 . S
C227 C226 1.386 . S
C227 C231 1.393 . S
C228 H220 0.950 . S
C228 C226 1.391 . S
C228 C229 1.400 . S
C229 C228 1.400 . S
C229 C230 1.398 . S
C229 C235 1.491 . S
C230 H221 0.950 . S
C230 C229 1.398 . S
C230 C231 1.391 . S
C231 H219 0.950 . S
C231 C227 1.393 . S
C231 C230 1.391 . S
C232 H222 0.950 . S
C232 C233 1.386 . S
C232 C234 1.391 . S
C233 C232 1.386 . S
C233 C237 1.393 . S
C234 H223 0.950 . S
C234 C232 1.391 . S
C234 C235 1.400 . S
C235 C229 1.491 . S
C235 C234 1.400 . S
C235 C236 1.398 . S
C236 H224 0.950 . S
C236 C235 1.398 . S
C236 C237 1.391 . S
C237 H225 0.950 . S
C237 C233 1.393 . S
C237 C236 1.391 . S
H238 C246 0.950 . S
H239 C251 0.950 . S
H240 C248 0.950 . S
H241 C250 0.950 . S
H242 C252 0.950 . S
H243 C254 0.950 . S
H244 C256 0.950 . S
H245 C257 0.950 . S
C246 H238 0.950 . S
C246 C247 1.386 . S
C246 C248 1.391 . S
C247 C246 1.386 . S
C247 C251 1.393 . S
C248 H240 0.950 . S
C248 C246 1.391 . S
C248 C249 1.400 . S
C249 C248 1.400 . S
C249 C250 1.398 . S
C249 C255 1.491 . S
C250 H241 0.950 . S
C250 C249 1.398 . S
C250 C251 1.391 . S
C251 H239 0.950 . S
C251 C247 1.393 . S
C251 C250 1.391 . S
C252 H242 0.950 . S
C252 C253 1.386 . S
C252 C254 1.391 . S
C253 C252 1.386 . S
C253 C257 1.393 . S
C254 H243 0.950 . S
C254 C252 1.391 . S
C254 C255 1.400 . S
C255 C249 1.491 . S
C255 C254 1.400 . S
C255 C256 1.398 . S
C256 H244 0.950 . S
C256 C255 1.398 . S
C256 C257 1.391 . S
C257 H245 0.950 . S
C257 C253 1.393 . S
C257 C256 1.391 . S
H258 C266 0.950 . S
H259 C271 0.950 . S
H260 C268 0.950 . S
H261 C270 0.950 . S
H262 C272 0.950 . S
H263 C274 0.950 . S
H264 C276 0.950 . S
H265 C277 0.950 1_655 S
C266 H258 0.950 . S
C266 C267 1.386 . S
C266 C268 1.391 . S
C267 C266 1.386 . S
C267 C271 1.393 . S
C268 H260 0.950 . S
C268 C266 1.391 . S
C268 C269 1.400 . S
C269 C268 1.400 . S
C269 C270 1.398 . S
C269 C275 1.491 . S
C270 H261 0.950 . S
C270 C269 1.398 . S
C270 C271 1.391 . S
C271 H259 0.950 . S
C271 C267 1.393 . S
C271 C270 1.391 . S
C272 H262 0.950 . S
C272 C273 1.386 . S
C272 C274 1.391 . S
C273 C272 1.386 . S
C273 C277 1.393 . S
C274 H263 0.950 . S
C274 C272 1.391 . S
C274 C275 1.400 . S
C275 C269 1.491 . S
C275 C274 1.400 . S
C275 C276 1.398 . S
C276 H264 0.950 . S
C276 C275 1.398 . S
C276 C277 1.391 . S
C277 H265 0.950 1_455 S
C277 C273 1.393 . S
C277 C276 1.391 . S
H278 C286 0.950 . S
H279 C291 0.950 . S
H280 C288 0.950 . S
H281 C290 0.950 . S
H282 C292 0.950 . S
H283 C294 0.950 . S
H284 C296 0.950 . S
H285 C297 0.950 . S
C286 H278 0.950 . S
C286 C287 1.386 . S
C286 C288 1.391 . S
C287 C286 1.386 . S
C287 C291 1.393 . S
C288 H280 0.950 . S
C288 C286 1.391 . S
C288 C289 1.400 . S
C289 C288 1.400 . S
C289 C290 1.398 . S
C289 C295 1.491 . S
C290 H281 0.950 . S
C290 C289 1.398 . S
C290 C291 1.391 . S
C291 H279 0.950 . S
C291 C287 1.393 . S
C291 C290 1.391 . S
C292 H282 0.950 . S
C292 C293 1.386 . S
C292 C294 1.391 . S
C293 C292 1.386 . S
C293 C297 1.393 . S
C294 H283 0.950 . S
C294 C292 1.391 . S
C294 C295 1.400 . S
C295 C289 1.491 . S
C295 C294 1.400 . S
C295 C296 1.398 . S
C296 H284 0.950 . S
C296 C295 1.398 . S
C296 C297 1.391 . S
C297 H285 0.950 . S
C297 C293 1.393 . S
C297 C296 1.391 . S
H298 C306 0.950 . S
H299 C311 0.950 . S
H300 C308 0.950 . S
H301 C310 0.950 . S
H302 C312 0.950 . S
H303 C314 0.950 . S
H304 C316 0.950 . S
H305 C317 0.950 . S
C306 H298 0.950 . S
C306 C307 1.386 . S
C306 C308 1.391 . S
C307 C306 1.386 . S
C307 C311 1.393 . S
C308 H300 0.950 . S
C308 C306 1.391 . S
C308 C309 1.400 . S
C309 C308 1.400 . S
C309 C310 1.398 . S
C309 C315 1.491 . S
C310 H301 0.950 . S
C310 C309 1.398 . S
C310 C311 1.391 . S
C311 H299 0.950 . S
C311 C307 1.393 . S
C311 C310 1.391 . S
C312 H302 0.950 . S
C312 C313 1.386 . S
C312 C314 1.391 . S
C313 C312 1.386 . S
C313 C317 1.393 . S
C314 H303 0.950 . S
C314 C312 1.391 . S
C314 C315 1.400 . S
C315 C309 1.491 . S
C315 C314 1.400 . S
C315 C316 1.398 . S
C316 H304 0.950 . S
C316 C315 1.398 . S
C316 C317 1.391 . S
C317 H305 0.950 . S
C317 C313 1.393 . S
C317 C316 1.391 . S
H318 C326 0.950 . S
H319 C331 0.950 . S
H320 C328 0.950 . S
H321 C330 0.950 . S
H322 C332 0.950 . S
H323 C334 0.950 . S
H324 C336 0.950 . S
H325 C337 0.950 . S
C326 H318 0.950 . S
C326 C327 1.386 . S
C326 C328 1.391 . S
C327 C326 1.386 . S
C327 C331 1.393 . S
C328 H320 0.950 . S
C328 C326 1.391 . S
C328 C329 1.400 . S
C329 C328 1.400 . S
C329 C330 1.398 . S
C329 C335 1.491 . S
C330 H321 0.950 . S
C330 C329 1.398 . S
C330 C331 1.391 . S
C331 H319 0.950 . S
C331 C327 1.393 . S
C331 C330 1.391 . S
C332 H322 0.950 . S
C332 C333 1.386 . S
C332 C334 1.391 . S
C333 C332 1.386 . S
C333 C337 1.393 . S
C334 H323 0.950 . S
C334 C332 1.391 . S
C334 C335 1.400 . S
C335 C329 1.491 . S
C335 C334 1.400 . S
C335 C336 1.398 . S
C336 H324 0.950 . S
C336 C335 1.398 . S
C336 C337 1.391 . S
C337 H325 0.950 . S
C337 C333 1.393 . S
C337 C336 1.391 . S
H338 C346 0.950 1_554 S
H339 C351 0.950 1_545 S
H340 C348 0.950 . S
H341 C350 0.950 . S
H342 C352 0.950 . S
H343 C354 0.950 . S
H344 C356 0.950 . S
H345 C357 0.950 . S
C346 H338 0.950 1_556 S
C346 C347 1.386 . S
C346 C348 1.391 . S
C347 C346 1.386 . S
C347 C351 1.393 . S
C348 H340 0.950 . S
C348 C346 1.391 . S
C348 C349 1.400 . S
C349 C348 1.400 . S
C349 C350 1.398 . S
C349 C355 1.491 . S
C350 H341 0.950 . S
C350 C349 1.398 . S
C350 C351 1.391 . S
C351 H339 0.950 1_565 S
C351 C347 1.393 . S
C351 C350 1.391 . S
C352 H342 0.950 . S
C352 C353 1.386 . S
C352 C354 1.391 . S
C353 C352 1.386 . S
C353 C357 1.393 . S
C354 H343 0.950 . S
C354 C352 1.391 . S
C354 C355 1.400 . S
C355 C349 1.491 . S
C355 C354 1.400 . S
C355 C356 1.398 . S
C356 H344 0.950 . S
C356 C355 1.398 . S
C356 C357 1.391 . S
C357 H345 0.950 . S
C357 C353 1.393 . S
C357 C356 1.391 . S
H358 C366 0.950 1_545 S
H359 C371 0.950 . S
H360 C368 0.950 . S
H361 C370 0.950 . S
H362 C372 0.950 . S
H363 C374 0.950 . S
H364 C376 0.950 . S
H365 C377 0.950 . S
C366 H358 0.950 1_565 S
C366 C367 1.386 . S
C366 C368 1.391 . S
C367 C366 1.386 . S
C367 C371 1.393 1_455 S
C368 H360 0.950 . S
C368 C366 1.391 . S
C368 C369 1.400 . S
C369 C368 1.400 . S
C369 C370 1.398 1_455 S
C369 C375 1.491 . S
C370 H361 0.950 . S
C370 C369 1.398 1_655 S
C370 C371 1.391 . S
C371 H359 0.950 . S
C371 C367 1.393 1_655 S
C371 C370 1.391 . S
C372 H362 0.950 . S
C372 C373 1.386 1_655 S
C372 C374 1.391 . S
C373 C372 1.386 1_455 S
C373 C377 1.393 . S
C374 H363 0.950 . S
C374 C372 1.391 . S
C374 C375 1.400 1_655 S
C375 C369 1.491 . S
C375 C374 1.400 1_455 S
C375 C376 1.398 . S
C376 H364 0.950 . S
C376 C375 1.398 . S
C376 C377 1.391 . S
C377 H365 0.950 . S
C377 C373 1.393 . S
C377 C376 1.391 . S
H378 C386 0.950 . S
H379 C391 0.950 . S
H380 C388 0.950 . S
H381 C390 0.950 . S
H382 C392 0.950 . S
H383 C394 0.950 . S
H384 C396 0.950 1_565 S
H385 C397 0.950 . S
C386 H378 0.950 . S
C386 C387 1.386 1_565 S
C386 C388 1.391 . S
C387 C386 1.386 1_545 S
C387 C391 1.393 . S
C388 H380 0.950 . S
C388 C386 1.391 . S
C388 C389 1.400 1_565 S
C389 C388 1.400 1_545 S
C389 C390 1.398 . S
C389 C395 1.491 . S
C390 H381 0.950 . S
C390 C389 1.398 . S
C390 C391 1.391 . S
C391 H379 0.950 . S
C391 C387 1.393 . S
C391 C390 1.391 . S
C392 H382 0.950 . S
C392 C393 1.386 . S
C392 C394 1.391 . S
C393 C392 1.386 . S
C393 C397 1.393 . S
C394 H383 0.950 . S
C394 C392 1.391 . S
C394 C395 1.400 . S
C395 C389 1.491 . S
C395 C394 1.400 . S
C395 C396 1.398 . S
C396 H384 0.950 1_545 S
C396 C395 1.398 . S
C396 C397 1.391 . S
C397 H385 0.950 . S
C397 C393 1.393 . S
C397 C396 1.391 . S
H398 C406 0.950 . S
H399 C411 0.950 . S
H400 C408 0.950 . S
H401 C410 0.950 . S
H402 C412 0.950 . S
H403 C414 0.950 . S
H404 C416 0.950 . S
H405 C417 0.950 . S
C406 H398 0.950 . S
C406 C407 1.386 . S
C406 C408 1.391 . S
C407 C406 1.386 . S
C407 C411 1.393 . S
C408 H400 0.950 . S
C408 C406 1.391 . S
C408 C409 1.400 . S
C409 C408 1.400 . S
C409 C410 1.398 . S
C409 C415 1.491 . S
C410 H401 0.950 . S
C410 C409 1.398 . S
C410 C411 1.391 . S
C411 H399 0.950 . S
C411 C407 1.393 . S
C411 C410 1.391 . S
C412 H402 0.950 . S
C412 C413 1.386 . S
C412 C414 1.391 . S
C413 C412 1.386 . S
C413 C417 1.393 . S
C414 H403 0.950 . S
C414 C412 1.391 . S
C414 C415 1.400 . S
C415 C409 1.491 . S
C415 C414 1.400 . S
C415 C416 1.398 . S
C416 H404 0.950 . S
C416 C415 1.398 . S
C416 C417 1.391 . S
C417 H405 0.950 . S
C417 C413 1.393 . S
C417 C416 1.391 . S
H418 C426 0.950 . S
H419 C431 0.950 . S
H420 C428 0.950 1_655 S
H421 C430 0.950 . S
H422 C432 0.950 . S
H423 C434 0.950 . S
H424 C436 0.950 1_655 S
H425 C437 0.950 . S
C426 H418 0.950 . S
C426 C427 1.386 . S
C426 C428 1.391 . S
C427 C426 1.386 . S
C427 C431 1.393 . S
C428 H420 0.950 1_455 S
C428 C426 1.391 . S
C428 C429 1.400 . S
C429 C428 1.400 . S
C429 C430 1.398 . S
C429 C435 1.491 . S
C430 H421 0.950 . S
C430 C429 1.398 . S
C430 C431 1.391 . S
C431 H419 0.950 . S
C431 C427 1.393 . S
C431 C430 1.391 . S
C432 H422 0.950 . S
C432 C433 1.386 . S
C432 C434 1.391 . S
C433 C432 1.386 . S
C433 C437 1.393 1_455 S
C434 H423 0.950 . S
C434 C432 1.391 . S
C434 C435 1.400 . S
C435 C429 1.491 . S
C435 C434 1.400 . S
C435 C436 1.398 . S
C436 H424 0.950 1_455 S
C436 C435 1.398 . S
C436 C437 1.391 1_455 S
C437 H425 0.950 . S
C437 C433 1.393 1_655 S
C437 C436 1.391 1_655 S
C213 C61 1.420 . S
C207 C10 1.415 . S
C227 C21 1.435 . S
C233 C131 1.463 . S
C247 C31 1.382 . S
C253 C183 1.448 . S
C267 C0 1.390 . S
C273 C77 1.435 . S
C293 C121 1.443 . S
C287 C18 1.394 . S
C307 C34 1.394 . S
C313 C167 1.428 . S
C333 C114 1.400 . S
C327 C36 1.399 . S
C347 C8 1.413 1_566 S
C353 C174 1.432 . S
C373 C68 1.421 . S
C367 C23 1.417 1_565 S
C393 C130 1.383 . S
C387 C26 1.332 . S
C413 C184 1.450 . S
C407 C5 1.377 1_556 S
C427 C13 1.394 . S
C433 C78 1.438 . S
