# Generated by pormake.
# Topology gar, (4,6)-cn, num edge types: 1
# Building blocks:
#     Node 0, Type 0, BuildingBlock: KUFVIS_clean_sbu_0, # of connection points: 4
#     Node 1, Type 0, BuildingBlock: KUFVIS_clean_sbu_0, # of connection points: 4
#     Node 2, Type 0, BuildingBlock: KUFVIS_clean_sbu_0, # of connection points: 4
#     Node 3, Type 0, BuildingBlock: KUFVIS_clean_sbu_0, # of connection points: 4
#     Node 4, Type 0, BuildingBlock: KUFVIS_clean_sbu_0, # of connection points: 4
#     Node 5, Type 0, BuildingBlock: KUFVIS_clean_sbu_0, # of connection points: 4
#     Node 6, Type 0, BuildingBlock: KUFVIS_clean_sbu_0, # of connection points: 4
#     Node 7, Type 0, BuildingBlock: KUFVIS_clean_sbu_0, # of connection points: 4
#     Node 8, Type 0, BuildingBlock: KUFVIS_clean_sbu_0, # of connection points: 4
#     Node 9, Type 0, BuildingBlock: KUFVIS_clean_sbu_0, # of connection points: 4
#     Node 10, Type 0, BuildingBlock: KUFVIS_clean_sbu_0, # of connection points: 4
#     Node 11, Type 0, BuildingBlock: KUFVIS_clean_sbu_0, # of connection points: 4
#     Node 12, Type 0, BuildingBlock: KUFVIS_clean_sbu_0, # of connection points: 4
#     Node 13, Type 0, BuildingBlock: KUFVIS_clean_sbu_0, # of connection points: 4
#     Node 14, Type 0, BuildingBlock: KUFVIS_clean_sbu_0, # of connection points: 4
#     Node 15, Type 0, BuildingBlock: KUFVIS_clean_sbu_0, # of connection points: 4
#     Node 16, Type 0, BuildingBlock: KUFVIS_clean_sbu_0, # of connection points: 4
#     Node 17, Type 0, BuildingBlock: KUFVIS_clean_sbu_0, # of connection points: 4
#     Node 18, Type 0, BuildingBlock: KUFVIS_clean_sbu_0, # of connection points: 4
#     Node 19, Type 0, BuildingBlock: KUFVIS_clean_sbu_0, # of connection points: 4
#     Node 20, Type 0, BuildingBlock: KUFVIS_clean_sbu_0, # of connection points: 4
#     Node 21, Type 0, BuildingBlock: KUFVIS_clean_sbu_0, # of connection points: 4
#     Node 22, Type 0, BuildingBlock: KUFVIS_clean_sbu_0, # of connection points: 4
#     Node 23, Type 0, BuildingBlock: KUFVIS_clean_sbu_0, # of connection points: 4
#     Node 24, Type 1, BuildingBlock: KUMBOL_clean_sbu_1, # of connection points: 6
#     Node 25, Type 1, BuildingBlock: KUMBOL_clean_sbu_1, # of connection points: 6
#     Node 26, Type 1, BuildingBlock: KUMBOL_clean_sbu_1, # of connection points: 6
#     Node 27, Type 1, BuildingBlock: KUMBOL_clean_sbu_1, # of connection points: 6
#     Node 28, Type 1, BuildingBlock: KUMBOL_clean_sbu_1, # of connection points: 6
#     Node 29, Type 1, BuildingBlock: KUMBOL_clean_sbu_1, # of connection points: 6
#     Node 30, Type 1, BuildingBlock: KUMBOL_clean_sbu_1, # of connection points: 6
#     Node 31, Type 1, BuildingBlock: KUMBOL_clean_sbu_1, # of connection points: 6
#     Node 32, Type 1, BuildingBlock: KUMBOL_clean_sbu_1, # of connection points: 6
#     Node 33, Type 1, BuildingBlock: KUMBOL_clean_sbu_1, # of connection points: 6
#     Node 34, Type 1, BuildingBlock: KUMBOL_clean_sbu_1, # of connection points: 6
#     Node 35, Type 1, BuildingBlock: KUMBOL_clean_sbu_1, # of connection points: 6
#     Node 36, Type 1, BuildingBlock: KUMBOL_clean_sbu_1, # of connection points: 6
#     Node 37, Type 1, BuildingBlock: KUMBOL_clean_sbu_1, # of connection points: 6
#     Node 38, Type 1, BuildingBlock: KUMBOL_clean_sbu_1, # of connection points: 6
#     Node 39, Type 1, BuildingBlock: KUMBOL_clean_sbu_1, # of connection points: 6
#     Edge 40, Type (0, 1), BuildingBlock: MIFKUJ_clean_linker_0, # of connection points: 2
#     Edge 41, Type (0, 1), BuildingBlock: MIFKUJ_clean_linker_0, # of connection points: 2
#     Edge 42, Type (0, 1), BuildingBlock: MIFKUJ_clean_linker_0, # of connection points: 2
#     Edge 43, Type (0, 1), BuildingBlock: MIFKUJ_clean_linker_0, # of connection points: 2
#     Edge 44, Type (0, 1), BuildingBlock: MIFKUJ_clean_linker_0, # of connection points: 2
#     Edge 45, Type (0, 1), BuildingBlock: MIFKUJ_clean_linker_0, # of connection points: 2
#     Edge 46, Type (0, 1), BuildingBlock: MIFKUJ_clean_linker_0, # of connection points: 2
#     Edge 47, Type (0, 1), BuildingBlock: MIFKUJ_clean_linker_0, # of connection points: 2
#     Edge 48, Type (0, 1), BuildingBlock: MIFKUJ_clean_linker_0, # of connection points: 2
#     Edge 49, Type (0, 1), BuildingBlock: MIFKUJ_clean_linker_0, # of connection points: 2
#     Edge 50, Type (0, 1), BuildingBlock: MIFKUJ_clean_linker_0, # of connection points: 2
#     Edge 51, Type (0, 1), BuildingBlock: MIFKUJ_clean_linker_0, # of connection points: 2
#     Edge 52, Type (0, 1), BuildingBlock: MIFKUJ_clean_linker_0, # of connection points: 2
#     Edge 53, Type (0, 1), BuildingBlock: MIFKUJ_clean_linker_0, # of connection points: 2
#     Edge 54, Type (0, 1), BuildingBlock: MIFKUJ_clean_linker_0, # of connection points: 2
#     Edge 55, Type (0, 1), BuildingBlock: MIFKUJ_clean_linker_0, # of connection points: 2
#     Edge 56, Type (0, 1), BuildingBlock: MIFKUJ_clean_linker_0, # of connection points: 2
#     Edge 57, Type (0, 1), BuildingBlock: MIFKUJ_clean_linker_0, # of connection points: 2
#     Edge 58, Type (0, 1), BuildingBlock: MIFKUJ_clean_linker_0, # of connection points: 2
#     Edge 59, Type (0, 1), BuildingBlock: MIFKUJ_clean_linker_0, # of connection points: 2
#     Edge 60, Type (0, 1), BuildingBlock: MIFKUJ_clean_linker_0, # of connection points: 2
#     Edge 61, Type (0, 1), BuildingBlock: MIFKUJ_clean_linker_0, # of connection points: 2
#     Edge 62, Type (0, 1), BuildingBlock: MIFKUJ_clean_linker_0, # of connection points: 2
#     Edge 63, Type (0, 1), BuildingBlock: MIFKUJ_clean_linker_0, # of connection points: 2
#     Edge 64, Type (0, 1), BuildingBlock: MIFKUJ_clean_linker_0, # of connection points: 2
#     Edge 65, Type (0, 1), BuildingBlock: MIFKUJ_clean_linker_0, # of connection points: 2
#     Edge 66, Type (0, 1), BuildingBlock: MIFKUJ_clean_linker_0, # of connection points: 2
#     Edge 67, Type (0, 1), BuildingBlock: MIFKUJ_clean_linker_0, # of connection points: 2
#     Edge 68, Type (0, 1), BuildingBlock: MIFKUJ_clean_linker_0, # of connection points: 2
#     Edge 69, Type (0, 1), BuildingBlock: MIFKUJ_clean_linker_0, # of connection points: 2
#     Edge 70, Type (0, 1), BuildingBlock: MIFKUJ_clean_linker_0, # of connection points: 2
#     Edge 71, Type (0, 1), BuildingBlock: MIFKUJ_clean_linker_0, # of connection points: 2
#     Edge 72, Type (0, 1), BuildingBlock: MIFKUJ_clean_linker_0, # of connection points: 2
#     Edge 73, Type (0, 1), BuildingBlock: MIFKUJ_clean_linker_0, # of connection points: 2
#     Edge 74, Type (0, 1), BuildingBlock: MIFKUJ_clean_linker_0, # of connection points: 2
#     Edge 75, Type (0, 1), BuildingBlock: MIFKUJ_clean_linker_0, # of connection points: 2
#     Edge 76, Type (0, 1), BuildingBlock: MIFKUJ_clean_linker_0, # of connection points: 2
#     Edge 77, Type (0, 1), BuildingBlock: MIFKUJ_clean_linker_0, # of connection points: 2
#     Edge 78, Type (0, 1), BuildingBlock: MIFKUJ_clean_linker_0, # of connection points: 2
#     Edge 79, Type (0, 1), BuildingBlock: MIFKUJ_clean_linker_0, # of connection points: 2
#     Edge 80, Type (0, 1), BuildingBlock: MIFKUJ_clean_linker_0, # of connection points: 2
#     Edge 81, Type (0, 1), BuildingBlock: MIFKUJ_clean_linker_0, # of connection points: 2
#     Edge 82, Type (0, 1), BuildingBlock: MIFKUJ_clean_linker_0, # of connection points: 2
#     Edge 83, Type (0, 1), BuildingBlock: MIFKUJ_clean_linker_0, # of connection points: 2
#     Edge 84, Type (0, 1), BuildingBlock: MIFKUJ_clean_linker_0, # of connection points: 2
#     Edge 85, Type (0, 1), BuildingBlock: MIFKUJ_clean_linker_0, # of connection points: 2
#     Edge 86, Type (0, 1), BuildingBlock: MIFKUJ_clean_linker_0, # of connection points: 2
#     Edge 87, Type (0, 1), BuildingBlock: MIFKUJ_clean_linker_0, # of connection points: 2
#     Edge 88, Type (0, 1), BuildingBlock: MIFKUJ_clean_linker_0, # of connection points: 2
#     Edge 89, Type (0, 1), BuildingBlock: MIFKUJ_clean_linker_0, # of connection points: 2
#     Edge 90, Type (0, 1), BuildingBlock: MIFKUJ_clean_linker_0, # of connection points: 2
#     Edge 91, Type (0, 1), BuildingBlock: MIFKUJ_clean_linker_0, # of connection points: 2
#     Edge 92, Type (0, 1), BuildingBlock: MIFKUJ_clean_linker_0, # of connection points: 2
#     Edge 93, Type (0, 1), BuildingBlock: MIFKUJ_clean_linker_0, # of connection points: 2
#     Edge 94, Type (0, 1), BuildingBlock: MIFKUJ_clean_linker_0, # of connection points: 2
#     Edge 95, Type (0, 1), BuildingBlock: MIFKUJ_clean_linker_0, # of connection points: 2
#     Edge 96, Type (0, 1), BuildingBlock: MIFKUJ_clean_linker_0, # of connection points: 2
#     Edge 97, Type (0, 1), BuildingBlock: MIFKUJ_clean_linker_0, # of connection points: 2
#     Edge 98, Type (0, 1), BuildingBlock: MIFKUJ_clean_linker_0, # of connection points: 2
#     Edge 99, Type (0, 1), BuildingBlock: MIFKUJ_clean_linker_0, # of connection points: 2
#     Edge 100, Type (0, 1), BuildingBlock: MIFKUJ_clean_linker_0, # of connection points: 2
#     Edge 101, Type (0, 1), BuildingBlock: MIFKUJ_clean_linker_0, # of connection points: 2
#     Edge 102, Type (0, 1), BuildingBlock: MIFKUJ_clean_linker_0, # of connection points: 2
#     Edge 103, Type (0, 1), BuildingBlock: MIFKUJ_clean_linker_0, # of connection points: 2
#     Edge 104, Type (0, 1), BuildingBlock: MIFKUJ_clean_linker_0, # of connection points: 2
#     Edge 105, Type (0, 1), BuildingBlock: MIFKUJ_clean_linker_0, # of connection points: 2
#     Edge 106, Type (0, 1), BuildingBlock: MIFKUJ_clean_linker_0, # of connection points: 2
#     Edge 107, Type (0, 1), BuildingBlock: MIFKUJ_clean_linker_0, # of connection points: 2
#     Edge 108, Type (0, 1), BuildingBlock: MIFKUJ_clean_linker_0, # of connection points: 2
#     Edge 109, Type (0, 1), BuildingBlock: MIFKUJ_clean_linker_0, # of connection points: 2
#     Edge 110, Type (0, 1), BuildingBlock: MIFKUJ_clean_linker_0, # of connection points: 2
#     Edge 111, Type (0, 1), BuildingBlock: MIFKUJ_clean_linker_0, # of connection points: 2
#     Edge 112, Type (0, 1), BuildingBlock: MIFKUJ_clean_linker_0, # of connection points: 2
#     Edge 113, Type (0, 1), BuildingBlock: MIFKUJ_clean_linker_0, # of connection points: 2
#     Edge 114, Type (0, 1), BuildingBlock: MIFKUJ_clean_linker_0, # of connection points: 2
#     Edge 115, Type (0, 1), BuildingBlock: MIFKUJ_clean_linker_0, # of connection points: 2
#     Edge 116, Type (0, 1), BuildingBlock: MIFKUJ_clean_linker_0, # of connection points: 2
#     Edge 117, Type (0, 1), BuildingBlock: MIFKUJ_clean_linker_0, # of connection points: 2
#     Edge 118, Type (0, 1), BuildingBlock: MIFKUJ_clean_linker_0, # of connection points: 2
#     Edge 119, Type (0, 1), BuildingBlock: MIFKUJ_clean_linker_0, # of connection points: 2
#     Edge 120, Type (0, 1), BuildingBlock: MIFKUJ_clean_linker_0, # of connection points: 2
#     Edge 121, Type (0, 1), BuildingBlock: MIFKUJ_clean_linker_0, # of connection points: 2
#     Edge 122, Type (0, 1), BuildingBlock: MIFKUJ_clean_linker_0, # of connection points: 2
#     Edge 123, Type (0, 1), BuildingBlock: MIFKUJ_clean_linker_0, # of connection points: 2
#     Edge 124, Type (0, 1), BuildingBlock: MIFKUJ_clean_linker_0, # of connection points: 2
#     Edge 125, Type (0, 1), BuildingBlock: MIFKUJ_clean_linker_0, # of connection points: 2
#     Edge 126, Type (0, 1), BuildingBlock: MIFKUJ_clean_linker_0, # of connection points: 2
#     Edge 127, Type (0, 1), BuildingBlock: MIFKUJ_clean_linker_0, # of connection points: 2
#     Edge 128, Type (0, 1), BuildingBlock: MIFKUJ_clean_linker_0, # of connection points: 2
#     Edge 129, Type (0, 1), BuildingBlock: MIFKUJ_clean_linker_0, # of connection points: 2
#     Edge 130, Type (0, 1), BuildingBlock: MIFKUJ_clean_linker_0, # of connection points: 2
#     Edge 131, Type (0, 1), BuildingBlock: MIFKUJ_clean_linker_0, # of connection points: 2
#     Edge 132, Type (0, 1), BuildingBlock: MIFKUJ_clean_linker_0, # of connection points: 2
#     Edge 133, Type (0, 1), BuildingBlock: MIFKUJ_clean_linker_0, # of connection points: 2
#     Edge 134, Type (0, 1), BuildingBlock: MIFKUJ_clean_linker_0, # of connection points: 2
#     Edge 135, Type (0, 1), BuildingBlock: MIFKUJ_clean_linker_0, # of connection points: 2
# Relax obj value: 0.054
# Max RMSD: 0.176
# Mean RMSD: 0.104
data_MOF--net-gar--node1-KUFVIS_clean_sbu_0--node2-KUMBOL_clean_sbu_1--edge1-MIFKUJ_clean_linker_0
_symmetry_space_group_name_H-M    P1
_symmetry_Int_Tables_number       1
_symmetry_cell_setting            triclinic
loop_
_symmetry_equiv_pos_as_xyz
'x, y, z'
_cell_length_a     75.273774
_cell_length_b     75.555066
_cell_length_c     72.814623
_cell_angle_alpha  95.498414
_cell_angle_beta   95.620476
_cell_angle_gamma 100.58775
loop_
_atom_site_label
_atom_site_type_symbol
_atom_site_fract_x
_atom_site_fract_y
_atom_site_fract_z
_atom_type_partial_charge
Mn0 Mn 0.04198 0.30271 0.37268 0.0
Mn1 Mn 0.04089 0.33025 0.33892 0.0
C2 C 0.01351 0.30629 0.35822 0.0
C3 C 0.04349 0.27493 0.3846 0.0
C4 C 0.04785 0.34455 0.37995 0.0
O5 O 0.0681 0.30519 0.36459 0.0
O6 O 0.06573 0.32357 0.34236 0.0
C7 C 0.0444 0.30398 0.3072 0.0
N8 N 0.03504 0.31581 0.31532 0.0
C9 C 0.01191 0.30999 0.28904 0.0
C10 C 0.02139 0.29786 0.28034 0.0
C11 C 0.03768 0.29483 0.28948 0.0
C12 C 0.01933 0.31881 0.30665 0.0
H13 H 0.05688 0.30151 0.31419 0.0
C14 C 0.07483 0.31395 0.35179 0.0
O15 O 0.04888 0.29045 0.39459 0.0
O16 O 0.03774 0.27541 0.36725 0.0
N17 N 0.01813 0.33764 0.33355 0.0
C18 C 0.01019 0.3491 0.34419 0.0
C19 C 0.99351 0.35315 0.33726 0.0
C20 C 0.98525 0.34553 0.31943 0.0
C21 C 0.9938 0.33399 0.30864 0.0
C22 C 0.01046 0.3305 0.31624 0.0
H23 H 0.01641 0.35497 0.35793 0.0
O24 O 0.01523 0.30102 0.37463 0.0
O25 O 0.02866 0.30923 0.35049 0.0
O26 O 0.04691 0.32901 0.38567 0.0
O27 O 0.04634 0.3467 0.36272 0.0
C28 C 0.98622 0.32546 0.29082 0.0
C29 C 0.99526 0.31346 0.28103 0.0
H30 H 0.0162 0.2907 0.26672 0.0
H31 H 0.04503 0.28542 0.2829 0.0
H32 H 0.98699 0.36205 0.3457 0.0
H33 H 0.97228 0.34853 0.31422 0.0
H34 H 0.97332 0.32784 0.28462 0.0
H35 H 0.98919 0.30682 0.26743 0.0
Mn36 Mn 0.02444 0.75278 0.68416 0.0
Mn37 Mn 0.03532 0.78573 0.72046 0.0
C38 C 0.05514 0.76173 0.69796 0.0
C39 C 0.01662 0.72254 0.66933 0.0
C40 C 0.02832 0.79368 0.68073 0.0
O41 O 0.99894 0.7537 0.69348 0.0
O42 O 1.00838 0.77584 0.71724 0.0
C43 C 0.02678 0.76335 0.7508 0.0
N44 N 0.0389 0.77518 0.74299 0.0
C45 C 0.06219 0.77626 0.7684 0.0
C46 C 0.04993 0.76415 0.77677 0.0
C47 C 0.03216 0.75765 0.76792 0.0
C48 C 0.05601 0.78156 0.75141 0.0
H49 H 0.01313 0.7583 0.74401 0.0
C50 C 0.9956 0.76435 0.70713 0.0
O51 O 0.01346 0.73625 0.66105 0.0
O52 O 0.02282 0.72612 0.68687 0.0
N53 N 0.0606 0.79657 0.72533 0.0
C54 C 0.07104 0.80728 0.71483 0.0
C55 C 0.08938 0.81437 0.72137 0.0
C56 C 0.09675 0.81052 0.73868 0.0
C57 C 0.08568 0.79963 0.74931 0.0
C58 C 0.06747 0.79299 0.7421 0.0
H59 H 0.06546 0.81022 0.70148 0.0
O60 O 0.05096 0.75428 0.68093 0.0
O61 O 0.0411 0.76399 0.70661 0.0
O62 O 0.02489 0.77717 0.6736 0.0
O63 O 0.03233 0.79841 0.69815 0.0
C64 C 0.09212 0.79468 0.76653 0.0
C65 C 0.08038 0.78301 0.77607 0.0
H66 H 0.05406 0.75964 0.78993 0.0
H67 H 0.02264 0.74826 0.77427 0.0
H68 H 0.09784 0.82271 0.71305 0.0
H69 H 0.11096 0.81586 0.74359 0.0
H70 H 0.10616 0.79955 0.77242 0.0
H71 H 0.08556 0.77913 0.78919 0.0
Mn72 Mn 0.54129 0.80347 0.87228 0.0
Mn73 Mn 0.53902 0.829 0.83695 0.0
C74 C 0.51233 0.80611 0.85788 0.0
C75 C 0.54297 0.77628 0.88525 0.0
C76 C 0.54722 0.84531 0.87763 0.0
O77 O 0.56743 0.80604 0.86403 0.0
O78 O 0.56365 0.82171 0.83969 0.0
C79 C 0.5406 0.80113 0.80595 0.0
N80 N 0.53206 0.81381 0.81387 0.0
C81 C 0.5084 0.80809 0.78808 0.0
C82 C 0.5171 0.79519 0.77952 0.0
C83 C 0.53324 0.79166 0.78853 0.0
C84 C 0.51646 0.81724 0.80537 0.0
H85 H 0.55287 0.7982 0.8129 0.0
C86 C 0.57338 0.81325 0.84995 0.0
O87 O 0.5484 0.79207 0.89475 0.0
O88 O 0.53733 0.77615 0.86777 0.0
N89 N 0.51631 0.83666 0.83214 0.0
C90 C 0.50867 0.84818 0.84304 0.0
C91 C 0.49199 0.85244 0.83647 0.0
C92 C 0.48336 0.8449 0.81874 0.0
C93 C 0.49148 0.83312 0.80776 0.0
C94 C 0.50819 0.82944 0.81499 0.0
H95 H 0.51508 0.85387 0.85676 0.0
O96 O 0.51454 0.80164 0.87457 0.0
O97 O 0.52729 0.80881 0.84982 0.0
O98 O 0.54626 0.83013 0.88416 0.0
O99 O 0.54557 0.84643 0.86014 0.0
C100 C 0.48334 0.82439 0.79018 0.0
C101 C 0.49179 0.81188 0.78036 0.0
H102 H 0.51139 0.78774 0.76615 0.0
H103 H 0.53993 0.78158 0.7821 0.0
H104 H 0.48573 0.86142 0.8451 0.0
H105 H 0.47037 0.84804 0.81382 0.0
H106 H 0.4704 0.82693 0.78426 0.0
H107 H 0.48524 0.80502 0.767 0.0
Mn108 Mn 0.52301 0.25189 0.18761 0.0
Mn109 Mn 0.49029 0.2462 0.15111 0.0
C110 C 0.5122 0.22302 0.17011 0.0
C111 C 0.55507 0.25765 0.19923 0.0
C112 C 0.48252 0.25394 0.19128 0.0
O113 O 0.52411 0.27778 0.18004 0.0
O114 O 0.50471 0.27128 0.15329 0.0
C115 C 0.51065 0.24976 0.11849 0.0
N116 N 0.49861 0.23961 0.12796 0.0
C117 C 0.4896 0.21667 0.10177 0.0
C118 C 0.50179 0.22695 0.09167 0.0
C119 C 0.51256 0.24343 0.10016 0.0
C120 C 0.48857 0.22348 0.12009 0.0
H121 H 0.51843 0.26273 0.12475 0.0
C122 C 0.51652 0.28223 0.16498 0.0
O123 O 0.54264 0.26012 0.20986 0.0
O124 O 0.54898 0.25239 0.18195 0.0
N125 N 0.47598 0.22218 0.14792 0.0
C126 C 0.46532 0.21367 0.1598 0.0
C127 C 0.45475 0.19635 0.15396 0.0
C128 C 0.455 0.18812 0.13589 0.0
C129 C 0.46609 0.19716 0.12396 0.0
C130 C 0.47675 0.21415 0.13074 0.0
H131 H 0.46488 0.22001 0.17362 0.0
O132 O 0.51968 0.22438 0.18717 0.0
O133 O 0.51067 0.23839 0.16438 0.0
O134 O 0.49831 0.25294 0.1993 0.0
O135 O 0.47924 0.25256 0.17366 0.0
C136 C 0.46668 0.19018 0.10546 0.0
C137 C 0.47804 0.20019 0.09425 0.0
H138 H 0.50291 0.22241 0.07735 0.0
H139 H 0.52199 0.25144 0.09245 0.0
H140 H 0.44626 0.18946 0.1633 0.0
H141 H 0.4466 0.17488 0.13132 0.0
H142 H 0.45819 0.17732 0.0996 0.0
H143 H 0.47752 0.19517 0.0798 0.0
Mn144 Mn 0.06153 0.79099 0.12156 0.0
Mn145 Mn 0.02992 0.78141 0.08382 0.0
C146 C 0.05208 0.76063 0.10737 0.0
C147 C 0.09176 0.79824 0.13681 0.0
C148 C 0.02045 0.78857 0.12311 0.0
O149 O 0.06109 0.81667 0.11278 0.0
O150 O 0.04133 0.80773 0.08685 0.0
C151 C 0.0549 0.78771 0.05516 0.0
N152 N 0.04175 0.77652 0.06241 0.0
C153 C 0.04076 0.75257 0.03784 0.0
C154 C 0.05425 0.76386 0.03005 0.0
C155 C 0.06143 0.78146 0.03882 0.0
C156 C 0.03511 0.75939 0.05437 0.0
H157 H 0.06036 0.80129 0.0618 0.0
C158 C 0.05206 0.82019 0.09802 0.0
O159 O 0.07791 0.80117 0.14505 0.0
O160 O 0.08834 0.79259 0.11916 0.0
N161 N 0.01736 0.75675 0.07876 0.0
C162 C 1.00308 0.74831 0.08693 0.0
C163 C 0.99406 0.73072 0.07962 0.0
C164 C 0.99941 0.72221 0.06366 0.0
C165 C 0.01348 0.73153 0.05493 0.0
C166 C 0.02204 0.749 0.0629 0.0
H167 H 0.99866 0.75488 0.099 0.0
O168 O 0.05967 0.76437 0.12438 0.0
O169 O 0.05046 0.77485 0.09893 0.0
O170 O 0.03668 0.79057 0.13107 0.0
O171 O 0.01648 0.78569 0.10547 0.0
C172 C 0.0189 0.72441 0.03826 0.0
C173 C 0.03249 0.73494 0.0297 0.0
H174 H 0.05916 0.75916 0.01732 0.0
H175 H 0.07187 0.79024 0.03292 0.0
H176 H 0.98295 0.72379 0.08623 0.0
H177 H 0.99238 0.70867 0.05801 0.0
H178 H 0.01253 0.71095 0.03175 0.0
H179 H 0.03629 0.72941 0.01671 0.0
Mn180 Mn 0.50347 0.76436 0.43713 0.0
Mn181 Mn 0.50362 0.78984 0.40102 0.0
C182 C 0.47561 0.76718 0.42026 0.0
C183 C 0.50547 0.73539 0.44845 0.0
C184 C 0.51144 0.80661 0.44163 0.0
O185 O 0.52997 0.76756 0.43046 0.0
O186 O 0.5266 0.78066 0.40406 0.0
C187 C 0.5032 0.76172 0.36963 0.0
N188 N 0.49612 0.77548 0.37759 0.0
C189 C 0.47617 0.77553 0.34972 0.0
C190 C 0.48345 0.76154 0.34109 0.0
C191 C 0.49689 0.75446 0.35116 0.0
C192 C 0.48283 0.78202 0.36822 0.0
H193 H 0.51352 0.75636 0.37735 0.0
C194 C 0.53586 0.77329 0.41572 0.0
O195 O 0.50977 0.7507 0.45913 0.0
O196 O 0.50001 0.73684 0.43131 0.0
N197 N 0.4822 0.79963 0.39607 0.0
C198 C 0.47531 0.8117 0.40705 0.0
C199 C 0.46091 0.81925 0.3995 0.0
C200 C 0.4541 0.81468 0.38063 0.0
C201 C 0.46149 0.80228 0.3696 0.0
C202 C 0.47551 0.7949 0.378 0.0
H203 H 0.48081 0.81561 0.42143 0.0
O204 O 0.47605 0.76207 0.43682 0.0
O205 O 0.49132 0.77029 0.41403 0.0
O206 O 0.50796 0.79176 0.44913 0.0
O207 O 0.51133 0.80667 0.42409 0.0
C208 C 0.45545 0.79687 0.3506 0.0
C209 C 0.46254 0.78328 0.34075 0.0
H210 H 0.47871 0.75601 0.3268 0.0
H211 H 0.50246 0.74354 0.34467 0.0
H212 H 0.45526 0.82877 0.40812 0.0
H213 H 0.44311 0.82065 0.37481 0.0
H214 H 0.44511 0.80286 0.34352 0.0
H215 H 0.45735 0.77883 0.32632 0.0
Mn216 Mn 0.56199 0.29048 0.62019 0.0
Mn217 Mn 0.52918 0.2808 0.58353 0.0
C218 C 0.55212 0.26023 0.60618 0.0
C219 C 0.59256 0.2975 0.63447 0.0
C220 C 0.52078 0.28748 0.62312 0.0
O221 O 0.56177 0.31605 0.61119 0.0
O222 O 0.53937 0.30753 0.58733 0.0
C223 C 0.55329 0.28927 0.55453 0.0
N224 N 0.54086 0.27722 0.56173 0.0
C225 C 0.54235 0.25349 0.53775 0.0
C226 C 0.55508 0.26568 0.52999 0.0
C227 C 0.56058 0.28364 0.53843 0.0
C228 C 0.53556 0.25988 0.55379 0.0
H229 H 0.55766 0.30305 0.56106 0.0
C230 C 0.55116 0.3198 0.59771 0.0
O231 O 0.57912 0.3006 0.64328 0.0
O232 O 0.58853 0.29157 0.61694 0.0
N233 N 0.51788 0.25577 0.57807 0.0
C234 C 0.50486 0.246 0.58683 0.0
C235 C 0.49755 0.22785 0.57989 0.0
C236 C 0.5036 0.22001 0.56396 0.0
C237 C 0.51663 0.23051 0.5549 0.0
C238 C 0.52321 0.24859 0.5623 0.0
H239 H 0.50019 0.25194 0.59909 0.0
O240 O 0.55985 0.2639 0.62314 0.0
O241 O 0.55036 0.27446 0.59778 0.0
O242 O 0.53734 0.29047 0.63047 0.0
O243 O 0.51611 0.28375 0.60562 0.0
C244 C 0.5233 0.22376 0.53879 0.0
C245 C 0.5362 0.23523 0.53025 0.0
H246 H 0.56076 0.26139 0.5176 0.0
H247 H 0.57045 0.29311 0.53257 0.0
H248 H 0.4874 0.2199 0.58689 0.0
H249 H 0.49808 0.20596 0.55877 0.0
H250 H 0.5186 0.20978 0.53284 0.0
H251 H 0.54125 0.22988 0.51788 0.0
Mn252 Mn 1.00361 0.26574 0.93645 0.0
Mn253 Mn 1.00024 0.29054 0.9 0.0
C254 C 0.97471 0.26657 0.92013 0.0
C255 C 1.00728 0.23718 0.948 0.0
C256 C 1.0078 0.30807 0.94031 0.0
O257 O 0.02981 0.26995 0.9288 0.0
O258 O 0.02443 0.28427 0.90372 0.0
C259 C 1.0031 0.26262 0.8695 0.0
N260 N 0.99456 0.27557 0.87678 0.0
C261 C 0.97587 0.27464 0.84785 0.0
C262 C 0.98466 0.26149 0.83988 0.0
C263 C 0.99816 0.25526 0.85083 0.0
C264 C 0.98107 0.28109 0.86661 0.0
H265 H 0.01362 0.25802 0.87786 0.0
C266 C 0.03479 0.27693 0.91428 0.0
O267 O 0.01111 0.2526 0.95851 0.0
O268 O 1.00141 0.23833 0.93091 0.0
N269 N 0.97752 0.29768 0.89412 0.0
C270 C 0.96876 0.30839 0.90465 0.0
C271 C 0.95405 0.31491 0.89621 0.0
C272 C 0.94884 0.31072 0.87697 0.0
C273 C 0.95801 0.29953 0.86648 0.0
C274 C 0.97216 0.293 0.87578 0.0
H275 H 0.97293 0.31181 0.91936 0.0
O276 O 0.97608 0.26207 0.93692 0.0
O277 O 0.99007 0.27045 0.91341 0.0
O278 O 1.00731 0.29337 0.94816 0.0
O279 O 1.00583 0.30783 0.9227 0.0
C280 C 0.95361 0.29445 0.8472 0.0
C281 C 0.96221 0.28167 0.83797 0.0
H282 H 0.98105 0.25599 0.82542 0.0
H283 H 1.00489 0.24501 0.84483 0.0
H284 H 0.94692 0.32337 0.90444 0.0
H285 H 0.93762 0.31594 0.87046 0.0
H286 H 0.94314 0.29978 0.83949 0.0
H287 H 0.95815 0.27729 0.82331 0.0
Mn288 Mn 0.39405 0.02145 0.29338 0.0
Mn289 Mn 0.35936 0.00995 0.31849 0.0
C290 C 0.38135 0.9918 0.29298 0.0
C291 C 0.40506 0.03087 0.26697 0.0
C292 C 0.39852 0.02261 0.33477 0.0
O293 O 0.38576 0.0448 0.29996 0.0
O294 O 0.3596 0.03468 0.31176 0.0
C295 C 0.32764 0.00855 0.29061 0.0
N296 N 0.33706 1.00029 0.30302 0.0
C297 C 0.31423 0.97293 0.29721 0.0
C298 C 0.30421 0.98118 0.28444 0.0
C299 C 0.31098 0.99904 0.2811 0.0
C300 C 0.3307 0.9831 0.30634 0.0
H301 H 0.33283 0.02226 0.28799 0.0
C302 C 0.37097 0.04714 0.30606 0.0
O303 O 0.41516 0.03409 0.28287 0.0
O304 O 0.38819 0.02281 0.26653 0.0
N305 N 0.35783 0.98607 0.32568 0.0
C306 C 0.36977 0.97969 0.3374 0.0
C307 C 0.3654 0.9618 0.3417 0.0
C308 C 0.34876 0.9507 0.33401 0.0
C309 C 0.33665 0.95759 0.32203 0.0
C310 C 0.34169 0.97557 0.31837 0.0
H311 H 0.38255 0.98816 0.34344 0.0
O312 O 0.39749 0.99625 0.28794 0.0
O313 O 0.37295 1.00482 0.29757 0.0
O314 O 0.40538 0.02226 0.31959 0.0
O315 O 0.38149 0.01947 0.33599 0.0
C316 C 0.31995 0.94722 0.31331 0.0
C317 C 0.30875 0.95487 0.3009 0.0
H318 H 0.29141 0.97385 0.27699 0.0
H319 H 0.30337 1.00546 0.27119 0.0
H320 H 0.37482 0.95659 0.35095 0.0
H321 H 0.34546 0.93689 0.33731 0.0
H322 H 0.31572 0.93325 0.31582 0.0
H323 H 0.29609 0.94667 0.29403 0.0
Mn324 Mn 0.26646 0.17795 0.51551 0.0
Mn325 Mn 0.25666 0.14116 0.48327 0.0
C326 C 0.23613 0.16367 0.50569 0.0
C327 C 0.27247 0.19021 0.54718 0.0
C328 C 0.26877 0.17957 0.47358 0.0
O329 O 0.29091 0.16931 0.51575 0.0
O330 O 0.28161 0.14386 0.49579 0.0
C331 C 0.25699 0.11333 0.50921 0.0
N332 N 0.24817 0.12031 0.49523 0.0
C333 C 0.22144 0.09705 0.4942 0.0
C334 C 0.23027 0.08954 0.50852 0.0
C335 C 0.24811 0.09775 0.51608 0.0
C336 C 0.23093 0.11267 0.48803 0.0
H337 H 0.27066 0.11964 0.51513 0.0
C338 C 0.29371 0.15458 0.50728 0.0
O339 O 0.27738 0.19983 0.53401 0.0
O340 O 0.26483 0.17344 0.54201 0.0
N341 N 0.23276 0.13662 0.47 0.0
C342 C 0.22635 0.14531 0.45595 0.0
C343 C 0.20892 0.13847 0.44643 0.0
C344 C 0.19835 0.12265 0.4513 0.0
C345 C 0.20539 0.11371 0.46552 0.0
C346 C 0.22293 0.12106 0.47436 0.0
H347 H 0.23447 0.15735 0.45199 0.0
O348 O 0.24004 0.18033 0.5134 0.0
O349 O 0.25006 0.15614 0.50385 0.0
O350 O 0.26972 0.18773 0.49005 0.0
O351 O 0.26471 0.1623 0.46993 0.0
C352 C 0.19562 0.09792 0.47141 0.0
C353 C 0.20358 0.08969 0.48586 0.0
H354 H 0.22348 0.07751 0.51383 0.0
H355 H 0.255 0.09207 0.52717 0.0
H356 H 0.20365 0.14537 0.43538 0.0
H357 H 0.18485 0.11751 0.44405 0.0
H358 H 0.18193 0.09208 0.46503 0.0
H359 H 0.19587 0.07766 0.49039 0.0
Mn360 Mn 0.13519 0.04475 0.78495 0.0
Mn361 Mn 0.17085 0.0533 0.81868 0.0
C362 C 0.15078 0.07462 0.79436 0.0
C363 C 0.123 0.03867 0.75316 0.0
C364 C 0.1316 0.04156 0.8262 0.0
O365 O 0.14318 0.01998 0.78556 0.0
O366 O 0.16892 0.02883 0.80561 0.0
C367 C 0.20206 0.05365 0.79683 0.0
N368 N 0.1934 0.06204 0.80964 0.0
C369 C 0.21826 0.08767 0.81576 0.0
C370 C 0.22749 0.07927 0.80269 0.0
C371 C 0.21931 0.06223 0.79312 0.0
C372 C 0.20108 0.0785 0.81882 0.0
H373 H 0.19579 0.04057 0.78945 0.0
C374 C 0.15801 0.01701 0.79397 0.0
O375 O 0.11318 0.03456 0.76641 0.0
O376 O 0.14006 0.04553 0.75832 0.0
N377 N 0.17402 0.07687 0.83207 0.0
C378 C 0.16268 0.08367 0.84312 0.0
C379 C 0.16858 0.10079 0.85337 0.0
C380 C 0.18608 0.11066 0.85222 0.0
C381 C 0.19738 0.10353 0.84048 0.0
C382 C 0.19079 0.08636 0.83068 0.0
H383 H 0.14933 0.07602 0.84428 0.0
O384 O 0.13406 0.07137 0.78655 0.0
O385 O 0.15752 0.06033 0.79694 0.0
O386 O 0.12407 0.04223 0.80982 0.0
O387 O 0.14881 0.04457 0.83031 0.0
C388 C 0.21492 0.11273 0.83816 0.0
C389 C 0.22528 0.1049 0.82566 0.0
H390 H 0.24079 0.08586 0.79977 0.0
H391 H 0.22631 0.05571 0.78294 0.0
H392 H 0.15976 0.10627 0.86233 0.0
H393 H 0.19072 0.12362 0.86051 0.0
H394 H 0.22055 0.12587 0.84584 0.0
H395 H 0.2386 0.11227 0.82372 0.0
Mn396 Mn 0.29951 0.92661 0.0085 0.0
Mn397 Mn 0.30137 0.95747 0.97815 0.0
C398 C 0.32721 0.94131 1.00211 0.0
C399 C 0.29593 0.91854 0.03765 0.0
C400 C 0.29123 0.91705 0.9673 0.0
O401 O 0.27409 0.93168 0.0054 0.0
O402 O 0.2784 0.95586 0.98925 0.0
C403 C 0.30354 0.99105 1.00348 0.0
N404 N 0.31038 0.98148 0.98999 0.0
C405 C 0.33297 0.00744 0.98635 0.0
C406 C 0.32609 0.01768 1.00008 0.0
C407 C 0.31144 0.00938 0.00884 0.0
C408 C 0.32483 0.98915 0.98194 0.0
H409 H 0.29216 0.98472 0.01004 0.0
C410 C 0.26874 0.94476 0.99823 0.0
O411 O 0.29141 0.90673 0.02303 0.0
O412 O 0.30259 0.93523 0.0354 0.0
N413 N 0.32316 0.96039 0.96645 0.0
C414 C 0.32913 0.94821 0.95471 0.0
C415 C 0.34427 0.95407 0.94546 0.0
C416 C 0.35276 0.97246 0.948 0.0
C417 C 0.34631 0.9847 0.96016 0.0
C418 C 0.33154 0.97798 0.96939 0.0
H419 H 0.32231 0.93418 0.95229 0.0
O420 O 0.32587 0.9262 0.00949 0.0
O421 O 0.31242 0.94768 0.99941 0.0
O422 O 0.29502 0.91247 0.98325 0.0
O423 O 0.29207 0.93343 0.96404 0.0
C424 C 0.35372 1.00336 0.96324 0.0
C425 C 0.34739 0.01468 0.97665 0.0
H426 H 0.33198 0.03189 1.00405 0.0
H427 H 0.30611 0.01715 0.01953 0.0
H428 H 0.34916 0.94452 0.93613 0.0
H429 H 0.36425 0.97702 0.94061 0.0
H430 H 0.36406 0.00913 0.95512 0.0
H431 H 0.35356 0.02895 0.97921 0.0
Mn432 Mn 0.29971 0.38175 0.03744 0.0
Mn433 Mn 0.30706 0.41706 0.01174 0.0
C434 C 0.3293 0.39668 0.03492 0.0
C435 C 0.29402 0.37091 0.06638 0.0
C436 C 0.29695 0.37769 0.9945 0.0
O437 O 0.27458 0.38895 0.03393 0.0
O438 O 0.28235 0.41349 0.01903 0.0
C439 C 0.30563 0.44634 0.0413 0.0
N440 N 0.31458 0.43914 0.02796 0.0
C441 C 0.3389 0.46526 0.03298 0.0
C442 C 0.32994 0.47299 0.04676 0.0
C443 C 0.3133 0.46343 0.05102 0.0
C444 C 0.33082 0.448 0.02409 0.0
H445 H 0.29273 0.43911 0.04444 0.0
C446 C 0.27085 0.40276 0.02657 0.0
O447 O 0.28994 0.36041 0.05075 0.0
O448 O 0.30108 0.38769 0.06516 0.0
N449 N 0.33051 0.4225 1.00332 0.0
C450 C 0.33702 0.41346 0.98913 0.0
C451 C 0.35341 0.42131 0.98291 0.0
C452 C 0.36268 0.43859 0.99095 0.0
C453 C 0.3554 0.4479 0.00506 0.0
C454 C 0.3391 0.43933 0.0108 0.0
H455 H 0.32975 0.40038 0.98256 0.0
O456 O 0.32638 0.38055 0.04014 0.0
O457 O 0.31502 0.4037 0.03173 0.0
O458 O 0.29672 0.37036 0.00971 0.0
O459 O 0.2999 0.39485 0.99407 0.0
C460 C 0.36352 0.46549 0.01343 0.0
C461 C 0.35541 0.47406 0.02757 0.0
H462 H 0.3357 0.48627 0.05411 0.0
H463 H 0.3063 0.4693 0.06163 0.0
H464 H 0.35881 0.41412 0.97185 0.0
H465 H 0.37529 0.44463 0.98608 0.0
H466 H 0.3761 0.47248 0.00923 0.0
H467 H 0.36194 0.48748 0.03409 0.0
Mn468 Mn 0.7711 0.1415 0.04444 0.0
Mn469 Mn 0.76661 0.10463 0.01301 0.0
C470 C 0.74283 0.12658 0.03164 0.0
C471 C 0.77491 0.15555 0.07419 0.0
C472 C 0.77681 0.14273 1.00369 0.0
O473 O 0.79573 0.13498 0.04823 0.0
O474 O 0.7913 0.11053 0.02674 0.0
C475 C 0.76933 0.07773 0.03962 0.0
N476 N 0.76015 0.08332 0.0249 0.0
C477 C 0.73677 0.05646 0.02159 0.0
C478 C 0.74605 0.05032 0.03662 0.0
C479 C 0.76236 0.06105 0.04572 0.0
C480 C 0.74441 0.07317 0.01612 0.0
H481 H 0.7819 0.08592 0.0466 0.0
C482 C 0.80106 0.12199 0.03951 0.0
O483 O 0.77998 0.16431 0.06052 0.0
O484 O 0.7676 0.13842 0.0706 0.0
N485 N 0.74341 0.09721 0.99857 0.0
C486 C 0.7356 0.10568 0.98515 0.0
C487 C 0.71909 0.09692 0.97484 0.0
C488 C 0.71094 0.07952 0.97836 0.0
C489 C 0.71909 0.07116 0.99239 0.0
C490 C 0.73566 0.08044 1.00201 0.0
H491 H 0.74194 0.119 0.98231 0.0
O492 O 0.74535 0.14334 0.03893 0.0
O493 O 0.75688 0.11875 0.03243 0.0
O494 O 0.77667 0.15042 0.01994 0.0
O495 O 0.77294 0.12562 0.99934 0.0
C496 C 0.71131 0.05412 0.99735 0.0
C497 C 0.72011 0.04681 0.01201 0.0
H498 H 0.74069 0.03748 0.04139 0.0
H499 H 0.76957 0.05643 0.05736 0.0
H500 H 0.71274 0.10346 0.9641 0.0
H501 H 0.69853 0.07262 0.97014 0.0
H502 H 0.69842 0.04667 0.99018 0.0
H503 H 0.71386 0.03383 0.0159 0.0
Mn504 Mn 0.17543 0.54246 0.25504 0.0
Mn505 Mn 0.21271 0.55418 0.28654 0.0
C506 C 0.18729 0.57223 0.26453 0.0
C507 C 0.16246 0.5354 0.22478 0.0
C508 C 0.17502 0.54024 0.29642 0.0
O509 O 0.18536 0.51965 0.25454 0.0
O510 O 0.21071 0.52893 0.27492 0.0
C511 C 0.24104 0.5537 0.26113 0.0
N512 N 0.23361 0.56266 0.27461 0.0
C513 C 0.2575 0.58898 0.27649 0.0
C514 C 0.26548 0.57998 0.26271 0.0
C515 C 0.25717 0.56229 0.25495 0.0
C516 C 0.24145 0.57971 0.28211 0.0
H517 H 0.2347 0.54009 0.25516 0.0
C518 C 0.19993 0.51701 0.26325 0.0
O519 O 0.15358 0.53 0.2383 0.0
O520 O 0.17903 0.54437 0.22885 0.0
N521 N 0.21643 0.57839 0.29864 0.0
C522 C 0.20596 0.58581 0.31027 0.0
C523 C 0.21202 0.6036 0.31891 0.0
C524 C 0.22874 0.61359 0.31542 0.0
C525 C 0.23908 0.60585 0.30301 0.0
C526 C 0.23241 0.58799 0.29498 0.0
H527 H 0.19292 0.57834 0.31262 0.0
O528 O 0.17039 0.56736 0.25741 0.0
O529 O 0.19674 0.55956 0.26584 0.0
O530 O 0.16671 0.53821 0.28006 0.0
O531 O 0.1921 0.54613 0.30038 0.0
C532 C 0.25551 0.61528 0.29798 0.0
C533 C 0.26466 0.60687 0.28466 0.0
H534 H 0.27789 0.58658 0.25787 0.0
H535 H 0.26321 0.55529 0.24426 0.0
H536 H 0.20378 0.60963 0.32814 0.0
H537 H 0.23328 0.62731 0.32209 0.0
H538 H 0.26105 0.6291 0.30401 0.0
H539 H 0.2771 0.61437 0.28064 0.0
Mn540 Mn 0.79794 0.88215 0.53913 0.0
Mn541 Mn 0.79942 0.91597 0.51178 0.0
C542 C 0.82622 0.89872 0.53383 0.0
C543 C 0.79477 0.87154 0.5686 0.0
C544 C 0.79013 0.87602 0.49675 0.0
O545 O 0.77182 0.88737 0.53699 0.0
O546 O 0.77687 0.91338 0.52375 0.0
C547 C 0.80266 0.94753 0.54024 0.0
N548 N 0.80878 0.93926 0.52536 0.0
C549 C 0.83163 0.96568 0.52368 0.0
C550 C 0.82537 0.97462 0.5388 0.0
C551 C 0.81091 0.96544 0.54722 0.0
C552 C 0.82294 0.94779 0.51745 0.0
H553 H 0.79167 0.94045 0.54676 0.0
C554 C 0.76692 0.90167 0.53182 0.0
O555 O 0.79058 0.86081 0.55316 0.0
O556 O 0.80069 0.88852 0.56698 0.0
N557 N 0.82067 0.92022 0.49929 0.0
C558 C 0.82589 0.90921 0.48575 0.0
C559 C 0.84007 0.91627 0.47581 0.0
C560 C 0.84862 0.93454 0.47988 0.0
C561 C 0.84357 0.94542 0.49435 0.0
C562 C 0.8291 0.93775 0.5035 0.0
H563 H 0.81902 0.8953 0.48219 0.0
O564 O 0.82499 0.883 0.53995 0.0
O565 O 0.81102 0.90448 0.53156 0.0
O566 O 0.79407 0.86979 0.51203 0.0
O567 O 0.78984 0.89275 0.49577 0.0
C568 C 0.85215 0.96362 0.4999 0.0
C569 C 0.84632 0.97368 0.51471 0.0
H570 H 0.83169 0.98843 0.5442 0.0
H571 H 0.80612 0.97216 0.55902 0.0
H572 H 0.84407 0.9078 0.46473 0.0
H573 H 0.8587 0.94019 0.47151 0.0
H574 H 0.86339 0.96992 0.49304 0.0
H575 H 0.85326 0.98753 0.51913 0.0
Mn576 Mn 0.9282 0.01383 0.26284 0.0
Mn577 Mn 0.89318 0.01101 0.28898 0.0
C578 C 0.91204 0.98524 0.26825 0.0
C579 C 0.93933 0.01674 0.23356 0.0
C580 C 0.93296 0.02088 0.30559 0.0
O581 O 0.92205 0.03947 0.26377 0.0
O582 O 0.89691 0.03405 0.27829 0.0
C583 C 0.86338 0.00922 0.25865 0.0
N584 N 0.87037 1.00271 0.27398 0.0
C585 C 0.84275 0.98096 0.27415 0.0
C586 C 0.83502 0.98773 0.25864 0.0
C587 C 0.84546 1.00179 0.25072 0.0
C588 C 0.8607 0.9888 0.28129 0.0
H589 H 0.87147 0.01988 0.25247 0.0
C590 C 0.90794 0.04417 0.2697 0.0
O591 O 0.9498 0.02172 0.24915 0.0
O592 O 0.92241 0.01009 0.23494 0.0
N593 N 0.88747 0.98941 0.30046 0.0
C594 C 0.89757 0.98342 0.31424 0.0
C595 C 0.88922 0.96963 0.32389 0.0
C596 C 0.87066 0.9622 0.31918 0.0
C597 C 0.86078 0.96785 0.3043 0.0
C598 C 0.86969 0.98197 0.29556 0.0
H599 H 0.91174 0.9894 0.31814 0.0
O600 O 0.9282 0.98698 0.26297 0.0
O601 O 0.9057 1.00008 0.26983 0.0
O602 O 0.94002 0.01898 0.29039 0.0
O603 O 0.91583 0.01924 0.30606 0.0
C604 C 0.84243 0.96019 0.29793 0.0
C605 C 0.83349 0.96658 0.28268 0.0
H606 H 0.8212 0.98206 0.25253 0.0
H607 H 0.83971 1.0069 0.23857 0.0
H608 H 0.89693 0.96507 0.33523 0.0
H609 H 0.86402 0.95251 0.32735 0.0
H610 H 0.83517 0.9492 0.30445 0.0
H611 H 0.81953 0.96031 0.2776 0.0
Mn612 Mn 0.27543 0.63967 0.54538 0.0
Mn613 Mn 0.26209 0.60215 0.51456 0.0
C614 C 0.2453 0.62736 0.5379 0.0
C615 C 0.28414 0.65392 0.57496 0.0
C616 C 0.27415 0.63941 0.50351 0.0
O617 O 0.29844 0.62993 0.54489 0.0
O618 O 0.28822 0.6054 0.52386 0.0
C619 C 0.2668 0.57469 0.54007 0.0
N620 N 0.2561 0.58133 0.52732 0.0
C621 C 0.23175 0.55563 0.52652 0.0
C622 C 0.2425 0.54847 0.53961 0.0
C623 C 0.26006 0.5581 0.54651 0.0
C624 C 0.2391 0.57231 0.5208 0.0
H625 H 0.28038 0.58193 0.54521 0.0
C626 C 0.30074 0.61578 0.53523 0.0
O627 O 0.28838 0.66206 0.56062 0.0
O628 O 0.27538 0.63723 0.57208 0.0
N629 N 0.23697 0.59704 0.50457 0.0
C630 C 0.22775 0.60665 0.49344 0.0
C631 C 0.20971 0.59926 0.48591 0.0
C632 C 0.20146 0.58196 0.48968 0.0
C633 C 0.2112 0.57238 0.5013 0.0
C634 C 0.22903 0.58056 0.50861 0.0
H635 H 0.23404 0.61993 0.49055 0.0
O636 O 0.25034 0.64437 0.54428 0.0
O637 O 0.25799 0.61802 0.53596 0.0
O638 O 0.27806 0.64766 0.51984 0.0
O639 O 0.26754 0.62252 0.49985 0.0
C640 C 0.20387 0.55514 0.5061 0.0
C641 C 0.21402 0.54688 0.51891 0.0
H642 H 0.23741 0.53562 0.54451 0.0
H643 H 0.26844 0.55268 0.55663 0.0
H644 H 0.20221 0.60685 0.47716 0.0
H645 H 0.18756 0.57627 0.4838 0.0
H646 H 0.19029 0.54825 0.50029 0.0
H647 H 0.20804 0.53384 0.52285 0.0
Mn648 Mn 0.42879 0.51458 0.76105 0.0
Mn649 Mn 0.39695 0.5179 0.79019 0.0
C650 C 0.40973 0.48809 0.76772 0.0
C651 C 0.43883 0.51609 0.73114 0.0
C652 C 0.43731 0.52323 0.80325 0.0
O653 O 0.42633 0.54151 0.76256 0.0
O654 O 0.40144 0.53993 0.77769 0.0
C655 C 0.3646 0.51809 0.76361 0.0
N656 N 0.37269 0.51117 0.77808 0.0
C657 C 0.34405 0.49414 0.78404 0.0
C658 C 0.33532 0.50111 0.76924 0.0
C659 C 0.34569 0.51295 0.75881 0.0
C660 C 0.36298 0.49922 0.78768 0.0
H661 H 0.37253 0.5275 0.75593 0.0
C662 C 0.41329 0.54827 0.76855 0.0
O663 O 0.45001 0.51957 0.74632 0.0
O664 O 0.42169 0.51153 0.73321 0.0
N665 N 0.39092 0.49744 0.8034 0.0
C666 C 0.40163 0.49093 0.81626 0.0
C667 C 0.39349 0.4787 0.82774 0.0
C668 C 0.37445 0.47384 0.82629 0.0
C669 C 0.36374 0.48045 0.81268 0.0
C670 C 0.37263 0.49212 0.80128 0.0
H671 H 0.41622 0.49532 0.81806 0.0
O672 O 0.425 0.48737 0.76101 0.0
O673 O 0.40584 0.50415 0.76984 0.0
O674 O 0.44232 0.51811 0.7877 0.0
O675 O 0.42109 0.5252 0.80502 0.0
C676 C 0.3446 0.47646 0.81034 0.0
C677 C 0.33474 0.48277 0.79567 0.0
H678 H 0.32068 0.49749 0.7658 0.0
H679 H 0.33908 0.51837 0.74735 0.0
H680 H 0.40184 0.47349 0.83805 0.0
H681 H 0.36825 0.46513 0.8358 0.0
H682 H 0.33732 0.46891 0.81997 0.0
H683 H 0.32002 0.47914 0.79374 0.0
Mn684 Mn 0.67733 0.04637 0.75744 0.0
Mn685 Mn 0.71409 0.0553 0.78986 0.0
C686 C 0.68951 0.07557 0.76937 0.0
C687 C 0.66339 0.04041 0.72746 0.0
C688 C 0.67603 0.04242 0.79851 0.0
O689 O 0.68653 0.02306 0.75518 0.0
O690 O 0.71066 0.03048 0.77711 0.0
C691 C 0.74217 0.05421 0.76426 0.0
N692 N 0.73541 0.06309 0.77832 0.0
C693 C 0.76087 0.08805 0.78164 0.0
C694 C 0.76818 0.07914 0.76725 0.0
C695 C 0.75875 0.06217 0.75848 0.0
C696 C 0.74431 0.07944 0.7868 0.0
H697 H 0.73498 0.04115 0.75752 0.0
C698 C 0.70029 0.01939 0.76443 0.0
O699 O 0.65508 0.03492 0.74125 0.0
O700 O 0.68011 0.04928 0.73105 0.0
N701 N 0.7194 0.0789 0.80346 0.0
C702 C 0.70993 0.08613 0.81631 0.0
C703 C 0.71737 0.10316 0.82623 0.0
C704 C 0.73452 0.1124 0.82297 0.0
C705 C 0.74393 0.10479 0.80958 0.0
C706 C 0.73594 0.08771 0.80028 0.0
H707 H 0.69684 0.07893 0.81901 0.0
O708 O 0.67279 0.07126 0.7616 0.0
O709 O 0.69899 0.06278 0.76945 0.0
O710 O 0.66854 0.04102 0.78193 0.0
O711 O 0.69306 0.04775 0.80325 0.0
C712 C 0.7608 0.11357 0.80494 0.0
C713 C 0.76923 0.10524 0.79091 0.0
H714 H 0.78095 0.08525 0.76274 0.0
H715 H 0.76427 0.05524 0.74733 0.0
H716 H 0.71002 0.10906 0.83649 0.0
H717 H 0.74044 0.12526 0.83091 0.0
H718 H 0.76727 0.12685 0.81187 0.0
H719 H 0.78207 0.11223 0.78726 0.0
Mn720 Mn 0.76554 0.67835 0.01663 0.0
Mn721 Mn 0.75714 0.64231 0.98371 0.0
C722 C 0.73578 0.66263 0.00712 0.0
C723 C 0.77153 0.69038 0.04836 0.0
C724 C 0.76903 0.68119 0.97541 0.0
O725 O 0.79044 0.67055 0.01608 0.0
O726 O 0.78156 0.64403 0.99729 0.0
C727 C 0.75523 0.61258 0.00761 0.0
N728 N 0.74751 0.62056 0.99374 0.0
C729 C 0.72075 0.59692 0.9892 0.0
C730 C 0.72865 0.58818 1.00307 0.0
C731 C 0.7459 0.59613 0.01244 0.0
C732 C 0.73071 0.61328 0.98499 0.0
H733 H 0.76827 0.61886 0.0151 0.0
C734 C 0.79341 0.65546 0.00848 0.0
O735 O 0.77581 0.70027 0.03522 0.0
O736 O 0.76463 0.67342 0.04314 0.0
N737 N 0.73354 0.6393 0.96998 0.0
C738 C 0.72713 0.65033 0.95827 0.0
C739 C 0.70952 0.64499 0.94874 0.0
C740 C 0.69874 0.62834 0.95123 0.0
C741 C 0.70565 0.61719 0.9633 0.0
C742 C 0.72331 0.62321 0.97241 0.0
H743 H 0.73535 0.66311 0.95621 0.0
O744 O 0.73869 0.67922 0.015 0.0
O745 O 0.75026 0.65624 0.00478 0.0
O746 O 0.76785 0.68891 0.99155 0.0
O747 O 0.76658 0.66399 0.97158 0.0
C748 C 0.6956 0.60048 0.96688 0.0
C749 C 0.7032 0.5903 0.97973 0.0
H750 H 0.72144 0.57555 0.00692 0.0
H751 H 0.75195 0.58966 0.02342 0.0
H752 H 0.70427 0.65369 0.93948 0.0
H753 H 0.68512 0.62431 0.94392 0.0
H754 H 0.68192 0.59545 0.96002 0.0
H755 H 0.69527 0.57755 0.9825 0.0
Mn756 Mn 0.89439 0.52148 0.79387 0.0
Mn757 Mn 0.85933 0.51234 0.81931 0.0
C758 C 0.88244 0.4923 0.79749 0.0
C759 C 0.90588 0.52702 0.76655 0.0
C760 C 0.89834 0.52602 0.8359 0.0
O761 O 0.88543 0.54494 0.79645 0.0
O762 O 0.86041 0.53654 0.81083 0.0
C763 C 0.8293 0.50989 0.78915 0.0
N764 N 0.83776 0.50219 0.80279 0.0
C765 C 0.81571 0.47434 0.79571 0.0
C766 C 0.80671 0.48201 0.78164 0.0
C767 C 0.81356 0.49986 0.77834 0.0
C768 C 0.83139 0.48497 0.80596 0.0
H769 H 0.83455 0.52356 0.78652 0.0
C770 C 0.87116 0.54794 0.80316 0.0
O771 O 0.91568 0.53249 0.78243 0.0
O772 O 0.88906 0.51901 0.76646 0.0
N773 N 0.85652 0.48914 0.82835 0.0
C774 C 0.86633 0.48406 0.843 0.0
C775 C 0.86091 0.46679 0.84858 0.0
C776 C 0.84535 0.45501 0.83921 0.0
C777 C 0.83521 0.46072 0.82449 0.0
C778 C 0.84113 0.47818 0.81972 0.0
H779 H 0.8782 0.49308 0.85039 0.0
O780 O 0.89861 0.4963 0.79248 0.0
O781 O 0.87354 0.50536 0.79965 0.0
O782 O 0.905 0.52597 0.82057 0.0
O783 O 0.8813 0.52204 0.83725 0.0
C784 C 0.81944 0.44978 0.81438 0.0
C785 C 0.80977 0.45654 0.79992 0.0
H786 H 0.79455 0.47432 0.77328 0.0
H787 H 0.80672 0.50586 0.76747 0.0
H788 H 0.86873 0.46255 0.86005 0.0
H789 H 0.8413 0.44165 0.84344 0.0
H790 H 0.81467 0.43613 0.81758 0.0
H791 H 0.79772 0.44797 0.79218 0.0
Mn792 Mn 0.79497 0.42321 0.50852 0.0
Mn793 Mn 0.80628 0.45723 0.4826 0.0
C794 C 0.82471 0.43528 0.50768 0.0
C795 C 0.78637 0.41294 0.53557 0.0
C796 C 0.79331 0.41809 0.46686 0.0
O797 O 0.77157 0.43163 0.50255 0.0
O798 O 0.78122 0.4567 0.48889 0.0
C799 C 0.80711 0.48851 0.51063 0.0
N800 N 0.8156 0.47942 0.49821 0.0
C801 C 0.84286 0.50238 0.50446 0.0
C802 C 0.83437 0.51208 0.51722 0.0
C803 C 0.81645 0.50506 0.52038 0.0
C804 C 0.83291 0.48592 0.49524 0.0
H805 H 0.79334 0.48313 0.51308 0.0
C806 C 0.76893 0.44572 0.49531 0.0
O807 O 0.78243 0.4026 0.51985 0.0
O808 O 0.79475 0.42956 0.53543 0.0
N809 N 0.83033 0.45917 0.47562 0.0
C810 C 0.83686 0.44766 0.46361 0.0
C811 C 0.85478 0.45239 0.45936 0.0
C812 C 0.86572 0.469 0.46727 0.0
C813 C 0.85861 0.48072 0.4794 0.0
C814 C 0.84067 0.47525 0.48317 0.0
H815 H 0.82848 0.43495 0.45736 0.0
O816 O 0.82022 0.41935 0.51308 0.0
O817 O 0.8117 0.44387 0.50354 0.0
O818 O 0.79297 0.41164 0.48229 0.0
O819 O 0.79723 0.43498 0.46526 0.0
C820 C 0.86865 0.49756 0.48799 0.0
C821 C 0.86086 0.5083 0.50066 0.0
H822 H 0.84153 0.52486 0.52476 0.0
H823 H 0.80984 0.51242 0.53029 0.0
H824 H 0.86015 0.44328 0.44996 0.0
H825 H 0.87955 0.47259 0.46399 0.0
H826 H 0.88251 0.50223 0.4852 0.0
H827 H 0.86888 0.52104 0.50749 0.0
Mn828 Mn 0.63446 0.54453 0.2834 0.0
Mn829 Mn 0.66932 0.55309 0.31817 0.0
C830 C 0.65065 0.57421 0.29315 0.0
C831 C 0.62255 0.5388 0.25159 0.0
C832 C 0.62973 0.54372 0.32502 0.0
O833 O 0.64164 0.51946 0.28419 0.0
O834 O 0.66525 0.52765 0.30688 0.0
C835 C 0.69978 0.54825 0.29658 0.0
N836 N 0.69201 0.55887 0.30832 0.0
C837 C 0.71919 0.58194 0.31357 0.0
C838 C 0.72756 0.57117 0.3017 0.0
C839 C 0.71772 0.55437 0.29295 0.0
C840 C 0.70112 0.57536 0.31623 0.0
H841 H 0.69243 0.53511 0.29022 0.0
C842 C 0.65512 0.51594 0.2945 0.0
O843 O 0.61246 0.5351 0.2647 0.0
O844 O 0.63971 0.54507 0.25678 0.0
N845 N 0.6749 0.57748 0.33004 0.0
C846 C 0.66513 0.58594 0.34165 0.0
C847 C 0.67275 0.60324 0.35089 0.0
C848 C 0.69055 0.61145 0.34851 0.0
C849 C 0.70053 0.60226 0.3369 0.0
C850 C 0.69205 0.58523 0.3277 0.0
H851 H 0.65164 0.57954 0.34383 0.0
O852 O 0.63413 0.57133 0.28493 0.0
O853 O 0.65697 0.55974 0.29576 0.0
O854 O 0.62286 0.54213 0.30803 0.0
O855 O 0.6468 0.54769 0.33015 0.0
C856 C 0.71878 0.60905 0.33461 0.0
C857 C 0.72818 0.59874 0.32325 0.0
H858 H 0.74155 0.5756 0.29924 0.0
H859 H 0.72407 0.54599 0.28374 0.0
H860 H 0.665 0.61012 0.35999 0.0
H861 H 0.69649 0.62468 0.35587 0.0
H862 H 0.72582 0.62203 0.3418 0.0
H863 H 0.7424 0.60382 0.32222 0.0
C864 C 1.00413 0.97631 0.98599 0.0
C865 C 0.99357 0.953 0.00538 0.0
C866 C 0.99877 0.97144 1.00285 0.0
C867 C 0.99412 0.93955 0.99087 0.0
C868 C 1.00431 0.96279 0.97127 0.0
C869 C 0.99951 0.94442 0.97388 0.0
N870 N 1.00843 0.99421 0.98374 0.0
C871 C 0.01185 0.99939 0.96674 0.0
C872 C 1.00884 0.96811 0.95417 0.0
C873 C 0.01246 0.98649 0.95186 0.0
Gd874 Gd 0.05195 0.04036 0.03938 0.0
Gd875 Gd 1.00655 0.01462 0.00977 0.0
N876 N 0.99883 0.98474 0.01686 0.0
C877 C 0.98801 0.94864 0.02246 0.0
C878 C 0.99303 0.98057 0.03336 0.0
C879 C 0.98767 0.9625 0.03648 0.0
H880 H 0.99291 0.99114 0.04428 0.0
H881 H 0.98333 0.95927 0.04971 0.0
H882 H 0.07327 0.05315 1.00272 0.0
H883 H 0.01337 0.01342 0.96435 0.0
H884 H 0.08606 0.08123 0.99041 0.0
H885 H 0.98392 0.93464 0.02494 0.0
H886 H 0.99029 0.92532 0.99261 0.0
H887 H 0.05086 0.05157 0.085 0.0
H888 H 1.00899 0.9581 0.94253 0.0
H889 H 0.01532 0.99072 0.93849 0.0
H890 H 0.08526 0.12779 0.03974 0.0
H891 H 0.99966 0.93388 0.96275 0.0
H892 H 0.06586 0.10926 0.09685 0.0
H893 H 0.05513 0.07929 0.10718 0.0
N894 N 0.05712 0.0658 0.06197 0.0
C895 C 0.064 0.08201 0.05628 0.0
C896 C 0.05451 0.06467 0.08014 0.0
C897 C 0.06351 0.09717 0.08696 0.0
C898 C 0.05738 0.0803 0.09283 0.0
C899 C 0.06723 0.09816 0.06858 0.0
H900 H 0.077 0.12724 0.07157 0.0
N901 N 0.06592 0.06642 0.02703 0.0
C902 C 0.06868 0.08233 0.03834 0.0
C903 C 0.08236 0.09842 0.01452 0.0
C904 C 0.07668 0.0988 0.03226 0.0
C905 C 0.07296 0.06584 0.01047 0.0
C906 C 0.08083 0.0818 1.00374 0.0
O907 O 0.02744 0.99805 0.02056 0.0
O908 O 0.04001 0.01325 0.04872 0.0
O909 O 0.07606 0.02936 0.03421 0.0
O910 O 0.07387 0.04325 0.06154 0.0
O911 O 1.00194 0.02353 0.03954 0.0
O912 O 0.02963 0.03419 0.05796 0.0
O913 O 0.03494 0.06023 0.02857 0.0
O914 O 0.01348 0.04476 0.00457 0.0
O915 O 0.97967 0.01863 0.01503 0.0
O916 O 0.98405 1.00692 0.98795 0.0
O917 O 0.0523 0.02585 0.0102 0.0
O918 O 0.02658 0.03037 0.99377 0.0
C919 C 0.03504 0.99797 0.03768 0.0
C920 C 0.01167 0.02958 0.05578 0.0
C921 C 0.10147 0.03216 0.05845 0.0
C922 C 0.12829 0.01976 0.05381 0.0
C923 C 0.12612 0.03622 0.08352 0.0
C924 C 0.10899 0.039 0.07676 0.0
C925 C 0.1358 0.02664 0.0721 0.0
C926 C 0.11115 0.02253 0.04707 0.0
C927 C 0.08355 0.03496 0.05122 0.0
C928 C 0.07925 0.115 0.04422 0.0
C929 C 0.07454 0.11468 0.06235 0.0
H930 H 0.08862 0.11076 0.00935 0.0
C931 C 0.02278 0.0601 0.01418 0.0
C932 C 0.04354 0.02863 0.99448 0.0
C933 C 0.96146 0.02466 0.98879 0.0
C934 C 0.93863 0.04344 0.99131 0.0
C935 C 0.94747 0.03449 0.96107 0.0
C936 C 0.95965 0.02496 0.96942 0.0
C937 C 0.93678 0.04345 0.97188 0.0
C938 C 0.95129 0.03429 0.99959 0.0
C939 C 0.97274 0.01331 0.99781 0.0
H940 H 0.13187 0.04143 0.09763 0.0
H941 H 0.10166 0.04647 0.08583 0.0
H942 H 0.149 0.02438 0.0776 0.0
H943 H 0.10544 0.01727 0.03292 0.0
H944 H 0.94597 0.03455 0.94615 0.0
H945 H 0.96736 0.0176 0.96069 0.0
H946 H 0.92682 0.04998 0.96493 0.0
H947 H 0.95311 0.0344 0.01455 0.0
C948 C 0.32095 0.7509 0.22718 0.0
C949 C 0.29873 0.73487 0.20184 0.0
C950 C 0.30365 0.74804 0.21749 0.0
C951 C 0.31146 0.72473 0.19604 0.0
C952 C 0.33383 0.74087 0.22126 0.0
C953 C 0.32897 0.72773 0.20571 0.0
N954 N 0.32531 0.7637 0.24217 0.0
C955 C 0.34252 0.76774 0.25131 0.0
C956 C 0.35132 0.74451 0.23102 0.0
C957 C 0.35572 0.7581 0.24602 0.0
Gd958 Gd 0.26987 0.77878 0.29547 0.0
Gd959 Gd 0.30254 0.77957 0.24969 0.0
N960 N 0.29151 0.75791 0.22362 0.0
C961 C 0.28114 0.73226 0.19248 0.0
C962 C 0.27444 0.75561 0.21428 0.0
C963 C 0.26898 0.74271 0.19871 0.0
H964 H 0.26485 0.76352 0.21872 0.0
H965 H 0.25538 0.74086 0.19149 0.0
H966 H 0.31138 0.79968 0.31877 0.0
H967 H 0.34624 0.77887 0.26229 0.0
H968 H 0.32327 0.82289 0.34485 0.0
H969 H 0.27685 0.72226 0.18042 0.0
H970 H 0.30792 0.71455 0.18406 0.0
H971 H 0.22721 0.78297 0.28378 0.0
H972 H 0.36161 0.73713 0.22687 0.0
H973 H 0.36933 0.76135 0.25337 0.0
H974 H 0.27149 0.84759 0.35956 0.0
H975 H 0.33868 0.71988 0.20099 0.0
H976 H 0.21498 0.82521 0.32098 0.0
H977 H 0.20546 0.80146 0.29419 0.0
N978 N 0.24886 0.79638 0.30403 0.0
C979 C 0.25439 0.80933 0.31871 0.0
C980 C 0.23158 0.79353 0.29519 0.0
C981 C 0.22459 0.81719 0.31637 0.0
C982 C 0.21919 0.80386 0.3012 0.0
C983 C 0.2424 0.82014 0.32528 0.0
H984 H 0.2396 0.8421 0.34555 0.0
N985 N 0.28368 0.8022 0.31932 0.0
C986 C 0.27232 0.81229 0.32667 0.0
C987 C 0.29721 0.82981 0.34824 0.0
C988 C 0.27877 0.82634 0.34133 0.0
C989 C 0.3019 0.80634 0.32536 0.0
C990 C 0.30886 0.81992 0.34004 0.0
O991 O 0.29016 0.75046 0.2512 0.0
O992 O 0.2802 0.76708 0.27153 0.0
O993 O 0.27023 0.75893 0.31486 0.0
O994 O 0.24496 0.76017 0.29837 0.0
O995 O 0.27367 0.78635 0.24465 0.0
O996 O 0.25404 0.77606 0.2666 0.0
O997 O 0.27767 0.80632 0.28701 0.0
O998 O 0.30134 0.79649 0.27646 0.0
O999 O 0.30039 0.79951 0.23039 0.0
O1000 O 0.32672 0.79753 0.24401 0.0
O1001 O 0.29783 0.77123 0.30195 0.0
O1002 O 0.31736 0.77635 0.27838 0.0
C1003 C 0.28006 0.75078 0.26435 0.0
C1004 C 0.25722 0.78223 0.25044 0.0
C1005 C 0.24357 0.7528 0.32915 0.0
C1006 C 0.24312 0.7436 0.36016 0.0
C1007 C 0.22021 0.75957 0.34792 0.0
C1008 C 0.2281 0.76039 0.33136 0.0
C1009 C 0.22761 0.75115 0.36228 0.0
C1010 C 0.25098 0.74452 0.34358 0.0
C1011 C 0.25261 0.75349 0.31222 0.0
C1012 C 0.26678 0.83682 0.34826 0.0
C1013 C 0.24863 0.83372 0.34026 0.0
H1014 H 0.30266 0.84044 0.35951 0.0
C1015 C 0.29175 0.8092 0.27786 0.0
C1016 C 0.31382 0.77185 0.29526 0.0
C1017 C 0.32527 0.80414 0.21303 0.0
C1018 C 0.32677 0.81594 0.18337 0.0
C1019 C 0.34462 0.79358 0.19125 0.0
C1020 C 0.33775 0.79316 0.20835 0.0
C1021 C 0.33928 0.80506 0.17881 0.0
C1022 C 0.31969 0.81536 0.20038 0.0
C1023 C 0.31799 0.80428 0.23098 0.0
H1024 H 0.20831 0.76543 0.34962 0.0
H1025 H 0.22211 0.76693 0.32041 0.0
H1026 H 0.22132 0.75061 0.37501 0.0
H1027 H 0.26283 0.73856 0.34175 0.0
H1028 H 0.35424 0.78514 0.18773 0.0
H1029 H 0.34238 0.78441 0.21787 0.0
H1030 H 0.34487 0.80549 0.16567 0.0
H1031 H 0.31017 0.82396 0.20393 0.0
C1032 C 0.5781 0.0663 0.49747 0.0
C1033 C 0.59853 0.08696 0.52135 0.0
C1034 C 0.58538 0.07098 0.51595 0.0
C1035 C 0.60399 0.09837 0.50795 0.0
C1036 C 0.58369 0.07762 0.48395 0.0
C1037 C 0.59655 0.09374 0.48932 0.0
N1038 N 0.56581 0.05054 0.49267 0.0
C1039 C 0.55914 0.04493 0.47453 0.0
C1040 C 0.57631 0.07231 0.46541 0.0
C1041 C 0.56407 0.05583 0.46067 0.0
Gd1042 Gd 0.50986 0.03014 0.53807 0.0
Gd1043 Gd 0.55816 0.03368 0.51711 0.0
N1044 N 0.57941 0.05996 0.5287 0.0
C1045 C 0.60562 0.09109 0.5401 0.0
C1046 C 0.58673 0.06353 0.54683 0.0
C1047 C 0.59972 0.07927 0.55286 0.0
H1048 H 0.5825 0.0543 0.55662 0.0
H1049 H 0.60515 0.08226 0.56731 0.0
H1050 H 0.48729 0.01649 0.49552 0.0
H1051 H 0.5502 0.03192 0.47066 0.0
H1052 H 0.46497 0.9901 0.47965 0.0
H1053 H 0.61567 0.10329 0.54485 0.0
H1054 H 0.61397 0.11079 0.51186 0.0
H1055 H 0.51862 0.02178 0.58241 0.0
H1056 H 0.58018 0.08068 0.45462 0.0
H1057 H 0.55856 0.05144 0.44632 0.0
H1058 H 0.45382 0.95113 0.52734 0.0
H1059 H 0.60096 0.10264 0.47914 0.0
H1060 H 0.48626 0.97024 0.58801 0.0
H1061 H 0.50881 0.99754 0.60167 0.0
N1062 N 0.50241 0.00797 0.55779 0.0
C1063 C 0.48969 0.99326 0.55005 0.0
C1064 C 0.50916 0.00973 0.57611 0.0
C1065 C 0.49065 0.98075 0.57939 0.0
C1066 C 0.50345 0.99611 0.58714 0.0
C1067 C 0.48357 0.97918 0.56066 0.0
H1068 H 0.46576 0.95309 0.56025 0.0
N1069 N 0.48957 1.00555 0.52117 0.0
C1070 C 0.48299 0.99206 0.5313 0.0
C1071 C 0.46362 0.97612 0.50408 0.0
C1072 C 0.47003 0.97684 0.5229 0.0
C1073 C 0.48299 1.00521 0.50302 0.0
C1074 C 0.4701 0.99039 0.49412 0.0
O1075 O 0.5511 0.06148 0.52729 0.0
O1076 O 0.52914 0.05685 0.54765 0.0
O1077 O 0.48647 0.04278 0.53011 0.0
O1078 O 0.49346 0.03791 0.55889 0.0
O1079 O 0.55152 0.02202 0.54329 0.0
O1080 O 0.53424 0.03784 0.55948 0.0
O1081 O 0.51943 1.00325 0.52952 0.0
O1082 O 0.5366 0.00891 0.50548 0.0
O1083 O 0.57889 0.02019 0.52928 0.0
O1084 O 0.57464 0.02063 0.49949 0.0
O1085 O 0.51426 0.04374 0.51223 0.0
O1086 O 0.53282 0.02771 0.49745 0.0
C1087 C 0.54098 0.06767 0.53951 0.0
C1088 C 0.54911 0.03136 0.5585 0.0
C1089 C 0.46734 0.05202 0.55357 0.0
C1090 C 0.44346 0.06976 0.54934 0.0
C1091 C 0.44947 0.05805 0.57872 0.0
C1092 C 0.46318 0.05022 0.5718 0.0
C1093 C 0.43971 0.06779 0.56761 0.0
C1094 C 0.45728 0.06178 0.54221 0.0
C1095 C 0.4827 0.04427 0.54725 0.0
C1096 C 0.46386 0.96288 0.53352 0.0
C1097 C 0.47063 0.96402 0.5523 0.0
H1098 H 0.45349 0.96476 0.49719 0.0
C1099 C 0.52719 0.99739 0.51513 0.0
C1100 C 0.52054 0.03784 0.49715 0.0
C1101 C 0.60396 0.01826 0.51234 0.0
C1102 C 0.63191 1.00608 0.51494 0.0
C1103 C 0.63188 0.03562 0.50416 0.0
C1104 C 0.61342 0.0339 0.50611 0.0
C1105 C 0.64107 0.02184 0.50849 0.0
C1106 C 0.61322 1.00437 0.51675 0.0
C1107 C 0.58426 0.01574 0.51328 0.0
H1108 H 0.44645 0.0566 0.59279 0.0
H1109 H 0.47062 0.04283 0.58086 0.0
H1110 H 0.4291 0.0738 0.57326 0.0
H1111 H 0.4603 0.06338 0.52814 0.0
H1112 H 0.63906 0.04762 0.49913 0.0
H1113 H 0.60649 0.04464 0.50246 0.0
H1114 H 0.65534 0.02342 0.50656 0.0
H1115 H 0.6059 0.99231 0.52161 0.0
C1116 C 0.23718 0.29923 0.73397 0.0
C1117 C 0.21927 0.27296 0.71425 0.0
C1118 C 0.23102 0.28054 0.73048 0.0
C1119 C 0.21494 0.28423 0.70094 0.0
C1120 C 0.23188 0.31064 0.7211 0.0
C1121 C 0.22139 0.30299 0.70424 0.0
N1122 N 0.24642 0.30633 0.75085 0.0
C1123 C 0.24874 0.32442 0.75656 0.0
C1124 C 0.23615 0.32942 0.72612 0.0
C1125 C 0.24422 0.33631 0.7441 0.0
Gd1126 Gd 0.30445 0.27156 0.77252 0.0
Gd1127 Gd 0.25443 0.2851 0.76989 0.0
N1128 N 0.23488 0.27004 0.7439 0.0
C1129 C 0.21125 0.25452 0.7125 0.0
C1130 C 0.22552 0.25265 0.74326 0.0
C1131 C 0.21401 0.24443 0.72729 0.0
H1132 H 0.22734 0.24515 0.75497 0.0
H1133 H 0.20717 0.23041 0.72646 0.0
H1134 H 0.32602 0.3127 0.79366 0.0
H1135 H 0.25438 0.32969 0.77068 0.0
H1136 H 0.34408 0.3256 0.82345 0.0
H1137 H 0.20217 0.24819 0.70021 0.0
H1138 H 0.20579 0.2787 0.6885 0.0
H1139 H 0.29848 0.22601 0.77206 0.0
H1140 H 0.23235 0.33864 0.71661 0.0
H1141 H 0.24672 0.35074 0.74845 0.0
H1142 H 0.34817 0.27402 0.85604 0.0
H1143 H 0.21729 0.31154 0.69414 0.0
H1144 H 0.32057 0.21514 0.82521 0.0
H1145 H 0.30423 0.20421 0.79388 0.0
N1146 N 0.31026 0.24925 0.7913 0.0
C1147 C 0.32019 0.25553 0.80805 0.0
C1148 C 0.30513 0.23106 0.78588 0.0
C1149 C 0.31789 0.22483 0.81577 0.0
C1150 C 0.30861 0.21861 0.79812 0.0
C1151 C 0.32404 0.24346 0.82084 0.0
H1152 H 0.33701 0.24122 0.84822 0.0
N1153 N 0.32286 0.28544 0.79984 0.0
C1154 C 0.32678 0.27408 0.81239 0.0
C1155 C 0.34321 0.29969 0.8337 0.0
C1156 C 0.33697 0.28095 0.82973 0.0
C1157 C 0.32913 0.3037 0.80353 0.0
C1158 C 0.33933 0.31109 0.8205 0.0
O1159 O 0.26097 0.26656 0.74601 0.0
O1160 O 0.29046 0.27954 0.74662 0.0
O1161 O 0.33251 0.27909 0.76634 0.0
O1162 O 0.31493 0.25472 0.75207 0.0
O1163 O 0.25964 0.25992 0.78244 0.0
O1164 O 0.2803 0.24822 0.76603 0.0
O1165 O 0.29192 0.27879 0.7993 0.0
O1166 O 0.2754 0.30073 0.79267 0.0
O1167 O 0.2412 0.28017 0.7951 0.0
O1168 O 0.2274 0.29016 0.77229 0.0
O1169 O 0.30495 0.29992 0.76607 0.0
O1170 O 0.27746 0.30982 0.76848 0.0
C1171 C 0.27559 0.26967 0.73754 0.0
C1172 C 0.26561 0.24612 0.7746 0.0
C1173 C 0.34683 0.25675 0.75154 0.0
C1174 C 0.37541 0.256 0.738 0.0
C1175 C 0.36173 0.23117 0.75439 0.0
C1176 C 0.34752 0.23999 0.75801 0.0
C1177 C 0.37547 0.239 0.74443 0.0
C1178 C 0.36081 0.26476 0.74154 0.0
C1179 C 0.33092 0.26531 0.75371 0.0
C1180 C 0.34046 0.26897 0.84262 0.0
C1181 C 0.33405 0.25029 0.83818 0.0
H1182 H 0.35101 0.30548 0.8469 0.0
C1183 C 0.28517 0.29325 0.80456 0.0
C1184 C 0.29503 0.31255 0.76589 0.0
C1185 C 0.21741 0.29634 0.80127 0.0
C1186 C 0.19229 0.29823 0.81984 0.0
C1187 C 0.20961 0.32548 0.81018 0.0
C1188 C 0.22073 0.31526 0.80147 0.0
C1189 C 0.19522 0.31698 0.81892 0.0
C1190 C 0.20332 0.28786 0.8108 0.0
C1191 C 0.22642 0.28527 0.78876 0.0
H1192 H 0.36201 0.21808 0.75916 0.0
H1193 H 0.33689 0.23355 0.76554 0.0
H1194 H 0.38604 0.23152 0.74154 0.0
H1195 H 0.36027 0.27773 0.73653 0.0
H1196 H 0.212 0.34002 0.80995 0.0
H1197 H 0.23144 0.32204 0.79423 0.0
H1198 H 0.18666 0.32515 0.8255 0.0
H1199 H 0.20062 0.27325 0.81071 0.0
C1200 C 0.01852 0.07146 0.56819 0.0
C1201 C 0.04701 0.09091 0.58192 0.0
C1202 C 0.03676 0.07863 0.56722 0.0
C1203 C 0.03883 0.09546 0.59779 0.0
C1204 C 0.01025 0.07607 0.58405 0.0
C1205 C 0.02054 0.08801 0.59889 0.0
N1206 N 1.00894 0.05982 0.55368 0.0
C1207 C 0.99092 0.0528 0.55384 0.0
C1208 C 0.99187 0.06858 0.5845 0.0
C1209 C 0.98215 0.05698 0.56929 0.0
Gd1210 Gd 0.04182 1.0057 0.52442 0.0
Gd1211 Gd 0.0251 0.05334 0.52879 0.0
N1212 N 0.0444 0.0737 0.55181 0.0
C1213 C 0.06507 0.09849 0.58006 0.0
C1214 C 0.06155 0.08196 0.54943 0.0
C1215 C 0.0723 0.09415 0.56364 0.0
H1216 H 0.06676 0.07972 0.53637 0.0
H1217 H 0.08601 0.10049 0.56178 0.0
H1218 H 0.99899 0.98585 0.50702 0.0
H1219 H 0.98317 0.0442 0.54198 0.0
H1220 H 0.9829 0.96813 0.47804 0.0
H1221 H 0.07336 0.10816 0.5909 0.0
H1222 H 0.04645 0.10488 0.60922 0.0
H1223 H 0.08635 0.01226 0.51973 0.0
H1224 H 0.98502 0.0718 0.59644 0.0
H1225 H 0.96787 0.05132 0.5694 0.0
H1226 H 0.03067 0.96087 0.44051 0.0
H1227 H 0.01442 0.0917 0.6112 0.0
H1228 H 0.09208 0.9873 0.46588 0.0
H1229 H 0.10588 1.00511 0.49583 0.0
N1230 N 0.06174 0.99909 0.50322 0.0
C1231 C 0.05386 0.98902 0.48699 0.0
C1232 C 0.08016 1.00472 0.50659 0.0
C1233 C 0.08342 0.99047 0.47627 0.0
C1234 C 0.09127 1.00057 0.49315 0.0
C1235 C 0.06452 0.98452 0.47303 0.0
H1236 H 0.06397 0.97078 0.44539 0.0
N1237 N 0.02505 0.98854 0.49768 0.0
C1238 C 0.03502 0.98341 0.48421 0.0
C1239 C 1.00745 0.96784 0.46517 0.0
C1240 C 0.02644 0.97318 0.46744 0.0
C1241 C 1.00666 0.9827 0.49589 0.0
C1242 C 0.99755 0.97248 0.47953 0.0
O1243 O 0.03279 0.04167 0.55586 0.0
O1244 O 0.05491 0.02525 0.54959 0.0
O1245 O 0.02993 0.98219 0.53731 0.0
O1246 O 0.05831 0.98648 0.53317 0.0
O1247 O 0.05097 0.05121 0.51555 0.0
O1248 O 0.06435 0.03046 0.5305 0.0
O1249 O 0.03484 0.01806 0.49759 0.0
O1250 O 0.01203 0.03293 0.50452 0.0
O1251 O 0.03176 0.07558 0.51132 0.0
O1252 O 1.00551 0.06994 0.52219 0.0
O1253 O 0.01661 0.00812 0.53852 0.0
O1254 O 1.0027 0.02841 0.52381 0.0
C1255 C 0.04685 0.0345 0.56134 0.0
C1256 C 0.06542 0.04505 0.5218 0.0
C1257 C 0.04973 0.97235 0.55953 0.0
C1258 C 0.04802 0.95085 0.58282 0.0
C1259 C 0.06229 0.98257 0.59159 0.0
C1260 C 0.05869 0.98619 0.57333 0.0
C1261 C 0.05697 0.96509 0.59633 0.0
C1262 C 0.04452 0.95456 0.56428 0.0
C1263 C 0.04527 0.97671 0.54045 0.0
C1264 C 0.03703 0.96869 0.45351 0.0
C1265 C 0.056 0.97434 0.45629 0.0
H1266 H 1.00034 0.95998 0.45248 0.0
C1267 C 0.02092 0.02546 0.49236 0.0
C1268 C 1.00188 0.01381 0.53247 0.0
C1269 C 1.00922 0.09462 0.50304 0.0
C1270 C 0.0128 0.11991 0.48398 0.0
C1271 C 0.98387 0.10955 0.49535 0.0
C1272 C 0.99106 0.09641 0.5041 0.0
C1273 C 0.99461 0.12118 0.48535 0.0
C1274 C 0.0202 0.10655 0.49287 0.0
C1275 C 0.01581 0.07984 0.51221 0.0
H1276 H 0.0692 0.99338 0.60213 0.0
H1277 H 0.06289 0.99982 0.56995 0.0
H1278 H 0.06 0.96264 0.61061 0.0
H1279 H 0.03746 0.94381 0.55372 0.0
H1280 H 0.96984 0.11066 0.49624 0.0
H1281 H 0.98221 0.0875 0.51161 0.0
H1282 H 0.98869 0.13129 0.47863 0.0
H1283 H 0.03421 0.10539 0.49176 0.0
C1284 C 0.2484 0.73705 0.80316 0.0
C1285 C 0.22687 0.71934 0.77812 0.0
C1286 C 0.24372 0.73094 0.78439 0.0
C1287 C 0.21477 0.71403 0.79097 0.0
C1288 C 0.23638 0.73157 0.81613 0.0
C1289 C 0.21951 0.72012 0.80992 0.0
N1290 N 0.26473 0.74826 0.80874 0.0
C1291 C 0.27027 0.75379 0.82711 0.0
C1292 C 0.24171 0.73772 0.83497 0.0
C1293 C 0.2588 0.74876 0.84049 0.0
Gd1294 Gd 0.28532 0.80355 0.76248 0.0
Gd1295 Gd 0.2824 0.75676 0.78517 0.0
N1296 N 0.25549 0.73677 0.7722 0.0
C1297 C 0.22265 0.71354 0.75909 0.0
C1298 C 0.25183 0.73048 0.75379 0.0
C1299 C 0.23524 0.71908 0.7469 0.0
H1300 H 0.26155 0.73437 0.74439 0.0
H1301 H 0.23214 0.71464 0.73221 0.0
H1302 H 0.30169 0.82883 0.80283 0.0
H1303 H 0.28367 0.76183 0.83146 0.0
H1304 H 0.32839 0.85245 0.81552 0.0
H1305 H 0.2098 0.70472 0.75368 0.0
H1306 H 0.20172 0.70519 0.7864 0.0
H1307 H 0.28967 0.79316 0.71712 0.0
H1308 H 0.23284 0.73384 0.84537 0.0
H1309 H 0.26318 0.75331 0.85506 0.0
H1310 H 0.36344 0.86 0.76419 0.0
H1311 H 0.21005 0.71585 0.81968 0.0
H1312 H 0.3404 0.82376 0.70627 0.0
H1313 H 0.31215 0.80127 0.6955 0.0
N1314 N 0.30562 0.80979 0.74044 0.0
C1315 C 0.32085 0.82254 0.74656 0.0
C1316 C 0.30225 0.80241 0.72228 0.0
C1317 C 0.33075 0.81996 0.71599 0.0
C1318 C 0.31485 0.80721 0.70986 0.0
C1319 C 0.33383 0.82794 0.73446 0.0
H1320 H 0.35935 0.84572 0.73193 0.0
N1321 N 0.31081 0.82471 0.77644 0.0
C1322 C 0.3234 0.83039 0.76497 0.0
C1323 C 0.3408 0.85163 0.79011 0.0
C1324 C 0.33886 0.84388 0.7716 0.0
C1325 C 0.31228 0.83262 0.79427 0.0
C1326 C 0.32735 0.8461 0.80142 0.0
O1327 O 0.25486 0.7655 0.77676 0.0
O1328 O 0.25939 0.78288 0.7526 0.0
O1329 O 0.27109 0.82567 0.77074 0.0
O1330 O 0.27665 0.8198 0.74205 0.0
O1331 O 0.29506 0.76273 0.7593 0.0
O1332 O 0.2779 0.77838 0.74244 0.0
O1333 O 0.31281 0.79565 0.77258 0.0
O1334 O 0.30784 0.77785 0.79646 0.0
O1335 O 0.29491 0.73521 0.77318 0.0
O1336 O 0.29523 0.74032 0.80305 0.0
O1337 O 0.27334 0.80018 0.78941 0.0
O1338 O 0.2886 0.78162 0.80543 0.0
C1339 C 0.24843 0.7733 0.76262 0.0
C1340 C 0.28608 0.76468 0.74368 0.0
C1341 C 0.26061 0.84435 0.74732 0.0
C1342 C 0.2433 0.86842 0.75225 0.0
C1343 C 0.25173 0.86052 0.72167 0.0
C1344 C 0.26035 0.84732 0.72851 0.0
C1345 C 0.24326 0.87101 0.73343 0.0
C1346 C 0.25198 0.85502 0.75929 0.0
C1347 C 0.26945 0.82969 0.75369 0.0
C1348 C 0.3517 0.84937 0.7595 0.0
C1349 C 0.34929 0.84132 0.74106 0.0
H1350 H 0.35245 0.8621 0.79571 0.0
C1351 C 0.31894 0.78821 0.78713 0.0
C1352 C 0.2807 0.79565 0.80489 0.0
C1353 C 0.2976 0.71082 0.79094 0.0
C1354 C 0.31004 0.68312 0.78806 0.0
C1355 C 0.28155 0.68338 0.80122 0.0
C1356 C 0.28273 0.7016 0.79866 0.0
C1357 C 0.29507 0.67418 0.79596 0.0
C1358 C 0.31127 0.70157 0.78569 0.0
C1359 C 0.29974 0.73033 0.78935 0.0
H1360 H 0.25161 0.86263 0.70716 0.0
H1361 H 0.26676 0.83935 0.71894 0.0
H1362 H 0.23666 0.88127 0.72785 0.0
H1363 H 0.25197 0.85294 0.77381 0.0
H1364 H 0.27017 0.67637 0.8074 0.0
H1365 H 0.27218 0.70855 0.80295 0.0
H1366 H 0.29393 0.66009 0.79829 0.0
H1367 H 0.32279 0.70871 0.77975 0.0
C1368 C 0.56327 1.00098 0.07717 0.0
C1369 C 0.58063 0.02574 0.09907 0.0
C1370 C 0.56641 0.01903 0.08455 0.0
C1371 C 0.59123 0.01397 0.10629 0.0
C1372 C 0.57403 0.98915 0.08422 0.0
C1373 C 0.58792 0.99571 0.0989 0.0
N1374 N 0.55001 0.99507 0.06278 0.0
C1375 C 0.5467 0.97753 0.05479 0.0
C1376 C 0.57065 0.9711 0.07615 0.0
C1377 C 0.55692 0.96527 0.06135 0.0
Gd1378 Gd 0.53247 0.04811 0.00672 0.0
Gd1379 Gd 0.53317 0.0161 0.05265 0.0
N1380 N 0.55609 0.03014 0.07705 0.0
C1381 C 0.58404 0.04417 0.10569 0.0
C1382 C 0.55978 0.04826 0.08323 0.0
C1383 C 0.57364 0.05548 0.09764 0.0
H1384 H 0.55251 0.05751 0.07708 0.0
H1385 H 0.57639 0.06984 0.10242 0.0
H1386 H 0.50899 0.00909 0.98136 0.0
H1387 H 0.53591 0.97285 0.04354 0.0
H1388 H 0.48654 1.00037 0.9537 0.0
H1389 H 0.59487 0.04985 0.11675 0.0
H1390 H 0.60215 0.0189 0.11745 0.0
H1391 H 0.53197 0.09153 0.02086 0.0
H1392 H 0.57861 0.9616 0.08118 0.0
H1393 H 0.55416 0.95134 0.05502 0.0
H1394 H 0.46877 0.05606 0.94066 0.0
H1395 H 0.59631 0.98683 0.1045 0.0
H1396 H 0.4942 0.10952 0.98258 0.0
H1397 H 0.51681 0.11578 0.01059 0.0
N1398 N 0.51755 0.07155 0.99938 0.0
C1399 C 0.50508 0.06777 0.98404 0.0
C1400 C 0.5217 0.08849 0.00899 0.0
C1401 C 0.50063 0.09875 0.98719 0.0
C1402 C 0.51332 0.10232 1.00305 0.0
C1403 C 0.4963 0.0813 0.9775 0.0
H1404 H 0.47664 0.08725 0.95635 0.0
N1405 N 0.50889 0.0373 0.98225 0.0
C1406 C 0.50075 0.05019 0.9751 0.0
C1407 C 0.48256 0.02763 0.95153 0.0
C1408 C 0.48738 0.04569 0.95952 0.0
C1409 C 0.50366 0.01953 0.97494 0.0
C1410 C 0.49057 0.01446 0.95943 0.0
O1411 O 0.56101 0.02423 0.04428 0.0
O1412 O 0.54938 0.04636 0.03316 0.0
O1413 O 0.55256 0.04464 0.98805 0.0
O1414 O 0.55035 0.07162 0.99942 0.0
O1415 O 0.52477 0.04396 0.05872 0.0
O1416 O 0.53297 0.06322 0.03576 0.0
O1417 O 0.50339 0.03762 0.01095 0.0
O1418 O 0.52083 0.02505 0.02816 0.0
O1419 O 0.51279 0.01624 0.07141 0.0
O1420 O 0.51358 0.99141 0.05412 0.0
O1421 O 0.53776 0.01905 1.00019 0.0
O1422 O 0.53345 0.99999 0.02422 0.0
C1423 C 0.56271 0.03767 0.03427 0.0
C1424 C 0.52687 0.06002 0.05201 0.0
C1425 C 0.55585 0.06732 0.96813 0.0
C1426 C 0.56251 0.06211 0.93635 0.0
C1427 C 0.54434 0.08444 0.94463 0.0
C1428 C 0.54603 0.08058 0.963 0.0
C1429 C 0.55253 0.07527 0.93132 0.0
C1430 C 0.56403 0.05818 0.95476 0.0
C1431 C 0.55694 0.062 0.98698 0.0
C1432 C 0.47897 0.05924 0.95268 0.0
C1433 C 0.48342 0.077 0.96164 0.0
H1434 H 0.47233 0.02364 0.93958 0.0
C1435 C 0.50438 0.02667 0.02329 0.0
C1436 C 0.53685 1.00309 0.00697 0.0
C1437 C 0.50421 0.98914 0.08416 0.0
C1438 C 0.49343 0.98858 0.11447 0.0
C1439 C 0.5081 0.9646 0.1024 0.0
C1440 C 0.51031 0.97287 0.08619 0.0
C1441 C 0.49973 0.97242 0.11655 0.0
C1442 C 0.49577 0.9968 0.09827 0.0
C1443 C 0.50659 0.99884 0.06783 0.0
H1444 H 0.53676 0.09464 0.94074 0.0
H1445 H 0.53957 0.0879 0.97307 0.0
H1446 H 0.55141 0.07876 0.91722 0.0
H1447 H 0.57142 0.04781 0.95868 0.0
H1448 H 0.51282 0.95208 0.10398 0.0
H1449 H 0.5168 0.96659 0.07539 0.0
H1450 H 0.49791 0.96571 0.12892 0.0
H1451 H 0.49117 0.00943 0.09669 0.0
C1452 C 0.33676 0.31456 0.2976 0.0
C1453 C 0.3498 0.33058 0.27328 0.0
C1454 C 0.33444 0.3224 0.28124 0.0
C1455 C 0.36736 0.33046 0.28176 0.0
C1456 C 0.35437 0.31487 0.30644 0.0
C1457 C 0.36963 0.32273 0.29836 0.0
N1458 N 0.32177 0.30626 0.30466 0.0
C1459 C 0.32335 0.29918 0.32116 0.0
C1460 C 0.3561 0.30707 0.32305 0.0
C1461 C 0.3405 0.29932 0.33051 0.0
Gd1462 Gd 0.2694 0.26113 0.26175 0.0
Gd1463 Gd 0.29358 0.30784 0.28886 0.0
N1464 N 0.31724 0.32248 0.27341 0.0
C1465 C 0.34708 0.33902 0.25724 0.0
C1466 C 0.31468 0.3321 0.25876 0.0
C1467 C 0.32945 0.34003 0.25014 0.0
H1468 H 0.30139 0.33433 0.25403 0.0
H1469 H 0.32724 0.34728 0.23826 0.0
H1470 H 0.25227 0.23679 0.29354 0.0
H1471 H 0.31142 0.29361 0.32728 0.0
H1472 H 0.22222 0.22209 0.30136 0.0
H1473 H 0.35852 0.34537 0.25066 0.0
H1474 H 0.37928 0.33659 0.27576 0.0
H1475 H 0.26214 0.26822 0.21673 0.0
H1476 H 0.36938 0.30707 0.33028 0.0
H1477 H 0.34168 0.29354 0.34351 0.0
H1478 H 0.18001 0.23416 0.25245 0.0
H1479 H 0.38326 0.32293 0.30484 0.0
H1480 H 0.20494 0.26079 0.20118 0.0
H1481 H 0.23653 0.26925 0.19369 0.0
N1482 N 0.24572 0.26197 0.23829 0.0
C1483 C 0.22853 0.25572 0.24215 0.0
C1484 C 0.24862 0.2659 0.22078 0.0
C1485 C 0.21624 0.26105 0.2117 0.0
C1486 C 0.23401 0.26596 0.20743 0.0
C1487 C 0.2133 0.25524 0.22903 0.0
H1488 H 0.18392 0.24768 0.22332 0.0
N1489 N 0.2413 0.24764 0.27022 0.0
C1490 C 0.22626 0.24804 0.25849 0.0
C1491 C 0.20738 0.23067 0.27807 0.0
C1492 C 0.20883 0.23978 0.26224 0.0
C1493 C 0.24011 0.23792 0.28505 0.0
C1494 C 0.22314 0.2295 0.28937 0.0
O1495 O 0.31038 0.28583 0.28201 0.0
O1496 O 0.29711 0.27289 0.25343 0.0
O1497 O 0.28139 0.23779 0.26669 0.0
O1498 O 0.26349 0.23766 0.24093 0.0
O1499 O 0.27868 0.31003 0.26048 0.0
O1500 O 0.28062 0.28297 0.24433 0.0
O1501 O 0.25243 0.27461 0.28131 0.0
O1502 O 0.2627 0.30506 0.28128 0.0
O1503 O 0.29874 0.33701 0.29585 0.0
O1504 O 0.29086 0.31939 0.31655 0.0
O1505 O 0.28292 0.26026 0.29095 0.0
O1506 O 0.28117 0.28747 0.307 0.0
C1507 C 0.3119 0.27847 0.26521 0.0
C1508 C 0.27892 0.30001 0.24467 0.0
C1509 C 0.27586 0.21071 0.2446 0.0
C1510 C 0.28796 0.18412 0.25088 0.0
C1511 C 0.26924 0.18407 0.2218 0.0
C1512 C 0.2674 0.20179 0.22727 0.0
C1513 C 0.2794 0.17518 0.2336 0.0
C1514 C 0.28628 0.20188 0.25626 0.0
C1515 C 0.27352 0.22899 0.25084 0.0
C1516 C 0.19355 0.24027 0.24974 0.0
C1517 C 0.19578 0.24801 0.23317 0.0
H1518 H 0.19423 0.2241 0.2814 0.0
C1519 C 0.24984 0.29141 0.28397 0.0
C1520 C 0.28172 0.27017 0.30652 0.0
C1521 C 0.27823 0.34542 0.31614 0.0
C1522 C 0.25624 0.36337 0.30613 0.0
C1523 C 0.25415 0.35 0.33497 0.0
C1524 C 0.26951 0.34264 0.33214 0.0
C1525 C 0.24741 0.36022 0.32194 0.0
C1526 C 0.27166 0.35609 0.30333 0.0
C1527 C 0.29298 0.33584 0.31208 0.0
H1528 H 0.26272 0.1772 0.20845 0.0
H1529 H 0.25931 0.20844 0.21802 0.0
H1530 H 0.28072 0.16142 0.2292 0.0
H1531 H 0.2928 0.20862 0.2697 0.0
H1532 H 0.24739 0.34766 0.34722 0.0
H1533 H 0.27434 0.33445 0.34224 0.0
H1534 H 0.23553 0.36592 0.32433 0.0
H1535 H 0.27817 0.3584 0.2909 0.0
C1536 C 0.51871 0.57341 0.06407 0.0
C1537 C 0.54703 0.59326 0.07777 0.0
C1538 C 0.53703 0.58059 0.06323 0.0
C1539 C 0.53845 0.59863 0.09307 0.0
C1540 C 0.51005 0.57892 0.07936 0.0
C1541 C 0.52003 0.59152 0.09384 0.0
N1542 N 0.50944 0.56087 0.05011 0.0
C1543 C 0.49128 0.55428 0.04993 0.0
C1544 C 0.49159 0.57163 0.07963 0.0
C1545 C 0.48214 0.55938 0.06477 0.0
Gd1546 Gd 0.53938 0.50391 0.02268 0.0
Gd1547 Gd 0.52605 0.55404 0.02577 0.0
N1548 N 0.54513 0.57491 0.04842 0.0
C1549 C 0.56542 0.60009 0.07657 0.0
C1550 C 0.56285 0.58201 0.04686 0.0
C1551 C 0.57332 0.59452 0.06099 0.0
H1552 H 0.56887 0.57844 0.0346 0.0
H1553 H 0.58742 0.60001 0.05976 0.0
H1554 H 0.49912 0.47666 0.01081 0.0
H1555 H 0.4836 0.54535 0.03825 0.0
H1556 H 0.48252 0.45604 0.98347 0.0
H1557 H 0.57357 0.6098 0.08748 0.0
H1558 H 0.54595 0.60831 0.10438 0.0
H1559 H 0.58401 0.51094 0.01519 0.0
H1560 H 0.48446 0.57555 0.09111 0.0
H1561 H 0.46777 0.55398 0.06466 0.0
H1562 H 0.52542 0.45912 0.93857 0.0
H1563 H 0.51361 0.59585 0.10571 0.0
H1564 H 0.58622 0.49138 0.95863 0.0
H1565 H 0.60162 0.50708 0.98894 0.0
N1566 N 0.55833 0.49964 0.99939 0.0
C1567 C 0.54981 0.48976 0.98328 0.0
C1568 C 0.57685 0.50498 1.00181 0.0
C1569 C 0.57827 0.49352 0.96998 0.0
C1570 C 0.58701 0.50244 0.98704 0.0
C1571 C 0.55954 0.48657 0.96809 0.0
H1572 H 0.55768 0.47355 0.93992 0.0
N1573 N 0.5226 0.48463 0.99738 0.0
C1574 C 0.53156 0.48166 0.9824 0.0
C1575 C 0.5047 0.46111 0.96683 0.0
C1576 C 0.52267 0.47015 0.9665 0.0
C1577 C 0.50554 0.47501 0.99829 0.0
C1578 C 0.49622 0.46331 0.98292 0.0
O1579 O 0.53349 0.54282 0.05333 0.0
O1580 O 0.55388 0.52435 0.04659 0.0
O1581 O 0.52981 0.48456 0.04181 0.0
O1582 O 0.5527 0.4813 0.0272 0.0
O1583 O 0.55196 0.55122 0.01351 0.0
O1584 O 0.56334 0.52808 0.02662 0.0
O1585 O 0.52028 0.51081 0.99908 0.0
O1586 O 0.53265 0.54048 0.99905 0.0
O1587 O 0.53033 0.58137 0.0168 0.0
O1588 O 0.50379 0.563 0.01054 0.0
O1589 O 0.51588 0.51024 0.03729 0.0
O1590 O 0.50269 0.52976 0.02081 0.0
C1591 C 0.5464 0.53395 0.05865 0.0
C1592 C 0.56554 0.54332 0.01876 0.0
C1593 C 0.55113 0.46853 0.05564 0.0
C1594 C 0.55176 0.44578 0.07742 0.0
C1595 C 0.57739 0.47083 0.0786 0.0
C1596 C 0.56867 0.47728 0.06356 0.0
C1597 C 0.56904 0.45515 0.08545 0.0
C1598 C 0.54267 0.45266 0.06262 0.0
C1599 C 0.54223 0.47498 0.03921 0.0
C1600 C 0.53209 0.46771 0.95103 0.0
C1601 C 0.55046 0.47596 0.95179 0.0
H1602 H 0.49743 0.4521 0.9549 0.0
C1603 C 0.5228 0.52539 0.99042 0.0
C1604 C 0.50142 0.51507 0.02937 0.0
C1605 C 0.50573 0.59266 0.99952 0.0
C1606 C 0.50827 0.61982 0.98315 0.0
C1607 C 0.47874 0.60439 0.98984 0.0
C1608 C 0.48682 0.59162 0.99833 0.0
C1609 C 0.48935 0.61839 0.98236 0.0
C1610 C 0.51653 0.60684 0.99176 0.0
C1611 C 0.5136 0.57881 0.00898 0.0
H1612 H 0.59085 0.47778 0.0847 0.0
H1613 H 0.57577 0.48896 0.05792 0.0
H1614 H 0.57625 0.45009 0.09681 0.0
H1615 H 0.52939 0.44542 0.05622 0.0
H1616 H 0.46416 0.60345 0.98908 0.0
H1617 H 0.47822 0.58097 1.00414 0.0
H1618 H 0.48273 0.62814 0.9758 0.0
H1619 H 0.53113 0.60783 0.99248 0.0
C1620 C 0.75042 0.23712 0.30361 0.0
C1621 C 0.72813 0.21994 0.27891 0.0
C1622 C 0.74509 0.23146 0.28485 0.0
C1623 C 0.71652 0.21433 0.29211 0.0
C1624 C 0.739 0.23117 0.31693 0.0
C1625 C 0.72195 0.21992 0.31107 0.0
N1626 N 0.76698 0.248 0.30885 0.0
C1627 C 0.77346 0.2525 0.32717 0.0
C1628 C 0.7452 0.23651 0.33577 0.0
C1629 C 0.76259 0.24705 0.34091 0.0
Gd1630 Gd 0.78695 0.30533 0.26357 0.0
Gd1631 Gd 0.78369 0.25723 0.28482 0.0
N1632 N 0.75646 0.23743 0.27238 0.0
C1633 C 0.72336 0.21442 0.25988 0.0
C1634 C 0.75231 0.23136 0.25394 0.0
C1635 C 0.73556 0.22009 0.24737 0.0
H1636 H 0.76171 0.23549 0.2443 0.0
H1637 H 0.73206 0.2159 0.23267 0.0
H1638 H 0.80179 0.32898 0.30522 0.0
H1639 H 0.78715 0.26001 0.33114 0.0
H1640 H 0.82785 0.35275 0.31946 0.0
H1641 H 0.71039 0.20568 0.25472 0.0
H1642 H 0.70339 0.20556 0.28781 0.0
H1643 H 0.79354 0.29633 0.21852 0.0
H1644 H 0.73683 0.23224 0.34645 0.0
H1645 H 0.7677 0.25085 0.35544 0.0
H1646 H 0.86536 0.3624 0.27039 0.0
H1647 H 0.71294 0.21531 0.3211 0.0
H1648 H 0.84454 0.32854 0.21072 0.0
H1649 H 0.81694 0.30579 0.19827 0.0
N1650 N 0.80822 0.31264 0.24272 0.0
C1651 C 0.82303 0.32561 0.24974 0.0
C1652 C 0.80577 0.30576 0.22441 0.0
C1653 C 0.83442 0.32423 0.21983 0.0
C1654 C 0.8189 0.31132 0.21276 0.0
C1655 C 0.8366 0.33164 0.23847 0.0
H1656 H 0.86241 0.34964 0.23762 0.0
N1657 N 0.81177 0.3264 0.27911 0.0
C1658 C 0.82471 0.33289 0.26832 0.0
C1659 C 0.84117 0.35325 0.29463 0.0
C1660 C 0.83996 0.34627 0.27594 0.0
C1661 C 0.81259 0.33348 0.29715 0.0
C1662 C 0.82731 0.34699 0.3052 0.0
O1663 O 0.75623 0.26557 0.27558 0.0
O1664 O 0.7609 0.28495 0.25289 0.0
O1665 O 0.77297 0.32756 0.27214 0.0
O1666 O 0.77865 0.32205 0.24343 0.0
O1667 O 0.79675 0.26504 0.25967 0.0
O1668 O 0.78026 0.28092 0.24251 0.0
O1669 O 0.81433 0.29763 0.27451 0.0
O1670 O 0.80893 0.27805 0.29686 0.0
O1671 O 0.79455 0.23495 0.27168 0.0
O1672 O 0.79824 0.24131 0.30164 0.0
O1673 O 0.77341 0.29979 0.28917 0.0
O1674 O 0.78847 0.28157 0.30585 0.0
C1675 C 0.74998 0.27405 0.26189 0.0
C1676 C 0.78764 0.26672 0.24405 0.0
C1677 C 0.76329 0.34705 0.24914 0.0
C1678 C 0.74552 0.37076 0.25395 0.0
C1679 C 0.75696 0.36526 0.22436 0.0
C1680 C 0.76489 0.3515 0.23096 0.0
C1681 C 0.74733 0.37483 0.23576 0.0
C1682 C 0.75351 0.35681 0.26074 0.0
C1683 C 0.77163 0.33197 0.25522 0.0
C1684 C 0.85351 0.35219 0.26474 0.0
C1685 C 0.85184 0.3449 0.24608 0.0
H1686 H 0.8526 0.36364 0.30096 0.0
C1687 C 0.82023 0.28898 0.28825 0.0
C1688 C 0.78034 0.29543 0.30491 0.0
C1689 C 0.79822 0.2112 0.29009 0.0
C1690 C 0.8101 0.18314 0.28878 0.0
C1691 C 0.78289 0.18548 0.30374 0.0
C1692 C 0.78399 0.20321 0.29949 0.0
C1693 C 0.79589 0.17555 0.2986 0.0
C1694 C 0.81113 0.20111 0.2846 0.0
C1695 C 0.80088 0.23052 0.28757 0.0
H1696 H 0.75828 0.36851 0.21035 0.0
H1697 H 0.77229 0.34432 0.22171 0.0
H1698 H 0.74128 0.38552 0.23037 0.0
H1699 H 0.75208 0.35359 0.27478 0.0
H1700 H 0.77208 0.17949 0.31131 0.0
H1701 H 0.77402 0.21082 0.30398 0.0
H1702 H 0.79491 0.162 0.30258 0.0
H1703 H 0.82201 0.20734 0.2772 0.0
C1704 C 0.06462 0.50243 0.57316 0.0
C1705 C 0.07157 0.52134 0.60272 0.0
C1706 C 0.06091 0.5161 0.58535 0.0
C1707 C 0.08656 0.51322 0.60717 0.0
C1708 C 0.07926 0.4938 0.57777 0.0
C1709 C 0.0904 0.49948 0.59471 0.0
N1710 N 0.0536 0.49729 0.55692 0.0
C1711 C 0.05588 0.48304 0.54499 0.0
C1712 C 0.08207 0.47955 0.56531 0.0
C1713 C 0.07022 0.47404 0.54894 0.0
Gd1714 Gd 0.03365 0.54745 0.50459 0.0
Gd1715 Gd 0.03097 0.51414 0.55056 0.0
N1716 N 0.04627 0.52358 0.58063 0.0
C1717 C 0.06649 0.53416 0.6153 0.0
C1718 C 0.04044 0.53496 0.59341 0.0
C1719 C 0.05066 0.54074 0.61075 0.0
H1720 H 0.02784 0.53959 0.59037 0.0
H1721 H 0.04621 0.55013 0.62065 0.0
H1722 H 0.02282 0.5116 0.4713 0.0
H1723 H 0.04673 0.4786 0.53239 0.0
H1724 H 1.0007 0.50116 0.4436 0.0
H1725 H 0.07432 0.53857 0.62879 0.0
H1726 H 0.09501 0.51719 0.62037 0.0
H1727 H 0.02839 0.58966 0.51891 0.0
H1728 H 0.09316 0.47254 0.56834 0.0
H1729 H 0.0721 0.46286 0.53935 0.0
H1730 H 0.96806 0.54959 0.43797 0.0
H1731 H 0.1018 0.49311 0.59845 0.0
H1732 H 0.98485 0.60195 0.4832 0.0
H1733 H 1.00833 0.61065 0.5104 0.0
N1734 N 0.01566 0.56872 0.49747 0.0
C1735 C 1.00335 0.56398 0.48203 0.0
C1736 C 0.01782 0.58542 0.50736 0.0
C1737 C 0.99346 0.59256 0.48701 0.0
C1738 C 1.00666 0.59749 0.50241 0.0
C1739 C 0.99178 0.57571 0.47649 0.0
H1740 H 0.96998 0.57915 0.45621 0.0
N1741 N 0.01359 0.53627 0.47742 0.0
C1742 C 1.00239 0.54737 0.47159 0.0
C1743 C 0.98902 0.5251 0.44551 0.0
C1744 C 0.98966 0.54198 0.45558 0.0
C1745 C 0.01346 0.52007 0.46726 0.0
C1746 C 1.00102 0.51416 0.45135 0.0
O1747 O 0.05917 0.52273 0.54302 0.0
O1748 O 0.05027 0.5465 0.53166 0.0
O1749 O 0.05494 0.5467 0.48664 0.0
O1750 O 0.05022 0.57243 0.49888 0.0
O1751 O 0.02738 0.5437 0.55798 0.0
O1752 O 0.03 0.56206 0.53314 0.0
O1753 O 1.00483 0.53267 0.50401 0.0
O1754 O 0.02053 0.52693 0.52788 0.0
O1755 O 1.00704 0.51075 0.56479 0.0
O1756 O 0.01436 0.4873 0.55026 0.0
O1757 O 0.0416 0.5192 0.50096 0.0
O1758 O 0.02769 0.49945 0.52104 0.0
C1759 C 0.06273 0.53677 0.5339 0.0
C1760 C 0.02729 0.55931 0.55067 0.0
C1761 C 0.05764 0.57071 0.46813 0.0
C1762 C 0.06701 0.56919 0.43719 0.0
C1763 C 0.04703 0.58955 0.44583 0.0
C1764 C 0.04733 0.58377 0.46347 0.0
C1765 C 0.05692 0.58239 0.43272 0.0
C1766 C 0.06735 0.56343 0.45488 0.0
C1767 C 0.05817 0.56423 0.48651 0.0
C1768 C 0.97796 0.55353 0.4502 0.0
C1769 C 0.97903 0.57035 0.46061 0.0
H1770 H 0.97939 0.52044 0.43318 0.0
C1771 C 1.00468 0.52455 0.51862 0.0
C1772 C 0.03571 0.50272 0.50586 0.0
C1773 C 1.00001 0.48313 0.57758 0.0
C1774 C 0.98955 0.48231 0.60823 0.0
C1775 C 0.9961 0.45511 0.59176 0.0
C1776 C 1.00074 0.46465 0.57688 0.0
C1777 C 0.9904 0.46379 0.60729 0.0
C1778 C 0.99465 0.49188 0.5934 0.0
C1779 C 1.00379 0.49314 0.56157 0.0
H1780 H 0.03912 0.59961 0.44231 0.0
H1781 H 0.03953 0.58952 0.47338 0.0
H1782 H 0.05657 0.58699 0.41907 0.0
H1783 H 0.07535 0.55338 0.45838 0.0
H1784 H 0.9966 0.44084 0.59112 0.0
H1785 H 1.0047 0.45754 0.56479 0.0
H1786 H 0.98627 0.45588 0.61832 0.0
H1787 H 0.99434 0.5062 0.5941 0.0
C1788 C 0.73596 0.79179 0.23309 0.0
C1789 C 0.71608 0.76304 0.22123 0.0
C1790 C 0.72916 0.77372 0.23503 0.0
C1791 C 0.71031 0.77058 0.20534 0.0
C1792 C 0.73019 0.7994 0.21716 0.0
C1793 C 0.71735 0.78869 0.20331 0.0
N1794 N 0.74834 0.80188 0.24676 0.0
C1795 C 0.75515 0.8197 0.24559 0.0
C1796 C 0.73741 0.81758 0.21568 0.0
C1797 C 0.7499 0.82779 0.22998 0.0
Gd1798 Gd 0.8044 0.77081 0.27565 0.0
Gd1799 Gd 0.75584 0.78708 0.27239 0.0
N1800 N 0.73508 0.76672 0.25053 0.0
C1801 C 0.70887 0.74519 0.22402 0.0
C1802 C 0.72699 0.7499 0.25397 0.0
C1803 C 0.71416 0.73869 0.2406 0.0
H1804 H 0.72971 0.74538 0.26729 0.0
H1805 H 0.70804 0.72521 0.24328 0.0
H1806 H 0.82865 0.81283 0.28782 0.0
H1807 H 0.76438 0.82783 0.25681 0.0
H1808 H 0.85185 0.82922 0.31292 0.0
H1809 H 0.6988 0.73655 0.21376 0.0
H1810 H 0.70023 0.76256 0.19466 0.0
H1811 H 0.79435 0.72752 0.28528 0.0
H1812 H 0.73332 0.82391 0.20364 0.0
H1813 H 0.75537 0.84192 0.22908 0.0
H1814 H 0.86045 0.78407 0.35327 0.0
H1815 H 0.71264 0.79435 0.19104 0.0
H1816 H 0.82519 0.72406 0.33685 0.0
H1817 H 0.80267 0.70963 0.31013 0.0
N1818 N 0.81094 0.75228 0.29842 0.0
C1819 C 0.82369 0.76039 0.31275 0.0
C1820 C 0.80363 0.73421 0.29719 0.0
C1821 C 0.82133 0.73211 0.32614 0.0
C1822 C 0.80855 0.72392 0.31112 0.0
C1823 C 0.8292 0.7505 0.32702 0.0
H1824 H 0.84682 0.75181 0.35271 0.0
N1825 N 0.82525 0.78806 0.29957 0.0
C1826 C 0.83129 0.77869 0.31316 0.0
C1827 C 0.8521 0.80582 0.32762 0.0
C1828 C 0.84474 0.7874 0.3277 0.0
C1829 C 0.8327 0.80583 0.29915 0.0
C1830 C 0.84608 0.81505 0.31324 0.0
O1831 O 0.76708 0.77982 0.24508 0.0
O1832 O 0.78374 0.75796 0.25129 0.0
O1833 O 0.82686 0.77893 0.25866 0.0
O1834 O 0.82102 0.75186 0.26762 0.0
O1835 O 0.75931 0.76243 0.287 0.0
O1836 O 0.77903 0.74909 0.27079 0.0
O1837 O 0.79503 0.78061 0.30339 0.0
O1838 O 0.7758 0.80042 0.29692 0.0
O1839 O 0.73296 0.78039 0.28902 0.0
O1840 O 0.73935 0.80685 0.2788 0.0
O1841 O 0.80171 0.79605 0.26202 0.0
O1842 O 0.78078 0.80968 0.27635 0.0
C1843 C 0.77518 0.76655 0.23955 0.0
C1844 C 0.76514 0.74798 0.28051 0.0
C1845 C 0.8459 0.75682 0.24894 0.0
C1846 C 0.87251 0.76184 0.23177 0.0
C1847 C 0.8607 0.73182 0.23978 0.0
C1848 C 0.84716 0.73842 0.24839 0.0
C1849 C 0.87331 0.74341 0.23158 0.0
C1850 C 0.85867 0.76862 0.24041 0.0
C1851 C 0.83112 0.76292 0.25851 0.0
C1852 C 0.85023 0.77757 0.34193 0.0
C1853 C 0.84244 0.7592 0.34162 0.0
H1854 H 0.86243 0.81301 0.33855 0.0
C1855 C 0.78549 0.79285 0.30872 0.0
C1856 C 0.7957 0.81057 0.26805 0.0
C1857 C 0.71331 0.80247 0.29624 0.0
C1858 C 0.68837 0.7992 0.31579 0.0
C1859 C 0.6947 0.82553 0.29908 0.0
C1860 C 0.70896 0.819 0.29177 0.0
C1861 C 0.68451 0.81575 0.31101 0.0
C1862 C 0.70282 0.79243 0.30831 0.0
C1863 C 0.72872 0.79627 0.28792 0.0
H1864 H 0.86146 0.71763 0.2395 0.0
H1865 H 0.8376 0.72896 0.25465 0.0
H1866 H 0.88379 0.73797 0.22501 0.0
H1867 H 0.85799 0.78284 0.24064 0.0
H1868 H 0.69154 0.83826 0.29549 0.0
H1869 H 0.71659 0.82697 0.28251 0.0
H1870 H 0.6735 0.82115 0.31658 0.0
H1871 H 0.70589 0.77966 0.31194 0.0
C1872 C 0.8213 0.2527 0.72539 0.0
C1873 C 0.79943 0.23831 0.69904 0.0
C1874 C 0.80429 0.25075 0.71526 0.0
C1875 C 0.81195 0.22797 0.69308 0.0
C1876 C 0.83401 0.24255 0.71927 0.0
C1877 C 0.8292 0.23012 0.70314 0.0
N1878 N 0.82556 0.26474 0.74102 0.0
C1879 C 0.8426 0.26804 0.75051 0.0
C1880 C 0.85127 0.24535 0.72941 0.0
C1881 C 0.85563 0.25827 0.74501 0.0
Gd1882 Gd 0.76951 0.27639 0.79369 0.0
Gd1883 Gd 0.80304 0.28085 0.74885 0.0
N1884 N 0.79234 0.26075 0.72157 0.0
C1885 C 0.78212 0.2366 0.6893 0.0
C1886 C 0.77564 0.25954 0.71175 0.0
C1887 C 0.77022 0.24733 0.69563 0.0
H1888 H 0.76637 0.26786 0.7162 0.0
H1889 H 0.75689 0.24626 0.68806 0.0
H1890 H 0.80877 0.29808 0.82032 0.0
H1891 H 0.84635 0.27862 0.76206 0.0
H1892 H 0.81772 0.31944 0.84856 0.0
H1893 H 0.77785 0.22714 0.67681 0.0
H1894 H 0.80844 0.21833 0.68066 0.0
H1895 H 0.72671 0.27842 0.77936 0.0
H1896 H 0.86142 0.23785 0.72513 0.0
H1897 H 0.86909 0.26089 0.75267 0.0
H1898 H 0.76248 0.33862 0.8614 0.0
H1899 H 0.83877 0.22216 0.69826 0.0
H1900 H 0.7088 0.31506 0.81874 0.0
H1901 H 0.70243 0.29303 0.79041 0.0
N1902 N 0.7466 0.29174 0.80151 0.0
C1903 C 0.75039 0.30355 0.81724 0.0
C1904 C 0.72974 0.28816 0.79165 0.0
C1905 C 0.71955 0.30865 0.81401 0.0
C1906 C 0.71592 0.2964 0.79787 0.0
C1907 C 0.73699 0.31248 0.82386 0.0
H1908 H 0.73129 0.33189 0.84531 0.0
N1909 N 0.78052 0.29858 0.81934 0.0
C1910 C 0.76787 0.30709 0.82646 0.0
C1911 C 0.79059 0.32412 0.85062 0.0
C1912 C 0.77254 0.32002 0.84234 0.0
C1913 C 0.79833 0.30327 0.82683 0.0
C1914 C 0.80358 0.31586 0.84268 0.0
O1915 O 0.78983 0.25151 0.74789 0.0
O1916 O 0.78211 0.26724 0.77044 0.0
O1917 O 0.77039 0.25588 0.81223 0.0
O1918 O 0.74558 0.25548 0.79419 0.0
O1919 O 0.77421 0.28803 0.74471 0.0
O1920 O 0.75449 0.27363 0.76452 0.0
O1921 O 0.77685 0.30477 0.78708 0.0
O1922 O 0.80165 0.29765 0.77584 0.0
O1923 O 0.80169 0.30094 0.72981 0.0
O1924 O 0.82761 0.29937 0.74464 0.0
O1925 O 0.7981 0.27067 0.80061 0.0
O1926 O 0.81771 0.27621 0.77717 0.0
C1927 C 0.78079 0.25132 0.76182 0.0
C1928 C 0.75768 0.2821 0.74964 0.0
C1929 C 0.7431 0.24766 0.8247 0.0
C1930 C 0.74315 0.24031 0.85636 0.0
C1931 C 0.72075 0.25658 0.84375 0.0
C1932 C 0.72806 0.25598 0.82684 0.0
C1933 C 0.72841 0.24899 0.85859 0.0
C1934 C 0.75022 0.23944 0.83936 0.0
C1935 C 0.75304 0.24914 0.80841 0.0
C1936 C 0.75917 0.32874 0.84917 0.0
C1937 C 0.74142 0.32494 0.83998 0.0
H1938 H 0.79474 0.33401 0.86279 0.0
C1939 C 0.79072 0.30915 0.77784 0.0
C1940 C 0.81415 0.27165 0.79402 0.0
C1941 C 0.8271 0.30613 0.7136 0.0
C1942 C 0.82664 0.31608 0.68291 0.0
C1943 C 0.8451 0.29427 0.69119 0.0
C1944 C 0.83941 0.295 0.70889 0.0
C1945 C 0.83866 0.30468 0.67815 0.0
C1946 C 0.82094 0.31672 0.70063 0.0
C1947 C 0.81931 0.30607 0.73127 0.0
H1948 H 0.70934 0.26321 0.84543 0.0
H1949 H 0.72219 0.26232 0.81569 0.0
H1950 H 0.72283 0.24978 0.87174 0.0
H1951 H 0.76195 0.23317 0.83784 0.0
H1952 H 0.85446 0.28557 0.68757 0.0
H1953 H 0.84452 0.28676 0.7187 0.0
H1954 H 0.84322 0.30404 0.66449 0.0
H1955 H 0.81126 0.32514 0.70418 0.0
C1956 C 0.83417 0.8159 0.81236 0.0
C1957 C 0.85452 0.82889 0.79109 0.0
C1958 C 0.83696 0.82092 0.79481 0.0
C1959 C 0.86921 0.83162 0.80516 0.0
C1960 C 0.84892 0.81876 0.82655 0.0
C1961 C 0.86643 0.82654 0.82282 0.0
N1962 N 0.81703 0.80855 0.81564 0.0
C1963 C 0.81363 0.8045 0.83302 0.0
C1964 C 0.8456 0.81394 0.84416 0.0
C1965 C 0.82786 0.80689 0.84743 0.0
Gd1966 Gd 0.77006 0.76009 0.76334 0.0
Gd1967 Gd 0.79425 0.80605 0.79051 0.0
N1968 N 0.8226 0.81757 0.78124 0.0
C1969 C 0.85681 0.83367 0.77324 0.0
C1970 C 0.82464 0.82282 0.76405 0.0
C1971 C 0.84178 0.83069 0.7597 0.0
H1972 H 0.81309 0.82119 0.75373 0.0
H1973 H 0.84335 0.83463 0.74595 0.0
H1974 H 0.75665 0.74151 0.80104 0.0
H1975 H 0.79992 0.8 0.83608 0.0
H1976 H 0.72832 0.72766 0.81211 0.0
H1977 H 0.87008 0.83976 0.76982 0.0
H1978 H 0.8828 0.83764 0.80253 0.0
H1979 H 0.75843 0.76944 0.71973 0.0
H1980 H 0.85656 0.81593 0.85541 0.0
H1981 H 0.82509 0.80357 0.86113 0.0
H1982 H 0.68235 0.72819 0.76189 0.0
H1983 H 0.87791 0.82881 0.83355 0.0
H1984 H 0.7008 0.75361 0.70741 0.0
H1985 H 0.7307 0.7668 0.69818 0.0
N1986 N 0.74456 0.75931 0.74175 0.0
C1987 C 0.72832 0.75146 0.74692 0.0
C1988 C 0.74553 0.76455 0.72438 0.0
C1989 C 0.71296 0.75514 0.71717 0.0
C1990 C 0.72978 0.76271 0.71194 0.0
C1991 C 0.71208 0.74923 0.73475 0.0
H1992 H 0.68294 0.73915 0.73121 0.0
N1993 N 0.74375 0.74806 0.77606 0.0
C1994 C 0.72794 0.74551 0.76444 0.0
C1995 C 0.71161 0.73042 0.78727 0.0
C1996 C 0.71137 0.73688 0.76992 0.0
C1997 C 0.74405 0.74127 0.79273 0.0
C1998 C 0.72797 0.73279 0.79878 0.0
O1999 O 0.81417 0.78808 0.78091 0.0
O2000 O 0.79901 0.76834 0.75576 0.0
O2001 O 0.77513 0.73339 0.76773 0.0
O2002 O 0.76419 0.73858 0.74056 0.0
O2003 O 0.78098 0.80664 0.76095 0.0
O2004 O 0.78283 0.77966 0.74474 0.0
O2005 O 0.75103 0.77959 0.77202 0.0
O2006 O 0.76579 0.79638 0.79886 0.0
O2007 O 0.78679 0.83099 0.78312 0.0
O2008 O 0.79871 0.82947 0.81115 0.0
O2009 O 0.78553 0.75944 0.79189 0.0
O2010 O 0.78154 0.78546 0.80809 0.0
C2011 C 0.81431 0.77664 0.76597 0.0
C2012 C 0.78237 0.79697 0.74529 0.0
C2013 C 0.78514 0.71907 0.74168 0.0
C2014 C 0.80541 0.69771 0.74304 0.0
C2015 C 0.80488 0.71602 0.71754 0.0
C2016 C 0.79161 0.72418 0.72507 0.0
C2017 C 0.81172 0.70271 0.72643 0.0
C2018 C 0.79219 0.70589 0.75063 0.0
C2019 C 0.77135 0.72745 0.7501 0.0
C2020 C 0.6952 0.73473 0.75786 0.0
C2021 C 0.69553 0.74097 0.74038 0.0
H2022 H 0.69938 0.72305 0.79167 0.0
C2023 C 0.75052 0.7893 0.78802 0.0
C2024 C 0.78419 0.76881 0.80771 0.0
C2025 C 0.77581 0.84666 0.80756 0.0
C2026 C 0.75399 0.86617 0.80341 0.0
C2027 C 0.75507 0.85016 0.83062 0.0
C2028 C 0.76916 0.84237 0.82433 0.0
C2029 C 0.74755 0.86217 0.82026 0.0
C2030 C 0.76811 0.85849 0.79719 0.0
C2031 C 0.79038 0.83873 0.80023 0.0
H2032 H 0.80988 0.72002 0.70481 0.0
H2033 H 0.78656 0.73454 0.71798 0.0
H2034 H 0.82195 0.69638 0.72043 0.0
H2035 H 0.78723 0.70181 0.76339 0.0
H2036 H 0.74998 0.84687 0.84352 0.0
H2037 H 0.77475 0.83301 0.83251 0.0
H2038 H 0.73669 0.86822 0.82526 0.0
H2039 H 0.77325 0.86188 0.78428 0.0
C2040 C 0.49603 0.47425 0.49435 0.0
C2041 C 0.47492 0.45958 0.51398 0.0
C2042 C 0.48603 0.47534 0.50943 0.0
C2043 C 0.47404 0.44288 0.50334 0.0
C2044 C 0.49494 0.4575 0.4835 0.0
C2045 C 0.48394 0.44185 0.48811 0.0
N2046 N 0.50649 0.48965 0.49004 0.0
C2047 C 0.51487 0.48943 0.47424 0.0
C2048 C 0.50448 0.45705 0.46795 0.0
C2049 C 0.51431 0.47314 0.46318 0.0
Gd2050 Gd 0.55151 0.5379 0.5375 0.0
Gd2051 Gd 0.50464 0.51644 0.50816 0.0
N2052 N 0.48659 0.49182 0.51916 0.0
C2053 C 0.46456 0.46111 0.52877 0.0
C2054 C 0.47551 0.4935 0.53274 0.0
C2055 C 0.46474 0.47817 0.53807 0.0
H2056 H 0.47451 0.50664 0.53925 0.0
H2057 H 0.45627 0.47957 0.54911 0.0
H2058 H 0.57783 0.54847 0.50441 0.0
H2059 H 0.52141 0.50182 0.46962 0.0
H2060 H 0.59621 0.57563 0.49454 0.0
H2061 H 0.45597 0.44929 0.53276 0.0
H2062 H 0.46534 0.43075 0.50652 0.0
H2063 H 0.54031 0.55114 0.58014 0.0
H2064 H 0.5039 0.44446 0.45922 0.0
H2065 H 0.52111 0.47306 0.45075 0.0
H2066 H 0.59129 0.62377 0.54063 0.0
H2067 H 0.48273 0.42894 0.47975 0.0
H2068 H 0.55765 0.60848 0.59124 0.0
H2069 H 0.5421 0.57943 0.60031 0.0
N2070 N 0.55238 0.56401 0.55833 0.0
C2071 C 0.56207 0.57968 0.55368 0.0
C2072 C 0.54596 0.56372 0.57524 0.0
C2073 C 0.55632 0.59611 0.58193 0.0
C2074 C 0.54745 0.57976 0.58705 0.0
C2075 C 0.56414 0.59617 0.56529 0.0
H2076 H 0.57609 0.62484 0.569 0.0
N2077 N 0.56881 0.56302 0.52693 0.0
C2078 C 0.57082 0.5791 0.53775 0.0
C2079 C 0.59053 0.59367 0.51702 0.0
C2080 C 0.58162 0.59493 0.53296 0.0
C2081 C 0.57824 0.56152 0.51198 0.0
C2082 C 0.58897 0.57685 0.50658 0.0
O2083 O 0.52358 0.49708 0.51698 0.0
O2084 O 0.53846 0.51044 0.54519 0.0
O2085 O 0.57547 0.526 0.53523 0.0
O2086 O 0.5724 0.54233 0.56099 0.0
O2087 O 0.5011 0.52848 0.53718 0.0
O2088 O 0.52865 0.52903 0.55481 0.0
O2089 O 0.53917 0.55679 0.51921 0.0
O2090 O 0.50834 0.54685 0.51788 0.0
O2091 O 0.47578 0.51251 0.49939 0.0
O2092 O 0.49503 0.52245 0.48079 0.0
O2093 O 0.55194 0.52297 0.50887 0.0
O2094 O 0.52696 0.52952 0.49262 0.0
C2095 C 0.53144 0.49579 0.53371 0.0
C2096 C 0.51109 0.52915 0.55327 0.0
C2097 C 0.59982 0.53014 0.56068 0.0
C2098 C 0.62781 0.51925 0.55771 0.0
C2099 C 0.62241 0.53324 0.58753 0.0
C2100 C 0.60559 0.53586 0.5796 0.0
C2101 C 0.63352 0.52497 0.57665 0.0
C2102 C 0.61096 0.52187 0.54982 0.0
C2103 C 0.58232 0.53289 0.55213 0.0
C2104 C 0.58318 0.61144 0.54417 0.0
C2105 C 0.57446 0.61206 0.56028 0.0
H2106 H 0.59891 0.60553 0.51284 0.0
C2107 C 0.52241 0.55964 0.51601 0.0
C2108 C 0.54366 0.52674 0.4934 0.0
C2109 C 0.46764 0.53321 0.47936 0.0
C2110 C 0.44703 0.55299 0.48772 0.0
C2111 C 0.45683 0.55184 0.457 0.0
C2112 C 0.46725 0.53905 0.46162 0.0
C2113 C 0.44657 0.55868 0.46995 0.0
C2114 C 0.45769 0.54047 0.49248 0.0
C2115 C 0.47806 0.51927 0.48382 0.0
H2116 H 0.62681 0.53759 0.60212 0.0
H2117 H 0.59713 0.54231 0.58825 0.0
H2118 H 0.64646 0.52288 0.58306 0.0
H2119 H 0.60668 0.51772 0.53514 0.0
H2120 H 0.4565 0.55625 0.44328 0.0
H2121 H 0.47488 0.53361 0.45131 0.0
H2122 H 0.43823 0.5683 0.4661 0.0
H2123 H 0.45776 0.53608 0.50624 0.0
C2124 C 0.07719 0.57432 1.00418 0.0
C2125 C 0.09738 0.59402 0.02909 0.0
C2126 C 0.08549 0.57745 0.02247 0.0
C2127 C 0.09993 0.60786 0.0175 0.0
C2128 C 0.08068 0.58788 0.99221 0.0
C2129 C 0.09156 0.60482 0.99914 0.0
N2130 N 0.0671 0.5576 0.99767 0.0
C2131 C 0.06236 0.55298 0.97897 0.0
C2132 C 0.07391 0.58372 0.9734 0.0
C2133 C 0.06511 0.56607 0.96668 0.0
Gd2134 Gd 0.0099 0.53275 0.03624 0.0
Gd2135 Gd 0.06267 0.5374 0.02034 0.0
N2136 N 0.08257 0.56398 0.03358 0.0
C2137 C 0.10676 0.59598 0.04699 0.0
C2138 C 0.09255 0.56532 0.05051 0.0
C2139 C 0.10457 0.58145 0.05762 0.0
H2140 H 0.09112 0.55393 0.05849 0.0
H2141 H 0.11215 0.58264 0.07125 0.0
H2142 H 0.984 0.51778 0.99571 0.0
H2143 H 0.05684 0.53914 0.97328 0.0
H2144 H 0.9617 0.49051 0.98166 0.0
H2145 H 0.11606 0.60848 0.05254 0.0
H2146 H 0.1088 0.62078 0.02244 0.0
H2147 H 0.0191 0.52682 0.08228 0.0
H2148 H 0.07631 0.59376 0.96378 0.0
H2149 H 0.06082 0.56242 0.95196 0.0
H2150 H 0.95722 0.452 0.03031 0.0
H2151 H 0.09417 0.61542 0.99018 0.0
H2152 H 0.99185 0.47378 0.08927 0.0
H2153 H 0.01224 0.50272 0.10198 0.0
N2154 N 1.00471 0.51113 0.0574 0.0
C2155 C 0.99234 0.49578 0.05046 0.0
C2156 C 0.01111 0.514 0.07592 0.0
C2157 C 0.99523 0.48419 0.08023 0.0
C2158 C 1.00684 0.50045 0.08743 0.0
C2159 C 0.98752 0.48183 0.06168 0.0
H2160 H 0.97106 0.45531 0.06273 0.0
N2161 N 0.98871 0.50765 0.02146 0.0
C2162 C 0.98398 0.49408 0.03217 0.0
C2163 C 0.96339 0.47695 0.00629 0.0
C2164 C 0.97131 0.47825 0.02471 0.0
C2165 C 0.98066 0.50669 1.0037 0.0
C2166 C 0.96797 0.4913 0.9958 0.0
O2167 O 0.05594 0.56179 0.03843 0.0
O2168 O 0.02541 0.55986 0.02949 0.0
O2169 O 0.98404 0.54169 0.02884 0.0
O2170 O 0.99762 0.54616 0.05748 0.0
O2171 O 0.05065 0.52428 0.04381 0.0
O2172 O 0.03296 0.54044 0.05887 0.0
O2173 O 0.01661 0.50624 0.02229 0.0
O2174 O 0.04606 0.50877 0.01346 0.0
O2175 O 0.08421 0.52541 0.03326 0.0
O2176 O 0.08364 0.53004 0.00444 0.0
O2177 O 0.02051 0.54483 0.01174 0.0
O2178 O 0.0396 0.53006 0.99707 0.0
C2179 C 0.04127 0.56921 0.03765 0.0
C2180 C 0.04772 0.53382 0.05865 0.0
C2181 C 0.96933 0.55666 0.05311 0.0
C2182 C 0.94423 0.57276 0.04889 0.0
C2183 C 0.95416 0.56555 0.0795 0.0
C2184 C 0.96743 0.55733 0.07218 0.0
C2185 C 0.9426 0.57321 0.06794 0.0
C2186 C 0.95763 0.56446 0.04139 0.0
C2187 C 0.98388 0.54817 0.04608 0.0
C2188 C 0.96691 0.46426 0.03581 0.0
C2189 C 0.97488 0.4661 0.05425 0.0
H2190 H 0.95362 0.46499 1.00008 0.0
C2191 C 0.02981 0.49928 0.01522 0.0
C2192 C 0.02409 0.53558 0.997 0.0
C2193 C 0.09427 0.50424 0.01296 0.0
C2194 C 0.11339 0.48167 0.01541 0.0
C2195 C 0.08334 0.47346 0.99801 0.0
C2196 C 0.08074 0.49118 1.00193 0.0
C2197 C 0.09955 0.46868 0.0048 0.0
C2198 C 0.11073 0.49948 0.01953 0.0
C2199 C 0.0912 0.5227 0.01783 0.0
H2200 H 0.95282 0.56599 0.0942 0.0
H2201 H 0.97622 0.55145 0.08151 0.0
H2202 H 0.93235 0.57957 0.07389 0.0
H2203 H 0.95897 0.56416 0.02668 0.0
H2204 H 0.0728 0.46345 0.98962 0.0
H2205 H 0.06817 0.49463 0.99628 0.0
H2206 H 0.10145 0.4549 1.0015 0.0
H2207 H 0.12136 0.50951 0.02785 0.0
H2208 H 0.01931 0.23024 0.98347 0.0
H2209 H 0.02222 0.20114 0.99459 0.0
H2210 H 1.00319 0.17381 0.93958 0.0
H2211 H 0.99988 0.20282 0.92857 0.0
H2212 H 0.9884 0.15327 0.96208 0.0
H2213 H 0.05077 0.18277 0.96221 0.0
H2214 H 0.07771 0.20731 0.97066 0.0
H2215 H 0.07493 0.20161 0.02848 0.0
H2216 H 0.04783 0.17719 0.02038 0.0
H2217 H 1.00897 0.06714 0.97941 0.0
H2218 H 1.00767 0.09635 0.96801 0.0
H2219 H 0.03107 0.12395 0.02193 0.0
H2220 H 0.03321 0.09477 0.03301 0.0
H2221 H 0.04384 0.14465 1.00002 0.0
H2222 H 0.98187 0.11576 1.00063 0.0
H2223 H 0.95537 0.09091 0.99297 0.0
H2224 H 0.95643 0.09613 0.93481 0.0
H2225 H 0.9835 0.12069 0.94217 0.0
C2226 C 0.01576 0.21807 0.97367 0.0
C2227 C 1.00938 0.21919 0.955 0.0
C2228 C 0.01758 0.20125 0.98007 0.0
C2229 C 0.01326 0.18481 0.96803 0.0
C2230 C 1.00673 0.18597 0.9494 0.0
C2231 C 1.00488 0.20276 0.94302 0.0
C2232 C 0.01516 0.16651 0.97473 0.0
C2233 C 1.0007 0.15146 0.97015 0.0
C2234 C 0.03086 0.16368 0.98582 0.0
C2235 C 0.04718 0.17828 0.99069 0.0
C2236 C 0.05584 0.18684 0.97673 0.0
C2237 C 0.07115 0.20071 0.98146 0.0
C2238 C 0.078 0.20605 1.0001 0.0
C2239 C 0.06959 0.19748 0.01405 0.0
C2240 C 0.05427 0.18362 0.0094 0.0
C2241 C 0.01373 0.07939 0.98895 0.0
C2242 C 0.02101 0.07824 0.00732 0.0
C2243 C 0.01289 0.09633 0.98239 0.0
C2244 C 0.01875 0.11293 0.99406 0.0
C2245 C 0.02626 0.11173 0.01237 0.0
C2246 C 0.02742 0.09482 0.01881 0.0
C2247 C 0.01705 0.13135 0.98736 0.0
C2248 C 0.03153 0.14643 0.99195 0.0
C2249 C 1.00131 0.13428 0.9764 0.0
C2250 C 0.98478 0.11992 0.97194 0.0
C2251 C 0.9765 0.11155 0.9862 0.0
C2252 C 0.96137 0.09749 0.98189 0.0
C2253 C 0.95413 0.09194 0.96337 0.0
C2254 C 0.96206 0.10044 0.94913 0.0
C2255 C 0.97733 0.1144 0.95337 0.0
H2256 H 0.94237 0.08109 0.95999 0.0
H2257 H 0.08985 0.21679 1.00373 0.0
H2258 H 0.125 0.7975 0.12394 0.0
H2259 H 0.15388 0.79617 0.14199 0.0
H2260 H 0.12798 0.79732 0.19229 0.0
H2261 H 0.09959 0.79986 0.17447 0.0
H2262 H 0.15881 0.81466 0.20184 0.0
H2263 H 0.1391 0.75668 0.16656 0.0
H2264 H 0.12887 0.73449 0.13872 0.0
H2265 H 0.17906 0.75258 0.11664 0.0
H2266 H 0.18949 0.77505 0.14426 0.0
H2267 H 0.22088 0.7706 0.25382 0.0
H2268 H 0.19434 0.77488 0.23397 0.0
H2269 H 0.22928 0.80017 0.19659 0.0
H2270 H 0.25616 0.79701 0.21708 0.0
H2271 H 0.19538 0.7701 0.18037 0.0
H2272 H 0.2142 0.8276 0.21997 0.0
H2273 H 0.22309 0.84523 0.25085 0.0
H2274 H 0.17158 0.82245 0.2679 0.0
H2275 H 0.16251 0.80445 0.2372 0.0
C2276 C 0.12555 0.79773 0.13888 0.0
C2277 C 0.1099 0.79888 0.14769 0.0
C2278 C 0.14208 0.79671 0.14925 0.0
C2279 C 0.14332 0.79619 0.16867 0.0
C2280 C 0.12771 0.79771 0.17744 0.0
C2281 C 0.11134 0.79915 0.16715 0.0
C2282 C 0.16064 0.79396 0.17988 0.0
C2283 C 0.1666 0.80477 0.19705 0.0
C2284 C 0.17121 0.78113 0.17401 0.0
C2285 C 0.16498 0.76769 0.15736 0.0
C2286 C 0.14789 0.75602 0.1557 0.0
C2287 C 0.14207 0.74338 0.13997 0.0
C2288 C 0.15329 0.74217 0.12589 0.0
C2289 C 0.17037 0.75356 0.12754 0.0
C2290 C 0.17625 0.76625 0.14323 0.0
C2291 C 0.2231 0.7775 0.24169 0.0
C2292 C 0.2409 0.78396 0.23754 0.0
C2293 C 0.20779 0.77969 0.23014 0.0
C2294 C 0.20974 0.78793 0.21379 0.0
C2295 C 0.22739 0.79379 0.20914 0.0
C2296 C 0.24279 0.79199 0.22094 0.0
C2297 C 0.1933 0.79082 0.20195 0.0
C2298 C 0.18753 0.78007 0.18485 0.0
C2299 C 0.18258 0.80324 0.20815 0.0
C2300 C 0.18773 0.81459 0.22633 0.0
C2301 C 0.20481 0.82628 0.23033 0.0
C2302 C 0.20988 0.83634 0.2478 0.0
C2303 C 0.19792 0.83493 0.26135 0.0
C2304 C 0.18083 0.82352 0.2574 0.0
C2305 C 0.17571 0.81341 0.23996 0.0
H2306 H 0.20189 0.84268 0.27488 0.0
H2307 H 0.14876 0.73237 0.11373 0.0
H2308 H 0.52873 0.83864 0.43159 0.0
H2309 H 0.5312 0.86932 0.44627 0.0
H2310 H 0.5043 0.84874 0.49162 0.0
H2311 H 0.50136 0.81746 0.47651 0.0
H2312 H 0.49112 0.87767 0.48225 0.0
H2313 H 0.55182 0.86833 0.49591 0.0
H2314 H 0.58095 0.85986 0.48966 0.0
H2315 H 0.58916 0.90037 0.45217 0.0
H2316 H 0.55995 0.90891 0.45799 0.0
H2317 H 0.51029 0.96807 0.53168 0.0
H2318 H 0.50769 0.93564 0.52201 0.0
H2319 H 0.53657 0.94828 0.47518 0.0
H2320 H 0.53937 0.98059 0.4849 0.0
H2321 H 0.54907 0.92246 0.48853 0.0
H2322 H 0.48745 0.92941 0.47178 0.0
H2323 H 0.4581 0.93792 0.47698 0.0
H2324 H 0.45209 0.90283 0.51995 0.0
H2325 H 0.48138 0.894 0.51486 0.0
C2326 C 0.52347 0.84042 0.44483 0.0
C2327 C 0.51494 0.8252 0.45279 0.0
C2328 C 0.525 0.85822 0.45334 0.0
C2329 C 0.51823 0.86177 0.47037 0.0
C2330 C 0.5098 0.84664 0.47857 0.0
C2331 C 0.50828 0.82862 0.46999 0.0
C2332 C 0.51963 0.88125 0.479 0.0
C2333 C 0.50392 0.88731 0.48393 0.0
C2334 C 0.53612 0.89435 0.48093 0.0
C2335 C 0.55362 0.88915 0.47728 0.0
C2336 C 0.55976 0.87533 0.48622 0.0
C2337 C 0.5763 0.87053 0.48277 0.0
C2338 C 0.58688 0.87954 0.47049 0.0
C2339 C 0.58095 0.89339 0.46165 0.0
C2340 C 0.56441 0.89822 0.46504 0.0
C2341 C 0.51593 0.96401 0.5192 0.0
C2342 C 0.52492 0.97726 0.50908 0.0
C2343 C 0.51439 0.94528 0.51359 0.0
C2344 C 0.52172 0.93907 0.49759 0.0
C2345 C 0.53073 0.95234 0.48754 0.0
C2346 C 0.53228 0.97101 0.49314 0.0
C2347 C 0.52052 0.91897 0.49145 0.0
C2348 C 0.53629 0.91279 0.48697 0.0
C2349 C 0.50411 0.90583 0.48986 0.0
C2350 C 0.48662 0.91117 0.49305 0.0
C2351 C 0.4799 0.92359 0.4824 0.0
C2352 C 0.46326 0.92843 0.4853 0.0
C2353 C 0.45325 0.92096 0.49883 0.0
C2354 C 0.45985 0.90859 0.50946 0.0
C2355 C 0.47643 0.90361 0.50653 0.0
H2356 H 0.44038 0.92474 0.50105 0.0
H2357 H 0.59969 0.87582 0.46785 0.0
H2358 H 0.52185 0.28144 0.65975 0.0
H2359 H 0.49687 0.27926 0.67917 0.0
H2360 H 0.46153 0.29177 0.63407 0.0
H2361 H 0.4863 0.29357 0.61439 0.0
H2362 H 0.45877 0.31029 0.67085 0.0
H2363 H 0.45601 0.25116 0.63927 0.0
H2364 H 0.46815 0.22428 0.62869 0.0
H2365 H 0.48165 0.21549 0.68534 0.0
H2366 H 0.46992 0.24258 0.69627 0.0
H2367 H 0.37367 0.27468 0.70704 0.0
H2368 H 0.39822 0.28398 0.68798 0.0
H2369 H 0.43578 0.26443 0.72589 0.0
H2370 H 0.41167 0.25558 0.74507 0.0
H2371 H 0.43639 0.25011 0.69095 0.0
H2372 H 0.43836 0.30933 0.72257 0.0
H2373 H 0.42758 0.33716 0.7328 0.0
H2374 H 0.41552 0.34616 0.67599 0.0
H2375 H 0.4259 0.31819 0.66539 0.0
C2376 C 0.50883 0.28393 0.654 0.0
C2377 C 0.5061 0.28761 0.63546 0.0
C2378 C 0.49455 0.28265 0.66513 0.0
C2379 C 0.47729 0.28533 0.65808 0.0
C2380 C 0.47471 0.2897 0.63983 0.0
C2381 C 0.48888 0.29062 0.62857 0.0
C2382 C 0.46172 0.28244 0.6694 0.0
C2383 C 0.45367 0.2971 0.67508 0.0
C2384 C 0.45522 0.26529 0.67508 0.0
C2385 C 0.46231 0.24903 0.66858 0.0
C2386 C 0.46176 0.24362 0.64947 0.0
C2387 C 0.46853 0.22833 0.64341 0.0
C2388 C 0.47572 0.21821 0.65633 0.0
C2389 C 0.47612 0.22337 0.67535 0.0
C2390 C 0.46942 0.23869 0.68148 0.0
C2391 C 0.38724 0.27272 0.71153 0.0
C2392 C 0.39052 0.26401 0.72747 0.0
C2393 C 0.40129 0.27801 0.70057 0.0
C2394 C 0.41889 0.27475 0.70536 0.0
C2395 C 0.42232 0.26691 0.72173 0.0
C2396 C 0.40842 0.26175 0.73266 0.0
C2397 C 0.43349 0.27805 0.69283 0.0
C2398 C 0.44137 0.26336 0.68678 0.0
C2399 C 0.43973 0.29518 0.68681 0.0
C2400 C 0.43269 0.31152 0.69318 0.0
C2401 C 0.43313 0.31707 0.71225 0.0
C2402 C 0.42716 0.33291 0.71811 0.0
C2403 C 0.42087 0.34341 0.70504 0.0
C2404 C 0.42038 0.338 0.68609 0.0
C2405 C 0.42629 0.32215 0.68015 0.0
H2406 H 0.4165 0.3558 0.70957 0.0
H2407 H 0.48094 0.20636 0.65161 0.0
H2408 H 0.03477 0.79246 0.64421 0.0
H2409 H 0.03635 0.8171 0.62437 0.0
H2410 H 0.02298 0.85219 0.66899 0.0
H2411 H 0.02188 0.82785 0.68906 0.0
H2412 H 1.00281 0.85185 0.63144 0.0
H2413 H 0.06361 0.85891 0.66358 0.0
H2414 H 0.0917 0.84814 0.67323 0.0
H2415 H 0.09989 0.83685 0.61607 0.0
H2416 H 0.07163 0.84725 0.60608 0.0
H2417 H 0.02893 0.94179 0.6115 0.0
H2418 H 0.02345 0.91275 0.62413 0.0
H2419 H 0.04947 0.88908 0.58037 0.0
H2420 H 0.05508 0.91841 0.56767 0.0
H2421 H 0.06242 0.88094 0.61391 0.0
H2422 H 1.00408 0.87601 0.58109 0.0
H2423 H 0.97555 0.88531 0.57008 0.0
H2424 H 0.96197 0.89084 0.62599 0.0
H2425 H 0.99057 0.88183 0.63739 0.0
C2426 C 0.03204 0.80538 0.64976 0.0
C2427 C 0.02821 0.80818 0.66825 0.0
C2428 C 0.033 0.81946 0.63841 0.0
C2429 C 0.02979 0.83649 0.6452 0.0
C2430 C 0.02547 0.83916 0.66345 0.0
C2431 C 0.02491 0.82524 0.67493 0.0
C2432 C 0.03147 0.85174 0.63352 0.0
C2433 C 0.01584 0.85832 0.62771 0.0
C2434 C 0.04837 0.85976 0.6281 0.0
C2435 C 0.06539 0.85362 0.63408 0.0
C2436 C 0.0713 0.85394 0.65307 0.0
C2437 C 0.08727 0.84794 0.6586 0.0
C2438 C 0.09755 0.84176 0.64527 0.0
C2439 C 0.09189 0.84161 0.62638 0.0
C2440 C 0.0759 0.84755 0.62077 0.0
C2441 C 0.03326 0.93034 0.60441 0.0
C2442 C 0.04246 0.93241 0.5886 0.0
C2443 C 0.03006 0.91368 0.6116 0.0
C2444 C 0.03596 0.89861 0.60321 0.0
C2445 C 0.04476 0.90048 0.58711 0.0
C2446 C 0.04783 0.91719 0.57976 0.0
C2447 C 0.03376 0.88136 0.61202 0.0
C2448 C 0.0493 0.87439 0.61737 0.0
C2449 C 0.01672 0.87283 0.61682 0.0
C2450 C 0.99955 0.87839 0.61011 0.0
C2451 C 0.9951 0.87937 0.59107 0.0
C2452 C 0.97889 0.88456 0.58475 0.0
C2453 C 0.96697 0.88871 0.59733 0.0
C2454 C 0.97123 0.88764 0.61626 0.0
C2455 C 0.98742 0.88248 0.62266 0.0
H2456 H 0.95443 0.89271 0.59241 0.0
H2457 H 0.10992 0.83713 0.64957 0.0
H2458 H 0.48481 0.81902 0.87311 0.0
H2459 H 0.45289 0.81599 0.86013 0.0
H2460 H 0.46397 0.78805 0.80944 0.0
H2461 H 0.4958 0.79027 0.82286 0.0
H2462 H 0.44137 0.81758 0.80523 0.0
H2463 H 0.44284 0.76319 0.83478 0.0
H2464 H 0.44993 0.74626 0.86098 0.0
H2465 H 0.41679 0.7738 0.89397 0.0
H2466 H 0.40972 0.7911 0.86803 0.0
H2467 H 0.34772 0.79268 0.76607 0.0
H2468 H 0.3801 0.79511 0.77617 0.0
H2469 H 0.36871 0.79537 0.83317 0.0
H2470 H 0.33619 0.79107 0.82271 0.0
H2471 H 0.39283 0.77928 0.83317 0.0
H2472 H 0.39409 0.83633 0.80858 0.0
H2473 H 0.38812 0.85691 0.78549 0.0
H2474 H 0.41562 0.82876 0.74654 0.0
H2475 H 0.42219 0.80829 0.76971 0.0
C2476 C 0.48054 0.8124 0.8591 0.0
C2477 C 0.49327 0.80565 0.84877 0.0
C2478 C 0.46218 0.81064 0.85167 0.0
C2479 C 0.45578 0.80196 0.83362 0.0
C2480 C 0.46842 0.79505 0.82327 0.0
C2481 C 0.48676 0.79653 0.83088 0.0
C2482 C 0.43586 0.79961 0.82598 0.0
C2483 C 0.43077 0.80901 0.81119 0.0
C2484 C 0.42173 0.78898 0.83399 0.0
C2485 C 0.42591 0.77856 0.84954 0.0
C2486 C 0.4372 0.76575 0.84768 0.0
C2487 C 0.44118 0.75606 0.86247 0.0
C2488 C 0.43385 0.75898 0.87915 0.0
C2489 C 0.42248 0.77157 0.88105 0.0
C2490 C 0.41847 0.7813 0.86631 0.0
C2491 C 0.35214 0.79334 0.78078 0.0
C2492 C 0.33915 0.79164 0.7935 0.0
C2493 C 0.37092 0.79499 0.7867 0.0
C2494 C 0.37762 0.79591 0.80572 0.0
C2495 C 0.36448 0.79461 0.81842 0.0
C2496 C 0.34568 0.79226 0.81242 0.0
C2497 C 0.39793 0.79759 0.81243 0.0
C2498 C 0.40322 0.78798 0.8271 0.0
C2499 C 0.41223 0.80848 0.80466 0.0
C2500 C 0.40841 0.82069 0.79074 0.0
C2501 C 0.39879 0.83451 0.79506 0.0
C2502 C 0.39533 0.84616 0.78196 0.0
C2503 C 0.40126 0.84401 0.76443 0.0
C2504 C 0.41095 0.83036 0.76008 0.0
C2505 C 0.41466 0.81881 0.77324 0.0
H2506 H 0.39845 0.85299 0.75426 0.0
H2507 H 0.43695 0.75146 0.89058 0.0
H2508 H 0.53142 0.22133 0.14069 0.0
H2509 H 0.53507 0.19488 0.12101 0.0
H2510 H 0.4957 0.16114 0.14841 0.0
H2511 H 0.49384 0.18773 0.16981 0.0
H2512 H 0.51947 0.14382 0.1444 0.0
H2513 H 0.49071 0.16385 0.07846 0.0
H2514 H 0.49257 0.18433 0.05392 0.0
H2515 H 0.5495 0.2034 0.07165 0.0
H2516 H 0.5482 0.18204 0.09528 0.0
H2517 H 0.50535 0.06251 0.08046 0.0
H2518 H 0.50289 0.08988 0.10042 0.0
H2519 H 0.5438 0.12159 0.07298 0.0
H2520 H 0.5458 0.09462 0.05285 0.0
H2521 H 0.52045 0.13982 0.07628 0.0
H2522 H 0.55079 0.10986 0.1195 0.0
H2523 H 0.55652 0.08476 0.13705 0.0
H2524 H 0.50713 0.08524 0.16188 0.0
H2525 H 0.50094 0.11017 0.1442 0.0
C2526 C 0.52335 0.20827 0.14235 0.0
C2527 C 0.51219 0.20671 0.15673 0.0
C2528 C 0.52511 0.19297 0.13061 0.0
C2529 C 0.51517 0.17557 0.13223 0.0
C2530 C 0.50363 0.17418 0.14649 0.0
C2531 C 0.50244 0.18943 0.15877 0.0
C2532 C 0.51782 0.15864 0.12055 0.0
C2533 C 0.51932 0.14304 0.12944 0.0
C2534 C 0.51895 0.15728 0.10102 0.0
C2535 C 0.51905 0.17239 0.08959 0.0
C2536 C 0.50349 0.17283 0.07747 0.0
C2537 C 0.50455 0.18424 0.06341 0.0
C2538 C 0.52103 0.1955 0.06153 0.0
C2539 C 0.53663 0.19499 0.07337 0.0
C2540 C 0.53577 0.18313 0.08699 0.0
C2541 C 0.5138 0.07535 0.07873 0.0
C2542 C 0.52551 0.07635 0.06477 0.0
C2543 C 0.5125 0.09104 0.09027 0.0
C2544 C 0.52319 0.10805 0.08843 0.0
C2545 C 0.53516 0.10885 0.07471 0.0
C2546 C 0.53626 0.09332 0.06307 0.0
C2547 C 0.52159 0.12519 0.10009 0.0
C2548 C 0.5203 0.14065 0.09124 0.0
C2549 C 0.52164 0.12665 0.11964 0.0
C2550 C 0.52529 0.11174 0.13037 0.0
C2551 C 0.54107 0.10452 0.12859 0.0
C2552 C 0.54442 0.09034 0.13858 0.0
C2553 C 0.53217 0.08338 0.15054 0.0
C2554 C 0.51658 0.09062 0.15258 0.0
C2555 C 0.51314 0.10478 0.14258 0.0
H2556 H 0.53479 0.0724 0.15827 0.0
H2557 H 0.52176 0.20443 0.05075 0.0
H2558 H 0.09923 0.33869 0.33661 0.0
H2559 H 0.1287 0.33592 0.32665 0.0
H2560 H 0.12238 0.28207 0.34333 0.0
H2561 H 0.09345 0.28554 0.35473 0.0
H2562 H 0.15494 0.2926 0.34879 0.0
H2563 H 0.11716 0.29604 0.29336 0.0
H2564 H 0.09632 0.3084 0.27202 0.0
H2565 H 0.13648 0.35712 0.2738 0.0
H2566 H 0.15747 0.34514 0.29534 0.0
H2567 H 0.22313 0.26682 0.29619 0.0
H2568 H 0.19453 0.27082 0.30715 0.0
H2569 H 0.20771 0.3278 0.30136 0.0
H2570 H 0.23625 0.3235 0.28922 0.0
H2571 H 0.17218 0.31567 0.29027 0.0
H2572 H 0.21055 0.30812 0.3454 0.0
H2573 H 0.23023 0.29176 0.36364 0.0
H2574 H 0.18658 0.24552 0.35866 0.0
H2575 H 0.16673 0.2615 0.34017 0.0
C2576 C 0.10413 0.32627 0.33833 0.0
C2577 C 0.09366 0.31238 0.34661 0.0
C2578 C 0.12109 0.32452 0.33227 0.0
C2579 C 0.12809 0.30846 0.33338 0.0
C2580 C 0.11774 0.29467 0.342 0.0
C2581 C 0.10098 0.29665 0.3486 0.0
C2582 C 0.14607 0.30614 0.32584 0.0
C2583 C 0.15839 0.2975 0.33583 0.0
C2584 C 0.15138 0.31249 0.30895 0.0
C2585 C 0.13879 0.31977 0.2961 0.0
C2586 C 0.12148 0.30944 0.28929 0.0
C2587 C 0.10966 0.31637 0.27715 0.0
C2588 C 0.11505 0.33355 0.2716 0.0
C2589 C 0.1323 0.34382 0.27814 0.0
C2590 C 0.14417 0.33697 0.2903 0.0
C2591 C 0.21996 0.28018 0.29683 0.0
C2592 C 0.23223 0.29466 0.2913 0.0
C2593 C 0.2035 0.28257 0.30353 0.0
C2594 C 0.19862 0.29973 0.30558 0.0
C2595 C 0.21083 0.31434 0.30008 0.0
C2596 C 0.22734 0.31187 0.29314 0.0
C2597 C 0.18088 0.30226 0.31325 0.0
C2598 C 0.16863 0.31088 0.30325 0.0
C2599 C 0.17539 0.29537 0.3298 0.0
C2600 C 0.1872 0.28598 0.34132 0.0
C2601 C 0.20518 0.29445 0.34815 0.0
C2602 C 0.21636 0.28524 0.35853 0.0
C2603 C 0.20967 0.2676 0.36229 0.0
C2604 C 0.19175 0.25917 0.35574 0.0
C2605 C 0.18052 0.26831 0.34533 0.0
H2606 H 0.21836 0.26049 0.3703 0.0
H2607 H 0.10588 0.33889 0.26219 0.0
H2608 H 0.92332 1.00006 0.19919 0.0
H2609 H 0.93503 1.00257 0.16907 0.0
H2610 H 0.98269 0.04022 0.19576 0.0
H2611 H 0.97123 0.03746 0.22601 0.0
H2612 H 0.96721 0.05142 0.16257 0.0
H2613 H 0.98716 0.99941 0.183 0.0
H2614 H 0.9839 0.96959 0.19475 0.0
H2615 H 0.94751 0.94548 0.14601 0.0
H2616 H 0.95029 0.97525 0.13412 0.0
H2617 H 0.02206 0.05143 0.08891 0.0
H2618 H 0.00979 0.04896 0.11833 0.0
H2619 H 0.96602 1.00652 0.09176 0.0
H2620 H 0.97879 0.00867 0.06217 0.0
H2621 H 0.97929 0.99752 0.12497 0.0
H2622 H 0.95994 0.04948 0.10408 0.0
H2623 H 0.96375 0.07913 0.0921 0.0
H2624 H 0.99868 0.10358 0.14169 0.0
H2625 H 0.9956 0.07386 0.15372 0.0
C2626 C 0.9363 0.00888 0.19869 0.0
C2627 C 0.94634 0.0185 0.21512 0.0
C2628 C 0.94302 0.01028 0.18141 0.0
C2629 C 0.95982 0.02154 0.18002 0.0
C2630 C 0.96971 0.03143 0.19637 0.0
C2631 C 0.96316 0.02978 0.2137 0.0
C2632 C 0.96709 0.02286 0.16158 0.0
C2633 C 0.97006 0.03967 0.15447 0.0
C2634 C 0.97048 0.00751 0.15069 0.0
C2635 C 0.96875 0.9896 0.15779 0.0
C2636 C 0.9783 0.98779 0.17488 0.0
C2637 C 0.97657 0.97089 0.18155 0.0
C2638 C 0.96545 0.95566 0.17116 0.0
C2639 C 0.95608 0.9573 0.15406 0.0
C2640 C 0.95773 0.97418 0.14735 0.0
C2641 C 0.01022 0.04118 0.08928 0.0
C2642 C 1.00225 0.02958 0.07313 0.0
C2643 C 1.00288 0.04002 0.1062 0.0
C2644 C 0.98697 0.02742 0.10754 0.0
C2645 C 0.97847 0.0162 0.09131 0.0
C2646 C 0.98585 0.01744 0.07429 0.0
C2647 C 0.97932 0.02608 0.12584 0.0
C2648 C 0.97636 0.00927 0.13299 0.0
C2649 C 0.97592 0.04145 0.13677 0.0
C2650 C 0.97766 0.0594 0.12973 0.0
C2651 C 0.96856 0.06114 0.11238 0.0
C2652 C 0.97058 0.07797 0.10558 0.0
C2653 C 0.9814 0.09327 0.11615 0.0
C2654 C 0.99029 0.09172 0.13352 0.0
C2655 C 0.98844 0.07487 0.14032 0.0
H2656 H 0.98291 0.10631 0.11088 0.0
H2657 H 0.96415 0.94258 0.17634 0.0
H2658 H 0.3014 0.66795 0.50103 0.0
H2659 H 0.30442 0.68647 0.47523 0.0
H2660 H 0.25411 0.65434 0.44651 0.0
H2661 H 0.25217 0.63498 0.47114 0.0
H2662 H 0.27539 0.66064 0.42295 0.0
H2663 H 0.26046 0.69993 0.47592 0.0
H2664 H 0.26754 0.71696 0.50728 0.0
H2665 H 0.31786 0.74543 0.49223 0.0
H2666 H 0.31111 0.72847 0.46084 0.0
H2667 H 0.22464 0.71884 0.37959 0.0
H2668 H 0.23746 0.70155 0.40244 0.0
H2669 H 0.29168 0.72852 0.39562 0.0
H2670 H 0.27895 0.74639 0.37311 0.0
H2671 H 0.27852 0.72695 0.43488 0.0
H2672 H 0.29558 0.6765 0.38692 0.0
H2673 H 0.2879 0.65745 0.35666 0.0
H2674 H 0.23099 0.65122 0.36279 0.0
H2675 H 0.23846 0.66957 0.39349 0.0
C2676 C 0.29117 0.66483 0.48903 0.0
C2677 C 0.27649 0.65017 0.488 0.0
C2678 C 0.29282 0.67546 0.47442 0.0
C2679 C 0.27934 0.672 0.45908 0.0
C2680 C 0.26478 0.65723 0.45812 0.0
C2681 C 0.26357 0.64621 0.47228 0.0
C2682 C 0.27972 0.6837 0.44398 0.0
C2683 C 0.27614 0.67515 0.42566 0.0
C2684 C 0.28142 0.70275 0.44731 0.0
C2685 C 0.28539 0.71282 0.46617 0.0
C2686 C 0.27307 0.70976 0.47936 0.0
C2687 C 0.27701 0.7194 0.49712 0.0
C2688 C 0.29316 0.73222 0.50176 0.0
C2689 C 0.30538 0.73547 0.48864 0.0
C2690 C 0.3015 0.72586 0.47087 0.0
C2691 C 0.23926 0.72125 0.38313 0.0
C2692 C 0.2508 0.734 0.37474 0.0
C2693 C 0.24656 0.71115 0.39585 0.0
C2694 C 0.26545 0.71354 0.40019 0.0
C2695 C 0.27706 0.72638 0.39208 0.0
C2696 C 0.26978 0.73655 0.37935 0.0
C2697 C 0.27274 0.70351 0.41439 0.0
C2698 C 0.27814 0.71248 0.43234 0.0
C2699 C 0.27229 0.6848 0.4109 0.0
C2700 C 0.26754 0.67479 0.39213 0.0
C2701 C 0.28144 0.67117 0.3817 0.0
C2702 C 0.27714 0.66033 0.36461 0.0
C2703 C 0.25897 0.65332 0.35771 0.0
C2704 C 0.24505 0.65684 0.36806 0.0
C2705 C 0.24931 0.66739 0.38534 0.0
H2706 H 0.25574 0.64511 0.3444 0.0
H2707 H 0.29619 0.73967 0.51551 0.0
H2708 H 0.62819 0.02409 0.71728 0.0
H2709 H 0.61091 0.02149 0.68688 0.0
H2710 H 0.65902 0.04706 0.66465 0.0
H2711 H 0.67646 0.05022 0.69542 0.0
H2712 H 0.63085 0.06212 0.65506 0.0
H2713 H 0.64163 1.00161 0.65343 0.0
H2714 H 0.64246 0.9721 0.66497 0.0
H2715 H 0.58455 0.96251 0.66595 0.0
H2716 H 0.5834 0.99208 0.65467 0.0
H2717 H 0.57619 0.01228 0.56312 0.0
H2718 H 0.59806 0.01422 0.59041 0.0
H2719 H 0.57159 0.05244 0.61972 0.0
H2720 H 0.55007 0.05131 0.59198 0.0
H2721 H 0.59141 1.00513 0.62382 0.0
H2722 H 0.59514 0.07821 0.64382 0.0
H2723 H 0.59729 0.10765 0.63118 0.0
H2724 H 0.6313 0.0909 0.59148 0.0
H2725 H 0.62861 0.06109 0.60338 0.0
C2726 C 0.63519 0.029 0.70591 0.0
C2727 C 0.65366 0.0374 0.70867 0.0
C2728 C 0.6253 0.0274 0.68852 0.0
C2729 C 0.63378 0.03388 0.67355 0.0
C2730 C 0.65232 0.04193 0.67612 0.0
C2731 C 0.66224 0.04368 0.69362 0.0
C2732 C 0.62286 0.03324 0.65556 0.0
C2733 C 0.62236 0.04961 0.64816 0.0
C2734 C 0.61183 0.01693 0.64658 0.0
C2735 C 0.61246 0.99912 0.65333 0.0
C2736 C 0.62909 0.99327 0.65624 0.0
C2737 C 0.62961 0.97652 0.66271 0.0
C2738 C 0.61357 0.96545 0.66623 0.0
C2739 C 0.59697 0.9711 0.66323 0.0
C2740 C 0.59637 0.98784 0.65678 0.0
C2741 C 0.57513 0.02131 0.57524 0.0
C2742 C 0.56154 0.03179 0.57539 0.0
C2743 C 0.58761 0.02235 0.59083 0.0
C2744 C 0.5866 0.03373 0.60685 0.0
C2745 C 0.57285 0.04397 0.60723 0.0
C2746 C 0.56043 0.0431 0.59152 0.0
C2747 C 0.59935 0.03398 0.62349 0.0
C2748 C 0.60006 0.01755 0.63069 0.0
C2749 C 0.61079 0.05011 0.63213 0.0
C2750 C 0.61154 0.0675 0.62433 0.0
C2751 C 0.60288 0.0808 0.63226 0.0
C2752 C 0.60412 0.09748 0.62517 0.0
C2753 C 0.61431 0.10109 0.61043 0.0
C2754 C 0.62323 0.088 0.60273 0.0
C2755 C 0.62169 0.07116 0.60949 0.0
H2756 H 0.61537 0.11406 0.60504 0.0
H2757 H 0.61401 0.95249 0.67124 0.0
H2758 H 0.30005 0.34168 0.98635 0.0
H2759 H 0.2987 0.3249 0.95532 0.0
H2760 H 0.2879 0.37173 0.93 0.0
H2761 H 0.28889 0.38821 0.96044 0.0
H2762 H 0.26608 0.34267 0.9132 0.0
H2763 H 0.33056 0.35916 0.93312 0.0
H2764 H 0.35812 0.35936 0.95452 0.0
H2765 H 0.34914 0.30125 0.94527 0.0
H2766 H 0.32136 0.30069 0.92401 0.0
H2767 H 0.28002 0.32637 0.81941 0.0
H2768 H 0.28272 0.33858 0.852 0.0
H2769 H 0.298 0.28954 0.86831 0.0
H2770 H 0.29586 0.27745 0.8355 0.0
H2771 H 0.31679 0.31609 0.89127 0.0
H2772 H 0.25376 0.30085 0.86799 0.0
H2773 H 0.22414 0.30064 0.85054 0.0
H2774 H 0.22877 0.35728 0.86868 0.0
H2775 H 0.25917 0.35818 0.88505 0.0
C2776 C 0.29718 0.34829 0.97415 0.0
C2777 C 0.29459 0.36636 0.97605 0.0
C2778 C 0.29661 0.33875 0.95639 0.0
C2779 C 0.29342 0.34706 0.94016 0.0
C2780 C 0.29044 0.36491 0.94215 0.0
C2781 C 0.29103 0.37438 0.95972 0.0
C2782 C 0.29266 0.33746 0.92096 0.0
C2783 C 0.27731 0.33711 0.90832 0.0
C2784 C 0.30696 0.32952 0.91469 0.0
C2785 C 0.32382 0.32987 0.92713 0.0
C2786 C 0.33442 0.34642 0.93574 0.0
C2787 C 0.35008 0.3466 0.94783 0.0
C2788 C 0.35536 0.33032 0.95129 0.0
C2789 C 0.34502 0.31384 0.9426 0.0
C2790 C 0.32933 0.31358 0.93051 0.0
C2791 C 0.284 0.31813 0.82988 0.0
C2792 C 0.28758 0.30081 0.82467 0.0
C2793 C 0.28546 0.32514 0.84865 0.0
C2794 C 0.29014 0.31491 0.86293 0.0
C2795 C 0.29425 0.29779 0.85775 0.0
C2796 C 0.293 0.29084 0.8389 0.0
C2797 C 0.29036 0.32198 0.8831 0.0
C2798 C 0.30555 0.32172 0.89599 0.0
C2799 C 0.27593 0.32964 0.88964 0.0
C2800 C 0.25875 0.32955 0.87781 0.0
C2801 C 0.24869 0.31336 0.8679 0.0
C2802 C 0.23169 0.31313 0.85824 0.0
C2803 C 0.22435 0.32886 0.85896 0.0
C2804 C 0.23441 0.34508 0.86835 0.0
C2805 C 0.25161 0.3455 0.87763 0.0
H2806 H 0.21078 0.32854 0.85253 0.0
H2807 H 0.36748 0.33049 0.96067 0.0
H2808 H 0.97072 0.02989 0.31366 0.0
H2809 H 0.98867 0.0329 0.34427 0.0
H2810 H 0.93912 0.01953 0.36951 0.0
H2811 H 0.92139 0.0179 0.33971 0.0
H2812 H 0.95941 0.04397 0.39118 0.0
H2813 H 0.97232 0.98857 0.35759 0.0
H2814 H 0.98452 0.97268 0.33189 0.0
H2815 H 0.03662 0.0081 0.3464 0.0
H2816 H 0.02467 0.02426 0.37207 0.0
H2817 H 0.98554 0.01786 0.47728 0.0
H2818 H 0.97336 0.01741 0.44489 0.0
H2819 H 0.02799 0.03007 0.42998 0.0
H2820 H 0.04018 0.02909 0.46238 0.0
H2821 H 1.00903 0.00997 0.40263 0.0
H2822 H 0.99881 0.06362 0.43673 0.0
H2823 H 0.98852 0.08131 0.46244 0.0
H2824 H 0.93362 0.05232 0.44682 0.0
H2825 H 0.94362 0.03437 0.42105 0.0
C2826 C 0.96369 0.02776 0.32578 0.0
C2827 C 0.94453 0.02358 0.324 0.0
C2828 C 0.97399 0.02929 0.34333 0.0
C2829 C 0.96539 0.02609 0.35943 0.0
C2830 C 0.94628 0.02213 0.35755 0.0
C2831 C 0.93607 0.0211 0.34027 0.0
C2832 C 0.97576 0.02682 0.37835 0.0
C2833 C 0.97012 0.03634 0.3936 0.0
C2834 C 0.99041 0.01767 0.38178 0.0
C2835 C 0.99757 0.00767 0.36661 0.0
C2836 C 0.98636 0.99296 0.35525 0.0
C2837 C 0.99323 0.98393 0.3407 0.0
C2838 C 0.01132 0.9894 0.33749 0.0
C2839 C 0.02261 1.00388 0.34888 0.0
C2840 C 0.01581 0.01296 0.36344 0.0
C2841 C 0.99495 0.02041 0.46705 0.0
C2842 C 0.01381 0.02379 0.47239 0.0
C2843 C 0.98798 0.02033 0.4485 0.0
C2844 C 0.99966 0.02447 0.43488 0.0
C2845 C 0.01858 0.02707 0.4401 0.0
C2846 C 0.02557 0.02654 0.45865 0.0
C2847 C 0.99206 0.02641 0.41544 0.0
C2848 C 0.99832 0.01759 0.40017 0.0
C2849 C 0.97815 0.03646 0.41191 0.0
C2850 C 0.97198 0.0476 0.42703 0.0
C2851 C 0.98455 0.06101 0.4388 0.0
C2852 C 0.97877 0.07108 0.45339 0.0
C2853 C 0.96043 0.06792 0.4563 0.0
C2854 C 0.94782 0.05476 0.44455 0.0
C2855 C 0.95352 0.04467 0.42991 0.0
H2856 H 0.956 0.07569 0.46765 0.0
H2857 H 0.01661 0.98241 0.3262 0.0
H2858 H 0.29662 0.69003 0.58417 0.0
H2859 H 0.29816 0.70717 0.61453 0.0
H2860 H 0.28066 0.65752 0.63819 0.0
H2861 H 0.27853 0.64024 0.60763 0.0
H2862 H 0.26145 0.6824 0.64805 0.0
H2863 H 0.32495 0.68062 0.64712 0.0
H2864 H 0.35405 0.68444 0.63366 0.0
H2865 H 0.35435 0.74123 0.63266 0.0
H2866 H 0.32514 0.73769 0.64589 0.0
H2867 H 0.30791 0.73999 0.73968 0.0
H2868 H 0.30792 0.71864 0.71239 0.0
H2869 H 0.26583 0.74045 0.6829 0.0
H2870 H 0.26538 0.76165 0.71033 0.0
H2871 H 0.3156 0.72734 0.67794 0.0
H2872 H 0.23978 0.71077 0.65805 0.0
H2873 H 0.21106 0.70554 0.67229 0.0
H2874 H 0.23712 0.68256 0.7168 0.0
H2875 H 0.26606 0.68808 0.70302 0.0
C2876 C 0.29338 0.68272 0.59588 0.0
C2877 C 0.28748 0.66383 0.59362 0.0
C2878 C 0.29429 0.69252 0.6132 0.0
C2879 C 0.28967 0.68353 0.62853 0.0
C2880 C 0.28427 0.66462 0.62644 0.0
C2881 C 0.28317 0.6548 0.60905 0.0
C2882 C 0.28963 0.69403 0.64654 0.0
C2883 C 0.27334 0.69211 0.65465 0.0
C2884 C 0.30515 0.70666 0.65511 0.0
C2885 C 0.32283 0.70886 0.64739 0.0
C2886 C 0.33119 0.69389 0.64394 0.0
C2887 C 0.3477 0.69601 0.63636 0.0
C2888 C 0.35603 0.71306 0.63228 0.0
C2889 C 0.34789 0.72804 0.63582 0.0
C2890 C 0.33137 0.72599 0.64339 0.0
C2891 C 0.29858 0.74019 0.72743 0.0
C2892 C 0.28668 0.75247 0.72703 0.0
C2893 C 0.29862 0.72801 0.71191 0.0
C2894 C 0.28673 0.72794 0.69588 0.0
C2895 C 0.27487 0.74021 0.69536 0.0
C2896 C 0.2748 0.75241 0.7109 0.0
C2897 C 0.28749 0.71567 0.6793 0.0
C2898 C 0.30383 0.71743 0.67139 0.0
C2899 C 0.27215 0.70276 0.67105 0.0
C2900 C 0.25497 0.69981 0.67955 0.0
C2901 C 0.23933 0.70462 0.67088 0.0
C2902 C 0.22306 0.70167 0.6789 0.0
C2903 C 0.22225 0.69369 0.69542 0.0
C2904 C 0.23776 0.68875 0.70402 0.0
C2905 C 0.25412 0.69192 0.69621 0.0
H2906 H 0.20964 0.69136 0.70158 0.0
H2907 H 0.36881 0.71467 0.62639 0.0
H2908 H 0.63901 0.03462 0.79399 0.0
H2909 H 0.61901 0.03318 0.81824 0.0
H2910 H 0.66541 0.04147 0.86004 0.0
H2911 H 0.68582 0.04309 0.83581 0.0
H2912 H 0.63446 0.01419 0.86553 0.0
H2913 H 0.65012 0.07607 0.85329 0.0
H2914 H 0.654 0.10111 0.83377 0.0
H2915 H 0.59678 0.08883 0.81486 0.0
H2916 H 0.59261 0.06347 0.83399 0.0
H2917 H 0.5969 0.05556 0.94158 0.0
H2918 H 0.61433 0.04457 0.91804 0.0
H2919 H 0.56767 0.03772 0.87675 0.0
H2920 H 0.54991 0.04849 0.90038 0.0
H2921 H 0.59853 0.06296 0.87087 0.0
H2922 H 0.58806 0.99439 0.8734 0.0
H2923 H 0.58579 0.96736 0.89029 0.0
H2924 H 0.63267 0.99363 0.9281 0.0
H2925 H 0.63555 0.02052 0.91096 0.0
C2926 C 0.64505 0.03589 0.80829 0.0
C2927 C 0.66403 0.03914 0.81303 0.0
C2928 C 0.63357 0.03509 0.82208 0.0
C2929 C 0.64089 0.03744 0.84074 0.0
C2930 C 0.65969 0.03968 0.84558 0.0
C2931 C 0.67126 0.04063 0.83177 0.0
C2932 C 0.62883 0.03858 0.85514 0.0
C2933 C 0.62673 0.02494 0.86688 0.0
C2934 C 0.61862 0.05247 0.85647 0.0
C2935 C 0.62109 0.06772 0.84491 0.0
C2936 C 0.6384 0.07857 0.84481 0.0
C2937 C 0.64064 0.09285 0.83384 0.0
C2938 C 0.62565 0.09652 0.82304 0.0
C2939 C 0.60838 0.08594 0.8232 0.0
C2940 C 0.60607 0.07161 0.83411 0.0
C2941 C 0.59013 0.05113 0.92763 0.0
C2942 C 0.57212 0.05308 0.92269 0.0
C2943 C 0.60008 0.04472 0.91425 0.0
C2944 C 0.59215 0.04016 0.89581 0.0
C2945 C 0.57386 0.04102 0.89104 0.0
C2946 C 0.56386 0.0474 0.90444 0.0
C2947 C 0.60392 0.0384 0.88117 0.0
C2948 C 0.60613 0.05211 0.86943 0.0
C2949 C 0.61431 0.02471 0.87991 0.0
C2950 C 0.61182 0.00944 0.89116 0.0
C2951 C 0.59777 0.99439 0.88541 0.0
C2952 C 0.59653 0.97903 0.89485 0.0
C2953 C 0.60906 0.97878 0.91028 0.0
C2954 C 0.62295 0.99385 0.91619 0.0
C2955 C 0.62447 0.00909 0.90655 0.0
H2956 H 0.60795 0.96695 0.91768 0.0
H2957 H 0.62742 0.1076 0.81458 0.0
H2958 H 0.29621 0.39076 0.10045 0.0
H2959 H 0.29252 0.37976 0.1306 0.0
H2960 H 0.28288 0.32459 0.10451 0.0
H2961 H 0.2857 0.33561 0.07418 0.0
H2962 H 0.26185 0.3247 0.12902 0.0
H2963 H 0.3253 0.34871 0.13197 0.0
H2964 H 0.35308 0.37128 0.1302 0.0
H2965 H 0.33871 0.40666 0.17366 0.0
H2966 H 0.3107 0.3844 0.1755 0.0
H2967 H 0.29014 0.28665 0.21235 0.0
H2968 H 0.29065 0.29922 0.18274 0.0
H2969 H 0.27149 0.34561 0.20646 0.0
H2970 H 0.26977 0.33248 0.23609 0.0
H2971 H 0.30638 0.35038 0.18415 0.0
H2972 H 0.2424 0.32324 0.18059 0.0
H2973 H 0.21625 0.29849 0.18158 0.0
H2974 H 0.23476 0.26598 0.13854 0.0
H2975 H 0.26117 0.29047 0.13747 0.0
C2976 C 0.29325 0.37627 0.1011 0.0
C2977 C 0.29133 0.3641 0.08479 0.0
C2978 C 0.29129 0.36994 0.11848 0.0
C2979 C 0.28781 0.35123 0.12021 0.0
C2980 C 0.28561 0.33907 0.10382 0.0
C2981 C 0.28727 0.34541 0.08639 0.0
C2982 C 0.28634 0.34433 0.13893 0.0
C2983 C 0.27177 0.33029 0.14094 0.0
C2984 C 0.29904 0.35153 0.15486 0.0
C2985 C 0.3158 0.36499 0.15371 0.0
C2986 C 0.32799 0.36137 0.14104 0.0
C2987 C 0.34379 0.3741 0.14004 0.0
C2988 C 0.34763 0.39042 0.15177 0.0
C2989 C 0.3357 0.39403 0.16455 0.0
C2990 C 0.31986 0.38136 0.16558 0.0
C2991 C 0.28562 0.29935 0.2113 0.0
C2992 C 0.27956 0.30833 0.22671 0.0
C2993 C 0.28608 0.3066 0.19429 0.0
C2994 C 0.28101 0.32332 0.19224 0.0
C2995 C 0.2754 0.33264 0.20765 0.0
C2996 C 0.27445 0.32512 0.22461 0.0
C2997 C 0.28191 0.33101 0.17405 0.0
C2998 C 0.29646 0.34503 0.17216 0.0
C2999 C 0.26948 0.3235 0.15815 0.0
C3000 C 0.25386 0.30862 0.15909 0.0
C3001 C 0.24101 0.31074 0.17149 0.0
C3002 C 0.22608 0.29681 0.17198 0.0
C3003 C 0.2238 0.28071 0.16008 0.0
C3004 C 0.23651 0.27848 0.14771 0.0
C3005 C 0.25145 0.29239 0.14715 0.0
H3006 H 0.21225 0.26992 0.16052 0.0
H3007 H 0.35988 0.40024 0.15099 0.0
H3008 H 0.23787 0.91943 0.99751 0.0
H3009 H 0.20742 0.92534 1.00222 0.0
H3010 H 0.22934 0.98281 0.01081 0.0
H3011 H 0.25935 0.97714 0.00545 0.0
H3012 H 0.20574 0.95917 0.03971 0.0
H3013 H 0.21222 0.98059 0.97717 0.0
H3014 H 0.21723 0.97376 0.9445 0.0
H3015 H 0.17161 0.92923 0.93717 0.0
H3016 H 0.16664 0.93558 0.97 0.0
H3017 H 0.1633 0.02923 0.04722 0.0
H3018 H 0.18104 0.0099 0.03125 0.0
H3019 H 0.1332 0.96762 0.01755 0.0
H3020 H 0.11527 0.98706 0.03344 0.0
H3021 H 0.16292 0.97356 0.98942 0.0
H3022 H 0.15234 0.96026 0.05199 0.0
H3023 H 0.14913 0.97019 0.08456 0.0
H3024 H 0.20387 1.0008 0.09202 0.0
H3025 H 0.20729 0.9913 0.05938 0.0
C3026 C 0.23603 0.93328 1.00033 0.0
C3027 C 0.25071 0.94789 1.00109 0.0
C3028 C 0.21879 0.93658 1.00291 0.0
C3029 C 0.21642 0.95444 0.00658 0.0
C3030 C 0.23112 0.96897 0.0077 0.0
C3031 C 0.24815 0.96573 0.00467 0.0
C3032 C 0.19885 0.95843 0.01021 0.0
C3033 C 0.19605 0.96187 0.02877 0.0
C3034 C 0.18649 0.96187 0.99579 0.0
C3035 C 0.18924 0.95835 0.97605 0.0
C3036 C 0.2034 0.96921 0.96865 0.0
C3037 C 0.20622 0.96545 0.9501 0.0
C3038 C 0.19479 0.95102 0.93878 0.0
C3039 C 0.18049 0.94036 0.94598 0.0
C3040 C 0.17769 0.94401 0.96455 0.0
C3041 C 0.15654 0.01595 0.04049 0.0
C3042 C 0.13816 0.00933 0.04186 0.0
C3043 C 0.16656 1.00508 0.03121 0.0
C3044 C 0.15831 0.98742 0.0235 0.0
C3045 C 0.13962 0.98129 0.02342 0.0
C3046 C 0.12952 0.99228 0.03259 0.0
C3047 C 0.17005 0.97469 0.01898 0.0
C3048 C 0.17191 0.96983 1.00034 0.0
C3049 C 0.18171 0.97002 0.03338 0.0
C3050 C 0.18005 0.97506 0.05326 0.0
C3051 C 0.16368 0.96913 0.06058 0.0
C3052 C 0.16182 0.97471 0.07904 0.0
C3053 C 0.17629 0.98612 0.09035 0.0
C3054 C 0.19268 0.99194 0.08325 0.0
C3055 C 0.1946 0.98643 0.06478 0.0
H3056 H 0.1748 0.99046 0.10463 0.0
H3057 H 0.19698 0.94813 0.92442 0.0
H3058 H 0.7023 0.66285 0.98854 0.0
H3059 H 0.67385 0.64117 0.98952 0.0
H3060 H 0.70169 0.61383 0.02945 0.0
H3061 H 0.73014 0.63473 0.02749 0.0
H3062 H 0.68048 0.58959 0.00809 0.0
H3063 H 0.67177 0.64458 0.0409 0.0
H3064 H 0.67093 0.67717 0.04558 0.0
H3065 H 0.62916 0.67011 0.9994 0.0
H3066 H 0.62993 0.63751 0.99431 0.0
H3067 H 0.59845 0.54198 0.03823 0.0
H3068 H 0.62805 0.56133 0.03607 0.0
H3069 H 0.60356 0.58566 0.99131 0.0
H3070 H 0.5742 0.56664 0.99349 0.0
H3071 H 0.62319 0.61114 0.01664 0.0
H3072 H 0.63203 0.55551 0.98392 0.0
H3073 H 0.63291 0.52292 0.98031 0.0
H3074 H 0.67436 0.53118 0.0269 0.0
H3075 H 0.67359 0.56382 0.03092 0.0
C3076 C 0.70222 0.65218 0.99747 0.0
C3077 C 0.71833 0.65026 0.00777 0.0
C3078 C 0.68597 0.63985 0.99816 0.0
C3079 C 0.68543 0.62593 0.00983 0.0
C3080 C 0.70161 0.62431 0.0203 0.0
C3081 C 0.71787 0.63631 0.01924 0.0
C3082 C 0.6681 0.6131 0.01128 0.0
C3083 C 0.668 0.59438 0.00994 0.0
C3084 C 0.6517 0.61914 0.01394 0.0
C3085 C 0.65101 0.63866 0.01714 0.0
C3086 C 0.66247 0.65001 0.0317 0.0
C3087 C 0.662 0.66847 0.03442 0.0
C3088 C 0.65002 0.67571 0.02277 0.0
C3089 C 0.63844 0.66449 0.0084 0.0
C3090 C 0.63887 0.64601 0.00561 0.0
C3091 C 0.59951 0.55121 0.02771 0.0
C3092 C 0.584 0.5528 0.01606 0.0
C3093 C 0.6164 0.5623 0.02651 0.0
C3094 C 0.61804 0.57501 0.01352 0.0
C3095 C 0.60265 0.57611 1.00152 0.0
C3096 C 0.58586 0.56513 1.00274 0.0
C3097 C 0.63553 0.5877 0.01271 0.0
C3098 C 0.63566 0.6064 0.01441 0.0
C3099 C 0.65194 0.58162 0.01041 0.0
C3100 C 0.65261 0.56207 0.00784 0.0
C3101 C 0.64124 0.55036 0.99348 0.0
C3102 C 0.64173 0.53188 0.99135 0.0
C3103 C 0.65362 0.52497 1.00342 0.0
C3104 C 0.66513 0.53654 0.01759 0.0
C3105 C 0.66469 0.55504 0.01978 0.0
H3106 H 0.65396 0.51065 1.00176 0.0
H3107 H 0.64969 0.69002 0.02489 0.0
H3108 H 0.6858 0.50689 0.3108 0.0
H3109 H 0.6975 0.47945 0.30475 0.0
H3110 H 0.65017 0.45652 0.2658 0.0
H3111 H 0.63817 0.48462 0.27142 0.0
H3112 H 0.66825 0.43437 0.29918 0.0
H3113 H 0.67724 0.46468 0.24336 0.0
H3114 H 0.68653 0.49171 0.22748 0.0
H3115 H 0.74008 0.50075 0.25739 0.0
H3116 H 0.73099 0.47393 0.27368 0.0
H3117 H 0.70939 0.36353 0.25757 0.0
H3118 H 0.69125 0.38595 0.26702 0.0
H3119 H 0.74057 0.42587 0.28337 0.0
H3120 H 0.75859 0.40348 0.27371 0.0
H3121 H 0.71874 0.43829 0.25984 0.0
H3122 H 0.71252 0.41054 0.31532 0.0
H3123 H 0.70567 0.38568 0.33468 0.0
H3124 H 0.65007 0.37368 0.30973 0.0
H3125 H 0.65665 0.39835 0.29003 0.0
C3126 C 0.67758 0.49608 0.30102 0.0
C3127 C 0.66091 0.49812 0.29157 0.0
C3128 C 0.6844 0.48033 0.29764 0.0
C3129 C 0.67472 0.466 0.28489 0.0
C3130 C 0.65779 0.4675 0.27577 0.0
C3131 C 0.65098 0.48354 0.27897 0.0
C3132 C 0.68325 0.45012 0.28064 0.0
C3133 C 0.67895 0.43491 0.29017 0.0
C3134 C 0.69785 0.45137 0.26972 0.0
C3135 C 0.70336 0.46742 0.25987 0.0
C3136 C 0.69093 0.47254 0.24669 0.0
C3137 C 0.69617 0.4878 0.23759 0.0
C3138 C 0.71386 0.49797 0.24146 0.0
C3139 C 0.72637 0.49288 0.25442 0.0
C3140 C 0.72118 0.47764 0.26358 0.0
C3141 C 0.71631 0.37686 0.26398 0.0
C3142 C 0.73535 0.38175 0.26526 0.0
C3143 C 0.70596 0.38972 0.26925 0.0
C3144 C 0.71452 0.40768 0.27583 0.0
C3145 C 0.73364 0.41215 0.27828 0.0
C3146 C 0.74395 0.39932 0.27301 0.0
C3147 C 0.70367 0.4222 0.2782 0.0
C3148 C 0.70775 0.43737 0.26852 0.0
C3149 C 0.68914 0.42102 0.28928 0.0
C3150 C 0.68513 0.40614 0.30104 0.0
C3151 C 0.69887 0.40249 0.31383 0.0
C3152 C 0.69503 0.38846 0.32489 0.0
C3153 C 0.67746 0.37806 0.32339 0.0
C3154 C 0.66368 0.38172 0.31085 0.0
C3155 C 0.66746 0.39573 0.29974 0.0
H3156 H 0.67451 0.3672 0.33197 0.0
H3157 H 0.7179 0.50977 0.23439 0.0
H3158 H 0.85282 0.42359 0.49353 0.0
H3159 H 0.88503 0.43806 0.50027 0.0
H3160 H 0.87081 0.4806 0.53666 0.0
H3161 H 0.8386 0.46645 0.52931 0.0
H3162 H 0.89459 0.49424 0.51579 0.0
H3163 H 0.88942 0.44652 0.55431 0.0
H3164 H 0.88054 0.41512 0.56154 0.0
H3165 H 0.91563 0.39741 0.52357 0.0
H3166 H 0.92458 0.42867 0.51594 0.0
H3167 H 0.9845 0.53161 0.5456 0.0
H3168 H 0.95504 0.5136 0.55029 0.0
H3169 H 0.96002 0.47355 0.50558 0.0
H3170 H 0.98961 0.49151 0.50108 0.0
H3171 H 0.94139 0.45936 0.53585 0.0
H3172 H 0.94256 0.50524 0.49339 0.0
H3173 H 0.95181 0.53631 0.48537 0.0
H3174 H 0.92339 0.55664 0.5286 0.0
H3175 H 0.91435 0.5257 0.53717 0.0
C3176 C 0.85672 0.43611 0.50281 0.0
C3177 C 0.84359 0.44431 0.51062 0.0
C3178 C 0.87498 0.44423 0.5068 0.0
C3179 C 0.88019 0.46016 0.51923 0.0
C3180 C 0.86697 0.46827 0.52709 0.0
C3181 C 0.8487 0.46031 0.52285 0.0
C3182 C 0.89946 0.46862 0.52363 0.0
C3183 C 0.90475 0.48665 0.5203 0.0
C3184 C 0.91267 0.45867 0.52967 0.0
C3185 C 0.9076 0.43992 0.53449 0.0
C3186 C 0.89519 0.43591 0.54744 0.0
C3187 C 0.89013 0.41814 0.55161 0.0
C3188 C 0.89748 0.40427 0.543 0.0
C3189 C 0.90995 0.40816 0.53024 0.0
C3190 C 0.91505 0.42591 0.52601 0.0
C3191 C 0.97942 0.51868 0.53723 0.0
C3192 C 0.98888 0.51267 0.52306 0.0
C3193 C 0.96283 0.50842 0.53998 0.0
C3194 C 0.95557 0.49241 0.52821 0.0
C3195 C 0.96566 0.48582 0.51485 0.0
C3196 C 0.9823 0.49608 0.51215 0.0
C3197 C 0.93627 0.48462 0.52727 0.0
C3198 C 0.93106 0.46683 0.53133 0.0
C3199 C 0.92306 0.49468 0.52161 0.0
C3200 C 0.92802 0.51321 0.51611 0.0
C3201 C 0.93842 0.51636 0.5013 0.0
C3202 C 0.94362 0.53394 0.49664 0.0
C3203 C 0.93825 0.54845 0.50651 0.0
C3204 C 0.92759 0.54539 0.521 0.0
C3205 C 0.92245 0.52784 0.52578 0.0
H3206 H 0.9423 0.56206 0.5029 0.0
H3207 H 0.89353 0.39052 0.54623 0.0
H3208 H 0.33734 0.05511 0.30686 0.0
H3209 H 0.32853 0.08374 0.30125 0.0
H3210 H 0.38446 0.10779 0.29754 0.0
H3211 H 0.39356 0.07905 0.30296 0.0
H3212 H 0.35927 0.12868 0.32024 0.0
H3213 H 0.36701 0.0993 0.26027 0.0
H3214 H 0.3634 0.07293 0.23654 0.0
H3215 H 0.30527 0.06569 0.2344 0.0
H3216 H 0.30855 0.09184 0.25837 0.0
H3217 H 0.32317 0.19559 0.26607 0.0
H3218 H 0.34229 0.17746 0.28213 0.0
H3219 H 0.29549 0.13435 0.28022 0.0
H3220 H 0.27655 0.15217 0.26373 0.0
H3221 H 0.32325 0.12685 0.25902 0.0
H3222 H 0.32151 0.14245 0.33132 0.0
H3223 H 0.32596 0.16473 0.35933 0.0
H3224 H 0.37081 0.19702 0.33811 0.0
H3225 H 0.36676 0.17471 0.31016 0.0
C3226 C 0.34784 0.06654 0.30518 0.0
C3227 C 0.36609 0.06488 0.30515 0.0
C3228 C 0.34278 0.0828 0.30197 0.0
C3229 C 0.35593 0.09753 0.29889 0.0
C3230 C 0.37428 0.09635 0.2999 0.0
C3231 C 0.37936 0.07999 0.30289 0.0
C3232 C 0.34999 0.11366 0.29332 0.0
C3233 C 0.35175 0.12859 0.30672 0.0
C3234 C 0.34008 0.11311 0.27577 0.0
C3235 C 0.33804 0.09746 0.26121 0.0
C3236 C 0.35346 0.09199 0.25486 0.0
C3237 C 0.35147 0.0771 0.24134 0.0
C3238 C 0.33412 0.06762 0.23398 0.0
C3239 C 0.31871 0.07304 0.24011 0.0
C3240 C 0.32063 0.08791 0.25365 0.0
C3241 C 0.31697 0.18242 0.26957 0.0
C3242 C 0.29863 0.17489 0.26334 0.0
C3243 C 0.32781 0.17224 0.27891 0.0
C3244 C 0.3202 0.15468 0.28229 0.0
C3245 C 0.30148 0.14796 0.27771 0.0
C3246 C 0.29077 0.15797 0.26814 0.0
C3247 C 0.33192 0.14175 0.28622 0.0
C3248 C 0.33123 0.12731 0.27237 0.0
C3249 C 0.3427 0.14271 0.30334 0.0
C3250 C 0.34361 0.15721 0.31861 0.0
C3251 C 0.33213 0.15446 0.33257 0.0
C3252 C 0.33474 0.16693 0.34852 0.0
C3253 C 0.34872 0.18223 0.35054 0.0
C3254 C 0.36001 0.18516 0.33654 0.0
C3255 C 0.35756 0.17263 0.32064 0.0
H3256 H 0.3507 0.19188 0.36289 0.0
H3257 H 0.33261 0.0561 0.22351 0.0
H3258 H 0.30102 0.12148 0.49657 0.0
H3259 H 0.32899 0.11053 0.50261 0.0
H3260 H 0.3549 0.16233 0.53242 0.0
H3261 H 0.32644 0.17375 0.5264 0.0
H3262 H 0.37659 0.1455 0.50614 0.0
H3263 H 0.34375 0.1315 0.55772 0.0
H3264 H 0.31667 0.12003 0.57278 0.0
H3265 H 0.31271 0.06703 0.54363 0.0
H3266 H 0.33963 0.07825 0.52818 0.0
H3267 H 0.44866 0.10627 0.54942 0.0
H3268 H 0.42542 0.12347 0.53971 0.0
H3269 H 0.38919 0.07355 0.51651 0.0
H3270 H 0.41243 0.05641 0.52634 0.0
H3271 H 0.37398 0.09221 0.54137 0.0
H3272 H 0.40552 0.10566 0.48896 0.0
H3273 H 0.43162 0.11664 0.47232 0.0
H3274 H 0.43759 0.16988 0.50161 0.0
H3275 H 0.41167 0.15915 0.51864 0.0
C3276 C 0.31259 0.13077 0.50434 0.0
C3277 C 0.31136 0.1486 0.51102 0.0
C3278 C 0.32863 0.12437 0.5078 0.0
C3279 C 0.34398 0.13555 0.51804 0.0
C3280 C 0.34314 0.1535 0.52447 0.0
C3281 C 0.32687 0.15996 0.52111 0.0
C3282 C 0.36047 0.12783 0.52231 0.0
C3283 C 0.37624 0.13411 0.5142 0.0
C3284 C 0.35974 0.11261 0.53232 0.0
C3285 C 0.34364 0.10575 0.54171 0.0
C3286 C 0.33703 0.11743 0.55442 0.0
C3287 C 0.32172 0.11097 0.56304 0.0
C3288 C 0.31296 0.09282 0.55914 0.0
C3289 C 0.31951 0.08108 0.54664 0.0
C3290 C 0.33481 0.08748 0.53797 0.0
C3291 C 0.43602 0.09911 0.54151 0.0
C3292 C 0.43236 0.08009 0.53832 0.0
C3293 C 0.42271 0.10891 0.53605 0.0
C3294 C 0.4055 0.09981 0.52743 0.0
C3295 C 0.40234 0.08087 0.52315 0.0
C3296 C 0.41567 0.07109 0.52855 0.0
C3297 C 0.39017 0.10965 0.52497 0.0
C3298 C 0.37453 0.10373 0.53347 0.0
C3299 C 0.39107 0.12511 0.51527 0.0
C3300 C 0.4068 0.13154 0.50524 0.0
C3301 C 0.41253 0.11966 0.49201 0.0
C3302 C 0.42726 0.12585 0.48247 0.0
C3303 C 0.4363 0.14393 0.48595 0.0
C3304 C 0.4306 0.15587 0.49896 0.0
C3305 C 0.41588 0.14974 0.50855 0.0
H3306 H 0.44769 0.14871 0.47853 0.0
H3307 H 0.3011 0.08784 0.56583 0.0
H3308 H 0.67494 0.58075 0.26878 0.0
H3309 H 0.6934 0.60939 0.26431 0.0
H3310 H 0.67485 0.63513 0.31248 0.0
H3311 H 0.65346 0.60696 0.31432 0.0
H3312 H 0.67728 0.65757 0.29261 0.0
H3313 H 0.73822 0.62983 0.30409 0.0
H3314 H 0.75701 0.60745 0.29502 0.0
H3315 H 0.73545 0.60532 0.23794 0.0
H3316 H 0.71729 0.62825 0.24663 0.0
H3317 H 0.74521 0.73776 0.30852 0.0
H3318 H 0.7262 0.70811 0.31031 0.0
H3319 H 0.74085 0.68823 0.25738 0.0
H3320 H 0.76068 0.71741 0.25622 0.0
H3321 H 0.74056 0.66352 0.27717 0.0
H3322 H 0.69743 0.70097 0.26438 0.0
H3323 H 0.68366 0.72799 0.2695 0.0
H3324 H 0.67161 0.71376 0.32322 0.0
H3325 H 0.68541 0.68674 0.31849 0.0
C3326 C 0.67492 0.59259 0.27843 0.0
C3327 C 0.66314 0.59157 0.29222 0.0
C3328 C 0.68604 0.60906 0.27623 0.0
C3329 C 0.6867 0.62479 0.28856 0.0
C3330 C 0.67493 0.6235 0.3026 0.0
C3331 C 0.66284 0.60728 0.30395 0.0
C3332 C 0.6984 0.6428 0.28629 0.0
C3333 C 0.69124 0.65868 0.28962 0.0
C3334 C 0.71637 0.64486 0.28108 0.0
C3335 C 0.72551 0.6297 0.27618 0.0
C3336 C 0.73708 0.62406 0.28973 0.0
C3337 C 0.74781 0.61155 0.28462 0.0
C3338 C 0.74696 0.60452 0.26603 0.0
C3339 C 0.73581 0.61045 0.2524 0.0
C3340 C 0.72544 0.62331 0.25738 0.0
C3341 C 0.74449 0.72695 0.29741 0.0
C3342 C 0.75451 0.72982 0.28231 0.0
C3343 C 0.73343 0.71006 0.2983 0.0
C3344 C 0.73169 0.6959 0.28379 0.0
C3345 C 0.7419 0.69881 0.2688 0.0
C3346 C 0.7533 0.71551 0.26816 0.0
C3347 C 0.71963 0.67792 0.28432 0.0
C3348 C 0.72666 0.66223 0.2805 0.0
C3349 C 0.70146 0.67605 0.28849 0.0
C3350 C 0.69257 0.69192 0.29112 0.0
C3351 C 0.69186 0.70364 0.27729 0.0
C3352 C 0.68403 0.71894 0.28013 0.0
C3353 C 0.67674 0.72258 0.29668 0.0
C3354 C 0.67719 0.71088 0.31039 0.0
C3355 C 0.68499 0.69556 0.30763 0.0
H3356 H 0.67074 0.73447 0.2989 0.0
H3357 H 0.7552 0.59476 0.26215 0.0
H3358 H 0.88748 0.46625 0.81928 0.0
H3359 H 0.87043 0.43516 0.81529 0.0
H3360 H 0.84297 0.44484 0.76314 0.0
H3361 H 0.85745 0.47673 0.76932 0.0
H3362 H 0.82066 0.4253 0.77501 0.0
H3363 H 0.88276 0.41923 0.77112 0.0
H3364 H 0.91568 0.42424 0.78154 0.0
H3365 H 0.90462 0.39865 0.83048 0.0
H3366 H 0.87165 0.39367 0.82046 0.0
H3367 H 0.79543 0.3282 0.74839 0.0
H3368 H 0.81156 0.35973 0.74949 0.0
H3369 H 0.81819 0.36434 0.80944 0.0
H3370 H 0.80243 0.33295 0.80826 0.0
H3371 H 0.85109 0.37493 0.79084 0.0
H3372 H 0.78699 0.382 0.79029 0.0
H3373 H 0.75542 0.37495 0.77485 0.0
H3374 H 0.77353 0.39669 0.72602 0.0
H3375 H 0.80522 0.40363 0.7411 0.0
C3376 C 0.87747 0.46162 0.80724 0.0
C3377 C 0.87315 0.4736 0.79489 0.0
C3378 C 0.86809 0.44376 0.80462 0.0
C3379 C 0.85574 0.43729 0.78855 0.0
C3380 C 0.85219 0.44937 0.77577 0.0
C3381 C 0.86053 0.46752 0.77916 0.0
C3382 C 0.84615 0.41815 0.78523 0.0
C3383 C 0.8276 0.41439 0.77813 0.0
C3384 C 0.85491 0.40364 0.7893 0.0
C3385 C 0.87476 0.40614 0.79506 0.0
C3386 C 0.88737 0.41468 0.7841 0.0
C3387 C 0.90603 0.41753 0.78995 0.0
C3388 C 0.91223 0.41178 0.80667 0.0
C3389 C 0.8998 0.40309 0.81754 0.0
C3390 C 0.88113 0.40021 0.81176 0.0
C3391 C 0.80057 0.33595 0.76169 0.0
C3392 C 0.79828 0.32826 0.77823 0.0
C3393 C 0.80955 0.35387 0.76232 0.0
C3394 C 0.81611 0.36403 0.77955 0.0
C3395 C 0.81331 0.35648 0.79607 0.0
C3396 C 0.8043 0.33867 0.7954 0.0
C3397 C 0.82616 0.38259 0.78061 0.0
C3398 C 0.84461 0.38609 0.78741 0.0
C3399 C 0.81761 0.39669 0.77538 0.0
C3400 C 0.79845 0.39324 0.76678 0.0
C3401 C 0.78422 0.38523 0.77625 0.0
C3402 C 0.76632 0.38125 0.76756 0.0
C3403 C 0.76247 0.38534 0.74946 0.0
C3404 C 0.77652 0.39352 0.74004 0.0
C3405 C 0.79444 0.39751 0.74866 0.0
H3406 H 0.74861 0.3822 0.74273 0.0
H3407 H 0.92668 0.41405 0.8112 0.0
H3408 H 0.06091 0.85346 0.12081 0.0
H3409 H 0.05883 0.8838 0.11197 0.0
H3410 H 0.04256 0.86076 0.05503 0.0
H3411 H 0.04467 0.83082 0.06367 0.0
H3412 H 0.06483 0.89128 0.05467 0.0
H3413 H 0.01192 0.87383 0.0849 0.0
H3414 H 0.99458 0.86386 0.11034 0.0
H3415 H 0.02149 0.91197 0.14575 0.0
H3416 H 0.03921 0.9221 0.12059 0.0
H3417 H 0.03253 0.96457 0.01738 0.0
H3418 H 0.03492 0.9355 0.02833 0.0
H3419 H 0.04739 0.96146 0.08465 0.0
H3420 H 0.04358 0.99047 0.07375 0.0
H3421 H 0.02783 0.92993 0.08637 0.0
H3422 H 0.08092 0.94697 0.05496 0.0
H3423 H 0.09718 0.95627 0.02859 0.0
H3424 H 0.06857 0.90804 0.99445 0.0
H3425 H 0.05204 0.89849 0.02059 0.0
C3426 C 0.05714 0.85488 0.10637 0.0
C3427 C 0.05303 0.83941 0.09305 0.0
C3428 C 0.05573 0.87232 0.1013 0.0
C3429 C 0.05029 0.8749 0.08272 0.0
C3430 C 0.04676 0.85951 0.06943 0.0
C3431 C 0.04797 0.84219 0.07448 0.0
C3432 C 0.04817 0.89335 0.07686 0.0
C3433 C 0.05659 0.89959 0.0616 0.0
C3434 C 0.03764 0.90467 0.08578 0.0
C3435 C 0.02705 0.89862 0.10093 0.0
C3436 C 0.01427 0.88221 0.09816 0.0
C3437 C 1.00435 0.87654 0.11252 0.0
C3438 C 1.00698 0.88725 0.12967 0.0
C3439 C 0.0195 0.90367 0.13247 0.0
C3440 C 0.02948 0.90938 0.11817 0.0
C3441 C 0.03549 0.96416 0.03215 0.0
C3442 C 0.03761 0.98013 0.04457 0.0
C3443 C 0.0372 0.94738 0.03846 0.0
C3444 C 0.04181 0.9459 0.05746 0.0
C3445 C 0.04391 0.96187 0.06993 0.0
C3446 C 0.04187 0.97864 0.06362 0.0
C3447 C 0.04458 0.92791 0.0642 0.0
C3448 C 0.03621 0.92171 0.07956 0.0
C3449 C 0.05507 0.91651 0.05531 0.0
C3450 C 0.06517 0.92209 0.03968 0.0
C3451 C 0.07807 0.93838 0.04181 0.0
C3452 C 0.08732 0.9437 0.02691 0.0
C3453 C 0.08388 0.93279 0.00984 0.0
C3454 C 0.07122 0.91649 0.00767 0.0
C3455 C 0.06193 0.91109 0.02253 0.0
H3456 H 0.09105 0.93696 0.99832 0.0
H3457 H 0.99927 0.88287 0.14076 0.0
H3458 H 0.94329 0.27701 0.92977 0.0
H3459 H 0.9146 0.27523 0.90955 0.0
H3460 H 0.93695 0.24939 0.86425 0.0
H3461 H 0.96517 0.25059 0.88455 0.0
H3462 H 0.92249 0.27796 0.85419 0.0
H3463 H 0.90415 0.22614 0.88522 0.0
H3464 H 0.89774 0.20866 0.91151 0.0
H3465 H 0.85881 0.24093 0.92636 0.0
H3466 H 0.86528 0.25888 0.9004 0.0
H3467 H 0.84629 0.26134 0.7863 0.0
H3468 H 0.872 0.25834 0.80795 0.0
H3469 H 0.84287 0.27146 0.85394 0.0
H3470 H 0.81673 0.2732 0.83228 0.0
H3471 H 0.86045 0.249 0.8643 0.0
H3472 H 0.88039 0.30317 0.83635 0.0
H3473 H 0.88704 0.32216 0.81119 0.0
H3474 H 0.9235 0.28864 0.79243 0.0
H3475 H 0.91687 0.2693 0.81732 0.0
C3476 C 0.94195 0.27076 0.91556 0.0
C3477 C 0.95675 0.26454 0.90856 0.0
C3478 C 0.92553 0.26972 0.90399 0.0
C3479 C 0.9235 0.26224 0.88523 0.0
C3480 C 0.93808 0.25534 0.87856 0.0
C3481 C 0.95433 0.25621 0.89014 0.0
C3482 C 0.90681 0.26255 0.87216 0.0
C3483 C 0.90902 0.27159 0.85637 0.0
C3484 C 0.88893 0.25449 0.87511 0.0
C3485 C 0.88541 0.24404 0.89103 0.0
C3486 C 0.89443 0.2297 0.89426 0.0
C3487 C 0.89074 0.21967 0.90907 0.0
C3488 C 0.87793 0.22373 0.92065 0.0
C3489 C 0.86878 0.23784 0.91743 0.0
C3490 C 0.87247 0.24796 0.90268 0.0
C3491 C 0.84543 0.26398 0.80094 0.0
C3492 C 0.82963 0.26861 0.80727 0.0
C3493 C 0.86025 0.26221 0.81348 0.0
C3494 C 0.85995 0.26545 0.83283 0.0
C3495 C 0.84383 0.26919 0.83919 0.0
C3496 C 0.82883 0.27045 0.82664 0.0
C3497 C 0.87629 0.26492 0.84637 0.0
C3498 C 0.874 0.25572 0.8622 0.0
C3499 C 0.8942 0.27326 0.84374 0.0
C3500 C 0.89797 0.28469 0.82857 0.0
C3501 C 0.8897 0.29976 0.82676 0.0
C3502 C 0.89348 0.3106 0.81256 0.0
C3503 C 0.90563 0.30657 0.80018 0.0
C3504 C 0.91404 0.29171 0.80198 0.0
C3505 C 0.91026 0.2808 0.81612 0.0
H3506 H 0.90857 0.315 0.78922 0.0
H3507 H 0.87505 0.2159 0.93207 0.0
H3508 H 0.5285 0.23034 0.61358 0.0
H3509 H 0.525 0.19893 0.60012 0.0
H3510 H 0.56867 0.21472 0.56711 0.0
H3511 H 0.56987 0.24655 0.57849 0.0
H3512 H 0.55197 0.18866 0.54866 0.0
H3513 H 0.56825 0.1911 0.61552 0.0
H3514 H 0.56397 0.19762 0.64851 0.0
H3515 H 0.51126 0.16272 0.63892 0.0
H3516 H 0.51518 0.15611 0.60588 0.0
H3517 H 0.56709 0.0969 0.53222 0.0
H3518 H 0.56986 0.1292 0.54263 0.0
H3519 H 0.52088 0.11696 0.56895 0.0
H3520 H 0.51887 0.08485 0.55973 0.0
H3521 H 0.54144 0.14094 0.59066 0.0
H3522 H 0.52686 0.13785 0.52349 0.0
H3523 H 0.53271 0.13083 0.49108 0.0
H3524 H 0.58488 0.16659 0.50232 0.0
H3525 H 0.57941 0.17367 0.53483 0.0
C3526 C 0.53704 0.22712 0.6031 0.0
C3527 C 0.54913 0.24111 0.59682 0.0
C3528 C 0.53546 0.20888 0.5957 0.0
C3529 C 0.5472 0.20361 0.58308 0.0
C3530 C 0.55933 0.2178 0.5768 0.0
C3531 C 0.56011 0.23619 0.58337 0.0
C3532 C 0.54704 0.18364 0.57658 0.0
C3533 C 0.54996 0.17842 0.55811 0.0
C3534 C 0.54409 0.16955 0.58833 0.0
C3535 C 0.54197 0.17322 0.60825 0.0
C3536 C 0.55576 0.18483 0.62048 0.0
C3537 C 0.55339 0.18855 0.63917 0.0
C3538 C 0.53734 0.18062 0.6458 0.0
C3539 C 0.52367 0.16887 0.63377 0.0
C3540 C 0.52598 0.1651 0.61508 0.0
C3541 C 0.55705 0.10102 0.54039 0.0
C3542 C 0.54295 0.08787 0.54524 0.0
C3543 C 0.55845 0.11973 0.54618 0.0
C3544 C 0.54542 0.12606 0.5565 0.0
C3545 C 0.53128 0.11287 0.56116 0.0
C3546 C 0.53012 0.09426 0.55576 0.0
C3547 C 0.54637 0.1461 0.56289 0.0
C3548 C 0.54358 0.15129 0.58132 0.0
C3549 C 0.54974 0.16012 0.55122 0.0
C3550 C 0.55277 0.15618 0.53159 0.0
C3551 C 0.53958 0.14417 0.51904 0.0
C3552 C 0.54284 0.14018 0.50066 0.0
C3553 C 0.55917 0.14823 0.49466 0.0
C3554 C 0.57225 0.16036 0.50699 0.0
C3555 C 0.56907 0.16438 0.52538 0.0
H3556 H 0.56168 0.14509 0.48044 0.0
H3557 H 0.53551 0.18356 0.66025 0.0
H3558 H 0.57002 0.78901 0.43313 0.0
H3559 H 0.59889 0.78992 0.41966 0.0
H3560 H 0.57038 0.75409 0.37189 0.0
H3561 H 0.54212 0.75246 0.38574 0.0
H3562 H 0.60128 0.74601 0.37768 0.0
H3563 H 0.58153 0.80259 0.37357 0.0
H3564 H 0.57246 0.83093 0.38534 0.0
H3565 H 0.62446 0.84835 0.41818 0.0
H3566 H 0.63376 0.82 0.40676 0.0
H3567 H 0.6579 0.77283 0.3072 0.0
H3568 H 0.63421 0.76471 0.32746 0.0
H3569 H 0.66862 0.79784 0.37374 0.0
H3570 H 0.69206 0.80621 0.35331 0.0
H3571 H 0.63653 0.80676 0.37091 0.0
H3572 H 0.65639 0.74953 0.37097 0.0
H3573 H 0.66397 0.7213 0.3568 0.0
H3574 H 0.60984 0.70552 0.32817 0.0
H3575 H 0.60197 0.73371 0.34211 0.0
C3576 C 0.57013 0.78085 0.42009 0.0
C3577 C 0.55381 0.77062 0.41051 0.0
C3578 C 0.58657 0.78161 0.4122 0.0
C3579 C 0.58688 0.77241 0.39444 0.0
C3580 C 0.57068 0.76139 0.3855 0.0
C3581 C 0.55442 0.76051 0.39343 0.0
C3582 C 0.60362 0.77478 0.38459 0.0
C3583 C 0.60891 0.75933 0.37616 0.0
C3584 C 0.61382 0.79209 0.38259 0.0
C3585 C 0.60824 0.80909 0.38951 0.0
C3586 C 0.59097 0.81241 0.38342 0.0
C3587 C 0.5858 0.82848 0.39001 0.0
C3588 C 0.59785 0.8414 0.40256 0.0
C3589 C 0.61512 0.83831 0.4085 0.0
C3590 C 0.62035 0.82225 0.40197 0.0
C3591 C 0.66065 0.77773 0.32187 0.0
C3592 C 0.67696 0.78981 0.32881 0.0
C3593 C 0.64706 0.77318 0.33347 0.0
C3594 C 0.64955 0.78059 0.35227 0.0
C3595 C 0.66629 0.79191 0.35936 0.0
C3596 C 0.67981 0.7965 0.34775 0.0
C3597 C 0.63421 0.77799 0.36404 0.0
C3598 C 0.62909 0.79343 0.37269 0.0
C3599 C 0.62393 0.76069 0.36589 0.0
C3600 C 0.62865 0.74377 0.35748 0.0
C3601 C 0.64614 0.74009 0.36156 0.0
C3602 C 0.65047 0.72408 0.3536 0.0
C3603 C 0.6374 0.71164 0.34156 0.0
C3604 C 0.61995 0.71516 0.3375 0.0
C3605 C 0.61554 0.73113 0.34546 0.0
H3606 H 0.64079 0.69925 0.3354 0.0
H3607 H 0.59382 0.85384 0.40764 0.0
H3608 H 0.03268 0.2396 0.368 0.0
H3609 H 0.03087 0.21171 0.38305 0.0
H3610 H 0.05084 0.24354 0.43589 0.0
H3611 H 0.05318 0.27122 0.4209 0.0
H3612 H 0.06608 0.21566 0.43393 0.0
H3613 H 1.00402 0.22353 0.42182 0.0
H3614 H 0.97645 0.22718 0.40243 0.0
H3615 H 0.97506 0.17616 0.37021 0.0
H3616 H 1.00276 0.17233 0.38928 0.0
H3617 H 0.0337 0.15297 0.49665 0.0
H3618 H 0.04244 0.17789 0.47812 0.0
H3619 H 0.02235 0.14169 0.42789 0.0
H3620 H 0.01324 0.11693 0.44657 0.0
H3621 H 1.00839 0.17043 0.42665 0.0
H3622 H 0.06945 0.16159 0.44079 0.0
H3623 H 0.09663 0.15809 0.46091 0.0
H3624 H 0.09968 0.21098 0.48993 0.0
H3625 H 0.0724 0.21471 0.47015 0.0
C3626 C 0.03682 0.24063 0.38279 0.0
C3627 C 0.04307 0.25771 0.3932 0.0
C3628 C 0.03565 0.22465 0.39145 0.0
C3629 C 0.04047 0.22539 0.41076 0.0
C3630 C 0.04704 0.24245 0.42102 0.0
C3631 C 0.04832 0.25835 0.41239 0.0
C3632 C 0.03855 0.20859 0.42046 0.0
C3633 C 0.0534 0.20586 0.43243 0.0
C3634 C 0.02218 0.19544 0.4183 0.0
C3635 C 1.00557 0.19776 0.40683 0.0
C3636 C 0.99791 0.21317 0.41051 0.0
C3637 C 0.98225 0.21525 0.39959 0.0
C3638 C 0.97405 0.20194 0.38505 0.0
C3639 C 0.98145 0.18649 0.38144 0.0
C3640 C 0.99712 0.18435 0.3923 0.0
C3641 C 0.03189 0.1502 0.48164 0.0
C3642 C 0.02323 0.13292 0.47303 0.0
C3643 C 0.03679 0.16449 0.471 0.0
C3644 C 0.03318 0.16179 0.45147 0.0
C3645 C 0.02534 0.14423 0.44287 0.0
C3646 C 0.02037 0.12998 0.45353 0.0
C3647 C 0.03592 0.17751 0.4402 0.0
C3648 C 0.02117 0.18009 0.428 0.0
C3649 C 0.05235 0.19054 0.44222 0.0
C3650 C 0.06878 0.18835 0.45409 0.0
C3651 C 0.07585 0.17242 0.45155 0.0
C3652 C 0.09128 0.17041 0.46288 0.0
C3653 C 0.09982 0.18428 0.47673 0.0
C3654 C 0.09303 0.20024 0.47922 0.0
C3655 C 0.07759 0.20232 0.46794 0.0
H3656 H 0.1117 0.18268 0.48557 0.0
H3657 H 0.96193 0.20358 0.37662 0.0
H3658 H 0.58398 0.25678 0.17896 0.0
H3659 H 0.61619 0.25947 0.18994 0.0
H3660 H 0.60424 0.26566 0.24663 0.0
H3661 H 0.57196 0.26372 0.23557 0.0
H3662 H 0.63499 0.28636 0.24618 0.0
H3663 H 0.61413 0.22414 0.22225 0.0
H3664 H 0.59943 0.19816 0.19929 0.0
H3665 H 0.63798 0.21497 0.1616 0.0
H3666 H 0.65277 0.24119 0.18424 0.0
H3667 H 0.72115 0.26356 0.28204 0.0
H3668 H 0.68836 0.26077 0.27235 0.0
H3669 H 0.69992 0.27408 0.21802 0.0
H3670 H 0.7326 0.2775 0.22777 0.0
H3671 H 0.66958 0.24277 0.21853 0.0
H3672 H 0.69021 0.30522 0.24355 0.0
H3673 H 0.70497 0.33029 0.2675 0.0
H3674 H 0.66661 0.31143 0.30464 0.0
H3675 H 0.65184 0.286 0.28102 0.0
C3676 C 0.58814 0.25878 0.19379 0.0
C3677 C 0.57509 0.25994 0.20629 0.0
C3678 C 0.60673 0.26016 0.20014 0.0
C3679 C 0.61306 0.26234 0.21929 0.0
C3680 C 0.60007 0.2639 0.23181 0.0
C3681 C 0.58145 0.26274 0.22544 0.0
C3682 C 0.63305 0.26296 0.22613 0.0
C3683 C 0.64234 0.27658 0.24024 0.0
C3684 C 0.64324 0.2505 0.21849 0.0
C3685 C 0.63444 0.23472 0.20487 0.0
C3686 C 0.6194 0.22236 0.20902 0.0
C3687 C 0.61106 0.20758 0.19607 0.0
C3688 C 0.61774 0.20494 0.17898 0.0
C3689 C 0.63281 0.21704 0.17483 0.0
C3690 C 0.64118 0.23186 0.18772 0.0
C3691 C 0.71674 0.26584 0.268 0.0
C3692 C 0.72974 0.27089 0.25578 0.0
C3693 C 0.6979 0.26429 0.26247 0.0
C3694 C 0.69142 0.26728 0.2444 0.0
C3695 C 0.70436 0.27171 0.23202 0.0
C3696 C 0.72316 0.27371 0.23768 0.0
C3697 C 0.67132 0.26611 0.2384 0.0
C3698 C 0.66209 0.25242 0.22447 0.0
C3699 C 0.66117 0.27834 0.24635 0.0
C3700 C 0.67006 0.29357 0.2606 0.0
C3701 C 0.68505 0.30629 0.2569 0.0
C3702 C 0.6934 0.32059 0.2704 0.0
C3703 C 0.68676 0.32243 0.2876 0.0
C3704 C 0.67176 0.30997 0.29132 0.0
C3705 C 0.6634 0.2956 0.27789 0.0
H3706 H 0.6932 0.33355 0.29801 0.0
H3707 H 0.61126 0.1935 0.16897 0.0
H3708 H 0.55596 0.85023 0.91578 0.0
H3709 H 0.55586 0.87696 0.93747 0.0
H3710 H 0.54044 0.90537 0.89169 0.0
H3711 H 0.54161 0.87906 0.8699 0.0
H3712 H 0.56105 0.92892 0.91464 0.0
H3713 H 0.50948 0.88389 0.92363 0.0
H3714 H 0.49338 0.85416 0.93042 0.0
H3715 H 0.52494 0.86157 0.98397 0.0
H3716 H 0.54138 0.89124 0.9774 0.0
H3717 H 0.53241 0.99913 0.96856 0.0
H3718 H 0.53319 0.97266 0.94727 0.0
H3719 H 0.54919 0.94487 0.99333 0.0
H3720 H 0.54638 0.97075 0.01489 0.0
H3721 H 0.52852 0.92121 0.97024 0.0
H3722 H 0.58095 0.96646 0.95971 0.0
H3723 H 0.59312 0.99788 0.9541 0.0
H3724 H 0.55664 0.99089 0.90365 0.0
H3725 H 0.54443 0.95935 0.90885 0.0
C3726 C 0.55273 0.86221 0.91025 0.0
C3727 C 0.54871 0.86225 0.89093 0.0
C3728 C 0.55246 0.87756 0.92278 0.0
C3729 C 0.5476 0.89332 0.91651 0.0
C3730 C 0.54414 0.89355 0.89716 0.0
C3731 C 0.54478 0.87834 0.8846 0.0
C3732 C 0.54593 0.90941 0.92995 0.0
C3733 C 0.55379 0.9271 0.92669 0.0
C3734 C 0.53667 0.9075 0.94599 0.0
C3735 C 0.52678 0.88968 0.94994 0.0
C3736 C 0.51306 0.87911 0.9368 0.0
C3737 C 0.50386 0.86228 0.94061 0.0
C3738 C 0.50817 0.85596 0.95759 0.0
C3739 C 0.52164 0.86647 0.97081 0.0
C3740 C 0.5309 0.88329 0.96706 0.0
C3741 C 0.53574 0.98733 0.97433 0.0
C3742 C 0.53878 0.98714 0.99372 0.0
C3743 C 0.53662 0.97215 0.96195 0.0
C3744 C 0.54182 0.95661 0.96837 0.0
C3745 C 0.54513 0.95649 0.98775 0.0
C3746 C 0.5435 0.97142 1.00019 0.0
C3747 C 0.54378 0.94059 0.95503 0.0
C3748 C 0.53594 0.92294 0.95828 0.0
C3749 C 0.55293 0.94253 0.93895 0.0
C3750 C 0.56178 0.96061 0.93468 0.0
C3751 C 0.5757 0.97158 0.94731 0.0
C3752 C 0.58252 0.98942 0.94427 0.0
C3753 C 0.57552 0.99642 0.92863 0.0
C3754 C 0.56194 0.98548 0.91582 0.0
C3755 C 0.55521 0.96756 0.9187 0.0
H3756 H 0.58075 0.01024 0.92633 0.0
H3757 H 0.50104 0.84293 0.96052 0.0
H3758 H 0.98413 0.78826 0.73206 0.0
H3759 H 0.95391 0.78915 0.74051 0.0
H3760 H 0.93186 0.74122 0.70235 0.0
H3761 H 0.96248 0.74063 0.69318 0.0
H3762 H 0.90785 0.76259 0.70108 0.0
H3763 H 0.93971 0.74266 0.75368 0.0
H3764 H 0.96502 0.74476 0.77854 0.0
H3765 H 0.95586 0.79648 0.80118 0.0
H3766 H 0.93065 0.79478 0.77633 0.0
H3767 H 0.82103 0.75419 0.73595 0.0
H3768 H 0.85001 0.74969 0.72595 0.0
H3769 H 0.8784 0.78983 0.7704 0.0
H3770 H 0.84957 0.7919 0.78197 0.0
H3771 H 0.89925 0.77046 0.76774 0.0
H3772 H 0.86958 0.79272 0.71502 0.0
H3773 H 0.84473 0.79224 0.69009 0.0
H3774 H 0.8501 0.73907 0.66761 0.0
H3775 H 0.87487 0.7392 0.69249 0.0
C3776 C 0.973 0.77775 0.72536 0.0
C3777 C 0.97624 0.76422 0.71193 0.0
C3778 C 0.95546 0.77822 0.73041 0.0
C3779 C 0.94016 0.76498 0.72264 0.0
C3780 C 0.94318 0.75162 0.70889 0.0
C3781 C 0.96086 0.75123 0.70363 0.0
C3782 C 0.92132 0.76531 0.72892 0.0
C3783 C 0.90601 0.7641 0.71569 0.0
C3784 C 0.91843 0.76776 0.74798 0.0
C3785 C 0.93338 0.76863 0.76308 0.0
C3786 C 0.94315 0.7545 0.76392 0.0
C3787 C 0.95747 0.75562 0.77801 0.0
C3788 C 0.96206 0.77075 0.79141 0.0
C3789 C 0.9523 0.78477 0.79079 0.0
C3790 C 0.93798 0.78372 0.77673 0.0
C3791 C 0.83342 0.76198 0.74374 0.0
C3792 C 0.8325 0.77392 0.75962 0.0
C3793 C 0.85029 0.75969 0.73769 0.0
C3794 C 0.86711 0.76995 0.74666 0.0
C3795 C 0.8661 0.78169 0.76272 0.0
C3796 C 0.84929 0.78328 0.76924 0.0
C3797 C 0.88561 0.76825 0.73993 0.0
C3798 C 0.90093 0.7691 0.7531 0.0
C3799 C 0.88855 0.76583 0.72082 0.0
C3800 C 0.87395 0.76592 0.70567 0.0
C3801 C 0.86543 0.78093 0.70476 0.0
C3802 C 0.85135 0.78071 0.69065 0.0
C3803 C 0.84581 0.76562 0.6773 0.0
C3804 C 0.85439 0.75075 0.67797 0.0
C3805 C 0.86846 0.75089 0.69205 0.0
H3806 H 0.83489 0.76546 0.66641 0.0
H3807 H 0.97317 0.7716 0.80229 0.0
H3808 H 0.09745 0.04876 0.83077 0.0
H3809 H 0.08135 0.04566 0.8585 0.0
H3810 H 0.12462 0.02313 0.88465 0.0
H3811 H 0.14073 0.02632 0.85729 0.0
H3812 H 0.09089 1.00465 0.89056 0.0
H3813 H 0.12332 0.0663 0.896 0.0
H3814 H 0.13194 0.09644 0.8855 0.0
H3815 H 0.07648 0.10346 0.88364 0.0
H3816 H 0.06748 0.07319 0.89383 0.0
H3817 H 0.07349 0.01473 0.98546 0.0
H3818 H 0.08735 0.01581 0.95632 0.0
H3819 H 0.04733 0.045 0.93466 0.0
H3820 H 0.03385 0.04438 0.96379 0.0
H3821 H 0.07863 0.0598 0.92569 0.0
H3822 H 0.0457 0.99818 0.91901 0.0
H3823 H 0.03632 0.96726 0.9274 0.0
H3824 H 0.09176 0.96009 0.93116 0.0
H3825 H 0.10146 0.9909 0.92251 0.0
C3826 C 0.10338 0.0429 0.84232 0.0
C3827 C 0.12042 0.03784 0.84176 0.0
C3828 C 0.09423 0.04125 0.85824 0.0
C3829 C 0.10182 0.03428 0.87382 0.0
C3830 C 0.11844 0.02854 0.87291 0.0
C3831 C 0.12767 0.03044 0.85721 0.0
C3832 C 0.09294 0.03349 0.89136 0.0
C3833 C 0.08835 0.01675 0.89831 0.0
C3834 C 0.0893 0.04917 0.90143 0.0
C3835 C 0.09469 0.06741 0.89547 0.0
C3836 C 0.11294 0.07421 0.8932 0.0
C3837 C 0.1179 0.09132 0.88733 0.0
C3838 C 0.10475 0.10184 0.88386 0.0
C3839 C 0.08664 0.09528 0.88631 0.0
C3840 C 0.0816 0.07815 0.89213 0.0
C3841 C 0.06767 0.02138 0.97448 0.0
C3842 C 0.0524 0.02925 0.97695 0.0
C3843 C 0.07552 0.02188 0.95771 0.0
C3844 C 0.06827 0.03025 0.94298 0.0
C3845 C 0.05322 0.03838 0.94563 0.0
C3846 C 0.04543 0.03791 0.96233 0.0
C3847 C 0.07647 0.03089 0.92496 0.0
C3848 C 0.08103 0.04765 0.91793 0.0
C3849 C 0.08001 0.01521 0.91476 0.0
C3850 C 0.07432 0.99688 0.92033 0.0
C3851 C 0.0559 0.99006 0.92178 0.0
C3852 C 0.05052 0.97255 0.92655 0.0
C3853 C 0.06344 0.96179 0.93 0.0
C3854 C 0.08177 0.96846 0.92855 0.0
C3855 C 0.08721 0.98591 0.92363 0.0
H3856 H 0.05923 0.94824 0.93371 0.0
H3857 H 0.10862 0.11509 0.87933 0.0
H3858 H 0.79421 0.43065 0.57072 0.0
H3859 H 0.79617 0.41653 0.5995 0.0
H3860 H 0.77574 0.36389 0.56844 0.0
H3861 H 0.77317 0.37788 0.53986 0.0
H3862 H 0.76393 0.36463 0.60088 0.0
H3863 H 0.82157 0.38158 0.5774 0.0
H3864 H 0.84728 0.40209 0.5673 0.0
H3865 H 0.85743 0.43298 0.62121 0.0
H3866 H 0.83157 0.4128 0.63153 0.0
H3867 H 0.81176 0.30541 0.64707 0.0
H3868 H 0.79975 0.32425 0.62516 0.0
H3869 H 0.81368 0.37054 0.66708 0.0
H3870 H 0.8258 0.35185 0.68896 0.0
H3871 H 0.82695 0.37584 0.63285 0.0
H3872 H 0.7708 0.35276 0.65653 0.0
H3873 H 0.74676 0.3289 0.66462 0.0
H3874 H 0.73565 0.3057 0.60754 0.0
H3875 H 0.75981 0.32924 0.59914 0.0
C3876 C 0.78965 0.41613 0.57013 0.0
C3877 C 0.78379 0.4053 0.55308 0.0
C3878 C 0.79086 0.4081 0.58654 0.0
C3879 C 0.78649 0.38918 0.58595 0.0
C3880 C 0.77923 0.37853 0.56914 0.0
C3881 C 0.77782 0.38654 0.55281 0.0
C3882 C 0.79117 0.38018 0.60229 0.0
C3883 C 0.77769 0.36707 0.6079 0.0
C3884 C 0.80914 0.38351 0.61145 0.0
C3885 C 0.82444 0.39588 0.60513 0.0
C3886 C 0.82914 0.39288 0.58702 0.0
C3887 C 0.84378 0.40441 0.58127 0.0
C3888 C 0.85393 0.41888 0.59358 0.0
C3889 C 0.8495 0.42182 0.61167 0.0
C3890 C 0.83485 0.41035 0.61747 0.0
C3891 C 0.81229 0.31962 0.65151 0.0
C3892 C 0.81976 0.32729 0.66955 0.0
C3893 C 0.80525 0.33025 0.63914 0.0
C3894 C 0.80568 0.34863 0.64472 0.0
C3895 C 0.81313 0.35631 0.6627 0.0
C3896 C 0.82004 0.34567 0.6751 0.0
C3897 C 0.79977 0.36019 0.63124 0.0
C3898 C 0.81308 0.37373 0.62613 0.0
C3899 C 0.78181 0.35685 0.62221 0.0
C3900 C 0.76725 0.34269 0.62724 0.0
C3901 C 0.76336 0.34247 0.64573 0.0
C3902 C 0.74969 0.32901 0.65036 0.0
C3903 C 0.73978 0.31573 0.63662 0.0
C3904 C 0.7434 0.31595 0.61818 0.0
C3905 C 0.75706 0.32936 0.61348 0.0
H3906 H 0.72923 0.3053 0.64025 0.0
H3907 H 0.86527 0.42779 0.58912 0.0
H3908 H 0.4308 0.01224 0.34012 0.0
H3909 H 0.4521 0.0182 0.36855 0.0
H3910 H 0.41624 0.04783 0.39568 0.0
H3911 H 0.39445 0.04144 0.3673 0.0
H3912 H 0.46353 0.06062 0.39421 0.0
H3913 H 0.4104 0.02063 0.41441 0.0
H3914 H 0.38571 0.99365 0.40788 0.0
H3915 H 0.42477 0.95997 0.39808 0.0
H3916 H 0.44965 0.98687 0.40417 0.0
H3917 H 0.50138 0.06372 0.48896 0.0
H3918 H 0.48147 0.06361 0.46024 0.0
H3919 H 0.49735 0.01494 0.43702 0.0
H3920 H 0.51724 0.01493 0.46552 0.0
H3921 H 0.45935 0.01291 0.4369 0.0
H3922 H 0.5121 0.04932 0.41952 0.0
H3923 H 0.53865 0.07445 0.42382 0.0
H3924 H 0.50326 0.11299 0.42566 0.0
H3925 H 0.47646 0.08804 0.42178 0.0
C3926 C 0.42751 0.02008 0.35214 0.0
C3927 C 0.41108 0.02635 0.35176 0.0
C3928 C 0.43964 0.02349 0.36822 0.0
C3929 C 0.43554 0.03342 0.3839 0.0
C3930 C 0.4194 0.04012 0.38351 0.0
C3931 C 0.40702 0.03637 0.36749 0.0
C3932 C 0.44788 0.03573 0.40095 0.0
C3933 C 0.46248 0.05051 0.40388 0.0
C3934 C 0.44669 0.02196 0.41277 0.0
C3935 C 0.43182 1.00576 0.40949 0.0
C3936 C 0.41368 0.0075 0.41066 0.0
C3937 C 0.39967 0.99222 0.40707 0.0
C3938 C 0.40366 0.97511 0.40249 0.0
C3939 C 0.42169 0.97324 0.40157 0.0
C3940 C 0.43575 0.98849 0.40509 0.0
C3941 C 0.50082 0.05321 0.47757 0.0
C3942 C 0.51076 0.03937 0.4793 0.0
C3943 C 0.48954 0.05318 0.46129 0.0
C3944 C 0.48808 0.03924 0.44679 0.0
C3945 C 0.49844 0.02575 0.44823 0.0
C3946 C 0.50986 0.02588 0.46439 0.0
C3947 C 0.47486 0.0381 0.43053 0.0
C3948 C 0.46024 0.02333 0.42756 0.0
C3949 C 0.47623 0.05175 0.41854 0.0
C3950 C 0.49227 0.06681 0.42058 0.0
C3951 C 0.50997 0.06315 0.42102 0.0
C3952 C 0.52507 0.07736 0.42336 0.0
C3953 C 0.52265 0.09531 0.42505 0.0
C3954 C 0.50511 0.09908 0.42437 0.0
C3955 C 0.48996 0.0849 0.42211 0.0
H3956 H 0.53436 0.10631 0.42685 0.0
H3957 H 0.39279 0.9633 0.39971 0.0
H3958 H 0.79269 0.72241 0.06568 0.0
H3959 H 0.79371 0.73565 0.09809 0.0
H3960 H 0.75389 0.68988 0.10799 0.0
H3961 H 0.75325 0.6763 0.07592 0.0
H3962 H 0.74725 0.7279 0.11957 0.0
H3963 H 0.79164 0.68914 0.12575 0.0
H3964 H 0.81925 0.67809 0.11835 0.0
H3965 H 0.85147 0.73135 0.13493 0.0
H3966 H 0.82397 0.74279 0.14212 0.0
H3967 H 0.74743 0.74338 0.21766 0.0
H3968 H 0.74683 0.73116 0.18512 0.0
H3969 H 0.80039 0.76318 0.1839 0.0
H3970 H 0.80105 0.77491 0.21663 0.0
H3971 H 0.80031 0.73259 0.1671 0.0
H3972 H 0.75903 0.77267 0.16039 0.0
H3973 H 0.73277 0.78698 0.16547 0.0
H3974 H 0.69637 0.73595 0.14848 0.0
H3975 H 0.72248 0.72131 0.14331 0.0
C3976 C 0.78428 0.71509 0.07481 0.0
C3977 C 0.77297 0.69823 0.0682 0.0
C3978 C 0.78486 0.72268 0.09333 0.0
C3979 C 0.77385 0.71378 0.1055 0.0
C3980 C 0.7625 0.69701 0.09889 0.0
C3981 C 0.76224 0.68922 0.08056 0.0
C3982 C 0.77399 0.722 0.12506 0.0
C3983 C 0.75874 0.72873 0.13006 0.0
C3984 C 0.78922 0.72372 0.13858 0.0
C3985 C 0.80572 0.71686 0.13423 0.0
C3986 C 0.80458 0.69854 0.1276 0.0
C3987 C 0.82021 0.6922 0.12349 0.0
C3988 C 0.8371 0.70403 0.1261 0.0
C3989 C 0.83838 0.72222 0.13287 0.0
C3990 C 0.82278 0.72863 0.13696 0.0
C3991 C 0.75887 0.74804 0.21027 0.0
C3992 C 0.77409 0.76038 0.21947 0.0
C3993 C 0.75857 0.74106 0.19162 0.0
C3994 C 0.77345 0.74639 0.18168 0.0
C3995 C 0.78868 0.7588 0.19104 0.0
C3996 C 0.78902 0.76563 0.20972 0.0
C3997 C 0.77346 0.73858 0.16186 0.0
C3998 C 0.78875 0.73186 0.15674 0.0
C3999 C 0.75842 0.7373 0.14808 0.0
C4000 C 0.74271 0.74587 0.15162 0.0
C4001 C 0.74544 0.76447 0.15789 0.0
C4002 C 0.73057 0.77265 0.16072 0.0
C4003 C 0.7129 0.76238 0.15729 0.0
C4004 C 0.71006 0.74389 0.15109 0.0
C4005 C 0.72489 0.73565 0.14817 0.0
H4006 H 0.70141 0.76876 0.15946 0.0
H4007 H 0.84919 0.69908 0.12293 0.0
H4008 H 0.08705 0.02805 0.73876 0.0
H4009 H 0.07357 0.0275 0.7067 0.0
H4010 H 0.12701 0.04476 0.69034 0.0
H4011 H 0.14047 0.04582 0.72252 0.0
H4012 H 0.10582 0.06288 0.67424 0.0
H4013 H 0.10075 0.99978 0.67931 0.0
H4014 H 0.09235 0.97089 0.69238 0.0
H4015 H 0.03587 0.97422 0.68361 0.0
H4016 H 0.04395 1.00329 0.67073 0.0
H4017 H 0.08158 0.03463 0.57621 0.0
H4018 H 0.09335 0.03579 0.60894 0.0
H4019 H 0.04056 0.04018 0.62488 0.0
H4020 H 0.02869 0.03935 0.59198 0.0
H4021 H 0.06032 0.01105 0.64076 0.0
H4022 H 0.06711 0.07606 0.63789 0.0
H4023 H 0.07675 0.10427 0.62402 0.0
H4024 H 0.13139 0.09478 0.6263 0.0
H4025 H 0.12215 0.06671 0.64068 0.0
C4026 C 0.09597 0.03156 0.72832 0.0
C4027 C 0.1149 0.0369 0.7333 0.0
C4028 C 0.08823 0.03118 0.70988 0.0
C4029 C 0.09919 0.03588 0.69581 0.0
C4030 C 0.11813 0.04106 0.70078 0.0
C4031 C 0.12587 0.04157 0.71924 0.0
C4032 C 0.09095 0.03595 0.67611 0.0
C4033 C 0.09603 0.05139 0.66699 0.0
C4034 C 0.07788 0.02119 0.66639 0.0
C4035 C 0.07298 1.00382 0.67427 0.0
C4036 C 0.08655 0.99444 0.68033 0.0
C4037 C 0.08184 0.97802 0.68767 0.0
C4038 C 0.06359 0.97076 0.68888 0.0
C4039 C 0.05 0.97989 0.68271 0.0
C4040 C 0.05464 0.99633 0.67538 0.0
C4041 C 0.07246 0.03597 0.58666 0.0
C4042 C 0.05413 0.03675 0.58142 0.0
C4043 C 0.07923 0.03663 0.60539 0.0
C4044 C 0.06784 0.03793 0.6194 0.0
C4045 C 0.04959 0.03904 0.61431 0.0
C4046 C 0.04285 0.03868 0.59551 0.0
C4047 C 0.07514 0.03794 0.63927 0.0
C4048 C 0.07 0.0225 0.64826 0.0
C4049 C 0.08831 0.05252 0.64881 0.0
C4050 C 0.09393 0.06928 0.6402 0.0
C4051 C 0.08116 0.07996 0.63534 0.0
C4052 C 0.08655 0.09593 0.62742 0.0
C4053 C 0.10461 0.10121 0.62406 0.0
C4054 C 0.11739 0.09064 0.62885 0.0
C4055 C 0.11211 0.07478 0.63701 0.0
H4056 H 0.10872 0.11354 0.61783 0.0
H4057 H 0.05997 0.95803 0.69455 0.0
H4058 H 0.78458 0.42468 0.43115 0.0
H4059 H 0.7791 0.40253 0.40329 0.0
H4060 H 0.78807 0.36043 0.43714 0.0
H4061 H 0.79345 0.38215 0.46488 0.0
H4062 H 0.80943 0.36502 0.40666 0.0
H4063 H 0.74764 0.35956 0.42209 0.0
H4064 H 0.71979 0.37078 0.42823 0.0
H4065 H 0.71564 0.38852 0.37394 0.0
H4066 H 0.74367 0.3777 0.36762 0.0
H4067 H 0.79106 0.28987 0.34051 0.0
H4068 H 0.78895 0.3087 0.36878 0.0
H4069 H 0.76443 0.34483 0.33635 0.0
H4070 H 0.76434 0.32482 0.30825 0.0
H4071 H 0.75074 0.34379 0.36647 0.0
H4072 H 0.81195 0.34886 0.35009 0.0
H4073 H 0.8393 0.33696 0.34328 0.0
H4074 H 0.84601 0.322 0.39851 0.0
H4075 H 0.81819 0.33291 0.40542 0.0
C4076 C 0.78529 0.41069 0.43261 0.0
C4077 C 0.78947 0.40511 0.4501 0.0
C4078 C 0.78208 0.39813 0.41679 0.0
C4079 C 0.78317 0.38004 0.41844 0.0
C4080 C 0.78716 0.37442 0.43582 0.0
C4081 C 0.79019 0.38684 0.45158 0.0
C4082 C 0.78123 0.367 0.40198 0.0
C4083 C 0.79662 0.36021 0.39785 0.0
C4084 C 0.76456 0.36129 0.39055 0.0
C4085 C 0.74789 0.36806 0.39449 0.0
C4086 C 0.74093 0.36608 0.41157 0.0
C4087 C 0.72508 0.37232 0.41505 0.0
C4088 C 0.71599 0.38043 0.40152 0.0
C4089 C 0.72272 0.38229 0.38444 0.0
C4090 C 0.73859 0.37612 0.3809 0.0
C4091 C 0.78454 0.30136 0.33941 0.0
C4092 C 0.77785 0.30582 0.32214 0.0
C4093 C 0.78363 0.3123 0.35557 0.0
C4094 C 0.77709 0.32841 0.35451 0.0
C4095 C 0.76965 0.33248 0.3374 0.0
C4096 C 0.76975 0.32109 0.32134 0.0
C4097 C 0.779 0.34167 0.37096 0.0
C4098 C 0.76363 0.34859 0.37513 0.0
C4099 C 0.79584 0.34772 0.38229 0.0
C4100 C 0.81285 0.34157 0.37821 0.0
C4101 C 0.81918 0.34293 0.36075 0.0
C4102 C 0.83475 0.33634 0.35686 0.0
C4103 C 0.84444 0.32885 0.37046 0.0
C4104 C 0.8385 0.32781 0.38798 0.0
C4105 C 0.82277 0.3341 0.39186 0.0
H4106 H 0.85652 0.32382 0.36741 0.0
H4107 H 0.7037 0.38521 0.40423 0.0
H4108 H 0.44081 0.03612 0.263 0.0
H4109 H 0.45427 0.03501 0.2342 0.0
H4110 H 0.40153 0.03167 0.20325 0.0
H4111 H 0.38767 0.0315 0.23234 0.0
H4112 H 0.41628 1.00715 0.18895 0.0
H4113 H 0.4381 0.07004 0.20577 0.0
H4114 H 0.45178 0.09782 0.2267 0.0
H4115 H 0.50215 0.079 0.23448 0.0
H4116 H 0.48871 0.05096 0.21383 0.0
H4117 H 0.46285 1.00284 0.10917 0.0
H4118 H 0.44725 0.01669 0.13278 0.0
H4119 H 0.48721 0.0075 0.17562 0.0
H4120 H 0.50314 0.99367 0.15198 0.0
H4121 H 0.47626 0.043 0.17958 0.0
H4122 H 0.45096 0.9779 0.16737 0.0
H4123 H 0.43725 0.95058 0.14573 0.0
H4124 H 0.39264 0.97558 0.12814 0.0
H4125 H 0.40626 1.00319 0.14948 0.0
C4126 C 0.43211 0.0356 0.25012 0.0
C4127 C 0.41322 0.03391 0.24983 0.0
C4128 C 0.43986 0.03512 0.23362 0.0
C4129 C 0.42898 0.03366 0.21655 0.0
C4130 C 0.41018 0.03291 0.21629 0.0
C4131 C 0.4023 0.03289 0.23286 0.0
C4132 C 0.4371 0.03073 0.19915 0.0
C4133 C 0.42912 0.01535 0.18666 0.0
C4134 C 0.45399 0.04126 0.19624 0.0
C4135 C 0.46236 0.05837 0.20823 0.0
C4136 C 0.45208 0.0718 0.21197 0.0
C4137 C 0.45979 0.08759 0.2238 0.0
C4138 C 0.47782 0.09017 0.23191 0.0
C4139 C 0.4882 0.07699 0.22816 0.0
C4140 C 0.48055 0.06116 0.21635 0.0
C4141 C 0.46842 1.00385 0.1236 0.0
C4142 C 0.48407 0.99694 0.12882 0.0
C4143 C 0.45953 0.01183 0.137 0.0
C4144 C 0.46615 0.01302 0.15578 0.0
C4145 C 0.48204 1.00668 0.16108 0.0
C4146 C 0.49092 0.99858 0.14766 0.0
C4147 C 0.45559 0.01936 0.17001 0.0
C4148 C 0.46315 0.03526 0.18176 0.0
C4149 C 0.43822 0.00951 0.17213 0.0
C4150 C 0.4297 0.99265 0.15988 0.0
C4151 C 0.43826 0.97759 0.15882 0.0
C4152 C 0.43052 0.96207 0.14661 0.0
C4153 C 0.41411 0.96136 0.13553 0.0
C4154 C 0.40536 0.97616 0.13671 0.0
C4155 C 0.41308 0.99174 0.14887 0.0
H4156 H 0.40815 0.94934 0.12605 0.0
H4157 H 0.48375 0.10239 0.2411 0.0
H4158 H 0.79052 0.67627 0.94802 0.0
H4159 H 0.794 0.69259 0.92061 0.0
H4160 H 0.75756 0.72652 0.93911 0.0
H4161 H 0.75463 0.7107 0.96704 0.0
H4162 H 0.75107 0.7053 0.89785 0.0
H4163 H 0.79185 0.74877 0.94245 0.0
H4164 H 0.81723 0.75886 0.96749 0.0
H4165 H 0.85417 0.7408 0.93189 0.0
H4166 H 0.82888 0.73024 0.90674 0.0
H4167 H 0.76692 0.77729 0.83769 0.0
H4168 H 0.765 0.7626 0.86619 0.0
H4169 H 0.79828 0.72588 0.84636 0.0
H4170 H 0.79981 0.74021 0.81738 0.0
H4171 H 0.80643 0.74896 0.88856 0.0
H4172 H 0.76518 0.70353 0.84486 0.0
H4173 H 0.73941 0.6921 0.82046 0.0
H4174 H 0.70344 0.71406 0.85459 0.0
H4175 H 0.72907 0.72573 0.87917 0.0
C4176 C 0.78348 0.68741 0.94641 0.0
C4177 C 0.77245 0.69232 0.95982 0.0
C4178 C 0.78545 0.69669 0.93071 0.0
C4179 C 0.77604 0.71078 0.92777 0.0
C4180 C 0.765 0.71574 0.94112 0.0
C4181 C 0.76344 0.70679 0.95713 0.0
C4182 C 0.7774 0.71986 0.91046 0.0
C4183 C 0.76309 0.71502 0.89593 0.0
C4184 C 0.79321 0.73225 0.90772 0.0
C4185 C 0.80842 0.73845 0.92281 0.0
C4186 C 0.80533 0.7467 0.94005 0.0
C4187 C 0.81971 0.75257 0.95424 0.0
C4188 C 0.83729 0.75041 0.95131 0.0
C4189 C 0.84053 0.74241 0.93416 0.0
C4190 C 0.82617 0.73648 0.91993 0.0
C4191 C 0.77392 0.76613 0.83937 0.0
C4192 C 0.78363 0.76001 0.82525 0.0
C4193 C 0.77274 0.75771 0.85568 0.0
C4194 C 0.78149 0.74314 0.85845 0.0
C4195 C 0.79141 0.73711 0.84453 0.0
C4196 C 0.79227 0.74529 0.82797 0.0
C4197 C 0.78014 0.73432 0.87592 0.0
C4198 C 0.79443 0.73925 0.89049 0.0
C4199 C 0.76431 0.722 0.87872 0.0
C4200 C 0.74906 0.7157 0.86373 0.0
C4201 C 0.75182 0.70613 0.84706 0.0
C4202 C 0.73721 0.69947 0.83327 0.0
C4203 C 0.71977 0.70227 0.83602 0.0
C4204 C 0.71693 0.71184 0.85252 0.0
C4205 C 0.73149 0.71846 0.86639 0.0
H4206 H 0.70849 0.69714 0.82531 0.0
H4207 H 0.84842 0.75499 0.96231 0.0
H4208 H 0.82707 0.12682 0.01711 0.0
H4209 H 0.85498 0.1147 0.01999 0.0
H4210 H 0.84375 0.09887 0.07374 0.0
H4211 H 0.81581 0.11148 0.07102 0.0
H4212 H 0.88483 0.11105 0.06473 0.0
H4213 H 0.82861 0.06715 0.04787 0.0
H4214 H 0.79745 0.05648 0.03206 0.0
H4215 H 0.81684 0.0636 0.97922 0.0
H4216 H 0.84816 0.0743 0.99473 0.0
H4217 H 0.92493 0.03257 0.02296 0.0
H4218 H 0.90603 0.04752 0.04214 0.0
H4219 H 0.90607 0.08856 0.00495 0.0
H4220 H 0.92538 0.07424 0.98594 0.0
H4221 H 0.87027 0.05851 0.01556 0.0
H4222 H 0.92491 0.10847 0.03426 0.0
H4223 H 0.956 0.11943 0.05022 0.0
H4224 H 0.93901 0.09988 0.10044 0.0
H4225 H 0.90793 0.0884 0.08459 0.0
C4226 C 0.83107 0.12153 0.02988 0.0
C4227 C 0.81963 0.11991 0.04386 0.0
C4228 C 0.84692 0.11468 0.03154 0.0
C4229 C 0.85109 0.10584 0.04699 0.0
C4230 C 0.84062 0.10581 0.06184 0.0
C4231 C 0.82478 0.11292 0.06027 0.0
C4232 C 0.86392 0.09366 0.04537 0.0
C4233 C 0.88162 0.09923 0.0544 0.0
C4234 C 0.85947 0.07825 0.03196 0.0
C4235 C 0.84069 0.07164 0.02249 0.0
C4236 C 0.8262 0.06656 0.03289 0.0
C4237 C 0.80851 0.0605 0.02398 0.0
C4238 C 0.80512 0.05951 0.00466 0.0
C4239 C 0.81946 0.06442 0.99419 0.0
C4240 C 0.8372 0.07042 1.00303 0.0
C4241 C 0.92155 0.04515 0.01915 0.0
C4242 C 0.92716 0.05246 1.00304 0.0
C4243 C 0.91074 0.05361 0.03017 0.0
C4244 C 0.90532 0.06933 0.02515 0.0
C4245 C 0.91073 0.07666 0.00921 0.0
C4246 C 0.9216 0.06832 0.99825 0.0
C4247 C 0.89132 0.07636 0.03433 0.0
C4248 C 0.87334 0.06977 0.02655 0.0
C4249 C 0.89552 0.09068 0.0489 0.0
C4250 C 0.91424 0.09729 0.05817 0.0
C4251 C 0.9279 0.10622 0.0486 0.0
C4252 C 0.9455 0.11259 0.05764 0.0
C4253 C 0.9495 0.11027 0.0763 0.0
C4254 C 0.93592 0.1016 0.08597 0.0
C4255 C 0.91833 0.09512 0.07695 0.0
H4256 H 0.96312 0.11526 0.08329 0.0
H4257 H 0.7914 0.05486 0.99781 0.0
H4258 H 0.35548 0.39083 0.01317 0.0
H4259 H 0.38459 0.41085 0.01212 0.0
H4260 H 0.37504 0.44482 0.06005 0.0
H4261 H 0.34471 0.42625 0.05891 0.0
H4262 H 0.38951 0.46606 0.04324 0.0
H4263 H 0.40995 0.41198 0.05648 0.0
H4264 H 0.4115 0.37951 0.05277 0.0
H4265 H 0.42736 0.38405 0.99807 0.0
H4266 H 0.42578 0.41651 1.00142 0.0
H4267 H 0.49267 0.4918 0.05479 0.0
H4268 H 0.4636 0.47153 0.05589 0.0
H4269 H 0.44069 0.4915 0.00725 0.0
H4270 H 0.46972 0.51227 0.00631 0.0
H4271 H 0.44435 0.44407 0.02597 0.0
H4272 H 0.41138 0.49899 0.0149 0.0
H4273 H 0.41294 0.53164 0.02408 0.0
H4274 H 0.42428 0.52401 0.08144 0.0
H4275 H 0.42318 0.49141 0.07248 0.0
C4276 C 0.35975 0.4026 0.02345 0.0
C4277 C 0.34786 0.4073 0.03584 0.0
C4278 C 0.37664 0.41394 0.02315 0.0
C4279 C 0.38264 0.42941 0.03629 0.0
C4280 C 0.37097 0.43329 0.0495 0.0
C4281 C 0.35365 0.42256 0.04903 0.0
C4282 C 0.40039 0.44212 0.03561 0.0
C4283 C 0.40124 0.46095 0.03921 0.0
C4284 C 0.4164 0.43603 0.03108 0.0
C4285 C 0.41764 0.41661 0.02916 0.0
C4286 C 0.41373 0.40603 0.04365 0.0
C4287 C 0.41461 0.38763 0.04161 0.0
C4288 C 0.41949 0.37972 0.02518 0.0
C4289 C 0.42358 0.3902 0.01079 0.0
C4290 C 0.42274 0.4086 0.01277 0.0
C4291 C 0.48139 0.49203 0.04441 0.0
C4292 C 0.48342 0.50372 0.03053 0.0
C4293 C 0.46482 0.48041 0.04506 0.0
C4294 C 0.44995 0.48017 0.0318 0.0
C4295 C 0.45188 0.49179 0.01787 0.0
C4296 C 0.46846 0.50362 0.01733 0.0
C4297 C 0.4326 0.46742 0.03247 0.0
C4298 C 0.43213 0.44875 0.02931 0.0
C4299 C 0.41705 0.47353 0.03772 0.0
C4300 C 0.41742 0.49295 0.04303 0.0
C4301 C 0.41432 0.50435 0.02944 0.0
C4302 C 0.41514 0.52282 0.0346 0.0
C4303 C 0.41877 0.52991 0.05333 0.0
C4304 C 0.42156 0.51853 0.06694 0.0
C4305 C 0.4209 0.50009 0.06183 0.0
H4306 H 0.41938 0.5442 0.0573 0.0
H4307 H 0.42013 0.36547 0.02361 0.0
H4308 H 0.38579 0.55374 0.74497 0.0
H4309 H 0.3727 0.58072 0.74584 0.0
H4310 H 0.41964 0.61022 0.78239 0.0
H4311 H 0.43184 0.58219 0.78303 0.0
H4312 H 0.39234 0.61742 0.79585 0.0
H4313 H 0.40669 0.61812 0.73343 0.0
H4314 H 0.40804 0.60509 0.70134 0.0
H4315 H 0.34967 0.59199 0.69199 0.0
H4316 H 0.34796 0.60466 0.7241 0.0
H4317 H 0.34726 0.69337 0.79555 0.0
H4318 H 0.37011 0.67498 0.78874 0.0
H4319 H 0.32749 0.63171 0.76131 0.0
H4320 H 0.30477 0.64998 0.76793 0.0
H4321 H 0.35748 0.63646 0.74234 0.0
H4322 H 0.34396 0.63167 0.80576 0.0
H4323 H 0.34233 0.644 0.83802 0.0
H4324 H 0.39987 0.66516 0.84502 0.0
H4325 H 0.40178 0.65321 0.81266 0.0
C4326 C 0.39358 0.56611 0.75278 0.0
C4327 C 0.40993 0.56594 0.76373 0.0
C4328 C 0.38614 0.5817 0.75315 0.0
C4329 C 0.39526 0.59786 0.76386 0.0
C4330 C 0.41231 0.59802 0.7739 0.0
C4331 C 0.4195 0.58213 0.77399 0.0
C4332 C 0.38602 0.61375 0.766 0.0
C4333 C 0.3852 0.62189 0.78403 0.0
C4334 C 0.37625 0.6195 0.75073 0.0
C4335 C 0.37722 0.61234 0.73121 0.0
C4336 C 0.39415 0.61243 0.72455 0.0
C4337 C 0.39497 0.60509 0.70635 0.0
C4338 C 0.37895 0.59772 0.69464 0.0
C4339 C 0.36207 0.59773 0.70107 0.0
C4340 C 0.36116 0.60502 0.71926 0.0
C4341 C 0.34284 0.68004 0.78782 0.0
C4342 C 0.32421 0.67301 0.78245 0.0
C4343 C 0.35588 0.66952 0.78403 0.0
C4344 C 0.35048 0.65188 0.77469 0.0
C4345 C 0.33198 0.64525 0.76857 0.0
C4346 C 0.31899 0.65565 0.77247 0.0
C4347 C 0.36375 0.63977 0.77206 0.0
C4348 C 0.36517 0.63229 0.754 0.0
C4349 C 0.37414 0.63471 0.78725 0.0
C4350 C 0.37297 0.64177 0.80672 0.0
C4351 C 0.35624 0.63909 0.81412 0.0
C4352 C 0.35527 0.64599 0.83243 0.0
C4353 C 0.37098 0.65541 0.84354 0.0
C4354 C 0.3877 0.65791 0.83638 0.0
C4355 C 0.38874 0.65108 0.81806 0.0
H4356 H 0.3702 0.66073 0.85772 0.0
H4357 H 0.37963 0.59201 0.68057 0.0
H4358 H 0.21516 0.63936 0.52507 0.0
H4359 H 0.18339 0.62393 0.52511 0.0
H4360 H 0.20197 0.58062 0.55124 0.0
H4361 H 0.23351 0.5963 0.55189 0.0
H4362 H 0.17674 0.57027 0.5175 0.0
H4363 H 0.1857 0.60652 0.57691 0.0
H4364 H 0.19347 0.63473 0.5985 0.0
H4365 H 0.151 0.65571 0.56927 0.0
H4366 H 0.14319 0.62774 0.54728 0.0
H4367 H 0.09279 0.52184 0.5401 0.0
H4368 H 0.12447 0.53731 0.54074 0.0
H4369 H 0.10628 0.58499 0.52406 0.0
H4370 H 0.075 0.57023 0.52458 0.0
H4371 H 0.13141 0.59325 0.55326 0.0
H4372 H 0.12199 0.55654 0.49416 0.0
H4373 H 0.11323 0.52771 0.47367 0.0
H4374 H 0.15696 0.50753 0.50168 0.0
H4375 H 0.16547 0.53596 0.52293 0.0
C4376 C 0.21231 0.62658 0.53084 0.0
C4377 C 0.22648 0.61849 0.53776 0.0
C4378 C 0.19434 0.61788 0.5309 0.0
C4379 C 0.19062 0.6012 0.53806 0.0
C4380 C 0.20478 0.59345 0.54555 0.0
C4381 C 0.22266 0.60224 0.5457 0.0
C4382 C 0.17193 0.59139 0.53716 0.0
C4383 C 0.16687 0.57508 0.52544 0.0
C4384 C 0.15913 0.59818 0.54729 0.0
C4385 C 0.16403 0.61513 0.56029 0.0
C4386 C 0.17819 0.61724 0.57492 0.0
C4387 C 0.18256 0.63317 0.58727 0.0
C4388 C 0.17278 0.64703 0.58522 0.0
C4389 C 0.1586 0.64499 0.57081 0.0
C4390 C 0.1542 0.6291 0.55841 0.0
C4391 C 0.09562 0.53554 0.53637 0.0
C4392 C 0.0815 0.54477 0.532 0.0
C4393 C 0.11361 0.54431 0.53673 0.0
C4394 C 0.11751 0.5622 0.53238 0.0
C4395 C 0.10342 0.57118 0.52746 0.0
C4396 C 0.08555 0.56258 0.52743 0.0
C4397 C 0.13628 0.57197 0.53354 0.0
C4398 C 0.14133 0.58834 0.54529 0.0
C4399 C 0.1491 0.56525 0.52336 0.0
C4400 C 0.14425 0.54832 0.51028 0.0
C4401 C 0.12962 0.54589 0.4961 0.0
C4402 C 0.12465 0.52959 0.48439 0.0
C4403 C 0.13451 0.51578 0.48639 0.0
C4404 C 0.14931 0.51822 0.50017 0.0
C4405 C 0.15415 0.53439 0.51212 0.0
H4406 H 0.13071 0.50321 0.47721 0.0
H4407 H 0.17616 0.65933 0.59482 0.0
H4408 H 0.68372 0.99215 0.73709 0.0
H4409 H 0.69159 0.9622 0.73121 0.0
H4410 H 0.73441 0.97645 0.77713 0.0
H4411 H 0.72706 1.00612 0.78284 0.0
H4412 H 0.74573 0.95981 0.74789 0.0
H4413 H 0.69189 0.95285 0.78198 0.0
H4414 H 0.65963 0.95307 0.78538 0.0
H4415 H 0.6432 0.9154 0.73596 0.0
H4416 H 0.67541 0.91514 0.7322 0.0
H4417 H 0.75472 0.90145 0.81419 0.0
H4418 H 0.74539 0.92371 0.79482 0.0
H4419 H 0.72827 0.88192 0.74849 0.0
H4420 H 0.73804 0.8596 0.76778 0.0
H4421 H 0.7021 0.90643 0.76164 0.0
H4422 H 0.75998 0.90737 0.73918 0.0
H4423 H 0.79303 0.90815 0.74165 0.0
H4424 H 0.80294 0.95914 0.77618 0.0
H4425 H 0.76996 0.95855 0.77415 0.0
C4426 C 0.69489 0.98888 0.74582 0.0
C4427 C 0.70478 1.00146 0.76044 0.0
C4428 C 0.69935 0.97185 0.74239 0.0
C4429 C 0.71362 0.96729 0.75365 0.0
C4430 C 0.72352 0.97987 0.7681 0.0
C4431 C 0.71919 0.9968 0.77144 0.0
C4432 C 0.71793 0.94913 0.75162 0.0
C4433 C 0.73617 0.94798 0.75055 0.0
C4434 C 0.70525 0.93369 0.75456 0.0
C4435 C 0.68599 0.93423 0.75661 0.0
C4436 C 0.68139 0.94479 0.77173 0.0
C4437 C 0.66312 0.94488 0.77375 0.0
C4438 C 0.64937 0.93433 0.76084 0.0
C4439 C 0.65386 0.92363 0.7459 0.0
C4440 C 0.67211 0.92352 0.74381 0.0
C4441 C 0.74881 0.89706 0.79993 0.0
C4442 C 0.74676 0.87897 0.7924 0.0
C4443 C 0.74375 0.90971 0.78887 0.0
C4444 C 0.73645 0.90431 0.77029 0.0
C4445 C 0.73409 0.88618 0.76279 0.0
C4446 C 0.73947 0.87355 0.77377 0.0
C4447 C 0.73013 0.9177 0.75944 0.0
C4448 C 0.7115 0.91788 0.75792 0.0
C4449 C 0.74259 0.93256 0.75498 0.0
C4450 C 0.76246 0.93288 0.7565 0.0
C4451 C 0.76919 0.91867 0.74742 0.0
C4452 C 0.78793 0.9191 0.74872 0.0
C4453 C 0.80008 0.93368 0.75906 0.0
C4454 C 0.79352 0.94786 0.76815 0.0
C4455 C 0.77481 0.9475 0.7669 0.0
H4456 H 0.81457 0.934 0.76002 0.0
H4457 H 0.63524 0.93438 0.76245 0.0
H4458 H 0.76214 0.93192 0.55155 0.0
H4459 H 0.73471 0.94434 0.55102 0.0
H4460 H 0.70408 0.89461 0.52026 0.0
H4461 H 0.73233 0.88249 0.51982 0.0
H4462 H 0.6958 0.92174 0.50446 0.0
H4463 H 0.69827 0.90953 0.5675 0.0
H4464 H 0.71246 0.90907 0.5994 0.0
H4465 H 0.72554 0.96726 0.60694 0.0
H4466 H 0.71168 0.96808 0.57501 0.0
H4467 H 0.62117 0.96909 0.50633 0.0
H4468 H 0.63925 0.94583 0.51221 0.0
H4469 H 0.68362 0.98733 0.53961 0.0
H4470 H 0.66556 0.0104 0.53426 0.0
H4471 H 0.6793 0.95827 0.55818 0.0
H4472 H 0.68189 0.96978 0.49376 0.0
H4473 H 0.66832 0.97069 0.46171 0.0
H4474 H 0.64571 0.91375 0.45711 0.0
H4475 H 0.65895 0.91256 0.48925 0.0
C4476 C 0.74952 0.92344 0.54503 0.0
C4477 C 0.74935 0.9062 0.53586 0.0
C4478 C 0.73371 0.93052 0.54486 0.0
C4479 C 0.7171 0.92035 0.5359 0.0
C4480 C 0.71668 0.90269 0.52741 0.0
C4481 C 0.73272 0.89564 0.52739 0.0
C4482 C 0.70084 0.92906 0.53414 0.0
C4483 C 0.69186 0.9293 0.51632 0.0
C4484 C 0.6958 0.93925 0.54949 0.0
C4485 C 0.70394 0.93884 0.56883 0.0
C4486 C 0.70423 0.92223 0.57594 0.0
C4487 C 0.71222 0.92191 0.59403 0.0
C4488 C 0.7199 0.93812 0.60519 0.0
C4489 C 0.71957 0.9547 0.59829 0.0
C4490 C 0.71161 0.9551 0.58021 0.0
C4491 C 0.63468 0.97319 0.51385 0.0
C4492 C 0.64203 0.99163 0.51964 0.0
C4493 C 0.64504 0.95991 0.51707 0.0
C4494 C 0.6629 0.96486 0.52613 0.0
C4495 C 0.66992 0.98316 0.53253 0.0
C4496 C 0.65963 0.99638 0.52932 0.0
C4497 C 0.67476 0.95131 0.52854 0.0
C4498 C 0.68291 0.95025 0.54645 0.0
C4499 C 0.67902 0.9404 0.5133 0.0
C4500 C 0.67121 0.94113 0.49397 0.0
C4501 C 0.67391 0.95748 0.48596 0.0
C4502 C 0.6663 0.95805 0.46777 0.0
C4503 C 0.65611 0.9423 0.4574 0.0
C4504 C 0.65357 0.92594 0.46517 0.0
C4505 C 0.66112 0.92531 0.48337 0.0
H4506 H 0.65023 0.94276 0.44332 0.0
H4507 H 0.72609 0.93784 0.61919 0.0
H4508 H 0.37298 0.47965 0.75733 0.0
H4509 H 0.35194 0.45115 0.75921 0.0
H4510 H 0.3967 0.42854 0.78187 0.0
H4511 H 0.41755 0.4576 0.78133 0.0
H4512 H 0.3761 0.40914 0.74808 0.0
H4513 H 0.36527 0.42404 0.81154 0.0
H4514 H 0.35339 0.43252 0.84083 0.0
H4515 H 0.30337 0.43821 0.8103 0.0
H4516 H 0.31499 0.42972 0.78087 0.0
H4517 H 0.3316 0.32252 0.76431 0.0
H4518 H 0.34942 0.35221 0.76366 0.0
H4519 H 0.30045 0.37435 0.75909 0.0
H4520 H 0.28249 0.34463 0.76202 0.0
H4521 H 0.32262 0.39453 0.78233 0.0
H4522 H 0.33233 0.36917 0.72128 0.0
H4523 H 0.34074 0.34576 0.69959 0.0
H4524 H 0.39359 0.35369 0.73079 0.0
H4525 H 0.38559 0.37724 0.75247 0.0
C4526 C 0.37816 0.46896 0.76368 0.0
C4527 C 0.39679 0.4712 0.77001 0.0
C4528 C 0.36613 0.45257 0.76457 0.0
C4529 C 0.37261 0.43774 0.77104 0.0
C4530 C 0.39128 0.43988 0.77719 0.0
C4531 C 0.40321 0.45644 0.77676 0.0
C4532 C 0.36059 0.41941 0.76856 0.0
C4533 C 0.3644 0.40596 0.75562 0.0
C4534 C 0.34508 0.41516 0.77799 0.0
C4535 C 0.34118 0.42669 0.79401 0.0
C4536 C 0.35206 0.42787 0.81104 0.0
C4537 C 0.34519 0.43222 0.8277 0.0
C4538 C 0.32756 0.43567 0.82745 0.0
C4539 C 0.31697 0.43538 0.81051 0.0
C4540 C 0.32378 0.43103 0.79384 0.0
C4541 C 0.32438 0.33359 0.76326 0.0
C4542 C 0.30532 0.33093 0.7635 0.0
C4543 C 0.33476 0.35071 0.7624 0.0
C4544 C 0.32644 0.3657 0.76071 0.0
C4545 C 0.30734 0.36305 0.76025 0.0
C4546 C 0.29695 0.34594 0.76187 0.0
C4547 C 0.33776 0.38434 0.76165 0.0
C4548 C 0.3339 0.39788 0.77424 0.0
C4549 C 0.35328 0.38851 0.75208 0.0
C4550 C 0.35836 0.37498 0.73847 0.0
C4551 C 0.34578 0.36598 0.72342 0.0
C4552 C 0.35049 0.35271 0.71111 0.0
C4553 C 0.36774 0.34831 0.71372 0.0
C4554 C 0.38033 0.35724 0.72861 0.0
C4555 C 0.37574 0.37061 0.74086 0.0
H4556 H 0.37134 0.33796 0.70425 0.0
H4557 H 0.32221 0.43886 0.84037 0.0
H4558 H 0.17525 0.60087 0.28069 0.0
H4559 H 0.19015 0.63297 0.28285 0.0
H4560 H 0.23327 0.61774 0.25369 0.0
H4561 H 0.218 0.58591 0.25068 0.0
H4562 H 0.23433 0.64542 0.29776 0.0
H4563 H 0.22809 0.63498 0.22742 0.0
H4564 H 0.20925 0.62277 0.19767 0.0
H4565 H 0.16752 0.65097 0.21359 0.0
H4566 H 0.18605 0.66304 0.24361 0.0
H4567 H 0.29377 0.7223 0.27418 0.0
H4568 H 0.27631 0.69257 0.2782 0.0
H4569 H 0.22645 0.713 0.2708 0.0
H4570 H 0.24383 0.74229 0.26555 0.0
H4571 H 0.22689 0.68337 0.24672 0.0
H4572 H 0.2344 0.69462 0.31686 0.0
H4573 H 0.25388 0.70674 0.34626 0.0
H4574 H 0.29503 0.67833 0.32935 0.0
H4575 H 0.2752 0.66496 0.30042 0.0
C4576 C 0.18787 0.60452 0.27472 0.0
C4577 C 0.196 0.59119 0.26617 0.0
C4578 C 0.19629 0.62267 0.27596 0.0
C4579 C 0.21266 0.62743 0.26839 0.0
C4580 C 0.22054 0.61414 0.25945 0.0
C4581 C 0.21201 0.59608 0.25801 0.0
C4582 C 0.22177 0.64633 0.27011 0.0
C4583 C 0.2328 0.6537 0.28664 0.0
C4584 C 0.21949 0.65704 0.25561 0.0
C4585 C 0.20825 0.6496 0.23781 0.0
C4586 C 0.21478 0.63834 0.22466 0.0
C4587 C 0.2042 0.63149 0.20774 0.0
C4588 C 0.18715 0.63601 0.20378 0.0
C4589 C 0.18068 0.6474 0.21672 0.0
C4590 C 0.1912 0.65422 0.23369 0.0
C4591 C 0.27913 0.72047 0.27398 0.0
C4592 C 0.27004 0.73451 0.27024 0.0
C4593 C 0.26921 0.70364 0.27645 0.0
C4594 C 0.25018 0.70085 0.27526 0.0
C4595 C 0.24118 0.71512 0.27212 0.0
C4596 C 0.25109 0.73186 0.26939 0.0
C4597 C 0.23965 0.68246 0.27443 0.0
C4598 C 0.22832 0.67513 0.258 0.0
C4599 C 0.2419 0.67169 0.28891 0.0
C4600 C 0.25348 0.67901 0.30651 0.0
C4601 C 0.24758 0.69093 0.3195 0.0
C4602 C 0.25866 0.69799 0.33606 0.0
C4603 C 0.27586 0.69372 0.33948 0.0
C4604 C 0.28178 0.68181 0.3266 0.0
C4605 C 0.27051 0.67422 0.31028 0.0
H4606 H 0.28449 0.69941 0.35224 0.0
H4607 H 0.17899 0.63075 0.19065 0.0
H4608 H 0.5256 0.72815 0.47992 0.0
H4609 H 0.52792 0.69859 0.4906 0.0
H4610 H 0.49005 0.67155 0.44385 0.0
H4611 H 0.48822 0.70098 0.43272 0.0
H4612 H 0.48614 0.66218 0.48789 0.0
H4613 H 0.52274 0.66361 0.43575 0.0
H4614 H 0.54746 0.67812 0.4191 0.0
H4615 H 0.58601 0.6803 0.4672 0.0
H4616 H 0.56142 0.6661 0.48425 0.0
H4617 H 0.49037 0.57008 0.5022 0.0
H4618 H 0.48666 0.59842 0.48994 0.0
H4619 H 0.54442 0.61884 0.50258 0.0
H4620 H 0.54813 0.59002 0.5128 0.0
H4621 H 0.53777 0.63236 0.47526 0.0
H4622 H 0.5049 0.63268 0.52826 0.0
H4623 H 0.48208 0.62185 0.54884 0.0
H4624 H 0.43912 0.61935 0.50472 0.0
H4625 H 0.46172 0.63007 0.48382 0.0
C4626 C 0.51774 0.71595 0.47185 0.0
C4627 C 0.50671 0.71721 0.45536 0.0
C4628 C 0.51909 0.69894 0.47802 0.0
C4629 C 0.50915 0.68255 0.46816 0.0
C4630 C 0.4979 0.6838 0.45185 0.0
C4631 C 0.4969 0.70076 0.44544 0.0
C4632 C 0.51061 0.66425 0.47472 0.0
C4633 C 0.49732 0.65555 0.48492 0.0
C4634 C 0.52545 0.65562 0.47159 0.0
C4635 C 0.54021 0.66403 0.46134 0.0
C4636 C 0.53645 0.66739 0.44284 0.0
C4637 C 0.55044 0.67551 0.43332 0.0
C4638 C 0.56829 0.68019 0.44211 0.0
C4639 C 0.57218 0.67671 0.46043 0.0
C4640 C 0.55822 0.66862 0.47002 0.0
C4641 C 0.5023 0.5806 0.50245 0.0
C4642 C 0.5196 0.57753 0.50914 0.0
C4643 C 0.50015 0.59715 0.49554 0.0
C4644 C 0.51514 0.61164 0.49561 0.0
C4645 C 0.53238 0.60839 0.5022 0.0
C4646 C 0.53454 0.59172 0.5085 0.0
C4647 C 0.51318 0.62988 0.48863 0.0
C4648 C 0.52647 0.63875 0.47835 0.0
C4649 C 0.49856 0.63889 0.49215 0.0
C4650 C 0.48498 0.63208 0.50448 0.0
C4651 C 0.49059 0.62971 0.52292 0.0
C4652 C 0.4777 0.62362 0.53464 0.0
C4653 C 0.45917 0.62 0.5281 0.0
C4654 C 0.45348 0.62225 0.50977 0.0
C4655 C 0.46632 0.62834 0.49799 0.0
H4656 H 0.44921 0.61557 0.53727 0.0
H4657 H 0.57911 0.68646 0.43471 0.0
H4658 H 0.62475 0.32278 0.63923 0.0
H4659 H 0.65339 0.32127 0.65799 0.0
H4660 H 0.6291 0.26852 0.67153 0.0
H4661 H 0.60048 0.27046 0.65346 0.0
H4662 H 0.64636 0.28636 0.70119 0.0
H4663 H 0.66352 0.27794 0.63881 0.0
H4664 H 0.66839 0.28656 0.60759 0.0
H4665 H 0.705 0.33548 0.63192 0.0
H4666 H 0.70025 0.32721 0.66328 0.0
H4667 H 0.72393 0.26012 0.74402 0.0
H4668 H 0.69723 0.26303 0.72373 0.0
H4669 H 0.72696 0.31236 0.70735 0.0
H4670 H 0.75429 0.30856 0.72665 0.0
H4671 H 0.70725 0.29782 0.67924 0.0
H4672 H 0.68787 0.31029 0.73986 0.0
H4673 H 0.6817 0.30541 0.7718 0.0
H4674 H 0.65011 0.25245 0.75211 0.0
H4675 H 0.65543 0.25743 0.7199 0.0
C4676 C 0.62566 0.31086 0.64614 0.0
C4677 C 0.61043 0.2967 0.64482 0.0
C4678 C 0.64209 0.3099 0.6568 0.0
C4679 C 0.64375 0.29462 0.66613 0.0
C4680 C 0.62842 0.28048 0.6646 0.0
C4681 C 0.61202 0.28154 0.65418 0.0
C4682 C 0.66096 0.29345 0.67813 0.0
C4683 C 0.65961 0.28864 0.69619 0.0
C4684 C 0.67857 0.2971 0.67221 0.0
C4685 C 0.68137 0.30204 0.65337 0.0
C4686 C 0.67251 0.29059 0.63749 0.0
C4687 C 0.67528 0.2954 0.61977 0.0
C4688 C 0.68696 0.31158 0.61777 0.0
C4689 C 0.69591 0.32299 0.63349 0.0
C4690 C 0.69321 0.31822 0.65123 0.0
C4691 C 0.72483 0.27161 0.73611 0.0
C4692 C 0.74133 0.28416 0.73712 0.0
C4693 C 0.70934 0.27345 0.72461 0.0
C4694 C 0.70952 0.28832 0.71426 0.0
C4695 C 0.72613 0.30078 0.71512 0.0
C4696 C 0.74184 0.29863 0.72624 0.0
C4697 C 0.69262 0.29058 0.7023 0.0
C4698 C 0.69401 0.29557 0.68426 0.0
C4699 C 0.67503 0.28744 0.70831 0.0
C4700 C 0.67224 0.28413 0.7276 0.0
C4701 C 0.6797 0.29757 0.74239 0.0
C4702 C 0.67628 0.29482 0.76052 0.0
C4703 C 0.66576 0.27851 0.76405 0.0
C4704 C 0.65834 0.26504 0.74939 0.0
C4705 C 0.66139 0.26789 0.73117 0.0
H4706 H 0.66325 0.27636 0.77813 0.0
H4707 H 0.68911 0.31527 0.60405 0.0
H4708 H 0.99618 0.33732 0.92791 0.0
H4709 H 0.99959 0.36783 0.94254 0.0
H4710 H 0.02853 0.35388 0.99142 0.0
H4711 H 0.02384 0.32209 0.97695 0.0
H4712 H 0.01109 0.37833 1.00296 0.0
H4713 H 0.0502 0.37948 0.95606 0.0
H4714 H 0.06004 0.37333 0.92516 0.0
H4715 H 0.02156 0.40272 0.90139 0.0
H4716 H 0.01132 0.40887 0.93212 0.0
H4717 H 0.0513 0.47552 0.02519 0.0
H4718 H 0.04751 0.44298 0.01479 0.0
H4719 H 0.99796 0.44486 0.98068 0.0
H4720 H 1.00154 0.47743 0.99146 0.0
H4721 H 0.02848 0.42707 0.96329 0.0
H4722 H 0.98974 0.42425 0.01324 0.0
H4723 H 0.98388 0.43122 0.04558 0.0
H4724 H 0.02822 0.40676 0.06514 0.0
H4725 H 0.03427 0.39949 0.03284 0.0
C4726 C 1.0031 0.34036 0.9419 0.0
C4727 C 0.00969 0.32675 0.95105 0.0
C4728 C 1.00534 0.35825 0.95025 0.0
C4729 C 0.015 0.36386 0.96798 0.0
C4730 C 0.0212 0.35027 0.97762 0.0
C4731 C 0.01851 0.33196 0.96932 0.0
C4732 C 0.01841 0.38383 0.97589 0.0
C4733 C 0.01513 0.38886 0.99423 0.0
C4734 C 0.02379 0.39811 0.96489 0.0
C4735 C 0.02989 0.3945 0.94637 0.0
C4736 C 0.04375 0.38454 0.94422 0.0
C4737 C 0.04941 0.38107 0.92674 0.0
C4738 C 0.0414 0.3876 0.91132 0.0
C4739 C 0.02774 0.39766 0.91335 0.0
C4740 C 0.02202 0.40116 0.9308 0.0
C4741 C 0.0395 0.46899 0.01557 0.0
C4742 C 0.02668 0.47918 0.00928 0.0
C4743 C 0.03732 0.4503 0.00965 0.0
C4744 C 0.02242 0.44121 0.99691 0.0
C4745 C 0.00957 0.45138 0.99054 0.0
C4746 C 0.01155 0.47004 0.99682 0.0
C4747 C 0.02061 0.42133 0.98995 0.0
C4748 C 0.02438 0.41641 0.97187 0.0
C4749 C 0.01627 0.40728 1.00133 0.0
C4750 C 0.01256 0.41149 0.02068 0.0
C4751 C 0.99832 0.42048 0.02445 0.0
C4752 C 0.99495 0.42447 0.04277 0.0
C4753 C 1.00576 0.41961 0.05743 0.0
C4754 C 0.01988 0.41057 0.05378 0.0
C4755 C 0.02324 0.40644 0.03547 0.0
H4756 H 1.00314 0.42276 0.07161 0.0
H4757 H 0.0458 0.38489 0.89779 0.0
H4758 H 0.98461 0.78931 0.11218 0.0
H4759 H 0.95977 0.78881 0.13153 0.0
H4760 H 0.99706 0.78797 0.18017 0.0
H4761 H 0.02199 0.78846 0.16096 0.0
H4762 H 0.96598 0.76296 0.17924 0.0
H4763 H 0.98168 0.826 0.17282 0.0
H4764 H 0.98819 0.8526 0.15568 0.0
H4765 H 0.93386 0.83945 0.12732 0.0
H4766 H 0.92711 0.81256 0.14408 0.0
H4767 H 0.9076 0.77468 0.24595 0.0
H4768 H 0.93306 0.78375 0.22815 0.0
H4769 H 0.89529 0.78151 0.17909 0.0
H4770 H 0.86973 0.77254 0.19704 0.0
H4771 H 0.92672 0.80906 0.18045 0.0
H4772 H 0.91173 0.74531 0.18634 0.0
H4773 H 0.90556 0.71877 0.20364 0.0
H4774 H 0.95933 0.73359 0.23322 0.0
H4775 H 0.96571 0.76041 0.2163 0.0
C4776 C 0.9876 0.78913 0.127 0.0
C4777 C 1.0054 0.789 0.13495 0.0
C4778 C 0.97335 0.7889 0.13808 0.0
C4779 C 0.97652 0.78848 0.15737 0.0
C4780 C 0.99425 0.78831 0.16534 0.0
C4781 C 1.00853 0.78868 0.15431 0.0
C4782 C 0.9613 0.78777 0.16915 0.0
C4783 C 0.9576 0.77321 0.17969 0.0
C4784 C 0.95004 0.8009 0.1695 0.0
C4785 C 0.95394 0.81717 0.15958 0.0
C4786 C 0.97116 0.8287 0.16283 0.0
C4787 C 0.97489 0.84384 0.1532 0.0
C4788 C 0.96146 0.84769 0.14039 0.0
C4789 C 0.94425 0.83643 0.13723 0.0
C4790 C 0.94046 0.82125 0.1468 0.0
C4791 C 0.90473 0.77696 0.23158 0.0
C4792 C 0.88671 0.77321 0.22293 0.0
C4793 C 0.91928 0.78193 0.22135 0.0
C4794 C 0.91613 0.78302 0.20218 0.0
C4795 C 0.89808 0.78077 0.19385 0.0
C4796 C 0.88347 0.77579 0.20413 0.0
C4797 C 0.93154 0.78433 0.1906 0.0
C4798 C 0.93519 0.7989 0.18003 0.0
C4799 C 0.94282 0.77122 0.19023 0.0
C4800 C 0.93913 0.75496 0.2002 0.0
C4801 C 0.92219 0.74297 0.19663 0.0
C4802 C 0.91866 0.72788 0.20635 0.0
C4803 C 0.93203 0.72452 0.21955 0.0
C4804 C 0.94898 0.73622 0.22301 0.0
C4805 C 0.95256 0.75137 0.21335 0.0
H4806 H 0.92927 0.71283 0.22708 0.0
H4807 H 0.96438 0.85942 0.13293 0.0
H4808 H 0.53829 0.29097 0.13865 0.0
H4809 H 0.54304 0.31907 0.12419 0.0
H4810 H 0.51179 0.34258 0.16317 0.0
H4811 H 0.50658 0.314 0.17733 0.0
H4812 H 0.50141 0.34922 0.12875 0.0
H4813 H 0.55935 0.3559 0.16556 0.0
H4814 H 0.58758 0.34636 0.17722 0.0
H4815 H 0.6025 0.34105 0.12182 0.0
H4816 H 0.57424 0.35032 0.10979 0.0
H4817 H 0.5276 0.43943 0.10288 0.0
H4818 H 0.52028 0.41178 0.11815 0.0
H4819 H 0.55262 0.38536 0.08263 0.0
H4820 H 0.56017 0.4131 0.06776 0.0
H4821 H 0.56214 0.38098 0.11671 0.0
H4822 H 0.5047 0.37323 0.07936 0.0
H4823 H 0.47618 0.38152 0.06659 0.0
H4824 H 0.46005 0.38784 0.12142 0.0
H4825 H 0.4886 0.37983 0.13455 0.0
C4826 C 0.5328 0.30229 0.1444 0.0
C4827 C 0.52243 0.30049 0.15937 0.0
C4828 C 0.5355 0.31839 0.13612 0.0
C4829 C 0.528 0.33317 0.14268 0.0
C4830 C 0.51783 0.33147 0.15789 0.0
C4831 C 0.51506 0.31525 0.16616 0.0
C4832 C 0.53027 0.35003 0.13316 0.0
C4833 C 0.51473 0.35636 0.12642 0.0
C4834 C 0.54756 0.35911 0.12953 0.0
C4835 C 0.56463 0.35369 0.13677 0.0
C4836 C 0.56861 0.35259 0.15585 0.0
C4837 C 0.58462 0.34725 0.16253 0.0
C4838 C 0.59681 0.34307 0.15026 0.0
C4839 C 0.59304 0.34428 0.1313 0.0
C4840 C 0.57705 0.3496 0.12455 0.0
C4841 C 0.53269 0.42752 0.09806 0.0
C4842 C 0.54425 0.42826 0.08402 0.0
C4843 C 0.52854 0.41171 0.10679 0.0
C4844 C 0.53583 0.39633 0.10157 0.0
C4845 C 0.54683 0.39696 0.087 0.0
C4846 C 0.55102 0.41275 0.07837 0.0
C4847 C 0.53328 0.38014 0.11211 0.0
C4848 C 0.5488 0.37393 0.11909 0.0
C4849 C 0.51597 0.37112 0.1158 0.0
C4850 C 0.49889 0.37614 0.10796 0.0
C4851 C 0.49516 0.37657 0.08872 0.0
C4852 C 0.47897 0.38118 0.08141 0.0
C4853 C 0.46634 0.38526 0.09319 0.0
C4854 C 0.46986 0.38471 0.11231 0.0
C4855 C 0.48604 0.38013 0.11969 0.0
H4856 H 0.4538 0.3888 0.0875 0.0
H4857 H 0.6092 0.33893 0.15546 0.0
H4858 H 0.98644 0.32061 0.37276 0.0
H4859 H 0.95477 0.31816 0.3595 0.0
H4860 H 0.96569 0.28883 0.30943 0.0
H4861 H 0.9972 0.29058 0.32318 0.0
H4862 H 0.93709 0.32943 0.33251 0.0
H4863 H 0.9272 0.26245 0.28632 0.0
H4864 H 0.93987 0.23456 0.28329 0.0
H4865 H 0.95426 0.24009 0.34239 0.0
H4866 H 0.94152 0.26794 0.34576 0.0
H4867 H 0.84943 0.31098 0.27564 0.0
H4868 H 0.88198 0.3151 0.28625 0.0
H4869 H 0.87026 0.27611 0.32499 0.0
H4870 H 0.83768 0.2725 0.31499 0.0
H4871 H 0.89922 0.26991 0.30622 0.0
H4872 H 0.88355 0.32185 0.34151 0.0
H4873 H 0.87108 0.34987 0.34479 0.0
H4874 H 0.90695 0.37359 0.30762 0.0
H4875 H 0.91989 0.34585 0.30437 0.0
C4876 C 0.98214 0.31375 0.35885 0.0
C4877 C 0.99469 0.30633 0.34887 0.0
C4878 C 0.9639 0.31236 0.35119 0.0
C4879 C 0.95732 0.30314 0.33336 0.0
C4880 C 0.96994 0.29575 0.32331 0.0
C4881 C 0.9882 0.29705 0.33106 0.0
C4882 C 0.93732 0.30107 0.32574 0.0
C4883 C 0.92895 0.31635 0.32673 0.0
C4884 C 0.92619 0.28417 0.31798 0.0
C4885 C 0.93355 0.26731 0.31626 0.0
C4886 C 0.933 0.25765 0.29866 0.0
C4887 C 0.94021 0.24188 0.29688 0.0
C4888 C 0.9479 0.23559 0.31263 0.0
C4889 C 0.94834 0.24501 0.33021 0.0
C4890 C 0.94114 0.2608 0.33206 0.0
C4891 C 0.85361 0.30357 0.28671 0.0
C4892 C 0.8405 0.29172 0.29464 0.0
C4893 C 0.87243 0.30585 0.29273 0.0
C4894 C 0.87891 0.29605 0.30664 0.0
C4895 C 0.86589 0.28394 0.31431 0.0
C4896 C 0.84708 0.28194 0.30856 0.0
C4897 C 0.89912 0.29821 0.31312 0.0
C4898 C 0.90745 0.28297 0.31192 0.0
C4899 C 0.91024 0.31513 0.32056 0.0
C4900 C 0.90256 0.33178 0.32258 0.0
C4901 C 0.88871 0.33303 0.33398 0.0
C4902 C 0.88157 0.34884 0.33585 0.0
C4903 C 0.88809 0.36341 0.3263 0.0
C4904 C 0.90189 0.36228 0.31498 0.0
C4905 C 0.9092 0.34656 0.3132 0.0
H4906 H 0.88249 0.37561 0.32773 0.0
H4907 H 0.95351 0.22339 0.31123 0.0
H4908 H 1.00044 0.71066 0.63383 0.0
H4909 H 1.00181 0.68268 0.61459 0.0
H4910 H 0.03268 0.66558 0.66034 0.0
H4911 H 0.03131 0.69365 0.67973 0.0
H4912 H 0.04786 0.66062 0.62787 0.0
H4913 H 0.98805 0.64568 0.64689 0.0
H4914 H 0.95697 0.65006 0.65104 0.0
H4915 H 0.94478 0.64948 0.59209 0.0
H4916 H 0.97589 0.64535 0.58763 0.0
H4917 H 0.04402 0.57052 0.58617 0.0
H4918 H 0.04156 0.59726 0.60681 0.0
H4919 H 1.00547 0.61256 0.56402 0.0
H4920 H 1.00713 0.58518 0.54382 0.0
H4921 H 0.99302 0.61842 0.59544 0.0
H4922 H 0.05166 0.63396 0.57547 0.0
H4923 H 0.08277 0.6307 0.56997 0.0
H4924 H 0.09749 0.63163 0.62859 0.0
H4925 H 0.06637 0.63461 0.63442 0.0
C4926 C 1.00728 0.70084 0.63995 0.0
C4927 C 0.01557 0.70441 0.65848 0.0
C4928 C 1.00807 0.68478 0.62887 0.0
C4929 C 0.01726 0.6718 0.63593 0.0
C4930 C 0.02546 0.67527 0.65449 0.0
C4931 C 0.02452 0.69129 0.66565 0.0
C4932 C 0.01859 0.65488 0.62384 0.0
C4933 C 0.03585 0.65124 0.62104 0.0
C4934 C 1.00301 0.64285 0.61429 0.0
C4935 C 0.98434 0.64539 0.61695 0.0
C4936 C 0.97879 0.64664 0.63483 0.0
C4937 C 0.96116 0.64905 0.63724 0.0
C4938 C 0.94892 0.65009 0.62184 0.0
C4939 C 0.95428 0.64869 0.60401 0.0
C4940 C 0.9719 0.64631 0.60153 0.0
C4941 C 0.03521 0.57932 0.58133 0.0
C4942 C 0.0256 0.57552 0.56338 0.0
C4943 C 0.03409 0.59489 0.59303 0.0
C4944 C 0.0235 0.60727 0.58704 0.0
C4945 C 0.01379 0.60339 0.56911 0.0
C4946 C 0.01487 0.58777 0.55745 0.0
C4947 C 0.02232 0.62406 0.59946 0.0
C4948 C 1.00508 0.62773 0.6023 0.0
C4949 C 0.03794 0.63624 0.60882 0.0
C4950 C 0.05662 0.63429 0.60537 0.0
C4951 C 0.06148 0.63329 0.58718 0.0
C4952 C 0.07912 0.63153 0.584 0.0
C4953 C 0.09208 0.63091 0.59892 0.0
C4954 C 0.08742 0.63208 0.61705 0.0
C4955 C 0.06979 0.6338 0.6203 0.0
H4956 H 0.10574 0.62957 0.59643 0.0
H4957 H 0.93527 0.65195 0.62373 0.0
H4958 H 0.60378 0.80605 0.87121 0.0
H4959 H 0.63357 0.8027 0.86134 0.0
H4960 H 0.61495 0.8112 0.80572 0.0
H4961 H 0.58564 0.81533 0.81556 0.0
H4962 H 0.63598 0.77584 0.81817 0.0
H4963 H 0.6388 0.84052 0.81322 0.0
H4964 H 0.63699 0.87152 0.8258 0.0
H4965 H 0.67836 0.87035 0.87044 0.0
H4966 H 0.68007 0.83912 0.85832 0.0
H4967 H 0.71526 0.77815 0.76962 0.0
H4968 H 0.68619 0.78129 0.78063 0.0
H4969 H 0.71465 0.81029 0.83205 0.0
H4970 H 0.74373 0.80647 0.82135 0.0
H4971 H 0.68856 0.82697 0.82282 0.0
H4972 H 0.68658 0.76431 0.82985 0.0
H4973 H 0.68649 0.73174 0.82246 0.0
H4974 H 0.64445 0.72825 0.77715 0.0
H4975 H 0.64407 0.76075 0.78454 0.0
C4976 C 0.60601 0.80735 0.85689 0.0
C4977 C 0.592 0.81114 0.84433 0.0
C4978 C 0.62318 0.80543 0.85122 0.0
C4979 C 0.62689 0.80685 0.8327 0.0
C4980 C 0.61281 0.81024 0.82011 0.0
C4981 C 0.59588 0.81261 0.82584 0.0
C4982 C 0.64512 0.80437 0.82633 0.0
C4983 C 0.64736 0.78712 0.81896 0.0
C4984 C 0.66043 0.81877 0.8277 0.0
C4985 C 0.65928 0.83738 0.8351 0.0
C4986 C 0.64726 0.84675 0.82591 0.0
C4987 C 0.64631 0.86439 0.8329 0.0
C4988 C 0.65748 0.87287 0.84898 0.0
C4989 C 0.66965 0.86374 0.85805 0.0
C4990 C 0.6706 0.84606 0.85114 0.0
C4991 C 0.71546 0.78486 0.78344 0.0
C4992 C 0.73227 0.79172 0.79455 0.0
C4993 C 0.69859 0.78673 0.7898 0.0
C4994 C 0.69769 0.79587 0.80748 0.0
C4995 C 0.7145 0.8031 0.81843 0.0
C4996 C 0.73135 0.80092 0.81219 0.0
C4997 C 0.67949 0.79835 0.81427 0.0
C4998 C 0.67722 0.81563 0.82183 0.0
C4999 C 0.66414 0.78392 0.81317 0.0
C5000 C 0.66544 0.76493 0.80761 0.0
C5001 C 0.67747 0.75662 0.81818 0.0
C5002 C 0.67734 0.73815 0.81414 0.0
C5003 C 0.6654 0.72792 0.79939 0.0
C5004 C 0.65363 0.73617 0.7886 0.0
C5005 C 0.65352 0.75459 0.79276 0.0
H5006 H 0.66535 0.71362 0.79625 0.0
H5007 H 0.65677 0.88655 0.85435 0.0
H5008 H 0.47175 0.53418 0.72336 0.0
H5009 H 0.48296 0.53657 0.69298 0.0
H5010 H 0.43271 0.50331 0.66625 0.0
H5011 H 0.42112 0.50131 0.6966 0.0
H5012 H 0.47712 0.49751 0.66026 0.0
H5013 H 0.42886 0.53471 0.65486 0.0
H5014 H 0.41526 0.55993 0.66747 0.0
H5015 H 0.46657 0.59656 0.66997 0.0
H5016 H 0.48052 0.57145 0.65769 0.0
H5017 H 0.49475 0.49876 0.56704 0.0
H5018 H 0.48052 0.49649 0.59558 0.0
H5019 H 0.49675 0.55452 0.60953 0.0
H5020 H 0.50801 0.55685 0.57927 0.0
H5021 H 0.46955 0.54806 0.62339 0.0
H5022 H 0.51889 0.5165 0.6291 0.0
H5023 H 0.53762 0.49419 0.62023 0.0
H5024 H 0.49242 0.45067 0.62182 0.0
H5025 H 0.47337 0.47273 0.6305 0.0
C5026 C 0.46302 0.52739 0.71103 0.0
C5027 C 0.44549 0.51754 0.7125 0.0
C5028 C 0.46947 0.52879 0.69364 0.0
C5029 C 0.4587 0.52017 0.67727 0.0
C5030 C 0.44126 0.51017 0.67865 0.0
C5031 C 0.43464 0.50905 0.69603 0.0
C5032 C 0.46577 0.52148 0.6588 0.0
C5033 C 0.47527 0.50839 0.652 0.0
C5034 C 0.46425 0.53615 0.64847 0.0
C5035 C 0.45576 0.55119 0.65561 0.0
C5036 C 0.43727 0.5481 0.65831 0.0
C5037 C 0.42949 0.56238 0.66535 0.0
C5038 C 0.44006 0.57983 0.66958 0.0
C5039 C 0.45841 0.58304 0.66672 0.0
C5040 C 0.46625 0.56879 0.65973 0.0
C5041 C 0.49455 0.51109 0.57583 0.0
C5042 C 0.50204 0.52802 0.57058 0.0
C5043 C 0.48696 0.50977 0.59264 0.0
C5044 C 0.48792 0.52524 0.6055 0.0
C5045 C 0.49561 0.54222 0.60018 0.0
C5046 C 0.50228 0.54359 0.58286 0.0
C5047 C 0.48086 0.5238 0.62424 0.0
C5048 C 0.47148 0.53699 0.63133 0.0
C5049 C 0.48318 0.50956 0.63523 0.0
C5050 C 0.49467 0.49627 0.63028 0.0
C5051 C 0.51293 0.50217 0.62749 0.0
C5052 C 0.5236 0.48957 0.6225 0.0
C5053 C 0.51619 0.47103 0.62041 0.0
C5054 C 0.49813 0.46504 0.62341 0.0
C5055 C 0.4874 0.47758 0.62839 0.0
H5056 H 0.52446 0.4613 0.61651 0.0
H5057 H 0.43401 0.59086 0.67503 0.0
H5058 H 0.79037 0.17908 0.00796 0.0
H5059 H 0.79242 0.19908 0.9836 0.0
H5060 H 0.77353 0.153 0.94203 0.0
H5061 H 0.77163 0.13278 0.96623 0.0
H5062 H 0.8001 0.17925 0.93101 0.0
H5063 H 0.74343 0.17516 0.95929 0.0
H5064 H 0.72548 0.17808 0.98562 0.0
H5065 H 0.75048 0.2344 0.99787 0.0
H5066 H 0.76875 0.23173 0.97175 0.0
H5067 H 0.74907 0.20607 0.85676 0.0
H5068 H 0.76308 0.19324 0.88272 0.0
H5069 H 0.77181 0.24515 0.91624 0.0
H5070 H 0.75709 0.2578 0.89041 0.0
H5071 H 0.75586 0.22042 0.93384 0.0
H5072 H 0.80937 0.2261 0.90309 0.0
H5073 H 0.82806 0.22363 0.8773 0.0
H5074 H 0.81 0.1658 0.86974 0.0
H5075 H 0.79121 0.16795 0.89547 0.0
C5076 C 0.78693 0.17314 0.99362 0.0
C5077 C 0.78054 0.1544 0.98899 0.0
C5078 C 0.78817 0.18459 0.97977 0.0
C5079 C 0.78288 0.17744 0.96118 0.0
C5080 C 0.77767 0.15867 0.95638 0.0
C5081 C 0.77651 0.14718 0.97022 0.0
C5082 C 0.7808 0.18955 0.9469 0.0
C5083 C 0.79047 0.1883 0.93153 0.0
C5084 C 0.76859 0.20165 0.94804 0.0
C5085 C 0.75761 0.20319 0.96374 0.0
C5086 C 0.7452 0.18812 0.9677 0.0
C5087 C 0.73495 0.18974 0.98257 0.0
C5088 C 0.73688 0.2064 0.99345 0.0
C5089 C 0.74903 0.22149 0.98946 0.0
C5090 C 0.75933 0.21994 0.97464 0.0
C5091 C 0.7541 0.2147 0.86968 0.0
C5092 C 0.75182 0.23275 0.87187 0.0
C5093 C 0.76234 0.20747 0.88437 0.0
C5094 C 0.76876 0.21836 0.90129 0.0
C5095 C 0.76698 0.23659 0.90326 0.0
C5096 C 0.75846 0.24373 0.88865 0.0
C5097 C 0.77498 0.21003 0.91758 0.0
C5098 C 0.76595 0.21185 0.9334 0.0
C5099 C 0.78784 0.19856 0.91685 0.0
C5100 C 0.79882 0.19721 0.90113 0.0
C5101 C 0.80929 0.21288 0.89582 0.0
C5102 C 0.81994 0.21153 0.88126 0.0
C5103 C 0.82019 0.19457 0.87186 0.0
C5104 C 0.80981 0.17893 0.87703 0.0
C5105 C 0.7992 0.1802 0.89165 0.0
H5106 H 0.82844 0.19355 0.86059 0.0
H5107 H 0.72892 0.20764 0.00494 0.0
H5108 H 0.13179 0.5113 0.20994 0.0
H5109 H 0.11451 0.51101 0.17952 0.0
H5110 H 0.15498 0.55512 0.16708 0.0
H5111 H 0.17262 0.55519 0.19713 0.0
H5112 H 0.11185 0.55648 0.16802 0.0
H5113 H 0.15786 0.52698 0.14184 0.0
H5114 H 0.17626 0.50316 0.1399 0.0
H5115 H 0.12753 0.4622 0.12941 0.0
H5116 H 0.10885 0.48579 0.1316 0.0
H5117 H 0.06655 0.5638 0.07989 0.0
H5118 H 0.08888 0.56475 0.10687 0.0
H5119 H 0.07471 0.50628 0.10417 0.0
H5120 H 0.05444 0.5054 0.07564 0.0
H5121 H 0.10754 0.51407 0.11067 0.0
H5122 H 0.06076 0.54054 0.13785 0.0
H5123 H 0.04038 0.56251 0.14091 0.0
H5124 H 0.08662 0.60637 0.15175 0.0
H5125 H 0.10726 0.58468 0.14853 0.0
C5126 C 0.13717 0.52064 0.20052 0.0
C5127 C 0.15345 0.53326 0.20577 0.0
C5128 C 0.12735 0.52045 0.18326 0.0
C5129 C 0.13364 0.53304 0.17132 0.0
C5130 C 0.15014 0.54527 0.17624 0.0
C5131 C 0.16015 0.54523 0.19331 0.0
C5132 C 0.12206 0.53449 0.15447 0.0
C5133 C 0.11094 0.5474 0.15532 0.0
C5134 C 0.12077 0.52226 0.13836 0.0
C5135 C 0.13199 0.50812 0.13713 0.0
C5136 C 0.15108 0.51288 0.13936 0.0
C5137 C 0.16156 0.49943 0.13815 0.0
C5138 C 0.15307 0.48117 0.13459 0.0
C5139 C 0.13409 0.47634 0.1322 0.0
C5140 C 0.12356 0.48974 0.13342 0.0
C5141 C 0.06838 0.55124 0.08518 0.0
C5142 C 0.05929 0.53452 0.07585 0.0
C5143 C 0.08092 0.55176 0.10068 0.0
C5144 C 0.08329 0.5356 0.1078 0.0
C5145 C 0.07331 0.51892 0.09884 0.0
C5146 C 0.06168 0.51838 0.0827 0.0
C5147 C 0.0966 0.53579 0.12414 0.0
C5148 C 0.10823 0.52323 0.12326 0.0
C5149 C 0.09793 0.54803 0.14046 0.0
C5150 C 0.08553 0.56101 0.14281 0.0
C5151 C 0.06656 0.55488 0.14083 0.0
C5152 C 0.05497 0.56728 0.14258 0.0
C5153 C 0.0622 0.58583 0.14648 0.0
C5154 C 0.08104 0.59201 0.14871 0.0
C5155 C 0.09269 0.57967 0.14695 0.0
H5156 H 0.0532 0.59541 0.14779 0.0
H5157 H 0.1612 0.47078 0.13364 0.0
H5158 H 0.76792 0.87743 0.46512 0.0
H5159 H 0.76745 0.86115 0.43421 0.0
H5160 H 0.80813 0.83297 0.45615 0.0
H5161 H 0.80808 0.84863 0.48729 0.0
H5162 H 0.80393 0.86104 0.41562 0.0
H5163 H 0.79303 0.80258 0.44545 0.0
H5164 H 0.77614 0.78373 0.46634 0.0
H5165 H 0.7255 0.78977 0.43732 0.0
H5166 H 0.74219 0.80911 0.41661 0.0
H5167 H 0.81502 0.80135 0.33568 0.0
H5168 H 0.8159 0.81389 0.36817 0.0
H5169 H 0.75805 0.81179 0.35975 0.0
H5170 H 0.7573 0.79967 0.32712 0.0
H5171 H 0.77126 0.79814 0.39399 0.0
H5172 H 0.78158 0.84966 0.36002 0.0
H5173 H 0.79679 0.86923 0.3387 0.0
H5174 H 0.84711 0.87753 0.37457 0.0
H5175 H 0.83226 0.85767 0.39594 0.0
C5176 C 0.7764 0.86739 0.46347 0.0
C5177 C 0.78777 0.86408 0.47878 0.0
C5178 C 0.7762 0.85817 0.44575 0.0
C5179 C 0.78754 0.8456 0.44283 0.0
C5180 C 0.79885 0.84218 0.4581 0.0
C5181 C 0.79878 0.85113 0.47593 0.0
C5182 C 0.78812 0.83687 0.42363 0.0
C5183 C 0.79708 0.84718 0.41098 0.0
C5184 C 0.77881 0.81897 0.41734 0.0
C5185 C 0.76882 0.80758 0.42982 0.0
C5186 C 0.77831 0.80015 0.44378 0.0
C5187 C 0.76878 0.78934 0.45553 0.0
C5188 C 0.74976 0.78564 0.45324 0.0
C5189 C 0.74023 0.79274 0.43916 0.0
C5190 C 0.74972 0.80367 0.42745 0.0
C5191 C 0.80251 0.80329 0.34079 0.0
C5192 C 0.78614 0.79935 0.32881 0.0
C5193 C 0.80301 0.8106 0.35937 0.0
C5194 C 0.78703 0.81379 0.36647 0.0
C5195 C 0.77055 0.80942 0.35465 0.0
C5196 C 0.77016 0.80254 0.33599 0.0
C5197 C 0.78753 0.82211 0.38605 0.0
C5198 C 0.77849 0.81186 0.39868 0.0
C5199 C 0.79687 0.84007 0.3923 0.0
C5200 C 0.80587 0.85194 0.37944 0.0
C5201 C 0.79594 0.85546 0.36325 0.0
C5202 C 0.80449 0.86664 0.35118 0.0
C5203 C 0.82293 0.87456 0.35524 0.0
C5204 C 0.83284 0.87134 0.37141 0.0
C5205 C 0.82437 0.8601 0.38351 0.0
H5206 H 0.82951 0.88324 0.34589 0.0
H5207 H 0.7424 0.77721 0.4623 0.0
H5208 H 0.46056 0.50105 0.81373 0.0
H5209 H 0.4764 0.50115 0.845 0.0
H5210 H 0.45797 0.54981 0.86358 0.0
H5211 H 0.44155 0.54933 0.8327 0.0
H5212 H 0.50351 0.53366 0.87053 0.0
H5213 H 0.43833 0.53829 0.8863 0.0
H5214 H 0.40546 0.52669 0.87719 0.0
H5215 H 0.41434 0.472 0.87457 0.0
H5216 H 0.44734 0.48337 0.88314 0.0
H5217 H 0.52772 0.55238 0.96772 0.0
H5218 H 0.51435 0.55186 0.93572 0.0
H5219 H 0.48581 0.49696 0.93635 0.0
H5220 H 0.49836 0.49787 0.96879 0.0
H5221 H 0.46413 0.51376 0.91851 0.0
H5222 H 0.52547 0.50804 0.91386 0.0
H5223 H 0.55885 0.51602 0.92111 0.0
H5224 H 0.55905 0.56751 0.90066 0.0
H5225 H 0.52561 0.55995 0.89357 0.0
C5226 C 0.46026 0.51199 0.82438 0.0
C5227 C 0.44991 0.52526 0.82072 0.0
C5228 C 0.46919 0.51196 0.84228 0.0
C5229 C 0.46811 0.52531 0.85675 0.0
C5230 C 0.45869 0.53915 0.85279 0.0
C5231 C 0.44946 0.53897 0.83507 0.0
C5232 C 0.47605 0.52443 0.87619 0.0
C5233 C 0.49493 0.5295 0.8811 0.0
C5234 C 0.46499 0.51841 0.88984 0.0
C5235 C 0.44522 0.51165 0.8851 0.0
C5236 C 0.43325 0.52381 0.88361 0.0
C5237 C 0.41463 0.51728 0.87854 0.0
C5238 C 0.40782 0.49862 0.87526 0.0
C5239 C 0.41963 0.48645 0.87706 0.0
C5240 C 0.4383 0.49292 0.88194 0.0
C5241 C 0.51861 0.54016 0.9611 0.0
C5242 C 0.5145 0.52496 0.97082 0.0
C5243 C 0.51103 0.53983 0.94265 0.0
C5244 C 0.49934 0.52421 0.93325 0.0
C5245 C 0.49489 0.50916 0.94308 0.0
C5246 C 0.5023 0.50958 0.96163 0.0
C5247 C 0.49173 0.52367 0.91329 0.0
C5248 C 0.47286 0.51811 0.90814 0.0
C5249 C 0.50292 0.529 0.89936 0.0
C5250 C 0.52303 0.53348 0.90331 0.0
C5251 C 0.53263 0.5211 0.911 0.0
C5252 C 0.55156 0.52555 0.91508 0.0
C5253 C 0.56106 0.54227 0.91137 0.0
C5254 C 0.55166 0.55457 0.90353 0.0
C5255 C 0.53272 0.5502 0.89946 0.0
H5256 H 0.57572 0.5457 0.91455 0.0
H5257 H 0.39339 0.49359 0.87135 0.0
H5258 H 0.77948 0.19163 0.08355 0.0
H5259 H 0.78337 0.20782 0.11459 0.0
H5260 H 0.78024 0.15721 0.13827 0.0
H5261 H 0.77551 0.14073 0.10692 0.0
H5262 H 0.76045 0.17756 0.15473 0.0
H5263 H 0.82175 0.18752 0.13946 0.0
H5264 H 0.84634 0.19598 0.12005 0.0
H5265 H 0.83527 0.24982 0.1213 0.0
H5266 H 0.81047 0.24162 0.14052 0.0
H5267 H 0.8081 0.2407 0.24009 0.0
H5268 H 0.80623 0.21816 0.21323 0.0
H5269 H 0.76475 0.24109 0.18428 0.0
H5270 H 0.76612 0.26347 0.21124 0.0
H5271 H 0.80978 0.23147 0.17373 0.0
H5272 H 0.73964 0.21218 0.17591 0.0
H5273 H 0.71468 0.20248 0.19461 0.0
H5274 H 0.7452 0.1664 0.2196 0.0
H5275 H 0.77032 0.17598 0.20103 0.0
C5276 C 0.7797 0.18395 0.09537 0.0
C5277 C 0.7773 0.16499 0.09297 0.0
C5278 C 0.78205 0.19321 0.11307 0.0
C5279 C 0.78257 0.18371 0.12866 0.0
C5280 C 0.78004 0.16473 0.12633 0.0
C5281 C 0.77733 0.15538 0.10852 0.0
C5282 C 0.7849 0.19373 0.1473 0.0
C5283 C 0.77143 0.18915 0.15897 0.0
C5284 C 0.79918 0.2089 0.1528 0.0
C5285 C 0.81421 0.21392 0.14138 0.0
C5286 C 0.82451 0.20113 0.13552 0.0
C5287 C 0.83849 0.20589 0.12456 0.0
C5288 C 0.84235 0.22342 0.11943 0.0
C5289 C 0.83227 0.23625 0.12529 0.0
C5290 C 0.81828 0.23157 0.13625 0.0
C5291 C 0.79842 0.24082 0.2281 0.0
C5292 C 0.78721 0.25375 0.2277 0.0
C5293 C 0.79738 0.22795 0.21287 0.0
C5294 C 0.78513 0.22793 0.19716 0.0
C5295 C 0.774 0.24084 0.19659 0.0
C5296 C 0.77499 0.2537 0.21183 0.0
C5297 C 0.78515 0.21547 0.18062 0.0
C5298 C 0.79908 0.21964 0.16947 0.0
C5299 C 0.7714 0.19997 0.17559 0.0
C5300 C 0.7568 0.19487 0.18728 0.0
C5301 C 0.74102 0.20228 0.1855 0.0
C5302 C 0.72684 0.19674 0.19598 0.0
C5303 C 0.72833 0.18378 0.20823 0.0
C5304 C 0.74406 0.17642 0.2101 0.0
C5305 C 0.75826 0.18191 0.19962 0.0
H5306 H 0.71734 0.17952 0.21635 0.0
H5307 H 0.85318 0.22707 0.11093 0.0
H5308 H 0.14369 0.51538 0.29632 0.0
H5309 H 0.12451 0.51207 0.32153 0.0
H5310 H 0.16187 0.55627 0.35524 0.0
H5311 H 0.18196 0.55778 0.33135 0.0
H5312 H 0.15101 0.53579 0.3766 0.0
H5313 H 0.1177 0.55851 0.32541 0.0
H5314 H 0.10227 0.55679 0.29358 0.0
H5315 H 0.06672 0.5074 0.3014 0.0
H5316 H 0.08205 0.50879 0.33321 0.0
H5317 H 0.09292 0.58776 0.41931 0.0
H5318 H 0.11081 0.57518 0.39677 0.0
H5319 H 0.08253 0.52112 0.40195 0.0
H5320 H 0.06482 0.53365 0.42488 0.0
H5321 H 0.08569 0.53786 0.36236 0.0
H5322 H 0.11906 0.52066 0.417 0.0
H5323 H 0.13505 0.52653 0.44874 0.0
H5324 H 0.1707 0.57279 0.4339 0.0
H5325 H 0.15513 0.56688 0.40181 0.0
C5326 C 0.14786 0.52411 0.3093 0.0
C5327 C 0.16411 0.53707 0.3118 0.0
C5328 C 0.13681 0.52238 0.3236 0.0
C5329 C 0.1414 0.53428 0.34014 0.0
C5330 C 0.15793 0.54686 0.34269 0.0
C5331 C 0.16937 0.54791 0.32887 0.0
C5332 C 0.12902 0.53439 0.35472 0.0
C5333 C 0.13674 0.53626 0.37335 0.0
C5334 C 0.11022 0.53449 0.35069 0.0
C5335 C 0.10116 0.53362 0.33154 0.0
C5336 C 0.10667 0.54724 0.32027 0.0
C5337 C 0.09793 0.54633 0.30225 0.0
C5338 C 0.08357 0.53195 0.29545 0.0
C5339 C 0.07788 0.51849 0.30666 0.0
C5340 C 0.08657 0.51933 0.32468 0.0
C5341 C 0.09055 0.57322 0.41558 0.0
C5342 C 0.07752 0.56161 0.42356 0.0
C5343 C 0.10078 0.56608 0.40289 0.0
C5344 C 0.09789 0.54731 0.39792 0.0
C5345 C 0.08487 0.53564 0.40581 0.0
C5346 C 0.07484 0.54277 0.41878 0.0
C5347 C 0.10808 0.54023 0.38375 0.0
C5348 C 0.09989 0.53698 0.36536 0.0
C5349 C 0.1266 0.53966 0.38787 0.0
C5350 C 0.13585 0.54341 0.40712 0.0
C5351 C 0.13022 0.53215 0.42056 0.0
C5352 C 0.13924 0.53548 0.43861 0.0
C5353 C 0.15375 0.55016 0.44346 0.0
C5354 C 0.15941 0.56145 0.43016 0.0
C5355 C 0.15058 0.55805 0.412 0.0
H5356 H 0.16066 0.55272 0.45749 0.0
H5357 H 0.07682 0.53128 0.2815 0.0
H5358 H 0.80074 0.89099 0.6034 0.0
H5359 H 0.79817 0.87946 0.63354 0.0
H5360 H 0.78287 0.82481 0.60604 0.0
H5361 H 0.78486 0.83634 0.5759 0.0
H5362 H 0.76317 0.82686 0.63223 0.0
H5363 H 0.82702 0.84406 0.6305 0.0
H5364 H 0.85615 0.86393 0.62724 0.0
H5365 H 0.84918 0.90042 0.67375 0.0
H5366 H 0.81985 0.8809 0.67712 0.0
H5367 H 0.78759 0.78158 0.71093 0.0
H5368 H 0.78865 0.79517 0.68185 0.0
H5369 H 0.78239 0.84598 0.71015 0.0
H5370 H 0.78039 0.83222 0.73933 0.0
H5371 H 0.81247 0.84645 0.68455 0.0
H5372 H 0.74808 0.82618 0.68606 0.0
H5373 H 0.72061 0.8037 0.68905 0.0
H5374 H 0.73093 0.76983 0.64205 0.0
H5375 H 0.75868 0.79196 0.63901 0.0
C5376 C 0.7968 0.87651 0.60375 0.0
C5377 C 0.79309 0.86463 0.58712 0.0
C5378 C 0.79545 0.86987 0.62109 0.0
C5379 C 0.7906 0.85113 0.62235 0.0
C5380 C 0.78666 0.8393 0.60568 0.0
C5381 C 0.78787 0.84593 0.58836 0.0
C5382 C 0.78956 0.84381 0.64088 0.0
C5383 C 0.7741 0.83109 0.64353 0.0
C5384 C 0.80361 0.84928 0.65598 0.0
C5385 C 0.82113 0.86114 0.6539 0.0
C5386 C 0.83161 0.85642 0.63992 0.0
C5387 C 0.84818 0.8676 0.63807 0.0
C5388 C 0.85448 0.88346 0.65024 0.0
C5389 C 0.84426 0.88816 0.66431 0.0
C5390 C 0.82766 0.87704 0.66619 0.0
C5391 C 0.78611 0.79558 0.71104 0.0
C5392 C 0.78346 0.80562 0.72758 0.0
C5393 C 0.78686 0.80337 0.69433 0.0
C5394 C 0.78548 0.82158 0.6937 0.0
C5395 C 0.78341 0.83187 0.71024 0.0
C5396 C 0.78223 0.82395 0.72693 0.0
C5397 C 0.78614 0.82971 0.67573 0.0
C5398 C 0.80155 0.84244 0.6732 0.0
C5399 C 0.77225 0.82397 0.66064 0.0
C5400 C 0.75556 0.81066 0.66242 0.0
C5401 C 0.7446 0.81386 0.67648 0.0
C5402 C 0.72895 0.8012 0.67815 0.0
C5403 C 0.72402 0.78536 0.66573 0.0
C5404 C 0.73475 0.78212 0.65164 0.0
C5405 C 0.75045 0.79472 0.64994 0.0
H5406 H 0.71189 0.77557 0.66705 0.0
H5407 H 0.86732 0.89209 0.6488 0.0
H5408 H 0.76021 0.47898 0.49521 0.0
H5409 H 0.73071 0.48659 0.49988 0.0
H5410 H 0.70741 0.42996 0.49965 0.0
H5411 H 0.73702 0.42215 0.49542 0.0
H5412 H 0.68929 0.46583 0.47881 0.0
H5413 H 0.7051 0.43425 0.53396 0.0
H5414 H 0.72784 0.42751 0.55772 0.0
H5415 H 0.74756 0.48448 0.57374 0.0
H5416 H 0.72514 0.49151 0.54979 0.0
H5417 H 0.61754 0.48887 0.53273 0.0
H5418 H 0.63747 0.47318 0.5153 0.0
H5419 H 0.6837 0.51449 0.53899 0.0
H5420 H 0.66393 0.53028 0.55629 0.0
H5421 H 0.68614 0.47968 0.5463 0.0
H5422 H 0.66941 0.51182 0.49486 0.0
H5423 H 0.64908 0.52081 0.47031 0.0
H5424 H 0.63241 0.46526 0.44651 0.0
H5425 H 0.65242 0.4559 0.47111 0.0
C5426 C 0.74873 0.46812 0.49576 0.0
C5427 C 0.75083 0.45004 0.49526 0.0
C5428 C 0.73196 0.47247 0.49834 0.0
C5429 C 0.7172 0.45875 0.50015 0.0
C5430 C 0.71886 0.44059 0.49831 0.0
C5431 C 0.7357 0.43623 0.49602 0.0
C5432 C 0.70099 0.46393 0.50653 0.0
C5433 C 0.68812 0.46842 0.49352 0.0
C5434 C 0.70007 0.46757 0.52571 0.0
C5435 C 0.71368 0.46338 0.53992 0.0
C5436 C 0.71446 0.44532 0.54238 0.0
C5437 C 0.72725 0.44145 0.55591 0.0
C5438 C 0.7392 0.45556 0.56718 0.0
C5439 C 0.73835 0.47356 0.56495 0.0
C5440 C 0.72563 0.4775 0.55139 0.0
C5441 C 0.63192 0.49474 0.53391 0.0
C5442 C 0.63937 0.51056 0.54608 0.0
C5443 C 0.64319 0.48584 0.52392 0.0
C5444 C 0.66191 0.49275 0.52601 0.0
C5445 C 0.6692 0.50902 0.53735 0.0
C5446 C 0.658 0.51789 0.54733 0.0
C5447 C 0.67439 0.48197 0.51858 0.0
C5448 C 0.68669 0.47651 0.53152 0.0
C5449 C 0.6747 0.47752 0.49934 0.0
C5450 C 0.66215 0.48312 0.48504 0.0
C5451 C 0.66117 0.50148 0.48459 0.0
C5452 C 0.64977 0.50666 0.47061 0.0
C5453 C 0.63938 0.49361 0.45692 0.0
C5454 C 0.64039 0.47535 0.45717 0.0
C5455 C 0.65175 0.4701 0.47113 0.0
H5456 H 0.63061 0.49766 0.44607 0.0
H5457 H 0.74906 0.45253 0.57767 0.0
H5458 H 0.20508 0.15881 0.48117 0.0
H5459 H 0.17713 0.13688 0.48151 0.0
H5460 H 0.19715 0.12554 0.53611 0.0
H5461 H 0.22648 0.14418 0.53332 0.0
H5462 H 0.18055 0.09807 0.52465 0.0
H5463 H 0.15735 0.15465 0.51727 0.0
H5464 H 0.15304 0.18092 0.50076 0.0
H5465 H 0.13004 0.14519 0.45133 0.0
H5466 H 0.13434 0.11877 0.46749 0.0
H5467 H 0.09395 0.05698 0.54864 0.0
H5468 H 0.12249 0.0776 0.54604 0.0
H5469 H 0.10649 0.07642 0.48723 0.0
H5470 H 0.07718 0.05729 0.49038 0.0
H5471 H 0.12033 0.10839 0.49938 0.0
H5472 H 0.14131 0.05197 0.51085 0.0
H5473 H 0.14372 0.0271 0.53005 0.0
H5474 H 0.16945 0.06573 0.57647 0.0
H5475 H 0.16703 0.09079 0.55761 0.0
C5476 C 0.2035 0.1512 0.49296 0.0
C5477 C 0.21808 0.15255 0.50681 0.0
C5478 C 0.18713 0.13904 0.49358 0.0
C5479 C 0.18421 0.12946 0.50911 0.0
C5480 C 0.19867 0.13206 0.52361 0.0
C5481 C 0.21548 0.14301 0.52221 0.0
C5482 C 0.16665 0.1164 0.51035 0.0
C5483 C 0.16747 0.10083 0.51946 0.0
C5484 C 0.14917 0.11892 0.50299 0.0
C5485 C 0.1463 0.13481 0.49353 0.0
C5486 C 0.15139 0.15244 0.50289 0.0
C5487 C 0.14898 0.16734 0.49358 0.0
C5488 C 0.14138 0.16472 0.47498 0.0
C5489 C 0.136 0.1472 0.4657 0.0
C5490 C 0.13838 0.13228 0.47493 0.0
C5491 C 0.09672 0.06098 0.53514 0.0
C5492 C 0.08354 0.05547 0.51965 0.0
C5493 C 0.1131 0.0727 0.53361 0.0
C5494 C 0.11707 0.07831 0.5163 0.0
C5495 C 0.10392 0.07236 0.50075 0.0
C5496 C 0.08723 0.0613 0.50248 0.0
C5497 C 0.13445 0.09093 0.51437 0.0
C5498 C 0.13354 0.10611 0.50487 0.0
C5499 C 0.15175 0.08842 0.52193 0.0
C5500 C 0.15396 0.07322 0.53283 0.0
C5501 C 0.14753 0.05513 0.52513 0.0
C5502 C 0.14886 0.04101 0.53597 0.0
C5503 C 0.15673 0.04483 0.55447 0.0
C5504 C 0.16338 0.06278 0.56214 0.0
C5505 C 0.16207 0.07693 0.55138 0.0
H5506 H 0.15768 0.03389 0.56285 0.0
H5507 H 0.13958 0.17627 0.46779 0.0
H5508 H 0.1922 0.01068 0.80097 0.0
H5509 H 0.20309 0.98276 0.795 0.0
H5510 H 0.14903 0.95506 0.77228 0.0
H5511 H 0.13772 0.98358 0.77796 0.0
H5512 H 0.17268 0.93759 0.80166 0.0
H5513 H 0.17194 0.96051 0.74202 0.0
H5514 H 0.1777 0.98425 0.72116 0.0
H5515 H 0.23489 0.99375 0.73994 0.0
H5516 H 0.22942 0.97026 0.76115 0.0
H5517 H 0.20829 0.86205 0.76013 0.0
H5518 H 0.19121 0.8853 0.77005 0.0
H5519 H 0.24092 0.9255 0.77844 0.0
H5520 H 0.25789 0.90225 0.76852 0.0
H5521 H 0.21586 0.93479 0.75467 0.0
H5522 H 0.21806 0.91436 0.81466 0.0
H5523 H 0.21415 0.89233 0.83753 0.0
H5524 H 0.15658 0.87957 0.82042 0.0
H5525 H 0.16018 0.90136 0.79725 0.0
C5526 C 0.18244 0.99877 0.79469 0.0
C5527 C 0.16399 0.99948 0.78991 0.0
C5528 C 0.18878 0.98275 0.79133 0.0
C5529 C 0.17689 0.96688 0.78326 0.0
C5530 C 0.15839 0.96724 0.77861 0.0
C5531 C 0.15198 0.98352 0.78174 0.0
C5532 C 0.18446 0.95033 0.77932 0.0
C5533 C 0.18174 0.93664 0.79106 0.0
C5534 C 0.19688 0.9496 0.76604 0.0
C5535 C 0.20024 0.96371 0.75327 0.0
C5536 C 0.18572 0.96777 0.74183 0.0
C5537 C 0.18894 0.98116 0.72992 0.0
C5538 C 0.20665 0.99053 0.72925 0.0
C5539 C 0.22118 0.9865 0.74048 0.0
C5540 C 0.21803 0.97313 0.75244 0.0
C5541 C 0.21562 0.87568 0.76497 0.0
C5542 C 0.2344 0.88038 0.76393 0.0
C5543 C 0.20586 0.88899 0.77048 0.0
C5544 C 0.21477 0.90718 0.77488 0.0
C5545 C 0.23376 0.91157 0.77507 0.0
C5546 C 0.24348 0.89828 0.76963 0.0
C5547 C 0.2042 0.92191 0.77705 0.0
C5548 C 0.20651 0.9354 0.76504 0.0
C5549 C 0.19162 0.92251 0.79023 0.0
C5550 C 0.18942 0.90932 0.80405 0.0
C5551 C 0.20459 0.90671 0.81563 0.0
C5552 C 0.20243 0.8943 0.82868 0.0
C5553 C 0.18514 0.8845 0.83038 0.0
C5554 C 0.16997 0.88714 0.81906 0.0
C5555 C 0.17206 0.89952 0.80597 0.0
H5556 H 0.18349 0.87492 0.84051 0.0
H5557 H 0.20912 1.00088 0.72001 0.0
H5558 H 0.33823 0.97662 0.01514 0.0
H5559 H 0.36952 0.99342 0.02104 0.0
H5560 H 0.38826 0.94671 0.99705 0.0
H5561 H 0.35669 0.93014 0.99025 0.0
H5562 H 0.40177 0.95738 0.03377 0.0
H5563 H 0.40487 0.98548 0.97688 0.0
H5564 H 0.40069 1.00417 0.95139 0.0
H5565 H 0.39289 0.04756 0.9905 0.0
H5566 H 0.39751 0.02924 0.01624 0.0
H5567 H 0.49122 0.9911 0.01997 0.0
H5568 H 0.46097 0.97684 0.02604 0.0
H5569 H 0.45247 0.02852 0.05069 0.0
H5570 H 0.48271 0.04287 0.04395 0.0
H5571 H 0.43236 0.0172 0.01885 0.0
H5572 H 0.44306 0.98939 0.07429 0.0
H5573 H 0.45859 0.97169 0.09521 0.0
H5574 H 0.4464 0.92567 0.05362 0.0
H5575 H 0.43047 0.94286 0.03252 0.0
C5576 C 0.34893 0.97037 0.01008 0.0
C5577 C 0.34517 0.95238 1.00173 0.0
C5578 C 0.36679 0.97989 0.01363 0.0
C5579 C 0.38108 0.97126 0.00942 0.0
C5580 C 0.3773 0.95356 1.00025 0.0
C5581 C 0.35938 0.94415 0.9964 0.0
C5582 C 0.39971 0.97952 0.01753 0.0
C5583 C 0.4086 0.97042 0.03045 0.0
C5584 C 0.40822 0.99672 0.01371 0.0
C5585 C 0.4012 1.00592 0.99837 0.0
C5586 C 0.40182 0.99884 0.97995 0.0
C5587 C 0.3998 0.00951 0.96553 0.0
C5588 C 0.39681 0.02715 0.96937 0.0
C5589 C 0.39538 0.03398 0.98758 0.0
C5590 C 0.3977 0.02346 1.00208 0.0
C5591 C 0.4831 0.99917 0.02739 0.0
C5592 C 0.48883 0.01792 0.03141 0.0
C5593 C 0.46597 0.99101 0.03114 0.0
C5594 C 0.4545 1.00164 0.03887 0.0
C5595 C 0.46121 0.02012 0.04485 0.0
C5596 C 0.47827 0.02832 0.04082 0.0
C5597 C 0.43476 0.99504 0.03492 0.0
C5598 C 0.42543 1.00445 0.02278 0.0
C5599 C 0.42621 0.97789 0.03905 0.0
C5600 C 0.43558 0.96744 0.05181 0.0
C5601 C 0.44373 0.97551 0.06958 0.0
C5602 C 0.45261 0.96559 0.08147 0.0
C5603 C 0.45365 0.94769 0.0757 0.0
C5604 C 0.44561 0.93956 0.05808 0.0
C5605 C 0.43652 0.94933 0.04619 0.0
H5606 H 0.46064 0.9401 0.08492 0.0
H5607 H 0.39527 0.0354 0.95818 0.0
H5608 H 0.84565 0.5524 0.77685 0.0
H5609 H 0.83624 0.58077 0.77079 0.0
H5610 H 0.87503 0.60954 0.81637 0.0
H5611 H 0.88445 0.58087 0.82253 0.0
H5612 H 0.83772 0.61775 0.81347 0.0
H5613 H 0.88793 0.61437 0.77779 0.0
H5614 H 0.90503 0.59875 0.75636 0.0
H5615 H 0.85964 0.59 0.71375 0.0
H5616 H 0.84215 0.60531 0.73502 0.0
H5617 H 0.82301 0.70062 0.77789 0.0
H5618 H 0.8354 0.67682 0.79254 0.0
H5619 H 0.8137 0.63897 0.74372 0.0
H5620 H 0.80219 0.66292 0.72885 0.0
H5621 H 0.84751 0.6387 0.75207 0.0
H5622 H 0.79581 0.63796 0.78683 0.0
H5623 H 0.77616 0.65018 0.80796 0.0
H5624 H 0.82095 0.66383 0.85139 0.0
H5625 H 0.84093 0.65191 0.83043 0.0
C5626 C 0.85196 0.56477 0.78566 0.0
C5627 C 0.8656 0.5648 0.80012 0.0
C5628 C 0.84667 0.58086 0.7822 0.0
C5629 C 0.85509 0.59704 0.79314 0.0
C5630 C 0.86849 0.59704 0.8079 0.0
C5631 C 0.87387 0.58087 0.81131 0.0
C5632 C 0.85016 0.61396 0.78839 0.0
C5633 C 0.84012 0.62271 0.80025 0.0
C5634 C 0.8531 0.61987 0.77097 0.0
C5635 C 0.86372 0.61094 0.75803 0.0
C5636 C 0.88156 0.60903 0.76388 0.0
C5637 C 0.89132 0.60023 0.75176 0.0
C5638 C 0.88342 0.59337 0.73371 0.0
C5639 C 0.86575 0.59533 0.72773 0.0
C5640 C 0.85592 0.60409 0.73981 0.0
C5641 C 0.82095 0.68716 0.77044 0.0
C5642 C 0.81209 0.68346 0.75223 0.0
C5643 C 0.82782 0.6736 0.77883 0.0
C5644 C 0.82543 0.65619 0.76918 0.0
C5645 C 0.81581 0.65239 0.75129 0.0
C5646 C 0.80933 0.666 0.74279 0.0
C5647 C 0.83425 0.64224 0.77678 0.0
C5648 C 0.84524 0.63409 0.76546 0.0
C5649 C 0.83185 0.63672 0.79455 0.0
C5650 C 0.81994 0.64434 0.80695 0.0
C5651 C 0.80153 0.6438 0.8008 0.0
C5652 C 0.79032 0.65061 0.81277 0.0
C5653 C 0.79732 0.65786 0.83097 0.0
C5654 C 0.81555 0.65828 0.83726 0.0
C5655 C 0.82683 0.6515 0.82534 0.0
H5656 H 0.78861 0.6631 0.84023 0.0
H5657 H 0.891 0.58656 0.72436 0.0
H5658 H 0.82813 0.67646 0.01513 0.0
H5659 H 0.85695 0.66534 0.02007 0.0
H5660 H 0.82662 0.61069 0.01735 0.0
H5661 H 0.79838 0.62139 0.01187 0.0
H5662 H 0.85459 0.62119 0.04793 0.0
H5663 H 0.84321 0.62085 0.98144 0.0
H5664 H 0.83825 0.63463 0.95249 0.0
H5665 H 0.89052 0.67002 0.96543 0.0
H5666 H 0.89564 0.65664 0.99466 0.0
H5667 H 0.9092 0.55836 0.03608 0.0
H5668 H 0.88578 0.57527 0.02637 0.0
H5669 H 0.92701 0.6235 0.02811 0.0
H5670 H 0.95053 0.60645 0.0377 0.0
H5671 H 0.8966 0.62052 0.99948 0.0
H5672 H 0.90863 0.61814 0.06527 0.0
H5673 H 0.91311 0.60266 0.09318 0.0
H5674 H 0.85881 0.57129 0.08092 0.0
H5675 H 0.85412 0.58638 0.05274 0.0
C5676 C 0.82771 0.66213 0.01579 0.0
C5677 C 0.81097 0.64983 0.01319 0.0
C5678 C 0.84411 0.6558 0.01849 0.0
C5679 C 0.84384 0.63718 0.01905 0.0
C5680 C 0.82713 0.62509 0.01701 0.0
C5681 C 0.81095 0.63128 0.0139 0.0
C5682 C 0.86073 0.62982 0.02154 0.0
C5683 C 0.86381 0.62111 0.03737 0.0
C5684 C 0.87281 0.62984 0.00782 0.0
C5685 C 0.86967 0.63798 0.99038 0.0
C5686 C 0.85353 0.63175 0.97824 0.0
C5687 C 0.85071 0.63944 0.96175 0.0
C5688 C 0.86402 0.65325 0.95716 0.0
C5689 C 0.88019 0.65937 0.96904 0.0
C5690 C 0.88305 0.65174 0.98557 0.0
C5691 C 0.91329 0.57236 0.03357 0.0
C5692 C 0.93157 0.58113 0.03744 0.0
C5693 C 0.89994 0.58204 0.02818 0.0
C5694 C 0.90466 0.6007 0.02684 0.0
C5695 C 0.92311 0.60911 0.02907 0.0
C5696 C 0.93652 0.59938 0.03445 0.0
C5697 C 0.89024 0.61168 0.02573 0.0
C5698 C 0.88761 0.62097 0.01021 0.0
C5699 C 0.87845 0.61214 0.0397 0.0
C5700 C 0.88108 0.6033 0.05683 0.0
C5701 C 0.89769 0.60787 0.06847 0.0
C5702 C 0.90026 0.59917 0.08434 0.0
C5703 C 0.88627 0.58598 0.0888 0.0
C5704 C 0.86964 0.5815 0.07743 0.0
C5705 C 0.86702 0.59013 0.06152 0.0
H5706 H 0.88829 0.57924 0.10109 0.0
H5707 H 0.86183 0.65917 0.94438 0.0
H5708 H 0.1844 0.08163 0.78332 0.0
H5709 H 0.20423 0.11068 0.78274 0.0
H5710 H 0.16116 0.13759 0.79847 0.0
H5711 H 0.14268 0.1083 0.80239 0.0
H5712 H 0.20466 0.13316 0.76281 0.0
H5713 H 0.16784 0.1732 0.80756 0.0
H5714 H 0.15564 0.17633 0.83776 0.0
H5715 H 0.19998 0.15548 0.8636 0.0
H5716 H 0.21183 0.15142 0.8333 0.0
H5717 H 0.24599 0.22168 0.74684 0.0
H5718 H 0.22529 0.19348 0.75012 0.0
H5719 H 0.24338 0.20034 0.80904 0.0
H5720 H 0.26227 0.22968 0.80589 0.0
H5721 H 0.21118 0.18877 0.80679 0.0
H5722 H 0.25551 0.16736 0.7717 0.0
H5723 H 0.27396 0.16585 0.74561 0.0
H5724 H 0.22531 0.14961 0.70715 0.0
H5725 H 0.20656 0.15126 0.733 0.0
C5726 C 0.17969 0.09379 0.78797 0.0
C5727 C 0.16257 0.09267 0.79432 0.0
C5728 C 0.19085 0.11056 0.78706 0.0
C5729 C 0.18468 0.12684 0.79109 0.0
C5730 C 0.16701 0.12565 0.79642 0.0
C5731 C 0.1562 0.10878 0.7983 0.0
C5732 C 0.19632 0.14458 0.78817 0.0
C5733 C 0.20615 0.14521 0.77264 0.0
C5734 C 0.19845 0.16067 0.80059 0.0
C5735 C 0.19026 0.16131 0.81817 0.0
C5736 C 0.17467 0.16885 0.81963 0.0
C5737 C 0.1678 0.17074 0.83671 0.0
C5738 C 0.17681 0.16572 0.85252 0.0
C5739 C 0.1927 0.15882 0.85125 0.0
C5740 C 0.19934 0.15646 0.83409 0.0
C5741 C 0.24553 0.21703 0.76044 0.0
C5742 C 0.25562 0.22774 0.77612 0.0
C5743 C 0.23381 0.20077 0.76233 0.0
C5744 C 0.23284 0.19432 0.77981 0.0
C5745 C 0.24361 0.20487 0.79538 0.0
C5746 C 0.2546 0.22156 0.7936 0.0
C5747 C 0.2203 0.17697 0.78212 0.0
C5748 C 0.20999 0.17658 0.79722 0.0
C5749 C 0.21841 0.16087 0.76977 0.0
C5750 C 0.22965 0.15958 0.75426 0.0
C5751 C 0.24876 0.16353 0.75767 0.0
C5752 C 0.25926 0.16266 0.74293 0.0
C5753 C 0.25081 0.15768 0.72473 0.0
C5754 C 0.23183 0.15349 0.72125 0.0
C5755 C 0.22126 0.15437 0.73594 0.0
H5756 H 0.25897 0.15703 0.71334 0.0
H5757 H 0.17163 0.16741 0.86579 0.0
H5758 H 0.39392 0.963 0.30422 0.0
H5759 H 0.37835 0.93122 0.29798 0.0
H5760 H 0.33253 0.94744 0.26818 0.0
H5761 H 0.3488 0.9789 0.27315 0.0
H5762 H 0.34941 0.91575 0.30929 0.0
H5763 H 0.30847 0.91341 0.23746 0.0
H5764 H 0.31049 0.92826 0.20881 0.0
H5765 H 0.36882 0.93992 0.21969 0.0
H5766 H 0.36715 0.92485 0.24824 0.0
H5767 H 0.27589 0.83866 0.28143 0.0
H5768 H 0.29093 0.87029 0.28151 0.0
H5769 H 0.33998 0.85296 0.2678 0.0
H5770 H 0.32576 0.82163 0.26937 0.0
H5771 H 0.32073 0.88439 0.24758 0.0
H5772 H 0.35133 0.86342 0.30245 0.0
H5773 H 0.35135 0.84847 0.33111 0.0
H5774 H 0.3175 0.88322 0.35329 0.0
H5775 H 0.31705 0.89815 0.32455 0.0
C5776 C 0.38059 0.95958 0.29622 0.0
C5777 C 0.37207 0.97308 0.2897 0.0
C5778 C 0.37172 0.94158 0.2927 0.0
C5779 C 0.35433 0.93704 0.28259 0.0
C5780 C 0.34607 0.95062 0.27571 0.0
C5781 C 0.35514 0.96854 0.27886 0.0
C5782 C 0.34459 0.91815 0.27997 0.0
C5783 C 0.34324 0.90895 0.29576 0.0
C5784 C 0.3364 0.90931 0.26233 0.0
C5785 C 0.33767 0.91816 0.24506 0.0
C5786 C 0.32173 0.91907 0.23368 0.0
C5787 C 0.32281 0.92753 0.21747 0.0
C5788 C 0.33978 0.93509 0.21247 0.0
C5789 C 0.35569 0.93411 0.22362 0.0
C5790 C 0.35468 0.92561 0.23982 0.0
C5791 C 0.2898 0.8416 0.27817 0.0
C5792 C 0.2996 0.8277 0.27498 0.0
C5793 C 0.29827 0.85956 0.2782 0.0
C5794 C 0.31639 0.86361 0.27464 0.0
C5795 C 0.32589 0.84981 0.27043 0.0
C5796 C 0.31765 0.83194 0.27101 0.0
C5797 C 0.32597 0.88232 0.27677 0.0
C5798 C 0.32701 0.89142 0.26101 0.0
C5799 C 0.33419 0.891 0.29431 0.0
C5800 C 0.33385 0.88162 0.31124 0.0
C5801 C 0.34361 0.86763 0.31329 0.0
C5802 C 0.3438 0.85924 0.32959 0.0
C5803 C 0.33444 0.86491 0.34401 0.0
C5804 C 0.32474 0.87885 0.3421 0.0
C5805 C 0.32448 0.88725 0.32581 0.0
H5806 H 0.33476 0.85853 0.3567 0.0
H5807 H 0.34059 0.94167 0.19993 0.0
H5808 H 0.57964 0.34664 0.59059 0.0
H5809 H 0.57758 0.37613 0.57979 0.0
H5810 H 0.52021 0.36641 0.58567 0.0
H5811 H 0.52215 0.33658 0.59497 0.0
H5812 H 0.52181 0.38024 0.55729 0.0
H5813 H 0.56088 0.40096 0.61571 0.0
H5814 H 0.58845 0.40285 0.63773 0.0
H5815 H 0.62201 0.422 0.59653 0.0
H5816 H 0.59464 0.42007 0.57424 0.0
H5817 H 0.50555 0.46884 0.54388 0.0
H5818 H 0.50945 0.44017 0.55525 0.0
H5819 H 0.56664 0.45277 0.54891 0.0
H5820 H 0.56267 0.48184 0.53832 0.0
H5821 H 0.5661 0.43755 0.57694 0.0
H5822 H 0.52924 0.41565 0.51849 0.0
H5823 H 0.50322 0.41032 0.49396 0.0
H5824 H 0.46681 0.39237 0.53325 0.0
H5825 H 0.49271 0.39731 0.55795 0.0
C5826 C 0.56667 0.35096 0.58987 0.0
C5827 C 0.55112 0.33917 0.59395 0.0
C5828 C 0.56544 0.36805 0.58373 0.0
C5829 C 0.54872 0.37423 0.58202 0.0
C5830 C 0.53335 0.36244 0.58659 0.0
C5831 C 0.53449 0.34527 0.59217 0.0
C5832 C 0.54668 0.39228 0.57473 0.0
C5833 C 0.53142 0.39277 0.56202 0.0
C5834 C 0.55938 0.40892 0.57983 0.0
C5835 C 0.57574 0.41023 0.59329 0.0
C5836 C 0.57415 0.40551 0.61135 0.0
C5837 C 0.58973 0.40659 0.62387 0.0
C5838 C 0.60697 0.4125 0.61852 0.0
C5839 C 0.60865 0.41741 0.60065 0.0
C5840 C 0.59312 0.41634 0.58809 0.0
C5841 C 0.51886 0.46531 0.5445 0.0
C5842 C 0.53365 0.47755 0.53958 0.0
C5843 C 0.52117 0.44872 0.55104 0.0
C5844 C 0.53834 0.44348 0.55266 0.0
C5845 C 0.55315 0.45595 0.54788 0.0
C5846 C 0.55087 0.47267 0.54162 0.0
C5847 C 0.54102 0.42553 0.55977 0.0
C5848 C 0.55641 0.42505 0.57238 0.0
C5849 C 0.52853 0.4088 0.55448 0.0
C5850 C 0.51285 0.40701 0.54005 0.0
C5851 C 0.51566 0.41075 0.52192 0.0
C5852 C 0.50095 0.40768 0.50797 0.0
C5853 C 0.48336 0.40101 0.51204 0.0
C5854 C 0.48044 0.39749 0.5301 0.0
C5855 C 0.49513 0.40035 0.54406 0.0
H5856 H 0.472 0.39858 0.50119 0.0
H5857 H 0.61902 0.41332 0.62822 0.0
H5858 H 0.44561 0.78027 0.42994 0.0
H5859 H 0.41698 0.77984 0.4101 0.0
H5860 H 0.43725 0.75235 0.36438 0.0
H5861 H 0.46526 0.7518 0.38446 0.0
H5862 H 0.42163 0.78779 0.35902 0.0
H5863 H 0.40895 0.72758 0.37881 0.0
H5864 H 0.40548 0.70616 0.4023 0.0
H5865 H 0.36465 0.73207 0.42441 0.0
H5866 H 0.36814 0.75387 0.40123 0.0
H5867 H 0.34756 0.76515 0.28805 0.0
H5868 H 0.3737 0.76398 0.30999 0.0
H5869 H 0.34202 0.77082 0.35541 0.0
H5870 H 0.3157 0.77192 0.33339 0.0
H5871 H 0.36273 0.74751 0.36304 0.0
H5872 H 0.37455 0.80685 0.3434 0.0
H5873 H 0.37811 0.82956 0.32116 0.0
H5874 H 0.42102 0.80661 0.29953 0.0
H5875 H 0.41747 0.78357 0.32142 0.0
C5876 C 0.44388 0.77406 0.41569 0.0
C5877 C 0.45804 0.76674 0.40854 0.0
C5878 C 0.42753 0.77383 0.40434 0.0
C5879 C 0.42497 0.76624 0.38563 0.0
C5880 C 0.4389 0.75846 0.37868 0.0
C5881 C 0.45503 0.75835 0.39011 0.0
C5882 C 0.408 0.76666 0.37313 0.0
C5883 C 0.40893 0.77868 0.35959 0.0
C5884 C 0.391 0.7555 0.3745 0.0
C5885 C 0.389 0.74251 0.38848 0.0
C5886 C 0.39942 0.72887 0.38884 0.0
C5887 C 0.3974 0.71662 0.40206 0.0
C5888 C 0.3849 0.7178 0.41489 0.0
C5889 C 0.37437 0.73121 0.4145 0.0
C5890 C 0.37636 0.74351 0.40132 0.0
C5891 C 0.34611 0.76675 0.30261 0.0
C5892 C 0.32949 0.76936 0.30868 0.0
C5893 C 0.36117 0.76596 0.31529 0.0
C5894 C 0.36017 0.76782 0.33456 0.0
C5895 C 0.34336 0.76955 0.3407 0.0
C5896 C 0.32825 0.77023 0.32797 0.0
C5897 C 0.37666 0.76814 0.34818 0.0
C5898 C 0.37558 0.75643 0.36213 0.0
C5899 C 0.39362 0.77967 0.34723 0.0
C5900 C 0.39567 0.79343 0.33396 0.0
C5901 C 0.38465 0.80657 0.3338 0.0
C5902 C 0.38667 0.81951 0.32127 0.0
C5903 C 0.39976 0.81951 0.30892 0.0
C5904 C 0.41087 0.80658 0.30909 0.0
C5905 C 0.40886 0.79358 0.32155 0.0
H5906 H 0.40133 0.82955 0.29925 0.0
H5907 H 0.38334 0.70828 0.4251 0.0
H5908 H 0.07732 0.74653 0.08949 0.0
H5909 H 0.07734 0.71506 0.07932 0.0
H5910 H 0.02199 0.70044 0.09218 0.0
H5911 H 0.02453 0.73111 0.10707 0.0
H5912 H 0.02929 0.67398 0.09469 0.0
H5913 H 0.04743 0.70288 0.04005 0.0
H5914 H 0.06656 0.72412 0.02267 0.0
H5915 H 0.11373 0.70392 0.04221 0.0
H5916 H 0.09501 0.6827 0.05969 0.0
H5917 H 0.01468 0.58982 0.03483 0.0
H5918 H 0.01681 0.62191 0.0456 0.0
H5919 H 0.07317 0.62617 0.06645 0.0
H5920 H 0.07086 0.59383 0.05637 0.0
H5921 H 0.06579 0.65588 0.04575 0.0
H5922 H 0.04275 0.62415 0.0967 0.0
H5923 H 0.0204 0.60058 0.10776 0.0
H5924 H 0.97685 0.62553 0.08695 0.0
H5925 H 0.99895 0.64918 0.07566 0.0
C5926 C 0.06507 0.73654 0.08985 0.0
C5927 C 0.05027 0.74175 0.09779 0.0
C5928 C 0.06483 0.71824 0.0835 0.0
C5929 C 0.04919 0.70449 0.08339 0.0
C5930 C 0.03444 0.71 0.09155 0.0
C5931 C 0.03544 0.72799 0.0995 0.0
C5932 C 0.0484 0.6845 0.07602 0.0
C5933 C 0.03704 0.67057 0.08358 0.0
C5934 C 0.05868 0.67868 0.06181 0.0
C5935 C 0.06986 0.69143 0.05133 0.0
C5936 C 0.06189 0.7031 0.04069 0.0
C5937 C 0.07263 0.71509 0.03084 0.0
C5938 C 0.09129 0.71543 0.03144 0.0
C5939 C 0.09928 0.70369 0.0418 0.0
C5940 C 0.08862 0.69167 0.05165 0.0
C5941 C 0.02759 0.5975 0.04168 0.0
C5942 C 0.04275 0.58905 0.04432 0.0
C5943 C 0.02878 0.61598 0.04787 0.0
C5944 C 0.04518 0.62672 0.05685 0.0
C5945 C 0.06037 0.61838 0.05943 0.0
C5946 C 0.05909 0.59981 0.0535 0.0
C5947 C 0.04633 0.64642 0.06393 0.0
C5948 C 0.05787 0.65997 0.0565 0.0
C5949 C 0.03559 0.65193 0.07748 0.0
C5950 C 0.02249 0.6384 0.08533 0.0
C5951 C 0.02841 0.62463 0.09454 0.0
C5952 C 0.01579 0.61124 0.10082 0.0
C5953 C 0.99721 0.61155 0.09804 0.0
C5954 C 0.99124 0.62533 0.08912 0.0
C5955 C 1.00381 0.63875 0.08283 0.0
H5956 H 0.98745 0.60111 0.1028 0.0
H5957 H 0.09956 0.72473 0.02382 0.0
H5958 H 0.04269 0.27751 0.87887 0.0
H5959 H 0.07117 0.27661 0.86664 0.0
H5960 H 0.09688 0.2734 0.92143 0.0
H5961 H 0.06758 0.27377 0.93412 0.0
H5962 H 0.11546 0.3016 0.8984 0.0
H5963 H 0.09222 0.23792 0.89516 0.0
H5964 H 0.06878 0.20999 0.88821 0.0
H5965 H 0.06345 0.21782 0.83044 0.0
H5966 H 0.08665 0.24599 0.83709 0.0
H5967 H 0.1947 0.29417 0.85672 0.0
H5968 H 0.16975 0.28635 0.87528 0.0
H5969 H 0.13142 0.27718 0.82565 0.0
H5970 H 0.15665 0.28488 0.80695 0.0
H5971 H 0.12116 0.25285 0.8498 0.0
H5972 H 0.13997 0.31713 0.85231 0.0
H5973 H 0.16216 0.34602 0.85741 0.0
H5974 H 0.17408 0.33848 0.9147 0.0
H5975 H 0.1522 0.30933 0.90984 0.0
C5976 C 0.05421 0.27641 0.88852 0.0
C5977 C 0.05268 0.27564 0.90761 0.0
C5978 C 0.07058 0.2759 0.88137 0.0
C5979 C 0.08613 0.27485 0.89304 0.0
C5980 C 0.08495 0.27415 0.91217 0.0
C5981 C 0.06823 0.27428 0.91939 0.0
C5982 C 0.10343 0.27498 0.88473 0.0
C5983 C 0.11701 0.29071 0.88821 0.0
C5984 C 0.10502 0.26112 0.87078 0.0
C5985 C 0.09112 0.24414 0.86666 0.0
C5986 C 0.08595 0.23377 0.88099 0.0
C5987 C 0.07272 0.21789 0.8771 0.0
C5988 C 0.06462 0.21215 0.8589 0.0
C5989 C 0.06974 0.22228 0.84454 0.0
C5990 C 0.08295 0.23821 0.84836 0.0
C5991 C 0.18106 0.29003 0.84968 0.0
C5992 C 0.17763 0.29 0.83037 0.0
C5993 C 0.16674 0.28568 0.86034 0.0
C5994 C 0.14864 0.28144 0.85194 0.0
C5995 C 0.14525 0.28042 0.83248 0.0
C5996 C 0.15964 0.28478 0.82179 0.0
C5997 C 0.13329 0.27943 0.86355 0.0
C5998 C 0.11992 0.26351 0.86041 0.0
C5999 C 0.13174 0.29324 0.8776 0.0
C6000 C 0.14462 0.31094 0.88066 0.0
C6001 C 0.14742 0.32156 0.86597 0.0
C6002 C 0.15994 0.33799 0.86881 0.0
C6003 C 0.16957 0.34406 0.88636 0.0
C6004 C 0.16664 0.33374 0.90111 0.0
C6005 C 0.15419 0.31726 0.89831 0.0
H6006 H 0.17926 0.35677 0.88854 0.0
H6007 H 0.05438 0.19983 0.85591 0.0
H6008 H 0.54079 0.77314 0.92184 0.0
H6009 H 0.53791 0.74595 0.93753 0.0
H6010 H 0.5407 0.71399 0.88585 0.0
H6011 H 0.54223 0.74129 0.86976 0.0
H6012 H 0.5181 0.69501 0.90236 0.0
H6013 H 0.57806 0.72746 0.9247 0.0
H6014 H 0.60172 0.75373 0.93845 0.0
H6015 H 0.57631 0.75584 0.98869 0.0
H6016 H 0.55237 0.72974 0.97516 0.0
H6017 H 0.52502 0.61858 0.95139 0.0
H6018 H 0.53503 0.64422 0.93393 0.0
H6019 H 0.52329 0.68114 0.978 0.0
H6020 H 0.51345 0.65562 0.99537 0.0
H6021 H 0.55354 0.69599 0.9637 0.0
H6022 H 0.4924 0.66411 0.93907 0.0
H6023 H 0.46989 0.63712 0.92484 0.0
H6024 H 0.4999 0.63306 0.87791 0.0
H6025 H 0.52273 0.65989 0.892 0.0
C6026 C 0.54091 0.76035 0.91379 0.0
C6027 C 0.54199 0.75946 0.89456 0.0
C6028 C 0.53941 0.74472 0.92285 0.0
C6029 C 0.5397 0.72777 0.91315 0.0
C6030 C 0.5406 0.72682 0.89383 0.0
C6031 C 0.54157 0.74246 0.88461 0.0
C6032 C 0.53858 0.71112 0.92315 0.0
C6033 C 0.52618 0.69521 0.91559 0.0
C6034 C 0.54887 0.71113 0.9406 0.0
C6035 C 0.56336 0.72671 0.94886 0.0
C6036 C 0.57748 0.73358 0.93865 0.0
C6037 C 0.59094 0.74844 0.94641 0.0
C6038 C 0.5905 0.75647 0.96442 0.0
C6039 C 0.57663 0.74962 0.97474 0.0
C6040 C 0.56313 0.73477 0.96704 0.0
C6041 C 0.52519 0.63224 0.95757 0.0
C6042 C 0.51866 0.63515 0.97482 0.0
C6043 C 0.53067 0.64688 0.94749 0.0
C6044 C 0.52963 0.66467 0.95446 0.0
C6045 C 0.52421 0.66762 0.97224 0.0
C6046 C 0.51867 0.65303 0.98223 0.0
C6047 C 0.53299 0.68013 0.94298 0.0
C6048 C 0.54574 0.69581 0.95032 0.0
C6049 C 0.52324 0.67981 0.92523 0.0
C6050 C 0.50936 0.66387 0.91668 0.0
C6051 C 0.49425 0.65739 0.92577 0.0
C6052 C 0.48143 0.64213 0.91773 0.0
C6053 C 0.48349 0.63335 0.90051 0.0
C6054 C 0.49834 0.63985 0.89126 0.0
C6055 C 0.51122 0.65508 0.89927 0.0
H6056 H 0.47356 0.62153 0.89431 0.0
H6057 H 0.60093 0.76798 0.9704 0.0
H6058 H 0.0862 0.77436 0.68284 0.0
H6059 H 0.11804 0.77577 0.69523 0.0
H6060 H 0.10052 0.75562 0.74515 0.0
H6061 H 0.06852 0.75319 0.73224 0.0
H6062 H 0.13384 0.78853 0.74934 0.0
H6063 H 0.11188 0.72718 0.72132 0.0
H6064 H 0.09651 0.70352 0.69622 0.0
H6065 H 0.13533 0.72358 0.65999 0.0
H6066 H 0.15073 0.74762 0.6848 0.0
H6067 H 0.21979 0.76505 0.78375 0.0
H6068 H 0.18705 0.76332 0.77453 0.0
H6069 H 0.19807 0.77339 0.71915 0.0
H6070 H 0.23066 0.7757 0.72839 0.0
H6071 H 0.16743 0.74539 0.71907 0.0
H6072 H 0.18987 0.80602 0.74629 0.0
H6073 H 0.20528 0.83069 0.77031 0.0
H6074 H 0.16585 0.81357 0.80702 0.0
H6075 H 0.15049 0.7884 0.78339 0.0
C6076 C 0.08909 0.77044 0.69657 0.0
C6077 C 0.07463 0.76442 0.70683 0.0
C6078 C 0.10739 0.77126 0.70368 0.0
C6079 C 0.11198 0.76608 0.72134 0.0
C6080 C 0.09758 0.76003 0.73165 0.0
C6081 C 0.07919 0.75884 0.72433 0.0
C6082 C 0.13164 0.76596 0.72832 0.0
C6083 C 0.14106 0.77886 0.74294 0.0
C6084 C 0.14147 0.75377 0.71977 0.0
C6085 C 0.13232 0.73934 0.70484 0.0
C6086 C 0.11702 0.72668 0.70793 0.0
C6087 C 0.10832 0.71318 0.69377 0.0
C6088 C 0.1149 0.71208 0.6765 0.0
C6089 C 0.13022 0.72447 0.67337 0.0
C6090 C 0.13894 0.73804 0.68747 0.0
C6091 C 0.21526 0.76683 0.76959 0.0
C6092 C 0.22811 0.77065 0.75692 0.0
C6093 C 0.19644 0.7659 0.76431 0.0
C6094 C 0.1898 0.76832 0.74607 0.0
C6095 C 0.20258 0.77149 0.73329 0.0
C6096 C 0.22136 0.77285 0.73866 0.0
C6097 C 0.16972 0.76784 0.74027 0.0
C6098 C 0.16022 0.75493 0.7257 0.0
C6099 C 0.15989 0.78011 0.74882 0.0
C6100 C 0.16919 0.79511 0.76316 0.0
C6101 C 0.18463 0.80732 0.75958 0.0
C6102 C 0.19333 0.82145 0.7731 0.0
C6103 C 0.18656 0.8237 0.79019 0.0
C6104 C 0.1711 0.81179 0.79379 0.0
C6105 C 0.16241 0.79756 0.78035 0.0
H6106 H 0.19328 0.83469 0.80062 0.0
H6107 H 0.10817 0.7016 0.66555 0.0
H6108 H 0.07659 0.37155 0.3959 0.0
H6109 H 0.07549 0.39817 0.41789 0.0
H6110 H 0.01755 0.38021 0.41662 0.0
H6111 H 0.01875 0.35362 0.39493 0.0
H6112 H 0.02522 0.41586 0.4134 0.0
H6113 H 0.0466 0.37671 0.45433 0.0
H6114 H 0.06654 0.35707 0.46671 0.0
H6115 H 0.11201 0.40176 0.47466 0.0
H6116 H 0.09238 0.42161 0.46205 0.0
H6117 H 0.01398 0.46875 0.50005 0.0
H6118 H 0.01699 0.44249 0.47878 0.0
H6119 H 0.06533 0.47344 0.46181 0.0
H6120 H 0.06204 0.50001 0.48257 0.0
H6121 H 0.06303 0.43178 0.47455 0.0
H6122 H 0.04133 0.47002 0.4308 0.0
H6123 H 0.02066 0.4891 0.41869 0.0
H6124 H 0.97506 0.44523 0.41709 0.0
H6125 H 0.99552 0.42593 0.42935 0.0
C6126 C 0.06368 0.37327 0.40046 0.0
C6127 C 0.04777 0.36047 0.39376 0.0
C6128 C 0.06303 0.38848 0.41307 0.0
C6129 C 0.04642 0.39133 0.41912 0.0
C6130 C 0.03054 0.37849 0.41229 0.0
C6131 C 0.03124 0.36322 0.39991 0.0
C6132 C 0.04541 0.4078 0.43217 0.0
C6133 C 0.03344 0.41917 0.4268 0.0
C6134 C 0.05619 0.41252 0.44969 0.0
C6135 C 0.06808 0.40058 0.45701 0.0
C6136 C 0.0609 0.3823 0.45852 0.0
C6137 C 0.07213 0.37114 0.46562 0.0
C6138 C 0.09055 0.37814 0.4714 0.0
C6139 C 0.09776 0.39634 0.47013 0.0
C6140 C 0.08658 0.40755 0.463 0.0
C6141 C 0.02526 0.47002 0.4918 0.0
C6142 C 0.03774 0.4866 0.49305 0.0
C6143 C 0.02696 0.45496 0.4796 0.0
C6144 C 0.04139 0.4559 0.46862 0.0
C6145 C 0.05406 0.47232 0.47008 0.0
C6146 C 0.05212 0.48755 0.48193 0.0
C6147 C 0.04308 0.43979 0.45558 0.0
C6148 C 0.05499 0.42846 0.46104 0.0
C6149 C 0.03225 0.43504 0.43817 0.0
C6150 C 0.01989 0.44667 0.43126 0.0
C6151 C 0.02687 0.46454 0.42811 0.0
C6152 C 0.01521 0.47534 0.4211 0.0
C6153 C 0.99654 0.4684 0.41718 0.0
C6154 C 0.98951 0.45061 0.42019 0.0
C6155 C 1.00113 0.43972 0.42714 0.0
H6156 H 0.98753 0.4768 0.41178 0.0
H6157 H 0.09922 0.36949 0.47693 0.0
H6158 H 0.44667 0.24731 0.17714 0.0
H6159 H 0.42012 0.25184 0.1917 0.0
H6160 H 0.45347 0.27016 0.24396 0.0
H6161 H 0.48074 0.26521 0.22925 0.0
H6162 H 0.42072 0.25 0.24993 0.0
H6163 H 0.43647 0.30052 0.21555 0.0
H6164 H 0.44453 0.31547 0.18802 0.0
H6165 H 0.39378 0.28789 0.15733 0.0
H6166 H 0.38552 0.27259 0.18461 0.0
H6167 H 0.34488 0.2804 0.28691 0.0
H6168 H 0.3746 0.27827 0.27696 0.0
H6169 H 0.35006 0.26672 0.21998 0.0
H6170 H 0.32076 0.27062 0.22986 0.0
H6171 H 0.38036 0.2857 0.21848 0.0
H6172 H 0.36522 0.23343 0.25113 0.0
H6173 H 0.35667 0.21754 0.27799 0.0
H6174 H 0.40527 0.24721 0.31109 0.0
H6175 H 0.41402 0.26339 0.28447 0.0
C6176 C 0.44868 0.25234 0.19178 0.0
C6177 C 0.46632 0.25606 0.20179 0.0
C6178 C 0.4332 0.25503 0.20016 0.0
C6179 C 0.43444 0.26187 0.21897 0.0
C6180 C 0.45189 0.26504 0.22937 0.0
C6181 C 0.4676 0.2622 0.22092 0.0
C6182 C 0.41746 0.2658 0.22722 0.0
C6183 C 0.4121 0.25808 0.24318 0.0
C6184 C 0.40561 0.27596 0.21843 0.0
C6185 C 0.41043 0.28534 0.2021 0.0
C6186 C 0.42707 0.29759 0.2029 0.0
C6187 C 0.43167 0.30613 0.18734 0.0
C6188 C 0.41969 0.30262 0.17093 0.0
C6189 C 0.40305 0.2906 0.17006 0.0
C6190 C 0.39839 0.28201 0.18557 0.0
C6191 C 0.34587 0.27792 0.27222 0.0
C6192 C 0.33024 0.27618 0.25929 0.0
C6193 C 0.36297 0.27621 0.26647 0.0
C6194 C 0.36503 0.27194 0.24755 0.0
C6195 C 0.34931 0.27004 0.23465 0.0
C6196 C 0.33233 0.27214 0.24038 0.0
C6197 C 0.38331 0.26963 0.24104 0.0
C6198 C 0.38894 0.27766 0.22534 0.0
C6199 C 0.39527 0.25962 0.24998 0.0
C6200 C 0.39019 0.24971 0.26588 0.0
C6201 C 0.37404 0.2366 0.26417 0.0
C6202 C 0.36916 0.22755 0.27934 0.0
C6203 C 0.3804 0.2314 0.29625 0.0
C6204 C 0.39657 0.24426 0.29799 0.0
C6205 C 0.40151 0.25335 0.28287 0.0
H6206 H 0.37659 0.22439 0.30799 0.0
H6207 H 0.42328 0.30923 0.1589 0.0
H6208 H 0.62274 0.56978 0.35024 0.0
H6209 H 0.60772 0.56559 0.37821 0.0
H6210 H 0.59488 0.50783 0.36213 0.0
H6211 H 0.6101 0.5121 0.33397 0.0
H6212 H 0.56689 0.51863 0.37741 0.0
H6213 H 0.63113 0.52707 0.39511 0.0
H6214 H 0.66329 0.54235 0.39724 0.0
H6215 H 0.65102 0.58984 0.42663 0.0
H6216 H 0.61873 0.57492 0.42446 0.0
H6217 H 0.57241 0.51125 0.48347 0.0
H6218 H 0.58617 0.51258 0.45415 0.0
H6219 H 0.54978 0.54674 0.43544 0.0
H6220 H 0.53577 0.54511 0.46421 0.0
H6221 H 0.60288 0.54482 0.43787 0.0
H6222 H 0.53509 0.53502 0.40346 0.0
H6223 H 0.50398 0.51715 0.40264 0.0
H6224 H 0.52561 0.46871 0.40699 0.0
H6225 H 0.55686 0.48646 0.40829 0.0
C6226 C 0.61664 0.5562 0.35258 0.0
C6227 C 0.61769 0.54127 0.33995 0.0
C6228 C 0.60805 0.55379 0.36864 0.0
C6229 C 0.60045 0.53634 0.37262 0.0
C6230 C 0.6007 0.52143 0.35951 0.0
C6231 C 0.60931 0.52387 0.34336 0.0
C6232 C 0.59283 0.53376 0.39069 0.0
C6233 C 0.57485 0.52439 0.39056 0.0
C6234 C 0.6031 0.54095 0.40809 0.0
C6235 C 0.6225 0.54994 0.40948 0.0
C6236 C 0.63528 0.54082 0.40191 0.0
C6237 C 0.65353 0.54941 0.40315 0.0
C6238 C 0.65919 0.56707 0.41203 0.0
C6239 C 0.64662 0.57617 0.41974 0.0
C6240 C 0.62834 0.56765 0.41853 0.0
C6241 C 0.56735 0.51901 0.47308 0.0
C6242 C 0.55287 0.52793 0.47616 0.0
C6243 C 0.57518 0.51973 0.4563 0.0
C6244 C 0.56871 0.52938 0.44231 0.0
C6245 C 0.55462 0.53868 0.44565 0.0
C6246 C 0.54671 0.53784 0.46224 0.0
C6247 C 0.5769 0.53025 0.42443 0.0
C6248 C 0.59499 0.53918 0.42465 0.0
C6249 C 0.56685 0.52261 0.40715 0.0
C6250 C 0.54818 0.51202 0.40616 0.0
C6251 C 0.53316 0.52057 0.40433 0.0
C6252 C 0.51553 0.51049 0.40383 0.0
C6253 C 0.51282 0.49181 0.40481 0.0
C6254 C 0.52773 0.48319 0.40632 0.0
C6255 C 0.54539 0.49326 0.40703 0.0
H6256 H 0.49917 0.48401 0.40437 0.0
H6257 H 0.67333 0.5737 0.41296 0.0
H6258 H 0.31877 0.93184 0.06904 0.0
H6259 H 0.32103 0.91711 0.09752 0.0
H6260 H 0.27302 0.87718 0.07591 0.0
H6261 H 0.271 0.8915 0.04721 0.0
H6262 H 0.2787 0.89094 0.1177 0.0
H6263 H 0.3049 0.86325 0.06648 0.0
H6264 H 0.32422 0.86359 0.041 0.0
H6265 H 0.37126 0.88781 0.07952 0.0
H6266 H 0.35211 0.88792 0.10518 0.0
H6267 H 0.29322 0.81572 0.16586 0.0
H6268 H 0.28518 0.83636 0.14377 0.0
H6269 H 0.34085 0.86575 0.1519 0.0
H6270 H 0.34898 0.84453 0.17312 0.0
H6271 H 0.3301 0.85815 0.11715 0.0
H6272 H 0.30389 0.88295 0.16944 0.0
H6273 H 0.28416 0.88173 0.19459 0.0
H6274 H 0.23705 0.86228 0.15462 0.0
H6275 H 0.25653 0.8632 0.12925 0.0
C6276 C 0.30839 0.92029 0.07067 0.0
C6277 C 0.29481 0.91263 0.05605 0.0
C6278 C 0.30969 0.91193 0.08685 0.0
C6279 C 0.2972 0.89614 0.08859 0.0
C6280 C 0.28266 0.88945 0.07471 0.0
C6281 C 0.2816 0.89754 0.05837 0.0
C6282 C 0.30095 0.88503 0.10334 0.0
C6283 C 0.28988 0.88369 0.11769 0.0
C6284 C 0.31556 0.87573 0.1031 0.0
C6285 C 0.32704 0.8759 0.08766 0.0
C6286 C 0.31932 0.8689 0.06946 0.0
C6287 C 0.33024 0.86895 0.055 0.0
C6288 C 0.34895 0.8758 0.05862 0.0
C6289 C 0.35676 0.88258 0.07672 0.0
C6290 C 0.34588 0.8826 0.09122 0.0
C6291 C 0.30362 0.82666 0.16285 0.0
C6292 C 0.3217 0.82859 0.17078 0.0
C6293 C 0.29903 0.83852 0.15047 0.0
C6294 C 0.3124 0.85269 0.14639 0.0
C6295 C 0.33036 0.85487 0.15486 0.0
C6296 C 0.33501 0.84279 0.16686 0.0
C6297 C 0.30819 0.86433 0.13211 0.0
C6298 C 0.31907 0.86559 0.11755 0.0
C6299 C 0.29339 0.87349 0.13224 0.0
C6300 C 0.28168 0.87301 0.14748 0.0
C6301 C 0.28933 0.8783 0.16604 0.0
C6302 C 0.27819 0.87768 0.18033 0.0
C6303 C 0.25937 0.87188 0.17621 0.0
C6304 C 0.25164 0.86675 0.15779 0.0
C6305 C 0.26272 0.86735 0.14345 0.0
H6306 H 0.25076 0.8714 0.1873 0.0
H6307 H 0.35739 0.87578 0.04742 0.0
H6308 H 0.89161 0.53068 0.8723 0.0
H6309 H 0.91398 0.53369 0.89993 0.0
H6310 H 0.9566 0.53106 0.86485 0.0
H6311 H 0.93487 0.52844 0.83747 0.0
H6312 H 0.952 0.50552 0.89432 0.0
H6313 H 0.95702 0.56928 0.88229 0.0
H6314 H 0.94364 0.59636 0.87845 0.0
H6315 H 0.92573 0.59467 0.93259 0.0
H6316 H 0.93879 0.56743 0.93662 0.0
H6317 H 0.02815 0.52096 0.96196 0.0
H6318 H 1.00893 0.52214 0.93324 0.0
H6319 H 0.97478 0.55071 0.96454 0.0
H6320 H 0.99526 0.55203 0.99234 0.0
H6321 H 0.97497 0.56302 0.93555 0.0
H6322 H 0.96674 0.50108 0.94984 0.0
H6323 H 0.97698 0.4728 0.9562 0.0
H6324 H 0.99541 0.46811 0.90229 0.0
H6325 H 0.98555 0.4965 0.89575 0.0
C6326 C 0.90577 0.53095 0.87053 0.0
C6327 C 0.91145 0.52934 0.85274 0.0
C6328 C 0.91844 0.5326 0.88623 0.0
C6329 C 0.93672 0.53244 0.88415 0.0
C6330 C 0.94245 0.53109 0.86653 0.0
C6331 C 0.92997 0.52971 0.85094 0.0
C6332 C 0.95014 0.53353 0.90027 0.0
C6333 C 0.95713 0.51803 0.90344 0.0
C6334 C 0.95633 0.54979 0.91209 0.0
C6335 C 0.94871 0.56626 0.90967 0.0
C6336 C 0.95009 0.57461 0.8933 0.0
C6337 C 0.9426 0.59 0.89111 0.0
C6338 C 0.9338 0.5972 0.90524 0.0
C6339 C 0.93253 0.58907 0.92164 0.0
C6340 C 0.93998 0.57367 0.92389 0.0
C6341 C 0.01685 0.52794 0.96254 0.0
C6342 C 0.01315 0.53628 0.9794 0.0
C6343 C 1.00568 0.52833 0.9462 0.0
C6344 C 0.99008 0.53603 0.9468 0.0
C6345 C 0.98673 0.54471 0.96361 0.0
C6346 C 0.99842 0.54528 0.97961 0.0
C6347 C 0.97675 0.53476 0.93027 0.0
C6348 C 0.96984 0.55032 0.92675 0.0
C6349 C 0.97005 0.51827 0.91864 0.0
C6350 C 0.97556 0.50097 0.92238 0.0
C6351 C 0.97303 0.49402 0.93938 0.0
C6352 C 0.97877 0.478 0.94303 0.0
C6353 C 0.98687 0.46869 0.92968 0.0
C6354 C 0.98916 0.47535 0.91263 0.0
C6355 C 0.98349 0.4914 0.90894 0.0
H6356 H 0.99133 0.4563 0.93253 0.0
H6357 H 0.928 0.60911 0.90352 0.0
H6358 H 0.29467 0.22168 0.56466 0.0
H6359 H 0.29615 0.23481 0.59719 0.0
H6360 H 0.2549 0.19011 0.6068 0.0
H6361 H 0.25375 0.17669 0.57464 0.0
H6362 H 0.24871 0.22662 0.61877 0.0
H6363 H 0.29384 0.18936 0.62467 0.0
H6364 H 0.32155 0.17843 0.61742 0.0
H6365 H 0.35354 0.23179 0.63403 0.0
H6366 H 0.32594 0.24311 0.64108 0.0
H6367 H 0.24956 0.2432 0.71663 0.0
H6368 H 0.24941 0.23002 0.68466 0.0
H6369 H 0.3014 0.26441 0.68198 0.0
H6370 H 0.30169 0.27739 0.71412 0.0
H6371 H 0.30244 0.2333 0.66589 0.0
H6372 H 0.25876 0.27145 0.65925 0.0
H6373 H 0.23144 0.28437 0.66339 0.0
H6374 H 0.19742 0.23198 0.6468 0.0
H6375 H 0.22457 0.21872 0.64263 0.0
C6376 C 0.28604 0.21458 0.57376 0.0
C6377 C 0.27415 0.19808 0.56703 0.0
C6378 C 0.28691 0.22209 0.59235 0.0
C6379 C 0.27563 0.21345 0.60449 0.0
C6380 C 0.26373 0.19703 0.59776 0.0
C6381 C 0.26316 0.18933 0.57935 0.0
C6382 C 0.27585 0.2217 0.62405 0.0
C6383 C 0.26037 0.22788 0.62916 0.0
C6384 C 0.29123 0.22387 0.63748 0.0
C6385 C 0.30779 0.21713 0.63315 0.0
C6386 C 0.30675 0.19881 0.62656 0.0
C6387 C 0.32244 0.19253 0.62253 0.0
C6388 C 0.33928 0.20442 0.62519 0.0
C6389 C 0.34047 0.22261 0.63193 0.0
C6390 C 0.32481 0.22896 0.63594 0.0
C6391 C 0.26085 0.24814 0.70919 0.0
C6392 C 0.27549 0.2616 0.71796 0.0
C6393 C 0.26076 0.24058 0.69079 0.0
C6394 C 0.27524 0.24638 0.68053 0.0
C6395 C 0.28999 0.25966 0.6894 0.0
C6396 C 0.29013 0.26714 0.70784 0.0
C6397 C 0.27522 0.23836 0.6608 0.0
C6398 C 0.29074 0.23214 0.65559 0.0
C6399 C 0.25993 0.23639 0.64717 0.0
C6400 C 0.24369 0.24408 0.65077 0.0
C6401 C 0.24547 0.26265 0.65671 0.0
C6402 C 0.23001 0.27004 0.65897 0.0
C6403 C 0.2127 0.259 0.65531 0.0
C6404 C 0.21083 0.24051 0.64959 0.0
C6405 C 0.22624 0.23306 0.64725 0.0
H6406 H 0.20072 0.26477 0.65681 0.0
H6407 H 0.35143 0.19953 0.62209 0.0
H6408 H 0.59942 0.55927 0.23805 0.0
H6409 H 0.58682 0.55947 0.20585 0.0
H6410 H 0.61397 0.5161 0.1887 0.0
H6411 H 0.62787 0.51716 0.22088 0.0
H6412 H 0.61576 0.53577 0.16362 0.0
H6413 H 0.56352 0.51233 0.19373 0.0
H6414 H 0.54228 0.51268 0.21746 0.0
H6415 H 0.52948 0.56245 0.20114 0.0
H6416 H 0.55077 0.56248 0.17745 0.0
H6417 H 0.56733 0.51252 0.07447 0.0
H6418 H 0.57858 0.51259 0.10681 0.0
H6419 H 0.55345 0.55806 0.12154 0.0
H6420 H 0.54042 0.55651 0.08911 0.0
H6421 H 0.55071 0.53804 0.1477 0.0
H6422 H 0.60314 0.56037 0.11673 0.0
H6423 H 0.62321 0.55818 0.0921 0.0
H6424 H 0.63471 0.50836 0.1096 0.0
H6425 H 0.61458 0.51018 0.13421 0.0
C6426 C 0.60264 0.54976 0.22737 0.0
C6427 C 0.61446 0.53807 0.23198 0.0
C6428 C 0.59525 0.54971 0.20889 0.0
C6429 C 0.5988 0.53738 0.19455 0.0
C6430 C 0.61079 0.52573 0.19927 0.0
C6431 C 0.61869 0.52623 0.21772 0.0
C6432 C 0.59042 0.53688 0.17471 0.0
C6433 C 0.60146 0.53602 0.16025 0.0
C6434 C 0.57181 0.53763 0.16989 0.0
C6435 C 0.55883 0.53747 0.18394 0.0
C6436 C 0.55622 0.52337 0.19526 0.0
C6437 C 0.54417 0.52351 0.2087 0.0
C6438 C 0.53457 0.5376 0.21083 0.0
C6439 C 0.53694 0.55155 0.19948 0.0
C6440 C 0.54896 0.55149 0.18603 0.0
C6441 C 0.56404 0.52244 0.08452 0.0
C6442 C 0.55317 0.53467 0.07886 0.0
C6443 C 0.57077 0.52269 0.10317 0.0
C6444 C 0.56766 0.53584 0.11685 0.0
C6445 C 0.55642 0.5479 0.11138 0.0
C6446 C 0.54908 0.54716 0.09268 0.0
C6447 C 0.57603 0.53683 0.13672 0.0
C6448 C 0.56501 0.53783 0.15115 0.0
C6449 C 0.59461 0.53602 0.1415 0.0
C6450 C 0.60734 0.5354 0.12726 0.0
C6451 C 0.60999 0.54898 0.11533 0.0
C6452 C 0.62134 0.54778 0.10136 0.0
C6453 C 0.63022 0.53314 0.09928 0.0
C6454 C 0.62784 0.51971 0.11124 0.0
C6455 C 0.61651 0.52084 0.12523 0.0
H6456 H 0.63895 0.5322 0.08842 0.0
H6457 H 0.52527 0.53769 0.22126 0.0
H6458 H 0.27656 0.9194 0.93204 0.0
H6459 H 0.27184 0.8959 0.90554 0.0
H6460 H 0.29131 0.85912 0.94086 0.0
H6461 H 0.296 0.8823 0.9674 0.0
H6462 H 0.30952 0.86499 0.90901 0.0
H6463 H 0.24958 0.84963 0.92679 0.0
H6464 H 0.22005 0.8554 0.93517 0.0
H6465 H 0.20847 0.87316 0.88177 0.0
H6466 H 0.2381 0.86779 0.87319 0.0
H6467 H 0.2964 0.79182 0.83922 0.0
H6468 H 0.29538 0.80998 0.86824 0.0
H6469 H 0.26447 0.84363 0.83895 0.0
H6470 H 0.26377 0.82431 0.81005 0.0
H6471 H 0.25161 0.83775 0.86952 0.0
H6472 H 0.31294 0.85538 0.8526 0.0
H6473 H 0.34306 0.85039 0.84496 0.0
H6474 H 0.35232 0.82884 0.89666 0.0
H6475 H 0.32236 0.8337 0.90469 0.0
C6476 C 0.27962 0.90624 0.93419 0.0
C6477 C 0.28674 0.90269 0.9517 0.0
C6478 C 0.27683 0.89288 0.91913 0.0
C6479 C 0.28122 0.87596 0.9215 0.0
C6480 C 0.28784 0.87218 0.93899 0.0
C6481 C 0.29046 0.88543 0.95406 0.0
C6482 C 0.28042 0.86272 0.90538 0.0
C6483 C 0.29688 0.85878 0.90043 0.0
C6484 C 0.2639 0.85513 0.89427 0.0
C6485 C 0.24614 0.85849 0.89943 0.0
C6486 C 0.24083 0.85496 0.91691 0.0
C6487 C 0.22405 0.85811 0.92168 0.0
C6488 C 0.21241 0.86469 0.90903 0.0
C6489 C 0.21752 0.8681 0.89157 0.0
C6490 C 0.23429 0.86499 0.88674 0.0
C6491 C 0.28887 0.8027 0.83899 0.0
C6492 C 0.27986 0.80644 0.82242 0.0
C6493 C 0.28865 0.81331 0.85555 0.0
C6494 C 0.2802 0.82832 0.85559 0.0
C6495 C 0.27109 0.83206 0.83911 0.0
C6496 C 0.27076 0.82107 0.82264 0.0
C6497 C 0.2808 0.84021 0.87281 0.0
C6498 C 0.26429 0.8439 0.87803 0.0
C6499 C 0.29735 0.8477 0.88413 0.0
C6500 C 0.31533 0.84474 0.87917 0.0
C6501 C 0.32135 0.84946 0.86228 0.0
C6502 C 0.33838 0.84668 0.85788 0.0
C6503 C 0.34949 0.8392 0.87022 0.0
C6504 C 0.34367 0.83459 0.88708 0.0
C6505 C 0.3267 0.8374 0.89159 0.0
H6506 H 0.36265 0.83704 0.86676 0.0
H6507 H 0.19942 0.86711 0.91275 0.0
H6508 H 0.93229 0.50914 0.7599 0.0
H6509 H 0.94699 0.50675 0.7317 0.0
H6510 H 0.91438 0.54192 0.70732 0.0
H6511 H 0.89855 0.54311 0.73537 0.0
H6512 H 0.9167 0.51583 0.68269 0.0
H6513 H 0.96123 0.55704 0.72513 0.0
H6514 H 0.97976 0.56761 0.75537 0.0
H6515 H 1.00574 0.52164 0.74978 0.0
H6516 H 0.98721 0.51065 0.71964 0.0
H6517 H 0.96889 0.50875 0.60791 0.0
H6518 H 0.95707 0.52325 0.63405 0.0
H6519 H 0.98133 0.4903 0.67067 0.0
H6520 H 0.99476 0.47697 0.64493 0.0
H6521 H 0.98392 0.52279 0.68767 0.0
H6522 H 0.93495 0.47911 0.64893 0.0
H6523 H 0.91563 0.4676 0.61928 0.0
H6524 H 0.89792 0.51843 0.61837 0.0
H6525 H 0.91728 0.53028 0.64792 0.0
C6526 C 0.92837 0.51642 0.74851 0.0
C6527 C 0.91464 0.52653 0.74965 0.0
C6528 C 0.93685 0.51519 0.73249 0.0
C6529 C 0.93229 0.52474 0.71768 0.0
C6530 C 0.91828 0.53468 0.71873 0.0
C6531 C 0.90932 0.53542 0.73464 0.0
C6532 C 0.94184 0.5236 0.70097 0.0
C6533 C 0.93143 0.51779 0.6837 0.0
C6534 C 0.96106 0.52604 0.70233 0.0
C6535 C 0.97282 0.53304 0.72009 0.0
C6536 C 0.97091 0.54919 0.73034 0.0
C6537 C 0.98139 0.55524 0.74749 0.0
C6538 C 0.99392 0.5453 0.75449 0.0
C6539 C 0.99606 0.52934 0.74432 0.0
C6540 C 0.9856 0.52323 0.72718 0.0
C6541 C 0.97219 0.5049 0.62158 0.0
C6542 C 0.98272 0.49153 0.62425 0.0
C6543 C 0.96517 0.51306 0.63648 0.0
C6544 C 0.96796 0.50755 0.65419 0.0
C6545 C 0.97891 0.49467 0.65705 0.0
C6546 C 0.98634 0.48684 0.64226 0.0
C6547 C 0.95872 0.51431 0.66962 0.0
C6548 C 0.96923 0.52128 0.68662 0.0
C6549 C 0.9396 0.51296 0.66801 0.0
C6550 C 0.92767 0.50563 0.65051 0.0
C6551 C 0.92697 0.48783 0.64236 0.0
C6552 C 0.91602 0.48125 0.62558 0.0
C6553 C 0.9056 0.49229 0.61692 0.0
C6554 C 0.90602 0.5099 0.62508 0.0
C6555 C 0.91696 0.51655 0.64184 0.0
H6556 H 0.89716 0.48719 0.60391 0.0
H6557 H 1.00198 0.54998 0.76779 0.0
H6558 H 0.27729 0.2169 0.47341 0.0
H6559 H 0.28086 0.23379 0.4464 0.0
H6560 H 0.26994 0.18346 0.41019 0.0
H6561 H 0.26688 0.16663 0.43686 0.0
H6562 H 0.29629 0.20521 0.39868 0.0
H6563 H 0.23725 0.21191 0.41694 0.0
H6564 H 0.21654 0.22105 0.4387 0.0
H6565 H 0.24598 0.27603 0.4445 0.0
H6566 H 0.26699 0.26716 0.42294 0.0
H6567 H 0.27872 0.23411 0.31142 0.0
H6568 H 0.27522 0.22019 0.33989 0.0
H6569 H 0.28143 0.27297 0.37093 0.0
H6570 H 0.28229 0.2868 0.34198 0.0
H6571 H 0.2594 0.25181 0.38639 0.0
H6572 H 0.31956 0.24562 0.37049 0.0
H6573 H 0.3383 0.23842 0.34583 0.0
H6574 H 0.30616 0.18456 0.33453 0.0
H6575 H 0.28777 0.19122 0.35964 0.0
C6576 C 0.27576 0.20943 0.45971 0.0
C6577 C 0.27175 0.19032 0.45748 0.0
C6578 C 0.27769 0.21913 0.4442 0.0
C6579 C 0.27545 0.20998 0.42606 0.0
C6580 C 0.27177 0.19095 0.42392 0.0
C6581 C 0.26996 0.18129 0.43932 0.0
C6582 C 0.27671 0.21994 0.40919 0.0
C6583 C 0.28813 0.21534 0.39605 0.0
C6584 C 0.26648 0.23352 0.40565 0.0
C6585 C 0.25378 0.23884 0.41849 0.0
C6586 C 0.23936 0.22592 0.42295 0.0
C6587 C 0.22756 0.23106 0.43523 0.0
C6588 C 0.22997 0.2491 0.44301 0.0
C6589 C 0.24415 0.26205 0.43848 0.0
C6590 C 0.25599 0.25698 0.42623 0.0
C6591 C 0.27904 0.2428 0.32421 0.0
C6592 C 0.28075 0.26164 0.32421 0.0
C6593 C 0.27745 0.2348 0.3407 0.0
C6594 C 0.27886 0.24546 0.35796 0.0
C6595 C 0.28047 0.26431 0.35799 0.0
C6596 C 0.28115 0.27225 0.34134 0.0
C6597 C 0.27885 0.23698 0.37587 0.0
C6598 C 0.26773 0.24186 0.38917 0.0
C6599 C 0.28952 0.22383 0.37973 0.0
C6600 C 0.30235 0.2189 0.36689 0.0
C6601 C 0.3168 0.23212 0.36301 0.0
C6602 C 0.32733 0.22814 0.34895 0.0
C6603 C 0.32339 0.21105 0.33859 0.0
C6604 C 0.30928 0.19774 0.34265 0.0
C6605 C 0.29897 0.20151 0.35697 0.0
H6606 H 0.3313 0.20812 0.32744 0.0
H6607 H 0.22083 0.25305 0.45252 0.0
H6608 H 0.3317 0.63431 0.55677 0.0
H6609 H 0.36118 0.62498 0.56073 0.0
H6610 H 0.33924 0.57623 0.52344 0.0
H6611 H 0.30992 0.58514 0.5196 0.0
H6612 H 0.35999 0.56953 0.55347 0.0
H6613 H 0.3621 0.61308 0.50782 0.0
H6614 H 0.36075 0.64314 0.49782 0.0
H6615 H 0.40462 0.66779 0.53996 0.0
H6616 H 0.40604 0.63786 0.55035 0.0
H6617 H 0.41047 0.54502 0.48422 0.0
H6618 H 0.39049 0.55574 0.50553 0.0
H6619 H 0.43736 0.58472 0.54235 0.0
H6620 H 0.45752 0.57388 0.52093 0.0
H6621 H 0.41099 0.60558 0.52669 0.0
H6622 H 0.41351 0.55637 0.562 0.0
H6623 H 0.41315 0.52482 0.56826 0.0
H6624 H 0.35861 0.50875 0.54072 0.0
H6625 H 0.35872 0.54011 0.53403 0.0
C6626 C 0.33317 0.62157 0.5495 0.0
C6627 C 0.31855 0.61053 0.53774 0.0
C6628 C 0.34995 0.61626 0.55185 0.0
C6629 C 0.35223 0.59994 0.54243 0.0
C6630 C 0.3376 0.5888 0.53097 0.0
C6631 C 0.32091 0.59404 0.52863 0.0
C6632 C 0.37008 0.59472 0.54308 0.0
C6633 C 0.3713 0.57743 0.54784 0.0
C6634 C 0.38489 0.60538 0.53626 0.0
C6635 C 0.38398 0.62333 0.53006 0.0
C6636 C 0.37134 0.62495 0.51506 0.0
C6637 C 0.37058 0.64195 0.5093 0.0
C6638 C 0.38254 0.65738 0.51831 0.0
C6639 C 0.39532 0.65584 0.53305 0.0
C6640 C 0.3961 0.63887 0.53889 0.0
C6641 C 0.41644 0.55358 0.49693 0.0
C6642 C 0.43533 0.55901 0.50094 0.0
C6643 C 0.40511 0.55945 0.50917 0.0
C6644 C 0.41259 0.57091 0.52546 0.0
C6645 C 0.43151 0.57585 0.52982 0.0
C6646 C 0.44289 0.56977 0.51763 0.0
C6647 C 0.4004 0.57987 0.5359 0.0
C6648 C 0.40018 0.59796 0.53325 0.0
C6649 C 0.3862 0.56967 0.544 0.0
C6650 C 0.38617 0.55064 0.54751 0.0
C6651 C 0.4015 0.54608 0.55712 0.0
C6652 C 0.40132 0.52822 0.56078 0.0
C6653 C 0.38587 0.51479 0.55489 0.0
C6654 C 0.37057 0.51917 0.54529 0.0
C6655 C 0.37068 0.537 0.5416 0.0
H6656 H 0.38575 0.50098 0.55778 0.0
H6657 H 0.38195 0.67053 0.51382 0.0
H6658 H 0.83915 0.93403 0.5476 0.0
H6659 H 0.86877 0.95273 0.5449 0.0
H6660 H 0.88525 0.90596 0.51824 0.0
H6661 H 0.85479 0.88807 0.51854 0.0
H6662 H 0.90027 0.94799 0.56084 0.0
H6663 H 0.90521 0.91174 0.49843 0.0
H6664 H 0.89633 0.90043 0.46538 0.0
H6665 H 0.88878 0.95341 0.45401 0.0
H6666 H 0.89556 0.96442 0.48742 0.0
H6667 H 0.99431 0.98523 0.55288 0.0
H6668 H 0.96491 0.96522 0.55347 0.0
H6669 H 0.93925 0.99683 0.51648 0.0
H6670 H 0.96857 0.01676 0.51563 0.0
H6671 H 0.93035 0.96103 0.50476 0.0
H6672 H 0.93334 0.99908 0.56249 0.0
H6673 H 0.94777 0.01321 0.5936 0.0
H6674 H 0.94639 0.96058 0.61172 0.0
H6675 H 0.93222 0.94613 0.58061 0.0
C6676 C 0.84877 0.92809 0.54014 0.0
C6677 C 0.84424 0.90996 0.53214 0.0
C6678 C 0.86584 0.9387 0.53881 0.0
C6679 C 0.8792 0.93121 0.53025 0.0
C6680 C 0.87499 0.9127 0.52335 0.0
C6681 C 0.85764 0.90227 0.52404 0.0
C6682 C 0.89799 0.94235 0.53098 0.0
C6683 C 0.90681 0.95068 0.54849 0.0
C6684 C 0.90686 0.94607 0.515 0.0
C6685 C 0.89935 0.93846 0.49574 0.0
C6686 C 0.90024 0.92058 0.48918 0.0
C6687 C 0.89583 0.91429 0.47029 0.0
C6688 C 0.89157 0.92608 0.45763 0.0
C6689 C 0.89174 0.94418 0.46385 0.0
C6690 C 0.89535 0.9503 0.48284 0.0
C6691 C 0.98238 0.98806 0.54502 0.0
C6692 C 0.98382 1.00266 0.53425 0.0
C6693 C 0.96556 0.97662 0.54544 0.0
C6694 C 0.94983 0.97956 0.53511 0.0
C6695 C 0.95119 0.9943 0.52459 0.0
C6696 C 0.96797 1.00576 0.52421 0.0
C6697 C 0.93211 0.96679 0.53437 0.0
C6698 C 0.92366 0.95822 0.51701 0.0
C6699 C 0.92366 0.96282 0.55039 0.0
C6700 C 0.93186 0.97152 0.56918 0.0
C6701 C 0.93622 0.99052 0.57308 0.0
C6702 C 0.94434 0.99859 0.59072 0.0
C6703 C 0.94803 0.9878 0.60462 0.0
C6704 C 0.94354 0.96892 0.60093 0.0
C6705 C 0.93545 0.96078 0.5833 0.0
H6706 H 0.95433 0.99407 0.61827 0.0
H6707 H 0.88847 0.92128 0.44297 0.0
H6708 H 0.92988 0.07778 0.2679 0.0
H6709 H 0.91939 0.10685 0.2663 0.0
H6710 H 0.86371 0.07839 0.26261 0.0
H6711 H 0.87381 0.05012 0.26414 0.0
H6712 H 0.86683 0.10314 0.23885 0.0
H6713 H 0.88804 0.09915 0.3042 0.0
H6714 H 0.91179 0.09828 0.3298 0.0
H6715 H 0.94227 0.14891 0.31788 0.0
H6716 H 0.91875 0.14994 0.29208 0.0
H6717 H 0.80408 0.14693 0.27677 0.0
H6718 H 0.82622 0.12847 0.26964 0.0
H6719 H 0.86917 0.17591 0.27952 0.0
H6720 H 0.84709 0.1945 0.28804 0.0
H6721 H 0.87994 0.14844 0.29483 0.0
H6722 H 0.85332 0.15506 0.23419 0.0
H6723 H 0.82813 0.15539 0.20995 0.0
H6724 H 0.8069 0.09919 0.21341 0.0
H6725 H 0.83185 0.09856 0.23781 0.0
C6726 C 0.91544 0.07782 0.26634 0.0
C6727 C 0.90271 0.06162 0.26612 0.0
C6728 C 0.90946 0.09438 0.26557 0.0
C6729 C 0.89074 0.09478 0.26437 0.0
C6730 C 0.87819 0.07849 0.26339 0.0
C6731 C 0.88406 0.06223 0.2643 0.0
C6732 C 0.88354 0.11184 0.26504 0.0
C6733 C 0.86984 0.11318 0.251 0.0
C6734 C 0.88773 0.1252 0.28064 0.0
C6735 C 0.90182 0.12449 0.29607 0.0
C6736 C 0.89989 0.11 0.30695 0.0
C6737 C 0.91328 0.1095 0.32151 0.0
C6738 C 0.92857 0.1235 0.32542 0.0
C6739 C 0.93045 0.13805 0.31481 0.0
C6740 C 0.91711 0.1386 0.30022 0.0
C6741 C 0.81823 0.15352 0.27765 0.0
C6742 C 0.82373 0.17224 0.28313 0.0
C6743 C 0.83089 0.14294 0.27324 0.0
C6744 C 0.84935 0.15082 0.27363 0.0
C6745 C 0.85497 0.16954 0.27895 0.0
C6746 C 0.84228 0.18017 0.28365 0.0
C6747 C 0.8626 0.13915 0.26906 0.0
C6748 C 0.87738 0.13886 0.28234 0.0
C6749 C 0.8593 0.12659 0.2528 0.0
C6750 C 0.84449 0.12678 0.23782 0.0
C6751 C 0.84327 0.14278 0.2298 0.0
C6752 C 0.82902 0.14302 0.21604 0.0
C6753 C 0.81593 0.12732 0.21014 0.0
C6754 C 0.81708 0.11133 0.21796 0.0
C6755 C 0.8313 0.11101 0.23171 0.0
H6756 H 0.8049 0.12755 0.19951 0.0
H6757 H 0.93892 0.12309 0.3367 0.0
H6758 H 0.72866 0.09364 0.04082 0.0
H6759 H 0.69707 0.07755 0.03412 0.0
H6760 H 0.68295 0.12335 0.00915 0.0
H6761 H 0.715 0.13827 0.01337 0.0
H6762 H 0.67092 0.0981 0.0499 0.0
H6763 H 0.66479 0.10986 0.98377 0.0
H6764 H 0.67025 0.10844 0.951 0.0
H6765 H 0.663 0.05047 0.94758 0.0
H6766 H 0.65906 0.05176 0.98088 0.0
H6767 H 0.57448 0.07316 0.03179 0.0
H6768 H 0.60518 0.08792 0.02754 0.0
H6769 H 0.62142 0.03596 0.0222 0.0
H6770 H 0.59058 0.02096 0.02683 0.0
H6771 H 0.63107 0.06502 0.9942 0.0
H6772 H 0.63405 0.05279 0.05872 0.0
H6773 H 0.62228 0.05346 0.08915 0.0
H6774 H 0.63028 0.11152 0.09342 0.0
H6775 H 0.64168 0.11116 0.06276 0.0
C6776 C 0.71898 0.09962 0.03268 0.0
C6777 C 0.72429 0.11652 0.02643 0.0
C6778 C 0.70098 0.09055 0.02902 0.0
C6779 C 0.68788 0.09878 0.02002 0.0
C6780 C 0.69302 0.11611 0.0146 0.0
C6781 C 0.71123 0.1248 0.01747 0.0
C6782 C 0.66866 0.09082 0.02021 0.0
C6783 C 0.66217 0.09101 0.03766 0.0
C6784 C 0.65736 0.08149 1.00424 0.0
C6785 C 0.6627 0.08106 0.98518 0.0
C6786 C 0.66551 0.09695 0.97643 0.0
C6787 C 0.66807 0.09613 0.95763 0.0
C6788 C 0.66719 0.07939 0.94724 0.0
C6789 C 0.66385 0.06344 0.95567 0.0
C6790 C 0.66177 0.06426 0.97458 0.0
C6791 C 0.58449 0.06484 0.02936 0.0
C6792 C 0.58036 0.04597 0.02953 0.0
C6793 C 0.60194 0.07329 0.02706 0.0
C6794 C 0.61527 0.06291 0.02473 0.0
C6795 C 0.61106 0.044 0.02405 0.0
C6796 C 0.59362 0.03553 0.02669 0.0
C6797 C 0.63384 0.07204 0.02372 0.0
C6798 C 0.64002 0.07211 0.00631 0.0
C6799 C 0.64482 0.08164 0.03963 0.0
C6800 C 0.63848 0.08192 0.05832 0.0
C6801 C 0.63311 0.06569 0.06604 0.0
C6802 C 0.62653 0.06601 0.08335 0.0
C6803 C 0.62546 0.08252 0.09319 0.0
C6804 C 0.63107 0.09874 0.08577 0.0
C6805 C 0.63759 0.09848 0.06842 0.0
H6806 H 0.62034 0.08274 0.10657 0.0
H6807 H 0.66892 0.07877 0.93263 0.0
H6808 H 0.23323 0.50811 0.26923 0.0
H6809 H 0.24009 0.47769 0.26633 0.0
H6810 H 0.18363 0.45501 0.24738 0.0
H6811 H 0.1766 0.48541 0.25009 0.0
H6812 H 0.19929 0.44198 0.27964 0.0
H6813 H 0.21064 0.4504 0.21743 0.0
H6814 H 0.22369 0.46783 0.19336 0.0
H6815 H 0.27764 0.46847 0.21916 0.0
H6816 H 0.2649 0.45125 0.24356 0.0
H6817 H 0.22231 0.35884 0.28767 0.0
H6818 H 0.21039 0.38044 0.26918 0.0
H6819 H 0.26361 0.4151 0.27672 0.0
H6820 H 0.27566 0.39321 0.29455 0.0
H6821 H 0.24497 0.41885 0.24406 0.0
H6822 H 0.23543 0.41958 0.3089 0.0
H6823 H 0.22508 0.40538 0.33611 0.0
H6824 H 0.17045 0.39119 0.30849 0.0
H6825 H 0.18057 0.40516 0.28102 0.0
C6826 C 0.22233 0.49666 0.26422 0.0
C6827 C 0.20439 0.49902 0.26003 0.0
C6828 C 0.22629 0.47938 0.2624 0.0
C6829 C 0.21234 0.46432 0.25648 0.0
C6830 C 0.19452 0.46663 0.25178 0.0
C6831 C 0.19057 0.48393 0.25337 0.0
C6832 C 0.21612 0.44613 0.25756 0.0
C6833 C 0.20879 0.43656 0.27144 0.0
C6834 C 0.22902 0.43966 0.24727 0.0
C6835 C 0.23681 0.44953 0.23233 0.0
C6836 C 0.22529 0.4543 0.218 0.0
C6837 C 0.23263 0.46415 0.2043 0.0
C6838 C 0.25148 0.46925 0.20472 0.0
C6839 C 0.26303 0.46447 0.21883 0.0
C6840 C 0.25576 0.45462 0.23258 0.0
C6841 C 0.23146 0.37089 0.28494 0.0
C6842 C 0.2497 0.37473 0.29277 0.0
C6843 C 0.22474 0.38308 0.27431 0.0
C6844 C 0.23608 0.39945 0.27196 0.0
C6845 C 0.25468 0.40252 0.2784 0.0
C6846 C 0.26149 0.39014 0.28871 0.0
C6847 C 0.22812 0.41468 0.26617 0.0
C6848 C 0.23486 0.42385 0.25167 0.0
C6849 C 0.21498 0.42115 0.27622 0.0
C6850 C 0.20877 0.41319 0.29287 0.0
C6851 C 0.22123 0.41337 0.30863 0.0
C6852 C 0.21541 0.40537 0.32409 0.0
C6853 C 0.19712 0.39735 0.32401 0.0
C6854 C 0.18461 0.39739 0.30851 0.0
C6855 C 0.19037 0.40535 0.293 0.0
H6856 H 0.19264 0.39113 0.33598 0.0
H6857 H 0.25714 0.4769 0.19412 0.0
H6858 H 0.24553 0.3952 0.05135 0.0
H6859 H 0.21817 0.40856 0.05374 0.0
H6860 H 0.22866 0.43533 0.00509 0.0
H6861 H 0.2554 0.42209 1.00246 0.0
H6862 H 0.22401 0.45889 0.03467 0.0
H6863 H 0.19515 0.39992 1.0023 0.0
H6864 H 0.18681 0.36654 0.99862 0.0
H6865 H 0.161 0.36845 0.04863 0.0
H6866 H 0.16943 0.40186 0.05274 0.0
H6867 H 0.14538 0.49015 1.0012 0.0
H6868 H 0.17247 0.47702 0.00739 0.0
H6869 H 0.14722 0.44822 0.04953 0.0
H6870 H 0.11978 0.46069 0.04255 0.0
H6871 H 0.15999 0.42601 0.02878 0.0
H6872 H 0.18559 0.4853 0.05932 0.0
H6873 H 0.19377 0.51868 0.06301 0.0
H6874 H 0.22586 0.51671 0.01752 0.0
H6875 H 0.21768 0.48333 0.01338 0.0
C6876 C 0.24171 0.4036 0.04097 0.0
C6877 C 0.25272 0.4077 0.02683 0.0
C6878 C 0.22619 0.41132 0.04242 0.0
C6879 C 0.22159 0.42315 0.02972 0.0
C6880 C 0.23211 0.42647 0.01517 0.0
C6881 C 0.24739 0.4188 0.01368 0.0
C6882 C 0.20623 0.43271 0.03155 0.0
C6883 C 0.20997 0.45174 0.03338 0.0
C6884 C 0.18803 0.42338 0.03037 0.0
C6885 C 0.18315 0.40334 0.02797 0.0
C6886 C 0.18788 0.3932 0.01262 0.0
C6887 C 0.18309 0.37429 0.01043 0.0
C6888 C 0.17344 0.36537 0.02343 0.0
C6889 C 0.16852 0.37537 0.03861 0.0
C6890 C 0.1733 0.39428 0.04088 0.0
C6891 C 0.14588 0.48132 0.01205 0.0
C6892 C 0.13072 0.47645 0.02153 0.0
C6893 C 0.16135 0.47387 0.01566 0.0
C6894 C 0.16204 0.46175 0.02912 0.0
C6895 C 0.14706 0.45751 0.03911 0.0
C6896 C 0.13146 0.4647 0.03523 0.0
C6897 C 0.17766 0.45232 0.03161 0.0
C6898 C 0.17399 0.43329 0.03052 0.0
C6899 C 0.19597 0.46169 0.03355 0.0
C6900 C 0.20092 0.4818 0.03598 0.0
C6901 C 0.19429 0.49199 0.05002 0.0
C6902 C 0.19894 0.51091 0.05221 0.0
C6903 C 0.21031 0.51981 0.04049 0.0
C6904 C 0.21706 0.5098 0.02658 0.0
C6905 C 0.21244 0.49087 0.02433 0.0
H6906 H 0.2139 0.53447 0.04222 0.0
H6907 H 0.16973 0.35073 0.0217 0.0
H6908 H 0.87691 0.97193 0.25371 0.0
H6909 H 0.85793 0.94266 0.25695 0.0
H6910 H 0.9044 0.92653 0.28498 0.0
H6911 H 0.92267 0.95678 0.28409 0.0
H6912 H 0.86821 0.90971 0.24197 0.0
H6913 H 0.89401 0.91392 0.30863 0.0
H6914 H 0.89996 0.92307 0.34225 0.0
H6915 H 0.84297 0.92153 0.34475 0.0
H6916 H 0.83703 0.91441 0.31074 0.0
H6917 H 0.82611 0.81771 0.25009 0.0
H6918 H 0.84652 0.84672 0.25014 0.0
H6919 H 0.81066 0.87347 0.28062 0.0
H6920 H 0.79065 0.84429 0.28156 0.0
H6921 H 0.84361 0.8836 0.29621 0.0
H6922 H 0.81679 0.87631 0.23177 0.0
H6923 H 0.80908 0.85946 0.2004 0.0
H6924 H 0.86573 0.8602 0.19627 0.0
H6925 H 0.87375 0.87683 0.22771 0.0
C6926 C 0.88275 0.96252 0.26157 0.0
C6927 C 0.9009 0.96712 0.26977 0.0
C6928 C 0.87194 0.94569 0.2633 0.0
C6929 C 0.87923 0.93265 0.27254 0.0
C6930 C 0.89782 0.93675 0.27947 0.0
C6931 C 0.90847 0.95391 0.27839 0.0
C6932 C 0.86806 0.91396 0.27165 0.0
C6933 C 0.86293 0.90404 0.25394 0.0
C6934 C 0.86095 0.90634 0.28719 0.0
C6935 C 0.8653 0.9148 0.30675 0.0
C6936 C 0.88298 0.91693 0.316 0.0
C6937 C 0.88629 0.92146 0.33527 0.0
C6938 C 0.87189 0.9231 0.34564 0.0
C6939 C 0.85416 0.92043 0.33672 0.0
C6940 C 0.8509 0.91661 0.31738 0.0
C6941 C 0.8224 0.82977 0.25663 0.0
C6942 C 0.8067 0.82859 0.2659 0.0
C6943 C 0.83408 0.84644 0.25651 0.0
C6944 C 0.83011 0.86242 0.26518 0.0
C6945 C 0.81406 0.86136 0.27381 0.0
C6946 C 0.80254 0.84464 0.27424 0.0
C6947 C 0.84325 0.88003 0.26664 0.0
C6948 C 0.84878 0.88955 0.28432 0.0
C6949 C 0.8507 0.88724 0.25122 0.0
C6950 C 0.84586 0.87772 0.23212 0.0
C6951 C 0.82759 0.87283 0.22419 0.0
C6952 C 0.82317 0.86331 0.2064 0.0
C6953 C 0.8369 0.85874 0.19636 0.0
C6954 C 0.8551 0.86375 0.20406 0.0
C6955 C 0.85959 0.87324 0.22185 0.0
H6956 H 0.83345 0.85134 0.1826 0.0
H6957 H 0.87445 0.92627 0.36058 0.0
H6958 H 0.72205 0.09242 0.76144 0.0
H6959 H 0.73533 0.12463 0.76789 0.0
H6960 H 0.6862 0.13428 0.78955 0.0
H6961 H 0.67422 0.10166 0.78594 0.0
H6962 H 0.71624 0.14654 0.74933 0.0
H6963 H 0.69425 0.15615 0.81327 0.0
H6964 H 0.69337 0.15078 0.846 0.0
H6965 H 0.75176 0.16039 0.85435 0.0
H6966 H 0.75285 0.1643 0.8212 0.0
H6967 H 0.74609 0.23898 0.74741 0.0
H6968 H 0.72593 0.21178 0.75447 0.0
H6969 H 0.76949 0.20089 0.79235 0.0
H6970 H 0.78924 0.22874 0.78605 0.0
H6971 H 0.73756 0.19147 0.80497 0.0
H6972 H 0.76348 0.183 0.74793 0.0
H6973 H 0.77057 0.19066 0.71695 0.0
H6974 H 0.71353 0.18015 0.69728 0.0
H6975 H 0.7061 0.17279 0.7283 0.0
C6976 C 0.71474 0.10132 0.76886 0.0
C6977 C 0.69775 0.09463 0.77434 0.0
C6978 C 0.72219 0.11969 0.77236 0.0
C6979 C 0.71215 0.13179 0.78018 0.0
C6980 C 0.69478 0.12517 0.78496 0.0
C6981 C 0.68775 0.1066 0.78239 0.0
C6982 C 0.71841 0.1512 0.77927 0.0
C6983 C 0.7206 0.15644 0.76151 0.0
C6984 C 0.7244 0.16396 0.79519 0.0
C6985 C 0.72354 0.15944 0.81445 0.0
C6986 C 0.70683 0.15607 0.82176 0.0
C6987 C 0.70631 0.15349 0.84048 0.0
C6988 C 0.72249 0.15495 0.8522 0.0
C6989 C 0.73922 0.15902 0.84522 0.0
C6990 C 0.73977 0.16114 0.82641 0.0
C6991 C 0.75109 0.23087 0.75749 0.0
C6992 C 0.76895 0.2355 0.76621 0.0
C6993 C 0.73967 0.21549 0.76152 0.0
C6994 C 0.74639 0.20436 0.77374 0.0
C6995 C 0.76414 0.20942 0.78294 0.0
C6996 C 0.77542 0.22504 0.77918 0.0
C6997 C 0.73579 0.1864 0.77521 0.0
C6998 C 0.73278 0.18157 0.79286 0.0
C6999 C 0.7298 0.1737 0.75931 0.0
C7000 C 0.73422 0.17757 0.74049 0.0
C7001 C 0.75245 0.18242 0.73702 0.0
C7002 C 0.75653 0.18672 0.71947 0.0
C7003 C 0.74251 0.18595 0.70517 0.0
C7004 C 0.72438 0.18079 0.70839 0.0
C7005 C 0.72022 0.17656 0.72596 0.0
H7006 H 0.74569 0.18931 0.69159 0.0
H7007 H 0.72207 0.15317 0.86673 0.0
loop_
_geom_bond_atom_site_label_1
_geom_bond_atom_site_label_2
_geom_bond_distance
_geom_bond_site_symmetry_2
_ccdc_geom_bond_type
Mn0 O5 2.095 . S
Mn0 O15 2.162 . S
Mn0 O16 2.297 . S
Mn0 O24 2.385 . S
Mn0 O25 2.209 . S
Mn0 O26 2.094 . S
Mn1 O6 2.121 . S
Mn1 N8 2.257 . S
Mn1 N17 2.282 . S
Mn1 O25 2.215 . S
Mn1 O27 2.117 . S
C2 O24 1.234 . S
C2 O25 1.283 . S
C3 O15 1.281 . S
C3 O16 1.236 . S
C4 O26 1.240 . S
C4 O27 1.264 . S
O5 Mn0 2.095 . S
O5 C14 1.250 . S
O6 Mn1 2.121 . S
O6 C14 1.258 . S
C7 N8 1.326 . S
C7 C11 1.460 . S
C7 H13 0.929 . S
N8 Mn1 2.257 . S
N8 C7 1.326 . S
N8 C12 1.362 . S
C9 C10 1.270 . S
C9 C12 1.437 . S
C9 C29 1.430 1_455 S
C10 C9 1.270 . S
C10 C11 1.477 . S
C10 H30 0.931 . S
C11 C7 1.460 . S
C11 C10 1.477 . S
C11 H31 0.930 . S
C12 N8 1.362 . S
C12 C9 1.437 . S
C12 C22 1.476 1_455 S
H13 C7 0.929 . S
C14 O5 1.250 . S
C14 O6 1.258 . S
O15 Mn0 2.162 . S
O15 C3 1.281 . S
O16 Mn0 2.297 . S
O16 C3 1.236 . S
N17 Mn1 2.282 . S
N17 C18 1.328 1_455 S
N17 C22 1.318 1_455 S
C18 N17 1.328 1_655 S
C18 C19 1.457 . S
C18 H23 0.929 1_655 S
C19 C18 1.457 . S
C19 C20 1.291 . S
C19 H32 0.931 . S
C20 C19 1.291 . S
C20 C21 1.373 . S
C20 H33 0.929 . S
C21 C20 1.373 . S
C21 C22 1.396 . S
C21 C28 1.403 . S
C22 C12 1.476 1_655 S
C22 N17 1.318 1_655 S
C22 C21 1.396 . S
H23 C18 0.929 1_455 S
O24 Mn0 2.385 . S
O24 C2 1.234 . S
O25 Mn0 2.209 . S
O25 Mn1 2.215 . S
O25 C2 1.283 . S
O26 Mn0 2.094 . S
O26 C4 1.240 . S
O27 Mn1 2.117 . S
O27 C4 1.264 . S
C28 C21 1.403 . S
C28 C29 1.399 . S
C28 H34 0.929 . S
C29 C9 1.430 1_655 S
C29 C28 1.399 . S
C29 H35 0.930 . S
H30 C10 0.931 . S
H31 C11 0.930 . S
H32 C19 0.931 . S
H33 C20 0.929 . S
H34 C28 0.929 . S
H35 C29 0.930 . S
Mn36 O41 2.095 1_455 S
Mn36 O51 2.162 . S
Mn36 O52 2.297 . S
Mn36 O60 2.385 . S
Mn36 O61 2.209 . S
Mn36 O62 2.094 . S
Mn37 O42 2.121 1_455 S
Mn37 N44 2.257 . S
Mn37 N53 2.282 . S
Mn37 O61 2.215 . S
Mn37 O63 2.117 . S
C38 O60 1.234 . S
C38 O61 1.283 . S
C39 O51 1.281 . S
C39 O52 1.236 . S
C40 O62 1.240 . S
C40 O63 1.264 . S
O41 Mn36 2.095 1_655 S
O41 C50 1.250 . S
O42 Mn37 2.121 1_655 S
O42 C50 1.258 . S
C43 N44 1.326 . S
C43 C47 1.460 . S
C43 H49 0.929 . S
N44 Mn37 2.257 . S
N44 C43 1.326 . S
N44 C48 1.362 . S
C45 C46 1.258 . S
C45 C48 1.431 . S
C45 C65 1.449 . S
C46 C45 1.258 . S
C46 C47 1.477 . S
C46 H66 0.931 . S
C47 C43 1.460 . S
C47 C46 1.477 . S
C47 H67 0.930 . S
C48 N44 1.362 . S
C48 C45 1.431 . S
C48 C58 1.476 . S
H49 C43 0.929 . S
C50 O41 1.250 . S
C50 O42 1.258 . S
O51 Mn36 2.162 . S
O51 C39 1.281 . S
O52 Mn36 2.297 . S
O52 C39 1.236 . S
N53 Mn37 2.282 . S
N53 C54 1.328 . S
N53 C58 1.318 . S
C54 N53 1.328 . S
C54 C55 1.457 . S
C54 H59 0.929 . S
C55 C54 1.457 . S
C55 C56 1.291 . S
C55 H68 0.931 . S
C56 C55 1.291 . S
C56 C57 1.373 . S
C56 H69 0.929 . S
C57 C56 1.373 . S
C57 C58 1.396 . S
C57 C64 1.403 . S
C58 C48 1.476 . S
C58 N53 1.318 . S
C58 C57 1.396 . S
H59 C54 0.929 . S
O60 Mn36 2.385 . S
O60 C38 1.234 . S
O61 Mn36 2.209 . S
O61 Mn37 2.215 . S
O61 C38 1.283 . S
O62 Mn36 2.094 . S
O62 C40 1.240 . S
O63 Mn37 2.117 . S
O63 C40 1.264 . S
C64 C57 1.403 . S
C64 C65 1.399 . S
C64 H70 0.929 . S
C65 C45 1.449 . S
C65 C64 1.399 . S
C65 H71 0.930 . S
H66 C46 0.931 . S
H67 C47 0.930 . S
H68 C55 0.931 . S
H69 C56 0.929 . S
H70 C64 0.929 . S
H71 C65 0.930 . S
Mn72 O77 2.095 . S
Mn72 O87 2.162 . S
Mn72 O88 2.297 . S
Mn72 O96 2.385 . S
Mn72 O97 2.209 . S
Mn72 O98 2.094 . S
Mn73 O78 2.121 . S
Mn73 N80 2.257 . S
Mn73 N89 2.282 . S
Mn73 O97 2.215 . S
Mn73 O99 2.117 . S
C74 O96 1.234 . S
C74 O97 1.283 . S
C75 O87 1.281 . S
C75 O88 1.236 . S
C76 O98 1.240 . S
C76 O99 1.264 . S
O77 Mn72 2.095 . S
O77 C86 1.250 . S
O78 Mn73 2.121 . S
O78 C86 1.258 . S
C79 N80 1.326 . S
C79 C83 1.460 . S
C79 H85 0.929 . S
N80 Mn73 2.257 . S
N80 C79 1.326 . S
N80 C84 1.362 . S
C81 C82 1.258 . S
C81 C84 1.431 . S
C81 C101 1.449 . S
C82 C81 1.258 . S
C82 C83 1.477 . S
C82 H102 0.931 . S
C83 C79 1.460 . S
C83 C82 1.477 . S
C83 H103 0.930 . S
C84 N80 1.362 . S
C84 C81 1.431 . S
C84 C94 1.476 . S
H85 C79 0.929 . S
C86 O77 1.250 . S
C86 O78 1.258 . S
O87 Mn72 2.162 . S
O87 C75 1.281 . S
O88 Mn72 2.297 . S
O88 C75 1.236 . S
N89 Mn73 2.282 . S
N89 C90 1.328 . S
N89 C94 1.318 . S
C90 N89 1.328 . S
C90 C91 1.457 . S
C90 H95 0.929 . S
C91 C90 1.457 . S
C91 C92 1.291 . S
C91 H104 0.931 . S
C92 C91 1.291 . S
C92 C93 1.373 . S
C92 H105 0.929 . S
C93 C92 1.373 . S
C93 C94 1.396 . S
C93 C100 1.403 . S
C94 C84 1.476 . S
C94 N89 1.318 . S
C94 C93 1.396 . S
H95 C90 0.929 . S
O96 Mn72 2.385 . S
O96 C74 1.234 . S
O97 Mn72 2.209 . S
O97 Mn73 2.215 . S
O97 C74 1.283 . S
O98 Mn72 2.094 . S
O98 C76 1.240 . S
O99 Mn73 2.117 . S
O99 C76 1.264 . S
C100 C93 1.403 . S
C100 C101 1.399 . S
C100 H106 0.929 . S
C101 C81 1.449 . S
C101 C100 1.399 . S
C101 H107 0.930 . S
H102 C82 0.931 . S
H103 C83 0.930 . S
H104 C91 0.931 . S
H105 C92 0.929 . S
H106 C100 0.929 . S
H107 C101 0.930 . S
Mn108 O113 2.095 . S
Mn108 O123 2.162 . S
Mn108 O124 2.297 . S
Mn108 O132 2.385 . S
Mn108 O133 2.209 . S
Mn108 O134 2.094 . S
Mn109 O114 2.121 . S
Mn109 N116 2.257 . S
Mn109 N125 2.282 . S
Mn109 O133 2.215 . S
Mn109 O135 2.117 . S
C110 O132 1.234 . S
C110 O133 1.283 . S
C111 O123 1.281 . S
C111 O124 1.236 . S
C112 O134 1.240 . S
C112 O135 1.264 . S
O113 Mn108 2.095 . S
O113 C122 1.250 . S
O114 Mn109 2.121 . S
O114 C122 1.258 . S
C115 N116 1.326 . S
C115 C119 1.460 . S
C115 H121 0.929 . S
N116 Mn109 2.257 . S
N116 C115 1.326 . S
N116 C120 1.362 . S
C117 C118 1.258 . S
C117 C120 1.431 . S
C117 C137 1.449 . S
C118 C117 1.258 . S
C118 C119 1.477 . S
C118 H138 0.931 . S
C119 C115 1.460 . S
C119 C118 1.477 . S
C119 H139 0.930 . S
C120 N116 1.362 . S
C120 C117 1.431 . S
C120 C130 1.476 . S
H121 C115 0.929 . S
C122 O113 1.250 . S
C122 O114 1.258 . S
O123 Mn108 2.162 . S
O123 C111 1.281 . S
O124 Mn108 2.297 . S
O124 C111 1.236 . S
N125 Mn109 2.282 . S
N125 C126 1.328 . S
N125 C130 1.318 . S
C126 N125 1.328 . S
C126 C127 1.457 . S
C126 H131 0.929 . S
C127 C126 1.457 . S
C127 C128 1.291 . S
C127 H140 0.931 . S
C128 C127 1.291 . S
C128 C129 1.373 . S
C128 H141 0.929 . S
C129 C128 1.373 . S
C129 C130 1.396 . S
C129 C136 1.403 . S
C130 C120 1.476 . S
C130 N125 1.318 . S
C130 C129 1.396 . S
H131 C126 0.929 . S
O132 Mn108 2.385 . S
O132 C110 1.234 . S
O133 Mn108 2.209 . S
O133 Mn109 2.215 . S
O133 C110 1.283 . S
O134 Mn108 2.094 . S
O134 C112 1.240 . S
O135 Mn109 2.117 . S
O135 C112 1.264 . S
C136 C129 1.403 . S
C136 C137 1.399 . S
C136 H142 0.929 . S
C137 C117 1.449 . S
C137 C136 1.399 . S
C137 H143 0.930 . S
H138 C118 0.931 . S
H139 C119 0.930 . S
H140 C127 0.931 . S
H141 C128 0.929 . S
H142 C136 0.929 . S
H143 C137 0.930 . S
Mn144 O149 2.095 . S
Mn144 O159 2.162 . S
Mn144 O160 2.297 . S
Mn144 O168 2.385 . S
Mn144 O169 2.209 . S
Mn144 O170 2.094 . S
Mn145 O150 2.121 . S
Mn145 N152 2.257 . S
Mn145 N161 2.282 . S
Mn145 O169 2.215 . S
Mn145 O171 2.117 . S
C146 O168 1.234 . S
C146 O169 1.283 . S
C147 O159 1.281 . S
C147 O160 1.236 . S
C148 O170 1.240 . S
C148 O171 1.264 . S
O149 Mn144 2.095 . S
O149 C158 1.250 . S
O150 Mn145 2.121 . S
O150 C158 1.258 . S
C151 N152 1.326 . S
C151 C155 1.460 . S
C151 H157 0.929 . S
N152 Mn145 2.257 . S
N152 C151 1.326 . S
N152 C156 1.362 . S
C153 C154 1.258 . S
C153 C156 1.431 . S
C153 C173 1.449 1_455 S
C154 C153 1.258 . S
C154 C155 1.477 . S
C154 H174 0.931 . S
C155 C151 1.460 . S
C155 C154 1.477 . S
C155 H175 0.930 . S
C156 N152 1.362 . S
C156 C153 1.431 . S
C156 C166 1.476 . S
H157 C151 0.929 . S
C158 O149 1.250 . S
C158 O150 1.258 . S
O159 Mn144 2.162 . S
O159 C147 1.281 . S
O160 Mn144 2.297 . S
O160 C147 1.236 . S
N161 Mn145 2.282 . S
N161 C162 1.328 1_455 S
N161 C166 1.318 . S
C162 N161 1.328 1_655 S
C162 C163 1.457 . S
C162 H167 0.929 . S
C163 C162 1.457 . S
C163 C164 1.291 . S
C163 H176 0.931 . S
C164 C163 1.291 . S
C164 C165 1.373 . S
C164 H177 0.929 . S
C165 C164 1.373 . S
C165 C166 1.396 1_655 S
C165 C172 1.403 . S
C166 C156 1.476 . S
C166 N161 1.318 . S
C166 C165 1.396 1_455 S
H167 C162 0.929 . S
O168 Mn144 2.385 . S
O168 C146 1.234 . S
O169 Mn144 2.209 . S
O169 Mn145 2.215 . S
O169 C146 1.283 . S
O170 Mn144 2.094 . S
O170 C148 1.240 . S
O171 Mn145 2.117 . S
O171 C148 1.264 . S
C172 C165 1.403 . S
C172 C173 1.399 . S
C172 H178 0.929 . S
C173 C153 1.449 1_655 S
C173 C172 1.399 . S
C173 H179 0.930 . S
H174 C154 0.931 . S
H175 C155 0.930 . S
H176 C163 0.931 . S
H177 C164 0.929 . S
H178 C172 0.929 . S
H179 C173 0.930 . S
Mn180 O185 2.095 . S
Mn180 O195 2.162 . S
Mn180 O196 2.297 . S
Mn180 O204 2.385 . S
Mn180 O205 2.209 . S
Mn180 O206 2.094 . S
Mn181 O186 2.121 . S
Mn181 N188 2.257 . S
Mn181 N197 2.282 . S
Mn181 O205 2.215 . S
Mn181 O207 2.117 . S
C182 O204 1.234 . S
C182 O205 1.283 . S
C183 O195 1.281 . S
C183 O196 1.236 . S
C184 O206 1.240 . S
C184 O207 1.264 . S
O185 Mn180 2.095 . S
O185 C194 1.250 . S
O186 Mn181 2.121 . S
O186 C194 1.258 . S
C187 N188 1.326 . S
C187 C191 1.460 . S
C187 H193 0.929 . S
N188 Mn181 2.257 . S
N188 C187 1.326 . S
N188 C192 1.362 . S
C189 C190 1.258 . S
C189 C192 1.431 . S
C189 C209 1.449 . S
C190 C189 1.258 . S
C190 C191 1.477 . S
C190 H210 0.931 . S
C191 C187 1.460 . S
C191 C190 1.477 . S
C191 H211 0.930 . S
C192 N188 1.362 . S
C192 C189 1.431 . S
C192 C202 1.476 . S
H193 C187 0.929 . S
C194 O185 1.250 . S
C194 O186 1.258 . S
O195 Mn180 2.162 . S
O195 C183 1.281 . S
O196 Mn180 2.297 . S
O196 C183 1.236 . S
N197 Mn181 2.282 . S
N197 C198 1.328 . S
N197 C202 1.318 . S
C198 N197 1.328 . S
C198 C199 1.457 . S
C198 H203 0.929 . S
C199 C198 1.457 . S
C199 C200 1.291 . S
C199 H212 0.931 . S
C200 C199 1.291 . S
C200 C201 1.373 . S
C200 H213 0.929 . S
C201 C200 1.373 . S
C201 C202 1.396 . S
C201 C208 1.403 . S
C202 C192 1.476 . S
C202 N197 1.318 . S
C202 C201 1.396 . S
H203 C198 0.929 . S
O204 Mn180 2.385 . S
O204 C182 1.234 . S
O205 Mn180 2.209 . S
O205 Mn181 2.215 . S
O205 C182 1.283 . S
O206 Mn180 2.094 . S
O206 C184 1.240 . S
O207 Mn181 2.117 . S
O207 C184 1.264 . S
C208 C201 1.403 . S
C208 C209 1.399 . S
C208 H214 0.929 . S
C209 C189 1.449 . S
C209 C208 1.399 . S
C209 H215 0.930 . S
H210 C190 0.931 . S
H211 C191 0.930 . S
H212 C199 0.931 . S
H213 C200 0.929 . S
H214 C208 0.929 . S
H215 C209 0.930 . S
Mn216 O221 2.095 . S
Mn216 O231 2.162 . S
Mn216 O232 2.297 . S
Mn216 O240 2.385 . S
Mn216 O241 2.209 . S
Mn216 O242 2.094 . S
Mn217 O222 2.121 . S
Mn217 N224 2.257 . S
Mn217 N233 2.282 . S
Mn217 O241 2.215 . S
Mn217 O243 2.117 . S
C218 O240 1.234 . S
C218 O241 1.283 . S
C219 O231 1.281 . S
C219 O232 1.236 . S
C220 O242 1.240 . S
C220 O243 1.264 . S
O221 Mn216 2.095 . S
O221 C230 1.250 . S
O222 Mn217 2.121 . S
O222 C230 1.258 . S
C223 N224 1.326 . S
C223 C227 1.460 . S
C223 H229 0.929 . S
N224 Mn217 2.257 . S
N224 C223 1.326 . S
N224 C228 1.362 . S
C225 C226 1.258 . S
C225 C228 1.431 . S
C225 C245 1.449 . S
C226 C225 1.258 . S
C226 C227 1.477 . S
C226 H246 0.931 . S
C227 C223 1.460 . S
C227 C226 1.477 . S
C227 H247 0.930 . S
C228 N224 1.362 . S
C228 C225 1.431 . S
C228 C238 1.476 . S
H229 C223 0.929 . S
C230 O221 1.250 . S
C230 O222 1.258 . S
O231 Mn216 2.162 . S
O231 C219 1.281 . S
O232 Mn216 2.297 . S
O232 C219 1.236 . S
N233 Mn217 2.282 . S
N233 C234 1.328 . S
N233 C238 1.318 . S
C234 N233 1.328 . S
C234 C235 1.457 . S
C234 H239 0.929 . S
C235 C234 1.457 . S
C235 C236 1.291 . S
C235 H248 0.931 . S
C236 C235 1.291 . S
C236 C237 1.373 . S
C236 H249 0.929 . S
C237 C236 1.373 . S
C237 C238 1.396 . S
C237 C244 1.403 . S
C238 C228 1.476 . S
C238 N233 1.318 . S
C238 C237 1.396 . S
H239 C234 0.929 . S
O240 Mn216 2.385 . S
O240 C218 1.234 . S
O241 Mn216 2.209 . S
O241 Mn217 2.215 . S
O241 C218 1.283 . S
O242 Mn216 2.094 . S
O242 C220 1.240 . S
O243 Mn217 2.117 . S
O243 C220 1.264 . S
C244 C237 1.403 . S
C244 C245 1.399 . S
C244 H250 0.929 . S
C245 C225 1.449 . S
C245 C244 1.399 . S
C245 H251 0.930 . S
H246 C226 0.931 . S
H247 C227 0.930 . S
H248 C235 0.931 . S
H249 C236 0.929 . S
H250 C244 0.929 . S
H251 C245 0.930 . S
Mn252 O257 2.064 1_655 S
Mn252 O267 2.155 1_655 S
Mn252 O268 2.294 . S
Mn252 O276 2.419 . S
Mn252 O277 2.224 . S
Mn252 O278 2.098 1_655 S
Mn253 O258 2.121 1_655 S
Mn253 N260 2.257 . S
Mn253 N269 2.282 . S
Mn253 O277 2.215 . S
Mn253 O279 2.117 1_655 S
C254 O276 1.234 . S
C254 O277 1.283 . S
C255 O267 1.283 1_655 S
C255 O268 1.236 . S
C256 O278 1.240 . S
C256 O279 1.264 . S
O257 Mn252 2.064 1_455 S
O257 C266 1.250 . S
O258 Mn253 2.121 1_455 S
O258 C266 1.258 . S
C259 N260 1.326 . S
C259 C263 1.460 . S
C259 H265 0.929 1_655 S
N260 Mn253 2.257 . S
N260 C259 1.326 . S
N260 C264 1.362 . S
C261 C262 1.258 . S
C261 C264 1.431 . S
C261 C281 1.449 . S
C262 C261 1.258 . S
C262 C263 1.477 . S
C262 H282 0.931 . S
C263 C259 1.460 . S
C263 C262 1.477 . S
C263 H283 0.930 . S
C264 N260 1.362 . S
C264 C261 1.431 . S
C264 C274 1.476 . S
H265 C259 0.929 1_455 S
C266 O257 1.250 . S
C266 O258 1.258 . S
O267 Mn252 2.155 1_455 S
O267 C255 1.283 1_455 S
O268 Mn252 2.294 . S
O268 C255 1.236 . S
N269 Mn253 2.282 . S
N269 C270 1.328 . S
N269 C274 1.318 . S
C270 N269 1.328 . S
C270 C271 1.457 . S
C270 H275 0.929 . S
C271 C270 1.457 . S
C271 C272 1.291 . S
C271 H284 0.931 . S
C272 C271 1.291 . S
C272 C273 1.373 . S
C272 H285 0.929 . S
C273 C272 1.373 . S
C273 C274 1.396 . S
C273 C280 1.403 . S
C274 C264 1.476 . S
C274 N269 1.318 . S
C274 C273 1.396 . S
H275 C270 0.929 . S
O276 Mn252 2.419 . S
O276 C254 1.234 . S
O277 Mn252 2.224 . S
O277 Mn253 2.215 . S
O277 C254 1.283 . S
O278 Mn252 2.098 1_455 S
O278 C256 1.240 . S
O279 Mn253 2.117 1_455 S
O279 C256 1.264 . S
C280 C273 1.403 . S
C280 C281 1.399 . S
C280 H286 0.929 . S
C281 C261 1.449 . S
C281 C280 1.399 . S
C281 H287 0.930 . S
H282 C262 0.931 . S
H283 C263 0.930 . S
H284 C271 0.931 . S
H285 C272 0.929 . S
H286 C280 0.929 . S
H287 C281 0.930 . S
Mn288 O293 2.095 . S
Mn288 O303 2.162 . S
Mn288 O304 2.297 . S
Mn288 O312 2.385 1_545 S
Mn288 O313 2.209 1_545 S
Mn288 O314 2.094 . S
Mn289 O294 2.121 . S
Mn289 N296 2.257 1_545 S
Mn289 N305 2.282 1_545 S
Mn289 O313 2.215 1_545 S
Mn289 O315 2.117 . S
C290 O312 1.234 . S
C290 O313 1.283 . S
C291 O303 1.281 . S
C291 O304 1.236 . S
C292 O314 1.240 . S
C292 O315 1.264 . S
O293 Mn288 2.095 . S
O293 C302 1.250 . S
O294 Mn289 2.121 . S
O294 C302 1.258 . S
C295 N296 1.288 1_545 S
C295 C299 1.447 1_545 S
C295 H301 0.982 . S
N296 Mn289 2.257 1_565 S
N296 C295 1.288 1_565 S
N296 C300 1.362 . S
C297 C298 1.258 . S
C297 C300 1.431 . S
C297 C317 1.449 . S
C298 C297 1.258 . S
C298 C299 1.477 . S
C298 H318 0.931 . S
C299 C295 1.447 1_565 S
C299 C298 1.477 . S
C299 H319 0.930 . S
C300 N296 1.362 . S
C300 C297 1.431 . S
C300 C310 1.476 . S
H301 C295 0.982 . S
C302 O293 1.250 . S
C302 O294 1.258 . S
O303 Mn288 2.162 . S
O303 C291 1.281 . S
O304 Mn288 2.297 . S
O304 C291 1.236 . S
N305 Mn289 2.282 1_565 S
N305 C306 1.328 . S
N305 C310 1.318 . S
C306 N305 1.328 . S
C306 C307 1.457 . S
C306 H311 0.929 . S
C307 C306 1.457 . S
C307 C308 1.291 . S
C307 H320 0.931 . S
C308 C307 1.291 . S
C308 C309 1.373 . S
C308 H321 0.929 . S
C309 C308 1.373 . S
C309 C310 1.396 . S
C309 C316 1.403 . S
C310 C300 1.476 . S
C310 N305 1.318 . S
C310 C309 1.396 . S
H311 C306 0.929 . S
O312 Mn288 2.385 1_565 S
O312 C290 1.234 . S
O313 Mn288 2.209 1_565 S
O313 Mn289 2.215 1_565 S
O313 C290 1.283 . S
O314 Mn288 2.094 . S
O314 C292 1.240 . S
O315 Mn289 2.117 . S
O315 C292 1.264 . S
C316 C309 1.403 . S
C316 C317 1.399 . S
C316 H322 0.929 . S
C317 C297 1.449 . S
C317 C316 1.399 . S
C317 H323 0.930 . S
H318 C298 0.931 . S
H319 C299 0.930 . S
H320 C307 0.931 . S
H321 C308 0.929 . S
H322 C316 0.929 . S
H323 C317 0.930 . S
Mn324 O329 2.095 . S
Mn324 O339 2.162 . S
Mn324 O340 2.297 . S
Mn324 O348 2.385 . S
Mn324 O349 2.209 . S
Mn324 O350 2.094 . S
Mn325 O330 2.121 . S
Mn325 N332 2.257 . S
Mn325 N341 2.282 . S
Mn325 O349 2.215 . S
Mn325 O351 2.117 . S
C326 O348 1.234 . S
C326 O349 1.283 . S
C327 O339 1.281 . S
C327 O340 1.236 . S
C328 O350 1.240 . S
C328 O351 1.264 . S
O329 Mn324 2.095 . S
O329 C338 1.250 . S
O330 Mn325 2.121 . S
O330 C338 1.258 . S
C331 N332 1.326 . S
C331 C335 1.460 . S
C331 H337 0.929 . S
N332 Mn325 2.257 . S
N332 C331 1.326 . S
N332 C336 1.362 . S
C333 C334 1.258 . S
C333 C336 1.431 . S
C333 C353 1.449 . S
C334 C333 1.258 . S
C334 C335 1.477 . S
C334 H354 0.931 . S
C335 C331 1.460 . S
C335 C334 1.477 . S
C335 H355 0.930 . S
C336 N332 1.362 . S
C336 C333 1.431 . S
C336 C346 1.476 . S
H337 C331 0.929 . S
C338 O329 1.250 . S
C338 O330 1.258 . S
O339 Mn324 2.162 . S
O339 C327 1.281 . S
O340 Mn324 2.297 . S
O340 C327 1.236 . S
N341 Mn325 2.282 . S
N341 C342 1.328 . S
N341 C346 1.318 . S
C342 N341 1.328 . S
C342 C343 1.457 . S
C342 H347 0.929 . S
C343 C342 1.457 . S
C343 C344 1.291 . S
C343 H356 0.931 . S
C344 C343 1.291 . S
C344 C345 1.373 . S
C344 H357 0.929 . S
C345 C344 1.373 . S
C345 C346 1.396 . S
C345 C352 1.403 . S
C346 C336 1.476 . S
C346 N341 1.318 . S
C346 C345 1.396 . S
H347 C342 0.929 . S
O348 Mn324 2.385 . S
O348 C326 1.234 . S
O349 Mn324 2.209 . S
O349 Mn325 2.215 . S
O349 C326 1.283 . S
O350 Mn324 2.094 . S
O350 C328 1.240 . S
O351 Mn325 2.117 . S
O351 C328 1.264 . S
C352 C345 1.403 . S
C352 C353 1.399 . S
C352 H358 0.929 . S
C353 C333 1.449 . S
C353 C352 1.399 . S
C353 H359 0.930 . S
H354 C334 0.931 . S
H355 C335 0.930 . S
H356 C343 0.931 . S
H357 C344 0.929 . S
H358 C352 0.929 . S
H359 C353 0.930 . S
Mn360 O365 2.095 . S
Mn360 O375 2.162 . S
Mn360 O376 2.297 . S
Mn360 O384 2.385 . S
Mn360 O385 2.209 . S
Mn360 O386 2.094 . S
Mn361 O366 2.121 . S
Mn361 N368 2.257 . S
Mn361 N377 2.282 . S
Mn361 O385 2.215 . S
Mn361 O387 2.117 . S
C362 O384 1.234 . S
C362 O385 1.283 . S
C363 O375 1.281 . S
C363 O376 1.236 . S
C364 O386 1.240 . S
C364 O387 1.264 . S
O365 Mn360 2.095 . S
O365 C374 1.250 . S
O366 Mn361 2.121 . S
O366 C374 1.258 . S
C367 N368 1.326 . S
C367 C371 1.460 . S
C367 H373 0.929 . S
N368 Mn361 2.257 . S
N368 C367 1.326 . S
N368 C372 1.362 . S
C369 C370 1.258 . S
C369 C372 1.431 . S
C369 C389 1.449 . S
C370 C369 1.258 . S
C370 C371 1.477 . S
C370 H390 0.931 . S
C371 C367 1.460 . S
C371 C370 1.477 . S
C371 H391 0.930 . S
C372 N368 1.362 . S
C372 C369 1.431 . S
C372 C382 1.476 . S
H373 C367 0.929 . S
C374 O365 1.250 . S
C374 O366 1.258 . S
O375 Mn360 2.162 . S
O375 C363 1.281 . S
O376 Mn360 2.297 . S
O376 C363 1.236 . S
N377 Mn361 2.282 . S
N377 C378 1.328 . S
N377 C382 1.318 . S
C378 N377 1.328 . S
C378 C379 1.457 . S
C378 H383 0.929 . S
C379 C378 1.457 . S
C379 C380 1.291 . S
C379 H392 0.931 . S
C380 C379 1.291 . S
C380 C381 1.373 . S
C380 H393 0.929 . S
C381 C380 1.373 . S
C381 C382 1.396 . S
C381 C388 1.403 . S
C382 C372 1.476 . S
C382 N377 1.318 . S
C382 C381 1.396 . S
H383 C378 0.929 . S
O384 Mn360 2.385 . S
O384 C362 1.234 . S
O385 Mn360 2.209 . S
O385 Mn361 2.215 . S
O385 C362 1.283 . S
O386 Mn360 2.094 . S
O386 C364 1.240 . S
O387 Mn361 2.117 . S
O387 C364 1.264 . S
C388 C381 1.403 . S
C388 C389 1.399 . S
C388 H394 0.929 . S
C389 C369 1.449 . S
C389 C388 1.399 . S
C389 H395 0.930 . S
H390 C370 0.931 . S
H391 C371 0.930 . S
H392 C379 0.931 . S
H393 C380 0.929 . S
H394 C388 0.929 . S
H395 C389 0.930 . S
Mn396 O401 2.095 1_554 S
Mn396 O411 2.162 . S
Mn396 O412 2.297 . S
Mn396 O420 2.385 . S
Mn396 O421 2.203 1_554 S
Mn396 O422 2.094 1_554 S
Mn397 O402 2.121 . S
Mn397 N404 2.257 . S
Mn397 N413 2.282 . S
Mn397 O421 2.236 . S
Mn397 O423 2.117 . S
C398 O420 1.234 . S
C398 O421 1.280 1_554 S
C399 O411 1.281 . S
C399 O412 1.236 . S
C400 O422 1.240 . S
C400 O423 1.264 . S
O401 Mn396 2.095 1_556 S
O401 C410 1.250 . S
O402 Mn397 2.121 . S
O402 C410 1.258 . S
C403 N404 1.326 . S
C403 C407 1.460 1_565 S
C403 H409 0.929 . S
N404 Mn397 2.257 . S
N404 C403 1.326 . S
N404 C408 1.362 . S
C405 C406 1.258 1_565 S
C405 C408 1.431 . S
C405 C425 1.449 1_565 S
C406 C405 1.258 1_545 S
C406 C407 1.477 . S
C406 H426 0.931 . S
C407 C403 1.460 1_545 S
C407 C406 1.477 . S
C407 H427 0.930 . S
C408 N404 1.362 . S
C408 C405 1.431 . S
C408 C418 1.476 . S
H409 C403 0.929 . S
C410 O401 1.250 . S
C410 O402 1.258 . S
O411 Mn396 2.162 . S
O411 C399 1.281 . S
O412 Mn396 2.297 . S
O412 C399 1.236 . S
N413 Mn397 2.282 . S
N413 C414 1.328 . S
N413 C418 1.318 . S
C414 N413 1.328 . S
C414 C415 1.457 . S
C414 H419 0.929 . S
C415 C414 1.457 . S
C415 C416 1.291 . S
C415 H428 0.931 . S
C416 C415 1.291 . S
C416 C417 1.373 . S
C416 H429 0.929 . S
C417 C416 1.373 . S
C417 C418 1.396 . S
C417 C424 1.403 . S
C418 C408 1.476 . S
C418 N413 1.318 . S
C418 C417 1.396 . S
H419 C414 0.929 . S
O420 Mn396 2.385 . S
O420 C398 1.234 . S
O421 Mn396 2.203 1_556 S
O421 Mn397 2.236 . S
O421 C398 1.280 1_556 S
O422 Mn396 2.094 1_556 S
O422 C400 1.240 . S
O423 Mn397 2.117 . S
O423 C400 1.264 . S
C424 C417 1.403 . S
C424 C425 1.399 1_565 S
C424 H430 0.929 . S
C425 C405 1.449 1_545 S
C425 C424 1.399 1_545 S
C425 H431 0.930 . S
H426 C406 0.931 . S
H427 C407 0.930 . S
H428 C415 0.931 . S
H429 C416 0.929 . S
H430 C424 0.929 . S
H431 C425 0.930 . S
Mn432 O437 2.095 . S
Mn432 O447 2.162 . S
Mn432 O448 2.297 . S
Mn432 O456 2.385 . S
Mn432 O457 2.209 . S
Mn432 O458 2.094 . S
Mn433 O438 2.121 . S
Mn433 N440 2.257 . S
Mn433 N449 2.282 1_554 S
Mn433 O457 2.215 . S
Mn433 O459 2.117 1_554 S
C434 O456 1.234 . S
C434 O457 1.283 . S
C435 O447 1.281 . S
C435 O448 1.236 . S
C436 O458 1.240 1_556 S
C436 O459 1.264 . S
O437 Mn432 2.095 . S
O437 C446 1.250 . S
O438 Mn433 2.121 . S
O438 C446 1.258 . S
C439 N440 1.326 . S
C439 C443 1.460 . S
C439 H445 0.929 . S
N440 Mn433 2.257 . S
N440 C439 1.326 . S
N440 C444 1.362 . S
C441 C442 1.258 . S
C441 C444 1.431 . S
C441 C461 1.449 . S
C442 C441 1.258 . S
C442 C443 1.477 . S
C442 H462 0.931 . S
C443 C439 1.460 . S
C443 C442 1.477 . S
C443 H463 0.930 . S
C444 N440 1.362 . S
C444 C441 1.431 . S
C444 C454 1.476 1_554 S
H445 C439 0.929 . S
C446 O437 1.250 . S
C446 O438 1.258 . S
O447 Mn432 2.162 . S
O447 C435 1.281 . S
O448 Mn432 2.297 . S
O448 C435 1.236 . S
N449 Mn433 2.282 1_556 S
N449 C450 1.328 . S
N449 C454 1.318 . S
C450 N449 1.328 . S
C450 C451 1.457 . S
C450 H455 0.929 . S
C451 C450 1.457 . S
C451 C452 1.291 . S
C451 H464 0.931 . S
C452 C451 1.291 . S
C452 C453 1.373 . S
C452 H465 0.929 . S
C453 C452 1.373 . S
C453 C454 1.396 . S
C453 C460 1.403 . S
C454 C444 1.476 1_556 S
C454 N449 1.318 . S
C454 C453 1.396 . S
H455 C450 0.929 . S
O456 Mn432 2.385 . S
O456 C434 1.234 . S
O457 Mn432 2.209 . S
O457 Mn433 2.215 . S
O457 C434 1.283 . S
O458 Mn432 2.094 . S
O458 C436 1.240 1_554 S
O459 Mn433 2.117 1_556 S
O459 C436 1.264 . S
C460 C453 1.403 . S
C460 C461 1.399 1_556 S
C460 H466 0.929 . S
C461 C441 1.449 . S
C461 C460 1.399 1_554 S
C461 H467 0.930 . S
H462 C442 0.931 . S
H463 C443 0.930 . S
H464 C451 0.931 . S
H465 C452 0.929 . S
H466 C460 0.929 . S
H467 C461 0.930 . S
Mn468 O473 2.095 . S
Mn468 O483 2.162 . S
Mn468 O484 2.297 . S
Mn468 O492 2.385 . S
Mn468 O493 2.209 . S
Mn468 O494 2.094 . S
Mn469 O474 2.121 . S
Mn469 N476 2.257 . S
Mn469 N485 2.282 1_554 S
Mn469 O493 2.215 . S
Mn469 O495 2.117 . S
C470 O492 1.234 . S
C470 O493 1.283 . S
C471 O483 1.281 . S
C471 O484 1.236 . S
C472 O494 1.240 . S
C472 O495 1.264 . S
O473 Mn468 2.095 . S
O473 C482 1.250 . S
O474 Mn469 2.121 . S
O474 C482 1.258 . S
C475 N476 1.326 . S
C475 C479 1.460 . S
C475 H481 0.929 . S
N476 Mn469 2.257 . S
N476 C475 1.326 . S
N476 C480 1.362 . S
C477 C478 1.258 . S
C477 C480 1.431 . S
C477 C497 1.449 1_554 S
C478 C477 1.258 . S
C478 C479 1.477 . S
C478 H498 0.931 . S
C479 C475 1.460 . S
C479 C478 1.477 . S
C479 H499 0.930 . S
C480 N476 1.362 . S
C480 C477 1.431 . S
C480 C490 1.476 1_554 S
H481 C475 0.929 . S
C482 O473 1.250 . S
C482 O474 1.258 . S
O483 Mn468 2.162 . S
O483 C471 1.281 . S
O484 Mn468 2.297 . S
O484 C471 1.236 . S
N485 Mn469 2.282 1_556 S
N485 C486 1.328 . S
N485 C490 1.318 . S
C486 N485 1.328 . S
C486 C487 1.457 . S
C486 H491 0.929 . S
C487 C486 1.457 . S
C487 C488 1.291 . S
C487 H500 0.931 . S
C488 C487 1.291 . S
C488 C489 1.373 . S
C488 H501 0.929 . S
C489 C488 1.373 . S
C489 C490 1.396 . S
C489 C496 1.403 . S
C490 C480 1.476 1_556 S
C490 N485 1.318 . S
C490 C489 1.396 . S
H491 C486 0.929 . S
O492 Mn468 2.385 . S
O492 C470 1.234 . S
O493 Mn468 2.209 . S
O493 Mn469 2.215 . S
O493 C470 1.283 . S
O494 Mn468 2.094 . S
O494 C472 1.240 . S
O495 Mn469 2.117 . S
O495 C472 1.264 . S
C496 C489 1.403 . S
C496 C497 1.399 . S
C496 H502 0.929 . S
C497 C477 1.449 1_556 S
C497 C496 1.399 . S
C497 H503 0.930 . S
H498 C478 0.931 . S
H499 C479 0.930 . S
H500 C487 0.931 . S
H501 C488 0.929 . S
H502 C496 0.929 . S
H503 C497 0.930 . S
Mn504 O509 2.095 . S
Mn504 O519 2.162 . S
Mn504 O520 2.297 . S
Mn504 O528 2.385 . S
Mn504 O529 2.209 . S
Mn504 O530 2.094 . S
Mn505 O510 2.121 . S
Mn505 N512 2.257 . S
Mn505 N521 2.282 . S
Mn505 O529 2.215 . S
Mn505 O531 2.117 . S
C506 O528 1.234 . S
C506 O529 1.283 . S
C507 O519 1.281 . S
C507 O520 1.236 . S
C508 O530 1.240 . S
C508 O531 1.264 . S
O509 Mn504 2.095 . S
O509 C518 1.250 . S
O510 Mn505 2.121 . S
O510 C518 1.258 . S
C511 N512 1.326 . S
C511 C515 1.460 . S
C511 H517 0.929 . S
N512 Mn505 2.257 . S
N512 C511 1.326 . S
N512 C516 1.362 . S
C513 C514 1.258 . S
C513 C516 1.431 . S
C513 C533 1.449 . S
C514 C513 1.258 . S
C514 C515 1.477 . S
C514 H534 0.931 . S
C515 C511 1.460 . S
C515 C514 1.477 . S
C515 H535 0.930 . S
C516 N512 1.362 . S
C516 C513 1.431 . S
C516 C526 1.476 . S
H517 C511 0.929 . S
C518 O509 1.250 . S
C518 O510 1.258 . S
O519 Mn504 2.162 . S
O519 C507 1.281 . S
O520 Mn504 2.297 . S
O520 C507 1.236 . S
N521 Mn505 2.282 . S
N521 C522 1.328 . S
N521 C526 1.318 . S
C522 N521 1.328 . S
C522 C523 1.457 . S
C522 H527 0.929 . S
C523 C522 1.457 . S
C523 C524 1.291 . S
C523 H536 0.931 . S
C524 C523 1.291 . S
C524 C525 1.373 . S
C524 H537 0.929 . S
C525 C524 1.373 . S
C525 C526 1.396 . S
C525 C532 1.403 . S
C526 C516 1.476 . S
C526 N521 1.318 . S
C526 C525 1.396 . S
H527 C522 0.929 . S
O528 Mn504 2.385 . S
O528 C506 1.234 . S
O529 Mn504 2.209 . S
O529 Mn505 2.215 . S
O529 C506 1.283 . S
O530 Mn504 2.094 . S
O530 C508 1.240 . S
O531 Mn505 2.117 . S
O531 C508 1.264 . S
C532 C525 1.403 . S
C532 C533 1.399 . S
C532 H538 0.929 . S
C533 C513 1.449 . S
C533 C532 1.399 . S
C533 H539 0.930 . S
H534 C514 0.931 . S
H535 C515 0.930 . S
H536 C523 0.931 . S
H537 C524 0.929 . S
H538 C532 0.929 . S
H539 C533 0.930 . S
Mn540 O545 2.095 . S
Mn540 O555 2.162 . S
Mn540 O556 2.297 . S
Mn540 O564 2.385 . S
Mn540 O565 2.209 . S
Mn540 O566 2.094 . S
Mn541 O546 2.121 . S
Mn541 N548 2.257 . S
Mn541 N557 2.282 . S
Mn541 O565 2.215 . S
Mn541 O567 2.117 . S
C542 O564 1.234 . S
C542 O565 1.283 . S
C543 O555 1.281 . S
C543 O556 1.236 . S
C544 O566 1.240 . S
C544 O567 1.264 . S
O545 Mn540 2.095 . S
O545 C554 1.250 . S
O546 Mn541 2.121 . S
O546 C554 1.258 . S
C547 N548 1.326 . S
C547 C551 1.460 . S
C547 H553 0.929 . S
N548 Mn541 2.257 . S
N548 C547 1.326 . S
N548 C552 1.362 . S
C549 C550 1.258 . S
C549 C552 1.431 . S
C549 C569 1.449 . S
C550 C549 1.258 . S
C550 C551 1.477 . S
C550 H570 0.931 . S
C551 C547 1.460 . S
C551 C550 1.477 . S
C551 H571 0.930 . S
C552 N548 1.362 . S
C552 C549 1.431 . S
C552 C562 1.476 . S
H553 C547 0.929 . S
C554 O545 1.250 . S
C554 O546 1.258 . S
O555 Mn540 2.162 . S
O555 C543 1.281 . S
O556 Mn540 2.297 . S
O556 C543 1.236 . S
N557 Mn541 2.282 . S
N557 C558 1.328 . S
N557 C562 1.318 . S
C558 N557 1.328 . S
C558 C559 1.457 . S
C558 H563 0.929 . S
C559 C558 1.457 . S
C559 C560 1.291 . S
C559 H572 0.931 . S
C560 C559 1.291 . S
C560 C561 1.373 . S
C560 H573 0.929 . S
C561 C560 1.373 . S
C561 C562 1.396 . S
C561 C568 1.403 . S
C562 C552 1.476 . S
C562 N557 1.318 . S
C562 C561 1.396 . S
H563 C558 0.929 . S
O564 Mn540 2.385 . S
O564 C542 1.234 . S
O565 Mn540 2.209 . S
O565 Mn541 2.215 . S
O565 C542 1.283 . S
O566 Mn540 2.094 . S
O566 C544 1.240 . S
O567 Mn541 2.117 . S
O567 C544 1.264 . S
C568 C561 1.403 . S
C568 C569 1.399 . S
C568 H574 0.929 . S
C569 C549 1.449 . S
C569 C568 1.399 . S
C569 H575 0.930 . S
H570 C550 0.931 . S
H571 C551 0.930 . S
H572 C559 0.931 . S
H573 C560 0.929 . S
H574 C568 0.929 . S
H575 C569 0.930 . S
Mn576 O581 2.095 . S
Mn576 O591 2.162 . S
Mn576 O592 2.297 . S
Mn576 O600 2.385 1_545 S
Mn576 O601 2.209 1_545 S
Mn576 O602 2.094 . S
Mn577 O582 2.121 . S
Mn577 N584 2.257 1_545 S
Mn577 N593 2.282 1_545 S
Mn577 O601 2.215 1_545 S
Mn577 O603 2.117 . S
C578 O600 1.234 . S
C578 O601 1.283 . S
C579 O591 1.281 . S
C579 O592 1.236 . S
C580 O602 1.240 . S
C580 O603 1.264 . S
O581 Mn576 2.095 . S
O581 C590 1.250 . S
O582 Mn577 2.121 . S
O582 C590 1.258 . S
C583 N584 1.326 1_545 S
C583 C587 1.460 1_545 S
C583 H589 0.929 . S
N584 Mn577 2.257 1_565 S
N584 C583 1.326 1_565 S
N584 C588 1.362 . S
C585 C586 1.258 . S
C585 C588 1.431 . S
C585 C605 1.449 . S
C586 C585 1.258 . S
C586 C587 1.477 . S
C586 H606 0.931 . S
C587 C583 1.460 1_565 S
C587 C586 1.477 . S
C587 H607 0.930 1_565 S
C588 N584 1.362 . S
C588 C585 1.431 . S
C588 C598 1.476 . S
H589 C583 0.929 . S
C590 O581 1.250 . S
C590 O582 1.258 . S
O591 Mn576 2.162 . S
O591 C579 1.281 . S
O592 Mn576 2.297 . S
O592 C579 1.236 . S
N593 Mn577 2.282 1_565 S
N593 C594 1.328 . S
N593 C598 1.318 . S
C594 N593 1.328 . S
C594 C595 1.457 . S
C594 H599 0.929 . S
C595 C594 1.457 . S
C595 C596 1.291 . S
C595 H608 0.931 . S
C596 C595 1.291 . S
C596 C597 1.373 . S
C596 H609 0.929 . S
C597 C596 1.373 . S
C597 C598 1.396 . S
C597 C604 1.403 . S
C598 C588 1.476 . S
C598 N593 1.318 . S
C598 C597 1.396 . S
H599 C594 0.929 . S
O600 Mn576 2.385 1_565 S
O600 C578 1.234 . S
O601 Mn576 2.209 1_565 S
O601 Mn577 2.215 1_565 S
O601 C578 1.283 . S
O602 Mn576 2.094 . S
O602 C580 1.240 . S
O603 Mn577 2.117 . S
O603 C580 1.264 . S
C604 C597 1.403 . S
C604 C605 1.399 . S
C604 H610 0.929 . S
C605 C585 1.449 . S
C605 C604 1.399 . S
C605 H611 0.930 . S
H606 C586 0.931 . S
H607 C587 0.930 1_545 S
H608 C595 0.931 . S
H609 C596 0.929 . S
H610 C604 0.929 . S
H611 C605 0.930 . S
Mn612 O617 2.095 . S
Mn612 O627 2.162 . S
Mn612 O628 2.297 . S
Mn612 O636 2.385 . S
Mn612 O637 2.209 . S
Mn612 O638 2.094 . S
Mn613 O618 2.121 . S
Mn613 N620 2.257 . S
Mn613 N629 2.282 . S
Mn613 O637 2.215 . S
Mn613 O639 2.117 . S
C614 O636 1.234 . S
C614 O637 1.283 . S
C615 O627 1.281 . S
C615 O628 1.236 . S
C616 O638 1.240 . S
C616 O639 1.264 . S
O617 Mn612 2.095 . S
O617 C626 1.250 . S
O618 Mn613 2.121 . S
O618 C626 1.258 . S
C619 N620 1.326 . S
C619 C623 1.460 . S
C619 H625 0.929 . S
N620 Mn613 2.257 . S
N620 C619 1.326 . S
N620 C624 1.362 . S
C621 C622 1.258 . S
C621 C624 1.431 . S
C621 C641 1.449 . S
C622 C621 1.258 . S
C622 C623 1.477 . S
C622 H642 0.931 . S
C623 C619 1.460 . S
C623 C622 1.477 . S
C623 H643 0.930 . S
C624 N620 1.362 . S
C624 C621 1.431 . S
C624 C634 1.476 . S
H625 C619 0.929 . S
C626 O617 1.250 . S
C626 O618 1.258 . S
O627 Mn612 2.162 . S
O627 C615 1.281 . S
O628 Mn612 2.297 . S
O628 C615 1.236 . S
N629 Mn613 2.282 . S
N629 C630 1.328 . S
N629 C634 1.318 . S
C630 N629 1.328 . S
C630 C631 1.457 . S
C630 H635 0.929 . S
C631 C630 1.457 . S
C631 C632 1.291 . S
C631 H644 0.931 . S
C632 C631 1.291 . S
C632 C633 1.373 . S
C632 H645 0.929 . S
C633 C632 1.373 . S
C633 C634 1.396 . S
C633 C640 1.403 . S
C634 C624 1.476 . S
C634 N629 1.318 . S
C634 C633 1.396 . S
H635 C630 0.929 . S
O636 Mn612 2.385 . S
O636 C614 1.234 . S
O637 Mn612 2.209 . S
O637 Mn613 2.215 . S
O637 C614 1.283 . S
O638 Mn612 2.094 . S
O638 C616 1.240 . S
O639 Mn613 2.117 . S
O639 C616 1.264 . S
C640 C633 1.403 . S
C640 C641 1.399 . S
C640 H646 0.929 . S
C641 C621 1.449 . S
C641 C640 1.399 . S
C641 H647 0.930 . S
H642 C622 0.931 . S
H643 C623 0.930 . S
H644 C631 0.931 . S
H645 C632 0.929 . S
H646 C640 0.929 . S
H647 C641 0.930 . S
Mn648 O653 2.095 . S
Mn648 O663 2.162 . S
Mn648 O664 2.297 . S
Mn648 O672 2.385 . S
Mn648 O673 2.209 . S
Mn648 O674 2.094 . S
Mn649 O654 2.121 . S
Mn649 N656 2.257 . S
Mn649 N665 2.282 . S
Mn649 O673 2.215 . S
Mn649 O675 2.117 . S
C650 O672 1.234 . S
C650 O673 1.283 . S
C651 O663 1.281 . S
C651 O664 1.236 . S
C652 O674 1.240 . S
C652 O675 1.264 . S
O653 Mn648 2.095 . S
O653 C662 1.250 . S
O654 Mn649 2.121 . S
O654 C662 1.258 . S
C655 N656 1.326 . S
C655 C659 1.460 . S
C655 H661 0.929 . S
N656 Mn649 2.257 . S
N656 C655 1.326 . S
N656 C660 1.362 . S
C657 C658 1.258 . S
C657 C660 1.431 . S
C657 C677 1.449 . S
C658 C657 1.258 . S
C658 C659 1.477 . S
C658 H678 0.931 . S
C659 C655 1.460 . S
C659 C658 1.477 . S
C659 H679 0.930 . S
C660 N656 1.362 . S
C660 C657 1.431 . S
C660 C670 1.476 . S
H661 C655 0.929 . S
C662 O653 1.250 . S
C662 O654 1.258 . S
O663 Mn648 2.162 . S
O663 C651 1.281 . S
O664 Mn648 2.297 . S
O664 C651 1.236 . S
N665 Mn649 2.282 . S
N665 C666 1.328 . S
N665 C670 1.318 . S
C666 N665 1.328 . S
C666 C667 1.457 . S
C666 H671 0.929 . S
C667 C666 1.457 . S
C667 C668 1.291 . S
C667 H680 0.931 . S
C668 C667 1.291 . S
C668 C669 1.373 . S
C668 H681 0.929 . S
C669 C668 1.373 . S
C669 C670 1.396 . S
C669 C676 1.403 . S
C670 C660 1.476 . S
C670 N665 1.318 . S
C670 C669 1.396 . S
H671 C666 0.929 . S
O672 Mn648 2.385 . S
O672 C650 1.234 . S
O673 Mn648 2.209 . S
O673 Mn649 2.215 . S
O673 C650 1.283 . S
O674 Mn648 2.094 . S
O674 C652 1.240 . S
O675 Mn649 2.117 . S
O675 C652 1.264 . S
C676 C669 1.403 . S
C676 C677 1.399 . S
C676 H682 0.929 . S
C677 C657 1.449 . S
C677 C676 1.399 . S
C677 H683 0.930 . S
H678 C658 0.931 . S
H679 C659 0.930 . S
H680 C667 0.931 . S
H681 C668 0.929 . S
H682 C676 0.929 . S
H683 C677 0.930 . S
Mn684 O689 2.095 . S
Mn684 O699 2.162 . S
Mn684 O700 2.297 . S
Mn684 O708 2.385 . S
Mn684 O709 2.209 . S
Mn684 O710 2.094 . S
Mn685 O690 2.121 . S
Mn685 N692 2.257 . S
Mn685 N701 2.282 . S
Mn685 O709 2.215 . S
Mn685 O711 2.117 . S
C686 O708 1.234 . S
C686 O709 1.283 . S
C687 O699 1.281 . S
C687 O700 1.236 . S
C688 O710 1.240 . S
C688 O711 1.264 . S
O689 Mn684 2.095 . S
O689 C698 1.250 . S
O690 Mn685 2.121 . S
O690 C698 1.258 . S
C691 N692 1.326 . S
C691 C695 1.460 . S
C691 H697 0.929 . S
N692 Mn685 2.257 . S
N692 C691 1.326 . S
N692 C696 1.362 . S
C693 C694 1.258 . S
C693 C696 1.431 . S
C693 C713 1.449 . S
C694 C693 1.258 . S
C694 C695 1.477 . S
C694 H714 0.931 . S
C695 C691 1.460 . S
C695 C694 1.477 . S
C695 H715 0.930 . S
C696 N692 1.362 . S
C696 C693 1.431 . S
C696 C706 1.476 . S
H697 C691 0.929 . S
C698 O689 1.250 . S
C698 O690 1.258 . S
O699 Mn684 2.162 . S
O699 C687 1.281 . S
O700 Mn684 2.297 . S
O700 C687 1.236 . S
N701 Mn685 2.282 . S
N701 C702 1.328 . S
N701 C706 1.318 . S
C702 N701 1.328 . S
C702 C703 1.457 . S
C702 H707 0.929 . S
C703 C702 1.457 . S
C703 C704 1.291 . S
C703 H716 0.931 . S
C704 C703 1.291 . S
C704 C705 1.373 . S
C704 H717 0.929 . S
C705 C704 1.373 . S
C705 C706 1.396 . S
C705 C712 1.403 . S
C706 C696 1.476 . S
C706 N701 1.318 . S
C706 C705 1.396 . S
H707 C702 0.929 . S
O708 Mn684 2.385 . S
O708 C686 1.234 . S
O709 Mn684 2.209 . S
O709 Mn685 2.215 . S
O709 C686 1.283 . S
O710 Mn684 2.094 . S
O710 C688 1.240 . S
O711 Mn685 2.117 . S
O711 C688 1.264 . S
C712 C705 1.403 . S
C712 C713 1.399 . S
C712 H718 0.929 . S
C713 C693 1.449 . S
C713 C712 1.399 . S
C713 H719 0.930 . S
H714 C694 0.931 . S
H715 C695 0.930 . S
H716 C703 0.931 . S
H717 C704 0.929 . S
H718 C712 0.929 . S
H719 C713 0.930 . S
Mn720 O725 2.095 . S
Mn720 O735 2.162 . S
Mn720 O736 2.297 . S
Mn720 O744 2.385 . S
Mn720 O745 2.209 . S
Mn720 O746 2.094 1_554 S
Mn721 O726 2.121 . S
Mn721 N728 2.257 . S
Mn721 N737 2.282 . S
Mn721 O745 2.215 1_556 S
Mn721 O747 2.117 . S
C722 O744 1.234 . S
C722 O745 1.283 . S
C723 O735 1.281 . S
C723 O736 1.236 . S
C724 O746 1.240 . S
C724 O747 1.264 . S
O725 Mn720 2.095 . S
O725 C734 1.250 . S
O726 Mn721 2.121 . S
O726 C734 1.258 1_556 S
C727 N728 1.326 . S
C727 C731 1.460 . S
C727 H733 0.929 . S
N728 Mn721 2.257 . S
N728 C727 1.326 . S
N728 C732 1.362 . S
C729 C730 1.258 . S
C729 C732 1.431 . S
C729 C749 1.449 . S
C730 C729 1.258 . S
C730 C731 1.477 . S
C730 H750 0.931 . S
C731 C727 1.460 . S
C731 C730 1.477 . S
C731 H751 0.930 . S
C732 N728 1.362 . S
C732 C729 1.431 . S
C732 C742 1.476 . S
H733 C727 0.929 . S
C734 O725 1.250 . S
C734 O726 1.258 1_554 S
O735 Mn720 2.162 . S
O735 C723 1.281 . S
O736 Mn720 2.297 . S
O736 C723 1.236 . S
N737 Mn721 2.282 . S
N737 C738 1.328 . S
N737 C742 1.318 . S
C738 N737 1.328 . S
C738 C739 1.457 . S
C738 H743 0.929 . S
C739 C738 1.457 . S
C739 C740 1.291 . S
C739 H752 0.931 . S
C740 C739 1.291 . S
C740 C741 1.373 . S
C740 H753 0.929 . S
C741 C740 1.373 . S
C741 C742 1.396 . S
C741 C748 1.403 . S
C742 C732 1.476 . S
C742 N737 1.318 . S
C742 C741 1.396 . S
H743 C738 0.929 . S
O744 Mn720 2.385 . S
O744 C722 1.234 . S
O745 Mn720 2.209 . S
O745 Mn721 2.215 1_554 S
O745 C722 1.283 . S
O746 Mn720 2.094 1_556 S
O746 C724 1.240 . S
O747 Mn721 2.117 . S
O747 C724 1.264 . S
C748 C741 1.403 . S
C748 C749 1.399 . S
C748 H754 0.929 . S
C749 C729 1.449 . S
C749 C748 1.399 . S
C749 H755 0.930 . S
H750 C730 0.931 . S
H751 C731 0.930 . S
H752 C739 0.931 . S
H753 C740 0.929 . S
H754 C748 0.929 . S
H755 C749 0.930 . S
Mn756 O761 2.095 . S
Mn756 O771 2.162 . S
Mn756 O772 2.297 . S
Mn756 O780 2.385 . S
Mn756 O781 2.209 . S
Mn756 O782 2.094 . S
Mn757 O762 2.121 . S
Mn757 N764 2.257 . S
Mn757 N773 2.282 . S
Mn757 O781 2.215 . S
Mn757 O783 2.117 . S
C758 O780 1.234 . S
C758 O781 1.283 . S
C759 O771 1.281 . S
C759 O772 1.236 . S
C760 O782 1.240 . S
C760 O783 1.264 . S
O761 Mn756 2.095 . S
O761 C770 1.250 . S
O762 Mn757 2.121 . S
O762 C770 1.258 . S
C763 N764 1.326 . S
C763 C767 1.460 . S
C763 H769 0.929 . S
N764 Mn757 2.257 . S
N764 C763 1.326 . S
N764 C768 1.362 . S
C765 C766 1.258 . S
C765 C768 1.431 . S
C765 C785 1.449 . S
C766 C765 1.258 . S
C766 C767 1.477 . S
C766 H786 0.931 . S
C767 C763 1.460 . S
C767 C766 1.477 . S
C767 H787 0.930 . S
C768 N764 1.362 . S
C768 C765 1.431 . S
C768 C778 1.476 . S
H769 C763 0.929 . S
C770 O761 1.250 . S
C770 O762 1.258 . S
O771 Mn756 2.162 . S
O771 C759 1.281 . S
O772 Mn756 2.297 . S
O772 C759 1.236 . S
N773 Mn757 2.282 . S
N773 C774 1.328 . S
N773 C778 1.318 . S
C774 N773 1.328 . S
C774 C775 1.457 . S
C774 H779 0.929 . S
C775 C774 1.457 . S
C775 C776 1.291 . S
C775 H788 0.931 . S
C776 C775 1.291 . S
C776 C777 1.373 . S
C776 H789 0.929 . S
C777 C776 1.373 . S
C777 C778 1.396 . S
C777 C784 1.403 . S
C778 C768 1.476 . S
C778 N773 1.318 . S
C778 C777 1.396 . S
H779 C774 0.929 . S
O780 Mn756 2.385 . S
O780 C758 1.234 . S
O781 Mn756 2.209 . S
O781 Mn757 2.215 . S
O781 C758 1.283 . S
O782 Mn756 2.094 . S
O782 C760 1.240 . S
O783 Mn757 2.117 . S
O783 C760 1.264 . S
C784 C777 1.403 . S
C784 C785 1.399 . S
C784 H790 0.929 . S
C785 C765 1.449 . S
C785 C784 1.399 . S
C785 H791 0.930 . S
H786 C766 0.931 . S
H787 C767 0.930 . S
H788 C775 0.931 . S
H789 C776 0.929 . S
H790 C784 0.929 . S
H791 C785 0.930 . S
Mn792 O797 2.095 . S
Mn792 O807 2.162 . S
Mn792 O808 2.297 . S
Mn792 O816 2.385 . S
Mn792 O817 2.209 . S
Mn792 O818 2.094 . S
Mn793 O798 2.121 . S
Mn793 N800 2.257 . S
Mn793 N809 2.282 . S
Mn793 O817 2.215 . S
Mn793 O819 2.117 . S
C794 O816 1.234 . S
C794 O817 1.283 . S
C795 O807 1.281 . S
C795 O808 1.236 . S
C796 O818 1.240 . S
C796 O819 1.264 . S
O797 Mn792 2.095 . S
O797 C806 1.250 . S
O798 Mn793 2.121 . S
O798 C806 1.258 . S
C799 N800 1.326 . S
C799 C803 1.460 . S
C799 H805 0.929 . S
N800 Mn793 2.257 . S
N800 C799 1.326 . S
N800 C804 1.362 . S
C801 C802 1.258 . S
C801 C804 1.431 . S
C801 C821 1.449 . S
C802 C801 1.258 . S
C802 C803 1.477 . S
C802 H822 0.931 . S
C803 C799 1.460 . S
C803 C802 1.477 . S
C803 H823 0.930 . S
C804 N800 1.362 . S
C804 C801 1.431 . S
C804 C814 1.476 . S
H805 C799 0.929 . S
C806 O797 1.250 . S
C806 O798 1.258 . S
O807 Mn792 2.162 . S
O807 C795 1.281 . S
O808 Mn792 2.297 . S
O808 C795 1.236 . S
N809 Mn793 2.282 . S
N809 C810 1.328 . S
N809 C814 1.318 . S
C810 N809 1.328 . S
C810 C811 1.457 . S
C810 H815 0.929 . S
C811 C810 1.457 . S
C811 C812 1.291 . S
C811 H824 0.931 . S
C812 C811 1.291 . S
C812 C813 1.373 . S
C812 H825 0.929 . S
C813 C812 1.373 . S
C813 C814 1.396 . S
C813 C820 1.403 . S
C814 C804 1.476 . S
C814 N809 1.318 . S
C814 C813 1.396 . S
H815 C810 0.929 . S
O816 Mn792 2.385 . S
O816 C794 1.234 . S
O817 Mn792 2.209 . S
O817 Mn793 2.215 . S
O817 C794 1.283 . S
O818 Mn792 2.094 . S
O818 C796 1.240 . S
O819 Mn793 2.117 . S
O819 C796 1.264 . S
C820 C813 1.403 . S
C820 C821 1.399 . S
C820 H826 0.929 . S
C821 C801 1.449 . S
C821 C820 1.399 . S
C821 H827 0.930 . S
H822 C802 0.931 . S
H823 C803 0.930 . S
H824 C811 0.931 . S
H825 C812 0.929 . S
H826 C820 0.929 . S
H827 C821 0.930 . S
Mn828 O833 2.095 . S
Mn828 O843 2.162 . S
Mn828 O844 2.297 . S
Mn828 O852 2.385 . S
Mn828 O853 2.209 . S
Mn828 O854 2.094 . S
Mn829 O834 2.121 . S
Mn829 N836 2.257 . S
Mn829 N845 2.282 . S
Mn829 O853 2.215 . S
Mn829 O855 2.117 . S
C830 O852 1.234 . S
C830 O853 1.283 . S
C831 O843 1.281 . S
C831 O844 1.236 . S
C832 O854 1.240 . S
C832 O855 1.264 . S
O833 Mn828 2.095 . S
O833 C842 1.250 . S
O834 Mn829 2.121 . S
O834 C842 1.258 . S
C835 N836 1.326 . S
C835 C839 1.460 . S
C835 H841 0.929 . S
N836 Mn829 2.257 . S
N836 C835 1.326 . S
N836 C840 1.362 . S
C837 C838 1.258 . S
C837 C840 1.431 . S
C837 C857 1.449 . S
C838 C837 1.258 . S
C838 C839 1.477 . S
C838 H858 0.931 . S
C839 C835 1.460 . S
C839 C838 1.477 . S
C839 H859 0.930 . S
C840 N836 1.362 . S
C840 C837 1.431 . S
C840 C850 1.476 . S
H841 C835 0.929 . S
C842 O833 1.250 . S
C842 O834 1.258 . S
O843 Mn828 2.162 . S
O843 C831 1.281 . S
O844 Mn828 2.297 . S
O844 C831 1.236 . S
N845 Mn829 2.282 . S
N845 C846 1.328 . S
N845 C850 1.318 . S
C846 N845 1.328 . S
C846 C847 1.457 . S
C846 H851 0.929 . S
C847 C846 1.457 . S
C847 C848 1.291 . S
C847 H860 0.931 . S
C848 C847 1.291 . S
C848 C849 1.373 . S
C848 H861 0.929 . S
C849 C848 1.373 . S
C849 C850 1.396 . S
C849 C856 1.403 . S
C850 C840 1.476 . S
C850 N845 1.318 . S
C850 C849 1.396 . S
H851 C846 0.929 . S
O852 Mn828 2.385 . S
O852 C830 1.234 . S
O853 Mn828 2.209 . S
O853 Mn829 2.215 . S
O853 C830 1.283 . S
O854 Mn828 2.094 . S
O854 C832 1.240 . S
O855 Mn829 2.117 . S
O855 C832 1.264 . S
C856 C849 1.403 . S
C856 C857 1.399 . S
C856 H862 0.929 . S
C857 C837 1.449 . S
C857 C856 1.399 . S
C857 H863 0.930 . S
H858 C838 0.931 . S
H859 C839 0.930 . S
H860 C847 0.931 . S
H861 C848 0.929 . S
H862 C856 0.929 . S
H863 C857 0.930 . S
C864 C866 1.422 1_556 S
C864 C868 1.415 . S
C864 N870 1.369 . S
C865 C866 1.421 . S
C865 C867 1.417 1_554 S
C865 C877 1.422 . S
C866 C864 1.422 1_554 S
C866 C865 1.421 . S
C866 N876 1.359 . S
C867 C865 1.417 1_556 S
C867 C869 1.329 . S
C867 H886 0.930 . S
C868 C864 1.415 . S
C868 C869 1.437 . S
C868 C872 1.413 . S
C869 C867 1.329 . S
C869 C868 1.437 . S
C869 H891 0.929 . S
N870 C864 1.369 . S
N870 C871 1.338 . S
N870 Gd875 2.622 1_566 S
C871 N870 1.338 . S
C871 C873 1.378 . S
C871 H883 0.929 . S
C872 C868 1.413 . S
C872 C873 1.348 . S
C872 H888 0.931 . S
C873 C871 1.378 . S
C873 C872 1.348 . S
C873 H889 0.930 . S
Gd874 N894 2.622 . S
Gd874 N901 2.570 . S
Gd874 O908 2.353 1_545 S
Gd874 O909 2.468 . S
Gd874 O910 2.427 . S
Gd874 O912 2.388 . S
Gd874 O913 2.386 . S
Gd874 O917 2.346 . S
Gd874 C927 2.805 . S
Gd875 N870 2.622 1_544 S
Gd875 N876 2.570 1_545 S
Gd875 O907 2.386 1_645 S
Gd875 O911 2.307 1_655 S
Gd875 O914 2.353 1_655 S
Gd875 O915 2.468 . S
Gd875 O916 2.427 1_554 S
Gd875 O918 2.388 1_654 S
Gd875 C939 2.803 1_554 S
N876 C866 1.359 . S
N876 Gd875 2.570 1_565 S
N876 C878 1.343 . S
C877 C865 1.422 . S
C877 C879 1.321 . S
C877 H885 0.931 . S
C878 N876 1.343 . S
C878 C879 1.390 . S
C878 H880 0.931 . S
C879 C877 1.321 . S
C879 C878 1.390 . S
C879 H881 0.930 . S
H880 C878 0.931 . S
H881 C879 0.930 . S
H882 C905 0.931 1_556 S
H883 C871 0.929 . S
H884 C906 0.930 . S
H885 C877 0.931 . S
H886 C867 0.930 . S
H887 C896 0.929 . S
H888 C872 0.931 . S
H889 C873 0.930 . S
H890 C928 0.930 . S
H891 C869 0.929 . S
H892 C897 0.931 . S
H893 C898 0.930 . S
N894 Gd874 2.622 . S
N894 C895 1.369 . S
N894 C896 1.338 . S
C895 N894 1.369 . S
C895 C899 1.415 . S
C895 C902 1.422 . S
C896 H887 0.929 . S
C896 N894 1.338 . S
C896 C898 1.378 . S
C897 H892 0.931 . S
C897 C898 1.348 . S
C897 C899 1.413 . S
C898 H893 0.930 . S
C898 C896 1.378 . S
C898 C897 1.348 . S
C899 C895 1.415 . S
C899 C897 1.413 . S
C899 C929 1.437 . S
H900 C929 0.929 . S
N901 Gd874 2.570 . S
N901 C902 1.359 . S
N901 C905 1.343 . S
C902 C895 1.422 . S
C902 N901 1.359 . S
C902 C904 1.421 . S
C903 C904 1.422 . S
C903 C906 1.321 1_554 S
C903 H930 0.931 . S
C904 C902 1.421 . S
C904 C903 1.422 . S
C904 C928 1.417 . S
C905 H882 0.931 1_554 S
C905 N901 1.343 . S
C905 C906 1.390 1_554 S
C906 H884 0.930 . S
C906 C903 1.321 1_556 S
C906 C905 1.390 1_556 S
O907 Gd875 2.386 1_465 S
O907 C919 1.265 . S
O908 Gd874 2.353 1_565 S
O908 C919 1.242 . S
O909 Gd874 2.468 . S
O909 C927 1.263 . S
O910 Gd874 2.427 . S
O910 C927 1.252 . S
O911 Gd875 2.307 1_455 S
O911 C920 1.261 . S
O912 Gd874 2.388 . S
O912 C920 1.252 . S
O913 Gd874 2.386 . S
O913 C931 1.265 . S
O914 Gd875 2.353 1_455 S
O914 C931 1.242 . S
O915 Gd875 2.468 . S
O915 C939 1.240 1_554 S
O916 Gd875 2.427 1_556 S
O916 C939 1.274 . S
O917 Gd874 2.346 . S
O917 C932 1.227 1_554 S
O918 Gd875 2.388 1_456 S
O918 C932 1.252 . S
C919 O907 1.265 . S
C919 O908 1.242 . S
C920 O911 1.261 . S
C920 O912 1.252 . S
C921 C924 1.394 . S
C921 C926 1.386 . S
C921 C927 1.500 . S
C922 C925 1.383 . S
C922 C926 1.374 1_565 S
C923 C924 1.396 . S
C923 C925 1.365 1_545 S
C923 H940 0.929 . S
C924 C921 1.394 . S
C924 C923 1.396 . S
C924 H941 0.930 . S
C925 C922 1.383 . S
C925 C923 1.365 1_565 S
C925 H942 0.931 . S
C926 C921 1.386 . S
C926 C922 1.374 1_545 S
C926 H943 0.935 . S
C927 Gd874 2.805 . S
C927 O909 1.263 . S
C927 O910 1.252 . S
C927 C921 1.500 . S
C928 H890 0.930 . S
C928 C904 1.417 . S
C928 C929 1.329 . S
C929 C899 1.437 . S
C929 H900 0.929 . S
C929 C928 1.329 . S
H930 C903 0.931 . S
C931 O913 1.265 . S
C931 O914 1.242 . S
C932 O917 1.227 1_556 S
C932 O918 1.252 . S
C933 C936 1.394 . S
C933 C938 1.370 1_556 S
C933 C939 1.503 . S
C934 C937 1.383 1_554 S
C934 C938 1.395 . S
C935 C936 1.396 . S
C935 C937 1.365 . S
C935 H944 0.929 . S
C936 C933 1.394 . S
C936 C935 1.396 . S
C936 H945 0.930 . S
C937 C934 1.383 1_556 S
C937 C935 1.365 . S
C937 H946 0.931 . S
C938 C933 1.370 1_554 S
C938 C934 1.395 . S
C938 H947 0.930 . S
C939 Gd875 2.803 1_556 S
C939 O915 1.240 1_556 S
C939 O916 1.274 . S
C939 C933 1.503 . S
H940 C923 0.929 . S
H941 C924 0.930 . S
H942 C925 0.931 . S
H943 C926 0.935 . S
H944 C935 0.929 . S
H945 C936 0.930 . S
H946 C937 0.931 . S
H947 C938 0.930 . S
C948 C950 1.422 . S
C948 C952 1.415 . S
C948 N954 1.369 . S
C949 C950 1.421 . S
C949 C951 1.417 . S
C949 C961 1.422 . S
C950 C948 1.422 . S
C950 C949 1.421 . S
C950 N960 1.359 . S
C951 C949 1.417 . S
C951 C953 1.329 . S
C951 H970 0.930 . S
C952 C948 1.415 . S
C952 C953 1.437 . S
C952 C956 1.413 . S
C953 C951 1.329 . S
C953 C952 1.437 . S
C953 H975 0.929 . S
N954 C948 1.369 . S
N954 C955 1.338 . S
N954 Gd959 2.622 . S
C955 N954 1.338 . S
C955 C957 1.378 . S
C955 H967 0.929 . S
C956 C952 1.413 . S
C956 C957 1.348 . S
C956 H972 0.931 . S
C957 C955 1.378 . S
C957 C956 1.348 . S
C957 H973 0.930 . S
Gd958 N978 2.622 . S
Gd958 N985 2.570 . S
Gd958 O992 2.353 . S
Gd958 O993 2.468 . S
Gd958 O994 2.427 . S
Gd958 O996 2.388 . S
Gd958 O997 2.386 . S
Gd958 O1001 2.307 . S
Gd958 C1011 2.805 . S
Gd959 N954 2.622 . S
Gd959 N960 2.570 . S
Gd959 O991 2.386 . S
Gd959 O995 2.307 . S
Gd959 O998 2.353 . S
Gd959 O999 2.468 . S
Gd959 O1000 2.427 . S
Gd959 O1002 2.388 . S
Gd959 C1023 2.805 . S
N960 C950 1.359 . S
N960 Gd959 2.570 . S
N960 C962 1.343 . S
C961 C949 1.422 . S
C961 C963 1.321 . S
C961 H969 0.931 . S
C962 N960 1.343 . S
C962 C963 1.390 . S
C962 H964 0.931 . S
C963 C961 1.321 . S
C963 C962 1.390 . S
C963 H965 0.930 . S
H964 C962 0.931 . S
H965 C963 0.930 . S
H966 C989 0.931 . S
H967 C955 0.929 . S
H968 C990 0.930 . S
H969 C961 0.931 . S
H970 C951 0.930 . S
H971 C980 0.929 . S
H972 C956 0.931 . S
H973 C957 0.930 . S
H974 C1012 0.930 . S
H975 C953 0.929 . S
H976 C981 0.931 . S
H977 C982 0.930 . S
N978 Gd958 2.622 . S
N978 C979 1.369 . S
N978 C980 1.338 . S
C979 N978 1.369 . S
C979 C983 1.415 . S
C979 C986 1.422 . S
C980 H971 0.929 . S
C980 N978 1.338 . S
C980 C982 1.378 . S
C981 H976 0.931 . S
C981 C982 1.348 . S
C981 C983 1.413 . S
C982 H977 0.930 . S
C982 C980 1.378 . S
C982 C981 1.348 . S
C983 C979 1.415 . S
C983 C981 1.413 . S
C983 C1013 1.437 . S
H984 C1013 0.929 . S
N985 Gd958 2.570 . S
N985 C986 1.359 . S
N985 C989 1.343 . S
C986 C979 1.422 . S
C986 N985 1.359 . S
C986 C988 1.421 . S
C987 C988 1.422 . S
C987 C990 1.321 . S
C987 H1014 0.931 . S
C988 C986 1.421 . S
C988 C987 1.422 . S
C988 C1012 1.417 . S
C989 H966 0.931 . S
C989 N985 1.343 . S
C989 C990 1.390 . S
C990 H968 0.930 . S
C990 C987 1.321 . S
C990 C989 1.390 . S
O991 Gd959 2.386 . S
O991 C1003 1.265 . S
O992 Gd958 2.353 . S
O992 C1003 1.242 . S
O993 Gd958 2.468 . S
O993 C1011 1.263 . S
O994 Gd958 2.427 . S
O994 C1011 1.252 . S
O995 Gd959 2.307 . S
O995 C1004 1.261 . S
O996 Gd958 2.388 . S
O996 C1004 1.252 . S
O997 Gd958 2.386 . S
O997 C1015 1.265 . S
O998 Gd959 2.353 . S
O998 C1015 1.242 . S
O999 Gd959 2.468 . S
O999 C1023 1.263 . S
O1000 Gd959 2.427 . S
O1000 C1023 1.252 . S
O1001 Gd958 2.307 . S
O1001 C1016 1.261 . S
O1002 Gd959 2.388 . S
O1002 C1016 1.252 . S
C1003 O991 1.265 . S
C1003 O992 1.242 . S
C1004 O995 1.261 . S
C1004 O996 1.252 . S
C1005 C1008 1.394 . S
C1005 C1010 1.370 . S
C1005 C1011 1.500 . S
C1006 C1009 1.383 . S
C1006 C1010 1.395 . S
C1007 C1008 1.396 . S
C1007 C1009 1.365 . S
C1007 H1024 0.929 . S
C1008 C1005 1.394 . S
C1008 C1007 1.396 . S
C1008 H1025 0.930 . S
C1009 C1006 1.383 . S
C1009 C1007 1.365 . S
C1009 H1026 0.931 . S
C1010 C1005 1.370 . S
C1010 C1006 1.395 . S
C1010 H1027 0.930 . S
C1011 Gd958 2.805 . S
C1011 O993 1.263 . S
C1011 O994 1.252 . S
C1011 C1005 1.500 . S
C1012 H974 0.930 . S
C1012 C988 1.417 . S
C1012 C1013 1.329 . S
C1013 C983 1.437 . S
C1013 H984 0.929 . S
C1013 C1012 1.329 . S
H1014 C987 0.931 . S
C1015 O997 1.265 . S
C1015 O998 1.242 . S
C1016 O1001 1.261 . S
C1016 O1002 1.252 . S
C1017 C1020 1.394 . S
C1017 C1022 1.370 . S
C1017 C1023 1.500 . S
C1018 C1021 1.383 . S
C1018 C1022 1.395 . S
C1019 C1020 1.396 . S
C1019 C1021 1.365 . S
C1019 H1028 0.929 . S
C1020 C1017 1.394 . S
C1020 C1019 1.396 . S
C1020 H1029 0.930 . S
C1021 C1018 1.383 . S
C1021 C1019 1.365 . S
C1021 H1030 0.931 . S
C1022 C1017 1.370 . S
C1022 C1018 1.395 . S
C1022 H1031 0.930 . S
C1023 Gd959 2.805 . S
C1023 O999 1.263 . S
C1023 O1000 1.252 . S
C1023 C1017 1.500 . S
H1024 C1007 0.929 . S
H1025 C1008 0.930 . S
H1026 C1009 0.931 . S
H1027 C1010 0.930 . S
H1028 C1019 0.929 . S
H1029 C1020 0.930 . S
H1030 C1021 0.931 . S
H1031 C1022 0.930 . S
C1032 C1034 1.422 . S
C1032 C1036 1.415 . S
C1032 N1038 1.369 . S
C1033 C1034 1.421 . S
C1033 C1035 1.417 . S
C1033 C1045 1.422 . S
C1034 C1032 1.422 . S
C1034 C1033 1.421 . S
C1034 N1044 1.359 . S
C1035 C1033 1.417 . S
C1035 C1037 1.329 . S
C1035 H1054 0.930 . S
C1036 C1032 1.415 . S
C1036 C1037 1.437 . S
C1036 C1040 1.413 . S
C1037 C1035 1.329 . S
C1037 C1036 1.437 . S
C1037 H1059 0.929 . S
N1038 C1032 1.369 . S
N1038 C1039 1.338 . S
N1038 Gd1043 2.622 . S
C1039 N1038 1.338 . S
C1039 C1041 1.378 . S
C1039 H1051 0.929 . S
C1040 C1036 1.413 . S
C1040 C1041 1.348 . S
C1040 H1056 0.931 . S
C1041 C1039 1.378 . S
C1041 C1040 1.348 . S
C1041 H1057 0.930 . S
Gd1042 N1062 2.622 . S
Gd1042 N1069 2.570 1_545 S
Gd1042 O1076 2.353 . S
Gd1042 O1077 2.468 . S
Gd1042 O1078 2.427 . S
Gd1042 O1080 2.388 . S
Gd1042 O1081 2.386 1_545 S
Gd1042 O1085 2.307 . S
Gd1042 C1095 2.805 . S
Gd1043 N1038 2.622 . S
Gd1043 N1044 2.570 . S
Gd1043 O1075 2.386 . S
Gd1043 O1079 2.307 . S
Gd1043 O1082 2.353 . S
Gd1043 O1083 2.468 . S
Gd1043 O1084 2.427 . S
Gd1043 O1086 2.388 . S
Gd1043 C1107 2.805 . S
N1044 C1034 1.359 . S
N1044 Gd1043 2.570 . S
N1044 C1046 1.343 . S
C1045 C1033 1.422 . S
C1045 C1047 1.321 . S
C1045 H1053 0.931 . S
C1046 N1044 1.343 . S
C1046 C1047 1.390 . S
C1046 H1048 0.931 . S
C1047 C1045 1.321 . S
C1047 C1046 1.390 . S
C1047 H1049 0.930 . S
H1048 C1046 0.931 . S
H1049 C1047 0.930 . S
H1050 C1073 0.931 1_545 S
H1051 C1039 0.929 . S
H1052 C1074 0.930 . S
H1053 C1045 0.931 . S
H1054 C1035 0.930 . S
H1055 C1064 0.929 . S
H1056 C1040 0.931 . S
H1057 C1041 0.930 . S
H1058 C1096 0.930 . S
H1059 C1037 0.929 . S
H1060 C1065 0.931 . S
H1061 C1066 0.930 . S
N1062 Gd1042 2.622 . S
N1062 C1063 1.369 1_545 S
N1062 C1064 1.338 . S
C1063 N1062 1.369 1_565 S
C1063 C1067 1.415 . S
C1063 C1070 1.422 . S
C1064 H1055 0.929 . S
C1064 N1062 1.338 . S
C1064 C1066 1.378 1_545 S
C1065 H1060 0.931 . S
C1065 C1066 1.348 . S
C1065 C1067 1.413 . S
C1066 H1061 0.930 . S
C1066 C1064 1.378 1_565 S
C1066 C1065 1.348 . S
C1067 C1063 1.415 . S
C1067 C1065 1.413 . S
C1067 C1097 1.437 . S
H1068 C1097 0.929 . S
N1069 Gd1042 2.570 1_565 S
N1069 C1070 1.359 . S
N1069 C1073 1.343 . S
C1070 C1063 1.422 . S
C1070 N1069 1.359 . S
C1070 C1072 1.421 . S
C1071 C1072 1.422 . S
C1071 C1074 1.321 . S
C1071 H1098 0.931 . S
C1072 C1070 1.421 . S
C1072 C1071 1.422 . S
C1072 C1096 1.417 . S
C1073 H1050 0.931 1_565 S
C1073 N1069 1.343 . S
C1073 C1074 1.390 . S
C1074 H1052 0.930 . S
C1074 C1071 1.321 . S
C1074 C1073 1.390 . S
O1075 Gd1043 2.386 . S
O1075 C1087 1.265 . S
O1076 Gd1042 2.353 . S
O1076 C1087 1.242 . S
O1077 Gd1042 2.468 . S
O1077 C1095 1.263 . S
O1078 Gd1042 2.427 . S
O1078 C1095 1.252 . S
O1079 Gd1043 2.307 . S
O1079 C1088 1.261 . S
O1080 Gd1042 2.388 . S
O1080 C1088 1.252 . S
O1081 Gd1042 2.386 1_565 S
O1081 C1099 1.265 . S
O1082 Gd1043 2.353 . S
O1082 C1099 1.242 1_545 S
O1083 Gd1043 2.468 . S
O1083 C1107 1.263 . S
O1084 Gd1043 2.427 . S
O1084 C1107 1.252 . S
O1085 Gd1042 2.307 . S
O1085 C1100 1.261 . S
O1086 Gd1043 2.388 . S
O1086 C1100 1.252 . S
C1087 O1075 1.265 . S
C1087 O1076 1.242 . S
C1088 O1079 1.261 . S
C1088 O1080 1.252 . S
C1089 C1092 1.394 . S
C1089 C1094 1.370 . S
C1089 C1095 1.500 . S
C1090 C1093 1.383 . S
C1090 C1094 1.395 . S
C1091 C1092 1.396 . S
C1091 C1093 1.365 . S
C1091 H1108 0.929 . S
C1092 C1089 1.394 . S
C1092 C1091 1.396 . S
C1092 H1109 0.930 . S
C1093 C1090 1.383 . S
C1093 C1091 1.365 . S
C1093 H1110 0.931 . S
C1094 C1089 1.370 . S
C1094 C1090 1.395 . S
C1094 H1111 0.930 . S
C1095 Gd1042 2.805 . S
C1095 O1077 1.263 . S
C1095 O1078 1.252 . S
C1095 C1089 1.500 . S
C1096 H1058 0.930 . S
C1096 C1072 1.417 . S
C1096 C1097 1.329 . S
C1097 C1067 1.437 . S
C1097 H1068 0.929 . S
C1097 C1096 1.329 . S
H1098 C1071 0.931 . S
C1099 O1081 1.265 . S
C1099 O1082 1.242 1_565 S
C1100 O1085 1.261 . S
C1100 O1086 1.252 . S
C1101 C1104 1.394 1_545 S
C1101 C1106 1.370 1_545 S
C1101 C1107 1.500 . S
C1102 C1105 1.383 . S
C1102 C1106 1.395 . S
C1103 C1104 1.396 . S
C1103 C1105 1.365 . S
C1103 H1112 0.929 . S
C1104 C1101 1.394 1_565 S
C1104 C1103 1.396 . S
C1104 H1113 0.930 1_565 S
C1105 C1102 1.383 . S
C1105 C1103 1.365 . S
C1105 H1114 0.931 . S
C1106 C1101 1.370 1_565 S
C1106 C1102 1.395 . S
C1106 H1115 0.935 . S
C1107 Gd1043 2.805 . S
C1107 O1083 1.263 . S
C1107 O1084 1.252 . S
C1107 C1101 1.500 . S
H1108 C1091 0.929 . S
H1109 C1092 0.930 . S
H1110 C1093 0.931 . S
H1111 C1094 0.930 . S
H1112 C1103 0.929 . S
H1113 C1104 0.930 1_545 S
H1114 C1105 0.931 . S
H1115 C1106 0.935 . S
C1116 C1118 1.422 . S
C1116 C1120 1.415 . S
C1116 N1122 1.369 . S
C1117 C1118 1.421 . S
C1117 C1119 1.417 . S
C1117 C1129 1.422 . S
C1118 C1116 1.422 . S
C1118 C1117 1.421 . S
C1118 N1128 1.359 . S
C1119 C1117 1.417 . S
C1119 C1121 1.329 . S
C1119 H1138 0.930 . S
C1120 C1116 1.415 . S
C1120 C1121 1.437 . S
C1120 C1124 1.413 . S
C1121 C1119 1.329 . S
C1121 C1120 1.437 . S
C1121 H1143 0.929 . S
N1122 C1116 1.369 . S
N1122 C1123 1.338 . S
N1122 Gd1127 2.622 . S
C1123 N1122 1.338 . S
C1123 C1125 1.378 . S
C1123 H1135 0.929 . S
C1124 C1120 1.413 . S
C1124 C1125 1.348 . S
C1124 H1140 0.931 . S
C1125 C1123 1.378 . S
C1125 C1124 1.348 . S
C1125 H1141 0.930 . S
Gd1126 N1146 2.622 . S
Gd1126 N1153 2.570 . S
Gd1126 O1160 2.353 . S
Gd1126 O1161 2.468 . S
Gd1126 O1162 2.427 . S
Gd1126 O1164 2.388 . S
Gd1126 O1165 2.386 . S
Gd1126 O1169 2.307 . S
Gd1126 C1179 2.805 . S
Gd1127 N1122 2.622 . S
Gd1127 N1128 2.570 . S
Gd1127 O1159 2.386 . S
Gd1127 O1163 2.307 . S
Gd1127 O1166 2.353 . S
Gd1127 O1167 2.468 . S
Gd1127 O1168 2.427 . S
Gd1127 O1170 2.388 . S
Gd1127 C1191 2.805 . S
N1128 C1118 1.359 . S
N1128 Gd1127 2.570 . S
N1128 C1130 1.343 . S
C1129 C1117 1.422 . S
C1129 C1131 1.321 . S
C1129 H1137 0.931 . S
C1130 N1128 1.343 . S
C1130 C1131 1.390 . S
C1130 H1132 0.931 . S
C1131 C1129 1.321 . S
C1131 C1130 1.390 . S
C1131 H1133 0.930 . S
H1132 C1130 0.931 . S
H1133 C1131 0.930 . S
H1134 C1157 0.931 . S
H1135 C1123 0.929 . S
H1136 C1158 0.930 . S
H1137 C1129 0.931 . S
H1138 C1119 0.930 . S
H1139 C1148 0.929 . S
H1140 C1124 0.931 . S
H1141 C1125 0.930 . S
H1142 C1180 0.930 . S
H1143 C1121 0.929 . S
H1144 C1149 0.931 . S
H1145 C1150 0.930 . S
N1146 Gd1126 2.622 . S
N1146 C1147 1.369 . S
N1146 C1148 1.338 . S
C1147 N1146 1.369 . S
C1147 C1151 1.415 . S
C1147 C1154 1.422 . S
C1148 H1139 0.929 . S
C1148 N1146 1.338 . S
C1148 C1150 1.378 . S
C1149 H1144 0.931 . S
C1149 C1150 1.348 . S
C1149 C1151 1.413 . S
C1150 H1145 0.930 . S
C1150 C1148 1.378 . S
C1150 C1149 1.348 . S
C1151 C1147 1.415 . S
C1151 C1149 1.413 . S
C1151 C1181 1.437 . S
H1152 C1181 0.929 . S
N1153 Gd1126 2.570 . S
N1153 C1154 1.359 . S
N1153 C1157 1.343 . S
C1154 C1147 1.422 . S
C1154 N1153 1.359 . S
C1154 C1156 1.421 . S
C1155 C1156 1.422 . S
C1155 C1158 1.321 . S
C1155 H1182 0.931 . S
C1156 C1154 1.421 . S
C1156 C1155 1.422 . S
C1156 C1180 1.417 . S
C1157 H1134 0.931 . S
C1157 N1153 1.343 . S
C1157 C1158 1.390 . S
C1158 H1136 0.930 . S
C1158 C1155 1.321 . S
C1158 C1157 1.390 . S
O1159 Gd1127 2.386 . S
O1159 C1171 1.265 . S
O1160 Gd1126 2.353 . S
O1160 C1171 1.242 . S
O1161 Gd1126 2.468 . S
O1161 C1179 1.263 . S
O1162 Gd1126 2.427 . S
O1162 C1179 1.252 . S
O1163 Gd1127 2.307 . S
O1163 C1172 1.261 . S
O1164 Gd1126 2.388 . S
O1164 C1172 1.252 . S
O1165 Gd1126 2.386 . S
O1165 C1183 1.265 . S
O1166 Gd1127 2.353 . S
O1166 C1183 1.242 . S
O1167 Gd1127 2.468 . S
O1167 C1191 1.263 . S
O1168 Gd1127 2.427 . S
O1168 C1191 1.252 . S
O1169 Gd1126 2.307 . S
O1169 C1184 1.261 . S
O1170 Gd1127 2.388 . S
O1170 C1184 1.252 . S
C1171 O1159 1.265 . S
C1171 O1160 1.242 . S
C1172 O1163 1.261 . S
C1172 O1164 1.252 . S
C1173 C1176 1.394 . S
C1173 C1178 1.370 . S
C1173 C1179 1.500 . S
C1174 C1177 1.383 . S
C1174 C1178 1.395 . S
C1175 C1176 1.396 . S
C1175 C1177 1.365 . S
C1175 H1192 0.929 . S
C1176 C1173 1.394 . S
C1176 C1175 1.396 . S
C1176 H1193 0.930 . S
C1177 C1174 1.383 . S
C1177 C1175 1.365 . S
C1177 H1194 0.931 . S
C1178 C1173 1.370 . S
C1178 C1174 1.395 . S
C1178 H1195 0.930 . S
C1179 Gd1126 2.805 . S
C1179 O1161 1.263 . S
C1179 O1162 1.252 . S
C1179 C1173 1.500 . S
C1180 H1142 0.930 . S
C1180 C1156 1.417 . S
C1180 C1181 1.329 . S
C1181 C1151 1.437 . S
C1181 H1152 0.929 . S
C1181 C1180 1.329 . S
H1182 C1155 0.931 . S
C1183 O1165 1.265 . S
C1183 O1166 1.242 . S
C1184 O1169 1.261 . S
C1184 O1170 1.252 . S
C1185 C1188 1.394 . S
C1185 C1190 1.370 . S
C1185 C1191 1.500 . S
C1186 C1189 1.383 . S
C1186 C1190 1.395 . S
C1187 C1188 1.396 . S
C1187 C1189 1.365 . S
C1187 H1196 0.929 . S
C1188 C1185 1.394 . S
C1188 C1187 1.396 . S
C1188 H1197 0.930 . S
C1189 C1186 1.383 . S
C1189 C1187 1.365 . S
C1189 H1198 0.931 . S
C1190 C1185 1.370 . S
C1190 C1186 1.395 . S
C1190 H1199 0.930 . S
C1191 Gd1127 2.805 . S
C1191 O1167 1.263 . S
C1191 O1168 1.252 . S
C1191 C1185 1.500 . S
H1192 C1175 0.929 . S
H1193 C1176 0.930 . S
H1194 C1177 0.931 . S
H1195 C1178 0.930 . S
H1196 C1187 0.929 . S
H1197 C1188 0.930 . S
H1198 C1189 0.931 . S
H1199 C1190 0.930 . S
C1200 C1202 1.422 . S
C1200 C1204 1.415 1_455 S
C1200 N1206 1.369 1_455 S
C1201 C1202 1.421 . S
C1201 C1203 1.417 . S
C1201 C1213 1.422 . S
C1202 C1200 1.422 . S
C1202 C1201 1.421 . S
C1202 N1212 1.359 . S
C1203 C1201 1.417 . S
C1203 C1205 1.385 . S
C1203 H1222 0.930 . S
C1204 C1200 1.415 1_655 S
C1204 C1205 1.421 1_655 S
C1204 C1208 1.413 . S
C1205 C1203 1.385 . S
C1205 C1204 1.421 1_455 S
C1205 H1227 0.892 1_455 S
N1206 C1200 1.369 1_655 S
N1206 C1207 1.338 . S
N1206 Gd1211 2.622 1_655 S
C1207 N1206 1.338 . S
C1207 C1209 1.378 . S
C1207 H1219 0.929 . S
C1208 C1204 1.413 . S
C1208 C1209 1.348 . S
C1208 H1224 0.931 . S
C1209 C1207 1.378 . S
C1209 C1208 1.348 . S
C1209 H1225 0.930 . S
Gd1210 N1230 2.639 . S
Gd1210 N1237 2.600 . S
Gd1210 O1244 2.338 1_565 S
Gd1210 O1245 2.507 . S
Gd1210 O1246 2.463 . S
Gd1210 O1248 2.358 1_565 S
Gd1210 O1249 2.360 1_565 S
Gd1210 O1253 2.293 1_565 S
Gd1210 C1263 2.847 . S
Gd1211 N1206 2.622 1_455 S
Gd1211 N1212 2.570 . S
Gd1211 O1243 2.386 . S
Gd1211 O1247 2.307 . S
Gd1211 O1250 2.353 . S
Gd1211 O1251 2.468 . S
Gd1211 O1252 2.427 1_455 S
Gd1211 O1254 2.388 1_455 S
Gd1211 C1275 2.805 . S
N1212 C1202 1.359 . S
N1212 Gd1211 2.570 . S
N1212 C1214 1.343 . S
C1213 C1201 1.422 . S
C1213 C1215 1.321 . S
C1213 H1221 0.931 . S
C1214 N1212 1.343 . S
C1214 C1215 1.390 . S
C1214 H1216 0.931 . S
C1215 C1213 1.321 . S
C1215 C1214 1.390 . S
C1215 H1217 0.930 . S
H1216 C1214 0.931 . S
H1217 C1215 0.930 . S
H1218 C1241 0.931 . S
H1219 C1207 0.929 . S
H1220 C1242 0.930 . S
H1221 C1213 0.931 . S
H1222 C1203 0.930 . S
H1223 C1232 0.929 1_545 S
H1224 C1208 0.931 . S
H1225 C1209 0.930 . S
H1226 C1264 0.930 . S
H1227 C1205 0.892 1_655 S
H1228 C1233 0.931 . S
H1229 C1234 0.930 . S
N1230 Gd1210 2.639 . S
N1230 C1231 1.369 . S
N1230 C1232 1.338 . S
C1231 N1230 1.369 . S
C1231 C1235 1.415 . S
C1231 C1238 1.422 . S
C1232 H1223 0.929 1_565 S
C1232 N1230 1.338 . S
C1232 C1234 1.378 . S
C1233 H1228 0.931 . S
C1233 C1234 1.348 . S
C1233 C1235 1.413 . S
C1234 H1229 0.930 . S
C1234 C1232 1.378 . S
C1234 C1233 1.348 . S
C1235 C1231 1.415 . S
C1235 C1233 1.413 . S
C1235 C1265 1.437 . S
H1236 C1265 0.929 . S
N1237 Gd1210 2.600 . S
N1237 C1238 1.359 . S
N1237 C1241 1.343 1_455 S
C1238 C1231 1.422 . S
C1238 N1237 1.359 . S
C1238 C1240 1.421 . S
C1239 C1240 1.422 1_655 S
C1239 C1242 1.321 . S
C1239 H1266 0.931 . S
C1240 C1238 1.421 . S
C1240 C1239 1.422 1_455 S
C1240 C1264 1.417 . S
C1241 H1218 0.931 . S
C1241 N1237 1.343 1_655 S
C1241 C1242 1.390 . S
C1242 H1220 0.930 . S
C1242 C1239 1.321 . S
C1242 C1241 1.390 . S
O1243 Gd1211 2.386 . S
O1243 C1255 1.265 . S
O1244 Gd1210 2.338 1_545 S
O1244 C1255 1.242 . S
O1245 Gd1210 2.507 . S
O1245 C1263 1.263 . S
O1246 Gd1210 2.463 . S
O1246 C1263 1.252 . S
O1247 Gd1211 2.307 . S
O1247 C1256 1.261 . S
O1248 Gd1210 2.358 1_545 S
O1248 C1256 1.252 . S
O1249 Gd1210 2.360 1_545 S
O1249 C1267 1.265 . S
O1250 Gd1211 2.353 . S
O1250 C1267 1.242 . S
O1251 Gd1211 2.468 . S
O1251 C1275 1.263 . S
O1252 Gd1211 2.427 1_655 S
O1252 C1275 1.252 1_655 S
O1253 Gd1210 2.293 1_545 S
O1253 C1268 1.261 1_455 S
O1254 Gd1211 2.388 1_655 S
O1254 C1268 1.252 . S
C1255 O1243 1.265 . S
C1255 O1244 1.242 . S
C1256 O1247 1.261 . S
C1256 O1248 1.252 . S
C1257 C1260 1.394 . S
C1257 C1262 1.370 . S
C1257 C1263 1.500 . S
C1258 C1261 1.383 . S
C1258 C1262 1.395 . S
C1259 C1260 1.396 . S
C1259 C1261 1.365 . S
C1259 H1276 0.929 . S
C1260 C1257 1.394 . S
C1260 C1259 1.396 . S
C1260 H1277 0.930 . S
C1261 C1258 1.383 . S
C1261 C1259 1.365 . S
C1261 H1278 0.931 . S
C1262 C1257 1.370 . S
C1262 C1258 1.395 . S
C1262 H1279 0.930 . S
C1263 Gd1210 2.847 . S
C1263 O1245 1.263 . S
C1263 O1246 1.252 . S
C1263 C1257 1.500 . S
C1264 H1226 0.930 . S
C1264 C1240 1.417 . S
C1264 C1265 1.329 . S
C1265 C1235 1.437 . S
C1265 H1236 0.929 . S
C1265 C1264 1.329 . S
H1266 C1239 0.931 . S
C1267 O1249 1.265 . S
C1267 O1250 1.242 . S
C1268 O1253 1.261 1_655 S
C1268 O1254 1.252 . S
C1269 C1272 1.394 1_455 S
C1269 C1274 1.370 . S
C1269 C1275 1.500 . S
C1270 C1273 1.383 1_455 S
C1270 C1274 1.395 . S
C1271 C1272 1.396 . S
C1271 C1273 1.365 . S
C1271 H1280 0.929 . S
C1272 C1269 1.394 1_655 S
C1272 C1271 1.396 . S
C1272 H1281 0.930 . S
C1273 C1270 1.383 1_655 S
C1273 C1271 1.365 . S
C1273 H1282 0.931 . S
C1274 C1269 1.370 . S
C1274 C1270 1.395 . S
C1274 H1283 0.930 . S
C1275 Gd1211 2.805 . S
C1275 O1251 1.263 . S
C1275 O1252 1.252 1_455 S
C1275 C1269 1.500 . S
H1276 C1259 0.929 . S
H1277 C1260 0.930 . S
H1278 C1261 0.931 . S
H1279 C1262 0.930 . S
H1280 C1271 0.929 . S
H1281 C1272 0.930 . S
H1282 C1273 0.931 . S
H1283 C1274 0.930 . S
C1284 C1286 1.422 . S
C1284 C1288 1.415 . S
C1284 N1290 1.369 . S
C1285 C1286 1.421 . S
C1285 C1287 1.417 . S
C1285 C1297 1.422 . S
C1286 C1284 1.422 . S
C1286 C1285 1.421 . S
C1286 N1296 1.359 . S
C1287 C1285 1.417 . S
C1287 C1289 1.329 . S
C1287 H1306 0.930 . S
C1288 C1284 1.415 . S
C1288 C1289 1.437 . S
C1288 C1292 1.413 . S
C1289 C1287 1.329 . S
C1289 C1288 1.437 . S
C1289 H1311 0.929 . S
N1290 C1284 1.369 . S
N1290 C1291 1.338 . S
N1290 Gd1295 2.622 . S
C1291 N1290 1.338 . S
C1291 C1293 1.378 . S
C1291 H1303 0.929 . S
C1292 C1288 1.413 . S
C1292 C1293 1.348 . S
C1292 H1308 0.931 . S
C1293 C1291 1.378 . S
C1293 C1292 1.348 . S
C1293 H1309 0.930 . S
Gd1294 N1314 2.622 . S
Gd1294 N1321 2.570 . S
Gd1294 O1328 2.353 . S
Gd1294 O1329 2.468 . S
Gd1294 O1330 2.427 . S
Gd1294 O1332 2.388 . S
Gd1294 O1333 2.386 . S
Gd1294 O1337 2.307 . S
Gd1294 C1347 2.805 . S
Gd1295 N1290 2.622 . S
Gd1295 N1296 2.570 . S
Gd1295 O1327 2.386 . S
Gd1295 O1331 2.307 . S
Gd1295 O1334 2.353 . S
Gd1295 O1335 2.468 . S
Gd1295 O1336 2.427 . S
Gd1295 O1338 2.388 . S
Gd1295 C1359 2.805 . S
N1296 C1286 1.359 . S
N1296 Gd1295 2.570 . S
N1296 C1298 1.343 . S
C1297 C1285 1.422 . S
C1297 C1299 1.321 . S
C1297 H1305 0.931 . S
C1298 N1296 1.343 . S
C1298 C1299 1.390 . S
C1298 H1300 0.931 . S
C1299 C1297 1.321 . S
C1299 C1298 1.390 . S
C1299 H1301 0.930 . S
H1300 C1298 0.931 . S
H1301 C1299 0.930 . S
H1302 C1325 0.931 . S
H1303 C1291 0.929 . S
H1304 C1326 0.930 . S
H1305 C1297 0.931 . S
H1306 C1287 0.930 . S
H1307 C1316 0.929 . S
H1308 C1292 0.931 . S
H1309 C1293 0.930 . S
H1310 C1348 0.930 . S
H1311 C1289 0.929 . S
H1312 C1317 0.931 . S
H1313 C1318 0.930 . S
N1314 Gd1294 2.622 . S
N1314 C1315 1.369 . S
N1314 C1316 1.338 . S
C1315 N1314 1.369 . S
C1315 C1319 1.415 . S
C1315 C1322 1.422 . S
C1316 H1307 0.929 . S
C1316 N1314 1.338 . S
C1316 C1318 1.378 . S
C1317 H1312 0.931 . S
C1317 C1318 1.348 . S
C1317 C1319 1.413 . S
C1318 H1313 0.930 . S
C1318 C1316 1.378 . S
C1318 C1317 1.348 . S
C1319 C1315 1.415 . S
C1319 C1317 1.413 . S
C1319 C1349 1.437 . S
H1320 C1349 0.929 . S
N1321 Gd1294 2.570 . S
N1321 C1322 1.359 . S
N1321 C1325 1.343 . S
C1322 C1315 1.422 . S
C1322 N1321 1.359 . S
C1322 C1324 1.421 . S
C1323 C1324 1.422 . S
C1323 C1326 1.321 . S
C1323 H1350 0.931 . S
C1324 C1322 1.421 . S
C1324 C1323 1.422 . S
C1324 C1348 1.417 . S
C1325 H1302 0.931 . S
C1325 N1321 1.343 . S
C1325 C1326 1.390 . S
C1326 H1304 0.930 . S
C1326 C1323 1.321 . S
C1326 C1325 1.390 . S
O1327 Gd1295 2.386 . S
O1327 C1339 1.265 . S
O1328 Gd1294 2.353 . S
O1328 C1339 1.242 . S
O1329 Gd1294 2.468 . S
O1329 C1347 1.263 . S
O1330 Gd1294 2.427 . S
O1330 C1347 1.252 . S
O1331 Gd1295 2.307 . S
O1331 C1340 1.261 . S
O1332 Gd1294 2.388 . S
O1332 C1340 1.252 . S
O1333 Gd1294 2.386 . S
O1333 C1351 1.265 . S
O1334 Gd1295 2.353 . S
O1334 C1351 1.242 . S
O1335 Gd1295 2.468 . S
O1335 C1359 1.263 . S
O1336 Gd1295 2.427 . S
O1336 C1359 1.252 . S
O1337 Gd1294 2.307 . S
O1337 C1352 1.261 . S
O1338 Gd1295 2.388 . S
O1338 C1352 1.252 . S
C1339 O1327 1.265 . S
C1339 O1328 1.242 . S
C1340 O1331 1.261 . S
C1340 O1332 1.252 . S
C1341 C1344 1.394 . S
C1341 C1346 1.370 . S
C1341 C1347 1.500 . S
C1342 C1345 1.383 . S
C1342 C1346 1.395 . S
C1343 C1344 1.396 . S
C1343 C1345 1.365 . S
C1343 H1360 0.929 . S
C1344 C1341 1.394 . S
C1344 C1343 1.396 . S
C1344 H1361 0.930 . S
C1345 C1342 1.383 . S
C1345 C1343 1.365 . S
C1345 H1362 0.931 . S
C1346 C1341 1.370 . S
C1346 C1342 1.395 . S
C1346 H1363 0.930 . S
C1347 Gd1294 2.805 . S
C1347 O1329 1.263 . S
C1347 O1330 1.252 . S
C1347 C1341 1.500 . S
C1348 H1310 0.930 . S
C1348 C1324 1.417 . S
C1348 C1349 1.329 . S
C1349 C1319 1.437 . S
C1349 H1320 0.929 . S
C1349 C1348 1.329 . S
H1350 C1323 0.931 . S
C1351 O1333 1.265 . S
C1351 O1334 1.242 . S
C1352 O1337 1.261 . S
C1352 O1338 1.252 . S
C1353 C1356 1.394 . S
C1353 C1358 1.370 . S
C1353 C1359 1.500 . S
C1354 C1357 1.383 . S
C1354 C1358 1.395 . S
C1355 C1356 1.396 . S
C1355 C1357 1.365 . S
C1355 H1364 0.929 . S
C1356 C1353 1.394 . S
C1356 C1355 1.396 . S
C1356 H1365 0.930 . S
C1357 C1354 1.383 . S
C1357 C1355 1.365 . S
C1357 H1366 0.931 . S
C1358 C1353 1.370 . S
C1358 C1354 1.395 . S
C1358 H1367 0.930 . S
C1359 Gd1295 2.805 . S
C1359 O1335 1.263 . S
C1359 O1336 1.252 . S
C1359 C1353 1.500 . S
H1360 C1343 0.929 . S
H1361 C1344 0.930 . S
H1362 C1345 0.931 . S
H1363 C1346 0.930 . S
H1364 C1355 0.929 . S
H1365 C1356 0.930 . S
H1366 C1357 0.931 . S
H1367 C1358 0.930 . S
C1368 C1370 1.422 . S
C1368 C1372 1.415 1_545 S
C1368 N1374 1.369 1_545 S
C1369 C1370 1.421 . S
C1369 C1371 1.417 . S
C1369 C1381 1.422 . S
C1370 C1368 1.422 . S
C1370 C1369 1.421 . S
C1370 N1380 1.359 . S
C1371 C1369 1.417 . S
C1371 C1373 1.329 . S
C1371 H1390 0.930 . S
C1372 C1368 1.415 1_565 S
C1372 C1373 1.437 1_565 S
C1372 C1376 1.413 . S
C1373 C1371 1.329 . S
C1373 C1372 1.437 1_545 S
C1373 H1395 0.929 1_545 S
N1374 C1368 1.369 1_565 S
N1374 C1375 1.338 . S
N1374 Gd1379 2.622 1_565 S
C1375 N1374 1.338 . S
C1375 C1377 1.378 . S
C1375 H1387 0.929 . S
C1376 C1372 1.413 . S
C1376 C1377 1.348 . S
C1376 H1392 0.931 . S
C1377 C1375 1.378 . S
C1377 C1376 1.348 . S
C1377 H1393 0.930 . S
Gd1378 N1398 2.622 . S
Gd1378 N1405 2.570 . S
Gd1378 O1412 2.353 1_556 S
Gd1378 O1413 2.468 . S
Gd1378 O1414 2.427 . S
Gd1378 O1416 2.388 1_556 S
Gd1378 O1417 2.386 1_556 S
Gd1378 O1421 2.304 1_556 S
Gd1378 C1431 2.805 . S
Gd1379 N1374 2.622 1_545 S
Gd1379 N1380 2.570 . S
Gd1379 O1411 2.386 . S
Gd1379 O1415 2.307 . S
Gd1379 O1418 2.353 . S
Gd1379 O1419 2.468 . S
Gd1379 O1420 2.427 1_545 S
Gd1379 O1422 2.388 1_545 S
Gd1379 C1443 2.805 . S
N1380 C1370 1.359 . S
N1380 Gd1379 2.570 . S
N1380 C1382 1.343 . S
C1381 C1369 1.422 . S
C1381 C1383 1.321 . S
C1381 H1389 0.931 . S
C1382 N1380 1.343 . S
C1382 C1383 1.390 . S
C1382 H1384 0.931 . S
C1383 C1381 1.321 . S
C1383 C1382 1.390 . S
C1383 H1385 0.930 . S
H1384 C1382 0.931 . S
H1385 C1383 0.930 . S
H1386 C1409 0.931 . S
H1387 C1375 0.929 . S
H1388 C1410 0.973 . S
H1389 C1381 0.931 . S
H1390 C1371 0.930 . S
H1391 C1400 0.929 1_554 S
H1392 C1376 0.931 . S
H1393 C1377 0.930 . S
H1394 C1432 0.930 . S
H1395 C1373 0.929 1_565 S
H1396 C1401 0.931 . S
H1397 C1402 0.930 . S
N1398 Gd1378 2.622 . S
N1398 C1399 1.369 . S
N1398 C1400 1.338 . S
C1399 N1398 1.369 . S
C1399 C1403 1.415 . S
C1399 C1406 1.422 . S
C1400 H1391 0.929 1_556 S
C1400 N1398 1.338 . S
C1400 C1402 1.378 . S
C1401 H1396 0.931 . S
C1401 C1402 1.348 . S
C1401 C1403 1.413 . S
C1402 H1397 0.930 . S
C1402 C1400 1.378 . S
C1402 C1401 1.348 . S
C1403 C1399 1.415 . S
C1403 C1401 1.413 . S
C1403 C1433 1.437 . S
H1404 C1433 0.929 . S
N1405 Gd1378 2.570 . S
N1405 C1406 1.359 . S
N1405 C1409 1.343 . S
C1406 C1399 1.422 . S
C1406 N1405 1.359 . S
C1406 C1408 1.421 . S
C1407 C1408 1.422 . S
C1407 C1410 1.292 1_545 S
C1407 H1434 0.931 . S
C1408 C1406 1.421 . S
C1408 C1407 1.422 . S
C1408 C1432 1.417 . S
C1409 H1386 0.931 . S
C1409 N1405 1.343 . S
C1409 C1410 1.378 1_545 S
C1410 H1388 0.973 . S
C1410 C1407 1.292 1_565 S
C1410 C1409 1.378 1_565 S
O1411 Gd1379 2.386 . S
O1411 C1423 1.265 . S
O1412 Gd1378 2.353 1_554 S
O1412 C1423 1.242 . S
O1413 Gd1378 2.468 . S
O1413 C1431 1.263 . S
O1414 Gd1378 2.427 . S
O1414 C1431 1.252 . S
O1415 Gd1379 2.307 . S
O1415 C1424 1.261 . S
O1416 Gd1378 2.388 1_554 S
O1416 C1424 1.252 . S
O1417 Gd1378 2.386 1_554 S
O1417 C1435 1.265 . S
O1418 Gd1379 2.353 . S
O1418 C1435 1.242 . S
O1419 Gd1379 2.468 . S
O1419 C1443 1.263 . S
O1420 Gd1379 2.427 1_565 S
O1420 C1443 1.252 1_565 S
O1421 Gd1378 2.304 1_554 S
O1421 C1436 1.268 1_545 S
O1422 Gd1379 2.388 1_565 S
O1422 C1436 1.252 . S
C1423 O1411 1.265 . S
C1423 O1412 1.242 . S
C1424 O1415 1.261 . S
C1424 O1416 1.252 . S
C1425 C1428 1.394 . S
C1425 C1430 1.370 . S
C1425 C1431 1.500 . S
C1426 C1429 1.383 . S
C1426 C1430 1.395 . S
C1427 C1428 1.396 . S
C1427 C1429 1.365 . S
C1427 H1444 0.929 . S
C1428 C1425 1.394 . S
C1428 C1427 1.396 . S
C1428 H1445 0.930 . S
C1429 C1426 1.383 . S
C1429 C1427 1.365 . S
C1429 H1446 0.931 . S
C1430 C1425 1.370 . S
C1430 C1426 1.395 . S
C1430 H1447 0.930 . S
C1431 Gd1378 2.805 . S
C1431 O1413 1.263 . S
C1431 O1414 1.252 . S
C1431 C1425 1.500 . S
C1432 H1394 0.930 . S
C1432 C1408 1.417 . S
C1432 C1433 1.329 . S
C1433 C1403 1.437 . S
C1433 H1404 0.929 . S
C1433 C1432 1.329 . S
H1434 C1407 0.931 . S
C1435 O1417 1.265 . S
C1435 O1418 1.242 . S
C1436 O1421 1.268 1_565 S
C1436 O1422 1.252 . S
C1437 C1440 1.445 . S
C1437 C1442 1.334 1_565 S
C1437 C1443 1.488 1_565 S
C1438 C1441 1.383 1_545 S
C1438 C1442 1.395 . S
C1439 C1440 1.396 . S
C1439 C1441 1.365 . S
C1439 H1448 0.929 . S
C1440 C1437 1.445 . S
C1440 C1439 1.396 . S
C1440 H1449 0.930 . S
C1441 C1438 1.383 1_565 S
C1441 C1439 1.365 . S
C1441 H1450 0.931 . S
C1442 C1437 1.334 1_545 S
C1442 C1438 1.395 . S
C1442 H1451 0.930 . S
C1443 Gd1379 2.805 . S
C1443 O1419 1.263 . S
C1443 O1420 1.252 1_545 S
C1443 C1437 1.488 1_545 S
H1444 C1427 0.929 . S
H1445 C1428 0.930 . S
H1446 C1429 0.931 . S
H1447 C1430 0.930 . S
H1448 C1439 0.929 . S
H1449 C1440 0.930 . S
H1450 C1441 0.931 . S
H1451 C1442 0.930 . S
C1452 C1454 1.422 . S
C1452 C1456 1.415 . S
C1452 N1458 1.369 . S
C1453 C1454 1.421 . S
C1453 C1455 1.417 . S
C1453 C1465 1.422 . S
C1454 C1452 1.422 . S
C1454 C1453 1.421 . S
C1454 N1464 1.359 . S
C1455 C1453 1.417 . S
C1455 C1457 1.329 . S
C1455 H1474 0.930 . S
C1456 C1452 1.415 . S
C1456 C1457 1.437 . S
C1456 C1460 1.413 . S
C1457 C1455 1.329 . S
C1457 C1456 1.437 . S
C1457 H1479 0.929 . S
N1458 C1452 1.369 . S
N1458 C1459 1.338 . S
N1458 Gd1463 2.622 . S
C1459 N1458 1.338 . S
C1459 C1461 1.378 . S
C1459 H1471 0.929 . S
C1460 C1456 1.413 . S
C1460 C1461 1.348 . S
C1460 H1476 0.931 . S
C1461 C1459 1.378 . S
C1461 C1460 1.348 . S
C1461 H1477 0.930 . S
Gd1462 N1482 2.622 . S
Gd1462 N1489 2.570 . S
Gd1462 O1496 2.353 . S
Gd1462 O1497 2.468 . S
Gd1462 O1498 2.427 . S
Gd1462 O1500 2.388 . S
Gd1462 O1501 2.386 . S
Gd1462 O1505 2.307 . S
Gd1462 C1515 2.805 . S
Gd1463 N1458 2.622 . S
Gd1463 N1464 2.570 . S
Gd1463 O1495 2.386 . S
Gd1463 O1499 2.307 . S
Gd1463 O1502 2.353 . S
Gd1463 O1503 2.468 . S
Gd1463 O1504 2.427 . S
Gd1463 O1506 2.388 . S
Gd1463 C1527 2.805 . S
N1464 C1454 1.359 . S
N1464 Gd1463 2.570 . S
N1464 C1466 1.343 . S
C1465 C1453 1.422 . S
C1465 C1467 1.321 . S
C1465 H1473 0.931 . S
C1466 N1464 1.343 . S
C1466 C1467 1.390 . S
C1466 H1468 0.931 . S
C1467 C1465 1.321 . S
C1467 C1466 1.390 . S
C1467 H1469 0.930 . S
H1468 C1466 0.931 . S
H1469 C1467 0.930 . S
H1470 C1493 0.931 . S
H1471 C1459 0.929 . S
H1472 C1494 0.930 . S
H1473 C1465 0.931 . S
H1474 C1455 0.930 . S
H1475 C1484 0.929 . S
H1476 C1460 0.931 . S
H1477 C1461 0.930 . S
H1478 C1516 0.930 . S
H1479 C1457 0.929 . S
H1480 C1485 0.931 . S
H1481 C1486 0.930 . S
N1482 Gd1462 2.622 . S
N1482 C1483 1.369 . S
N1482 C1484 1.338 . S
C1483 N1482 1.369 . S
C1483 C1487 1.415 . S
C1483 C1490 1.422 . S
C1484 H1475 0.929 . S
C1484 N1482 1.338 . S
C1484 C1486 1.378 . S
C1485 H1480 0.931 . S
C1485 C1486 1.348 . S
C1485 C1487 1.413 . S
C1486 H1481 0.930 . S
C1486 C1484 1.378 . S
C1486 C1485 1.348 . S
C1487 C1483 1.415 . S
C1487 C1485 1.413 . S
C1487 C1517 1.437 . S
H1488 C1517 0.929 . S
N1489 Gd1462 2.570 . S
N1489 C1490 1.359 . S
N1489 C1493 1.343 . S
C1490 C1483 1.422 . S
C1490 N1489 1.359 . S
C1490 C1492 1.421 . S
C1491 C1492 1.422 . S
C1491 C1494 1.321 . S
C1491 H1518 0.931 . S
C1492 C1490 1.421 . S
C1492 C1491 1.422 . S
C1492 C1516 1.417 . S
C1493 H1470 0.931 . S
C1493 N1489 1.343 . S
C1493 C1494 1.390 . S
C1494 H1472 0.930 . S
C1494 C1491 1.321 . S
C1494 C1493 1.390 . S
O1495 Gd1463 2.386 . S
O1495 C1507 1.265 . S
O1496 Gd1462 2.353 . S
O1496 C1507 1.242 . S
O1497 Gd1462 2.468 . S
O1497 C1515 1.263 . S
O1498 Gd1462 2.427 . S
O1498 C1515 1.252 . S
O1499 Gd1463 2.307 . S
O1499 C1508 1.261 . S
O1500 Gd1462 2.388 . S
O1500 C1508 1.252 . S
O1501 Gd1462 2.386 . S
O1501 C1519 1.265 . S
O1502 Gd1463 2.353 . S
O1502 C1519 1.242 . S
O1503 Gd1463 2.468 . S
O1503 C1527 1.263 . S
O1504 Gd1463 2.427 . S
O1504 C1527 1.252 . S
O1505 Gd1462 2.307 . S
O1505 C1520 1.261 . S
O1506 Gd1463 2.388 . S
O1506 C1520 1.252 . S
C1507 O1495 1.265 . S
C1507 O1496 1.242 . S
C1508 O1499 1.261 . S
C1508 O1500 1.252 . S
C1509 C1512 1.394 . S
C1509 C1514 1.370 . S
C1509 C1515 1.500 . S
C1510 C1513 1.383 . S
C1510 C1514 1.395 . S
C1511 C1512 1.396 . S
C1511 C1513 1.365 . S
C1511 H1528 0.929 . S
C1512 C1509 1.394 . S
C1512 C1511 1.396 . S
C1512 H1529 0.930 . S
C1513 C1510 1.383 . S
C1513 C1511 1.365 . S
C1513 H1530 0.931 . S
C1514 C1509 1.370 . S
C1514 C1510 1.395 . S
C1514 H1531 0.930 . S
C1515 Gd1462 2.805 . S
C1515 O1497 1.263 . S
C1515 O1498 1.252 . S
C1515 C1509 1.500 . S
C1516 H1478 0.930 . S
C1516 C1492 1.417 . S
C1516 C1517 1.329 . S
C1517 C1487 1.437 . S
C1517 H1488 0.929 . S
C1517 C1516 1.329 . S
H1518 C1491 0.931 . S
C1519 O1501 1.265 . S
C1519 O1502 1.242 . S
C1520 O1505 1.261 . S
C1520 O1506 1.252 . S
C1521 C1524 1.394 . S
C1521 C1526 1.370 . S
C1521 C1527 1.500 . S
C1522 C1525 1.383 . S
C1522 C1526 1.395 . S
C1523 C1524 1.396 . S
C1523 C1525 1.365 . S
C1523 H1532 0.929 . S
C1524 C1521 1.394 . S
C1524 C1523 1.396 . S
C1524 H1533 0.930 . S
C1525 C1522 1.383 . S
C1525 C1523 1.365 . S
C1525 H1534 0.931 . S
C1526 C1521 1.370 . S
C1526 C1522 1.395 . S
C1526 H1535 0.930 . S
C1527 Gd1463 2.805 . S
C1527 O1503 1.263 . S
C1527 O1504 1.252 . S
C1527 C1521 1.500 . S
H1528 C1511 0.929 . S
H1529 C1512 0.930 . S
H1530 C1513 0.931 . S
H1531 C1514 0.930 . S
H1532 C1523 0.929 . S
H1533 C1524 0.930 . S
H1534 C1525 0.931 . S
H1535 C1526 0.930 . S
C1536 C1538 1.422 . S
C1536 C1540 1.415 . S
C1536 N1542 1.369 . S
C1537 C1538 1.421 . S
C1537 C1539 1.417 . S
C1537 C1549 1.422 . S
C1538 C1536 1.422 . S
C1538 C1537 1.421 . S
C1538 N1548 1.359 . S
C1539 C1537 1.417 . S
C1539 C1541 1.329 . S
C1539 H1558 0.930 . S
C1540 C1536 1.415 . S
C1540 C1541 1.437 . S
C1540 C1544 1.413 . S
C1541 C1539 1.329 . S
C1541 C1540 1.437 . S
C1541 H1563 0.929 . S
N1542 C1536 1.369 . S
N1542 C1543 1.338 . S
N1542 Gd1547 2.622 . S
C1543 N1542 1.338 . S
C1543 C1545 1.378 . S
C1543 H1555 0.929 . S
C1544 C1540 1.413 . S
C1544 C1545 1.348 . S
C1544 H1560 0.931 . S
C1545 C1543 1.378 . S
C1545 C1544 1.348 . S
C1545 H1561 0.930 . S
Gd1546 N1566 2.622 1_554 S
Gd1546 N1573 2.570 1_554 S
Gd1546 O1580 2.353 . S
Gd1546 O1581 2.468 . S
Gd1546 O1582 2.427 . S
Gd1546 O1584 2.388 . S
Gd1546 O1585 2.386 1_554 S
Gd1546 O1589 2.307 . S
Gd1546 C1599 2.805 . S
Gd1547 N1542 2.622 . S
Gd1547 N1548 2.570 . S
Gd1547 O1579 2.386 . S
Gd1547 O1583 2.307 . S
Gd1547 O1586 2.353 1_554 S
Gd1547 O1587 2.468 . S
Gd1547 O1588 2.427 . S
Gd1547 O1590 2.388 . S
Gd1547 C1611 2.805 . S
N1548 C1538 1.359 . S
N1548 Gd1547 2.570 . S
N1548 C1550 1.343 . S
C1549 C1537 1.422 . S
C1549 C1551 1.321 . S
C1549 H1557 0.931 . S
C1550 N1548 1.343 . S
C1550 C1551 1.390 . S
C1550 H1552 0.931 . S
C1551 C1549 1.321 . S
C1551 C1550 1.390 . S
C1551 H1553 0.930 . S
H1552 C1550 0.931 . S
H1553 C1551 0.930 . S
H1554 C1577 0.882 1_554 S
H1555 C1543 0.929 . S
H1556 C1578 0.930 . S
H1557 C1549 0.931 . S
H1558 C1539 0.930 . S
H1559 C1568 0.929 1_554 S
H1560 C1544 0.931 . S
H1561 C1545 0.930 . S
H1562 C1600 0.930 . S
H1563 C1541 0.929 . S
H1564 C1569 0.931 . S
H1565 C1570 0.930 . S
N1566 Gd1546 2.622 1_556 S
N1566 C1567 1.369 . S
N1566 C1568 1.338 . S
C1567 N1566 1.369 . S
C1567 C1571 1.415 . S
C1567 C1574 1.422 . S
C1568 H1559 0.929 1_556 S
C1568 N1566 1.338 . S
C1568 C1570 1.378 . S
C1569 H1564 0.931 . S
C1569 C1570 1.348 . S
C1569 C1571 1.413 . S
C1570 H1565 0.930 . S
C1570 C1568 1.378 . S
C1570 C1569 1.348 . S
C1571 C1567 1.415 . S
C1571 C1569 1.413 . S
C1571 C1601 1.437 . S
H1572 C1601 0.929 . S
N1573 Gd1546 2.570 1_556 S
N1573 C1574 1.359 . S
N1573 C1577 1.343 . S
C1574 C1567 1.422 . S
C1574 N1573 1.359 . S
C1574 C1576 1.421 . S
C1575 C1576 1.422 . S
C1575 C1578 1.321 . S
C1575 H1602 0.931 . S
C1576 C1574 1.421 . S
C1576 C1575 1.422 . S
C1576 C1600 1.417 . S
C1577 H1554 0.882 1_556 S
C1577 N1573 1.343 . S
C1577 C1578 1.390 . S
C1578 H1556 0.930 . S
C1578 C1575 1.321 . S
C1578 C1577 1.390 . S
O1579 Gd1547 2.386 . S
O1579 C1591 1.265 . S
O1580 Gd1546 2.353 . S
O1580 C1591 1.242 . S
O1581 Gd1546 2.468 . S
O1581 C1599 1.263 . S
O1582 Gd1546 2.427 . S
O1582 C1599 1.252 . S
O1583 Gd1547 2.307 . S
O1583 C1592 1.261 . S
O1584 Gd1546 2.388 . S
O1584 C1592 1.252 . S
O1585 Gd1546 2.386 1_556 S
O1585 C1603 1.265 . S
O1586 Gd1547 2.353 1_556 S
O1586 C1603 1.242 . S
O1587 Gd1547 2.468 . S
O1587 C1611 1.263 . S
O1588 Gd1547 2.427 . S
O1588 C1611 1.252 . S
O1589 Gd1546 2.307 . S
O1589 C1604 1.261 . S
O1590 Gd1547 2.388 . S
O1590 C1604 1.252 . S
C1591 O1579 1.265 . S
C1591 O1580 1.242 . S
C1592 O1583 1.261 . S
C1592 O1584 1.252 . S
C1593 C1596 1.394 . S
C1593 C1598 1.370 . S
C1593 C1599 1.500 . S
C1594 C1597 1.383 . S
C1594 C1598 1.395 . S
C1595 C1596 1.396 . S
C1595 C1597 1.365 . S
C1595 H1612 0.929 . S
C1596 C1593 1.394 . S
C1596 C1595 1.396 . S
C1596 H1613 0.930 . S
C1597 C1594 1.383 . S
C1597 C1595 1.365 . S
C1597 H1614 0.931 . S
C1598 C1593 1.370 . S
C1598 C1594 1.395 . S
C1598 H1615 0.930 . S
C1599 Gd1546 2.805 . S
C1599 O1581 1.263 . S
C1599 O1582 1.252 . S
C1599 C1593 1.500 . S
C1600 H1562 0.930 . S
C1600 C1576 1.417 . S
C1600 C1601 1.329 . S
C1601 C1571 1.437 . S
C1601 H1572 0.929 . S
C1601 C1600 1.329 . S
H1602 C1575 0.931 . S
C1603 O1585 1.265 . S
C1603 O1586 1.242 . S
C1604 O1589 1.261 . S
C1604 O1590 1.252 . S
C1605 C1608 1.394 . S
C1605 C1610 1.370 . S
C1605 C1611 1.500 1_556 S
C1606 C1609 1.383 . S
C1606 C1610 1.395 . S
C1607 C1608 1.396 . S
C1607 C1609 1.365 . S
C1607 H1616 0.929 . S
C1608 C1605 1.394 . S
C1608 C1607 1.396 . S
C1608 H1617 0.930 . S
C1609 C1606 1.383 . S
C1609 C1607 1.365 . S
C1609 H1618 0.931 . S
C1610 C1605 1.370 . S
C1610 C1606 1.395 . S
C1610 H1619 0.930 . S
C1611 Gd1547 2.805 . S
C1611 O1587 1.263 . S
C1611 O1588 1.252 . S
C1611 C1605 1.500 1_554 S
H1612 C1595 0.929 . S
H1613 C1596 0.930 . S
H1614 C1597 0.931 . S
H1615 C1598 0.930 . S
H1616 C1607 0.929 . S
H1617 C1608 0.930 . S
H1618 C1609 0.931 . S
H1619 C1610 0.930 . S
C1620 C1622 1.422 . S
C1620 C1624 1.415 . S
C1620 N1626 1.369 . S
C1621 C1622 1.421 . S
C1621 C1623 1.417 . S
C1621 C1633 1.422 . S
C1622 C1620 1.422 . S
C1622 C1621 1.421 . S
C1622 N1632 1.359 . S
C1623 C1621 1.417 . S
C1623 C1625 1.329 . S
C1623 H1642 0.930 . S
C1624 C1620 1.415 . S
C1624 C1625 1.437 . S
C1624 C1628 1.413 . S
C1625 C1623 1.329 . S
C1625 C1624 1.437 . S
C1625 H1647 0.929 . S
N1626 C1620 1.369 . S
N1626 C1627 1.338 . S
N1626 Gd1631 2.622 . S
C1627 N1626 1.338 . S
C1627 C1629 1.378 . S
C1627 H1639 0.929 . S
C1628 C1624 1.413 . S
C1628 C1629 1.348 . S
C1628 H1644 0.931 . S
C1629 C1627 1.378 . S
C1629 C1628 1.348 . S
C1629 H1645 0.930 . S
Gd1630 N1650 2.622 . S
Gd1630 N1657 2.570 . S
Gd1630 O1664 2.353 . S
Gd1630 O1665 2.468 . S
Gd1630 O1666 2.427 . S
Gd1630 O1668 2.388 . S
Gd1630 O1669 2.386 . S
Gd1630 O1673 2.307 . S
Gd1630 C1683 2.805 . S
Gd1631 N1626 2.622 . S
Gd1631 N1632 2.570 . S
Gd1631 O1663 2.386 . S
Gd1631 O1667 2.307 . S
Gd1631 O1670 2.353 . S
Gd1631 O1671 2.468 . S
Gd1631 O1672 2.427 . S
Gd1631 O1674 2.388 . S
Gd1631 C1695 2.805 . S
N1632 C1622 1.359 . S
N1632 Gd1631 2.570 . S
N1632 C1634 1.343 . S
C1633 C1621 1.422 . S
C1633 C1635 1.321 . S
C1633 H1641 0.931 . S
C1634 N1632 1.343 . S
C1634 C1635 1.390 . S
C1634 H1636 0.931 . S
C1635 C1633 1.321 . S
C1635 C1634 1.390 . S
C1635 H1637 0.930 . S
H1636 C1634 0.931 . S
H1637 C1635 0.930 . S
H1638 C1661 0.931 . S
H1639 C1627 0.929 . S
H1640 C1662 0.930 . S
H1641 C1633 0.931 . S
H1642 C1623 0.930 . S
H1643 C1652 0.929 . S
H1644 C1628 0.931 . S
H1645 C1629 0.930 . S
H1646 C1684 0.930 . S
H1647 C1625 0.929 . S
H1648 C1653 0.931 . S
H1649 C1654 0.930 . S
N1650 Gd1630 2.622 . S
N1650 C1651 1.369 . S
N1650 C1652 1.338 . S
C1651 N1650 1.369 . S
C1651 C1655 1.415 . S
C1651 C1658 1.422 . S
C1652 H1643 0.929 . S
C1652 N1650 1.338 . S
C1652 C1654 1.378 . S
C1653 H1648 0.931 . S
C1653 C1654 1.348 . S
C1653 C1655 1.413 . S
C1654 H1649 0.930 . S
C1654 C1652 1.378 . S
C1654 C1653 1.348 . S
C1655 C1651 1.415 . S
C1655 C1653 1.413 . S
C1655 C1685 1.437 . S
H1656 C1685 0.929 . S
N1657 Gd1630 2.570 . S
N1657 C1658 1.359 . S
N1657 C1661 1.343 . S
C1658 C1651 1.422 . S
C1658 N1657 1.359 . S
C1658 C1660 1.421 . S
C1659 C1660 1.422 . S
C1659 C1662 1.321 . S
C1659 H1686 0.931 . S
C1660 C1658 1.421 . S
C1660 C1659 1.422 . S
C1660 C1684 1.417 . S
C1661 H1638 0.931 . S
C1661 N1657 1.343 . S
C1661 C1662 1.390 . S
C1662 H1640 0.930 . S
C1662 C1659 1.321 . S
C1662 C1661 1.390 . S
O1663 Gd1631 2.386 . S
O1663 C1675 1.265 . S
O1664 Gd1630 2.353 . S
O1664 C1675 1.242 . S
O1665 Gd1630 2.468 . S
O1665 C1683 1.263 . S
O1666 Gd1630 2.427 . S
O1666 C1683 1.252 . S
O1667 Gd1631 2.307 . S
O1667 C1676 1.261 . S
O1668 Gd1630 2.388 . S
O1668 C1676 1.252 . S
O1669 Gd1630 2.386 . S
O1669 C1687 1.265 . S
O1670 Gd1631 2.353 . S
O1670 C1687 1.242 . S
O1671 Gd1631 2.468 . S
O1671 C1695 1.263 . S
O1672 Gd1631 2.427 . S
O1672 C1695 1.252 . S
O1673 Gd1630 2.307 . S
O1673 C1688 1.261 . S
O1674 Gd1631 2.388 . S
O1674 C1688 1.252 . S
C1675 O1663 1.265 . S
C1675 O1664 1.242 . S
C1676 O1667 1.261 . S
C1676 O1668 1.252 . S
C1677 C1680 1.394 . S
C1677 C1682 1.370 . S
C1677 C1683 1.500 . S
C1678 C1681 1.383 . S
C1678 C1682 1.395 . S
C1679 C1680 1.396 . S
C1679 C1681 1.365 . S
C1679 H1696 0.929 . S
C1680 C1677 1.394 . S
C1680 C1679 1.396 . S
C1680 H1697 0.930 . S
C1681 C1678 1.383 . S
C1681 C1679 1.365 . S
C1681 H1698 0.931 . S
C1682 C1677 1.370 . S
C1682 C1678 1.395 . S
C1682 H1699 0.930 . S
C1683 Gd1630 2.805 . S
C1683 O1665 1.263 . S
C1683 O1666 1.252 . S
C1683 C1677 1.500 . S
C1684 H1646 0.930 . S
C1684 C1660 1.417 . S
C1684 C1685 1.329 . S
C1685 C1655 1.437 . S
C1685 H1656 0.929 . S
C1685 C1684 1.329 . S
H1686 C1659 0.931 . S
C1687 O1669 1.265 . S
C1687 O1670 1.242 . S
C1688 O1673 1.261 . S
C1688 O1674 1.252 . S
C1689 C1692 1.394 . S
C1689 C1694 1.370 . S
C1689 C1695 1.500 . S
C1690 C1693 1.383 . S
C1690 C1694 1.395 . S
C1691 C1692 1.396 . S
C1691 C1693 1.365 . S
C1691 H1700 0.929 . S
C1692 C1689 1.394 . S
C1692 C1691 1.396 . S
C1692 H1701 0.930 . S
C1693 C1690 1.383 . S
C1693 C1691 1.365 . S
C1693 H1702 0.931 . S
C1694 C1689 1.370 . S
C1694 C1690 1.395 . S
C1694 H1703 0.930 . S
C1695 Gd1631 2.805 . S
C1695 O1671 1.263 . S
C1695 O1672 1.252 . S
C1695 C1689 1.500 . S
H1696 C1679 0.929 . S
H1697 C1680 0.930 . S
H1698 C1681 0.931 . S
H1699 C1682 0.930 . S
H1700 C1691 0.929 . S
H1701 C1692 0.930 . S
H1702 C1693 0.931 . S
H1703 C1694 0.930 . S
C1704 C1706 1.422 . S
C1704 C1708 1.415 . S
C1704 N1710 1.369 . S
C1705 C1706 1.421 . S
C1705 C1707 1.417 . S
C1705 C1717 1.422 . S
C1706 C1704 1.422 . S
C1706 C1705 1.421 . S
C1706 N1716 1.359 . S
C1707 C1705 1.417 . S
C1707 C1709 1.329 . S
C1707 H1726 0.930 . S
C1708 C1704 1.415 . S
C1708 C1709 1.437 . S
C1708 C1712 1.413 . S
C1709 C1707 1.329 . S
C1709 C1708 1.437 . S
C1709 H1731 0.929 . S
N1710 C1704 1.369 . S
N1710 C1711 1.338 . S
N1710 Gd1715 2.622 . S
C1711 N1710 1.338 . S
C1711 C1713 1.378 . S
C1711 H1723 0.929 . S
C1712 C1708 1.413 . S
C1712 C1713 1.348 . S
C1712 H1728 0.931 . S
C1713 C1711 1.378 . S
C1713 C1712 1.348 . S
C1713 H1729 0.930 . S
Gd1714 N1734 2.620 1_455 S
Gd1714 N1741 2.570 1_455 S
Gd1714 O1748 2.353 . S
Gd1714 O1749 2.468 . S
Gd1714 O1750 2.427 . S
Gd1714 O1752 2.388 . S
Gd1714 O1753 2.386 1_455 S
Gd1714 O1757 2.307 . S
Gd1714 C1767 2.805 . S
Gd1715 N1710 2.622 . S
Gd1715 N1716 2.570 . S
Gd1715 O1747 2.386 . S
Gd1715 O1751 2.307 . S
Gd1715 O1754 2.295 1_455 S
Gd1715 O1755 2.468 . S
Gd1715 O1756 2.427 . S
Gd1715 O1758 2.388 . S
Gd1715 C1779 2.805 . S
N1716 C1706 1.359 . S
N1716 Gd1715 2.570 . S
N1716 C1718 1.343 . S
C1717 C1705 1.422 . S
C1717 C1719 1.321 . S
C1717 H1725 0.931 . S
C1718 N1716 1.343 . S
C1718 C1719 1.390 . S
C1718 H1720 0.931 . S
C1719 C1717 1.321 . S
C1719 C1718 1.390 . S
C1719 H1721 0.930 . S
H1720 C1718 0.931 . S
H1721 C1719 0.930 . S
H1722 C1745 0.931 1_455 S
H1723 C1711 0.929 . S
H1724 C1746 0.930 . S
H1725 C1717 0.931 . S
H1726 C1707 0.930 . S
H1727 C1736 0.960 . S
H1728 C1712 0.931 . S
H1729 C1713 0.930 . S
H1730 C1768 0.930 . S
H1731 C1709 0.929 . S
H1732 C1737 0.931 . S
H1733 C1738 0.930 . S
N1734 Gd1714 2.620 1_655 S
N1734 C1735 1.371 . S
N1734 C1736 1.347 1_655 S
C1735 N1734 1.371 . S
C1735 C1739 1.415 . S
C1735 C1742 1.422 . S
C1736 H1727 0.960 . S
C1736 N1734 1.347 1_455 S
C1736 C1738 1.341 1_455 S
C1737 H1732 0.931 . S
C1737 C1738 1.348 . S
C1737 C1739 1.413 . S
C1738 H1733 0.930 . S
C1738 C1736 1.341 1_655 S
C1738 C1737 1.348 . S
C1739 C1735 1.415 . S
C1739 C1737 1.413 . S
C1739 C1769 1.437 . S
H1740 C1769 0.929 . S
N1741 Gd1714 2.570 1_655 S
N1741 C1742 1.359 . S
N1741 C1745 1.343 . S
C1742 C1735 1.422 . S
C1742 N1741 1.359 . S
C1742 C1744 1.421 . S
C1743 C1744 1.422 . S
C1743 C1746 1.321 . S
C1743 H1770 0.931 . S
C1744 C1742 1.421 . S
C1744 C1743 1.422 . S
C1744 C1768 1.417 . S
C1745 H1722 0.931 1_655 S
C1745 N1741 1.343 . S
C1745 C1746 1.390 . S
C1746 H1724 0.930 . S
C1746 C1743 1.321 . S
C1746 C1745 1.390 . S
O1747 Gd1715 2.386 . S
O1747 C1759 1.265 . S
O1748 Gd1714 2.353 . S
O1748 C1759 1.242 . S
O1749 Gd1714 2.468 . S
O1749 C1767 1.263 . S
O1750 Gd1714 2.427 . S
O1750 C1767 1.252 . S
O1751 Gd1715 2.307 . S
O1751 C1760 1.261 . S
O1752 Gd1714 2.388 . S
O1752 C1760 1.252 . S
O1753 Gd1714 2.386 1_655 S
O1753 C1771 1.265 . S
O1754 Gd1715 2.295 1_655 S
O1754 C1771 1.278 . S
O1755 Gd1715 2.468 . S
O1755 C1779 1.263 . S
O1756 Gd1715 2.427 . S
O1756 C1779 1.252 . S
O1757 Gd1714 2.307 . S
O1757 C1772 1.261 . S
O1758 Gd1715 2.388 . S
O1758 C1772 1.252 . S
C1759 O1747 1.265 . S
C1759 O1748 1.242 . S
C1760 O1751 1.261 . S
C1760 O1752 1.252 . S
C1761 C1764 1.394 . S
C1761 C1766 1.370 . S
C1761 C1767 1.500 . S
C1762 C1765 1.383 . S
C1762 C1766 1.395 . S
C1763 C1764 1.396 . S
C1763 C1765 1.365 . S
C1763 H1780 0.929 . S
C1764 C1761 1.394 . S
C1764 C1763 1.396 . S
C1764 H1781 0.930 . S
C1765 C1762 1.383 . S
C1765 C1763 1.365 . S
C1765 H1782 0.931 . S
C1766 C1761 1.370 . S
C1766 C1762 1.395 . S
C1766 H1783 0.930 . S
C1767 Gd1714 2.805 . S
C1767 O1749 1.263 . S
C1767 O1750 1.252 . S
C1767 C1761 1.500 . S
C1768 H1730 0.930 . S
C1768 C1744 1.417 . S
C1768 C1769 1.329 . S
C1769 C1739 1.437 . S
C1769 H1740 0.929 . S
C1769 C1768 1.329 . S
H1770 C1743 0.931 . S
C1771 O1753 1.265 . S
C1771 O1754 1.278 . S
C1772 O1757 1.261 . S
C1772 O1758 1.252 . S
C1773 C1776 1.394 . S
C1773 C1778 1.370 . S
C1773 C1779 1.500 1_655 S
C1774 C1777 1.383 . S
C1774 C1778 1.395 . S
C1775 C1776 1.396 . S
C1775 C1777 1.365 . S
C1775 H1784 0.929 . S
C1776 C1773 1.394 . S
C1776 C1775 1.396 . S
C1776 H1785 0.938 . S
C1777 C1774 1.383 . S
C1777 C1775 1.365 . S
C1777 H1786 0.931 . S
C1778 C1773 1.370 . S
C1778 C1774 1.395 . S
C1778 H1787 0.930 . S
C1779 Gd1715 2.805 . S
C1779 O1755 1.263 . S
C1779 O1756 1.252 . S
C1779 C1773 1.500 1_455 S
H1780 C1763 0.929 . S
H1781 C1764 0.930 . S
H1782 C1765 0.931 . S
H1783 C1766 0.930 . S
H1784 C1775 0.929 . S
H1785 C1776 0.938 . S
H1786 C1777 0.931 . S
H1787 C1778 0.930 . S
C1788 C1790 1.422 . S
C1788 C1792 1.415 . S
C1788 N1794 1.369 . S
C1789 C1790 1.421 . S
C1789 C1791 1.417 . S
C1789 C1801 1.422 . S
C1790 C1788 1.422 . S
C1790 C1789 1.421 . S
C1790 N1800 1.359 . S
C1791 C1789 1.417 . S
C1791 C1793 1.329 . S
C1791 H1810 0.930 . S
C1792 C1788 1.415 . S
C1792 C1793 1.437 . S
C1792 C1796 1.413 . S
C1793 C1791 1.329 . S
C1793 C1792 1.437 . S
C1793 H1815 0.929 . S
N1794 C1788 1.369 . S
N1794 C1795 1.338 . S
N1794 Gd1799 2.622 . S
C1795 N1794 1.338 . S
C1795 C1797 1.378 . S
C1795 H1807 0.929 . S
C1796 C1792 1.413 . S
C1796 C1797 1.348 . S
C1796 H1812 0.931 . S
C1797 C1795 1.378 . S
C1797 C1796 1.348 . S
C1797 H1813 0.930 . S
Gd1798 N1818 2.622 . S
Gd1798 N1825 2.570 . S
Gd1798 O1832 2.353 . S
Gd1798 O1833 2.468 . S
Gd1798 O1834 2.427 . S
Gd1798 O1836 2.388 . S
Gd1798 O1837 2.386 . S
Gd1798 O1841 2.307 . S
Gd1798 C1851 2.805 . S
Gd1799 N1794 2.622 . S
Gd1799 N1800 2.570 . S
Gd1799 O1831 2.386 . S
Gd1799 O1835 2.307 . S
Gd1799 O1838 2.353 . S
Gd1799 O1839 2.468 . S
Gd1799 O1840 2.427 . S
Gd1799 O1842 2.388 . S
Gd1799 C1863 2.805 . S
N1800 C1790 1.359 . S
N1800 Gd1799 2.570 . S
N1800 C1802 1.343 . S
C1801 C1789 1.422 . S
C1801 C1803 1.321 . S
C1801 H1809 0.931 . S
C1802 N1800 1.343 . S
C1802 C1803 1.390 . S
C1802 H1804 0.931 . S
C1803 C1801 1.321 . S
C1803 C1802 1.390 . S
C1803 H1805 0.930 . S
H1804 C1802 0.931 . S
H1805 C1803 0.930 . S
H1806 C1829 0.931 . S
H1807 C1795 0.929 . S
H1808 C1830 0.930 . S
H1809 C1801 0.931 . S
H1810 C1791 0.930 . S
H1811 C1820 0.929 . S
H1812 C1796 0.931 . S
H1813 C1797 0.930 . S
H1814 C1852 0.930 . S
H1815 C1793 0.929 . S
H1816 C1821 0.931 . S
H1817 C1822 0.930 . S
N1818 Gd1798 2.622 . S
N1818 C1819 1.369 . S
N1818 C1820 1.338 . S
C1819 N1818 1.369 . S
C1819 C1823 1.415 . S
C1819 C1826 1.422 . S
C1820 H1811 0.929 . S
C1820 N1818 1.338 . S
C1820 C1822 1.378 . S
C1821 H1816 0.931 . S
C1821 C1822 1.348 . S
C1821 C1823 1.413 . S
C1822 H1817 0.930 . S
C1822 C1820 1.378 . S
C1822 C1821 1.348 . S
C1823 C1819 1.415 . S
C1823 C1821 1.413 . S
C1823 C1853 1.437 . S
H1824 C1853 0.929 . S
N1825 Gd1798 2.570 . S
N1825 C1826 1.359 . S
N1825 C1829 1.343 . S
C1826 C1819 1.422 . S
C1826 N1825 1.359 . S
C1826 C1828 1.421 . S
C1827 C1828 1.422 . S
C1827 C1830 1.321 . S
C1827 H1854 0.931 . S
C1828 C1826 1.421 . S
C1828 C1827 1.422 . S
C1828 C1852 1.417 . S
C1829 H1806 0.931 . S
C1829 N1825 1.343 . S
C1829 C1830 1.390 . S
C1830 H1808 0.930 . S
C1830 C1827 1.321 . S
C1830 C1829 1.390 . S
O1831 Gd1799 2.386 . S
O1831 C1843 1.265 . S
O1832 Gd1798 2.353 . S
O1832 C1843 1.242 . S
O1833 Gd1798 2.468 . S
O1833 C1851 1.263 . S
O1834 Gd1798 2.427 . S
O1834 C1851 1.252 . S
O1835 Gd1799 2.307 . S
O1835 C1844 1.261 . S
O1836 Gd1798 2.388 . S
O1836 C1844 1.252 . S
O1837 Gd1798 2.386 . S
O1837 C1855 1.265 . S
O1838 Gd1799 2.353 . S
O1838 C1855 1.242 . S
O1839 Gd1799 2.468 . S
O1839 C1863 1.263 . S
O1840 Gd1799 2.427 . S
O1840 C1863 1.252 . S
O1841 Gd1798 2.307 . S
O1841 C1856 1.261 . S
O1842 Gd1799 2.388 . S
O1842 C1856 1.252 . S
C1843 O1831 1.265 . S
C1843 O1832 1.242 . S
C1844 O1835 1.261 . S
C1844 O1836 1.252 . S
C1845 C1848 1.394 . S
C1845 C1850 1.370 . S
C1845 C1851 1.500 . S
C1846 C1849 1.383 . S
C1846 C1850 1.395 . S
C1847 C1848 1.396 . S
C1847 C1849 1.365 . S
C1847 H1864 0.929 . S
C1848 C1845 1.394 . S
C1848 C1847 1.396 . S
C1848 H1865 0.930 . S
C1849 C1846 1.383 . S
C1849 C1847 1.365 . S
C1849 H1866 0.931 . S
C1850 C1845 1.370 . S
C1850 C1846 1.395 . S
C1850 H1867 0.930 . S
C1851 Gd1798 2.805 . S
C1851 O1833 1.263 . S
C1851 O1834 1.252 . S
C1851 C1845 1.500 . S
C1852 H1814 0.930 . S
C1852 C1828 1.417 . S
C1852 C1853 1.329 . S
C1853 C1823 1.437 . S
C1853 H1824 0.929 . S
C1853 C1852 1.329 . S
H1854 C1827 0.931 . S
C1855 O1837 1.265 . S
C1855 O1838 1.242 . S
C1856 O1841 1.261 . S
C1856 O1842 1.252 . S
C1857 C1860 1.394 . S
C1857 C1862 1.370 . S
C1857 C1863 1.500 . S
C1858 C1861 1.383 . S
C1858 C1862 1.395 . S
C1859 C1860 1.396 . S
C1859 C1861 1.365 . S
C1859 H1868 0.929 . S
C1860 C1857 1.394 . S
C1860 C1859 1.396 . S
C1860 H1869 0.930 . S
C1861 C1858 1.383 . S
C1861 C1859 1.365 . S
C1861 H1870 0.931 . S
C1862 C1857 1.370 . S
C1862 C1858 1.395 . S
C1862 H1871 0.930 . S
C1863 Gd1799 2.805 . S
C1863 O1839 1.263 . S
C1863 O1840 1.252 . S
C1863 C1857 1.500 . S
H1864 C1847 0.929 . S
H1865 C1848 0.930 . S
H1866 C1849 0.931 . S
H1867 C1850 0.930 . S
H1868 C1859 0.929 . S
H1869 C1860 0.930 . S
H1870 C1861 0.931 . S
H1871 C1862 0.930 . S
C1872 C1874 1.422 . S
C1872 C1876 1.415 . S
C1872 N1878 1.369 . S
C1873 C1874 1.421 . S
C1873 C1875 1.417 . S
C1873 C1885 1.422 . S
C1874 C1872 1.422 . S
C1874 C1873 1.421 . S
C1874 N1884 1.359 . S
C1875 C1873 1.417 . S
C1875 C1877 1.329 . S
C1875 H1894 0.930 . S
C1876 C1872 1.415 . S
C1876 C1877 1.437 . S
C1876 C1880 1.413 . S
C1877 C1875 1.329 . S
C1877 C1876 1.437 . S
C1877 H1899 0.929 . S
N1878 C1872 1.369 . S
N1878 C1879 1.338 . S
N1878 Gd1883 2.622 . S
C1879 N1878 1.338 . S
C1879 C1881 1.378 . S
C1879 H1891 0.929 . S
C1880 C1876 1.413 . S
C1880 C1881 1.348 . S
C1880 H1896 0.931 . S
C1881 C1879 1.378 . S
C1881 C1880 1.348 . S
C1881 H1897 0.930 . S
Gd1882 N1902 2.622 . S
Gd1882 N1909 2.570 . S
Gd1882 O1916 2.353 . S
Gd1882 O1917 2.468 . S
Gd1882 O1918 2.427 . S
Gd1882 O1920 2.388 . S
Gd1882 O1921 2.386 . S
Gd1882 O1925 2.307 . S
Gd1882 C1935 2.805 . S
Gd1883 N1878 2.622 . S
Gd1883 N1884 2.570 . S
Gd1883 O1915 2.386 . S
Gd1883 O1919 2.307 . S
Gd1883 O1922 2.353 . S
Gd1883 O1923 2.468 . S
Gd1883 O1924 2.427 . S
Gd1883 O1926 2.388 . S
Gd1883 C1947 2.805 . S
N1884 C1874 1.359 . S
N1884 Gd1883 2.570 . S
N1884 C1886 1.343 . S
C1885 C1873 1.422 . S
C1885 C1887 1.321 . S
C1885 H1893 0.931 . S
C1886 N1884 1.343 . S
C1886 C1887 1.390 . S
C1886 H1888 0.931 . S
C1887 C1885 1.321 . S
C1887 C1886 1.390 . S
C1887 H1889 0.930 . S
H1888 C1886 0.931 . S
H1889 C1887 0.930 . S
H1890 C1913 0.931 . S
H1891 C1879 0.929 . S
H1892 C1914 0.930 . S
H1893 C1885 0.931 . S
H1894 C1875 0.930 . S
H1895 C1904 0.929 . S
H1896 C1880 0.931 . S
H1897 C1881 0.930 . S
H1898 C1936 0.930 . S
H1899 C1877 0.929 . S
H1900 C1905 0.931 . S
H1901 C1906 0.930 . S
N1902 Gd1882 2.622 . S
N1902 C1903 1.369 . S
N1902 C1904 1.338 . S
C1903 N1902 1.369 . S
C1903 C1907 1.415 . S
C1903 C1910 1.422 . S
C1904 H1895 0.929 . S
C1904 N1902 1.338 . S
C1904 C1906 1.378 . S
C1905 H1900 0.931 . S
C1905 C1906 1.348 . S
C1905 C1907 1.413 . S
C1906 H1901 0.930 . S
C1906 C1904 1.378 . S
C1906 C1905 1.348 . S
C1907 C1903 1.415 . S
C1907 C1905 1.413 . S
C1907 C1937 1.437 . S
H1908 C1937 0.929 . S
N1909 Gd1882 2.570 . S
N1909 C1910 1.359 . S
N1909 C1913 1.343 . S
C1910 C1903 1.422 . S
C1910 N1909 1.359 . S
C1910 C1912 1.421 . S
C1911 C1912 1.422 . S
C1911 C1914 1.321 . S
C1911 H1938 0.931 . S
C1912 C1910 1.421 . S
C1912 C1911 1.422 . S
C1912 C1936 1.417 . S
C1913 H1890 0.931 . S
C1913 N1909 1.343 . S
C1913 C1914 1.390 . S
C1914 H1892 0.930 . S
C1914 C1911 1.321 . S
C1914 C1913 1.390 . S
O1915 Gd1883 2.386 . S
O1915 C1927 1.265 . S
O1916 Gd1882 2.353 . S
O1916 C1927 1.242 . S
O1917 Gd1882 2.468 . S
O1917 C1935 1.263 . S
O1918 Gd1882 2.427 . S
O1918 C1935 1.252 . S
O1919 Gd1883 2.307 . S
O1919 C1928 1.261 . S
O1920 Gd1882 2.388 . S
O1920 C1928 1.252 . S
O1921 Gd1882 2.386 . S
O1921 C1939 1.265 . S
O1922 Gd1883 2.353 . S
O1922 C1939 1.242 . S
O1923 Gd1883 2.468 . S
O1923 C1947 1.263 . S
O1924 Gd1883 2.427 . S
O1924 C1947 1.252 . S
O1925 Gd1882 2.307 . S
O1925 C1940 1.261 . S
O1926 Gd1883 2.388 . S
O1926 C1940 1.252 . S
C1927 O1915 1.265 . S
C1927 O1916 1.242 . S
C1928 O1919 1.261 . S
C1928 O1920 1.252 . S
C1929 C1932 1.394 . S
C1929 C1934 1.370 . S
C1929 C1935 1.500 . S
C1930 C1933 1.383 . S
C1930 C1934 1.395 . S
C1931 C1932 1.396 . S
C1931 C1933 1.365 . S
C1931 H1948 0.929 . S
C1932 C1929 1.394 . S
C1932 C1931 1.396 . S
C1932 H1949 0.930 . S
C1933 C1930 1.383 . S
C1933 C1931 1.365 . S
C1933 H1950 0.931 . S
C1934 C1929 1.370 . S
C1934 C1930 1.395 . S
C1934 H1951 0.930 . S
C1935 Gd1882 2.805 . S
C1935 O1917 1.263 . S
C1935 O1918 1.252 . S
C1935 C1929 1.500 . S
C1936 H1898 0.930 . S
C1936 C1912 1.417 . S
C1936 C1937 1.329 . S
C1937 C1907 1.437 . S
C1937 H1908 0.929 . S
C1937 C1936 1.329 . S
H1938 C1911 0.931 . S
C1939 O1921 1.265 . S
C1939 O1922 1.242 . S
C1940 O1925 1.261 . S
C1940 O1926 1.252 . S
C1941 C1944 1.394 . S
C1941 C1946 1.370 . S
C1941 C1947 1.500 . S
C1942 C1945 1.383 . S
C1942 C1946 1.395 . S
C1943 C1944 1.396 . S
C1943 C1945 1.365 . S
C1943 H1952 0.929 . S
C1944 C1941 1.394 . S
C1944 C1943 1.396 . S
C1944 H1953 0.930 . S
C1945 C1942 1.383 . S
C1945 C1943 1.365 . S
C1945 H1954 0.931 . S
C1946 C1941 1.370 . S
C1946 C1942 1.395 . S
C1946 H1955 0.930 . S
C1947 Gd1883 2.805 . S
C1947 O1923 1.263 . S
C1947 O1924 1.252 . S
C1947 C1941 1.500 . S
H1948 C1931 0.929 . S
H1949 C1932 0.930 . S
H1950 C1933 0.931 . S
H1951 C1934 0.930 . S
H1952 C1943 0.929 . S
H1953 C1944 0.930 . S
H1954 C1945 0.931 . S
H1955 C1946 0.930 . S
C1956 C1958 1.422 . S
C1956 C1960 1.415 . S
C1956 N1962 1.369 . S
C1957 C1958 1.421 . S
C1957 C1959 1.417 . S
C1957 C1969 1.422 . S
C1958 C1956 1.422 . S
C1958 C1957 1.421 . S
C1958 N1968 1.359 . S
C1959 C1957 1.417 . S
C1959 C1961 1.329 . S
C1959 H1978 0.930 . S
C1960 C1956 1.415 . S
C1960 C1961 1.437 . S
C1960 C1964 1.413 . S
C1961 C1959 1.329 . S
C1961 C1960 1.437 . S
C1961 H1983 0.929 . S
N1962 C1956 1.369 . S
N1962 C1963 1.338 . S
N1962 Gd1967 2.622 . S
C1963 N1962 1.338 . S
C1963 C1965 1.378 . S
C1963 H1975 0.929 . S
C1964 C1960 1.413 . S
C1964 C1965 1.348 . S
C1964 H1980 0.931 . S
C1965 C1963 1.378 . S
C1965 C1964 1.348 . S
C1965 H1981 0.930 . S
Gd1966 N1986 2.622 . S
Gd1966 N1993 2.570 . S
Gd1966 O2000 2.353 . S
Gd1966 O2001 2.468 . S
Gd1966 O2002 2.427 . S
Gd1966 O2004 2.388 . S
Gd1966 O2005 2.386 . S
Gd1966 O2009 2.307 . S
Gd1966 C2019 2.805 . S
Gd1967 N1962 2.622 . S
Gd1967 N1968 2.570 . S
Gd1967 O1999 2.386 . S
Gd1967 O2003 2.307 . S
Gd1967 O2006 2.353 . S
Gd1967 O2007 2.468 . S
Gd1967 O2008 2.427 . S
Gd1967 O2010 2.388 . S
Gd1967 C2031 2.805 . S
N1968 C1958 1.359 . S
N1968 Gd1967 2.570 . S
N1968 C1970 1.343 . S
C1969 C1957 1.422 . S
C1969 C1971 1.321 . S
C1969 H1977 0.931 . S
C1970 N1968 1.343 . S
C1970 C1971 1.390 . S
C1970 H1972 0.931 . S
C1971 C1969 1.321 . S
C1971 C1970 1.390 . S
C1971 H1973 0.930 . S
H1972 C1970 0.931 . S
H1973 C1971 0.930 . S
H1974 C1997 0.931 . S
H1975 C1963 0.929 . S
H1976 C1998 0.930 . S
H1977 C1969 0.931 . S
H1978 C1959 0.930 . S
H1979 C1988 0.929 . S
H1980 C1964 0.931 . S
H1981 C1965 0.930 . S
H1982 C2020 0.930 . S
H1983 C1961 0.929 . S
H1984 C1989 0.931 . S
H1985 C1990 0.930 . S
N1986 Gd1966 2.622 . S
N1986 C1987 1.369 . S
N1986 C1988 1.338 . S
C1987 N1986 1.369 . S
C1987 C1991 1.415 . S
C1987 C1994 1.422 . S
C1988 H1979 0.929 . S
C1988 N1986 1.338 . S
C1988 C1990 1.378 . S
C1989 H1984 0.931 . S
C1989 C1990 1.348 . S
C1989 C1991 1.413 . S
C1990 H1985 0.930 . S
C1990 C1988 1.378 . S
C1990 C1989 1.348 . S
C1991 C1987 1.415 . S
C1991 C1989 1.413 . S
C1991 C2021 1.437 . S
H1992 C2021 0.929 . S
N1993 Gd1966 2.570 . S
N1993 C1994 1.359 . S
N1993 C1997 1.343 . S
C1994 C1987 1.422 . S
C1994 N1993 1.359 . S
C1994 C1996 1.421 . S
C1995 C1996 1.422 . S
C1995 C1998 1.321 . S
C1995 H2022 0.931 . S
C1996 C1994 1.421 . S
C1996 C1995 1.422 . S
C1996 C2020 1.417 . S
C1997 H1974 0.931 . S
C1997 N1993 1.343 . S
C1997 C1998 1.390 . S
C1998 H1976 0.930 . S
C1998 C1995 1.321 . S
C1998 C1997 1.390 . S
O1999 Gd1967 2.386 . S
O1999 C2011 1.265 . S
O2000 Gd1966 2.353 . S
O2000 C2011 1.242 . S
O2001 Gd1966 2.468 . S
O2001 C2019 1.263 . S
O2002 Gd1966 2.427 . S
O2002 C2019 1.252 . S
O2003 Gd1967 2.307 . S
O2003 C2012 1.261 . S
O2004 Gd1966 2.388 . S
O2004 C2012 1.252 . S
O2005 Gd1966 2.386 . S
O2005 C2023 1.265 . S
O2006 Gd1967 2.353 . S
O2006 C2023 1.242 . S
O2007 Gd1967 2.468 . S
O2007 C2031 1.263 . S
O2008 Gd1967 2.427 . S
O2008 C2031 1.252 . S
O2009 Gd1966 2.307 . S
O2009 C2024 1.261 . S
O2010 Gd1967 2.388 . S
O2010 C2024 1.252 . S
C2011 O1999 1.265 . S
C2011 O2000 1.242 . S
C2012 O2003 1.261 . S
C2012 O2004 1.252 . S
C2013 C2016 1.394 . S
C2013 C2018 1.370 . S
C2013 C2019 1.500 . S
C2014 C2017 1.383 . S
C2014 C2018 1.395 . S
C2015 C2016 1.396 . S
C2015 C2017 1.365 . S
C2015 H2032 0.929 . S
C2016 C2013 1.394 . S
C2016 C2015 1.396 . S
C2016 H2033 0.930 . S
C2017 C2014 1.383 . S
C2017 C2015 1.365 . S
C2017 H2034 0.931 . S
C2018 C2013 1.370 . S
C2018 C2014 1.395 . S
C2018 H2035 0.930 . S
C2019 Gd1966 2.805 . S
C2019 O2001 1.263 . S
C2019 O2002 1.252 . S
C2019 C2013 1.500 . S
C2020 H1982 0.930 . S
C2020 C1996 1.417 . S
C2020 C2021 1.329 . S
C2021 C1991 1.437 . S
C2021 H1992 0.929 . S
C2021 C2020 1.329 . S
H2022 C1995 0.931 . S
C2023 O2005 1.265 . S
C2023 O2006 1.242 . S
C2024 O2009 1.261 . S
C2024 O2010 1.252 . S
C2025 C2028 1.394 . S
C2025 C2030 1.370 . S
C2025 C2031 1.500 . S
C2026 C2029 1.383 . S
C2026 C2030 1.395 . S
C2027 C2028 1.396 . S
C2027 C2029 1.365 . S
C2027 H2036 0.929 . S
C2028 C2025 1.394 . S
C2028 C2027 1.396 . S
C2028 H2037 0.930 . S
C2029 C2026 1.383 . S
C2029 C2027 1.365 . S
C2029 H2038 0.931 . S
C2030 C2025 1.370 . S
C2030 C2026 1.395 . S
C2030 H2039 0.930 . S
C2031 Gd1967 2.805 . S
C2031 O2007 1.263 . S
C2031 O2008 1.252 . S
C2031 C2025 1.500 . S
H2032 C2015 0.929 . S
H2033 C2016 0.930 . S
H2034 C2017 0.931 . S
H2035 C2018 0.930 . S
H2036 C2027 0.929 . S
H2037 C2028 0.930 . S
H2038 C2029 0.931 . S
H2039 C2030 0.930 . S
C2040 C2042 1.422 . S
C2040 C2044 1.415 . S
C2040 N2046 1.369 . S
C2041 C2042 1.421 . S
C2041 C2043 1.417 . S
C2041 C2053 1.422 . S
C2042 C2040 1.422 . S
C2042 C2041 1.421 . S
C2042 N2052 1.359 . S
C2043 C2041 1.417 . S
C2043 C2045 1.329 . S
C2043 H2062 0.930 . S
C2044 C2040 1.415 . S
C2044 C2045 1.437 . S
C2044 C2048 1.413 . S
C2045 C2043 1.329 . S
C2045 C2044 1.437 . S
C2045 H2067 0.929 . S
N2046 C2040 1.369 . S
N2046 C2047 1.338 . S
N2046 Gd2051 2.622 . S
C2047 N2046 1.338 . S
C2047 C2049 1.378 . S
C2047 H2059 0.929 . S
C2048 C2044 1.413 . S
C2048 C2049 1.348 . S
C2048 H2064 0.931 . S
C2049 C2047 1.378 . S
C2049 C2048 1.348 . S
C2049 H2065 0.930 . S
Gd2050 N2070 2.622 . S
Gd2050 N2077 2.570 . S
Gd2050 O2084 2.353 . S
Gd2050 O2085 2.468 . S
Gd2050 O2086 2.427 . S
Gd2050 O2088 2.388 . S
Gd2050 O2089 2.386 . S
Gd2050 O2093 2.307 . S
Gd2050 C2103 2.805 . S
Gd2051 N2046 2.622 . S
Gd2051 N2052 2.570 . S
Gd2051 O2083 2.386 . S
Gd2051 O2087 2.307 . S
Gd2051 O2090 2.353 . S
Gd2051 O2091 2.468 . S
Gd2051 O2092 2.427 . S
Gd2051 O2094 2.388 . S
Gd2051 C2115 2.805 . S
N2052 C2042 1.359 . S
N2052 Gd2051 2.570 . S
N2052 C2054 1.343 . S
C2053 C2041 1.422 . S
C2053 C2055 1.321 . S
C2053 H2061 0.931 . S
C2054 N2052 1.343 . S
C2054 C2055 1.390 . S
C2054 H2056 0.931 . S
C2055 C2053 1.321 . S
C2055 C2054 1.390 . S
C2055 H2057 0.930 . S
H2056 C2054 0.931 . S
H2057 C2055 0.930 . S
H2058 C2081 0.931 . S
H2059 C2047 0.929 . S
H2060 C2082 0.930 . S
H2061 C2053 0.931 . S
H2062 C2043 0.930 . S
H2063 C2072 0.929 . S
H2064 C2048 0.931 . S
H2065 C2049 0.930 . S
H2066 C2104 0.930 . S
H2067 C2045 0.929 . S
H2068 C2073 0.931 . S
H2069 C2074 0.930 . S
N2070 Gd2050 2.622 . S
N2070 C2071 1.369 . S
N2070 C2072 1.338 . S
C2071 N2070 1.369 . S
C2071 C2075 1.415 . S
C2071 C2078 1.422 . S
C2072 H2063 0.929 . S
C2072 N2070 1.338 . S
C2072 C2074 1.378 . S
C2073 H2068 0.931 . S
C2073 C2074 1.348 . S
C2073 C2075 1.413 . S
C2074 H2069 0.930 . S
C2074 C2072 1.378 . S
C2074 C2073 1.348 . S
C2075 C2071 1.415 . S
C2075 C2073 1.413 . S
C2075 C2105 1.437 . S
H2076 C2105 0.929 . S
N2077 Gd2050 2.570 . S
N2077 C2078 1.359 . S
N2077 C2081 1.343 . S
C2078 C2071 1.422 . S
C2078 N2077 1.359 . S
C2078 C2080 1.421 . S
C2079 C2080 1.422 . S
C2079 C2082 1.321 . S
C2079 H2106 0.931 . S
C2080 C2078 1.421 . S
C2080 C2079 1.422 . S
C2080 C2104 1.417 . S
C2081 H2058 0.931 . S
C2081 N2077 1.343 . S
C2081 C2082 1.390 . S
C2082 H2060 0.930 . S
C2082 C2079 1.321 . S
C2082 C2081 1.390 . S
O2083 Gd2051 2.386 . S
O2083 C2095 1.265 . S
O2084 Gd2050 2.353 . S
O2084 C2095 1.242 . S
O2085 Gd2050 2.468 . S
O2085 C2103 1.263 . S
O2086 Gd2050 2.427 . S
O2086 C2103 1.252 . S
O2087 Gd2051 2.307 . S
O2087 C2096 1.261 . S
O2088 Gd2050 2.388 . S
O2088 C2096 1.252 . S
O2089 Gd2050 2.386 . S
O2089 C2107 1.265 . S
O2090 Gd2051 2.353 . S
O2090 C2107 1.242 . S
O2091 Gd2051 2.468 . S
O2091 C2115 1.263 . S
O2092 Gd2051 2.427 . S
O2092 C2115 1.252 . S
O2093 Gd2050 2.307 . S
O2093 C2108 1.261 . S
O2094 Gd2051 2.388 . S
O2094 C2108 1.252 . S
C2095 O2083 1.265 . S
C2095 O2084 1.242 . S
C2096 O2087 1.261 . S
C2096 O2088 1.252 . S
C2097 C2100 1.394 . S
C2097 C2102 1.370 . S
C2097 C2103 1.500 . S
C2098 C2101 1.383 . S
C2098 C2102 1.395 . S
C2099 C2100 1.396 . S
C2099 C2101 1.365 . S
C2099 H2116 0.929 . S
C2100 C2097 1.394 . S
C2100 C2099 1.396 . S
C2100 H2117 0.930 . S
C2101 C2098 1.383 . S
C2101 C2099 1.365 . S
C2101 H2118 0.931 . S
C2102 C2097 1.370 . S
C2102 C2098 1.395 . S
C2102 H2119 0.930 . S
C2103 Gd2050 2.805 . S
C2103 O2085 1.263 . S
C2103 O2086 1.252 . S
C2103 C2097 1.500 . S
C2104 H2066 0.930 . S
C2104 C2080 1.417 . S
C2104 C2105 1.329 . S
C2105 C2075 1.437 . S
C2105 H2076 0.929 . S
C2105 C2104 1.329 . S
H2106 C2079 0.931 . S
C2107 O2089 1.265 . S
C2107 O2090 1.242 . S
C2108 O2093 1.261 . S
C2108 O2094 1.252 . S
C2109 C2112 1.394 . S
C2109 C2114 1.370 . S
C2109 C2115 1.500 . S
C2110 C2113 1.383 . S
C2110 C2114 1.395 . S
C2111 C2112 1.396 . S
C2111 C2113 1.365 . S
C2111 H2120 0.929 . S
C2112 C2109 1.394 . S
C2112 C2111 1.396 . S
C2112 H2121 0.930 . S
C2113 C2110 1.383 . S
C2113 C2111 1.365 . S
C2113 H2122 0.931 . S
C2114 C2109 1.370 . S
C2114 C2110 1.395 . S
C2114 H2123 0.930 . S
C2115 Gd2051 2.805 . S
C2115 O2091 1.263 . S
C2115 O2092 1.252 . S
C2115 C2109 1.500 . S
H2116 C2099 0.929 . S
H2117 C2100 0.930 . S
H2118 C2101 0.931 . S
H2119 C2102 0.930 . S
H2120 C2111 0.929 . S
H2121 C2112 0.930 . S
H2122 C2113 0.931 . S
H2123 C2114 0.930 . S
C2124 C2126 1.422 1_556 S
C2124 C2128 1.415 . S
C2124 N2130 1.369 . S
C2125 C2126 1.421 . S
C2125 C2127 1.417 . S
C2125 C2137 1.422 . S
C2126 C2124 1.422 1_554 S
C2126 C2125 1.421 . S
C2126 N2136 1.359 . S
C2127 C2125 1.417 . S
C2127 C2129 1.329 1_554 S
C2127 H2146 0.930 . S
C2128 C2124 1.415 . S
C2128 C2129 1.437 . S
C2128 C2132 1.413 . S
C2129 C2127 1.329 1_556 S
C2129 C2128 1.437 . S
C2129 H2151 0.929 . S
N2130 C2124 1.369 . S
N2130 C2131 1.338 . S
N2130 Gd2135 2.622 1_556 S
C2131 N2130 1.338 . S
C2131 C2133 1.378 . S
C2131 H2143 0.929 . S
C2132 C2128 1.413 . S
C2132 C2133 1.348 . S
C2132 H2148 0.931 . S
C2133 C2131 1.378 . S
C2133 C2132 1.348 . S
C2133 H2149 0.930 . S
Gd2134 N2154 2.610 1_455 S
Gd2134 N2161 2.544 1_455 S
Gd2134 O2168 2.366 . S
Gd2134 O2169 2.433 1_455 S
Gd2134 O2170 2.398 1_455 S
Gd2134 O2172 2.416 . S
Gd2134 O2173 2.409 . S
Gd2134 O2177 2.316 . S
Gd2134 C2187 2.769 1_455 S
Gd2135 N2130 2.622 1_554 S
Gd2135 N2136 2.570 . S
Gd2135 O2167 2.386 . S
Gd2135 O2171 2.307 . S
Gd2135 O2174 2.353 . S
Gd2135 O2175 2.468 . S
Gd2135 O2176 2.427 1_554 S
Gd2135 O2178 2.388 1_554 S
Gd2135 C2199 2.805 . S
N2136 C2126 1.359 . S
N2136 Gd2135 2.570 . S
N2136 C2138 1.343 . S
C2137 C2125 1.422 . S
C2137 C2139 1.321 . S
C2137 H2145 0.931 . S
C2138 N2136 1.343 . S
C2138 C2139 1.390 . S
C2138 H2140 0.931 . S
C2139 C2137 1.321 . S
C2139 C2138 1.390 . S
C2139 H2141 0.930 . S
H2140 C2138 0.931 . S
H2141 C2139 0.930 . S
H2142 C2165 0.931 1_556 S
H2143 C2131 0.929 . S
H2144 C2166 0.930 . S
H2145 C2137 0.931 . S
H2146 C2127 0.930 . S
H2147 C2156 0.929 1_455 S
H2148 C2132 0.931 . S
H2149 C2133 0.930 . S
H2150 C2188 0.930 . S
H2151 C2129 0.929 . S
H2152 C2157 0.931 . S
H2153 C2158 0.930 . S
N2154 Gd2134 2.610 1_655 S
N2154 C2155 1.369 . S
N2154 C2156 1.338 . S
C2155 N2154 1.369 . S
C2155 C2159 1.415 . S
C2155 C2162 1.422 . S
C2156 H2147 0.929 1_655 S
C2156 N2154 1.338 . S
C2156 C2158 1.378 . S
C2157 H2152 0.931 . S
C2157 C2158 1.348 . S
C2157 C2159 1.413 . S
C2158 H2153 0.930 . S
C2158 C2156 1.378 . S
C2158 C2157 1.348 . S
C2159 C2155 1.415 . S
C2159 C2157 1.413 . S
C2159 C2189 1.437 . S
H2160 C2189 0.929 . S
N2161 Gd2134 2.544 1_655 S
N2161 C2162 1.359 . S
N2161 C2165 1.343 . S
C2162 C2155 1.422 . S
C2162 N2161 1.359 . S
C2162 C2164 1.421 . S
C2163 C2164 1.422 . S
C2163 C2166 1.321 1_554 S
C2163 H2190 0.931 . S
C2164 C2162 1.421 . S
C2164 C2163 1.422 . S
C2164 C2188 1.417 . S
C2165 H2142 0.931 1_554 S
C2165 N2161 1.343 . S
C2165 C2166 1.390 1_554 S
C2166 H2144 0.930 . S
C2166 C2163 1.321 1_556 S
C2166 C2165 1.390 1_556 S
O2167 Gd2135 2.386 . S
O2167 C2179 1.265 . S
O2168 Gd2134 2.366 . S
O2168 C2179 1.242 . S
O2169 Gd2134 2.433 1_655 S
O2169 C2187 1.263 . S
O2170 Gd2134 2.398 1_655 S
O2170 C2187 1.252 . S
O2171 Gd2135 2.307 . S
O2171 C2180 1.261 . S
O2172 Gd2134 2.416 . S
O2172 C2180 1.252 . S
O2173 Gd2134 2.409 . S
O2173 C2191 1.265 . S
O2174 Gd2135 2.353 . S
O2174 C2191 1.242 . S
O2175 Gd2135 2.468 . S
O2175 C2199 1.263 . S
O2176 Gd2135 2.427 1_556 S
O2176 C2199 1.252 1_556 S
O2177 Gd2134 2.316 . S
O2177 C2192 1.261 1_554 S
O2178 Gd2135 2.388 1_556 S
O2178 C2192 1.252 . S
C2179 O2167 1.265 . S
C2179 O2168 1.242 . S
C2180 O2171 1.261 . S
C2180 O2172 1.252 . S
C2181 C2184 1.394 . S
C2181 C2186 1.370 . S
C2181 C2187 1.500 . S
C2182 C2185 1.383 . S
C2182 C2186 1.395 . S
C2183 C2184 1.396 . S
C2183 C2185 1.365 . S
C2183 H2200 0.929 . S
C2184 C2181 1.394 . S
C2184 C2183 1.396 . S
C2184 H2201 0.930 . S
C2185 C2182 1.383 . S
C2185 C2183 1.365 . S
C2185 H2202 0.931 . S
C2186 C2181 1.370 . S
C2186 C2182 1.395 . S
C2186 H2203 0.930 . S
C2187 Gd2134 2.769 1_655 S
C2187 O2169 1.263 . S
C2187 O2170 1.252 . S
C2187 C2181 1.500 . S
C2188 H2150 0.930 . S
C2188 C2164 1.417 . S
C2188 C2189 1.329 . S
C2189 C2159 1.437 . S
C2189 H2160 0.929 . S
C2189 C2188 1.329 . S
H2190 C2163 0.931 . S
C2191 O2173 1.265 . S
C2191 O2174 1.242 . S
C2192 O2177 1.261 1_556 S
C2192 O2178 1.252 . S
C2193 C2196 1.394 . S
C2193 C2198 1.370 1_556 S
C2193 C2199 1.500 1_556 S
C2194 C2197 1.383 1_554 S
C2194 C2198 1.395 . S
C2195 C2196 1.396 . S
C2195 C2197 1.365 . S
C2195 H2204 0.929 . S
C2196 C2193 1.394 . S
C2196 C2195 1.396 . S
C2196 H2205 0.930 . S
C2197 C2194 1.383 1_556 S
C2197 C2195 1.365 . S
C2197 H2206 0.931 . S
C2198 C2193 1.370 1_554 S
C2198 C2194 1.395 . S
C2198 H2207 0.930 . S
C2199 Gd2135 2.805 . S
C2199 O2175 1.263 . S
C2199 O2176 1.252 1_554 S
C2199 C2193 1.500 1_554 S
H2200 C2183 0.929 . S
H2201 C2184 0.930 . S
H2202 C2185 0.931 . S
H2203 C2186 0.930 . S
H2204 C2195 0.929 . S
H2205 C2196 0.930 . S
H2206 C2197 0.931 . S
H2207 C2198 0.930 . S
H2208 C2226 0.951 . S
H2209 C2228 0.951 . S
H2210 C2230 0.950 . S
H2211 C2231 0.950 . S
H2212 C2233 0.950 . S
H2213 C2236 0.950 . S
H2214 C2237 0.950 . S
H2215 C2239 0.950 . S
H2216 C2240 0.950 . S
H2217 C2241 0.951 . S
H2218 C2243 0.951 . S
H2219 C2245 0.950 . S
H2220 C2246 0.950 . S
H2221 C2248 0.950 1_554 S
H2222 C2251 0.950 . S
H2223 C2252 0.950 . S
H2224 C2254 0.950 . S
H2225 C2255 0.950 . S
C2226 H2208 0.951 . S
C2226 C2227 1.366 1_455 S
C2226 C2228 1.388 . S
C2227 C2226 1.366 1_655 S
C2227 C2231 1.385 . S
C2228 H2209 0.951 . S
C2228 C2226 1.388 . S
C2228 C2229 1.366 . S
C2229 C2228 1.366 . S
C2229 C2230 1.414 1_455 S
C2229 C2232 1.499 . S
C2230 H2210 0.950 . S
C2230 C2229 1.414 1_655 S
C2230 C2231 1.374 . S
C2231 H2211 0.950 . S
C2231 C2227 1.385 . S
C2231 C2230 1.374 . S
C2232 C2229 1.499 . S
C2232 C2233 1.373 1_455 S
C2232 C2234 1.389 . S
C2233 H2212 0.950 . S
C2233 C2232 1.373 1_655 S
C2233 C2249 1.377 . S
C2234 C2232 1.389 . S
C2234 C2235 1.524 . S
C2234 C2248 1.377 . S
C2235 C2234 1.524 . S
C2235 C2236 1.397 . S
C2235 C2240 1.363 1_556 S
C2236 H2213 0.950 . S
C2236 C2235 1.397 . S
C2236 C2237 1.334 . S
C2237 H2214 0.950 . S
C2237 C2236 1.334 . S
C2237 C2238 1.229 1_556 S
C2238 C2237 1.229 1_554 S
C2238 C2239 1.581 . S
C2238 H2257 0.919 . S
C2239 H2215 0.950 . S
C2239 C2238 1.581 . S
C2239 C2240 1.415 . S
C2240 H2216 0.950 . S
C2240 C2235 1.363 1_554 S
C2240 C2239 1.415 . S
C2241 H2217 0.951 . S
C2241 C2242 1.366 1_556 S
C2241 C2243 1.388 . S
C2242 C2241 1.366 1_554 S
C2242 C2246 1.385 . S
C2243 H2218 0.951 . S
C2243 C2241 1.388 . S
C2243 C2244 1.366 . S
C2244 C2243 1.366 . S
C2244 C2245 1.414 1_556 S
C2244 C2247 1.499 . S
C2245 H2219 0.950 . S
C2245 C2244 1.414 1_554 S
C2245 C2246 1.374 . S
C2246 H2220 0.950 . S
C2246 C2242 1.385 . S
C2246 C2245 1.374 . S
C2247 C2244 1.499 . S
C2247 C2248 1.373 . S
C2247 C2249 1.389 1_455 S
C2248 H2221 0.950 1_556 S
C2248 C2234 1.377 . S
C2248 C2247 1.373 . S
C2249 C2233 1.377 . S
C2249 C2247 1.389 1_655 S
C2249 C2250 1.524 . S
C2250 C2249 1.524 . S
C2250 C2251 1.397 . S
C2250 C2255 1.363 . S
C2251 H2222 0.950 . S
C2251 C2250 1.397 . S
C2251 C2252 1.334 . S
C2252 H2223 0.950 . S
C2252 C2251 1.334 . S
C2252 C2253 1.287 . S
C2253 C2252 1.287 . S
C2253 C2254 1.524 . S
C2253 H2256 0.999 . S
C2254 H2224 0.950 . S
C2254 C2253 1.524 . S
C2254 C2255 1.415 . S
C2255 H2225 0.950 . S
C2255 C2250 1.363 . S
C2255 C2254 1.415 . S
H2256 C2253 0.999 . S
H2257 C2238 0.919 . S
H2258 C2276 0.951 . S
H2259 C2278 0.951 . S
H2260 C2280 0.950 . S
H2261 C2281 0.950 . S
H2262 C2283 0.950 . S
H2263 C2286 0.950 . S
H2264 C2287 0.950 . S
H2265 C2289 0.950 . S
H2266 C2290 0.950 . S
H2267 C2291 0.951 . S
H2268 C2293 0.951 . S
H2269 C2295 0.950 . S
H2270 C2296 0.950 . S
H2271 C2298 0.950 . S
H2272 C2301 0.950 . S
H2273 C2302 0.950 . S
H2274 C2304 0.950 . S
H2275 C2305 0.950 . S
C2276 H2258 0.951 . S
C2276 C2277 1.366 . S
C2276 C2278 1.388 . S
C2277 C2276 1.366 . S
C2277 C2281 1.385 . S
C2278 H2259 0.951 . S
C2278 C2276 1.388 . S
C2278 C2279 1.366 . S
C2279 C2278 1.366 . S
C2279 C2280 1.414 . S
C2279 C2282 1.499 . S
C2280 H2260 0.950 . S
C2280 C2279 1.414 . S
C2280 C2281 1.374 . S
C2281 H2261 0.950 . S
C2281 C2277 1.385 . S
C2281 C2280 1.374 . S
C2282 C2279 1.499 . S
C2282 C2283 1.373 . S
C2282 C2284 1.389 . S
C2283 H2262 0.950 . S
C2283 C2282 1.373 . S
C2283 C2299 1.377 . S
C2284 C2282 1.389 . S
C2284 C2285 1.524 . S
C2284 C2298 1.377 . S
C2285 C2284 1.524 . S
C2285 C2286 1.397 . S
C2285 C2290 1.363 . S
C2286 H2263 0.950 . S
C2286 C2285 1.397 . S
C2286 C2287 1.334 . S
C2287 H2264 0.950 . S
C2287 C2286 1.334 . S
C2287 C2288 1.287 . S
C2288 C2287 1.287 . S
C2288 C2289 1.524 . S
C2288 H2307 0.913 . S
C2289 H2265 0.950 . S
C2289 C2288 1.524 . S
C2289 C2290 1.415 . S
C2290 H2266 0.950 . S
C2290 C2285 1.363 . S
C2290 C2289 1.415 . S
C2291 H2267 0.951 . S
C2291 C2292 1.366 . S
C2291 C2293 1.388 . S
C2292 C2291 1.366 . S
C2292 C2296 1.385 . S
C2293 H2268 0.951 . S
C2293 C2291 1.388 . S
C2293 C2294 1.366 . S
C2294 C2293 1.366 . S
C2294 C2295 1.414 . S
C2294 C2297 1.499 . S
C2295 H2269 0.950 . S
C2295 C2294 1.414 . S
C2295 C2296 1.374 . S
C2296 H2270 0.950 . S
C2296 C2292 1.385 . S
C2296 C2295 1.374 . S
C2297 C2294 1.499 . S
C2297 C2298 1.373 . S
C2297 C2299 1.389 . S
C2298 H2271 0.950 . S
C2298 C2284 1.377 . S
C2298 C2297 1.373 . S
C2299 C2283 1.377 . S
C2299 C2297 1.389 . S
C2299 C2300 1.524 . S
C2300 C2299 1.524 . S
C2300 C2301 1.397 . S
C2300 C2305 1.363 . S
C2301 H2272 0.950 . S
C2301 C2300 1.397 . S
C2301 C2302 1.334 . S
C2302 H2273 0.950 . S
C2302 C2301 1.334 . S
C2302 C2303 1.287 . S
C2303 C2302 1.287 . S
C2303 C2304 1.524 . S
C2303 H2306 0.999 . S
C2304 H2274 0.950 . S
C2304 C2303 1.524 . S
C2304 C2305 1.415 . S
C2305 H2275 0.950 . S
C2305 C2300 1.363 . S
C2305 C2304 1.415 . S
H2306 C2303 0.999 . S
H2307 C2288 0.913 . S
H2308 C2326 0.951 . S
H2309 C2328 0.951 . S
H2310 C2330 0.950 . S
H2311 C2331 0.950 . S
H2312 C2333 0.950 . S
H2313 C2336 0.950 . S
H2314 C2337 0.950 . S
H2315 C2339 0.950 . S
H2316 C2340 0.950 . S
H2317 C2341 0.951 . S
H2318 C2343 0.951 . S
H2319 C2345 0.950 . S
H2320 C2346 0.950 . S
H2321 C2348 0.950 . S
H2322 C2351 0.950 . S
H2323 C2352 0.950 . S
H2324 C2354 0.950 . S
H2325 C2355 0.950 . S
C2326 H2308 0.951 . S
C2326 C2327 1.366 . S
C2326 C2328 1.388 . S
C2327 C2326 1.366 . S
C2327 C2331 1.385 . S
C2328 H2309 0.951 . S
C2328 C2326 1.388 . S
C2328 C2329 1.366 . S
C2329 C2328 1.366 . S
C2329 C2330 1.414 . S
C2329 C2332 1.499 . S
C2330 H2310 0.950 . S
C2330 C2329 1.414 . S
C2330 C2331 1.374 . S
C2331 H2311 0.950 . S
C2331 C2327 1.385 . S
C2331 C2330 1.374 . S
C2332 C2329 1.499 . S
C2332 C2333 1.373 . S
C2332 C2334 1.389 . S
C2333 H2312 0.950 . S
C2333 C2332 1.373 . S
C2333 C2349 1.377 . S
C2334 C2332 1.389 . S
C2334 C2335 1.524 . S
C2334 C2348 1.377 . S
C2335 C2334 1.524 . S
C2335 C2336 1.397 . S
C2335 C2340 1.363 . S
C2336 H2313 0.950 . S
C2336 C2335 1.397 . S
C2336 C2337 1.334 . S
C2337 H2314 0.950 . S
C2337 C2336 1.334 . S
C2337 C2338 1.287 . S
C2338 C2337 1.287 . S
C2338 C2339 1.524 . S
C2338 H2357 0.913 . S
C2339 H2315 0.950 . S
C2339 C2338 1.524 . S
C2339 C2340 1.415 . S
C2340 H2316 0.950 . S
C2340 C2335 1.363 . S
C2340 C2339 1.415 . S
C2341 H2317 0.951 . S
C2341 C2342 1.366 . S
C2341 C2343 1.388 . S
C2342 C2341 1.366 . S
C2342 C2346 1.385 . S
C2343 H2318 0.951 . S
C2343 C2341 1.388 . S
C2343 C2344 1.366 . S
C2344 C2343 1.366 . S
C2344 C2345 1.414 . S
C2344 C2347 1.499 . S
C2345 H2319 0.950 . S
C2345 C2344 1.414 . S
C2345 C2346 1.374 . S
C2346 H2320 0.950 . S
C2346 C2342 1.385 . S
C2346 C2345 1.374 . S
C2347 C2344 1.499 . S
C2347 C2348 1.373 . S
C2347 C2349 1.389 . S
C2348 H2321 0.950 . S
C2348 C2334 1.377 . S
C2348 C2347 1.373 . S
C2349 C2333 1.377 . S
C2349 C2347 1.389 . S
C2349 C2350 1.524 . S
C2350 C2349 1.524 . S
C2350 C2351 1.397 . S
C2350 C2355 1.363 . S
C2351 H2322 0.950 . S
C2351 C2350 1.397 . S
C2351 C2352 1.334 . S
C2352 H2323 0.950 . S
C2352 C2351 1.334 . S
C2352 C2353 1.287 . S
C2353 C2352 1.287 . S
C2353 C2354 1.524 . S
C2353 H2356 0.999 . S
C2354 H2324 0.950 . S
C2354 C2353 1.524 . S
C2354 C2355 1.415 . S
C2355 H2325 0.950 . S
C2355 C2350 1.363 . S
C2355 C2354 1.415 . S
H2356 C2353 0.999 . S
H2357 C2338 0.913 . S
H2358 C2376 0.951 . S
H2359 C2378 0.951 . S
H2360 C2380 0.950 . S
H2361 C2381 0.950 . S
H2362 C2383 0.950 . S
H2363 C2386 0.950 . S
H2364 C2387 0.950 . S
H2365 C2389 0.950 . S
H2366 C2390 0.950 . S
H2367 C2391 0.951 . S
H2368 C2393 0.951 . S
H2369 C2395 0.950 . S
H2370 C2396 0.950 . S
H2371 C2398 0.950 . S
H2372 C2401 0.950 . S
H2373 C2402 0.950 . S
H2374 C2404 0.950 . S
H2375 C2405 0.950 . S
C2376 H2358 0.951 . S
C2376 C2377 1.366 . S
C2376 C2378 1.388 . S
C2377 C2376 1.366 . S
C2377 C2381 1.385 . S
C2378 H2359 0.951 . S
C2378 C2376 1.388 . S
C2378 C2379 1.366 . S
C2379 C2378 1.366 . S
C2379 C2380 1.414 . S
C2379 C2382 1.499 . S
C2380 H2360 0.950 . S
C2380 C2379 1.414 . S
C2380 C2381 1.374 . S
C2381 H2361 0.950 . S
C2381 C2377 1.385 . S
C2381 C2380 1.374 . S
C2382 C2379 1.499 . S
C2382 C2383 1.373 . S
C2382 C2384 1.389 . S
C2383 H2362 0.950 . S
C2383 C2382 1.373 . S
C2383 C2399 1.377 . S
C2384 C2382 1.389 . S
C2384 C2385 1.524 . S
C2384 C2398 1.377 . S
C2385 C2384 1.524 . S
C2385 C2386 1.397 . S
C2385 C2390 1.363 . S
C2386 H2363 0.950 . S
C2386 C2385 1.397 . S
C2386 C2387 1.334 . S
C2387 H2364 0.950 . S
C2387 C2386 1.334 . S
C2387 C2388 1.287 . S
C2388 C2387 1.287 . S
C2388 C2389 1.524 . S
C2388 H2407 0.913 . S
C2389 H2365 0.950 . S
C2389 C2388 1.524 . S
C2389 C2390 1.415 . S
C2390 H2366 0.950 . S
C2390 C2385 1.363 . S
C2390 C2389 1.415 . S
C2391 H2367 0.951 . S
C2391 C2392 1.366 . S
C2391 C2393 1.388 . S
C2392 C2391 1.366 . S
C2392 C2396 1.385 . S
C2393 H2368 0.951 . S
C2393 C2391 1.388 . S
C2393 C2394 1.366 . S
C2394 C2393 1.366 . S
C2394 C2395 1.414 . S
C2394 C2397 1.499 . S
C2395 H2369 0.950 . S
C2395 C2394 1.414 . S
C2395 C2396 1.374 . S
C2396 H2370 0.950 . S
C2396 C2392 1.385 . S
C2396 C2395 1.374 . S
C2397 C2394 1.499 . S
C2397 C2398 1.373 . S
C2397 C2399 1.389 . S
C2398 H2371 0.950 . S
C2398 C2384 1.377 . S
C2398 C2397 1.373 . S
C2399 C2383 1.377 . S
C2399 C2397 1.389 . S
C2399 C2400 1.524 . S
C2400 C2399 1.524 . S
C2400 C2401 1.397 . S
C2400 C2405 1.363 . S
C2401 H2372 0.950 . S
C2401 C2400 1.397 . S
C2401 C2402 1.334 . S
C2402 H2373 0.950 . S
C2402 C2401 1.334 . S
C2402 C2403 1.287 . S
C2403 C2402 1.287 . S
C2403 C2404 1.524 . S
C2403 H2406 0.999 . S
C2404 H2374 0.950 . S
C2404 C2403 1.524 . S
C2404 C2405 1.415 . S
C2405 H2375 0.950 . S
C2405 C2400 1.363 . S
C2405 C2404 1.415 . S
H2406 C2403 0.999 . S
H2407 C2388 0.913 . S
H2408 C2426 0.951 . S
H2409 C2428 0.951 . S
H2410 C2430 0.950 . S
H2411 C2431 0.950 . S
H2412 C2433 0.950 1_655 S
H2413 C2436 0.950 . S
H2414 C2437 0.950 . S
H2415 C2439 0.950 . S
H2416 C2440 0.950 . S
H2417 C2441 0.951 . S
H2418 C2443 0.951 . S
H2419 C2445 0.950 . S
H2420 C2446 0.950 . S
H2421 C2448 0.950 . S
H2422 C2451 0.950 . S
H2423 C2452 0.950 . S
H2424 C2454 0.950 . S
H2425 C2455 0.950 . S
C2426 H2408 0.951 . S
C2426 C2427 1.366 . S
C2426 C2428 1.388 . S
C2427 C2426 1.366 . S
C2427 C2431 1.385 . S
C2428 H2409 0.951 . S
C2428 C2426 1.388 . S
C2428 C2429 1.366 . S
C2429 C2428 1.366 . S
C2429 C2430 1.414 . S
C2429 C2432 1.499 . S
C2430 H2410 0.950 . S
C2430 C2429 1.414 . S
C2430 C2431 1.374 . S
C2431 H2411 0.950 . S
C2431 C2427 1.385 . S
C2431 C2430 1.374 . S
C2432 C2429 1.499 . S
C2432 C2433 1.373 . S
C2432 C2434 1.389 . S
C2433 H2412 0.950 1_455 S
C2433 C2432 1.373 . S
C2433 C2449 1.377 . S
C2434 C2432 1.389 . S
C2434 C2435 1.524 . S
C2434 C2448 1.377 . S
C2435 C2434 1.524 . S
C2435 C2436 1.397 . S
C2435 C2440 1.363 . S
C2436 H2413 0.950 . S
C2436 C2435 1.397 . S
C2436 C2437 1.334 . S
C2437 H2414 0.950 . S
C2437 C2436 1.334 . S
C2437 C2438 1.287 . S
C2438 C2437 1.287 . S
C2438 C2439 1.524 . S
C2438 H2457 0.913 . S
C2439 H2415 0.950 . S
C2439 C2438 1.524 . S
C2439 C2440 1.415 . S
C2440 H2416 0.950 . S
C2440 C2435 1.363 . S
C2440 C2439 1.415 . S
C2441 H2417 0.951 . S
C2441 C2442 1.366 . S
C2441 C2443 1.388 . S
C2442 C2441 1.366 . S
C2442 C2446 1.385 . S
C2443 H2418 0.951 . S
C2443 C2441 1.388 . S
C2443 C2444 1.366 . S
C2444 C2443 1.366 . S
C2444 C2445 1.414 . S
C2444 C2447 1.499 . S
C2445 H2419 0.950 . S
C2445 C2444 1.414 . S
C2445 C2446 1.374 . S
C2446 H2420 0.950 . S
C2446 C2442 1.385 . S
C2446 C2445 1.374 . S
C2447 C2444 1.499 . S
C2447 C2448 1.373 . S
C2447 C2449 1.389 . S
C2448 H2421 0.950 . S
C2448 C2434 1.377 . S
C2448 C2447 1.373 . S
C2449 C2433 1.377 . S
C2449 C2447 1.389 . S
C2449 C2450 1.524 1_455 S
C2450 C2449 1.524 1_655 S
C2450 C2451 1.397 . S
C2450 C2455 1.363 . S
C2451 H2422 0.950 . S
C2451 C2450 1.397 . S
C2451 C2452 1.334 . S
C2452 H2423 0.950 . S
C2452 C2451 1.334 . S
C2452 C2453 1.287 . S
C2453 C2452 1.287 . S
C2453 C2454 1.524 . S
C2453 H2456 0.999 . S
C2454 H2424 0.950 . S
C2454 C2453 1.524 . S
C2454 C2455 1.415 . S
C2455 H2425 0.950 . S
C2455 C2450 1.363 . S
C2455 C2454 1.415 . S
H2456 C2453 0.999 . S
H2457 C2438 0.913 . S
H2458 C2476 0.951 . S
H2459 C2478 0.951 . S
H2460 C2480 0.950 . S
H2461 C2481 0.950 . S
H2462 C2483 0.950 . S
H2463 C2486 0.950 . S
H2464 C2487 0.950 . S
H2465 C2489 0.950 . S
H2466 C2490 0.950 . S
H2467 C2491 0.951 . S
H2468 C2493 0.951 . S
H2469 C2495 0.950 . S
H2470 C2496 0.950 . S
H2471 C2498 0.950 . S
H2472 C2501 0.950 . S
H2473 C2502 0.950 . S
H2474 C2504 0.950 . S
H2475 C2505 0.950 . S
C2476 H2458 0.951 . S
C2476 C2477 1.366 . S
C2476 C2478 1.388 . S
C2477 C2476 1.366 . S
C2477 C2481 1.385 . S
C2478 H2459 0.951 . S
C2478 C2476 1.388 . S
C2478 C2479 1.366 . S
C2479 C2478 1.366 . S
C2479 C2480 1.414 . S
C2479 C2482 1.499 . S
C2480 H2460 0.950 . S
C2480 C2479 1.414 . S
C2480 C2481 1.374 . S
C2481 H2461 0.950 . S
C2481 C2477 1.385 . S
C2481 C2480 1.374 . S
C2482 C2479 1.499 . S
C2482 C2483 1.373 . S
C2482 C2484 1.389 . S
C2483 H2462 0.950 . S
C2483 C2482 1.373 . S
C2483 C2499 1.377 . S
C2484 C2482 1.389 . S
C2484 C2485 1.524 . S
C2484 C2498 1.377 . S
C2485 C2484 1.524 . S
C2485 C2486 1.397 . S
C2485 C2490 1.363 . S
C2486 H2463 0.950 . S
C2486 C2485 1.397 . S
C2486 C2487 1.334 . S
C2487 H2464 0.950 . S
C2487 C2486 1.334 . S
C2487 C2488 1.287 . S
C2488 C2487 1.287 . S
C2488 C2489 1.524 . S
C2488 H2507 0.913 . S
C2489 H2465 0.950 . S
C2489 C2488 1.524 . S
C2489 C2490 1.415 . S
C2490 H2466 0.950 . S
C2490 C2485 1.363 . S
C2490 C2489 1.415 . S
C2491 H2467 0.951 . S
C2491 C2492 1.366 . S
C2491 C2493 1.388 . S
C2492 C2491 1.366 . S
C2492 C2496 1.385 . S
C2493 H2468 0.951 . S
C2493 C2491 1.388 . S
C2493 C2494 1.366 . S
C2494 C2493 1.366 . S
C2494 C2495 1.414 . S
C2494 C2497 1.499 . S
C2495 H2469 0.950 . S
C2495 C2494 1.414 . S
C2495 C2496 1.374 . S
C2496 H2470 0.950 . S
C2496 C2492 1.385 . S
C2496 C2495 1.374 . S
C2497 C2494 1.499 . S
C2497 C2498 1.373 . S
C2497 C2499 1.389 . S
C2498 H2471 0.950 . S
C2498 C2484 1.377 . S
C2498 C2497 1.373 . S
C2499 C2483 1.377 . S
C2499 C2497 1.389 . S
C2499 C2500 1.524 . S
C2500 C2499 1.524 . S
C2500 C2501 1.397 . S
C2500 C2505 1.363 . S
C2501 H2472 0.950 . S
C2501 C2500 1.397 . S
C2501 C2502 1.334 . S
C2502 H2473 0.950 . S
C2502 C2501 1.334 . S
C2502 C2503 1.287 . S
C2503 C2502 1.287 . S
C2503 C2504 1.524 . S
C2503 H2506 0.999 . S
C2504 H2474 0.950 . S
C2504 C2503 1.524 . S
C2504 C2505 1.415 . S
C2505 H2475 0.950 . S
C2505 C2500 1.363 . S
C2505 C2504 1.415 . S
H2506 C2503 0.999 . S
H2507 C2488 0.913 . S
H2508 C2526 0.951 . S
H2509 C2528 0.951 . S
H2510 C2530 0.950 . S
H2511 C2531 0.950 . S
H2512 C2533 0.950 . S
H2513 C2536 0.950 . S
H2514 C2537 0.950 . S
H2515 C2539 0.950 . S
H2516 C2540 0.950 . S
H2517 C2541 0.951 . S
H2518 C2543 0.951 . S
H2519 C2545 0.950 . S
H2520 C2546 0.950 . S
H2521 C2548 0.950 . S
H2522 C2551 0.950 . S
H2523 C2552 0.950 . S
H2524 C2554 0.950 . S
H2525 C2555 0.950 . S
C2526 H2508 0.951 . S
C2526 C2527 1.366 . S
C2526 C2528 1.388 . S
C2527 C2526 1.366 . S
C2527 C2531 1.385 . S
C2528 H2509 0.951 . S
C2528 C2526 1.388 . S
C2528 C2529 1.366 . S
C2529 C2528 1.366 . S
C2529 C2530 1.414 . S
C2529 C2532 1.499 . S
C2530 H2510 0.950 . S
C2530 C2529 1.414 . S
C2530 C2531 1.374 . S
C2531 H2511 0.950 . S
C2531 C2527 1.385 . S
C2531 C2530 1.374 . S
C2532 C2529 1.499 . S
C2532 C2533 1.373 . S
C2532 C2534 1.389 . S
C2533 H2512 0.950 . S
C2533 C2532 1.373 . S
C2533 C2549 1.377 . S
C2534 C2532 1.389 . S
C2534 C2535 1.524 . S
C2534 C2548 1.377 . S
C2535 C2534 1.524 . S
C2535 C2536 1.397 . S
C2535 C2540 1.363 . S
C2536 H2513 0.950 . S
C2536 C2535 1.397 . S
C2536 C2537 1.334 . S
C2537 H2514 0.950 . S
C2537 C2536 1.334 . S
C2537 C2538 1.287 . S
C2538 C2537 1.287 . S
C2538 C2539 1.524 . S
C2538 H2557 0.913 . S
C2539 H2515 0.950 . S
C2539 C2538 1.524 . S
C2539 C2540 1.415 . S
C2540 H2516 0.950 . S
C2540 C2535 1.363 . S
C2540 C2539 1.415 . S
C2541 H2517 0.951 . S
C2541 C2542 1.366 . S
C2541 C2543 1.388 . S
C2542 C2541 1.366 . S
C2542 C2546 1.385 . S
C2543 H2518 0.951 . S
C2543 C2541 1.388 . S
C2543 C2544 1.366 . S
C2544 C2543 1.366 . S
C2544 C2545 1.414 . S
C2544 C2547 1.499 . S
C2545 H2519 0.950 . S
C2545 C2544 1.414 . S
C2545 C2546 1.374 . S
C2546 H2520 0.950 . S
C2546 C2542 1.385 . S
C2546 C2545 1.374 . S
C2547 C2544 1.499 . S
C2547 C2548 1.373 . S
C2547 C2549 1.389 . S
C2548 H2521 0.950 . S
C2548 C2534 1.377 . S
C2548 C2547 1.373 . S
C2549 C2533 1.377 . S
C2549 C2547 1.389 . S
C2549 C2550 1.524 . S
C2550 C2549 1.524 . S
C2550 C2551 1.397 . S
C2550 C2555 1.363 . S
C2551 H2522 0.950 . S
C2551 C2550 1.397 . S
C2551 C2552 1.334 . S
C2552 H2523 0.950 . S
C2552 C2551 1.334 . S
C2552 C2553 1.287 . S
C2553 C2552 1.287 . S
C2553 C2554 1.524 . S
C2553 H2556 0.999 . S
C2554 H2524 0.950 . S
C2554 C2553 1.524 . S
C2554 C2555 1.415 . S
C2555 H2525 0.950 . S
C2555 C2550 1.363 . S
C2555 C2554 1.415 . S
H2556 C2553 0.999 . S
H2557 C2538 0.913 . S
H2558 C2576 0.951 . S
H2559 C2578 0.951 . S
H2560 C2580 0.950 . S
H2561 C2581 0.950 . S
H2562 C2583 0.950 . S
H2563 C2586 0.950 . S
H2564 C2587 0.950 . S
H2565 C2589 0.950 . S
H2566 C2590 0.950 . S
H2567 C2591 0.951 . S
H2568 C2593 0.951 . S
H2569 C2595 0.950 . S
H2570 C2596 0.950 . S
H2571 C2598 0.950 . S
H2572 C2601 0.950 . S
H2573 C2602 0.950 . S
H2574 C2604 0.950 . S
H2575 C2605 0.950 . S
C2576 H2558 0.951 . S
C2576 C2577 1.366 . S
C2576 C2578 1.388 . S
C2577 C2576 1.366 . S
C2577 C2581 1.385 . S
C2578 H2559 0.951 . S
C2578 C2576 1.388 . S
C2578 C2579 1.366 . S
C2579 C2578 1.366 . S
C2579 C2580 1.414 . S
C2579 C2582 1.499 . S
C2580 H2560 0.950 . S
C2580 C2579 1.414 . S
C2580 C2581 1.374 . S
C2581 H2561 0.950 . S
C2581 C2577 1.385 . S
C2581 C2580 1.374 . S
C2582 C2579 1.499 . S
C2582 C2583 1.373 . S
C2582 C2584 1.389 . S
C2583 H2562 0.950 . S
C2583 C2582 1.373 . S
C2583 C2599 1.377 . S
C2584 C2582 1.389 . S
C2584 C2585 1.524 . S
C2584 C2598 1.377 . S
C2585 C2584 1.524 . S
C2585 C2586 1.397 . S
C2585 C2590 1.363 . S
C2586 H2563 0.950 . S
C2586 C2585 1.397 . S
C2586 C2587 1.334 . S
C2587 H2564 0.950 . S
C2587 C2586 1.334 . S
C2587 C2588 1.287 . S
C2588 C2587 1.287 . S
C2588 C2589 1.524 . S
C2588 H2607 0.913 . S
C2589 H2565 0.950 . S
C2589 C2588 1.524 . S
C2589 C2590 1.415 . S
C2590 H2566 0.950 . S
C2590 C2585 1.363 . S
C2590 C2589 1.415 . S
C2591 H2567 0.951 . S
C2591 C2592 1.366 . S
C2591 C2593 1.388 . S
C2592 C2591 1.366 . S
C2592 C2596 1.385 . S
C2593 H2568 0.951 . S
C2593 C2591 1.388 . S
C2593 C2594 1.366 . S
C2594 C2593 1.366 . S
C2594 C2595 1.414 . S
C2594 C2597 1.499 . S
C2595 H2569 0.950 . S
C2595 C2594 1.414 . S
C2595 C2596 1.374 . S
C2596 H2570 0.950 . S
C2596 C2592 1.385 . S
C2596 C2595 1.374 . S
C2597 C2594 1.499 . S
C2597 C2598 1.373 . S
C2597 C2599 1.389 . S
C2598 H2571 0.950 . S
C2598 C2584 1.377 . S
C2598 C2597 1.373 . S
C2599 C2583 1.377 . S
C2599 C2597 1.389 . S
C2599 C2600 1.524 . S
C2600 C2599 1.524 . S
C2600 C2601 1.397 . S
C2600 C2605 1.363 . S
C2601 H2572 0.950 . S
C2601 C2600 1.397 . S
C2601 C2602 1.334 . S
C2602 H2573 0.950 . S
C2602 C2601 1.334 . S
C2602 C2603 1.287 . S
C2603 C2602 1.287 . S
C2603 C2604 1.524 . S
C2603 H2606 0.999 . S
C2604 H2574 0.950 . S
C2604 C2603 1.524 . S
C2604 C2605 1.415 . S
C2605 H2575 0.950 . S
C2605 C2600 1.363 . S
C2605 C2604 1.415 . S
H2606 C2603 0.999 . S
H2607 C2588 0.913 . S
H2608 C2626 0.951 1_565 S
H2609 C2628 0.951 1_565 S
H2610 C2630 0.950 . S
H2611 C2631 0.950 . S
H2612 C2633 0.950 . S
H2613 C2636 0.950 . S
H2614 C2637 0.950 . S
H2615 C2639 0.950 . S
H2616 C2640 0.950 . S
H2617 C2641 0.951 . S
H2618 C2643 0.951 . S
H2619 C2645 0.950 . S
H2620 C2646 0.950 . S
H2621 C2648 0.950 1_565 S
H2622 C2651 0.950 . S
H2623 C2652 0.950 . S
H2624 C2654 0.965 . S
H2625 C2655 0.950 . S
C2626 H2608 0.951 1_545 S
C2626 C2627 1.366 . S
C2626 C2628 1.388 . S
C2627 C2626 1.366 . S
C2627 C2631 1.385 . S
C2628 H2609 0.951 1_545 S
C2628 C2626 1.388 . S
C2628 C2629 1.366 . S
C2629 C2628 1.366 . S
C2629 C2630 1.414 . S
C2629 C2632 1.499 . S
C2630 H2610 0.950 . S
C2630 C2629 1.414 . S
C2630 C2631 1.374 . S
C2631 H2611 0.950 . S
C2631 C2627 1.385 . S
C2631 C2630 1.374 . S
C2632 C2629 1.499 . S
C2632 C2633 1.373 . S
C2632 C2634 1.389 . S
C2633 H2612 0.950 . S
C2633 C2632 1.373 . S
C2633 C2649 1.377 . S
C2634 C2632 1.389 . S
C2634 C2635 1.524 1_545 S
C2634 C2648 1.377 . S
C2635 C2634 1.524 1_565 S
C2635 C2636 1.397 . S
C2635 C2640 1.363 . S
C2636 H2613 0.950 . S
C2636 C2635 1.397 . S
C2636 C2637 1.334 . S
C2637 H2614 0.950 . S
C2637 C2636 1.334 . S
C2637 C2638 1.287 . S
C2638 C2637 1.287 . S
C2638 C2639 1.524 . S
C2638 H2657 0.913 . S
C2639 H2615 0.950 . S
C2639 C2638 1.524 . S
C2639 C2640 1.415 . S
C2640 H2616 0.950 . S
C2640 C2635 1.363 . S
C2640 C2639 1.415 . S
C2641 H2617 0.951 . S
C2641 C2642 1.366 . S
C2641 C2643 1.388 . S
C2642 C2641 1.366 . S
C2642 C2646 1.385 1_455 S
C2643 H2618 0.951 . S
C2643 C2641 1.388 . S
C2643 C2644 1.366 1_455 S
C2644 C2643 1.366 1_655 S
C2644 C2645 1.414 . S
C2644 C2647 1.499 . S
C2645 H2619 0.950 . S
C2645 C2644 1.414 . S
C2645 C2646 1.374 . S
C2646 H2620 0.950 . S
C2646 C2642 1.385 1_655 S
C2646 C2645 1.374 . S
C2647 C2644 1.499 . S
C2647 C2648 1.373 . S
C2647 C2649 1.389 . S
C2648 H2621 0.950 1_545 S
C2648 C2634 1.377 . S
C2648 C2647 1.373 . S
C2649 C2633 1.377 . S
C2649 C2647 1.389 . S
C2649 C2650 1.524 . S
C2650 C2649 1.524 . S
C2650 C2651 1.397 . S
C2650 C2655 1.363 . S
C2651 H2622 0.950 . S
C2651 C2650 1.397 . S
C2651 C2652 1.334 . S
C2652 H2623 0.950 . S
C2652 C2651 1.334 . S
C2652 C2653 1.287 . S
C2653 C2652 1.287 . S
C2653 C2654 1.524 . S
C2653 H2656 0.999 . S
C2654 H2624 0.965 . S
C2654 C2653 1.524 . S
C2654 C2655 1.415 . S
C2655 H2625 0.950 . S
C2655 C2650 1.363 . S
C2655 C2654 1.415 . S
H2656 C2653 0.999 . S
H2657 C2638 0.913 . S
H2658 C2676 0.951 . S
H2659 C2678 0.951 . S
H2660 C2680 0.950 . S
H2661 C2681 0.950 . S
H2662 C2683 0.950 . S
H2663 C2686 0.950 . S
H2664 C2687 0.950 . S
H2665 C2689 0.950 . S
H2666 C2690 0.950 . S
H2667 C2691 0.951 . S
H2668 C2693 0.951 . S
H2669 C2695 0.950 . S
H2670 C2696 0.950 . S
H2671 C2698 0.950 . S
H2672 C2701 0.950 . S
H2673 C2702 0.950 . S
H2674 C2704 0.950 . S
H2675 C2705 0.950 . S
C2676 H2658 0.951 . S
C2676 C2677 1.366 . S
C2676 C2678 1.388 . S
C2677 C2676 1.366 . S
C2677 C2681 1.385 . S
C2678 H2659 0.951 . S
C2678 C2676 1.388 . S
C2678 C2679 1.366 . S
C2679 C2678 1.366 . S
C2679 C2680 1.414 . S
C2679 C2682 1.499 . S
C2680 H2660 0.950 . S
C2680 C2679 1.414 . S
C2680 C2681 1.374 . S
C2681 H2661 0.950 . S
C2681 C2677 1.385 . S
C2681 C2680 1.374 . S
C2682 C2679 1.499 . S
C2682 C2683 1.373 . S
C2682 C2684 1.389 . S
C2683 H2662 0.950 . S
C2683 C2682 1.373 . S
C2683 C2699 1.377 . S
C2684 C2682 1.389 . S
C2684 C2685 1.524 . S
C2684 C2698 1.377 . S
C2685 C2684 1.524 . S
C2685 C2686 1.397 . S
C2685 C2690 1.363 . S
C2686 H2663 0.950 . S
C2686 C2685 1.397 . S
C2686 C2687 1.334 . S
C2687 H2664 0.950 . S
C2687 C2686 1.334 . S
C2687 C2688 1.287 . S
C2688 C2687 1.287 . S
C2688 C2689 1.524 . S
C2688 H2707 0.913 . S
C2689 H2665 0.950 . S
C2689 C2688 1.524 . S
C2689 C2690 1.415 . S
C2690 H2666 0.950 . S
C2690 C2685 1.363 . S
C2690 C2689 1.415 . S
C2691 H2667 0.951 . S
C2691 C2692 1.366 . S
C2691 C2693 1.388 . S
C2692 C2691 1.366 . S
C2692 C2696 1.385 . S
C2693 H2668 0.951 . S
C2693 C2691 1.388 . S
C2693 C2694 1.366 . S
C2694 C2693 1.366 . S
C2694 C2695 1.414 . S
C2694 C2697 1.499 . S
C2695 H2669 0.950 . S
C2695 C2694 1.414 . S
C2695 C2696 1.374 . S
C2696 H2670 0.950 . S
C2696 C2692 1.385 . S
C2696 C2695 1.374 . S
C2697 C2694 1.499 . S
C2697 C2698 1.373 . S
C2697 C2699 1.389 . S
C2698 H2671 0.950 . S
C2698 C2684 1.377 . S
C2698 C2697 1.373 . S
C2699 C2683 1.377 . S
C2699 C2697 1.389 . S
C2699 C2700 1.524 . S
C2700 C2699 1.524 . S
C2700 C2701 1.397 . S
C2700 C2705 1.363 . S
C2701 H2672 0.950 . S
C2701 C2700 1.397 . S
C2701 C2702 1.334 . S
C2702 H2673 0.950 . S
C2702 C2701 1.334 . S
C2702 C2703 1.287 . S
C2703 C2702 1.287 . S
C2703 C2704 1.524 . S
C2703 H2706 0.999 . S
C2704 H2674 0.950 . S
C2704 C2703 1.524 . S
C2704 C2705 1.415 . S
C2705 H2675 0.950 . S
C2705 C2700 1.363 . S
C2705 C2704 1.415 . S
H2706 C2703 0.999 . S
H2707 C2688 0.913 . S
H2708 C2726 0.951 . S
H2709 C2728 0.951 . S
H2710 C2730 0.950 . S
H2711 C2731 0.950 . S
H2712 C2733 0.950 . S
H2713 C2736 0.955 . S
H2714 C2737 0.950 . S
H2715 C2739 0.950 . S
H2716 C2740 0.950 . S
H2717 C2741 0.951 . S
H2718 C2743 0.951 . S
H2719 C2745 0.950 . S
H2720 C2746 0.950 . S
H2721 C2748 0.950 . S
H2722 C2751 0.950 . S
H2723 C2752 0.950 . S
H2724 C2754 0.950 . S
H2725 C2755 0.950 . S
C2726 H2708 0.951 . S
C2726 C2727 1.366 . S
C2726 C2728 1.388 . S
C2727 C2726 1.366 . S
C2727 C2731 1.385 . S
C2728 H2709 0.951 . S
C2728 C2726 1.388 . S
C2728 C2729 1.366 . S
C2729 C2728 1.366 . S
C2729 C2730 1.414 . S
C2729 C2732 1.499 . S
C2730 H2710 0.950 . S
C2730 C2729 1.414 . S
C2730 C2731 1.374 . S
C2731 H2711 0.950 . S
C2731 C2727 1.385 . S
C2731 C2730 1.374 . S
C2732 C2729 1.499 . S
C2732 C2733 1.373 . S
C2732 C2734 1.389 . S
C2733 H2712 0.950 . S
C2733 C2732 1.373 . S
C2733 C2749 1.377 . S
C2734 C2732 1.389 . S
C2734 C2735 1.524 1_545 S
C2734 C2748 1.377 . S
C2735 C2734 1.524 1_565 S
C2735 C2736 1.397 . S
C2735 C2740 1.363 . S
C2736 H2713 0.955 . S
C2736 C2735 1.397 . S
C2736 C2737 1.334 . S
C2737 H2714 0.950 . S
C2737 C2736 1.334 . S
C2737 C2738 1.287 . S
C2738 C2737 1.287 . S
C2738 C2739 1.524 . S
C2738 H2757 0.913 . S
C2739 H2715 0.950 . S
C2739 C2738 1.524 . S
C2739 C2740 1.415 . S
C2740 H2716 0.950 . S
C2740 C2735 1.363 . S
C2740 C2739 1.415 . S
C2741 H2717 0.951 . S
C2741 C2742 1.366 . S
C2741 C2743 1.388 . S
C2742 C2741 1.366 . S
C2742 C2746 1.385 . S
C2743 H2718 0.951 . S
C2743 C2741 1.388 . S
C2743 C2744 1.366 . S
C2744 C2743 1.366 . S
C2744 C2745 1.414 . S
C2744 C2747 1.499 . S
C2745 H2719 0.950 . S
C2745 C2744 1.414 . S
C2745 C2746 1.374 . S
C2746 H2720 0.950 . S
C2746 C2742 1.385 . S
C2746 C2745 1.374 . S
C2747 C2744 1.499 . S
C2747 C2748 1.373 . S
C2747 C2749 1.389 . S
C2748 H2721 0.950 . S
C2748 C2734 1.377 . S
C2748 C2747 1.373 . S
C2749 C2733 1.377 . S
C2749 C2747 1.389 . S
C2749 C2750 1.524 . S
C2750 C2749 1.524 . S
C2750 C2751 1.397 . S
C2750 C2755 1.363 . S
C2751 H2722 0.950 . S
C2751 C2750 1.397 . S
C2751 C2752 1.334 . S
C2752 H2723 0.950 . S
C2752 C2751 1.334 . S
C2752 C2753 1.287 . S
C2753 C2752 1.287 . S
C2753 C2754 1.524 . S
C2753 H2756 0.999 . S
C2754 H2724 0.950 . S
C2754 C2753 1.524 . S
C2754 C2755 1.415 . S
C2755 H2725 0.950 . S
C2755 C2750 1.363 . S
C2755 C2754 1.415 . S
H2756 C2753 0.999 . S
H2757 C2738 0.913 . S
H2758 C2776 0.951 . S
H2759 C2778 0.951 . S
H2760 C2780 0.950 . S
H2761 C2781 0.950 . S
H2762 C2783 0.950 . S
H2763 C2786 0.950 . S
H2764 C2787 0.950 . S
H2765 C2789 0.950 . S
H2766 C2790 0.950 . S
H2767 C2791 0.951 . S
H2768 C2793 0.951 . S
H2769 C2795 0.950 . S
H2770 C2796 0.950 . S
H2771 C2798 0.950 . S
H2772 C2801 0.950 . S
H2773 C2802 0.950 . S
H2774 C2804 0.950 . S
H2775 C2805 0.950 . S
C2776 H2758 0.951 . S
C2776 C2777 1.366 . S
C2776 C2778 1.388 . S
C2777 C2776 1.366 . S
C2777 C2781 1.385 . S
C2778 H2759 0.951 . S
C2778 C2776 1.388 . S
C2778 C2779 1.366 . S
C2779 C2778 1.366 . S
C2779 C2780 1.414 . S
C2779 C2782 1.499 . S
C2780 H2760 0.950 . S
C2780 C2779 1.414 . S
C2780 C2781 1.374 . S
C2781 H2761 0.950 . S
C2781 C2777 1.385 . S
C2781 C2780 1.374 . S
C2782 C2779 1.499 . S
C2782 C2783 1.373 . S
C2782 C2784 1.389 . S
C2783 H2762 0.950 . S
C2783 C2782 1.373 . S
C2783 C2799 1.377 . S
C2784 C2782 1.389 . S
C2784 C2785 1.524 . S
C2784 C2798 1.377 . S
C2785 C2784 1.524 . S
C2785 C2786 1.397 . S
C2785 C2790 1.363 . S
C2786 H2763 0.950 . S
C2786 C2785 1.397 . S
C2786 C2787 1.334 . S
C2787 H2764 0.950 . S
C2787 C2786 1.334 . S
C2787 C2788 1.287 . S
C2788 C2787 1.287 . S
C2788 C2789 1.524 . S
C2788 H2807 0.913 . S
C2789 H2765 0.950 . S
C2789 C2788 1.524 . S
C2789 C2790 1.415 . S
C2790 H2766 0.950 . S
C2790 C2785 1.363 . S
C2790 C2789 1.415 . S
C2791 H2767 0.951 . S
C2791 C2792 1.366 . S
C2791 C2793 1.388 . S
C2792 C2791 1.366 . S
C2792 C2796 1.385 . S
C2793 H2768 0.951 . S
C2793 C2791 1.388 . S
C2793 C2794 1.366 . S
C2794 C2793 1.366 . S
C2794 C2795 1.414 . S
C2794 C2797 1.499 . S
C2795 H2769 0.950 . S
C2795 C2794 1.414 . S
C2795 C2796 1.374 . S
C2796 H2770 0.950 . S
C2796 C2792 1.385 . S
C2796 C2795 1.374 . S
C2797 C2794 1.499 . S
C2797 C2798 1.373 . S
C2797 C2799 1.389 . S
C2798 H2771 0.950 . S
C2798 C2784 1.377 . S
C2798 C2797 1.373 . S
C2799 C2783 1.377 . S
C2799 C2797 1.389 . S
C2799 C2800 1.524 . S
C2800 C2799 1.524 . S
C2800 C2801 1.397 . S
C2800 C2805 1.363 . S
C2801 H2772 0.950 . S
C2801 C2800 1.397 . S
C2801 C2802 1.334 . S
C2802 H2773 0.950 . S
C2802 C2801 1.334 . S
C2802 C2803 1.287 . S
C2803 C2802 1.287 . S
C2803 C2804 1.524 . S
C2803 H2806 0.999 . S
C2804 H2774 0.950 . S
C2804 C2803 1.524 . S
C2804 C2805 1.415 . S
C2805 H2775 0.950 . S
C2805 C2800 1.363 . S
C2805 C2804 1.415 . S
H2806 C2803 0.999 . S
H2807 C2788 0.913 . S
H2808 C2826 0.951 . S
H2809 C2828 0.951 . S
H2810 C2830 0.950 . S
H2811 C2831 0.950 . S
H2812 C2833 0.950 . S
H2813 C2836 0.950 . S
H2814 C2837 0.950 . S
H2815 C2839 0.950 . S
H2816 C2840 0.950 . S
H2817 C2841 0.951 . S
H2818 C2843 0.951 . S
H2819 C2845 0.950 . S
H2820 C2846 0.950 . S
H2821 C2848 0.950 1_455 S
H2822 C2851 0.950 . S
H2823 C2852 0.950 . S
H2824 C2854 0.950 . S
H2825 C2855 0.950 . S
C2826 H2808 0.951 . S
C2826 C2827 1.366 . S
C2826 C2828 1.388 . S
C2827 C2826 1.366 . S
C2827 C2831 1.385 . S
C2828 H2809 0.951 . S
C2828 C2826 1.388 . S
C2828 C2829 1.366 . S
C2829 C2828 1.366 . S
C2829 C2830 1.414 . S
C2829 C2832 1.499 . S
C2830 H2810 0.950 . S
C2830 C2829 1.414 . S
C2830 C2831 1.374 . S
C2831 H2811 0.950 . S
C2831 C2827 1.385 . S
C2831 C2830 1.374 . S
C2832 C2829 1.499 . S
C2832 C2833 1.373 . S
C2832 C2834 1.389 . S
C2833 H2812 0.950 . S
C2833 C2832 1.373 . S
C2833 C2849 1.377 . S
C2834 C2832 1.389 . S
C2834 C2835 1.524 . S
C2834 C2848 1.377 . S
C2835 C2834 1.524 . S
C2835 C2836 1.397 1_545 S
C2835 C2840 1.363 1_655 S
C2836 H2813 0.950 . S
C2836 C2835 1.397 1_565 S
C2836 C2837 1.334 . S
C2837 H2814 0.950 . S
C2837 C2836 1.334 . S
C2837 C2838 1.287 1_655 S
C2838 C2837 1.287 1_455 S
C2838 C2839 1.524 1_565 S
C2838 H2857 0.913 . S
C2839 H2815 0.950 . S
C2839 C2838 1.524 1_545 S
C2839 C2840 1.415 . S
C2840 H2816 0.950 . S
C2840 C2835 1.363 1_455 S
C2840 C2839 1.415 . S
C2841 H2817 0.951 . S
C2841 C2842 1.366 1_655 S
C2841 C2843 1.388 . S
C2842 C2841 1.366 1_455 S
C2842 C2846 1.385 . S
C2843 H2818 0.951 . S
C2843 C2841 1.388 . S
C2843 C2844 1.366 . S
C2844 C2843 1.366 . S
C2844 C2845 1.414 1_655 S
C2844 C2847 1.499 . S
C2845 H2819 0.950 . S
C2845 C2844 1.414 1_455 S
C2845 C2846 1.374 . S
C2846 H2820 0.950 . S
C2846 C2842 1.385 . S
C2846 C2845 1.374 . S
C2847 C2844 1.499 . S
C2847 C2848 1.373 . S
C2847 C2849 1.389 . S
C2848 H2821 0.950 1_655 S
C2848 C2834 1.377 . S
C2848 C2847 1.373 . S
C2849 C2833 1.377 . S
C2849 C2847 1.389 . S
C2849 C2850 1.524 . S
C2850 C2849 1.524 . S
C2850 C2851 1.397 . S
C2850 C2855 1.363 . S
C2851 H2822 0.950 . S
C2851 C2850 1.397 . S
C2851 C2852 1.334 . S
C2852 H2823 0.950 . S
C2852 C2851 1.334 . S
C2852 C2853 1.287 . S
C2853 C2852 1.287 . S
C2853 C2854 1.524 . S
C2853 H2856 0.999 . S
C2854 H2824 0.950 . S
C2854 C2853 1.524 . S
C2854 C2855 1.415 . S
C2855 H2825 0.950 . S
C2855 C2850 1.363 . S
C2855 C2854 1.415 . S
H2856 C2853 0.999 . S
H2857 C2838 0.913 . S
H2858 C2876 0.951 . S
H2859 C2878 0.951 . S
H2860 C2880 0.950 . S
H2861 C2881 0.950 . S
H2862 C2883 0.950 . S
H2863 C2886 0.950 . S
H2864 C2887 0.950 . S
H2865 C2889 0.950 . S
H2866 C2890 0.950 . S
H2867 C2891 0.951 . S
H2868 C2893 0.951 . S
H2869 C2895 0.950 . S
H2870 C2896 0.950 . S
H2871 C2898 0.950 . S
H2872 C2901 0.950 . S
H2873 C2902 0.950 . S
H2874 C2904 0.950 . S
H2875 C2905 0.950 . S
C2876 H2858 0.951 . S
C2876 C2877 1.366 . S
C2876 C2878 1.388 . S
C2877 C2876 1.366 . S
C2877 C2881 1.385 . S
C2878 H2859 0.951 . S
C2878 C2876 1.388 . S
C2878 C2879 1.366 . S
C2879 C2878 1.366 . S
C2879 C2880 1.414 . S
C2879 C2882 1.499 . S
C2880 H2860 0.950 . S
C2880 C2879 1.414 . S
C2880 C2881 1.374 . S
C2881 H2861 0.950 . S
C2881 C2877 1.385 . S
C2881 C2880 1.374 . S
C2882 C2879 1.499 . S
C2882 C2883 1.373 . S
C2882 C2884 1.389 . S
C2883 H2862 0.950 . S
C2883 C2882 1.373 . S
C2883 C2899 1.377 . S
C2884 C2882 1.389 . S
C2884 C2885 1.524 . S
C2884 C2898 1.377 . S
C2885 C2884 1.524 . S
C2885 C2886 1.397 . S
C2885 C2890 1.363 . S
C2886 H2863 0.950 . S
C2886 C2885 1.397 . S
C2886 C2887 1.334 . S
C2887 H2864 0.950 . S
C2887 C2886 1.334 . S
C2887 C2888 1.287 . S
C2888 C2887 1.287 . S
C2888 C2889 1.524 . S
C2888 H2907 0.913 . S
C2889 H2865 0.950 . S
C2889 C2888 1.524 . S
C2889 C2890 1.415 . S
C2890 H2866 0.950 . S
C2890 C2885 1.363 . S
C2890 C2889 1.415 . S
C2891 H2867 0.951 . S
C2891 C2892 1.366 . S
C2891 C2893 1.388 . S
C2892 C2891 1.366 . S
C2892 C2896 1.385 . S
C2893 H2868 0.951 . S
C2893 C2891 1.388 . S
C2893 C2894 1.366 . S
C2894 C2893 1.366 . S
C2894 C2895 1.414 . S
C2894 C2897 1.499 . S
C2895 H2869 0.950 . S
C2895 C2894 1.414 . S
C2895 C2896 1.374 . S
C2896 H2870 0.950 . S
C2896 C2892 1.385 . S
C2896 C2895 1.374 . S
C2897 C2894 1.499 . S
C2897 C2898 1.373 . S
C2897 C2899 1.389 . S
C2898 H2871 0.950 . S
C2898 C2884 1.377 . S
C2898 C2897 1.373 . S
C2899 C2883 1.377 . S
C2899 C2897 1.389 . S
C2899 C2900 1.524 . S
C2900 C2899 1.524 . S
C2900 C2901 1.397 . S
C2900 C2905 1.363 . S
C2901 H2872 0.950 . S
C2901 C2900 1.397 . S
C2901 C2902 1.334 . S
C2902 H2873 0.950 . S
C2902 C2901 1.334 . S
C2902 C2903 1.287 . S
C2903 C2902 1.287 . S
C2903 C2904 1.524 . S
C2903 H2906 0.999 . S
C2904 H2874 0.950 . S
C2904 C2903 1.524 . S
C2904 C2905 1.415 . S
C2905 H2875 0.950 . S
C2905 C2900 1.363 . S
C2905 C2904 1.415 . S
H2906 C2903 0.999 . S
H2907 C2888 0.913 . S
H2908 C2926 0.951 . S
H2909 C2928 0.951 . S
H2910 C2930 0.950 . S
H2911 C2931 0.950 . S
H2912 C2933 0.950 . S
H2913 C2936 0.950 . S
H2914 C2937 0.950 . S
H2915 C2939 0.950 . S
H2916 C2940 0.950 . S
H2917 C2941 0.951 . S
H2918 C2943 0.951 . S
H2919 C2945 0.950 . S
H2920 C2946 0.950 . S
H2921 C2948 0.950 . S
H2922 C2951 0.945 1_545 S
H2923 C2952 0.950 . S
H2924 C2954 0.950 . S
H2925 C2955 0.950 . S
C2926 H2908 0.951 . S
C2926 C2927 1.366 . S
C2926 C2928 1.388 . S
C2927 C2926 1.366 . S
C2927 C2931 1.385 . S
C2928 H2909 0.951 . S
C2928 C2926 1.388 . S
C2928 C2929 1.366 . S
C2929 C2928 1.366 . S
C2929 C2930 1.414 . S
C2929 C2932 1.499 . S
C2930 H2910 0.950 . S
C2930 C2929 1.414 . S
C2930 C2931 1.374 . S
C2931 H2911 0.950 . S
C2931 C2927 1.385 . S
C2931 C2930 1.374 . S
C2932 C2929 1.499 . S
C2932 C2933 1.373 . S
C2932 C2934 1.389 . S
C2933 H2912 0.950 . S
C2933 C2932 1.373 . S
C2933 C2949 1.377 . S
C2934 C2932 1.389 . S
C2934 C2935 1.524 . S
C2934 C2948 1.377 . S
C2935 C2934 1.524 . S
C2935 C2936 1.397 . S
C2935 C2940 1.363 . S
C2936 H2913 0.950 . S
C2936 C2935 1.397 . S
C2936 C2937 1.334 . S
C2937 H2914 0.950 . S
C2937 C2936 1.334 . S
C2937 C2938 1.287 . S
C2938 C2937 1.287 . S
C2938 C2939 1.524 . S
C2938 H2957 0.913 . S
C2939 H2915 0.950 . S
C2939 C2938 1.524 . S
C2939 C2940 1.415 . S
C2940 H2916 0.950 . S
C2940 C2935 1.363 . S
C2940 C2939 1.415 . S
C2941 H2917 0.951 . S
C2941 C2942 1.366 . S
C2941 C2943 1.388 . S
C2942 C2941 1.366 . S
C2942 C2946 1.385 . S
C2943 H2918 0.951 . S
C2943 C2941 1.388 . S
C2943 C2944 1.366 . S
C2944 C2943 1.366 . S
C2944 C2945 1.414 . S
C2944 C2947 1.499 . S
C2945 H2919 0.950 . S
C2945 C2944 1.414 . S
C2945 C2946 1.374 . S
C2946 H2920 0.950 . S
C2946 C2942 1.385 . S
C2946 C2945 1.374 . S
C2947 C2944 1.499 . S
C2947 C2948 1.373 . S
C2947 C2949 1.389 . S
C2948 H2921 0.950 . S
C2948 C2934 1.377 . S
C2948 C2947 1.373 . S
C2949 C2933 1.377 . S
C2949 C2947 1.389 . S
C2949 C2950 1.524 . S
C2950 C2949 1.524 . S
C2950 C2951 1.393 1_545 S
C2950 C2955 1.363 . S
C2951 H2922 0.945 1_565 S
C2951 C2950 1.393 1_565 S
C2951 C2952 1.342 . S
C2952 H2923 0.950 . S
C2952 C2951 1.342 . S
C2952 C2953 1.287 . S
C2953 C2952 1.287 . S
C2953 C2954 1.524 . S
C2953 H2956 0.999 . S
C2954 H2924 0.950 . S
C2954 C2953 1.524 . S
C2954 C2955 1.415 1_565 S
C2955 H2925 0.950 . S
C2955 C2950 1.363 . S
C2955 C2954 1.415 1_545 S
H2956 C2953 0.999 . S
H2957 C2938 0.913 . S
H2958 C2976 0.951 . S
H2959 C2978 0.951 . S
H2960 C2980 0.950 . S
H2961 C2981 0.950 . S
H2962 C2983 0.950 . S
H2963 C2986 0.950 . S
H2964 C2987 0.950 . S
H2965 C2989 0.950 . S
H2966 C2990 0.950 . S
H2967 C2991 0.951 . S
H2968 C2993 0.951 . S
H2969 C2995 0.950 . S
H2970 C2996 0.950 . S
H2971 C2998 0.950 . S
H2972 C3001 0.950 . S
H2973 C3002 0.950 . S
H2974 C3004 0.950 . S
H2975 C3005 0.950 . S
C2976 H2958 0.951 . S
C2976 C2977 1.366 . S
C2976 C2978 1.388 . S
C2977 C2976 1.366 . S
C2977 C2981 1.385 . S
C2978 H2959 0.951 . S
C2978 C2976 1.388 . S
C2978 C2979 1.366 . S
C2979 C2978 1.366 . S
C2979 C2980 1.414 . S
C2979 C2982 1.499 . S
C2980 H2960 0.950 . S
C2980 C2979 1.414 . S
C2980 C2981 1.374 . S
C2981 H2961 0.950 . S
C2981 C2977 1.385 . S
C2981 C2980 1.374 . S
C2982 C2979 1.499 . S
C2982 C2983 1.373 . S
C2982 C2984 1.389 . S
C2983 H2962 0.950 . S
C2983 C2982 1.373 . S
C2983 C2999 1.377 . S
C2984 C2982 1.389 . S
C2984 C2985 1.524 . S
C2984 C2998 1.377 . S
C2985 C2984 1.524 . S
C2985 C2986 1.397 . S
C2985 C2990 1.363 . S
C2986 H2963 0.950 . S
C2986 C2985 1.397 . S
C2986 C2987 1.334 . S
C2987 H2964 0.950 . S
C2987 C2986 1.334 . S
C2987 C2988 1.287 . S
C2988 C2987 1.287 . S
C2988 C2989 1.524 . S
C2988 H3007 0.913 . S
C2989 H2965 0.950 . S
C2989 C2988 1.524 . S
C2989 C2990 1.415 . S
C2990 H2966 0.950 . S
C2990 C2985 1.363 . S
C2990 C2989 1.415 . S
C2991 H2967 0.951 . S
C2991 C2992 1.366 . S
C2991 C2993 1.388 . S
C2992 C2991 1.366 . S
C2992 C2996 1.385 . S
C2993 H2968 0.951 . S
C2993 C2991 1.388 . S
C2993 C2994 1.366 . S
C2994 C2993 1.366 . S
C2994 C2995 1.414 . S
C2994 C2997 1.499 . S
C2995 H2969 0.950 . S
C2995 C2994 1.414 . S
C2995 C2996 1.374 . S
C2996 H2970 0.950 . S
C2996 C2992 1.385 . S
C2996 C2995 1.374 . S
C2997 C2994 1.499 . S
C2997 C2998 1.373 . S
C2997 C2999 1.389 . S
C2998 H2971 0.950 . S
C2998 C2984 1.377 . S
C2998 C2997 1.373 . S
C2999 C2983 1.377 . S
C2999 C2997 1.389 . S
C2999 C3000 1.524 . S
C3000 C2999 1.524 . S
C3000 C3001 1.397 . S
C3000 C3005 1.363 . S
C3001 H2972 0.950 . S
C3001 C3000 1.397 . S
C3001 C3002 1.334 . S
C3002 H2973 0.950 . S
C3002 C3001 1.334 . S
C3002 C3003 1.287 . S
C3003 C3002 1.287 . S
C3003 C3004 1.524 . S
C3003 H3006 0.999 . S
C3004 H2974 0.950 . S
C3004 C3003 1.524 . S
C3004 C3005 1.415 . S
C3005 H2975 0.950 . S
C3005 C3000 1.363 . S
C3005 C3004 1.415 . S
H3006 C3003 0.999 . S
H3007 C2988 0.913 . S
H3008 C3026 0.951 . S
H3009 C3028 0.951 . S
H3010 C3030 0.950 . S
H3011 C3031 0.950 . S
H3012 C3033 0.950 . S
H3013 C3036 0.950 . S
H3014 C3037 0.950 . S
H3015 C3039 0.950 . S
H3016 C3040 0.950 . S
H3017 C3041 0.981 . S
H3018 C3043 0.943 1_545 S
H3019 C3045 0.950 . S
H3020 C3046 0.950 . S
H3021 C3048 0.950 . S
H3022 C3051 0.950 . S
H3023 C3052 0.950 . S
H3024 C3054 0.950 . S
H3025 C3055 0.950 . S
C3026 H3008 0.951 . S
C3026 C3027 1.378 . S
C3026 C3028 1.388 . S
C3027 C3026 1.378 . S
C3027 C3031 1.366 1_556 S
C3028 H3009 0.951 . S
C3028 C3026 1.388 . S
C3028 C3029 1.366 1_556 S
C3029 C3028 1.366 1_554 S
C3029 C3030 1.414 . S
C3029 C3032 1.499 . S
C3030 H3010 0.950 . S
C3030 C3029 1.414 . S
C3030 C3031 1.374 . S
C3031 H3011 0.950 . S
C3031 C3027 1.366 1_554 S
C3031 C3030 1.374 . S
C3032 C3029 1.499 . S
C3032 C3033 1.373 . S
C3032 C3034 1.389 1_554 S
C3033 H3012 0.950 . S
C3033 C3032 1.373 . S
C3033 C3049 1.377 . S
C3034 C3032 1.389 1_556 S
C3034 C3035 1.524 . S
C3034 C3048 1.377 . S
C3035 C3034 1.524 . S
C3035 C3036 1.397 . S
C3035 C3040 1.363 . S
C3036 H3013 0.950 . S
C3036 C3035 1.397 . S
C3036 C3037 1.334 . S
C3037 H3014 0.950 . S
C3037 C3036 1.334 . S
C3037 C3038 1.287 . S
C3038 C3037 1.287 . S
C3038 C3039 1.524 . S
C3038 H3057 0.913 . S
C3039 H3015 0.950 . S
C3039 C3038 1.524 . S
C3039 C3040 1.415 . S
C3040 H3016 0.950 . S
C3040 C3035 1.363 . S
C3040 C3039 1.415 . S
C3041 H3017 0.981 . S
C3041 C3042 1.355 1_545 S
C3041 C3043 1.369 1_545 S
C3042 C3041 1.355 1_565 S
C3042 C3046 1.385 . S
C3043 H3018 0.943 1_565 S
C3043 C3041 1.369 1_565 S
C3043 C3044 1.366 . S
C3044 C3043 1.366 . S
C3044 C3045 1.414 . S
C3044 C3047 1.499 . S
C3045 H3019 0.950 . S
C3045 C3044 1.414 . S
C3045 C3046 1.374 . S
C3046 H3020 0.950 . S
C3046 C3042 1.385 . S
C3046 C3045 1.374 . S
C3047 C3044 1.499 . S
C3047 C3048 1.373 1_554 S
C3047 C3049 1.389 . S
C3048 H3021 0.950 . S
C3048 C3034 1.377 . S
C3048 C3047 1.373 1_556 S
C3049 C3033 1.377 . S
C3049 C3047 1.389 . S
C3049 C3050 1.524 . S
C3050 C3049 1.524 . S
C3050 C3051 1.397 . S
C3050 C3055 1.363 . S
C3051 H3022 0.950 . S
C3051 C3050 1.397 . S
C3051 C3052 1.334 . S
C3052 H3023 0.950 . S
C3052 C3051 1.334 . S
C3052 C3053 1.287 . S
C3053 C3052 1.287 . S
C3053 C3054 1.524 . S
C3053 H3056 0.999 . S
C3054 H3024 0.950 . S
C3054 C3053 1.524 . S
C3054 C3055 1.415 . S
C3055 H3025 0.950 . S
C3055 C3050 1.363 . S
C3055 C3054 1.415 . S
H3056 C3053 0.999 . S
H3057 C3038 0.913 . S
H3058 C3076 0.951 . S
H3059 C3078 0.951 . S
H3060 C3080 0.950 . S
H3061 C3081 0.950 . S
H3062 C3083 0.950 . S
H3063 C3086 0.950 . S
H3064 C3087 0.950 . S
H3065 C3089 0.950 . S
H3066 C3090 0.950 . S
H3067 C3091 0.951 . S
H3068 C3093 0.951 . S
H3069 C3095 0.950 . S
H3070 C3096 0.974 . S
H3071 C3098 0.950 . S
H3072 C3101 0.950 . S
H3073 C3102 0.950 . S
H3074 C3104 0.950 . S
H3075 C3105 0.950 . S
C3076 H3058 0.951 . S
C3076 C3077 1.366 1_556 S
C3076 C3078 1.388 . S
C3077 C3076 1.366 1_554 S
C3077 C3081 1.385 . S
C3078 H3059 0.951 . S
C3078 C3076 1.388 . S
C3078 C3079 1.366 1_556 S
C3079 C3078 1.366 1_554 S
C3079 C3080 1.414 . S
C3079 C3082 1.499 . S
C3080 H3060 0.950 . S
C3080 C3079 1.414 . S
C3080 C3081 1.374 . S
C3081 H3061 0.950 . S
C3081 C3077 1.385 . S
C3081 C3080 1.374 . S
C3082 C3079 1.499 . S
C3082 C3083 1.373 . S
C3082 C3084 1.389 . S
C3083 H3062 0.950 . S
C3083 C3082 1.373 . S
C3083 C3099 1.377 . S
C3084 C3082 1.389 . S
C3084 C3085 1.524 . S
C3084 C3098 1.377 . S
C3085 C3084 1.524 . S
C3085 C3086 1.397 . S
C3085 C3090 1.363 1_554 S
C3086 H3063 0.950 . S
C3086 C3085 1.397 . S
C3086 C3087 1.334 . S
C3087 H3064 0.950 . S
C3087 C3086 1.334 . S
C3087 C3088 1.287 . S
C3088 C3087 1.287 . S
C3088 C3089 1.524 1_554 S
C3088 H3107 0.913 . S
C3089 H3065 0.950 . S
C3089 C3088 1.524 1_556 S
C3089 C3090 1.415 . S
C3090 H3066 0.950 . S
C3090 C3085 1.363 1_556 S
C3090 C3089 1.415 . S
C3091 H3067 0.951 . S
C3091 C3092 1.366 . S
C3091 C3093 1.388 . S
C3092 C3091 1.366 . S
C3092 C3096 1.353 1_554 S
C3093 H3068 0.951 . S
C3093 C3091 1.388 . S
C3093 C3094 1.366 . S
C3094 C3093 1.366 . S
C3094 C3095 1.414 1_554 S
C3094 C3097 1.499 . S
C3095 H3069 0.950 . S
C3095 C3094 1.414 1_556 S
C3095 C3096 1.383 . S
C3096 H3070 0.974 . S
C3096 C3092 1.353 1_556 S
C3096 C3095 1.383 . S
C3097 C3094 1.499 . S
C3097 C3098 1.373 . S
C3097 C3099 1.389 . S
C3098 H3071 0.950 . S
C3098 C3084 1.377 . S
C3098 C3097 1.373 . S
C3099 C3083 1.377 . S
C3099 C3097 1.389 . S
C3099 C3100 1.524 . S
C3100 C3099 1.524 . S
C3100 C3101 1.397 1_554 S
C3100 C3105 1.363 . S
C3101 H3072 0.950 . S
C3101 C3100 1.397 1_556 S
C3101 C3102 1.334 . S
C3102 H3073 0.950 . S
C3102 C3101 1.334 . S
C3102 C3103 1.287 1_556 S
C3103 C3102 1.287 1_554 S
C3103 C3104 1.524 . S
C3103 H3106 0.999 . S
C3104 H3074 0.950 . S
C3104 C3103 1.524 . S
C3104 C3105 1.415 . S
C3105 H3075 0.950 . S
C3105 C3100 1.363 . S
C3105 C3104 1.415 . S
H3106 C3103 0.999 . S
H3107 C3088 0.913 . S
H3108 C3126 0.951 . S
H3109 C3128 0.951 . S
H3110 C3130 0.950 . S
H3111 C3131 0.950 . S
H3112 C3133 0.950 . S
H3113 C3136 0.950 . S
H3114 C3137 0.950 . S
H3115 C3139 0.950 . S
H3116 C3140 0.950 . S
H3117 C3141 0.951 . S
H3118 C3143 0.951 . S
H3119 C3145 0.950 . S
H3120 C3146 0.950 . S
H3121 C3148 0.950 . S
H3122 C3151 0.950 . S
H3123 C3152 0.950 . S
H3124 C3154 0.950 . S
H3125 C3155 0.950 . S
C3126 H3108 0.951 . S
C3126 C3127 1.366 . S
C3126 C3128 1.388 . S
C3127 C3126 1.366 . S
C3127 C3131 1.385 . S
C3128 H3109 0.951 . S
C3128 C3126 1.388 . S
C3128 C3129 1.366 . S
C3129 C3128 1.366 . S
C3129 C3130 1.414 . S
C3129 C3132 1.499 . S
C3130 H3110 0.950 . S
C3130 C3129 1.414 . S
C3130 C3131 1.374 . S
C3131 H3111 0.950 . S
C3131 C3127 1.385 . S
C3131 C3130 1.374 . S
C3132 C3129 1.499 . S
C3132 C3133 1.373 . S
C3132 C3134 1.389 . S
C3133 H3112 0.950 . S
C3133 C3132 1.373 . S
C3133 C3149 1.377 . S
C3134 C3132 1.389 . S
C3134 C3135 1.524 . S
C3134 C3148 1.377 . S
C3135 C3134 1.524 . S
C3135 C3136 1.397 . S
C3135 C3140 1.363 . S
C3136 H3113 0.950 . S
C3136 C3135 1.397 . S
C3136 C3137 1.334 . S
C3137 H3114 0.950 . S
C3137 C3136 1.334 . S
C3137 C3138 1.287 . S
C3138 C3137 1.287 . S
C3138 C3139 1.524 . S
C3138 H3157 0.913 . S
C3139 H3115 0.950 . S
C3139 C3138 1.524 . S
C3139 C3140 1.415 . S
C3140 H3116 0.950 . S
C3140 C3135 1.363 . S
C3140 C3139 1.415 . S
C3141 H3117 0.951 . S
C3141 C3142 1.366 . S
C3141 C3143 1.388 . S
C3142 C3141 1.366 . S
C3142 C3146 1.385 . S
C3143 H3118 0.951 . S
C3143 C3141 1.388 . S
C3143 C3144 1.366 . S
C3144 C3143 1.366 . S
C3144 C3145 1.414 . S
C3144 C3147 1.499 . S
C3145 H3119 0.950 . S
C3145 C3144 1.414 . S
C3145 C3146 1.374 . S
C3146 H3120 0.950 . S
C3146 C3142 1.385 . S
C3146 C3145 1.374 . S
C3147 C3144 1.499 . S
C3147 C3148 1.373 . S
C3147 C3149 1.389 . S
C3148 H3121 0.950 . S
C3148 C3134 1.377 . S
C3148 C3147 1.373 . S
C3149 C3133 1.377 . S
C3149 C3147 1.389 . S
C3149 C3150 1.524 . S
C3150 C3149 1.524 . S
C3150 C3151 1.397 . S
C3150 C3155 1.363 . S
C3151 H3122 0.950 . S
C3151 C3150 1.397 . S
C3151 C3152 1.334 . S
C3152 H3123 0.950 . S
C3152 C3151 1.334 . S
C3152 C3153 1.287 . S
C3153 C3152 1.287 . S
C3153 C3154 1.524 . S
C3153 H3156 0.999 . S
C3154 H3124 0.950 . S
C3154 C3153 1.524 . S
C3154 C3155 1.415 . S
C3155 H3125 0.950 . S
C3155 C3150 1.363 . S
C3155 C3154 1.415 . S
H3156 C3153 0.999 . S
H3157 C3138 0.913 . S
H3158 C3176 0.951 . S
H3159 C3178 0.951 . S
H3160 C3180 0.950 . S
H3161 C3181 0.950 . S
H3162 C3183 0.950 . S
H3163 C3186 0.950 . S
H3164 C3187 0.950 . S
H3165 C3189 0.950 . S
H3166 C3190 0.950 . S
H3167 C3191 0.951 . S
H3168 C3193 0.951 . S
H3169 C3195 0.950 . S
H3170 C3196 0.950 . S
H3171 C3198 0.950 . S
H3172 C3201 0.950 . S
H3173 C3202 0.950 . S
H3174 C3204 0.950 . S
H3175 C3205 0.950 . S
C3176 H3158 0.951 . S
C3176 C3177 1.366 . S
C3176 C3178 1.388 . S
C3177 C3176 1.366 . S
C3177 C3181 1.385 . S
C3178 H3159 0.951 . S
C3178 C3176 1.388 . S
C3178 C3179 1.366 . S
C3179 C3178 1.366 . S
C3179 C3180 1.414 . S
C3179 C3182 1.499 . S
C3180 H3160 0.950 . S
C3180 C3179 1.414 . S
C3180 C3181 1.374 . S
C3181 H3161 0.950 . S
C3181 C3177 1.385 . S
C3181 C3180 1.374 . S
C3182 C3179 1.499 . S
C3182 C3183 1.373 . S
C3182 C3184 1.389 . S
C3183 H3162 0.950 . S
C3183 C3182 1.373 . S
C3183 C3199 1.377 . S
C3184 C3182 1.389 . S
C3184 C3185 1.524 . S
C3184 C3198 1.377 . S
C3185 C3184 1.524 . S
C3185 C3186 1.397 . S
C3185 C3190 1.363 . S
C3186 H3163 0.950 . S
C3186 C3185 1.397 . S
C3186 C3187 1.334 . S
C3187 H3164 0.950 . S
C3187 C3186 1.334 . S
C3187 C3188 1.287 . S
C3188 C3187 1.287 . S
C3188 C3189 1.524 . S
C3188 H3207 0.913 . S
C3189 H3165 0.950 . S
C3189 C3188 1.524 . S
C3189 C3190 1.415 . S
C3190 H3166 0.950 . S
C3190 C3185 1.363 . S
C3190 C3189 1.415 . S
C3191 H3167 0.951 . S
C3191 C3192 1.366 . S
C3191 C3193 1.388 . S
C3192 C3191 1.366 . S
C3192 C3196 1.385 . S
C3193 H3168 0.951 . S
C3193 C3191 1.388 . S
C3193 C3194 1.366 . S
C3194 C3193 1.366 . S
C3194 C3195 1.414 . S
C3194 C3197 1.499 . S
C3195 H3169 0.950 . S
C3195 C3194 1.414 . S
C3195 C3196 1.374 . S
C3196 H3170 0.950 . S
C3196 C3192 1.385 . S
C3196 C3195 1.374 . S
C3197 C3194 1.499 . S
C3197 C3198 1.373 . S
C3197 C3199 1.389 . S
C3198 H3171 0.950 . S
C3198 C3184 1.377 . S
C3198 C3197 1.373 . S
C3199 C3183 1.377 . S
C3199 C3197 1.389 . S
C3199 C3200 1.524 . S
C3200 C3199 1.524 . S
C3200 C3201 1.397 . S
C3200 C3205 1.363 . S
C3201 H3172 0.950 . S
C3201 C3200 1.397 . S
C3201 C3202 1.334 . S
C3202 H3173 0.950 . S
C3202 C3201 1.334 . S
C3202 C3203 1.287 . S
C3203 C3202 1.287 . S
C3203 C3204 1.524 . S
C3203 H3206 0.999 . S
C3204 H3174 0.950 . S
C3204 C3203 1.524 . S
C3204 C3205 1.415 . S
C3205 H3175 0.950 . S
C3205 C3200 1.363 . S
C3205 C3204 1.415 . S
H3206 C3203 0.999 . S
H3207 C3188 0.913 . S
H3208 C3226 0.951 . S
H3209 C3228 0.951 . S
H3210 C3230 0.950 . S
H3211 C3231 0.950 . S
H3212 C3233 0.950 . S
H3213 C3236 0.950 . S
H3214 C3237 0.950 . S
H3215 C3239 0.950 . S
H3216 C3240 0.950 . S
H3217 C3241 0.951 . S
H3218 C3243 0.951 . S
H3219 C3245 0.950 . S
H3220 C3246 0.950 . S
H3221 C3248 0.950 . S
H3222 C3251 0.950 . S
H3223 C3252 0.950 . S
H3224 C3254 0.950 . S
H3225 C3255 0.950 . S
C3226 H3208 0.951 . S
C3226 C3227 1.366 . S
C3226 C3228 1.388 . S
C3227 C3226 1.366 . S
C3227 C3231 1.385 . S
C3228 H3209 0.951 . S
C3228 C3226 1.388 . S
C3228 C3229 1.366 . S
C3229 C3228 1.366 . S
C3229 C3230 1.414 . S
C3229 C3232 1.499 . S
C3230 H3210 0.950 . S
C3230 C3229 1.414 . S
C3230 C3231 1.374 . S
C3231 H3211 0.950 . S
C3231 C3227 1.385 . S
C3231 C3230 1.374 . S
C3232 C3229 1.499 . S
C3232 C3233 1.373 . S
C3232 C3234 1.389 . S
C3233 H3212 0.950 . S
C3233 C3232 1.373 . S
C3233 C3249 1.377 . S
C3234 C3232 1.389 . S
C3234 C3235 1.524 . S
C3234 C3248 1.377 . S
C3235 C3234 1.524 . S
C3235 C3236 1.397 . S
C3235 C3240 1.363 . S
C3236 H3213 0.950 . S
C3236 C3235 1.397 . S
C3236 C3237 1.334 . S
C3237 H3214 0.950 . S
C3237 C3236 1.334 . S
C3237 C3238 1.287 . S
C3238 C3237 1.287 . S
C3238 C3239 1.524 . S
C3238 H3257 0.913 . S
C3239 H3215 0.950 . S
C3239 C3238 1.524 . S
C3239 C3240 1.415 . S
C3240 H3216 0.950 . S
C3240 C3235 1.363 . S
C3240 C3239 1.415 . S
C3241 H3217 0.951 . S
C3241 C3242 1.366 . S
C3241 C3243 1.388 . S
C3242 C3241 1.366 . S
C3242 C3246 1.385 . S
C3243 H3218 0.951 . S
C3243 C3241 1.388 . S
C3243 C3244 1.366 . S
C3244 C3243 1.366 . S
C3244 C3245 1.414 . S
C3244 C3247 1.499 . S
C3245 H3219 0.950 . S
C3245 C3244 1.414 . S
C3245 C3246 1.374 . S
C3246 H3220 0.950 . S
C3246 C3242 1.385 . S
C3246 C3245 1.374 . S
C3247 C3244 1.499 . S
C3247 C3248 1.373 . S
C3247 C3249 1.389 . S
C3248 H3221 0.950 . S
C3248 C3234 1.377 . S
C3248 C3247 1.373 . S
C3249 C3233 1.377 . S
C3249 C3247 1.389 . S
C3249 C3250 1.524 . S
C3250 C3249 1.524 . S
C3250 C3251 1.397 . S
C3250 C3255 1.363 . S
C3251 H3222 0.950 . S
C3251 C3250 1.397 . S
C3251 C3252 1.334 . S
C3252 H3223 0.950 . S
C3252 C3251 1.334 . S
C3252 C3253 1.287 . S
C3253 C3252 1.287 . S
C3253 C3254 1.524 . S
C3253 H3256 0.999 . S
C3254 H3224 0.950 . S
C3254 C3253 1.524 . S
C3254 C3255 1.415 . S
C3255 H3225 0.950 . S
C3255 C3250 1.363 . S
C3255 C3254 1.415 . S
H3256 C3253 0.999 . S
H3257 C3238 0.913 . S
H3258 C3276 0.951 . S
H3259 C3278 0.951 . S
H3260 C3280 0.950 . S
H3261 C3281 0.950 . S
H3262 C3283 0.950 . S
H3263 C3286 0.950 . S
H3264 C3287 0.950 . S
H3265 C3289 0.950 . S
H3266 C3290 0.950 . S
H3267 C3291 0.951 . S
H3268 C3293 0.951 . S
H3269 C3295 0.950 . S
H3270 C3296 0.950 . S
H3271 C3298 0.950 . S
H3272 C3301 0.950 . S
H3273 C3302 0.950 . S
H3274 C3304 0.950 . S
H3275 C3305 0.950 . S
C3276 H3258 0.951 . S
C3276 C3277 1.366 . S
C3276 C3278 1.388 . S
C3277 C3276 1.366 . S
C3277 C3281 1.385 . S
C3278 H3259 0.951 . S
C3278 C3276 1.388 . S
C3278 C3279 1.366 . S
C3279 C3278 1.366 . S
C3279 C3280 1.414 . S
C3279 C3282 1.499 . S
C3280 H3260 0.950 . S
C3280 C3279 1.414 . S
C3280 C3281 1.374 . S
C3281 H3261 0.950 . S
C3281 C3277 1.385 . S
C3281 C3280 1.374 . S
C3282 C3279 1.499 . S
C3282 C3283 1.373 . S
C3282 C3284 1.389 . S
C3283 H3262 0.950 . S
C3283 C3282 1.373 . S
C3283 C3299 1.377 . S
C3284 C3282 1.389 . S
C3284 C3285 1.524 . S
C3284 C3298 1.377 . S
C3285 C3284 1.524 . S
C3285 C3286 1.397 . S
C3285 C3290 1.363 . S
C3286 H3263 0.950 . S
C3286 C3285 1.397 . S
C3286 C3287 1.334 . S
C3287 H3264 0.950 . S
C3287 C3286 1.334 . S
C3287 C3288 1.287 . S
C3288 C3287 1.287 . S
C3288 C3289 1.524 . S
C3288 H3307 0.913 . S
C3289 H3265 0.950 . S
C3289 C3288 1.524 . S
C3289 C3290 1.415 . S
C3290 H3266 0.950 . S
C3290 C3285 1.363 . S
C3290 C3289 1.415 . S
C3291 H3267 0.951 . S
C3291 C3292 1.366 . S
C3291 C3293 1.388 . S
C3292 C3291 1.366 . S
C3292 C3296 1.385 . S
C3293 H3268 0.951 . S
C3293 C3291 1.388 . S
C3293 C3294 1.366 . S
C3294 C3293 1.366 . S
C3294 C3295 1.414 . S
C3294 C3297 1.499 . S
C3295 H3269 0.950 . S
C3295 C3294 1.414 . S
C3295 C3296 1.374 . S
C3296 H3270 0.950 . S
C3296 C3292 1.385 . S
C3296 C3295 1.374 . S
C3297 C3294 1.499 . S
C3297 C3298 1.373 . S
C3297 C3299 1.389 . S
C3298 H3271 0.950 . S
C3298 C3284 1.377 . S
C3298 C3297 1.373 . S
C3299 C3283 1.377 . S
C3299 C3297 1.389 . S
C3299 C3300 1.524 . S
C3300 C3299 1.524 . S
C3300 C3301 1.397 . S
C3300 C3305 1.363 . S
C3301 H3272 0.950 . S
C3301 C3300 1.397 . S
C3301 C3302 1.334 . S
C3302 H3273 0.950 . S
C3302 C3301 1.334 . S
C3302 C3303 1.287 . S
C3303 C3302 1.287 . S
C3303 C3304 1.524 . S
C3303 H3306 0.999 . S
C3304 H3274 0.950 . S
C3304 C3303 1.524 . S
C3304 C3305 1.415 . S
C3305 H3275 0.950 . S
C3305 C3300 1.363 . S
C3305 C3304 1.415 . S
H3306 C3303 0.999 . S
H3307 C3288 0.913 . S
H3308 C3326 0.951 . S
H3309 C3328 0.951 . S
H3310 C3330 0.950 . S
H3311 C3331 0.950 . S
H3312 C3333 0.950 . S
H3313 C3336 0.950 . S
H3314 C3337 0.950 . S
H3315 C3339 0.950 . S
H3316 C3340 0.950 . S
H3317 C3341 0.951 . S
H3318 C3343 0.951 . S
H3319 C3345 0.950 . S
H3320 C3346 0.950 . S
H3321 C3348 0.950 . S
H3322 C3351 0.950 . S
H3323 C3352 0.950 . S
H3324 C3354 0.950 . S
H3325 C3355 0.950 . S
C3326 H3308 0.951 . S
C3326 C3327 1.366 . S
C3326 C3328 1.388 . S
C3327 C3326 1.366 . S
C3327 C3331 1.385 . S
C3328 H3309 0.951 . S
C3328 C3326 1.388 . S
C3328 C3329 1.366 . S
C3329 C3328 1.366 . S
C3329 C3330 1.414 . S
C3329 C3332 1.499 . S
C3330 H3310 0.950 . S
C3330 C3329 1.414 . S
C3330 C3331 1.374 . S
C3331 H3311 0.950 . S
C3331 C3327 1.385 . S
C3331 C3330 1.374 . S
C3332 C3329 1.499 . S
C3332 C3333 1.373 . S
C3332 C3334 1.389 . S
C3333 H3312 0.950 . S
C3333 C3332 1.373 . S
C3333 C3349 1.377 . S
C3334 C3332 1.389 . S
C3334 C3335 1.524 . S
C3334 C3348 1.377 . S
C3335 C3334 1.524 . S
C3335 C3336 1.397 . S
C3335 C3340 1.363 . S
C3336 H3313 0.950 . S
C3336 C3335 1.397 . S
C3336 C3337 1.334 . S
C3337 H3314 0.950 . S
C3337 C3336 1.334 . S
C3337 C3338 1.287 . S
C3338 C3337 1.287 . S
C3338 C3339 1.524 . S
C3338 H3357 0.913 . S
C3339 H3315 0.950 . S
C3339 C3338 1.524 . S
C3339 C3340 1.415 . S
C3340 H3316 0.950 . S
C3340 C3335 1.363 . S
C3340 C3339 1.415 . S
C3341 H3317 0.951 . S
C3341 C3342 1.366 . S
C3341 C3343 1.388 . S
C3342 C3341 1.366 . S
C3342 C3346 1.385 . S
C3343 H3318 0.951 . S
C3343 C3341 1.388 . S
C3343 C3344 1.366 . S
C3344 C3343 1.366 . S
C3344 C3345 1.414 . S
C3344 C3347 1.499 . S
C3345 H3319 0.950 . S
C3345 C3344 1.414 . S
C3345 C3346 1.374 . S
C3346 H3320 0.950 . S
C3346 C3342 1.385 . S
C3346 C3345 1.374 . S
C3347 C3344 1.499 . S
C3347 C3348 1.373 . S
C3347 C3349 1.389 . S
C3348 H3321 0.950 . S
C3348 C3334 1.377 . S
C3348 C3347 1.373 . S
C3349 C3333 1.377 . S
C3349 C3347 1.389 . S
C3349 C3350 1.524 . S
C3350 C3349 1.524 . S
C3350 C3351 1.397 . S
C3350 C3355 1.363 . S
C3351 H3322 0.950 . S
C3351 C3350 1.397 . S
C3351 C3352 1.334 . S
C3352 H3323 0.950 . S
C3352 C3351 1.334 . S
C3352 C3353 1.287 . S
C3353 C3352 1.287 . S
C3353 C3354 1.524 . S
C3353 H3356 0.999 . S
C3354 H3324 0.950 . S
C3354 C3353 1.524 . S
C3354 C3355 1.415 . S
C3355 H3325 0.950 . S
C3355 C3350 1.363 . S
C3355 C3354 1.415 . S
H3356 C3353 0.999 . S
H3357 C3338 0.913 . S
H3358 C3376 0.951 . S
H3359 C3378 0.951 . S
H3360 C3380 0.950 . S
H3361 C3381 0.950 . S
H3362 C3383 0.950 . S
H3363 C3386 0.950 . S
H3364 C3387 0.950 . S
H3365 C3389 0.950 . S
H3366 C3390 0.950 . S
H3367 C3391 0.951 . S
H3368 C3393 0.951 . S
H3369 C3395 0.950 . S
H3370 C3396 0.950 . S
H3371 C3398 0.950 . S
H3372 C3401 0.950 . S
H3373 C3402 0.950 . S
H3374 C3404 0.950 . S
H3375 C3405 0.950 . S
C3376 H3358 0.951 . S
C3376 C3377 1.366 . S
C3376 C3378 1.388 . S
C3377 C3376 1.366 . S
C3377 C3381 1.385 . S
C3378 H3359 0.951 . S
C3378 C3376 1.388 . S
C3378 C3379 1.366 . S
C3379 C3378 1.366 . S
C3379 C3380 1.414 . S
C3379 C3382 1.499 . S
C3380 H3360 0.950 . S
C3380 C3379 1.414 . S
C3380 C3381 1.374 . S
C3381 H3361 0.950 . S
C3381 C3377 1.385 . S
C3381 C3380 1.374 . S
C3382 C3379 1.499 . S
C3382 C3383 1.373 . S
C3382 C3384 1.389 . S
C3383 H3362 0.950 . S
C3383 C3382 1.373 . S
C3383 C3399 1.377 . S
C3384 C3382 1.389 . S
C3384 C3385 1.524 . S
C3384 C3398 1.377 . S
C3385 C3384 1.524 . S
C3385 C3386 1.397 . S
C3385 C3390 1.363 . S
C3386 H3363 0.950 . S
C3386 C3385 1.397 . S
C3386 C3387 1.334 . S
C3387 H3364 0.950 . S
C3387 C3386 1.334 . S
C3387 C3388 1.287 . S
C3388 C3387 1.287 . S
C3388 C3389 1.524 . S
C3388 H3407 0.913 . S
C3389 H3365 0.950 . S
C3389 C3388 1.524 . S
C3389 C3390 1.415 . S
C3390 H3366 0.950 . S
C3390 C3385 1.363 . S
C3390 C3389 1.415 . S
C3391 H3367 0.951 . S
C3391 C3392 1.366 . S
C3391 C3393 1.388 . S
C3392 C3391 1.366 . S
C3392 C3396 1.385 . S
C3393 H3368 0.951 . S
C3393 C3391 1.388 . S
C3393 C3394 1.366 . S
C3394 C3393 1.366 . S
C3394 C3395 1.414 . S
C3394 C3397 1.499 . S
C3395 H3369 0.950 . S
C3395 C3394 1.414 . S
C3395 C3396 1.374 . S
C3396 H3370 0.950 . S
C3396 C3392 1.385 . S
C3396 C3395 1.374 . S
C3397 C3394 1.499 . S
C3397 C3398 1.373 . S
C3397 C3399 1.389 . S
C3398 H3371 0.950 . S
C3398 C3384 1.377 . S
C3398 C3397 1.373 . S
C3399 C3383 1.377 . S
C3399 C3397 1.389 . S
C3399 C3400 1.524 . S
C3400 C3399 1.524 . S
C3400 C3401 1.397 . S
C3400 C3405 1.363 . S
C3401 H3372 0.950 . S
C3401 C3400 1.397 . S
C3401 C3402 1.334 . S
C3402 H3373 0.950 . S
C3402 C3401 1.334 . S
C3402 C3403 1.287 . S
C3403 C3402 1.287 . S
C3403 C3404 1.524 . S
C3403 H3406 0.999 . S
C3404 H3374 0.950 . S
C3404 C3403 1.524 . S
C3404 C3405 1.415 . S
C3405 H3375 0.950 . S
C3405 C3400 1.363 . S
C3405 C3404 1.415 . S
H3406 C3403 0.999 . S
H3407 C3388 0.913 . S
H3408 C3426 0.951 . S
H3409 C3428 0.951 . S
H3410 C3430 0.950 . S
H3411 C3431 0.950 . S
H3412 C3433 0.950 . S
H3413 C3436 0.950 . S
H3414 C3437 0.950 . S
H3415 C3439 0.950 . S
H3416 C3440 0.950 . S
H3417 C3441 0.951 . S
H3418 C3443 0.951 . S
H3419 C3445 0.950 . S
H3420 C3446 0.950 . S
H3421 C3448 0.950 . S
H3422 C3451 0.950 . S
H3423 C3452 0.950 . S
H3424 C3454 0.950 . S
H3425 C3455 0.950 . S
C3426 H3408 0.951 . S
C3426 C3427 1.366 . S
C3426 C3428 1.388 . S
C3427 C3426 1.366 . S
C3427 C3431 1.385 . S
C3428 H3409 0.951 . S
C3428 C3426 1.388 . S
C3428 C3429 1.366 . S
C3429 C3428 1.366 . S
C3429 C3430 1.414 . S
C3429 C3432 1.499 . S
C3430 H3410 0.950 . S
C3430 C3429 1.414 . S
C3430 C3431 1.374 . S
C3431 H3411 0.950 . S
C3431 C3427 1.385 . S
C3431 C3430 1.374 . S
C3432 C3429 1.499 . S
C3432 C3433 1.373 . S
C3432 C3434 1.389 . S
C3433 H3412 0.950 . S
C3433 C3432 1.373 . S
C3433 C3449 1.377 . S
C3434 C3432 1.389 . S
C3434 C3435 1.524 . S
C3434 C3448 1.377 . S
C3435 C3434 1.524 . S
C3435 C3436 1.397 . S
C3435 C3440 1.363 . S
C3436 H3413 0.950 . S
C3436 C3435 1.397 . S
C3436 C3437 1.334 1_455 S
C3437 H3414 0.950 . S
C3437 C3436 1.334 1_655 S
C3437 C3438 1.287 . S
C3438 C3437 1.287 . S
C3438 C3439 1.524 1_655 S
C3438 H3457 0.913 . S
C3439 H3415 0.950 . S
C3439 C3438 1.524 1_455 S
C3439 C3440 1.415 . S
C3440 H3416 0.950 . S
C3440 C3435 1.363 . S
C3440 C3439 1.415 . S
C3441 H3417 0.951 . S
C3441 C3442 1.366 . S
C3441 C3443 1.388 . S
C3442 C3441 1.366 . S
C3442 C3446 1.385 . S
C3443 H3418 0.951 . S
C3443 C3441 1.388 . S
C3443 C3444 1.366 . S
C3444 C3443 1.366 . S
C3444 C3445 1.414 . S
C3444 C3447 1.499 . S
C3445 H3419 0.950 . S
C3445 C3444 1.414 . S
C3445 C3446 1.374 . S
C3446 H3420 0.950 . S
C3446 C3442 1.385 . S
C3446 C3445 1.374 . S
C3447 C3444 1.499 . S
C3447 C3448 1.373 . S
C3447 C3449 1.389 . S
C3448 H3421 0.950 . S
C3448 C3434 1.377 . S
C3448 C3447 1.373 . S
C3449 C3433 1.377 . S
C3449 C3447 1.389 . S
C3449 C3450 1.524 . S
C3450 C3449 1.524 . S
C3450 C3451 1.397 . S
C3450 C3455 1.363 . S
C3451 H3422 0.950 . S
C3451 C3450 1.397 . S
C3451 C3452 1.334 . S
C3452 H3423 0.950 . S
C3452 C3451 1.334 . S
C3452 C3453 1.287 . S
C3453 C3452 1.287 . S
C3453 C3454 1.524 1_554 S
C3453 H3456 0.999 1_554 S
C3454 H3424 0.950 . S
C3454 C3453 1.524 1_556 S
C3454 C3455 1.415 1_556 S
C3455 H3425 0.950 . S
C3455 C3450 1.363 . S
C3455 C3454 1.415 1_554 S
H3456 C3453 0.999 1_556 S
H3457 C3438 0.913 . S
H3458 C3476 0.951 . S
H3459 C3478 0.951 . S
H3460 C3480 0.950 . S
H3461 C3481 0.950 . S
H3462 C3483 0.950 . S
H3463 C3486 0.950 . S
H3464 C3487 0.950 . S
H3465 C3489 0.950 . S
H3466 C3490 0.950 . S
H3467 C3491 0.951 . S
H3468 C3493 0.951 . S
H3469 C3495 0.950 . S
H3470 C3496 0.950 . S
H3471 C3498 0.950 . S
H3472 C3501 0.950 . S
H3473 C3502 0.950 . S
H3474 C3504 0.950 . S
H3475 C3505 0.950 . S
C3476 H3458 0.951 . S
C3476 C3477 1.366 . S
C3476 C3478 1.388 . S
C3477 C3476 1.366 . S
C3477 C3481 1.385 . S
C3478 H3459 0.951 . S
C3478 C3476 1.388 . S
C3478 C3479 1.366 . S
C3479 C3478 1.366 . S
C3479 C3480 1.414 . S
C3479 C3482 1.499 . S
C3480 H3460 0.950 . S
C3480 C3479 1.414 . S
C3480 C3481 1.374 . S
C3481 H3461 0.950 . S
C3481 C3477 1.385 . S
C3481 C3480 1.374 . S
C3482 C3479 1.499 . S
C3482 C3483 1.373 . S
C3482 C3484 1.389 . S
C3483 H3462 0.950 . S
C3483 C3482 1.373 . S
C3483 C3499 1.377 . S
C3484 C3482 1.389 . S
C3484 C3485 1.524 . S
C3484 C3498 1.377 . S
C3485 C3484 1.524 . S
C3485 C3486 1.397 . S
C3485 C3490 1.363 . S
C3486 H3463 0.950 . S
C3486 C3485 1.397 . S
C3486 C3487 1.334 . S
C3487 H3464 0.950 . S
C3487 C3486 1.334 . S
C3487 C3488 1.287 . S
C3488 C3487 1.287 . S
C3488 C3489 1.524 . S
C3488 H3507 0.913 . S
C3489 H3465 0.950 . S
C3489 C3488 1.524 . S
C3489 C3490 1.415 . S
C3490 H3466 0.950 . S
C3490 C3485 1.363 . S
C3490 C3489 1.415 . S
C3491 H3467 0.951 . S
C3491 C3492 1.366 . S
C3491 C3493 1.388 . S
C3492 C3491 1.366 . S
C3492 C3496 1.385 . S
C3493 H3468 0.951 . S
C3493 C3491 1.388 . S
C3493 C3494 1.366 . S
C3494 C3493 1.366 . S
C3494 C3495 1.414 . S
C3494 C3497 1.499 . S
C3495 H3469 0.950 . S
C3495 C3494 1.414 . S
C3495 C3496 1.374 . S
C3496 H3470 0.950 . S
C3496 C3492 1.385 . S
C3496 C3495 1.374 . S
C3497 C3494 1.499 . S
C3497 C3498 1.373 . S
C3497 C3499 1.389 . S
C3498 H3471 0.950 . S
C3498 C3484 1.377 . S
C3498 C3497 1.373 . S
C3499 C3483 1.377 . S
C3499 C3497 1.389 . S
C3499 C3500 1.524 . S
C3500 C3499 1.524 . S
C3500 C3501 1.397 . S
C3500 C3505 1.363 . S
C3501 H3472 0.950 . S
C3501 C3500 1.397 . S
C3501 C3502 1.334 . S
C3502 H3473 0.950 . S
C3502 C3501 1.334 . S
C3502 C3503 1.287 . S
C3503 C3502 1.287 . S
C3503 C3504 1.524 . S
C3503 H3506 0.999 . S
C3504 H3474 0.950 . S
C3504 C3503 1.524 . S
C3504 C3505 1.415 . S
C3505 H3475 0.950 . S
C3505 C3500 1.363 . S
C3505 C3504 1.415 . S
H3506 C3503 0.999 . S
H3507 C3488 0.913 . S
H3508 C3526 0.951 . S
H3509 C3528 0.951 . S
H3510 C3530 0.950 . S
H3511 C3531 0.950 . S
H3512 C3533 0.950 . S
H3513 C3536 0.950 . S
H3514 C3537 0.950 . S
H3515 C3539 0.950 . S
H3516 C3540 0.950 . S
H3517 C3541 0.951 . S
H3518 C3543 0.951 . S
H3519 C3545 0.950 . S
H3520 C3546 0.950 . S
H3521 C3548 0.950 . S
H3522 C3551 0.950 . S
H3523 C3552 0.950 . S
H3524 C3554 0.950 . S
H3525 C3555 0.950 . S
C3526 H3508 0.951 . S
C3526 C3527 1.366 . S
C3526 C3528 1.388 . S
C3527 C3526 1.366 . S
C3527 C3531 1.385 . S
C3528 H3509 0.951 . S
C3528 C3526 1.388 . S
C3528 C3529 1.366 . S
C3529 C3528 1.366 . S
C3529 C3530 1.414 . S
C3529 C3532 1.499 . S
C3530 H3510 0.950 . S
C3530 C3529 1.414 . S
C3530 C3531 1.374 . S
C3531 H3511 0.950 . S
C3531 C3527 1.385 . S
C3531 C3530 1.374 . S
C3532 C3529 1.499 . S
C3532 C3533 1.373 . S
C3532 C3534 1.389 . S
C3533 H3512 0.950 . S
C3533 C3532 1.373 . S
C3533 C3549 1.377 . S
C3534 C3532 1.389 . S
C3534 C3535 1.524 . S
C3534 C3548 1.377 . S
C3535 C3534 1.524 . S
C3535 C3536 1.397 . S
C3535 C3540 1.363 . S
C3536 H3513 0.950 . S
C3536 C3535 1.397 . S
C3536 C3537 1.334 . S
C3537 H3514 0.950 . S
C3537 C3536 1.334 . S
C3537 C3538 1.287 . S
C3538 C3537 1.287 . S
C3538 C3539 1.524 . S
C3538 H3557 0.913 . S
C3539 H3515 0.950 . S
C3539 C3538 1.524 . S
C3539 C3540 1.415 . S
C3540 H3516 0.950 . S
C3540 C3535 1.363 . S
C3540 C3539 1.415 . S
C3541 H3517 0.951 . S
C3541 C3542 1.366 . S
C3541 C3543 1.388 . S
C3542 C3541 1.366 . S
C3542 C3546 1.385 . S
C3543 H3518 0.951 . S
C3543 C3541 1.388 . S
C3543 C3544 1.366 . S
C3544 C3543 1.366 . S
C3544 C3545 1.414 . S
C3544 C3547 1.499 . S
C3545 H3519 0.950 . S
C3545 C3544 1.414 . S
C3545 C3546 1.374 . S
C3546 H3520 0.950 . S
C3546 C3542 1.385 . S
C3546 C3545 1.374 . S
C3547 C3544 1.499 . S
C3547 C3548 1.373 . S
C3547 C3549 1.389 . S
C3548 H3521 0.950 . S
C3548 C3534 1.377 . S
C3548 C3547 1.373 . S
C3549 C3533 1.377 . S
C3549 C3547 1.389 . S
C3549 C3550 1.524 . S
C3550 C3549 1.524 . S
C3550 C3551 1.397 . S
C3550 C3555 1.363 . S
C3551 H3522 0.950 . S
C3551 C3550 1.397 . S
C3551 C3552 1.334 . S
C3552 H3523 0.950 . S
C3552 C3551 1.334 . S
C3552 C3553 1.287 . S
C3553 C3552 1.287 . S
C3553 C3554 1.524 . S
C3553 H3556 0.999 . S
C3554 H3524 0.950 . S
C3554 C3553 1.524 . S
C3554 C3555 1.415 . S
C3555 H3525 0.950 . S
C3555 C3550 1.363 . S
C3555 C3554 1.415 . S
H3556 C3553 0.999 . S
H3557 C3538 0.913 . S
H3558 C3576 0.951 . S
H3559 C3578 0.951 . S
H3560 C3580 0.950 . S
H3561 C3581 0.950 . S
H3562 C3583 0.950 . S
H3563 C3586 0.950 . S
H3564 C3587 0.950 . S
H3565 C3589 0.950 . S
H3566 C3590 0.950 . S
H3567 C3591 0.951 . S
H3568 C3593 0.951 . S
H3569 C3595 0.950 . S
H3570 C3596 0.950 . S
H3571 C3598 0.950 . S
H3572 C3601 0.950 . S
H3573 C3602 0.950 . S
H3574 C3604 0.950 . S
H3575 C3605 0.950 . S
C3576 H3558 0.951 . S
C3576 C3577 1.366 . S
C3576 C3578 1.388 . S
C3577 C3576 1.366 . S
C3577 C3581 1.385 . S
C3578 H3559 0.951 . S
C3578 C3576 1.388 . S
C3578 C3579 1.366 . S
C3579 C3578 1.366 . S
C3579 C3580 1.414 . S
C3579 C3582 1.499 . S
C3580 H3560 0.950 . S
C3580 C3579 1.414 . S
C3580 C3581 1.374 . S
C3581 H3561 0.950 . S
C3581 C3577 1.385 . S
C3581 C3580 1.374 . S
C3582 C3579 1.499 . S
C3582 C3583 1.373 . S
C3582 C3584 1.389 . S
C3583 H3562 0.950 . S
C3583 C3582 1.373 . S
C3583 C3599 1.377 . S
C3584 C3582 1.389 . S
C3584 C3585 1.524 . S
C3584 C3598 1.377 . S
C3585 C3584 1.524 . S
C3585 C3586 1.397 . S
C3585 C3590 1.363 . S
C3586 H3563 0.950 . S
C3586 C3585 1.397 . S
C3586 C3587 1.334 . S
C3587 H3564 0.950 . S
C3587 C3586 1.334 . S
C3587 C3588 1.287 . S
C3588 C3587 1.287 . S
C3588 C3589 1.524 . S
C3588 H3607 0.913 . S
C3589 H3565 0.950 . S
C3589 C3588 1.524 . S
C3589 C3590 1.415 . S
C3590 H3566 0.950 . S
C3590 C3585 1.363 . S
C3590 C3589 1.415 . S
C3591 H3567 0.951 . S
C3591 C3592 1.366 . S
C3591 C3593 1.388 . S
C3592 C3591 1.366 . S
C3592 C3596 1.385 . S
C3593 H3568 0.951 . S
C3593 C3591 1.388 . S
C3593 C3594 1.366 . S
C3594 C3593 1.366 . S
C3594 C3595 1.414 . S
C3594 C3597 1.499 . S
C3595 H3569 0.950 . S
C3595 C3594 1.414 . S
C3595 C3596 1.374 . S
C3596 H3570 0.950 . S
C3596 C3592 1.385 . S
C3596 C3595 1.374 . S
C3597 C3594 1.499 . S
C3597 C3598 1.373 . S
C3597 C3599 1.389 . S
C3598 H3571 0.950 . S
C3598 C3584 1.377 . S
C3598 C3597 1.373 . S
C3599 C3583 1.377 . S
C3599 C3597 1.389 . S
C3599 C3600 1.524 . S
C3600 C3599 1.524 . S
C3600 C3601 1.397 . S
C3600 C3605 1.363 . S
C3601 H3572 0.950 . S
C3601 C3600 1.397 . S
C3601 C3602 1.334 . S
C3602 H3573 0.950 . S
C3602 C3601 1.334 . S
C3602 C3603 1.287 . S
C3603 C3602 1.287 . S
C3603 C3604 1.524 . S
C3603 H3606 0.999 . S
C3604 H3574 0.950 . S
C3604 C3603 1.524 . S
C3604 C3605 1.415 . S
C3605 H3575 0.950 . S
C3605 C3600 1.363 . S
C3605 C3604 1.415 . S
H3606 C3603 0.999 . S
H3607 C3588 0.913 . S
H3608 C3626 0.951 . S
H3609 C3628 0.951 . S
H3610 C3630 0.950 . S
H3611 C3631 0.950 . S
H3612 C3633 0.950 . S
H3613 C3636 0.950 . S
H3614 C3637 0.950 . S
H3615 C3639 0.950 . S
H3616 C3640 0.950 . S
H3617 C3641 0.951 . S
H3618 C3643 0.951 . S
H3619 C3645 0.950 . S
H3620 C3646 0.950 . S
H3621 C3648 0.950 . S
H3622 C3651 0.950 . S
H3623 C3652 0.950 . S
H3624 C3654 0.950 . S
H3625 C3655 0.950 . S
C3626 H3608 0.951 . S
C3626 C3627 1.366 . S
C3626 C3628 1.388 . S
C3627 C3626 1.366 . S
C3627 C3631 1.385 . S
C3628 H3609 0.951 . S
C3628 C3626 1.388 . S
C3628 C3629 1.366 . S
C3629 C3628 1.366 . S
C3629 C3630 1.414 . S
C3629 C3632 1.499 . S
C3630 H3610 0.950 . S
C3630 C3629 1.414 . S
C3630 C3631 1.374 . S
C3631 H3611 0.950 . S
C3631 C3627 1.385 . S
C3631 C3630 1.374 . S
C3632 C3629 1.499 . S
C3632 C3633 1.373 . S
C3632 C3634 1.389 . S
C3633 H3612 0.950 . S
C3633 C3632 1.373 . S
C3633 C3649 1.377 . S
C3634 C3632 1.389 . S
C3634 C3635 1.524 1_455 S
C3634 C3648 1.377 . S
C3635 C3634 1.524 1_655 S
C3635 C3636 1.397 . S
C3635 C3640 1.363 . S
C3636 H3613 0.950 . S
C3636 C3635 1.397 . S
C3636 C3637 1.334 . S
C3637 H3614 0.950 . S
C3637 C3636 1.334 . S
C3637 C3638 1.287 . S
C3638 C3637 1.287 . S
C3638 C3639 1.524 . S
C3638 H3657 0.913 . S
C3639 H3615 0.950 . S
C3639 C3638 1.524 . S
C3639 C3640 1.415 . S
C3640 H3616 0.950 . S
C3640 C3635 1.363 . S
C3640 C3639 1.415 . S
C3641 H3617 0.951 . S
C3641 C3642 1.366 . S
C3641 C3643 1.388 . S
C3642 C3641 1.366 . S
C3642 C3646 1.385 . S
C3643 H3618 0.951 . S
C3643 C3641 1.388 . S
C3643 C3644 1.366 . S
C3644 C3643 1.366 . S
C3644 C3645 1.414 . S
C3644 C3647 1.499 . S
C3645 H3619 0.950 . S
C3645 C3644 1.414 . S
C3645 C3646 1.374 . S
C3646 H3620 0.950 . S
C3646 C3642 1.385 . S
C3646 C3645 1.374 . S
C3647 C3644 1.499 . S
C3647 C3648 1.373 . S
C3647 C3649 1.389 . S
C3648 H3621 0.950 . S
C3648 C3634 1.377 . S
C3648 C3647 1.373 . S
C3649 C3633 1.377 . S
C3649 C3647 1.389 . S
C3649 C3650 1.524 . S
C3650 C3649 1.524 . S
C3650 C3651 1.397 . S
C3650 C3655 1.363 . S
C3651 H3622 0.950 . S
C3651 C3650 1.397 . S
C3651 C3652 1.334 . S
C3652 H3623 0.950 . S
C3652 C3651 1.334 . S
C3652 C3653 1.287 . S
C3653 C3652 1.287 . S
C3653 C3654 1.524 . S
C3653 H3656 0.999 . S
C3654 H3624 0.950 . S
C3654 C3653 1.524 . S
C3654 C3655 1.415 . S
C3655 H3625 0.950 . S
C3655 C3650 1.363 . S
C3655 C3654 1.415 . S
H3656 C3653 0.999 . S
H3657 C3638 0.913 . S
H3658 C3676 0.951 . S
H3659 C3678 0.951 . S
H3660 C3680 0.950 . S
H3661 C3681 0.950 . S
H3662 C3683 0.950 . S
H3663 C3686 0.950 . S
H3664 C3687 0.950 . S
H3665 C3689 0.950 . S
H3666 C3690 0.950 . S
H3667 C3691 0.951 . S
H3668 C3693 0.951 . S
H3669 C3695 0.950 . S
H3670 C3696 0.950 . S
H3671 C3698 0.950 . S
H3672 C3701 0.950 . S
H3673 C3702 0.950 . S
H3674 C3704 0.950 . S
H3675 C3705 0.950 . S
C3676 H3658 0.951 . S
C3676 C3677 1.366 . S
C3676 C3678 1.388 . S
C3677 C3676 1.366 . S
C3677 C3681 1.385 . S
C3678 H3659 0.951 . S
C3678 C3676 1.388 . S
C3678 C3679 1.366 . S
C3679 C3678 1.366 . S
C3679 C3680 1.414 . S
C3679 C3682 1.499 . S
C3680 H3660 0.950 . S
C3680 C3679 1.414 . S
C3680 C3681 1.374 . S
C3681 H3661 0.950 . S
C3681 C3677 1.385 . S
C3681 C3680 1.374 . S
C3682 C3679 1.499 . S
C3682 C3683 1.373 . S
C3682 C3684 1.389 . S
C3683 H3662 0.950 . S
C3683 C3682 1.373 . S
C3683 C3699 1.377 . S
C3684 C3682 1.389 . S
C3684 C3685 1.524 . S
C3684 C3698 1.377 . S
C3685 C3684 1.524 . S
C3685 C3686 1.397 . S
C3685 C3690 1.363 . S
C3686 H3663 0.950 . S
C3686 C3685 1.397 . S
C3686 C3687 1.334 . S
C3687 H3664 0.950 . S
C3687 C3686 1.334 . S
C3687 C3688 1.287 . S
C3688 C3687 1.287 . S
C3688 C3689 1.524 . S
C3688 H3707 0.913 . S
C3689 H3665 0.950 . S
C3689 C3688 1.524 . S
C3689 C3690 1.415 . S
C3690 H3666 0.950 . S
C3690 C3685 1.363 . S
C3690 C3689 1.415 . S
C3691 H3667 0.951 . S
C3691 C3692 1.366 . S
C3691 C3693 1.388 . S
C3692 C3691 1.366 . S
C3692 C3696 1.385 . S
C3693 H3668 0.951 . S
C3693 C3691 1.388 . S
C3693 C3694 1.366 . S
C3694 C3693 1.366 . S
C3694 C3695 1.414 . S
C3694 C3697 1.499 . S
C3695 H3669 0.950 . S
C3695 C3694 1.414 . S
C3695 C3696 1.374 . S
C3696 H3670 0.950 . S
C3696 C3692 1.385 . S
C3696 C3695 1.374 . S
C3697 C3694 1.499 . S
C3697 C3698 1.373 . S
C3697 C3699 1.389 . S
C3698 H3671 0.950 . S
C3698 C3684 1.377 . S
C3698 C3697 1.373 . S
C3699 C3683 1.377 . S
C3699 C3697 1.389 . S
C3699 C3700 1.524 . S
C3700 C3699 1.524 . S
C3700 C3701 1.397 . S
C3700 C3705 1.363 . S
C3701 H3672 0.950 . S
C3701 C3700 1.397 . S
C3701 C3702 1.334 . S
C3702 H3673 0.950 . S
C3702 C3701 1.334 . S
C3702 C3703 1.287 . S
C3703 C3702 1.287 . S
C3703 C3704 1.524 . S
C3703 H3706 0.999 . S
C3704 H3674 0.950 . S
C3704 C3703 1.524 . S
C3704 C3705 1.415 . S
C3705 H3675 0.950 . S
C3705 C3700 1.363 . S
C3705 C3704 1.415 . S
H3706 C3703 0.999 . S
H3707 C3688 0.913 . S
H3708 C3726 0.951 . S
H3709 C3728 0.951 . S
H3710 C3730 0.950 . S
H3711 C3731 0.950 . S
H3712 C3733 0.950 . S
H3713 C3736 0.950 . S
H3714 C3737 0.950 . S
H3715 C3739 0.950 . S
H3716 C3740 0.950 . S
H3717 C3741 0.951 . S
H3718 C3743 0.951 . S
H3719 C3745 0.950 . S
H3720 C3746 0.950 1_554 S
H3721 C3748 0.950 . S
H3722 C3751 0.950 . S
H3723 C3752 0.950 . S
H3724 C3754 0.950 . S
H3725 C3755 0.950 . S
C3726 H3708 0.951 . S
C3726 C3727 1.366 . S
C3726 C3728 1.388 . S
C3727 C3726 1.366 . S
C3727 C3731 1.385 . S
C3728 H3709 0.951 . S
C3728 C3726 1.388 . S
C3728 C3729 1.366 . S
C3729 C3728 1.366 . S
C3729 C3730 1.414 . S
C3729 C3732 1.499 . S
C3730 H3710 0.950 . S
C3730 C3729 1.414 . S
C3730 C3731 1.374 . S
C3731 H3711 0.950 . S
C3731 C3727 1.385 . S
C3731 C3730 1.374 . S
C3732 C3729 1.499 . S
C3732 C3733 1.373 . S
C3732 C3734 1.389 . S
C3733 H3712 0.950 . S
C3733 C3732 1.373 . S
C3733 C3749 1.377 . S
C3734 C3732 1.389 . S
C3734 C3735 1.524 . S
C3734 C3748 1.377 . S
C3735 C3734 1.524 . S
C3735 C3736 1.397 . S
C3735 C3740 1.363 . S
C3736 H3713 0.950 . S
C3736 C3735 1.397 . S
C3736 C3737 1.334 . S
C3737 H3714 0.950 . S
C3737 C3736 1.334 . S
C3737 C3738 1.287 . S
C3738 C3737 1.287 . S
C3738 C3739 1.524 . S
C3738 H3757 0.913 . S
C3739 H3715 0.950 . S
C3739 C3738 1.524 . S
C3739 C3740 1.415 . S
C3740 H3716 0.950 . S
C3740 C3735 1.363 . S
C3740 C3739 1.415 . S
C3741 H3717 0.951 . S
C3741 C3742 1.366 . S
C3741 C3743 1.388 . S
C3742 C3741 1.366 . S
C3742 C3746 1.385 . S
C3743 H3718 0.951 . S
C3743 C3741 1.388 . S
C3743 C3744 1.366 . S
C3744 C3743 1.366 . S
C3744 C3745 1.414 . S
C3744 C3747 1.499 . S
C3745 H3719 0.950 . S
C3745 C3744 1.414 . S
C3745 C3746 1.374 . S
C3746 H3720 0.950 1_556 S
C3746 C3742 1.385 . S
C3746 C3745 1.374 . S
C3747 C3744 1.499 . S
C3747 C3748 1.373 . S
C3747 C3749 1.389 . S
C3748 H3721 0.950 . S
C3748 C3734 1.377 . S
C3748 C3747 1.373 . S
C3749 C3733 1.377 . S
C3749 C3747 1.389 . S
C3749 C3750 1.524 . S
C3750 C3749 1.524 . S
C3750 C3751 1.397 . S
C3750 C3755 1.363 . S
C3751 H3722 0.950 . S
C3751 C3750 1.397 . S
C3751 C3752 1.334 . S
C3752 H3723 0.950 . S
C3752 C3751 1.334 . S
C3752 C3753 1.287 . S
C3753 C3752 1.287 . S
C3753 C3754 1.524 . S
C3753 H3756 0.999 . S
C3754 H3724 0.950 . S
C3754 C3753 1.524 . S
C3754 C3755 1.415 . S
C3755 H3725 0.950 . S
C3755 C3750 1.363 . S
C3755 C3754 1.415 . S
H3756 C3753 0.999 . S
H3757 C3738 0.913 . S
H3758 C3776 0.951 . S
H3759 C3778 0.951 . S
H3760 C3780 0.950 . S
H3761 C3781 0.950 . S
H3762 C3783 0.950 . S
H3763 C3786 0.950 . S
H3764 C3787 0.950 . S
H3765 C3789 0.950 . S
H3766 C3790 0.950 . S
H3767 C3791 0.951 . S
H3768 C3793 0.951 . S
H3769 C3795 0.950 . S
H3770 C3796 0.950 . S
H3771 C3798 0.950 . S
H3772 C3801 0.950 . S
H3773 C3802 0.950 . S
H3774 C3804 0.950 . S
H3775 C3805 0.950 . S
C3776 H3758 0.951 . S
C3776 C3777 1.366 . S
C3776 C3778 1.388 . S
C3777 C3776 1.366 . S
C3777 C3781 1.385 . S
C3778 H3759 0.951 . S
C3778 C3776 1.388 . S
C3778 C3779 1.366 . S
C3779 C3778 1.366 . S
C3779 C3780 1.414 . S
C3779 C3782 1.499 . S
C3780 H3760 0.950 . S
C3780 C3779 1.414 . S
C3780 C3781 1.374 . S
C3781 H3761 0.950 . S
C3781 C3777 1.385 . S
C3781 C3780 1.374 . S
C3782 C3779 1.499 . S
C3782 C3783 1.373 . S
C3782 C3784 1.389 . S
C3783 H3762 0.950 . S
C3783 C3782 1.373 . S
C3783 C3799 1.377 . S
C3784 C3782 1.389 . S
C3784 C3785 1.524 . S
C3784 C3798 1.377 . S
C3785 C3784 1.524 . S
C3785 C3786 1.397 . S
C3785 C3790 1.363 . S
C3786 H3763 0.950 . S
C3786 C3785 1.397 . S
C3786 C3787 1.334 . S
C3787 H3764 0.950 . S
C3787 C3786 1.334 . S
C3787 C3788 1.287 . S
C3788 C3787 1.287 . S
C3788 C3789 1.524 . S
C3788 H3807 0.913 . S
C3789 H3765 0.950 . S
C3789 C3788 1.524 . S
C3789 C3790 1.415 . S
C3790 H3766 0.950 . S
C3790 C3785 1.363 . S
C3790 C3789 1.415 . S
C3791 H3767 0.951 . S
C3791 C3792 1.366 . S
C3791 C3793 1.388 . S
C3792 C3791 1.366 . S
C3792 C3796 1.385 . S
C3793 H3768 0.951 . S
C3793 C3791 1.388 . S
C3793 C3794 1.366 . S
C3794 C3793 1.366 . S
C3794 C3795 1.414 . S
C3794 C3797 1.499 . S
C3795 H3769 0.950 . S
C3795 C3794 1.414 . S
C3795 C3796 1.374 . S
C3796 H3770 0.950 . S
C3796 C3792 1.385 . S
C3796 C3795 1.374 . S
C3797 C3794 1.499 . S
C3797 C3798 1.373 . S
C3797 C3799 1.389 . S
C3798 H3771 0.950 . S
C3798 C3784 1.377 . S
C3798 C3797 1.373 . S
C3799 C3783 1.377 . S
C3799 C3797 1.389 . S
C3799 C3800 1.524 . S
C3800 C3799 1.524 . S
C3800 C3801 1.397 . S
C3800 C3805 1.363 . S
C3801 H3772 0.950 . S
C3801 C3800 1.397 . S
C3801 C3802 1.334 . S
C3802 H3773 0.950 . S
C3802 C3801 1.334 . S
C3802 C3803 1.287 . S
C3803 C3802 1.287 . S
C3803 C3804 1.524 . S
C3803 H3806 0.999 . S
C3804 H3774 0.950 . S
C3804 C3803 1.524 . S
C3804 C3805 1.415 . S
C3805 H3775 0.950 . S
C3805 C3800 1.363 . S
C3805 C3804 1.415 . S
H3806 C3803 0.999 . S
H3807 C3788 0.913 . S
H3808 C3826 0.951 . S
H3809 C3828 0.951 . S
H3810 C3830 0.950 . S
H3811 C3831 0.950 . S
H3812 C3833 0.950 1_565 S
H3813 C3836 0.950 . S
H3814 C3837 0.950 . S
H3815 C3839 0.950 . S
H3816 C3840 0.950 . S
H3817 C3841 0.923 1_565 S
H3818 C3843 0.951 . S
H3819 C3845 0.950 . S
H3820 C3846 0.950 . S
H3821 C3848 0.950 . S
H3822 C3851 0.950 . S
H3823 C3852 0.950 . S
H3824 C3854 0.950 . S
H3825 C3855 0.950 . S
C3826 H3808 0.951 . S
C3826 C3827 1.366 . S
C3826 C3828 1.388 . S
C3827 C3826 1.366 . S
C3827 C3831 1.385 . S
C3828 H3809 0.951 . S
C3828 C3826 1.388 . S
C3828 C3829 1.366 . S
C3829 C3828 1.366 . S
C3829 C3830 1.414 . S
C3829 C3832 1.499 . S
C3830 H3810 0.950 . S
C3830 C3829 1.414 . S
C3830 C3831 1.374 . S
C3831 H3811 0.950 . S
C3831 C3827 1.385 . S
C3831 C3830 1.374 . S
C3832 C3829 1.499 . S
C3832 C3833 1.373 . S
C3832 C3834 1.389 . S
C3833 H3812 0.950 1_545 S
C3833 C3832 1.373 . S
C3833 C3849 1.377 . S
C3834 C3832 1.389 . S
C3834 C3835 1.524 . S
C3834 C3848 1.377 . S
C3835 C3834 1.524 . S
C3835 C3836 1.397 . S
C3835 C3840 1.363 . S
C3836 H3813 0.950 . S
C3836 C3835 1.397 . S
C3836 C3837 1.334 . S
C3837 H3814 0.950 . S
C3837 C3836 1.334 . S
C3837 C3838 1.287 . S
C3838 C3837 1.287 . S
C3838 C3839 1.524 . S
C3838 H3857 0.913 . S
C3839 H3815 0.950 . S
C3839 C3838 1.524 . S
C3839 C3840 1.415 . S
C3840 H3816 0.950 . S
C3840 C3835 1.363 . S
C3840 C3839 1.415 . S
C3841 H3817 0.923 1_545 S
C3841 C3842 1.366 . S
C3841 C3843 1.388 . S
C3842 C3841 1.366 . S
C3842 C3846 1.385 . S
C3843 H3818 0.951 . S
C3843 C3841 1.388 . S
C3843 C3844 1.366 . S
C3844 C3843 1.366 . S
C3844 C3845 1.414 . S
C3844 C3847 1.499 . S
C3845 H3819 0.950 . S
C3845 C3844 1.414 . S
C3845 C3846 1.374 . S
C3846 H3820 0.950 . S
C3846 C3842 1.385 . S
C3846 C3845 1.374 . S
C3847 C3844 1.499 . S
C3847 C3848 1.373 . S
C3847 C3849 1.389 . S
C3848 H3821 0.950 . S
C3848 C3834 1.377 . S
C3848 C3847 1.373 . S
C3849 C3833 1.377 . S
C3849 C3847 1.389 . S
C3849 C3850 1.524 1_545 S
C3850 C3849 1.524 1_565 S
C3850 C3851 1.397 . S
C3850 C3855 1.363 . S
C3851 H3822 0.950 . S
C3851 C3850 1.397 . S
C3851 C3852 1.334 . S
C3852 H3823 0.950 . S
C3852 C3851 1.334 . S
C3852 C3853 1.287 . S
C3853 C3852 1.287 . S
C3853 C3854 1.524 . S
C3853 H3856 0.999 . S
C3854 H3824 0.950 . S
C3854 C3853 1.524 . S
C3854 C3855 1.415 . S
C3855 H3825 0.950 . S
C3855 C3850 1.363 . S
C3855 C3854 1.415 . S
H3856 C3853 0.999 . S
H3857 C3838 0.913 . S
H3858 C3876 0.951 . S
H3859 C3878 0.951 . S
H3860 C3880 0.950 . S
H3861 C3881 0.950 . S
H3862 C3883 0.950 . S
H3863 C3886 0.950 . S
H3864 C3887 0.950 . S
H3865 C3889 0.950 . S
H3866 C3890 0.950 . S
H3867 C3891 0.951 . S
H3868 C3893 0.951 . S
H3869 C3895 0.950 . S
H3870 C3896 0.950 . S
H3871 C3898 0.950 . S
H3872 C3901 0.950 . S
H3873 C3902 0.950 . S
H3874 C3904 0.950 . S
H3875 C3905 0.950 . S
C3876 H3858 0.951 . S
C3876 C3877 1.366 . S
C3876 C3878 1.388 . S
C3877 C3876 1.366 . S
C3877 C3881 1.385 . S
C3878 H3859 0.951 . S
C3878 C3876 1.388 . S
C3878 C3879 1.366 . S
C3879 C3878 1.366 . S
C3879 C3880 1.414 . S
C3879 C3882 1.499 . S
C3880 H3860 0.950 . S
C3880 C3879 1.414 . S
C3880 C3881 1.374 . S
C3881 H3861 0.950 . S
C3881 C3877 1.385 . S
C3881 C3880 1.374 . S
C3882 C3879 1.499 . S
C3882 C3883 1.373 . S
C3882 C3884 1.389 . S
C3883 H3862 0.950 . S
C3883 C3882 1.373 . S
C3883 C3899 1.377 . S
C3884 C3882 1.389 . S
C3884 C3885 1.524 . S
C3884 C3898 1.377 . S
C3885 C3884 1.524 . S
C3885 C3886 1.397 . S
C3885 C3890 1.363 . S
C3886 H3863 0.950 . S
C3886 C3885 1.397 . S
C3886 C3887 1.334 . S
C3887 H3864 0.950 . S
C3887 C3886 1.334 . S
C3887 C3888 1.287 . S
C3888 C3887 1.287 . S
C3888 C3889 1.524 . S
C3888 H3907 0.913 . S
C3889 H3865 0.950 . S
C3889 C3888 1.524 . S
C3889 C3890 1.415 . S
C3890 H3866 0.950 . S
C3890 C3885 1.363 . S
C3890 C3889 1.415 . S
C3891 H3867 0.951 . S
C3891 C3892 1.366 . S
C3891 C3893 1.388 . S
C3892 C3891 1.366 . S
C3892 C3896 1.385 . S
C3893 H3868 0.951 . S
C3893 C3891 1.388 . S
C3893 C3894 1.366 . S
C3894 C3893 1.366 . S
C3894 C3895 1.414 . S
C3894 C3897 1.499 . S
C3895 H3869 0.950 . S
C3895 C3894 1.414 . S
C3895 C3896 1.374 . S
C3896 H3870 0.950 . S
C3896 C3892 1.385 . S
C3896 C3895 1.374 . S
C3897 C3894 1.499 . S
C3897 C3898 1.373 . S
C3897 C3899 1.389 . S
C3898 H3871 0.950 . S
C3898 C3884 1.377 . S
C3898 C3897 1.373 . S
C3899 C3883 1.377 . S
C3899 C3897 1.389 . S
C3899 C3900 1.524 . S
C3900 C3899 1.524 . S
C3900 C3901 1.397 . S
C3900 C3905 1.363 . S
C3901 H3872 0.950 . S
C3901 C3900 1.397 . S
C3901 C3902 1.334 . S
C3902 H3873 0.950 . S
C3902 C3901 1.334 . S
C3902 C3903 1.287 . S
C3903 C3902 1.287 . S
C3903 C3904 1.524 . S
C3903 H3906 0.999 . S
C3904 H3874 0.950 . S
C3904 C3903 1.524 . S
C3904 C3905 1.415 . S
C3905 H3875 0.950 . S
C3905 C3900 1.363 . S
C3905 C3904 1.415 . S
H3906 C3903 0.999 . S
H3907 C3888 0.913 . S
H3908 C3926 0.951 1_565 S
H3909 C3928 0.951 1_565 S
H3910 C3930 0.950 . S
H3911 C3931 0.950 . S
H3912 C3933 0.950 . S
H3913 C3936 0.950 1_545 S
H3914 C3937 0.950 . S
H3915 C3939 0.950 . S
H3916 C3940 0.950 . S
H3917 C3941 0.951 . S
H3918 C3943 0.951 . S
H3919 C3945 0.975 . S
H3920 C3946 0.950 . S
H3921 C3948 0.950 . S
H3922 C3951 0.950 . S
H3923 C3952 0.950 . S
H3924 C3954 0.950 . S
H3925 C3955 0.950 . S
C3926 H3908 0.951 1_545 S
C3926 C3927 1.366 . S
C3926 C3928 1.388 . S
C3927 C3926 1.366 . S
C3927 C3931 1.385 . S
C3928 H3909 0.951 1_545 S
C3928 C3926 1.388 . S
C3928 C3929 1.366 . S
C3929 C3928 1.366 . S
C3929 C3930 1.414 . S
C3929 C3932 1.499 . S
C3930 H3910 0.950 . S
C3930 C3929 1.414 . S
C3930 C3931 1.374 . S
C3931 H3911 0.950 . S
C3931 C3927 1.385 . S
C3931 C3930 1.374 . S
C3932 C3929 1.499 . S
C3932 C3933 1.373 . S
C3932 C3934 1.389 . S
C3933 H3912 0.950 . S
C3933 C3932 1.373 . S
C3933 C3949 1.377 . S
C3934 C3932 1.389 . S
C3934 C3935 1.524 1_545 S
C3934 C3948 1.377 . S
C3935 C3934 1.524 1_565 S
C3935 C3936 1.397 . S
C3935 C3940 1.363 . S
C3936 H3913 0.950 1_565 S
C3936 C3935 1.397 . S
C3936 C3937 1.334 . S
C3937 H3914 0.950 . S
C3937 C3936 1.334 . S
C3937 C3938 1.287 . S
C3938 C3937 1.287 . S
C3938 C3939 1.524 . S
C3938 H3957 0.913 . S
C3939 H3915 0.950 . S
C3939 C3938 1.524 . S
C3939 C3940 1.415 . S
C3940 H3916 0.950 . S
C3940 C3935 1.363 . S
C3940 C3939 1.415 . S
C3941 H3917 0.951 . S
C3941 C3942 1.366 . S
C3941 C3943 1.388 . S
C3942 C3941 1.366 . S
C3942 C3946 1.385 . S
C3943 H3918 0.951 . S
C3943 C3941 1.388 . S
C3943 C3944 1.366 . S
C3944 C3943 1.366 . S
C3944 C3945 1.414 . S
C3944 C3947 1.499 . S
C3945 H3919 0.975 . S
C3945 C3944 1.414 . S
C3945 C3946 1.374 . S
C3946 H3920 0.950 . S
C3946 C3942 1.385 . S
C3946 C3945 1.374 . S
C3947 C3944 1.499 . S
C3947 C3948 1.373 . S
C3947 C3949 1.389 . S
C3948 H3921 0.950 . S
C3948 C3934 1.377 . S
C3948 C3947 1.373 . S
C3949 C3933 1.377 . S
C3949 C3947 1.389 . S
C3949 C3950 1.524 . S
C3950 C3949 1.524 . S
C3950 C3951 1.397 . S
C3950 C3955 1.363 . S
C3951 H3922 0.950 . S
C3951 C3950 1.397 . S
C3951 C3952 1.334 . S
C3952 H3923 0.950 . S
C3952 C3951 1.334 . S
C3952 C3953 1.287 . S
C3953 C3952 1.287 . S
C3953 C3954 1.524 . S
C3953 H3956 0.999 . S
C3954 H3924 0.950 . S
C3954 C3953 1.524 . S
C3954 C3955 1.415 . S
C3955 H3925 0.950 . S
C3955 C3950 1.363 . S
C3955 C3954 1.415 . S
H3956 C3953 0.999 . S
H3957 C3938 0.913 . S
H3958 C3976 0.951 . S
H3959 C3978 0.951 . S
H3960 C3980 0.950 . S
H3961 C3981 0.950 . S
H3962 C3983 0.950 . S
H3963 C3986 0.950 . S
H3964 C3987 0.950 . S
H3965 C3989 0.950 . S
H3966 C3990 0.950 . S
H3967 C3991 0.951 . S
H3968 C3993 0.951 . S
H3969 C3995 0.950 . S
H3970 C3996 0.950 . S
H3971 C3998 0.950 . S
H3972 C4001 0.950 . S
H3973 C4002 0.950 . S
H3974 C4004 0.950 . S
H3975 C4005 0.950 . S
C3976 H3958 0.951 . S
C3976 C3977 1.366 . S
C3976 C3978 1.388 . S
C3977 C3976 1.366 . S
C3977 C3981 1.385 . S
C3978 H3959 0.951 . S
C3978 C3976 1.388 . S
C3978 C3979 1.366 . S
C3979 C3978 1.366 . S
C3979 C3980 1.414 . S
C3979 C3982 1.499 . S
C3980 H3960 0.950 . S
C3980 C3979 1.414 . S
C3980 C3981 1.374 . S
C3981 H3961 0.950 . S
C3981 C3977 1.385 . S
C3981 C3980 1.374 . S
C3982 C3979 1.499 . S
C3982 C3983 1.373 . S
C3982 C3984 1.389 . S
C3983 H3962 0.950 . S
C3983 C3982 1.373 . S
C3983 C3999 1.377 . S
C3984 C3982 1.389 . S
C3984 C3985 1.524 . S
C3984 C3998 1.377 . S
C3985 C3984 1.524 . S
C3985 C3986 1.397 . S
C3985 C3990 1.363 . S
C3986 H3963 0.950 . S
C3986 C3985 1.397 . S
C3986 C3987 1.334 . S
C3987 H3964 0.950 . S
C3987 C3986 1.334 . S
C3987 C3988 1.287 . S
C3988 C3987 1.287 . S
C3988 C3989 1.524 . S
C3988 H4007 0.913 . S
C3989 H3965 0.950 . S
C3989 C3988 1.524 . S
C3989 C3990 1.415 . S
C3990 H3966 0.950 . S
C3990 C3985 1.363 . S
C3990 C3989 1.415 . S
C3991 H3967 0.951 . S
C3991 C3992 1.366 . S
C3991 C3993 1.388 . S
C3992 C3991 1.366 . S
C3992 C3996 1.385 . S
C3993 H3968 0.951 . S
C3993 C3991 1.388 . S
C3993 C3994 1.366 . S
C3994 C3993 1.366 . S
C3994 C3995 1.414 . S
C3994 C3997 1.499 . S
C3995 H3969 0.950 . S
C3995 C3994 1.414 . S
C3995 C3996 1.374 . S
C3996 H3970 0.950 . S
C3996 C3992 1.385 . S
C3996 C3995 1.374 . S
C3997 C3994 1.499 . S
C3997 C3998 1.373 . S
C3997 C3999 1.389 . S
C3998 H3971 0.950 . S
C3998 C3984 1.377 . S
C3998 C3997 1.373 . S
C3999 C3983 1.377 . S
C3999 C3997 1.389 . S
C3999 C4000 1.524 . S
C4000 C3999 1.524 . S
C4000 C4001 1.397 . S
C4000 C4005 1.363 . S
C4001 H3972 0.950 . S
C4001 C4000 1.397 . S
C4001 C4002 1.334 . S
C4002 H3973 0.950 . S
C4002 C4001 1.334 . S
C4002 C4003 1.287 . S
C4003 C4002 1.287 . S
C4003 C4004 1.524 . S
C4003 H4006 0.999 . S
C4004 H3974 0.950 . S
C4004 C4003 1.524 . S
C4004 C4005 1.415 . S
C4005 H3975 0.950 . S
C4005 C4000 1.363 . S
C4005 C4004 1.415 . S
H4006 C4003 0.999 . S
H4007 C3988 0.913 . S
H4008 C4026 0.951 . S
H4009 C4028 0.951 . S
H4010 C4030 0.950 . S
H4011 C4031 0.950 . S
H4012 C4033 0.950 . S
H4013 C4036 0.950 . S
H4014 C4037 0.950 . S
H4015 C4039 0.950 . S
H4016 C4040 0.950 . S
H4017 C4041 0.951 . S
H4018 C4043 0.951 . S
H4019 C4045 0.950 . S
H4020 C4046 0.950 . S
H4021 C4048 0.950 . S
H4022 C4051 0.950 . S
H4023 C4052 0.950 . S
H4024 C4054 0.950 . S
H4025 C4055 0.950 . S
C4026 H4008 0.951 . S
C4026 C4027 1.366 . S
C4026 C4028 1.388 . S
C4027 C4026 1.366 . S
C4027 C4031 1.385 . S
C4028 H4009 0.951 . S
C4028 C4026 1.388 . S
C4028 C4029 1.366 . S
C4029 C4028 1.366 . S
C4029 C4030 1.414 . S
C4029 C4032 1.499 . S
C4030 H4010 0.950 . S
C4030 C4029 1.414 . S
C4030 C4031 1.374 . S
C4031 H4011 0.950 . S
C4031 C4027 1.385 . S
C4031 C4030 1.374 . S
C4032 C4029 1.499 . S
C4032 C4033 1.373 . S
C4032 C4034 1.389 . S
C4033 H4012 0.950 . S
C4033 C4032 1.373 . S
C4033 C4049 1.377 . S
C4034 C4032 1.389 . S
C4034 C4035 1.524 1_545 S
C4034 C4048 1.377 . S
C4035 C4034 1.524 1_565 S
C4035 C4036 1.397 . S
C4035 C4040 1.363 . S
C4036 H4013 0.950 . S
C4036 C4035 1.397 . S
C4036 C4037 1.334 . S
C4037 H4014 0.950 . S
C4037 C4036 1.334 . S
C4037 C4038 1.287 . S
C4038 C4037 1.287 . S
C4038 C4039 1.524 . S
C4038 H4057 0.913 . S
C4039 H4015 0.950 . S
C4039 C4038 1.524 . S
C4039 C4040 1.415 . S
C4040 H4016 0.950 . S
C4040 C4035 1.363 . S
C4040 C4039 1.415 . S
C4041 H4017 0.951 . S
C4041 C4042 1.366 . S
C4041 C4043 1.388 . S
C4042 C4041 1.366 . S
C4042 C4046 1.385 . S
C4043 H4018 0.951 . S
C4043 C4041 1.388 . S
C4043 C4044 1.366 . S
C4044 C4043 1.366 . S
C4044 C4045 1.414 . S
C4044 C4047 1.499 . S
C4045 H4019 0.950 . S
C4045 C4044 1.414 . S
C4045 C4046 1.374 . S
C4046 H4020 0.950 . S
C4046 C4042 1.385 . S
C4046 C4045 1.374 . S
C4047 C4044 1.499 . S
C4047 C4048 1.373 . S
C4047 C4049 1.389 . S
C4048 H4021 0.950 . S
C4048 C4034 1.377 . S
C4048 C4047 1.373 . S
C4049 C4033 1.377 . S
C4049 C4047 1.389 . S
C4049 C4050 1.524 . S
C4050 C4049 1.524 . S
C4050 C4051 1.397 . S
C4050 C4055 1.363 . S
C4051 H4022 0.950 . S
C4051 C4050 1.397 . S
C4051 C4052 1.334 . S
C4052 H4023 0.950 . S
C4052 C4051 1.334 . S
C4052 C4053 1.287 . S
C4053 C4052 1.287 . S
C4053 C4054 1.524 . S
C4053 H4056 0.999 . S
C4054 H4024 0.950 . S
C4054 C4053 1.524 . S
C4054 C4055 1.415 . S
C4055 H4025 0.950 . S
C4055 C4050 1.363 . S
C4055 C4054 1.415 . S
H4056 C4053 0.999 . S
H4057 C4038 0.913 . S
H4058 C4076 0.951 . S
H4059 C4078 0.951 . S
H4060 C4080 0.950 . S
H4061 C4081 0.950 . S
H4062 C4083 0.950 . S
H4063 C4086 0.950 . S
H4064 C4087 0.950 . S
H4065 C4089 0.950 . S
H4066 C4090 0.950 . S
H4067 C4091 0.951 . S
H4068 C4093 0.951 . S
H4069 C4095 0.950 . S
H4070 C4096 0.950 . S
H4071 C4098 0.950 . S
H4072 C4101 0.950 . S
H4073 C4102 0.950 . S
H4074 C4104 0.950 . S
H4075 C4105 0.950 . S
C4076 H4058 0.951 . S
C4076 C4077 1.366 . S
C4076 C4078 1.388 . S
C4077 C4076 1.366 . S
C4077 C4081 1.385 . S
C4078 H4059 0.951 . S
C4078 C4076 1.388 . S
C4078 C4079 1.366 . S
C4079 C4078 1.366 . S
C4079 C4080 1.414 . S
C4079 C4082 1.499 . S
C4080 H4060 0.950 . S
C4080 C4079 1.414 . S
C4080 C4081 1.374 . S
C4081 H4061 0.950 . S
C4081 C4077 1.385 . S
C4081 C4080 1.374 . S
C4082 C4079 1.499 . S
C4082 C4083 1.373 . S
C4082 C4084 1.389 . S
C4083 H4062 0.950 . S
C4083 C4082 1.373 . S
C4083 C4099 1.377 . S
C4084 C4082 1.389 . S
C4084 C4085 1.524 . S
C4084 C4098 1.377 . S
C4085 C4084 1.524 . S
C4085 C4086 1.397 . S
C4085 C4090 1.363 . S
C4086 H4063 0.950 . S
C4086 C4085 1.397 . S
C4086 C4087 1.334 . S
C4087 H4064 0.950 . S
C4087 C4086 1.334 . S
C4087 C4088 1.287 . S
C4088 C4087 1.287 . S
C4088 C4089 1.524 . S
C4088 H4107 0.913 . S
C4089 H4065 0.950 . S
C4089 C4088 1.524 . S
C4089 C4090 1.415 . S
C4090 H4066 0.950 . S
C4090 C4085 1.363 . S
C4090 C4089 1.415 . S
C4091 H4067 0.951 . S
C4091 C4092 1.366 . S
C4091 C4093 1.388 . S
C4092 C4091 1.366 . S
C4092 C4096 1.385 . S
C4093 H4068 0.951 . S
C4093 C4091 1.388 . S
C4093 C4094 1.366 . S
C4094 C4093 1.366 . S
C4094 C4095 1.414 . S
C4094 C4097 1.499 . S
C4095 H4069 0.950 . S
C4095 C4094 1.414 . S
C4095 C4096 1.374 . S
C4096 H4070 0.950 . S
C4096 C4092 1.385 . S
C4096 C4095 1.374 . S
C4097 C4094 1.499 . S
C4097 C4098 1.373 . S
C4097 C4099 1.389 . S
C4098 H4071 0.950 . S
C4098 C4084 1.377 . S
C4098 C4097 1.373 . S
C4099 C4083 1.377 . S
C4099 C4097 1.389 . S
C4099 C4100 1.524 . S
C4100 C4099 1.524 . S
C4100 C4101 1.397 . S
C4100 C4105 1.363 . S
C4101 H4072 0.950 . S
C4101 C4100 1.397 . S
C4101 C4102 1.334 . S
C4102 H4073 0.950 . S
C4102 C4101 1.334 . S
C4102 C4103 1.287 . S
C4103 C4102 1.287 . S
C4103 C4104 1.524 . S
C4103 H4106 0.999 . S
C4104 H4074 0.950 . S
C4104 C4103 1.524 . S
C4104 C4105 1.415 . S
C4105 H4075 0.950 . S
C4105 C4100 1.363 . S
C4105 C4104 1.415 . S
H4106 C4103 0.999 . S
H4107 C4088 0.913 . S
H4108 C4126 0.951 . S
H4109 C4128 0.951 . S
H4110 C4130 0.950 . S
H4111 C4131 0.950 . S
H4112 C4133 0.986 . S
H4113 C4136 0.950 . S
H4114 C4137 0.950 . S
H4115 C4139 0.950 . S
H4116 C4140 0.950 . S
H4117 C4141 0.951 . S
H4118 C4143 0.951 . S
H4119 C4145 0.950 . S
H4120 C4146 0.950 . S
H4121 C4148 0.950 . S
H4122 C4151 0.950 . S
H4123 C4152 0.950 . S
H4124 C4154 0.950 . S
H4125 C4155 0.950 . S
C4126 H4108 0.951 . S
C4126 C4127 1.366 . S
C4126 C4128 1.388 . S
C4127 C4126 1.366 . S
C4127 C4131 1.385 . S
C4128 H4109 0.951 . S
C4128 C4126 1.388 . S
C4128 C4129 1.366 . S
C4129 C4128 1.366 . S
C4129 C4130 1.414 . S
C4129 C4132 1.499 . S
C4130 H4110 0.950 . S
C4130 C4129 1.414 . S
C4130 C4131 1.374 . S
C4131 H4111 0.950 . S
C4131 C4127 1.385 . S
C4131 C4130 1.374 . S
C4132 C4129 1.499 . S
C4132 C4133 1.337 1_545 S
C4132 C4134 1.389 . S
C4133 H4112 0.986 . S
C4133 C4132 1.337 1_565 S
C4133 C4149 1.382 . S
C4134 C4132 1.389 . S
C4134 C4135 1.524 . S
C4134 C4148 1.377 . S
C4135 C4134 1.524 . S
C4135 C4136 1.397 . S
C4135 C4140 1.363 . S
C4136 H4113 0.950 . S
C4136 C4135 1.397 . S
C4136 C4137 1.334 . S
C4137 H4114 0.950 . S
C4137 C4136 1.334 . S
C4137 C4138 1.287 . S
C4138 C4137 1.287 . S
C4138 C4139 1.524 . S
C4138 H4157 0.913 . S
C4139 H4115 0.950 . S
C4139 C4138 1.524 . S
C4139 C4140 1.415 . S
C4140 H4116 0.950 . S
C4140 C4135 1.363 . S
C4140 C4139 1.415 . S
C4141 H4117 0.951 . S
C4141 C4142 1.366 . S
C4141 C4143 1.388 . S
C4142 C4141 1.366 . S
C4142 C4146 1.385 . S
C4143 H4118 0.951 . S
C4143 C4141 1.388 . S
C4143 C4144 1.366 . S
C4144 C4143 1.366 . S
C4144 C4145 1.414 . S
C4144 C4147 1.499 . S
C4145 H4119 0.950 . S
C4145 C4144 1.414 . S
C4145 C4146 1.374 . S
C4146 H4120 0.950 . S
C4146 C4142 1.385 . S
C4146 C4145 1.374 . S
C4147 C4144 1.499 . S
C4147 C4148 1.373 . S
C4147 C4149 1.389 1_545 S
C4148 H4121 0.950 . S
C4148 C4134 1.377 . S
C4148 C4147 1.373 . S
C4149 C4133 1.382 . S
C4149 C4147 1.389 1_565 S
C4149 C4150 1.524 . S
C4150 C4149 1.524 . S
C4150 C4151 1.397 . S
C4150 C4155 1.363 . S
C4151 H4122 0.950 . S
C4151 C4150 1.397 . S
C4151 C4152 1.334 . S
C4152 H4123 0.950 . S
C4152 C4151 1.334 . S
C4152 C4153 1.287 . S
C4153 C4152 1.287 . S
C4153 C4154 1.524 . S
C4153 H4156 0.999 . S
C4154 H4124 0.950 . S
C4154 C4153 1.524 . S
C4154 C4155 1.415 . S
C4155 H4125 0.950 . S
C4155 C4150 1.363 . S
C4155 C4154 1.415 . S
H4156 C4153 0.999 . S
H4157 C4138 0.913 . S
H4158 C4176 0.951 . S
H4159 C4178 0.951 . S
H4160 C4180 0.950 . S
H4161 C4181 0.950 . S
H4162 C4183 0.950 . S
H4163 C4186 0.950 . S
H4164 C4187 0.950 . S
H4165 C4189 0.950 . S
H4166 C4190 0.950 . S
H4167 C4191 0.951 . S
H4168 C4193 0.951 . S
H4169 C4195 0.950 . S
H4170 C4196 0.950 . S
H4171 C4198 0.950 . S
H4172 C4201 0.950 . S
H4173 C4202 0.950 . S
H4174 C4204 0.950 . S
H4175 C4205 0.950 . S
C4176 H4158 0.951 . S
C4176 C4177 1.366 . S
C4176 C4178 1.388 . S
C4177 C4176 1.366 . S
C4177 C4181 1.385 . S
C4178 H4159 0.951 . S
C4178 C4176 1.388 . S
C4178 C4179 1.366 . S
C4179 C4178 1.366 . S
C4179 C4180 1.414 . S
C4179 C4182 1.499 . S
C4180 H4160 0.950 . S
C4180 C4179 1.414 . S
C4180 C4181 1.374 . S
C4181 H4161 0.950 . S
C4181 C4177 1.385 . S
C4181 C4180 1.374 . S
C4182 C4179 1.499 . S
C4182 C4183 1.373 . S
C4182 C4184 1.389 . S
C4183 H4162 0.950 . S
C4183 C4182 1.373 . S
C4183 C4199 1.377 . S
C4184 C4182 1.389 . S
C4184 C4185 1.524 . S
C4184 C4198 1.377 . S
C4185 C4184 1.524 . S
C4185 C4186 1.397 . S
C4185 C4190 1.363 . S
C4186 H4163 0.950 . S
C4186 C4185 1.397 . S
C4186 C4187 1.334 . S
C4187 H4164 0.950 . S
C4187 C4186 1.334 . S
C4187 C4188 1.287 . S
C4188 C4187 1.287 . S
C4188 C4189 1.524 . S
C4188 H4207 0.913 . S
C4189 H4165 0.950 . S
C4189 C4188 1.524 . S
C4189 C4190 1.415 . S
C4190 H4166 0.950 . S
C4190 C4185 1.363 . S
C4190 C4189 1.415 . S
C4191 H4167 0.951 . S
C4191 C4192 1.366 . S
C4191 C4193 1.388 . S
C4192 C4191 1.366 . S
C4192 C4196 1.385 . S
C4193 H4168 0.951 . S
C4193 C4191 1.388 . S
C4193 C4194 1.366 . S
C4194 C4193 1.366 . S
C4194 C4195 1.414 . S
C4194 C4197 1.499 . S
C4195 H4169 0.950 . S
C4195 C4194 1.414 . S
C4195 C4196 1.374 . S
C4196 H4170 0.950 . S
C4196 C4192 1.385 . S
C4196 C4195 1.374 . S
C4197 C4194 1.499 . S
C4197 C4198 1.373 . S
C4197 C4199 1.389 . S
C4198 H4171 0.950 . S
C4198 C4184 1.377 . S
C4198 C4197 1.373 . S
C4199 C4183 1.377 . S
C4199 C4197 1.389 . S
C4199 C4200 1.524 . S
C4200 C4199 1.524 . S
C4200 C4201 1.397 . S
C4200 C4205 1.363 . S
C4201 H4172 0.950 . S
C4201 C4200 1.397 . S
C4201 C4202 1.334 . S
C4202 H4173 0.950 . S
C4202 C4201 1.334 . S
C4202 C4203 1.287 . S
C4203 C4202 1.287 . S
C4203 C4204 1.524 . S
C4203 H4206 0.999 . S
C4204 H4174 0.950 . S
C4204 C4203 1.524 . S
C4204 C4205 1.415 . S
C4205 H4175 0.950 . S
C4205 C4200 1.363 . S
C4205 C4204 1.415 . S
H4206 C4203 0.999 . S
H4207 C4188 0.913 . S
H4208 C4226 0.951 . S
H4209 C4228 0.951 . S
H4210 C4230 0.950 . S
H4211 C4231 0.950 . S
H4212 C4233 0.950 . S
H4213 C4236 0.950 . S
H4214 C4237 0.950 . S
H4215 C4239 0.950 . S
H4216 C4240 0.950 . S
H4217 C4241 0.951 . S
H4218 C4243 0.951 . S
H4219 C4245 0.950 1_556 S
H4220 C4246 0.950 1_556 S
H4221 C4248 0.950 . S
H4222 C4251 0.950 . S
H4223 C4252 0.950 . S
H4224 C4254 0.950 . S
H4225 C4255 0.950 . S
C4226 H4208 0.951 . S
C4226 C4227 1.366 . S
C4226 C4228 1.388 . S
C4227 C4226 1.366 . S
C4227 C4231 1.385 . S
C4228 H4209 0.951 . S
C4228 C4226 1.388 . S
C4228 C4229 1.366 . S
C4229 C4228 1.366 . S
C4229 C4230 1.414 . S
C4229 C4232 1.499 . S
C4230 H4210 0.950 . S
C4230 C4229 1.414 . S
C4230 C4231 1.374 . S
C4231 H4211 0.950 . S
C4231 C4227 1.385 . S
C4231 C4230 1.374 . S
C4232 C4229 1.499 . S
C4232 C4233 1.373 . S
C4232 C4234 1.389 . S
C4233 H4212 0.950 . S
C4233 C4232 1.373 . S
C4233 C4249 1.377 . S
C4234 C4232 1.389 . S
C4234 C4235 1.524 . S
C4234 C4248 1.377 . S
C4235 C4234 1.524 . S
C4235 C4236 1.397 . S
C4235 C4240 1.363 1_554 S
C4236 H4213 0.950 . S
C4236 C4235 1.397 . S
C4236 C4237 1.334 . S
C4237 H4214 0.950 . S
C4237 C4236 1.334 . S
C4237 C4238 1.287 1_554 S
C4238 C4237 1.287 1_556 S
C4238 C4239 1.524 . S
C4238 H4257 0.913 . S
C4239 H4215 0.950 . S
C4239 C4238 1.524 . S
C4239 C4240 1.415 . S
C4240 H4216 0.950 . S
C4240 C4235 1.363 1_556 S
C4240 C4239 1.415 . S
C4241 H4217 0.951 . S
C4241 C4242 1.366 . S
C4241 C4243 1.388 . S
C4242 C4241 1.366 . S
C4242 C4246 1.385 . S
C4243 H4218 0.951 . S
C4243 C4241 1.388 . S
C4243 C4244 1.366 . S
C4244 C4243 1.366 . S
C4244 C4245 1.414 . S
C4244 C4247 1.499 . S
C4245 H4219 0.950 1_554 S
C4245 C4244 1.414 . S
C4245 C4246 1.374 . S
C4246 H4220 0.950 1_554 S
C4246 C4242 1.385 . S
C4246 C4245 1.374 . S
C4247 C4244 1.499 . S
C4247 C4248 1.373 . S
C4247 C4249 1.389 . S
C4248 H4221 0.950 . S
C4248 C4234 1.377 . S
C4248 C4247 1.373 . S
C4249 C4233 1.377 . S
C4249 C4247 1.389 . S
C4249 C4250 1.524 . S
C4250 C4249 1.524 . S
C4250 C4251 1.397 . S
C4250 C4255 1.363 . S
C4251 H4222 0.950 . S
C4251 C4250 1.397 . S
C4251 C4252 1.334 . S
C4252 H4223 0.950 . S
C4252 C4251 1.334 . S
C4252 C4253 1.287 . S
C4253 C4252 1.287 . S
C4253 C4254 1.524 . S
C4253 H4256 0.999 . S
C4254 H4224 0.950 . S
C4254 C4253 1.524 . S
C4254 C4255 1.415 . S
C4255 H4225 0.950 . S
C4255 C4250 1.363 . S
C4255 C4254 1.415 . S
H4256 C4253 0.999 . S
H4257 C4238 0.913 . S
H4258 C4276 0.951 . S
H4259 C4278 0.951 . S
H4260 C4280 0.950 . S
H4261 C4281 0.950 . S
H4262 C4283 0.950 . S
H4263 C4286 0.950 . S
H4264 C4287 0.950 . S
H4265 C4289 0.950 . S
H4266 C4290 0.950 1_556 S
H4267 C4291 0.951 . S
H4268 C4293 0.951 . S
H4269 C4295 0.950 . S
H4270 C4296 0.950 . S
H4271 C4298 0.950 . S
H4272 C4301 0.950 . S
H4273 C4302 0.950 . S
H4274 C4304 0.950 . S
H4275 C4305 0.950 . S
C4276 H4258 0.951 . S
C4276 C4277 1.366 . S
C4276 C4278 1.388 . S
C4277 C4276 1.366 . S
C4277 C4281 1.385 . S
C4278 H4259 0.951 . S
C4278 C4276 1.388 . S
C4278 C4279 1.366 . S
C4279 C4278 1.366 . S
C4279 C4280 1.414 . S
C4279 C4282 1.499 . S
C4280 H4260 0.950 . S
C4280 C4279 1.414 . S
C4280 C4281 1.374 . S
C4281 H4261 0.950 . S
C4281 C4277 1.385 . S
C4281 C4280 1.374 . S
C4282 C4279 1.499 . S
C4282 C4283 1.373 . S
C4282 C4284 1.389 . S
C4283 H4262 0.950 . S
C4283 C4282 1.373 . S
C4283 C4299 1.377 . S
C4284 C4282 1.389 . S
C4284 C4285 1.524 . S
C4284 C4298 1.377 . S
C4285 C4284 1.524 . S
C4285 C4286 1.397 . S
C4285 C4290 1.363 . S
C4286 H4263 0.950 . S
C4286 C4285 1.397 . S
C4286 C4287 1.334 . S
C4287 H4264 0.950 . S
C4287 C4286 1.334 . S
C4287 C4288 1.287 . S
C4288 C4287 1.287 . S
C4288 C4289 1.524 1_554 S
C4288 H4307 0.913 . S
C4289 H4265 0.950 . S
C4289 C4288 1.524 1_556 S
C4289 C4290 1.415 1_556 S
C4290 H4266 0.950 1_554 S
C4290 C4285 1.363 . S
C4290 C4289 1.415 1_554 S
C4291 H4267 0.951 . S
C4291 C4292 1.366 . S
C4291 C4293 1.388 . S
C4292 C4291 1.366 . S
C4292 C4296 1.385 . S
C4293 H4268 0.951 . S
C4293 C4291 1.388 . S
C4293 C4294 1.366 . S
C4294 C4293 1.366 . S
C4294 C4295 1.414 . S
C4294 C4297 1.499 . S
C4295 H4269 0.950 . S
C4295 C4294 1.414 . S
C4295 C4296 1.374 . S
C4296 H4270 0.950 . S
C4296 C4292 1.385 . S
C4296 C4295 1.374 . S
C4297 C4294 1.499 . S
C4297 C4298 1.373 . S
C4297 C4299 1.389 . S
C4298 H4271 0.950 . S
C4298 C4284 1.377 . S
C4298 C4297 1.373 . S
C4299 C4283 1.377 . S
C4299 C4297 1.389 . S
C4299 C4300 1.524 . S
C4300 C4299 1.524 . S
C4300 C4301 1.397 . S
C4300 C4305 1.363 . S
C4301 H4272 0.950 . S
C4301 C4300 1.397 . S
C4301 C4302 1.334 . S
C4302 H4273 0.950 . S
C4302 C4301 1.334 . S
C4302 C4303 1.287 . S
C4303 C4302 1.287 . S
C4303 C4304 1.524 . S
C4303 H4306 0.999 . S
C4304 H4274 0.950 . S
C4304 C4303 1.524 . S
C4304 C4305 1.415 . S
C4305 H4275 0.950 . S
C4305 C4300 1.363 . S
C4305 C4304 1.415 . S
H4306 C4303 0.999 . S
H4307 C4288 0.913 . S
H4308 C4326 0.951 . S
H4309 C4328 0.951 . S
H4310 C4330 0.950 . S
H4311 C4331 0.950 . S
H4312 C4333 0.950 . S
H4313 C4336 0.950 . S
H4314 C4337 0.950 . S
H4315 C4339 0.950 . S
H4316 C4340 0.950 . S
H4317 C4341 0.951 . S
H4318 C4343 0.951 . S
H4319 C4345 0.950 . S
H4320 C4346 0.950 . S
H4321 C4348 0.950 . S
H4322 C4351 0.950 . S
H4323 C4352 0.950 . S
H4324 C4354 0.950 . S
H4325 C4355 0.950 . S
C4326 H4308 0.951 . S
C4326 C4327 1.366 . S
C4326 C4328 1.388 . S
C4327 C4326 1.366 . S
C4327 C4331 1.385 . S
C4328 H4309 0.951 . S
C4328 C4326 1.388 . S
C4328 C4329 1.366 . S
C4329 C4328 1.366 . S
C4329 C4330 1.414 . S
C4329 C4332 1.499 . S
C4330 H4310 0.950 . S
C4330 C4329 1.414 . S
C4330 C4331 1.374 . S
C4331 H4311 0.950 . S
C4331 C4327 1.385 . S
C4331 C4330 1.374 . S
C4332 C4329 1.499 . S
C4332 C4333 1.373 . S
C4332 C4334 1.389 . S
C4333 H4312 0.950 . S
C4333 C4332 1.373 . S
C4333 C4349 1.377 . S
C4334 C4332 1.389 . S
C4334 C4335 1.524 . S
C4334 C4348 1.377 . S
C4335 C4334 1.524 . S
C4335 C4336 1.397 . S
C4335 C4340 1.363 . S
C4336 H4313 0.950 . S
C4336 C4335 1.397 . S
C4336 C4337 1.334 . S
C4337 H4314 0.950 . S
C4337 C4336 1.334 . S
C4337 C4338 1.287 . S
C4338 C4337 1.287 . S
C4338 C4339 1.524 . S
C4338 H4357 0.913 . S
C4339 H4315 0.950 . S
C4339 C4338 1.524 . S
C4339 C4340 1.415 . S
C4340 H4316 0.950 . S
C4340 C4335 1.363 . S
C4340 C4339 1.415 . S
C4341 H4317 0.951 . S
C4341 C4342 1.366 . S
C4341 C4343 1.388 . S
C4342 C4341 1.366 . S
C4342 C4346 1.385 . S
C4343 H4318 0.951 . S
C4343 C4341 1.388 . S
C4343 C4344 1.366 . S
C4344 C4343 1.366 . S
C4344 C4345 1.414 . S
C4344 C4347 1.499 . S
C4345 H4319 0.950 . S
C4345 C4344 1.414 . S
C4345 C4346 1.374 . S
C4346 H4320 0.950 . S
C4346 C4342 1.385 . S
C4346 C4345 1.374 . S
C4347 C4344 1.499 . S
C4347 C4348 1.373 . S
C4347 C4349 1.389 . S
C4348 H4321 0.950 . S
C4348 C4334 1.377 . S
C4348 C4347 1.373 . S
C4349 C4333 1.377 . S
C4349 C4347 1.389 . S
C4349 C4350 1.524 . S
C4350 C4349 1.524 . S
C4350 C4351 1.397 . S
C4350 C4355 1.363 . S
C4351 H4322 0.950 . S
C4351 C4350 1.397 . S
C4351 C4352 1.334 . S
C4352 H4323 0.950 . S
C4352 C4351 1.334 . S
C4352 C4353 1.287 . S
C4353 C4352 1.287 . S
C4353 C4354 1.524 . S
C4353 H4356 0.999 . S
C4354 H4324 0.950 . S
C4354 C4353 1.524 . S
C4354 C4355 1.415 . S
C4355 H4325 0.950 . S
C4355 C4350 1.363 . S
C4355 C4354 1.415 . S
H4356 C4353 0.999 . S
H4357 C4338 0.913 . S
H4358 C4376 0.951 . S
H4359 C4378 0.951 . S
H4360 C4380 0.950 . S
H4361 C4381 0.950 . S
H4362 C4383 0.950 . S
H4363 C4386 0.950 . S
H4364 C4387 0.950 . S
H4365 C4389 0.950 . S
H4366 C4390 0.950 . S
H4367 C4391 0.951 . S
H4368 C4393 0.951 . S
H4369 C4395 0.950 . S
H4370 C4396 0.950 . S
H4371 C4398 0.950 . S
H4372 C4401 0.950 . S
H4373 C4402 0.950 . S
H4374 C4404 0.950 . S
H4375 C4405 0.950 . S
C4376 H4358 0.951 . S
C4376 C4377 1.366 . S
C4376 C4378 1.388 . S
C4377 C4376 1.366 . S
C4377 C4381 1.385 . S
C4378 H4359 0.951 . S
C4378 C4376 1.388 . S
C4378 C4379 1.366 . S
C4379 C4378 1.366 . S
C4379 C4380 1.414 . S
C4379 C4382 1.499 . S
C4380 H4360 0.950 . S
C4380 C4379 1.414 . S
C4380 C4381 1.374 . S
C4381 H4361 0.950 . S
C4381 C4377 1.385 . S
C4381 C4380 1.374 . S
C4382 C4379 1.499 . S
C4382 C4383 1.373 . S
C4382 C4384 1.389 . S
C4383 H4362 0.950 . S
C4383 C4382 1.373 . S
C4383 C4399 1.377 . S
C4384 C4382 1.389 . S
C4384 C4385 1.524 . S
C4384 C4398 1.377 . S
C4385 C4384 1.524 . S
C4385 C4386 1.397 . S
C4385 C4390 1.363 . S
C4386 H4363 0.950 . S
C4386 C4385 1.397 . S
C4386 C4387 1.334 . S
C4387 H4364 0.950 . S
C4387 C4386 1.334 . S
C4387 C4388 1.287 . S
C4388 C4387 1.287 . S
C4388 C4389 1.524 . S
C4388 H4407 0.913 . S
C4389 H4365 0.950 . S
C4389 C4388 1.524 . S
C4389 C4390 1.415 . S
C4390 H4366 0.950 . S
C4390 C4385 1.363 . S
C4390 C4389 1.415 . S
C4391 H4367 0.951 . S
C4391 C4392 1.366 . S
C4391 C4393 1.388 . S
C4392 C4391 1.366 . S
C4392 C4396 1.385 . S
C4393 H4368 0.951 . S
C4393 C4391 1.388 . S
C4393 C4394 1.366 . S
C4394 C4393 1.366 . S
C4394 C4395 1.414 . S
C4394 C4397 1.499 . S
C4395 H4369 0.950 . S
C4395 C4394 1.414 . S
C4395 C4396 1.374 . S
C4396 H4370 0.950 . S
C4396 C4392 1.385 . S
C4396 C4395 1.374 . S
C4397 C4394 1.499 . S
C4397 C4398 1.373 . S
C4397 C4399 1.389 . S
C4398 H4371 0.950 . S
C4398 C4384 1.377 . S
C4398 C4397 1.373 . S
C4399 C4383 1.377 . S
C4399 C4397 1.389 . S
C4399 C4400 1.524 . S
C4400 C4399 1.524 . S
C4400 C4401 1.397 . S
C4400 C4405 1.363 . S
C4401 H4372 0.950 . S
C4401 C4400 1.397 . S
C4401 C4402 1.334 . S
C4402 H4373 0.950 . S
C4402 C4401 1.334 . S
C4402 C4403 1.287 . S
C4403 C4402 1.287 . S
C4403 C4404 1.524 . S
C4403 H4406 0.999 . S
C4404 H4374 0.950 . S
C4404 C4403 1.524 . S
C4404 C4405 1.415 . S
C4405 H4375 0.950 . S
C4405 C4400 1.363 . S
C4405 C4404 1.415 . S
H4406 C4403 0.999 . S
H4407 C4388 0.913 . S
H4408 C4426 0.951 . S
H4409 C4428 0.951 . S
H4410 C4430 0.950 . S
H4411 C4431 0.950 . S
H4412 C4433 0.950 . S
H4413 C4436 0.950 . S
H4414 C4437 0.950 . S
H4415 C4439 0.950 . S
H4416 C4440 0.950 . S
H4417 C4441 0.951 . S
H4418 C4443 0.951 . S
H4419 C4445 0.950 . S
H4420 C4446 0.950 . S
H4421 C4448 0.950 . S
H4422 C4451 0.950 . S
H4423 C4452 0.950 . S
H4424 C4454 0.950 . S
H4425 C4455 0.950 . S
C4426 H4408 0.951 . S
C4426 C4427 1.366 1_565 S
C4426 C4428 1.388 . S
C4427 C4426 1.366 1_545 S
C4427 C4431 1.385 . S
C4428 H4409 0.951 . S
C4428 C4426 1.388 . S
C4428 C4429 1.366 . S
C4429 C4428 1.366 . S
C4429 C4430 1.414 . S
C4429 C4432 1.499 . S
C4430 H4410 0.950 . S
C4430 C4429 1.414 . S
C4430 C4431 1.374 1_565 S
C4431 H4411 0.950 . S
C4431 C4427 1.385 . S
C4431 C4430 1.374 1_545 S
C4432 C4429 1.499 . S
C4432 C4433 1.373 . S
C4432 C4434 1.389 . S
C4433 H4412 0.950 . S
C4433 C4432 1.373 . S
C4433 C4449 1.377 . S
C4434 C4432 1.389 . S
C4434 C4435 1.524 . S
C4434 C4448 1.377 . S
C4435 C4434 1.524 . S
C4435 C4436 1.397 . S
C4435 C4440 1.363 . S
C4436 H4413 0.950 . S
C4436 C4435 1.397 . S
C4436 C4437 1.334 . S
C4437 H4414 0.950 . S
C4437 C4436 1.334 . S
C4437 C4438 1.287 . S
C4438 C4437 1.287 . S
C4438 C4439 1.524 . S
C4438 H4457 0.913 . S
C4439 H4415 0.950 . S
C4439 C4438 1.524 . S
C4439 C4440 1.415 . S
C4440 H4416 0.950 . S
C4440 C4435 1.363 . S
C4440 C4439 1.415 . S
C4441 H4417 0.951 . S
C4441 C4442 1.366 . S
C4441 C4443 1.388 . S
C4442 C4441 1.366 . S
C4442 C4446 1.385 . S
C4443 H4418 0.951 . S
C4443 C4441 1.388 . S
C4443 C4444 1.366 . S
C4444 C4443 1.366 . S
C4444 C4445 1.414 . S
C4444 C4447 1.499 . S
C4445 H4419 0.950 . S
C4445 C4444 1.414 . S
C4445 C4446 1.374 . S
C4446 H4420 0.950 . S
C4446 C4442 1.385 . S
C4446 C4445 1.374 . S
C4447 C4444 1.499 . S
C4447 C4448 1.373 . S
C4447 C4449 1.389 . S
C4448 H4421 0.950 . S
C4448 C4434 1.377 . S
C4448 C4447 1.373 . S
C4449 C4433 1.377 . S
C4449 C4447 1.389 . S
C4449 C4450 1.524 . S
C4450 C4449 1.524 . S
C4450 C4451 1.397 . S
C4450 C4455 1.363 . S
C4451 H4422 0.950 . S
C4451 C4450 1.397 . S
C4451 C4452 1.334 . S
C4452 H4423 0.950 . S
C4452 C4451 1.334 . S
C4452 C4453 1.287 . S
C4453 C4452 1.287 . S
C4453 C4454 1.524 . S
C4453 H4456 0.999 . S
C4454 H4424 0.950 . S
C4454 C4453 1.524 . S
C4454 C4455 1.415 . S
C4455 H4425 0.950 . S
C4455 C4450 1.363 . S
C4455 C4454 1.415 . S
H4456 C4453 0.999 . S
H4457 C4438 0.913 . S
H4458 C4476 0.951 . S
H4459 C4478 0.951 . S
H4460 C4480 0.950 . S
H4461 C4481 0.950 . S
H4462 C4483 0.950 . S
H4463 C4486 0.950 . S
H4464 C4487 0.950 . S
H4465 C4489 0.950 . S
H4466 C4490 0.950 . S
H4467 C4491 0.951 . S
H4468 C4493 0.951 . S
H4469 C4495 0.950 . S
H4470 C4496 0.950 1_545 S
H4471 C4498 0.950 . S
H4472 C4501 0.950 . S
H4473 C4502 0.950 . S
H4474 C4504 0.950 . S
H4475 C4505 0.950 . S
C4476 H4458 0.951 . S
C4476 C4477 1.366 . S
C4476 C4478 1.388 . S
C4477 C4476 1.366 . S
C4477 C4481 1.385 . S
C4478 H4459 0.951 . S
C4478 C4476 1.388 . S
C4478 C4479 1.366 . S
C4479 C4478 1.366 . S
C4479 C4480 1.414 . S
C4479 C4482 1.499 . S
C4480 H4460 0.950 . S
C4480 C4479 1.414 . S
C4480 C4481 1.374 . S
C4481 H4461 0.950 . S
C4481 C4477 1.385 . S
C4481 C4480 1.374 . S
C4482 C4479 1.499 . S
C4482 C4483 1.373 . S
C4482 C4484 1.389 . S
C4483 H4462 0.950 . S
C4483 C4482 1.373 . S
C4483 C4499 1.377 . S
C4484 C4482 1.389 . S
C4484 C4485 1.524 . S
C4484 C4498 1.377 . S
C4485 C4484 1.524 . S
C4485 C4486 1.397 . S
C4485 C4490 1.363 . S
C4486 H4463 0.950 . S
C4486 C4485 1.397 . S
C4486 C4487 1.334 . S
C4487 H4464 0.950 . S
C4487 C4486 1.334 . S
C4487 C4488 1.287 . S
C4488 C4487 1.287 . S
C4488 C4489 1.524 . S
C4488 H4507 0.913 . S
C4489 H4465 0.950 . S
C4489 C4488 1.524 . S
C4489 C4490 1.415 . S
C4490 H4466 0.950 . S
C4490 C4485 1.363 . S
C4490 C4489 1.415 . S
C4491 H4467 0.951 . S
C4491 C4492 1.366 . S
C4491 C4493 1.388 . S
C4492 C4491 1.366 . S
C4492 C4496 1.385 . S
C4493 H4468 0.951 . S
C4493 C4491 1.388 . S
C4493 C4494 1.366 . S
C4494 C4493 1.366 . S
C4494 C4495 1.414 . S
C4494 C4497 1.499 . S
C4495 H4469 0.950 . S
C4495 C4494 1.414 . S
C4495 C4496 1.374 . S
C4496 H4470 0.950 1_565 S
C4496 C4492 1.385 . S
C4496 C4495 1.374 . S
C4497 C4494 1.499 . S
C4497 C4498 1.373 . S
C4497 C4499 1.389 . S
C4498 H4471 0.950 . S
C4498 C4484 1.377 . S
C4498 C4497 1.373 . S
C4499 C4483 1.377 . S
C4499 C4497 1.389 . S
C4499 C4500 1.524 . S
C4500 C4499 1.524 . S
C4500 C4501 1.397 . S
C4500 C4505 1.363 . S
C4501 H4472 0.950 . S
C4501 C4500 1.397 . S
C4501 C4502 1.334 . S
C4502 H4473 0.950 . S
C4502 C4501 1.334 . S
C4502 C4503 1.287 . S
C4503 C4502 1.287 . S
C4503 C4504 1.524 . S
C4503 H4506 0.999 . S
C4504 H4474 0.950 . S
C4504 C4503 1.524 . S
C4504 C4505 1.415 . S
C4505 H4475 0.950 . S
C4505 C4500 1.363 . S
C4505 C4504 1.415 . S
H4506 C4503 0.999 . S
H4507 C4488 0.913 . S
H4508 C4526 0.951 . S
H4509 C4528 0.951 . S
H4510 C4530 0.950 . S
H4511 C4531 0.950 . S
H4512 C4533 0.950 . S
H4513 C4536 0.950 . S
H4514 C4537 0.950 . S
H4515 C4539 0.950 . S
H4516 C4540 0.950 . S
H4517 C4541 0.951 . S
H4518 C4543 0.951 . S
H4519 C4545 0.950 . S
H4520 C4546 0.950 . S
H4521 C4548 0.950 . S
H4522 C4551 0.950 . S
H4523 C4552 0.950 . S
H4524 C4554 0.950 . S
H4525 C4555 0.950 . S
C4526 H4508 0.951 . S
C4526 C4527 1.366 . S
C4526 C4528 1.388 . S
C4527 C4526 1.366 . S
C4527 C4531 1.385 . S
C4528 H4509 0.951 . S
C4528 C4526 1.388 . S
C4528 C4529 1.366 . S
C4529 C4528 1.366 . S
C4529 C4530 1.414 . S
C4529 C4532 1.499 . S
C4530 H4510 0.950 . S
C4530 C4529 1.414 . S
C4530 C4531 1.374 . S
C4531 H4511 0.950 . S
C4531 C4527 1.385 . S
C4531 C4530 1.374 . S
C4532 C4529 1.499 . S
C4532 C4533 1.373 . S
C4532 C4534 1.389 . S
C4533 H4512 0.950 . S
C4533 C4532 1.373 . S
C4533 C4549 1.377 . S
C4534 C4532 1.389 . S
C4534 C4535 1.524 . S
C4534 C4548 1.377 . S
C4535 C4534 1.524 . S
C4535 C4536 1.397 . S
C4535 C4540 1.363 . S
C4536 H4513 0.950 . S
C4536 C4535 1.397 . S
C4536 C4537 1.334 . S
C4537 H4514 0.950 . S
C4537 C4536 1.334 . S
C4537 C4538 1.287 . S
C4538 C4537 1.287 . S
C4538 C4539 1.524 . S
C4538 H4557 0.913 . S
C4539 H4515 0.950 . S
C4539 C4538 1.524 . S
C4539 C4540 1.415 . S
C4540 H4516 0.950 . S
C4540 C4535 1.363 . S
C4540 C4539 1.415 . S
C4541 H4517 0.951 . S
C4541 C4542 1.366 . S
C4541 C4543 1.388 . S
C4542 C4541 1.366 . S
C4542 C4546 1.385 . S
C4543 H4518 0.951 . S
C4543 C4541 1.388 . S
C4543 C4544 1.366 . S
C4544 C4543 1.366 . S
C4544 C4545 1.414 . S
C4544 C4547 1.499 . S
C4545 H4519 0.950 . S
C4545 C4544 1.414 . S
C4545 C4546 1.374 . S
C4546 H4520 0.950 . S
C4546 C4542 1.385 . S
C4546 C4545 1.374 . S
C4547 C4544 1.499 . S
C4547 C4548 1.373 . S
C4547 C4549 1.389 . S
C4548 H4521 0.950 . S
C4548 C4534 1.377 . S
C4548 C4547 1.373 . S
C4549 C4533 1.377 . S
C4549 C4547 1.389 . S
C4549 C4550 1.524 . S
C4550 C4549 1.524 . S
C4550 C4551 1.397 . S
C4550 C4555 1.363 . S
C4551 H4522 0.950 . S
C4551 C4550 1.397 . S
C4551 C4552 1.334 . S
C4552 H4523 0.950 . S
C4552 C4551 1.334 . S
C4552 C4553 1.287 . S
C4553 C4552 1.287 . S
C4553 C4554 1.524 . S
C4553 H4556 0.999 . S
C4554 H4524 0.950 . S
C4554 C4553 1.524 . S
C4554 C4555 1.415 . S
C4555 H4525 0.950 . S
C4555 C4550 1.363 . S
C4555 C4554 1.415 . S
H4556 C4553 0.999 . S
H4557 C4538 0.913 . S
H4558 C4576 0.951 . S
H4559 C4578 0.951 . S
H4560 C4580 0.950 . S
H4561 C4581 0.950 . S
H4562 C4583 0.950 . S
H4563 C4586 0.950 . S
H4564 C4587 0.950 . S
H4565 C4589 0.950 . S
H4566 C4590 0.950 . S
H4567 C4591 0.951 . S
H4568 C4593 0.951 . S
H4569 C4595 0.950 . S
H4570 C4596 0.950 . S
H4571 C4598 0.950 . S
H4572 C4601 0.950 . S
H4573 C4602 0.950 . S
H4574 C4604 0.950 . S
H4575 C4605 0.950 . S
C4576 H4558 0.951 . S
C4576 C4577 1.366 . S
C4576 C4578 1.388 . S
C4577 C4576 1.366 . S
C4577 C4581 1.385 . S
C4578 H4559 0.951 . S
C4578 C4576 1.388 . S
C4578 C4579 1.366 . S
C4579 C4578 1.366 . S
C4579 C4580 1.414 . S
C4579 C4582 1.499 . S
C4580 H4560 0.950 . S
C4580 C4579 1.414 . S
C4580 C4581 1.374 . S
C4581 H4561 0.950 . S
C4581 C4577 1.385 . S
C4581 C4580 1.374 . S
C4582 C4579 1.499 . S
C4582 C4583 1.373 . S
C4582 C4584 1.389 . S
C4583 H4562 0.950 . S
C4583 C4582 1.373 . S
C4583 C4599 1.377 . S
C4584 C4582 1.389 . S
C4584 C4585 1.524 . S
C4584 C4598 1.377 . S
C4585 C4584 1.524 . S
C4585 C4586 1.397 . S
C4585 C4590 1.363 . S
C4586 H4563 0.950 . S
C4586 C4585 1.397 . S
C4586 C4587 1.334 . S
C4587 H4564 0.950 . S
C4587 C4586 1.334 . S
C4587 C4588 1.287 . S
C4588 C4587 1.287 . S
C4588 C4589 1.524 . S
C4588 H4607 0.913 . S
C4589 H4565 0.950 . S
C4589 C4588 1.524 . S
C4589 C4590 1.415 . S
C4590 H4566 0.950 . S
C4590 C4585 1.363 . S
C4590 C4589 1.415 . S
C4591 H4567 0.951 . S
C4591 C4592 1.366 . S
C4591 C4593 1.388 . S
C4592 C4591 1.366 . S
C4592 C4596 1.385 . S
C4593 H4568 0.951 . S
C4593 C4591 1.388 . S
C4593 C4594 1.366 . S
C4594 C4593 1.366 . S
C4594 C4595 1.414 . S
C4594 C4597 1.499 . S
C4595 H4569 0.950 . S
C4595 C4594 1.414 . S
C4595 C4596 1.374 . S
C4596 H4570 0.950 . S
C4596 C4592 1.385 . S
C4596 C4595 1.374 . S
C4597 C4594 1.499 . S
C4597 C4598 1.373 . S
C4597 C4599 1.389 . S
C4598 H4571 0.950 . S
C4598 C4584 1.377 . S
C4598 C4597 1.373 . S
C4599 C4583 1.377 . S
C4599 C4597 1.389 . S
C4599 C4600 1.524 . S
C4600 C4599 1.524 . S
C4600 C4601 1.397 . S
C4600 C4605 1.363 . S
C4601 H4572 0.950 . S
C4601 C4600 1.397 . S
C4601 C4602 1.334 . S
C4602 H4573 0.950 . S
C4602 C4601 1.334 . S
C4602 C4603 1.287 . S
C4603 C4602 1.287 . S
C4603 C4604 1.524 . S
C4603 H4606 0.999 . S
C4604 H4574 0.950 . S
C4604 C4603 1.524 . S
C4604 C4605 1.415 . S
C4605 H4575 0.950 . S
C4605 C4600 1.363 . S
C4605 C4604 1.415 . S
H4606 C4603 0.999 . S
H4607 C4588 0.913 . S
H4608 C4626 0.951 . S
H4609 C4628 0.951 . S
H4610 C4630 0.950 . S
H4611 C4631 0.950 . S
H4612 C4633 0.950 . S
H4613 C4636 0.950 . S
H4614 C4637 0.950 . S
H4615 C4639 0.950 . S
H4616 C4640 0.950 . S
H4617 C4641 0.951 . S
H4618 C4643 0.951 . S
H4619 C4645 0.950 . S
H4620 C4646 0.950 . S
H4621 C4648 0.950 . S
H4622 C4651 0.950 . S
H4623 C4652 0.950 . S
H4624 C4654 0.950 . S
H4625 C4655 0.950 . S
C4626 H4608 0.951 . S
C4626 C4627 1.366 . S
C4626 C4628 1.388 . S
C4627 C4626 1.366 . S
C4627 C4631 1.385 . S
C4628 H4609 0.951 . S
C4628 C4626 1.388 . S
C4628 C4629 1.366 . S
C4629 C4628 1.366 . S
C4629 C4630 1.414 . S
C4629 C4632 1.499 . S
C4630 H4610 0.950 . S
C4630 C4629 1.414 . S
C4630 C4631 1.374 . S
C4631 H4611 0.950 . S
C4631 C4627 1.385 . S
C4631 C4630 1.374 . S
C4632 C4629 1.499 . S
C4632 C4633 1.373 . S
C4632 C4634 1.389 . S
C4633 H4612 0.950 . S
C4633 C4632 1.373 . S
C4633 C4649 1.377 . S
C4634 C4632 1.389 . S
C4634 C4635 1.524 . S
C4634 C4648 1.377 . S
C4635 C4634 1.524 . S
C4635 C4636 1.397 . S
C4635 C4640 1.363 . S
C4636 H4613 0.950 . S
C4636 C4635 1.397 . S
C4636 C4637 1.334 . S
C4637 H4614 0.950 . S
C4637 C4636 1.334 . S
C4637 C4638 1.287 . S
C4638 C4637 1.287 . S
C4638 C4639 1.524 . S
C4638 H4657 0.913 . S
C4639 H4615 0.950 . S
C4639 C4638 1.524 . S
C4639 C4640 1.415 . S
C4640 H4616 0.950 . S
C4640 C4635 1.363 . S
C4640 C4639 1.415 . S
C4641 H4617 0.951 . S
C4641 C4642 1.366 . S
C4641 C4643 1.388 . S
C4642 C4641 1.366 . S
C4642 C4646 1.385 . S
C4643 H4618 0.951 . S
C4643 C4641 1.388 . S
C4643 C4644 1.366 . S
C4644 C4643 1.366 . S
C4644 C4645 1.414 . S
C4644 C4647 1.499 . S
C4645 H4619 0.950 . S
C4645 C4644 1.414 . S
C4645 C4646 1.374 . S
C4646 H4620 0.950 . S
C4646 C4642 1.385 . S
C4646 C4645 1.374 . S
C4647 C4644 1.499 . S
C4647 C4648 1.373 . S
C4647 C4649 1.389 . S
C4648 H4621 0.950 . S
C4648 C4634 1.377 . S
C4648 C4647 1.373 . S
C4649 C4633 1.377 . S
C4649 C4647 1.389 . S
C4649 C4650 1.524 . S
C4650 C4649 1.524 . S
C4650 C4651 1.397 . S
C4650 C4655 1.363 . S
C4651 H4622 0.950 . S
C4651 C4650 1.397 . S
C4651 C4652 1.334 . S
C4652 H4623 0.950 . S
C4652 C4651 1.334 . S
C4652 C4653 1.287 . S
C4653 C4652 1.287 . S
C4653 C4654 1.524 . S
C4653 H4656 0.999 . S
C4654 H4624 0.950 . S
C4654 C4653 1.524 . S
C4654 C4655 1.415 . S
C4655 H4625 0.950 . S
C4655 C4650 1.363 . S
C4655 C4654 1.415 . S
H4656 C4653 0.999 . S
H4657 C4638 0.913 . S
H4658 C4676 0.951 . S
H4659 C4678 0.951 . S
H4660 C4680 0.950 . S
H4661 C4681 0.950 . S
H4662 C4683 0.950 . S
H4663 C4686 0.950 . S
H4664 C4687 0.950 . S
H4665 C4689 0.950 . S
H4666 C4690 0.950 . S
H4667 C4691 0.951 . S
H4668 C4693 0.951 . S
H4669 C4695 0.950 . S
H4670 C4696 0.950 . S
H4671 C4698 0.950 . S
H4672 C4701 0.950 . S
H4673 C4702 0.950 . S
H4674 C4704 0.950 . S
H4675 C4705 0.950 . S
C4676 H4658 0.951 . S
C4676 C4677 1.366 . S
C4676 C4678 1.388 . S
C4677 C4676 1.366 . S
C4677 C4681 1.385 . S
C4678 H4659 0.951 . S
C4678 C4676 1.388 . S
C4678 C4679 1.366 . S
C4679 C4678 1.366 . S
C4679 C4680 1.414 . S
C4679 C4682 1.499 . S
C4680 H4660 0.950 . S
C4680 C4679 1.414 . S
C4680 C4681 1.374 . S
C4681 H4661 0.950 . S
C4681 C4677 1.385 . S
C4681 C4680 1.374 . S
C4682 C4679 1.499 . S
C4682 C4683 1.373 . S
C4682 C4684 1.389 . S
C4683 H4662 0.950 . S
C4683 C4682 1.373 . S
C4683 C4699 1.377 . S
C4684 C4682 1.389 . S
C4684 C4685 1.524 . S
C4684 C4698 1.377 . S
C4685 C4684 1.524 . S
C4685 C4686 1.397 . S
C4685 C4690 1.363 . S
C4686 H4663 0.950 . S
C4686 C4685 1.397 . S
C4686 C4687 1.334 . S
C4687 H4664 0.950 . S
C4687 C4686 1.334 . S
C4687 C4688 1.287 . S
C4688 C4687 1.287 . S
C4688 C4689 1.524 . S
C4688 H4707 0.913 . S
C4689 H4665 0.950 . S
C4689 C4688 1.524 . S
C4689 C4690 1.415 . S
C4690 H4666 0.950 . S
C4690 C4685 1.363 . S
C4690 C4689 1.415 . S
C4691 H4667 0.951 . S
C4691 C4692 1.366 . S
C4691 C4693 1.388 . S
C4692 C4691 1.366 . S
C4692 C4696 1.385 . S
C4693 H4668 0.951 . S
C4693 C4691 1.388 . S
C4693 C4694 1.366 . S
C4694 C4693 1.366 . S
C4694 C4695 1.414 . S
C4694 C4697 1.499 . S
C4695 H4669 0.950 . S
C4695 C4694 1.414 . S
C4695 C4696 1.374 . S
C4696 H4670 0.950 . S
C4696 C4692 1.385 . S
C4696 C4695 1.374 . S
C4697 C4694 1.499 . S
C4697 C4698 1.373 . S
C4697 C4699 1.389 . S
C4698 H4671 0.950 . S
C4698 C4684 1.377 . S
C4698 C4697 1.373 . S
C4699 C4683 1.377 . S
C4699 C4697 1.389 . S
C4699 C4700 1.524 . S
C4700 C4699 1.524 . S
C4700 C4701 1.397 . S
C4700 C4705 1.363 . S
C4701 H4672 0.950 . S
C4701 C4700 1.397 . S
C4701 C4702 1.334 . S
C4702 H4673 0.950 . S
C4702 C4701 1.334 . S
C4702 C4703 1.287 . S
C4703 C4702 1.287 . S
C4703 C4704 1.524 . S
C4703 H4706 0.999 . S
C4704 H4674 0.950 . S
C4704 C4703 1.524 . S
C4704 C4705 1.415 . S
C4705 H4675 0.950 . S
C4705 C4700 1.363 . S
C4705 C4704 1.415 . S
H4706 C4703 0.999 . S
H4707 C4688 0.913 . S
H4708 C4726 0.951 . S
H4709 C4728 0.986 . S
H4710 C4730 0.950 . S
H4711 C4731 0.950 . S
H4712 C4733 0.950 1_554 S
H4713 C4736 0.950 . S
H4714 C4737 0.950 . S
H4715 C4739 0.950 . S
H4716 C4740 0.951 . S
H4717 C4741 0.951 . S
H4718 C4743 0.951 . S
H4719 C4745 0.950 1_655 S
H4720 C4746 0.960 . S
H4721 C4748 0.950 . S
H4722 C4751 0.950 . S
H4723 C4752 0.950 . S
H4724 C4754 0.950 . S
H4725 C4755 0.950 . S
C4726 H4708 0.951 . S
C4726 C4727 1.366 1_655 S
C4726 C4728 1.382 . S
C4727 C4726 1.366 1_455 S
C4727 C4731 1.385 . S
C4728 H4709 0.986 . S
C4728 C4726 1.382 . S
C4728 C4729 1.340 1_655 S
C4729 C4728 1.340 1_455 S
C4729 C4730 1.414 . S
C4729 C4732 1.499 . S
C4730 H4710 0.950 . S
C4730 C4729 1.414 . S
C4730 C4731 1.374 . S
C4731 H4711 0.950 . S
C4731 C4727 1.385 . S
C4731 C4730 1.374 . S
C4732 C4729 1.499 . S
C4732 C4733 1.373 . S
C4732 C4734 1.389 . S
C4733 H4712 0.950 1_556 S
C4733 C4732 1.373 . S
C4733 C4749 1.377 1_556 S
C4734 C4732 1.389 . S
C4734 C4735 1.524 . S
C4734 C4748 1.377 . S
C4735 C4734 1.524 . S
C4735 C4736 1.397 . S
C4735 C4740 1.363 . S
C4736 H4713 0.950 . S
C4736 C4735 1.397 . S
C4736 C4737 1.334 . S
C4737 H4714 0.950 . S
C4737 C4736 1.334 . S
C4737 C4738 1.287 . S
C4738 C4737 1.287 . S
C4738 C4739 1.524 . S
C4738 H4757 0.913 . S
C4739 H4715 0.950 . S
C4739 C4738 1.524 . S
C4739 C4740 1.415 . S
C4740 H4716 0.951 . S
C4740 C4735 1.363 . S
C4740 C4739 1.415 . S
C4741 H4717 0.951 . S
C4741 C4742 1.366 . S
C4741 C4743 1.388 . S
C4742 C4741 1.366 . S
C4742 C4746 1.385 1_554 S
C4743 H4718 0.951 . S
C4743 C4741 1.388 . S
C4743 C4744 1.366 1_554 S
C4744 C4743 1.366 1_556 S
C4744 C4745 1.414 . S
C4744 C4747 1.499 . S
C4745 H4719 0.950 1_455 S
C4745 C4744 1.414 . S
C4745 C4746 1.374 . S
C4746 H4720 0.960 . S
C4746 C4742 1.385 1_556 S
C4746 C4745 1.374 . S
C4747 C4744 1.499 . S
C4747 C4748 1.373 . S
C4747 C4749 1.389 1_556 S
C4748 H4721 0.950 . S
C4748 C4734 1.377 . S
C4748 C4747 1.373 . S
C4749 C4733 1.377 1_554 S
C4749 C4747 1.389 1_554 S
C4749 C4750 1.524 . S
C4750 C4749 1.524 . S
C4750 C4751 1.397 1_455 S
C4750 C4755 1.363 . S
C4751 H4722 0.950 . S
C4751 C4750 1.397 1_655 S
C4751 C4752 1.334 . S
C4752 H4723 0.950 . S
C4752 C4751 1.334 . S
C4752 C4753 1.287 . S
C4753 C4752 1.287 . S
C4753 C4754 1.524 1_655 S
C4753 H4756 0.999 . S
C4754 H4724 0.950 . S
C4754 C4753 1.524 1_455 S
C4754 C4755 1.415 . S
C4755 H4725 0.950 . S
C4755 C4750 1.363 . S
C4755 C4754 1.415 . S
H4756 C4753 0.999 . S
H4757 C4738 0.913 . S
H4758 C4776 0.951 . S
H4759 C4778 0.951 . S
H4760 C4780 0.950 . S
H4761 C4781 0.935 1_455 S
H4762 C4783 0.950 . S
H4763 C4786 0.950 . S
H4764 C4787 0.950 . S
H4765 C4789 0.950 . S
H4766 C4790 0.950 . S
H4767 C4791 0.951 . S
H4768 C4793 0.951 . S
H4769 C4795 0.950 . S
H4770 C4796 0.950 . S
H4771 C4798 0.950 . S
H4772 C4801 0.950 . S
H4773 C4802 0.950 . S
H4774 C4804 0.950 . S
H4775 C4805 0.950 . S
C4776 H4758 0.951 . S
C4776 C4777 1.366 . S
C4776 C4778 1.388 . S
C4777 C4776 1.366 . S
C4777 C4781 1.385 . S
C4778 H4759 0.951 . S
C4778 C4776 1.388 . S
C4778 C4779 1.366 . S
C4779 C4778 1.366 . S
C4779 C4780 1.414 . S
C4779 C4782 1.499 . S
C4780 H4760 0.950 . S
C4780 C4779 1.414 . S
C4780 C4781 1.388 . S
C4781 H4761 0.935 1_655 S
C4781 C4777 1.385 . S
C4781 C4780 1.388 . S
C4782 C4779 1.499 . S
C4782 C4783 1.373 . S
C4782 C4784 1.389 . S
C4783 H4762 0.950 . S
C4783 C4782 1.373 . S
C4783 C4799 1.377 . S
C4784 C4782 1.389 . S
C4784 C4785 1.524 . S
C4784 C4798 1.377 . S
C4785 C4784 1.524 . S
C4785 C4786 1.397 . S
C4785 C4790 1.363 . S
C4786 H4763 0.950 . S
C4786 C4785 1.397 . S
C4786 C4787 1.334 . S
C4787 H4764 0.950 . S
C4787 C4786 1.334 . S
C4787 C4788 1.287 . S
C4788 C4787 1.287 . S
C4788 C4789 1.524 . S
C4788 H4807 0.913 . S
C4789 H4765 0.950 . S
C4789 C4788 1.524 . S
C4789 C4790 1.415 . S
C4790 H4766 0.950 . S
C4790 C4785 1.363 . S
C4790 C4789 1.415 . S
C4791 H4767 0.951 . S
C4791 C4792 1.366 . S
C4791 C4793 1.388 . S
C4792 C4791 1.366 . S
C4792 C4796 1.385 . S
C4793 H4768 0.951 . S
C4793 C4791 1.388 . S
C4793 C4794 1.366 . S
C4794 C4793 1.366 . S
C4794 C4795 1.414 . S
C4794 C4797 1.499 . S
C4795 H4769 0.950 . S
C4795 C4794 1.414 . S
C4795 C4796 1.374 . S
C4796 H4770 0.950 . S
C4796 C4792 1.385 . S
C4796 C4795 1.374 . S
C4797 C4794 1.499 . S
C4797 C4798 1.373 . S
C4797 C4799 1.389 . S
C4798 H4771 0.950 . S
C4798 C4784 1.377 . S
C4798 C4797 1.373 . S
C4799 C4783 1.377 . S
C4799 C4797 1.389 . S
C4799 C4800 1.524 . S
C4800 C4799 1.524 . S
C4800 C4801 1.397 . S
C4800 C4805 1.363 . S
C4801 H4772 0.950 . S
C4801 C4800 1.397 . S
C4801 C4802 1.334 . S
C4802 H4773 0.950 . S
C4802 C4801 1.334 . S
C4802 C4803 1.287 . S
C4803 C4802 1.287 . S
C4803 C4804 1.524 . S
C4803 H4806 0.999 . S
C4804 H4774 0.950 . S
C4804 C4803 1.524 . S
C4804 C4805 1.415 . S
C4805 H4775 0.950 . S
C4805 C4800 1.363 . S
C4805 C4804 1.415 . S
H4806 C4803 0.999 . S
H4807 C4788 0.913 . S
H4808 C4826 0.951 . S
H4809 C4828 0.951 . S
H4810 C4830 0.950 . S
H4811 C4831 0.950 . S
H4812 C4833 0.950 . S
H4813 C4836 0.950 . S
H4814 C4837 0.950 . S
H4815 C4839 0.950 . S
H4816 C4840 0.950 . S
H4817 C4841 0.951 . S
H4818 C4843 0.951 . S
H4819 C4845 0.950 . S
H4820 C4846 0.950 . S
H4821 C4848 0.950 . S
H4822 C4851 0.950 . S
H4823 C4852 0.950 . S
H4824 C4854 0.950 . S
H4825 C4855 0.950 . S
C4826 H4808 0.951 . S
C4826 C4827 1.366 . S
C4826 C4828 1.388 . S
C4827 C4826 1.366 . S
C4827 C4831 1.385 . S
C4828 H4809 0.951 . S
C4828 C4826 1.388 . S
C4828 C4829 1.366 . S
C4829 C4828 1.366 . S
C4829 C4830 1.414 . S
C4829 C4832 1.499 . S
C4830 H4810 0.950 . S
C4830 C4829 1.414 . S
C4830 C4831 1.374 . S
C4831 H4811 0.950 . S
C4831 C4827 1.385 . S
C4831 C4830 1.374 . S
C4832 C4829 1.499 . S
C4832 C4833 1.373 . S
C4832 C4834 1.389 . S
C4833 H4812 0.950 . S
C4833 C4832 1.373 . S
C4833 C4849 1.377 . S
C4834 C4832 1.389 . S
C4834 C4835 1.524 . S
C4834 C4848 1.377 . S
C4835 C4834 1.524 . S
C4835 C4836 1.397 . S
C4835 C4840 1.363 . S
C4836 H4813 0.950 . S
C4836 C4835 1.397 . S
C4836 C4837 1.334 . S
C4837 H4814 0.950 . S
C4837 C4836 1.334 . S
C4837 C4838 1.287 . S
C4838 C4837 1.287 . S
C4838 C4839 1.524 . S
C4838 H4857 0.913 . S
C4839 H4815 0.950 . S
C4839 C4838 1.524 . S
C4839 C4840 1.415 . S
C4840 H4816 0.950 . S
C4840 C4835 1.363 . S
C4840 C4839 1.415 . S
C4841 H4817 0.951 . S
C4841 C4842 1.366 . S
C4841 C4843 1.388 . S
C4842 C4841 1.366 . S
C4842 C4846 1.385 . S
C4843 H4818 0.951 . S
C4843 C4841 1.388 . S
C4843 C4844 1.366 . S
C4844 C4843 1.366 . S
C4844 C4845 1.414 . S
C4844 C4847 1.499 . S
C4845 H4819 0.950 . S
C4845 C4844 1.414 . S
C4845 C4846 1.374 . S
C4846 H4820 0.950 . S
C4846 C4842 1.385 . S
C4846 C4845 1.374 . S
C4847 C4844 1.499 . S
C4847 C4848 1.373 . S
C4847 C4849 1.389 . S
C4848 H4821 0.950 . S
C4848 C4834 1.377 . S
C4848 C4847 1.373 . S
C4849 C4833 1.377 . S
C4849 C4847 1.389 . S
C4849 C4850 1.524 . S
C4850 C4849 1.524 . S
C4850 C4851 1.397 . S
C4850 C4855 1.363 . S
C4851 H4822 0.950 . S
C4851 C4850 1.397 . S
C4851 C4852 1.334 . S
C4852 H4823 0.950 . S
C4852 C4851 1.334 . S
C4852 C4853 1.287 . S
C4853 C4852 1.287 . S
C4853 C4854 1.524 . S
C4853 H4856 0.999 . S
C4854 H4824 0.950 . S
C4854 C4853 1.524 . S
C4854 C4855 1.415 . S
C4855 H4825 0.950 . S
C4855 C4850 1.363 . S
C4855 C4854 1.415 . S
H4856 C4853 0.999 . S
H4857 C4838 0.913 . S
H4858 C4876 0.951 . S
H4859 C4878 0.951 . S
H4860 C4880 0.950 . S
H4861 C4881 0.950 . S
H4862 C4883 0.950 . S
H4863 C4886 0.950 . S
H4864 C4887 0.950 . S
H4865 C4889 0.950 . S
H4866 C4890 0.950 . S
H4867 C4891 0.951 . S
H4868 C4893 0.951 . S
H4869 C4895 0.950 . S
H4870 C4896 0.950 . S
H4871 C4898 0.950 . S
H4872 C4901 0.950 . S
H4873 C4902 0.950 . S
H4874 C4904 0.950 . S
H4875 C4905 0.950 . S
C4876 H4858 0.951 . S
C4876 C4877 1.366 . S
C4876 C4878 1.388 . S
C4877 C4876 1.366 . S
C4877 C4881 1.385 . S
C4878 H4859 0.951 . S
C4878 C4876 1.388 . S
C4878 C4879 1.366 . S
C4879 C4878 1.366 . S
C4879 C4880 1.414 . S
C4879 C4882 1.499 . S
C4880 H4860 0.950 . S
C4880 C4879 1.414 . S
C4880 C4881 1.374 . S
C4881 H4861 0.950 . S
C4881 C4877 1.385 . S
C4881 C4880 1.374 . S
C4882 C4879 1.499 . S
C4882 C4883 1.373 . S
C4882 C4884 1.389 . S
C4883 H4862 0.950 . S
C4883 C4882 1.373 . S
C4883 C4899 1.377 . S
C4884 C4882 1.389 . S
C4884 C4885 1.524 . S
C4884 C4898 1.377 . S
C4885 C4884 1.524 . S
C4885 C4886 1.397 . S
C4885 C4890 1.363 . S
C4886 H4863 0.950 . S
C4886 C4885 1.397 . S
C4886 C4887 1.334 . S
C4887 H4864 0.950 . S
C4887 C4886 1.334 . S
C4887 C4888 1.287 . S
C4888 C4887 1.287 . S
C4888 C4889 1.524 . S
C4888 H4907 0.913 . S
C4889 H4865 0.950 . S
C4889 C4888 1.524 . S
C4889 C4890 1.415 . S
C4890 H4866 0.950 . S
C4890 C4885 1.363 . S
C4890 C4889 1.415 . S
C4891 H4867 0.951 . S
C4891 C4892 1.366 . S
C4891 C4893 1.388 . S
C4892 C4891 1.366 . S
C4892 C4896 1.385 . S
C4893 H4868 0.951 . S
C4893 C4891 1.388 . S
C4893 C4894 1.366 . S
C4894 C4893 1.366 . S
C4894 C4895 1.414 . S
C4894 C4897 1.499 . S
C4895 H4869 0.950 . S
C4895 C4894 1.414 . S
C4895 C4896 1.374 . S
C4896 H4870 0.950 . S
C4896 C4892 1.385 . S
C4896 C4895 1.374 . S
C4897 C4894 1.499 . S
C4897 C4898 1.373 . S
C4897 C4899 1.389 . S
C4898 H4871 0.950 . S
C4898 C4884 1.377 . S
C4898 C4897 1.373 . S
C4899 C4883 1.377 . S
C4899 C4897 1.389 . S
C4899 C4900 1.524 . S
C4900 C4899 1.524 . S
C4900 C4901 1.397 . S
C4900 C4905 1.363 . S
C4901 H4872 0.950 . S
C4901 C4900 1.397 . S
C4901 C4902 1.334 . S
C4902 H4873 0.950 . S
C4902 C4901 1.334 . S
C4902 C4903 1.287 . S
C4903 C4902 1.287 . S
C4903 C4904 1.524 . S
C4903 H4906 0.999 . S
C4904 H4874 0.950 . S
C4904 C4903 1.524 . S
C4904 C4905 1.415 . S
C4905 H4875 0.950 . S
C4905 C4900 1.363 . S
C4905 C4904 1.415 . S
H4906 C4903 0.999 . S
H4907 C4888 0.913 . S
H4908 C4926 0.921 1_655 S
H4909 C4928 0.951 1_655 S
H4910 C4930 0.950 . S
H4911 C4931 0.950 . S
H4912 C4933 0.950 . S
H4913 C4936 0.950 . S
H4914 C4937 0.950 . S
H4915 C4939 0.950 . S
H4916 C4940 0.950 . S
H4917 C4941 0.951 . S
H4918 C4943 0.951 . S
H4919 C4945 0.950 . S
H4920 C4946 0.950 . S
H4921 C4948 0.985 . S
H4922 C4951 0.950 . S
H4923 C4952 0.950 . S
H4924 C4954 0.950 . S
H4925 C4955 0.950 . S
C4926 H4908 0.921 1_455 S
C4926 C4927 1.384 . S
C4926 C4928 1.402 . S
C4927 C4926 1.384 . S
C4927 C4931 1.385 . S
C4928 H4909 0.951 1_455 S
C4928 C4926 1.402 . S
C4928 C4929 1.366 . S
C4929 C4928 1.366 . S
C4929 C4930 1.414 . S
C4929 C4932 1.499 . S
C4930 H4910 0.950 . S
C4930 C4929 1.414 . S
C4930 C4931 1.374 . S
C4931 H4911 0.950 . S
C4931 C4927 1.385 . S
C4931 C4930 1.374 . S
C4932 C4929 1.499 . S
C4932 C4933 1.373 . S
C4932 C4934 1.389 1_455 S
C4933 H4912 0.950 . S
C4933 C4932 1.373 . S
C4933 C4949 1.377 . S
C4934 C4932 1.389 1_655 S
C4934 C4935 1.524 . S
C4934 C4948 1.393 . S
C4935 C4934 1.524 . S
C4935 C4936 1.397 . S
C4935 C4940 1.363 . S
C4936 H4913 0.950 . S
C4936 C4935 1.397 . S
C4936 C4937 1.334 . S
C4937 H4914 0.950 . S
C4937 C4936 1.334 . S
C4937 C4938 1.287 . S
C4938 C4937 1.287 . S
C4938 C4939 1.524 . S
C4938 H4957 0.913 . S
C4939 H4915 0.950 . S
C4939 C4938 1.524 . S
C4939 C4940 1.415 . S
C4940 H4916 0.950 . S
C4940 C4935 1.363 . S
C4940 C4939 1.415 . S
C4941 H4917 0.951 . S
C4941 C4942 1.366 . S
C4941 C4943 1.388 . S
C4942 C4941 1.366 . S
C4942 C4946 1.385 . S
C4943 H4918 0.951 . S
C4943 C4941 1.388 . S
C4943 C4944 1.366 . S
C4944 C4943 1.366 . S
C4944 C4945 1.414 . S
C4944 C4947 1.499 . S
C4945 H4919 0.950 . S
C4945 C4944 1.414 . S
C4945 C4946 1.374 . S
C4946 H4920 0.950 . S
C4946 C4942 1.385 . S
C4946 C4945 1.374 . S
C4947 C4944 1.499 . S
C4947 C4948 1.323 1_455 S
C4947 C4949 1.389 . S
C4948 H4921 0.985 . S
C4948 C4934 1.393 . S
C4948 C4947 1.323 1_655 S
C4949 C4933 1.377 . S
C4949 C4947 1.389 . S
C4949 C4950 1.524 . S
C4950 C4949 1.524 . S
C4950 C4951 1.397 . S
C4950 C4955 1.363 . S
C4951 H4922 0.950 . S
C4951 C4950 1.397 . S
C4951 C4952 1.334 . S
C4952 H4923 0.950 . S
C4952 C4951 1.334 . S
C4952 C4953 1.287 . S
C4953 C4952 1.287 . S
C4953 C4954 1.524 . S
C4953 H4956 0.999 . S
C4954 H4924 0.950 . S
C4954 C4953 1.524 . S
C4954 C4955 1.415 . S
C4955 H4925 0.950 . S
C4955 C4950 1.363 . S
C4955 C4954 1.415 . S
H4956 C4953 0.999 . S
H4957 C4938 0.913 . S
H4958 C4976 0.951 . S
H4959 C4978 0.951 . S
H4960 C4980 0.950 . S
H4961 C4981 0.950 . S
H4962 C4983 0.950 . S
H4963 C4986 0.950 . S
H4964 C4987 0.950 . S
H4965 C4989 0.950 . S
H4966 C4990 0.950 . S
H4967 C4991 0.951 . S
H4968 C4993 0.951 . S
H4969 C4995 0.950 . S
H4970 C4996 0.950 . S
H4971 C4998 0.950 . S
H4972 C5001 0.950 . S
H4973 C5002 0.950 . S
H4974 C5004 0.950 . S
H4975 C5005 0.950 . S
C4976 H4958 0.951 . S
C4976 C4977 1.366 . S
C4976 C4978 1.388 . S
C4977 C4976 1.366 . S
C4977 C4981 1.385 . S
C4978 H4959 0.951 . S
C4978 C4976 1.388 . S
C4978 C4979 1.366 . S
C4979 C4978 1.366 . S
C4979 C4980 1.414 . S
C4979 C4982 1.499 . S
C4980 H4960 0.950 . S
C4980 C4979 1.414 . S
C4980 C4981 1.374 . S
C4981 H4961 0.950 . S
C4981 C4977 1.385 . S
C4981 C4980 1.374 . S
C4982 C4979 1.499 . S
C4982 C4983 1.373 . S
C4982 C4984 1.389 . S
C4983 H4962 0.950 . S
C4983 C4982 1.373 . S
C4983 C4999 1.377 . S
C4984 C4982 1.389 . S
C4984 C4985 1.524 . S
C4984 C4998 1.377 . S
C4985 C4984 1.524 . S
C4985 C4986 1.397 . S
C4985 C4990 1.363 . S
C4986 H4963 0.950 . S
C4986 C4985 1.397 . S
C4986 C4987 1.334 . S
C4987 H4964 0.950 . S
C4987 C4986 1.334 . S
C4987 C4988 1.287 . S
C4988 C4987 1.287 . S
C4988 C4989 1.524 . S
C4988 H5007 0.913 . S
C4989 H4965 0.950 . S
C4989 C4988 1.524 . S
C4989 C4990 1.415 . S
C4990 H4966 0.950 . S
C4990 C4985 1.363 . S
C4990 C4989 1.415 . S
C4991 H4967 0.951 . S
C4991 C4992 1.366 . S
C4991 C4993 1.388 . S
C4992 C4991 1.366 . S
C4992 C4996 1.385 . S
C4993 H4968 0.951 . S
C4993 C4991 1.388 . S
C4993 C4994 1.366 . S
C4994 C4993 1.366 . S
C4994 C4995 1.414 . S
C4994 C4997 1.499 . S
C4995 H4969 0.950 . S
C4995 C4994 1.414 . S
C4995 C4996 1.374 . S
C4996 H4970 0.950 . S
C4996 C4992 1.385 . S
C4996 C4995 1.374 . S
C4997 C4994 1.499 . S
C4997 C4998 1.373 . S
C4997 C4999 1.389 . S
C4998 H4971 0.950 . S
C4998 C4984 1.377 . S
C4998 C4997 1.373 . S
C4999 C4983 1.377 . S
C4999 C4997 1.389 . S
C4999 C5000 1.524 . S
C5000 C4999 1.524 . S
C5000 C5001 1.397 . S
C5000 C5005 1.363 . S
C5001 H4972 0.950 . S
C5001 C5000 1.397 . S
C5001 C5002 1.334 . S
C5002 H4973 0.950 . S
C5002 C5001 1.334 . S
C5002 C5003 1.287 . S
C5003 C5002 1.287 . S
C5003 C5004 1.524 . S
C5003 H5006 0.999 . S
C5004 H4974 0.950 . S
C5004 C5003 1.524 . S
C5004 C5005 1.415 . S
C5005 H4975 0.950 . S
C5005 C5000 1.363 . S
C5005 C5004 1.415 . S
H5006 C5003 0.999 . S
H5007 C4988 0.913 . S
H5008 C5026 0.951 . S
H5009 C5028 0.951 . S
H5010 C5030 0.950 . S
H5011 C5031 0.950 . S
H5012 C5033 0.950 . S
H5013 C5036 0.950 . S
H5014 C5037 0.950 . S
H5015 C5039 0.950 . S
H5016 C5040 0.950 . S
H5017 C5041 0.951 . S
H5018 C5043 0.951 . S
H5019 C5045 0.950 . S
H5020 C5046 0.950 . S
H5021 C5048 0.950 . S
H5022 C5051 0.950 . S
H5023 C5052 0.950 . S
H5024 C5054 0.950 . S
H5025 C5055 0.950 . S
C5026 H5008 0.951 . S
C5026 C5027 1.366 . S
C5026 C5028 1.388 . S
C5027 C5026 1.366 . S
C5027 C5031 1.385 . S
C5028 H5009 0.951 . S
C5028 C5026 1.388 . S
C5028 C5029 1.366 . S
C5029 C5028 1.366 . S
C5029 C5030 1.414 . S
C5029 C5032 1.499 . S
C5030 H5010 0.950 . S
C5030 C5029 1.414 . S
C5030 C5031 1.374 . S
C5031 H5011 0.950 . S
C5031 C5027 1.385 . S
C5031 C5030 1.374 . S
C5032 C5029 1.499 . S
C5032 C5033 1.373 . S
C5032 C5034 1.389 . S
C5033 H5012 0.950 . S
C5033 C5032 1.373 . S
C5033 C5049 1.377 . S
C5034 C5032 1.389 . S
C5034 C5035 1.524 . S
C5034 C5048 1.377 . S
C5035 C5034 1.524 . S
C5035 C5036 1.397 . S
C5035 C5040 1.363 . S
C5036 H5013 0.950 . S
C5036 C5035 1.397 . S
C5036 C5037 1.334 . S
C5037 H5014 0.950 . S
C5037 C5036 1.334 . S
C5037 C5038 1.287 . S
C5038 C5037 1.287 . S
C5038 C5039 1.524 . S
C5038 H5057 0.913 . S
C5039 H5015 0.950 . S
C5039 C5038 1.524 . S
C5039 C5040 1.415 . S
C5040 H5016 0.950 . S
C5040 C5035 1.363 . S
C5040 C5039 1.415 . S
C5041 H5017 0.951 . S
C5041 C5042 1.366 . S
C5041 C5043 1.388 . S
C5042 C5041 1.366 . S
C5042 C5046 1.385 . S
C5043 H5018 0.951 . S
C5043 C5041 1.388 . S
C5043 C5044 1.366 . S
C5044 C5043 1.366 . S
C5044 C5045 1.414 . S
C5044 C5047 1.499 . S
C5045 H5019 0.950 . S
C5045 C5044 1.414 . S
C5045 C5046 1.374 . S
C5046 H5020 0.950 . S
C5046 C5042 1.385 . S
C5046 C5045 1.374 . S
C5047 C5044 1.499 . S
C5047 C5048 1.373 . S
C5047 C5049 1.389 . S
C5048 H5021 0.950 . S
C5048 C5034 1.377 . S
C5048 C5047 1.373 . S
C5049 C5033 1.377 . S
C5049 C5047 1.389 . S
C5049 C5050 1.524 . S
C5050 C5049 1.524 . S
C5050 C5051 1.397 . S
C5050 C5055 1.363 . S
C5051 H5022 0.950 . S
C5051 C5050 1.397 . S
C5051 C5052 1.334 . S
C5052 H5023 0.950 . S
C5052 C5051 1.334 . S
C5052 C5053 1.287 . S
C5053 C5052 1.287 . S
C5053 C5054 1.524 . S
C5053 H5056 0.999 . S
C5054 H5024 0.950 . S
C5054 C5053 1.524 . S
C5054 C5055 1.415 . S
C5055 H5025 0.950 . S
C5055 C5050 1.363 . S
C5055 C5054 1.415 . S
H5056 C5053 0.999 . S
H5057 C5038 0.913 . S
H5058 C5076 0.953 1_554 S
H5059 C5078 0.951 . S
H5060 C5080 0.950 . S
H5061 C5081 0.950 . S
H5062 C5083 0.950 . S
H5063 C5086 0.950 . S
H5064 C5087 0.950 . S
H5065 C5089 0.950 . S
H5066 C5090 0.950 . S
H5067 C5091 0.951 . S
H5068 C5093 0.951 . S
H5069 C5095 0.950 . S
H5070 C5096 0.950 . S
H5071 C5098 0.950 . S
H5072 C5101 0.950 . S
H5073 C5102 0.950 . S
H5074 C5104 0.950 . S
H5075 C5105 0.950 . S
C5076 H5058 0.953 1_556 S
C5076 C5077 1.366 . S
C5076 C5078 1.386 . S
C5077 C5076 1.366 . S
C5077 C5081 1.385 . S
C5078 H5059 0.951 . S
C5078 C5076 1.386 . S
C5078 C5079 1.366 . S
C5079 C5078 1.366 . S
C5079 C5080 1.414 . S
C5079 C5082 1.499 . S
C5080 H5060 0.950 . S
C5080 C5079 1.414 . S
C5080 C5081 1.374 . S
C5081 H5061 0.950 . S
C5081 C5077 1.385 . S
C5081 C5080 1.374 . S
C5082 C5079 1.499 . S
C5082 C5083 1.373 . S
C5082 C5084 1.389 . S
C5083 H5062 0.950 . S
C5083 C5082 1.373 . S
C5083 C5099 1.377 . S
C5084 C5082 1.389 . S
C5084 C5085 1.524 . S
C5084 C5098 1.377 . S
C5085 C5084 1.524 . S
C5085 C5086 1.397 . S
C5085 C5090 1.363 . S
C5086 H5063 0.950 . S
C5086 C5085 1.397 . S
C5086 C5087 1.334 . S
C5087 H5064 0.950 . S
C5087 C5086 1.334 . S
C5087 C5088 1.287 . S
C5088 C5087 1.287 . S
C5088 C5089 1.524 . S
C5088 H5107 0.913 . S
C5089 H5065 0.950 . S
C5089 C5088 1.524 . S
C5089 C5090 1.415 . S
C5090 H5066 0.950 . S
C5090 C5085 1.363 . S
C5090 C5089 1.415 . S
C5091 H5067 0.951 . S
C5091 C5092 1.366 . S
C5091 C5093 1.388 . S
C5092 C5091 1.366 . S
C5092 C5096 1.385 . S
C5093 H5068 0.951 . S
C5093 C5091 1.388 . S
C5093 C5094 1.366 . S
C5094 C5093 1.366 . S
C5094 C5095 1.414 . S
C5094 C5097 1.499 . S
C5095 H5069 0.950 . S
C5095 C5094 1.414 . S
C5095 C5096 1.374 . S
C5096 H5070 0.950 . S
C5096 C5092 1.385 . S
C5096 C5095 1.374 . S
C5097 C5094 1.499 . S
C5097 C5098 1.373 . S
C5097 C5099 1.389 . S
C5098 H5071 0.950 . S
C5098 C5084 1.377 . S
C5098 C5097 1.373 . S
C5099 C5083 1.377 . S
C5099 C5097 1.389 . S
C5099 C5100 1.524 . S
C5100 C5099 1.524 . S
C5100 C5101 1.397 . S
C5100 C5105 1.363 . S
C5101 H5072 0.950 . S
C5101 C5100 1.397 . S
C5101 C5102 1.334 . S
C5102 H5073 0.950 . S
C5102 C5101 1.334 . S
C5102 C5103 1.287 . S
C5103 C5102 1.287 . S
C5103 C5104 1.524 . S
C5103 H5106 0.999 . S
C5104 H5074 0.950 . S
C5104 C5103 1.524 . S
C5104 C5105 1.415 . S
C5105 H5075 0.950 . S
C5105 C5100 1.363 . S
C5105 C5104 1.415 . S
H5106 C5103 0.999 . S
H5107 C5088 0.913 . S
H5108 C5126 0.951 . S
H5109 C5128 0.951 . S
H5110 C5130 0.950 . S
H5111 C5131 0.950 . S
H5112 C5133 0.950 . S
H5113 C5136 0.950 . S
H5114 C5137 0.950 . S
H5115 C5139 0.950 . S
H5116 C5140 0.950 . S
H5117 C5141 0.951 . S
H5118 C5143 0.951 . S
H5119 C5145 0.950 . S
H5120 C5146 0.950 . S
H5121 C5148 0.950 . S
H5122 C5151 0.950 . S
H5123 C5152 0.950 . S
H5124 C5154 0.950 . S
H5125 C5155 0.950 . S
C5126 H5108 0.951 . S
C5126 C5127 1.366 . S
C5126 C5128 1.388 . S
C5127 C5126 1.366 . S
C5127 C5131 1.385 . S
C5128 H5109 0.951 . S
C5128 C5126 1.388 . S
C5128 C5129 1.366 . S
C5129 C5128 1.366 . S
C5129 C5130 1.414 . S
C5129 C5132 1.499 . S
C5130 H5110 0.950 . S
C5130 C5129 1.414 . S
C5130 C5131 1.374 . S
C5131 H5111 0.950 . S
C5131 C5127 1.385 . S
C5131 C5130 1.374 . S
C5132 C5129 1.499 . S
C5132 C5133 1.373 . S
C5132 C5134 1.389 . S
C5133 H5112 0.950 . S
C5133 C5132 1.373 . S
C5133 C5149 1.377 . S
C5134 C5132 1.389 . S
C5134 C5135 1.524 . S
C5134 C5148 1.377 . S
C5135 C5134 1.524 . S
C5135 C5136 1.397 . S
C5135 C5140 1.363 . S
C5136 H5113 0.950 . S
C5136 C5135 1.397 . S
C5136 C5137 1.334 . S
C5137 H5114 0.950 . S
C5137 C5136 1.334 . S
C5137 C5138 1.287 . S
C5138 C5137 1.287 . S
C5138 C5139 1.524 . S
C5138 H5157 0.913 . S
C5139 H5115 0.950 . S
C5139 C5138 1.524 . S
C5139 C5140 1.415 . S
C5140 H5116 0.950 . S
C5140 C5135 1.363 . S
C5140 C5139 1.415 . S
C5141 H5117 0.951 . S
C5141 C5142 1.366 . S
C5141 C5143 1.388 . S
C5142 C5141 1.366 . S
C5142 C5146 1.385 . S
C5143 H5118 0.951 . S
C5143 C5141 1.388 . S
C5143 C5144 1.366 . S
C5144 C5143 1.366 . S
C5144 C5145 1.414 . S
C5144 C5147 1.499 . S
C5145 H5119 0.950 . S
C5145 C5144 1.414 . S
C5145 C5146 1.374 . S
C5146 H5120 0.950 . S
C5146 C5142 1.385 . S
C5146 C5145 1.374 . S
C5147 C5144 1.499 . S
C5147 C5148 1.373 . S
C5147 C5149 1.389 . S
C5148 H5121 0.950 . S
C5148 C5134 1.377 . S
C5148 C5147 1.373 . S
C5149 C5133 1.377 . S
C5149 C5147 1.389 . S
C5149 C5150 1.524 . S
C5150 C5149 1.524 . S
C5150 C5151 1.397 . S
C5150 C5155 1.363 . S
C5151 H5122 0.950 . S
C5151 C5150 1.397 . S
C5151 C5152 1.334 . S
C5152 H5123 0.950 . S
C5152 C5151 1.334 . S
C5152 C5153 1.287 . S
C5153 C5152 1.287 . S
C5153 C5154 1.524 . S
C5153 H5156 0.999 . S
C5154 H5124 0.950 . S
C5154 C5153 1.524 . S
C5154 C5155 1.415 . S
C5155 H5125 0.950 . S
C5155 C5150 1.363 . S
C5155 C5154 1.415 . S
H5156 C5153 0.999 . S
H5157 C5138 0.913 . S
H5158 C5176 0.951 . S
H5159 C5178 0.951 . S
H5160 C5180 0.950 . S
H5161 C5181 0.950 . S
H5162 C5183 0.950 . S
H5163 C5186 0.950 . S
H5164 C5187 0.950 . S
H5165 C5189 0.950 . S
H5166 C5190 0.950 . S
H5167 C5191 0.951 . S
H5168 C5193 0.951 . S
H5169 C5195 0.950 . S
H5170 C5196 0.950 . S
H5171 C5198 0.950 . S
H5172 C5201 0.950 . S
H5173 C5202 0.950 . S
H5174 C5204 0.950 . S
H5175 C5205 0.950 . S
C5176 H5158 0.951 . S
C5176 C5177 1.366 . S
C5176 C5178 1.388 . S
C5177 C5176 1.366 . S
C5177 C5181 1.385 . S
C5178 H5159 0.951 . S
C5178 C5176 1.388 . S
C5178 C5179 1.366 . S
C5179 C5178 1.366 . S
C5179 C5180 1.414 . S
C5179 C5182 1.499 . S
C5180 H5160 0.950 . S
C5180 C5179 1.414 . S
C5180 C5181 1.374 . S
C5181 H5161 0.950 . S
C5181 C5177 1.385 . S
C5181 C5180 1.374 . S
C5182 C5179 1.499 . S
C5182 C5183 1.373 . S
C5182 C5184 1.389 . S
C5183 H5162 0.950 . S
C5183 C5182 1.373 . S
C5183 C5199 1.377 . S
C5184 C5182 1.389 . S
C5184 C5185 1.524 . S
C5184 C5198 1.377 . S
C5185 C5184 1.524 . S
C5185 C5186 1.397 . S
C5185 C5190 1.363 . S
C5186 H5163 0.950 . S
C5186 C5185 1.397 . S
C5186 C5187 1.334 . S
C5187 H5164 0.950 . S
C5187 C5186 1.334 . S
C5187 C5188 1.287 . S
C5188 C5187 1.287 . S
C5188 C5189 1.524 . S
C5188 H5207 0.913 . S
C5189 H5165 0.950 . S
C5189 C5188 1.524 . S
C5189 C5190 1.415 . S
C5190 H5166 0.950 . S
C5190 C5185 1.363 . S
C5190 C5189 1.415 . S
C5191 H5167 0.951 . S
C5191 C5192 1.366 . S
C5191 C5193 1.388 . S
C5192 C5191 1.366 . S
C5192 C5196 1.385 . S
C5193 H5168 0.951 . S
C5193 C5191 1.388 . S
C5193 C5194 1.366 . S
C5194 C5193 1.366 . S
C5194 C5195 1.414 . S
C5194 C5197 1.499 . S
C5195 H5169 0.950 . S
C5195 C5194 1.414 . S
C5195 C5196 1.374 . S
C5196 H5170 0.950 . S
C5196 C5192 1.385 . S
C5196 C5195 1.374 . S
C5197 C5194 1.499 . S
C5197 C5198 1.373 . S
C5197 C5199 1.389 . S
C5198 H5171 0.950 . S
C5198 C5184 1.377 . S
C5198 C5197 1.373 . S
C5199 C5183 1.377 . S
C5199 C5197 1.389 . S
C5199 C5200 1.524 . S
C5200 C5199 1.524 . S
C5200 C5201 1.397 . S
C5200 C5205 1.363 . S
C5201 H5172 0.950 . S
C5201 C5200 1.397 . S
C5201 C5202 1.334 . S
C5202 H5173 0.950 . S
C5202 C5201 1.334 . S
C5202 C5203 1.287 . S
C5203 C5202 1.287 . S
C5203 C5204 1.524 . S
C5203 H5206 0.999 . S
C5204 H5174 0.950 . S
C5204 C5203 1.524 . S
C5204 C5205 1.415 . S
C5205 H5175 0.950 . S
C5205 C5200 1.363 . S
C5205 C5204 1.415 . S
H5206 C5203 0.999 . S
H5207 C5188 0.913 . S
H5208 C5226 0.951 . S
H5209 C5228 0.951 . S
H5210 C5230 0.950 . S
H5211 C5231 0.950 . S
H5212 C5233 0.950 . S
H5213 C5236 0.950 . S
H5214 C5237 0.950 . S
H5215 C5239 0.950 . S
H5216 C5240 0.950 . S
H5217 C5241 0.951 . S
H5218 C5243 0.951 . S
H5219 C5245 0.950 . S
H5220 C5246 0.950 . S
H5221 C5248 0.950 . S
H5222 C5251 0.950 . S
H5223 C5252 0.950 . S
H5224 C5254 0.950 . S
H5225 C5255 0.950 . S
C5226 H5208 0.951 . S
C5226 C5227 1.366 . S
C5226 C5228 1.388 . S
C5227 C5226 1.366 . S
C5227 C5231 1.385 . S
C5228 H5209 0.951 . S
C5228 C5226 1.388 . S
C5228 C5229 1.366 . S
C5229 C5228 1.366 . S
C5229 C5230 1.414 . S
C5229 C5232 1.499 . S
C5230 H5210 0.950 . S
C5230 C5229 1.414 . S
C5230 C5231 1.374 . S
C5231 H5211 0.950 . S
C5231 C5227 1.385 . S
C5231 C5230 1.374 . S
C5232 C5229 1.499 . S
C5232 C5233 1.373 . S
C5232 C5234 1.389 . S
C5233 H5212 0.950 . S
C5233 C5232 1.373 . S
C5233 C5249 1.377 . S
C5234 C5232 1.389 . S
C5234 C5235 1.524 . S
C5234 C5248 1.377 . S
C5235 C5234 1.524 . S
C5235 C5236 1.397 . S
C5235 C5240 1.363 . S
C5236 H5213 0.950 . S
C5236 C5235 1.397 . S
C5236 C5237 1.334 . S
C5237 H5214 0.950 . S
C5237 C5236 1.334 . S
C5237 C5238 1.287 . S
C5238 C5237 1.287 . S
C5238 C5239 1.524 . S
C5238 H5257 0.913 . S
C5239 H5215 0.950 . S
C5239 C5238 1.524 . S
C5239 C5240 1.415 . S
C5240 H5216 0.950 . S
C5240 C5235 1.363 . S
C5240 C5239 1.415 . S
C5241 H5217 0.951 . S
C5241 C5242 1.366 . S
C5241 C5243 1.388 . S
C5242 C5241 1.366 . S
C5242 C5246 1.385 . S
C5243 H5218 0.951 . S
C5243 C5241 1.388 . S
C5243 C5244 1.366 . S
C5244 C5243 1.366 . S
C5244 C5245 1.414 . S
C5244 C5247 1.499 . S
C5245 H5219 0.950 . S
C5245 C5244 1.414 . S
C5245 C5246 1.374 . S
C5246 H5220 0.950 . S
C5246 C5242 1.385 . S
C5246 C5245 1.374 . S
C5247 C5244 1.499 . S
C5247 C5248 1.373 . S
C5247 C5249 1.389 . S
C5248 H5221 0.950 . S
C5248 C5234 1.377 . S
C5248 C5247 1.373 . S
C5249 C5233 1.377 . S
C5249 C5247 1.389 . S
C5249 C5250 1.524 . S
C5250 C5249 1.524 . S
C5250 C5251 1.397 . S
C5250 C5255 1.363 . S
C5251 H5222 0.950 . S
C5251 C5250 1.397 . S
C5251 C5252 1.334 . S
C5252 H5223 0.950 . S
C5252 C5251 1.334 . S
C5252 C5253 1.287 . S
C5253 C5252 1.287 . S
C5253 C5254 1.524 . S
C5253 H5256 0.999 . S
C5254 H5224 0.950 . S
C5254 C5253 1.524 . S
C5254 C5255 1.415 . S
C5255 H5225 0.950 . S
C5255 C5250 1.363 . S
C5255 C5254 1.415 . S
H5256 C5253 0.999 . S
H5257 C5238 0.913 . S
H5258 C5276 0.951 . S
H5259 C5278 0.951 . S
H5260 C5280 0.950 . S
H5261 C5281 0.950 . S
H5262 C5283 0.950 . S
H5263 C5286 0.950 . S
H5264 C5287 0.950 . S
H5265 C5289 0.950 . S
H5266 C5290 0.950 . S
H5267 C5291 0.951 . S
H5268 C5293 0.951 . S
H5269 C5295 0.950 . S
H5270 C5296 0.950 . S
H5271 C5298 0.950 . S
H5272 C5301 0.950 . S
H5273 C5302 0.950 . S
H5274 C5304 0.950 . S
H5275 C5305 0.950 . S
C5276 H5258 0.951 . S
C5276 C5277 1.366 . S
C5276 C5278 1.388 . S
C5277 C5276 1.366 . S
C5277 C5281 1.385 . S
C5278 H5259 0.951 . S
C5278 C5276 1.388 . S
C5278 C5279 1.366 . S
C5279 C5278 1.366 . S
C5279 C5280 1.414 . S
C5279 C5282 1.499 . S
C5280 H5260 0.950 . S
C5280 C5279 1.414 . S
C5280 C5281 1.374 . S
C5281 H5261 0.950 . S
C5281 C5277 1.385 . S
C5281 C5280 1.374 . S
C5282 C5279 1.499 . S
C5282 C5283 1.373 . S
C5282 C5284 1.389 . S
C5283 H5262 0.950 . S
C5283 C5282 1.373 . S
C5283 C5299 1.377 . S
C5284 C5282 1.389 . S
C5284 C5285 1.524 . S
C5284 C5298 1.377 . S
C5285 C5284 1.524 . S
C5285 C5286 1.397 . S
C5285 C5290 1.363 . S
C5286 H5263 0.950 . S
C5286 C5285 1.397 . S
C5286 C5287 1.334 . S
C5287 H5264 0.950 . S
C5287 C5286 1.334 . S
C5287 C5288 1.287 . S
C5288 C5287 1.287 . S
C5288 C5289 1.524 . S
C5288 H5307 0.913 . S
C5289 H5265 0.950 . S
C5289 C5288 1.524 . S
C5289 C5290 1.415 . S
C5290 H5266 0.950 . S
C5290 C5285 1.363 . S
C5290 C5289 1.415 . S
C5291 H5267 0.951 . S
C5291 C5292 1.366 . S
C5291 C5293 1.388 . S
C5292 C5291 1.366 . S
C5292 C5296 1.385 . S
C5293 H5268 0.951 . S
C5293 C5291 1.388 . S
C5293 C5294 1.366 . S
C5294 C5293 1.366 . S
C5294 C5295 1.414 . S
C5294 C5297 1.499 . S
C5295 H5269 0.950 . S
C5295 C5294 1.414 . S
C5295 C5296 1.374 . S
C5296 H5270 0.950 . S
C5296 C5292 1.385 . S
C5296 C5295 1.374 . S
C5297 C5294 1.499 . S
C5297 C5298 1.373 . S
C5297 C5299 1.389 . S
C5298 H5271 0.950 . S
C5298 C5284 1.377 . S
C5298 C5297 1.373 . S
C5299 C5283 1.377 . S
C5299 C5297 1.389 . S
C5299 C5300 1.524 . S
C5300 C5299 1.524 . S
C5300 C5301 1.397 . S
C5300 C5305 1.363 . S
C5301 H5272 0.950 . S
C5301 C5300 1.397 . S
C5301 C5302 1.334 . S
C5302 H5273 0.950 . S
C5302 C5301 1.334 . S
C5302 C5303 1.287 . S
C5303 C5302 1.287 . S
C5303 C5304 1.524 . S
C5303 H5306 0.999 . S
C5304 H5274 0.950 . S
C5304 C5303 1.524 . S
C5304 C5305 1.415 . S
C5305 H5275 0.950 . S
C5305 C5300 1.363 . S
C5305 C5304 1.415 . S
H5306 C5303 0.999 . S
H5307 C5288 0.913 . S
H5308 C5326 0.951 . S
H5309 C5328 0.951 . S
H5310 C5330 0.950 . S
H5311 C5331 0.950 . S
H5312 C5333 0.950 . S
H5313 C5336 0.950 . S
H5314 C5337 0.950 . S
H5315 C5339 0.950 . S
H5316 C5340 0.950 . S
H5317 C5341 0.951 . S
H5318 C5343 0.951 . S
H5319 C5345 0.950 . S
H5320 C5346 0.950 . S
H5321 C5348 0.950 . S
H5322 C5351 0.950 . S
H5323 C5352 0.950 . S
H5324 C5354 0.950 . S
H5325 C5355 0.950 . S
C5326 H5308 0.951 . S
C5326 C5327 1.366 . S
C5326 C5328 1.388 . S
C5327 C5326 1.366 . S
C5327 C5331 1.385 . S
C5328 H5309 0.951 . S
C5328 C5326 1.388 . S
C5328 C5329 1.366 . S
C5329 C5328 1.366 . S
C5329 C5330 1.414 . S
C5329 C5332 1.499 . S
C5330 H5310 0.950 . S
C5330 C5329 1.414 . S
C5330 C5331 1.374 . S
C5331 H5311 0.950 . S
C5331 C5327 1.385 . S
C5331 C5330 1.374 . S
C5332 C5329 1.499 . S
C5332 C5333 1.373 . S
C5332 C5334 1.389 . S
C5333 H5312 0.950 . S
C5333 C5332 1.373 . S
C5333 C5349 1.377 . S
C5334 C5332 1.389 . S
C5334 C5335 1.524 . S
C5334 C5348 1.377 . S
C5335 C5334 1.524 . S
C5335 C5336 1.397 . S
C5335 C5340 1.363 . S
C5336 H5313 0.950 . S
C5336 C5335 1.397 . S
C5336 C5337 1.334 . S
C5337 H5314 0.950 . S
C5337 C5336 1.334 . S
C5337 C5338 1.287 . S
C5338 C5337 1.287 . S
C5338 C5339 1.524 . S
C5338 H5357 0.913 . S
C5339 H5315 0.950 . S
C5339 C5338 1.524 . S
C5339 C5340 1.415 . S
C5340 H5316 0.950 . S
C5340 C5335 1.363 . S
C5340 C5339 1.415 . S
C5341 H5317 0.951 . S
C5341 C5342 1.366 . S
C5341 C5343 1.388 . S
C5342 C5341 1.366 . S
C5342 C5346 1.385 . S
C5343 H5318 0.951 . S
C5343 C5341 1.388 . S
C5343 C5344 1.366 . S
C5344 C5343 1.366 . S
C5344 C5345 1.414 . S
C5344 C5347 1.499 . S
C5345 H5319 0.950 . S
C5345 C5344 1.414 . S
C5345 C5346 1.374 . S
C5346 H5320 0.950 . S
C5346 C5342 1.385 . S
C5346 C5345 1.374 . S
C5347 C5344 1.499 . S
C5347 C5348 1.373 . S
C5347 C5349 1.389 . S
C5348 H5321 0.950 . S
C5348 C5334 1.377 . S
C5348 C5347 1.373 . S
C5349 C5333 1.377 . S
C5349 C5347 1.389 . S
C5349 C5350 1.524 . S
C5350 C5349 1.524 . S
C5350 C5351 1.397 . S
C5350 C5355 1.363 . S
C5351 H5322 0.950 . S
C5351 C5350 1.397 . S
C5351 C5352 1.334 . S
C5352 H5323 0.950 . S
C5352 C5351 1.334 . S
C5352 C5353 1.287 . S
C5353 C5352 1.287 . S
C5353 C5354 1.524 . S
C5353 H5356 0.999 . S
C5354 H5324 0.950 . S
C5354 C5353 1.524 . S
C5354 C5355 1.415 . S
C5355 H5325 0.950 . S
C5355 C5350 1.363 . S
C5355 C5354 1.415 . S
H5356 C5353 0.999 . S
H5357 C5338 0.913 . S
H5358 C5376 0.951 . S
H5359 C5378 0.951 . S
H5360 C5380 0.950 . S
H5361 C5381 0.950 . S
H5362 C5383 0.950 . S
H5363 C5386 0.950 . S
H5364 C5387 0.950 . S
H5365 C5389 0.950 . S
H5366 C5390 0.950 . S
H5367 C5391 0.951 . S
H5368 C5393 0.951 . S
H5369 C5395 0.950 . S
H5370 C5396 0.950 . S
H5371 C5398 0.950 . S
H5372 C5401 0.950 . S
H5373 C5402 0.950 . S
H5374 C5404 0.950 . S
H5375 C5405 0.950 . S
C5376 H5358 0.951 . S
C5376 C5377 1.366 . S
C5376 C5378 1.388 . S
C5377 C5376 1.366 . S
C5377 C5381 1.385 . S
C5378 H5359 0.951 . S
C5378 C5376 1.388 . S
C5378 C5379 1.366 . S
C5379 C5378 1.366 . S
C5379 C5380 1.414 . S
C5379 C5382 1.499 . S
C5380 H5360 0.950 . S
C5380 C5379 1.414 . S
C5380 C5381 1.374 . S
C5381 H5361 0.950 . S
C5381 C5377 1.385 . S
C5381 C5380 1.374 . S
C5382 C5379 1.499 . S
C5382 C5383 1.373 . S
C5382 C5384 1.389 . S
C5383 H5362 0.950 . S
C5383 C5382 1.373 . S
C5383 C5399 1.377 . S
C5384 C5382 1.389 . S
C5384 C5385 1.524 . S
C5384 C5398 1.377 . S
C5385 C5384 1.524 . S
C5385 C5386 1.397 . S
C5385 C5390 1.363 . S
C5386 H5363 0.950 . S
C5386 C5385 1.397 . S
C5386 C5387 1.334 . S
C5387 H5364 0.950 . S
C5387 C5386 1.334 . S
C5387 C5388 1.287 . S
C5388 C5387 1.287 . S
C5388 C5389 1.524 . S
C5388 H5407 0.913 . S
C5389 H5365 0.950 . S
C5389 C5388 1.524 . S
C5389 C5390 1.415 . S
C5390 H5366 0.950 . S
C5390 C5385 1.363 . S
C5390 C5389 1.415 . S
C5391 H5367 0.951 . S
C5391 C5392 1.366 . S
C5391 C5393 1.388 . S
C5392 C5391 1.366 . S
C5392 C5396 1.385 . S
C5393 H5368 0.951 . S
C5393 C5391 1.388 . S
C5393 C5394 1.366 . S
C5394 C5393 1.366 . S
C5394 C5395 1.414 . S
C5394 C5397 1.499 . S
C5395 H5369 0.950 . S
C5395 C5394 1.414 . S
C5395 C5396 1.374 . S
C5396 H5370 0.950 . S
C5396 C5392 1.385 . S
C5396 C5395 1.374 . S
C5397 C5394 1.499 . S
C5397 C5398 1.373 . S
C5397 C5399 1.389 . S
C5398 H5371 0.950 . S
C5398 C5384 1.377 . S
C5398 C5397 1.373 . S
C5399 C5383 1.377 . S
C5399 C5397 1.389 . S
C5399 C5400 1.524 . S
C5400 C5399 1.524 . S
C5400 C5401 1.397 . S
C5400 C5405 1.363 . S
C5401 H5372 0.950 . S
C5401 C5400 1.397 . S
C5401 C5402 1.334 . S
C5402 H5373 0.950 . S
C5402 C5401 1.334 . S
C5402 C5403 1.287 . S
C5403 C5402 1.287 . S
C5403 C5404 1.524 . S
C5403 H5406 0.999 . S
C5404 H5374 0.950 . S
C5404 C5403 1.524 . S
C5404 C5405 1.415 . S
C5405 H5375 0.950 . S
C5405 C5400 1.363 . S
C5405 C5404 1.415 . S
H5406 C5403 0.999 . S
H5407 C5388 0.913 . S
H5408 C5426 0.951 . S
H5409 C5428 0.951 . S
H5410 C5430 0.950 . S
H5411 C5431 0.950 . S
H5412 C5433 0.950 . S
H5413 C5436 0.950 . S
H5414 C5437 0.950 . S
H5415 C5439 0.950 . S
H5416 C5440 0.950 . S
H5417 C5441 0.951 . S
H5418 C5443 0.951 . S
H5419 C5445 0.950 . S
H5420 C5446 0.950 . S
H5421 C5448 0.950 . S
H5422 C5451 0.950 . S
H5423 C5452 0.950 . S
H5424 C5454 0.950 . S
H5425 C5455 0.950 . S
C5426 H5408 0.951 . S
C5426 C5427 1.366 . S
C5426 C5428 1.388 . S
C5427 C5426 1.366 . S
C5427 C5431 1.385 . S
C5428 H5409 0.951 . S
C5428 C5426 1.388 . S
C5428 C5429 1.366 . S
C5429 C5428 1.366 . S
C5429 C5430 1.414 . S
C5429 C5432 1.499 . S
C5430 H5410 0.950 . S
C5430 C5429 1.414 . S
C5430 C5431 1.374 . S
C5431 H5411 0.950 . S
C5431 C5427 1.385 . S
C5431 C5430 1.374 . S
C5432 C5429 1.499 . S
C5432 C5433 1.373 . S
C5432 C5434 1.389 . S
C5433 H5412 0.950 . S
C5433 C5432 1.373 . S
C5433 C5449 1.377 . S
C5434 C5432 1.389 . S
C5434 C5435 1.524 . S
C5434 C5448 1.377 . S
C5435 C5434 1.524 . S
C5435 C5436 1.397 . S
C5435 C5440 1.363 . S
C5436 H5413 0.950 . S
C5436 C5435 1.397 . S
C5436 C5437 1.334 . S
C5437 H5414 0.950 . S
C5437 C5436 1.334 . S
C5437 C5438 1.287 . S
C5438 C5437 1.287 . S
C5438 C5439 1.524 . S
C5438 H5457 0.913 . S
C5439 H5415 0.950 . S
C5439 C5438 1.524 . S
C5439 C5440 1.415 . S
C5440 H5416 0.950 . S
C5440 C5435 1.363 . S
C5440 C5439 1.415 . S
C5441 H5417 0.951 . S
C5441 C5442 1.366 . S
C5441 C5443 1.388 . S
C5442 C5441 1.366 . S
C5442 C5446 1.385 . S
C5443 H5418 0.951 . S
C5443 C5441 1.388 . S
C5443 C5444 1.366 . S
C5444 C5443 1.366 . S
C5444 C5445 1.414 . S
C5444 C5447 1.499 . S
C5445 H5419 0.950 . S
C5445 C5444 1.414 . S
C5445 C5446 1.374 . S
C5446 H5420 0.950 . S
C5446 C5442 1.385 . S
C5446 C5445 1.374 . S
C5447 C5444 1.499 . S
C5447 C5448 1.373 . S
C5447 C5449 1.389 . S
C5448 H5421 0.950 . S
C5448 C5434 1.377 . S
C5448 C5447 1.373 . S
C5449 C5433 1.377 . S
C5449 C5447 1.389 . S
C5449 C5450 1.524 . S
C5450 C5449 1.524 . S
C5450 C5451 1.397 . S
C5450 C5455 1.363 . S
C5451 H5422 0.950 . S
C5451 C5450 1.397 . S
C5451 C5452 1.334 . S
C5452 H5423 0.950 . S
C5452 C5451 1.334 . S
C5452 C5453 1.287 . S
C5453 C5452 1.287 . S
C5453 C5454 1.524 . S
C5453 H5456 0.999 . S
C5454 H5424 0.950 . S
C5454 C5453 1.524 . S
C5454 C5455 1.415 . S
C5455 H5425 0.950 . S
C5455 C5450 1.363 . S
C5455 C5454 1.415 . S
H5456 C5453 0.999 . S
H5457 C5438 0.913 . S
H5458 C5476 0.951 . S
H5459 C5478 0.951 . S
H5460 C5480 0.950 . S
H5461 C5481 0.950 . S
H5462 C5483 0.950 . S
H5463 C5486 0.950 . S
H5464 C5487 0.950 . S
H5465 C5489 0.950 . S
H5466 C5490 0.950 . S
H5467 C5491 0.951 . S
H5468 C5493 0.951 . S
H5469 C5495 0.950 . S
H5470 C5496 0.950 . S
H5471 C5498 0.950 . S
H5472 C5501 0.950 . S
H5473 C5502 0.950 . S
H5474 C5504 0.950 . S
H5475 C5505 0.950 . S
C5476 H5458 0.951 . S
C5476 C5477 1.366 . S
C5476 C5478 1.388 . S
C5477 C5476 1.366 . S
C5477 C5481 1.385 . S
C5478 H5459 0.951 . S
C5478 C5476 1.388 . S
C5478 C5479 1.366 . S
C5479 C5478 1.366 . S
C5479 C5480 1.414 . S
C5479 C5482 1.499 . S
C5480 H5460 0.950 . S
C5480 C5479 1.414 . S
C5480 C5481 1.374 . S
C5481 H5461 0.950 . S
C5481 C5477 1.385 . S
C5481 C5480 1.374 . S
C5482 C5479 1.499 . S
C5482 C5483 1.373 . S
C5482 C5484 1.389 . S
C5483 H5462 0.950 . S
C5483 C5482 1.373 . S
C5483 C5499 1.377 . S
C5484 C5482 1.389 . S
C5484 C5485 1.524 . S
C5484 C5498 1.377 . S
C5485 C5484 1.524 . S
C5485 C5486 1.397 . S
C5485 C5490 1.363 . S
C5486 H5463 0.950 . S
C5486 C5485 1.397 . S
C5486 C5487 1.334 . S
C5487 H5464 0.950 . S
C5487 C5486 1.334 . S
C5487 C5488 1.287 . S
C5488 C5487 1.287 . S
C5488 C5489 1.524 . S
C5488 H5507 0.913 . S
C5489 H5465 0.950 . S
C5489 C5488 1.524 . S
C5489 C5490 1.415 . S
C5490 H5466 0.950 . S
C5490 C5485 1.363 . S
C5490 C5489 1.415 . S
C5491 H5467 0.951 . S
C5491 C5492 1.366 . S
C5491 C5493 1.388 . S
C5492 C5491 1.366 . S
C5492 C5496 1.385 . S
C5493 H5468 0.951 . S
C5493 C5491 1.388 . S
C5493 C5494 1.366 . S
C5494 C5493 1.366 . S
C5494 C5495 1.414 . S
C5494 C5497 1.499 . S
C5495 H5469 0.950 . S
C5495 C5494 1.414 . S
C5495 C5496 1.374 . S
C5496 H5470 0.950 . S
C5496 C5492 1.385 . S
C5496 C5495 1.374 . S
C5497 C5494 1.499 . S
C5497 C5498 1.373 . S
C5497 C5499 1.389 . S
C5498 H5471 0.950 . S
C5498 C5484 1.377 . S
C5498 C5497 1.373 . S
C5499 C5483 1.377 . S
C5499 C5497 1.389 . S
C5499 C5500 1.524 . S
C5500 C5499 1.524 . S
C5500 C5501 1.397 . S
C5500 C5505 1.363 . S
C5501 H5472 0.950 . S
C5501 C5500 1.397 . S
C5501 C5502 1.334 . S
C5502 H5473 0.950 . S
C5502 C5501 1.334 . S
C5502 C5503 1.287 . S
C5503 C5502 1.287 . S
C5503 C5504 1.524 . S
C5503 H5506 0.999 . S
C5504 H5474 0.950 . S
C5504 C5503 1.524 . S
C5504 C5505 1.415 . S
C5505 H5475 0.950 . S
C5505 C5500 1.363 . S
C5505 C5504 1.415 . S
H5506 C5503 0.999 . S
H5507 C5488 0.913 . S
H5508 C5526 0.951 1_545 S
H5509 C5528 0.951 . S
H5510 C5530 0.950 . S
H5511 C5531 0.950 . S
H5512 C5533 0.950 . S
H5513 C5536 0.950 . S
H5514 C5537 0.950 . S
H5515 C5539 0.950 . S
H5516 C5540 0.950 . S
H5517 C5541 0.951 . S
H5518 C5543 0.951 . S
H5519 C5545 0.950 . S
H5520 C5546 0.950 . S
H5521 C5548 0.950 . S
H5522 C5551 0.950 . S
H5523 C5552 0.950 . S
H5524 C5554 0.950 . S
H5525 C5555 0.950 . S
C5526 H5508 0.951 1_565 S
C5526 C5527 1.366 . S
C5526 C5528 1.388 . S
C5527 C5526 1.366 . S
C5527 C5531 1.385 . S
C5528 H5509 0.951 . S
C5528 C5526 1.388 . S
C5528 C5529 1.366 . S
C5529 C5528 1.366 . S
C5529 C5530 1.414 . S
C5529 C5532 1.499 . S
C5530 H5510 0.950 . S
C5530 C5529 1.414 . S
C5530 C5531 1.374 . S
C5531 H5511 0.950 . S
C5531 C5527 1.385 . S
C5531 C5530 1.374 . S
C5532 C5529 1.499 . S
C5532 C5533 1.373 . S
C5532 C5534 1.389 . S
C5533 H5512 0.950 . S
C5533 C5532 1.373 . S
C5533 C5549 1.377 . S
C5534 C5532 1.389 . S
C5534 C5535 1.524 . S
C5534 C5548 1.377 . S
C5535 C5534 1.524 . S
C5535 C5536 1.397 . S
C5535 C5540 1.363 . S
C5536 H5513 0.950 . S
C5536 C5535 1.397 . S
C5536 C5537 1.334 . S
C5537 H5514 0.950 . S
C5537 C5536 1.334 . S
C5537 C5538 1.287 . S
C5538 C5537 1.287 . S
C5538 C5539 1.524 . S
C5538 H5557 0.913 . S
C5539 H5515 0.950 . S
C5539 C5538 1.524 . S
C5539 C5540 1.415 . S
C5540 H5516 0.950 . S
C5540 C5535 1.363 . S
C5540 C5539 1.415 . S
C5541 H5517 0.951 . S
C5541 C5542 1.366 . S
C5541 C5543 1.388 . S
C5542 C5541 1.366 . S
C5542 C5546 1.385 . S
C5543 H5518 0.951 . S
C5543 C5541 1.388 . S
C5543 C5544 1.366 . S
C5544 C5543 1.366 . S
C5544 C5545 1.414 . S
C5544 C5547 1.499 . S
C5545 H5519 0.950 . S
C5545 C5544 1.414 . S
C5545 C5546 1.374 . S
C5546 H5520 0.950 . S
C5546 C5542 1.385 . S
C5546 C5545 1.374 . S
C5547 C5544 1.499 . S
C5547 C5548 1.373 . S
C5547 C5549 1.389 . S
C5548 H5521 0.950 . S
C5548 C5534 1.377 . S
C5548 C5547 1.373 . S
C5549 C5533 1.377 . S
C5549 C5547 1.389 . S
C5549 C5550 1.524 . S
C5550 C5549 1.524 . S
C5550 C5551 1.397 . S
C5550 C5555 1.363 . S
C5551 H5522 0.950 . S
C5551 C5550 1.397 . S
C5551 C5552 1.334 . S
C5552 H5523 0.950 . S
C5552 C5551 1.334 . S
C5552 C5553 1.287 . S
C5553 C5552 1.287 . S
C5553 C5554 1.524 . S
C5553 H5556 0.999 . S
C5554 H5524 0.950 . S
C5554 C5553 1.524 . S
C5554 C5555 1.415 . S
C5555 H5525 0.950 . S
C5555 C5550 1.363 . S
C5555 C5554 1.415 . S
H5556 C5553 0.999 . S
H5557 C5538 0.913 . S
H5558 C5576 0.951 . S
H5559 C5578 0.951 . S
H5560 C5580 0.939 1_556 S
H5561 C5581 0.949 1_556 S
H5562 C5583 0.950 . S
H5563 C5586 0.950 . S
H5564 C5587 0.950 . S
H5565 C5589 0.950 . S
H5566 C5590 0.950 1_554 S
H5567 C5591 0.951 . S
H5568 C5593 0.951 . S
H5569 C5595 0.950 . S
H5570 C5596 0.950 . S
H5571 C5598 0.950 1_546 S
H5572 C5601 0.950 . S
H5573 C5602 0.950 . S
H5574 C5604 0.950 . S
H5575 C5605 0.950 . S
C5576 H5558 0.951 . S
C5576 C5577 1.366 . S
C5576 C5578 1.388 . S
C5577 C5576 1.366 . S
C5577 C5581 1.387 . S
C5578 H5559 0.951 . S
C5578 C5576 1.388 . S
C5578 C5579 1.366 . S
C5579 C5578 1.366 . S
C5579 C5580 1.414 . S
C5579 C5582 1.499 . S
C5580 H5560 0.939 1_554 S
C5580 C5579 1.414 . S
C5580 C5581 1.373 . S
C5581 H5561 0.949 1_554 S
C5581 C5577 1.387 . S
C5581 C5580 1.373 . S
C5582 C5579 1.499 . S
C5582 C5583 1.373 . S
C5582 C5584 1.420 . S
C5583 H5562 0.950 . S
C5583 C5582 1.373 . S
C5583 C5599 1.377 . S
C5584 C5582 1.420 . S
C5584 C5585 1.491 1_554 S
C5584 C5598 1.378 . S
C5585 C5584 1.491 1_556 S
C5585 C5586 1.397 . S
C5585 C5590 1.363 1_565 S
C5586 H5563 0.950 . S
C5586 C5585 1.397 . S
C5586 C5587 1.334 . S
C5587 H5564 0.950 . S
C5587 C5586 1.334 . S
C5587 C5588 1.287 1_565 S
C5588 C5587 1.287 1_545 S
C5588 C5589 1.524 . S
C5588 H5607 0.913 . S
C5589 H5565 0.950 . S
C5589 C5588 1.524 . S
C5589 C5590 1.415 . S
C5590 H5566 0.950 1_556 S
C5590 C5585 1.363 1_545 S
C5590 C5589 1.415 . S
C5591 H5567 0.951 . S
C5591 C5592 1.366 1_565 S
C5591 C5593 1.388 . S
C5592 C5591 1.366 1_545 S
C5592 C5596 1.385 . S
C5593 H5568 0.951 . S
C5593 C5591 1.388 . S
C5593 C5594 1.366 . S
C5594 C5593 1.366 . S
C5594 C5595 1.414 1_565 S
C5594 C5597 1.499 . S
C5595 H5569 0.950 . S
C5595 C5594 1.414 1_545 S
C5595 C5596 1.374 . S
C5596 H5570 0.950 . S
C5596 C5592 1.385 . S
C5596 C5595 1.374 . S
C5597 C5594 1.499 . S
C5597 C5598 1.373 . S
C5597 C5599 1.389 . S
C5598 H5571 0.950 1_564 S
C5598 C5584 1.378 . S
C5598 C5597 1.373 . S
C5599 C5583 1.377 . S
C5599 C5597 1.389 . S
C5599 C5600 1.524 . S
C5600 C5599 1.524 . S
C5600 C5601 1.397 . S
C5600 C5605 1.363 . S
C5601 H5572 0.950 . S
C5601 C5600 1.397 . S
C5601 C5602 1.334 . S
C5602 H5573 0.950 . S
C5602 C5601 1.334 . S
C5602 C5603 1.287 . S
C5603 C5602 1.287 . S
C5603 C5604 1.524 . S
C5603 H5606 0.999 . S
C5604 H5574 0.950 . S
C5604 C5603 1.524 . S
C5604 C5605 1.415 . S
C5605 H5575 0.950 . S
C5605 C5600 1.363 . S
C5605 C5604 1.415 . S
H5606 C5603 0.999 . S
H5607 C5588 0.913 . S
H5608 C5626 0.951 . S
H5609 C5628 0.951 . S
H5610 C5630 0.950 . S
H5611 C5631 0.950 . S
H5612 C5633 0.950 . S
H5613 C5636 0.950 . S
H5614 C5637 0.950 . S
H5615 C5639 0.950 . S
H5616 C5640 0.950 . S
H5617 C5641 0.951 . S
H5618 C5643 0.951 . S
H5619 C5645 0.950 . S
H5620 C5646 0.950 . S
H5621 C5648 0.950 . S
H5622 C5651 0.950 . S
H5623 C5652 0.950 . S
H5624 C5654 0.950 . S
H5625 C5655 0.950 . S
C5626 H5608 0.951 . S
C5626 C5627 1.366 . S
C5626 C5628 1.388 . S
C5627 C5626 1.366 . S
C5627 C5631 1.385 . S
C5628 H5609 0.951 . S
C5628 C5626 1.388 . S
C5628 C5629 1.366 . S
C5629 C5628 1.366 . S
C5629 C5630 1.414 . S
C5629 C5632 1.499 . S
C5630 H5610 0.950 . S
C5630 C5629 1.414 . S
C5630 C5631 1.374 . S
C5631 H5611 0.950 . S
C5631 C5627 1.385 . S
C5631 C5630 1.374 . S
C5632 C5629 1.499 . S
C5632 C5633 1.373 . S
C5632 C5634 1.389 . S
C5633 H5612 0.950 . S
C5633 C5632 1.373 . S
C5633 C5649 1.377 . S
C5634 C5632 1.389 . S
C5634 C5635 1.524 . S
C5634 C5648 1.377 . S
C5635 C5634 1.524 . S
C5635 C5636 1.397 . S
C5635 C5640 1.363 . S
C5636 H5613 0.950 . S
C5636 C5635 1.397 . S
C5636 C5637 1.334 . S
C5637 H5614 0.950 . S
C5637 C5636 1.334 . S
C5637 C5638 1.287 . S
C5638 C5637 1.287 . S
C5638 C5639 1.524 . S
C5638 H5657 0.913 . S
C5639 H5615 0.950 . S
C5639 C5638 1.524 . S
C5639 C5640 1.415 . S
C5640 H5616 0.950 . S
C5640 C5635 1.363 . S
C5640 C5639 1.415 . S
C5641 H5617 0.951 . S
C5641 C5642 1.366 . S
C5641 C5643 1.388 . S
C5642 C5641 1.366 . S
C5642 C5646 1.385 . S
C5643 H5618 0.951 . S
C5643 C5641 1.388 . S
C5643 C5644 1.366 . S
C5644 C5643 1.366 . S
C5644 C5645 1.414 . S
C5644 C5647 1.499 . S
C5645 H5619 0.950 . S
C5645 C5644 1.414 . S
C5645 C5646 1.374 . S
C5646 H5620 0.950 . S
C5646 C5642 1.385 . S
C5646 C5645 1.374 . S
C5647 C5644 1.499 . S
C5647 C5648 1.373 . S
C5647 C5649 1.389 . S
C5648 H5621 0.950 . S
C5648 C5634 1.377 . S
C5648 C5647 1.373 . S
C5649 C5633 1.377 . S
C5649 C5647 1.389 . S
C5649 C5650 1.524 . S
C5650 C5649 1.524 . S
C5650 C5651 1.397 . S
C5650 C5655 1.363 . S
C5651 H5622 0.950 . S
C5651 C5650 1.397 . S
C5651 C5652 1.334 . S
C5652 H5623 0.950 . S
C5652 C5651 1.334 . S
C5652 C5653 1.287 . S
C5653 C5652 1.287 . S
C5653 C5654 1.524 . S
C5653 H5656 0.999 . S
C5654 H5624 0.950 . S
C5654 C5653 1.524 . S
C5654 C5655 1.415 . S
C5655 H5625 0.950 . S
C5655 C5650 1.363 . S
C5655 C5654 1.415 . S
H5656 C5653 0.999 . S
H5657 C5638 0.913 . S
H5658 C5676 0.951 . S
H5659 C5678 0.951 . S
H5660 C5680 0.950 . S
H5661 C5681 0.950 . S
H5662 C5683 0.950 . S
H5663 C5686 0.950 . S
H5664 C5687 0.950 . S
H5665 C5689 0.950 . S
H5666 C5690 0.950 . S
H5667 C5691 0.951 . S
H5668 C5693 0.951 . S
H5669 C5695 0.950 . S
H5670 C5696 0.950 . S
H5671 C5698 0.950 1_556 S
H5672 C5701 0.950 . S
H5673 C5702 0.950 . S
H5674 C5704 0.950 . S
H5675 C5705 0.950 . S
C5676 H5658 0.951 . S
C5676 C5677 1.366 . S
C5676 C5678 1.388 . S
C5677 C5676 1.366 . S
C5677 C5681 1.385 . S
C5678 H5659 0.951 . S
C5678 C5676 1.388 . S
C5678 C5679 1.366 . S
C5679 C5678 1.366 . S
C5679 C5680 1.414 . S
C5679 C5682 1.499 . S
C5680 H5660 0.950 . S
C5680 C5679 1.414 . S
C5680 C5681 1.374 . S
C5681 H5661 0.950 . S
C5681 C5677 1.385 . S
C5681 C5680 1.374 . S
C5682 C5679 1.499 . S
C5682 C5683 1.373 . S
C5682 C5684 1.389 . S
C5683 H5662 0.950 . S
C5683 C5682 1.373 . S
C5683 C5699 1.377 . S
C5684 C5682 1.389 . S
C5684 C5685 1.524 1_554 S
C5684 C5698 1.377 . S
C5685 C5684 1.524 1_556 S
C5685 C5686 1.397 . S
C5685 C5690 1.363 . S
C5686 H5663 0.950 . S
C5686 C5685 1.397 . S
C5686 C5687 1.334 . S
C5687 H5664 0.950 . S
C5687 C5686 1.334 . S
C5687 C5688 1.287 . S
C5688 C5687 1.287 . S
C5688 C5689 1.524 . S
C5688 H5707 0.913 . S
C5689 H5665 0.950 . S
C5689 C5688 1.524 . S
C5689 C5690 1.415 . S
C5690 H5666 0.950 . S
C5690 C5685 1.363 . S
C5690 C5689 1.415 . S
C5691 H5667 0.951 . S
C5691 C5692 1.366 . S
C5691 C5693 1.388 . S
C5692 C5691 1.366 . S
C5692 C5696 1.385 . S
C5693 H5668 0.951 . S
C5693 C5691 1.388 . S
C5693 C5694 1.366 . S
C5694 C5693 1.366 . S
C5694 C5695 1.414 . S
C5694 C5697 1.499 . S
C5695 H5669 0.950 . S
C5695 C5694 1.414 . S
C5695 C5696 1.374 . S
C5696 H5670 0.950 . S
C5696 C5692 1.385 . S
C5696 C5695 1.374 . S
C5697 C5694 1.499 . S
C5697 C5698 1.373 . S
C5697 C5699 1.389 . S
C5698 H5671 0.950 1_554 S
C5698 C5684 1.377 . S
C5698 C5697 1.373 . S
C5699 C5683 1.377 . S
C5699 C5697 1.389 . S
C5699 C5700 1.524 . S
C5700 C5699 1.524 . S
C5700 C5701 1.397 . S
C5700 C5705 1.363 . S
C5701 H5672 0.950 . S
C5701 C5700 1.397 . S
C5701 C5702 1.334 . S
C5702 H5673 0.950 . S
C5702 C5701 1.334 . S
C5702 C5703 1.287 . S
C5703 C5702 1.287 . S
C5703 C5704 1.524 . S
C5703 H5706 0.999 . S
C5704 H5674 0.950 . S
C5704 C5703 1.524 . S
C5704 C5705 1.415 . S
C5705 H5675 0.950 . S
C5705 C5700 1.363 . S
C5705 C5704 1.415 . S
H5706 C5703 0.999 . S
H5707 C5688 0.913 . S
H5708 C5726 0.951 . S
H5709 C5728 0.951 . S
H5710 C5730 0.950 . S
H5711 C5731 0.950 . S
H5712 C5733 0.950 . S
H5713 C5736 0.950 . S
H5714 C5737 0.950 . S
H5715 C5739 0.950 . S
H5716 C5740 0.950 . S
H5717 C5741 0.951 . S
H5718 C5743 0.951 . S
H5719 C5745 0.950 . S
H5720 C5746 0.950 . S
H5721 C5748 0.950 . S
H5722 C5751 0.950 . S
H5723 C5752 0.950 . S
H5724 C5754 0.950 . S
H5725 C5755 0.950 . S
C5726 H5708 0.951 . S
C5726 C5727 1.366 . S
C5726 C5728 1.388 . S
C5727 C5726 1.366 . S
C5727 C5731 1.385 . S
C5728 H5709 0.951 . S
C5728 C5726 1.388 . S
C5728 C5729 1.366 . S
C5729 C5728 1.366 . S
C5729 C5730 1.414 . S
C5729 C5732 1.499 . S
C5730 H5710 0.950 . S
C5730 C5729 1.414 . S
C5730 C5731 1.374 . S
C5731 H5711 0.950 . S
C5731 C5727 1.385 . S
C5731 C5730 1.374 . S
C5732 C5729 1.499 . S
C5732 C5733 1.373 . S
C5732 C5734 1.389 . S
C5733 H5712 0.950 . S
C5733 C5732 1.373 . S
C5733 C5749 1.377 . S
C5734 C5732 1.389 . S
C5734 C5735 1.524 . S
C5734 C5748 1.377 . S
C5735 C5734 1.524 . S
C5735 C5736 1.397 . S
C5735 C5740 1.363 . S
C5736 H5713 0.950 . S
C5736 C5735 1.397 . S
C5736 C5737 1.334 . S
C5737 H5714 0.950 . S
C5737 C5736 1.334 . S
C5737 C5738 1.287 . S
C5738 C5737 1.287 . S
C5738 C5739 1.524 . S
C5738 H5757 0.913 . S
C5739 H5715 0.950 . S
C5739 C5738 1.524 . S
C5739 C5740 1.415 . S
C5740 H5716 0.950 . S
C5740 C5735 1.363 . S
C5740 C5739 1.415 . S
C5741 H5717 0.951 . S
C5741 C5742 1.366 . S
C5741 C5743 1.388 . S
C5742 C5741 1.366 . S
C5742 C5746 1.385 . S
C5743 H5718 0.951 . S
C5743 C5741 1.388 . S
C5743 C5744 1.366 . S
C5744 C5743 1.366 . S
C5744 C5745 1.414 . S
C5744 C5747 1.499 . S
C5745 H5719 0.950 . S
C5745 C5744 1.414 . S
C5745 C5746 1.374 . S
C5746 H5720 0.950 . S
C5746 C5742 1.385 . S
C5746 C5745 1.374 . S
C5747 C5744 1.499 . S
C5747 C5748 1.373 . S
C5747 C5749 1.389 . S
C5748 H5721 0.950 . S
C5748 C5734 1.377 . S
C5748 C5747 1.373 . S
C5749 C5733 1.377 . S
C5749 C5747 1.389 . S
C5749 C5750 1.524 . S
C5750 C5749 1.524 . S
C5750 C5751 1.397 . S
C5750 C5755 1.363 . S
C5751 H5722 0.950 . S
C5751 C5750 1.397 . S
C5751 C5752 1.334 . S
C5752 H5723 0.950 . S
C5752 C5751 1.334 . S
C5752 C5753 1.287 . S
C5753 C5752 1.287 . S
C5753 C5754 1.524 . S
C5753 H5756 0.999 . S
C5754 H5724 0.950 . S
C5754 C5753 1.524 . S
C5754 C5755 1.415 . S
C5755 H5725 0.950 . S
C5755 C5750 1.363 . S
C5755 C5754 1.415 . S
H5756 C5753 0.999 . S
H5757 C5738 0.913 . S
H5758 C5776 0.951 . S
H5759 C5778 0.951 . S
H5760 C5780 0.950 . S
H5761 C5781 0.950 . S
H5762 C5783 0.950 . S
H5763 C5786 0.950 . S
H5764 C5787 0.950 . S
H5765 C5789 0.950 . S
H5766 C5790 0.950 . S
H5767 C5791 0.951 . S
H5768 C5793 0.951 . S
H5769 C5795 0.950 . S
H5770 C5796 0.950 . S
H5771 C5798 0.950 . S
H5772 C5801 0.950 . S
H5773 C5802 0.950 . S
H5774 C5804 0.950 . S
H5775 C5805 0.950 . S
C5776 H5758 0.951 . S
C5776 C5777 1.366 . S
C5776 C5778 1.388 . S
C5777 C5776 1.366 . S
C5777 C5781 1.385 . S
C5778 H5759 0.951 . S
C5778 C5776 1.388 . S
C5778 C5779 1.366 . S
C5779 C5778 1.366 . S
C5779 C5780 1.414 . S
C5779 C5782 1.499 . S
C5780 H5760 0.950 . S
C5780 C5779 1.414 . S
C5780 C5781 1.374 . S
C5781 H5761 0.950 . S
C5781 C5777 1.385 . S
C5781 C5780 1.374 . S
C5782 C5779 1.499 . S
C5782 C5783 1.373 . S
C5782 C5784 1.389 . S
C5783 H5762 0.950 . S
C5783 C5782 1.373 . S
C5783 C5799 1.377 . S
C5784 C5782 1.389 . S
C5784 C5785 1.524 . S
C5784 C5798 1.377 . S
C5785 C5784 1.524 . S
C5785 C5786 1.397 . S
C5785 C5790 1.363 . S
C5786 H5763 0.950 . S
C5786 C5785 1.397 . S
C5786 C5787 1.334 . S
C5787 H5764 0.950 . S
C5787 C5786 1.334 . S
C5787 C5788 1.287 . S
C5788 C5787 1.287 . S
C5788 C5789 1.524 . S
C5788 H5807 0.913 . S
C5789 H5765 0.950 . S
C5789 C5788 1.524 . S
C5789 C5790 1.415 . S
C5790 H5766 0.950 . S
C5790 C5785 1.363 . S
C5790 C5789 1.415 . S
C5791 H5767 0.951 . S
C5791 C5792 1.366 . S
C5791 C5793 1.388 . S
C5792 C5791 1.366 . S
C5792 C5796 1.385 . S
C5793 H5768 0.951 . S
C5793 C5791 1.388 . S
C5793 C5794 1.366 . S
C5794 C5793 1.366 . S
C5794 C5795 1.414 . S
C5794 C5797 1.499 . S
C5795 H5769 0.950 . S
C5795 C5794 1.414 . S
C5795 C5796 1.374 . S
C5796 H5770 0.950 . S
C5796 C5792 1.385 . S
C5796 C5795 1.374 . S
C5797 C5794 1.499 . S
C5797 C5798 1.373 . S
C5797 C5799 1.389 . S
C5798 H5771 0.950 . S
C5798 C5784 1.377 . S
C5798 C5797 1.373 . S
C5799 C5783 1.377 . S
C5799 C5797 1.389 . S
C5799 C5800 1.524 . S
C5800 C5799 1.524 . S
C5800 C5801 1.397 . S
C5800 C5805 1.363 . S
C5801 H5772 0.950 . S
C5801 C5800 1.397 . S
C5801 C5802 1.334 . S
C5802 H5773 0.950 . S
C5802 C5801 1.334 . S
C5802 C5803 1.287 . S
C5803 C5802 1.287 . S
C5803 C5804 1.524 . S
C5803 H5806 0.999 . S
C5804 H5774 0.950 . S
C5804 C5803 1.524 . S
C5804 C5805 1.415 . S
C5805 H5775 0.950 . S
C5805 C5800 1.363 . S
C5805 C5804 1.415 . S
H5806 C5803 0.999 . S
H5807 C5788 0.913 . S
H5808 C5826 0.951 . S
H5809 C5828 0.951 . S
H5810 C5830 0.950 . S
H5811 C5831 0.950 . S
H5812 C5833 0.950 . S
H5813 C5836 0.950 . S
H5814 C5837 0.950 . S
H5815 C5839 0.950 . S
H5816 C5840 0.950 . S
H5817 C5841 0.951 . S
H5818 C5843 0.951 . S
H5819 C5845 0.950 . S
H5820 C5846 0.950 . S
H5821 C5848 0.950 . S
H5822 C5851 0.950 . S
H5823 C5852 0.950 . S
H5824 C5854 0.950 . S
H5825 C5855 0.950 . S
C5826 H5808 0.951 . S
C5826 C5827 1.366 . S
C5826 C5828 1.388 . S
C5827 C5826 1.366 . S
C5827 C5831 1.385 . S
C5828 H5809 0.951 . S
C5828 C5826 1.388 . S
C5828 C5829 1.366 . S
C5829 C5828 1.366 . S
C5829 C5830 1.414 . S
C5829 C5832 1.499 . S
C5830 H5810 0.950 . S
C5830 C5829 1.414 . S
C5830 C5831 1.374 . S
C5831 H5811 0.950 . S
C5831 C5827 1.385 . S
C5831 C5830 1.374 . S
C5832 C5829 1.499 . S
C5832 C5833 1.373 . S
C5832 C5834 1.389 . S
C5833 H5812 0.950 . S
C5833 C5832 1.373 . S
C5833 C5849 1.377 . S
C5834 C5832 1.389 . S
C5834 C5835 1.524 . S
C5834 C5848 1.377 . S
C5835 C5834 1.524 . S
C5835 C5836 1.397 . S
C5835 C5840 1.363 . S
C5836 H5813 0.950 . S
C5836 C5835 1.397 . S
C5836 C5837 1.334 . S
C5837 H5814 0.950 . S
C5837 C5836 1.334 . S
C5837 C5838 1.287 . S
C5838 C5837 1.287 . S
C5838 C5839 1.524 . S
C5838 H5857 0.913 . S
C5839 H5815 0.950 . S
C5839 C5838 1.524 . S
C5839 C5840 1.415 . S
C5840 H5816 0.950 . S
C5840 C5835 1.363 . S
C5840 C5839 1.415 . S
C5841 H5817 0.951 . S
C5841 C5842 1.366 . S
C5841 C5843 1.388 . S
C5842 C5841 1.366 . S
C5842 C5846 1.385 . S
C5843 H5818 0.951 . S
C5843 C5841 1.388 . S
C5843 C5844 1.366 . S
C5844 C5843 1.366 . S
C5844 C5845 1.414 . S
C5844 C5847 1.499 . S
C5845 H5819 0.950 . S
C5845 C5844 1.414 . S
C5845 C5846 1.374 . S
C5846 H5820 0.950 . S
C5846 C5842 1.385 . S
C5846 C5845 1.374 . S
C5847 C5844 1.499 . S
C5847 C5848 1.373 . S
C5847 C5849 1.389 . S
C5848 H5821 0.950 . S
C5848 C5834 1.377 . S
C5848 C5847 1.373 . S
C5849 C5833 1.377 . S
C5849 C5847 1.389 . S
C5849 C5850 1.524 . S
C5850 C5849 1.524 . S
C5850 C5851 1.397 . S
C5850 C5855 1.363 . S
C5851 H5822 0.950 . S
C5851 C5850 1.397 . S
C5851 C5852 1.334 . S
C5852 H5823 0.950 . S
C5852 C5851 1.334 . S
C5852 C5853 1.287 . S
C5853 C5852 1.287 . S
C5853 C5854 1.524 . S
C5853 H5856 0.999 . S
C5854 H5824 0.950 . S
C5854 C5853 1.524 . S
C5854 C5855 1.415 . S
C5855 H5825 0.950 . S
C5855 C5850 1.363 . S
C5855 C5854 1.415 . S
H5856 C5853 0.999 . S
H5857 C5838 0.913 . S
H5858 C5876 0.951 . S
H5859 C5878 0.951 . S
H5860 C5880 0.950 . S
H5861 C5881 0.950 . S
H5862 C5883 0.950 . S
H5863 C5886 0.950 . S
H5864 C5887 0.950 . S
H5865 C5889 0.950 . S
H5866 C5890 0.950 . S
H5867 C5891 0.951 . S
H5868 C5893 0.951 . S
H5869 C5895 0.950 . S
H5870 C5896 0.950 . S
H5871 C5898 0.950 . S
H5872 C5901 0.950 . S
H5873 C5902 0.950 . S
H5874 C5904 0.950 . S
H5875 C5905 0.950 . S
C5876 H5858 0.951 . S
C5876 C5877 1.366 . S
C5876 C5878 1.388 . S
C5877 C5876 1.366 . S
C5877 C5881 1.385 . S
C5878 H5859 0.951 . S
C5878 C5876 1.388 . S
C5878 C5879 1.366 . S
C5879 C5878 1.366 . S
C5879 C5880 1.414 . S
C5879 C5882 1.499 . S
C5880 H5860 0.950 . S
C5880 C5879 1.414 . S
C5880 C5881 1.374 . S
C5881 H5861 0.950 . S
C5881 C5877 1.385 . S
C5881 C5880 1.374 . S
C5882 C5879 1.499 . S
C5882 C5883 1.373 . S
C5882 C5884 1.389 . S
C5883 H5862 0.950 . S
C5883 C5882 1.373 . S
C5883 C5899 1.377 . S
C5884 C5882 1.389 . S
C5884 C5885 1.524 . S
C5884 C5898 1.377 . S
C5885 C5884 1.524 . S
C5885 C5886 1.397 . S
C5885 C5890 1.363 . S
C5886 H5863 0.950 . S
C5886 C5885 1.397 . S
C5886 C5887 1.334 . S
C5887 H5864 0.950 . S
C5887 C5886 1.334 . S
C5887 C5888 1.287 . S
C5888 C5887 1.287 . S
C5888 C5889 1.524 . S
C5888 H5907 0.913 . S
C5889 H5865 0.950 . S
C5889 C5888 1.524 . S
C5889 C5890 1.415 . S
C5890 H5866 0.950 . S
C5890 C5885 1.363 . S
C5890 C5889 1.415 . S
C5891 H5867 0.951 . S
C5891 C5892 1.366 . S
C5891 C5893 1.388 . S
C5892 C5891 1.366 . S
C5892 C5896 1.385 . S
C5893 H5868 0.951 . S
C5893 C5891 1.388 . S
C5893 C5894 1.366 . S
C5894 C5893 1.366 . S
C5894 C5895 1.414 . S
C5894 C5897 1.499 . S
C5895 H5869 0.950 . S
C5895 C5894 1.414 . S
C5895 C5896 1.374 . S
C5896 H5870 0.950 . S
C5896 C5892 1.385 . S
C5896 C5895 1.374 . S
C5897 C5894 1.499 . S
C5897 C5898 1.373 . S
C5897 C5899 1.389 . S
C5898 H5871 0.950 . S
C5898 C5884 1.377 . S
C5898 C5897 1.373 . S
C5899 C5883 1.377 . S
C5899 C5897 1.389 . S
C5899 C5900 1.524 . S
C5900 C5899 1.524 . S
C5900 C5901 1.397 . S
C5900 C5905 1.363 . S
C5901 H5872 0.950 . S
C5901 C5900 1.397 . S
C5901 C5902 1.334 . S
C5902 H5873 0.950 . S
C5902 C5901 1.334 . S
C5902 C5903 1.287 . S
C5903 C5902 1.287 . S
C5903 C5904 1.524 . S
C5903 H5906 0.999 . S
C5904 H5874 0.950 . S
C5904 C5903 1.524 . S
C5904 C5905 1.415 . S
C5905 H5875 0.950 . S
C5905 C5900 1.363 . S
C5905 C5904 1.415 . S
H5906 C5903 0.999 . S
H5907 C5888 0.913 . S
H5908 C5926 0.951 . S
H5909 C5928 0.951 . S
H5910 C5930 0.950 . S
H5911 C5931 0.950 . S
H5912 C5933 0.950 . S
H5913 C5936 0.950 . S
H5914 C5937 0.950 . S
H5915 C5939 0.950 . S
H5916 C5940 0.950 . S
H5917 C5941 0.951 . S
H5918 C5943 0.951 . S
H5919 C5945 0.950 . S
H5920 C5946 0.950 . S
H5921 C5948 0.950 . S
H5922 C5951 0.950 . S
H5923 C5952 0.950 . S
H5924 C5954 0.950 . S
H5925 C5955 0.950 . S
C5926 H5908 0.951 . S
C5926 C5927 1.366 . S
C5926 C5928 1.388 . S
C5927 C5926 1.366 . S
C5927 C5931 1.385 . S
C5928 H5909 0.951 . S
C5928 C5926 1.388 . S
C5928 C5929 1.366 . S
C5929 C5928 1.366 . S
C5929 C5930 1.414 . S
C5929 C5932 1.499 . S
C5930 H5910 0.950 . S
C5930 C5929 1.414 . S
C5930 C5931 1.374 . S
C5931 H5911 0.950 . S
C5931 C5927 1.385 . S
C5931 C5930 1.374 . S
C5932 C5929 1.499 . S
C5932 C5933 1.373 . S
C5932 C5934 1.389 . S
C5933 H5912 0.950 . S
C5933 C5932 1.373 . S
C5933 C5949 1.377 . S
C5934 C5932 1.389 . S
C5934 C5935 1.524 . S
C5934 C5948 1.377 . S
C5935 C5934 1.524 . S
C5935 C5936 1.397 . S
C5935 C5940 1.363 . S
C5936 H5913 0.950 . S
C5936 C5935 1.397 . S
C5936 C5937 1.334 . S
C5937 H5914 0.950 . S
C5937 C5936 1.334 . S
C5937 C5938 1.287 . S
C5938 C5937 1.287 . S
C5938 C5939 1.524 . S
C5938 H5957 0.913 . S
C5939 H5915 0.950 . S
C5939 C5938 1.524 . S
C5939 C5940 1.415 . S
C5940 H5916 0.950 . S
C5940 C5935 1.363 . S
C5940 C5939 1.415 . S
C5941 H5917 0.951 . S
C5941 C5942 1.366 . S
C5941 C5943 1.388 . S
C5942 C5941 1.366 . S
C5942 C5946 1.385 . S
C5943 H5918 0.951 . S
C5943 C5941 1.388 . S
C5943 C5944 1.366 . S
C5944 C5943 1.366 . S
C5944 C5945 1.414 . S
C5944 C5947 1.499 . S
C5945 H5919 0.950 . S
C5945 C5944 1.414 . S
C5945 C5946 1.374 . S
C5946 H5920 0.950 . S
C5946 C5942 1.385 . S
C5946 C5945 1.374 . S
C5947 C5944 1.499 . S
C5947 C5948 1.373 . S
C5947 C5949 1.389 . S
C5948 H5921 0.950 . S
C5948 C5934 1.377 . S
C5948 C5947 1.373 . S
C5949 C5933 1.377 . S
C5949 C5947 1.389 . S
C5949 C5950 1.524 . S
C5950 C5949 1.524 . S
C5950 C5951 1.397 . S
C5950 C5955 1.363 1_455 S
C5951 H5922 0.950 . S
C5951 C5950 1.397 . S
C5951 C5952 1.334 . S
C5952 H5923 0.950 . S
C5952 C5951 1.334 . S
C5952 C5953 1.287 1_455 S
C5953 C5952 1.287 1_655 S
C5953 C5954 1.524 . S
C5953 H5956 0.999 . S
C5954 H5924 0.950 . S
C5954 C5953 1.524 . S
C5954 C5955 1.415 . S
C5955 H5925 0.950 . S
C5955 C5950 1.363 1_655 S
C5955 C5954 1.415 . S
H5956 C5953 0.999 . S
H5957 C5938 0.913 . S
H5958 C5976 0.951 . S
H5959 C5978 0.951 . S
H5960 C5980 0.950 . S
H5961 C5981 0.950 . S
H5962 C5983 0.950 . S
H5963 C5986 0.950 . S
H5964 C5987 0.950 . S
H5965 C5989 0.950 . S
H5966 C5990 0.950 . S
H5967 C5991 0.951 . S
H5968 C5993 0.951 . S
H5969 C5995 0.950 . S
H5970 C5996 0.950 . S
H5971 C5998 0.950 . S
H5972 C6001 0.950 . S
H5973 C6002 0.950 . S
H5974 C6004 0.950 . S
H5975 C6005 0.950 . S
C5976 H5958 0.951 . S
C5976 C5977 1.366 . S
C5976 C5978 1.388 . S
C5977 C5976 1.366 . S
C5977 C5981 1.385 . S
C5978 H5959 0.951 . S
C5978 C5976 1.388 . S
C5978 C5979 1.366 . S
C5979 C5978 1.366 . S
C5979 C5980 1.414 . S
C5979 C5982 1.499 . S
C5980 H5960 0.950 . S
C5980 C5979 1.414 . S
C5980 C5981 1.374 . S
C5981 H5961 0.950 . S
C5981 C5977 1.385 . S
C5981 C5980 1.374 . S
C5982 C5979 1.499 . S
C5982 C5983 1.373 . S
C5982 C5984 1.389 . S
C5983 H5962 0.950 . S
C5983 C5982 1.373 . S
C5983 C5999 1.377 . S
C5984 C5982 1.389 . S
C5984 C5985 1.524 . S
C5984 C5998 1.377 . S
C5985 C5984 1.524 . S
C5985 C5986 1.397 . S
C5985 C5990 1.363 . S
C5986 H5963 0.950 . S
C5986 C5985 1.397 . S
C5986 C5987 1.334 . S
C5987 H5964 0.950 . S
C5987 C5986 1.334 . S
C5987 C5988 1.287 . S
C5988 C5987 1.287 . S
C5988 C5989 1.524 . S
C5988 H6007 0.913 . S
C5989 H5965 0.950 . S
C5989 C5988 1.524 . S
C5989 C5990 1.415 . S
C5990 H5966 0.950 . S
C5990 C5985 1.363 . S
C5990 C5989 1.415 . S
C5991 H5967 0.951 . S
C5991 C5992 1.366 . S
C5991 C5993 1.388 . S
C5992 C5991 1.366 . S
C5992 C5996 1.385 . S
C5993 H5968 0.951 . S
C5993 C5991 1.388 . S
C5993 C5994 1.366 . S
C5994 C5993 1.366 . S
C5994 C5995 1.414 . S
C5994 C5997 1.499 . S
C5995 H5969 0.950 . S
C5995 C5994 1.414 . S
C5995 C5996 1.374 . S
C5996 H5970 0.950 . S
C5996 C5992 1.385 . S
C5996 C5995 1.374 . S
C5997 C5994 1.499 . S
C5997 C5998 1.373 . S
C5997 C5999 1.389 . S
C5998 H5971 0.950 . S
C5998 C5984 1.377 . S
C5998 C5997 1.373 . S
C5999 C5983 1.377 . S
C5999 C5997 1.389 . S
C5999 C6000 1.524 . S
C6000 C5999 1.524 . S
C6000 C6001 1.397 . S
C6000 C6005 1.363 . S
C6001 H5972 0.950 . S
C6001 C6000 1.397 . S
C6001 C6002 1.334 . S
C6002 H5973 0.950 . S
C6002 C6001 1.334 . S
C6002 C6003 1.287 . S
C6003 C6002 1.287 . S
C6003 C6004 1.524 . S
C6003 H6006 0.999 . S
C6004 H5974 0.950 . S
C6004 C6003 1.524 . S
C6004 C6005 1.415 . S
C6005 H5975 0.950 . S
C6005 C6000 1.363 . S
C6005 C6004 1.415 . S
H6006 C6003 0.999 . S
H6007 C5988 0.913 . S
H6008 C6026 0.951 . S
H6009 C6028 0.951 . S
H6010 C6030 0.950 . S
H6011 C6031 0.950 . S
H6012 C6033 0.950 . S
H6013 C6036 0.950 . S
H6014 C6037 0.950 . S
H6015 C6039 0.950 . S
H6016 C6040 0.950 . S
H6017 C6041 0.951 . S
H6018 C6043 0.951 . S
H6019 C6045 0.950 . S
H6020 C6046 0.950 . S
H6021 C6048 0.950 . S
H6022 C6051 0.950 . S
H6023 C6052 0.950 . S
H6024 C6054 0.950 . S
H6025 C6055 0.950 . S
C6026 H6008 0.951 . S
C6026 C6027 1.366 . S
C6026 C6028 1.388 . S
C6027 C6026 1.366 . S
C6027 C6031 1.385 . S
C6028 H6009 0.951 . S
C6028 C6026 1.388 . S
C6028 C6029 1.366 . S
C6029 C6028 1.366 . S
C6029 C6030 1.414 . S
C6029 C6032 1.499 . S
C6030 H6010 0.950 . S
C6030 C6029 1.414 . S
C6030 C6031 1.374 . S
C6031 H6011 0.950 . S
C6031 C6027 1.385 . S
C6031 C6030 1.374 . S
C6032 C6029 1.499 . S
C6032 C6033 1.373 . S
C6032 C6034 1.389 . S
C6033 H6012 0.950 . S
C6033 C6032 1.373 . S
C6033 C6049 1.377 . S
C6034 C6032 1.389 . S
C6034 C6035 1.524 . S
C6034 C6048 1.377 . S
C6035 C6034 1.524 . S
C6035 C6036 1.397 . S
C6035 C6040 1.363 . S
C6036 H6013 0.950 . S
C6036 C6035 1.397 . S
C6036 C6037 1.334 . S
C6037 H6014 0.950 . S
C6037 C6036 1.334 . S
C6037 C6038 1.287 . S
C6038 C6037 1.287 . S
C6038 C6039 1.524 . S
C6038 H6057 0.913 . S
C6039 H6015 0.950 . S
C6039 C6038 1.524 . S
C6039 C6040 1.415 . S
C6040 H6016 0.950 . S
C6040 C6035 1.363 . S
C6040 C6039 1.415 . S
C6041 H6017 0.951 . S
C6041 C6042 1.366 . S
C6041 C6043 1.388 . S
C6042 C6041 1.366 . S
C6042 C6046 1.385 . S
C6043 H6018 0.951 . S
C6043 C6041 1.388 . S
C6043 C6044 1.366 . S
C6044 C6043 1.366 . S
C6044 C6045 1.414 . S
C6044 C6047 1.499 . S
C6045 H6019 0.950 . S
C6045 C6044 1.414 . S
C6045 C6046 1.374 . S
C6046 H6020 0.950 . S
C6046 C6042 1.385 . S
C6046 C6045 1.374 . S
C6047 C6044 1.499 . S
C6047 C6048 1.373 . S
C6047 C6049 1.389 . S
C6048 H6021 0.950 . S
C6048 C6034 1.377 . S
C6048 C6047 1.373 . S
C6049 C6033 1.377 . S
C6049 C6047 1.389 . S
C6049 C6050 1.524 . S
C6050 C6049 1.524 . S
C6050 C6051 1.397 . S
C6050 C6055 1.363 . S
C6051 H6022 0.950 . S
C6051 C6050 1.397 . S
C6051 C6052 1.334 . S
C6052 H6023 0.950 . S
C6052 C6051 1.334 . S
C6052 C6053 1.287 . S
C6053 C6052 1.287 . S
C6053 C6054 1.524 . S
C6053 H6056 0.999 . S
C6054 H6024 0.950 . S
C6054 C6053 1.524 . S
C6054 C6055 1.415 . S
C6055 H6025 0.950 . S
C6055 C6050 1.363 . S
C6055 C6054 1.415 . S
H6056 C6053 0.999 . S
H6057 C6038 0.913 . S
H6058 C6076 0.951 . S
H6059 C6078 0.951 . S
H6060 C6080 0.950 . S
H6061 C6081 0.950 . S
H6062 C6083 0.950 . S
H6063 C6086 0.950 . S
H6064 C6087 0.950 . S
H6065 C6089 0.950 . S
H6066 C6090 0.950 . S
H6067 C6091 0.951 . S
H6068 C6093 0.951 . S
H6069 C6095 0.950 . S
H6070 C6096 0.950 . S
H6071 C6098 0.950 . S
H6072 C6101 0.950 . S
H6073 C6102 0.950 . S
H6074 C6104 0.950 . S
H6075 C6105 0.950 . S
C6076 H6058 0.951 . S
C6076 C6077 1.366 . S
C6076 C6078 1.388 . S
C6077 C6076 1.366 . S
C6077 C6081 1.385 . S
C6078 H6059 0.951 . S
C6078 C6076 1.388 . S
C6078 C6079 1.366 . S
C6079 C6078 1.366 . S
C6079 C6080 1.414 . S
C6079 C6082 1.499 . S
C6080 H6060 0.950 . S
C6080 C6079 1.414 . S
C6080 C6081 1.374 . S
C6081 H6061 0.950 . S
C6081 C6077 1.385 . S
C6081 C6080 1.374 . S
C6082 C6079 1.499 . S
C6082 C6083 1.373 . S
C6082 C6084 1.389 . S
C6083 H6062 0.950 . S
C6083 C6082 1.373 . S
C6083 C6099 1.377 . S
C6084 C6082 1.389 . S
C6084 C6085 1.524 . S
C6084 C6098 1.377 . S
C6085 C6084 1.524 . S
C6085 C6086 1.397 . S
C6085 C6090 1.363 . S
C6086 H6063 0.950 . S
C6086 C6085 1.397 . S
C6086 C6087 1.334 . S
C6087 H6064 0.950 . S
C6087 C6086 1.334 . S
C6087 C6088 1.287 . S
C6088 C6087 1.287 . S
C6088 C6089 1.524 . S
C6088 H6107 0.913 . S
C6089 H6065 0.950 . S
C6089 C6088 1.524 . S
C6089 C6090 1.415 . S
C6090 H6066 0.950 . S
C6090 C6085 1.363 . S
C6090 C6089 1.415 . S
C6091 H6067 0.951 . S
C6091 C6092 1.366 . S
C6091 C6093 1.388 . S
C6092 C6091 1.366 . S
C6092 C6096 1.385 . S
C6093 H6068 0.951 . S
C6093 C6091 1.388 . S
C6093 C6094 1.366 . S
C6094 C6093 1.366 . S
C6094 C6095 1.414 . S
C6094 C6097 1.499 . S
C6095 H6069 0.950 . S
C6095 C6094 1.414 . S
C6095 C6096 1.374 . S
C6096 H6070 0.950 . S
C6096 C6092 1.385 . S
C6096 C6095 1.374 . S
C6097 C6094 1.499 . S
C6097 C6098 1.373 . S
C6097 C6099 1.389 . S
C6098 H6071 0.950 . S
C6098 C6084 1.377 . S
C6098 C6097 1.373 . S
C6099 C6083 1.377 . S
C6099 C6097 1.389 . S
C6099 C6100 1.524 . S
C6100 C6099 1.524 . S
C6100 C6101 1.397 . S
C6100 C6105 1.363 . S
C6101 H6072 0.950 . S
C6101 C6100 1.397 . S
C6101 C6102 1.334 . S
C6102 H6073 0.950 . S
C6102 C6101 1.334 . S
C6102 C6103 1.287 . S
C6103 C6102 1.287 . S
C6103 C6104 1.524 . S
C6103 H6106 0.999 . S
C6104 H6074 0.950 . S
C6104 C6103 1.524 . S
C6104 C6105 1.415 . S
C6105 H6075 0.950 . S
C6105 C6100 1.363 . S
C6105 C6104 1.415 . S
H6106 C6103 0.999 . S
H6107 C6088 0.913 . S
H6108 C6126 0.951 . S
H6109 C6128 0.951 . S
H6110 C6130 0.950 . S
H6111 C6131 0.950 . S
H6112 C6133 0.950 . S
H6113 C6136 0.950 . S
H6114 C6137 0.950 . S
H6115 C6139 0.950 . S
H6116 C6140 0.950 . S
H6117 C6141 0.951 . S
H6118 C6143 0.951 . S
H6119 C6145 0.950 . S
H6120 C6146 0.950 . S
H6121 C6148 0.950 . S
H6122 C6151 0.950 . S
H6123 C6152 0.950 . S
H6124 C6154 0.950 . S
H6125 C6155 0.950 . S
C6126 H6108 0.951 . S
C6126 C6127 1.366 . S
C6126 C6128 1.388 . S
C6127 C6126 1.366 . S
C6127 C6131 1.385 . S
C6128 H6109 0.951 . S
C6128 C6126 1.388 . S
C6128 C6129 1.366 . S
C6129 C6128 1.366 . S
C6129 C6130 1.414 . S
C6129 C6132 1.499 . S
C6130 H6110 0.950 . S
C6130 C6129 1.414 . S
C6130 C6131 1.374 . S
C6131 H6111 0.950 . S
C6131 C6127 1.385 . S
C6131 C6130 1.374 . S
C6132 C6129 1.499 . S
C6132 C6133 1.373 . S
C6132 C6134 1.389 . S
C6133 H6112 0.950 . S
C6133 C6132 1.373 . S
C6133 C6149 1.377 . S
C6134 C6132 1.389 . S
C6134 C6135 1.524 . S
C6134 C6148 1.377 . S
C6135 C6134 1.524 . S
C6135 C6136 1.397 . S
C6135 C6140 1.363 . S
C6136 H6113 0.950 . S
C6136 C6135 1.397 . S
C6136 C6137 1.334 . S
C6137 H6114 0.950 . S
C6137 C6136 1.334 . S
C6137 C6138 1.287 . S
C6138 C6137 1.287 . S
C6138 C6139 1.524 . S
C6138 H6157 0.913 . S
C6139 H6115 0.950 . S
C6139 C6138 1.524 . S
C6139 C6140 1.415 . S
C6140 H6116 0.950 . S
C6140 C6135 1.363 . S
C6140 C6139 1.415 . S
C6141 H6117 0.951 . S
C6141 C6142 1.366 . S
C6141 C6143 1.388 . S
C6142 C6141 1.366 . S
C6142 C6146 1.385 . S
C6143 H6118 0.951 . S
C6143 C6141 1.388 . S
C6143 C6144 1.366 . S
C6144 C6143 1.366 . S
C6144 C6145 1.414 . S
C6144 C6147 1.499 . S
C6145 H6119 0.950 . S
C6145 C6144 1.414 . S
C6145 C6146 1.374 . S
C6146 H6120 0.950 . S
C6146 C6142 1.385 . S
C6146 C6145 1.374 . S
C6147 C6144 1.499 . S
C6147 C6148 1.373 . S
C6147 C6149 1.389 . S
C6148 H6121 0.950 . S
C6148 C6134 1.377 . S
C6148 C6147 1.373 . S
C6149 C6133 1.377 . S
C6149 C6147 1.389 . S
C6149 C6150 1.524 . S
C6150 C6149 1.524 . S
C6150 C6151 1.397 . S
C6150 C6155 1.363 1_455 S
C6151 H6122 0.950 . S
C6151 C6150 1.397 . S
C6151 C6152 1.334 . S
C6152 H6123 0.950 . S
C6152 C6151 1.334 . S
C6152 C6153 1.287 1_455 S
C6153 C6152 1.287 1_655 S
C6153 C6154 1.524 . S
C6153 H6156 0.999 . S
C6154 H6124 0.950 . S
C6154 C6153 1.524 . S
C6154 C6155 1.415 . S
C6155 H6125 0.950 . S
C6155 C6150 1.363 1_655 S
C6155 C6154 1.415 . S
H6156 C6153 0.999 . S
H6157 C6138 0.913 . S
H6158 C6176 0.951 . S
H6159 C6178 0.951 . S
H6160 C6180 0.950 . S
H6161 C6181 0.950 . S
H6162 C6183 0.950 . S
H6163 C6186 0.950 . S
H6164 C6187 0.950 . S
H6165 C6189 0.950 . S
H6166 C6190 0.950 . S
H6167 C6191 0.951 . S
H6168 C6193 0.951 . S
H6169 C6195 0.950 . S
H6170 C6196 0.950 . S
H6171 C6198 0.950 . S
H6172 C6201 0.950 . S
H6173 C6202 0.950 . S
H6174 C6204 0.950 . S
H6175 C6205 0.950 . S
C6176 H6158 0.951 . S
C6176 C6177 1.366 . S
C6176 C6178 1.388 . S
C6177 C6176 1.366 . S
C6177 C6181 1.385 . S
C6178 H6159 0.951 . S
C6178 C6176 1.388 . S
C6178 C6179 1.366 . S
C6179 C6178 1.366 . S
C6179 C6180 1.414 . S
C6179 C6182 1.499 . S
C6180 H6160 0.950 . S
C6180 C6179 1.414 . S
C6180 C6181 1.374 . S
C6181 H6161 0.950 . S
C6181 C6177 1.385 . S
C6181 C6180 1.374 . S
C6182 C6179 1.499 . S
C6182 C6183 1.373 . S
C6182 C6184 1.389 . S
C6183 H6162 0.950 . S
C6183 C6182 1.373 . S
C6183 C6199 1.377 . S
C6184 C6182 1.389 . S
C6184 C6185 1.524 . S
C6184 C6198 1.377 . S
C6185 C6184 1.524 . S
C6185 C6186 1.397 . S
C6185 C6190 1.363 . S
C6186 H6163 0.950 . S
C6186 C6185 1.397 . S
C6186 C6187 1.334 . S
C6187 H6164 0.950 . S
C6187 C6186 1.334 . S
C6187 C6188 1.287 . S
C6188 C6187 1.287 . S
C6188 C6189 1.524 . S
C6188 H6207 0.913 . S
C6189 H6165 0.950 . S
C6189 C6188 1.524 . S
C6189 C6190 1.415 . S
C6190 H6166 0.950 . S
C6190 C6185 1.363 . S
C6190 C6189 1.415 . S
C6191 H6167 0.951 . S
C6191 C6192 1.366 . S
C6191 C6193 1.388 . S
C6192 C6191 1.366 . S
C6192 C6196 1.385 . S
C6193 H6168 0.951 . S
C6193 C6191 1.388 . S
C6193 C6194 1.366 . S
C6194 C6193 1.366 . S
C6194 C6195 1.414 . S
C6194 C6197 1.499 . S
C6195 H6169 0.950 . S
C6195 C6194 1.414 . S
C6195 C6196 1.374 . S
C6196 H6170 0.950 . S
C6196 C6192 1.385 . S
C6196 C6195 1.374 . S
C6197 C6194 1.499 . S
C6197 C6198 1.373 . S
C6197 C6199 1.389 . S
C6198 H6171 0.950 . S
C6198 C6184 1.377 . S
C6198 C6197 1.373 . S
C6199 C6183 1.377 . S
C6199 C6197 1.389 . S
C6199 C6200 1.524 . S
C6200 C6199 1.524 . S
C6200 C6201 1.397 . S
C6200 C6205 1.363 . S
C6201 H6172 0.950 . S
C6201 C6200 1.397 . S
C6201 C6202 1.334 . S
C6202 H6173 0.950 . S
C6202 C6201 1.334 . S
C6202 C6203 1.287 . S
C6203 C6202 1.287 . S
C6203 C6204 1.524 . S
C6203 H6206 0.999 . S
C6204 H6174 0.950 . S
C6204 C6203 1.524 . S
C6204 C6205 1.415 . S
C6205 H6175 0.950 . S
C6205 C6200 1.363 . S
C6205 C6204 1.415 . S
H6206 C6203 0.999 . S
H6207 C6188 0.913 . S
H6208 C6226 0.951 . S
H6209 C6228 0.951 . S
H6210 C6230 0.950 . S
H6211 C6231 0.950 . S
H6212 C6233 0.950 . S
H6213 C6236 0.950 . S
H6214 C6237 0.950 . S
H6215 C6239 0.950 . S
H6216 C6240 0.950 . S
H6217 C6241 0.951 . S
H6218 C6243 0.951 . S
H6219 C6245 0.950 . S
H6220 C6246 0.950 . S
H6221 C6248 0.950 . S
H6222 C6251 0.950 . S
H6223 C6252 0.950 . S
H6224 C6254 0.950 . S
H6225 C6255 0.950 . S
C6226 H6208 0.951 . S
C6226 C6227 1.366 . S
C6226 C6228 1.388 . S
C6227 C6226 1.366 . S
C6227 C6231 1.385 . S
C6228 H6209 0.951 . S
C6228 C6226 1.388 . S
C6228 C6229 1.366 . S
C6229 C6228 1.366 . S
C6229 C6230 1.414 . S
C6229 C6232 1.499 . S
C6230 H6210 0.950 . S
C6230 C6229 1.414 . S
C6230 C6231 1.374 . S
C6231 H6211 0.950 . S
C6231 C6227 1.385 . S
C6231 C6230 1.374 . S
C6232 C6229 1.499 . S
C6232 C6233 1.373 . S
C6232 C6234 1.389 . S
C6233 H6212 0.950 . S
C6233 C6232 1.373 . S
C6233 C6249 1.377 . S
C6234 C6232 1.389 . S
C6234 C6235 1.524 . S
C6234 C6248 1.377 . S
C6235 C6234 1.524 . S
C6235 C6236 1.397 . S
C6235 C6240 1.363 . S
C6236 H6213 0.950 . S
C6236 C6235 1.397 . S
C6236 C6237 1.334 . S
C6237 H6214 0.950 . S
C6237 C6236 1.334 . S
C6237 C6238 1.287 . S
C6238 C6237 1.287 . S
C6238 C6239 1.524 . S
C6238 H6257 0.913 . S
C6239 H6215 0.950 . S
C6239 C6238 1.524 . S
C6239 C6240 1.415 . S
C6240 H6216 0.950 . S
C6240 C6235 1.363 . S
C6240 C6239 1.415 . S
C6241 H6217 0.951 . S
C6241 C6242 1.366 . S
C6241 C6243 1.388 . S
C6242 C6241 1.366 . S
C6242 C6246 1.385 . S
C6243 H6218 0.951 . S
C6243 C6241 1.388 . S
C6243 C6244 1.366 . S
C6244 C6243 1.366 . S
C6244 C6245 1.414 . S
C6244 C6247 1.499 . S
C6245 H6219 0.950 . S
C6245 C6244 1.414 . S
C6245 C6246 1.374 . S
C6246 H6220 0.950 . S
C6246 C6242 1.385 . S
C6246 C6245 1.374 . S
C6247 C6244 1.499 . S
C6247 C6248 1.373 . S
C6247 C6249 1.389 . S
C6248 H6221 0.950 . S
C6248 C6234 1.377 . S
C6248 C6247 1.373 . S
C6249 C6233 1.377 . S
C6249 C6247 1.389 . S
C6249 C6250 1.524 . S
C6250 C6249 1.524 . S
C6250 C6251 1.397 . S
C6250 C6255 1.363 . S
C6251 H6222 0.950 . S
C6251 C6250 1.397 . S
C6251 C6252 1.334 . S
C6252 H6223 0.950 . S
C6252 C6251 1.334 . S
C6252 C6253 1.287 . S
C6253 C6252 1.287 . S
C6253 C6254 1.524 . S
C6253 H6256 0.999 . S
C6254 H6224 0.950 . S
C6254 C6253 1.524 . S
C6254 C6255 1.415 . S
C6255 H6225 0.950 . S
C6255 C6250 1.363 . S
C6255 C6254 1.415 . S
H6256 C6253 0.999 . S
H6257 C6238 0.913 . S
H6258 C6276 0.951 . S
H6259 C6278 0.951 . S
H6260 C6280 0.950 . S
H6261 C6281 0.950 . S
H6262 C6283 0.950 . S
H6263 C6286 0.950 . S
H6264 C6287 0.950 . S
H6265 C6289 0.950 . S
H6266 C6290 0.950 . S
H6267 C6291 0.951 . S
H6268 C6293 0.951 . S
H6269 C6295 0.950 . S
H6270 C6296 0.950 . S
H6271 C6298 0.950 . S
H6272 C6301 0.950 . S
H6273 C6302 0.950 . S
H6274 C6304 0.950 . S
H6275 C6305 0.950 . S
C6276 H6258 0.951 . S
C6276 C6277 1.366 . S
C6276 C6278 1.388 . S
C6277 C6276 1.366 . S
C6277 C6281 1.385 . S
C6278 H6259 0.951 . S
C6278 C6276 1.388 . S
C6278 C6279 1.366 . S
C6279 C6278 1.366 . S
C6279 C6280 1.414 . S
C6279 C6282 1.499 . S
C6280 H6260 0.950 . S
C6280 C6279 1.414 . S
C6280 C6281 1.374 . S
C6281 H6261 0.950 . S
C6281 C6277 1.385 . S
C6281 C6280 1.374 . S
C6282 C6279 1.499 . S
C6282 C6283 1.373 . S
C6282 C6284 1.389 . S
C6283 H6262 0.950 . S
C6283 C6282 1.373 . S
C6283 C6299 1.377 . S
C6284 C6282 1.389 . S
C6284 C6285 1.524 . S
C6284 C6298 1.377 . S
C6285 C6284 1.524 . S
C6285 C6286 1.397 . S
C6285 C6290 1.363 . S
C6286 H6263 0.950 . S
C6286 C6285 1.397 . S
C6286 C6287 1.334 . S
C6287 H6264 0.950 . S
C6287 C6286 1.334 . S
C6287 C6288 1.287 . S
C6288 C6287 1.287 . S
C6288 C6289 1.524 . S
C6288 H6307 0.913 . S
C6289 H6265 0.950 . S
C6289 C6288 1.524 . S
C6289 C6290 1.415 . S
C6290 H6266 0.950 . S
C6290 C6285 1.363 . S
C6290 C6289 1.415 . S
C6291 H6267 0.951 . S
C6291 C6292 1.366 . S
C6291 C6293 1.388 . S
C6292 C6291 1.366 . S
C6292 C6296 1.385 . S
C6293 H6268 0.951 . S
C6293 C6291 1.388 . S
C6293 C6294 1.366 . S
C6294 C6293 1.366 . S
C6294 C6295 1.414 . S
C6294 C6297 1.499 . S
C6295 H6269 0.950 . S
C6295 C6294 1.414 . S
C6295 C6296 1.374 . S
C6296 H6270 0.950 . S
C6296 C6292 1.385 . S
C6296 C6295 1.374 . S
C6297 C6294 1.499 . S
C6297 C6298 1.373 . S
C6297 C6299 1.389 . S
C6298 H6271 0.950 . S
C6298 C6284 1.377 . S
C6298 C6297 1.373 . S
C6299 C6283 1.377 . S
C6299 C6297 1.389 . S
C6299 C6300 1.524 . S
C6300 C6299 1.524 . S
C6300 C6301 1.397 . S
C6300 C6305 1.363 . S
C6301 H6272 0.950 . S
C6301 C6300 1.397 . S
C6301 C6302 1.334 . S
C6302 H6273 0.950 . S
C6302 C6301 1.334 . S
C6302 C6303 1.287 . S
C6303 C6302 1.287 . S
C6303 C6304 1.524 . S
C6303 H6306 0.999 . S
C6304 H6274 0.950 . S
C6304 C6303 1.524 . S
C6304 C6305 1.415 . S
C6305 H6275 0.950 . S
C6305 C6300 1.363 . S
C6305 C6304 1.415 . S
H6306 C6303 0.999 . S
H6307 C6288 0.913 . S
H6308 C6326 0.951 . S
H6309 C6328 0.951 . S
H6310 C6330 0.950 . S
H6311 C6331 0.950 . S
H6312 C6333 0.950 . S
H6313 C6336 0.950 . S
H6314 C6337 0.950 . S
H6315 C6339 0.950 . S
H6316 C6340 0.950 . S
H6317 C6341 0.951 . S
H6318 C6343 0.977 . S
H6319 C6345 0.950 . S
H6320 C6346 0.950 . S
H6321 C6348 0.950 . S
H6322 C6351 0.950 . S
H6323 C6352 0.950 . S
H6324 C6354 0.933 1_455 S
H6325 C6355 0.950 . S
C6326 H6308 0.951 . S
C6326 C6327 1.366 . S
C6326 C6328 1.388 . S
C6327 C6326 1.366 . S
C6327 C6331 1.385 . S
C6328 H6309 0.951 . S
C6328 C6326 1.388 . S
C6328 C6329 1.366 . S
C6329 C6328 1.366 . S
C6329 C6330 1.414 . S
C6329 C6332 1.499 . S
C6330 H6310 0.950 . S
C6330 C6329 1.414 . S
C6330 C6331 1.374 . S
C6331 H6311 0.950 . S
C6331 C6327 1.385 . S
C6331 C6330 1.374 . S
C6332 C6329 1.499 . S
C6332 C6333 1.373 . S
C6332 C6334 1.389 . S
C6333 H6312 0.950 . S
C6333 C6332 1.373 . S
C6333 C6349 1.377 . S
C6334 C6332 1.389 . S
C6334 C6335 1.524 . S
C6334 C6348 1.377 . S
C6335 C6334 1.524 . S
C6335 C6336 1.397 . S
C6335 C6340 1.363 . S
C6336 H6313 0.950 . S
C6336 C6335 1.397 . S
C6336 C6337 1.334 . S
C6337 H6314 0.950 . S
C6337 C6336 1.334 . S
C6337 C6338 1.287 . S
C6338 C6337 1.287 . S
C6338 C6339 1.524 . S
C6338 H6357 0.913 . S
C6339 H6315 0.950 . S
C6339 C6338 1.524 . S
C6339 C6340 1.415 . S
C6340 H6316 0.950 . S
C6340 C6335 1.363 . S
C6340 C6339 1.415 . S
C6341 H6317 0.951 . S
C6341 C6342 1.381 . S
C6341 C6343 1.388 1_455 S
C6342 C6341 1.381 . S
C6342 C6346 1.351 1_455 S
C6343 H6318 0.977 . S
C6343 C6341 1.388 1_655 S
C6343 C6344 1.366 . S
C6344 C6343 1.366 . S
C6344 C6345 1.414 . S
C6344 C6347 1.499 . S
C6345 H6319 0.950 . S
C6345 C6344 1.414 . S
C6345 C6346 1.374 . S
C6346 H6320 0.950 . S
C6346 C6342 1.351 1_655 S
C6346 C6345 1.374 . S
C6347 C6344 1.499 . S
C6347 C6348 1.373 . S
C6347 C6349 1.389 . S
C6348 H6321 0.950 . S
C6348 C6334 1.377 . S
C6348 C6347 1.373 . S
C6349 C6333 1.377 . S
C6349 C6347 1.389 . S
C6349 C6350 1.524 . S
C6350 C6349 1.524 . S
C6350 C6351 1.397 . S
C6350 C6355 1.363 . S
C6351 H6322 0.950 . S
C6351 C6350 1.397 . S
C6351 C6352 1.334 . S
C6352 H6323 0.950 . S
C6352 C6351 1.334 . S
C6352 C6353 1.287 . S
C6353 C6352 1.287 . S
C6353 C6354 1.524 . S
C6353 H6356 0.999 . S
C6354 H6324 0.933 1_655 S
C6354 C6353 1.524 . S
C6354 C6355 1.415 . S
C6355 H6325 0.950 . S
C6355 C6350 1.363 . S
C6355 C6354 1.415 . S
H6356 C6353 0.999 . S
H6357 C6338 0.913 . S
H6358 C6376 0.951 . S
H6359 C6378 0.951 . S
H6360 C6380 0.950 . S
H6361 C6381 0.950 . S
H6362 C6383 0.950 . S
H6363 C6386 0.950 . S
H6364 C6387 0.950 . S
H6365 C6389 0.950 . S
H6366 C6390 0.950 . S
H6367 C6391 0.951 . S
H6368 C6393 0.951 . S
H6369 C6395 0.950 . S
H6370 C6396 0.950 . S
H6371 C6398 0.950 . S
H6372 C6401 0.950 . S
H6373 C6402 0.950 . S
H6374 C6404 0.950 . S
H6375 C6405 0.950 . S
C6376 H6358 0.951 . S
C6376 C6377 1.366 . S
C6376 C6378 1.388 . S
C6377 C6376 1.366 . S
C6377 C6381 1.385 . S
C6378 H6359 0.951 . S
C6378 C6376 1.388 . S
C6378 C6379 1.366 . S
C6379 C6378 1.366 . S
C6379 C6380 1.414 . S
C6379 C6382 1.499 . S
C6380 H6360 0.950 . S
C6380 C6379 1.414 . S
C6380 C6381 1.374 . S
C6381 H6361 0.950 . S
C6381 C6377 1.385 . S
C6381 C6380 1.374 . S
C6382 C6379 1.499 . S
C6382 C6383 1.373 . S
C6382 C6384 1.389 . S
C6383 H6362 0.950 . S
C6383 C6382 1.373 . S
C6383 C6399 1.377 . S
C6384 C6382 1.389 . S
C6384 C6385 1.524 . S
C6384 C6398 1.377 . S
C6385 C6384 1.524 . S
C6385 C6386 1.397 . S
C6385 C6390 1.363 . S
C6386 H6363 0.950 . S
C6386 C6385 1.397 . S
C6386 C6387 1.334 . S
C6387 H6364 0.950 . S
C6387 C6386 1.334 . S
C6387 C6388 1.287 . S
C6388 C6387 1.287 . S
C6388 C6389 1.524 . S
C6388 H6407 0.913 . S
C6389 H6365 0.950 . S
C6389 C6388 1.524 . S
C6389 C6390 1.415 . S
C6390 H6366 0.950 . S
C6390 C6385 1.363 . S
C6390 C6389 1.415 . S
C6391 H6367 0.951 . S
C6391 C6392 1.366 . S
C6391 C6393 1.388 . S
C6392 C6391 1.366 . S
C6392 C6396 1.385 . S
C6393 H6368 0.951 . S
C6393 C6391 1.388 . S
C6393 C6394 1.366 . S
C6394 C6393 1.366 . S
C6394 C6395 1.414 . S
C6394 C6397 1.499 . S
C6395 H6369 0.950 . S
C6395 C6394 1.414 . S
C6395 C6396 1.374 . S
C6396 H6370 0.950 . S
C6396 C6392 1.385 . S
C6396 C6395 1.374 . S
C6397 C6394 1.499 . S
C6397 C6398 1.373 . S
C6397 C6399 1.389 . S
C6398 H6371 0.950 . S
C6398 C6384 1.377 . S
C6398 C6397 1.373 . S
C6399 C6383 1.377 . S
C6399 C6397 1.389 . S
C6399 C6400 1.524 . S
C6400 C6399 1.524 . S
C6400 C6401 1.397 . S
C6400 C6405 1.363 . S
C6401 H6372 0.950 . S
C6401 C6400 1.397 . S
C6401 C6402 1.334 . S
C6402 H6373 0.950 . S
C6402 C6401 1.334 . S
C6402 C6403 1.287 . S
C6403 C6402 1.287 . S
C6403 C6404 1.524 . S
C6403 H6406 0.999 . S
C6404 H6374 0.950 . S
C6404 C6403 1.524 . S
C6404 C6405 1.415 . S
C6405 H6375 0.950 . S
C6405 C6400 1.363 . S
C6405 C6404 1.415 . S
H6406 C6403 0.999 . S
H6407 C6388 0.913 . S
H6408 C6426 0.951 . S
H6409 C6428 0.951 . S
H6410 C6430 0.950 . S
H6411 C6431 0.950 . S
H6412 C6433 0.950 . S
H6413 C6436 0.950 . S
H6414 C6437 0.950 . S
H6415 C6439 0.950 . S
H6416 C6440 0.950 . S
H6417 C6441 0.951 . S
H6418 C6443 0.951 . S
H6419 C6445 0.950 . S
H6420 C6446 0.950 . S
H6421 C6448 0.950 . S
H6422 C6451 0.950 . S
H6423 C6452 0.950 . S
H6424 C6454 0.950 . S
H6425 C6455 0.950 . S
C6426 H6408 0.951 . S
C6426 C6427 1.366 . S
C6426 C6428 1.388 . S
C6427 C6426 1.366 . S
C6427 C6431 1.385 . S
C6428 H6409 0.951 . S
C6428 C6426 1.388 . S
C6428 C6429 1.366 . S
C6429 C6428 1.366 . S
C6429 C6430 1.414 . S
C6429 C6432 1.499 . S
C6430 H6410 0.950 . S
C6430 C6429 1.414 . S
C6430 C6431 1.374 . S
C6431 H6411 0.950 . S
C6431 C6427 1.385 . S
C6431 C6430 1.374 . S
C6432 C6429 1.499 . S
C6432 C6433 1.373 . S
C6432 C6434 1.389 . S
C6433 H6412 0.950 . S
C6433 C6432 1.373 . S
C6433 C6449 1.377 . S
C6434 C6432 1.389 . S
C6434 C6435 1.524 . S
C6434 C6448 1.377 . S
C6435 C6434 1.524 . S
C6435 C6436 1.397 . S
C6435 C6440 1.363 . S
C6436 H6413 0.950 . S
C6436 C6435 1.397 . S
C6436 C6437 1.334 . S
C6437 H6414 0.950 . S
C6437 C6436 1.334 . S
C6437 C6438 1.287 . S
C6438 C6437 1.287 . S
C6438 C6439 1.524 . S
C6438 H6457 0.913 . S
C6439 H6415 0.950 . S
C6439 C6438 1.524 . S
C6439 C6440 1.415 . S
C6440 H6416 0.950 . S
C6440 C6435 1.363 . S
C6440 C6439 1.415 . S
C6441 H6417 0.951 . S
C6441 C6442 1.366 . S
C6441 C6443 1.388 . S
C6442 C6441 1.366 . S
C6442 C6446 1.385 . S
C6443 H6418 0.951 . S
C6443 C6441 1.388 . S
C6443 C6444 1.366 . S
C6444 C6443 1.366 . S
C6444 C6445 1.414 . S
C6444 C6447 1.499 . S
C6445 H6419 0.950 . S
C6445 C6444 1.414 . S
C6445 C6446 1.374 . S
C6446 H6420 0.950 . S
C6446 C6442 1.385 . S
C6446 C6445 1.374 . S
C6447 C6444 1.499 . S
C6447 C6448 1.373 . S
C6447 C6449 1.389 . S
C6448 H6421 0.950 . S
C6448 C6434 1.377 . S
C6448 C6447 1.373 . S
C6449 C6433 1.377 . S
C6449 C6447 1.389 . S
C6449 C6450 1.524 . S
C6450 C6449 1.524 . S
C6450 C6451 1.397 . S
C6450 C6455 1.363 . S
C6451 H6422 0.950 . S
C6451 C6450 1.397 . S
C6451 C6452 1.334 . S
C6452 H6423 0.950 . S
C6452 C6451 1.334 . S
C6452 C6453 1.287 . S
C6453 C6452 1.287 . S
C6453 C6454 1.524 . S
C6453 H6456 0.999 . S
C6454 H6424 0.950 . S
C6454 C6453 1.524 . S
C6454 C6455 1.415 . S
C6455 H6425 0.950 . S
C6455 C6450 1.363 . S
C6455 C6454 1.415 . S
H6456 C6453 0.999 . S
H6457 C6438 0.913 . S
H6458 C6476 0.951 . S
H6459 C6478 0.951 . S
H6460 C6480 0.950 . S
H6461 C6481 0.950 . S
H6462 C6483 0.950 . S
H6463 C6486 0.950 . S
H6464 C6487 0.950 . S
H6465 C6489 0.950 . S
H6466 C6490 0.950 . S
H6467 C6491 0.951 . S
H6468 C6493 0.951 . S
H6469 C6495 0.950 . S
H6470 C6496 0.950 . S
H6471 C6498 0.950 . S
H6472 C6501 0.950 . S
H6473 C6502 0.950 . S
H6474 C6504 0.950 . S
H6475 C6505 0.950 . S
C6476 H6458 0.951 . S
C6476 C6477 1.366 . S
C6476 C6478 1.388 . S
C6477 C6476 1.366 . S
C6477 C6481 1.385 . S
C6478 H6459 0.951 . S
C6478 C6476 1.388 . S
C6478 C6479 1.366 . S
C6479 C6478 1.366 . S
C6479 C6480 1.414 . S
C6479 C6482 1.499 . S
C6480 H6460 0.950 . S
C6480 C6479 1.414 . S
C6480 C6481 1.374 . S
C6481 H6461 0.950 . S
C6481 C6477 1.385 . S
C6481 C6480 1.374 . S
C6482 C6479 1.499 . S
C6482 C6483 1.373 . S
C6482 C6484 1.389 . S
C6483 H6462 0.950 . S
C6483 C6482 1.373 . S
C6483 C6499 1.377 . S
C6484 C6482 1.389 . S
C6484 C6485 1.524 . S
C6484 C6498 1.377 . S
C6485 C6484 1.524 . S
C6485 C6486 1.397 . S
C6485 C6490 1.363 . S
C6486 H6463 0.950 . S
C6486 C6485 1.397 . S
C6486 C6487 1.334 . S
C6487 H6464 0.950 . S
C6487 C6486 1.334 . S
C6487 C6488 1.287 . S
C6488 C6487 1.287 . S
C6488 C6489 1.524 . S
C6488 H6507 0.913 . S
C6489 H6465 0.950 . S
C6489 C6488 1.524 . S
C6489 C6490 1.415 . S
C6490 H6466 0.950 . S
C6490 C6485 1.363 . S
C6490 C6489 1.415 . S
C6491 H6467 0.951 . S
C6491 C6492 1.366 . S
C6491 C6493 1.388 . S
C6492 C6491 1.366 . S
C6492 C6496 1.385 . S
C6493 H6468 0.951 . S
C6493 C6491 1.388 . S
C6493 C6494 1.366 . S
C6494 C6493 1.366 . S
C6494 C6495 1.414 . S
C6494 C6497 1.499 . S
C6495 H6469 0.950 . S
C6495 C6494 1.414 . S
C6495 C6496 1.374 . S
C6496 H6470 0.950 . S
C6496 C6492 1.385 . S
C6496 C6495 1.374 . S
C6497 C6494 1.499 . S
C6497 C6498 1.373 . S
C6497 C6499 1.389 . S
C6498 H6471 0.950 . S
C6498 C6484 1.377 . S
C6498 C6497 1.373 . S
C6499 C6483 1.377 . S
C6499 C6497 1.389 . S
C6499 C6500 1.524 . S
C6500 C6499 1.524 . S
C6500 C6501 1.397 . S
C6500 C6505 1.363 . S
C6501 H6472 0.950 . S
C6501 C6500 1.397 . S
C6501 C6502 1.334 . S
C6502 H6473 0.950 . S
C6502 C6501 1.334 . S
C6502 C6503 1.287 . S
C6503 C6502 1.287 . S
C6503 C6504 1.524 . S
C6503 H6506 0.999 . S
C6504 H6474 0.950 . S
C6504 C6503 1.524 . S
C6504 C6505 1.415 . S
C6505 H6475 0.950 . S
C6505 C6500 1.363 . S
C6505 C6504 1.415 . S
H6506 C6503 0.999 . S
H6507 C6488 0.913 . S
H6508 C6526 0.951 . S
H6509 C6528 0.951 . S
H6510 C6530 0.950 . S
H6511 C6531 0.950 . S
H6512 C6533 0.950 . S
H6513 C6536 0.950 . S
H6514 C6537 0.950 . S
H6515 C6539 0.950 . S
H6516 C6540 0.950 . S
H6517 C6541 0.951 . S
H6518 C6543 0.951 . S
H6519 C6545 0.950 . S
H6520 C6546 0.950 . S
H6521 C6548 0.950 . S
H6522 C6551 0.950 . S
H6523 C6552 0.950 . S
H6524 C6554 0.950 . S
H6525 C6555 0.950 . S
C6526 H6508 0.951 . S
C6526 C6527 1.366 . S
C6526 C6528 1.388 . S
C6527 C6526 1.366 . S
C6527 C6531 1.385 . S
C6528 H6509 0.951 . S
C6528 C6526 1.388 . S
C6528 C6529 1.366 . S
C6529 C6528 1.366 . S
C6529 C6530 1.414 . S
C6529 C6532 1.499 . S
C6530 H6510 0.950 . S
C6530 C6529 1.414 . S
C6530 C6531 1.374 . S
C6531 H6511 0.950 . S
C6531 C6527 1.385 . S
C6531 C6530 1.374 . S
C6532 C6529 1.499 . S
C6532 C6533 1.373 . S
C6532 C6534 1.389 . S
C6533 H6512 0.950 . S
C6533 C6532 1.373 . S
C6533 C6549 1.377 . S
C6534 C6532 1.389 . S
C6534 C6535 1.524 . S
C6534 C6548 1.377 . S
C6535 C6534 1.524 . S
C6535 C6536 1.397 . S
C6535 C6540 1.363 . S
C6536 H6513 0.950 . S
C6536 C6535 1.397 . S
C6536 C6537 1.334 . S
C6537 H6514 0.950 . S
C6537 C6536 1.334 . S
C6537 C6538 1.287 . S
C6538 C6537 1.287 . S
C6538 C6539 1.524 . S
C6538 H6557 0.913 . S
C6539 H6515 0.950 . S
C6539 C6538 1.524 . S
C6539 C6540 1.415 . S
C6540 H6516 0.950 . S
C6540 C6535 1.363 . S
C6540 C6539 1.415 . S
C6541 H6517 0.951 . S
C6541 C6542 1.366 . S
C6541 C6543 1.388 . S
C6542 C6541 1.366 . S
C6542 C6546 1.385 . S
C6543 H6518 0.951 . S
C6543 C6541 1.388 . S
C6543 C6544 1.366 . S
C6544 C6543 1.366 . S
C6544 C6545 1.414 . S
C6544 C6547 1.499 . S
C6545 H6519 0.950 . S
C6545 C6544 1.414 . S
C6545 C6546 1.374 . S
C6546 H6520 0.950 . S
C6546 C6542 1.385 . S
C6546 C6545 1.374 . S
C6547 C6544 1.499 . S
C6547 C6548 1.373 . S
C6547 C6549 1.389 . S
C6548 H6521 0.950 . S
C6548 C6534 1.377 . S
C6548 C6547 1.373 . S
C6549 C6533 1.377 . S
C6549 C6547 1.389 . S
C6549 C6550 1.524 . S
C6550 C6549 1.524 . S
C6550 C6551 1.397 . S
C6550 C6555 1.363 . S
C6551 H6522 0.950 . S
C6551 C6550 1.397 . S
C6551 C6552 1.334 . S
C6552 H6523 0.950 . S
C6552 C6551 1.334 . S
C6552 C6553 1.287 . S
C6553 C6552 1.287 . S
C6553 C6554 1.524 . S
C6553 H6556 0.999 . S
C6554 H6524 0.950 . S
C6554 C6553 1.524 . S
C6554 C6555 1.415 . S
C6555 H6525 0.950 . S
C6555 C6550 1.363 . S
C6555 C6554 1.415 . S
H6556 C6553 0.999 . S
H6557 C6538 0.913 . S
H6558 C6576 0.951 . S
H6559 C6578 0.951 . S
H6560 C6580 0.950 . S
H6561 C6581 0.950 . S
H6562 C6583 0.950 . S
H6563 C6586 0.950 . S
H6564 C6587 0.950 . S
H6565 C6589 0.950 . S
H6566 C6590 0.950 . S
H6567 C6591 0.951 . S
H6568 C6593 0.951 . S
H6569 C6595 0.950 . S
H6570 C6596 0.950 . S
H6571 C6598 0.950 . S
H6572 C6601 0.950 . S
H6573 C6602 0.950 . S
H6574 C6604 0.950 . S
H6575 C6605 0.950 . S
C6576 H6558 0.951 . S
C6576 C6577 1.366 . S
C6576 C6578 1.388 . S
C6577 C6576 1.366 . S
C6577 C6581 1.385 . S
C6578 H6559 0.951 . S
C6578 C6576 1.388 . S
C6578 C6579 1.366 . S
C6579 C6578 1.366 . S
C6579 C6580 1.414 . S
C6579 C6582 1.499 . S
C6580 H6560 0.950 . S
C6580 C6579 1.414 . S
C6580 C6581 1.374 . S
C6581 H6561 0.950 . S
C6581 C6577 1.385 . S
C6581 C6580 1.374 . S
C6582 C6579 1.499 . S
C6582 C6583 1.373 . S
C6582 C6584 1.389 . S
C6583 H6562 0.950 . S
C6583 C6582 1.373 . S
C6583 C6599 1.377 . S
C6584 C6582 1.389 . S
C6584 C6585 1.524 . S
C6584 C6598 1.377 . S
C6585 C6584 1.524 . S
C6585 C6586 1.397 . S
C6585 C6590 1.363 . S
C6586 H6563 0.950 . S
C6586 C6585 1.397 . S
C6586 C6587 1.334 . S
C6587 H6564 0.950 . S
C6587 C6586 1.334 . S
C6587 C6588 1.287 . S
C6588 C6587 1.287 . S
C6588 C6589 1.524 . S
C6588 H6607 0.913 . S
C6589 H6565 0.950 . S
C6589 C6588 1.524 . S
C6589 C6590 1.415 . S
C6590 H6566 0.950 . S
C6590 C6585 1.363 . S
C6590 C6589 1.415 . S
C6591 H6567 0.951 . S
C6591 C6592 1.366 . S
C6591 C6593 1.388 . S
C6592 C6591 1.366 . S
C6592 C6596 1.385 . S
C6593 H6568 0.951 . S
C6593 C6591 1.388 . S
C6593 C6594 1.366 . S
C6594 C6593 1.366 . S
C6594 C6595 1.414 . S
C6594 C6597 1.499 . S
C6595 H6569 0.950 . S
C6595 C6594 1.414 . S
C6595 C6596 1.374 . S
C6596 H6570 0.950 . S
C6596 C6592 1.385 . S
C6596 C6595 1.374 . S
C6597 C6594 1.499 . S
C6597 C6598 1.373 . S
C6597 C6599 1.389 . S
C6598 H6571 0.950 . S
C6598 C6584 1.377 . S
C6598 C6597 1.373 . S
C6599 C6583 1.377 . S
C6599 C6597 1.389 . S
C6599 C6600 1.524 . S
C6600 C6599 1.524 . S
C6600 C6601 1.397 . S
C6600 C6605 1.363 . S
C6601 H6572 0.950 . S
C6601 C6600 1.397 . S
C6601 C6602 1.334 . S
C6602 H6573 0.950 . S
C6602 C6601 1.334 . S
C6602 C6603 1.287 . S
C6603 C6602 1.287 . S
C6603 C6604 1.524 . S
C6603 H6606 0.999 . S
C6604 H6574 0.950 . S
C6604 C6603 1.524 . S
C6604 C6605 1.415 . S
C6605 H6575 0.950 . S
C6605 C6600 1.363 . S
C6605 C6604 1.415 . S
H6606 C6603 0.999 . S
H6607 C6588 0.913 . S
H6608 C6626 0.951 . S
H6609 C6628 0.951 . S
H6610 C6630 0.950 . S
H6611 C6631 0.950 . S
H6612 C6633 0.950 . S
H6613 C6636 0.950 . S
H6614 C6637 0.950 . S
H6615 C6639 0.950 . S
H6616 C6640 0.950 . S
H6617 C6641 0.951 . S
H6618 C6643 0.951 . S
H6619 C6645 0.950 . S
H6620 C6646 0.950 . S
H6621 C6648 0.950 . S
H6622 C6651 0.950 . S
H6623 C6652 0.950 . S
H6624 C6654 0.950 . S
H6625 C6655 0.950 . S
C6626 H6608 0.951 . S
C6626 C6627 1.366 . S
C6626 C6628 1.388 . S
C6627 C6626 1.366 . S
C6627 C6631 1.385 . S
C6628 H6609 0.951 . S
C6628 C6626 1.388 . S
C6628 C6629 1.366 . S
C6629 C6628 1.366 . S
C6629 C6630 1.414 . S
C6629 C6632 1.499 . S
C6630 H6610 0.950 . S
C6630 C6629 1.414 . S
C6630 C6631 1.374 . S
C6631 H6611 0.950 . S
C6631 C6627 1.385 . S
C6631 C6630 1.374 . S
C6632 C6629 1.499 . S
C6632 C6633 1.373 . S
C6632 C6634 1.389 . S
C6633 H6612 0.950 . S
C6633 C6632 1.373 . S
C6633 C6649 1.377 . S
C6634 C6632 1.389 . S
C6634 C6635 1.524 . S
C6634 C6648 1.377 . S
C6635 C6634 1.524 . S
C6635 C6636 1.397 . S
C6635 C6640 1.363 . S
C6636 H6613 0.950 . S
C6636 C6635 1.397 . S
C6636 C6637 1.334 . S
C6637 H6614 0.950 . S
C6637 C6636 1.334 . S
C6637 C6638 1.287 . S
C6638 C6637 1.287 . S
C6638 C6639 1.524 . S
C6638 H6657 0.913 . S
C6639 H6615 0.950 . S
C6639 C6638 1.524 . S
C6639 C6640 1.415 . S
C6640 H6616 0.950 . S
C6640 C6635 1.363 . S
C6640 C6639 1.415 . S
C6641 H6617 0.951 . S
C6641 C6642 1.366 . S
C6641 C6643 1.388 . S
C6642 C6641 1.366 . S
C6642 C6646 1.385 . S
C6643 H6618 0.951 . S
C6643 C6641 1.388 . S
C6643 C6644 1.366 . S
C6644 C6643 1.366 . S
C6644 C6645 1.414 . S
C6644 C6647 1.499 . S
C6645 H6619 0.950 . S
C6645 C6644 1.414 . S
C6645 C6646 1.374 . S
C6646 H6620 0.950 . S
C6646 C6642 1.385 . S
C6646 C6645 1.374 . S
C6647 C6644 1.499 . S
C6647 C6648 1.373 . S
C6647 C6649 1.389 . S
C6648 H6621 0.950 . S
C6648 C6634 1.377 . S
C6648 C6647 1.373 . S
C6649 C6633 1.377 . S
C6649 C6647 1.389 . S
C6649 C6650 1.524 . S
C6650 C6649 1.524 . S
C6650 C6651 1.397 . S
C6650 C6655 1.363 . S
C6651 H6622 0.950 . S
C6651 C6650 1.397 . S
C6651 C6652 1.334 . S
C6652 H6623 0.950 . S
C6652 C6651 1.334 . S
C6652 C6653 1.287 . S
C6653 C6652 1.287 . S
C6653 C6654 1.524 . S
C6653 H6656 0.999 . S
C6654 H6624 0.950 . S
C6654 C6653 1.524 . S
C6654 C6655 1.415 . S
C6655 H6625 0.950 . S
C6655 C6650 1.363 . S
C6655 C6654 1.415 . S
H6656 C6653 0.999 . S
H6657 C6638 0.913 . S
H6658 C6676 0.951 . S
H6659 C6678 0.951 . S
H6660 C6680 0.950 . S
H6661 C6681 0.950 . S
H6662 C6683 0.950 . S
H6663 C6686 0.950 . S
H6664 C6687 0.950 . S
H6665 C6689 0.950 . S
H6666 C6690 0.950 . S
H6667 C6691 0.951 . S
H6668 C6693 0.951 . S
H6669 C6695 0.950 . S
H6670 C6696 0.936 1_545 S
H6671 C6698 0.950 . S
H6672 C6701 0.950 . S
H6673 C6702 0.953 . S
H6674 C6704 0.950 . S
H6675 C6705 0.950 . S
C6676 H6658 0.951 . S
C6676 C6677 1.366 . S
C6676 C6678 1.388 . S
C6677 C6676 1.366 . S
C6677 C6681 1.385 . S
C6678 H6659 0.951 . S
C6678 C6676 1.388 . S
C6678 C6679 1.366 . S
C6679 C6678 1.366 . S
C6679 C6680 1.414 . S
C6679 C6682 1.499 . S
C6680 H6660 0.950 . S
C6680 C6679 1.414 . S
C6680 C6681 1.374 . S
C6681 H6661 0.950 . S
C6681 C6677 1.385 . S
C6681 C6680 1.374 . S
C6682 C6679 1.499 . S
C6682 C6683 1.373 . S
C6682 C6684 1.389 . S
C6683 H6662 0.950 . S
C6683 C6682 1.373 . S
C6683 C6699 1.377 . S
C6684 C6682 1.389 . S
C6684 C6685 1.524 . S
C6684 C6698 1.377 . S
C6685 C6684 1.524 . S
C6685 C6686 1.397 . S
C6685 C6690 1.363 . S
C6686 H6663 0.950 . S
C6686 C6685 1.397 . S
C6686 C6687 1.334 . S
C6687 H6664 0.950 . S
C6687 C6686 1.334 . S
C6687 C6688 1.287 . S
C6688 C6687 1.287 . S
C6688 C6689 1.524 . S
C6688 H6707 0.913 . S
C6689 H6665 0.950 . S
C6689 C6688 1.524 . S
C6689 C6690 1.415 . S
C6690 H6666 0.950 . S
C6690 C6685 1.363 . S
C6690 C6689 1.415 . S
C6691 H6667 0.951 . S
C6691 C6692 1.366 . S
C6691 C6693 1.388 . S
C6692 C6691 1.366 . S
C6692 C6696 1.392 . S
C6693 H6668 0.951 . S
C6693 C6691 1.388 . S
C6693 C6694 1.366 . S
C6694 C6693 1.366 . S
C6694 C6695 1.414 . S
C6694 C6697 1.499 . S
C6695 H6669 0.950 . S
C6695 C6694 1.414 . S
C6695 C6696 1.380 . S
C6696 H6670 0.936 1_565 S
C6696 C6692 1.392 . S
C6696 C6695 1.380 . S
C6697 C6694 1.499 . S
C6697 C6698 1.373 . S
C6697 C6699 1.389 . S
C6698 H6671 0.950 . S
C6698 C6684 1.377 . S
C6698 C6697 1.373 . S
C6699 C6683 1.377 . S
C6699 C6697 1.389 . S
C6699 C6700 1.524 . S
C6700 C6699 1.524 . S
C6700 C6701 1.397 . S
C6700 C6705 1.363 . S
C6701 H6672 0.950 . S
C6701 C6700 1.397 . S
C6701 C6702 1.334 . S
C6702 H6673 0.953 . S
C6702 C6701 1.334 . S
C6702 C6703 1.287 . S
C6703 C6702 1.287 . S
C6703 C6704 1.524 . S
C6703 H6706 0.999 . S
C6704 H6674 0.950 . S
C6704 C6703 1.524 . S
C6704 C6705 1.415 . S
C6705 H6675 0.950 . S
C6705 C6700 1.363 . S
C6705 C6704 1.415 . S
H6706 C6703 0.999 . S
H6707 C6688 0.913 . S
H6708 C6726 0.951 . S
H6709 C6728 0.951 . S
H6710 C6730 0.950 . S
H6711 C6731 0.950 . S
H6712 C6733 0.950 . S
H6713 C6736 0.950 . S
H6714 C6737 0.950 . S
H6715 C6739 0.950 . S
H6716 C6740 0.950 . S
H6717 C6741 0.951 . S
H6718 C6743 0.951 . S
H6719 C6745 0.950 . S
H6720 C6746 0.950 . S
H6721 C6748 0.950 . S
H6722 C6751 0.950 . S
H6723 C6752 0.950 . S
H6724 C6754 0.950 . S
H6725 C6755 0.950 . S
C6726 H6708 0.951 . S
C6726 C6727 1.366 . S
C6726 C6728 1.388 . S
C6727 C6726 1.366 . S
C6727 C6731 1.385 . S
C6728 H6709 0.951 . S
C6728 C6726 1.388 . S
C6728 C6729 1.366 . S
C6729 C6728 1.366 . S
C6729 C6730 1.414 . S
C6729 C6732 1.499 . S
C6730 H6710 0.950 . S
C6730 C6729 1.414 . S
C6730 C6731 1.374 . S
C6731 H6711 0.950 . S
C6731 C6727 1.385 . S
C6731 C6730 1.374 . S
C6732 C6729 1.499 . S
C6732 C6733 1.373 . S
C6732 C6734 1.389 . S
C6733 H6712 0.950 . S
C6733 C6732 1.373 . S
C6733 C6749 1.377 . S
C6734 C6732 1.389 . S
C6734 C6735 1.524 . S
C6734 C6748 1.377 . S
C6735 C6734 1.524 . S
C6735 C6736 1.397 . S
C6735 C6740 1.363 . S
C6736 H6713 0.950 . S
C6736 C6735 1.397 . S
C6736 C6737 1.334 . S
C6737 H6714 0.950 . S
C6737 C6736 1.334 . S
C6737 C6738 1.287 . S
C6738 C6737 1.287 . S
C6738 C6739 1.524 . S
C6738 H6757 0.913 . S
C6739 H6715 0.950 . S
C6739 C6738 1.524 . S
C6739 C6740 1.415 . S
C6740 H6716 0.950 . S
C6740 C6735 1.363 . S
C6740 C6739 1.415 . S
C6741 H6717 0.951 . S
C6741 C6742 1.366 . S
C6741 C6743 1.388 . S
C6742 C6741 1.366 . S
C6742 C6746 1.385 . S
C6743 H6718 0.951 . S
C6743 C6741 1.388 . S
C6743 C6744 1.366 . S
C6744 C6743 1.366 . S
C6744 C6745 1.414 . S
C6744 C6747 1.499 . S
C6745 H6719 0.950 . S
C6745 C6744 1.414 . S
C6745 C6746 1.374 . S
C6746 H6720 0.950 . S
C6746 C6742 1.385 . S
C6746 C6745 1.374 . S
C6747 C6744 1.499 . S
C6747 C6748 1.373 . S
C6747 C6749 1.389 . S
C6748 H6721 0.950 . S
C6748 C6734 1.377 . S
C6748 C6747 1.373 . S
C6749 C6733 1.377 . S
C6749 C6747 1.389 . S
C6749 C6750 1.524 . S
C6750 C6749 1.524 . S
C6750 C6751 1.397 . S
C6750 C6755 1.363 . S
C6751 H6722 0.950 . S
C6751 C6750 1.397 . S
C6751 C6752 1.334 . S
C6752 H6723 0.950 . S
C6752 C6751 1.334 . S
C6752 C6753 1.287 . S
C6753 C6752 1.287 . S
C6753 C6754 1.524 . S
C6753 H6756 0.999 . S
C6754 H6724 0.950 . S
C6754 C6753 1.524 . S
C6754 C6755 1.415 . S
C6755 H6725 0.950 . S
C6755 C6750 1.363 . S
C6755 C6754 1.415 . S
H6756 C6753 0.999 . S
H6757 C6738 0.913 . S
H6758 C6776 0.951 . S
H6759 C6778 0.951 . S
H6760 C6780 0.950 . S
H6761 C6781 0.950 . S
H6762 C6783 0.950 . S
H6763 C6786 0.921 1_554 S
H6764 C6787 0.950 . S
H6765 C6789 0.950 . S
H6766 C6790 0.950 . S
H6767 C6791 0.951 . S
H6768 C6793 0.951 . S
H6769 C6795 0.950 . S
H6770 C6796 0.950 . S
H6771 C6798 0.950 . S
H6772 C6801 0.950 . S
H6773 C6802 0.950 . S
H6774 C6804 0.950 . S
H6775 C6805 0.950 . S
C6776 H6758 0.951 . S
C6776 C6777 1.366 . S
C6776 C6778 1.388 . S
C6777 C6776 1.366 . S
C6777 C6781 1.385 . S
C6778 H6759 0.951 . S
C6778 C6776 1.388 . S
C6778 C6779 1.366 . S
C6779 C6778 1.366 . S
C6779 C6780 1.414 . S
C6779 C6782 1.499 . S
C6780 H6760 0.950 . S
C6780 C6779 1.414 . S
C6780 C6781 1.374 . S
C6781 H6761 0.950 . S
C6781 C6777 1.385 . S
C6781 C6780 1.374 . S
C6782 C6779 1.499 . S
C6782 C6783 1.373 . S
C6782 C6784 1.389 . S
C6783 H6762 0.950 . S
C6783 C6782 1.373 . S
C6783 C6799 1.377 . S
C6784 C6782 1.389 . S
C6784 C6785 1.526 . S
C6784 C6798 1.377 . S
C6785 C6784 1.526 . S
C6785 C6786 1.396 1_554 S
C6785 C6790 1.362 1_554 S
C6786 H6763 0.921 1_556 S
C6786 C6785 1.396 1_556 S
C6786 C6787 1.334 . S
C6787 H6764 0.950 . S
C6787 C6786 1.334 . S
C6787 C6788 1.287 . S
C6788 C6787 1.287 . S
C6788 C6789 1.524 . S
C6788 H6807 0.913 . S
C6789 H6765 0.950 . S
C6789 C6788 1.524 . S
C6789 C6790 1.415 . S
C6790 H6766 0.950 . S
C6790 C6785 1.362 1_556 S
C6790 C6789 1.415 . S
C6791 H6767 0.951 . S
C6791 C6792 1.366 . S
C6791 C6793 1.388 . S
C6792 C6791 1.366 . S
C6792 C6796 1.385 . S
C6793 H6768 0.951 . S
C6793 C6791 1.388 . S
C6793 C6794 1.366 . S
C6794 C6793 1.366 . S
C6794 C6795 1.414 . S
C6794 C6797 1.499 . S
C6795 H6769 0.950 . S
C6795 C6794 1.414 . S
C6795 C6796 1.374 . S
C6796 H6770 0.950 . S
C6796 C6792 1.385 . S
C6796 C6795 1.374 . S
C6797 C6794 1.499 . S
C6797 C6798 1.373 . S
C6797 C6799 1.389 . S
C6798 H6771 0.950 . S
C6798 C6784 1.377 . S
C6798 C6797 1.373 . S
C6799 C6783 1.377 . S
C6799 C6797 1.389 . S
C6799 C6800 1.524 . S
C6800 C6799 1.524 . S
C6800 C6801 1.397 . S
C6800 C6805 1.363 . S
C6801 H6772 0.950 . S
C6801 C6800 1.397 . S
C6801 C6802 1.334 . S
C6802 H6773 0.950 . S
C6802 C6801 1.334 . S
C6802 C6803 1.287 . S
C6803 C6802 1.287 . S
C6803 C6804 1.524 . S
C6803 H6806 0.999 . S
C6804 H6774 0.950 . S
C6804 C6803 1.524 . S
C6804 C6805 1.415 . S
C6805 H6775 0.950 . S
C6805 C6800 1.363 . S
C6805 C6804 1.415 . S
H6806 C6803 0.999 . S
H6807 C6788 0.913 . S
H6808 C6826 0.951 . S
H6809 C6828 0.951 . S
H6810 C6830 0.950 . S
H6811 C6831 0.950 . S
H6812 C6833 0.950 . S
H6813 C6836 0.950 . S
H6814 C6837 0.950 . S
H6815 C6839 0.950 . S
H6816 C6840 0.950 . S
H6817 C6841 0.951 . S
H6818 C6843 0.951 . S
H6819 C6845 0.950 . S
H6820 C6846 0.950 . S
H6821 C6848 0.950 . S
H6822 C6851 0.950 . S
H6823 C6852 0.950 . S
H6824 C6854 0.950 . S
H6825 C6855 0.950 . S
C6826 H6808 0.951 . S
C6826 C6827 1.366 . S
C6826 C6828 1.388 . S
C6827 C6826 1.366 . S
C6827 C6831 1.385 . S
C6828 H6809 0.951 . S
C6828 C6826 1.388 . S
C6828 C6829 1.366 . S
C6829 C6828 1.366 . S
C6829 C6830 1.414 . S
C6829 C6832 1.499 . S
C6830 H6810 0.950 . S
C6830 C6829 1.414 . S
C6830 C6831 1.374 . S
C6831 H6811 0.950 . S
C6831 C6827 1.385 . S
C6831 C6830 1.374 . S
C6832 C6829 1.499 . S
C6832 C6833 1.373 . S
C6832 C6834 1.389 . S
C6833 H6812 0.950 . S
C6833 C6832 1.373 . S
C6833 C6849 1.377 . S
C6834 C6832 1.389 . S
C6834 C6835 1.524 . S
C6834 C6848 1.377 . S
C6835 C6834 1.524 . S
C6835 C6836 1.397 . S
C6835 C6840 1.363 . S
C6836 H6813 0.950 . S
C6836 C6835 1.397 . S
C6836 C6837 1.334 . S
C6837 H6814 0.950 . S
C6837 C6836 1.334 . S
C6837 C6838 1.287 . S
C6838 C6837 1.287 . S
C6838 C6839 1.524 . S
C6838 H6857 0.913 . S
C6839 H6815 0.950 . S
C6839 C6838 1.524 . S
C6839 C6840 1.415 . S
C6840 H6816 0.950 . S
C6840 C6835 1.363 . S
C6840 C6839 1.415 . S
C6841 H6817 0.951 . S
C6841 C6842 1.366 . S
C6841 C6843 1.388 . S
C6842 C6841 1.366 . S
C6842 C6846 1.385 . S
C6843 H6818 0.951 . S
C6843 C6841 1.388 . S
C6843 C6844 1.366 . S
C6844 C6843 1.366 . S
C6844 C6845 1.414 . S
C6844 C6847 1.499 . S
C6845 H6819 0.950 . S
C6845 C6844 1.414 . S
C6845 C6846 1.374 . S
C6846 H6820 0.950 . S
C6846 C6842 1.385 . S
C6846 C6845 1.374 . S
C6847 C6844 1.499 . S
C6847 C6848 1.373 . S
C6847 C6849 1.389 . S
C6848 H6821 0.950 . S
C6848 C6834 1.377 . S
C6848 C6847 1.373 . S
C6849 C6833 1.377 . S
C6849 C6847 1.389 . S
C6849 C6850 1.524 . S
C6850 C6849 1.524 . S
C6850 C6851 1.397 . S
C6850 C6855 1.363 . S
C6851 H6822 0.950 . S
C6851 C6850 1.397 . S
C6851 C6852 1.334 . S
C6852 H6823 0.950 . S
C6852 C6851 1.334 . S
C6852 C6853 1.287 . S
C6853 C6852 1.287 . S
C6853 C6854 1.524 . S
C6853 H6856 0.999 . S
C6854 H6824 0.950 . S
C6854 C6853 1.524 . S
C6854 C6855 1.415 . S
C6855 H6825 0.950 . S
C6855 C6850 1.363 . S
C6855 C6854 1.415 . S
H6856 C6853 0.999 . S
H6857 C6838 0.913 . S
H6858 C6876 0.951 . S
H6859 C6878 0.951 . S
H6860 C6880 0.950 . S
H6861 C6881 0.950 . S
H6862 C6883 0.950 . S
H6863 C6886 0.940 1_556 S
H6864 C6887 0.950 1_556 S
H6865 C6889 0.950 . S
H6866 C6890 0.950 . S
H6867 C6891 0.951 1_556 S
H6868 C6893 0.951 . S
H6869 C6895 0.950 . S
H6870 C6896 0.950 . S
H6871 C6898 0.950 . S
H6872 C6901 0.950 . S
H6873 C6902 0.950 . S
H6874 C6904 0.950 . S
H6875 C6905 0.950 . S
C6876 H6858 0.951 . S
C6876 C6877 1.366 . S
C6876 C6878 1.388 . S
C6877 C6876 1.366 . S
C6877 C6881 1.385 . S
C6878 H6859 0.951 . S
C6878 C6876 1.388 . S
C6878 C6879 1.366 . S
C6879 C6878 1.366 . S
C6879 C6880 1.414 . S
C6879 C6882 1.499 . S
C6880 H6860 0.950 . S
C6880 C6879 1.414 . S
C6880 C6881 1.374 . S
C6881 H6861 0.950 . S
C6881 C6877 1.385 . S
C6881 C6880 1.374 . S
C6882 C6879 1.499 . S
C6882 C6883 1.373 . S
C6882 C6884 1.389 . S
C6883 H6862 0.950 . S
C6883 C6882 1.373 . S
C6883 C6899 1.377 . S
C6884 C6882 1.389 . S
C6884 C6885 1.524 . S
C6884 C6898 1.377 . S
C6885 C6884 1.524 . S
C6885 C6886 1.397 . S
C6885 C6890 1.363 . S
C6886 H6863 0.940 1_554 S
C6886 C6885 1.397 . S
C6886 C6887 1.334 . S
C6887 H6864 0.950 1_554 S
C6887 C6886 1.334 . S
C6887 C6888 1.287 . S
C6888 C6887 1.287 . S
C6888 C6889 1.524 . S
C6888 H6907 0.913 . S
C6889 H6865 0.950 . S
C6889 C6888 1.524 . S
C6889 C6890 1.415 . S
C6890 H6866 0.950 . S
C6890 C6885 1.363 . S
C6890 C6889 1.415 . S
C6891 H6867 0.951 1_554 S
C6891 C6892 1.366 . S
C6891 C6893 1.388 . S
C6892 C6891 1.366 . S
C6892 C6896 1.385 . S
C6893 H6868 0.951 . S
C6893 C6891 1.388 . S
C6893 C6894 1.366 . S
C6894 C6893 1.366 . S
C6894 C6895 1.414 . S
C6894 C6897 1.499 . S
C6895 H6869 0.950 . S
C6895 C6894 1.414 . S
C6895 C6896 1.374 . S
C6896 H6870 0.950 . S
C6896 C6892 1.385 . S
C6896 C6895 1.374 . S
C6897 C6894 1.499 . S
C6897 C6898 1.373 . S
C6897 C6899 1.389 . S
C6898 H6871 0.950 . S
C6898 C6884 1.377 . S
C6898 C6897 1.373 . S
C6899 C6883 1.377 . S
C6899 C6897 1.389 . S
C6899 C6900 1.524 . S
C6900 C6899 1.524 . S
C6900 C6901 1.397 . S
C6900 C6905 1.363 . S
C6901 H6872 0.950 . S
C6901 C6900 1.397 . S
C6901 C6902 1.334 . S
C6902 H6873 0.950 . S
C6902 C6901 1.334 . S
C6902 C6903 1.287 . S
C6903 C6902 1.287 . S
C6903 C6904 1.524 . S
C6903 H6906 0.999 . S
C6904 H6874 0.950 . S
C6904 C6903 1.524 . S
C6904 C6905 1.415 . S
C6905 H6875 0.950 . S
C6905 C6900 1.363 . S
C6905 C6904 1.415 . S
H6906 C6903 0.999 . S
H6907 C6888 0.913 . S
H6908 C6926 0.951 . S
H6909 C6928 0.951 . S
H6910 C6930 0.950 . S
H6911 C6931 0.950 . S
H6912 C6933 0.950 . S
H6913 C6936 0.950 . S
H6914 C6937 0.950 . S
H6915 C6939 0.950 . S
H6916 C6940 0.950 . S
H6917 C6941 0.951 . S
H6918 C6943 0.951 . S
H6919 C6945 0.950 . S
H6920 C6946 0.950 . S
H6921 C6948 0.950 . S
H6922 C6951 0.950 . S
H6923 C6952 0.950 . S
H6924 C6954 0.950 . S
H6925 C6955 0.950 . S
C6926 H6908 0.951 . S
C6926 C6927 1.366 . S
C6926 C6928 1.388 . S
C6927 C6926 1.366 . S
C6927 C6931 1.385 . S
C6928 H6909 0.951 . S
C6928 C6926 1.388 . S
C6928 C6929 1.366 . S
C6929 C6928 1.366 . S
C6929 C6930 1.414 . S
C6929 C6932 1.499 . S
C6930 H6910 0.950 . S
C6930 C6929 1.414 . S
C6930 C6931 1.374 . S
C6931 H6911 0.950 . S
C6931 C6927 1.385 . S
C6931 C6930 1.374 . S
C6932 C6929 1.499 . S
C6932 C6933 1.373 . S
C6932 C6934 1.389 . S
C6933 H6912 0.950 . S
C6933 C6932 1.373 . S
C6933 C6949 1.377 . S
C6934 C6932 1.389 . S
C6934 C6935 1.524 . S
C6934 C6948 1.377 . S
C6935 C6934 1.524 . S
C6935 C6936 1.397 . S
C6935 C6940 1.363 . S
C6936 H6913 0.950 . S
C6936 C6935 1.397 . S
C6936 C6937 1.334 . S
C6937 H6914 0.950 . S
C6937 C6936 1.334 . S
C6937 C6938 1.287 . S
C6938 C6937 1.287 . S
C6938 C6939 1.524 . S
C6938 H6957 0.913 . S
C6939 H6915 0.950 . S
C6939 C6938 1.524 . S
C6939 C6940 1.415 . S
C6940 H6916 0.950 . S
C6940 C6935 1.363 . S
C6940 C6939 1.415 . S
C6941 H6917 0.951 . S
C6941 C6942 1.366 . S
C6941 C6943 1.388 . S
C6942 C6941 1.366 . S
C6942 C6946 1.385 . S
C6943 H6918 0.951 . S
C6943 C6941 1.388 . S
C6943 C6944 1.366 . S
C6944 C6943 1.366 . S
C6944 C6945 1.414 . S
C6944 C6947 1.499 . S
C6945 H6919 0.950 . S
C6945 C6944 1.414 . S
C6945 C6946 1.374 . S
C6946 H6920 0.950 . S
C6946 C6942 1.385 . S
C6946 C6945 1.374 . S
C6947 C6944 1.499 . S
C6947 C6948 1.373 . S
C6947 C6949 1.389 . S
C6948 H6921 0.950 . S
C6948 C6934 1.377 . S
C6948 C6947 1.373 . S
C6949 C6933 1.377 . S
C6949 C6947 1.389 . S
C6949 C6950 1.524 . S
C6950 C6949 1.524 . S
C6950 C6951 1.397 . S
C6950 C6955 1.363 . S
C6951 H6922 0.950 . S
C6951 C6950 1.397 . S
C6951 C6952 1.334 . S
C6952 H6923 0.950 . S
C6952 C6951 1.334 . S
C6952 C6953 1.287 . S
C6953 C6952 1.287 . S
C6953 C6954 1.524 . S
C6953 H6956 0.999 . S
C6954 H6924 0.950 . S
C6954 C6953 1.524 . S
C6954 C6955 1.415 . S
C6955 H6925 0.950 . S
C6955 C6950 1.363 . S
C6955 C6954 1.415 . S
H6956 C6953 0.999 . S
H6957 C6938 0.913 . S
H6958 C6976 0.951 . S
H6959 C6978 0.951 . S
H6960 C6980 0.950 . S
H6961 C6981 0.950 . S
H6962 C6983 0.950 . S
H6963 C6986 0.950 . S
H6964 C6987 0.950 . S
H6965 C6989 0.950 . S
H6966 C6990 0.950 . S
H6967 C6991 0.951 . S
H6968 C6993 0.951 . S
H6969 C6995 0.950 . S
H6970 C6996 0.950 . S
H6971 C6998 0.950 . S
H6972 C7001 0.950 . S
H6973 C7002 0.950 . S
H6974 C7004 0.950 . S
H6975 C7005 0.950 . S
C6976 H6958 0.951 . S
C6976 C6977 1.366 . S
C6976 C6978 1.388 . S
C6977 C6976 1.366 . S
C6977 C6981 1.385 . S
C6978 H6959 0.951 . S
C6978 C6976 1.388 . S
C6978 C6979 1.366 . S
C6979 C6978 1.366 . S
C6979 C6980 1.414 . S
C6979 C6982 1.499 . S
C6980 H6960 0.950 . S
C6980 C6979 1.414 . S
C6980 C6981 1.374 . S
C6981 H6961 0.950 . S
C6981 C6977 1.385 . S
C6981 C6980 1.374 . S
C6982 C6979 1.499 . S
C6982 C6983 1.373 . S
C6982 C6984 1.389 . S
C6983 H6962 0.950 . S
C6983 C6982 1.373 . S
C6983 C6999 1.377 . S
C6984 C6982 1.389 . S
C6984 C6985 1.524 . S
C6984 C6998 1.377 . S
C6985 C6984 1.524 . S
C6985 C6986 1.397 . S
C6985 C6990 1.363 . S
C6986 H6963 0.950 . S
C6986 C6985 1.397 . S
C6986 C6987 1.334 . S
C6987 H6964 0.950 . S
C6987 C6986 1.334 . S
C6987 C6988 1.287 . S
C6988 C6987 1.287 . S
C6988 C6989 1.524 . S
C6988 H7007 0.913 . S
C6989 H6965 0.950 . S
C6989 C6988 1.524 . S
C6989 C6990 1.415 . S
C6990 H6966 0.950 . S
C6990 C6985 1.363 . S
C6990 C6989 1.415 . S
C6991 H6967 0.951 . S
C6991 C6992 1.366 . S
C6991 C6993 1.388 . S
C6992 C6991 1.366 . S
C6992 C6996 1.385 . S
C6993 H6968 0.951 . S
C6993 C6991 1.388 . S
C6993 C6994 1.366 . S
C6994 C6993 1.366 . S
C6994 C6995 1.414 . S
C6994 C6997 1.499 . S
C6995 H6969 0.950 . S
C6995 C6994 1.414 . S
C6995 C6996 1.374 . S
C6996 H6970 0.950 . S
C6996 C6992 1.385 . S
C6996 C6995 1.374 . S
C6997 C6994 1.499 . S
C6997 C6998 1.373 . S
C6997 C6999 1.389 . S
C6998 H6971 0.950 . S
C6998 C6984 1.377 . S
C6998 C6997 1.373 . S
C6999 C6983 1.377 . S
C6999 C6997 1.389 . S
C6999 C7000 1.524 . S
C7000 C6999 1.524 . S
C7000 C7001 1.397 . S
C7000 C7005 1.363 . S
C7001 H6972 0.950 . S
C7001 C7000 1.397 . S
C7001 C7002 1.334 . S
C7002 H6973 0.950 . S
C7002 C7001 1.334 . S
C7002 C7003 1.287 . S
C7003 C7002 1.287 . S
C7003 C7004 1.524 . S
C7003 H7006 0.999 . S
C7004 H6974 0.950 . S
C7004 C7003 1.524 . S
C7004 C7005 1.415 . S
C7005 H6975 0.950 . S
C7005 C7000 1.363 . S
C7005 C7004 1.415 . S
H7006 C7003 0.999 . S
H7007 C6988 0.913 . S
C2227 C255 1.941 . S
C2242 C931 1.952 . S
C2277 C147 1.816 . S
C2292 C1004 1.811 . S
C2327 C184 1.704 . S
C2342 C1099 1.730 . S
C2392 C1174 1.462 . S
C2377 C220 1.590 . S
C2427 C40 1.551 . S
C2442 C1258 1.426 . S
C2492 C1351 1.828 . S
C2477 C74 1.788 . S
C2542 C1424 1.844 . S
C2527 C110 1.858 . S
C2577 C14 1.890 . S
C2592 C1519 1.901 . S
C2642 C920 1.592 . S
C2627 C579 1.628 . S
C2677 C616 0.900 . S
C2692 C1006 0.864 . S
C2742 C1088 1.132 . S
C2727 C687 1.141 . S
C2792 C1183 1.649 . S
C2777 C436 1.635 . S
C2827 C580 1.608 . S
C2842 C1267 1.622 . S
C2892 C1340 1.107 . S
C2877 C615 1.117 . S
C2942 C1426 0.861 . S
C2927 C688 0.894 . S
C2992 C1508 1.569 . S
C2977 C435 1.606 . S
C3042 C922 0.882 . S
C3027 C410 0.923 . S
C3077 C722 1.735 . S
C3092 C1592 1.717 . S
C3142 C1678 1.337 . S
C3127 C842 1.395 . S
C3192 C1771 0.822 . S
C3177 C794 0.819 . S
C3227 C302 0.919 . S
C3242 C1510 0.892 . S
C3277 C338 1.364 . S
C3292 C1090 1.307 . S
C3327 C830 1.768 . S
C3342 C1844 1.749 . S
C3392 C1939 0.884 . S
C3377 C758 0.877 . S
C3442 C919 1.903 . S
C3427 C158 1.810 . S
C3492 C1940 1.777 . S
C3477 C254 1.791 . S
C3527 C218 1.701 . S
C3542 C1087 1.735 . S
C3577 C194 1.498 . S
C3592 C1858 1.436 . S
C3642 C1270 1.413 . S
C3627 C3 1.523 . S
C3677 C111 1.645 . S
C3692 C1675 1.645 . S
C3742 C1436 1.789 1_556 S
C3727 C76 1.798 . S
C3792 C2011 1.970 . S
C3777 C50 1.876 . S
C3842 C932 1.526 . S
C3827 C364 1.565 . S
C3892 C1942 0.825 . S
C3877 C795 0.846 . S
C3927 C292 1.079 . S
C3942 C1100 1.064 . S
C3977 C723 1.574 . S
C3992 C1843 1.569 . S
C4027 C363 1.585 . S
C4042 C1255 1.581 . S
C4092 C1688 1.083 . S
C4077 C796 1.096 . S
C4127 C291 0.866 . S
C4142 C1438 0.841 . S
C4177 C724 1.585 . S
C4192 C2024 1.547 . S
C4227 C482 0.862 . S
C4242 C934 0.861 . S
C4277 C434 1.695 . S
C4292 C1604 1.680 . S
C4327 C662 1.336 . S
C4342 C1354 1.315 . S
C4377 C614 0.804 . S
C4392 C1759 0.806 . S
C4442 C2026 0.888 . S
C4427 C698 0.891 . S
C4477 C554 1.328 . S
C4492 C1102 1.308 . S
C4542 C1184 1.682 . S
C4527 C650 1.698 . S
C4592 C1003 0.808 . S
C4577 C506 0.806 . S
C4627 C183 1.941 . S
C4642 C2107 1.954 . S
C4692 C1928 1.811 . S
C4677 C219 1.817 . S
C4727 C256 1.700 . S
C4742 C2191 1.726 . S
C4777 C148 1.587 1_655 S
C4792 C1846 1.462 . S
C4827 C122 1.547 . S
C4842 C1594 1.479 . S
C4892 C1687 1.755 . S
C4877 C2 1.716 1_655 S
C4942 C1760 1.740 . S
C4927 C39 1.742 . S
C4992 C2023 1.982 . S
C4977 C86 1.971 . S
C5042 C2096 1.604 . S
C5027 C651 1.639 . S
C5077 C472 0.900 1_556 S
C5092 C1930 0.863 . S
C5142 C2180 1.118 . S
C5127 C507 1.127 . S
C5192 C1855 1.658 . S
C5177 C544 1.644 . S
C5242 C1603 1.617 . S
C5227 C652 1.604 . S
C5277 C471 1.103 . S
C5292 C1676 1.093 . S
C5342 C1762 0.859 . S
C5327 C508 0.892 . S
C5377 C543 1.625 . S
C5392 C2012 1.589 . S
C5442 C2098 0.896 . S
C5427 C806 0.924 . S
C5477 C326 1.712 . S
C5492 C1256 1.696 . S
C5542 C1342 1.316 . S
C5527 C374 1.373 1_565 S
C5592 C1435 0.837 . S
C5577 C398 0.833 . S
C5642 C2014 0.892 . S
C5627 C770 0.919 . S
C5677 C734 1.354 . S
C5692 C2182 1.299 . S
C5742 C1172 1.735 . S
C5727 C362 1.753 . S
C5792 C1015 0.902 . S
C5777 C290 0.895 . S
C5827 C230 1.808 . S
C5842 C2095 1.901 . S
C5892 C1016 1.783 . S
C5877 C182 1.794 . S
C5927 C146 1.701 . S
C5942 C2179 1.736 . S
C5977 C266 1.499 . S
C5992 C1186 1.437 . S
C6027 C75 1.569 . S
C6042 C1606 1.456 . S
C6092 C1339 1.801 . S
C6077 C38 1.763 . S
C6127 C4 1.720 . S
C6142 C1772 1.713 . S
C6177 C112 1.870 . S
C6192 C1507 1.882 . S
C6242 C2108 1.530 . S
C6227 C832 1.568 . S
C6277 C399 0.859 . S
C6292 C1018 0.831 . S
C6342 C2192 1.080 . S
C6327 C760 1.074 . S
C6377 C327 1.568 . S
C6392 C1171 1.563 . S
C6427 C831 1.615 . S
C6442 C1591 1.611 . S
C6492 C1352 1.087 . S
C6477 C400 1.107 . S
C6527 C759 0.872 . S
C6542 C1774 0.846 . S
C6592 C1520 1.553 . S
C6577 C328 1.590 . S
C6642 C2110 0.869 . S
C6627 C626 0.870 . S
C6692 C1268 1.685 1_565 S
C6677 C542 1.702 . S
C6727 C590 1.309 . S
C6742 C1690 1.286 . S
C6792 C1423 0.813 . S
C6777 C470 0.811 . S
C6827 C518 0.872 . S
C6842 C1522 0.870 . S
C6877 C446 1.322 . S
C6892 C2194 1.299 . S
C6942 C1856 1.696 . S
C6927 C578 1.712 . S
C6992 C1927 0.783 . S
C6977 C686 0.782 . S
