# Generated by pormake.
# Topology ocu, (6,8)-cn, num edge types: 1
# Building blocks:
#     Node 0, Type 0, BuildingBlock: VOLQOD_clean_sbu_1, # of connection points: 6
#     Node 1, Type 0, BuildingBlock: VOLQOD_clean_sbu_1, # of connection points: 6
#     Node 2, Type 0, BuildingBlock: VOLQOD_clean_sbu_1, # of connection points: 6
#     Node 3, Type 0, BuildingBlock: VOLQOD_clean_sbu_1, # of connection points: 6
#     Node 4, Type 0, BuildingBlock: VOLQOD_clean_sbu_1, # of connection points: 6
#     Node 5, Type 0, BuildingBlock: VOLQOD_clean_sbu_1, # of connection points: 6
#     Node 6, Type 0, BuildingBlock: VOLQOD_clean_sbu_1, # of connection points: 6
#     Node 7, Type 0, BuildingBlock: VOLQOD_clean_sbu_1, # of connection points: 6
#     Node 8, Type 1, BuildingBlock: VETTIZ_charged_sbu_0, # of connection points: 8
#     Node 9, Type 1, BuildingBlock: VETTIZ_charged_sbu_0, # of connection points: 8
#     Node 10, Type 1, BuildingBlock: VETTIZ_charged_sbu_0, # of connection points: 8
#     Node 11, Type 1, BuildingBlock: VETTIZ_charged_sbu_0, # of connection points: 8
#     Node 12, Type 1, BuildingBlock: VETTIZ_charged_sbu_0, # of connection points: 8
#     Node 13, Type 1, BuildingBlock: VETTIZ_charged_sbu_0, # of connection points: 8
#     Edge 14, Type (0, 1), BuildingBlock: OJICUG_clean_linker_0, # of connection points: 2
#     Edge 15, Type (0, 1), BuildingBlock: OJICUG_clean_linker_0, # of connection points: 2
#     Edge 16, Type (0, 1), BuildingBlock: OJICUG_clean_linker_0, # of connection points: 2
#     Edge 17, Type (0, 1), BuildingBlock: OJICUG_clean_linker_0, # of connection points: 2
#     Edge 18, Type (0, 1), BuildingBlock: OJICUG_clean_linker_0, # of connection points: 2
#     Edge 19, Type (0, 1), BuildingBlock: OJICUG_clean_linker_0, # of connection points: 2
#     Edge 20, Type (0, 1), BuildingBlock: OJICUG_clean_linker_0, # of connection points: 2
#     Edge 21, Type (0, 1), BuildingBlock: OJICUG_clean_linker_0, # of connection points: 2
#     Edge 22, Type (0, 1), BuildingBlock: OJICUG_clean_linker_0, # of connection points: 2
#     Edge 23, Type (0, 1), BuildingBlock: OJICUG_clean_linker_0, # of connection points: 2
#     Edge 24, Type (0, 1), BuildingBlock: OJICUG_clean_linker_0, # of connection points: 2
#     Edge 25, Type (0, 1), BuildingBlock: OJICUG_clean_linker_0, # of connection points: 2
#     Edge 26, Type (0, 1), BuildingBlock: OJICUG_clean_linker_0, # of connection points: 2
#     Edge 27, Type (0, 1), BuildingBlock: OJICUG_clean_linker_0, # of connection points: 2
#     Edge 28, Type (0, 1), BuildingBlock: OJICUG_clean_linker_0, # of connection points: 2
#     Edge 29, Type (0, 1), BuildingBlock: OJICUG_clean_linker_0, # of connection points: 2
#     Edge 30, Type (0, 1), BuildingBlock: OJICUG_clean_linker_0, # of connection points: 2
#     Edge 31, Type (0, 1), BuildingBlock: OJICUG_clean_linker_0, # of connection points: 2
#     Edge 32, Type (0, 1), BuildingBlock: OJICUG_clean_linker_0, # of connection points: 2
#     Edge 33, Type (0, 1), BuildingBlock: OJICUG_clean_linker_0, # of connection points: 2
#     Edge 34, Type (0, 1), BuildingBlock: OJICUG_clean_linker_0, # of connection points: 2
#     Edge 35, Type (0, 1), BuildingBlock: OJICUG_clean_linker_0, # of connection points: 2
#     Edge 36, Type (0, 1), BuildingBlock: OJICUG_clean_linker_0, # of connection points: 2
#     Edge 37, Type (0, 1), BuildingBlock: OJICUG_clean_linker_0, # of connection points: 2
#     Edge 38, Type (0, 1), BuildingBlock: OJICUG_clean_linker_0, # of connection points: 2
#     Edge 39, Type (0, 1), BuildingBlock: OJICUG_clean_linker_0, # of connection points: 2
#     Edge 40, Type (0, 1), BuildingBlock: OJICUG_clean_linker_0, # of connection points: 2
#     Edge 41, Type (0, 1), BuildingBlock: OJICUG_clean_linker_0, # of connection points: 2
#     Edge 42, Type (0, 1), BuildingBlock: OJICUG_clean_linker_0, # of connection points: 2
#     Edge 43, Type (0, 1), BuildingBlock: OJICUG_clean_linker_0, # of connection points: 2
#     Edge 44, Type (0, 1), BuildingBlock: OJICUG_clean_linker_0, # of connection points: 2
#     Edge 45, Type (0, 1), BuildingBlock: OJICUG_clean_linker_0, # of connection points: 2
#     Edge 46, Type (0, 1), BuildingBlock: OJICUG_clean_linker_0, # of connection points: 2
#     Edge 47, Type (0, 1), BuildingBlock: OJICUG_clean_linker_0, # of connection points: 2
#     Edge 48, Type (0, 1), BuildingBlock: OJICUG_clean_linker_0, # of connection points: 2
#     Edge 49, Type (0, 1), BuildingBlock: OJICUG_clean_linker_0, # of connection points: 2
#     Edge 50, Type (0, 1), BuildingBlock: OJICUG_clean_linker_0, # of connection points: 2
#     Edge 51, Type (0, 1), BuildingBlock: OJICUG_clean_linker_0, # of connection points: 2
#     Edge 52, Type (0, 1), BuildingBlock: OJICUG_clean_linker_0, # of connection points: 2
#     Edge 53, Type (0, 1), BuildingBlock: OJICUG_clean_linker_0, # of connection points: 2
#     Edge 54, Type (0, 1), BuildingBlock: OJICUG_clean_linker_0, # of connection points: 2
#     Edge 55, Type (0, 1), BuildingBlock: OJICUG_clean_linker_0, # of connection points: 2
#     Edge 56, Type (0, 1), BuildingBlock: OJICUG_clean_linker_0, # of connection points: 2
#     Edge 57, Type (0, 1), BuildingBlock: OJICUG_clean_linker_0, # of connection points: 2
#     Edge 58, Type (0, 1), BuildingBlock: OJICUG_clean_linker_0, # of connection points: 2
#     Edge 59, Type (0, 1), BuildingBlock: OJICUG_clean_linker_0, # of connection points: 2
#     Edge 60, Type (0, 1), BuildingBlock: OJICUG_clean_linker_0, # of connection points: 2
#     Edge 61, Type (0, 1), BuildingBlock: OJICUG_clean_linker_0, # of connection points: 2
# Relax obj value: 0.154
# Max RMSD: 0.302
# Mean RMSD: 0.175
data_MOF--net-ocu--node1-VOLQOD_clean_sbu_1--node2-VETTIZ_charged_sbu_0--edge1-OJICUG_clean_linker_0
_symmetry_space_group_name_H-M    P1
_symmetry_Int_Tables_number       1
_symmetry_cell_setting            triclinic
loop_
_symmetry_equiv_pos_as_xyz
'x, y, z'
_cell_length_a     29.242395
_cell_length_b     29.47894
_cell_length_c     29.638479
_cell_angle_alpha  90.079368
_cell_angle_beta   89.897252
_cell_angle_gamma 89.846466
loop_
_atom_site_label
_atom_site_type_symbol
_atom_site_fract_x
_atom_site_fract_y
_atom_site_fract_z
_atom_type_partial_charge
O0 O 0.34156 0.32142 0.23707 0.0
Zn1 Zn 0.30432 0.28279 0.28161 0.0
O2 O 0.26314 0.24514 0.24526 0.0
Zn3 Zn 0.20306 0.26595 0.25723 0.0
Zn4 Zn 0.26998 0.25058 0.18121 0.0
Zn5 Zn 0.26541 0.18207 0.26215 0.0
O6 O 0.1745 0.2292 0.30461 0.0
O7 O 0.20472 0.16206 0.28741 0.0
O8 O 0.26547 0.32783 0.32072 0.0
O9 O 0.20354 0.32893 0.27786 0.0
O10 O 0.16167 0.26659 0.20514 0.0
O11 O 0.21122 0.26833 0.14879 0.0
O12 O 0.29656 0.19356 0.15707 0.0
O13 O 0.34604 0.24005 0.32061 0.0
O14 O 0.29221 0.14282 0.21218 0.0
O15 O 0.31011 0.17404 0.31195 0.0
C16 C 0.34167 0.32332 0.19391 0.0
C17 C 0.1755 0.1864 0.30857 0.0
C18 C 0.17044 0.27199 0.16366 0.0
C19 C 0.22735 0.34599 0.30913 0.0
C20 C 0.30432 0.15396 0.17239 0.0
C21 C 0.34116 0.19785 0.33017 0.0
O22 O 0.31597 0.29848 0.16976 0.0
O23 O 0.77335 0.18128 0.17857 0.0
Zn24 Zn 0.81348 0.22119 0.22106 0.0
O25 O 0.77302 0.25325 0.26481 0.0
Zn26 Zn 0.77354 0.3189 0.25853 0.0
Zn27 Zn 0.71053 0.23485 0.25751 0.0
Zn28 Zn 0.79031 0.24055 0.32602 0.0
O29 O 0.80592 0.35101 0.3092 0.0
O30 O 0.81878 0.29336 0.35519 0.0
O31 O 0.84494 0.27001 0.1809 0.0
O32 O 0.80843 0.3327 0.20341 0.0
O33 O 0.71166 0.34634 0.24753 0.0
O34 O 0.67248 0.28416 0.23198 0.0
O35 O 0.68187 0.21599 0.31531 0.0
O36 O 0.85923 0.17881 0.25656 0.0
O37 O 0.73884 0.21969 0.36441 0.0
O38 O 0.83633 0.19218 0.32709 0.0
C39 C 0.73145 0.16918 0.18212 0.0
C40 C 0.82267 0.33505 0.34543 0.0
C41 C 0.67589 0.32703 0.23267 0.0
C42 C 0.83578 0.31241 0.17683 0.0
C43 C 0.69731 0.21175 0.35511 0.0
C44 C 0.86176 0.17141 0.29918 0.0
O45 O 0.70593 0.18508 0.21313 0.0
O46 O 0.70429 0.68104 0.23702 0.0
Zn47 Zn 0.74501 0.72052 0.27828 0.0
O48 O 0.77733 0.76679 0.24102 0.0
Zn49 Zn 0.84431 0.76144 0.2417 0.0
Zn50 Zn 0.75912 0.76109 0.17884 0.0
Zn51 Zn 0.76263 0.82734 0.26089 0.0
O52 O 0.87714 0.81493 0.27233 0.0
O53 O 0.81728 0.85949 0.28462 0.0
O54 O 0.79391 0.67743 0.30515 0.0
O55 O 0.85772 0.70845 0.27837 0.0
O56 O 0.87185 0.7387 0.18279 0.0
O57 O 0.80844 0.7302 0.143 0.0
O58 O 0.73849 0.82033 0.15294 0.0
O59 O 0.7042 0.75256 0.32787 0.0
O60 O 0.73157 0.86438 0.21335 0.0
O61 O 0.71999 0.82464 0.31236 0.0
C62 C 0.691 0.68674 0.19632 0.0
C63 C 0.85984 0.85139 0.28837 0.0
C64 C 0.85105 0.72315 0.14834 0.0
C65 C 0.83742 0.67739 0.29998 0.0
C66 C 0.72582 0.85736 0.17143 0.0
C67 C 0.69934 0.79512 0.33586 0.0
O68 O 0.70657 0.71872 0.17214 0.0
O69 O 0.32856 0.78838 0.33117 0.0
Zn70 Zn 0.2959 0.73652 0.30011 0.0
O71 O 0.25676 0.76176 0.25247 0.0
Zn72 Zn 0.19686 0.73794 0.26264 0.0
Zn73 Zn 0.25467 0.8276 0.25187 0.0
Zn74 Zn 0.2746 0.74308 0.19396 0.0
O75 O 0.16479 0.72008 0.20652 0.0
O76 O 0.22404 0.71365 0.16029 0.0
O77 O 0.2579 0.70057 0.34602 0.0
O78 O 0.19832 0.68399 0.30274 0.0
O79 O 0.16049 0.7833 0.29581 0.0
O80 O 0.19483 0.84856 0.27957 0.0
O81 O 0.27336 0.85677 0.19152 0.0
O82 O 0.34435 0.69472 0.27196 0.0
O83 O 0.29729 0.7942 0.15756 0.0
O84 O 0.32619 0.70138 0.19924 0.0
C85 C 0.32859 0.83097 0.32348 0.0
C86 C 0.18167 0.7089 0.16861 0.0
C87 C 0.16286 0.82616 0.29877 0.0
C88 C 0.22155 0.67798 0.33838 0.0
C89 C 0.29386 0.83709 0.15879 0.0
C90 C 0.35113 0.68543 0.23042 0.0
O91 O 0.30289 0.84892 0.29389 0.0
O92 O 0.24244 0.67476 0.68863 0.0
Zn93 Zn 0.28513 0.71601 0.72569 0.0
O94 O 0.24819 0.75989 0.76241 0.0
Zn95 Zn 0.26128 0.82122 0.74551 0.0
Zn96 Zn 0.18294 0.74974 0.75504 0.0
Zn97 Zn 0.26206 0.75589 0.82578 0.0
O98 O 0.29751 0.85562 0.79173 0.0
O99 O 0.28462 0.81546 0.85355 0.0
O100 O 0.3234 0.7504 0.67868 0.0
O101 O 0.29822 0.82066 0.69026 0.0
O102 O 0.20504 0.85472 0.72898 0.0
O103 O 0.14748 0.80655 0.73629 0.0
O104 O 0.1569 0.71513 0.80847 0.0
O105 O 0.32934 0.68009 0.76651 0.0
O106 O 0.21225 0.72131 0.85935 0.0
O107 O 0.31581 0.71604 0.83117 0.0
C108 C 0.19967 0.67985 0.68132 0.0
C109 C 0.30203 0.85004 0.834 0.0
C110 C 0.16275 0.84555 0.72539 0.0
C111 C 0.32162 0.79222 0.66778 0.0
C112 C 0.1735 0.70561 0.84712 0.0
C113 C 0.3386 0.68761 0.80799 0.0
O114 O 0.17568 0.70847 0.70306 0.0
O115 O 0.18573 0.17826 0.74717 0.0
Zn116 Zn 0.21916 0.21922 0.79271 0.0
O117 O 0.25629 0.26597 0.7608 0.0
Zn118 Zn 0.32216 0.25998 0.76975 0.0
Zn119 Zn 0.24232 0.26444 0.69717 0.0
Zn120 Zn 0.24205 0.32502 0.78355 0.0
O121 O 0.35401 0.31477 0.80003 0.0
O122 O 0.2919 0.3538 0.81755 0.0
O123 O 0.26116 0.18287 0.83439 0.0
O124 O 0.32857 0.2135 0.81689 0.0
O125 O 0.3531 0.23607 0.71271 0.0
O126 O 0.29635 0.23885 0.66275 0.0
O127 O 0.22023 0.32583 0.67524 0.0
O128 O 0.17038 0.24963 0.83311 0.0
O129 O 0.21873 0.36677 0.73818 0.0
O130 O 0.19139 0.3214 0.8246 0.0
C131 C 0.17485 0.18642 0.70621 0.0
C132 C 0.33467 0.34766 0.82075 0.0
C133 C 0.33738 0.22849 0.6732 0.0
C134 C 0.30428 0.18644 0.84006 0.0
C135 C 0.21116 0.36248 0.69646 0.0
C136 C 0.16512 0.29186 0.84106 0.0
O137 O 0.19138 0.22022 0.68507 0.0
O138 O 0.8138 0.26523 0.80619 0.0
Zn139 Zn 0.77504 0.23064 0.76013 0.0
O140 O 0.74069 0.27401 0.72116 0.0
Zn141 Zn 0.67605 0.26828 0.73222 0.0
Zn142 Zn 0.75997 0.33533 0.73138 0.0
Zn143 Zn 0.74969 0.26299 0.6577 0.0
O144 O 0.64164 0.24355 0.67941 0.0
O145 O 0.69801 0.22458 0.63282 0.0
O146 O 0.73141 0.18599 0.79307 0.0
O147 O 0.66547 0.21949 0.77703 0.0
O148 O 0.64934 0.32483 0.75912 0.0
O149 O 0.70936 0.37099 0.76068 0.0
O150 O 0.78755 0.36489 0.6761 0.0
O151 O 0.82188 0.19763 0.72089 0.0
O152 O 0.77051 0.31723 0.62073 0.0
O153 O 0.80471 0.22638 0.65366 0.0
C154 C 0.82702 0.30641 0.80427 0.0
C155 C 0.65648 0.22114 0.64565 0.0
C156 C 0.66775 0.36231 0.77022 0.0
C157 C 0.68786 0.1884 0.79685 0.0
C158 C 0.78938 0.35365 0.63462 0.0
C159 C 0.83038 0.20301 0.67897 0.0
O160 O 0.81011 0.33419 0.77607 0.0
O161 O 0.83189 0.81903 0.72667 0.0
Zn162 Zn 0.79682 0.78766 0.77672 0.0
O163 O 0.75321 0.74354 0.74967 0.0
Zn164 Zn 0.69138 0.75543 0.76898 0.0
Zn165 Zn 0.75427 0.74463 0.6844 0.0
Zn166 Zn 0.76831 0.68332 0.76763 0.0
O167 O 0.6601 0.70206 0.79926 0.0
O168 O 0.71928 0.65518 0.80359 0.0
O169 O 0.76415 0.83164 0.81961 0.0
O170 O 0.69505 0.80023 0.81785 0.0
O171 O 0.65525 0.78564 0.71955 0.0
O172 O 0.6991 0.77787 0.65875 0.0
O173 O 0.76954 0.6837 0.65632 0.0
O174 O 0.84535 0.75558 0.81433 0.0
O175 O 0.7884 0.64449 0.71715 0.0
O176 O 0.82255 0.68439 0.80547 0.0
C177 C 0.83424 0.80961 0.68466 0.0
C178 C 0.6783 0.6655 0.8136 0.0
C179 C 0.66316 0.79332 0.67792 0.0
C180 C 0.72322 0.82845 0.83421 0.0
C181 C 0.78741 0.64873 0.67464 0.0
C182 C 0.85028 0.71326 0.8211 0.0
O183 O 0.8073 0.78146 0.66628 0.0
Fe184 Fe 0.01501 0.05927 0.50842 0.0
O185 O 0.97406 0.00906 0.52847 0.0
Fe186 Fe 0.121 0.00451 0.50473 0.0
Fe187 Fe 0.90849 0.0075 0.51403 0.0
O188 O 0.05573 0.00821 0.48963 0.0
O189 O 0.05557 0.00361 0.48943 0.0
O190 O 0.97385 0.00415 0.52806 0.0
Fe191 Fe 0.01351 0.95328 0.5069 0.0
C192 C 0.93307 0.09549 0.56147 0.0
O193 O 0.98536 0.06047 0.44482 0.0
O194 O 0.91201 0.05661 0.46449 0.0
O195 O 0.06105 0.90757 0.47896 0.0
O196 O 0.12084 0.95399 0.45788 0.0
O197 O 0.12242 0.05637 0.45966 0.0
O198 O 0.06353 0.10412 0.48172 0.0
O199 O 0.911 0.95895 0.46402 0.0
O200 O 0.98409 0.95381 0.44353 0.0
C201 C 0.09844 0.09323 0.4565 0.0
O202 O 0.04222 0.94893 0.5702 0.0
O203 O 0.11626 0.95531 0.5535 0.0
O204 O 0.96673 0.10534 0.53428 0.0
O205 O 0.90907 0.05865 0.56028 0.0
C206 C 0.94311 0.06576 0.43578 0.0
C207 C 0.94173 0.94894 0.43518 0.0
C208 C 0.93027 0.91748 0.5585 0.0
O209 O 0.90774 0.95536 0.55917 0.0
O210 O 0.96417 0.90776 0.53149 0.0
C211 C 0.09548 0.91837 0.45311 0.0
O212 O 0.11841 0.05312 0.55469 0.0
O213 O 0.0447 0.06283 0.57167 0.0
C214 C 0.08415 0.94454 0.58041 0.0
C215 C 0.08697 0.06717 0.58092 0.0
Fe216 Fe 0.51725 0.90622 -0.00053 0.0
O217 O 0.52226 0.9715 0.98754 0.0
Fe218 Fe 0.46225 0.01293 0.00162 0.0
Fe219 Fe 0.57617 0.01226 -0.00183 0.0
O220 O 0.51544 0.9709 0.00589 0.0
O221 O 0.51545 0.05393 0.98957 0.0
O222 O 0.52311 0.05382 0.00705 0.0
Fe223 Fe 0.52154 0.11858 0.00445 0.0
C224 C 0.58294 0.94162 0.07265 0.0
O225 O 0.57436 0.90551 0.9575 0.0
O226 O 0.6223 0.96328 0.97819 0.0
O227 O 0.46283 0.1212 0.96512 0.0
O228 O 0.41556 0.0628 0.98553 0.0
O229 O 0.45256 0.98367 0.937 0.0
O230 O 0.47067 0.90877 0.94758 0.0
O231 O 0.58188 0.04327 0.93419 0.0
O232 O 0.56427 0.11784 0.9488 0.0
C233 C 0.44813 0.94075 0.92781 0.0
O234 O 0.47755 0.11416 0.05863 0.0
O235 O 0.46491 0.03895 0.06747 0.0
O236 O 0.56321 0.90893 0.05159 0.0
O237 O 0.57727 0.98387 0.06304 0.0
C238 C 0.61368 0.92557 0.95791 0.0
C239 C 0.58248 0.08621 0.92439 0.0
C240 C 0.61767 0.09247 0.04439 0.0
O241 O 0.62536 0.05766 0.01943 0.0
O242 O 0.57913 0.11367 0.04567 0.0
C243 C 0.42368 0.10078 0.9655 0.0
O244 O 0.41455 0.96717 0.02389 0.0
O245 O 0.46059 0.9078 0.04245 0.0
C246 C 0.45793 0.08063 0.07849 0.0
C247 C 0.42215 0.92934 0.04388 0.0
Fe248 Fe 0.0072 0.54874 -0.0009 0.0
O249 O 0.96894 0.50124 0.96965 0.0
Fe250 Fe 0.10543 0.48907 0.02864 0.0
Fe251 Fe 0.90206 0.50359 0.9682 0.0
O252 O 0.03838 0.49593 0.0282 0.0
O253 O 0.0384 0.49128 0.0275 0.0
O254 O 0.96884 0.49684 0.96924 0.0
Fe255 Fe 0.00078 0.44381 -0.00317 0.0
C256 C 0.92198 0.56902 0.04785 0.0
O257 O 0.97025 0.5978 0.96388 0.0
O258 O 0.91615 0.55649 0.92435 0.0
O259 O 0.04463 0.44066 0.94306 0.0
O260 O 0.11006 0.43892 0.98053 0.0
O261 O 0.11727 0.53959 0.98131 0.0
O262 O 0.05156 0.54747 0.94514 0.0
O263 O 0.90828 0.4503 0.92357 0.0
O264 O 0.95698 0.4007 0.96033 0.0
C265 C 0.09379 0.55659 0.94931 0.0
O266 O 0.03923 0.39426 0.03062 0.0
O267 O 0.09222 0.43538 0.07169 0.0
O268 O 0.96285 0.55502 0.05283 0.0
O269 O 0.89702 0.55451 0.01581 0.0
C270 C 0.94033 0.59279 0.93193 0.0
C271 C 0.9272 0.41081 0.92927 0.0
C272 C 0.91485 0.43668 0.04825 0.0
O273 O 0.89038 0.45374 0.01684 0.0
O274 O 0.9575 0.4436 0.05064 0.0
C275 C 0.085 0.42569 0.94808 0.0
O276 O 0.09971 0.54265 0.07282 0.0
O277 O 0.05141 0.59133 0.03414 0.0
C278 C 0.06975 0.39849 0.06225 0.0
C279 C 0.08193 0.58224 0.06463 0.0
Fe280 Fe 0.5114 0.51041 0.9666 0.0
O281 O 0.54651 0.47809 0.0148 0.0
Fe282 Fe 0.41073 0.54085 0.022 0.0
Fe283 Fe 0.61372 0.47612 0.01779 0.0
O284 O 0.47746 0.53824 0.01814 0.0
O285 O 0.47766 0.53829 0.02236 0.0
O286 O 0.54686 0.47836 0.01907 0.0
Fe287 Fe 0.51277 0.5063 0.07034 0.0
C288 C 0.58435 0.44696 0.92331 0.0
O289 O 0.55602 0.56404 0.96692 0.0
O290 O 0.62232 0.52719 0.97165 0.0
O291 O 0.47302 0.53995 0.11861 0.0
O292 O 0.42271 0.5832 0.07647 0.0
O293 O 0.42008 0.5866 0.96988 0.0
O294 O 0.47003 0.54829 0.92252 0.0
O295 O 0.62238 0.52161 0.07096 0.0
O296 O 0.55712 0.56011 0.07376 0.0
C297 C 0.44 0.57988 0.9311 0.0
O298 O 0.46838 0.45267 0.0696 0.0
O299 O 0.40272 0.49088 0.07055 0.0
O300 O 0.55218 0.47719 0.919 0.0
O301 O 0.60494 0.43615 0.9608 0.0
C302 C 0.59826 0.56024 0.95745 0.0
C303 C 0.59901 0.55575 0.08403 0.0
C304 C 0.58223 0.4359 0.10609 0.0
O305 O 0.6028 0.42874 0.06779 0.0
O306 O 0.55355 0.46862 0.11441 0.0
C307 C 0.44429 0.57322 0.11356 0.0
O308 O 0.40084 0.49369 0.97097 0.0
O309 O 0.46682 0.45683 0.96234 0.0
C310 C 0.42664 0.45621 0.08076 0.0
C311 C 0.42429 0.46099 0.95451 0.0
Fe312 Fe 0.03986 0.40726 0.50244 0.0
O313 O 0.04492 0.47371 0.50474 0.0
Fe314 Fe 0.02665 0.50972 0.44643 0.0
Fe315 Fe 0.01238 0.51183 0.55049 0.0
O316 O 0.04594 0.47375 0.50012 0.0
O317 O 0.99469 0.54798 0.49234 0.0
O318 O 0.9937 0.54794 0.49678 0.0
Fe319 Fe 0.99874 0.6143 0.49449 0.0
C320 C 0.94897 0.43133 0.55005 0.0
O321 O 0.07746 0.41407 0.5592 0.0
O322 O 0.04016 0.46945 0.60068 0.0
O323 O 0.05563 0.61787 0.45326 0.0
O324 O 0.08498 0.54802 0.4506 0.0
O325 O 0.06641 0.46449 0.40641 0.0
O326 O 0.09336 0.41229 0.45802 0.0
O327 O 0.07064 0.55007 0.55862 0.0
O328 O 0.04131 0.61904 0.54948 0.0
C329 C 0.0962 0.43425 0.42024 0.0
O330 O 0.96028 0.60709 0.43779 0.0
O331 O 0.99814 0.55203 0.39625 0.0
O332 O 0.98198 0.40376 0.54323 0.0
O333 O 0.9537 0.47386 0.54532 0.0
C334 C 0.07235 0.43929 0.59459 0.0
C335 C 0.07299 0.59282 0.56322 0.0
C336 C 0.94174 0.58538 0.57563 0.0
O337 O 0.97192 0.55609 0.59031 0.0
O338 O 0.94572 0.60858 0.53878 0.0
C339 C 0.08875 0.59067 0.4459 0.0
O340 O 0.96839 0.47196 0.43986 0.0
O341 O 0.99835 0.40312 0.44719 0.0
C342 C 0.96616 0.58256 0.40201 0.0
C343 C 0.96579 0.42927 0.43598 0.0
Fe344 Fe 0.50739 0.94717 0.5037 0.0
O345 O 0.47591 0.99702 0.53807 0.0
Fe346 Fe 0.54327 0.00454 0.40611 0.0
Fe347 Fe 0.47159 -0.00122 0.60413 0.0
O348 O 0.53866 -0.00166 0.47212 0.0
O349 O 0.53716 0.00271 0.47151 0.0
O350 O 0.47467 0.00182 0.53767 0.0
Fe351 Fe 0.50762 0.05226 0.50696 0.0
C352 C 0.43583 0.90746 0.57013 0.0
O353 O 0.55977 0.94259 0.54972 0.0
O354 O 0.5199 0.94843 0.61343 0.0
O355 O 0.54753 0.09858 0.47146 0.0
O356 O 0.58986 0.05436 0.422 0.0
O357 O 0.58538 0.94815 0.41432 0.0
O358 O 0.54495 0.9013 0.46252 0.0
O359 O 0.52009 0.04944 0.61505 0.0
O360 O 0.55993 0.04735 0.55203 0.0
C361 C 0.57745 0.90913 0.43326 0.0
O362 O 0.45556 0.05975 0.46085 0.0
O363 O 0.49733 0.05835 0.3981 0.0
O364 O 0.469 0.90044 0.54148 0.0
O365 O 0.42768 0.9453 0.59153 0.0
C366 C 0.55376 0.93285 0.59112 0.0
C367 C 0.55463 0.06176 0.59183 0.0
C368 C 0.43809 0.09192 0.57672 0.0
O369 O 0.42732 0.05294 0.59427 0.0
O370 O 0.4719 0.09851 0.54876 0.0
C371 C 0.58198 0.09141 0.44463 0.0
O372 O 0.49166 0.95867 0.39283 0.0
O373 O 0.45516 0.94798 0.45833 0.0
C374 C 0.46256 0.07226 0.42035 0.0
C375 C 0.45785 0.94405 0.41578 0.0
C376 C 0.13172 0.18983 0.38084 0.0
C377 C 0.14634 0.16514 0.34262 0.0
H378 H 0.10466 0.18593 0.44829 0.0
C379 C 0.1377 0.11866 0.33989 0.0
H380 H 0.13785 0.22596 0.38346 0.0
C381 C 0.11865 0.09635 0.37639 0.0
C382 C 0.10847 0.12003 0.41638 0.0
H383 H 0.14776 0.09914 0.31048 0.0
H384 H 0.11416 0.05991 0.3742 0.0
C385 C 0.11281 0.16721 0.41783 0.0
C386 C 0.93476 0.1448 0.33443 0.0
C387 C 0.89031 0.13514 0.31903 0.0
H388 H 0.98724 0.12957 0.38316 0.0
C389 C 0.86709 0.09807 0.33782 0.0
H390 H 0.95279 0.1742 0.32173 0.0
C391 C 0.88569 0.07406 0.37404 0.0
C392 C 0.92862 0.08562 0.39184 0.0
H393 H 0.83228 0.09073 0.32768 0.0
H394 H 0.86499 0.04831 0.39004 0.0
C395 C 0.95414 0.11969 0.37011 0.0
C396 C 0.93086 0.87028 0.33382 0.0
C397 C 0.8867 0.88177 0.31851 0.0
H398 H 0.98378 0.88328 0.38269 0.0
C399 C 0.86467 0.91956 0.33795 0.0
H400 H 0.94884 0.8414 0.31968 0.0
C401 C 0.8839 0.94232 0.3744 0.0
C402 C 0.92646 0.92915 0.39176 0.0
H403 H 0.83091 0.92997 0.32702 0.0
H404 H 0.8643 0.96906 0.39038 0.0
C405 C 0.95082 0.89415 0.36996 0.0
C406 C 0.13283 0.89633 0.33423 0.0
C407 C 0.13424 0.84897 0.33286 0.0
H408 H 0.11859 0.95506 0.37352 0.0
C409 C 0.11539 0.824 0.36904 0.0
H410 H 0.14632 0.91642 0.30668 0.0
C411 C 0.09996 0.84622 0.40799 0.0
C412 C 0.10336 0.89343 0.41088 0.0
H413 H 0.11585 0.78725 0.3688 0.0
H414 H 0.0884 0.8265 0.43662 0.0
C415 C 0.11741 0.91831 0.37279 0.0
C416 C 0.15476 0.91759 0.68259 0.0
C417 C 0.13451 0.87727 0.69819 0.0
H418 H 0.15566 0.96886 0.63191 0.0
C419 C 0.09243 0.86377 0.67943 0.0
H420 H 0.18683 0.92953 0.69641 0.0
C421 C 0.07357 0.88778 0.64295 0.0
C422 C 0.09714 0.92481 0.62431 0.0
H423 H 0.07589 0.83292 0.69058 0.0
H424 H 0.04265 0.87527 0.62721 0.0
C425 C 0.13689 0.94037 0.64552 0.0
C426 C 0.11492 0.172 0.64783 0.0
C427 C 0.1451 0.15488 0.68063 0.0
H428 H 0.07131 0.157 0.59154 0.0
C429 C 0.15076 0.10769 0.68429 0.0
H430 H 0.10998 0.20825 0.64419 0.0
C431 C 0.12944 0.07851 0.65338 0.0
C432 C 0.10092 0.09588 0.61939 0.0
H433 H 0.17409 0.09358 0.70894 0.0
H434 H 0.13665 0.04258 0.65496 0.0
C435 C 0.09258 0.14273 0.61788 0.0
C436 C 0.88767 0.19955 0.61747 0.0
C437 C 0.86888 0.18019 0.65684 0.0
H438 H 0.92394 0.18736 0.55565 0.0
C439 C 0.88103 0.13607 0.66911 0.0
H440 H 0.87934 0.23407 0.60789 0.0
C441 C 0.9064 0.10962 0.6392 0.0
C442 C 0.92003 0.12724 0.59713 0.0
H443 H 0.86727 0.12067 0.69938 0.0
H444 H 0.91223 0.07424 0.64735 0.0
C445 C 0.91332 0.17314 0.58769 0.0
C446 C 0.88607 0.87455 0.66842 0.0
C447 C 0.86713 0.83305 0.65524 0.0
H448 H 0.92191 0.93387 0.6471 0.0
C449 C 0.87665 0.81582 0.61176 0.0
H450 H 0.87969 0.88841 0.70172 0.0
C451 C 0.90135 0.84159 0.58071 0.0
C452 C 0.91633 0.88485 0.59281 0.0
H453 H 0.86313 0.7834 0.60099 0.0
H454 H 0.90564 0.82923 0.54651 0.0
C455 C 0.91024 0.90041 0.63726 0.0
C456 C 0.36472 0.09274 0.16746 0.0
C457 C 0.33621 0.125 0.14624 0.0
H458 H 0.4265 0.05268 0.16243 0.0
C459 C 0.34527 0.13695 0.10136 0.0
H460 H 0.35868 0.08296 0.20216 0.0
C461 C 0.38443 0.12137 0.07992 0.0
C462 C 0.41495 0.09209 0.10198 0.0
H463 H 0.32387 0.16119 0.08374 0.0
H464 H 0.39164 0.13384 0.04636 0.0
C465 C 0.40379 0.07592 0.14512 0.0
C466 C 0.90259 0.33835 0.13025 0.0
C467 C 0.85586 0.34028 0.14052 0.0
H468 H 0.95816 0.36832 0.09381 0.0
C469 C 0.82844 0.37343 0.11953 0.0
H470 H 0.9245 0.31352 0.14636 0.0
C471 C 0.84737 0.40452 0.08932 0.0
C472 C 0.89441 0.40388 0.08026 0.0
H473 H 0.79221 0.37569 0.12701 0.0
H474 H 0.82536 0.42967 0.07386 0.0
C475 C 0.92181 0.37019 0.10072 0.0
C476 C 0.69214 0.88147 0.09869 0.0
C477 C 0.69649 0.88843 0.14524 0.0
H478 H 0.65212 0.89272 0.03995 0.0
C479 C 0.66674 0.91932 0.16701 0.0
H480 H 0.71475 0.85847 0.08076 0.0
C481 C 0.6306 0.93947 0.14317 0.0
C482 C 0.62401 0.92847 0.09769 0.0
H483 H 0.66937 0.92544 0.20295 0.0
H484 H 0.60641 0.96108 0.16076 0.0
C485 C 0.65611 0.90098 0.07533 0.0
C486 C 0.10624 0.67741 0.1447 0.0
C487 C 0.15321 0.6838 0.13642 0.0
H488 H 0.04606 0.63954 0.12745 0.0
C489 C 0.17425 0.66077 0.10041 0.0
H490 H 0.08909 0.69504 0.17202 0.0
C491 C 0.1499 0.6289 0.07585 0.0
C492 C 0.1041 0.62035 0.08632 0.0
H493 H 0.21025 0.66513 0.09295 0.0
H494 H 0.16732 0.60958 0.04981 0.0
C495 C 0.08164 0.64583 0.11946 0.0
C496 C 0.34233 0.87208 0.90512 0.0
C497 C 0.33378 0.88028 0.85933 0.0
H498 H 0.38496 0.88515 0.9619 0.0
C499 C 0.36022 0.9136 0.83698 0.0
H500 H 0.32275 0.8471 0.92363 0.0
C501 C 0.39629 0.93588 0.85932 0.0
C502 C 0.40656 0.92482 0.90414 0.0
H503 H 0.35456 0.9209 0.80163 0.0
H504 H 0.41745 0.95968 0.84097 0.0
C505 C 0.37822 0.89389 0.92705 0.0
C506 C 0.1516 0.32055 0.9162 0.0
C507 C 0.13284 0.30944 0.87426 0.0
H508 H 0.15393 0.36811 0.97011 0.0
C509 C 0.09462 0.33377 0.85861 0.0
H510 H 0.18208 0.30335 0.92815 0.0
C511 C 0.07769 0.37092 0.88309 0.0
C512 C 0.09987 0.385 0.92272 0.0
H513 H 0.08068 0.32679 0.82547 0.0
H514 H 0.04922 0.39017 0.86963 0.0
C515 C 0.13611 0.35854 0.93958 0.0
C516 C 0.68218 0.12231 0.85179 0.0
C517 C 0.66121 0.15564 0.82478 0.0
H518 H 0.67291 0.07249 0.90414 0.0
C519 C 0.61311 0.15939 0.82593 0.0
H520 H 0.71899 0.11821 0.85154 0.0
C521 C 0.58711 0.13343 0.85567 0.0
C522 C 0.60816 0.10225 0.88457 0.0
H523 H 0.59533 0.18401 0.80526 0.0
H524 H 0.5506 0.13952 0.85783 0.0
C525 C 0.65578 0.09571 0.88142 0.0
C526 C 0.8914 0.70351 0.89351 0.0
C527 C 0.88842 0.69492 0.84707 0.0
H528 H 0.91141 0.67655 0.95784 0.0
C529 C 0.91191 0.65778 0.82838 0.0
H530 H 0.87282 0.73159 0.90851 0.0
C531 C 0.93268 0.62608 0.8563 0.0
C532 C 0.93098 0.63176 0.90309 0.0
H533 H 0.90972 0.65058 0.79256 0.0
H534 H 0.94684 0.5954 0.84161 0.0
C535 C 0.91297 0.67191 0.92159 0.0
C536 C 0.13854 0.29493 0.08862 0.0
C537 C 0.13517 0.29425 0.13583 0.0
H538 H 0.11738 0.32767 0.02767 0.0
C539 C 0.10265 0.32241 0.15726 0.0
H540 H 0.16308 0.2735 0.07128 0.0
C541 C 0.07822 0.35448 0.13256 0.0
C542 C 0.0845 0.35757 0.08595 0.0
H543 H 0.09917 0.32284 0.19366 0.0
H544 H 0.05666 0.3787 0.15017 0.0
C545 C 0.11263 0.32597 0.06376 0.0
C546 C 0.10809 0.65198 0.86332 0.0
C547 C 0.15108 0.6699 0.87515 0.0
H548 H 0.05636 0.60219 0.87691 0.0
C549 C 0.17501 0.64962 0.91102 0.0
H550 H 0.08876 0.6664 0.83567 0.0
C551 C 0.15696 0.61218 0.93389 0.0
C552 C 0.11413 0.59402 0.92201 0.0
H553 H 0.20839 0.66194 0.9209 0.0
H554 H 0.17663 0.59773 0.96129 0.0
C555 C 0.08971 0.61473 0.88665 0.0
C556 C 0.32267 0.11792 0.88739 0.0
C557 C 0.32734 0.16433 0.87811 0.0
H558 H 0.35032 0.06068 0.92314 0.0
C559 C 0.35895 0.19017 0.90265 0.0
H560 H 0.29837 0.0975 0.86882 0.0
C561 C 0.38814 0.16961 0.93326 0.0
C562 C 0.3865 0.12262 0.94 0.0
H563 H 0.36249 0.22628 0.89669 0.0
H564 H 0.4134 0.19033 0.95021 0.0
C565 C 0.3523 0.09704 0.91833 0.0
C566 C 0.86372 0.31118 0.88096 0.0
C567 C 0.86183 0.32437 0.83544 0.0
H568 H 0.88722 0.32885 0.94753 0.0
C569 C 0.8893 0.36043 0.8206 0.0
H570 H 0.8428 0.2835 0.89316 0.0
C571 C 0.91435 0.38592 0.85125 0.0
C572 C 0.91278 0.37568 0.8973 0.0
H573 H 0.8891 0.37086 0.78555 0.0
H574 H 0.93248 0.41563 0.83935 0.0
C575 C 0.88915 0.33691 0.91193 0.0
C576 C 0.68168 0.83173 0.90598 0.0
C577 C 0.70691 0.8549 0.87299 0.0
H578 H 0.63249 0.83646 0.95903 0.0
C579 C 0.70756 0.9025 0.87318 0.0
H580 H 0.68098 0.79496 0.90657 0.0
C581 C 0.6796 0.92646 0.9036 0.0
C582 C 0.65083 0.9027 0.93339 0.0
H583 H 0.72652 0.92089 0.8477 0.0
H584 H 0.67777 0.9631 0.90141 0.0
C585 C 0.65377 0.85538 0.93577 0.0
C586 C 0.84939 0.67019 0.08241 0.0
C587 C 0.8734 0.68817 0.11934 0.0
H588 H 0.84495 0.61865 0.03219 0.0
C589 C 0.91464 0.66699 0.1323 0.0
H590 H 0.8175 0.6853 0.07139 0.0
C591 C 0.93049 0.62798 0.1097 0.0
C592 C 0.90529 0.60912 0.07389 0.0
H593 H 0.93381 0.67948 0.16095 0.0
H594 H 0.96208 0.61228 0.12067 0.0
C595 C 0.86492 0.63129 0.06023 0.0
C596 C 0.34584 0.83914 0.0921 0.0
C597 C 0.32017 0.86317 0.12461 0.0
H598 H 0.39841 0.84127 0.04196 0.0
C599 C 0.32505 0.91062 0.12705 0.0
H600 H 0.34291 0.80267 0.0887 0.0
C601 C 0.35673 0.93296 0.09914 0.0
C602 C 0.3845 0.90798 0.06923 0.0
H603 H 0.30592 0.93015 0.15168 0.0
H604 H 0.3612 0.96927 0.1026 0.0
C605 C 0.37793 0.86115 0.06528 0.0
C606 C 0.66607 0.12109 0.15808 0.0
C607 C 0.70858 0.14067 0.14739 0.0
H608 H 0.60437 0.09109 0.13364 0.0
C609 C 0.72389 0.1388 0.1023 0.0
H610 H 0.6533 0.12132 0.19242 0.0
C611 C 0.69555 0.12069 0.06834 0.0
C612 C 0.65158 0.10478 0.07916 0.0
H613 H 0.7563 0.15379 0.09289 0.0
H614 H 0.70683 0.12157 0.03352 0.0
C615 C 0.63785 0.10384 0.12441 0.0
C616 C 0.61241 0.65007 0.86649 0.0
C617 C 0.65496 0.6375 0.84798 0.0
H618 H 0.56095 0.63581 0.9163 0.0
C619 C 0.67838 0.60024 0.86643 0.0
H620 H 0.59371 0.67889 0.85331 0.0
C621 C 0.66053 0.57674 0.90291 0.0
C622 C 0.61821 0.58915 0.92178 0.0
H623 H 0.71129 0.5895 0.85333 0.0
H624 H 0.67992 0.54821 0.9158 0.0
C625 C 0.59401 0.62585 0.90295 0.0
C626 C 0.39291 0.68149 0.87169 0.0
C627 C 0.37437 0.66204 0.8324 0.0
H628 H 0.42846 0.6704 0.93364 0.0
C629 C 0.3851 0.61675 0.82185 0.0
H630 H 0.38602 0.71658 0.88038 0.0
C631 C 0.41028 0.59032 0.85248 0.0
C632 C 0.42453 0.60901 0.89384 0.0
H633 H 0.37126 0.60094 0.79185 0.0
H634 H 0.41541 0.55458 0.84551 0.0
C635 C 0.41732 0.65518 0.90223 0.0
C636 C 0.33653 0.41352 0.87368 0.0
C637 C 0.36001 0.3774 0.85272 0.0
H638 H 0.33756 0.46687 0.92216 0.0
C639 C 0.40536 0.36848 0.86589 0.0
H640 H 0.30158 0.42165 0.86467 0.0
C641 C 0.42635 0.39496 0.89953 0.0
C642 C 0.40226 0.43061 0.92082 0.0
H643 H 0.42434 0.34075 0.85077 0.0
H644 H 0.46138 0.38749 0.9088 0.0
C645 C 0.35716 0.43946 0.9072 0.0
C646 C 0.59676 0.38686 0.81134 0.0
C647 C 0.64414 0.39096 0.80389 0.0
H648 H 0.5402 0.40208 0.85543 0.0
C649 C 0.67046 0.41633 0.83447 0.0
H650 H 0.57569 0.36737 0.78842 0.0
C651 C 0.65057 0.43433 0.87326 0.0
C652 C 0.60383 0.42844 0.88164 0.0
H653 H 0.70706 0.4199 0.83002 0.0
H654 H 0.67188 0.45248 0.89708 0.0
C655 C 0.57657 0.40618 0.84972 0.0
C656 C 0.63936 0.4012 0.2135 0.0
C657 C 0.64237 0.35405 0.20731 0.0
H658 H 0.61625 0.46445 0.18594 0.0
C659 C 0.61887 0.33371 0.17122 0.0
H660 H 0.65711 0.41763 0.24108 0.0
C661 C 0.59681 0.36046 0.13928 0.0
C662 C 0.59662 0.40767 0.14387 0.0
H663 H 0.62067 0.29744 0.16548 0.0
H664 H 0.58179 0.34448 0.10989 0.0
C665 C 0.61605 0.42788 0.18214 0.0
C666 C 0.62875 0.66655 0.14225 0.0
C667 C 0.66214 0.65259 0.17344 0.0
H668 H 0.58199 0.64674 0.09007 0.0
C669 C 0.67309 0.60628 0.1764 0.0
H670 H 0.62012 0.70215 0.13891 0.0
C671 C 0.65265 0.57487 0.14719 0.0
C672 C 0.61999 0.589 0.1153 0.0
H673 H 0.6993 0.59472 0.19951 0.0
H674 H 0.66262 0.53952 0.14938 0.0
C675 C 0.60726 0.63496 0.11406 0.0
C676 C 0.41823 0.67573 0.1824 0.0
C677 C 0.38935 0.65718 0.21543 0.0
H678 H 0.45817 0.66277 0.12318 0.0
C679 C 0.38719 0.60998 0.22071 0.0
H680 H 0.41982 0.71214 0.17754 0.0
C681 C 0.40949 0.58168 0.18965 0.0
C682 C 0.4333 0.60074 0.15315 0.0
H683 H 0.3643 0.59513 0.24536 0.0
H684 H 0.40428 0.54536 0.1915 0.0
C685 C 0.43966 0.64766 0.15106 0.0
C686 C 0.36007 0.40357 0.17665 0.0
C687 C 0.36913 0.35733 0.17011 0.0
H688 H 0.37028 0.47121 0.15221 0.0
C689 C 0.39832 0.34372 0.13489 0.0
H690 H 0.33685 0.41461 0.20302 0.0
C691 C 0.41798 0.37596 0.10631 0.0
C692 C 0.40718 0.42207 0.11146 0.0
H693 H 0.405 0.30805 0.12887 0.0
H694 H 0.44023 0.36474 0.07921 0.0
C695 C 0.37852 0.4357 0.14717 0.0
C696 C 0.82218 0.62662 0.60114 0.0
C697 C 0.81929 0.62037 0.64784 0.0
H698 H 0.86288 0.62026 0.54202 0.0
C699 C 0.85413 0.59542 0.66974 0.0
H700 H 0.79585 0.64507 0.58312 0.0
C701 C 0.89349 0.58183 0.64625 0.0
C702 C 0.89841 0.59282 0.60054 0.0
H703 H 0.85291 0.58966 0.70581 0.0
H704 H 0.92098 0.56531 0.6644 0.0
C705 C 0.86119 0.61297 0.57779 0.0
C706 C 0.39553 0.80054 0.62585 0.0
C707 C 0.34882 0.81079 0.63036 0.0
H708 H 0.46075 0.82409 0.60187 0.0
C709 C 0.33028 0.84727 0.60597 0.0
H710 H 0.41057 0.7728 0.64467 0.0
C711 C 0.35868 0.87653 0.58224 0.0
C712 C 0.40599 0.8694 0.58195 0.0
H713 H 0.29424 0.8556 0.60867 0.0
H714 H 0.34409 0.90672 0.56712 0.0
C715 C 0.42414 0.82987 0.60154 0.0
C716 C 0.18936 0.41044 0.63169 0.0
C717 C 0.18087 0.39566 0.67551 0.0
H718 H 0.16087 0.43975 0.57248 0.0
C719 C 0.13881 0.40601 0.69657 0.0
H720 H 0.22165 0.40307 0.6152 0.0
C721 C 0.1033 0.42561 0.67175 0.0
C722 C 0.11042 0.43559 0.62625 0.0
H723 H 0.13184 0.39465 0.73065 0.0
H724 H 0.06957 0.42861 0.68664 0.0
C725 C 0.15459 0.43132 0.60754 0.0
C726 C 0.64259 0.15655 0.59174 0.0
C727 C 0.62805 0.18317 0.62847 0.0
H728 H 0.63132 0.09707 0.55171 0.0
C729 C 0.58957 0.16893 0.65335 0.0
H730 H 0.67233 0.16615 0.57215 0.0
C731 C 0.56696 0.12869 0.64255 0.0
C732 C 0.58161 0.10189 0.60607 0.0
H733 H 0.57764 0.18808 0.6823 0.0
H734 H 0.53759 0.11892 0.66259 0.0
C735 C 0.61945 0.11655 0.58047 0.0
C736 C 0.86297 0.40827 0.36217 0.0
C737 C 0.8529 0.36309 0.37367 0.0
H738 H 0.90698 0.46533 0.37358 0.0
C739 C 0.87672 0.34246 0.40934 0.0
H740 H 0.84499 0.42512 0.335 0.0
C741 C 0.9125 0.36486 0.43029 0.0
C742 C 0.92454 0.40877 0.41693 0.0
H743 H 0.86958 0.30791 0.41953 0.0
H744 H 0.93173 0.34718 0.45609 0.0
C745 C 0.89842 0.43119 0.38405 0.0
C746 C 0.68585 0.85054 0.39729 0.0
C747 C 0.66945 0.81341 0.37228 0.0
H748 H 0.66944 0.90951 0.43637 0.0
C749 C 0.62251 0.80314 0.37467 0.0
H750 H 0.72176 0.85951 0.39596 0.0
C751 C 0.59223 0.83207 0.39836 0.0
C752 C 0.60859 0.87164 0.41957 0.0
H753 H 0.60873 0.77534 0.35506 0.0
H754 H 0.55582 0.82563 0.39683 0.0
C755 C 0.65587 0.87937 0.42033 0.0
C756 C 0.18013 0.67381 0.411 0.0
C757 C 0.19968 0.65111 0.37403 0.0
H758 H 0.1288 0.67233 0.46278 0.0
C759 C 0.18726 0.60601 0.36524 0.0
H760 H 0.18843 0.709 0.41765 0.0
C761 C 0.15374 0.58477 0.39141 0.0
C762 C 0.13101 0.60899 0.42567 0.0
H763 H 0.20124 0.5883 0.33626 0.0
H764 H 0.143 0.5508 0.38237 0.0
C765 C 0.14565 0.65308 0.43635 0.0
C766 C 0.35739 0.14352 0.39278 0.0
C767 C 0.37403 0.17296 0.3592 0.0
H768 H 0.37217 0.08922 0.43881 0.0
C769 C 0.42044 0.17032 0.34727 0.0
H770 H 0.32151 0.14416 0.40195 0.0
C771 C 0.44908 0.13759 0.36709 0.0
C772 C 0.43214 0.10734 0.39992 0.0
H773 H 0.43393 0.1917 0.32072 0.0
H774 H 0.48445 0.13566 0.35634 0.0
C775 C 0.38626 0.11167 0.41347 0.0
C776 C 0.59682 0.84719 0.67655 0.0
C777 C 0.63344 0.82632 0.6537 0.0
H778 H 0.54414 0.89729 0.67548 0.0
C779 C 0.64405 0.84111 0.60972 0.0
H780 H 0.58768 0.83707 0.7105 0.0
C781 C 0.61893 0.87624 0.58945 0.0
C782 C 0.58282 0.89756 0.61281 0.0
H783 H 0.67226 0.82611 0.59121 0.0
H784 H 0.62781 0.88664 0.55551 0.0
C785 C 0.57205 0.88229 0.65652 0.0
C786 C 0.68709 0.15635 0.41672 0.0
C787 C 0.66829 0.19002 0.38885 0.0
H788 H 0.67325 0.09729 0.45647 0.0
C789 C 0.62074 0.19631 0.38746 0.0
H790 H 0.72371 0.15085 0.41806 0.0
C791 C 0.59213 0.16651 0.41038 0.0
C792 C 0.611 0.12973 0.43375 0.0
H793 H 0.60573 0.22224 0.36621 0.0
H794 H 0.55543 0.16964 0.40632 0.0
C795 C 0.65844 0.12575 0.43851 0.0
C796 C 0.91207 0.6364 0.30267 0.0
C797 C 0.86692 0.64153 0.31913 0.0
H798 H 0.97986 0.61187 0.31608 0.0
C799 C 0.85312 0.61613 0.35654 0.0
H800 H 0.92344 0.65461 0.27299 0.0
C801 C 0.88546 0.59086 0.38042 0.0
C802 C 0.93177 0.59071 0.36714 0.0
H803 H 0.81858 0.61885 0.36956 0.0
H804 H 0.87522 0.57511 0.41188 0.0
C805 C 0.94438 0.61125 0.32665 0.0
C806 C 0.37267 0.85125 0.39257 0.0
C807 C 0.36047 0.86058 0.34784 0.0
H808 H 0.41238 0.87154 0.44966 0.0
C809 C 0.37916 0.89861 0.32602 0.0
H810 H 0.35849 0.82226 0.41008 0.0
C811 C 0.41058 0.92622 0.34821 0.0
C812 C 0.42273 0.91696 0.39296 0.0
H813 H 0.37033 0.90635 0.29138 0.0
H814 H 0.42536 0.95476 0.33044 0.0
C815 C 0.40311 0.87962 0.4152 0.0
C816 C 0.20786 0.37982 0.38398 0.0
C817 C 0.20379 0.38066 0.33697 0.0
H818 H 0.17684 0.39639 0.44716 0.0
C819 C 0.16834 0.40669 0.31749 0.0
H820 H 0.23455 0.36006 0.39999 0.0
C821 C 0.1347 0.42713 0.34444 0.0
C822 C 0.13584 0.4217 0.39136 0.0
H823 H 0.16453 0.40818 0.28116 0.0
H824 H 0.10621 0.44418 0.32837 0.0
C825 C 0.17416 0.40006 0.4109 0.0
C826 C 0.41213 0.19872 0.64263 0.0
C827 C 0.36406 0.19941 0.64178 0.0
H828 H 0.47344 0.1648 0.62074 0.0
C829 C 0.34105 0.16737 0.61488 0.0
H830 H 0.43076 0.22277 0.6632 0.0
C831 C 0.36533 0.13344 0.59201 0.0
C832 C 0.41316 0.13185 0.59415 0.0
H833 H 0.30402 0.1666 0.61392 0.0
H834 H 0.34665 0.10754 0.5738 0.0
C835 C 0.43651 0.16564 0.61835 0.0
C836 C 0.83595 0.42215 0.6134 0.0
C837 C 0.82372 0.3767 0.60552 0.0
H838 H 0.88443 0.47534 0.6013 0.0
C839 C 0.85101 0.35067 0.57601 0.0
H840 H 0.81603 0.44292 0.63638 0.0
C841 C 0.89114 0.36864 0.55734 0.0
C842 C 0.90431 0.41354 0.56653 0.0
H843 H 0.8432 0.3153 0.56986 0.0
H844 H 0.91254 0.3469 0.5367 0.0
C845 C 0.87536 0.44059 0.59352 0.0
C846 C 0.17273 0.60804 0.64422 0.0
C847 C 0.17626 0.6555 0.64473 0.0
H848 H 0.13667 0.55039 0.61777 0.0
C849 C 0.14986 0.68116 0.61462 0.0
H850 H 0.19243 0.58769 0.66763 0.0
C851 C 0.11818 0.66028 0.58655 0.0
C852 C 0.11175 0.61313 0.5882 0.0
H853 H 0.15209 0.71787 0.61446 0.0
H854 H 0.09733 0.68147 0.56491 0.0
C855 C 0.14059 0.58688 0.616 0.0
loop_
_geom_bond_atom_site_label_1
_geom_bond_atom_site_label_2
_geom_bond_distance
_geom_bond_site_symmetry_2
_ccdc_geom_bond_type
O0 Zn1 1.953 . S
O0 C16 1.225 . S
Zn1 O0 1.953 . S
Zn1 O2 1.949 . S
Zn1 O8 1.919 . S
Zn1 O13 1.924 . S
O2 Zn1 1.949 . S
O2 Zn3 1.923 . S
O2 Zn4 1.950 . S
O2 Zn5 1.945 . S
Zn3 O2 1.923 . S
Zn3 O6 1.933 . S
Zn3 O9 1.941 . S
Zn3 O10 1.965 . S
Zn4 O2 1.950 . S
Zn4 O11 1.938 . S
Zn4 O12 1.906 . S
Zn4 O22 1.953 . S
Zn5 O2 1.945 . S
Zn5 O7 1.932 . S
Zn5 O14 1.977 . S
Zn5 O15 1.910 . S
O6 Zn3 1.933 . S
O6 C17 1.226 . S
O7 Zn5 1.932 . S
O7 C17 1.307 . S
O8 Zn1 1.919 . S
O8 C19 1.253 . S
O9 Zn3 1.941 . S
O9 C19 1.283 . S
O10 Zn3 1.965 . S
O10 C18 1.303 . S
O11 Zn4 1.938 . S
O11 C18 1.247 . S
O12 Zn4 1.906 . S
O12 C20 1.304 . S
O13 Zn1 1.924 . S
O13 C21 1.311 . S
O14 Zn5 1.977 . S
O14 C20 1.272 . S
O15 Zn5 1.910 . S
O15 C21 1.231 . S
C16 O0 1.225 . S
C16 O22 1.298 . S
C17 O6 1.226 . S
C17 O7 1.307 . S
C18 O10 1.303 . S
C18 O11 1.247 . S
C19 O8 1.253 . S
C19 O9 1.283 . S
C20 O12 1.304 . S
C20 O14 1.272 . S
C21 O13 1.311 . S
C21 O15 1.231 . S
O22 Zn4 1.953 . S
O22 C16 1.298 . S
O23 Zn24 1.953 . S
O23 C39 1.225 . S
Zn24 O23 1.953 . S
Zn24 O25 1.949 . S
Zn24 O31 1.919 . S
Zn24 O36 1.924 . S
O25 Zn24 1.949 . S
O25 Zn26 1.923 . S
O25 Zn27 1.950 . S
O25 Zn28 1.945 . S
Zn26 O25 1.923 . S
Zn26 O29 1.933 . S
Zn26 O32 1.941 . S
Zn26 O33 1.965 . S
Zn27 O25 1.950 . S
Zn27 O34 1.938 . S
Zn27 O35 1.906 . S
Zn27 O45 1.953 . S
Zn28 O25 1.945 . S
Zn28 O30 1.932 . S
Zn28 O37 1.977 . S
Zn28 O38 1.910 . S
O29 Zn26 1.933 . S
O29 C40 1.226 . S
O30 Zn28 1.932 . S
O30 C40 1.307 . S
O31 Zn24 1.919 . S
O31 C42 1.253 . S
O32 Zn26 1.941 . S
O32 C42 1.283 . S
O33 Zn26 1.965 . S
O33 C41 1.303 . S
O34 Zn27 1.938 . S
O34 C41 1.247 . S
O35 Zn27 1.906 . S
O35 C43 1.304 . S
O36 Zn24 1.924 . S
O36 C44 1.311 . S
O37 Zn28 1.977 . S
O37 C43 1.272 . S
O38 Zn28 1.910 . S
O38 C44 1.231 . S
C39 O23 1.225 . S
C39 O45 1.298 . S
C40 O29 1.226 . S
C40 O30 1.307 . S
C41 O33 1.303 . S
C41 O34 1.247 . S
C42 O31 1.253 . S
C42 O32 1.283 . S
C43 O35 1.304 . S
C43 O37 1.272 . S
C44 O36 1.311 . S
C44 O38 1.231 . S
O45 Zn27 1.953 . S
O45 C39 1.298 . S
O46 Zn47 1.953 . S
O46 C62 1.225 . S
Zn47 O46 1.953 . S
Zn47 O48 1.949 . S
Zn47 O54 1.919 . S
Zn47 O59 1.924 . S
O48 Zn47 1.949 . S
O48 Zn49 1.923 . S
O48 Zn50 1.950 . S
O48 Zn51 1.945 . S
Zn49 O48 1.923 . S
Zn49 O52 1.933 . S
Zn49 O55 1.941 . S
Zn49 O56 1.965 . S
Zn50 O48 1.950 . S
Zn50 O57 1.938 . S
Zn50 O58 1.906 . S
Zn50 O68 1.953 . S
Zn51 O48 1.945 . S
Zn51 O53 1.932 . S
Zn51 O60 1.977 . S
Zn51 O61 1.910 . S
O52 Zn49 1.933 . S
O52 C63 1.226 . S
O53 Zn51 1.932 . S
O53 C63 1.307 . S
O54 Zn47 1.919 . S
O54 C65 1.253 . S
O55 Zn49 1.941 . S
O55 C65 1.283 . S
O56 Zn49 1.965 . S
O56 C64 1.303 . S
O57 Zn50 1.938 . S
O57 C64 1.247 . S
O58 Zn50 1.906 . S
O58 C66 1.304 . S
O59 Zn47 1.924 . S
O59 C67 1.311 . S
O60 Zn51 1.977 . S
O60 C66 1.272 . S
O61 Zn51 1.910 . S
O61 C67 1.231 . S
C62 O46 1.225 . S
C62 O68 1.298 . S
C63 O52 1.226 . S
C63 O53 1.307 . S
C64 O56 1.303 . S
C64 O57 1.247 . S
C65 O54 1.253 . S
C65 O55 1.283 . S
C66 O58 1.304 . S
C66 O60 1.272 . S
C67 O59 1.311 . S
C67 O61 1.231 . S
O68 Zn50 1.953 . S
O68 C62 1.298 . S
O69 Zn70 1.953 . S
O69 C85 1.225 . S
Zn70 O69 1.953 . S
Zn70 O71 1.949 . S
Zn70 O77 1.919 . S
Zn70 O82 1.924 . S
O71 Zn70 1.949 . S
O71 Zn72 1.923 . S
O71 Zn73 1.950 . S
O71 Zn74 1.945 . S
Zn72 O71 1.923 . S
Zn72 O75 1.933 . S
Zn72 O78 1.941 . S
Zn72 O79 1.965 . S
Zn73 O71 1.950 . S
Zn73 O80 1.938 . S
Zn73 O81 1.906 . S
Zn73 O91 1.953 . S
Zn74 O71 1.945 . S
Zn74 O76 1.932 . S
Zn74 O83 1.977 . S
Zn74 O84 1.910 . S
O75 Zn72 1.933 . S
O75 C86 1.226 . S
O76 Zn74 1.932 . S
O76 C86 1.307 . S
O77 Zn70 1.919 . S
O77 C88 1.253 . S
O78 Zn72 1.941 . S
O78 C88 1.283 . S
O79 Zn72 1.965 . S
O79 C87 1.303 . S
O80 Zn73 1.938 . S
O80 C87 1.247 . S
O81 Zn73 1.906 . S
O81 C89 1.304 . S
O82 Zn70 1.924 . S
O82 C90 1.311 . S
O83 Zn74 1.977 . S
O83 C89 1.272 . S
O84 Zn74 1.910 . S
O84 C90 1.231 . S
C85 O69 1.225 . S
C85 O91 1.298 . S
C86 O75 1.226 . S
C86 O76 1.307 . S
C87 O79 1.303 . S
C87 O80 1.247 . S
C88 O77 1.253 . S
C88 O78 1.283 . S
C89 O81 1.304 . S
C89 O83 1.272 . S
C90 O82 1.311 . S
C90 O84 1.231 . S
O91 Zn73 1.953 . S
O91 C85 1.298 . S
O92 Zn93 1.953 . S
O92 C108 1.225 . S
Zn93 O92 1.953 . S
Zn93 O94 1.949 . S
Zn93 O100 1.919 . S
Zn93 O105 1.924 . S
O94 Zn93 1.949 . S
O94 Zn95 1.923 . S
O94 Zn96 1.950 . S
O94 Zn97 1.945 . S
Zn95 O94 1.923 . S
Zn95 O98 1.933 . S
Zn95 O101 1.941 . S
Zn95 O102 1.965 . S
Zn96 O94 1.950 . S
Zn96 O103 1.938 . S
Zn96 O104 1.906 . S
Zn96 O114 1.953 . S
Zn97 O94 1.945 . S
Zn97 O99 1.932 . S
Zn97 O106 1.977 . S
Zn97 O107 1.910 . S
O98 Zn95 1.933 . S
O98 C109 1.226 . S
O99 Zn97 1.932 . S
O99 C109 1.307 . S
O100 Zn93 1.919 . S
O100 C111 1.253 . S
O101 Zn95 1.941 . S
O101 C111 1.283 . S
O102 Zn95 1.965 . S
O102 C110 1.303 . S
O103 Zn96 1.938 . S
O103 C110 1.247 . S
O104 Zn96 1.906 . S
O104 C112 1.304 . S
O105 Zn93 1.924 . S
O105 C113 1.311 . S
O106 Zn97 1.977 . S
O106 C112 1.272 . S
O107 Zn97 1.910 . S
O107 C113 1.231 . S
C108 O92 1.225 . S
C108 O114 1.298 . S
C109 O98 1.226 . S
C109 O99 1.307 . S
C110 O102 1.303 . S
C110 O103 1.247 . S
C111 O100 1.253 . S
C111 O101 1.283 . S
C112 O104 1.304 . S
C112 O106 1.272 . S
C113 O105 1.311 . S
C113 O107 1.231 . S
O114 Zn96 1.953 . S
O114 C108 1.298 . S
O115 Zn116 1.953 . S
O115 C131 1.225 . S
Zn116 O115 1.953 . S
Zn116 O117 1.949 . S
Zn116 O123 1.919 . S
Zn116 O128 1.924 . S
O117 Zn116 1.949 . S
O117 Zn118 1.923 . S
O117 Zn119 1.950 . S
O117 Zn120 1.945 . S
Zn118 O117 1.923 . S
Zn118 O121 1.933 . S
Zn118 O124 1.941 . S
Zn118 O125 1.965 . S
Zn119 O117 1.950 . S
Zn119 O126 1.938 . S
Zn119 O127 1.906 . S
Zn119 O137 1.953 . S
Zn120 O117 1.945 . S
Zn120 O122 1.932 . S
Zn120 O129 1.977 . S
Zn120 O130 1.910 . S
O121 Zn118 1.933 . S
O121 C132 1.226 . S
O122 Zn120 1.932 . S
O122 C132 1.307 . S
O123 Zn116 1.919 . S
O123 C134 1.253 . S
O124 Zn118 1.941 . S
O124 C134 1.283 . S
O125 Zn118 1.965 . S
O125 C133 1.303 . S
O126 Zn119 1.938 . S
O126 C133 1.247 . S
O127 Zn119 1.906 . S
O127 C135 1.304 . S
O128 Zn116 1.924 . S
O128 C136 1.311 . S
O129 Zn120 1.977 . S
O129 C135 1.272 . S
O130 Zn120 1.910 . S
O130 C136 1.231 . S
C131 O115 1.225 . S
C131 O137 1.298 . S
C132 O121 1.226 . S
C132 O122 1.307 . S
C133 O125 1.303 . S
C133 O126 1.247 . S
C134 O123 1.253 . S
C134 O124 1.283 . S
C135 O127 1.304 . S
C135 O129 1.272 . S
C136 O128 1.311 . S
C136 O130 1.231 . S
O137 Zn119 1.953 . S
O137 C131 1.298 . S
O138 Zn139 1.953 . S
O138 C154 1.225 . S
Zn139 O138 1.953 . S
Zn139 O140 1.949 . S
Zn139 O146 1.919 . S
Zn139 O151 1.924 . S
O140 Zn139 1.949 . S
O140 Zn141 1.923 . S
O140 Zn142 1.950 . S
O140 Zn143 1.945 . S
Zn141 O140 1.923 . S
Zn141 O144 1.933 . S
Zn141 O147 1.941 . S
Zn141 O148 1.965 . S
Zn142 O140 1.950 . S
Zn142 O149 1.938 . S
Zn142 O150 1.906 . S
Zn142 O160 1.953 . S
Zn143 O140 1.945 . S
Zn143 O145 1.932 . S
Zn143 O152 1.977 . S
Zn143 O153 1.910 . S
O144 Zn141 1.933 . S
O144 C155 1.226 . S
O145 Zn143 1.932 . S
O145 C155 1.307 . S
O146 Zn139 1.919 . S
O146 C157 1.253 . S
O147 Zn141 1.941 . S
O147 C157 1.283 . S
O148 Zn141 1.965 . S
O148 C156 1.303 . S
O149 Zn142 1.938 . S
O149 C156 1.247 . S
O150 Zn142 1.906 . S
O150 C158 1.304 . S
O151 Zn139 1.924 . S
O151 C159 1.311 . S
O152 Zn143 1.977 . S
O152 C158 1.272 . S
O153 Zn143 1.910 . S
O153 C159 1.231 . S
C154 O138 1.225 . S
C154 O160 1.298 . S
C155 O144 1.226 . S
C155 O145 1.307 . S
C156 O148 1.303 . S
C156 O149 1.247 . S
C157 O146 1.253 . S
C157 O147 1.283 . S
C158 O150 1.304 . S
C158 O152 1.272 . S
C159 O151 1.311 . S
C159 O153 1.231 . S
O160 Zn142 1.953 . S
O160 C154 1.298 . S
O161 Zn162 1.953 . S
O161 C177 1.225 . S
Zn162 O161 1.953 . S
Zn162 O163 1.949 . S
Zn162 O169 1.919 . S
Zn162 O174 1.924 . S
O163 Zn162 1.949 . S
O163 Zn164 1.923 . S
O163 Zn165 1.950 . S
O163 Zn166 1.945 . S
Zn164 O163 1.923 . S
Zn164 O167 1.933 . S
Zn164 O170 1.941 . S
Zn164 O171 1.965 . S
Zn165 O163 1.950 . S
Zn165 O172 1.938 . S
Zn165 O173 1.906 . S
Zn165 O183 1.953 . S
Zn166 O163 1.945 . S
Zn166 O168 1.932 . S
Zn166 O175 1.977 . S
Zn166 O176 1.910 . S
O167 Zn164 1.933 . S
O167 C178 1.226 . S
O168 Zn166 1.932 . S
O168 C178 1.307 . S
O169 Zn162 1.919 . S
O169 C180 1.253 . S
O170 Zn164 1.941 . S
O170 C180 1.283 . S
O171 Zn164 1.965 . S
O171 C179 1.303 . S
O172 Zn165 1.938 . S
O172 C179 1.247 . S
O173 Zn165 1.906 . S
O173 C181 1.304 . S
O174 Zn162 1.924 . S
O174 C182 1.311 . S
O175 Zn166 1.977 . S
O175 C181 1.272 . S
O176 Zn166 1.910 . S
O176 C182 1.231 . S
C177 O161 1.225 . S
C177 O183 1.298 . S
C178 O167 1.226 . S
C178 O168 1.307 . S
C179 O171 1.303 . S
C179 O172 1.247 . S
C180 O169 1.253 . S
C180 O170 1.283 . S
C181 O173 1.304 . S
C181 O175 1.272 . S
C182 O174 1.311 . S
C182 O176 1.231 . S
O183 Zn165 1.953 . S
O183 C177 1.298 . S
Fe184 O185 1.886 1_455 S
Fe184 O188 1.715 . S
Fe184 O193 2.077 1_455 S
Fe184 O198 1.935 . S
Fe184 O204 2.077 1_455 S
Fe184 O213 1.935 . S
O185 Fe184 1.886 1_655 S
O185 Fe187 1.715 . S
Fe186 O188 1.886 . S
Fe186 O189 1.715 1_545 S
Fe186 O196 1.935 1_545 S
Fe186 O197 2.077 . S
Fe186 O203 1.935 1_545 S
Fe186 O212 2.077 . S
Fe187 O185 1.715 . S
Fe187 O190 1.886 1_545 S
Fe187 O194 1.935 . S
Fe187 O199 2.077 1_545 S
Fe187 O205 1.935 . S
Fe187 O209 2.077 1_545 S
O188 Fe184 1.715 . S
O188 Fe186 1.886 . S
O189 Fe186 1.715 1_565 S
O189 Fe191 1.886 . S
O190 Fe187 1.886 1_565 S
O190 Fe191 1.715 1_655 S
Fe191 O189 1.886 . S
Fe191 O190 1.715 1_455 S
Fe191 O195 2.077 . S
Fe191 O200 1.935 1_455 S
Fe191 O202 2.077 . S
Fe191 O210 1.935 1_455 S
C192 O204 1.381 . S
C192 O205 1.421 . S
O193 Fe184 2.077 1_655 S
O193 C206 1.381 . S
O194 Fe187 1.935 . S
O194 C206 1.421 . S
O195 Fe191 2.077 . S
O195 C211 1.381 . S
O196 Fe186 1.935 1_565 S
O196 C211 1.421 . S
O197 Fe186 2.077 . S
O197 C201 1.381 . S
O198 Fe184 1.935 . S
O198 C201 1.421 . S
O199 Fe187 2.077 1_565 S
O199 C207 1.381 . S
O200 Fe191 1.935 1_655 S
O200 C207 1.421 . S
C201 O197 1.381 . S
C201 O198 1.421 . S
O202 Fe191 2.077 . S
O202 C214 1.381 . S
O203 Fe186 1.935 1_565 S
O203 C214 1.421 . S
O204 Fe184 2.077 1_655 S
O204 C192 1.381 . S
O205 Fe187 1.935 . S
O205 C192 1.421 . S
C206 O193 1.381 . S
C206 O194 1.421 . S
C207 O199 1.381 . S
C207 O200 1.421 . S
C208 O209 1.381 . S
C208 O210 1.421 . S
O209 Fe187 2.077 1_565 S
O209 C208 1.381 . S
O210 Fe191 1.935 1_655 S
O210 C208 1.421 . S
C211 O195 1.381 . S
C211 O196 1.421 . S
O212 Fe186 2.077 . S
O212 C215 1.381 . S
O213 Fe184 1.935 . S
O213 C215 1.421 . S
C214 O202 1.381 . S
C214 O203 1.421 . S
C215 O212 1.381 . S
C215 O213 1.421 . S
Fe216 O217 1.886 . S
Fe216 O220 1.715 . S
Fe216 O225 2.077 1_554 S
Fe216 O230 1.935 1_554 S
Fe216 O236 2.077 . S
Fe216 O245 1.935 . S
O217 Fe216 1.886 . S
O217 Fe219 1.715 1_565 S
Fe218 O220 1.886 1_545 S
Fe218 O221 1.715 . S
Fe218 O228 1.935 1_554 S
Fe218 O229 2.077 1_544 S
Fe218 O235 1.935 . S
Fe218 O244 2.077 1_545 S
Fe219 O217 1.715 1_545 S
Fe219 O222 1.886 . S
Fe219 O226 1.935 1_544 S
Fe219 O231 2.077 1_554 S
Fe219 O237 1.935 1_545 S
Fe219 O241 2.077 . S
O220 Fe216 1.715 . S
O220 Fe218 1.886 1_565 S
O221 Fe218 1.715 . S
O221 Fe223 1.886 . S
O222 Fe219 1.886 . S
O222 Fe223 1.715 . S
Fe223 O221 1.886 . S
Fe223 O222 1.715 . S
Fe223 O227 2.077 1_554 S
Fe223 O232 1.935 1_554 S
Fe223 O234 2.077 . S
Fe223 O242 1.935 . S
C224 O236 1.381 . S
C224 O237 1.421 . S
O225 Fe216 2.077 1_556 S
O225 C238 1.381 . S
O226 Fe219 1.935 1_566 S
O226 C238 1.421 . S
O227 Fe223 2.077 1_556 S
O227 C243 1.381 . S
O228 Fe218 1.935 1_556 S
O228 C243 1.421 . S
O229 Fe218 2.077 1_566 S
O229 C233 1.381 . S
O230 Fe216 1.935 1_556 S
O230 C233 1.421 . S
O231 Fe219 2.077 1_556 S
O231 C239 1.381 . S
O232 Fe223 1.935 1_556 S
O232 C239 1.421 . S
C233 O229 1.381 . S
C233 O230 1.421 . S
O234 Fe223 2.077 . S
O234 C246 1.381 . S
O235 Fe218 1.935 . S
O235 C246 1.421 . S
O236 Fe216 2.077 . S
O236 C224 1.381 . S
O237 Fe219 1.935 1_565 S
O237 C224 1.421 . S
C238 O225 1.381 . S
C238 O226 1.421 . S
C239 O231 1.381 . S
C239 O232 1.421 . S
C240 O241 1.381 . S
C240 O242 1.421 . S
O241 Fe219 2.077 . S
O241 C240 1.381 . S
O242 Fe223 1.935 . S
O242 C240 1.421 . S
C243 O227 1.381 . S
C243 O228 1.421 . S
O244 Fe218 2.077 1_565 S
O244 C247 1.381 . S
O245 Fe216 1.935 . S
O245 C247 1.421 . S
C246 O234 1.381 . S
C246 O235 1.421 . S
C247 O244 1.381 . S
C247 O245 1.421 . S
Fe248 O249 1.886 1_455 S
Fe248 O252 1.715 . S
Fe248 O257 2.077 1_454 S
Fe248 O262 1.935 1_554 S
Fe248 O268 2.077 1_455 S
Fe248 O277 1.935 . S
O249 Fe248 1.886 1_655 S
O249 Fe251 1.715 . S
Fe250 O252 1.886 . S
Fe250 O253 1.715 . S
Fe250 O260 1.935 1_554 S
Fe250 O261 2.077 1_554 S
Fe250 O267 1.935 . S
Fe250 O276 2.077 . S
Fe251 O249 1.715 . S
Fe251 O254 1.886 . S
Fe251 O258 1.935 1_554 S
Fe251 O263 2.077 1_554 S
Fe251 O269 1.935 . S
Fe251 O273 2.077 . S
O252 Fe248 1.715 . S
O252 Fe250 1.886 . S
O253 Fe250 1.715 . S
O253 Fe255 1.886 . S
O254 Fe251 1.886 . S
O254 Fe255 1.715 1_655 S
Fe255 O253 1.886 . S
Fe255 O254 1.715 1_455 S
Fe255 O259 2.077 1_554 S
Fe255 O264 1.935 1_454 S
Fe255 O266 2.077 . S
Fe255 O274 1.935 1_455 S
C256 O268 1.381 . S
C256 O269 1.421 . S
O257 Fe248 2.077 1_656 S
O257 C270 1.381 . S
O258 Fe251 1.935 1_556 S
O258 C270 1.421 . S
O259 Fe255 2.077 1_556 S
O259 C275 1.381 . S
O260 Fe250 1.935 1_556 S
O260 C275 1.421 . S
O261 Fe250 2.077 1_556 S
O261 C265 1.381 . S
O262 Fe248 1.935 1_556 S
O262 C265 1.421 . S
O263 Fe251 2.077 1_556 S
O263 C271 1.381 . S
O264 Fe255 1.935 1_656 S
O264 C271 1.421 . S
C265 O261 1.381 . S
C265 O262 1.421 . S
O266 Fe255 2.077 . S
O266 C278 1.381 . S
O267 Fe250 1.935 . S
O267 C278 1.421 . S
O268 Fe248 2.077 1_655 S
O268 C256 1.381 . S
O269 Fe251 1.935 . S
O269 C256 1.421 . S
C270 O257 1.381 . S
C270 O258 1.421 . S
C271 O263 1.381 . S
C271 O264 1.421 . S
C272 O273 1.381 . S
C272 O274 1.421 . S
O273 Fe251 2.077 . S
O273 C272 1.381 . S
O274 Fe255 1.935 1_655 S
O274 C272 1.421 . S
C275 O259 1.381 . S
C275 O260 1.421 . S
O276 Fe250 2.077 . S
O276 C279 1.381 . S
O277 Fe248 1.935 . S
O277 C279 1.421 . S
C278 O266 1.381 . S
C278 O267 1.421 . S
C279 O276 1.381 . S
C279 O277 1.421 . S
Fe280 O281 1.886 . S
Fe280 O284 1.715 . S
Fe280 O289 2.077 . S
Fe280 O294 1.935 . S
Fe280 O300 2.077 . S
Fe280 O309 1.935 . S
O281 Fe280 1.886 . S
O281 Fe283 1.715 1_556 S
Fe282 O284 1.886 1_554 S
Fe282 O285 1.715 . S
Fe282 O292 1.935 . S
Fe282 O293 2.077 1_554 S
Fe282 O299 1.935 . S
Fe282 O308 2.077 1_554 S
Fe283 O281 1.715 1_554 S
Fe283 O286 1.886 . S
Fe283 O290 1.935 1_554 S
Fe283 O295 2.077 . S
Fe283 O301 1.935 1_554 S
Fe283 O305 2.077 . S
O284 Fe280 1.715 . S
O284 Fe282 1.886 1_556 S
O285 Fe282 1.715 . S
O285 Fe287 1.886 . S
O286 Fe283 1.886 . S
O286 Fe287 1.715 . S
Fe287 O285 1.886 . S
Fe287 O286 1.715 . S
Fe287 O291 2.077 . S
Fe287 O296 1.935 . S
Fe287 O298 2.077 . S
Fe287 O306 1.935 . S
C288 O300 1.381 . S
C288 O301 1.421 . S
O289 Fe280 2.077 . S
O289 C302 1.381 . S
O290 Fe283 1.935 1_556 S
O290 C302 1.421 . S
O291 Fe287 2.077 . S
O291 C307 1.381 . S
O292 Fe282 1.935 . S
O292 C307 1.421 . S
O293 Fe282 2.077 1_556 S
O293 C297 1.381 . S
O294 Fe280 1.935 . S
O294 C297 1.421 . S
O295 Fe283 2.077 . S
O295 C303 1.381 . S
O296 Fe287 1.935 . S
O296 C303 1.421 . S
C297 O293 1.381 . S
C297 O294 1.421 . S
O298 Fe287 2.077 . S
O298 C310 1.381 . S
O299 Fe282 1.935 . S
O299 C310 1.421 . S
O300 Fe280 2.077 . S
O300 C288 1.381 . S
O301 Fe283 1.935 1_556 S
O301 C288 1.421 . S
C302 O289 1.381 . S
C302 O290 1.421 . S
C303 O295 1.381 . S
C303 O296 1.421 . S
C304 O305 1.381 . S
C304 O306 1.421 . S
O305 Fe283 2.077 . S
O305 C304 1.381 . S
O306 Fe287 1.935 . S
O306 C304 1.421 . S
C307 O291 1.381 . S
C307 O292 1.421 . S
O308 Fe282 2.077 1_556 S
O308 C311 1.381 . S
O309 Fe280 1.935 . S
O309 C311 1.421 . S
C310 O298 1.381 . S
C310 O299 1.421 . S
C311 O308 1.381 . S
C311 O309 1.421 . S
Fe312 O313 1.886 . S
Fe312 O316 1.715 . S
Fe312 O321 2.077 . S
Fe312 O326 1.935 . S
Fe312 O332 2.077 1_455 S
Fe312 O341 1.935 1_455 S
O313 Fe312 1.886 . S
O313 Fe315 1.715 . S
Fe314 O316 1.886 . S
Fe314 O317 1.715 . S
Fe314 O324 1.935 . S
Fe314 O325 2.077 . S
Fe314 O331 1.935 1_455 S
Fe314 O340 2.077 1_455 S
Fe315 O313 1.715 . S
Fe315 O318 1.886 . S
Fe315 O322 1.935 . S
Fe315 O327 2.077 . S
Fe315 O333 1.935 1_455 S
Fe315 O337 2.077 1_455 S
O316 Fe312 1.715 . S
O316 Fe314 1.886 . S
O317 Fe314 1.715 . S
O317 Fe319 1.886 . S
O318 Fe315 1.886 . S
O318 Fe319 1.715 . S
Fe319 O317 1.886 . S
Fe319 O318 1.715 . S
Fe319 O323 2.077 . S
Fe319 O328 1.935 . S
Fe319 O330 2.077 1_455 S
Fe319 O338 1.935 1_455 S
C320 O332 1.381 . S
C320 O333 1.421 . S
O321 Fe312 2.077 . S
O321 C334 1.381 . S
O322 Fe315 1.935 . S
O322 C334 1.421 . S
O323 Fe319 2.077 . S
O323 C339 1.381 . S
O324 Fe314 1.935 . S
O324 C339 1.421 . S
O325 Fe314 2.077 . S
O325 C329 1.381 . S
O326 Fe312 1.935 . S
O326 C329 1.421 . S
O327 Fe315 2.077 . S
O327 C335 1.381 . S
O328 Fe319 1.935 . S
O328 C335 1.421 . S
C329 O325 1.381 . S
C329 O326 1.421 . S
O330 Fe319 2.077 1_655 S
O330 C342 1.381 . S
O331 Fe314 1.935 1_655 S
O331 C342 1.421 . S
O332 Fe312 2.077 1_655 S
O332 C320 1.381 . S
O333 Fe315 1.935 1_655 S
O333 C320 1.421 . S
C334 O321 1.381 . S
C334 O322 1.421 . S
C335 O327 1.381 . S
C335 O328 1.421 . S
C336 O337 1.381 . S
C336 O338 1.421 . S
O337 Fe315 2.077 1_655 S
O337 C336 1.381 . S
O338 Fe319 1.935 1_655 S
O338 C336 1.421 . S
C339 O323 1.381 . S
C339 O324 1.421 . S
O340 Fe314 2.077 1_655 S
O340 C343 1.381 . S
O341 Fe312 1.935 1_655 S
O341 C343 1.421 . S
C342 O330 1.381 . S
C342 O331 1.421 . S
C343 O340 1.381 . S
C343 O341 1.421 . S
Fe344 O345 1.886 . S
Fe344 O348 1.715 . S
Fe344 O353 2.077 . S
Fe344 O358 1.935 . S
Fe344 O364 2.077 . S
Fe344 O373 1.935 . S
O345 Fe344 1.886 . S
O345 Fe347 1.715 1_565 S
Fe346 O348 1.886 1_545 S
Fe346 O349 1.715 . S
Fe346 O356 1.935 . S
Fe346 O357 2.077 1_545 S
Fe346 O363 1.935 . S
Fe346 O372 2.077 1_545 S
Fe347 O345 1.715 1_545 S
Fe347 O350 1.886 . S
Fe347 O354 1.935 1_545 S
Fe347 O359 2.077 . S
Fe347 O365 1.935 1_545 S
Fe347 O369 2.077 . S
O348 Fe344 1.715 . S
O348 Fe346 1.886 1_565 S
O349 Fe346 1.715 . S
O349 Fe351 1.886 . S
O350 Fe347 1.886 . S
O350 Fe351 1.715 . S
Fe351 O349 1.886 . S
Fe351 O350 1.715 . S
Fe351 O355 2.077 . S
Fe351 O360 1.935 . S
Fe351 O362 2.077 . S
Fe351 O370 1.935 . S
C352 O364 1.381 . S
C352 O365 1.421 . S
O353 Fe344 2.077 . S
O353 C366 1.381 . S
O354 Fe347 1.935 1_565 S
O354 C366 1.421 . S
O355 Fe351 2.077 . S
O355 C371 1.381 . S
O356 Fe346 1.935 . S
O356 C371 1.421 . S
O357 Fe346 2.077 1_565 S
O357 C361 1.381 . S
O358 Fe344 1.935 . S
O358 C361 1.421 . S
O359 Fe347 2.077 . S
O359 C367 1.381 . S
O360 Fe351 1.935 . S
O360 C367 1.421 . S
C361 O357 1.381 . S
C361 O358 1.421 . S
O362 Fe351 2.077 . S
O362 C374 1.381 . S
O363 Fe346 1.935 . S
O363 C374 1.421 . S
O364 Fe344 2.077 . S
O364 C352 1.381 . S
O365 Fe347 1.935 1_565 S
O365 C352 1.421 . S
C366 O353 1.381 . S
C366 O354 1.421 . S
C367 O359 1.381 . S
C367 O360 1.421 . S
C368 O369 1.381 . S
C368 O370 1.421 . S
O369 Fe347 2.077 . S
O369 C368 1.381 . S
O370 Fe351 1.935 . S
O370 C368 1.421 . S
C371 O355 1.381 . S
C371 O356 1.421 . S
O372 Fe346 2.077 1_565 S
O372 C375 1.381 . S
O373 Fe344 1.935 . S
O373 C375 1.421 . S
C374 O362 1.381 . S
C374 O363 1.421 . S
C375 O372 1.381 . S
C375 O373 1.421 . S
C376 C377 1.387 . S
C376 H380 0.950 . S
C376 C385 1.390 . S
C377 C376 1.387 . S
C377 C379 1.387 . S
H378 C385 0.950 . S
C379 C377 1.387 . S
C379 C381 1.390 . S
C379 H383 0.950 . S
H380 C376 0.950 . S
C381 C379 1.390 . S
C381 C382 1.387 . S
C381 H384 0.950 . S
C382 C381 1.387 . S
C382 C385 1.387 . S
H383 C379 0.950 . S
H384 C381 0.950 . S
C385 C376 1.390 . S
C385 H378 0.950 . S
C385 C382 1.387 . S
C386 C387 1.387 . S
C386 H390 0.950 . S
C386 C395 1.390 . S
C387 C386 1.387 . S
C387 C389 1.387 . S
H388 C395 0.950 . S
C389 C387 1.387 . S
C389 C391 1.390 . S
C389 H393 0.950 . S
H390 C386 0.950 . S
C391 C389 1.390 . S
C391 C392 1.387 . S
C391 H394 0.950 . S
C392 C391 1.387 . S
C392 C395 1.387 . S
H393 C389 0.950 . S
H394 C391 0.950 . S
C395 C386 1.390 . S
C395 H388 0.950 . S
C395 C392 1.387 . S
C396 C397 1.387 . S
C396 H400 0.950 . S
C396 C405 1.390 . S
C397 C396 1.387 . S
C397 C399 1.387 . S
H398 C405 0.950 . S
C399 C397 1.387 . S
C399 C401 1.390 . S
C399 H403 0.950 . S
H400 C396 0.950 . S
C401 C399 1.390 . S
C401 C402 1.387 . S
C401 H404 0.950 . S
C402 C401 1.387 . S
C402 C405 1.387 . S
H403 C399 0.950 . S
H404 C401 0.950 . S
C405 C396 1.390 . S
C405 H398 0.950 . S
C405 C402 1.387 . S
C406 C407 1.387 . S
C406 H410 0.950 . S
C406 C415 1.390 . S
C407 C406 1.387 . S
C407 C409 1.387 . S
H408 C415 0.950 . S
C409 C407 1.387 . S
C409 C411 1.390 . S
C409 H413 0.950 . S
H410 C406 0.950 . S
C411 C409 1.390 . S
C411 C412 1.387 . S
C411 H414 0.950 . S
C412 C411 1.387 . S
C412 C415 1.387 . S
H413 C409 0.950 . S
H414 C411 0.950 . S
C415 C406 1.390 . S
C415 H408 0.950 . S
C415 C412 1.387 . S
C416 C417 1.387 . S
C416 H420 0.950 . S
C416 C425 1.390 . S
C417 C416 1.387 . S
C417 C419 1.387 . S
H418 C425 0.950 . S
C419 C417 1.387 . S
C419 C421 1.390 . S
C419 H423 0.950 . S
H420 C416 0.950 . S
C421 C419 1.390 . S
C421 C422 1.387 . S
C421 H424 0.950 . S
C422 C421 1.387 . S
C422 C425 1.387 . S
H423 C419 0.950 . S
H424 C421 0.950 . S
C425 C416 1.390 . S
C425 H418 0.950 . S
C425 C422 1.387 . S
C426 C427 1.387 . S
C426 H430 0.950 . S
C426 C435 1.390 . S
C427 C426 1.387 . S
C427 C429 1.387 . S
H428 C435 0.950 . S
C429 C427 1.387 . S
C429 C431 1.390 . S
C429 H433 0.950 . S
H430 C426 0.950 . S
C431 C429 1.390 . S
C431 C432 1.387 . S
C431 H434 0.950 . S
C432 C431 1.387 . S
C432 C435 1.387 . S
H433 C429 0.950 . S
H434 C431 0.950 . S
C435 C426 1.390 . S
C435 H428 0.950 . S
C435 C432 1.387 . S
C436 C437 1.387 . S
C436 H440 0.950 . S
C436 C445 1.390 . S
C437 C436 1.387 . S
C437 C439 1.387 . S
H438 C445 0.950 . S
C439 C437 1.387 . S
C439 C441 1.390 . S
C439 H443 0.950 . S
H440 C436 0.950 . S
C441 C439 1.390 . S
C441 C442 1.387 . S
C441 H444 0.950 . S
C442 C441 1.387 . S
C442 C445 1.387 . S
H443 C439 0.950 . S
H444 C441 0.950 . S
C445 C436 1.390 . S
C445 H438 0.950 . S
C445 C442 1.387 . S
C446 C447 1.387 . S
C446 H450 0.950 . S
C446 C455 1.390 . S
C447 C446 1.387 . S
C447 C449 1.387 . S
H448 C455 0.950 . S
C449 C447 1.387 . S
C449 C451 1.390 . S
C449 H453 0.950 . S
H450 C446 0.950 . S
C451 C449 1.390 . S
C451 C452 1.387 . S
C451 H454 0.950 . S
C452 C451 1.387 . S
C452 C455 1.387 . S
H453 C449 0.950 . S
H454 C451 0.950 . S
C455 C446 1.390 . S
C455 H448 0.950 . S
C455 C452 1.387 . S
C456 C457 1.387 . S
C456 H460 0.950 . S
C456 C465 1.390 . S
C457 C456 1.387 . S
C457 C459 1.387 . S
H458 C465 0.950 . S
C459 C457 1.387 . S
C459 C461 1.390 . S
C459 H463 0.950 . S
H460 C456 0.950 . S
C461 C459 1.390 . S
C461 C462 1.387 . S
C461 H464 0.950 . S
C462 C461 1.387 . S
C462 C465 1.387 . S
H463 C459 0.950 . S
H464 C461 0.950 . S
C465 C456 1.390 . S
C465 H458 0.950 . S
C465 C462 1.387 . S
C466 C467 1.387 . S
C466 H470 0.950 . S
C466 C475 1.390 . S
C467 C466 1.387 . S
C467 C469 1.387 . S
H468 C475 0.950 . S
C469 C467 1.387 . S
C469 C471 1.390 . S
C469 H473 0.950 . S
H470 C466 0.950 . S
C471 C469 1.390 . S
C471 C472 1.387 . S
C471 H474 0.950 . S
C472 C471 1.387 . S
C472 C475 1.387 . S
H473 C469 0.950 . S
H474 C471 0.950 . S
C475 C466 1.390 . S
C475 H468 0.950 . S
C475 C472 1.387 . S
C476 C477 1.387 . S
C476 H480 0.950 . S
C476 C485 1.390 . S
C477 C476 1.387 . S
C477 C479 1.387 . S
H478 C485 0.950 . S
C479 C477 1.387 . S
C479 C481 1.390 . S
C479 H483 0.950 . S
H480 C476 0.950 . S
C481 C479 1.390 . S
C481 C482 1.387 . S
C481 H484 0.950 . S
C482 C481 1.387 . S
C482 C485 1.387 . S
H483 C479 0.950 . S
H484 C481 0.950 . S
C485 C476 1.390 . S
C485 H478 0.950 . S
C485 C482 1.387 . S
C486 C487 1.387 . S
C486 H490 0.950 . S
C486 C495 1.390 . S
C487 C486 1.387 . S
C487 C489 1.387 . S
H488 C495 0.950 . S
C489 C487 1.387 . S
C489 C491 1.390 . S
C489 H493 0.950 . S
H490 C486 0.950 . S
C491 C489 1.390 . S
C491 C492 1.387 . S
C491 H494 0.950 . S
C492 C491 1.387 . S
C492 C495 1.387 . S
H493 C489 0.950 . S
H494 C491 0.950 . S
C495 C486 1.390 . S
C495 H488 0.950 . S
C495 C492 1.387 . S
C496 C497 1.387 . S
C496 H500 0.950 . S
C496 C505 1.390 . S
C497 C496 1.387 . S
C497 C499 1.387 . S
H498 C505 0.950 . S
C499 C497 1.387 . S
C499 C501 1.390 . S
C499 H503 0.950 . S
H500 C496 0.950 . S
C501 C499 1.390 . S
C501 C502 1.387 . S
C501 H504 0.950 . S
C502 C501 1.387 . S
C502 C505 1.387 . S
H503 C499 0.950 . S
H504 C501 0.950 . S
C505 C496 1.390 . S
C505 H498 0.950 . S
C505 C502 1.387 . S
C506 C507 1.387 . S
C506 H510 0.950 . S
C506 C515 1.390 . S
C507 C506 1.387 . S
C507 C509 1.387 . S
H508 C515 0.950 . S
C509 C507 1.387 . S
C509 C511 1.390 . S
C509 H513 0.950 . S
H510 C506 0.950 . S
C511 C509 1.390 . S
C511 C512 1.387 . S
C511 H514 0.950 . S
C512 C511 1.387 . S
C512 C515 1.387 . S
H513 C509 0.950 . S
H514 C511 0.950 . S
C515 C506 1.390 . S
C515 H508 0.950 . S
C515 C512 1.387 . S
C516 C517 1.387 . S
C516 H520 0.950 . S
C516 C525 1.390 . S
C517 C516 1.387 . S
C517 C519 1.387 . S
H518 C525 0.950 . S
C519 C517 1.387 . S
C519 C521 1.390 . S
C519 H523 0.950 . S
H520 C516 0.950 . S
C521 C519 1.390 . S
C521 C522 1.387 . S
C521 H524 0.950 . S
C522 C521 1.387 . S
C522 C525 1.387 . S
H523 C519 0.950 . S
H524 C521 0.950 . S
C525 C516 1.390 . S
C525 H518 0.950 . S
C525 C522 1.387 . S
C526 C527 1.387 . S
C526 H530 0.950 . S
C526 C535 1.390 . S
C527 C526 1.387 . S
C527 C529 1.387 . S
H528 C535 0.950 . S
C529 C527 1.387 . S
C529 C531 1.390 . S
C529 H533 0.950 . S
H530 C526 0.950 . S
C531 C529 1.390 . S
C531 C532 1.387 . S
C531 H534 0.950 . S
C532 C531 1.387 . S
C532 C535 1.387 . S
H533 C529 0.950 . S
H534 C531 0.950 . S
C535 C526 1.390 . S
C535 H528 0.950 . S
C535 C532 1.387 . S
C536 C537 1.387 . S
C536 H540 0.950 . S
C536 C545 1.390 . S
C537 C536 1.387 . S
C537 C539 1.387 . S
H538 C545 0.950 . S
C539 C537 1.387 . S
C539 C541 1.390 . S
C539 H543 0.950 . S
H540 C536 0.950 . S
C541 C539 1.390 . S
C541 C542 1.387 . S
C541 H544 0.950 . S
C542 C541 1.387 . S
C542 C545 1.387 . S
H543 C539 0.950 . S
H544 C541 0.950 . S
C545 C536 1.390 . S
C545 H538 0.950 . S
C545 C542 1.387 . S
C546 C547 1.387 . S
C546 H550 0.950 . S
C546 C555 1.390 . S
C547 C546 1.387 . S
C547 C549 1.387 . S
H548 C555 0.950 . S
C549 C547 1.387 . S
C549 C551 1.390 . S
C549 H553 0.950 . S
H550 C546 0.950 . S
C551 C549 1.390 . S
C551 C552 1.387 . S
C551 H554 0.950 . S
C552 C551 1.387 . S
C552 C555 1.387 . S
H553 C549 0.950 . S
H554 C551 0.950 . S
C555 C546 1.390 . S
C555 H548 0.950 . S
C555 C552 1.387 . S
C556 C557 1.387 . S
C556 H560 0.950 . S
C556 C565 1.390 . S
C557 C556 1.387 . S
C557 C559 1.387 . S
H558 C565 0.950 . S
C559 C557 1.387 . S
C559 C561 1.390 . S
C559 H563 0.950 . S
H560 C556 0.950 . S
C561 C559 1.390 . S
C561 C562 1.387 . S
C561 H564 0.950 . S
C562 C561 1.387 . S
C562 C565 1.387 . S
H563 C559 0.950 . S
H564 C561 0.950 . S
C565 C556 1.390 . S
C565 H558 0.950 . S
C565 C562 1.387 . S
C566 C567 1.387 . S
C566 H570 0.950 . S
C566 C575 1.390 . S
C567 C566 1.387 . S
C567 C569 1.387 . S
H568 C575 0.950 . S
C569 C567 1.387 . S
C569 C571 1.390 . S
C569 H573 0.950 . S
H570 C566 0.950 . S
C571 C569 1.390 . S
C571 C572 1.387 . S
C571 H574 0.950 . S
C572 C571 1.387 . S
C572 C575 1.387 . S
H573 C569 0.950 . S
H574 C571 0.950 . S
C575 C566 1.390 . S
C575 H568 0.950 . S
C575 C572 1.387 . S
C576 C577 1.387 . S
C576 H580 0.950 . S
C576 C585 1.390 . S
C577 C576 1.387 . S
C577 C579 1.387 . S
H578 C585 0.950 . S
C579 C577 1.387 . S
C579 C581 1.390 . S
C579 H583 0.950 . S
H580 C576 0.950 . S
C581 C579 1.390 . S
C581 C582 1.387 . S
C581 H584 0.950 . S
C582 C581 1.387 . S
C582 C585 1.387 . S
H583 C579 0.950 . S
H584 C581 0.950 . S
C585 C576 1.390 . S
C585 H578 0.950 . S
C585 C582 1.387 . S
C586 C587 1.387 . S
C586 H590 0.950 . S
C586 C595 1.390 . S
C587 C586 1.387 . S
C587 C589 1.387 . S
H588 C595 0.950 . S
C589 C587 1.387 . S
C589 C591 1.390 . S
C589 H593 0.950 . S
H590 C586 0.950 . S
C591 C589 1.390 . S
C591 C592 1.387 . S
C591 H594 0.950 . S
C592 C591 1.387 . S
C592 C595 1.387 . S
H593 C589 0.950 . S
H594 C591 0.950 . S
C595 C586 1.390 . S
C595 H588 0.950 . S
C595 C592 1.387 . S
C596 C597 1.387 . S
C596 H600 0.950 . S
C596 C605 1.390 . S
C597 C596 1.387 . S
C597 C599 1.387 . S
H598 C605 0.950 . S
C599 C597 1.387 . S
C599 C601 1.390 . S
C599 H603 0.950 . S
H600 C596 0.950 . S
C601 C599 1.390 . S
C601 C602 1.387 . S
C601 H604 0.950 . S
C602 C601 1.387 . S
C602 C605 1.387 . S
H603 C599 0.950 . S
H604 C601 0.950 . S
C605 C596 1.390 . S
C605 H598 0.950 . S
C605 C602 1.387 . S
C606 C607 1.387 . S
C606 H610 0.950 . S
C606 C615 1.390 . S
C607 C606 1.387 . S
C607 C609 1.387 . S
H608 C615 0.950 . S
C609 C607 1.387 . S
C609 C611 1.390 . S
C609 H613 0.950 . S
H610 C606 0.950 . S
C611 C609 1.390 . S
C611 C612 1.387 . S
C611 H614 0.950 . S
C612 C611 1.387 . S
C612 C615 1.387 . S
H613 C609 0.950 . S
H614 C611 0.950 . S
C615 C606 1.390 . S
C615 H608 0.950 . S
C615 C612 1.387 . S
C616 C617 1.387 . S
C616 H620 0.950 . S
C616 C625 1.390 . S
C617 C616 1.387 . S
C617 C619 1.387 . S
H618 C625 0.950 . S
C619 C617 1.387 . S
C619 C621 1.390 . S
C619 H623 0.950 . S
H620 C616 0.950 . S
C621 C619 1.390 . S
C621 C622 1.387 . S
C621 H624 0.950 . S
C622 C621 1.387 . S
C622 C625 1.387 . S
H623 C619 0.950 . S
H624 C621 0.950 . S
C625 C616 1.390 . S
C625 H618 0.950 . S
C625 C622 1.387 . S
C626 C627 1.387 . S
C626 H630 0.950 . S
C626 C635 1.390 . S
C627 C626 1.387 . S
C627 C629 1.387 . S
H628 C635 0.950 . S
C629 C627 1.387 . S
C629 C631 1.390 . S
C629 H633 0.950 . S
H630 C626 0.950 . S
C631 C629 1.390 . S
C631 C632 1.387 . S
C631 H634 0.950 . S
C632 C631 1.387 . S
C632 C635 1.387 . S
H633 C629 0.950 . S
H634 C631 0.950 . S
C635 C626 1.390 . S
C635 H628 0.950 . S
C635 C632 1.387 . S
C636 C637 1.387 . S
C636 H640 0.950 . S
C636 C645 1.390 . S
C637 C636 1.387 . S
C637 C639 1.387 . S
H638 C645 0.950 . S
C639 C637 1.387 . S
C639 C641 1.390 . S
C639 H643 0.950 . S
H640 C636 0.950 . S
C641 C639 1.390 . S
C641 C642 1.387 . S
C641 H644 0.950 . S
C642 C641 1.387 . S
C642 C645 1.387 . S
H643 C639 0.950 . S
H644 C641 0.950 . S
C645 C636 1.390 . S
C645 H638 0.950 . S
C645 C642 1.387 . S
C646 C647 1.387 . S
C646 H650 0.950 . S
C646 C655 1.390 . S
C647 C646 1.387 . S
C647 C649 1.387 . S
H648 C655 0.950 . S
C649 C647 1.387 . S
C649 C651 1.390 . S
C649 H653 0.950 . S
H650 C646 0.950 . S
C651 C649 1.390 . S
C651 C652 1.387 . S
C651 H654 0.950 . S
C652 C651 1.387 . S
C652 C655 1.387 . S
H653 C649 0.950 . S
H654 C651 0.950 . S
C655 C646 1.390 . S
C655 H648 0.950 . S
C655 C652 1.387 . S
C656 C657 1.387 . S
C656 H660 0.950 . S
C656 C665 1.390 . S
C657 C656 1.387 . S
C657 C659 1.387 . S
H658 C665 0.950 . S
C659 C657 1.387 . S
C659 C661 1.390 . S
C659 H663 0.950 . S
H660 C656 0.950 . S
C661 C659 1.390 . S
C661 C662 1.387 . S
C661 H664 0.950 . S
C662 C661 1.387 . S
C662 C665 1.387 . S
H663 C659 0.950 . S
H664 C661 0.950 . S
C665 C656 1.390 . S
C665 H658 0.950 . S
C665 C662 1.387 . S
C666 C667 1.387 . S
C666 H670 0.950 . S
C666 C675 1.390 . S
C667 C666 1.387 . S
C667 C669 1.387 . S
H668 C675 0.950 . S
C669 C667 1.387 . S
C669 C671 1.390 . S
C669 H673 0.950 . S
H670 C666 0.950 . S
C671 C669 1.390 . S
C671 C672 1.387 . S
C671 H674 0.950 . S
C672 C671 1.387 . S
C672 C675 1.387 . S
H673 C669 0.950 . S
H674 C671 0.950 . S
C675 C666 1.390 . S
C675 H668 0.950 . S
C675 C672 1.387 . S
C676 C677 1.387 . S
C676 H680 0.950 . S
C676 C685 1.390 . S
C677 C676 1.387 . S
C677 C679 1.387 . S
H678 C685 0.950 . S
C679 C677 1.387 . S
C679 C681 1.390 . S
C679 H683 0.950 . S
H680 C676 0.950 . S
C681 C679 1.390 . S
C681 C682 1.387 . S
C681 H684 0.950 . S
C682 C681 1.387 . S
C682 C685 1.387 . S
H683 C679 0.950 . S
H684 C681 0.950 . S
C685 C676 1.390 . S
C685 H678 0.950 . S
C685 C682 1.387 . S
C686 C687 1.387 . S
C686 H690 0.950 . S
C686 C695 1.390 . S
C687 C686 1.387 . S
C687 C689 1.387 . S
H688 C695 0.950 . S
C689 C687 1.387 . S
C689 C691 1.390 . S
C689 H693 0.950 . S
H690 C686 0.950 . S
C691 C689 1.390 . S
C691 C692 1.387 . S
C691 H694 0.950 . S
C692 C691 1.387 . S
C692 C695 1.387 . S
H693 C689 0.950 . S
H694 C691 0.950 . S
C695 C686 1.390 . S
C695 H688 0.950 . S
C695 C692 1.387 . S
C696 C697 1.387 . S
C696 H700 0.950 . S
C696 C705 1.390 . S
C697 C696 1.387 . S
C697 C699 1.387 . S
H698 C705 0.950 . S
C699 C697 1.387 . S
C699 C701 1.390 . S
C699 H703 0.950 . S
H700 C696 0.950 . S
C701 C699 1.390 . S
C701 C702 1.387 . S
C701 H704 0.950 . S
C702 C701 1.387 . S
C702 C705 1.387 . S
H703 C699 0.950 . S
H704 C701 0.950 . S
C705 C696 1.390 . S
C705 H698 0.950 . S
C705 C702 1.387 . S
C706 C707 1.387 . S
C706 H710 0.950 . S
C706 C715 1.390 . S
C707 C706 1.387 . S
C707 C709 1.387 . S
H708 C715 0.950 . S
C709 C707 1.387 . S
C709 C711 1.390 . S
C709 H713 0.950 . S
H710 C706 0.950 . S
C711 C709 1.390 . S
C711 C712 1.387 . S
C711 H714 0.950 . S
C712 C711 1.387 . S
C712 C715 1.387 . S
H713 C709 0.950 . S
H714 C711 0.950 . S
C715 C706 1.390 . S
C715 H708 0.950 . S
C715 C712 1.387 . S
C716 C717 1.387 . S
C716 H720 0.950 . S
C716 C725 1.390 . S
C717 C716 1.387 . S
C717 C719 1.387 . S
H718 C725 0.950 . S
C719 C717 1.387 . S
C719 C721 1.390 . S
C719 H723 0.950 . S
H720 C716 0.950 . S
C721 C719 1.390 . S
C721 C722 1.387 . S
C721 H724 0.950 . S
C722 C721 1.387 . S
C722 C725 1.387 . S
H723 C719 0.950 . S
H724 C721 0.950 . S
C725 C716 1.390 . S
C725 H718 0.950 . S
C725 C722 1.387 . S
C726 C727 1.387 . S
C726 H730 0.950 . S
C726 C735 1.390 . S
C727 C726 1.387 . S
C727 C729 1.387 . S
H728 C735 0.950 . S
C729 C727 1.387 . S
C729 C731 1.390 . S
C729 H733 0.950 . S
H730 C726 0.950 . S
C731 C729 1.390 . S
C731 C732 1.387 . S
C731 H734 0.950 . S
C732 C731 1.387 . S
C732 C735 1.387 . S
H733 C729 0.950 . S
H734 C731 0.950 . S
C735 C726 1.390 . S
C735 H728 0.950 . S
C735 C732 1.387 . S
C736 C737 1.387 . S
C736 H740 0.950 . S
C736 C745 1.390 . S
C737 C736 1.387 . S
C737 C739 1.387 . S
H738 C745 0.950 . S
C739 C737 1.387 . S
C739 C741 1.390 . S
C739 H743 0.950 . S
H740 C736 0.950 . S
C741 C739 1.390 . S
C741 C742 1.387 . S
C741 H744 0.950 . S
C742 C741 1.387 . S
C742 C745 1.387 . S
H743 C739 0.950 . S
H744 C741 0.950 . S
C745 C736 1.390 . S
C745 H738 0.950 . S
C745 C742 1.387 . S
C746 C747 1.387 . S
C746 H750 0.950 . S
C746 C755 1.390 . S
C747 C746 1.387 . S
C747 C749 1.387 . S
H748 C755 0.950 . S
C749 C747 1.387 . S
C749 C751 1.390 . S
C749 H753 0.950 . S
H750 C746 0.950 . S
C751 C749 1.390 . S
C751 C752 1.387 . S
C751 H754 0.950 . S
C752 C751 1.387 . S
C752 C755 1.387 . S
H753 C749 0.950 . S
H754 C751 0.950 . S
C755 C746 1.390 . S
C755 H748 0.950 . S
C755 C752 1.387 . S
C756 C757 1.387 . S
C756 H760 0.950 . S
C756 C765 1.390 . S
C757 C756 1.387 . S
C757 C759 1.387 . S
H758 C765 0.950 . S
C759 C757 1.387 . S
C759 C761 1.390 . S
C759 H763 0.950 . S
H760 C756 0.950 . S
C761 C759 1.390 . S
C761 C762 1.387 . S
C761 H764 0.950 . S
C762 C761 1.387 . S
C762 C765 1.387 . S
H763 C759 0.950 . S
H764 C761 0.950 . S
C765 C756 1.390 . S
C765 H758 0.950 . S
C765 C762 1.387 . S
C766 C767 1.387 . S
C766 H770 0.950 . S
C766 C775 1.390 . S
C767 C766 1.387 . S
C767 C769 1.387 . S
H768 C775 0.950 . S
C769 C767 1.387 . S
C769 C771 1.390 . S
C769 H773 0.950 . S
H770 C766 0.950 . S
C771 C769 1.390 . S
C771 C772 1.387 . S
C771 H774 0.950 . S
C772 C771 1.387 . S
C772 C775 1.387 . S
H773 C769 0.950 . S
H774 C771 0.950 . S
C775 C766 1.390 . S
C775 H768 0.950 . S
C775 C772 1.387 . S
C776 C777 1.387 . S
C776 H780 0.950 . S
C776 C785 1.390 . S
C777 C776 1.387 . S
C777 C779 1.387 . S
H778 C785 0.950 . S
C779 C777 1.387 . S
C779 C781 1.390 . S
C779 H783 0.950 . S
H780 C776 0.950 . S
C781 C779 1.390 . S
C781 C782 1.387 . S
C781 H784 0.950 . S
C782 C781 1.387 . S
C782 C785 1.387 . S
H783 C779 0.950 . S
H784 C781 0.950 . S
C785 C776 1.390 . S
C785 H778 0.950 . S
C785 C782 1.387 . S
C786 C787 1.387 . S
C786 H790 0.950 . S
C786 C795 1.390 . S
C787 C786 1.387 . S
C787 C789 1.387 . S
H788 C795 0.950 . S
C789 C787 1.387 . S
C789 C791 1.390 . S
C789 H793 0.950 . S
H790 C786 0.950 . S
C791 C789 1.390 . S
C791 C792 1.387 . S
C791 H794 0.950 . S
C792 C791 1.387 . S
C792 C795 1.387 . S
H793 C789 0.950 . S
H794 C791 0.950 . S
C795 C786 1.390 . S
C795 H788 0.950 . S
C795 C792 1.387 . S
C796 C797 1.387 . S
C796 H800 0.950 . S
C796 C805 1.390 . S
C797 C796 1.387 . S
C797 C799 1.387 . S
H798 C805 0.950 . S
C799 C797 1.387 . S
C799 C801 1.390 . S
C799 H803 0.950 . S
H800 C796 0.950 . S
C801 C799 1.390 . S
C801 C802 1.387 . S
C801 H804 0.950 . S
C802 C801 1.387 . S
C802 C805 1.387 . S
H803 C799 0.950 . S
H804 C801 0.950 . S
C805 C796 1.390 . S
C805 H798 0.950 . S
C805 C802 1.387 . S
C806 C807 1.387 . S
C806 H810 0.950 . S
C806 C815 1.390 . S
C807 C806 1.387 . S
C807 C809 1.387 . S
H808 C815 0.950 . S
C809 C807 1.387 . S
C809 C811 1.390 . S
C809 H813 0.950 . S
H810 C806 0.950 . S
C811 C809 1.390 . S
C811 C812 1.387 . S
C811 H814 0.950 . S
C812 C811 1.387 . S
C812 C815 1.387 . S
H813 C809 0.950 . S
H814 C811 0.950 . S
C815 C806 1.390 . S
C815 H808 0.950 . S
C815 C812 1.387 . S
C816 C817 1.387 . S
C816 H820 0.950 . S
C816 C825 1.390 . S
C817 C816 1.387 . S
C817 C819 1.387 . S
H818 C825 0.950 . S
C819 C817 1.387 . S
C819 C821 1.390 . S
C819 H823 0.950 . S
H820 C816 0.950 . S
C821 C819 1.390 . S
C821 C822 1.387 . S
C821 H824 0.950 . S
C822 C821 1.387 . S
C822 C825 1.387 . S
H823 C819 0.950 . S
H824 C821 0.950 . S
C825 C816 1.390 . S
C825 H818 0.950 . S
C825 C822 1.387 . S
C826 C827 1.387 . S
C826 H830 0.950 . S
C826 C835 1.390 . S
C827 C826 1.387 . S
C827 C829 1.387 . S
H828 C835 0.950 . S
C829 C827 1.387 . S
C829 C831 1.390 . S
C829 H833 0.950 . S
H830 C826 0.950 . S
C831 C829 1.390 . S
C831 C832 1.387 . S
C831 H834 0.950 . S
C832 C831 1.387 . S
C832 C835 1.387 . S
H833 C829 0.950 . S
H834 C831 0.950 . S
C835 C826 1.390 . S
C835 H828 0.950 . S
C835 C832 1.387 . S
C836 C837 1.387 . S
C836 H840 0.950 . S
C836 C845 1.390 . S
C837 C836 1.387 . S
C837 C839 1.387 . S
H838 C845 0.950 . S
C839 C837 1.387 . S
C839 C841 1.390 . S
C839 H843 0.950 . S
H840 C836 0.950 . S
C841 C839 1.390 . S
C841 C842 1.387 . S
C841 H844 0.950 . S
C842 C841 1.387 . S
C842 C845 1.387 . S
H843 C839 0.950 . S
H844 C841 0.950 . S
C845 C836 1.390 . S
C845 H838 0.950 . S
C845 C842 1.387 . S
C846 C847 1.387 . S
C846 H850 0.950 . S
C846 C855 1.390 . S
C847 C846 1.387 . S
C847 C849 1.387 . S
H848 C855 0.950 . S
C849 C847 1.387 . S
C849 C851 1.390 . S
C849 H853 0.950 . S
H850 C846 0.950 . S
C851 C849 1.390 . S
C851 C852 1.387 . S
C851 H854 0.950 . S
C852 C851 1.387 . S
C852 C855 1.387 . S
H853 C849 0.950 . S
H854 C851 0.950 . S
C855 C846 1.390 . S
C855 H848 0.950 . S
C855 C852 1.387 . S
C382 C201 1.393 . S
C377 C17 1.362 . S
C392 C206 1.655 . S
C387 C44 1.469 . S
C402 C207 1.422 . S
C397 C63 1.391 . S
C407 C87 1.371 . S
C412 C211 1.349 . S
C417 C110 1.351 . S
C422 C214 1.334 . S
C432 C215 1.447 . S
C427 C131 1.409 . S
C437 C159 1.443 . S
C442 C192 1.639 . S
C447 C177 1.379 . S
C452 C208 1.418 . S
C462 C246 1.455 . S
C457 C20 1.352 . S
C467 C42 1.388 . S
C472 C272 1.385 . S
C482 C224 1.504 . S
C477 C66 1.387 . S
C492 C279 1.291 . S
C487 C86 1.334 . S
C497 C109 1.333 . S
C502 C233 1.303 . S
C512 C275 1.540 . S
C507 C136 1.424 . S
C517 C157 1.386 . S
C522 C239 1.391 . S
C527 C182 1.393 . S
C532 C270 1.489 . S
C537 C18 1.376 . S
C542 C278 1.313 . S
C547 C112 1.328 . S
C552 C265 1.402 . S
C562 C243 1.299 . S
C557 C134 1.320 . S
C572 C271 1.380 . S
C567 C154 1.434 . S
C577 C180 1.331 . S
C582 C238 1.303 . S
C587 C64 1.362 . S
C592 C256 1.300 . S
C602 C247 1.433 . S
C597 C89 1.338 . S
C607 C39 1.449 . S
C612 C240 1.411 . S
C617 C178 1.337 . S
C622 C302 1.308 . S
C627 C113 1.444 . S
C632 C297 1.488 . S
C642 C311 1.320 . S
C637 C132 1.368 . S
C652 C288 1.284 . S
C647 C156 1.347 . S
C657 C41 1.329 . S
C662 C304 1.292 . S
C672 C303 1.341 . S
C667 C62 1.385 . S
C677 C90 1.419 . S
C682 C307 1.535 . S
C687 C16 1.354 . S
C692 C310 1.327 . S
C697 C181 1.363 . S
C702 C336 1.571 . S
C712 C352 1.383 . S
C707 C111 1.406 . S
C717 C135 1.393 . S
C722 C334 1.626 . S
C727 C155 1.352 . S
C732 C367 1.299 . S
C742 C343 1.362 . S
C737 C40 1.335 . S
C747 C67 1.441 . S
C752 C361 1.487 . S
C762 C339 1.413 . S
C757 C88 1.390 . S
C772 C374 1.473 . S
C767 C21 1.411 . S
C782 C366 1.358 . S
C777 C179 1.395 . S
C787 C43 1.344 . S
C792 C371 1.490 . S
C797 C65 1.321 . S
C802 C342 1.342 . S
C812 C375 1.411 . S
C807 C85 1.453 . S
C817 C19 1.336 . S
C822 C329 1.359 . S
C827 C133 1.383 . S
C832 C368 1.344 . S
C842 C320 1.569 . S
C837 C158 1.349 . S
C852 C335 1.502 . S
C847 C108 1.457 . S
