# Generated by pormake.
# Topology csq, (4,8)-cn, num edge types: 1
# Building blocks:
#     Node 0, Type 0, BuildingBlock: MUDLON_clean_sbu_0, # of connection points: 4
#     Node 1, Type 0, BuildingBlock: MUDLON_clean_sbu_0, # of connection points: 4
#     Node 2, Type 0, BuildingBlock: MUDLON_clean_sbu_0, # of connection points: 4
#     Node 3, Type 0, BuildingBlock: MUDLON_clean_sbu_0, # of connection points: 4
#     Node 4, Type 0, BuildingBlock: MUDLON_clean_sbu_0, # of connection points: 4
#     Node 5, Type 0, BuildingBlock: MUDLON_clean_sbu_0, # of connection points: 4
#     Node 6, Type 1, BuildingBlock: TAGTUT_clean_sbu_3, # of connection points: 8
#     Node 7, Type 1, BuildingBlock: TAGTUT_clean_sbu_3, # of connection points: 8
#     Node 8, Type 1, BuildingBlock: TAGTUT_clean_sbu_3, # of connection points: 8
#     Edge 9, Type (0, 1), BuildingBlock: XIVTED_clean_linker_0, # of connection points: 2
#     Edge 10, Type (0, 1), BuildingBlock: XIVTED_clean_linker_0, # of connection points: 2
#     Edge 11, Type (0, 1), BuildingBlock: XIVTED_clean_linker_0, # of connection points: 2
#     Edge 12, Type (0, 1), BuildingBlock: XIVTED_clean_linker_0, # of connection points: 2
#     Edge 13, Type (0, 1), BuildingBlock: XIVTED_clean_linker_0, # of connection points: 2
#     Edge 14, Type (0, 1), BuildingBlock: XIVTED_clean_linker_0, # of connection points: 2
#     Edge 15, Type (0, 1), BuildingBlock: XIVTED_clean_linker_0, # of connection points: 2
#     Edge 16, Type (0, 1), BuildingBlock: XIVTED_clean_linker_0, # of connection points: 2
#     Edge 17, Type (0, 1), BuildingBlock: XIVTED_clean_linker_0, # of connection points: 2
#     Edge 18, Type (0, 1), BuildingBlock: XIVTED_clean_linker_0, # of connection points: 2
#     Edge 19, Type (0, 1), BuildingBlock: XIVTED_clean_linker_0, # of connection points: 2
#     Edge 20, Type (0, 1), BuildingBlock: XIVTED_clean_linker_0, # of connection points: 2
#     Edge 21, Type (0, 1), BuildingBlock: XIVTED_clean_linker_0, # of connection points: 2
#     Edge 22, Type (0, 1), BuildingBlock: XIVTED_clean_linker_0, # of connection points: 2
#     Edge 23, Type (0, 1), BuildingBlock: XIVTED_clean_linker_0, # of connection points: 2
#     Edge 24, Type (0, 1), BuildingBlock: XIVTED_clean_linker_0, # of connection points: 2
#     Edge 25, Type (0, 1), BuildingBlock: XIVTED_clean_linker_0, # of connection points: 2
#     Edge 26, Type (0, 1), BuildingBlock: XIVTED_clean_linker_0, # of connection points: 2
#     Edge 27, Type (0, 1), BuildingBlock: XIVTED_clean_linker_0, # of connection points: 2
#     Edge 28, Type (0, 1), BuildingBlock: XIVTED_clean_linker_0, # of connection points: 2
#     Edge 29, Type (0, 1), BuildingBlock: XIVTED_clean_linker_0, # of connection points: 2
#     Edge 30, Type (0, 1), BuildingBlock: XIVTED_clean_linker_0, # of connection points: 2
#     Edge 31, Type (0, 1), BuildingBlock: XIVTED_clean_linker_0, # of connection points: 2
#     Edge 32, Type (0, 1), BuildingBlock: XIVTED_clean_linker_0, # of connection points: 2
# Relax obj value: 0.067
# Max RMSD: 0.128
# Mean RMSD: 0.104
data_MOF--net-csq--node1-MUDLON_clean_sbu_0--node2-TAGTUT_clean_sbu_3--edge1-XIVTED_clean_linker_0
_symmetry_space_group_name_H-M    P1
_symmetry_Int_Tables_number       1
_symmetry_cell_setting            triclinic
loop_
_symmetry_equiv_pos_as_xyz
'x, y, z'
_cell_length_a     50.356395
_cell_length_b     49.789901
_cell_length_c     20.10566
_cell_angle_alpha  92.654562
_cell_angle_beta   92.391862
_cell_angle_gamma 120.03098
loop_
_atom_site_label
_atom_site_type_symbol
_atom_site_fract_x
_atom_site_fract_y
_atom_site_fract_z
_atom_type_partial_charge
Mg0 Mg 0.25048 0.4889 0.1486 0.0
C1 C 0.18944 0.43914 0.08051 0.0
O2 O 0.18205 0.43649 0.14275 0.0
C3 C 0.27968 0.45352 0.20453 0.0
O4 O 0.28271 0.44879 0.14118 0.0
C5 C 0.234 0.51533 0.26607 0.0
O6 O 0.25472 0.51007 0.29466 0.0
O7 O 0.22925 0.51125 0.20285 0.0
O8 O 0.2171 0.45792 0.06872 0.0
O9 O 0.29395 0.51869 0.10718 0.0
C10 C 0.29481 0.51915 0.04424 0.0
O11 O 0.26873 0.50711 0.00726 0.0
O12 O 0.26419 0.46631 0.22038 0.0
Mg13 Mg 0.76273 0.24004 0.11078 0.0
C14 C 0.79382 0.28665 0.01665 0.0
O15 O 0.78531 0.2999 0.06249 0.0
C16 C 0.76297 0.18967 0.19071 0.0
O17 O 0.7846 0.21345 0.22856 0.0
C18 C 0.79073 0.2791 0.2518 0.0
O19 O 0.7679 0.25762 0.28212 0.0
O20 O 0.79138 0.27608 0.18884 0.0
O21 O 0.78674 0.25845 0.02145 0.0
O22 O 0.71522 0.22839 0.09389 0.0
C23 C 0.70492 0.23112 0.03735 0.0
O24 O 0.72421 0.25116 0.99828 0.0
O25 O 0.75439 0.19445 0.13438 0.0
Mg26 Mg 0.53862 0.76275 0.06431 0.0
C27 C 0.55841 0.80184 0.20395 0.0
O28 O 0.58207 0.79769 0.19911 0.0
C29 C 0.56418 0.7386 0.95036 0.0
O30 O 0.59038 0.76043 0.98053 0.0
C31 C 0.56249 0.82814 0.0064 0.0
O32 O 0.58205 0.83749 0.05929 0.0
O33 O 0.54235 0.79949 0.99594 0.0
O34 O 0.5374 0.79107 0.15637 0.0
O35 O 0.53405 0.72558 0.13203 0.0
C36 C 0.51197 0.69763 0.12338 0.0
O37 O 0.4916 0.68948 0.07237 0.0
O38 O 0.53911 0.73388 0.97299 0.0
Mg39 Mg 0.79171 0.53997 0.06555 0.0
C40 C 0.74375 0.55508 0.01471 0.0
O41 O 0.74107 0.5582 0.07889 0.0
C42 C 0.84297 0.58889 0.15888 0.0
O43 O 0.82011 0.58238 0.19658 0.0
C44 C 0.73616 0.50237 0.14133 0.0
O45 O 0.72588 0.48758 0.08181 0.0
O46 O 0.76435 0.5232 0.15097 0.0
O47 O 0.76502 0.55051 0.99553 0.0
O48 O 0.80329 0.50913 0.0107 0.0
C49 C 0.82676 0.50777 0.03167 0.0
O50 O 0.83861 0.51886 0.09298 0.0
O51 O 0.83686 0.57813 0.09832 0.0
Mg52 Mg 0.25027 0.78889 0.13756 0.0
C53 C 0.22963 0.74278 0.01094 0.0
O54 O 0.25446 0.7636 0.98466 0.0
C55 C 0.32003 0.81814 0.14977 0.0
O56 O 0.31858 0.83314 0.09896 0.0
C57 C 0.22997 0.75696 0.2582 0.0
O58 O 0.24844 0.74852 0.23218 0.0
O59 O 0.22536 0.77657 0.22868 0.0
O60 O 0.2244 0.74795 0.07004 0.0
O61 O 0.25918 0.83056 0.08805 0.0
C62 C 0.24871 0.82915 0.02839 0.0
O63 O 0.22676 0.80228 1.0006 0.0
O64 O 0.29522 0.79663 0.16988 0.0
Mg65 Mg 0.43939 0.21869 0.17432 0.0
C66 C 0.42103 0.23183 0.30594 0.0
O67 O 0.44475 0.22894 0.32398 0.0
C68 C 0.41852 0.18529 0.03592 0.0
O69 O 0.42226 0.21195 0.01821 0.0
C70 C 0.48074 0.26848 0.07779 0.0
O71 O 0.49427 0.25207 0.06768 0.0
O72 O 0.46102 0.2609 0.12121 0.0
O73 O 0.41142 0.22665 0.2444 0.0
O74 O 0.46596 0.20344 0.23346 0.0
C75 C 0.44726 0.17796 0.25741 0.0
O76 O 0.41765 0.16602 0.24222 0.0
O77 O 0.4178 0.18047 0.09757 0.0
C78 C 0.06044 0.48973 0.52857 0.0
C79 C 0.03985 0.43111 0.75461 0.0
C80 C 0.95413 0.42974 0.73393 0.0
Mg81 Mg 0.03209 0.53281 0.47758 0.0
Mg82 Mg 0.01751 0.57363 0.58938 0.0
O83 O 0.00987 0.5342 0.55709 0.0
Mg84 Mg 0.01967 0.5091 0.61765 0.0
O85 O 0.02949 0.48238 0.67286 0.0
Mg86 Mg 0.00557 0.44132 0.61851 0.0
Mg87 Mg 0.02006 0.4814 0.76177 0.0
C88 C 0.97902 0.53206 0.70432 0.0
O89 O 0.05597 0.55123 0.68579 0.0
O90 O 0.00722 0.55579 0.42183 0.0
O91 O 0.04678 0.53126 0.78644 0.0
O92 O 0.07336 0.5821 0.50419 0.0
O93 O 0.99719 0.58151 0.50299 0.0
O94 O 0.06595 0.60787 0.58835 0.0
O95 O 0.98392 0.46483 0.55552 0.0
O96 O 0.99106 0.48342 0.45477 0.0
C97 C 0.97713 0.461 0.49232 0.0
C98 C 0.99618 0.57304 0.44138 0.0
O99 O 0.98507 0.51049 0.68798 0.0
O100 O 0.03061 0.42403 0.69214 0.0
O101 O 0.9907 0.55808 0.67693 0.0
O102 O 0.96361 0.4208 0.68418 0.0
O103 O 0.03744 0.4518 0.78979 0.0
O104 O 0.97136 0.45577 0.76701 0.0
O105 O 0.05375 0.51074 0.54463 0.0
O106 O 0.04671 0.46303 0.55276 0.0
C107 C 0.08282 0.6063 0.54433 0.0
C108 C 0.06045 0.55421 0.74984 0.0
C109 C 0.50158 0.04243 0.50703 0.0
C110 C 0.60241 0.03725 0.4593 0.0
C111 C 0.55269 0.94799 0.5376 0.0
Mg112 Mg 0.45208 0.00759 0.6238 0.0
Mg113 Mg 0.48247 0.00158 0.765 0.0
O114 O 0.47441 0.98979 0.67346 0.0
Mg115 Mg 0.51189 0.00456 0.62244 0.0
O116 O 0.54817 0.01875 0.56719 0.0
Mg117 Mg 0.5264 0.99385 0.48097 0.0
Mg118 Mg 0.58155 0.0147 0.60083 0.0
C119 C 0.52467 0.97165 0.74754 0.0
O120 O 0.54418 0.04291 0.70121 0.0
O121 O 0.41106 0.97873 0.69212 0.0
O122 O 0.58787 0.04054 0.69836 0.0
O123 O 0.46746 0.04982 0.7003 0.0
O124 O 0.43539 0.97755 0.78797 0.0
O125 O 0.49738 0.04983 0.78479 0.0
O126 O 0.48301 0.96795 0.53943 0.0
O127 O 0.43786 0.96583 0.54738 0.0
C128 C 0.45466 0.95646 0.51995 0.0
C129 C 0.41081 0.97115 0.75284 0.0
O130 O 0.52405 0.97339 0.68382 0.0
O131 O 0.57409 0.02288 0.4355 0.0
O132 O 0.5129 0.98343 0.78649 0.0
O133 O 0.53773 0.95599 0.49861 0.0
O134 O 0.61012 0.03755 0.52114 0.0
O135 O 0.5705 0.96622 0.58679 0.0
O136 O 0.49727 0.03496 0.56758 0.0
O137 O 0.51375 0.03132 0.46784 0.0
C138 C 0.4843 0.06257 0.7546 0.0
C139 C 0.57154 0.05105 0.72447 0.0
C140 C 0.53481 0.55888 0.6854 0.0
C141 C 0.44484 0.4799 0.82175 0.0
C142 C 0.47798 0.4168 0.76332 0.0
Mg143 Mg 0.56001 0.54372 0.54868 0.0
Mg144 Mg 0.51196 0.48466 0.44624 0.0
O145 O 0.53148 0.49767 0.53275 0.0
Mg146 Mg 0.50493 0.48998 0.60858 0.0
O147 O 0.48049 0.48405 0.68699 0.0
Mg148 Mg 0.51268 0.49558 0.76257 0.0
Mg149 Mg 0.44487 0.44483 0.68867 0.0
C150 C 0.47175 0.42325 0.52038 0.0
O151 O 0.4631 0.48364 0.54343 0.0
O152 O 0.58816 0.53646 0.46551 0.0
O153 O 0.42445 0.44286 0.58898 0.0
O154 O 0.53471 0.55665 0.47018 0.0
O155 O 0.55308 0.4945 0.39989 0.0
O156 O 0.49673 0.51531 0.41161 0.0
O157 O 0.54422 0.49512 0.68107 0.0
O158 O 0.58365 0.5311 0.62976 0.0
C159 C 0.57323 0.51317 0.67732 0.0
C160 C 0.58092 0.51611 0.4157 0.0
O161 O 0.4828 0.43694 0.5792 0.0
O162 O 0.47454 0.49458 0.82968 0.0
O163 O 0.47821 0.43781 0.46693 0.0
O164 O 0.49786 0.44493 0.78264 0.0
O165 O 0.42984 0.45991 0.7723 0.0
O166 O 0.45569 0.4103 0.72074 0.0
O167 O 0.52724 0.54309 0.62867 0.0
O168 O 0.52952 0.54569 0.74028 0.0
C169 C 0.51198 0.54457 0.42629 0.0
C170 C 0.43478 0.46188 0.54285 0.0
H171 H 0.2294 0.51069 0.40013 0.0
H172 H 0.08451 0.53256 0.43374 0.0
H173 H 0.18882 0.52842 0.22641 0.0
H174 H 0.09701 0.46425 0.5332 0.0
H175 H 0.12949 0.54416 0.37007 0.0
H176 H 0.18846 0.50833 0.46465 0.0
C177 C 0.21222 0.51466 0.3757 0.0
C178 C 0.21237 0.51937 0.30741 0.0
C179 C 0.12219 0.52668 0.40595 0.0
C180 C 0.16547 0.51678 0.38146 0.0
C181 C 0.09667 0.52008 0.44218 0.0
C182 C 0.08687 0.4972 0.4883 0.0
C183 C 0.13837 0.51095 0.41778 0.0
C184 C 0.10348 0.48177 0.49759 0.0
C185 C 0.18877 0.51313 0.41259 0.0
C186 C 0.18943 0.52445 0.27878 0.0
N187 N 0.1285 0.4891 0.46311 0.0
N188 N 0.16671 0.52287 0.31593 0.0
H189 H 0.7075 0.14079 0.13828 0.0
H190 H 0.66457 0.06833 0.49101 0.0
H191 H 0.77112 0.17194 0.31341 0.0
H192 H 0.59743 0.04613 0.32587 0.0
H193 H 0.70533 0.09969 0.42021 0.0
H194 H 0.66917 0.09902 0.1992 0.0
C195 C 0.71372 0.13848 0.18905 0.0
C196 C 0.74254 0.16026 0.22105 0.0
C197 C 0.68172 0.08783 0.39924 0.0
C198 C 0.69847 0.11261 0.29128 0.0
C199 C 0.65831 0.06989 0.43973 0.0
C200 C 0.62733 0.05477 0.41476 0.0
C201 C 0.67429 0.09085 0.33303 0.0
C202 C 0.6209 0.05753 0.34755 0.0
C203 C 0.69167 0.11471 0.22396 0.0
C204 C 0.74916 0.15594 0.28687 0.0
N205 N 0.64416 0.07542 0.30918 0.0
N206 N 0.72718 0.13286 0.32 0.0
H207 H 0.54477 0.709 0.24306 0.0
H208 H 0.47281 0.53016 0.31358 0.0
H209 H 0.47232 0.6344 0.11345 0.0
H210 H 0.53702 0.60724 0.45087 0.0
H211 H 0.46949 0.56717 0.24226 0.0
H212 H 0.54035 0.67139 0.32135 0.0
C213 C 0.5279 0.68466 0.23101 0.0
C214 C 0.50903 0.67482 0.17136 0.0
C215 C 0.48403 0.57588 0.28839 0.0
C216 C 0.50379 0.63144 0.26115 0.0
C217 C 0.48585 0.55477 0.32925 0.0
C218 C 0.50559 0.56562 0.38783 0.0
C219 C 0.50212 0.60798 0.3063 0.0
C220 C 0.52184 0.59776 0.40574 0.0
C221 C 0.52528 0.66316 0.27598 0.0
C222 C 0.48741 0.64299 0.15878 0.0
N223 N 0.51997 0.61775 0.36485 0.0
N224 N 0.48551 0.62236 0.20313 0.0
H225 H 0.88939 0.58307 0.10628 0.0
H226 H 0.97822 0.61575 0.46439 0.0
H227 H 0.86637 0.61611 0.28483 0.0
H228 H 0.9797 0.5545 0.30702 0.0
H229 H 0.94827 0.62883 0.38882 0.0
H230 H 0.93347 0.5861 0.16945 0.0
C231 C 0.89404 0.59179 0.15831 0.0
C232 C 0.87378 0.5988 0.19078 0.0
C233 C 0.95536 0.61274 0.37058 0.0
C234 C 0.92414 0.60225 0.26288 0.0
C235 C 0.97244 0.60512 0.41374 0.0
C236 C 0.98097 0.58337 0.39253 0.0
C237 C 0.94664 0.59862 0.30546 0.0
C238 C 0.97329 0.57103 0.32578 0.0
C239 C 0.91909 0.59326 0.19433 0.0
C240 C 0.88111 0.61007 0.25809 0.0
N241 N 0.9562 0.57856 0.2847 0.0
N242 N 0.9055 0.6111 0.29212 0.0
H243 H 0.37573 0.87079 0.13708 0.0
H244 H 0.3993 0.904 0.51696 0.0
H245 H 0.32846 0.79727 0.26772 0.0
H246 H 0.47769 0.95241 0.40106 0.0
H247 H 0.3732 0.86453 0.42391 0.0
H248 H 0.41519 0.90068 0.22818 0.0
C249 C 0.37407 0.86052 0.18416 0.0
C250 C 0.34825 0.83188 0.19538 0.0
C251 C 0.39632 0.88347 0.41909 0.0
C252 C 0.39287 0.8661 0.29949 0.0
C253 C 0.41106 0.90608 0.47189 0.0
C254 C 0.44046 0.93144 0.46608 0.0
C255 C 0.41069 0.88679 0.35924 0.0
C256 C 0.45494 0.93309 0.40706 0.0
C257 C 0.39661 0.87762 0.23608 0.0
C258 C 0.34754 0.81959 0.2572 0.0
N259 N 0.43958 0.91136 0.35497 0.0
N260 N 0.36904 0.83714 0.30751 0.0
H261 H 0.43311 0.24093 0.44108 0.0
H262 H 0.42189 0.39257 0.43266 0.0
H263 H 0.38877 0.26172 0.2796 0.0
H264 H 0.474 0.37712 0.5863 0.0
H265 H 0.39504 0.33734 0.39667 0.0
H266 H 0.4331 0.28181 0.51272 0.0
C267 C 0.42259 0.25354 0.42116 0.0
C268 C 0.41182 0.24862 0.35359 0.0
C269 C 0.41185 0.34576 0.43914 0.0
C270 C 0.41208 0.29565 0.4352 0.0
C271 C 0.42718 0.3773 0.45975 0.0
C272 C 0.45069 0.38939 0.51135 0.0
C273 C 0.42062 0.32626 0.46931 0.0
C274 C 0.45629 0.36867 0.54563 0.0
C275 C 0.42266 0.27694 0.46217 0.0
C276 C 0.39786 0.26513 0.33098 0.0
N277 N 0.4419 0.33811 0.52282 0.0
N278 N 0.39907 0.28846 0.37128 0.0
H279 H 0.53367 0.81635 0.88121 0.0
H280 H 0.55354 0.98338 0.8714 0.0
H281 H 0.59165 0.89153 0.02861 0.0
H282 H 0.5259 0.92055 0.69423 0.0
H283 H 0.56853 0.9504 0.929 0.0
H284 H 0.53082 0.85381 0.81106 0.0
C285 C 0.54597 0.84077 0.89863 0.0
C286 C 0.56265 0.85081 0.96121 0.0
C287 C 0.55961 0.94399 0.87726 0.0
C288 C 0.55933 0.8937 0.88135 0.0
C289 C 0.55096 0.96276 0.84443 0.0
C290 C 0.53813 0.95441 0.77829 0.0
C291 C 0.55478 0.91629 0.84422 0.0
C292 C 0.53562 0.9277 0.74535 0.0
C293 C 0.54447 0.86214 0.85837 0.0
C294 C 0.57839 0.88275 0.98092 0.0
N295 N 0.54333 0.9092 0.77911 0.0
N296 N 0.57599 0.903 0.94153 0.0
H297 H 0.74467 0.55457 0.87917 0.0
H298 H 0.56667 0.50215 0.81095 0.0
H299 H 0.68635 0.54506 0.03847 0.0
H300 H 0.63206 0.52926 0.66008 0.0
H301 H 0.60829 0.51277 0.89554 0.0
H302 H 0.70195 0.54176 0.79817 0.0
C303 C 0.72293 0.55008 0.89711 0.0
C304 C 0.71912 0.551 0.96563 0.0
C305 C 0.61335 0.51622 0.84377 0.0
C306 C 0.66978 0.53578 0.87304 0.0
C307 C 0.5896 0.5099 0.79558 0.0
C308 C 0.59603 0.51508 0.72865 0.0
C309 C 0.64343 0.52741 0.8243 0.0
C310 C 0.62614 0.52529 0.71128 0.0
C311 C 0.69846 0.54263 0.85083 0.0
C312 C 0.69035 0.54485 0.98602 0.0
N313 N 0.64863 0.53117 0.7587 0.0
N314 N 0.66667 0.53731 0.93986 0.0
H315 H 0.17955 0.69359 0.05544 0.0
H316 H 0.10752 0.60439 0.69547 0.0
H317 H 0.22461 0.72858 0.87506 0.0
H318 H 0.06672 0.57275 0.8816 0.0
H319 H 0.14945 0.65135 0.75708 0.0
H320 H 0.13763 0.64971 0.98969 0.0
C321 C 0.18072 0.69197 1.00183 0.0
C322 C 0.20565 0.71486 0.97071 0.0
C323 C 0.13117 0.63416 0.78414 0.0
C324 C 0.15727 0.6644 0.89449 0.0
C325 C 0.10714 0.6075 0.74903 0.0
C326 C 0.08374 0.58449 0.78357 0.0
C327 C 0.13159 0.63771 0.854 0.0
C328 C 0.08444 0.58964 0.85293 0.0
C329 C 0.15664 0.66686 0.96414 0.0
C330 C 0.20586 0.71137 0.90104 0.0
N331 N 0.10802 0.61555 0.88571 0.0
N332 N 0.18192 0.68658 0.86507 0.0
H333 H 0.42178 0.18739 0.89994 0.0
H334 H 0.50422 0.08621 0.88424 0.0
H335 H 0.4328 0.14076 0.06568 0.0
H336 H 0.45873 0.09631 0.70825 0.0
H337 H 0.4881 0.11711 0.95041 0.0
H338 H 0.44223 0.16195 0.82767 0.0
C339 C 0.42805 0.1715 0.92093 0.0
C340 C 0.42546 0.16617 0.98901 0.0
C341 C 0.48196 0.11284 0.89714 0.0
C342 C 0.4498 0.13802 0.90733 0.0
C343 C 0.49149 0.09551 0.85908 0.0
C344 C 0.48239 0.08814 0.79061 0.0
C345 C 0.46353 0.12323 0.86656 0.0
C346 C 0.46597 0.10107 0.761 0.0
C347 C 0.43991 0.15722 0.87979 0.0
C348 C 0.43418 0.14551 0.01355 0.0
N349 N 0.45678 0.11776 0.79928 0.0
N350 N 0.44624 0.1325 0.97295 0.0
H351 H 0.30307 0.51647 0.91152 0.0
H352 H 0.46451 0.52485 0.92887 0.0
H353 H 0.35062 0.53272 0.10596 0.0
H354 H 0.38282 0.45474 0.81186 0.0
H355 H 0.43228 0.54191 0.98624 0.0
H356 H 0.34386 0.51146 0.86185 0.0
C357 C 0.3224 0.51971 0.94372 0.0
C358 C 0.32303 0.52434 0.01318 0.0
C359 C 0.42176 0.52275 0.94804 0.0
C360 C 0.36974 0.51852 0.9564 0.0
C361 C 0.43998 0.51287 0.91567 0.0
C362 C 0.42653 0.48842 0.86498 0.0
C363 C 0.39028 0.50854 0.92801 0.0
C364 C 0.39456 0.47384 0.84992 0.0
C365 C 0.34559 0.51669 0.91531 0.0
C366 C 0.34902 0.52873 0.05219 0.0
N367 N 0.37776 0.48438 0.8805 0.0
N368 N 0.37124 0.52524 0.02333 0.0
H369 H 0.81987 0.26952 0.9172 0.0
H370 H 0.92013 0.44351 0.81639 0.0
H371 H 0.80991 0.34618 0.99398 0.0
H372 H 0.92074 0.36612 0.71223 0.0
H373 H 0.87654 0.4071 0.87506 0.0
H374 H 0.85404 0.30309 0.83593 0.0
C375 C 0.82462 0.29325 0.91659 0.0
C376 C 0.8123 0.30514 0.96303 0.0
C377 C 0.88587 0.39796 0.83875 0.0
C378 C 0.8513 0.3436 0.87056 0.0
C379 C 0.91078 0.41882 0.8051 0.0
C380 C 0.92431 0.40791 0.7598 0.0
C381 C 0.87463 0.36584 0.828 0.0
C382 C 0.91105 0.37557 0.74686 0.0
C383 C 0.84406 0.31239 0.87016 0.0
C384 C 0.81911 0.33604 0.95974 0.0
N385 N 0.88725 0.35566 0.78165 0.0
N386 N 0.83831 0.3542 0.91487 0.0
H387 H 0.8778 0.50235 0.05712 0.0
H388 H 0.93235 0.54429 0.69409 0.0
H389 H 0.81891 0.5026 0.89512 0.0
H390 H 0.97284 0.50583 0.82397 0.0
H391 H 0.89248 0.53247 0.77179 0.0
H392 H 0.91397 0.50482 0.97632 0.0
C393 C 0.87216 0.50231 0.00452 0.0
C394 C 0.84534 0.50251 0.98302 0.0
C395 C 0.90994 0.5264 0.78319 0.0
C396 C 0.88699 0.50615 0.89079 0.0
C397 C 0.93284 0.53341 0.73922 0.0
C398 C 0.95572 0.52582 0.75265 0.0
C399 C 0.91029 0.51231 0.84188 0.0
C400 C 0.95527 0.51161 0.81155 0.0
C401 C 0.89287 0.50382 0.95852 0.0
C402 C 0.83928 0.50251 0.91418 0.0
N403 N 0.93305 0.50555 0.8545 0.0
N404 N 0.86018 0.50487 0.87075 0.0
H405 H 0.29502 0.88834 0.06816 0.0
H406 H 0.3525 0.92601 0.70073 0.0
H407 H 0.24322 0.82915 0.89179 0.0
H408 H 0.40345 0.98003 0.88267 0.0
H409 H 0.30791 0.895 0.76562 0.0
H410 H 0.33019 0.92709 0.9972 0.0
C411 C 0.2907 0.88369 0.01446 0.0
C412 C 0.2663 0.85523 0.98609 0.0
C413 C 0.32874 0.91397 0.791 0.0
C414 C 0.30702 0.89942 0.90402 0.0
C415 C 0.35408 0.93172 0.75392 0.0
C416 C 0.38181 0.95527 0.78657 0.0
C417 C 0.33127 0.92014 0.86083 0.0
C418 C 0.38269 0.9617 0.85563 0.0
C419 C 0.31091 0.90581 0.97379 0.0
C420 C 0.26183 0.85067 0.91598 0.0
N421 N 0.358 0.94415 0.89032 0.0
N422 N 0.28228 0.87229 0.87736 0.0
H423 H 0.52783 0.30287 0.99839 0.0
H424 H 0.43036 0.35908 0.78445 0.0
H425 H 0.43755 0.2842 0.0452 0.0
H426 H 0.52868 0.4179 0.8216 0.0
H427 H 0.43212 0.32194 0.85791 0.0
H428 H 0.52816 0.33732 0.91367 0.0
C429 C 0.50821 0.3061 0.99108 0.0
C430 C 0.4828 0.29094 0.02945 0.0
C431 C 0.45333 0.34282 0.84915 0.0
C432 C 0.48259 0.32911 0.93156 0.0
C433 C 0.45239 0.36385 0.80681 0.0
C434 C 0.47938 0.3917 0.79726 0.0
C435 C 0.48151 0.34936 0.88107 0.0
C436 C 0.50729 0.39679 0.82805 0.0
C437 C 0.50839 0.32562 0.94278 0.0
C438 C 0.45783 0.29574 0.01754 0.0
N439 N 0.50766 0.37584 0.86869 0.0
N440 N 0.45824 0.31413 0.96933 0.0
H441 H 0.12735 0.40205 0.08835 0.0
H442 H 0.08881 0.42649 0.7145 0.0
H443 H 0.1957 0.44479 0.94586 0.0
H444 H 0.02825 0.40581 0.87354 0.0
H445 H 0.12374 0.4178 0.78779 0.0
H446 H 0.08708 0.38801 0.99947 0.0
C447 C 0.13393 0.40803 0.03816 0.0
C448 C 0.16502 0.42524 0.02494 0.0
C449 C 0.10238 0.41432 0.80594 0.0
C450 C 0.11891 0.40936 0.92287 0.0
C451 C 0.08234 0.41894 0.76392 0.0
C452 C 0.0558 0.41695 0.78839 0.0
C453 C 0.09555 0.4075 0.87237 0.0
C454 C 0.04862 0.40767 0.8531 0.0
C455 C 0.11088 0.40003 0.9874 0.0
C456 C 0.17205 0.43195 0.95862 0.0
N457 N 0.06853 0.40363 0.89307 0.0
N458 N 0.14919 0.42444 0.91025 0.0
H459 H 0.66935 0.23022 0.92966 0.0
H460 H 0.61412 0.05809 0.82321 0.0
H461 H 0.67593 0.171 0.07168 0.0
H462 H 0.56045 0.09837 0.75418 0.0
H463 H 0.63955 0.10058 0.9116 0.0
H464 H 0.63038 0.18367 0.86168 0.0
C465 C 0.66199 0.2075 0.94742 0.0
C466 C 0.67601 0.2045 0.00616 0.0
C467 C 0.62188 0.0998 0.87759 0.0
C468 C 0.63252 0.15144 0.92777 0.0
C469 C 0.60758 0.07576 0.827 0.0
C470 C 0.58535 0.07489 0.78126 0.0
C471 C 0.61448 0.12352 0.88111 0.0
C472 C 0.57749 0.09821 0.78858 0.0
C473 C 0.63987 0.181 0.90859 0.0
C474 C 0.66573 0.17446 0.02677 0.0
N475 N 0.59248 0.12196 0.8368 0.0
N476 N 0.64519 0.14906 0.98672 0.0
H477 H 0.61242 0.73363 0.90633 0.0
H478 H 0.50448 0.58848 0.64636 0.0
H479 H 0.51521 0.69771 0.86422 0.0
H480 H 0.58945 0.60421 0.74347 0.0
H481 H 0.51506 0.6392 0.69618 0.0
H482 H 0.61021 0.69633 0.81937 0.0
C483 C 0.59069 0.71819 0.87826 0.0
C484 C 0.56384 0.71843 0.89338 0.0
C485 C 0.53188 0.63199 0.70474 0.0
C486 C 0.56128 0.67598 0.79334 0.0
C487 C 0.52608 0.60334 0.67549 0.0
C488 C 0.54628 0.59246 0.6907 0.0
C489 C 0.55808 0.6497 0.74908 0.0
C490 C 0.5735 0.61205 0.73028 0.0
C491 C 0.58948 0.69695 0.82861 0.0
C492 C 0.53638 0.69801 0.85497 0.0
N493 N 0.57846 0.63959 0.75885 0.0
N494 N 0.53575 0.67745 0.80708 0.0
H495 H 0.41281 0.13576 0.34392 0.0
H496 H 0.53497 0.0843 0.42029 0.0
H497 H 0.50484 0.18504 0.27895 0.0
H498 H 0.45668 0.05655 0.53732 0.0
H499 H 0.52445 0.12171 0.36953 0.0
H500 H 0.4282 0.10705 0.41598 0.0
C501 C 0.43636 0.14066 0.34503 0.0
C502 C 0.45753 0.16255 0.30467 0.0
C503 C 0.5097 0.10775 0.40676 0.0
C504 C 0.47519 0.1296 0.38708 0.0
C505 C 0.51556 0.08621 0.43554 0.0
C506 C 0.49635 0.06698 0.48238 0.0
C507 C 0.48406 0.10979 0.42382 0.0
C508 C 0.4719 0.07084 0.50112 0.0
C509 C 0.44513 0.12437 0.38659 0.0
C510 C 0.48777 0.16824 0.30893 0.0
N511 N 0.4661 0.09152 0.47086 0.0
N512 N 0.4956 0.15152 0.34872 0.0
H513 H 0.30445 0.49002 0.32039 0.0
H514 H 0.38474 0.40866 0.48653 0.0
H515 H 0.30248 0.41362 0.20514 0.0
H516 H 0.43477 0.50823 0.47553 0.0
H517 H 0.34625 0.40462 0.40104 0.0
H518 H 0.34356 0.49142 0.3992 0.0
C519 C 0.31181 0.47314 0.31234 0.0
C520 C 0.30015 0.45155 0.25631 0.0
C521 C 0.36582 0.42723 0.41722 0.0
C522 C 0.34462 0.45307 0.34638 0.0
C523 C 0.38766 0.42961 0.46588 0.0
C524 C 0.41286 0.45885 0.48804 0.0
C525 C 0.36875 0.45437 0.39261 0.0
C526 C 0.41569 0.48528 0.45965 0.0
C527 C 0.33432 0.47423 0.35687 0.0
C528 C 0.31089 0.43056 0.24782 0.0
N529 N 0.39354 0.48248 0.41418 0.0
N530 N 0.33243 0.43163 0.29288 0.0
H531 H 0.83968 0.3275 0.20154 0.0
H532 H 0.93055 0.41281 0.55342 0.0
H533 H 0.80349 0.29125 0.38874 0.0
H534 H 0.96412 0.44183 0.36031 0.0
H535 H 0.88458 0.36733 0.49737 0.0
H536 H 0.88541 0.36938 0.26197 0.0
C537 C 0.84126 0.32837 0.25559 0.0
C538 C 0.81759 0.30568 0.29001 0.0
C539 C 0.90218 0.3836 0.46753 0.0
C540 C 0.87055 0.35404 0.36025 0.0
C541 C 0.92849 0.40943 0.49944 0.0
C542 C 0.95113 0.43132 0.46147 0.0
C543 C 0.89866 0.37975 0.39738 0.0
C544 C 0.94719 0.42583 0.39173 0.0
C545 C 0.86757 0.35237 0.29023 0.0
C546 C 0.82113 0.30827 0.36017 0.0
N547 N 0.92149 0.4008 0.36216 0.0
N548 N 0.84718 0.33205 0.39311 0.0
H549 H 0.5086 0.80562 0.2406 0.0
H550 H 0.60074 0.93671 0.53572 0.0
H551 H 0.60288 0.83615 0.30536 0.0
H552 H 0.50319 0.89396 0.48653 0.0
H553 H 0.60129 0.89587 0.46333 0.0
H554 H 0.50555 0.83461 0.33818 0.0
C555 C 0.52868 0.81839 0.27542 0.0
C556 C 0.55613 0.81868 0.26429 0.0
C557 C 0.57962 0.89496 0.46982 0.0
C558 C 0.55285 0.85213 0.37674 0.0
C559 C 0.57925 0.91801 0.51194 0.0
C560 C 0.55192 0.91876 0.5167 0.0
C561 C 0.55248 0.87277 0.43227 0.0
C562 C 0.5248 0.89431 0.48383 0.0
C563 C 0.52689 0.83483 0.33152 0.0
C564 C 0.58129 0.83541 0.31171 0.0
N565 N 0.52586 0.87268 0.44219 0.0
N566 N 0.57917 0.85176 0.36545 0.0
H567 H 0.67397 0.46297 0.13373 0.0
H568 H 0.64422 0.55153 0.43969 0.0
H569 H 0.74776 0.53913 0.25761 0.0
H570 H 0.57306 0.47912 0.3036 0.0
H571 H 0.6829 0.54654 0.37819 0.0
H572 H 0.63696 0.46644 0.20252 0.0
C573 C 0.68244 0.48016 0.176 0.0
C574 C 0.71405 0.50086 0.18959 0.0
C575 C 0.65878 0.53183 0.36194 0.0
C576 C 0.67161 0.50538 0.2683 0.0
C577 C 0.63671 0.53479 0.39677 0.0
C578 C 0.60526 0.51574 0.37699 0.0
C579 C 0.64929 0.50962 0.30713 0.0
C580 C 0.59694 0.49432 0.32113 0.0
C581 C 0.66125 0.48228 0.21511 0.0
C582 C 0.7236 0.52266 0.2452 0.0
N583 N 0.61873 0.49184 0.2885 0.0
N584 N 0.70245 0.52453 0.2822 0.0
H585 H 0.24075 0.71936 0.33474 0.0
H586 H 0.09369 0.66597 0.54619 0.0
H587 H 0.18165 0.75867 0.31606 0.0
H588 H 0.13527 0.61033 0.50195 0.0
H589 H 0.13384 0.70842 0.48842 0.0
H590 H 0.21024 0.68809 0.42148 0.0
C591 C 0.22148 0.72169 0.34924 0.0
C592 C 0.21349 0.74139 0.31702 0.0
C593 C 0.13454 0.68718 0.49284 0.0
C594 C 0.17829 0.70534 0.41723 0.0
C595 C 0.11193 0.66313 0.52659 0.0
C596 C 0.11123 0.63462 0.52892 0.0
C597 C 0.15678 0.68276 0.46225 0.0
C598 C 0.13499 0.63193 0.50137 0.0
C599 C 0.20406 0.70375 0.39897 0.0
C600 C 0.1885 0.74363 0.33908 0.0
N601 N 0.15664 0.65557 0.46888 0.0
N602 N 0.17154 0.72554 0.38743 0.0
loop_
_geom_bond_atom_site_label_1
_geom_bond_atom_site_label_2
_geom_bond_distance
_geom_bond_site_symmetry_2
_ccdc_geom_bond_type
Mg0 O7 2.141 . S
Mg0 O8 2.048 . S
Mg0 O9 2.048 . S
Mg0 O12 2.141 . S
C1 O2 1.313 . S
C1 O8 1.195 . S
O2 C1 1.313 . S
C3 O4 1.245 . S
C3 O12 1.289 . S
O4 C3 1.245 . S
C5 O6 1.245 . S
C5 O7 1.289 . S
O6 C5 1.245 . S
O7 Mg0 2.141 . S
O7 C5 1.289 . S
O8 Mg0 2.048 . S
O8 C1 1.195 . S
O9 Mg0 2.048 . S
O9 C10 1.195 . S
C10 O9 1.195 . S
C10 O11 1.313 . S
O11 C10 1.313 . S
O12 Mg0 2.141 . S
O12 C3 1.289 . S
Mg13 O20 2.141 . S
Mg13 O21 2.048 . S
Mg13 O22 2.048 . S
Mg13 O25 2.141 . S
C14 O15 1.313 . S
C14 O21 1.195 . S
O15 C14 1.313 . S
C16 O17 1.245 . S
C16 O25 1.289 . S
O17 C16 1.245 . S
C18 O19 1.245 . S
C18 O20 1.289 . S
O19 C18 1.245 . S
O20 Mg13 2.141 . S
O20 C18 1.289 . S
O21 Mg13 2.048 . S
O21 C14 1.195 . S
O22 Mg13 2.048 . S
O22 C23 1.197 . S
C23 O22 1.197 . S
C23 O24 1.313 1_554 S
O24 C23 1.313 1_556 S
O25 Mg13 2.141 . S
O25 C16 1.289 . S
Mg26 O33 2.141 1_554 S
Mg26 O34 2.048 . S
Mg26 O35 2.048 . S
Mg26 O38 2.141 1_554 S
C27 O28 1.313 . S
C27 O34 1.195 . S
O28 C27 1.313 . S
C29 O30 1.245 . S
C29 O38 1.289 . S
O30 C29 1.245 . S
C31 O32 1.245 . S
C31 O33 1.289 . S
O32 C31 1.245 . S
O33 Mg26 2.141 1_556 S
O33 C31 1.289 . S
O34 Mg26 2.048 . S
O34 C27 1.195 . S
O35 Mg26 2.048 . S
O35 C36 1.195 . S
C36 O35 1.195 . S
C36 O37 1.313 . S
O37 C36 1.313 . S
O38 Mg26 2.141 1_556 S
O38 C29 1.289 . S
Mg39 O46 2.141 . S
Mg39 O47 2.048 1_554 S
Mg39 O48 2.048 1_554 S
Mg39 O51 2.141 . S
C40 O41 1.313 . S
C40 O47 1.195 . S
O41 C40 1.313 . S
C42 O43 1.245 . S
C42 O51 1.289 . S
O43 C42 1.245 . S
C44 O45 1.245 . S
C44 O46 1.289 . S
O45 C44 1.245 . S
O46 Mg39 2.141 . S
O46 C44 1.289 . S
O47 Mg39 2.048 1_556 S
O47 C40 1.195 . S
O48 Mg39 2.048 1_556 S
O48 C49 1.195 . S
C49 O48 1.195 . S
C49 O50 1.313 . S
O50 C49 1.313 . S
O51 Mg39 2.141 . S
O51 C42 1.289 . S
Mg52 O59 2.141 . S
Mg52 O60 2.048 . S
Mg52 O61 2.048 . S
Mg52 O64 2.141 . S
C53 O54 1.313 . S
C53 O60 1.195 . S
O54 C53 1.313 . S
C55 O56 1.245 . S
C55 O64 1.289 . S
O56 C55 1.245 . S
C57 O58 1.245 . S
C57 O59 1.289 . S
O58 C57 1.245 . S
O59 Mg52 2.141 . S
O59 C57 1.289 . S
O60 Mg52 2.048 . S
O60 C53 1.195 . S
O61 Mg52 2.048 . S
O61 C62 1.195 . S
C62 O61 1.195 . S
C62 O63 1.313 . S
O63 C62 1.313 . S
O64 Mg52 2.141 . S
O64 C55 1.289 . S
Mg65 O72 2.141 . S
Mg65 O73 2.048 . S
Mg65 O74 2.048 . S
Mg65 O77 2.141 . S
C66 O67 1.313 . S
C66 O73 1.195 . S
O67 C66 1.313 . S
C68 O69 1.245 . S
C68 O77 1.289 . S
O69 C68 1.245 . S
C70 O71 1.245 . S
C70 O72 1.289 . S
O71 C70 1.245 . S
O72 Mg65 2.141 . S
O72 C70 1.289 . S
O73 Mg65 2.048 . S
O73 C66 1.195 . S
O74 Mg65 2.048 . S
O74 C75 1.195 . S
C75 O74 1.195 . S
C75 O76 1.313 . S
O76 C75 1.313 . S
O77 Mg65 2.141 . S
O77 C68 1.289 . S
C78 O105 1.312 . S
C78 O106 1.208 . S
C79 O100 1.331 . S
C79 O103 1.244 . S
C80 O102 1.264 . S
C80 O104 1.273 . S
Mg81 O83 1.936 1_455 S
Mg81 O90 2.081 1_455 S
Mg81 O92 2.023 . S
Mg81 O96 2.031 1_455 S
Mg81 O105 2.291 . S
Mg82 O83 1.963 . S
Mg82 O93 1.942 . S
Mg82 O94 1.955 1_655 S
Mg82 O101 1.986 . S
O83 Mg81 1.936 1_655 S
O83 Mg82 1.963 . S
O83 Mg84 1.915 1_655 S
Mg84 O83 1.915 1_455 S
Mg84 O85 1.915 . S
Mg84 O89 2.013 . S
Mg84 O95 2.114 1_455 S
Mg84 O99 2.013 1_455 S
Mg84 O105 2.114 . S
O85 Mg84 1.915 . S
O85 Mg86 1.936 . S
O85 Mg87 1.963 . S
Mg86 O85 1.936 . S
Mg86 O95 2.291 1_455 S
Mg86 O100 2.081 . S
Mg86 O102 2.023 1_455 S
Mg86 O106 2.031 . S
Mg87 O85 1.963 . S
Mg87 O91 1.986 . S
Mg87 O103 1.942 . S
Mg87 O104 1.955 1_455 S
C88 O99 1.191 . S
C88 O101 1.307 . S
O89 Mg84 2.013 . S
O89 C108 1.191 . S
O90 Mg81 2.081 1_655 S
O90 C98 1.331 . S
O91 Mg87 1.986 . S
O91 C108 1.307 . S
O92 Mg81 2.023 . S
O92 C107 1.264 . S
O93 Mg82 1.942 . S
O93 C98 1.244 . S
O94 Mg82 1.955 1_455 S
O94 C107 1.273 . S
O95 Mg84 2.114 1_655 S
O95 Mg86 2.291 1_655 S
O95 C97 1.312 . S
O96 Mg81 2.031 1_655 S
O96 C97 1.208 . S
C97 O95 1.312 . S
C97 O96 1.208 . S
C98 O90 1.331 . S
C98 O93 1.244 . S
O99 Mg84 2.013 1_655 S
O99 C88 1.191 . S
O100 C79 1.331 . S
O100 Mg86 2.081 . S
O101 Mg82 1.986 . S
O101 C88 1.307 . S
O102 C80 1.264 . S
O102 Mg86 2.023 1_655 S
O103 C79 1.244 . S
O103 Mg87 1.942 . S
O104 C80 1.273 . S
O104 Mg87 1.955 1_655 S
O105 C78 1.312 . S
O105 Mg81 2.291 . S
O105 Mg84 2.114 . S
O106 C78 1.208 . S
O106 Mg86 2.031 . S
C107 O92 1.264 . S
C107 O94 1.273 . S
C108 O89 1.191 . S
C108 O91 1.307 . S
C109 O136 1.312 . S
C109 O137 1.208 . S
C110 O131 1.331 . S
C110 O134 1.244 . S
C111 O133 1.264 . S
C111 O135 1.273 . S
Mg112 O114 1.936 1_545 S
Mg112 O121 2.081 1_545 S
Mg112 O123 2.023 . S
Mg112 O127 2.031 1_545 S
Mg112 O136 2.291 . S
Mg113 O114 1.963 . S
Mg113 O124 1.942 . S
Mg113 O125 1.955 1_565 S
Mg113 O132 1.986 . S
O114 Mg112 1.936 1_565 S
O114 Mg113 1.963 . S
O114 Mg115 1.915 1_565 S
Mg115 O114 1.915 1_545 S
Mg115 O116 1.915 . S
Mg115 O120 2.013 . S
Mg115 O126 2.114 1_545 S
Mg115 O130 2.013 1_545 S
Mg115 O136 2.114 . S
O116 Mg115 1.915 . S
O116 Mg117 1.936 . S
O116 Mg118 1.963 . S
Mg117 O116 1.936 . S
Mg117 O126 2.291 1_545 S
Mg117 O131 2.081 . S
Mg117 O133 2.023 1_545 S
Mg117 O137 2.031 . S
Mg118 O116 1.963 . S
Mg118 O122 1.986 . S
Mg118 O134 1.942 . S
Mg118 O135 1.955 1_545 S
C119 O130 1.191 . S
C119 O132 1.307 . S
O120 Mg115 2.013 . S
O120 C139 1.191 . S
O121 Mg112 2.081 1_565 S
O121 C129 1.331 . S
O122 Mg118 1.986 . S
O122 C139 1.307 . S
O123 Mg112 2.023 . S
O123 C138 1.264 . S
O124 Mg113 1.942 . S
O124 C129 1.244 . S
O125 Mg113 1.955 1_545 S
O125 C138 1.273 . S
O126 Mg115 2.114 1_565 S
O126 Mg117 2.291 1_565 S
O126 C128 1.312 . S
O127 Mg112 2.031 1_565 S
O127 C128 1.208 . S
C128 O126 1.312 . S
C128 O127 1.208 . S
C129 O121 1.331 . S
C129 O124 1.244 . S
O130 Mg115 2.013 1_565 S
O130 C119 1.191 . S
O131 C110 1.331 . S
O131 Mg117 2.081 . S
O132 Mg113 1.986 . S
O132 C119 1.307 . S
O133 C111 1.264 . S
O133 Mg117 2.023 1_565 S
O134 C110 1.244 . S
O134 Mg118 1.942 . S
O135 C111 1.273 . S
O135 Mg118 1.955 1_565 S
O136 C109 1.312 . S
O136 Mg112 2.291 . S
O136 Mg115 2.114 . S
O137 C109 1.208 . S
O137 Mg117 2.031 . S
C138 O123 1.264 . S
C138 O125 1.273 . S
C139 O120 1.191 . S
C139 O122 1.307 . S
C140 O167 1.312 . S
C140 O168 1.208 . S
C141 O162 1.331 . S
C141 O165 1.244 . S
C142 O164 1.264 . S
C142 O166 1.273 . S
Mg143 O145 1.936 . S
Mg143 O152 2.081 . S
Mg143 O154 2.023 . S
Mg143 O158 2.031 . S
Mg143 O167 2.291 . S
Mg144 O145 1.963 . S
Mg144 O155 1.942 . S
Mg144 O156 1.955 . S
Mg144 O163 1.986 . S
O145 Mg143 1.936 . S
O145 Mg144 1.963 . S
O145 Mg146 1.915 . S
Mg146 O145 1.915 . S
Mg146 O147 1.915 . S
Mg146 O151 2.013 . S
Mg146 O157 2.114 . S
Mg146 O161 2.013 . S
Mg146 O167 2.114 . S
O147 Mg146 1.915 . S
O147 Mg148 1.936 . S
O147 Mg149 1.963 . S
Mg148 O147 1.936 . S
Mg148 O157 2.291 . S
Mg148 O162 2.081 . S
Mg148 O164 2.023 . S
Mg148 O168 2.031 . S
Mg149 O147 1.963 . S
Mg149 O153 1.986 . S
Mg149 O165 1.942 . S
Mg149 O166 1.955 . S
C150 O161 1.191 . S
C150 O163 1.307 . S
O151 Mg146 2.013 . S
O151 C170 1.191 . S
O152 Mg143 2.081 . S
O152 C160 1.331 . S
O153 Mg149 1.986 . S
O153 C170 1.307 . S
O154 Mg143 2.023 . S
O154 C169 1.264 . S
O155 Mg144 1.942 . S
O155 C160 1.244 . S
O156 Mg144 1.955 . S
O156 C169 1.273 . S
O157 Mg146 2.114 . S
O157 Mg148 2.291 . S
O157 C159 1.312 . S
O158 Mg143 2.031 . S
O158 C159 1.208 . S
C159 O157 1.312 . S
C159 O158 1.208 . S
C160 O152 1.331 . S
C160 O155 1.244 . S
O161 Mg146 2.013 . S
O161 C150 1.191 . S
O162 C141 1.331 . S
O162 Mg148 2.081 . S
O163 Mg144 1.986 . S
O163 C150 1.307 . S
O164 C142 1.264 . S
O164 Mg148 2.023 . S
O165 C141 1.244 . S
O165 Mg149 1.942 . S
O166 C142 1.273 . S
O166 Mg149 1.955 . S
O167 C140 1.312 . S
O167 Mg143 2.291 . S
O167 Mg146 2.114 . S
O168 C140 1.208 . S
O168 Mg148 2.031 . S
C169 O154 1.264 . S
C169 O156 1.273 . S
C170 O151 1.191 . S
C170 O153 1.307 . S
H171 C177 0.930 . S
H172 C181 0.930 . S
H173 C186 0.929 . S
H174 C184 0.929 . S
H175 C179 0.929 . S
H176 C185 0.929 . S
C177 H171 0.930 . S
C177 C178 1.367 . S
C177 C185 1.378 . S
C178 C177 1.367 . S
C178 C186 1.433 . S
C179 H175 0.929 . S
C179 C181 1.378 . S
C179 C183 1.350 . S
C180 C183 1.463 . S
C180 C185 1.350 . S
C180 N188 1.427 . S
C181 H172 0.930 . S
C181 C179 1.378 . S
C181 C182 1.367 . S
C182 C181 1.367 . S
C182 C184 1.433 . S
C183 C179 1.350 . S
C183 C180 1.463 . S
C183 N187 1.427 . S
C184 H174 0.929 . S
C184 C182 1.433 . S
C184 N187 1.384 . S
C185 H176 0.929 . S
C185 C177 1.378 . S
C185 C180 1.350 . S
C186 H173 0.929 . S
C186 C178 1.433 . S
C186 N188 1.384 . S
N187 C183 1.427 . S
N187 C184 1.384 . S
N188 C180 1.427 . S
N188 C186 1.384 . S
H189 C195 0.930 . S
H190 C199 0.930 . S
H191 C204 0.929 . S
H192 C202 0.929 . S
H193 C197 0.929 . S
H194 C203 0.929 . S
C195 H189 0.930 . S
C195 C196 1.367 . S
C195 C203 1.378 . S
C196 C195 1.367 . S
C196 C204 1.433 . S
C197 H193 0.929 . S
C197 C199 1.378 . S
C197 C201 1.350 . S
C198 C201 1.463 . S
C198 C203 1.350 . S
C198 N206 1.427 . S
C199 H190 0.930 . S
C199 C197 1.378 . S
C199 C200 1.367 . S
C200 C199 1.367 . S
C200 C202 1.433 . S
C201 C197 1.350 . S
C201 C198 1.463 . S
C201 N205 1.427 . S
C202 H192 0.929 . S
C202 C200 1.433 . S
C202 N205 1.384 . S
C203 H194 0.929 . S
C203 C195 1.378 . S
C203 C198 1.350 . S
C204 H191 0.929 . S
C204 C196 1.433 . S
C204 N206 1.384 . S
N205 C201 1.427 . S
N205 C202 1.384 . S
N206 C198 1.427 . S
N206 C204 1.384 . S
H207 C213 0.930 . S
H208 C217 0.930 . S
H209 C222 0.929 . S
H210 C220 0.929 . S
H211 C215 0.929 . S
H212 C221 0.929 . S
C213 H207 0.930 . S
C213 C214 1.367 . S
C213 C221 1.378 . S
C214 C213 1.367 . S
C214 C222 1.433 . S
C215 H211 0.929 . S
C215 C217 1.378 . S
C215 C219 1.350 . S
C216 C219 1.463 . S
C216 C221 1.350 . S
C216 N224 1.427 . S
C217 H208 0.930 . S
C217 C215 1.378 . S
C217 C218 1.367 . S
C218 C217 1.367 . S
C218 C220 1.433 . S
C219 C215 1.350 . S
C219 C216 1.463 . S
C219 N223 1.427 . S
C220 H210 0.929 . S
C220 C218 1.433 . S
C220 N223 1.384 . S
C221 H212 0.929 . S
C221 C213 1.378 . S
C221 C216 1.350 . S
C222 H209 0.929 . S
C222 C214 1.433 . S
C222 N224 1.384 . S
N223 C219 1.427 . S
N223 C220 1.384 . S
N224 C216 1.427 . S
N224 C222 1.384 . S
H225 C231 0.930 . S
H226 C235 0.930 . S
H227 C240 0.929 . S
H228 C238 0.929 . S
H229 C233 0.929 . S
H230 C239 0.929 . S
C231 H225 0.930 . S
C231 C232 1.367 . S
C231 C239 1.378 . S
C232 C231 1.367 . S
C232 C240 1.433 . S
C233 H229 0.929 . S
C233 C235 1.378 . S
C233 C237 1.350 . S
C234 C237 1.463 . S
C234 C239 1.350 . S
C234 N242 1.427 . S
C235 H226 0.930 . S
C235 C233 1.378 . S
C235 C236 1.367 . S
C236 C235 1.367 . S
C236 C238 1.433 . S
C237 C233 1.350 . S
C237 C234 1.463 . S
C237 N241 1.427 . S
C238 H228 0.929 . S
C238 C236 1.433 . S
C238 N241 1.384 . S
C239 H230 0.929 . S
C239 C231 1.378 . S
C239 C234 1.350 . S
C240 H227 0.929 . S
C240 C232 1.433 . S
C240 N242 1.384 . S
N241 C237 1.427 . S
N241 C238 1.384 . S
N242 C234 1.427 . S
N242 C240 1.384 . S
H243 C249 0.930 . S
H244 C253 0.930 . S
H245 C258 0.929 . S
H246 C256 0.929 . S
H247 C251 0.929 . S
H248 C257 0.929 . S
C249 H243 0.930 . S
C249 C250 1.367 . S
C249 C257 1.378 . S
C250 C249 1.367 . S
C250 C258 1.433 . S
C251 H247 0.929 . S
C251 C253 1.378 . S
C251 C255 1.350 . S
C252 C255 1.463 . S
C252 C257 1.350 . S
C252 N260 1.427 . S
C253 H244 0.930 . S
C253 C251 1.378 . S
C253 C254 1.367 . S
C254 C253 1.367 . S
C254 C256 1.433 . S
C255 C251 1.350 . S
C255 C252 1.463 . S
C255 N259 1.427 . S
C256 H246 0.929 . S
C256 C254 1.433 . S
C256 N259 1.384 . S
C257 H248 0.929 . S
C257 C249 1.378 . S
C257 C252 1.350 . S
C258 H245 0.929 . S
C258 C250 1.433 . S
C258 N260 1.384 . S
N259 C255 1.427 . S
N259 C256 1.384 . S
N260 C252 1.427 . S
N260 C258 1.384 . S
H261 C267 0.930 . S
H262 C271 0.930 . S
H263 C276 0.929 . S
H264 C274 0.929 . S
H265 C269 0.929 . S
H266 C275 0.929 . S
C267 H261 0.930 . S
C267 C268 1.367 . S
C267 C275 1.378 . S
C268 C267 1.367 . S
C268 C276 1.433 . S
C269 H265 0.929 . S
C269 C271 1.378 . S
C269 C273 1.350 . S
C270 C273 1.463 . S
C270 C275 1.350 . S
C270 N278 1.427 . S
C271 H262 0.930 . S
C271 C269 1.378 . S
C271 C272 1.367 . S
C272 C271 1.367 . S
C272 C274 1.433 . S
C273 C269 1.350 . S
C273 C270 1.463 . S
C273 N277 1.427 . S
C274 H264 0.929 . S
C274 C272 1.433 . S
C274 N277 1.384 . S
C275 H266 0.929 . S
C275 C267 1.378 . S
C275 C270 1.350 . S
C276 H263 0.929 . S
C276 C268 1.433 . S
C276 N278 1.384 . S
N277 C273 1.427 . S
N277 C274 1.384 . S
N278 C270 1.427 . S
N278 C276 1.384 . S
H279 C285 0.930 . S
H280 C289 0.930 . S
H281 C294 0.929 . S
H282 C292 0.929 . S
H283 C287 0.929 . S
H284 C293 0.929 . S
C285 H279 0.930 . S
C285 C286 1.367 . S
C285 C293 1.378 . S
C286 C285 1.367 . S
C286 C294 1.433 . S
C287 H283 0.929 . S
C287 C289 1.378 . S
C287 C291 1.350 . S
C288 C291 1.463 . S
C288 C293 1.350 . S
C288 N296 1.427 . S
C289 H280 0.930 . S
C289 C287 1.378 . S
C289 C290 1.367 . S
C290 C289 1.367 . S
C290 C292 1.433 . S
C291 C287 1.350 . S
C291 C288 1.463 . S
C291 N295 1.427 . S
C292 H282 0.929 . S
C292 C290 1.433 . S
C292 N295 1.384 . S
C293 H284 0.929 . S
C293 C285 1.378 . S
C293 C288 1.350 . S
C294 H281 0.929 . S
C294 C286 1.433 . S
C294 N296 1.384 . S
N295 C291 1.427 . S
N295 C292 1.384 . S
N296 C288 1.427 . S
N296 C294 1.384 . S
H297 C303 0.930 . S
H298 C307 0.930 . S
H299 C312 0.929 . S
H300 C310 0.929 . S
H301 C305 0.929 . S
H302 C311 0.929 . S
C303 H297 0.930 . S
C303 C304 1.367 . S
C303 C311 1.378 . S
C304 C303 1.367 . S
C304 C312 1.433 . S
C305 H301 0.929 . S
C305 C307 1.378 . S
C305 C309 1.350 . S
C306 C309 1.463 . S
C306 C311 1.350 . S
C306 N314 1.427 . S
C307 H298 0.930 . S
C307 C305 1.378 . S
C307 C308 1.367 . S
C308 C307 1.367 . S
C308 C310 1.433 . S
C309 C305 1.350 . S
C309 C306 1.463 . S
C309 N313 1.427 . S
C310 H300 0.929 . S
C310 C308 1.433 . S
C310 N313 1.384 . S
C311 H302 0.929 . S
C311 C303 1.378 . S
C311 C306 1.350 . S
C312 H299 0.929 . S
C312 C304 1.433 . S
C312 N314 1.384 . S
N313 C309 1.427 . S
N313 C310 1.384 . S
N314 C306 1.427 . S
N314 C312 1.384 . S
H315 C321 0.930 1_554 S
H316 C325 0.930 . S
H317 C330 0.929 . S
H318 C328 0.929 . S
H319 C323 0.929 . S
H320 C329 0.929 . S
C321 H315 0.930 1_556 S
C321 C322 1.367 . S
C321 C329 1.378 . S
C322 C321 1.367 . S
C322 C330 1.433 . S
C323 H319 0.929 . S
C323 C325 1.378 . S
C323 C327 1.350 . S
C324 C327 1.463 . S
C324 C329 1.350 . S
C324 N332 1.427 . S
C325 H316 0.930 . S
C325 C323 1.378 . S
C325 C326 1.367 . S
C326 C325 1.367 . S
C326 C328 1.433 . S
C327 C323 1.350 . S
C327 C324 1.463 . S
C327 N331 1.427 . S
C328 H318 0.929 . S
C328 C326 1.433 . S
C328 N331 1.384 . S
C329 H320 0.929 . S
C329 C321 1.378 . S
C329 C324 1.350 . S
C330 H317 0.929 . S
C330 C322 1.433 . S
C330 N332 1.384 . S
N331 C327 1.427 . S
N331 C328 1.384 . S
N332 C324 1.427 . S
N332 C330 1.384 . S
H333 C339 0.930 . S
H334 C343 0.930 . S
H335 C348 0.929 . S
H336 C346 0.929 . S
H337 C341 0.929 . S
H338 C347 0.929 . S
C339 H333 0.930 . S
C339 C340 1.367 1_556 S
C339 C347 1.378 . S
C340 C339 1.367 1_554 S
C340 C348 1.433 . S
C341 H337 0.929 . S
C341 C343 1.378 . S
C341 C345 1.350 . S
C342 C345 1.463 . S
C342 C347 1.350 . S
C342 N350 1.427 1_556 S
C343 H334 0.930 . S
C343 C341 1.378 . S
C343 C344 1.367 . S
C344 C343 1.367 . S
C344 C346 1.433 . S
C345 C341 1.350 . S
C345 C342 1.463 . S
C345 N349 1.427 . S
C346 H336 0.929 . S
C346 C344 1.433 . S
C346 N349 1.384 . S
C347 H338 0.929 . S
C347 C339 1.378 . S
C347 C342 1.350 . S
C348 H335 0.929 . S
C348 C340 1.433 . S
C348 N350 1.384 . S
N349 C345 1.427 . S
N349 C346 1.384 . S
N350 C342 1.427 1_554 S
N350 C348 1.384 . S
H351 C357 0.930 . S
H352 C361 0.930 . S
H353 C366 0.929 . S
H354 C364 0.929 . S
H355 C359 0.929 . S
H356 C365 0.929 . S
C357 H351 0.930 . S
C357 C358 1.367 1_556 S
C357 C365 1.378 . S
C358 C357 1.367 1_554 S
C358 C366 1.433 . S
C359 H355 0.929 . S
C359 C361 1.378 . S
C359 C363 1.350 . S
C360 C363 1.463 . S
C360 C365 1.350 . S
C360 N368 1.427 1_556 S
C361 H352 0.930 . S
C361 C359 1.378 . S
C361 C362 1.367 . S
C362 C361 1.367 . S
C362 C364 1.433 . S
C363 C359 1.350 . S
C363 C360 1.463 . S
C363 N367 1.427 . S
C364 H354 0.929 . S
C364 C362 1.433 . S
C364 N367 1.384 . S
C365 H356 0.929 . S
C365 C357 1.378 . S
C365 C360 1.350 . S
C366 H353 0.929 . S
C366 C358 1.433 . S
C366 N368 1.384 . S
N367 C363 1.427 . S
N367 C364 1.384 . S
N368 C360 1.427 1_554 S
N368 C366 1.384 . S
H369 C375 0.930 . S
H370 C379 0.930 . S
H371 C384 0.918 1_554 S
H372 C382 0.929 . S
H373 C377 0.929 . S
H374 C383 0.929 . S
C375 H369 0.930 . S
C375 C376 1.367 . S
C375 C383 1.378 . S
C376 C375 1.367 . S
C376 C384 1.438 . S
C377 H373 0.929 . S
C377 C379 1.378 . S
C377 C381 1.350 . S
C378 C381 1.463 . S
C378 C383 1.350 . S
C378 N386 1.427 . S
C379 H370 0.930 . S
C379 C377 1.378 . S
C379 C380 1.367 . S
C380 C379 1.367 . S
C380 C382 1.433 . S
C381 C377 1.350 . S
C381 C378 1.463 . S
C381 N385 1.427 . S
C382 H372 0.929 . S
C382 C380 1.433 . S
C382 N385 1.384 . S
C383 H374 0.929 . S
C383 C375 1.378 . S
C383 C378 1.350 . S
C384 H371 0.918 1_556 S
C384 C376 1.438 . S
C384 N386 1.391 . S
N385 C381 1.427 . S
N385 C382 1.384 . S
N386 C378 1.427 . S
N386 C384 1.391 . S
H387 C393 0.930 . S
H388 C397 0.930 . S
H389 C402 0.929 . S
H390 C400 0.929 . S
H391 C395 0.929 . S
H392 C401 0.929 . S
C393 H387 0.930 . S
C393 C394 1.367 . S
C393 C401 1.378 . S
C394 C393 1.367 . S
C394 C402 1.433 . S
C395 H391 0.929 . S
C395 C397 1.378 . S
C395 C399 1.350 . S
C396 C399 1.463 . S
C396 C401 1.350 . S
C396 N404 1.427 . S
C397 H388 0.930 . S
C397 C395 1.378 . S
C397 C398 1.367 . S
C398 C397 1.367 . S
C398 C400 1.433 . S
C399 C395 1.350 . S
C399 C396 1.463 . S
C399 N403 1.427 . S
C400 H390 0.929 . S
C400 C398 1.433 . S
C400 N403 1.384 . S
C401 H392 0.929 . S
C401 C393 1.378 . S
C401 C396 1.350 . S
C402 H389 0.929 . S
C402 C394 1.433 . S
C402 N404 1.384 . S
N403 C399 1.427 . S
N403 C400 1.384 . S
N404 C396 1.427 . S
N404 C402 1.384 . S
H405 C411 0.930 . S
H406 C415 0.930 . S
H407 C420 0.929 . S
H408 C418 0.929 . S
H409 C413 0.929 . S
H410 C419 0.929 . S
C411 H405 0.930 . S
C411 C412 1.367 1_554 S
C411 C419 1.378 1_554 S
C412 C411 1.367 1_556 S
C412 C420 1.433 . S
C413 H409 0.929 . S
C413 C415 1.378 . S
C413 C417 1.350 . S
C414 C417 1.463 . S
C414 C419 1.350 . S
C414 N422 1.427 . S
C415 H406 0.930 . S
C415 C413 1.378 . S
C415 C416 1.367 . S
C416 C415 1.367 . S
C416 C418 1.433 . S
C417 C413 1.350 . S
C417 C414 1.463 . S
C417 N421 1.427 . S
C418 H408 0.929 . S
C418 C416 1.433 . S
C418 N421 1.384 . S
C419 H410 0.929 . S
C419 C411 1.378 1_556 S
C419 C414 1.350 . S
C420 H407 0.929 . S
C420 C412 1.433 . S
C420 N422 1.384 . S
N421 C417 1.427 . S
N421 C418 1.384 . S
N422 C414 1.427 . S
N422 C420 1.384 . S
H423 C429 0.930 . S
H424 C433 0.930 . S
H425 C438 0.929 . S
H426 C436 0.929 . S
H427 C431 0.929 . S
H428 C437 0.929 . S
C429 H423 0.930 . S
C429 C430 1.367 1_556 S
C429 C437 1.378 . S
C430 C429 1.367 1_554 S
C430 C438 1.433 . S
C431 H427 0.929 . S
C431 C433 1.378 . S
C431 C435 1.350 . S
C432 C435 1.463 . S
C432 C437 1.350 . S
C432 N440 1.427 . S
C433 H424 0.930 . S
C433 C431 1.378 . S
C433 C434 1.367 . S
C434 C433 1.367 . S
C434 C436 1.433 . S
C435 C431 1.350 . S
C435 C432 1.463 . S
C435 N439 1.427 . S
C436 H426 0.929 . S
C436 C434 1.433 . S
C436 N439 1.384 . S
C437 H428 0.929 . S
C437 C429 1.378 . S
C437 C432 1.350 . S
C438 H425 0.929 . S
C438 C430 1.433 . S
C438 N440 1.384 1_554 S
N439 C435 1.427 . S
N439 C436 1.384 . S
N440 C432 1.427 . S
N440 C438 1.384 1_556 S
H441 C447 0.930 . S
H442 C451 0.930 . S
H443 C456 0.929 . S
H444 C454 0.929 . S
H445 C449 0.929 . S
H446 C455 0.929 . S
C447 H441 0.930 . S
C447 C448 1.367 . S
C447 C455 1.378 . S
C448 C447 1.367 . S
C448 C456 1.433 1_554 S
C449 H445 0.929 . S
C449 C451 1.378 . S
C449 C453 1.350 . S
C450 C453 1.463 . S
C450 C455 1.350 1_556 S
C450 N458 1.427 . S
C451 H442 0.930 . S
C451 C449 1.378 . S
C451 C452 1.367 . S
C452 C451 1.367 . S
C452 C454 1.433 . S
C453 C449 1.350 . S
C453 C450 1.463 . S
C453 N457 1.427 . S
C454 H444 0.929 . S
C454 C452 1.433 . S
C454 N457 1.384 . S
C455 H446 0.929 . S
C455 C447 1.378 . S
C455 C450 1.350 1_554 S
C456 H443 0.929 . S
C456 C448 1.433 1_556 S
C456 N458 1.384 . S
N457 C453 1.427 . S
N457 C454 1.384 . S
N458 C450 1.427 . S
N458 C456 1.384 . S
H459 C465 0.930 . S
H460 C469 0.930 . S
H461 C474 0.919 1_554 S
H462 C472 0.929 . S
H463 C467 0.929 . S
H464 C473 0.929 . S
C465 H459 0.930 . S
C465 C466 1.367 . S
C465 C473 1.378 . S
C466 C465 1.367 . S
C466 C474 1.433 . S
C467 H463 0.929 . S
C467 C469 1.378 . S
C467 C471 1.350 . S
C468 C471 1.463 . S
C468 C473 1.350 . S
C468 N476 1.427 . S
C469 H460 0.930 . S
C469 C467 1.378 . S
C469 C470 1.367 . S
C470 C469 1.367 . S
C470 C472 1.433 . S
C471 C467 1.350 . S
C471 C468 1.463 . S
C471 N475 1.427 . S
C472 H462 0.929 . S
C472 C470 1.433 . S
C472 N475 1.384 . S
C473 H464 0.929 . S
C473 C465 1.378 . S
C473 C468 1.350 . S
C474 H461 0.919 1_556 S
C474 C466 1.433 . S
C474 N476 1.384 . S
N475 C471 1.427 . S
N475 C472 1.384 . S
N476 C468 1.427 . S
N476 C474 1.384 . S
H477 C483 0.930 . S
H478 C487 0.930 . S
H479 C492 0.929 . S
H480 C490 0.929 . S
H481 C485 0.929 . S
H482 C491 0.929 . S
C483 H477 0.930 . S
C483 C484 1.367 . S
C483 C491 1.378 . S
C484 C483 1.367 . S
C484 C492 1.433 . S
C485 H481 0.929 . S
C485 C487 1.378 . S
C485 C489 1.350 . S
C486 C489 1.463 . S
C486 C491 1.350 . S
C486 N494 1.427 . S
C487 H478 0.930 . S
C487 C485 1.378 . S
C487 C488 1.367 . S
C488 C487 1.367 . S
C488 C490 1.433 . S
C489 C485 1.350 . S
C489 C486 1.463 . S
C489 N493 1.427 . S
C490 H480 0.929 . S
C490 C488 1.433 . S
C490 N493 1.384 . S
C491 H482 0.929 . S
C491 C483 1.378 . S
C491 C486 1.350 . S
C492 H479 0.929 . S
C492 C484 1.433 . S
C492 N494 1.384 . S
N493 C489 1.427 . S
N493 C490 1.384 . S
N494 C486 1.427 . S
N494 C492 1.384 . S
H495 C501 0.930 . S
H496 C505 0.930 . S
H497 C510 0.929 . S
H498 C508 0.929 . S
H499 C503 0.929 . S
H500 C509 0.929 . S
C501 H495 0.930 . S
C501 C502 1.367 . S
C501 C509 1.378 . S
C502 C501 1.367 . S
C502 C510 1.433 . S
C503 H499 0.929 . S
C503 C505 1.378 . S
C503 C507 1.350 . S
C504 C507 1.463 . S
C504 C509 1.350 . S
C504 N512 1.427 . S
C505 H496 0.930 . S
C505 C503 1.378 . S
C505 C506 1.367 . S
C506 C505 1.367 . S
C506 C508 1.433 . S
C507 C503 1.350 . S
C507 C504 1.463 . S
C507 N511 1.427 . S
C508 H498 0.929 . S
C508 C506 1.433 . S
C508 N511 1.384 . S
C509 H500 0.929 . S
C509 C501 1.378 . S
C509 C504 1.350 . S
C510 H497 0.929 . S
C510 C502 1.433 . S
C510 N512 1.384 . S
N511 C507 1.427 . S
N511 C508 1.384 . S
N512 C504 1.427 . S
N512 C510 1.384 . S
H513 C519 0.930 . S
H514 C523 0.930 . S
H515 C528 0.929 . S
H516 C526 0.929 . S
H517 C521 0.929 . S
H518 C527 0.929 . S
C519 H513 0.930 . S
C519 C520 1.367 . S
C519 C527 1.378 . S
C520 C519 1.367 . S
C520 C528 1.433 . S
C521 H517 0.929 . S
C521 C523 1.378 . S
C521 C525 1.350 . S
C522 C525 1.463 . S
C522 C527 1.350 . S
C522 N530 1.427 . S
C523 H514 0.930 . S
C523 C521 1.378 . S
C523 C524 1.367 . S
C524 C523 1.367 . S
C524 C526 1.433 . S
C525 C521 1.350 . S
C525 C522 1.463 . S
C525 N529 1.427 . S
C526 H516 0.929 . S
C526 C524 1.433 . S
C526 N529 1.384 . S
C527 H518 0.929 . S
C527 C519 1.378 . S
C527 C522 1.350 . S
C528 H515 0.929 . S
C528 C520 1.433 . S
C528 N530 1.384 . S
N529 C525 1.427 . S
N529 C526 1.384 . S
N530 C522 1.427 . S
N530 C528 1.384 . S
H531 C537 0.930 . S
H532 C541 0.930 . S
H533 C546 0.929 . S
H534 C544 0.929 . S
H535 C539 0.929 . S
H536 C545 0.929 . S
C537 H531 0.930 . S
C537 C538 1.367 . S
C537 C545 1.378 . S
C538 C537 1.367 . S
C538 C546 1.433 . S
C539 H535 0.929 . S
C539 C541 1.378 . S
C539 C543 1.350 . S
C540 C543 1.463 . S
C540 C545 1.350 . S
C540 N548 1.427 . S
C541 H532 0.930 . S
C541 C539 1.378 . S
C541 C542 1.367 . S
C542 C541 1.367 . S
C542 C544 1.433 . S
C543 C539 1.350 . S
C543 C540 1.463 . S
C543 N547 1.427 . S
C544 H534 0.929 . S
C544 C542 1.433 . S
C544 N547 1.384 . S
C545 H536 0.929 . S
C545 C537 1.378 . S
C545 C540 1.350 . S
C546 H533 0.929 . S
C546 C538 1.433 . S
C546 N548 1.384 . S
N547 C543 1.427 . S
N547 C544 1.384 . S
N548 C540 1.427 . S
N548 C546 1.384 . S
H549 C555 0.930 . S
H550 C559 0.930 . S
H551 C564 0.929 . S
H552 C562 0.929 . S
H553 C557 0.929 . S
H554 C563 0.929 . S
C555 H549 0.930 . S
C555 C556 1.367 . S
C555 C563 1.378 . S
C556 C555 1.367 . S
C556 C564 1.433 . S
C557 H553 0.929 . S
C557 C559 1.378 . S
C557 C561 1.350 . S
C558 C561 1.463 . S
C558 C563 1.350 . S
C558 N566 1.427 . S
C559 H550 0.930 . S
C559 C557 1.378 . S
C559 C560 1.367 . S
C560 C559 1.367 . S
C560 C562 1.433 . S
C561 C557 1.350 . S
C561 C558 1.463 . S
C561 N565 1.427 . S
C562 H552 0.929 . S
C562 C560 1.433 . S
C562 N565 1.384 . S
C563 H554 0.929 . S
C563 C555 1.378 . S
C563 C558 1.350 . S
C564 H551 0.929 . S
C564 C556 1.433 . S
C564 N566 1.384 . S
N565 C561 1.427 . S
N565 C562 1.384 . S
N566 C558 1.427 . S
N566 C564 1.384 . S
H567 C573 0.930 . S
H568 C577 0.930 . S
H569 C582 0.929 . S
H570 C580 0.929 . S
H571 C575 0.929 . S
H572 C581 0.929 . S
C573 H567 0.930 . S
C573 C574 1.367 . S
C573 C581 1.378 . S
C574 C573 1.367 . S
C574 C582 1.433 . S
C575 H571 0.929 . S
C575 C577 1.378 . S
C575 C579 1.350 . S
C576 C579 1.463 . S
C576 C581 1.350 . S
C576 N584 1.427 . S
C577 H568 0.930 . S
C577 C575 1.378 . S
C577 C578 1.367 . S
C578 C577 1.367 . S
C578 C580 1.433 . S
C579 C575 1.350 . S
C579 C576 1.463 . S
C579 N583 1.427 . S
C580 H570 0.929 . S
C580 C578 1.433 . S
C580 N583 1.384 . S
C581 H572 0.929 . S
C581 C573 1.378 . S
C581 C576 1.350 . S
C582 H569 0.929 . S
C582 C574 1.433 . S
C582 N584 1.384 . S
N583 C579 1.427 . S
N583 C580 1.384 . S
N584 C576 1.427 . S
N584 C582 1.384 . S
H585 C591 0.930 . S
H586 C595 0.930 . S
H587 C600 0.929 . S
H588 C598 0.929 . S
H589 C593 0.929 . S
H590 C599 0.929 . S
C591 H585 0.930 . S
C591 C592 1.367 . S
C591 C599 1.378 . S
C592 C591 1.367 . S
C592 C600 1.433 . S
C593 H589 0.929 . S
C593 C595 1.378 . S
C593 C597 1.350 . S
C594 C597 1.463 . S
C594 C599 1.350 . S
C594 N602 1.427 . S
C595 H586 0.930 . S
C595 C593 1.378 . S
C595 C596 1.367 . S
C596 C595 1.367 . S
C596 C598 1.433 . S
C597 C593 1.350 . S
C597 C594 1.463 . S
C597 N601 1.427 . S
C598 H588 0.929 . S
C598 C596 1.433 . S
C598 N601 1.384 . S
C599 H590 0.929 . S
C599 C591 1.378 . S
C599 C594 1.350 . S
C600 H587 0.929 . S
C600 C592 1.433 . S
C600 N602 1.384 . S
N601 C597 1.427 . S
N601 C598 1.384 . S
N602 C594 1.427 . S
N602 C600 1.384 . S
C178 C5 1.638 . S
C182 C78 1.553 . S
C196 C16 1.392 . S
C200 C110 1.401 . S
C218 C169 1.799 . S
C214 C36 1.862 . S
C236 C98 1.325 . S
C232 C42 1.324 . S
C250 C55 1.517 . S
C254 C128 1.480 . S
C272 C150 1.175 . S
C268 C66 1.183 . S
C290 C119 1.520 . S
C286 C31 1.582 . S
C304 C40 1.249 . S
C308 C159 1.222 . S
C326 C108 1.552 . S
C322 C53 1.558 1_556 S
C340 C68 1.382 . S
C344 C138 1.371 . S
C358 C10 1.791 . S
C362 C141 1.741 . S
C380 C80 1.527 . S
C376 C14 1.537 1_556 S
C398 C88 1.577 . S
C394 C49 1.589 . S
C416 C129 1.469 . S
C412 C62 1.476 1_556 S
C434 C142 1.760 . S
C430 C70 1.787 . S
C452 C79 1.425 . S
C448 C1 1.460 . S
C470 C139 1.520 . S
C466 C23 1.533 1_556 S
C484 C29 1.162 . S
C488 C140 1.104 . S
C506 C109 1.555 . S
C502 C75 1.614 . S
C524 C170 1.106 . S
C520 C3 1.146 . S
C542 C97 1.463 . S
C538 C18 1.501 . S
C560 C111 1.481 . S
C556 C27 1.531 . S
C574 C44 1.710 . S
C578 C160 1.685 . S
C592 C57 1.472 . S
C596 C107 1.472 . S
