# Generated by pormake.
# Topology pyr, (3,6)-cn, num edge types: 1
# Building blocks:
#     Node 0, Type 0, BuildingBlock: OLANEW_clean_sbu_2, # of connection points: 3
#     Node 1, Type 0, BuildingBlock: OLANEW_clean_sbu_2, # of connection points: 3
#     Node 2, Type 0, BuildingBlock: OLANEW_clean_sbu_2, # of connection points: 3
#     Node 3, Type 0, BuildingBlock: OLANEW_clean_sbu_2, # of connection points: 3
#     Node 4, Type 0, BuildingBlock: OLANEW_clean_sbu_2, # of connection points: 3
#     Node 5, Type 0, BuildingBlock: OLANEW_clean_sbu_2, # of connection points: 3
#     Node 6, Type 0, BuildingBlock: OLANEW_clean_sbu_2, # of connection points: 3
#     Node 7, Type 0, BuildingBlock: OLANEW_clean_sbu_2, # of connection points: 3
#     Node 8, Type 1, BuildingBlock: MIFKUJ_clean_sbu_0, # of connection points: 6
#     Node 9, Type 1, BuildingBlock: MIFKUJ_clean_sbu_0, # of connection points: 6
#     Node 10, Type 1, BuildingBlock: MIFKUJ_clean_sbu_0, # of connection points: 6
#     Node 11, Type 1, BuildingBlock: MIFKUJ_clean_sbu_0, # of connection points: 6
#     Edge 12, Type (0, 1), BuildingBlock: XIVTED_clean_linker_0, # of connection points: 2
#     Edge 13, Type (0, 1), BuildingBlock: XIVTED_clean_linker_0, # of connection points: 2
#     Edge 14, Type (0, 1), BuildingBlock: XIVTED_clean_linker_0, # of connection points: 2
#     Edge 15, Type (0, 1), BuildingBlock: XIVTED_clean_linker_0, # of connection points: 2
#     Edge 16, Type (0, 1), BuildingBlock: XIVTED_clean_linker_0, # of connection points: 2
#     Edge 17, Type (0, 1), BuildingBlock: XIVTED_clean_linker_0, # of connection points: 2
#     Edge 18, Type (0, 1), BuildingBlock: XIVTED_clean_linker_0, # of connection points: 2
#     Edge 19, Type (0, 1), BuildingBlock: XIVTED_clean_linker_0, # of connection points: 2
#     Edge 20, Type (0, 1), BuildingBlock: XIVTED_clean_linker_0, # of connection points: 2
#     Edge 21, Type (0, 1), BuildingBlock: XIVTED_clean_linker_0, # of connection points: 2
#     Edge 22, Type (0, 1), BuildingBlock: XIVTED_clean_linker_0, # of connection points: 2
#     Edge 23, Type (0, 1), BuildingBlock: XIVTED_clean_linker_0, # of connection points: 2
#     Edge 24, Type (0, 1), BuildingBlock: XIVTED_clean_linker_0, # of connection points: 2
#     Edge 25, Type (0, 1), BuildingBlock: XIVTED_clean_linker_0, # of connection points: 2
#     Edge 26, Type (0, 1), BuildingBlock: XIVTED_clean_linker_0, # of connection points: 2
#     Edge 27, Type (0, 1), BuildingBlock: XIVTED_clean_linker_0, # of connection points: 2
#     Edge 28, Type (0, 1), BuildingBlock: XIVTED_clean_linker_0, # of connection points: 2
#     Edge 29, Type (0, 1), BuildingBlock: XIVTED_clean_linker_0, # of connection points: 2
#     Edge 30, Type (0, 1), BuildingBlock: XIVTED_clean_linker_0, # of connection points: 2
#     Edge 31, Type (0, 1), BuildingBlock: XIVTED_clean_linker_0, # of connection points: 2
#     Edge 32, Type (0, 1), BuildingBlock: XIVTED_clean_linker_0, # of connection points: 2
#     Edge 33, Type (0, 1), BuildingBlock: XIVTED_clean_linker_0, # of connection points: 2
#     Edge 34, Type (0, 1), BuildingBlock: XIVTED_clean_linker_0, # of connection points: 2
#     Edge 35, Type (0, 1), BuildingBlock: XIVTED_clean_linker_0, # of connection points: 2
# Relax obj value: 0.072
# Max RMSD: 0.168
# Mean RMSD: 0.122
data_MOF--net-pyr--node1-OLANEW_clean_sbu_2--node2-MIFKUJ_clean_sbu_0--edge1-XIVTED_clean_linker_0
_symmetry_space_group_name_H-M    P1
_symmetry_Int_Tables_number       1
_symmetry_cell_setting            triclinic
loop_
_symmetry_equiv_pos_as_xyz
'x, y, z'
_cell_length_a     42.826715
_cell_length_b     38.495937
_cell_length_c     40.820412
_cell_angle_alpha  89.519917
_cell_angle_beta   88.113631
_cell_angle_gamma 101.56515
loop_
_atom_site_label
_atom_site_type_symbol
_atom_site_fract_x
_atom_site_fract_y
_atom_site_fract_z
_atom_type_partial_charge
O0 O 0.23734 0.18038 0.16209 0.0
Cd1 Cd 0.19274 0.1995 0.19127 0.0
O2 O 0.22247 0.12598 0.18184 0.0
Cd3 Cd 0.181 0.13455 0.21083 0.0
O4 O 0.14826 0.12538 0.25361 0.0
C5 C 0.16087 0.1303 0.28137 0.0
O6 O 0.19179 0.14231 0.28234 0.0
C7 C 0.24183 0.14877 0.16449 0.0
C8 C 0.16827 0.2523 0.15948 0.0
O9 O 0.19314 0.26 0.1767 0.0
O10 O 0.15515 0.21951 0.15677 0.0
O11 O 0.38505 0.91216 0.76004 0.0
Cd12 Cd 0.36704 0.89508 0.70525 0.0
O13 O 0.34052 0.88563 0.78564 0.0
Cd14 Cd 0.31388 0.87758 0.74051 0.0
O15 O 0.27642 0.88285 0.70659 0.0
C16 C 0.24789 0.8757 0.71814 0.0
O17 O 0.24272 0.86428 0.74865 0.0
C18 C 0.36919 0.90257 0.78659 0.0
C19 C 0.39042 0.8355 0.68546 0.0
O20 O 0.40709 0.86684 0.68088 0.0
O21 O 0.36257 0.83232 0.69907 0.0
O22 O 0.73959 0.42649 0.86504 0.0
Cd23 Cd 0.68445 0.40202 0.8503 0.0
O24 O 0.73607 0.39034 0.90779 0.0
Cd25 Cd 0.6896 0.35652 0.89973 0.0
O26 O 0.66028 0.30392 0.91026 0.0
C27 C 0.63261 0.29884 0.92393 0.0
O28 O 0.6196 0.32625 0.93045 0.0
C29 C 0.75182 0.41584 0.89033 0.0
C30 C 0.66224 0.43505 0.79676 0.0
O31 O 0.66042 0.44706 0.8258 0.0
O32 O 0.67517 0.40799 0.79293 0.0
O33 O 0.87343 0.76707 0.26119 0.0
Cd34 Cd 0.84855 0.73213 0.216 0.0
O35 O 0.84512 0.72695 0.2942 0.0
Cd36 Cd 0.82661 0.70307 0.34138 0.0
O37 O 0.7912 0.68419 0.38027 0.0
C38 C 0.76478 0.69395 0.37736 0.0
O39 O 0.76157 0.71474 0.35252 0.0
C40 C 0.86484 0.75623 0.29016 0.0
C41 C 0.88789 0.69046 0.18783 0.0
O42 O 0.89006 0.72291 0.17901 0.0
O43 O 0.86702 0.67753 0.21024 0.0
O44 O 0.87665 0.86178 0.79791 0.0
Cd45 Cd 0.8522 0.83478 0.84923 0.0
O46 O 0.83188 0.87366 0.78021 0.0
Cd47 Cd 0.80389 0.86128 0.82612 0.0
O48 O 0.76756 0.87332 0.8608 0.0
C49 C 0.75483 0.89873 0.85159 0.0
O50 O 0.76431 0.91449 0.82328 0.0
C51 C 0.86129 0.87322 0.77546 0.0
C52 C 0.89005 0.79097 0.87532 0.0
O53 O 0.86963 0.77958 0.85367 0.0
O54 O 0.89236 0.82297 0.88492 0.0
O55 O 0.67835 0.15409 0.32456 0.0
Cd56 Cd 0.70118 0.17665 0.37643 0.0
O57 O 0.66636 0.20567 0.3127 0.0
Cd58 Cd 0.67767 0.23126 0.35955 0.0
O59 O 0.66536 0.26731 0.3967 0.0
C60 C 0.6373 0.27338 0.39536 0.0
O61 O 0.61839 0.25724 0.37306 0.0
C62 C 0.66731 0.17399 0.30483 0.0
C63 C 0.74751 0.14163 0.39963 0.0
O64 O 0.7179 0.13097 0.40758 0.0
O65 O 0.75524 0.1686 0.38027 0.0
O66 O 0.39998 0.73169 0.24485 0.0
Cd67 Cd 0.36821 0.67911 0.2732 0.0
O68 O 0.39433 0.70839 0.19572 0.0
Cd69 Cd 0.35669 0.66307 0.20954 0.0
O70 O 0.30944 0.63561 0.1952 0.0
C71 C 0.3028 0.641 0.16567 0.0
O72 O 0.32452 0.66116 0.14658 0.0
C73 C 0.40645 0.73364 0.21415 0.0
C74 C 0.39769 0.65564 0.32719 0.0
O75 O 0.40015 0.64228 0.29879 0.0
O76 O 0.38169 0.68032 0.32999 0.0
O77 O 0.17425 0.38765 0.76698 0.0
Cd78 Cd 0.1919 0.35175 0.72355 0.0
O79 O 0.19577 0.36183 0.8063 0.0
Cd80 Cd 0.20891 0.32294 0.77313 0.0
O81 O 0.19739 0.27876 0.7399 0.0
C82 C 0.16774 0.26618 0.73795 0.0
O83 O 0.14747 0.28027 0.7557 0.0
C84 C 0.18039 0.38503 0.7971 0.0
C85 C 0.25268 0.38232 0.69876 0.0
O86 O 0.24888 0.36158 0.72391 0.0
O87 O 0.22771 0.38842 0.68518 0.0
Zn88 Zn 0.04985 0.00751 0.55953 0.0
Zn89 Zn 0.97038 -0.00727 0.49441 0.0
C90 C 0.08991 0.06403 0.58872 0.0
O91 O 0.11 0.05165 0.56921 0.0
C92 C 0.93988 0.92505 0.4693 0.0
O93 O 0.92315 0.92325 0.49703 0.0
O94 O 0.07665 0.97268 0.57362 0.0
O95 O 0.00278 0.98641 0.56331 0.0
O96 O 0.95638 0.97408 0.53999 0.0
C97 C 0.07766 0.96713 0.60429 0.0
O98 O 0.0602 0.98246 0.62439 0.0
O99 O 0.06058 0.04915 0.58921 0.0
C100 C 0.91324 0.01893 0.48948 0.0
O101 O 0.90318 0.99058 0.50801 0.0
O102 O 0.94264 0.02693 0.48072 0.0
O103 O 0.01735 0.01472 0.49094 0.0
O104 O 0.06378 0.02654 0.51432 0.0
O105 O 0.96194 0.95197 0.46321 0.0
C106 C 0.97306 0.97329 0.56504 0.0
C107 C 0.04699 0.02832 0.4895 0.0
Zn108 Zn 0.53831 0.99169 0.0327 0.0
Zn109 Zn 0.49039 0.03156 0.07881 0.0
C110 C 0.48511 0.95476 -0.00482 0.0
O111 O 0.48654 0.92772 0.01452 0.0
C112 C 0.5366 0.08214 0.11397 0.0
O113 O 0.52804 0.10513 0.09393 0.0
O114 O 0.57458 0.97338 0.01083 0.0
O115 O 0.55394 0.04409 0.03761 0.0
O116 O 0.50548 0.05432 0.03454 0.0
C117 C 0.58468 0.98676 0.98295 0.0
O118 O 0.57154 0.01177 0.97056 0.0
O119 O 0.50373 0.98438 -0.00047 0.0
C120 C 0.4444 0.07884 0.084 0.0
O121 O 0.46537 0.10061 0.06548 0.0
O122 O 0.4503 0.04898 0.09245 0.0
O123 O 0.47893 0.97828 0.08542 0.0
O124 O 0.52434 0.96148 0.07286 0.0
O125 O 0.52389 0.04948 0.11182 0.0
C126 C 0.53526 0.06364 0.02817 0.0
C127 C 0.49719 0.9561 0.08763 0.0
Zn128 Zn 0.53289 0.5172 0.54589 0.0
Zn129 Zn 0.51021 0.5744 0.58985 0.0
C130 C 0.57249 0.56157 0.50023 0.0
O131 O 0.55019 0.54479 0.48145 0.0
C132 C 0.4672 0.52283 0.62915 0.0
O133 O 0.48636 0.53672 0.65218 0.0
O134 O 0.53995 0.47313 0.52288 0.0
O135 O 0.53631 0.50714 0.59405 0.0
O136 O 0.54941 0.5625 0.61007 0.0
C137 C 0.56639 0.46392 0.52756 0.0
O138 O 0.58655 0.48273 0.54734 0.0
O139 O 0.57055 0.55472 0.53083 0.0
C140 C 0.47003 0.6209 0.6087 0.0
O141 O 0.45077 0.59744 0.59171 0.0
O142 O 0.49855 0.61699 0.61225 0.0
O143 O 0.51073 0.58645 0.54176 0.0
O144 O 0.49349 0.53109 0.52784 0.0
O145 O 0.47321 0.53391 0.59977 0.0
C146 C 0.55092 0.52999 0.61347 0.0
C147 C 0.49489 0.56404 0.5228 0.0
Zn148 Zn 0.0275 0.55587 -0.01407 0.0
Zn149 Zn 0.04625 0.49605 0.03354 0.0
C150 C 0.97678 0.5223 0.94852 0.0
O151 O -0.0034 0.54005 0.92615 0.0
C152 C 0.08996 0.5347 0.07599 0.0
O153 O 0.06783 0.5173 0.09644 0.0
O154 O 0.02208 0.60155 0.96393 0.0
O155 O 0.0329 0.56619 0.03387 0.0
O156 O 0.00818 0.51392 0.05251 0.0
C157 C 0.00568 0.6206 0.97947 0.0
O158 O -0.0047 0.61136 0.00952 0.0
O159 O 0.98533 0.52287 0.97813 0.0
C160 C 0.07985 0.44473 0.05088 0.0
O161 O 0.0993 0.46568 0.03026 0.0
O162 O 0.05224 0.45124 0.05698 0.0
O163 O 0.04824 0.48422 -0.0144 0.0
O164 O 0.06268 0.5374 0.96267 0.0
O165 O 0.08577 0.53168 0.04534 0.0
C166 C 0.01375 0.54752 0.05458 0.0
C167 C 0.063 0.50448 0.96293 0.0
H168 H 0.09708 0.10013 0.28866 0.0
H169 H 0.10844 0.06414 0.48072 0.0
H170 H 0.18151 0.13519 0.34404 0.0
H171 H 0.02116 0.03273 0.42894 0.0
H172 H 0.13459 0.09202 0.43074 0.0
H173 H 0.06782 0.07758 0.33958 0.0
C174 C 0.1094 0.10335 0.31152 0.0
C175 C 0.14189 0.11936 0.31203 0.0
C176 C 0.1097 0.07915 0.4302 0.0
C177 C 0.10862 0.09344 0.37026 0.0
C178 C 0.09471 0.06308 0.4588 0.0
C179 C 0.06255 0.0458 0.45904 0.0
C180 C 0.09257 0.07794 0.40136 0.0
C181 C 0.04602 0.04562 0.42986 0.0
C182 C 0.09269 0.09042 0.34056 0.0
C183 C 0.15658 0.12288 0.34237 0.0
N184 N 0.06127 0.0613 0.40211 0.0
N185 N 0.13991 0.10985 0.37016 0.0
H186 H 0.34857 0.87451 0.84739 0.0
H187 H 0.48805 -0.00106 0.94186 0.0
H188 H 0.42375 0.95068 0.79851 0.0
H189 H 0.43649 0.899 0.98222 0.0
H190 H 0.45801 0.98761 0.89187 0.0
H191 H 0.37446 0.88889 0.89962 0.0
C192 C 0.37043 0.89433 0.84764 0.0
C193 C 0.38412 0.91128 0.81849 0.0
C194 C 0.45317 0.96827 0.91175 0.0
C195 C 0.41355 0.92806 0.87812 0.0
C196 C 0.47016 0.97478 0.94038 0.0
C197 C 0.4649 0.94975 0.9662 0.0
C198 C 0.43046 0.9367 0.90901 0.0
C199 C 0.44145 0.91889 0.96282 0.0
C200 C 0.3852 0.90244 0.87742 0.0
C201 C 0.41247 0.93675 0.8203 0.0
N202 N 0.42509 0.91321 0.93472 0.0
N203 N 0.42619 0.94444 0.8496 0.0
H204 H 0.65487 0.41002 0.73436 0.0
H205 H 0.57435 0.56658 0.66805 0.0
H206 H 0.63837 0.49619 0.79519 0.0
H207 H 0.56897 0.46626 0.61989 0.0
H208 H 0.60349 0.54516 0.71226 0.0
H209 H 0.62951 0.43453 0.68931 0.0
C210 C 0.64611 0.43424 0.73821 0.0
C211 C 0.64864 0.45096 0.7687 0.0
C212 C 0.59593 0.52792 0.69196 0.0
C213 C 0.6195 0.47922 0.71708 0.0
C214 C 0.57938 0.54015 0.66669 0.0
C215 C 0.56908 0.51815 0.64027 0.0
C216 C 0.60255 0.49363 0.69056 0.0
C217 C 0.57624 0.4841 0.63984 0.0
C218 C 0.6315 0.44815 0.71248 0.0
C219 C 0.6368 0.4823 0.77217 0.0
N220 N 0.59255 0.47297 0.66451 0.0
N221 N 0.62273 0.49542 0.74669 0.0
H222 H 0.941 0.71316 0.14886 0.0
H223 H 0.96079 0.52035 0.09407 0.0
H224 H 0.88188 0.61808 0.1908 0.0
H225 H 0.02999 0.61644 0.07222 0.0
H226 H 0.93157 0.5542 0.13055 0.0
H227 H 0.97368 0.67701 0.1207 0.0
C228 C 0.93495 0.68462 0.15222 0.0
C229 C 0.90859 0.66859 0.17206 0.0
C230 C 0.95334 0.56769 0.11797 0.0
C231 C 0.94591 0.62685 0.13969 0.0
C232 C 0.97002 0.54839 0.09724 0.0
C233 C -0.00244 0.56572 0.0797 0.0
C234 C 0.96433 0.60444 0.12094 0.0
C235 C 0.00857 0.60206 0.08478 0.0
C236 C 0.95371 0.66395 0.13622 0.0
C237 C 0.90201 0.63148 0.17568 0.0
N238 N -0.00822 0.62021 0.10463 0.0
N239 N 0.92039 0.61177 0.15937 0.0
H240 H 0.2909 0.19049 0.1281 0.0
H241 H 0.39427 0.0386 0.11916 0.0
H242 H 0.25851 0.08392 0.16623 0.0
H243 H 0.42508 0.14167 0.07307 0.0
H244 H 0.34432 0.05529 0.13646 0.0
H245 H 0.33989 0.17352 0.10699 0.0
C246 C 0.29393 0.16349 0.13182 0.0
C247 C 0.27053 0.13865 0.14909 0.0
C248 C 0.36195 0.07428 0.1225 0.0
C249 C 0.32663 0.11916 0.12525 0.0
C250 C 0.39056 0.06477 0.11266 0.0
C251 C 0.41398 0.08877 0.09465 0.0
C252 C 0.35663 0.10813 0.11443 0.0
C253 C 0.40772 0.1223 0.08692 0.0
C254 C 0.32194 0.15384 0.11983 0.0
C255 C 0.27584 0.10405 0.15318 0.0
N256 N 0.37969 0.13103 0.09692 0.0
N257 N 0.30331 0.09544 0.14153 0.0
H258 H 0.1851 0.8666 0.73748 0.0
H259 H 0.13084 0.95049 0.57379 0.0
H260 H 0.24962 0.90154 0.65485 0.0
H261 H 0.0767 0.93868 0.66566 0.0
H262 H 0.17134 0.92319 0.59931 0.0
H263 H 0.14199 0.88336 0.70749 0.0
C264 C 0.1902 0.87756 0.71291 0.0
C265 C 0.22116 0.88297 0.69881 0.0
C266 C 0.15043 0.92632 0.61373 0.0
C267 C 0.17171 0.90233 0.66427 0.0
C268 C 0.12725 0.94169 0.59916 0.0
C269 C 0.10049 0.94707 0.61773 0.0
C270 C 0.14658 0.91595 0.64695 0.0
C271 C 0.09709 0.93534 0.65052 0.0
C272 C 0.16553 0.8872 0.69581 0.0
C273 C 0.22618 0.8971 0.66677 0.0
N274 N 0.11989 0.92045 0.66408 0.0
N275 N 0.20173 0.90649 0.65062 0.0
H276 H 0.78149 0.40536 0.9468 0.0
H277 H 0.94995 0.52353 0.88885 0.0
H278 H 0.7973 0.46333 0.85476 0.0
H279 H 0.92895 0.48238 -0.01244 0.0
H280 H 0.89528 0.49822 0.87472 0.0
H281 H 0.83619 0.43042 0.96098 0.0
C282 C 0.79643 0.42343 0.92954 0.0
C283 C 0.7847 0.4322 0.89946 0.0
C284 C 0.9026 0.49467 0.89946 0.0
C285 C 0.84765 0.46088 0.91561 0.0
C286 C 0.93391 0.50898 0.90756 0.0
C287 C 0.94413 0.50509 0.9395 0.0
C288 C 0.88125 0.47608 0.92337 0.0
C289 C 0.92215 0.48603 0.96265 0.0
C290 C 0.8277 0.43776 0.93773 0.0
C291 C 0.80525 0.45586 0.87821 0.0
N292 N 0.89176 0.47222 0.95412 0.0
N293 N 0.83576 0.46924 0.88664 0.0
H294 H 0.76367 0.65518 0.43433 0.0
H295 H 0.57559 0.59651 0.44174 0.0
H296 H 0.7029 0.69988 0.37071 0.0
H297 H 0.63207 0.58275 0.52469 0.0
H298 H 0.62251 0.63343 0.41479 0.0
H299 H 0.71647 0.62741 0.46764 0.0
C300 C 0.74046 0.65939 0.42752 0.0
C301 C 0.73717 0.6796 0.39953 0.0
C302 C 0.62462 0.62266 0.43903 0.0
C303 C 0.68325 0.64776 0.43727 0.0
C304 C 0.59788 0.60148 0.45435 0.0
C305 C 0.60007 0.58643 0.48536 0.0
C306 C 0.65394 0.62833 0.45455 0.0
C307 C 0.62944 0.59392 0.50075 0.0
C308 C 0.71359 0.64364 0.44659 0.0
C309 C 0.70657 0.68437 0.39197 0.0
N310 N 0.65542 0.61401 0.48497 0.0
N311 N 0.68077 0.66822 0.41049 0.0
H312 H 0.19758 0.32127 0.14783 0.0
H313 H 0.04461 0.38529 0.08247 0.0
H314 H 0.10853 0.2478 0.13539 0.0
H315 H 0.14127 0.43834 0.0577 0.0
H316 H 0.06553 0.33758 0.10935 0.0
H317 H 0.17514 0.36792 0.12216 0.0
C318 C 0.17328 0.31495 0.13972 0.0
C319 C 0.15494 0.28056 0.14362 0.0
C320 C 0.08202 0.35972 0.09794 0.0
C321 C 0.129 0.33396 0.11457 0.0
C322 C 0.07014 0.38694 0.08276 0.0
C323 C 0.09123 0.41569 0.06772 0.0
C324 C 0.11515 0.36181 0.09857 0.0
C325 C 0.12411 0.41655 0.06875 0.0
C326 C 0.16053 0.34157 0.12501 0.0
C327 C 0.12357 0.27392 0.13264 0.0
N328 N 0.13503 0.39016 0.08405 0.0
N329 N 0.11148 0.30045 0.11876 0.0
H330 H 0.65704 0.23835 0.92289 0.0
H331 H 0.50357 0.11591 0.01064 0.0
H332 H 0.5724 0.27708 0.95146 0.0
H333 H 0.59643 0.08831 0.00476 0.0
H334 H 0.52599 0.17227 0.98271 0.0
H335 H 0.63248 0.18023 0.946 0.0
C336 C 0.63317 0.2346 0.93377 0.0
C337 C 0.61684 0.26277 0.93539 0.0
C338 C 0.54142 0.15384 -0.01247 0.0
C339 C 0.5886 0.19615 0.96199 0.0
C340 C 0.52865 0.12164 0.00349 0.0
C341 C 0.5482 0.09743 0.01038 0.0
C342 C 0.5739 0.16175 0.97802 0.0
C343 C 0.58049 0.10624 0.00022 0.0
C344 C 0.61923 0.2014 0.9471 0.0
C345 C 0.58595 0.25621 0.94981 0.0
N346 N 0.59231 0.13765 0.98455 0.0
N347 N 0.57285 0.2236 0.96261 0.0
H348 H 0.83361 0.76427 0.34844 0.0
H349 H 0.97102 0.91851 0.41064 0.0
H350 H 0.92296 0.79996 0.29489 0.0
H351 H 0.88925 0.86895 0.47098 0.0
H352 H 0.95423 0.87511 0.3681 0.0
H353 H 0.85387 0.80197 0.39383 0.0
C354 C 0.85785 0.77919 0.34662 0.0
C355 C 0.87702 0.77807 0.31829 0.0
C356 C 0.94009 0.87359 0.39075 0.0
C357 C 0.89988 0.82273 0.36956 0.0
C358 C 0.94964 0.89838 0.41504 0.0
C359 C 0.93141 0.89749 0.44435 0.0
C360 C 0.91196 0.8479 0.39568 0.0
C361 C 0.904 0.87072 0.44875 0.0
C362 C 0.86927 0.80119 0.37238 0.0
C363 C 0.90752 0.79985 0.31645 0.0
N364 N 0.89499 0.84716 0.42458 0.0
N365 N 0.91801 0.82134 0.34173 0.0
H366 H 0.45165 0.83216 0.66614 0.0
H367 H 0.40845 0.62867 0.61712 0.0
H368 H 0.35784 0.76686 0.68194 0.0
H369 H 0.50527 0.68337 0.63109 0.0
H370 H 0.38939 0.68051 0.63711 0.0
H371 H 0.47172 0.7795 0.64935 0.0
C372 C 0.43527 0.80677 0.66606 0.0
C373 C 0.40298 0.80392 0.67539 0.0
C374 C 0.4148 0.68115 0.63598 0.0
C375 C 0.42578 0.74367 0.65609 0.0
C376 C 0.42573 0.65159 0.62448 0.0
C377 C 0.45853 0.65171 0.62238 0.0
C378 C 0.4368 0.71137 0.64506 0.0
C379 C 0.47978 0.68212 0.6324 0.0
C380 C 0.44678 0.77672 0.65662 0.0
C381 C 0.38289 0.77031 0.67496 0.0
N382 N 0.46856 0.71088 0.64307 0.0
N383 N 0.39457 0.74157 0.66527 0.0
H384 H 0.83476 0.89481 0.72075 0.0
H385 H 0.00093 0.95557 0.62073 0.0
H386 H 0.92502 0.8823 0.75829 0.0
H387 H 0.90917 0.95504 0.58006 0.0
H388 H 0.9741 0.93028 0.67189 0.0
H389 H 0.86205 0.91827 0.6695 0.0
C390 C 0.86033 0.89693 0.71823 0.0
C391 C 0.87761 0.88661 0.74395 0.0
C392 C 0.95985 0.93571 0.65176 0.0
C393 C 0.9091 0.91364 0.68518 0.0
C394 C 0.9752 0.95035 0.62262 0.0
C395 C 0.95737 0.95774 0.59616 0.0
C396 C 0.92638 0.92855 0.65449 0.0
C397 C 0.92396 0.94984 0.59979 0.0
C398 C 0.87591 0.91032 0.68889 0.0
C399 C 0.91072 0.88993 0.73915 0.0
N400 N 0.90959 0.93582 0.62842 0.0
N401 N 0.92541 0.90328 0.71038 0.0
H402 H 0.65131 0.21196 0.25352 0.0
H403 H 0.55919 0.04217 0.16033 0.0
H404 H 0.65124 0.10463 0.28508 0.0
H405 H 0.56676 0.15012 0.12627 0.0
H406 H 0.59513 0.06377 0.20442 0.0
H407 H 0.62311 0.18916 0.20495 0.0
C408 C 0.64558 0.18354 0.25012 0.0
C409 C 0.65345 0.16017 0.2736 0.0
C410 C 0.58908 0.08268 0.18715 0.0
C411 C 0.62072 0.13375 0.21792 0.0
C412 C 0.56853 0.07039 0.16199 0.0
C413 C 0.55972 0.0944 0.13968 0.0
C414 C 0.60084 0.11926 0.19011 0.0
C415 C 0.57269 0.13062 0.14298 0.0
C416 C 0.62943 0.17051 0.22231 0.0
C417 C 0.64559 0.12362 0.26766 0.0
N418 N 0.59239 0.14193 0.1678 0.0
N419 N 0.62935 0.1115 0.24055 0.0
H420 H 0.40562 0.68559 0.38773 0.0
H421 H 0.47317 0.52673 0.46822 0.0
H422 H 0.42302 0.59585 0.3325 0.0
H423 H 0.48255 0.63 0.5116 0.0
H424 H 0.44973 0.54893 0.42029 0.0
H425 H 0.42898 0.66307 0.43538 0.0
C426 C 0.41436 0.66115 0.3856 0.0
C427 C 0.41239 0.64261 0.35603 0.0
C428 C 0.45695 0.5667 0.44032 0.0
C429 C 0.43892 0.61651 0.41065 0.0
C430 C 0.47017 0.554 0.46774 0.0
C431 C 0.47987 0.57655 0.49396 0.0
C432 C 0.45298 0.60205 0.43928 0.0
C433 C 0.47555 0.61171 0.49191 0.0
C434 C 0.42776 0.64835 0.41281 0.0
C435 C 0.42416 0.61109 0.35475 0.0
N436 N 0.46233 0.62332 0.46514 0.0
N437 N 0.43677 0.59893 0.3817 0.0
H438 H 0.17967 0.3778 0.86372 0.0
H439 H 0.08599 0.53302 0.90275 0.0
H440 H 0.15115 0.44137 0.78682 0.0
H441 H 0.08272 0.44161 0.96578 0.0
H442 H 0.11769 0.50689 0.86202 0.0
H443 H 0.15304 0.40932 0.90401 0.0
C444 C 0.16812 0.39865 0.8553 0.0
C445 C 0.1674 0.40672 0.82178 0.0
C446 C 0.10997 0.49271 0.88483 0.0
C447 C 0.13679 0.44283 0.86788 0.0
C448 C 0.09197 0.50756 0.90804 0.0
C449 C 0.08163 0.4894 0.93764 0.0
C450 C 0.11811 0.45989 0.89166 0.0
C451 C 0.09 0.45648 0.94325 0.0
C452 C 0.15276 0.41648 0.87832 0.0
C453 C 0.15207 0.4341 0.81239 0.0
N454 N 0.10787 0.44291 0.92057 0.0
N455 N 0.13725 0.45116 0.83535 0.0
H456 H 0.7291 0.87298 0.91188 0.0
H457 H 0.61176 0.01094 0.92349 0.0
H458 H 0.72377 0.95211 0.83782 0.0
H459 H 0.61581 0.93349 -0.00049 0.0
H460 H 0.65312 0.98932 0.89216 0.0
H461 H 0.68788 0.89421 0.94469 0.0
C462 C 0.71929 0.89478 0.90252 0.0
C463 C 0.72993 0.91078 0.87203 0.0
C464 C 0.64505 0.97701 0.9157 0.0
C465 C 0.68286 0.93516 0.9094 0.0
C466 C 0.62138 0.98938 0.93365 0.0
C467 C 0.61025 0.97402 0.9642 0.0
C468 C 0.65781 0.94896 0.92827 0.0
C469 C 0.62369 0.94614 0.97607 0.0
C470 C 0.69578 0.90688 0.92126 0.0
C471 C 0.71637 0.93892 0.86114 0.0
N472 N 0.64675 0.93446 0.95806 0.0
N473 N 0.69361 0.95016 0.87977 0.0
H474 H 0.7386 0.08491 0.44214 0.0
H475 H 0.92403 0.07674 0.44739 0.0
H476 H 0.81234 0.15757 0.38766 0.0
H477 H 0.84925 0.00736 0.50361 0.0
H478 H 0.88404 0.10738 0.42556 0.0
H479 H 0.77927 0.05638 0.46477 0.0
C480 C 0.76336 0.09485 0.43487 0.0
C481 C 0.77203 0.1237 0.41294 0.0
C482 C 0.87645 0.08552 0.44276 0.0
C483 C 0.81891 0.09112 0.43891 0.0
C484 C 0.89928 0.06807 0.45529 0.0
C485 C 0.89001 0.03936 0.47731 0.0
C486 C 0.84413 0.07412 0.45229 0.0
C487 C 0.85756 0.02928 0.48664 0.0
C488 C 0.78662 0.07857 0.44787 0.0
C489 C 0.80454 0.13541 0.40448 0.0
N490 N 0.83587 0.04653 0.47403 0.0
N491 N 0.8268 0.11908 0.41747 0.0
H492 H 0.25014 0.60331 0.19943 0.0
H493 H 0.14275 0.57086 0.04119 0.0
H494 H 0.28299 0.64441 0.10293 0.0
H495 H 0.10704 0.54161 0.13981 0.0
H496 H 0.19442 0.59784 0.06307 0.0
H497 H 0.19773 0.57956 0.17771 0.0
C498 C 0.24637 0.60729 0.17368 0.0
C499 C 0.27103 0.62585 0.15298 0.0
C500 C 0.1752 0.58569 0.07992 0.0
C501 C 0.21106 0.59879 0.12793 0.0
C502 C 0.14568 0.57035 0.06744 0.0
C503 C 0.12054 0.55385 0.08867 0.0
C504 C 0.17966 0.58432 0.11385 0.0
C505 C 0.12573 0.55395 0.12247 0.0
C506 C 0.2164 0.59383 0.1613 0.0
C507 C 0.26471 0.63028 0.11981 0.0
N508 N 0.15471 0.56874 0.13397 0.0
N509 N 0.2354 0.61679 0.10832 0.0
H510 H 0.2692 0.42016 0.64156 0.0
H511 H 0.45036 0.48738 0.68742 0.0
H512 H 0.30961 0.38357 0.72769 0.0
H513 H 0.41584 0.50083 0.59088 0.0
H514 H 0.39888 0.44975 0.70298 0.0
H515 H 0.32254 0.4507 0.62284 0.0
C516 C 0.28931 0.41844 0.65647 0.0
C517 C 0.28494 0.39944 0.68631 0.0
C518 C 0.40267 0.46067 0.6783 0.0
C519 C 0.34599 0.43448 0.66513 0.0
C520 C 0.43203 0.4822 0.66941 0.0
C521 C 0.43733 0.49741 0.63787 0.0
C522 C 0.37828 0.45469 0.65561 0.0
C523 C 0.41278 0.48967 0.61549 0.0
C524 C 0.31976 0.43578 0.64572 0.0
C525 C 0.31188 0.39796 0.70455 0.0
N526 N 0.3842 0.46913 0.6249 0.0
N527 N 0.34122 0.41551 0.69381 0.0
H528 H 0.90139 0.72856 0.85075 0.0
H529 H 0.98645 0.67689 0.00783 0.0
H530 H 0.92471 0.80062 0.93081 0.0
H531 H -0.00153 0.63009 0.91375 0.0
H532 H 0.96138 0.72088 0.98114 0.0
H533 H 0.93394 0.68987 0.87449 0.0
C534 C 0.91338 0.73626 0.8733 0.0
C535 C 0.91024 0.76777 0.88893 0.0
C536 C 0.96987 0.70127 0.96627 0.0
C537 C 0.94729 0.72358 0.91623 0.0
C538 C 0.98415 0.67617 0.98148 0.0
C539 C -0.00547 0.64987 0.96294 0.0
C540 C 0.9653 0.69958 0.93239 0.0
C541 C -0.00903 0.65009 0.92889 0.0
C542 C 0.9321 0.71429 0.88669 0.0
C543 C 0.92647 0.77656 0.91796 0.0
N544 N 0.9762 0.67427 0.91473 0.0
N545 N 0.94404 0.75439 0.93087 0.0
H546 H 0.41565 0.80105 0.23813 0.0
H547 H 0.5165 0.89283 0.08145 0.0
H548 H 0.43934 0.74132 0.15517 0.0
H549 H 0.45395 0.945 0.1394 0.0
H550 H 0.49817 0.83872 0.1146 0.0
H551 H 0.44031 0.85608 0.20872 0.0
C552 C 0.42655 0.79947 0.21401 0.0
C553 C 0.42532 0.76659 0.19898 0.0
C554 C 0.48859 0.8621 0.12007 0.0
C555 C 0.45348 0.82924 0.16539 0.0
C556 C 0.49905 0.89295 0.10125 0.0
C557 C 0.48657 0.92336 0.10759 0.0
C558 C 0.46601 0.8619 0.14582 0.0
C559 C 0.46395 0.92203 0.1335 0.0
C560 C 0.44034 0.83085 0.19718 0.0
C561 C 0.4396 0.76613 0.16756 0.0
N562 N 0.45449 0.89184 0.15179 0.0
N563 N 0.45309 0.79699 0.15179 0.0
H564 H 0.10609 0.2323 0.72995 0.0
H565 H 0.15124 0.10018 0.59427 0.0
H566 H 0.20263 0.23235 0.6959 0.0
H567 H 0.05527 0.09658 0.63211 0.0
H568 H 0.17037 0.14948 0.63039 0.0
H569 H 0.08696 0.18339 0.69343 0.0
C570 C 0.12329 0.22203 0.7148 0.0
C571 C 0.15603 0.23644 0.716 0.0
C572 C 0.14512 0.13793 0.6308 0.0
C573 C 0.13424 0.18041 0.67406 0.0
C574 C 0.13415 0.10978 0.61014 0.0
C575 C 0.10158 0.09421 0.61018 0.0
C576 C 0.12337 0.15068 0.65164 0.0
C577 C 0.08058 0.10777 0.63128 0.0
C578 C 0.11233 0.19407 0.69394 0.0
C579 C 0.17719 0.22203 0.69579 0.0
N580 N 0.09185 0.13524 0.65117 0.0
N581 N 0.16592 0.19481 0.67563 0.0
H582 H 0.67026 0.31301 0.4435 0.0
H583 H 0.53157 0.42026 0.48329 0.0
H584 H 0.57946 0.29318 0.39694 0.0
H585 H 0.62153 0.43876 0.53146 0.0
H586 H 0.54798 0.37212 0.45282 0.0
H587 H 0.65216 0.35773 0.47742 0.0
C588 C 0.64649 0.31793 0.4405 0.0
C589 C 0.62641 0.29939 0.41724 0.0
C590 C 0.56409 0.38663 0.47015 0.0
C591 C 0.60556 0.35062 0.45591 0.0
C592 C 0.55471 0.41411 0.48758 0.0
C593 C 0.57523 0.43367 0.5099 0.0
C594 C 0.59425 0.37866 0.47501 0.0
C595 C 0.60494 0.42448 0.51445 0.0
C596 C 0.63616 0.34349 0.45986 0.0
C597 C 0.59581 0.30687 0.41447 0.0
N598 N 0.61359 0.39775 0.49708 0.0
N599 N 0.58639 0.33196 0.43346 0.0
loop_
_geom_bond_atom_site_label_1
_geom_bond_atom_site_label_2
_geom_bond_distance
_geom_bond_site_symmetry_2
_ccdc_geom_bond_type
O0 Cd1 2.300 . S
O0 C7 1.275 . S
Cd1 O0 2.300 . S
Cd1 O9 2.381 . S
Cd1 O10 2.378 . S
O2 Cd3 2.385 . S
O2 C7 1.255 . S
Cd3 O2 2.385 . S
Cd3 O4 2.317 . S
O4 Cd3 2.317 . S
O4 C5 1.232 . S
C5 O4 1.232 . S
C5 O6 1.218 . S
O6 C5 1.218 . S
C7 O0 1.275 . S
C7 O2 1.255 . S
C8 O9 1.258 . S
C8 O10 1.256 . S
O9 Cd1 2.381 . S
O9 C8 1.258 . S
O10 Cd1 2.378 . S
O10 C8 1.256 . S
O11 Cd12 2.300 . S
O11 C18 1.275 . S
Cd12 O11 2.300 . S
Cd12 O20 2.381 . S
Cd12 O21 2.378 . S
O13 Cd14 2.385 . S
O13 C18 1.255 . S
Cd14 O13 2.385 . S
Cd14 O15 2.317 . S
O15 Cd14 2.317 . S
O15 C16 1.232 . S
C16 O15 1.232 . S
C16 O17 1.218 . S
O17 C16 1.218 . S
C18 O11 1.275 . S
C18 O13 1.255 . S
C19 O20 1.258 . S
C19 O21 1.256 . S
O20 Cd12 2.381 . S
O20 C19 1.258 . S
O21 Cd12 2.378 . S
O21 C19 1.256 . S
O22 Cd23 2.300 . S
O22 C29 1.275 . S
Cd23 O22 2.300 . S
Cd23 O31 2.381 . S
Cd23 O32 2.378 . S
O24 Cd25 2.385 . S
O24 C29 1.255 . S
Cd25 O24 2.385 . S
Cd25 O26 2.317 . S
O26 Cd25 2.317 . S
O26 C27 1.232 . S
C27 O26 1.232 . S
C27 O28 1.218 . S
O28 C27 1.218 . S
C29 O22 1.275 . S
C29 O24 1.255 . S
C30 O31 1.258 . S
C30 O32 1.256 . S
O31 Cd23 2.381 . S
O31 C30 1.258 . S
O32 Cd23 2.378 . S
O32 C30 1.256 . S
O33 Cd34 2.300 . S
O33 C40 1.275 . S
Cd34 O33 2.300 . S
Cd34 O42 2.381 . S
Cd34 O43 2.378 . S
O35 Cd36 2.385 . S
O35 C40 1.255 . S
Cd36 O35 2.385 . S
Cd36 O37 2.317 . S
O37 Cd36 2.317 . S
O37 C38 1.232 . S
C38 O37 1.232 . S
C38 O39 1.218 . S
O39 C38 1.218 . S
C40 O33 1.275 . S
C40 O35 1.255 . S
C41 O42 1.258 . S
C41 O43 1.256 . S
O42 Cd34 2.381 . S
O42 C41 1.258 . S
O43 Cd34 2.378 . S
O43 C41 1.256 . S
O44 Cd45 2.300 . S
O44 C51 1.275 . S
Cd45 O44 2.300 . S
Cd45 O53 2.381 . S
Cd45 O54 2.378 . S
O46 Cd47 2.385 . S
O46 C51 1.255 . S
Cd47 O46 2.385 . S
Cd47 O48 2.317 . S
O48 Cd47 2.317 . S
O48 C49 1.232 . S
C49 O48 1.232 . S
C49 O50 1.218 . S
O50 C49 1.218 . S
C51 O44 1.275 . S
C51 O46 1.255 . S
C52 O53 1.258 . S
C52 O54 1.256 . S
O53 Cd45 2.381 . S
O53 C52 1.258 . S
O54 Cd45 2.378 . S
O54 C52 1.256 . S
O55 Cd56 2.300 . S
O55 C62 1.275 . S
Cd56 O55 2.300 . S
Cd56 O64 2.381 . S
Cd56 O65 2.378 . S
O57 Cd58 2.385 . S
O57 C62 1.255 . S
Cd58 O57 2.385 . S
Cd58 O59 2.317 . S
O59 Cd58 2.317 . S
O59 C60 1.232 . S
C60 O59 1.232 . S
C60 O61 1.218 . S
O61 C60 1.218 . S
C62 O55 1.275 . S
C62 O57 1.255 . S
C63 O64 1.258 . S
C63 O65 1.256 . S
O64 Cd56 2.381 . S
O64 C63 1.258 . S
O65 Cd56 2.378 . S
O65 C63 1.256 . S
O66 Cd67 2.300 . S
O66 C73 1.275 . S
Cd67 O66 2.300 . S
Cd67 O75 2.381 . S
Cd67 O76 2.378 . S
O68 Cd69 2.385 . S
O68 C73 1.255 . S
Cd69 O68 2.385 . S
Cd69 O70 2.317 . S
O70 Cd69 2.317 . S
O70 C71 1.232 . S
C71 O70 1.232 . S
C71 O72 1.218 . S
O72 C71 1.218 . S
C73 O66 1.275 . S
C73 O68 1.255 . S
C74 O75 1.258 . S
C74 O76 1.256 . S
O75 Cd67 2.381 . S
O75 C74 1.258 . S
O76 Cd67 2.378 . S
O76 C74 1.256 . S
O77 Cd78 2.300 . S
O77 C84 1.275 . S
Cd78 O77 2.300 . S
Cd78 O86 2.381 . S
Cd78 O87 2.378 . S
O79 Cd80 2.385 . S
O79 C84 1.255 . S
Cd80 O79 2.385 . S
Cd80 O81 2.317 . S
O81 Cd80 2.317 . S
O81 C82 1.232 . S
C82 O81 1.232 . S
C82 O83 1.218 . S
O83 C82 1.218 . S
C84 O77 1.275 . S
C84 O79 1.255 . S
C85 O86 1.258 . S
C85 O87 1.256 . S
O86 Cd78 2.381 . S
O86 C85 1.258 . S
O87 Cd78 2.378 . S
O87 C85 1.256 . S
Zn88 O94 1.969 1_545 S
Zn88 O95 1.965 1_545 S
Zn88 O99 2.024 . S
Zn88 O104 1.969 . S
Zn89 O96 1.969 1_545 S
Zn89 O102 1.969 . S
Zn89 O103 1.965 1_655 S
Zn89 O105 2.024 1_545 S
C90 O91 1.229 . S
C90 O99 1.058 . S
O91 C90 1.229 . S
C92 O93 1.229 . S
C92 O105 1.058 . S
O93 C92 1.229 . S
O94 Zn88 1.969 1_565 S
O94 C97 1.267 . S
O95 Zn88 1.965 1_565 S
O95 C106 1.260 1_455 S
O96 Zn89 1.969 1_565 S
O96 C106 1.258 . S
C97 O94 1.267 . S
C97 O98 1.228 . S
O98 C97 1.228 . S
O99 Zn88 2.024 . S
O99 C90 1.058 . S
C100 O101 1.228 . S
C100 O102 1.267 . S
O101 C100 1.228 . S
O102 Zn89 1.969 . S
O102 C100 1.267 . S
O103 Zn89 1.965 1_455 S
O103 C107 1.260 . S
O104 Zn88 1.969 . S
O104 C107 1.258 . S
O105 Zn89 2.024 1_565 S
O105 C92 1.058 . S
C106 O95 1.260 1_655 S
C106 O96 1.258 . S
C107 O103 1.260 . S
C107 O104 1.258 . S
Zn108 O114 1.969 1_545 S
Zn108 O115 1.965 . S
Zn108 O119 2.024 1_554 S
Zn108 O124 1.969 1_545 S
Zn109 O116 1.969 . S
Zn109 O122 1.969 . S
Zn109 O123 1.965 . S
Zn109 O125 2.024 . S
C110 O111 1.229 . S
C110 O119 1.058 1_565 S
O111 C110 1.229 . S
C112 O113 1.229 . S
C112 O125 1.058 . S
O113 C112 1.229 . S
O114 Zn108 1.969 1_565 S
O114 C117 1.267 1_554 S
O115 Zn108 1.965 . S
O115 C126 1.260 . S
O116 Zn109 1.969 . S
O116 C126 1.258 . S
C117 O114 1.267 1_556 S
C117 O118 1.228 1_565 S
O118 C117 1.228 1_545 S
O119 Zn108 2.024 1_556 S
O119 C110 1.058 1_545 S
C120 O121 1.228 . S
C120 O122 1.267 . S
O121 C120 1.228 . S
O122 Zn109 1.969 . S
O122 C120 1.267 . S
O123 Zn109 1.965 . S
O123 C127 1.260 1_545 S
O124 Zn108 1.969 1_565 S
O124 C127 1.258 . S
O125 Zn109 2.024 . S
O125 C112 1.058 . S
C126 O115 1.260 . S
C126 O116 1.258 . S
C127 O123 1.260 1_565 S
C127 O124 1.258 . S
Zn128 O134 1.969 . S
Zn128 O135 1.965 . S
Zn128 O139 2.024 . S
Zn128 O144 1.969 . S
Zn129 O136 1.969 . S
Zn129 O142 1.969 . S
Zn129 O143 1.965 . S
Zn129 O145 2.024 . S
C130 O131 1.229 . S
C130 O139 1.058 . S
O131 C130 1.229 . S
C132 O133 1.229 . S
C132 O145 1.058 . S
O133 C132 1.229 . S
O134 Zn128 1.969 . S
O134 C137 1.267 . S
O135 Zn128 1.965 . S
O135 C146 1.260 . S
O136 Zn129 1.969 . S
O136 C146 1.258 . S
C137 O134 1.267 . S
C137 O138 1.228 . S
O138 C137 1.228 . S
O139 Zn128 2.024 . S
O139 C130 1.058 . S
C140 O141 1.228 . S
C140 O142 1.267 . S
O141 C140 1.228 . S
O142 Zn129 1.969 . S
O142 C140 1.267 . S
O143 Zn129 1.965 . S
O143 C147 1.260 . S
O144 Zn128 1.969 . S
O144 C147 1.258 . S
O145 Zn129 2.024 . S
O145 C132 1.058 . S
C146 O135 1.260 . S
C146 O136 1.258 . S
C147 O143 1.260 . S
C147 O144 1.258 . S
Zn148 O154 1.969 . S
Zn148 O155 1.965 1_556 S
Zn148 O159 2.024 1_455 S
Zn148 O164 1.969 . S
Zn149 O156 1.969 . S
Zn149 O162 1.969 . S
Zn149 O163 1.965 . S
Zn149 O165 2.024 . S
C150 O151 1.229 . S
C150 O159 1.058 . S
O151 C150 1.229 . S
C152 O153 1.229 . S
C152 O165 1.058 . S
O153 C152 1.229 . S
O154 Zn148 1.969 . S
O154 C157 1.267 1_455 S
O155 Zn148 1.965 1_554 S
O155 C166 1.260 . S
O156 Zn149 1.969 . S
O156 C166 1.258 . S
C157 O154 1.267 1_655 S
C157 O158 1.228 . S
O158 C157 1.228 . S
O159 Zn148 2.024 1_655 S
O159 C150 1.058 . S
C160 O161 1.228 . S
C160 O162 1.267 . S
O161 C160 1.228 . S
O162 Zn149 1.969 . S
O162 C160 1.267 . S
O163 Zn149 1.965 . S
O163 C167 1.260 1_554 S
O164 Zn148 1.969 . S
O164 C167 1.258 . S
O165 Zn149 2.024 . S
O165 C152 1.058 . S
C166 O155 1.260 . S
C166 O156 1.258 . S
C167 O163 1.260 1_556 S
C167 O164 1.258 . S
H168 C174 0.930 . S
H169 C178 0.930 . S
H170 C183 0.929 . S
H171 C181 0.929 . S
H172 C176 0.929 . S
H173 C182 0.929 . S
C174 H168 0.930 . S
C174 C175 1.367 . S
C174 C182 1.378 . S
C175 C174 1.367 . S
C175 C183 1.433 . S
C176 H172 0.929 . S
C176 C178 1.378 . S
C176 C180 1.350 . S
C177 C180 1.463 . S
C177 C182 1.350 . S
C177 N185 1.427 . S
C178 H169 0.930 . S
C178 C176 1.378 . S
C178 C179 1.367 . S
C179 C178 1.367 . S
C179 C181 1.433 . S
C180 C176 1.350 . S
C180 C177 1.463 . S
C180 N184 1.427 . S
C181 H171 0.929 . S
C181 C179 1.433 . S
C181 N184 1.384 . S
C182 H173 0.929 . S
C182 C174 1.378 . S
C182 C177 1.350 . S
C183 H170 0.929 . S
C183 C175 1.433 . S
C183 N185 1.384 . S
N184 C180 1.427 . S
N184 C181 1.384 . S
N185 C177 1.427 . S
N185 C183 1.384 . S
H186 C192 0.930 . S
H187 C196 0.930 . S
H188 C201 0.929 . S
H189 C199 0.929 . S
H190 C194 0.910 1_545 S
H191 C200 0.929 . S
C192 H186 0.930 . S
C192 C193 1.367 . S
C192 C200 1.378 . S
C193 C192 1.367 . S
C193 C201 1.433 . S
C194 H190 0.910 1_565 S
C194 C196 1.378 1_565 S
C194 C198 1.350 . S
C195 C198 1.463 . S
C195 C200 1.350 . S
C195 N203 1.427 . S
C196 H187 0.930 . S
C196 C194 1.378 1_545 S
C196 C197 1.367 1_545 S
C197 C196 1.367 1_565 S
C197 C199 1.433 . S
C198 C194 1.350 . S
C198 C195 1.463 . S
C198 N202 1.427 . S
C199 H189 0.929 . S
C199 C197 1.433 . S
C199 N202 1.384 . S
C200 H191 0.929 . S
C200 C192 1.378 . S
C200 C195 1.350 . S
C201 H188 0.929 . S
C201 C193 1.433 . S
C201 N203 1.384 . S
N202 C198 1.427 . S
N202 C199 1.384 . S
N203 C195 1.427 . S
N203 C201 1.384 . S
H204 C210 0.930 . S
H205 C214 0.930 . S
H206 C219 0.929 . S
H207 C217 0.929 . S
H208 C212 0.929 . S
H209 C218 0.929 . S
C210 H204 0.930 . S
C210 C211 1.367 . S
C210 C218 1.378 . S
C211 C210 1.367 . S
C211 C219 1.433 . S
C212 H208 0.929 . S
C212 C214 1.378 . S
C212 C216 1.350 . S
C213 C216 1.463 . S
C213 C218 1.350 . S
C213 N221 1.427 . S
C214 H205 0.930 . S
C214 C212 1.378 . S
C214 C215 1.367 . S
C215 C214 1.367 . S
C215 C217 1.433 . S
C216 C212 1.350 . S
C216 C213 1.463 . S
C216 N220 1.427 . S
C217 H207 0.929 . S
C217 C215 1.433 . S
C217 N220 1.384 . S
C218 H209 0.929 . S
C218 C210 1.378 . S
C218 C213 1.350 . S
C219 H206 0.929 . S
C219 C211 1.433 . S
C219 N221 1.384 . S
N220 C216 1.427 . S
N220 C217 1.384 . S
N221 C213 1.427 . S
N221 C219 1.384 . S
H222 C228 0.930 . S
H223 C232 0.930 . S
H224 C237 0.929 . S
H225 C235 0.929 1_455 S
H226 C230 0.929 . S
H227 C236 0.929 . S
C228 H222 0.930 . S
C228 C229 1.367 . S
C228 C236 1.378 . S
C229 C228 1.367 . S
C229 C237 1.433 . S
C230 H226 0.929 . S
C230 C232 1.378 . S
C230 C234 1.350 . S
C231 C234 1.463 . S
C231 C236 1.350 . S
C231 N239 1.427 . S
C232 H223 0.930 . S
C232 C230 1.378 . S
C232 C233 1.367 . S
C233 C232 1.367 . S
C233 C235 1.433 . S
C234 C230 1.350 . S
C234 C231 1.463 . S
C234 N238 1.427 . S
C235 H225 0.929 1_655 S
C235 C233 1.433 . S
C235 N238 1.384 . S
C236 H227 0.929 . S
C236 C228 1.378 . S
C236 C231 1.350 . S
C237 H224 0.929 . S
C237 C229 1.433 . S
C237 N239 1.384 . S
N238 C234 1.427 . S
N238 C235 1.384 . S
N239 C231 1.427 . S
N239 C237 1.384 . S
H240 C246 0.930 . S
H241 C250 0.930 . S
H242 C255 0.929 . S
H243 C253 0.929 . S
H244 C248 0.929 . S
H245 C254 0.929 . S
C246 H240 0.930 . S
C246 C247 1.367 . S
C246 C254 1.378 . S
C247 C246 1.367 . S
C247 C255 1.433 . S
C248 H244 0.929 . S
C248 C250 1.378 . S
C248 C252 1.350 . S
C249 C252 1.463 . S
C249 C254 1.350 . S
C249 N257 1.427 . S
C250 H241 0.930 . S
C250 C248 1.378 . S
C250 C251 1.367 . S
C251 C250 1.367 . S
C251 C253 1.433 . S
C252 C248 1.350 . S
C252 C249 1.463 . S
C252 N256 1.427 . S
C253 H243 0.929 . S
C253 C251 1.433 . S
C253 N256 1.384 . S
C254 H245 0.929 . S
C254 C246 1.378 . S
C254 C249 1.350 . S
C255 H242 0.929 . S
C255 C247 1.433 . S
C255 N257 1.384 . S
N256 C252 1.427 . S
N256 C253 1.384 . S
N257 C249 1.427 . S
N257 C255 1.384 . S
H258 C264 0.930 . S
H259 C268 0.930 . S
H260 C273 0.929 . S
H261 C271 0.929 1_545 S
H262 C266 0.929 . S
H263 C272 0.929 . S
C264 H258 0.930 . S
C264 C265 1.367 . S
C264 C272 1.378 . S
C265 C264 1.367 . S
C265 C273 1.433 . S
C266 H262 0.929 . S
C266 C268 1.378 . S
C266 C270 1.350 . S
C267 C270 1.463 . S
C267 C272 1.350 . S
C267 N275 1.427 . S
C268 H259 0.930 . S
C268 C266 1.378 . S
C268 C269 1.367 . S
C269 C268 1.367 . S
C269 C271 1.433 . S
C270 C266 1.350 . S
C270 C267 1.463 . S
C270 N274 1.427 . S
C271 H261 0.929 1_565 S
C271 C269 1.433 . S
C271 N274 1.384 . S
C272 H263 0.929 . S
C272 C264 1.378 . S
C272 C267 1.350 . S
C273 H260 0.929 . S
C273 C265 1.433 . S
C273 N275 1.384 . S
N274 C270 1.427 . S
N274 C271 1.384 . S
N275 C267 1.427 . S
N275 C273 1.384 . S
H276 C282 0.930 . S
H277 C286 0.930 . S
H278 C291 0.929 . S
H279 C289 0.929 . S
H280 C284 0.929 . S
H281 C290 0.929 . S
C282 H276 0.930 . S
C282 C283 1.367 . S
C282 C290 1.378 . S
C283 C282 1.367 . S
C283 C291 1.433 . S
C284 H280 0.929 . S
C284 C286 1.378 . S
C284 C288 1.350 . S
C285 C288 1.463 . S
C285 C290 1.350 . S
C285 N293 1.427 . S
C286 H277 0.930 . S
C286 C284 1.378 . S
C286 C287 1.367 . S
C287 C286 1.367 . S
C287 C289 1.433 . S
C288 C284 1.350 . S
C288 C285 1.463 . S
C288 N292 1.427 . S
C289 H279 0.929 . S
C289 C287 1.433 . S
C289 N292 1.384 . S
C290 H281 0.929 . S
C290 C282 1.378 . S
C290 C285 1.350 . S
C291 H278 0.929 . S
C291 C283 1.433 . S
C291 N293 1.384 . S
N292 C288 1.427 . S
N292 C289 1.384 . S
N293 C285 1.427 . S
N293 C291 1.384 . S
H294 C300 0.930 . S
H295 C304 0.930 . S
H296 C309 0.929 . S
H297 C307 0.929 . S
H298 C302 0.929 . S
H299 C308 0.929 . S
C300 H294 0.930 . S
C300 C301 1.367 . S
C300 C308 1.378 . S
C301 C300 1.367 . S
C301 C309 1.433 . S
C302 H298 0.929 . S
C302 C304 1.378 . S
C302 C306 1.350 . S
C303 C306 1.463 . S
C303 C308 1.350 . S
C303 N311 1.427 . S
C304 H295 0.930 . S
C304 C302 1.378 . S
C304 C305 1.367 . S
C305 C304 1.367 . S
C305 C307 1.433 . S
C306 C302 1.350 . S
C306 C303 1.463 . S
C306 N310 1.427 . S
C307 H297 0.929 . S
C307 C305 1.433 . S
C307 N310 1.384 . S
C308 H299 0.929 . S
C308 C300 1.378 . S
C308 C303 1.350 . S
C309 H296 0.929 . S
C309 C301 1.433 . S
C309 N311 1.384 . S
N310 C306 1.427 . S
N310 C307 1.384 . S
N311 C303 1.427 . S
N311 C309 1.384 . S
H312 C318 0.930 . S
H313 C322 0.930 . S
H314 C327 0.929 . S
H315 C325 0.929 . S
H316 C320 0.929 . S
H317 C326 0.929 . S
C318 H312 0.930 . S
C318 C319 1.367 . S
C318 C326 1.378 . S
C319 C318 1.367 . S
C319 C327 1.433 . S
C320 H316 0.929 . S
C320 C322 1.378 . S
C320 C324 1.350 . S
C321 C324 1.463 . S
C321 C326 1.350 . S
C321 N329 1.427 . S
C322 H313 0.930 . S
C322 C320 1.378 . S
C322 C323 1.367 . S
C323 C322 1.367 . S
C323 C325 1.433 . S
C324 C320 1.350 . S
C324 C321 1.463 . S
C324 N328 1.427 . S
C325 H315 0.929 . S
C325 C323 1.433 . S
C325 N328 1.384 . S
C326 H317 0.929 . S
C326 C318 1.378 . S
C326 C321 1.350 . S
C327 H314 0.929 . S
C327 C319 1.433 . S
C327 N329 1.384 . S
N328 C324 1.427 . S
N328 C325 1.384 . S
N329 C321 1.427 . S
N329 C327 1.384 . S
H330 C336 0.930 . S
H331 C340 0.930 . S
H332 C345 0.929 . S
H333 C343 0.929 . S
H334 C338 0.929 . S
H335 C344 0.929 . S
C336 H330 0.930 . S
C336 C337 1.367 . S
C336 C344 1.378 . S
C337 C336 1.367 . S
C337 C345 1.433 . S
C338 H334 0.929 . S
C338 C340 1.378 . S
C338 C342 1.350 1_554 S
C339 C342 1.463 . S
C339 C344 1.350 . S
C339 N347 1.427 . S
C340 H331 0.930 . S
C340 C338 1.378 . S
C340 C341 1.367 . S
C341 C340 1.367 . S
C341 C343 1.433 1_554 S
C342 C338 1.350 1_556 S
C342 C339 1.463 . S
C342 N346 1.427 . S
C343 H333 0.929 . S
C343 C341 1.433 1_556 S
C343 N346 1.384 . S
C344 H335 0.929 . S
C344 C336 1.378 . S
C344 C339 1.350 . S
C345 H332 0.929 . S
C345 C337 1.433 . S
C345 N347 1.384 . S
N346 C342 1.427 . S
N346 C343 1.384 . S
N347 C339 1.427 . S
N347 C345 1.384 . S
H348 C354 0.930 . S
H349 C358 0.930 . S
H350 C363 0.929 . S
H351 C361 0.929 . S
H352 C356 0.929 . S
H353 C362 0.929 . S
C354 H348 0.930 . S
C354 C355 1.367 . S
C354 C362 1.378 . S
C355 C354 1.367 . S
C355 C363 1.433 . S
C356 H352 0.929 . S
C356 C358 1.378 . S
C356 C360 1.350 . S
C357 C360 1.463 . S
C357 C362 1.350 . S
C357 N365 1.427 . S
C358 H349 0.930 . S
C358 C356 1.378 . S
C358 C359 1.367 . S
C359 C358 1.367 . S
C359 C361 1.433 . S
C360 C356 1.350 . S
C360 C357 1.463 . S
C360 N364 1.427 . S
C361 H351 0.929 . S
C361 C359 1.433 . S
C361 N364 1.384 . S
C362 H353 0.929 . S
C362 C354 1.378 . S
C362 C357 1.350 . S
C363 H350 0.929 . S
C363 C355 1.433 . S
C363 N365 1.384 . S
N364 C360 1.427 . S
N364 C361 1.384 . S
N365 C357 1.427 . S
N365 C363 1.384 . S
H366 C372 0.930 . S
H367 C376 0.930 . S
H368 C381 0.929 . S
H369 C379 0.929 . S
H370 C374 0.929 . S
H371 C380 0.929 . S
C372 H366 0.930 . S
C372 C373 1.367 . S
C372 C380 1.378 . S
C373 C372 1.367 . S
C373 C381 1.433 . S
C374 H370 0.929 . S
C374 C376 1.378 . S
C374 C378 1.350 . S
C375 C378 1.463 . S
C375 C380 1.350 . S
C375 N383 1.427 . S
C376 H367 0.930 . S
C376 C374 1.378 . S
C376 C377 1.367 . S
C377 C376 1.367 . S
C377 C379 1.433 . S
C378 C374 1.350 . S
C378 C375 1.463 . S
C378 N382 1.427 . S
C379 H369 0.929 . S
C379 C377 1.433 . S
C379 N382 1.384 . S
C380 H371 0.929 . S
C380 C372 1.378 . S
C380 C375 1.350 . S
C381 H368 0.929 . S
C381 C373 1.433 . S
C381 N383 1.384 . S
N382 C378 1.427 . S
N382 C379 1.384 . S
N383 C375 1.427 . S
N383 C381 1.384 . S
H384 C390 0.930 . S
H385 C394 0.962 . S
H386 C399 0.929 . S
H387 C397 0.929 . S
H388 C392 0.929 . S
H389 C398 0.929 . S
C390 H384 0.930 . S
C390 C391 1.367 . S
C390 C398 1.378 . S
C391 C390 1.367 . S
C391 C399 1.433 . S
C392 H388 0.929 . S
C392 C394 1.378 . S
C392 C396 1.350 . S
C393 C396 1.463 . S
C393 C398 1.350 . S
C393 N401 1.427 . S
C394 H385 0.962 . S
C394 C392 1.378 . S
C394 C395 1.367 . S
C395 C394 1.367 . S
C395 C397 1.433 . S
C396 C392 1.350 . S
C396 C393 1.463 . S
C396 N400 1.427 . S
C397 H387 0.929 . S
C397 C395 1.433 . S
C397 N400 1.384 . S
C398 H389 0.929 . S
C398 C390 1.378 . S
C398 C393 1.350 . S
C399 H386 0.929 . S
C399 C391 1.433 . S
C399 N401 1.384 . S
N400 C396 1.427 . S
N400 C397 1.384 . S
N401 C393 1.427 . S
N401 C399 1.384 . S
H402 C408 0.930 . S
H403 C412 0.930 . S
H404 C417 0.929 . S
H405 C415 0.929 . S
H406 C410 0.929 . S
H407 C416 0.929 . S
C408 H402 0.930 . S
C408 C409 1.367 . S
C408 C416 1.378 . S
C409 C408 1.367 . S
C409 C417 1.433 . S
C410 H406 0.929 . S
C410 C412 1.378 . S
C410 C414 1.350 . S
C411 C414 1.463 . S
C411 C416 1.350 . S
C411 N419 1.427 . S
C412 H403 0.930 . S
C412 C410 1.378 . S
C412 C413 1.367 . S
C413 C412 1.367 . S
C413 C415 1.433 . S
C414 C410 1.350 . S
C414 C411 1.463 . S
C414 N418 1.427 . S
C415 H405 0.929 . S
C415 C413 1.433 . S
C415 N418 1.384 . S
C416 H407 0.929 . S
C416 C408 1.378 . S
C416 C411 1.350 . S
C417 H404 0.929 . S
C417 C409 1.433 . S
C417 N419 1.384 . S
N418 C414 1.427 . S
N418 C415 1.384 . S
N419 C411 1.427 . S
N419 C417 1.384 . S
H420 C426 0.930 . S
H421 C430 0.930 . S
H422 C435 0.929 . S
H423 C433 0.929 . S
H424 C428 0.929 . S
H425 C434 0.929 . S
C426 H420 0.930 . S
C426 C427 1.367 . S
C426 C434 1.378 . S
C427 C426 1.367 . S
C427 C435 1.433 . S
C428 H424 0.929 . S
C428 C430 1.378 . S
C428 C432 1.350 . S
C429 C432 1.463 . S
C429 C434 1.350 . S
C429 N437 1.427 . S
C430 H421 0.930 . S
C430 C428 1.378 . S
C430 C431 1.367 . S
C431 C430 1.367 . S
C431 C433 1.433 . S
C432 C428 1.350 . S
C432 C429 1.463 . S
C432 N436 1.427 . S
C433 H423 0.929 . S
C433 C431 1.433 . S
C433 N436 1.384 . S
C434 H425 0.929 . S
C434 C426 1.378 . S
C434 C429 1.350 . S
C435 H422 0.929 . S
C435 C427 1.433 . S
C435 N437 1.384 . S
N436 C432 1.427 . S
N436 C433 1.384 . S
N437 C429 1.427 . S
N437 C435 1.384 . S
H438 C444 0.930 . S
H439 C448 0.930 . S
H440 C453 0.929 . S
H441 C451 0.929 . S
H442 C446 0.929 . S
H443 C452 0.929 . S
C444 H438 0.930 . S
C444 C445 1.367 . S
C444 C452 1.378 . S
C445 C444 1.367 . S
C445 C453 1.433 . S
C446 H442 0.929 . S
C446 C448 1.378 . S
C446 C450 1.350 . S
C447 C450 1.463 . S
C447 C452 1.350 . S
C447 N455 1.427 . S
C448 H439 0.930 . S
C448 C446 1.378 . S
C448 C449 1.367 . S
C449 C448 1.367 . S
C449 C451 1.433 . S
C450 C446 1.350 . S
C450 C447 1.463 . S
C450 N454 1.427 . S
C451 H441 0.929 . S
C451 C449 1.433 . S
C451 N454 1.384 . S
C452 H443 0.929 . S
C452 C444 1.378 . S
C452 C447 1.350 . S
C453 H440 0.929 . S
C453 C445 1.433 . S
C453 N455 1.384 . S
N454 C450 1.427 . S
N454 C451 1.384 . S
N455 C447 1.427 . S
N455 C453 1.384 . S
H456 C462 0.930 . S
H457 C466 0.930 . S
H458 C471 0.929 . S
H459 C469 0.929 1_554 S
H460 C464 0.929 . S
H461 C470 0.929 . S
C462 H456 0.930 . S
C462 C463 1.367 . S
C462 C470 1.378 . S
C463 C462 1.367 . S
C463 C471 1.433 . S
C464 H460 0.929 . S
C464 C466 1.378 . S
C464 C468 1.350 . S
C465 C468 1.463 . S
C465 C470 1.350 . S
C465 N473 1.427 . S
C466 H457 0.930 . S
C466 C464 1.378 . S
C466 C467 1.367 . S
C467 C466 1.367 . S
C467 C469 1.433 . S
C468 C464 1.350 . S
C468 C465 1.463 . S
C468 N472 1.427 . S
C469 H459 0.929 1_556 S
C469 C467 1.433 . S
C469 N472 1.384 . S
C470 H461 0.929 . S
C470 C462 1.378 . S
C470 C465 1.350 . S
C471 H458 0.929 . S
C471 C463 1.433 . S
C471 N473 1.384 . S
N472 C468 1.427 . S
N472 C469 1.384 . S
N473 C465 1.427 . S
N473 C471 1.384 . S
H474 C480 0.930 . S
H475 C484 0.930 . S
H476 C489 0.929 . S
H477 C487 0.929 . S
H478 C482 0.929 . S
H479 C488 0.929 . S
C480 H474 0.930 . S
C480 C481 1.367 . S
C480 C488 1.378 . S
C481 C480 1.367 . S
C481 C489 1.433 . S
C482 H478 0.929 . S
C482 C484 1.378 . S
C482 C486 1.350 . S
C483 C486 1.463 . S
C483 C488 1.350 . S
C483 N491 1.427 . S
C484 H475 0.930 . S
C484 C482 1.378 . S
C484 C485 1.367 . S
C485 C484 1.367 . S
C485 C487 1.433 . S
C486 C482 1.350 . S
C486 C483 1.463 . S
C486 N490 1.427 . S
C487 H477 0.929 . S
C487 C485 1.433 . S
C487 N490 1.384 . S
C488 H479 0.929 . S
C488 C480 1.378 . S
C488 C483 1.350 . S
C489 H476 0.929 . S
C489 C481 1.433 . S
C489 N491 1.384 . S
N490 C486 1.427 . S
N490 C487 1.384 . S
N491 C483 1.427 . S
N491 C489 1.384 . S
H492 C498 0.930 . S
H493 C502 0.930 . S
H494 C507 0.929 . S
H495 C505 0.929 . S
H496 C500 0.929 . S
H497 C506 0.929 . S
C498 H492 0.930 . S
C498 C499 1.367 . S
C498 C506 1.378 . S
C499 C498 1.367 . S
C499 C507 1.433 . S
C500 H496 0.929 . S
C500 C502 1.378 . S
C500 C504 1.350 . S
C501 C504 1.463 . S
C501 C506 1.350 . S
C501 N509 1.427 . S
C502 H493 0.930 . S
C502 C500 1.378 . S
C502 C503 1.367 . S
C503 C502 1.367 . S
C503 C505 1.433 . S
C504 C500 1.350 . S
C504 C501 1.463 . S
C504 N508 1.427 . S
C505 H495 0.929 . S
C505 C503 1.433 . S
C505 N508 1.384 . S
C506 H497 0.929 . S
C506 C498 1.378 . S
C506 C501 1.350 . S
C507 H494 0.929 . S
C507 C499 1.433 . S
C507 N509 1.384 . S
N508 C504 1.427 . S
N508 C505 1.384 . S
N509 C501 1.427 . S
N509 C507 1.384 . S
H510 C516 0.930 . S
H511 C520 0.930 . S
H512 C525 0.929 . S
H513 C523 0.929 . S
H514 C518 0.929 . S
H515 C524 0.929 . S
C516 H510 0.930 . S
C516 C517 1.367 . S
C516 C524 1.378 . S
C517 C516 1.367 . S
C517 C525 1.433 . S
C518 H514 0.929 . S
C518 C520 1.378 . S
C518 C522 1.350 . S
C519 C522 1.463 . S
C519 C524 1.350 . S
C519 N527 1.427 . S
C520 H511 0.930 . S
C520 C518 1.378 . S
C520 C521 1.367 . S
C521 C520 1.367 . S
C521 C523 1.433 . S
C522 C518 1.350 . S
C522 C519 1.463 . S
C522 N526 1.427 . S
C523 H513 0.929 . S
C523 C521 1.433 . S
C523 N526 1.384 . S
C524 H515 0.929 . S
C524 C516 1.378 . S
C524 C519 1.350 . S
C525 H512 0.929 . S
C525 C517 1.433 . S
C525 N527 1.384 . S
N526 C522 1.427 . S
N526 C523 1.384 . S
N527 C519 1.427 . S
N527 C525 1.384 . S
H528 C534 0.930 . S
H529 C538 0.930 . S
H530 C543 0.929 . S
H531 C541 0.929 . S
H532 C536 0.929 . S
H533 C542 0.929 . S
C534 H528 0.930 . S
C534 C535 1.367 . S
C534 C542 1.378 . S
C535 C534 1.367 . S
C535 C543 1.433 . S
C536 H532 0.929 . S
C536 C538 1.378 . S
C536 C540 1.350 . S
C537 C540 1.463 . S
C537 C542 1.350 . S
C537 N545 1.427 . S
C538 H529 0.930 . S
C538 C536 1.378 . S
C538 C539 1.367 . S
C539 C538 1.367 . S
C539 C541 1.433 . S
C540 C536 1.350 . S
C540 C537 1.463 . S
C540 N544 1.427 . S
C541 H531 0.929 . S
C541 C539 1.433 . S
C541 N544 1.384 . S
C542 H533 0.929 . S
C542 C534 1.378 . S
C542 C537 1.350 . S
C543 H530 0.929 . S
C543 C535 1.433 . S
C543 N545 1.384 . S
N544 C540 1.427 . S
N544 C541 1.384 . S
N545 C537 1.427 . S
N545 C543 1.384 . S
H546 C552 0.930 . S
H547 C556 0.930 . S
H548 C561 0.929 . S
H549 C559 0.929 . S
H550 C554 0.929 . S
H551 C560 0.929 . S
C552 H546 0.930 . S
C552 C553 1.367 . S
C552 C560 1.378 . S
C553 C552 1.367 . S
C553 C561 1.433 . S
C554 H550 0.929 . S
C554 C556 1.378 . S
C554 C558 1.350 . S
C555 C558 1.463 . S
C555 C560 1.350 . S
C555 N563 1.427 . S
C556 H547 0.930 . S
C556 C554 1.378 . S
C556 C557 1.367 . S
C557 C556 1.367 . S
C557 C559 1.433 . S
C558 C554 1.350 . S
C558 C555 1.463 . S
C558 N562 1.427 . S
C559 H549 0.929 . S
C559 C557 1.433 . S
C559 N562 1.384 . S
C560 H551 0.929 . S
C560 C552 1.378 . S
C560 C555 1.350 . S
C561 H548 0.929 . S
C561 C553 1.433 . S
C561 N563 1.384 . S
N562 C558 1.427 . S
N562 C559 1.384 . S
N563 C555 1.427 . S
N563 C561 1.384 . S
H564 C570 0.930 . S
H565 C574 0.930 . S
H566 C579 0.929 . S
H567 C577 0.929 . S
H568 C572 0.929 . S
H569 C578 0.929 . S
C570 H564 0.930 . S
C570 C571 1.367 . S
C570 C578 1.378 . S
C571 C570 1.367 . S
C571 C579 1.433 . S
C572 H568 0.929 . S
C572 C574 1.378 . S
C572 C576 1.350 . S
C573 C576 1.463 . S
C573 C578 1.350 . S
C573 N581 1.427 . S
C574 H565 0.930 . S
C574 C572 1.378 . S
C574 C575 1.367 . S
C575 C574 1.367 . S
C575 C577 1.433 . S
C576 C572 1.350 . S
C576 C573 1.463 . S
C576 N580 1.427 . S
C577 H567 0.929 . S
C577 C575 1.433 . S
C577 N580 1.384 . S
C578 H569 0.929 . S
C578 C570 1.378 . S
C578 C573 1.350 . S
C579 H566 0.929 . S
C579 C571 1.433 . S
C579 N581 1.384 . S
N580 C576 1.427 . S
N580 C577 1.384 . S
N581 C573 1.427 . S
N581 C579 1.384 . S
H582 C588 0.930 . S
H583 C592 0.930 . S
H584 C597 0.929 . S
H585 C595 0.929 . S
H586 C590 0.929 . S
H587 C596 0.929 . S
C588 H582 0.930 . S
C588 C589 1.367 . S
C588 C596 1.378 . S
C589 C588 1.367 . S
C589 C597 1.433 . S
C590 H586 0.929 . S
C590 C592 1.378 . S
C590 C594 1.350 . S
C591 C594 1.463 . S
C591 C596 1.350 . S
C591 N599 1.427 . S
C592 H583 0.930 . S
C592 C590 1.378 . S
C592 C593 1.367 . S
C593 C592 1.367 . S
C593 C595 1.433 . S
C594 C590 1.350 . S
C594 C591 1.463 . S
C594 N598 1.427 . S
C595 H585 0.929 . S
C595 C593 1.433 . S
C595 N598 1.384 . S
C596 H587 0.929 . S
C596 C588 1.378 . S
C596 C591 1.350 . S
C597 H584 0.929 . S
C597 C589 1.433 . S
C597 N599 1.384 . S
N598 C594 1.427 . S
N598 C595 1.384 . S
N599 C591 1.427 . S
N599 C597 1.384 . S
C175 C5 1.511 . S
C179 C107 1.776 . S
C193 C18 1.337 . S
C197 C110 1.370 . S
C215 C146 1.561 . S
C211 C30 1.588 . S
C229 C41 1.371 . S
C233 C166 1.363 1_655 S
C251 C120 1.947 . S
C247 C7 1.874 . S
C269 C97 1.754 . S
C265 C16 1.604 . S
C287 C150 1.558 . S
C283 C29 1.635 . S
C305 C130 1.021 . S
C301 C38 0.885 . S
C319 C8 1.463 . S
C323 C160 1.436 . S
C341 C126 1.801 . S
C337 C27 1.655 . S
C355 C40 1.694 . S
C359 C92 1.686 . S
C373 C19 1.073 . S
C377 C140 1.023 . S
C395 C106 1.558 . S
C391 C51 1.464 . S
C409 C62 1.467 . S
C413 C112 1.460 . S
C427 C74 1.692 . S
C431 C147 1.671 . S
C445 C84 1.442 . S
C449 C167 1.457 . S
C463 C49 1.759 . S
C467 C117 2.015 . S
C485 C100 1.502 . S
C481 C63 1.527 . S
C503 C152 1.472 . S
C499 C71 1.418 . S
C521 C132 1.148 . S
C517 C85 1.231 . S
C535 C52 1.389 . S
C539 C157 1.334 . S
C557 C127 1.866 . S
C553 C73 1.851 . S
C575 C90 1.422 . S
C571 C82 1.335 . S
C589 C60 1.280 . S
C593 C137 1.430 . S
