# Generated by pormake.
# Topology rtl, (3,6)-cn, num edge types: 1
# Building blocks:
#     Node 0, Type 0, BuildingBlock: OLANEW_clean_sbu_2, # of connection points: 3
#     Node 1, Type 0, BuildingBlock: OLANEW_clean_sbu_2, # of connection points: 3
#     Node 2, Type 0, BuildingBlock: OLANEW_clean_sbu_2, # of connection points: 3
#     Node 3, Type 0, BuildingBlock: OLANEW_clean_sbu_2, # of connection points: 3
#     Node 4, Type 1, BuildingBlock: VOLQOD_clean_sbu_1, # of connection points: 6
#     Node 5, Type 1, BuildingBlock: VOLQOD_clean_sbu_1, # of connection points: 6
#     Edge 6, Type (0, 1), BuildingBlock: KIFKEQ_clean_linker_1, # of connection points: 2
#     Edge 7, Type (0, 1), BuildingBlock: KIFKEQ_clean_linker_1, # of connection points: 2
#     Edge 8, Type (0, 1), BuildingBlock: KIFKEQ_clean_linker_1, # of connection points: 2
#     Edge 9, Type (0, 1), BuildingBlock: KIFKEQ_clean_linker_1, # of connection points: 2
#     Edge 10, Type (0, 1), BuildingBlock: KIFKEQ_clean_linker_1, # of connection points: 2
#     Edge 11, Type (0, 1), BuildingBlock: KIFKEQ_clean_linker_1, # of connection points: 2
#     Edge 12, Type (0, 1), BuildingBlock: KIFKEQ_clean_linker_1, # of connection points: 2
#     Edge 13, Type (0, 1), BuildingBlock: KIFKEQ_clean_linker_1, # of connection points: 2
#     Edge 14, Type (0, 1), BuildingBlock: KIFKEQ_clean_linker_1, # of connection points: 2
#     Edge 15, Type (0, 1), BuildingBlock: KIFKEQ_clean_linker_1, # of connection points: 2
#     Edge 16, Type (0, 1), BuildingBlock: KIFKEQ_clean_linker_1, # of connection points: 2
#     Edge 17, Type (0, 1), BuildingBlock: KIFKEQ_clean_linker_1, # of connection points: 2
# Relax obj value: 0.054
# Max RMSD: 0.146
# Mean RMSD: 0.100
data_MOF--net-rtl--node1-OLANEW_clean_sbu_2--node2-VOLQOD_clean_sbu_1--edge1-KIFKEQ_clean_linker_1
_symmetry_space_group_name_H-M    P1
_symmetry_Int_Tables_number       1
_symmetry_cell_setting            triclinic
loop_
_symmetry_equiv_pos_as_xyz
'x, y, z'
_cell_length_a     41.605074
_cell_length_b     39.598609
_cell_length_c     24.83661
_cell_angle_alpha  87.672946
_cell_angle_beta   93.059705
_cell_angle_gamma 90.075879
loop_
_atom_site_label
_atom_site_type_symbol
_atom_site_fract_x
_atom_site_fract_y
_atom_site_fract_z
_atom_type_partial_charge
O0 O 0.15343 0.76359 0.92945 0.0
Cd1 Cd 0.174 0.73084 0.00937 0.0
O2 O 0.17122 0.81173 0.96092 0.0
Cd3 Cd 0.17865 0.79409 0.04505 0.0
O4 O 0.1611 0.81222 0.12028 0.0
C5 C 0.14365 0.83855 0.11302 0.0
O6 O 0.13846 0.85122 0.06359 0.0
C7 C 0.15832 0.79513 0.92269 0.0
C8 C 0.23209 0.69878 -0.00883 0.0
O9 O 0.20501 0.68444 -0.01974 0.0
O10 O 0.23167 0.72827 0.0106 0.0
O11 O 0.66279 0.72176 0.59289 0.0
Cd12 Cd 0.67996 0.75509 0.51404 0.0
O13 O 0.67298 0.67396 0.55499 0.0
Cd14 Cd 0.69107 0.69647 0.48117 0.0
O15 O 0.6841 0.69042 0.39481 0.0
C16 C 0.65896 0.70317 0.37089 0.0
O17 O 0.64059 0.72272 0.39777 0.0
C18 C 0.66245 0.68962 0.59408 0.0
C19 C 0.73749 0.79103 0.52636 0.0
O20 O 0.71075 0.80362 0.5394 0.0
O21 O 0.73719 0.76099 0.50895 0.0
O22 O 0.82974 0.20633 0.12219 0.0
Cd23 Cd 0.80009 0.22199 0.03685 0.0
O24 O 0.8763 0.21154 0.08469 0.0
Cd25 Cd 0.85655 0.22255 0.0029 0.0
O26 O 0.86168 0.19907 0.92603 0.0
C27 C 0.86945 0.16806 0.93199 0.0
O28 O 0.87155 0.1542 -0.01895 0.0
C29 C 0.86032 0.20457 0.12592 0.0
C30 C 0.75424 0.27315 0.04071 0.0
O31 O 0.74735 0.24229 0.05274 0.0
O32 O 0.78309 0.27998 0.02813 0.0
O33 O 0.36083 0.24875 0.67023 0.0
Cd34 Cd 0.34853 0.20496 0.60529 0.0
O35 O 0.36237 0.28381 0.60026 0.0
Cd36 Cd 0.37428 0.32963 0.55366 0.0
O37 O 0.38813 0.36108 0.48461 0.0
C38 C 0.40966 0.34923 0.45621 0.0
O39 O 0.42271 0.31986 0.47097 0.0
C40 C 0.36608 0.27836 0.65101 0.0
C41 C 0.28599 0.17931 0.60043 0.0
O42 O 0.30773 0.1665 0.63365 0.0
O43 O 0.29358 0.20497 0.57059 0.0
O44 O 0.93011 0.9722 0.51821 0.0
Zn45 Zn 0.95957 0.01246 0.52303 0.0
O46 O 0.00477 -0.00153 0.52693 0.0
Zn47 Zn 0.02483 0.01096 0.59604 0.0
Zn48 Zn 0.00736 0.9492 0.52127 0.0
Zn49 Zn 0.0272 0.02148 0.46841 0.0
O50 O 0.06208 0.04243 0.58592 0.0
O51 O 0.0653 0.04858 0.49722 0.0
O52 O 0.94849 0.03693 0.58931 0.0
O53 O 0.99354 0.03395 0.64125 0.0
O54 O 0.04271 0.97034 0.6381 0.0
O55 O 0.03336 0.92749 0.58462 0.0
O56 O 0.02916 0.93752 0.45379 0.0
O57 O 0.94961 0.04429 0.45915 0.0
O58 O 0.04374 0.98725 0.41818 0.0
O59 O -0.00279 0.05372 0.42486 0.0
C60 C 0.93465 0.94039 0.51823 0.0
C61 C 0.07575 0.05481 0.54496 0.0
C62 C 0.04519 0.93917 0.62842 0.0
C63 C 0.96429 0.04305 0.63315 0.0
C64 C 0.0427 0.95508 0.41728 0.0
C65 C 0.96704 0.05935 0.42507 0.0
O66 O 0.96297 0.92798 0.51975 0.0
O67 O 0.58282 0.4792 -0.00069 0.0
Zn68 Zn 0.5545 0.52071 -0.00975 0.0
O69 O 0.50873 0.50932 -0.00977 0.0
Zn70 Zn 0.48644 0.52367 0.92094 0.0
Zn71 Zn 0.50426 0.46056 0.00224 0.0
Zn72 Zn 0.49008 0.53214 0.04935 0.0
O73 O 0.44849 0.55456 0.93355 0.0
O74 O 0.45188 0.55967 0.02242 0.0
O75 O 0.56388 0.54566 0.92135 0.0
O76 O 0.5174 0.54905 0.87284 0.0
O77 O 0.46835 0.48301 0.88178 0.0
O78 O 0.47691 0.44071 0.94245 0.0
O79 O 0.48447 0.44895 0.07296 0.0
O80 O 0.56761 0.55247 0.04863 0.0
O81 O 0.47575 0.49894 0.10664 0.0
O82 O 0.52166 0.56338 0.08568 0.0
C83 C 0.57641 0.44778 0.00414 0.0
C84 C 0.43805 0.56648 -0.02368 0.0
C85 C 0.46532 0.452 0.89673 0.0
C86 C 0.5474 0.55561 0.87906 0.0
C87 C 0.47477 0.46681 0.1104 0.0
C88 C 0.55174 0.56818 0.08216 0.0
O89 O 0.54746 0.43736 0.0049 0.0
H90 H 0.26278 0.12546 0.6586 0.0
H91 H 0.23602 0.19793 0.52924 0.0
H92 H 0.21098 0.09747 0.64538 0.0
H93 H 0.18388 0.17015 0.51659 0.0
H94 H 0.11315 0.08442 0.46843 0.0
H95 H 0.16272 0.11653 0.48328 0.0
H96 H 0.15368 0.10561 0.65555 0.0
H97 H 0.10456 0.07312 0.64095 0.0
C98 C 0.24571 0.13566 0.62771 0.0
C99 C 0.25358 0.1639 0.59492 0.0
C100 C 0.21593 0.11969 0.62029 0.0
C101 C 0.1933 0.13154 0.57985 0.0
C102 C 0.20094 0.16015 0.54764 0.0
C103 C 0.23073 0.1762 0.55517 0.0
C104 C 0.12163 0.08901 0.50947 0.0
C105 C 0.10491 0.07597 0.55346 0.0
C106 C 0.14996 0.10759 0.51797 0.0
C107 C 0.16223 0.11351 0.57062 0.0
C108 C 0.14515 0.10107 0.61451 0.0
C109 C 0.11686 0.08256 0.60606 0.0
H110 H 0.24097 0.63801 0.9452 0.0
H111 H 0.29299 0.72042 0.01832 0.0
H112 H 0.29165 0.60809 0.93663 0.0
H113 H 0.34355 0.6906 0.00936 0.0
H114 H 0.4169 0.60558 0.05493 0.0
H115 H 0.36796 0.63903 0.05347 0.0
H116 H 0.34392 0.61055 0.89023 0.0
H117 H 0.39321 0.57662 0.89163 0.0
C118 C 0.26321 0.64987 0.95904 0.0
C119 C 0.26291 0.68149 -0.01713 0.0
C120 C 0.29226 0.63282 0.95376 0.0
C121 C 0.32157 0.64691 0.97254 0.0
C122 C 0.32131 0.6789 -0.0049 0.0
C123 C 0.29233 0.69603 7e-05 0.0
C124 C 0.40134 0.60649 0.01851 0.0
C125 C 0.40898 0.58828 0.97342 0.0
C126 C 0.37336 0.62591 0.01759 0.0
C127 C 0.35209 0.6275 0.97172 0.0
C128 C 0.35978 0.60962 0.92629 0.0
C129 C 0.38807 0.59036 0.927 0.0
H130 H 0.74687 0.85273 0.56996 0.0
H131 H 0.79584 0.77532 0.48794 0.0
H132 H 0.79505 0.88767 0.56919 0.0
H133 H 0.84378 0.81073 0.4856 0.0
H134 H 0.934 0.87141 0.53421 0.0
H135 H 0.8872 0.83448 0.53909 0.0
H136 H 0.82453 0.92065 0.50633 0.0
H137 H 0.87112 0.95759 0.50307 0.0
C138 C 0.76794 0.84315 0.55178 0.0
C139 C 0.76747 0.81128 0.52888 0.0
C140 C 0.79552 0.86331 0.55094 0.0
C141 C 0.82326 0.85222 0.52681 0.0
C142 C 0.823 0.81998 0.50497 0.0
C143 C 0.79544 0.79971 0.50612 0.0
C144 C 0.91023 0.88245 0.52788 0.0
C145 C 0.90637 0.91751 0.51843 0.0
C146 C 0.88336 0.86124 0.53051 0.0
C147 C 0.85201 0.87456 0.52348 0.0
C148 C 0.84825 0.90956 0.51311 0.0
C149 C 0.87504 0.93075 0.5108 0.0
H150 H 0.69394 0.26863 0.07881 0.0
H151 H 0.75788 0.33786 -0.0013 0.0
H152 H 0.6518 0.31141 0.07217 0.0
H153 H 0.71536 0.38028 -0.00992 0.0
H154 H 0.64073 0.45973 0.02469 0.0
H155 H 0.68409 0.41835 0.03693 0.0
H156 H 0.61577 0.33804 0.00703 0.0
H157 H 0.57239 0.37922 -0.00316 0.0
C158 C 0.69898 0.293 0.05969 0.0
C159 C 0.72924 0.29981 0.03919 0.0
C160 C 0.67472 0.31749 0.05548 0.0
C161 C 0.67997 0.3493 0.03011 0.0
C162 C 0.71049 0.35627 0.01045 0.0
C163 C 0.73487 0.33187 0.01516 0.0
C164 C 0.63498 0.43323 0.02069 0.0
C165 C 0.60304 0.42281 0.00991 0.0
C166 C 0.65989 0.40947 0.02749 0.0
C167 C 0.65352 0.37474 0.02319 0.0
C168 C 0.62158 0.36445 0.01179 0.0
C169 C 0.59666 0.38814 0.00552 0.0
H170 H 0.10652 0.89528 0.10845 0.0
H171 H 0.1482 0.81918 0.22072 0.0
H172 H 0.08255 0.92276 0.18228 0.0
H173 H 0.12447 0.84721 0.29514 0.0
H174 H 0.04678 0.88692 0.4031 0.0
H175 H 0.07164 0.85847 0.33064 0.0
H176 H 0.09866 0.95521 0.26016 0.0
H177 H 0.07338 0.98373 0.33193 0.0
C178 C 0.1107 0.88444 0.14897 0.0
C179 C 0.12934 0.85501 0.15865 0.0
C180 C 0.09708 0.90037 0.19139 0.0
C181 C 0.1017 0.8873 0.24467 0.0
C182 C 0.12022 0.85775 0.25447 0.0
C183 C 0.13395 0.84179 0.21189 0.0
C184 C 0.05798 0.90217 0.37214 0.0
C185 C 0.05792 0.93768 0.3733 0.0
C186 C 0.07245 0.8858 0.3308 0.0
C187 C 0.0871 0.90455 0.28956 0.0
C188 C 0.08719 0.94002 0.2909 0.0
C189 C 0.0728 0.95638 0.33224 0.0
H190 H 0.64232 0.62418 0.59367 0.0
H191 H 0.64715 0.71129 0.69322 0.0
H192 H 0.61344 0.59298 0.66251 0.0
H193 H 0.61853 0.67954 0.76269 0.0
H194 H 0.60265 0.5919 0.89248 0.0
H195 H 0.63038 0.62529 0.82455 0.0
H196 H 0.55718 0.59919 0.70367 0.0
H197 H 0.52894 0.56598 0.77194 0.0
C198 C 0.63752 0.63659 0.63048 0.0
C199 C 0.64713 0.67024 0.63805 0.0
C200 C 0.62071 0.61877 0.66962 0.0
C201 C 0.61359 0.63396 0.7176 0.0
C202 C 0.62378 0.66729 0.72594 0.0
C203 C 0.64014 0.68541 0.68627 0.0
C204 C 0.59238 0.59327 0.85144 0.0
C205 C 0.56366 0.57615 0.83747 0.0
C206 C 0.60818 0.61259 0.81272 0.0
C207 C 0.59592 0.61475 0.75901 0.0
C208 C 0.56719 0.59774 0.74487 0.0
C209 C 0.55101 0.57887 0.78389 0.0
H210 H 0.83588 0.19063 0.22502 0.0
H211 H 0.92314 0.18516 0.1389 0.0
H212 H 0.86236 0.15973 0.30201 0.0
H213 H 0.94894 0.15304 0.21405 0.0
H214 H -0.00374 0.10991 0.3675 0.0
H215 H 0.97122 0.15046 0.30189 0.0
H216 H 0.87853 0.10417 0.32551 0.0
H217 H 0.90341 0.0649 0.39301 0.0
C218 C 0.86077 0.18311 0.22268 0.0
C219 C 0.8773 0.19025 0.17567 0.0
C220 C 0.8759 0.16507 0.26661 0.0
C221 C 0.90775 0.15337 0.26424 0.0
C222 C 0.9246 0.16188 0.21799 0.0
C223 C 0.90966 0.18026 0.17452 0.0
C224 C 0.97051 0.10852 0.35875 0.0
C225 C 0.95186 0.08407 0.38521 0.0
C226 C 0.95611 0.13172 0.32096 0.0
C227 C 0.92276 0.13066 0.30796 0.0
C228 C 0.90413 0.10633 0.33501 0.0
C229 C 0.91846 0.08351 0.37344 0.0
H230 H 0.40381 0.26921 0.7428 0.0
H231 H 0.35665 0.347 0.6407 0.0
H232 H 0.42671 0.31194 0.80093 0.0
H233 H 0.37884 0.39007 0.69978 0.0
H234 H 0.45211 0.4594 0.78735 0.0
H235 H 0.4271 0.41819 0.72773 0.0
H236 H 0.41378 0.3503 0.8655 0.0
H237 H 0.43992 0.39069 0.92428 0.0
C238 C 0.39811 0.29552 0.73308 0.0
C239 C 0.37877 0.30478 0.68683 0.0
C240 C 0.41111 0.3201 0.7666 0.0
C241 C 0.40463 0.35462 0.75533 0.0
C242 C 0.38488 0.36384 0.70927 0.0
C243 C 0.37216 0.33917 0.67531 0.0
C244 C 0.44372 0.43569 0.80479 0.0
C245 C 0.44832 0.4282 0.86047 0.0
C246 C 0.42921 0.41209 0.77066 0.0
C247 C 0.41863 0.38064 0.79157 0.0
C248 C 0.42234 0.37378 0.84758 0.0
C249 C 0.43719 0.3971 0.88146 0.0
H250 H 0.60486 0.72274 0.31044 0.0
H251 H 0.68589 0.65441 0.31276 0.0
H252 H 0.58021 0.69455 0.23318 0.0
H253 H 0.66087 0.6257 0.23669 0.0
H254 H 0.61471 0.58855 0.08187 0.0
H255 H 0.64255 0.62696 0.1429 0.0
H256 H 0.5547 0.64017 0.225 0.0
H257 H 0.52673 0.6026 0.16341 0.0
C258 C 0.61765 0.70205 0.294 0.0
C259 C 0.64711 0.69051 0.31825 0.0
C260 C 0.60341 0.68573 0.24997 0.0
C261 C 0.61828 0.65748 0.2294 0.0
C262 C 0.6488 0.64746 0.25132 0.0
C263 C 0.66311 0.66387 0.29517 0.0
C264 C 0.60129 0.59983 0.11274 0.0
C265 C 0.56852 0.59231 0.11796 0.0
C266 C 0.61728 0.6218 0.14776 0.0
C267 C 0.60088 0.63667 0.18882 0.0
C268 C 0.56796 0.62965 0.19326 0.0
C269 C 0.55197 0.60781 0.1582 0.0
H270 H 0.89194 0.10347 0.93487 0.0
H271 H 0.86926 0.18864 0.82503 0.0
H272 H 0.91276 0.07283 0.86128 0.0
H273 H 0.89033 0.15771 0.75114 0.0
H274 H 0.90594 0.07558 0.62576 0.0
H275 H 0.88029 0.10525 0.69659 0.0
H276 H 0.96137 0.08097 0.80709 0.0
H277 H 0.98697 0.05136 0.73687 0.0
C278 C 0.89114 0.11559 0.89494 0.0
C279 C 0.87917 0.14863 0.8859 0.0
C280 C 0.90323 0.09805 0.85285 0.0
C281 C 0.90347 0.11303 0.80067 0.0
C282 C 0.89033 0.14553 0.79098 0.0
C283 C 0.87839 0.16325 0.8333 0.0
C284 C 0.91825 0.07652 0.66521 0.0
C285 C 0.94849 0.06103 0.67568 0.0
C286 C 0.90362 0.09365 0.7056 0.0
C287 C 0.91877 0.09524 0.75734 0.0
C288 C 0.94894 0.07976 0.76776 0.0
C289 C 0.96368 0.06296 0.72738 0.0
H290 H 0.4564 0.33162 0.38965 0.0
H291 H 0.38393 0.4076 0.40923 0.0
H292 H 0.47109 0.36036 0.30608 0.0
H293 H 0.39814 0.43595 0.32475 0.0
H294 H 0.45708 0.49627 0.20218 0.0
H295 H 0.44116 0.46831 0.28572 0.0
H296 H 0.44994 0.37118 0.21461 0.0
H297 H 0.46662 0.39903 0.13148 0.0
C298 C 0.44353 0.35442 0.37606 0.0
C299 C 0.41898 0.36731 0.40612 0.0
C300 C 0.4518 0.37077 0.32789 0.0
C301 C 0.43566 0.40035 0.3085 0.0
C302 C 0.41127 0.41341 0.33881 0.0
C303 C 0.40304 0.39708 0.38713 0.0
C304 C 0.45549 0.46895 0.20422 0.0
C305 C 0.46328 0.4499 0.16013 0.0
C306 C 0.4462 0.45292 0.25209 0.0
C307 C 0.44442 0.41749 0.25698 0.0
C308 C 0.45162 0.39849 0.21253 0.0
C309 C 0.46098 0.41449 0.16471 0.0
H310 H 0.11511 0.77315 0.84464 0.0
H311 H 0.17387 0.85894 0.88797 0.0
H312 H 0.08903 0.80689 0.77035 0.0
H313 H 0.14864 0.89224 0.8129 0.0
H314 H 0.06318 0.8731 0.61798 0.0
H315 H 0.0938 0.83678 0.68404 0.0
H316 H 0.09679 0.91752 0.79617 0.0
H317 H 0.06718 0.95387 0.73014 0.0
C318 C 0.12296 0.79897 0.83758 0.0
C319 C 0.14625 0.81351 0.87261 0.0
C320 C 0.10806 0.8183 0.7949 0.0
C321 C 0.11634 0.85247 0.78623 0.0
C322 C 0.14106 0.86628 0.81932 0.0
C323 C 0.15571 0.8471 0.86215 0.0
C324 C 0.0704 0.88305 0.65676 0.0
C325 C 0.06281 0.91645 0.66866 0.0
C326 C 0.08788 0.86221 0.69465 0.0
C327 C 0.09805 0.87432 0.74523 0.0
C328 C 0.09006 0.90758 0.75718 0.0
C329 C 0.07279 0.92839 0.71938 0.0
loop_
_geom_bond_atom_site_label_1
_geom_bond_atom_site_label_2
_geom_bond_distance
_geom_bond_site_symmetry_2
_ccdc_geom_bond_type
O0 Cd1 2.300 1_556 S
O0 C7 1.275 . S
Cd1 O0 2.300 1_554 S
Cd1 O9 2.381 . S
Cd1 O10 2.378 . S
O2 Cd3 2.385 . S
O2 C7 1.255 1_554 S
Cd3 O2 2.385 . S
Cd3 O4 2.317 . S
O4 Cd3 2.317 . S
O4 C5 1.232 . S
C5 O4 1.232 . S
C5 O6 1.218 . S
O6 C5 1.218 . S
C7 O0 1.275 . S
C7 O2 1.255 1_556 S
C8 O9 1.258 . S
C8 O10 1.256 . S
O9 Cd1 2.381 . S
O9 C8 1.258 . S
O10 Cd1 2.378 . S
O10 C8 1.256 . S
O11 Cd12 2.300 . S
O11 C18 1.275 . S
Cd12 O11 2.300 . S
Cd12 O20 2.381 . S
Cd12 O21 2.378 . S
O13 Cd14 2.385 . S
O13 C18 1.255 . S
Cd14 O13 2.385 . S
Cd14 O15 2.317 . S
O15 Cd14 2.317 . S
O15 C16 1.232 . S
C16 O15 1.232 . S
C16 O17 1.218 . S
O17 C16 1.218 . S
C18 O11 1.275 . S
C18 O13 1.255 . S
C19 O20 1.258 . S
C19 O21 1.256 . S
O20 Cd12 2.381 . S
O20 C19 1.258 . S
O21 Cd12 2.378 . S
O21 C19 1.256 . S
O22 Cd23 2.300 . S
O22 C29 1.275 . S
Cd23 O22 2.300 . S
Cd23 O31 2.381 . S
Cd23 O32 2.378 . S
O24 Cd25 2.385 . S
O24 C29 1.255 . S
Cd25 O24 2.385 . S
Cd25 O26 2.317 1_554 S
O26 Cd25 2.317 1_556 S
O26 C27 1.232 . S
C27 O26 1.232 . S
C27 O28 1.218 . S
O28 C27 1.218 . S
C29 O22 1.275 . S
C29 O24 1.255 . S
C30 O31 1.258 . S
C30 O32 1.256 . S
O31 Cd23 2.381 . S
O31 C30 1.258 . S
O32 Cd23 2.378 . S
O32 C30 1.256 . S
O33 Cd34 2.300 . S
O33 C40 1.275 . S
Cd34 O33 2.300 . S
Cd34 O42 2.381 . S
Cd34 O43 2.378 . S
O35 Cd36 2.385 . S
O35 C40 1.255 . S
Cd36 O35 2.385 . S
Cd36 O37 2.317 . S
O37 Cd36 2.317 . S
O37 C38 1.232 . S
C38 O37 1.232 . S
C38 O39 1.218 . S
O39 C38 1.218 . S
C40 O33 1.275 . S
C40 O35 1.255 . S
C41 O42 1.258 . S
C41 O43 1.256 . S
O42 Cd34 2.381 . S
O42 C41 1.258 . S
O43 Cd34 2.378 . S
O43 C41 1.256 . S
O44 Zn45 1.953 1_565 S
O44 C60 1.225 . S
Zn45 O44 1.953 1_545 S
Zn45 O46 1.949 1_655 S
Zn45 O52 1.919 . S
Zn45 O57 1.924 . S
O46 Zn45 1.949 1_455 S
O46 Zn47 1.923 . S
O46 Zn48 1.950 1_545 S
O46 Zn49 1.945 . S
Zn47 O46 1.923 . S
Zn47 O50 1.933 . S
Zn47 O53 1.941 . S
Zn47 O54 1.965 1_545 S
Zn48 O46 1.950 1_565 S
Zn48 O55 1.938 . S
Zn48 O56 1.906 . S
Zn48 O66 1.953 1_455 S
Zn49 O46 1.945 . S
Zn49 O51 1.932 . S
Zn49 O58 1.977 1_545 S
Zn49 O59 1.910 1_455 S
O50 Zn47 1.933 . S
O50 C61 1.226 . S
O51 Zn49 1.932 . S
O51 C61 1.307 . S
O52 Zn45 1.919 . S
O52 C63 1.253 . S
O53 Zn47 1.941 . S
O53 C63 1.283 1_455 S
O54 Zn47 1.965 1_565 S
O54 C62 1.303 . S
O55 Zn48 1.938 . S
O55 C62 1.247 . S
O56 Zn48 1.906 . S
O56 C64 1.304 . S
O57 Zn45 1.924 . S
O57 C65 1.311 . S
O58 Zn49 1.977 1_565 S
O58 C64 1.272 . S
O59 Zn49 1.910 1_655 S
O59 C65 1.231 . S
C60 O44 1.225 . S
C60 O66 1.298 . S
C61 O50 1.226 . S
C61 O51 1.307 . S
C62 O54 1.303 . S
C62 O55 1.247 . S
C63 O52 1.253 . S
C63 O53 1.283 1_655 S
C64 O56 1.304 . S
C64 O58 1.272 . S
C65 O57 1.311 . S
C65 O59 1.231 . S
O66 Zn48 1.953 1_655 S
O66 C60 1.298 . S
O67 Zn68 1.953 . S
O67 C83 1.225 . S
Zn68 O67 1.953 . S
Zn68 O69 1.949 . S
Zn68 O75 1.919 1_554 S
Zn68 O80 1.924 . S
O69 Zn68 1.949 . S
O69 Zn70 1.923 1_554 S
O69 Zn71 1.950 . S
O69 Zn72 1.945 . S
Zn70 O69 1.923 1_556 S
Zn70 O73 1.933 . S
Zn70 O76 1.941 . S
Zn70 O77 1.965 . S
Zn71 O69 1.950 . S
Zn71 O78 1.938 1_554 S
Zn71 O79 1.906 . S
Zn71 O89 1.953 . S
Zn72 O69 1.945 . S
Zn72 O74 1.932 . S
Zn72 O81 1.977 . S
Zn72 O82 1.910 . S
O73 Zn70 1.933 . S
O73 C84 1.226 1_556 S
O74 Zn72 1.932 . S
O74 C84 1.307 . S
O75 Zn68 1.919 1_556 S
O75 C86 1.253 . S
O76 Zn70 1.941 . S
O76 C86 1.283 . S
O77 Zn70 1.965 . S
O77 C85 1.303 . S
O78 Zn71 1.938 1_556 S
O78 C85 1.247 . S
O79 Zn71 1.906 . S
O79 C87 1.304 . S
O80 Zn68 1.924 . S
O80 C88 1.311 . S
O81 Zn72 1.977 . S
O81 C87 1.272 . S
O82 Zn72 1.910 . S
O82 C88 1.231 . S
C83 O67 1.225 . S
C83 O89 1.298 . S
C84 O73 1.226 1_554 S
C84 O74 1.307 . S
C85 O77 1.303 . S
C85 O78 1.247 . S
C86 O75 1.253 . S
C86 O76 1.283 . S
C87 O79 1.304 . S
C87 O81 1.272 . S
C88 O80 1.311 . S
C88 O82 1.231 . S
O89 Zn71 1.953 . S
O89 C83 1.298 . S
H90 C98 0.950 . S
H91 C103 0.950 . S
H92 C100 0.950 . S
H93 C102 0.950 . S
H94 C104 0.950 . S
H95 C106 0.950 . S
H96 C108 0.950 . S
H97 C109 0.950 . S
C98 H90 0.950 . S
C98 C99 1.386 . S
C98 C100 1.391 . S
C99 C98 1.386 . S
C99 C103 1.393 . S
C100 H92 0.950 . S
C100 C98 1.391 . S
C100 C101 1.400 . S
C101 C100 1.400 . S
C101 C102 1.398 . S
C101 C107 1.491 . S
C102 H93 0.950 . S
C102 C101 1.398 . S
C102 C103 1.391 . S
C103 H91 0.950 . S
C103 C99 1.393 . S
C103 C102 1.391 . S
C104 H94 0.950 . S
C104 C105 1.386 . S
C104 C106 1.391 . S
C105 C104 1.386 . S
C105 C109 1.393 . S
C106 H95 0.950 . S
C106 C104 1.391 . S
C106 C107 1.400 . S
C107 C101 1.491 . S
C107 C106 1.400 . S
C107 C108 1.398 . S
C108 H96 0.950 . S
C108 C107 1.398 . S
C108 C109 1.391 . S
C109 H97 0.950 . S
C109 C105 1.393 . S
C109 C108 1.391 . S
H110 C118 0.950 . S
H111 C123 0.950 . S
H112 C120 0.950 . S
H113 C122 0.950 . S
H114 C124 0.950 . S
H115 C126 0.950 . S
H116 C128 0.950 . S
H117 C129 0.950 . S
C118 H110 0.950 . S
C118 C119 1.386 1_556 S
C118 C120 1.391 . S
C119 C118 1.386 1_554 S
C119 C123 1.393 . S
C120 H112 0.950 . S
C120 C118 1.391 . S
C120 C121 1.400 1_556 S
C121 C120 1.400 1_554 S
C121 C122 1.398 . S
C121 C127 1.491 . S
C122 H113 0.950 . S
C122 C121 1.398 . S
C122 C123 1.391 . S
C123 H111 0.950 . S
C123 C119 1.393 . S
C123 C122 1.391 . S
C124 H114 0.950 . S
C124 C125 1.386 . S
C124 C126 1.391 . S
C125 C124 1.386 . S
C125 C129 1.393 1_554 S
C126 H115 0.950 . S
C126 C124 1.391 . S
C126 C127 1.400 . S
C127 C121 1.491 . S
C127 C126 1.400 . S
C127 C128 1.398 1_554 S
C128 H116 0.950 . S
C128 C127 1.398 1_556 S
C128 C129 1.391 . S
C129 H117 0.950 . S
C129 C125 1.393 1_556 S
C129 C128 1.391 . S
H130 C138 0.950 . S
H131 C143 0.950 . S
H132 C140 0.950 . S
H133 C142 0.950 . S
H134 C144 0.950 . S
H135 C146 0.950 . S
H136 C148 0.950 . S
H137 C149 0.950 . S
C138 H130 0.950 . S
C138 C139 1.386 . S
C138 C140 1.391 . S
C139 C138 1.386 . S
C139 C143 1.393 . S
C140 H132 0.950 . S
C140 C138 1.391 . S
C140 C141 1.400 . S
C141 C140 1.400 . S
C141 C142 1.398 . S
C141 C147 1.491 . S
C142 H133 0.950 . S
C142 C141 1.398 . S
C142 C143 1.391 . S
C143 H131 0.950 . S
C143 C139 1.393 . S
C143 C142 1.391 . S
C144 H134 0.950 . S
C144 C145 1.386 . S
C144 C146 1.391 . S
C145 C144 1.386 . S
C145 C149 1.393 . S
C146 H135 0.950 . S
C146 C144 1.391 . S
C146 C147 1.400 . S
C147 C141 1.491 . S
C147 C146 1.400 . S
C147 C148 1.398 . S
C148 H136 0.950 . S
C148 C147 1.398 . S
C148 C149 1.391 . S
C149 H137 0.950 . S
C149 C145 1.393 . S
C149 C148 1.391 . S
H150 C158 0.950 . S
H151 C163 0.950 1_556 S
H152 C160 0.950 . S
H153 C162 0.950 1_556 S
H154 C164 0.950 . S
H155 C166 0.950 . S
H156 C168 0.950 . S
H157 C169 0.950 . S
C158 H150 0.950 . S
C158 C159 1.386 . S
C158 C160 1.391 . S
C159 C158 1.386 . S
C159 C163 1.393 . S
C160 H152 0.950 . S
C160 C158 1.391 . S
C160 C161 1.400 . S
C161 C160 1.400 . S
C161 C162 1.398 . S
C161 C167 1.491 . S
C162 H153 0.950 1_554 S
C162 C161 1.398 . S
C162 C163 1.391 . S
C163 H151 0.950 1_554 S
C163 C159 1.393 . S
C163 C162 1.391 . S
C164 H154 0.950 . S
C164 C165 1.386 1_556 S
C164 C166 1.391 . S
C165 C164 1.386 1_554 S
C165 C169 1.393 . S
C166 H155 0.950 . S
C166 C164 1.391 . S
C166 C167 1.400 1_556 S
C167 C161 1.491 . S
C167 C166 1.400 1_554 S
C167 C168 1.398 . S
C168 H156 0.950 . S
C168 C167 1.398 . S
C168 C169 1.391 . S
C169 H157 0.950 . S
C169 C165 1.393 . S
C169 C168 1.391 . S
H170 C178 0.950 . S
H171 C183 0.950 . S
H172 C180 0.950 . S
H173 C182 0.950 . S
H174 C184 0.950 . S
H175 C186 0.950 . S
H176 C188 0.950 . S
H177 C189 0.950 . S
C178 H170 0.950 . S
C178 C179 1.386 . S
C178 C180 1.391 . S
C179 C178 1.386 . S
C179 C183 1.393 . S
C180 H172 0.950 . S
C180 C178 1.391 . S
C180 C181 1.400 . S
C181 C180 1.400 . S
C181 C182 1.398 . S
C181 C187 1.491 . S
C182 H173 0.950 . S
C182 C181 1.398 . S
C182 C183 1.391 . S
C183 H171 0.950 . S
C183 C179 1.393 . S
C183 C182 1.391 . S
C184 H174 0.950 . S
C184 C185 1.386 . S
C184 C186 1.391 . S
C185 C184 1.386 . S
C185 C189 1.393 . S
C186 H175 0.950 . S
C186 C184 1.391 . S
C186 C187 1.400 . S
C187 C181 1.491 . S
C187 C186 1.400 . S
C187 C188 1.398 . S
C188 H176 0.950 . S
C188 C187 1.398 . S
C188 C189 1.391 . S
C189 H177 0.950 . S
C189 C185 1.393 . S
C189 C188 1.391 . S
H190 C198 0.950 . S
H191 C203 0.950 . S
H192 C200 0.950 . S
H193 C202 0.950 . S
H194 C204 0.950 . S
H195 C206 0.950 . S
H196 C208 0.950 . S
H197 C209 0.950 . S
C198 H190 0.950 . S
C198 C199 1.386 . S
C198 C200 1.391 . S
C199 C198 1.386 . S
C199 C203 1.393 . S
C200 H192 0.950 . S
C200 C198 1.391 . S
C200 C201 1.400 . S
C201 C200 1.400 . S
C201 C202 1.398 . S
C201 C207 1.491 . S
C202 H193 0.950 . S
C202 C201 1.398 . S
C202 C203 1.391 . S
C203 H191 0.950 . S
C203 C199 1.393 . S
C203 C202 1.391 . S
C204 H194 0.950 . S
C204 C205 1.386 . S
C204 C206 1.391 . S
C205 C204 1.386 . S
C205 C209 1.393 . S
C206 H195 0.950 . S
C206 C204 1.391 . S
C206 C207 1.400 . S
C207 C201 1.491 . S
C207 C206 1.400 . S
C207 C208 1.398 . S
C208 H196 0.950 . S
C208 C207 1.398 . S
C208 C209 1.391 . S
C209 H197 0.950 . S
C209 C205 1.393 . S
C209 C208 1.391 . S
H210 C218 0.950 . S
H211 C223 0.950 . S
H212 C220 0.950 . S
H213 C222 0.950 . S
H214 C224 0.950 . S
H215 C226 0.950 . S
H216 C228 0.950 . S
H217 C229 0.950 . S
C218 H210 0.950 . S
C218 C219 1.386 . S
C218 C220 1.391 . S
C219 C218 1.386 . S
C219 C223 1.393 . S
C220 H212 0.950 . S
C220 C218 1.391 . S
C220 C221 1.400 . S
C221 C220 1.400 . S
C221 C222 1.398 . S
C221 C227 1.491 . S
C222 H213 0.950 . S
C222 C221 1.398 . S
C222 C223 1.391 . S
C223 H211 0.950 . S
C223 C219 1.393 . S
C223 C222 1.391 . S
C224 H214 0.950 . S
C224 C225 1.386 . S
C224 C226 1.391 . S
C225 C224 1.386 . S
C225 C229 1.393 . S
C226 H215 0.950 . S
C226 C224 1.391 . S
C226 C227 1.400 . S
C227 C221 1.491 . S
C227 C226 1.400 . S
C227 C228 1.398 . S
C228 H216 0.950 . S
C228 C227 1.398 . S
C228 C229 1.391 . S
C229 H217 0.950 . S
C229 C225 1.393 . S
C229 C228 1.391 . S
H230 C238 0.950 . S
H231 C243 0.950 . S
H232 C240 0.950 . S
H233 C242 0.950 . S
H234 C244 0.950 . S
H235 C246 0.950 . S
H236 C248 0.950 . S
H237 C249 0.950 . S
C238 H230 0.950 . S
C238 C239 1.386 . S
C238 C240 1.391 . S
C239 C238 1.386 . S
C239 C243 1.393 . S
C240 H232 0.950 . S
C240 C238 1.391 . S
C240 C241 1.400 . S
C241 C240 1.400 . S
C241 C242 1.398 . S
C241 C247 1.491 . S
C242 H233 0.950 . S
C242 C241 1.398 . S
C242 C243 1.391 . S
C243 H231 0.950 . S
C243 C239 1.393 . S
C243 C242 1.391 . S
C244 H234 0.950 . S
C244 C245 1.386 . S
C244 C246 1.391 . S
C245 C244 1.386 . S
C245 C249 1.393 . S
C246 H235 0.950 . S
C246 C244 1.391 . S
C246 C247 1.400 . S
C247 C241 1.491 . S
C247 C246 1.400 . S
C247 C248 1.398 . S
C248 H236 0.950 . S
C248 C247 1.398 . S
C248 C249 1.391 . S
C249 H237 0.950 . S
C249 C245 1.393 . S
C249 C248 1.391 . S
H250 C258 0.950 . S
H251 C263 0.950 . S
H252 C260 0.950 . S
H253 C262 0.950 . S
H254 C264 0.950 . S
H255 C266 0.950 . S
H256 C268 0.950 . S
H257 C269 0.950 . S
C258 H250 0.950 . S
C258 C259 1.386 . S
C258 C260 1.391 . S
C259 C258 1.386 . S
C259 C263 1.393 . S
C260 H252 0.950 . S
C260 C258 1.391 . S
C260 C261 1.400 . S
C261 C260 1.400 . S
C261 C262 1.398 . S
C261 C267 1.491 . S
C262 H253 0.950 . S
C262 C261 1.398 . S
C262 C263 1.391 . S
C263 H251 0.950 . S
C263 C259 1.393 . S
C263 C262 1.391 . S
C264 H254 0.950 . S
C264 C265 1.386 . S
C264 C266 1.391 . S
C265 C264 1.386 . S
C265 C269 1.393 . S
C266 H255 0.950 . S
C266 C264 1.391 . S
C266 C267 1.400 . S
C267 C261 1.491 . S
C267 C266 1.400 . S
C267 C268 1.398 . S
C268 H256 0.950 . S
C268 C267 1.398 . S
C268 C269 1.391 . S
C269 H257 0.950 . S
C269 C265 1.393 . S
C269 C268 1.391 . S
H270 C278 0.950 . S
H271 C283 0.950 . S
H272 C280 0.950 . S
H273 C282 0.950 . S
H274 C284 0.950 . S
H275 C286 0.950 . S
H276 C288 0.950 . S
H277 C289 0.950 . S
C278 H270 0.950 . S
C278 C279 1.386 . S
C278 C280 1.391 . S
C279 C278 1.386 . S
C279 C283 1.393 . S
C280 H272 0.950 . S
C280 C278 1.391 . S
C280 C281 1.400 . S
C281 C280 1.400 . S
C281 C282 1.398 . S
C281 C287 1.491 . S
C282 H273 0.950 . S
C282 C281 1.398 . S
C282 C283 1.391 . S
C283 H271 0.950 . S
C283 C279 1.393 . S
C283 C282 1.391 . S
C284 H274 0.950 . S
C284 C285 1.386 . S
C284 C286 1.391 . S
C285 C284 1.386 . S
C285 C289 1.393 . S
C286 H275 0.950 . S
C286 C284 1.391 . S
C286 C287 1.400 . S
C287 C281 1.491 . S
C287 C286 1.400 . S
C287 C288 1.398 . S
C288 H276 0.950 . S
C288 C287 1.398 . S
C288 C289 1.391 . S
C289 H277 0.950 . S
C289 C285 1.393 . S
C289 C288 1.391 . S
H290 C298 0.950 . S
H291 C303 0.950 . S
H292 C300 0.950 . S
H293 C302 0.950 . S
H294 C304 0.950 . S
H295 C306 0.950 . S
H296 C308 0.950 . S
H297 C309 0.950 . S
C298 H290 0.950 . S
C298 C299 1.386 . S
C298 C300 1.391 . S
C299 C298 1.386 . S
C299 C303 1.393 . S
C300 H292 0.950 . S
C300 C298 1.391 . S
C300 C301 1.400 . S
C301 C300 1.400 . S
C301 C302 1.398 . S
C301 C307 1.491 . S
C302 H293 0.950 . S
C302 C301 1.398 . S
C302 C303 1.391 . S
C303 H291 0.950 . S
C303 C299 1.393 . S
C303 C302 1.391 . S
C304 H294 0.950 . S
C304 C305 1.386 . S
C304 C306 1.391 . S
C305 C304 1.386 . S
C305 C309 1.393 . S
C306 H295 0.950 . S
C306 C304 1.391 . S
C306 C307 1.400 . S
C307 C301 1.491 . S
C307 C306 1.400 . S
C307 C308 1.398 . S
C308 H296 0.950 . S
C308 C307 1.398 . S
C308 C309 1.391 . S
C309 H297 0.950 . S
C309 C305 1.393 . S
C309 C308 1.391 . S
H310 C318 0.950 . S
H311 C323 0.950 . S
H312 C320 0.950 . S
H313 C322 0.950 . S
H314 C324 0.950 . S
H315 C326 0.950 . S
H316 C328 0.950 . S
H317 C329 0.950 . S
C318 H310 0.950 . S
C318 C319 1.386 . S
C318 C320 1.391 . S
C319 C318 1.386 . S
C319 C323 1.393 . S
C320 H312 0.950 . S
C320 C318 1.391 . S
C320 C321 1.400 . S
C321 C320 1.400 . S
C321 C322 1.398 . S
C321 C327 1.491 . S
C322 H313 0.950 . S
C322 C321 1.398 . S
C322 C323 1.391 . S
C323 H311 0.950 . S
C323 C319 1.393 . S
C323 C322 1.391 . S
C324 H314 0.950 . S
C324 C325 1.386 . S
C324 C326 1.391 . S
C325 C324 1.386 . S
C325 C329 1.393 . S
C326 H315 0.950 . S
C326 C324 1.391 . S
C326 C327 1.400 . S
C327 C321 1.491 . S
C327 C326 1.400 . S
C327 C328 1.398 . S
C328 H316 0.950 . S
C328 C327 1.398 . S
C328 C329 1.391 . S
C329 H317 0.950 . S
C329 C325 1.393 . S
C329 C328 1.391 . S
C105 C61 1.521 . S
C99 C41 1.494 . S
C119 C8 1.480 . S
C125 C84 1.509 . S
C139 C19 1.512 . S
C145 C60 1.543 . S
C159 C30 1.559 . S
C165 C83 1.561 . S
C185 C64 1.528 . S
C179 C5 1.294 . S
C205 C86 1.622 . S
C199 C18 1.627 . S
C219 C29 1.593 . S
C225 C65 1.534 . S
C239 C40 1.606 . S
C245 C85 1.583 . S
C265 C88 1.363 . S
C259 C16 1.169 . S
C285 C63 1.410 . S
C279 C27 1.309 . S
C305 C87 1.315 . S
C299 C38 1.125 . S
C319 C7 1.397 . S
C325 C62 1.389 . S
