# Generated by pormake.
# Topology zzz, (3,6)-cn, num edge types: 1
# Building blocks:
#     Node 0, Type 0, BuildingBlock: OLANEW_clean_sbu_2, # of connection points: 3
#     Node 1, Type 0, BuildingBlock: OLANEW_clean_sbu_2, # of connection points: 3
#     Node 2, Type 0, BuildingBlock: OLANEW_clean_sbu_2, # of connection points: 3
#     Node 3, Type 0, BuildingBlock: OLANEW_clean_sbu_2, # of connection points: 3
#     Node 4, Type 0, BuildingBlock: OLANEW_clean_sbu_2, # of connection points: 3
#     Node 5, Type 0, BuildingBlock: OLANEW_clean_sbu_2, # of connection points: 3
#     Node 6, Type 0, BuildingBlock: OLANEW_clean_sbu_2, # of connection points: 3
#     Node 7, Type 0, BuildingBlock: OLANEW_clean_sbu_2, # of connection points: 3
#     Node 8, Type 1, BuildingBlock: KUMBUR_clean_sbu_0, # of connection points: 6
#     Node 9, Type 1, BuildingBlock: KUMBUR_clean_sbu_0, # of connection points: 6
#     Node 10, Type 1, BuildingBlock: KUMBUR_clean_sbu_0, # of connection points: 6
#     Node 11, Type 1, BuildingBlock: KUMBUR_clean_sbu_0, # of connection points: 6
#     Edge 12, Type (0, 1), BuildingBlock: TEMPAE_clean_linker_10, # of connection points: 2
#     Edge 13, Type (0, 1), BuildingBlock: TEMPAE_clean_linker_10, # of connection points: 2
#     Edge 14, Type (0, 1), BuildingBlock: TEMPAE_clean_linker_10, # of connection points: 2
#     Edge 15, Type (0, 1), BuildingBlock: TEMPAE_clean_linker_10, # of connection points: 2
#     Edge 16, Type (0, 1), BuildingBlock: TEMPAE_clean_linker_10, # of connection points: 2
#     Edge 17, Type (0, 1), BuildingBlock: TEMPAE_clean_linker_10, # of connection points: 2
#     Edge 18, Type (0, 1), BuildingBlock: TEMPAE_clean_linker_10, # of connection points: 2
#     Edge 19, Type (0, 1), BuildingBlock: TEMPAE_clean_linker_10, # of connection points: 2
#     Edge 20, Type (0, 1), BuildingBlock: TEMPAE_clean_linker_10, # of connection points: 2
#     Edge 21, Type (0, 1), BuildingBlock: TEMPAE_clean_linker_10, # of connection points: 2
#     Edge 22, Type (0, 1), BuildingBlock: TEMPAE_clean_linker_10, # of connection points: 2
#     Edge 23, Type (0, 1), BuildingBlock: TEMPAE_clean_linker_10, # of connection points: 2
#     Edge 24, Type (0, 1), BuildingBlock: TEMPAE_clean_linker_10, # of connection points: 2
#     Edge 25, Type (0, 1), BuildingBlock: TEMPAE_clean_linker_10, # of connection points: 2
#     Edge 26, Type (0, 1), BuildingBlock: TEMPAE_clean_linker_10, # of connection points: 2
#     Edge 27, Type (0, 1), BuildingBlock: TEMPAE_clean_linker_10, # of connection points: 2
#     Edge 28, Type (0, 1), BuildingBlock: TEMPAE_clean_linker_10, # of connection points: 2
#     Edge 29, Type (0, 1), BuildingBlock: TEMPAE_clean_linker_10, # of connection points: 2
#     Edge 30, Type (0, 1), BuildingBlock: TEMPAE_clean_linker_10, # of connection points: 2
#     Edge 31, Type (0, 1), BuildingBlock: TEMPAE_clean_linker_10, # of connection points: 2
#     Edge 32, Type (0, 1), BuildingBlock: TEMPAE_clean_linker_10, # of connection points: 2
#     Edge 33, Type (0, 1), BuildingBlock: TEMPAE_clean_linker_10, # of connection points: 2
#     Edge 34, Type (0, 1), BuildingBlock: TEMPAE_clean_linker_10, # of connection points: 2
#     Edge 35, Type (0, 1), BuildingBlock: TEMPAE_clean_linker_10, # of connection points: 2
# Relax obj value: 0.152
# Max RMSD: 0.165
# Mean RMSD: 0.124
data_MOF--net-zzz--node1-OLANEW_clean_sbu_2--node2-KUMBUR_clean_sbu_0--edge1-TEMPAE_clean_linker_10
_symmetry_space_group_name_H-M    P1
_symmetry_Int_Tables_number       1
_symmetry_cell_setting            triclinic
loop_
_symmetry_equiv_pos_as_xyz
'x, y, z'
_cell_length_a     54.719519
_cell_length_b     54.7121
_cell_length_c     16.849874
_cell_angle_alpha  89.97262
_cell_angle_beta   90.154773
_cell_angle_gamma 89.97168
loop_
_atom_site_label
_atom_site_type_symbol
_atom_site_fract_x
_atom_site_fract_y
_atom_site_fract_z
_atom_type_partial_charge
O0 O 0.74743 0.57022 0.98323 0.0
Cd1 Cd 0.70819 0.58959 0.00801 0.0
O2 O 0.75731 0.57755 0.10722 0.0
Cd3 Cd 0.78408 0.57673 0.20349 0.0
O4 O 0.81829 0.56828 0.26369 0.0
C5 C 0.82042 0.56823 0.33874 0.0
O6 O 0.80138 0.5738 0.38251 0.0
C7 C 0.76244 0.56806 0.04037 0.0
C8 C 0.67291 0.57181 0.90419 0.0
O9 O 0.68217 0.59305 0.89344 0.0
O10 O 0.68013 0.55915 0.9637 0.0
O11 O 0.9153 0.75703 0.00057 0.0
Cd12 Cd 0.8899 0.72051 0.99811 0.0
O13 O 0.90619 0.76775 0.12262 0.0
Cd14 Cd 0.90865 0.79399 0.2196 0.0
O15 O 0.92254 0.82531 0.28497 0.0
C16 C 0.92213 0.84618 0.25183 0.0
O17 O 0.91234 0.84828 0.18085 0.0
C18 C 0.91797 0.77151 0.0588 0.0
C19 C 0.91929 0.6813 0.9543 0.0
O20 O 0.911 0.69634 0.90255 0.0
O21 O 0.91326 0.68435 0.02706 0.0
O22 O 0.76469 0.88343 0.99616 0.0
Cd23 Cd 0.80113 0.86424 0.05246 0.0
O24 O 0.74488 0.87803 0.10804 0.0
Cd25 Cd 0.71363 0.88781 0.18215 0.0
O26 O 0.68118 0.90682 0.22494 0.0
C27 C 0.68352 0.92275 0.27922 0.0
O28 O 0.7053 0.92675 0.30956 0.0
C29 C 0.74554 0.88631 0.03755 0.0
C30 C 0.84178 0.89013 0.99945 0.0
O31 O 0.83505 0.87038 0.96487 0.0
O32 O 0.8297 0.89724 0.06028 0.0
O33 O 0.60727 0.75361 0.99835 0.0
Cd34 Cd 0.62891 0.79075 0.03769 0.0
O35 O 0.58644 0.75902 0.1077 0.0
Cd36 Cd 0.5575 0.7487 0.18959 0.0
O37 O 0.53668 0.72173 0.25528 0.0
C38 C 0.54516 0.7142 0.32111 0.0
O39 O 0.56497 0.7245 0.34993 0.0
C40 C 0.59078 0.74645 0.04582 0.0
C41 C 0.60631 0.83195 0.97406 0.0
O42 O 0.62465 0.82203 0.9395 0.0
O43 O 0.5988 0.8225 0.03919 0.0
O44 O 0.24607 0.44505 0.15458 0.0
Cd45 Cd 0.27764 0.41411 0.13881 0.0
O46 O 0.25939 0.47014 0.06224 0.0
Cd47 Cd 0.27846 0.44113 0.99968 0.0
O48 O 0.24716 0.45036 0.92475 0.0
C49 C 0.22808 0.43717 0.9218 0.0
O50 O 0.22804 0.41582 0.9575 0.0
C51 C 0.24528 0.46571 0.12017 0.0
C52 C 0.31665 0.42902 0.23372 0.0
O53 O 0.31731 0.43179 0.15823 0.0
O54 O 0.29799 0.41851 0.26415 0.0
O55 O 0.0915 0.26827 0.21752 0.0
Cd56 Cd 0.11519 0.30505 0.19034 0.0
O57 O 0.11679 0.243 0.15794 0.0
Cd58 Cd 0.12294 0.2067 0.1082 0.0
O59 O 0.10819 0.17264 0.06166 0.0
C60 C 0.08913 0.17502 0.01912 0.0
O61 O 0.08054 0.1971 0.00596 0.0
C62 C 0.09695 0.24679 0.1951 0.0
C63 C 0.09734 0.34352 0.28146 0.0
O64 O 0.08601 0.33631 0.21918 0.0
O65 O 0.11735 0.33288 0.30071 0.0
O66 O 0.24903 0.10899 0.18829 0.0
Cd67 Cd 0.21211 0.13188 0.1535 0.0
O68 O 0.27176 0.12849 0.1015 0.0
Cd69 Cd 0.30589 0.13016 0.03498 0.0
O70 O 0.33992 0.11534 0.98861 0.0
C71 C 0.33828 0.09928 0.93448 0.0
O72 O 0.31653 0.09328 0.90761 0.0
C73 C 0.26955 0.11215 0.1547 0.0
C74 C 0.17207 0.11207 0.2331 0.0
O75 O 0.17968 0.10287 0.16774 0.0
O76 O 0.18312 0.13095 0.26033 0.0
O77 O 0.37972 0.24809 0.19686 0.0
Cd78 Cd 0.36339 0.20763 0.16663 0.0
O79 O 0.39827 0.24552 0.08201 0.0
Cd80 Cd 0.42436 0.25973 0.99593 0.0
O81 O 0.44403 0.28827 0.93302 0.0
C82 C 0.43665 0.29499 0.86492 0.0
O83 O 0.41831 0.28328 0.83179 0.0
C84 C 0.39381 0.2574 0.14523 0.0
C85 C 0.39229 0.17218 0.23934 0.0
O86 O 0.39848 0.18173 0.17292 0.0
O87 O 0.37215 0.17906 0.27095 0.0
Tb88 Tb 0.02716 0.99192 0.69435 0.0
C89 C 0.93052 0.01529 0.52226 0.0
C90 C 0.93494 0.00022 0.38834 0.0
C91 C 0.89467 0.00201 0.44855 0.0
C92 C 0.94527 0.00923 0.45928 0.0
C93 C 0.90499 0.01216 0.51746 0.0
C94 C 0.90963 0.99615 0.38389 0.0
C95 C 0.90167 0.03141 0.64597 0.0
N96 N 0.94117 0.0254 0.58697 0.0
C97 C 0.92706 0.03437 0.6474 0.0
C98 C 0.8906 0.01998 0.5811 0.0
Tb99 Tb 0.98294 0.02872 0.58572 0.0
N100 N 0.96963 0.01334 0.46624 0.0
C101 C 0.9845 0.01023 0.40177 0.0
C102 C 0.95025 0.99626 0.32337 0.0
C103 C 0.97511 0.00139 0.33005 0.0
H104 H 0.93551 0.04309 0.698 0.0
H105 H 0.98708 0.99866 0.27979 0.0
H106 H 0.90139 0.98895 0.33023 0.0
H107 H 0.89068 0.03793 0.69487 0.0
H108 H 0.00374 0.01413 0.40463 0.0
H109 H 0.02648 0.0239 0.998 0.0
H110 H 0.94298 0.98985 0.26729 0.0
H111 H 0.07318 0.97511 0.57906 0.0
H112 H 0.00834 0.00844 0.8748 0.0
H113 H 0.11813 0.9782 0.57887 0.0
H114 H 0.87512 0.99926 0.44386 0.0
H115 H 0.07099 0.03103 0.00675 0.0
H116 H 0.11213 0.02997 0.94065 0.0
H117 H 0.87092 0.01782 0.5799 0.0
H118 H 0.13714 0.01776 0.82594 0.0
N119 N 0.04203 0.00766 0.81117 0.0
C120 C 0.02775 0.01163 0.8765 0.0
C121 C 0.06306 0.02467 0.95155 0.0
C122 C 0.07773 0.01981 0.88567 0.0
C123 C 0.03797 0.02047 0.94703 0.0
C124 C 0.06655 0.01084 0.81607 0.0
H125 H 0.13958 0.99807 0.69106 0.0
N126 N 0.06901 0.99364 0.68942 0.0
C127 C 0.10779 0.98551 0.62808 0.0
C128 C 0.08056 0.0037 0.7526 0.0
C129 C 0.08228 0.98374 0.62855 0.0
C130 C 0.11982 0.99681 0.69137 0.0
C131 C 0.10623 0.00571 0.75538 0.0
O132 O 0.03832 0.95505 0.69089 0.0
O133 O -3e-05 0.99377 0.6021 0.0
O134 O 0.96314 0.00114 0.65368 0.0
O135 O 0.9914 0.99364 0.75415 0.0
O136 O 0.02826 0.97075 0.58297 0.0
O137 O 0.01389 0.96822 0.78174 0.0
O138 O 0.96818 0.0644 0.5845 0.0
O139 O 0.00988 0.02683 0.67832 0.0
O140 O 0.04747 0.01916 0.62611 0.0
O141 O 0.01886 0.02725 0.52673 0.0
O142 O 0.98139 0.04954 0.69792 0.0
O143 O 0.99824 0.05435 0.50881 0.0
C144 C 0.00817 0.97862 0.553 0.0
C145 C 0.03875 0.93517 0.81656 0.0
C146 C 0.03547 0.90406 0.9195 0.0
C147 C 0.02466 0.91878 0.86096 0.0
C148 C 0.06069 0.90605 0.93382 0.0
C149 C 0.06385 0.93737 0.83218 0.0
C150 C 0.07473 0.92282 0.89078 0.0
C151 C 0.96898 0.99228 0.72432 0.0
C152 C 0.02635 0.94973 0.75546 0.0
C153 C 0.11746 0.01586 0.8228 0.0
C154 C 0.10322 0.02281 0.88806 0.0
C155 C 0.00159 0.04184 0.72766 0.0
C156 C 0.97256 0.08471 0.46032 0.0
C157 C 0.98658 0.10359 0.42798 0.0
C158 C 0.97914 0.1156 0.35844 0.0
C159 C 0.95733 0.10838 0.32104 0.0
C160 C 0.95071 0.07772 0.42307 0.0
C161 C 0.94314 0.08961 0.35366 0.0
C162 C 0.04143 0.02822 0.55577 0.0
C163 C 0.98282 0.07136 0.52795 0.0
H164 H 0.00526 0.91707 0.84854 0.0
H165 H 0.06945 0.89472 0.97833 0.0
H166 H 0.07498 0.95016 0.79913 0.0
H167 H 0.09412 0.92442 0.90249 0.0
H168 H 0.00379 0.10845 0.45594 0.0
H169 H 0.95119 0.11738 0.2673 0.0
H170 H 0.93978 0.06297 0.44677 0.0
H171 H 0.92633 0.08414 0.32472 0.0
Tb172 Tb 0.52978 0.031 0.67087 0.0
C173 C 0.50366 0.93775 0.48199 0.0
C174 C 0.52502 0.94115 0.3573 0.0
C175 C 0.51577 0.90101 0.41119 0.0
C176 C 0.51415 0.95201 0.42437 0.0
C177 C 0.50386 0.91206 0.47563 0.0
C178 C 0.52631 0.91556 0.35194 0.0
C179 C 0.47873 0.91037 0.59307 0.0
N180 N 0.49213 0.94919 0.54245 0.0
C181 C 0.47904 0.93592 0.59657 0.0
C182 C 0.49146 0.89835 0.53289 0.0
Tb183 Tb 0.49386 0.99107 0.54488 0.0
N184 N 0.5124 0.97661 0.43192 0.0
C185 C 0.51969 0.99141 0.37086 0.0
C186 C 0.53347 0.9563 0.29652 0.0
C187 C 0.53063 0.98154 0.30312 0.0
H188 H 0.46933 0.94493 0.64388 0.0
H189 H 0.53678 0.99344 0.25588 0.0
H190 H 0.53486 0.90686 0.30135 0.0
H191 H 0.46878 0.89996 0.63703 0.0
H192 H 0.51767 0.01096 0.37411 0.0
H193 H 0.4887 0.02121 0.96331 0.0
H194 H 0.54153 0.94869 0.24336 0.0
H195 H 0.55038 0.08057 0.57758 0.0
H196 H 0.50857 0.00632 0.84424 0.0
H197 H 0.54555 0.12528 0.58931 0.0
H198 H 0.51635 0.88129 0.40552 0.0
H199 H 0.4799 0.06511 0.97954 0.0
H200 H 0.4823 0.10764 0.9257 0.0
H201 H 0.49118 0.87857 0.53023 0.0
H202 H 0.497 0.13587 0.82309 0.0
N203 N 0.51038 0.04138 0.78709 0.0
C204 C 0.50471 0.02554 0.84746 0.0
C205 C 0.48831 0.0587 0.9253 0.0
C206 C 0.49495 0.07503 0.86538 0.0
C207 C 0.49338 0.03392 0.91651 0.0
C208 C 0.5064 0.06581 0.7966 0.0
H209 H 0.52078 0.14266 0.69807 0.0
N210 N 0.52756 0.07266 0.67669 0.0
C211 C 0.53675 0.11328 0.63157 0.0
C212 C 0.51502 0.08188 0.73931 0.0
C213 C 0.53948 0.08796 0.62521 0.0
C214 C 0.5227 0.12301 0.69292 0.0
C215 C 0.51211 0.10734 0.74879 0.0
O216 O 0.55864 0.04886 0.73022 0.0
O217 O 0.52929 0.00621 0.57271 0.0
O218 O 0.51731 0.96835 0.61961 0.0
O219 O 0.52455 0.99487 0.72595 0.0
O220 O 0.55243 0.03515 0.56367 0.0
O221 O 0.56139 0.01094 0.7014 0.0
O222 O 0.4562 0.98303 0.53632 0.0
O223 O 0.4945 0.01662 0.64204 0.0
O224 O 0.50678 0.05366 0.59334 0.0
O225 O 0.499 0.02696 0.48926 0.0
O226 O 0.46963 0.98956 0.64924 0.0
O227 O 0.47383 0.00724 0.45325 0.0
C228 C 0.54545 0.01536 0.52887 0.0
C229 C 0.57895 0.02315 0.82215 0.0
C230 C 0.60565 -0.00021 0.91115 0.0
C231 C 0.59904 0.00762 0.83414 0.0
C232 C 0.59157 0.00805 0.97586 0.0
C233 C 0.56595 0.03188 0.88799 0.0
C234 C 0.57215 0.02419 0.96424 0.0
C235 C 0.52467 0.97272 0.69336 0.0
C236 C 0.57105 0.0289 0.74052 0.0
C237 C 0.49958 0.11639 0.81509 0.0
C238 C 0.49117 0.10029 0.87349 0.0
C239 C 0.47754 0.0087 0.68486 0.0
C240 C 0.43818 0.98826 0.40873 0.0
C241 C 0.42043 0.00429 0.37927 0.0
C242 C 0.40555 0.99772 0.31474 0.0
C243 C 0.40915 0.97478 0.27881 0.0
C244 C 0.44166 0.96548 0.37265 0.0
C245 C 0.42712 0.9588 0.30773 0.0
C246 C 0.49847 0.04904 0.5211 0.0
C247 C 0.45349 0.99693 0.47409 0.0
H248 H 0.60943 0.0018 0.78291 0.0
H249 H 0.59519 0.00184 0.03571 0.0
H250 H 0.55088 0.04445 0.88074 0.0
H251 H 0.56167 0.03056 0.01456 0.0
H252 H 0.41846 0.02219 0.40628 0.0
H253 H 0.39787 0.96906 0.2293 0.0
H254 H 0.45561 0.95306 0.39413 0.0
H255 H 0.42975 0.94119 0.2798 0.0
Tb256 Tb 0.50667 0.49029 0.50501 0.0
C257 C 0.42549 0.50096 0.75278 0.0
C258 C 0.3915 0.51613 0.67527 0.0
C259 C 0.38395 0.49083 0.79132 0.0
C260 C 0.41685 0.51386 0.68856 0.0
C261 C 0.40921 0.48972 0.80614 0.0
C262 C 0.3751 0.50401 0.72583 0.0
C263 C 0.444 0.47877 0.88729 0.0
N264 N 0.44997 0.50036 0.76465 0.0
C265 C 0.45938 0.49022 0.83245 0.0
C266 C 0.41881 0.47822 0.87357 0.0
Tb267 Tb 0.47382 0.51793 0.66863 0.0
N268 N 0.43332 0.52543 0.64195 0.0
C269 C 0.42549 0.54148 0.58501 0.0
C270 C 0.38345 0.53116 0.61336 0.0
C271 C 0.40052 0.54429 0.5691 0.0
H272 H 0.4788 0.49036 0.84358 0.0
H273 H 0.39449 0.55645 0.52231 0.0
H274 H 0.35556 0.50528 0.71613 0.0
H275 H 0.45158 0.4703 0.93993 0.0
H276 H 0.43838 0.55165 0.54972 0.0
H277 H 0.58557 0.4504 0.65029 0.0
H278 H 0.36413 0.53335 0.6009 0.0
H279 H 0.50161 0.51889 0.33198 0.0
H280 H 0.54178 0.45669 0.62587 0.0
H281 H 0.52893 0.53777 0.23354 0.0
H282 H 0.37111 0.48209 0.8311 0.0
H283 H 0.61619 0.4712 0.56633 0.0
H284 H 0.62502 0.49815 0.44869 0.0
H285 H 0.40694 0.46934 0.91608 0.0
H286 H 0.6096 0.52191 0.3348 0.0
N287 N 0.54706 0.48158 0.52985 0.0
C288 C 0.55472 0.46591 0.58822 0.0
C289 C 0.59689 0.47406 0.55515 0.0
C290 C 0.58898 0.48888 0.49251 0.0
C291 C 0.57966 0.46226 0.60252 0.0
C292 C 0.56365 0.49209 0.48097 0.0
H293 H 0.57375 0.53652 0.25335 0.0
N294 N 0.53056 0.50737 0.40822 0.0
C295 C 0.53654 0.52884 0.28534 0.0
C296 C 0.55507 0.50548 0.41772 0.0
C297 C 0.5211 0.51807 0.34139 0.0
C298 C 0.56182 0.52813 0.29677 0.0
C299 C 0.57142 0.51604 0.36308 0.0
O300 O 0.4893 0.47362 0.40799 0.0
O301 O 0.47209 0.49942 0.55696 0.0
O302 O 0.46612 0.47893 0.67383 0.0
O303 O 0.49932 0.46391 0.60162 0.0
O304 O 0.47526 0.50452 0.43855 0.0
O305 O 0.51299 0.45278 0.4849 0.0
O306 O 0.49054 0.53513 0.76606 0.0
O307 O 0.50854 0.50888 0.61697 0.0
O308 O 0.51452 0.5293 0.49967 0.0
O309 O 0.4814 0.54433 0.57244 0.0
O310 O 0.50513 0.50413 0.7359 0.0
O311 O 0.46672 0.55532 0.68777 0.0
C312 C 0.46002 0.50542 0.49641 0.0
C313 C 0.50651 0.43821 0.35385 0.0
C314 C 0.49659 0.40589 0.25935 0.0
C315 C 0.49155 0.4189 0.32931 0.0
C316 C 0.51743 0.4123 0.21511 0.0
C317 C 0.52715 0.44448 0.30932 0.0
C318 C 0.53262 0.43141 0.24028 0.0
C319 C 0.48064 0.46088 0.65097 0.0
C320 C 0.49872 0.45234 0.42294 0.0
C321 C 0.59671 0.51372 0.37561 0.0
C322 C 0.60549 0.50018 0.44037 0.0
C323 C 0.52044 0.50311 0.67824 0.0
C324 C 0.47272 0.57064 0.81814 0.0
C325 C 0.48796 0.58955 0.84446 0.0
C326 C 0.48206 0.60327 0.91224 0.0
C327 C 0.46022 0.59793 0.95268 0.0
C328 C 0.45111 0.56539 0.85906 0.0
C329 C 0.44488 0.57913 0.92604 0.0
C330 C 0.50019 0.54741 0.52361 0.0
C331 C 0.48083 0.55622 0.75004 0.0
H332 H 0.47581 0.41411 0.36509 0.0
H333 H 0.5218 0.40283 0.16054 0.0
H334 H 0.53875 0.45953 0.32733 0.0
H335 H 0.5485 0.4363 0.20559 0.0
H336 H 0.50449 0.59357 0.8116 0.0
H337 H 0.45518 0.608 0.00547 0.0
H338 H 0.43927 0.55069 0.83963 0.0
H339 H 0.42821 0.57506 0.95786 0.0
Tb340 Tb 0.03962 0.53793 0.59811 0.0
C341 C 0.02458 0.43988 0.77776 0.0
C342 C 0.01136 0.41121 0.67754 0.0
C343 C 0.03279 0.39652 0.79475 0.0
C344 C 0.01361 0.43536 0.70582 0.0
C345 C 0.03391 0.42053 0.82406 0.0
C346 C 0.02146 0.39186 0.72159 0.0
C347 C 0.04255 0.4498 0.92758 0.0
N348 N 0.02496 0.46323 0.80418 0.0
C349 C 0.03278 0.46829 0.87965 0.0
C350 C 0.04341 0.42583 0.89927 0.0
Tb351 Tb 0.0094 0.49259 0.72109 0.0
N352 N 0.00412 0.45458 0.66533 0.0
C353 C 0.99075 0.45056 0.59776 0.0
C354 C 0.99848 0.40719 0.60703 0.0
C355 C 0.98803 0.42695 0.56719 0.0
H356 H 0.03221 0.48675 0.90214 0.0
H357 H 0.97779 0.42402 0.51299 0.0
H358 H 0.02017 0.3732 0.7004 0.0
H359 H 0.04937 0.45405 0.98633 0.0
H360 H 0.98246 0.46544 0.56567 0.0
H361 H 0.0705 0.6043 0.81369 0.0
H362 H 0.996 0.38889 0.58394 0.0
H363 H 0.01517 0.54541 0.41969 0.0
H364 H 0.06714 0.56344 0.75374 0.0
H365 H 0.99617 0.57874 0.34219 0.0
H366 H 0.04004 0.3814 0.82904 0.0
H367 H 0.04926 0.63949 0.75243 0.0
H368 H 0.02387 0.656 0.63977 0.0
H369 H 0.05083 0.41151 0.93667 0.0
H370 H 0.00333 0.649 0.51159 0.0
N371 N 0.04345 0.57498 0.66035 0.0
C372 C 0.05764 0.57852 0.72628 0.0
C373 C 0.04752 0.62152 0.72607 0.0
C374 C 0.03404 0.61803 0.65637 0.0
C375 C 0.05964 0.60172 0.76057 0.0
C376 C 0.03247 0.59428 0.62443 0.0
H377 H 0.99311 0.62026 0.39958 0.0
N378 N 0.02185 0.56759 0.5213 0.0
C379 C 0.00308 0.58227 0.40134 0.0
C380 C 0.02129 0.59046 0.55212 0.0
C381 C 0.01388 0.56344 0.44536 0.0
C382 C 0.00131 0.60566 0.43403 0.0
C383 C 0.01093 0.61012 0.5097 0.0
O384 O 0.05968 0.5332 0.49305 0.0
O385 O 0.03209 0.49988 0.61948 0.0
O386 O 0.04838 0.48666 0.7387 0.0
O387 O 0.0647 0.52352 0.69035 0.0
O388 O 0.03212 0.51127 0.50432 0.0
O389 O 0.07638 0.54895 0.5976 0.0
O390 O 0.98848 0.49921 0.8233 0.0
O391 O 0.01779 0.53018 0.6997 0.0
O392 O 0.00049 0.5435 0.58472 0.0
O393 O 0.98627 0.50487 0.62076 0.0
O394 O 0.01695 0.51988 0.81407 0.0
O395 O 0.97168 0.48561 0.716 0.0
C396 C 0.02995 0.49238 0.54916 0.0
C397 C 0.09071 0.56206 0.47206 0.0
C398 C 0.11855 0.57065 0.36312 0.0
C399 C 0.10628 0.55394 0.41199 0.0
C400 C 0.1149 0.59581 0.37451 0.0
C401 C 0.08695 0.58724 0.48257 0.0
C402 C 0.09897 0.60401 0.43364 0.0
C403 C 0.06646 0.50252 0.72985 0.0
C404 C 0.079 0.54367 0.52266 0.0
C405 C 0.01132 0.63365 0.54295 0.0
C406 C 0.02299 0.63763 0.61597 0.0
C407 C 0.01946 0.5386 0.76877 0.0
C408 C 0.95221 0.47669 0.83739 0.0
C409 C 0.93175 0.4877 0.87168 0.0
C410 C 0.9153 0.47398 0.91727 0.0
C411 C 0.91964 0.44887 0.9282 0.0
C412 C 0.95656 0.4517 0.84905 0.0
C413 C 0.94027 0.43786 0.8945 0.0
C414 C 0.98325 0.52656 0.58665 0.0
C415 C 0.96834 0.49203 0.78957 0.0
H416 H 0.10942 0.53448 0.40481 0.0
H417 H 0.12437 0.60902 0.33788 0.0
H418 H 0.07501 0.59392 0.52873 0.0
H419 H 0.09613 0.62341 0.44214 0.0
H420 H 0.92836 0.50699 0.86129 0.0
H421 H 0.9072 0.43786 0.96301 0.0
H422 H 0.97234 0.44295 0.82291 0.0
H423 H 0.94357 0.41854 0.90336 0.0
C424 C 0.14603 0.07595 0.26484 0.0
C425 C 0.15178 0.10062 0.27736 0.0
C426 C 0.1279 0.06431 0.30981 0.0
C427 C 0.11484 0.07781 0.36747 0.0
C428 C 0.12001 0.10294 0.37858 0.0
C429 C 0.13865 0.11399 0.33402 0.0
C430 C 0.12306 0.03743 0.29671 0.0
C431 C 0.10597 0.1181 0.43786 0.0
C432 C 0.05423 0.05113 0.43384 0.0
C433 C 0.06037 0.0407 0.50751 0.0
C434 C 0.0716 0.0638 0.38868 0.0
C435 C 0.09594 0.06549 0.41657 0.0
C436 C 0.10234 0.05493 0.49055 0.0
C437 C 0.08439 0.04301 0.53566 0.0
C438 C 0.06387 0.07541 0.31114 0.0
C439 C 0.12819 0.05608 0.52192 0.0
H440 H 0.1562 0.06553 0.22132 0.0
H441 H 0.14288 0.13313 0.34331 0.0
H442 H 0.12615 0.02723 0.35278 0.0
H443 H 0.1037 0.03459 0.27933 0.0
H444 H 0.13495 0.02952 0.24996 0.0
H445 H 0.11128 0.13769 0.43611 0.0
H446 H 0.08606 0.11669 0.42604 0.0
H447 H 0.10923 0.11103 0.49867 0.0
H448 H 0.03575 0.04964 0.41124 0.0
H449 H 0.08926 0.03555 0.59307 0.0
H450 H 0.07379 0.06676 0.26118 0.0
H451 H 0.06867 0.09512 0.31096 0.0
H452 H 0.04392 0.07364 0.30009 0.0
H453 H 0.14088 0.04762 0.47861 0.0
H454 H 0.13025 0.04654 0.5798 0.0
H455 H 0.13384 0.0754 0.52941 0.0
C456 C 0.39861 0.13727 0.33288 0.0
C457 C 0.40832 0.15427 0.27935 0.0
C458 C 0.41376 0.12023 0.3713 0.0
C459 C 0.4393 0.12084 0.35778 0.0
C460 C 0.4492 0.13818 0.30445 0.0
C461 C 0.43353 0.15447 0.26498 0.0
C462 C 0.40241 0.10139 0.4254 0.0
C463 C 0.47636 0.13961 0.28943 0.0
C464 C 0.48013 0.09095 0.51275 0.0
C465 C 0.48567 0.06857 0.47638 0.0
C466 C 0.46544 0.10836 0.47423 0.0
C467 C 0.45565 0.10305 0.39824 0.0
C468 C 0.46144 0.08068 0.36076 0.0
C469 C 0.4767 0.06393 0.39965 0.0
C470 C 0.45991 0.13217 0.51571 0.0
C471 C 0.45093 0.07408 0.28052 0.0
H472 H 0.37908 0.13701 0.34362 0.0
H473 H 0.4411 0.16774 0.22408 0.0
H474 H 0.40637 0.08276 0.40279 0.0
H475 H 0.4105 0.1027 0.48569 0.0
H476 H 0.38228 0.10355 0.43011 0.0
H477 H 0.4812 0.15468 0.24814 0.0
H478 H 0.48625 0.14244 0.34628 0.0
H479 H 0.48295 0.12214 0.26391 0.0
H480 H 0.48669 0.09465 0.57224 0.0
H481 H 0.48102 0.04686 0.37037 0.0
H482 H 0.44009 0.13329 0.52884 0.0
H483 H 0.46448 0.14781 0.47651 0.0
H484 H 0.47021 0.13412 0.57229 0.0
H485 H 0.43067 0.07392 0.28348 0.0
H486 H 0.45719 0.05587 0.25962 0.0
H487 H 0.45617 0.08799 0.23582 0.0
C488 C 0.3606 0.4378 0.2596 0.0
C489 C 0.33626 0.43888 0.28449 0.0
C490 C 0.37927 0.44846 0.30509 0.0
C491 C 0.37324 0.46131 0.37543 0.0
C492 C 0.34867 0.46223 0.40122 0.0
C493 C 0.33048 0.4506 0.356 0.0
C494 C 0.40539 0.44634 0.27709 0.0
C495 C 0.3415 0.47636 0.47454 0.0
C496 C 0.42672 0.47485 0.51186 0.0
C497 C 0.4349 0.49714 0.48081 0.0
C498 C 0.40586 0.46338 0.48092 0.0
C499 C 0.39262 0.47486 0.41893 0.0
C500 C 0.39969 0.49838 0.39234 0.0
C501 C 0.42114 0.50894 0.42221 0.0
C502 C 0.39941 0.43805 0.50965 0.0
C503 C 0.38553 0.51168 0.32858 0.0
H504 H 0.36503 0.42855 0.20458 0.0
H505 H 0.31156 0.4516 0.37474 0.0
H506 H 0.41253 0.46468 0.26135 0.0
H507 H 0.41711 0.43902 0.32546 0.0
H508 H 0.40717 0.43426 0.22444 0.0
H509 H 0.32179 0.47432 0.48869 0.0
H510 H 0.35241 0.47023 0.52642 0.0
H511 H 0.34551 0.49606 0.4656 0.0
H512 H 0.43767 0.46536 0.55564 0.0
H513 H 0.42766 0.52609 0.39784 0.0
H514 H 0.40461 0.42452 0.46364 0.0
H515 H 0.37945 0.4363 0.51935 0.0
H516 H 0.40909 0.43331 0.56567 0.0
H517 H 0.38873 0.50275 0.27044 0.0
H518 H 0.39109 0.53116 0.3238 0.0
H519 H 0.36563 0.51086 0.34074 0.0
C520 C 0.06368 0.36186 0.35986 0.0
C521 C 0.0874 0.36352 0.32969 0.0
C522 C 0.05349 0.38115 0.40352 0.0
C523 C 0.06712 0.40289 0.41467 0.0
C524 C 0.09122 0.40453 0.38435 0.0
C525 C 0.10126 0.38456 0.34347 0.0
C526 C 0.02836 0.37803 0.43873 0.0
C527 C 0.106 0.42771 0.39215 0.0
C528 C 0.03236 0.46232 0.43983 0.0
C529 C 0.0371 0.46805 0.51934 0.0
C530 C 0.04171 0.44097 0.40548 0.0
C531 C 0.05565 0.42461 0.45246 0.0
C532 C 0.05963 0.42979 0.5338 0.0
C533 C 0.05095 0.45186 0.56563 0.0
C534 C 0.03732 0.43632 0.31825 0.0
C535 C 0.07335 0.41227 0.58684 0.0
H536 H 0.05319 0.34532 0.34987 0.0
H537 H 0.11959 0.38574 0.31948 0.0
H538 H 0.0303 0.37553 0.50375 0.0
H539 H 0.01687 0.39446 0.42865 0.0
H540 H 0.01872 0.36184 0.41419 0.0
H541 H 0.12447 0.42595 0.36553 0.0
H542 H 0.09626 0.44299 0.36236 0.0
H543 H 0.10809 0.43273 0.45555 0.0
H544 H 0.02191 0.475 0.40368 0.0
H545 H 0.05532 0.4565 0.62636 0.0
H546 H 0.02752 0.41875 0.31017 0.0
H547 H 0.05507 0.43477 0.2869 0.0
H548 H 0.02643 0.45108 0.28981 0.0
H549 H 0.06546 0.39366 0.58149 0.0
H550 H 0.07277 0.41789 0.65018 0.0
H551 H 0.09273 0.41117 0.5681 0.0
C552 C 0.8632 0.93011 0.98425 0.0
C553 C 0.86197 0.90505 0.96728 0.0
C554 C 0.88082 0.94504 0.94827 0.0
C555 C 0.8979 0.93455 0.89535 0.0
C556 C 0.89742 0.90907 0.88069 0.0
C557 C 0.87927 0.89464 0.91621 0.0
C558 C 0.8807 0.97215 0.96505 0.0
C559 C 0.91584 0.89711 0.82654 0.0
C560 C 0.92726 0.97397 0.73658 0.0
C561 C 0.95018 0.97897 0.77026 0.0
C562 C 0.90988 0.95999 0.77743 0.0
C563 C 0.91574 0.95037 0.85319 0.0
C564 C 0.93871 0.95559 0.88792 0.0
C565 C 0.95559 0.96993 0.84629 0.0
C566 C 0.88543 0.95515 0.7388 0.0
C567 C 0.94586 0.94523 0.96767 0.0
H568 H 0.84981 0.93824 0.02353 0.0
H569 H 0.87853 0.87523 0.90365 0.0
H570 H 0.89881 0.97798 0.98792 0.0
H571 H 0.87731 0.98238 0.9092 0.0
H572 H 0.86652 0.97737 0.00895 0.0
H573 H 0.9133 0.877 0.82285 0.0
H574 H 0.91429 0.90489 0.76592 0.0
H575 H 0.93464 0.9009 0.84805 0.0
H576 H 0.92298 0.98055 0.67752 0.0
H577 H 0.97322 0.97364 0.87304 0.0
H578 H 0.87044 0.96068 0.77923 0.0
H579 H 0.88335 0.93529 0.72734 0.0
H580 H 0.88325 0.9651 0.68171 0.0
H581 H 0.93147 0.94882 0.0124 0.0
H582 H 0.96345 0.95279 0.98976 0.0
H583 H 0.94776 0.92516 0.96214 0.0
C584 C 0.60527 0.86698 0.8791 0.0
C585 C 0.5938 0.85329 0.93863 0.0
C586 C 0.59327 0.88668 0.84269 0.0
C587 C 0.56918 0.89273 0.86593 0.0
C588 C 0.55751 0.87903 0.92619 0.0
C589 C 0.57007 0.8596 0.9624 0.0
C590 C 0.60629 0.90097 0.77893 0.0
C591 C 0.53155 0.88446 0.95072 0.0
C592 C 0.54615 0.95627 0.81387 0.0
C593 C 0.53463 0.95209 0.74052 0.0
C594 C 0.5571 0.93703 0.85622 0.0
C595 C 0.55607 0.913 0.8253 0.0
C596 C 0.54378 0.90855 0.75279 0.0
C597 C 0.53374 0.9282 0.71053 0.0
C598 C 0.5705 0.94254 0.9326 0.0
C599 C 0.54169 0.88309 0.71875 0.0
H600 H 0.62368 0.86231 0.86092 0.0
H601 H 0.56106 0.84895 0.008 0.0
H602 H 0.59569 0.9005 0.72279 0.0
H603 H 0.60771 0.9204 0.79708 0.0
H604 H 0.62486 0.8937 0.76689 0.0
H605 H 0.52519 0.87224 0.99908 0.0
H606 H 0.52995 0.90368 0.97097 0.0
H607 H 0.51917 0.88229 0.89893 0.0
H608 H 0.54725 0.97468 0.83734 0.0
H609 H 0.52554 0.92475 0.65326 0.0
H610 H 0.59035 0.93943 0.92406 0.0
H611 H 0.56446 0.93006 0.98056 0.0
H612 H 0.5676 0.96165 0.9525 0.0
H613 H 0.55995 0.87653 0.69994 0.0
H614 H 0.52922 0.88239 0.66665 0.0
H615 H 0.53487 0.87021 0.76453 0.0
C616 C 0.63151 0.57541 0.84571 0.0
C617 C 0.65348 0.56253 0.85223 0.0
C618 C 0.61142 0.56517 0.80605 0.0
C619 C 0.6138 0.54185 0.77011 0.0
C620 C 0.63663 0.52969 0.77141 0.0
C621 C 0.65611 0.53993 0.81435 0.0
C622 C 0.58725 0.5785 0.80827 0.0
C623 C 0.64019 0.5055 0.72992 0.0
C624 C 0.55629 0.50357 0.76763 0.0
C625 C 0.54617 0.50967 0.69386 0.0
C626 C 0.57862 0.51347 0.79234 0.0
C627 C 0.5917 0.52902 0.74041 0.0
C628 C 0.58243 0.53384 0.66349 0.0
C629 C 0.55933 0.52482 0.64225 0.0
C630 C 0.5874 0.50851 0.87592 0.0
C631 C 0.59633 0.54939 0.60501 0.0
H632 H 0.62959 0.59284 0.87575 0.0
H633 H 0.67331 0.53018 0.8191 0.0
H634 H 0.57783 0.57775 0.75003 0.0
H635 H 0.57516 0.56958 0.85246 0.0
H636 H 0.58953 0.59798 0.82522 0.0
H637 H 0.65975 0.50013 0.72734 0.0
H638 H 0.62998 0.49098 0.76159 0.0
H639 H 0.63281 0.50641 0.66856 0.0
H640 H 0.54601 0.49208 0.80801 0.0
H641 H 0.5514 0.53024 0.58624 0.0
H642 H 0.58853 0.52595 0.90934 0.0
H643 H 0.60599 0.50046 0.87501 0.0
H644 H 0.57511 0.49587 0.90853 0.0
H645 H 0.59606 0.56874 0.62451 0.0
H646 H 0.58836 0.54836 0.54436 0.0
H647 H 0.61573 0.54353 0.60241 0.0
C648 C 0.93408 0.6383 0.9662 0.0
C649 C 0.93577 0.66135 0.93049 0.0
C650 C 0.94897 0.61891 0.94087 0.0
C651 C 0.96656 0.62305 0.88071 0.0
C652 C 0.9689 0.6466 0.84682 0.0
C653 C 0.95315 0.66537 0.8711 0.0
C654 C 0.94525 0.59382 0.97629 0.0
C655 C 0.98783 0.6519 0.78428 0.0
C656 C 0.01595 0.57451 0.85939 0.0
C657 C 0.00765 0.56169 0.79277 0.0
C658 C 0.00337 0.59526 0.88682 0.0
C659 C 0.98127 0.60237 0.84929 0.0
C660 C 0.97266 0.58917 0.78271 0.0
C661 C 0.98603 0.56911 0.75519 0.0
C662 C 0.01357 0.60939 0.95625 0.0
C663 C 0.9488 0.59558 0.74229 0.0
H664 H 0.92051 0.63523 0.01191 0.0
H665 H 0.95461 0.68332 0.84424 0.0
H666 H 0.93985 0.58077 0.92898 0.0
H667 H 0.96257 0.58704 0.00253 0.0
H668 H 0.93093 0.59372 0.02293 0.0
H669 H 0.98827 0.67151 0.76721 0.0
H670 H 0.00618 0.64655 0.80637 0.0
H671 H 0.98399 0.64088 0.7305 0.0
H672 H 0.03238 0.56839 0.88957 0.0
H673 H 0.97872 0.5585 0.70681 0.0
H674 H 0.00106 0.60785 0.00768 0.0
H675 H 0.01494 0.62907 0.94092 0.0
H676 H 0.03192 0.6027 0.97443 0.0
H677 H 0.9336 0.59441 0.78558 0.0
H678 H 0.94463 0.5833 0.69152 0.0
H679 H 0.94937 0.61465 0.72007 0.0
C680 C 0.05434 0.23101 0.20012 0.0
C681 C 0.07945 0.2267 0.2086 0.0
C682 C 0.03727 0.2125 0.21541 0.0
C683 C 0.04554 0.18925 0.24077 0.0
C684 C 0.07093 0.1846 0.24746 0.0
C685 C 0.0876 0.20349 0.23184 0.0
C686 C 0.01036 0.21803 0.20679 0.0
C687 C 0.08044 0.15999 0.27403 0.0
C688 C 0.00402 0.15328 0.37683 0.0
C689 C 0.99462 0.13538 0.32576 0.0
C690 C 0.02046 0.17094 0.34951 0.0
C691 C 0.02763 0.17079 0.26887 0.0
C692 C 0.01777 0.15312 0.21634 0.0
C693 C 0.00134 0.13555 0.24552 0.0
C694 C 0.03046 0.18951 0.40742 0.0
C695 C 0.02522 0.15216 0.13022 0.0
H696 H 0.04804 0.24894 0.1818 0.0
H697 H 0.10697 0.20032 0.24038 0.0
H698 H 0.00144 0.20402 0.16891 0.0
H699 H 0.00147 0.2173 0.26586 0.0
H700 H 0.007 0.23635 0.18047 0.0
H701 H 0.10072 0.15897 0.27234 0.0
H702 H 0.07432 0.15623 0.33554 0.0
H703 H 0.07289 0.14534 0.23567 0.0
H704 H 0.99864 0.15331 0.43873 0.0
H705 H 0.99436 0.12151 0.20618 0.0
H706 H 0.02629 0.20828 0.3864 0.0
H707 H 0.05064 0.18782 0.41112 0.0
H708 H 0.0228 0.18725 0.46797 0.0
H709 H 0.0253 0.17071 0.10353 0.0
H710 H 0.01299 0.1402 0.09464 0.0
H711 H 0.04406 0.14484 0.12622 0.0
C712 C 0.28604 0.07083 0.18615 0.0
C713 C 0.29022 0.0958 0.17402 0.0
C714 C 0.3054 0.05489 0.20385 0.0
C715 C 0.32944 0.06424 0.21061 0.0
C716 C 0.33377 0.08948 0.19844 0.0
C717 C 0.31405 0.10499 0.18056 0.0
C718 C 0.30006 0.02809 0.21641 0.0
C719 C 0.35915 0.10013 0.20543 0.0
C720 C 0.37226 0.02784 0.34234 0.0
C721 C 0.3862 0.0148 0.28682 0.0
C722 C 0.35422 0.04442 0.31809 0.0
C723 C 0.34967 0.04785 0.23616 0.0
C724 C 0.36379 0.03498 0.17952 0.0
C725 C 0.38188 0.01854 0.20557 0.0
C726 C 0.33986 0.05809 0.38038 0.0
C727 C 0.35958 0.03833 0.09157 0.0
H728 H 0.26761 0.06373 0.18108 0.0
H729 H 0.3172 0.12441 0.17331 0.0
H730 H 0.31164 0.01685 0.17662 0.0
H731 H 0.30464 0.02287 0.27832 0.0
H732 H 0.28058 0.02354 0.20507 0.0
H733 H 0.35932 0.12025 0.19662 0.0
H734 H 0.36698 0.09593 0.26469 0.0
H735 H 0.37132 0.09165 0.16064 0.0
H736 H 0.37524 0.02486 0.40522 0.0
H737 H 0.39282 0.00881 0.16233 0.0
H738 H 0.32025 0.05306 0.37632 0.0
H739 H 0.34118 0.07807 0.36992 0.0
H740 H 0.34641 0.05414 0.44152 0.0
H741 H 0.35958 0.05803 0.07603 0.0
H742 H 0.34135 0.03096 0.07528 0.0
H743 H 0.37365 0.02891 0.05532 0.0
C744 C 0.41614 0.28578 0.2353 0.0
C745 C 0.40604 0.28098 0.16051 0.0
C746 C 0.42973 0.30713 0.249 0.0
C747 C 0.43297 0.3242 0.18661 0.0
C748 C 0.4218 0.31995 0.112 0.0
C749 C 0.40845 0.29835 0.09985 0.0
C750 C 0.44118 0.31112 0.3296 0.0
C751 C 0.42405 0.33815 0.04502 0.0
C752 C 0.45468 0.38765 0.24491 0.0
C753 C 0.48006 0.3857 0.2339 0.0
C754 C 0.43904 0.36796 0.22868 0.0
C755 C 0.44891 0.34591 0.19887 0.0
C756 C 0.47432 0.34419 0.18386 0.0
C757 C 0.48961 0.36403 0.20207 0.0
C758 C 0.41203 0.37064 0.24481 0.0
C759 C 0.48543 0.32114 0.15037 0.0
H760 H 0.41413 0.2724 0.28234 0.0
H761 H 0.39993 0.29499 0.04275 0.0
H762 H 0.46138 0.31141 0.32401 0.0
H763 H 0.43551 0.32909 0.35385 0.0
H764 H 0.43606 0.29664 0.3727 0.0
H765 H 0.41633 0.33108 0.9885 0.0
H766 H 0.41421 0.35518 0.06074 0.0
H767 H 0.44347 0.34313 0.03556 0.0
H768 H 0.447 0.40455 0.2672 0.0
H769 H 0.50915 0.36225 0.19364 0.0
H770 H 0.4056 0.35563 0.28383 0.0
H771 H 0.40167 0.36931 0.18832 0.0
H772 H 0.40753 0.38836 0.27343 0.0
H773 H 0.48262 0.30577 0.19238 0.0
H774 H 0.50532 0.32308 0.13904 0.0
H775 H 0.4762 0.3162 0.09387 0.0
C776 C 0.21649 0.48211 0.22115 0.0
C777 C 0.22745 0.48426 0.14646 0.0
C778 C 0.19893 0.49897 0.24644 0.0
C779 C 0.19193 0.51833 0.19537 0.0
C780 C 0.20297 0.52072 0.11994 0.0
C781 C 0.22074 0.50368 0.09646 0.0
C782 C 0.18769 0.49589 0.32769 0.0
C783 C 0.19562 0.54084 0.0634 0.0
C784 C 0.12993 0.54221 0.25387 0.0
C785 C 0.13644 0.56133 0.30503 0.0
C786 C 0.14778 0.52935 0.21148 0.0
C787 C 0.17268 0.53561 0.22171 0.0
C788 C 0.17911 0.55625 0.26797 0.0
C789 C 0.16082 0.56898 0.309 0.0
C790 C 0.14014 0.50779 0.1613 0.0
C791 C 0.20546 0.56355 0.2799 0.0
H792 H 0.22168 0.4672 0.26013 0.0
H793 H 0.22901 0.50528 0.03831 0.0
H794 H 0.19029 0.51278 0.36313 0.0
H795 H 0.16772 0.49282 0.32186 0.0
H796 H 0.19572 0.48029 0.36098 0.0
H797 H 0.2079 0.54187 0.01112 0.0
H798 H 0.17671 0.53755 0.04206 0.0
H799 H 0.1957 0.55879 0.09397 0.0
H800 H 0.11098 0.53651 0.25026 0.0
H801 H 0.16584 0.58372 0.34881 0.0
H802 H 0.14457 0.49059 0.19319 0.0
H803 H 0.15024 0.50758 0.10434 0.0
H804 H 0.12022 0.50796 0.14841 0.0
H805 H 0.21458 0.55003 0.31921 0.0
H806 H 0.20716 0.58192 0.30748 0.0
H807 H 0.21538 0.56357 0.22257 0.0
C808 C 0.94987 0.79977 0.11346 0.0
C809 C 0.93458 0.79264 0.05071 0.0
C810 C 0.9667 0.81895 0.10412 0.0
C811 C 0.96858 0.83082 0.02974 0.0
C812 C 0.95288 0.82392 0.96666 0.0
C813 C 0.93617 0.80483 0.97783 0.0
C814 C 0.98276 0.82618 0.1732 0.0
C815 C 0.95409 0.83636 0.88671 0.0
C816 C 0.9982 0.89251 0.99635 0.0
C817 C 0.02036 0.88567 0.96112 0.0
C818 C 0.98187 0.87481 0.02481 0.0
C819 C 0.9876 0.84974 0.01575 0.0
C820 C 0.01059 0.84283 0.98442 0.0
C821 C 0.0268 0.86093 0.95794 0.0
C822 C 0.95791 0.88298 0.06009 0.0
C823 C 0.01741 0.81628 0.97403 0.0
H824 H 0.94929 0.78985 0.16905 0.0
H825 H 0.92439 0.79929 0.92921 0.0
H826 H 0.00214 0.82221 0.15903 0.0
H827 H 0.9813 0.84613 0.18415 0.0
H828 H 0.97782 0.81634 0.22858 0.0
H829 H 0.93966 0.8298 0.84538 0.0
H830 H 0.95211 0.85642 0.89386 0.0
H831 H 0.9722 0.83295 0.85934 0.0
H832 H 0.99335 0.9117 0.9995 0.0
H833 H 0.04389 0.85566 0.93035 0.0
H834 H 0.95905 0.90194 0.08336 0.0
H835 H 0.9522 0.87074 0.10899 0.0
H836 H 0.94349 0.88235 0.01369 0.0
H837 H 0.01424 0.80601 0.02983 0.0
H838 H 0.03682 0.81396 0.95636 0.0
H839 H 0.00565 0.80799 0.92753 0.0
C840 C 0.70094 0.89431 0.02073 0.0
C841 C 0.72519 0.90133 0.00723 0.0
C842 C 0.68149 0.90983 0.0004 0.0
C843 C 0.68653 0.93286 0.96574 0.0
C844 C 0.71096 0.93953 0.94868 0.0
C845 C 0.73003 0.92356 0.96926 0.0
C846 C 0.65563 0.90195 0.01834 0.0
C847 C 0.71704 0.9639 0.91161 0.0
C848 C 0.63377 0.9659 0.86563 0.0
C849 C 0.62682 0.98288 0.92413 0.0
C850 C 0.65365 0.95007 0.87742 0.0
C851 C 0.66628 0.95037 0.95066 0.0
C852 C 0.65936 0.96718 0.01024 0.0
C853 C 0.64014 0.98354 0.99562 0.0
C854 C 0.6612 0.93298 0.81156 0.0
C855 C 0.6723 0.96793 0.08954 0.0
H856 H 0.69723 0.87682 0.04844 0.0
H857 H 0.74882 0.92893 0.95875 0.0
H858 H 0.64429 0.90278 0.96371 0.0
H859 H 0.65477 0.8831 0.04274 0.0
H860 H 0.64736 0.91467 0.06198 0.0
H861 H 0.73666 0.96534 0.89552 0.0
H862 H 0.70584 0.96695 0.85754 0.0
H863 H 0.71262 0.97879 0.95391 0.0
H864 H 0.62354 0.96461 0.81075 0.0
H865 H 0.63574 0.99695 0.04059 0.0
H866 H 0.65971 0.91376 0.83193 0.0
H867 H 0.68063 0.93612 0.79601 0.0
H868 H 0.64998 0.93542 0.75712 0.0
H869 H 0.67266 0.94944 0.11657 0.0
H870 H 0.66344 0.9807 0.13188 0.0
H871 H 0.69154 0.97371 0.08104 0.0
C872 C 0.56837 0.71949 0.95101 0.0
C873 C 0.57648 0.72417 0.02841 0.0
C874 C 0.5537 0.69906 0.93423 0.0
C875 C 0.54728 0.6828 0.99625 0.0
C876 C 0.55636 0.68689 0.07386 0.0
C877 C 0.57081 0.70759 0.08907 0.0
C878 C 0.54479 0.69502 0.8504 0.0
C879 C 0.55091 0.66929 0.14051 0.0
C880 C 0.48939 0.64553 0.96585 0.0
C881 C 0.49876 0.62309 0.93956 0.0
C882 C 0.50503 0.66489 0.98636 0.0
C883 C 0.53067 0.66182 0.98009 0.0
C884 C 0.54027 0.63895 0.95631 0.0
C885 C 0.52422 0.61991 0.93632 0.0
C886 C 0.49413 0.68885 0.0132 0.0
C887 C 0.56744 0.63467 0.94905 0.0
H888 H 0.57299 0.73217 0.90392 0.0
H889 H 0.57791 0.71067 0.14833 0.0
H890 H 0.55066 0.67674 0.82922 0.0
H891 H 0.52451 0.69536 0.84894 0.0
H892 H 0.55176 0.70909 0.80865 0.0
H893 H 0.55904 0.67522 0.19778 0.0
H894 H 0.53086 0.66731 0.14773 0.0
H895 H 0.55822 0.65093 0.12576 0.0
H896 H 0.46978 0.64824 0.96814 0.0
H897 H 0.53169 0.60249 0.91758 0.0
H898 H 0.4992 0.70357 0.97101 0.0
H899 H 0.50162 0.69394 0.07219 0.0
H900 H 0.47388 0.68807 0.01734 0.0
H901 H 0.57376 0.64184 0.89102 0.0
H902 H 0.57197 0.61489 0.95187 0.0
H903 H 0.57782 0.64426 0.99629 0.0
C904 C 0.79454 0.53928 0.08941 0.0
C905 C 0.78545 0.55442 0.02902 0.0
C906 C 0.81612 0.52583 0.07896 0.0
C907 C 0.82852 0.5271 0.00551 0.0
C908 C 0.81928 0.54219 0.94398 0.0
C909 C 0.79778 0.55563 0.95644 0.0
C910 C 0.82542 0.50999 0.14599 0.0
C911 C 0.83203 0.54403 0.86481 0.0
C912 C 0.89511 0.50901 0.98625 0.0
C913 C 0.89322 0.48604 0.94973 0.0
C914 C 0.87418 0.52222 0.00767 0.0
C915 C 0.85083 0.51222 0.99186 0.0
C916 C 0.84883 0.48854 0.95844 0.0
C917 C 0.87009 0.47569 0.9379 0.0
C918 C 0.87708 0.54725 0.04426 0.0
C919 C 0.82422 0.47725 0.94102 0.0
H920 H 0.78442 0.53741 0.14424 0.0
H921 H 0.79063 0.56716 0.90945 0.0
H922 H 0.8251 0.49052 0.12771 0.0
H923 H 0.84467 0.51469 0.16011 0.0
H924 H 0.81434 0.51206 0.20074 0.0
H925 H 0.82269 0.55688 0.82364 0.0
H926 H 0.85114 0.55028 0.87348 0.0
H927 H 0.83282 0.52575 0.8364 0.0
H928 H 0.91302 0.5169 0.9964 0.0
H929 H 0.86858 0.45803 0.90915 0.0
H930 H 0.86628 0.54857 0.09972 0.0
H931 H 0.86993 0.56132 0.00279 0.0
H932 H 0.89646 0.5516 0.05805 0.0
H933 H 0.81257 0.47766 0.99478 0.0
H934 H 0.8258 0.45804 0.92035 0.0
H935 H 0.81473 0.48804 0.89445 0.0
C936 C 0.06071 0.1566 0.92012 0.0
C937 C 0.07689 0.15352 0.98392 0.0
C938 C 0.04916 0.13649 0.88483 0.0
C939 C 0.05342 0.11273 0.91525 0.0
C940 C 0.06924 0.10958 0.98114 0.0
C941 C 0.08112 0.12999 0.01392 0.0
C942 C 0.03264 0.14067 0.81409 0.0
C943 C 0.07388 0.0847 0.01656 0.0
C944 C 0.00488 0.06769 0.84861 0.0
C945 C 0.01611 0.05702 0.78261 0.0
C946 C 0.01749 0.08459 0.89626 0.0
C947 C 0.04166 0.09138 0.87594 0.0
C948 C 0.05336 0.07989 0.81107 0.0
C949 C 0.04035 0.06303 0.76479 0.0
C950 C 0.00459 0.096 0.96611 0.0
C951 C 0.07913 0.08645 0.78743 0.0
H952 H 0.05741 0.17475 0.89661 0.0
H953 H 0.09341 0.12756 0.06388 0.0
H954 H 0.03956 0.13029 0.76221 0.0
H955 H 0.01399 0.13384 0.82707 0.0
H956 H 0.03135 0.16029 0.79752 0.0
H957 H 0.08332 0.08583 0.0749 0.0
H958 H 0.05643 0.07468 0.02443 0.0
H959 H 0.0855 0.07395 0.97561 0.0
H960 H 0.98605 0.06312 0.86204 0.0
H961 H 0.04891 0.0554 0.71274 0.0
H962 H 0.0006 0.11548 0.95306 0.0
H963 H 0.01648 0.0955 0.01954 0.0
H964 H 0.98711 0.08661 0.97989 0.0
H965 H 0.07948 0.10543 0.76419 0.0
H966 H 0.08643 0.07401 0.74105 0.0
H967 H 0.09146 0.08575 0.8397 0.0
C968 C 0.3827 0.0887 0.94394 0.0
C969 C 0.36037 0.08706 0.9033 0.0
C970 C 0.40361 0.07667 0.91567 0.0
C971 C 0.40223 0.06302 0.84444 0.0
C972 C 0.37973 0.06141 0.80305 0.0
C973 C 0.35905 0.07332 0.83324 0.0
C974 C 0.42714 0.07863 0.96188 0.0
C975 C 0.37746 0.04706 0.72679 0.0
C976 C 0.45708 0.04837 0.71605 0.0
C977 C 0.46097 0.02366 0.73379 0.0
C978 C 0.43909 0.06192 0.75559 0.0
C979 C 0.42411 0.05023 0.81253 0.0
C980 C 0.42843 0.02542 0.83224 0.0
C981 C 0.44673 0.01239 0.79213 0.0
C982 C 0.43535 0.08839 0.73332 0.0
C983 C 0.41294 0.01231 0.8928 0.0
H984 H 0.38378 0.09913 0.99854 0.0
H985 H 0.34185 0.07201 0.80148 0.0
H986 H 0.43427 0.06014 0.97576 0.0
H987 H 0.44098 0.08808 0.92516 0.0
H988 H 0.42489 0.08889 0.01828 0.0
H989 H 0.35865 0.04761 0.7019 0.0
H990 H 0.39025 0.05446 0.6818 0.0
H991 H 0.38257 0.02769 0.73728 0.0
H992 H 0.46752 0.05698 0.66945 0.0
H993 H 0.44957 0.99317 0.80501 0.0
H994 H 0.43397 0.09988 0.78734 0.0
H995 H 0.41795 0.09034 0.69994 0.0
H996 H 0.45045 0.0955 0.69586 0.0
H997 H 0.41194 0.02305 0.9485 0.0
H998 H 0.42014 0.99381 0.90686 0.0
H999 H 0.39402 0.01039 0.8698 0.0
C1000 C 0.46271 0.33247 0.87085 0.0
C1001 C 0.44634 0.31761 0.82857 0.0
C1002 C 0.46962 0.35546 0.84173 0.0
C1003 C 0.46041 0.3635 0.76762 0.0
C1004 C 0.44489 0.34806 0.72274 0.0
C1005 C 0.43791 0.32535 0.75401 0.0
C1006 C 0.48599 0.37152 0.89173 0.0
C1007 C 0.43501 0.35588 0.64286 0.0
C1008 C 0.45508 0.43153 0.72855 0.0
C1009 C 0.4758 0.43603 0.68194 0.0
C1010 C 0.4501 0.40809 0.75782 0.0
C1011 C 0.46597 0.38853 0.73878 0.0
C1012 C 0.48682 0.39285 0.69134 0.0
C1013 C 0.49155 0.41658 0.66373 0.0
C1014 C 0.42774 0.40425 0.80872 0.0
C1015 C 0.504 0.37237 0.66915 0.0
H1016 H 0.46951 0.32653 0.92817 0.0
H1017 H 0.42542 0.31389 0.72067 0.0
H1018 H 0.50224 0.37719 0.85714 0.0
H1019 H 0.47602 0.3884 0.90861 0.0
H1020 H 0.49224 0.36222 0.94681 0.0
H1021 H 0.42459 0.34106 0.61301 0.0
H1022 H 0.42277 0.37188 0.65028 0.0
H1023 H 0.45018 0.36162 0.6035 0.0
H1024 H 0.44254 0.44627 0.74175 0.0
H1025 H 0.50755 0.4198 0.62746 0.0
H1026 H 0.43308 0.39604 0.86645 0.0
H1027 H 0.41509 0.39129 0.77912 0.0
H1028 H 0.41776 0.42157 0.82031 0.0
H1029 H 0.5115 0.36368 0.7235 0.0
H1030 H 0.51947 0.3788 0.63203 0.0
H1031 H 0.4939 0.35805 0.63597 0.0
C1032 C 0.18632 0.43174 0.86355 0.0
C1033 C 0.20518 0.44729 0.88844 0.0
C1034 C 0.16398 0.44125 0.83613 0.0
C1035 C 0.16024 0.46688 0.83562 0.0
C1036 C 0.17923 0.48264 0.86086 0.0
C1037 C 0.20157 0.47267 0.88606 0.0
C1038 C 0.14431 0.42388 0.80819 0.0
C1039 C 0.17573 0.51001 0.86335 0.0
C1040 C 0.11005 0.4932 0.70478 0.0
C1041 C 0.09072 0.49516 0.75856 0.0
C1042 C 0.13281 0.48397 0.72902 0.0
C1043 C 0.13637 0.47717 0.80937 0.0
C1044 C 0.11701 0.4799 0.86439 0.0
C1045 C 0.09426 0.48859 0.83794 0.0
C1046 C 0.15282 0.48092 0.66829 0.0
C1047 C 0.12025 0.47344 0.95092 0.0
H1048 H 0.18905 0.41212 0.86536 0.0
H1049 H 0.21597 0.48476 0.90634 0.0
H1050 H 0.12796 0.4256 0.84655 0.0
H1051 H 0.13859 0.42864 0.74686 0.0
H1052 H 0.15048 0.40453 0.80909 0.0
H1053 H 0.19267 0.51978 0.88112 0.0
H1054 H 0.16982 0.51689 0.80441 0.0
H1055 H 0.16109 0.51462 0.90626 0.0
H1056 H 0.10706 0.49808 0.64311 0.0
H1057 H 0.07931 0.49046 0.87945 0.0
H1058 H 0.15824 0.4614 0.6647 0.0
H1059 H 0.16924 0.49141 0.68653 0.0
H1060 H 0.14709 0.48714 0.60828 0.0
H1061 H 0.12367 0.45355 0.95703 0.0
H1062 H 0.10396 0.47826 0.98689 0.0
H1063 H 0.13639 0.48307 0.97575 0.0
C1064 C 0.93163 0.89091 0.25748 0.0
C1065 C 0.93357 0.86752 0.29102 0.0
C1066 C 0.94302 0.91114 0.29294 0.0
C1067 C 0.95643 0.90795 0.36417 0.0
C1068 C 0.95839 0.88437 0.39836 0.0
C1069 C 0.94695 0.86447 0.3614 0.0
C1070 C 0.9403 0.93592 0.25476 0.0
C1071 C 0.97268 0.88013 0.47399 0.0
C1072 C 0.00551 0.95193 0.43415 0.0
C1073 C 0.99374 0.9636 0.49733 0.0
C1074 C 0.99312 0.93475 0.387 0.0
C1075 C 0.96844 0.92905 0.404 0.0
C1076 C 0.95619 0.94161 0.46559 0.0
C1077 C 0.96914 0.95835 0.5125 0.0
C1078 C 0.0068 0.9218 0.32167 0.0
C1079 C 0.92974 0.93651 0.48468 0.0
H1080 H 0.9212 0.89345 0.20331 0.0
H1081 H 0.94865 0.84644 0.38753 0.0
H1082 H 0.92758 0.94712 0.29075 0.0
H1083 H 0.95811 0.94556 0.25279 0.0
H1084 H 0.93289 0.93469 0.19342 0.0
H1085 H 0.97271 0.86061 0.49225 0.0
H1086 H 0.99188 0.88616 0.46608 0.0
H1087 H 0.96477 0.89116 0.52284 0.0
H1088 H 0.02464 0.95576 0.42309 0.0
H1089 H 0.96013 0.96662 0.5626 0.0
H1090 H 0.9962 0.92248 0.26547 0.0
H1091 H 0.00918 0.90226 0.33758 0.0
H1092 H 0.02512 0.92991 0.31122 0.0
H1093 H 0.91851 0.93696 0.42979 0.0
H1094 H 0.92214 0.94994 0.52752 0.0
H1095 H 0.92804 0.91795 0.51062 0.0
C1096 C 0.64001 0.93641 0.26524 0.0
C1097 C 0.66207 0.93665 0.30786 0.0
C1098 C 0.61954 0.94947 0.29218 0.0
C1099 C 0.62103 0.96262 0.36441 0.0
C1100 C 0.64333 0.96307 0.40727 0.0
C1101 C 0.66361 0.95023 0.37819 0.0
C1102 C 0.59626 0.94849 0.24426 0.0
C1103 C 0.64568 0.97681 0.48467 0.0
C1104 C 0.57697 0.01312 0.42273 0.0
C1105 C 0.56243 0.00118 0.47888 0.0
C1106 C 0.59527 0.00044 0.38131 0.0
C1107 C 0.59925 0.97533 0.39741 0.0
C1108 C 0.5839 0.963 0.45175 0.0
C1109 C 0.56594 0.97616 0.49263 0.0
C1110 C 0.61096 0.01407 0.32259 0.0
C1111 C 0.58713 0.93614 0.46946 0.0
H1112 H 0.63871 0.92606 0.21055 0.0
H1113 H 0.68059 0.9505 0.41145 0.0
H1114 H 0.5839 0.93471 0.27098 0.0
H1115 H 0.5867 0.96637 0.24445 0.0
H1116 H 0.59974 0.94308 0.18174 0.0
H1117 H 0.66445 0.9758 0.50979 0.0
H1118 H 0.64083 0.99631 0.47579 0.0
H1119 H 0.63273 0.96919 0.52881 0.0
H1120 H 0.57434 0.03252 0.41246 0.0
H1121 H 0.55516 0.96694 0.5371 0.0
H1122 H 0.61156 0.00409 0.2653 0.0
H1123 H 0.62997 0.0152 0.34538 0.0
H1124 H 0.60416 0.03291 0.31156 0.0
H1125 H 0.58744 0.9255 0.41345 0.0
H1126 H 0.5723 0.92886 0.50774 0.0
H1127 H 0.60489 0.93317 0.49991 0.0
C1128 C 0.54521 0.68278 0.42885 0.0
C1129 C 0.53527 0.69173 0.35777 0.0
C1130 C 0.53826 0.6599 0.4588 0.0
C1131 C 0.52127 0.64552 0.41589 0.0
C1132 C 0.5105 0.65484 0.34568 0.0
C1133 C 0.51735 0.67801 0.31814 0.0
C1134 C 0.54973 0.65076 0.53487 0.0
C1135 C 0.49256 0.6399 0.29772 0.0
C1136 C 0.52517 0.57689 0.44434 0.0
C1137 C 0.50527 0.57242 0.49457 0.0
C1138 C 0.53033 0.60055 0.41726 0.0
C1139 C 0.51558 0.62032 0.4426 0.0
C1140 C 0.49563 0.61602 0.49389 0.0
C1141 C 0.4906 0.5921 0.51881 0.0
C1142 C 0.55164 0.60439 0.36185 0.0
C1143 C 0.47976 0.63672 0.5231 0.0
H1144 H 0.5589 0.69338 0.46022 0.0
H1145 H 0.50939 0.68491 0.26361 0.0
H1146 H 0.53537 0.64471 0.57688 0.0
H1147 H 0.56144 0.63468 0.52214 0.0
H1148 H 0.5611 0.66494 0.5643 0.0
H1149 H 0.48522 0.65014 0.24593 0.0
H1150 H 0.50167 0.62309 0.27575 0.0
H1151 H 0.47706 0.63405 0.33551 0.0
H1152 H 0.5369 0.56196 0.42644 0.0
H1153 H 0.47527 0.58893 0.55802 0.0
H1154 H 0.56544 0.61637 0.39048 0.0
H1155 H 0.5454 0.61375 0.30696 0.0
H1156 H 0.56062 0.58693 0.34507 0.0
H1157 H 0.49111 0.65029 0.55536 0.0
H1158 H 0.46503 0.6303 0.56327 0.0
H1159 H 0.47127 0.64633 0.47202 0.0
C1160 C 0.8638 0.55421 0.32874 0.0
C1161 C 0.84413 0.56187 0.37593 0.0
C1162 C 0.88643 0.54821 0.36278 0.0
C1163 C 0.88949 0.54992 0.44602 0.0
C1164 C 0.86972 0.55756 0.49407 0.0
C1165 C 0.84725 0.56342 0.45843 0.0
C1166 C 0.90709 0.54013 0.30958 0.0
C1167 C 0.87235 0.55961 0.5831 0.0
C1168 C 0.94147 0.5142 0.54075 0.0
C1169 C 0.95926 0.5324 0.55057 0.0
C1170 C 0.91861 0.51968 0.50719 0.0
C1171 C 0.91347 0.5439 0.48271 0.0
C1172 C 0.93129 0.56237 0.49287 0.0
C1173 C 0.95389 0.55643 0.52712 0.0
C1174 C 0.89997 0.49953 0.49778 0.0
C1175 C 0.92652 0.58844 0.46761 0.0
H1176 H 0.86153 0.55286 0.26496 0.0
H1177 H 0.83216 0.56932 0.49528 0.0
H1178 H 0.92282 0.55276 0.31614 0.0
H1179 H 0.91347 0.52167 0.32741 0.0
H1180 H 0.90164 0.53957 0.24602 0.0
H1181 H 0.85518 0.56571 0.61206 0.0
H1182 H 0.87773 0.54168 0.6085 0.0
H1183 H 0.88706 0.57279 0.59805 0.0
H1184 H 0.94537 0.49562 0.55909 0.0
H1185 H 0.96725 0.57076 0.53615 0.0
H1186 H 0.89508 0.49738 0.43422 0.0
H1187 H 0.88298 0.50437 0.52992 0.0
H1188 H 0.90674 0.48171 0.52059 0.0
H1189 H 0.92216 0.58907 0.4033 0.0
H1190 H 0.94242 0.60057 0.47914 0.0
H1191 H 0.91045 0.59578 0.49977 0.0
loop_
_geom_bond_atom_site_label_1
_geom_bond_atom_site_label_2
_geom_bond_distance
_geom_bond_site_symmetry_2
_ccdc_geom_bond_type
O0 Cd1 2.300 . S
O0 C7 1.275 . S
Cd1 O0 2.300 . S
Cd1 O9 2.381 . S
Cd1 O10 2.378 . S
O2 Cd3 2.385 . S
O2 C7 1.255 . S
Cd3 O2 2.385 . S
Cd3 O4 2.317 . S
O4 Cd3 2.317 . S
O4 C5 1.232 . S
C5 O4 1.232 . S
C5 O6 1.218 . S
O6 C5 1.218 . S
C7 O0 1.275 . S
C7 O2 1.255 . S
C8 O9 1.258 . S
C8 O10 1.256 . S
O9 Cd1 2.381 . S
O9 C8 1.258 . S
O10 Cd1 2.378 . S
O10 C8 1.256 . S
O11 Cd12 2.300 . S
O11 C18 1.275 . S
Cd12 O11 2.300 . S
Cd12 O20 2.381 . S
Cd12 O21 2.378 . S
O13 Cd14 2.385 . S
O13 C18 1.255 . S
Cd14 O13 2.385 . S
Cd14 O15 2.317 . S
O15 Cd14 2.317 . S
O15 C16 1.232 . S
C16 O15 1.232 . S
C16 O17 1.218 . S
O17 C16 1.218 . S
C18 O11 1.275 . S
C18 O13 1.255 . S
C19 O20 1.258 . S
C19 O21 1.256 . S
O20 Cd12 2.381 . S
O20 C19 1.258 . S
O21 Cd12 2.378 . S
O21 C19 1.256 . S
O22 Cd23 2.300 . S
O22 C29 1.275 . S
Cd23 O22 2.300 . S
Cd23 O31 2.381 . S
Cd23 O32 2.378 . S
O24 Cd25 2.385 1_565 S
O24 C29 1.255 . S
Cd25 O24 2.385 1_545 S
Cd25 O26 2.317 1_545 S
O26 Cd25 2.317 1_565 S
O26 C27 1.232 . S
C27 O26 1.232 . S
C27 O28 1.218 . S
O28 C27 1.218 . S
C29 O22 1.275 . S
C29 O24 1.255 . S
C30 O31 1.258 . S
C30 O32 1.256 . S
O31 Cd23 2.381 . S
O31 C30 1.258 . S
O32 Cd23 2.378 . S
O32 C30 1.256 . S
O33 Cd34 2.300 . S
O33 C40 1.275 . S
Cd34 O33 2.300 . S
Cd34 O42 2.381 . S
Cd34 O43 2.378 . S
O35 Cd36 2.385 . S
O35 C40 1.255 . S
Cd36 O35 2.385 . S
Cd36 O37 2.317 . S
O37 Cd36 2.317 . S
O37 C38 1.232 . S
C38 O37 1.232 . S
C38 O39 1.218 . S
O39 C38 1.218 . S
C40 O33 1.275 . S
C40 O35 1.255 . S
C41 O42 1.258 . S
C41 O43 1.256 . S
O42 Cd34 2.381 . S
O42 C41 1.258 . S
O43 Cd34 2.378 . S
O43 C41 1.256 . S
O44 Cd45 2.300 . S
O44 C51 1.275 . S
Cd45 O44 2.300 . S
Cd45 O53 2.381 . S
Cd45 O54 2.378 . S
O46 Cd47 2.385 1_554 S
O46 C51 1.255 . S
Cd47 O46 2.385 1_556 S
Cd47 O48 2.317 . S
O48 Cd47 2.317 . S
O48 C49 1.232 . S
C49 O48 1.232 . S
C49 O50 1.218 . S
O50 C49 1.218 . S
C51 O44 1.275 . S
C51 O46 1.255 . S
C52 O53 1.258 . S
C52 O54 1.256 . S
O53 Cd45 2.381 . S
O53 C52 1.258 . S
O54 Cd45 2.378 . S
O54 C52 1.256 . S
O55 Cd56 2.300 . S
O55 C62 1.275 . S
Cd56 O55 2.300 . S
Cd56 O64 2.381 . S
Cd56 O65 2.378 . S
O57 Cd58 2.385 1_554 S
O57 C62 1.255 . S
Cd58 O57 2.385 1_556 S
Cd58 O59 2.317 . S
O59 Cd58 2.317 . S
O59 C60 1.232 . S
C60 O59 1.232 . S
C60 O61 1.218 . S
O61 C60 1.218 . S
C62 O55 1.275 . S
C62 O57 1.255 . S
C63 O64 1.258 . S
C63 O65 1.256 . S
O64 Cd56 2.381 . S
O64 C63 1.258 . S
O65 Cd56 2.378 . S
O65 C63 1.256 . S
O66 Cd67 2.300 . S
O66 C73 1.275 . S
Cd67 O66 2.300 . S
Cd67 O75 2.381 . S
Cd67 O76 2.378 . S
O68 Cd69 2.385 1_554 S
O68 C73 1.255 . S
Cd69 O68 2.385 1_556 S
Cd69 O70 2.317 . S
O70 Cd69 2.317 . S
O70 C71 1.232 . S
C71 O70 1.232 . S
C71 O72 1.218 . S
O72 C71 1.218 . S
C73 O66 1.275 . S
C73 O68 1.255 . S
C74 O75 1.258 . S
C74 O76 1.256 . S
O75 Cd67 2.381 . S
O75 C74 1.258 . S
O76 Cd67 2.378 . S
O76 C74 1.256 . S
O77 Cd78 2.300 . S
O77 C84 1.275 . S
Cd78 O77 2.300 . S
Cd78 O86 2.381 . S
Cd78 O87 2.378 . S
O79 Cd80 2.385 1_554 S
O79 C84 1.255 . S
Cd80 O79 2.385 1_556 S
Cd80 O81 2.317 . S
O81 Cd80 2.317 . S
O81 C82 1.232 . S
C82 O81 1.232 . S
C82 O83 1.218 . S
O83 C82 1.218 . S
C84 O77 1.275 . S
C84 O79 1.255 . S
C85 O86 1.258 . S
C85 O87 1.256 . S
O86 Cd78 2.381 . S
O86 C85 1.258 . S
O87 Cd78 2.378 . S
O87 C85 1.256 . S
Tb88 N119 2.660 1_565 S
Tb88 N126 2.606 . S
Tb88 O132 2.546 . S
Tb88 O133 2.610 1_455 S
Tb88 O135 2.320 1_455 S
Tb88 O136 2.552 . S
Tb88 O137 2.413 . S
Tb88 O139 2.362 1_565 S
Tb88 O140 2.421 . S
Tb88 C152 2.833 . S
C89 C92 1.432 1_545 S
C89 C93 1.414 . S
C89 N96 1.359 . S
C90 C92 1.417 . S
C90 C94 1.432 . S
C90 C102 1.410 . S
C91 C93 1.444 1_565 S
C91 C94 1.317 . S
C91 H114 0.929 . S
C92 C89 1.432 1_565 S
C92 C90 1.417 . S
C92 N100 1.360 1_565 S
C93 C89 1.414 . S
C93 C91 1.444 1_545 S
C93 C98 1.385 . S
C94 C90 1.432 . S
C94 C91 1.317 . S
C94 H106 0.930 . S
C95 C97 1.392 . S
C95 C98 1.370 . S
C95 H107 0.931 . S
N96 C89 1.359 . S
N96 C97 1.327 . S
N96 Tb99 2.600 . S
C97 C95 1.392 . S
C97 N96 1.327 . S
C97 H104 0.930 . S
C98 C93 1.385 . S
C98 C95 1.370 . S
C98 H117 0.930 . S
Tb99 N96 2.600 . S
Tb99 N100 2.660 . S
Tb99 O133 2.362 1_545 S
Tb99 O134 2.421 . S
Tb99 O138 2.546 . S
Tb99 O139 2.610 1_655 S
Tb99 O141 2.320 1_655 S
Tb99 O142 2.552 1_655 S
Tb99 O143 2.413 . S
Tb99 C163 2.833 . S
N100 C92 1.360 1_545 S
N100 Tb99 2.660 . S
N100 C101 1.305 1_645 S
C101 N100 1.305 1_465 S
C101 C103 1.407 . S
C101 H108 0.930 . S
C102 C90 1.410 . S
C102 C103 1.345 1_655 S
C102 H110 0.930 . S
C103 C101 1.407 . S
C103 C102 1.345 1_455 S
C103 H105 0.930 . S
H104 C97 0.930 . S
H105 C103 0.930 . S
H106 C94 0.930 . S
H107 C95 0.931 . S
H108 C101 0.930 . S
H109 C123 0.930 1_655 S
H110 C102 0.930 . S
H111 C129 0.930 . S
H112 C120 0.930 1_655 S
H113 C127 0.931 . S
H114 C91 0.929 . S
H115 C121 0.930 1_554 S
H116 C154 0.930 1_554 S
H117 C98 0.930 . S
H118 C153 0.929 . S
N119 Tb88 2.660 1_545 S
N119 C120 1.305 . S
N119 C124 1.360 . S
C120 H112 0.930 1_455 S
C120 N119 1.305 . S
C120 C123 1.407 . S
C121 H115 0.930 1_556 S
C121 C122 1.410 . S
C121 C123 1.345 . S
C122 C121 1.410 . S
C122 C124 1.417 . S
C122 C154 1.432 . S
C123 H109 0.930 1_455 S
C123 C120 1.407 . S
C123 C121 1.345 . S
C124 N119 1.360 . S
C124 C122 1.417 . S
C124 C128 1.432 . S
H125 C130 0.930 . S
N126 Tb88 2.606 . S
N126 C128 1.347 1_565 S
N126 C129 1.337 . S
C127 H113 0.931 . S
C127 C129 1.392 . S
C127 C130 1.370 1_565 S
C128 C124 1.432 . S
C128 N126 1.347 1_545 S
C128 C131 1.414 . S
C129 H111 0.930 . S
C129 N126 1.337 . S
C129 C127 1.392 . S
C130 H125 0.930 . S
C130 C127 1.370 1_545 S
C130 C131 1.385 . S
C131 C128 1.414 . S
C131 C130 1.385 . S
C131 C153 1.444 . S
O132 Tb88 2.546 . S
O132 C152 1.251 . S
O133 Tb88 2.610 1_655 S
O133 Tb99 2.362 1_565 S
O133 C144 1.283 . S
O134 Tb99 2.421 . S
O134 C151 1.262 . S
O135 Tb88 2.320 1_655 S
O135 C151 1.260 1_565 S
O136 Tb88 2.552 . S
O136 C144 1.243 1_455 S
O137 Tb88 2.413 . S
O137 C152 1.256 . S
O138 Tb99 2.546 . S
O138 C163 1.251 . S
O139 Tb88 2.362 1_545 S
O139 Tb99 2.610 1_455 S
O139 C155 1.283 . S
O140 Tb88 2.421 . S
O140 C162 1.262 1_565 S
O141 Tb99 2.320 1_455 S
O141 C162 1.260 . S
O142 Tb99 2.552 1_455 S
O142 C155 1.243 . S
O143 Tb99 2.413 . S
O143 C163 1.256 . S
C144 O133 1.283 . S
C144 O136 1.243 1_655 S
C145 C147 1.382 . S
C145 C149 1.393 . S
C145 C152 1.500 . S
C146 C147 1.400 . S
C146 C148 1.384 . S
C147 C145 1.382 . S
C147 C146 1.400 . S
C147 H164 0.930 1_455 S
C148 C146 1.384 . S
C148 C150 1.392 . S
C148 H165 0.931 . S
C149 C145 1.393 . S
C149 C150 1.401 . S
C149 H166 0.930 . S
C150 C148 1.392 . S
C150 C149 1.401 . S
C150 H167 0.930 . S
C151 O134 1.262 . S
C151 O135 1.260 1_545 S
C152 Tb88 2.833 . S
C152 O132 1.251 . S
C152 O137 1.256 . S
C152 C145 1.500 . S
C153 H118 0.929 . S
C153 C131 1.444 . S
C153 C154 1.317 . S
C154 H116 0.930 1_556 S
C154 C122 1.432 . S
C154 C153 1.317 . S
C155 O139 1.283 . S
C155 O142 1.243 . S
C156 C157 1.382 . S
C156 C160 1.393 . S
C156 C163 1.500 . S
C157 C156 1.382 . S
C157 C158 1.400 . S
C157 H168 0.930 1_655 S
C158 C157 1.400 . S
C158 C159 1.384 . S
C159 C158 1.384 . S
C159 C161 1.392 . S
C159 H169 0.931 . S
C160 C156 1.393 . S
C160 C161 1.401 . S
C160 H170 0.930 . S
C161 C159 1.392 . S
C161 C160 1.401 . S
C161 H171 0.930 . S
C162 O140 1.262 1_545 S
C162 O141 1.260 . S
C163 Tb99 2.833 . S
C163 O138 1.251 . S
C163 O143 1.256 . S
C163 C156 1.500 . S
H164 C147 0.930 1_655 S
H165 C148 0.931 . S
H166 C149 0.930 . S
H167 C150 0.930 . S
H168 C157 0.930 1_455 S
H169 C159 0.931 . S
H170 C160 0.930 . S
H171 C161 0.930 . S
Tb172 N203 2.660 . S
Tb172 N210 2.600 . S
Tb172 O216 2.546 . S
Tb172 O217 2.610 1_545 S
Tb172 O219 2.320 1_545 S
Tb172 O220 2.552 . S
Tb172 O221 2.413 . S
Tb172 O223 2.362 . S
Tb172 O224 2.421 . S
Tb172 C236 2.833 . S
C173 C176 1.432 . S
C173 C177 1.414 . S
C173 N180 1.359 . S
C174 C176 1.417 . S
C174 C178 1.432 . S
C174 C186 1.410 . S
C175 C177 1.444 . S
C175 C178 1.317 . S
C175 H198 0.929 . S
C176 C173 1.432 . S
C176 C174 1.417 . S
C176 N184 1.360 . S
C177 C173 1.414 . S
C177 C175 1.444 . S
C177 C182 1.385 . S
C178 C174 1.432 . S
C178 C175 1.317 . S
C178 H190 0.930 . S
C179 C181 1.392 . S
C179 C182 1.370 . S
C179 H191 0.931 . S
N180 C173 1.359 . S
N180 C181 1.327 . S
N180 Tb183 2.600 . S
C181 C179 1.392 . S
C181 N180 1.327 . S
C181 H188 0.930 . S
C182 C177 1.385 . S
C182 C179 1.370 . S
C182 H201 0.930 . S
Tb183 N180 2.600 . S
Tb183 N184 2.660 . S
Tb183 O217 2.362 . S
Tb183 O218 2.421 . S
Tb183 O222 2.546 . S
Tb183 O223 2.610 1_565 S
Tb183 O225 2.320 1_565 S
Tb183 O226 2.552 1_565 S
Tb183 O227 2.414 1_565 S
Tb183 C247 2.833 . S
N184 C176 1.360 . S
N184 Tb183 2.660 . S
N184 C185 1.305 1_565 S
C185 N184 1.305 1_545 S
C185 C187 1.407 . S
C185 H192 0.930 . S
C186 C174 1.410 . S
C186 C187 1.345 1_565 S
C186 H194 0.930 . S
C187 C185 1.407 . S
C187 C186 1.345 1_545 S
C187 H189 0.930 . S
H188 C181 0.930 . S
H189 C187 0.930 . S
H190 C178 0.930 . S
H191 C179 0.931 . S
H192 C185 0.930 . S
H193 C207 0.930 1_565 S
H194 C186 0.930 . S
H195 C213 0.930 . S
H196 C204 0.930 1_565 S
H197 C211 0.931 . S
H198 C175 0.929 . S
H199 C205 0.930 1_554 S
H200 C238 0.930 1_554 S
H201 C182 0.930 . S
H202 C237 0.929 . S
N203 Tb172 2.660 . S
N203 C204 1.305 . S
N203 C208 1.360 . S
C204 H196 0.930 1_545 S
C204 N203 1.305 . S
C204 C207 1.407 . S
C205 H199 0.930 1_556 S
C205 C206 1.410 . S
C205 C207 1.345 . S
C206 C205 1.410 . S
C206 C208 1.417 . S
C206 C238 1.432 . S
C207 H193 0.930 1_545 S
C207 C204 1.407 . S
C207 C205 1.345 . S
C208 N203 1.360 . S
C208 C206 1.417 . S
C208 C212 1.432 . S
H209 C214 0.930 . S
N210 Tb172 2.600 . S
N210 C212 1.359 . S
N210 C213 1.327 . S
C211 H197 0.931 . S
C211 C213 1.392 . S
C211 C214 1.370 . S
C212 C208 1.432 . S
C212 N210 1.359 . S
C212 C215 1.414 . S
C213 H195 0.930 . S
C213 N210 1.327 . S
C213 C211 1.392 . S
C214 H209 0.930 . S
C214 C211 1.370 . S
C214 C215 1.385 . S
C215 C212 1.414 . S
C215 C214 1.385 . S
C215 C237 1.444 . S
O216 Tb172 2.546 . S
O216 C236 1.251 . S
O217 Tb172 2.610 1_565 S
O217 Tb183 2.362 . S
O217 C228 1.285 . S
O218 Tb183 2.421 . S
O218 C235 1.262 . S
O219 Tb172 2.320 1_565 S
O219 C235 1.260 . S
O220 Tb172 2.552 . S
O220 C228 1.214 1_545 S
O221 Tb172 2.413 . S
O221 C236 1.256 . S
O222 Tb183 2.546 . S
O222 C247 1.251 . S
O223 Tb172 2.362 . S
O223 Tb183 2.610 1_545 S
O223 C239 1.283 . S
O224 Tb172 2.421 . S
O224 C246 1.262 . S
O225 Tb183 2.320 1_545 S
O225 C246 1.260 . S
O226 Tb183 2.552 1_545 S
O226 C239 1.243 . S
O227 Tb183 2.414 1_545 S
O227 C247 1.257 1_545 S
C228 O217 1.285 . S
C228 O220 1.214 1_565 S
C229 C231 1.382 . S
C229 C233 1.393 . S
C229 C236 1.500 . S
C230 C231 1.400 . S
C230 C232 1.384 . S
C231 C229 1.382 . S
C231 C230 1.400 . S
C231 H248 0.930 . S
C232 C230 1.384 . S
C232 C234 1.392 . S
C232 H249 0.931 . S
C233 C229 1.393 . S
C233 C234 1.401 . S
C233 H250 0.930 . S
C234 C232 1.392 . S
C234 C233 1.401 . S
C234 H251 0.930 . S
C235 O218 1.262 . S
C235 O219 1.260 . S
C236 Tb172 2.833 . S
C236 O216 1.251 . S
C236 O221 1.256 . S
C236 C229 1.500 . S
C237 H202 0.929 . S
C237 C215 1.444 . S
C237 C238 1.317 . S
C238 H200 0.930 1_556 S
C238 C206 1.432 . S
C238 C237 1.317 . S
C239 O223 1.283 . S
C239 O226 1.243 . S
C240 C241 1.385 . S
C240 C244 1.393 . S
C240 C247 1.500 . S
C241 C240 1.385 . S
C241 C242 1.400 . S
C241 H252 0.927 1_565 S
C242 C241 1.400 . S
C242 C243 1.384 . S
C243 C242 1.384 . S
C243 C245 1.392 . S
C243 H253 0.931 . S
C244 C240 1.393 . S
C244 C245 1.401 . S
C244 H254 0.930 . S
C245 C243 1.392 . S
C245 C244 1.401 . S
C245 H255 0.930 . S
C246 O224 1.262 . S
C246 O225 1.260 . S
C247 Tb183 2.833 . S
C247 O222 1.251 . S
C247 O227 1.257 1_565 S
C247 C240 1.500 . S
H248 C231 0.930 . S
H249 C232 0.931 . S
H250 C233 0.930 . S
H251 C234 0.930 . S
H252 C241 0.927 1_545 S
H253 C243 0.931 . S
H254 C244 0.930 . S
H255 C245 0.930 . S
Tb256 N287 2.660 . S
Tb256 N294 2.600 . S
Tb256 O300 2.546 . S
Tb256 O301 2.610 . S
Tb256 O303 2.320 . S
Tb256 O304 2.552 . S
Tb256 O305 2.413 . S
Tb256 O307 2.362 . S
Tb256 O308 2.421 . S
Tb256 C320 2.833 . S
C257 C260 1.432 . S
C257 C261 1.414 . S
C257 N264 1.359 . S
C258 C260 1.417 . S
C258 C262 1.432 . S
C258 C270 1.410 . S
C259 C261 1.444 . S
C259 C262 1.317 . S
C259 H282 0.929 . S
C260 C257 1.432 . S
C260 C258 1.417 . S
C260 N268 1.360 . S
C261 C257 1.414 . S
C261 C259 1.444 . S
C261 C266 1.385 . S
C262 C258 1.432 . S
C262 C259 1.317 . S
C262 H274 0.930 . S
C263 C265 1.392 . S
C263 C266 1.370 . S
C263 H275 0.931 . S
N264 C257 1.359 . S
N264 C265 1.327 . S
N264 Tb267 2.600 . S
C265 C263 1.392 . S
C265 N264 1.327 . S
C265 H272 0.930 . S
C266 C261 1.385 . S
C266 C263 1.370 . S
C266 H285 0.930 . S
Tb267 N264 2.600 . S
Tb267 N268 2.660 . S
Tb267 O301 2.362 . S
Tb267 O302 2.421 . S
Tb267 O306 2.546 . S
Tb267 O307 2.610 . S
Tb267 O309 2.320 . S
Tb267 O310 2.552 . S
Tb267 O311 2.413 . S
Tb267 C331 2.833 . S
N268 C260 1.360 . S
N268 Tb267 2.660 . S
N268 C269 1.305 . S
C269 N268 1.305 . S
C269 C271 1.407 . S
C269 H276 0.930 . S
C270 C258 1.410 . S
C270 C271 1.345 . S
C270 H278 0.930 . S
C271 C269 1.407 . S
C271 C270 1.345 . S
C271 H273 0.930 . S
H272 C265 0.930 . S
H273 C271 0.930 . S
H274 C262 0.930 . S
H275 C263 0.931 . S
H276 C269 0.930 . S
H277 C291 0.930 . S
H278 C270 0.930 . S
H279 C297 0.930 . S
H280 C288 0.930 . S
H281 C295 0.931 . S
H282 C259 0.929 . S
H283 C289 0.930 . S
H284 C322 0.930 . S
H285 C266 0.930 . S
H286 C321 0.929 . S
N287 Tb256 2.660 . S
N287 C288 1.305 . S
N287 C292 1.360 . S
C288 H280 0.930 . S
C288 N287 1.305 . S
C288 C291 1.407 . S
C289 H283 0.930 . S
C289 C290 1.410 . S
C289 C291 1.345 . S
C290 C289 1.410 . S
C290 C292 1.417 . S
C290 C322 1.432 . S
C291 H277 0.930 . S
C291 C288 1.407 . S
C291 C289 1.345 . S
C292 N287 1.360 . S
C292 C290 1.417 . S
C292 C296 1.432 . S
H293 C298 0.930 . S
N294 Tb256 2.600 . S
N294 C296 1.359 . S
N294 C297 1.327 . S
C295 H281 0.931 . S
C295 C297 1.392 . S
C295 C298 1.370 . S
C296 C292 1.432 . S
C296 N294 1.359 . S
C296 C299 1.414 . S
C297 H279 0.930 . S
C297 N294 1.327 . S
C297 C295 1.392 . S
C298 H293 0.930 . S
C298 C295 1.370 . S
C298 C299 1.385 . S
C299 C296 1.414 . S
C299 C298 1.385 . S
C299 C321 1.444 . S
O300 Tb256 2.546 . S
O300 C320 1.251 . S
O301 Tb256 2.610 . S
O301 Tb267 2.362 . S
O301 C312 1.283 . S
O302 Tb267 2.421 . S
O302 C319 1.262 . S
O303 Tb256 2.320 . S
O303 C319 1.260 . S
O304 Tb256 2.552 . S
O304 C312 1.243 . S
O305 Tb256 2.413 . S
O305 C320 1.256 . S
O306 Tb267 2.546 . S
O306 C331 1.251 . S
O307 Tb256 2.362 . S
O307 Tb267 2.610 . S
O307 C323 1.283 . S
O308 Tb256 2.421 . S
O308 C330 1.262 . S
O309 Tb267 2.320 . S
O309 C330 1.260 . S
O310 Tb267 2.552 . S
O310 C323 1.243 . S
O311 Tb267 2.413 . S
O311 C331 1.256 . S
C312 O301 1.283 . S
C312 O304 1.243 . S
C313 C315 1.382 . S
C313 C317 1.393 . S
C313 C320 1.500 . S
C314 C315 1.400 . S
C314 C316 1.384 . S
C315 C313 1.382 . S
C315 C314 1.400 . S
C315 H332 0.930 . S
C316 C314 1.384 . S
C316 C318 1.392 . S
C316 H333 0.931 . S
C317 C313 1.393 . S
C317 C318 1.401 . S
C317 H334 0.930 . S
C318 C316 1.392 . S
C318 C317 1.401 . S
C318 H335 0.930 . S
C319 O302 1.262 . S
C319 O303 1.260 . S
C320 Tb256 2.833 . S
C320 O300 1.251 . S
C320 O305 1.256 . S
C320 C313 1.500 . S
C321 H286 0.929 . S
C321 C299 1.444 . S
C321 C322 1.317 . S
C322 H284 0.930 . S
C322 C290 1.432 . S
C322 C321 1.317 . S
C323 O307 1.283 . S
C323 O310 1.243 . S
C324 C325 1.382 . S
C324 C328 1.393 . S
C324 C331 1.500 . S
C325 C324 1.382 . S
C325 C326 1.400 . S
C325 H336 0.930 . S
C326 C325 1.400 . S
C326 C327 1.384 1_556 S
C327 C326 1.384 1_554 S
C327 C329 1.392 . S
C327 H337 0.931 . S
C328 C324 1.393 . S
C328 C329 1.401 1_556 S
C328 H338 0.930 . S
C329 C327 1.392 . S
C329 C328 1.401 1_554 S
C329 H339 0.930 . S
C330 O308 1.262 . S
C330 O309 1.260 . S
C331 Tb267 2.833 . S
C331 O306 1.251 . S
C331 O311 1.256 . S
C331 C324 1.500 . S
H332 C315 0.930 . S
H333 C316 0.931 . S
H334 C317 0.930 . S
H335 C318 0.930 . S
H336 C325 0.930 . S
H337 C327 0.931 . S
H338 C328 0.930 . S
H339 C329 0.930 . S
Tb340 N371 2.660 . S
Tb340 N378 2.600 . S
Tb340 O384 2.546 . S
Tb340 O385 2.610 . S
Tb340 O387 2.320 . S
Tb340 O388 2.552 . S
Tb340 O389 2.413 . S
Tb340 O391 2.362 . S
Tb340 O392 2.421 1_455 S
Tb340 C404 2.833 . S
C341 C344 1.432 . S
C341 C345 1.414 . S
C341 N348 1.359 . S
C342 C344 1.417 . S
C342 C346 1.432 . S
C342 C354 1.410 . S
C343 C345 1.444 . S
C343 C346 1.317 . S
C343 H366 0.929 . S
C344 C341 1.432 . S
C344 C342 1.417 . S
C344 N352 1.360 . S
C345 C341 1.414 . S
C345 C343 1.444 . S
C345 C350 1.385 1_655 S
C346 C342 1.432 . S
C346 C343 1.317 . S
C346 H358 0.930 . S
C347 C349 1.392 . S
C347 C350 1.369 . S
C347 H359 0.931 . S
N348 C341 1.359 . S
N348 C349 1.327 1_655 S
N348 Tb351 2.600 . S
C349 C347 1.392 . S
C349 N348 1.327 1_455 S
C349 H356 0.930 . S
C350 C345 1.385 1_455 S
C350 C347 1.369 . S
C350 H369 0.929 . S
Tb351 N348 2.600 . S
Tb351 N352 2.660 . S
Tb351 O385 2.362 1_655 S
Tb351 O386 2.421 1_655 S
Tb351 O390 2.546 . S
Tb351 O391 2.610 1_655 S
Tb351 O393 2.320 . S
Tb351 O394 2.552 . S
Tb351 O395 2.413 . S
Tb351 C415 2.833 . S
N352 C344 1.360 . S
N352 Tb351 2.660 . S
N352 C353 1.305 . S
C353 N352 1.305 . S
C353 C355 1.407 . S
C353 H360 0.930 . S
C354 C342 1.410 . S
C354 C355 1.345 . S
C354 H362 0.930 . S
C355 C353 1.407 . S
C355 C354 1.345 . S
C355 H357 0.930 . S
H356 C349 0.930 . S
H357 C355 0.930 . S
H358 C346 0.930 . S
H359 C347 0.931 . S
H360 C353 0.930 . S
H361 C375 0.930 . S
H362 C354 0.930 . S
H363 C381 0.930 1_655 S
H364 C372 0.930 . S
H365 C379 0.924 1_655 S
H366 C343 0.929 . S
H367 C373 0.930 . S
H368 C406 0.930 . S
H369 C350 0.929 . S
H370 C405 0.929 . S
N371 Tb340 2.660 . S
N371 C372 1.305 . S
N371 C376 1.360 . S
C372 H364 0.930 . S
C372 N371 1.305 . S
C372 C375 1.407 . S
C373 H367 0.930 . S
C373 C374 1.410 . S
C373 C375 1.345 . S
C374 C373 1.410 . S
C374 C376 1.417 . S
C374 C406 1.432 . S
C375 H361 0.930 . S
C375 C372 1.407 . S
C375 C373 1.345 . S
C376 N371 1.360 . S
C376 C374 1.417 . S
C376 C380 1.432 . S
H377 C382 0.930 . S
N378 Tb340 2.600 . S
N378 C380 1.359 . S
N378 C381 1.327 . S
C379 H365 0.924 1_455 S
C379 C381 1.394 . S
C379 C382 1.375 . S
C380 C376 1.432 . S
C380 N378 1.359 . S
C380 C383 1.414 . S
C381 H363 0.930 1_455 S
C381 N378 1.327 . S
C381 C379 1.394 . S
C382 H377 0.930 . S
C382 C379 1.375 . S
C382 C383 1.385 . S
C383 C380 1.414 . S
C383 C382 1.385 . S
C383 C405 1.444 . S
O384 Tb340 2.546 . S
O384 C404 1.251 . S
O385 Tb340 2.610 . S
O385 Tb351 2.362 1_455 S
O385 C396 1.283 . S
O386 Tb351 2.421 1_455 S
O386 C403 1.262 . S
O387 Tb340 2.320 . S
O387 C403 1.260 . S
O388 Tb340 2.552 . S
O388 C396 1.243 . S
O389 Tb340 2.413 . S
O389 C404 1.256 . S
O390 Tb351 2.546 . S
O390 C415 1.251 . S
O391 Tb340 2.362 . S
O391 Tb351 2.610 1_455 S
O391 C407 1.283 1_455 S
O392 Tb340 2.421 1_655 S
O392 C414 1.262 . S
O393 Tb351 2.320 . S
O393 C414 1.260 . S
O394 Tb351 2.552 . S
O394 C407 1.243 . S
O395 Tb351 2.413 . S
O395 C415 1.256 . S
C396 O385 1.283 . S
C396 O388 1.243 . S
C397 C399 1.382 . S
C397 C401 1.393 . S
C397 C404 1.500 . S
C398 C399 1.400 . S
C398 C400 1.384 . S
C399 C397 1.382 . S
C399 C398 1.400 . S
C399 H416 0.930 . S
C400 C398 1.384 . S
C400 C402 1.392 . S
C400 H417 0.931 . S
C401 C397 1.393 . S
C401 C402 1.401 . S
C401 H418 0.930 . S
C402 C400 1.392 . S
C402 C401 1.401 . S
C402 H419 0.930 . S
C403 O386 1.262 . S
C403 O387 1.260 . S
C404 Tb340 2.833 . S
C404 O384 1.251 . S
C404 O389 1.256 . S
C404 C397 1.500 . S
C405 H370 0.929 . S
C405 C383 1.444 . S
C405 C406 1.317 . S
C406 H368 0.930 . S
C406 C374 1.432 . S
C406 C405 1.317 . S
C407 O391 1.283 1_655 S
C407 O394 1.243 . S
C408 C409 1.382 . S
C408 C412 1.393 . S
C408 C415 1.500 . S
C409 C408 1.382 . S
C409 C410 1.400 . S
C409 H420 0.930 . S
C410 C409 1.400 . S
C410 C411 1.384 1_556 S
C411 C410 1.384 1_554 S
C411 C413 1.392 . S
C411 H421 0.931 . S
C412 C408 1.393 . S
C412 C413 1.401 1_556 S
C412 H422 0.930 . S
C413 C411 1.392 . S
C413 C412 1.401 1_554 S
C413 H423 0.930 . S
C414 O392 1.262 . S
C414 O393 1.260 . S
C415 Tb351 2.833 . S
C415 O390 1.251 . S
C415 O395 1.256 . S
C415 C408 1.500 . S
H416 C399 0.930 . S
H417 C400 0.931 . S
H418 C401 0.930 . S
H419 C402 0.930 . S
H420 C409 0.930 . S
H421 C411 0.931 . S
H422 C412 0.930 . S
H423 C413 0.930 . S
C424 C425 1.391 . S
C424 C426 1.394 . S
C424 H440 0.931 . S
C425 C424 1.391 . S
C425 C429 1.376 . S
C426 C424 1.394 . S
C426 C427 1.369 . S
C426 C430 1.531 . S
C427 C426 1.369 . S
C427 C428 1.410 . S
C427 C435 1.503 . S
C428 C427 1.410 . S
C428 C429 1.392 . S
C428 C431 1.511 . S
C429 C425 1.376 . S
C429 C428 1.392 . S
C429 H441 0.929 . S
C430 C426 1.531 . S
C430 H442 0.960 . S
C430 H443 0.962 . S
C430 H444 0.960 . S
C431 C428 1.511 . S
C431 H445 0.961 . S
C431 H446 0.961 . S
C431 H447 0.961 . S
C432 C433 1.370 . S
C432 C434 1.363 . S
C432 H448 0.931 . S
C433 C432 1.370 . S
C433 C437 1.408 . S
C434 C432 1.363 . S
C434 C435 1.370 . S
C434 C438 1.524 . S
C435 C427 1.503 . S
C435 C434 1.370 . S
C435 C436 1.403 . S
C436 C435 1.403 . S
C436 C437 1.404 . S
C436 C439 1.523 1_545 S
C437 C433 1.408 . S
C437 C436 1.404 . S
C437 H449 0.930 1_545 S
C438 C434 1.524 . S
C438 H450 0.956 . S
C438 H451 0.961 . S
C438 H452 0.961 . S
C439 C436 1.523 1_565 S
C439 H453 0.981 . S
C439 H454 0.971 . S
C439 H455 0.944 1_565 S
H440 C424 0.931 . S
H441 C429 0.929 . S
H442 C430 0.960 . S
H443 C430 0.962 . S
H444 C430 0.960 . S
H445 C431 0.961 . S
H446 C431 0.961 . S
H447 C431 0.961 . S
H448 C432 0.931 . S
H449 C437 0.930 1_565 S
H450 C438 0.956 . S
H451 C438 0.961 . S
H452 C438 0.961 . S
H453 C439 0.981 . S
H454 C439 0.971 . S
H455 C439 0.944 1_545 S
C456 C457 1.391 . S
C456 C458 1.394 . S
C456 H472 0.931 . S
C457 C456 1.391 . S
C457 C461 1.376 . S
C458 C456 1.394 . S
C458 C459 1.369 . S
C458 C462 1.531 . S
C459 C458 1.369 . S
C459 C460 1.410 . S
C459 C467 1.503 . S
C460 C459 1.410 . S
C460 C461 1.392 . S
C460 C463 1.511 . S
C461 C457 1.376 . S
C461 C460 1.392 . S
C461 H473 0.929 . S
C462 C458 1.531 . S
C462 H474 0.960 . S
C462 H475 0.962 . S
C462 H476 0.960 . S
C463 C460 1.511 . S
C463 H477 0.961 . S
C463 H478 0.961 . S
C463 H479 0.961 . S
C464 C465 1.370 . S
C464 C466 1.363 . S
C464 H480 0.931 . S
C465 C464 1.370 . S
C465 C469 1.408 . S
C466 C464 1.363 . S
C466 C467 1.370 . S
C466 C470 1.524 . S
C467 C459 1.503 . S
C467 C466 1.370 . S
C467 C468 1.403 . S
C468 C467 1.403 . S
C468 C469 1.404 . S
C468 C471 1.539 . S
C469 C465 1.408 . S
C469 C468 1.404 . S
C469 H481 0.930 . S
C470 C466 1.524 . S
C470 H482 0.956 . S
C470 H483 0.961 . S
C470 H484 0.961 . S
C471 C468 1.539 . S
C471 H485 0.958 . S
C471 H486 0.961 . S
C471 H487 0.960 . S
H472 C456 0.931 . S
H473 C461 0.929 . S
H474 C462 0.960 . S
H475 C462 0.962 . S
H476 C462 0.960 . S
H477 C463 0.961 . S
H478 C463 0.961 . S
H479 C463 0.961 . S
H480 C464 0.931 . S
H481 C469 0.930 . S
H482 C470 0.956 . S
H483 C470 0.961 . S
H484 C470 0.961 . S
H485 C471 0.958 . S
H486 C471 0.961 . S
H487 C471 0.960 . S
C488 C489 1.391 . S
C488 C490 1.394 . S
C488 H504 0.931 . S
C489 C488 1.391 . S
C489 C493 1.376 . S
C490 C488 1.394 . S
C490 C491 1.369 . S
C490 C494 1.531 . S
C491 C490 1.369 . S
C491 C492 1.410 . S
C491 C499 1.503 . S
C492 C491 1.410 . S
C492 C493 1.392 . S
C492 C495 1.511 . S
C493 C489 1.376 . S
C493 C492 1.392 . S
C493 H505 0.929 . S
C494 C490 1.531 . S
C494 H506 0.960 . S
C494 H507 0.962 . S
C494 H508 0.960 . S
C495 C492 1.511 . S
C495 H509 0.961 . S
C495 H510 0.961 . S
C495 H511 0.961 . S
C496 C497 1.370 . S
C496 C498 1.363 . S
C496 H512 0.931 . S
C497 C496 1.370 . S
C497 C501 1.408 . S
C498 C496 1.363 . S
C498 C499 1.370 . S
C498 C502 1.524 . S
C499 C491 1.503 . S
C499 C498 1.370 . S
C499 C500 1.403 . S
C500 C499 1.403 . S
C500 C501 1.404 . S
C500 C503 1.539 . S
C501 C497 1.408 . S
C501 C500 1.404 . S
C501 H513 0.930 . S
C502 C498 1.524 . S
C502 H514 0.956 . S
C502 H515 0.961 . S
C502 H516 0.961 . S
C503 C500 1.539 . S
C503 H517 0.958 . S
C503 H518 0.961 . S
C503 H519 0.960 . S
H504 C488 0.931 . S
H505 C493 0.929 . S
H506 C494 0.960 . S
H507 C494 0.962 . S
H508 C494 0.960 . S
H509 C495 0.961 . S
H510 C495 0.961 . S
H511 C495 0.961 . S
H512 C496 0.931 . S
H513 C501 0.930 . S
H514 C502 0.956 . S
H515 C502 0.961 . S
H516 C502 0.961 . S
H517 C503 0.958 . S
H518 C503 0.961 . S
H519 C503 0.960 . S
C520 C521 1.391 . S
C520 C522 1.394 . S
C520 H536 0.931 . S
C521 C520 1.391 . S
C521 C525 1.376 . S
C522 C520 1.394 . S
C522 C523 1.369 . S
C522 C526 1.531 . S
C523 C522 1.369 . S
C523 C524 1.410 . S
C523 C531 1.503 . S
C524 C523 1.410 . S
C524 C525 1.392 . S
C524 C527 1.511 . S
C525 C521 1.376 . S
C525 C524 1.392 . S
C525 H537 0.929 . S
C526 C522 1.531 . S
C526 H538 0.960 . S
C526 H539 0.962 1_455 S
C526 H540 0.960 1_455 S
C527 C524 1.511 . S
C527 H541 0.961 . S
C527 H542 0.961 . S
C527 H543 0.961 . S
C528 C529 1.370 . S
C528 C530 1.363 . S
C528 H544 0.931 . S
C529 C528 1.370 . S
C529 C533 1.408 . S
C530 C528 1.363 . S
C530 C531 1.370 . S
C530 C534 1.524 . S
C531 C523 1.503 . S
C531 C530 1.370 . S
C531 C532 1.403 . S
C532 C531 1.403 . S
C532 C533 1.404 . S
C532 C535 1.539 . S
C533 C529 1.408 . S
C533 C532 1.404 . S
C533 H545 0.930 . S
C534 C530 1.524 . S
C534 H546 0.956 . S
C534 H547 0.961 . S
C534 H548 0.961 . S
C535 C532 1.539 . S
C535 H549 0.958 . S
C535 H550 0.961 . S
C535 H551 0.960 . S
H536 C520 0.931 . S
H537 C525 0.929 . S
H538 C526 0.960 . S
H539 C526 0.962 1_655 S
H540 C526 0.960 1_655 S
H541 C527 0.961 . S
H542 C527 0.961 . S
H543 C527 0.961 . S
H544 C528 0.931 . S
H545 C533 0.930 . S
H546 C534 0.956 . S
H547 C534 0.961 . S
H548 C534 0.961 . S
H549 C535 0.958 . S
H550 C535 0.961 . S
H551 C535 0.960 . S
C552 C553 1.391 . S
C552 C554 1.394 1_554 S
C552 H568 0.931 . S
C553 C552 1.391 . S
C553 C557 1.376 . S
C554 C552 1.394 1_556 S
C554 C555 1.369 . S
C554 C558 1.531 1_565 S
C555 C554 1.369 . S
C555 C556 1.410 1_556 S
C555 C563 1.503 . S
C556 C555 1.410 1_554 S
C556 C557 1.392 . S
C556 C559 1.511 . S
C557 C553 1.376 . S
C557 C556 1.392 . S
C557 H569 0.929 . S
C558 C554 1.531 1_545 S
C558 H570 0.960 . S
C558 H571 0.962 . S
C558 H572 0.960 . S
C559 C556 1.511 . S
C559 H573 0.961 . S
C559 H574 0.961 1_554 S
C559 H575 0.961 . S
C560 C561 1.370 . S
C560 C562 1.363 . S
C560 H576 0.931 . S
C561 C560 1.370 . S
C561 C565 1.408 1_565 S
C562 C560 1.363 . S
C562 C563 1.370 . S
C562 C566 1.524 . S
C563 C555 1.503 . S
C563 C562 1.370 . S
C563 C564 1.403 1_565 S
C564 C563 1.403 1_545 S
C564 C565 1.404 . S
C564 C567 1.539 . S
C565 C561 1.408 1_545 S
C565 C564 1.404 . S
C565 H577 0.930 . S
C566 C562 1.524 . S
C566 H578 0.956 . S
C566 H579 0.961 . S
C566 H580 0.961 . S
C567 C564 1.539 . S
C567 H581 0.958 . S
C567 H582 0.961 . S
C567 H583 0.960 1_556 S
H568 C552 0.931 . S
H569 C557 0.929 . S
H570 C558 0.960 . S
H571 C558 0.962 . S
H572 C558 0.960 . S
H573 C559 0.961 . S
H574 C559 0.961 1_556 S
H575 C559 0.961 . S
H576 C560 0.931 . S
H577 C565 0.930 . S
H578 C566 0.956 . S
H579 C566 0.961 . S
H580 C566 0.961 . S
H581 C567 0.958 . S
H582 C567 0.961 . S
H583 C567 0.960 1_554 S
C584 C585 1.391 . S
C584 C586 1.394 1_554 S
C584 H600 0.931 . S
C585 C584 1.391 . S
C585 C589 1.376 . S
C586 C584 1.394 1_556 S
C586 C587 1.369 . S
C586 C590 1.531 . S
C587 C586 1.369 . S
C587 C588 1.410 . S
C587 C595 1.503 . S
C588 C587 1.410 . S
C588 C589 1.392 1_556 S
C588 C591 1.511 . S
C589 C585 1.376 . S
C589 C588 1.392 1_554 S
C589 H601 0.929 . S
C590 C586 1.531 . S
C590 H602 0.960 . S
C590 H603 0.962 . S
C590 H604 0.960 . S
C591 C588 1.511 . S
C591 H605 0.961 1_556 S
C591 H606 0.961 . S
C591 H607 0.961 . S
C592 C593 1.370 . S
C592 C594 1.363 . S
C592 H608 0.931 . S
C593 C592 1.370 . S
C593 C597 1.408 . S
C594 C592 1.363 . S
C594 C595 1.370 . S
C594 C598 1.524 . S
C595 C587 1.503 . S
C595 C594 1.370 . S
C595 C596 1.403 . S
C596 C595 1.403 . S
C596 C597 1.404 . S
C596 C599 1.539 . S
C597 C593 1.408 . S
C597 C596 1.404 . S
C597 H609 0.930 . S
C598 C594 1.524 . S
C598 H610 0.956 . S
C598 H611 0.961 1_556 S
C598 H612 0.961 . S
C599 C596 1.539 . S
C599 H613 0.958 . S
C599 H614 0.961 . S
C599 H615 0.960 . S
H600 C584 0.931 . S
H601 C589 0.929 . S
H602 C590 0.960 . S
H603 C590 0.962 . S
H604 C590 0.960 . S
H605 C591 0.961 1_554 S
H606 C591 0.961 . S
H607 C591 0.961 . S
H608 C592 0.931 . S
H609 C597 0.930 . S
H610 C598 0.956 . S
H611 C598 0.961 1_554 S
H612 C598 0.961 . S
H613 C599 0.958 . S
H614 C599 0.961 . S
H615 C599 0.960 . S
C616 C617 1.391 . S
C616 C618 1.394 1_554 S
C616 H632 0.931 . S
C617 C616 1.391 . S
C617 C621 1.376 . S
C618 C616 1.394 1_556 S
C618 C619 1.369 . S
C618 C622 1.531 . S
C619 C618 1.369 . S
C619 C620 1.410 . S
C619 C627 1.503 . S
C620 C619 1.410 . S
C620 C621 1.392 1_556 S
C620 C623 1.511 . S
C621 C617 1.376 . S
C621 C620 1.392 1_554 S
C621 H633 0.929 . S
C622 C618 1.531 . S
C622 H634 0.960 . S
C622 H635 0.962 . S
C622 H636 0.960 . S
C623 C620 1.511 . S
C623 H637 0.961 1_556 S
C623 H638 0.961 . S
C623 H639 0.961 . S
C624 C625 1.370 . S
C624 C626 1.363 . S
C624 H640 0.931 . S
C625 C624 1.370 . S
C625 C629 1.408 . S
C626 C624 1.363 . S
C626 C627 1.370 . S
C626 C630 1.524 . S
C627 C619 1.503 . S
C627 C626 1.370 . S
C627 C628 1.403 . S
C628 C627 1.403 . S
C628 C629 1.404 . S
C628 C631 1.539 . S
C629 C625 1.408 . S
C629 C628 1.404 . S
C629 H641 0.930 . S
C630 C626 1.524 . S
C630 H642 0.956 . S
C630 H643 0.961 1_556 S
C630 H644 0.961 . S
C631 C628 1.539 . S
C631 H645 0.958 . S
C631 H646 0.961 . S
C631 H647 0.960 . S
H632 C616 0.931 . S
H633 C621 0.929 . S
H634 C622 0.960 . S
H635 C622 0.962 . S
H636 C622 0.960 . S
H637 C623 0.961 1_554 S
H638 C623 0.961 . S
H639 C623 0.961 . S
H640 C624 0.931 . S
H641 C629 0.930 . S
H642 C630 0.956 . S
H643 C630 0.961 1_554 S
H644 C630 0.961 . S
H645 C631 0.958 . S
H646 C631 0.961 . S
H647 C631 0.960 . S
C648 C649 1.391 . S
C648 C650 1.394 . S
C648 H664 0.931 . S
C649 C648 1.391 . S
C649 C653 1.376 . S
C650 C648 1.394 . S
C650 C651 1.369 1_554 S
C650 C654 1.531 . S
C651 C650 1.369 1_556 S
C651 C652 1.410 . S
C651 C659 1.503 . S
C652 C651 1.410 . S
C652 C653 1.392 1_556 S
C652 C655 1.511 . S
C653 C649 1.376 . S
C653 C652 1.392 1_554 S
C653 H665 0.929 1_554 S
C654 C650 1.531 . S
C654 H666 0.960 . S
C654 H667 0.962 1_655 S
C654 H668 0.960 . S
C655 C652 1.511 . S
C655 H669 0.961 . S
C655 H670 0.961 . S
C655 H671 0.961 . S
C656 C657 1.370 . S
C656 C658 1.363 . S
C656 H672 0.931 1_655 S
C657 C656 1.370 . S
C657 C661 1.408 . S
C658 C656 1.363 . S
C658 C659 1.370 . S
C658 C662 1.524 1_655 S
C659 C651 1.503 . S
C659 C658 1.370 . S
C659 C660 1.403 . S
C660 C659 1.403 . S
C660 C661 1.404 . S
C660 C663 1.539 . S
C661 C657 1.408 . S
C661 C660 1.404 . S
C661 H673 0.930 . S
C662 C658 1.524 1_455 S
C662 H674 0.956 . S
C662 H675 0.961 1_455 S
C662 H676 0.961 . S
C663 C660 1.539 . S
C663 H677 0.958 . S
C663 H678 0.961 . S
C663 H679 0.960 . S
H664 C648 0.931 . S
H665 C653 0.929 1_556 S
H666 C654 0.960 . S
H667 C654 0.962 1_455 S
H668 C654 0.960 . S
H669 C655 0.961 . S
H670 C655 0.961 . S
H671 C655 0.961 . S
H672 C656 0.931 1_455 S
H673 C661 0.930 . S
H674 C662 0.956 . S
H675 C662 0.961 1_655 S
H676 C662 0.961 . S
H677 C663 0.958 . S
H678 C663 0.961 . S
H679 C663 0.960 . S
C680 C681 1.391 . S
C680 C682 1.394 . S
C680 H696 0.931 . S
C681 C680 1.391 . S
C681 C685 1.376 . S
C682 C680 1.394 . S
C682 C683 1.369 . S
C682 C686 1.576 . S
C683 C682 1.369 . S
C683 C684 1.410 . S
C683 C691 1.503 . S
C684 C683 1.410 . S
C684 C685 1.392 . S
C684 C687 1.511 . S
C685 C681 1.376 . S
C685 C684 1.392 . S
C685 H697 0.929 . S
C686 C682 1.576 . S
C686 H698 0.948 1_455 S
C686 H699 0.946 1_455 S
C686 H700 0.946 1_455 S
C687 C684 1.511 . S
C687 H701 0.961 . S
C687 H702 0.961 . S
C687 H703 0.961 . S
C688 C689 1.370 . S
C688 C690 1.363 . S
C688 H704 0.931 . S
C689 C688 1.370 . S
C689 C693 1.408 . S
C690 C688 1.363 . S
C690 C691 1.370 . S
C690 C694 1.524 . S
C691 C683 1.503 . S
C691 C690 1.370 . S
C691 C692 1.403 . S
C692 C691 1.403 . S
C692 C693 1.404 . S
C692 C695 1.539 . S
C693 C689 1.408 . S
C693 C692 1.404 . S
C693 H705 0.930 . S
C694 C690 1.524 . S
C694 H706 0.956 . S
C694 H707 0.961 . S
C694 H708 0.961 . S
C695 C692 1.539 . S
C695 H709 0.958 . S
C695 H710 0.961 . S
C695 H711 0.960 . S
H696 C680 0.931 . S
H697 C685 0.929 . S
H698 C686 0.948 1_655 S
H699 C686 0.946 1_655 S
H700 C686 0.946 1_655 S
H701 C687 0.961 . S
H702 C687 0.961 . S
H703 C687 0.961 . S
H704 C688 0.931 . S
H705 C693 0.930 . S
H706 C694 0.956 . S
H707 C694 0.961 . S
H708 C694 0.961 . S
H709 C695 0.958 . S
H710 C695 0.961 . S
H711 C695 0.960 . S
C712 C713 1.391 . S
C712 C714 1.394 . S
C712 H728 0.931 . S
C713 C712 1.391 . S
C713 C717 1.376 . S
C714 C712 1.394 . S
C714 C715 1.369 . S
C714 C718 1.531 . S
C715 C714 1.369 . S
C715 C716 1.410 . S
C715 C723 1.503 . S
C716 C715 1.410 . S
C716 C717 1.392 . S
C716 C719 1.511 . S
C717 C713 1.376 . S
C717 C716 1.392 . S
C717 H729 0.929 . S
C718 C714 1.531 . S
C718 H730 0.960 . S
C718 H731 0.962 . S
C718 H732 0.960 . S
C719 C716 1.511 . S
C719 H733 0.961 . S
C719 H734 0.961 . S
C719 H735 0.961 . S
C720 C721 1.370 . S
C720 C722 1.363 . S
C720 H736 0.931 . S
C721 C720 1.370 . S
C721 C725 1.408 1_545 S
C722 C720 1.363 . S
C722 C723 1.370 . S
C722 C726 1.524 . S
C723 C715 1.503 . S
C723 C722 1.370 . S
C723 C724 1.403 . S
C724 C723 1.403 . S
C724 C725 1.404 1_545 S
C724 C727 1.539 1_545 S
C725 C721 1.408 1_565 S
C725 C724 1.404 1_565 S
C725 H737 0.930 . S
C726 C722 1.524 . S
C726 H738 0.956 . S
C726 H739 0.961 . S
C726 H740 0.961 . S
C727 C724 1.539 1_565 S
C727 H741 0.958 . S
C727 H742 0.961 . S
C727 H743 0.960 1_565 S
H728 C712 0.931 . S
H729 C717 0.929 . S
H730 C718 0.960 . S
H731 C718 0.962 . S
H732 C718 0.960 . S
H733 C719 0.961 . S
H734 C719 0.961 . S
H735 C719 0.961 . S
H736 C720 0.931 . S
H737 C725 0.930 . S
H738 C726 0.956 . S
H739 C726 0.961 . S
H740 C726 0.961 . S
H741 C727 0.958 . S
H742 C727 0.961 . S
H743 C727 0.960 1_545 S
C744 C745 1.391 . S
C744 C746 1.394 . S
C744 H760 0.931 . S
C745 C744 1.391 . S
C745 C749 1.376 . S
C746 C744 1.394 . S
C746 C747 1.369 . S
C746 C750 1.531 . S
C747 C746 1.369 . S
C747 C748 1.410 . S
C747 C755 1.503 . S
C748 C747 1.410 . S
C748 C749 1.392 . S
C748 C751 1.511 . S
C749 C745 1.376 . S
C749 C748 1.392 . S
C749 H761 0.929 . S
C750 C746 1.531 . S
C750 H762 0.960 . S
C750 H763 0.962 . S
C750 H764 0.960 . S
C751 C748 1.511 . S
C751 H765 0.961 . S
C751 H766 0.961 . S
C751 H767 0.961 . S
C752 C753 1.370 . S
C752 C754 1.363 . S
C752 H768 0.931 . S
C753 C752 1.370 . S
C753 C757 1.408 . S
C754 C752 1.363 . S
C754 C755 1.370 . S
C754 C758 1.524 . S
C755 C747 1.503 . S
C755 C754 1.370 . S
C755 C756 1.403 . S
C756 C755 1.403 . S
C756 C757 1.404 . S
C756 C759 1.539 . S
C757 C753 1.408 . S
C757 C756 1.404 . S
C757 H769 0.930 . S
C758 C754 1.524 . S
C758 H770 0.956 . S
C758 H771 0.961 . S
C758 H772 0.961 . S
C759 C756 1.539 . S
C759 H773 0.958 . S
C759 H774 0.961 . S
C759 H775 0.960 . S
H760 C744 0.931 . S
H761 C749 0.929 . S
H762 C750 0.960 . S
H763 C750 0.962 . S
H764 C750 0.960 . S
H765 C751 0.961 . S
H766 C751 0.961 . S
H767 C751 0.961 . S
H768 C752 0.931 . S
H769 C757 0.930 . S
H770 C758 0.956 . S
H771 C758 0.961 . S
H772 C758 0.961 . S
H773 C759 0.958 . S
H774 C759 0.961 . S
H775 C759 0.960 . S
C776 C777 1.391 . S
C776 C778 1.394 . S
C776 H792 0.931 . S
C777 C776 1.391 . S
C777 C781 1.376 . S
C778 C776 1.394 . S
C778 C779 1.369 . S
C778 C782 1.531 . S
C779 C778 1.369 . S
C779 C780 1.410 . S
C779 C787 1.503 . S
C780 C779 1.410 . S
C780 C781 1.392 . S
C780 C783 1.511 . S
C781 C777 1.376 . S
C781 C780 1.392 . S
C781 H793 0.929 . S
C782 C778 1.531 . S
C782 H794 0.960 . S
C782 H795 0.962 . S
C782 H796 0.960 . S
C783 C780 1.511 . S
C783 H797 0.961 . S
C783 H798 0.961 . S
C783 H799 0.961 . S
C784 C785 1.370 . S
C784 C786 1.363 . S
C784 H800 0.931 . S
C785 C784 1.370 . S
C785 C789 1.408 . S
C786 C784 1.363 . S
C786 C787 1.370 . S
C786 C790 1.524 . S
C787 C779 1.503 . S
C787 C786 1.370 . S
C787 C788 1.403 . S
C788 C787 1.403 . S
C788 C789 1.404 . S
C788 C791 1.539 . S
C789 C785 1.408 . S
C789 C788 1.404 . S
C789 H801 0.930 . S
C790 C786 1.524 . S
C790 H802 0.956 . S
C790 H803 0.961 . S
C790 H804 0.961 . S
C791 C788 1.539 . S
C791 H805 0.958 . S
C791 H806 0.961 . S
C791 H807 0.960 . S
H792 C776 0.931 . S
H793 C781 0.929 . S
H794 C782 0.960 . S
H795 C782 0.962 . S
H796 C782 0.960 . S
H797 C783 0.961 . S
H798 C783 0.961 . S
H799 C783 0.961 . S
H800 C784 0.931 . S
H801 C789 0.930 . S
H802 C790 0.956 . S
H803 C790 0.961 . S
H804 C790 0.961 . S
H805 C791 0.958 . S
H806 C791 0.961 . S
H807 C791 0.960 . S
C808 C809 1.391 . S
C808 C810 1.394 . S
C808 H824 0.931 . S
C809 C808 1.391 . S
C809 C813 1.376 . S
C810 C808 1.394 . S
C810 C811 1.369 . S
C810 C814 1.531 . S
C811 C810 1.369 . S
C811 C812 1.410 1_554 S
C811 C819 1.503 1_554 S
C812 C811 1.410 1_556 S
C812 C813 1.392 1_556 S
C812 C815 1.511 . S
C813 C809 1.376 . S
C813 C812 1.392 1_554 S
C813 H825 0.929 . S
C814 C810 1.531 . S
C814 H826 0.960 1_655 S
C814 H827 0.962 . S
C814 H828 0.968 . S
C815 C812 1.511 . S
C815 H829 0.961 . S
C815 H830 0.961 . S
C815 H831 0.961 . S
C816 C817 1.370 1_655 S
C816 C818 1.363 . S
C816 H832 0.931 . S
C817 C816 1.370 1_455 S
C817 C821 1.408 . S
C818 C816 1.363 . S
C818 C819 1.370 . S
C818 C822 1.524 1_556 S
C819 C811 1.503 1_556 S
C819 C818 1.370 . S
C819 C820 1.403 1_655 S
C820 C819 1.403 1_455 S
C820 C821 1.404 . S
C820 C823 1.539 . S
C821 C817 1.408 . S
C821 C820 1.404 . S
C821 H833 0.930 . S
C822 C818 1.524 1_554 S
C822 H834 0.956 . S
C822 H835 0.961 1_554 S
C822 H836 0.961 . S
C823 C820 1.539 . S
C823 H837 0.959 1_556 S
C823 H838 0.961 . S
C823 H839 0.960 . S
H824 C808 0.931 . S
H825 C813 0.929 . S
H826 C814 0.960 1_455 S
H827 C814 0.962 . S
H828 C814 0.968 . S
H829 C815 0.961 . S
H830 C815 0.961 . S
H831 C815 0.961 . S
H832 C816 0.931 . S
H833 C821 0.930 . S
H834 C822 0.956 . S
H835 C822 0.961 1_556 S
H836 C822 0.961 . S
H837 C823 0.959 1_554 S
H838 C823 0.961 . S
H839 C823 0.960 . S
C840 C841 1.391 . S
C840 C842 1.394 . S
C840 H856 0.931 . S
C841 C840 1.391 . S
C841 C845 1.376 . S
C842 C840 1.394 . S
C842 C843 1.369 . S
C842 C846 1.531 . S
C843 C842 1.369 . S
C843 C844 1.410 1_554 S
C843 C851 1.503 1_554 S
C844 C843 1.410 1_556 S
C844 C845 1.392 1_556 S
C844 C847 1.511 . S
C845 C841 1.376 . S
C845 C844 1.392 1_554 S
C845 H857 0.929 . S
C846 C842 1.531 . S
C846 H858 0.960 1_565 S
C846 H859 0.962 . S
C846 H860 0.960 . S
C847 C844 1.511 . S
C847 H861 0.961 . S
C847 H862 0.961 . S
C847 H863 0.961 . S
C848 C849 1.370 1_565 S
C848 C850 1.363 . S
C848 H864 0.931 . S
C849 C848 1.370 1_545 S
C849 C853 1.408 . S
C850 C848 1.363 . S
C850 C851 1.370 . S
C850 C854 1.524 . S
C851 C843 1.503 1_556 S
C851 C850 1.370 . S
C851 C852 1.403 1_565 S
C852 C851 1.403 1_545 S
C852 C853 1.404 . S
C852 C855 1.539 . S
C853 C849 1.408 . S
C853 C852 1.404 . S
C853 H865 0.930 . S
C854 C850 1.524 . S
C854 H866 0.956 1_556 S
C854 H867 0.961 . S
C854 H868 0.961 . S
C855 C852 1.539 . S
C855 H869 0.958 1_556 S
C855 H870 0.961 . S
C855 H871 0.960 . S
H856 C840 0.931 . S
H857 C845 0.929 . S
H858 C846 0.960 1_545 S
H859 C846 0.962 . S
H860 C846 0.960 . S
H861 C847 0.961 . S
H862 C847 0.961 . S
H863 C847 0.961 . S
H864 C848 0.931 . S
H865 C853 0.930 . S
H866 C854 0.956 1_554 S
H867 C854 0.961 . S
H868 C854 0.961 . S
H869 C855 0.958 1_554 S
H870 C855 0.961 . S
H871 C855 0.960 . S
C872 C873 1.391 . S
C872 C874 1.394 1_554 S
C872 H888 0.933 . S
C873 C872 1.391 . S
C873 C877 1.376 . S
C874 C872 1.394 1_556 S
C874 C875 1.369 1_556 S
C874 C878 1.531 . S
C875 C874 1.369 1_554 S
C875 C876 1.410 . S
C875 C883 1.503 1_554 S
C876 C875 1.410 . S
C876 C877 1.392 . S
C876 C879 1.511 . S
C877 C873 1.376 . S
C877 C876 1.392 . S
C877 H889 0.929 . S
C878 C874 1.531 . S
C878 H890 0.960 . S
C878 H891 0.962 . S
C878 H892 0.960 . S
C879 C876 1.511 . S
C879 H893 0.961 . S
C879 H894 0.961 . S
C879 H895 0.961 . S
C880 C881 1.370 . S
C880 C882 1.363 1_556 S
C880 H896 0.931 . S
C881 C880 1.370 . S
C881 C885 1.408 . S
C882 C880 1.363 1_554 S
C882 C883 1.370 1_554 S
C882 C886 1.524 . S
C883 C875 1.503 1_556 S
C883 C882 1.370 1_556 S
C883 C884 1.403 . S
C884 C883 1.403 . S
C884 C885 1.404 . S
C884 C887 1.539 . S
C885 C881 1.408 . S
C885 C884 1.404 . S
C885 H897 0.930 . S
C886 C882 1.524 . S
C886 H898 0.956 . S
C886 H899 0.961 . S
C886 H900 0.961 . S
C887 C884 1.539 . S
C887 H901 0.958 . S
C887 H902 0.961 . S
C887 H903 0.960 . S
H888 C872 0.933 . S
H889 C877 0.929 . S
H890 C878 0.960 . S
H891 C878 0.962 . S
H892 C878 0.960 . S
H893 C879 0.961 . S
H894 C879 0.961 . S
H895 C879 0.961 . S
H896 C880 0.931 . S
H897 C885 0.930 . S
H898 C886 0.956 . S
H899 C886 0.961 . S
H900 C886 0.961 . S
H901 C887 0.958 . S
H902 C887 0.961 . S
H903 C887 0.960 . S
C904 C905 1.391 . S
C904 C906 1.394 . S
C904 H920 0.931 . S
C905 C904 1.391 . S
C905 C909 1.376 . S
C906 C904 1.394 . S
C906 C907 1.369 . S
C906 C910 1.531 . S
C907 C906 1.369 . S
C907 C908 1.410 1_554 S
C907 C915 1.503 1_554 S
C908 C907 1.410 1_556 S
C908 C909 1.392 1_556 S
C908 C911 1.511 . S
C909 C905 1.376 . S
C909 C908 1.392 1_554 S
C909 H921 0.929 . S
C910 C906 1.531 . S
C910 H922 0.960 . S
C910 H923 0.962 . S
C910 H924 0.960 . S
C911 C908 1.511 . S
C911 H925 0.961 . S
C911 H926 0.961 . S
C911 H927 0.961 . S
C912 C913 1.370 . S
C912 C914 1.363 1_556 S
C912 H928 0.931 . S
C913 C912 1.370 . S
C913 C917 1.408 . S
C914 C912 1.363 1_554 S
C914 C915 1.370 1_554 S
C914 C918 1.524 . S
C915 C907 1.503 1_556 S
C915 C914 1.370 1_556 S
C915 C916 1.403 . S
C916 C915 1.403 . S
C916 C917 1.404 . S
C916 C919 1.539 . S
C917 C913 1.408 . S
C917 C916 1.404 . S
C917 H929 0.930 . S
C918 C914 1.524 . S
C918 H930 0.956 . S
C918 H931 0.961 . S
C918 H932 0.961 . S
C919 C916 1.539 . S
C919 H933 0.958 . S
C919 H934 0.961 . S
C919 H935 0.960 . S
H920 C904 0.931 . S
H921 C909 0.929 . S
H922 C910 0.960 . S
H923 C910 0.962 . S
H924 C910 0.960 . S
H925 C911 0.961 . S
H926 C911 0.961 . S
H927 C911 0.961 . S
H928 C912 0.931 . S
H929 C917 0.930 . S
H930 C918 0.956 . S
H931 C918 0.961 . S
H932 C918 0.961 . S
H933 C919 0.958 . S
H934 C919 0.961 . S
H935 C919 0.960 . S
C936 C937 1.391 . S
C936 C938 1.394 . S
C936 H952 0.931 . S
C937 C936 1.391 . S
C937 C941 1.376 . S
C938 C936 1.394 . S
C938 C939 1.369 . S
C938 C942 1.531 . S
C939 C938 1.369 . S
C939 C940 1.410 . S
C939 C947 1.503 . S
C940 C939 1.410 . S
C940 C941 1.392 . S
C940 C943 1.511 . S
C941 C937 1.376 . S
C941 C940 1.392 . S
C941 H953 0.929 . S
C942 C938 1.531 . S
C942 H954 0.960 . S
C942 H955 0.958 . S
C942 H956 0.960 . S
C943 C940 1.511 . S
C943 H957 0.961 . S
C943 H958 0.961 . S
C943 H959 0.961 . S
C944 C945 1.370 . S
C944 C946 1.363 . S
C944 H960 0.931 . S
C945 C944 1.370 . S
C945 C949 1.408 . S
C946 C944 1.363 . S
C946 C947 1.370 . S
C946 C950 1.524 . S
C947 C939 1.503 . S
C947 C946 1.370 . S
C947 C948 1.403 . S
C948 C947 1.403 . S
C948 C949 1.404 . S
C948 C951 1.539 . S
C949 C945 1.408 . S
C949 C948 1.404 . S
C949 H961 0.930 . S
C950 C946 1.524 . S
C950 H962 0.956 . S
C950 H963 0.961 . S
C950 H964 0.961 . S
C951 C948 1.539 . S
C951 H965 0.958 . S
C951 H966 0.961 . S
C951 H967 0.960 . S
H952 C936 0.931 . S
H953 C941 0.929 . S
H954 C942 0.960 . S
H955 C942 0.958 . S
H956 C942 0.960 . S
H957 C943 0.961 . S
H958 C943 0.961 . S
H959 C943 0.961 . S
H960 C944 0.931 . S
H961 C949 0.930 . S
H962 C950 0.956 . S
H963 C950 0.961 . S
H964 C950 0.961 . S
H965 C951 0.958 . S
H966 C951 0.961 . S
H967 C951 0.960 . S
C968 C969 1.391 . S
C968 C970 1.394 . S
C968 H984 0.931 . S
C969 C968 1.391 . S
C969 C973 1.376 . S
C970 C968 1.394 . S
C970 C971 1.369 . S
C970 C974 1.531 . S
C971 C970 1.369 . S
C971 C972 1.410 . S
C971 C979 1.503 . S
C972 C971 1.410 . S
C972 C973 1.392 . S
C972 C975 1.511 . S
C973 C969 1.376 . S
C973 C972 1.392 . S
C973 H985 0.929 . S
C974 C970 1.531 . S
C974 H986 0.960 . S
C974 H987 0.962 . S
C974 H988 0.960 . S
C975 C972 1.511 . S
C975 H989 0.961 1_545 S
C975 H990 0.961 . S
C975 H991 0.961 1_545 S
C976 C977 1.370 . S
C976 C978 1.363 . S
C976 H992 0.931 . S
C977 C976 1.370 . S
C977 C981 1.408 . S
C978 C976 1.363 . S
C978 C979 1.370 . S
C978 C982 1.524 . S
C979 C971 1.503 . S
C979 C978 1.370 . S
C979 C980 1.403 . S
C980 C979 1.403 . S
C980 C981 1.404 . S
C980 C983 1.539 . S
C981 C977 1.408 . S
C981 C980 1.404 . S
C981 H993 0.930 . S
C982 C978 1.524 . S
C982 H994 0.956 . S
C982 H995 0.961 . S
C982 H996 0.961 . S
C983 C980 1.539 . S
C983 H997 0.958 . S
C983 H998 0.961 . S
C983 H999 0.960 . S
H984 C968 0.931 . S
H985 C973 0.929 . S
H986 C974 0.960 . S
H987 C974 0.962 . S
H988 C974 0.960 . S
H989 C975 0.961 1_565 S
H990 C975 0.961 . S
H991 C975 0.961 1_565 S
H992 C976 0.931 . S
H993 C981 0.930 . S
H994 C982 0.956 . S
H995 C982 0.961 . S
H996 C982 0.961 . S
H997 C983 0.958 . S
H998 C983 0.961 . S
H999 C983 0.960 . S
C1000 C1001 1.391 . S
C1000 C1002 1.394 . S
C1000 H1016 0.931 . S
C1001 C1000 1.391 . S
C1001 C1005 1.376 . S
C1002 C1000 1.394 . S
C1002 C1003 1.369 . S
C1002 C1006 1.531 . S
C1003 C1002 1.369 . S
C1003 C1004 1.410 . S
C1003 C1011 1.503 . S
C1004 C1003 1.410 . S
C1004 C1005 1.392 . S
C1004 C1007 1.511 . S
C1005 C1001 1.376 . S
C1005 C1004 1.392 . S
C1005 H1017 0.929 . S
C1006 C1002 1.531 . S
C1006 H1018 0.960 . S
C1006 H1019 0.962 . S
C1006 H1020 0.960 . S
C1007 C1004 1.511 . S
C1007 H1021 0.961 . S
C1007 H1022 0.961 . S
C1007 H1023 0.961 . S
C1008 C1009 1.370 . S
C1008 C1010 1.363 . S
C1008 H1024 0.931 . S
C1009 C1008 1.370 . S
C1009 C1013 1.408 . S
C1010 C1008 1.363 . S
C1010 C1011 1.370 . S
C1010 C1014 1.524 . S
C1011 C1003 1.503 . S
C1011 C1010 1.370 . S
C1011 C1012 1.403 . S
C1012 C1011 1.403 . S
C1012 C1013 1.404 . S
C1012 C1015 1.539 . S
C1013 C1009 1.408 . S
C1013 C1012 1.404 . S
C1013 H1025 0.930 . S
C1014 C1010 1.524 . S
C1014 H1026 0.956 . S
C1014 H1027 0.961 . S
C1014 H1028 0.961 . S
C1015 C1012 1.539 . S
C1015 H1029 0.958 . S
C1015 H1030 0.961 . S
C1015 H1031 0.960 . S
H1016 C1000 0.931 . S
H1017 C1005 0.929 . S
H1018 C1006 0.960 . S
H1019 C1006 0.962 . S
H1020 C1006 0.960 . S
H1021 C1007 0.961 . S
H1022 C1007 0.961 . S
H1023 C1007 0.961 . S
H1024 C1008 0.931 . S
H1025 C1013 0.930 . S
H1026 C1014 0.956 . S
H1027 C1014 0.961 . S
H1028 C1014 0.961 . S
H1029 C1015 0.958 . S
H1030 C1015 0.961 . S
H1031 C1015 0.960 . S
C1032 C1033 1.391 . S
C1032 C1034 1.394 . S
C1032 H1048 0.931 . S
C1033 C1032 1.391 . S
C1033 C1037 1.376 . S
C1034 C1032 1.394 . S
C1034 C1035 1.369 . S
C1034 C1038 1.531 . S
C1035 C1034 1.369 . S
C1035 C1036 1.410 . S
C1035 C1043 1.503 . S
C1036 C1035 1.410 . S
C1036 C1037 1.392 . S
C1036 C1039 1.511 . S
C1037 C1033 1.376 . S
C1037 C1036 1.392 . S
C1037 H1049 0.929 . S
C1038 C1034 1.531 . S
C1038 H1050 0.960 . S
C1038 H1051 0.962 . S
C1038 H1052 0.960 . S
C1039 C1036 1.511 . S
C1039 H1053 0.961 . S
C1039 H1054 0.961 . S
C1039 H1055 0.961 . S
C1040 C1041 1.370 . S
C1040 C1042 1.363 . S
C1040 H1056 0.931 . S
C1041 C1040 1.370 . S
C1041 C1045 1.408 . S
C1042 C1040 1.363 . S
C1042 C1043 1.370 . S
C1042 C1046 1.524 . S
C1043 C1035 1.503 . S
C1043 C1042 1.370 . S
C1043 C1044 1.403 . S
C1044 C1043 1.403 . S
C1044 C1045 1.404 . S
C1044 C1047 1.539 . S
C1045 C1041 1.408 . S
C1045 C1044 1.404 . S
C1045 H1057 0.930 . S
C1046 C1042 1.524 . S
C1046 H1058 0.956 . S
C1046 H1059 0.961 . S
C1046 H1060 0.961 . S
C1047 C1044 1.539 . S
C1047 H1061 0.958 . S
C1047 H1062 0.961 . S
C1047 H1063 0.960 . S
H1048 C1032 0.931 . S
H1049 C1037 0.929 . S
H1050 C1038 0.960 . S
H1051 C1038 0.962 . S
H1052 C1038 0.960 . S
H1053 C1039 0.961 . S
H1054 C1039 0.961 . S
H1055 C1039 0.961 . S
H1056 C1040 0.931 . S
H1057 C1045 0.930 . S
H1058 C1046 0.956 . S
H1059 C1046 0.961 . S
H1060 C1046 0.961 . S
H1061 C1047 0.958 . S
H1062 C1047 0.961 . S
H1063 C1047 0.960 . S
C1064 C1065 1.391 . S
C1064 C1066 1.394 . S
C1064 H1080 0.931 . S
C1065 C1064 1.391 . S
C1065 C1069 1.376 . S
C1066 C1064 1.394 . S
C1066 C1067 1.369 . S
C1066 C1070 1.531 . S
C1067 C1066 1.369 . S
C1067 C1068 1.410 . S
C1067 C1075 1.503 . S
C1068 C1067 1.410 . S
C1068 C1069 1.392 . S
C1068 C1071 1.511 1_655 S
C1069 C1065 1.376 . S
C1069 C1068 1.392 . S
C1069 H1081 0.929 . S
C1070 C1066 1.531 . S
C1070 H1082 0.960 . S
C1070 H1083 0.962 . S
C1070 H1084 0.960 . S
C1071 C1068 1.511 1_455 S
C1071 H1085 0.961 . S
C1071 H1086 0.961 . S
C1071 H1087 0.961 . S
C1072 C1073 1.370 . S
C1072 C1074 1.363 . S
C1072 H1088 0.931 . S
C1073 C1072 1.370 . S
C1073 C1077 1.408 . S
C1074 C1072 1.363 . S
C1074 C1075 1.370 . S
C1074 C1078 1.524 . S
C1075 C1067 1.503 . S
C1075 C1074 1.370 . S
C1075 C1076 1.403 . S
C1076 C1075 1.403 . S
C1076 C1077 1.404 . S
C1076 C1079 1.539 . S
C1077 C1073 1.408 . S
C1077 C1076 1.404 . S
C1077 H1089 0.930 . S
C1078 C1074 1.524 . S
C1078 H1090 0.956 . S
C1078 H1091 0.961 . S
C1078 H1092 0.961 . S
C1079 C1076 1.539 . S
C1079 H1093 0.958 . S
C1079 H1094 0.961 . S
C1079 H1095 0.960 . S
H1080 C1064 0.931 . S
H1081 C1069 0.929 . S
H1082 C1070 0.960 . S
H1083 C1070 0.962 . S
H1084 C1070 0.960 . S
H1085 C1071 0.961 . S
H1086 C1071 0.961 . S
H1087 C1071 0.961 . S
H1088 C1072 0.931 . S
H1089 C1077 0.930 . S
H1090 C1078 0.956 . S
H1091 C1078 0.961 . S
H1092 C1078 0.961 . S
H1093 C1079 0.958 . S
H1094 C1079 0.961 . S
H1095 C1079 0.960 . S
C1096 C1097 1.391 . S
C1096 C1098 1.394 . S
C1096 H1112 0.931 . S
C1097 C1096 1.391 . S
C1097 C1101 1.376 . S
C1098 C1096 1.394 . S
C1098 C1099 1.369 . S
C1098 C1102 1.531 . S
C1099 C1098 1.369 . S
C1099 C1100 1.410 . S
C1099 C1107 1.503 . S
C1100 C1099 1.410 . S
C1100 C1101 1.392 . S
C1100 C1103 1.511 . S
C1101 C1097 1.376 . S
C1101 C1100 1.392 . S
C1101 H1113 0.929 . S
C1102 C1098 1.531 . S
C1102 H1114 0.960 . S
C1102 H1115 0.962 . S
C1102 H1116 0.960 . S
C1103 C1100 1.511 . S
C1103 H1117 0.961 . S
C1103 H1118 0.961 . S
C1103 H1119 0.961 . S
C1104 C1105 1.370 1_545 S
C1104 C1106 1.363 1_545 S
C1104 H1120 0.931 . S
C1105 C1104 1.370 1_565 S
C1105 C1109 1.408 . S
C1106 C1104 1.363 1_565 S
C1106 C1107 1.370 . S
C1106 C1110 1.524 1_565 S
C1107 C1099 1.503 . S
C1107 C1106 1.370 . S
C1107 C1108 1.403 . S
C1108 C1107 1.403 . S
C1108 C1109 1.404 . S
C1108 C1111 1.539 . S
C1109 C1105 1.408 . S
C1109 C1108 1.404 . S
C1109 H1121 0.930 . S
C1110 C1106 1.524 1_545 S
C1110 H1122 0.956 . S
C1110 H1123 0.961 . S
C1110 H1124 0.961 . S
C1111 C1108 1.539 . S
C1111 H1125 0.958 . S
C1111 H1126 0.961 . S
C1111 H1127 0.960 . S
H1112 C1096 0.931 . S
H1113 C1101 0.929 . S
H1114 C1102 0.960 . S
H1115 C1102 0.962 . S
H1116 C1102 0.960 . S
H1117 C1103 0.961 . S
H1118 C1103 0.961 . S
H1119 C1103 0.961 . S
H1120 C1104 0.931 . S
H1121 C1109 0.930 . S
H1122 C1110 0.956 . S
H1123 C1110 0.961 . S
H1124 C1110 0.961 . S
H1125 C1111 0.958 . S
H1126 C1111 0.961 . S
H1127 C1111 0.960 . S
C1128 C1129 1.391 . S
C1128 C1130 1.394 . S
C1128 H1144 0.931 . S
C1129 C1128 1.391 . S
C1129 C1133 1.376 . S
C1130 C1128 1.394 . S
C1130 C1131 1.369 . S
C1130 C1134 1.531 . S
C1131 C1130 1.369 . S
C1131 C1132 1.410 . S
C1131 C1139 1.503 . S
C1132 C1131 1.410 . S
C1132 C1133 1.392 . S
C1132 C1135 1.511 . S
C1133 C1129 1.376 . S
C1133 C1132 1.392 . S
C1133 H1145 0.929 . S
C1134 C1130 1.531 . S
C1134 H1146 0.960 . S
C1134 H1147 0.962 . S
C1134 H1148 0.960 . S
C1135 C1132 1.511 . S
C1135 H1149 0.961 . S
C1135 H1150 0.961 . S
C1135 H1151 0.961 . S
C1136 C1137 1.370 . S
C1136 C1138 1.363 . S
C1136 H1152 0.931 . S
C1137 C1136 1.370 . S
C1137 C1141 1.408 . S
C1138 C1136 1.363 . S
C1138 C1139 1.370 . S
C1138 C1142 1.524 . S
C1139 C1131 1.503 . S
C1139 C1138 1.370 . S
C1139 C1140 1.403 . S
C1140 C1139 1.403 . S
C1140 C1141 1.404 . S
C1140 C1143 1.539 . S
C1141 C1137 1.408 . S
C1141 C1140 1.404 . S
C1141 H1153 0.930 . S
C1142 C1138 1.524 . S
C1142 H1154 0.956 . S
C1142 H1155 0.961 . S
C1142 H1156 0.961 . S
C1143 C1140 1.539 . S
C1143 H1157 0.958 . S
C1143 H1158 0.961 . S
C1143 H1159 0.960 . S
H1144 C1128 0.931 . S
H1145 C1133 0.929 . S
H1146 C1134 0.960 . S
H1147 C1134 0.962 . S
H1148 C1134 0.960 . S
H1149 C1135 0.961 . S
H1150 C1135 0.961 . S
H1151 C1135 0.961 . S
H1152 C1136 0.931 . S
H1153 C1141 0.930 . S
H1154 C1142 0.956 . S
H1155 C1142 0.961 . S
H1156 C1142 0.961 . S
H1157 C1143 0.958 . S
H1158 C1143 0.961 . S
H1159 C1143 0.960 . S
C1160 C1161 1.391 . S
C1160 C1162 1.394 . S
C1160 H1176 0.931 . S
C1161 C1160 1.391 . S
C1161 C1165 1.376 . S
C1162 C1160 1.394 . S
C1162 C1163 1.369 . S
C1162 C1166 1.531 . S
C1163 C1162 1.369 . S
C1163 C1164 1.410 . S
C1163 C1171 1.503 . S
C1164 C1163 1.410 . S
C1164 C1165 1.392 . S
C1164 C1167 1.511 . S
C1165 C1161 1.376 . S
C1165 C1164 1.392 . S
C1165 H1177 0.929 . S
C1166 C1162 1.531 . S
C1166 H1178 0.960 . S
C1166 H1179 0.962 . S
C1166 H1180 0.960 . S
C1167 C1164 1.511 . S
C1167 H1181 0.961 . S
C1167 H1182 0.961 . S
C1167 H1183 0.961 . S
C1168 C1169 1.370 . S
C1168 C1170 1.363 . S
C1168 H1184 0.931 . S
C1169 C1168 1.370 . S
C1169 C1173 1.408 . S
C1170 C1168 1.363 . S
C1170 C1171 1.370 . S
C1170 C1174 1.524 . S
C1171 C1163 1.503 . S
C1171 C1170 1.370 . S
C1171 C1172 1.403 . S
C1172 C1171 1.403 . S
C1172 C1173 1.404 . S
C1172 C1175 1.539 . S
C1173 C1169 1.408 . S
C1173 C1172 1.404 . S
C1173 H1185 0.930 . S
C1174 C1170 1.524 . S
C1174 H1186 0.956 . S
C1174 H1187 0.961 . S
C1174 H1188 0.961 . S
C1175 C1172 1.539 . S
C1175 H1189 0.958 . S
C1175 H1190 0.961 . S
C1175 H1191 0.960 . S
H1176 C1160 0.931 . S
H1177 C1165 0.929 . S
H1178 C1166 0.960 . S
H1179 C1166 0.962 . S
H1180 C1166 0.960 . S
H1181 C1167 0.961 . S
H1182 C1167 0.961 . S
H1183 C1167 0.961 . S
H1184 C1168 0.931 . S
H1185 C1173 0.930 . S
H1186 C1174 0.956 . S
H1187 C1174 0.961 . S
H1188 C1174 0.961 . S
H1189 C1175 0.958 . S
H1190 C1175 0.961 . S
H1191 C1175 0.960 . S
C425 C74 1.840 . S
C433 C162 1.877 . S
C465 C246 1.891 . S
C457 C85 1.903 . S
C497 C312 1.873 . S
C489 C52 1.987 . S
C529 C396 1.860 . S
C521 C63 1.937 . S
C561 C151 1.864 1_565 S
C553 C30 1.813 . S
C585 C41 1.795 . S
C593 C235 1.907 . S
C617 C8 1.895 . S
C625 C323 1.884 . S
C649 C19 1.938 . S
C657 C407 1.836 . S
C689 C158 0.741 1_455 S
C681 C62 0.764 . S
C721 C242 0.682 1_545 S
C713 C73 0.703 . S
C753 C314 0.653 . S
C745 C84 0.629 . S
C777 C51 0.664 . S
C785 C398 0.703 . S
C809 C18 0.654 . S
C817 C146 0.723 . S
C849 C230 0.681 . S
C841 C29 0.622 . S
C881 C326 0.683 . S
C873 C40 0.767 . S
C905 C7 0.630 . S
C913 C410 0.712 . S
C937 C60 1.859 . S
C945 C155 2.076 . S
C969 C71 1.797 . S
C977 C239 2.048 . S
C1009 C319 2.065 . S
C1001 C82 1.787 . S
C1041 C403 2.096 . S
C1033 C49 1.761 . S
C1065 C16 1.660 . S
C1073 C144 2.066 . S
C1105 C228 2.071 . S
C1097 C27 1.652 . S
C1137 C330 2.066 . S
C1129 C38 1.518 . S
C1161 C5 1.489 . S
C1169 C414 2.098 . S
