# Generated by pormake.
# Topology gar, (4,6)-cn, num edge types: 1
# Building blocks:
#     Node 0, Type 0, BuildingBlock: NAHDIM_clean_sbu_0, # of connection points: 4
#     Node 1, Type 0, BuildingBlock: NAHDIM_clean_sbu_0, # of connection points: 4
#     Node 2, Type 0, BuildingBlock: NAHDIM_clean_sbu_0, # of connection points: 4
#     Node 3, Type 0, BuildingBlock: NAHDIM_clean_sbu_0, # of connection points: 4
#     Node 4, Type 0, BuildingBlock: NAHDIM_clean_sbu_0, # of connection points: 4
#     Node 5, Type 0, BuildingBlock: NAHDIM_clean_sbu_0, # of connection points: 4
#     Node 6, Type 0, BuildingBlock: NAHDIM_clean_sbu_0, # of connection points: 4
#     Node 7, Type 0, BuildingBlock: NAHDIM_clean_sbu_0, # of connection points: 4
#     Node 8, Type 0, BuildingBlock: NAHDIM_clean_sbu_0, # of connection points: 4
#     Node 9, Type 0, BuildingBlock: NAHDIM_clean_sbu_0, # of connection points: 4
#     Node 10, Type 0, BuildingBlock: NAHDIM_clean_sbu_0, # of connection points: 4
#     Node 11, Type 0, BuildingBlock: NAHDIM_clean_sbu_0, # of connection points: 4
#     Node 12, Type 0, BuildingBlock: NAHDIM_clean_sbu_0, # of connection points: 4
#     Node 13, Type 0, BuildingBlock: NAHDIM_clean_sbu_0, # of connection points: 4
#     Node 14, Type 0, BuildingBlock: NAHDIM_clean_sbu_0, # of connection points: 4
#     Node 15, Type 0, BuildingBlock: NAHDIM_clean_sbu_0, # of connection points: 4
#     Node 16, Type 0, BuildingBlock: NAHDIM_clean_sbu_0, # of connection points: 4
#     Node 17, Type 0, BuildingBlock: NAHDIM_clean_sbu_0, # of connection points: 4
#     Node 18, Type 0, BuildingBlock: NAHDIM_clean_sbu_0, # of connection points: 4
#     Node 19, Type 0, BuildingBlock: NAHDIM_clean_sbu_0, # of connection points: 4
#     Node 20, Type 0, BuildingBlock: NAHDIM_clean_sbu_0, # of connection points: 4
#     Node 21, Type 0, BuildingBlock: NAHDIM_clean_sbu_0, # of connection points: 4
#     Node 22, Type 0, BuildingBlock: NAHDIM_clean_sbu_0, # of connection points: 4
#     Node 23, Type 0, BuildingBlock: NAHDIM_clean_sbu_0, # of connection points: 4
#     Node 24, Type 1, BuildingBlock: MIFKUJ_clean_sbu_0, # of connection points: 6
#     Node 25, Type 1, BuildingBlock: MIFKUJ_clean_sbu_0, # of connection points: 6
#     Node 26, Type 1, BuildingBlock: MIFKUJ_clean_sbu_0, # of connection points: 6
#     Node 27, Type 1, BuildingBlock: MIFKUJ_clean_sbu_0, # of connection points: 6
#     Node 28, Type 1, BuildingBlock: MIFKUJ_clean_sbu_0, # of connection points: 6
#     Node 29, Type 1, BuildingBlock: MIFKUJ_clean_sbu_0, # of connection points: 6
#     Node 30, Type 1, BuildingBlock: MIFKUJ_clean_sbu_0, # of connection points: 6
#     Node 31, Type 1, BuildingBlock: MIFKUJ_clean_sbu_0, # of connection points: 6
#     Node 32, Type 1, BuildingBlock: MIFKUJ_clean_sbu_0, # of connection points: 6
#     Node 33, Type 1, BuildingBlock: MIFKUJ_clean_sbu_0, # of connection points: 6
#     Node 34, Type 1, BuildingBlock: MIFKUJ_clean_sbu_0, # of connection points: 6
#     Node 35, Type 1, BuildingBlock: MIFKUJ_clean_sbu_0, # of connection points: 6
#     Node 36, Type 1, BuildingBlock: MIFKUJ_clean_sbu_0, # of connection points: 6
#     Node 37, Type 1, BuildingBlock: MIFKUJ_clean_sbu_0, # of connection points: 6
#     Node 38, Type 1, BuildingBlock: MIFKUJ_clean_sbu_0, # of connection points: 6
#     Node 39, Type 1, BuildingBlock: MIFKUJ_clean_sbu_0, # of connection points: 6
#     Edge 40, Type (0, 1), BuildingBlock: CIFDUS_clean_linker_0, # of connection points: 2
#     Edge 41, Type (0, 1), BuildingBlock: CIFDUS_clean_linker_0, # of connection points: 2
#     Edge 42, Type (0, 1), BuildingBlock: CIFDUS_clean_linker_0, # of connection points: 2
#     Edge 43, Type (0, 1), BuildingBlock: CIFDUS_clean_linker_0, # of connection points: 2
#     Edge 44, Type (0, 1), BuildingBlock: CIFDUS_clean_linker_0, # of connection points: 2
#     Edge 45, Type (0, 1), BuildingBlock: CIFDUS_clean_linker_0, # of connection points: 2
#     Edge 46, Type (0, 1), BuildingBlock: CIFDUS_clean_linker_0, # of connection points: 2
#     Edge 47, Type (0, 1), BuildingBlock: CIFDUS_clean_linker_0, # of connection points: 2
#     Edge 48, Type (0, 1), BuildingBlock: CIFDUS_clean_linker_0, # of connection points: 2
#     Edge 49, Type (0, 1), BuildingBlock: CIFDUS_clean_linker_0, # of connection points: 2
#     Edge 50, Type (0, 1), BuildingBlock: CIFDUS_clean_linker_0, # of connection points: 2
#     Edge 51, Type (0, 1), BuildingBlock: CIFDUS_clean_linker_0, # of connection points: 2
#     Edge 52, Type (0, 1), BuildingBlock: CIFDUS_clean_linker_0, # of connection points: 2
#     Edge 53, Type (0, 1), BuildingBlock: CIFDUS_clean_linker_0, # of connection points: 2
#     Edge 54, Type (0, 1), BuildingBlock: CIFDUS_clean_linker_0, # of connection points: 2
#     Edge 55, Type (0, 1), BuildingBlock: CIFDUS_clean_linker_0, # of connection points: 2
#     Edge 56, Type (0, 1), BuildingBlock: CIFDUS_clean_linker_0, # of connection points: 2
#     Edge 57, Type (0, 1), BuildingBlock: CIFDUS_clean_linker_0, # of connection points: 2
#     Edge 58, Type (0, 1), BuildingBlock: CIFDUS_clean_linker_0, # of connection points: 2
#     Edge 59, Type (0, 1), BuildingBlock: CIFDUS_clean_linker_0, # of connection points: 2
#     Edge 60, Type (0, 1), BuildingBlock: CIFDUS_clean_linker_0, # of connection points: 2
#     Edge 61, Type (0, 1), BuildingBlock: CIFDUS_clean_linker_0, # of connection points: 2
#     Edge 62, Type (0, 1), BuildingBlock: CIFDUS_clean_linker_0, # of connection points: 2
#     Edge 63, Type (0, 1), BuildingBlock: CIFDUS_clean_linker_0, # of connection points: 2
#     Edge 64, Type (0, 1), BuildingBlock: CIFDUS_clean_linker_0, # of connection points: 2
#     Edge 65, Type (0, 1), BuildingBlock: CIFDUS_clean_linker_0, # of connection points: 2
#     Edge 66, Type (0, 1), BuildingBlock: CIFDUS_clean_linker_0, # of connection points: 2
#     Edge 67, Type (0, 1), BuildingBlock: CIFDUS_clean_linker_0, # of connection points: 2
#     Edge 68, Type (0, 1), BuildingBlock: CIFDUS_clean_linker_0, # of connection points: 2
#     Edge 69, Type (0, 1), BuildingBlock: CIFDUS_clean_linker_0, # of connection points: 2
#     Edge 70, Type (0, 1), BuildingBlock: CIFDUS_clean_linker_0, # of connection points: 2
#     Edge 71, Type (0, 1), BuildingBlock: CIFDUS_clean_linker_0, # of connection points: 2
#     Edge 72, Type (0, 1), BuildingBlock: CIFDUS_clean_linker_0, # of connection points: 2
#     Edge 73, Type (0, 1), BuildingBlock: CIFDUS_clean_linker_0, # of connection points: 2
#     Edge 74, Type (0, 1), BuildingBlock: CIFDUS_clean_linker_0, # of connection points: 2
#     Edge 75, Type (0, 1), BuildingBlock: CIFDUS_clean_linker_0, # of connection points: 2
#     Edge 76, Type (0, 1), BuildingBlock: CIFDUS_clean_linker_0, # of connection points: 2
#     Edge 77, Type (0, 1), BuildingBlock: CIFDUS_clean_linker_0, # of connection points: 2
#     Edge 78, Type (0, 1), BuildingBlock: CIFDUS_clean_linker_0, # of connection points: 2
#     Edge 79, Type (0, 1), BuildingBlock: CIFDUS_clean_linker_0, # of connection points: 2
#     Edge 80, Type (0, 1), BuildingBlock: CIFDUS_clean_linker_0, # of connection points: 2
#     Edge 81, Type (0, 1), BuildingBlock: CIFDUS_clean_linker_0, # of connection points: 2
#     Edge 82, Type (0, 1), BuildingBlock: CIFDUS_clean_linker_0, # of connection points: 2
#     Edge 83, Type (0, 1), BuildingBlock: CIFDUS_clean_linker_0, # of connection points: 2
#     Edge 84, Type (0, 1), BuildingBlock: CIFDUS_clean_linker_0, # of connection points: 2
#     Edge 85, Type (0, 1), BuildingBlock: CIFDUS_clean_linker_0, # of connection points: 2
#     Edge 86, Type (0, 1), BuildingBlock: CIFDUS_clean_linker_0, # of connection points: 2
#     Edge 87, Type (0, 1), BuildingBlock: CIFDUS_clean_linker_0, # of connection points: 2
#     Edge 88, Type (0, 1), BuildingBlock: CIFDUS_clean_linker_0, # of connection points: 2
#     Edge 89, Type (0, 1), BuildingBlock: CIFDUS_clean_linker_0, # of connection points: 2
#     Edge 90, Type (0, 1), BuildingBlock: CIFDUS_clean_linker_0, # of connection points: 2
#     Edge 91, Type (0, 1), BuildingBlock: CIFDUS_clean_linker_0, # of connection points: 2
#     Edge 92, Type (0, 1), BuildingBlock: CIFDUS_clean_linker_0, # of connection points: 2
#     Edge 93, Type (0, 1), BuildingBlock: CIFDUS_clean_linker_0, # of connection points: 2
#     Edge 94, Type (0, 1), BuildingBlock: CIFDUS_clean_linker_0, # of connection points: 2
#     Edge 95, Type (0, 1), BuildingBlock: CIFDUS_clean_linker_0, # of connection points: 2
#     Edge 96, Type (0, 1), BuildingBlock: CIFDUS_clean_linker_0, # of connection points: 2
#     Edge 97, Type (0, 1), BuildingBlock: CIFDUS_clean_linker_0, # of connection points: 2
#     Edge 98, Type (0, 1), BuildingBlock: CIFDUS_clean_linker_0, # of connection points: 2
#     Edge 99, Type (0, 1), BuildingBlock: CIFDUS_clean_linker_0, # of connection points: 2
#     Edge 100, Type (0, 1), BuildingBlock: CIFDUS_clean_linker_0, # of connection points: 2
#     Edge 101, Type (0, 1), BuildingBlock: CIFDUS_clean_linker_0, # of connection points: 2
#     Edge 102, Type (0, 1), BuildingBlock: CIFDUS_clean_linker_0, # of connection points: 2
#     Edge 103, Type (0, 1), BuildingBlock: CIFDUS_clean_linker_0, # of connection points: 2
#     Edge 104, Type (0, 1), BuildingBlock: CIFDUS_clean_linker_0, # of connection points: 2
#     Edge 105, Type (0, 1), BuildingBlock: CIFDUS_clean_linker_0, # of connection points: 2
#     Edge 106, Type (0, 1), BuildingBlock: CIFDUS_clean_linker_0, # of connection points: 2
#     Edge 107, Type (0, 1), BuildingBlock: CIFDUS_clean_linker_0, # of connection points: 2
#     Edge 108, Type (0, 1), BuildingBlock: CIFDUS_clean_linker_0, # of connection points: 2
#     Edge 109, Type (0, 1), BuildingBlock: CIFDUS_clean_linker_0, # of connection points: 2
#     Edge 110, Type (0, 1), BuildingBlock: CIFDUS_clean_linker_0, # of connection points: 2
#     Edge 111, Type (0, 1), BuildingBlock: CIFDUS_clean_linker_0, # of connection points: 2
#     Edge 112, Type (0, 1), BuildingBlock: CIFDUS_clean_linker_0, # of connection points: 2
#     Edge 113, Type (0, 1), BuildingBlock: CIFDUS_clean_linker_0, # of connection points: 2
#     Edge 114, Type (0, 1), BuildingBlock: CIFDUS_clean_linker_0, # of connection points: 2
#     Edge 115, Type (0, 1), BuildingBlock: CIFDUS_clean_linker_0, # of connection points: 2
#     Edge 116, Type (0, 1), BuildingBlock: CIFDUS_clean_linker_0, # of connection points: 2
#     Edge 117, Type (0, 1), BuildingBlock: CIFDUS_clean_linker_0, # of connection points: 2
#     Edge 118, Type (0, 1), BuildingBlock: CIFDUS_clean_linker_0, # of connection points: 2
#     Edge 119, Type (0, 1), BuildingBlock: CIFDUS_clean_linker_0, # of connection points: 2
#     Edge 120, Type (0, 1), BuildingBlock: CIFDUS_clean_linker_0, # of connection points: 2
#     Edge 121, Type (0, 1), BuildingBlock: CIFDUS_clean_linker_0, # of connection points: 2
#     Edge 122, Type (0, 1), BuildingBlock: CIFDUS_clean_linker_0, # of connection points: 2
#     Edge 123, Type (0, 1), BuildingBlock: CIFDUS_clean_linker_0, # of connection points: 2
#     Edge 124, Type (0, 1), BuildingBlock: CIFDUS_clean_linker_0, # of connection points: 2
#     Edge 125, Type (0, 1), BuildingBlock: CIFDUS_clean_linker_0, # of connection points: 2
#     Edge 126, Type (0, 1), BuildingBlock: CIFDUS_clean_linker_0, # of connection points: 2
#     Edge 127, Type (0, 1), BuildingBlock: CIFDUS_clean_linker_0, # of connection points: 2
#     Edge 128, Type (0, 1), BuildingBlock: CIFDUS_clean_linker_0, # of connection points: 2
#     Edge 129, Type (0, 1), BuildingBlock: CIFDUS_clean_linker_0, # of connection points: 2
#     Edge 130, Type (0, 1), BuildingBlock: CIFDUS_clean_linker_0, # of connection points: 2
#     Edge 131, Type (0, 1), BuildingBlock: CIFDUS_clean_linker_0, # of connection points: 2
#     Edge 132, Type (0, 1), BuildingBlock: CIFDUS_clean_linker_0, # of connection points: 2
#     Edge 133, Type (0, 1), BuildingBlock: CIFDUS_clean_linker_0, # of connection points: 2
#     Edge 134, Type (0, 1), BuildingBlock: CIFDUS_clean_linker_0, # of connection points: 2
#     Edge 135, Type (0, 1), BuildingBlock: CIFDUS_clean_linker_0, # of connection points: 2
# Relax obj value: 0.116
# Max RMSD: 0.294
# Mean RMSD: 0.161
data_MOF--net-gar--node1-NAHDIM_clean_sbu_0--node2-MIFKUJ_clean_sbu_0--edge1-CIFDUS_clean_linker_0
_symmetry_space_group_name_H-M    P1
_symmetry_Int_Tables_number       1
_symmetry_cell_setting            triclinic
loop_
_symmetry_equiv_pos_as_xyz
'x, y, z'
_cell_length_a     50.816346
_cell_length_b     49.75346
_cell_length_c     46.597647
_cell_angle_alpha  94.906744
_cell_angle_beta   95.2823
_cell_angle_gamma 99.877019
loop_
_atom_site_label
_atom_site_type_symbol
_atom_site_fract_x
_atom_site_fract_y
_atom_site_fract_z
_atom_type_partial_charge
C0 C 0.09891 0.28832 0.40226 0.0
O1 O 0.09706 0.29041 0.43029 0.0
O2 O 0.04958 0.24189 0.42777 0.0
Zn3 Zn 0.04444 0.27376 0.40569 0.0
O4 O 0.04092 0.30642 0.43283 0.0
C5 C 0.99706 0.23943 0.37451 0.0
O6 O 0.00709 0.21986 0.38637 0.0
O7 O 0.07742 0.2821 0.38502 0.0
C8 C 0.0176 0.3095 0.43868 0.0
O9 O 0.99674 0.29084 0.4278 0.0
C10 C 0.03706 0.23356 0.44862 0.0
O11 O 0.01905 0.24699 0.45837 0.0
O12 O 0.01048 0.26372 0.37804 0.0
C13 C 0.95118 0.74949 0.65086 0.0
O14 O 0.95234 0.74877 0.62275 0.0
O15 O 0.9946 0.70387 0.6215 0.0
Zn16 Zn 0.00289 0.74157 0.6433 0.0
O17 O 0.0059 0.77141 0.61627 0.0
C18 C 0.05601 0.73256 0.65474 0.0
O19 O 0.04863 0.71922 0.62893 0.0
O20 O 0.97194 0.74644 0.66687 0.0
C21 C 0.02438 0.77867 0.60038 0.0
O22 O 0.04463 0.7655 0.5997 0.0
C23 C 0.99143 0.69697 0.59432 0.0
O24 O 0.99075 0.71587 0.57638 0.0
O25 O 0.03912 0.74432 0.66726 0.0
C26 C 0.58201 0.77129 0.89321 0.0
O27 O 0.57942 0.77067 0.92096 0.0
O28 O 0.52291 0.74517 0.91994 0.0
Zn29 Zn 0.52971 0.77855 0.89785 0.0
O30 O 0.53868 0.8133 0.92576 0.0
C31 C 0.47374 0.76917 0.87935 0.0
O32 O 0.47403 0.75714 0.90336 0.0
O33 O 0.56206 0.77509 0.87646 0.0
C34 C 0.52027 0.82128 0.93917 0.0
O35 O 0.49594 0.8066 0.93485 0.0
C36 C 0.52343 0.74473 0.94725 0.0
O37 O 0.52919 0.76785 0.96427 0.0
O38 O 0.49595 0.77963 0.87081 0.0
C39 C 0.44846 0.27028 0.15786 0.0
O40 O 0.45081 0.28678 0.13733 0.0
O41 O 0.49055 0.21618 0.11109 0.0
Zn42 Zn 0.49492 0.25271 0.13503 0.0
O43 O 0.49716 0.28402 0.11009 0.0
C44 C 0.54862 0.24523 0.1526 0.0
O45 O 0.54477 0.23047 0.12733 0.0
O46 O 0.4647 0.25359 0.16064 0.0
C47 C 0.51624 0.29135 0.09497 0.0
O48 O 0.53574 0.27716 0.09394 0.0
C49 C 0.48211 0.20914 0.0845 0.0
O50 O 0.47247 0.22666 0.0688 0.0
O51 O 0.52998 0.25722 0.16079 0.0
C52 C 0.98552 0.76915 0.19048 0.0
O53 O 0.98226 0.76584 0.16201 0.0
O54 O 0.02798 0.74316 0.15012 0.0
Zn55 Zn 0.03649 0.77966 0.17446 0.0
O56 O 0.03199 0.8128 0.15369 0.0
C57 C 0.09314 0.78788 0.17845 0.0
O58 O 0.08757 0.79076 0.15092 0.0
O59 O 0.00921 0.77643 0.20323 0.0
C60 C 0.02544 0.81566 0.12727 0.0
O61 O 0.02126 0.7943 0.10773 0.0
C62 C 0.03672 0.73262 0.12792 0.0
O63 O 0.05485 0.74749 0.1147 0.0
O64 O 0.07405 0.784 0.19427 0.0
C65 C 0.55908 0.73175 0.38343 0.0
O66 O 0.55699 0.72509 0.40992 0.0
O67 O 0.50276 0.71363 0.41871 0.0
Zn68 Zn 0.50857 0.74437 0.39299 0.0
O69 O 0.51938 0.781 0.41641 0.0
C70 C 0.46216 0.7243 0.34969 0.0
O71 O 0.47114 0.70104 0.34856 0.0
O72 O 0.53968 0.74025 0.37008 0.0
C73 C 0.50437 0.79404 0.43035 0.0
O74 O 0.4792 0.78273 0.43147 0.0
C75 C 0.47987 0.70372 0.42593 0.0
O76 O 0.45892 0.71436 0.41728 0.0
O77 O 0.47499 0.74475 0.36653 0.0
C78 C 0.46885 0.27165 0.67077 0.0
O79 O 0.47246 0.27463 0.64358 0.0
O80 O 0.52582 0.23932 0.64812 0.0
Zn81 Zn 0.5238 0.27503 0.6712 0.0
O82 O 0.52617 0.30909 0.65035 0.0
C83 C 0.57702 0.28367 0.69108 0.0
O84 O 0.57658 0.28286 0.66276 0.0
O85 O 0.48902 0.27058 0.68857 0.0
C86 C 0.53023 0.3147 0.62486 0.0
O87 O 0.53436 0.29551 0.60552 0.0
C88 C 0.51717 0.2287 0.62248 0.0
O89 O 0.50433 0.2424 0.60474 0.0
O90 O 0.55491 0.28147 0.70205 0.0
C91 C 0.0562 0.24295 0.88298 0.0
O92 O 0.05587 0.24161 0.91098 0.0
O93 O 0.00331 0.21767 0.91663 0.0
Zn94 Zn 0.00339 0.24748 0.88997 0.0
O95 O 0.00973 0.28562 0.9103 0.0
C96 C 0.94774 0.23172 0.871 0.0
O97 O 0.94742 0.22645 0.89813 0.0
O98 O 0.03496 0.24581 0.86786 0.0
C99 C 0.99439 0.29791 0.92459 0.0
O100 O 0.97069 0.2847 0.92909 0.0
C101 C 0.00211 0.21801 0.94378 0.0
O102 O 0.99831 0.24029 0.95884 0.0
O103 O 0.97001 0.24084 0.86198 0.0
C104 C 0.3619 0.07038 0.25085 0.0
O105 O 0.38659 0.07277 0.24388 0.0
O106 O 0.40042 0.01672 0.24152 0.0
Zn107 Zn 0.3736 0.01968 0.27053 0.0
O108 O 0.39303 0.02631 0.31079 0.0
C109 C 0.3449 0.96788 0.24376 0.0
O110 O 0.35448 0.97759 0.22074 0.0
O111 O 0.352 0.04935 0.26261 0.0
C112 C 0.41218 0.01361 0.3169 0.0
O113 O 0.419 0.99675 0.29681 0.0
C114 C 0.42453 0.02958 0.24399 0.0
O115 O 0.43341 0.04779 0.2664 0.0
O116 O 0.34929 0.98297 0.26772 0.0
C117 C 0.29768 0.08932 0.50581 0.0
O118 O 0.28876 0.09163 0.53133 0.0
O119 O 0.27285 0.14677 0.53258 0.0
Zn120 Zn 0.26207 0.12742 0.49247 0.0
O121 O 0.26545 0.1549 0.46247 0.0
C122 C 0.21378 0.08239 0.48782 0.0
O123 O 0.22987 0.06468 0.4839 0.0
O124 O 0.28803 0.10158 0.48554 0.0
C125 C 0.24473 0.16094 0.4489 0.0
O126 O 0.22086 0.14985 0.45521 0.0
C127 C 0.25895 0.16228 0.54498 0.0
O128 O 0.23709 0.16728 0.53069 0.0
O129 O 0.22344 0.10794 0.49123 0.0
C130 C 0.15519 0.96213 0.79602 0.0
O131 O 0.1298 0.95654 0.80063 0.0
O132 O 0.12013 0.01031 0.7528 0.0
Zn133 Zn 0.14112 0.01483 0.79239 0.0
O134 O 0.11693 0.01031 0.82479 0.0
C135 C 0.15068 0.07188 0.79113 0.0
O136 O 0.12457 0.06542 0.78412 0.0
O137 O 0.16535 0.98661 0.7924 0.0
C138 C 0.09282 0.01445 0.82387 0.0
O139 O 0.08168 0.02257 0.80035 0.0
C140 C 0.0986 0.9935 0.74375 0.0
O141 O 0.08749 0.97659 0.76118 0.0
O142 O 0.16351 0.05295 0.79719 0.0
C143 C 0.22224 0.91697 0.06625 0.0
O144 O 0.24028 0.91995 0.08891 0.0
O145 O 0.26328 0.85903 0.06602 0.0
Zn146 Zn 0.25707 0.88523 0.03695 0.0
O147 O 0.25133 0.8655 0.99669 0.0
C148 C 0.31173 0.90901 0.03675 0.0
O149 O 0.31329 0.88294 0.03196 0.0
O150 O 0.22525 0.90246 0.0434 0.0
C151 C 0.25619 0.84164 0.98999 0.0
O152 O 0.266 0.82815 0.01021 0.0
C153 C 0.2458 0.83818 0.06892 0.0
O154 O 0.22225 0.8343 0.05345 0.0
O155 O 0.28901 0.91547 0.03981 0.0
C156 C 0.22444 0.42358 0.03358 0.0
O157 O 0.21999 0.40427 0.01176 0.0
O158 O 0.2673 0.37303 0.07832 0.0
Zn159 Zn 0.27087 0.39854 0.04664 0.0
O160 O 0.26178 0.37814 0.00637 0.0
C161 C 0.32872 0.4082 0.05554 0.0
O162 O 0.32419 0.38246 0.06106 0.0
O163 O 0.2451 0.42528 0.05176 0.0
C164 C 0.27508 0.36281 0.99268 0.0
O165 O 0.29752 0.35757 0.00538 0.0
C166 C 0.26056 0.34701 0.07474 0.0
O167 O 0.25542 0.33445 0.04834 0.0
O168 O 0.30885 0.41993 0.04957 0.0
C169 C 0.83833 0.13571 0.02761 0.0
O170 O 0.83892 0.16226 0.0283 0.0
O171 O 0.78837 0.15301 0.08405 0.0
Zn172 Zn 0.78489 0.13643 0.04265 0.0
O173 O 0.77919 0.16542 0.01644 0.0
C174 C 0.73493 0.09989 0.05104 0.0
O175 O 0.74026 0.1092 0.07858 0.0
O176 O 0.81723 0.12033 0.03337 0.0
C177 C 0.75615 0.17223 0.0135 0.0
O178 O 0.73735 0.16114 0.02865 0.0
C179 C 0.79911 0.17804 0.09095 0.0
O180 O 0.80924 0.19253 0.07099 0.0
O181 O 0.75169 0.10755 0.03345 0.0
C182 C 0.20203 0.47001 0.28732 0.0
O183 O 0.19726 0.48154 0.31228 0.0
O184 O 0.1411 0.49475 0.22403 0.0
Zn185 Zn 0.16373 0.50143 0.26275 0.0
O186 O 0.13966 0.49793 0.2949 0.0
C187 C 0.17857 0.55896 0.25466 0.0
O188 O 0.15584 0.55434 0.23762 0.0
O189 O 0.18946 0.47493 0.26404 0.0
C190 C 0.12659 0.51696 0.30082 0.0
O191 O 0.12946 0.53851 0.28622 0.0
C192 C 0.11559 0.48812 0.22042 0.0
O193 O 0.10219 0.48452 0.24298 0.0
O194 O 0.18604 0.53948 0.2673 0.0
C195 C 0.73457 0.94336 0.54253 0.0
O196 O 0.74379 0.93992 0.51729 0.0
O197 O 0.77293 0.88575 0.59398 0.0
Zn198 Zn 0.77239 0.90825 0.55968 0.0
O199 O 0.76207 0.88528 0.521 0.0
C200 C 0.82852 0.91525 0.56143 0.0
O201 O 0.82198 0.88978 0.56733 0.0
O202 O 0.74471 0.93286 0.56396 0.0
C203 C 0.76996 0.86351 0.51178 0.0
O204 O 0.78544 0.85201 0.52924 0.0
C205 C 0.7587 0.86246 0.59604 0.0
O206 O 0.74143 0.85051 0.57405 0.0
O207 O 0.8101 0.92949 0.55832 0.0
C208 C 0.86424 0.05509 0.23171 0.0
O209 O 0.87786 0.05258 0.2093 0.0
O210 O 0.9033 0.00641 0.21062 0.0
Zn211 Zn 0.88396 0.00593 0.24656 0.0
O212 O 0.9099 0.0079 0.28261 0.0
C213 C 0.86636 0.94886 0.24663 0.0
O214 O 0.89254 0.95021 0.24939 0.0
O215 O 0.86411 0.03769 0.25017 0.0
C216 C 0.89968 0.00364 0.30607 0.0
O217 O 0.87338 0.99851 0.30546 0.0
C218 C 0.92812 0.01602 0.21029 0.0
O219 O 0.94287 0.02603 0.23474 0.0
O220 O 0.85711 0.97078 0.24414 0.0
C221 C 0.31145 0.60006 0.52851 0.0
O222 O 0.29765 0.59771 0.50287 0.0
O223 O 0.27811 0.66736 0.57551 0.0
Zn224 Zn 0.28214 0.64376 0.53935 0.0
O225 O 0.29648 0.66859 0.51063 0.0
C226 C 0.23234 0.60381 0.53374 0.0
O227 O 0.24202 0.59699 0.55868 0.0
O228 O 0.30783 0.61823 0.54792 0.0
C229 C 0.28432 0.68797 0.50442 0.0
O230 O 0.26302 0.6913 0.5173 0.0
C231 C 0.2554 0.67303 0.58054 0.0
O232 O 0.23407 0.66276 0.56231 0.0
O233 O 0.24622 0.62251 0.52172 0.0
C234 C 0.36987 0.56278 0.75355 0.0
O235 O 0.39577 0.56964 0.7518 0.0
O236 O 0.40509 0.51238 0.71628 0.0
Zn237 Zn 0.38564 0.51096 0.75215 0.0
O238 O 0.4104 0.51936 0.789 0.0
C239 C 0.34249 0.46173 0.7446 0.0
O240 O 0.32669 0.47673 0.73227 0.0
O241 O 0.35973 0.53755 0.75322 0.0
C242 C 0.42971 0.50707 0.79568 0.0
O243 O 0.43659 0.48952 0.77633 0.0
C244 C 0.42873 0.52479 0.71387 0.0
O245 O 0.44318 0.53935 0.73656 0.0
O246 O 0.36673 0.47231 0.75349 0.0
C247 C 0.67318 0.96037 0.78485 0.0
O248 O 0.66925 0.9714 0.81038 0.0
O249 O 0.60885 0.98113 0.72299 0.0
Zn250 Zn 0.63159 0.98939 0.76119 0.0
O251 O 0.60894 0.98509 0.79427 0.0
C252 C 0.63824 0.04569 0.7497 0.0
O253 O 0.61569 0.03644 0.73301 0.0
O254 O 0.65949 0.96527 0.76227 0.0
C255 C 0.59042 -0.00085 0.79655 0.0
O256 O 0.58553 0.01503 0.77635 0.0
C257 C 0.58472 0.96868 0.71684 0.0
O258 O 0.57181 0.95688 0.73692 0.0
O259 O 0.64949 0.02912 0.76376 0.0
C260 C 0.8173 0.62039 0.00169 0.0
O261 O 0.81763 0.64614 0.99716 0.0
O262 O 0.75946 0.64053 0.0432 0.0
Zn263 Zn 0.76201 0.62352 0.00268 0.0
O264 O 0.76501 0.6508 0.97205 0.0
C265 C 0.70634 0.60465 0.99232 0.0
O266 O 0.70816 0.6314 0.99613 0.0
O267 O 0.79498 0.6054 0.00464 0.0
C268 C 0.75881 0.67461 0.97305 0.0
O269 O 0.74859 0.68403 0.9959 0.0
C270 C 0.77091 0.66354 0.05647 0.0
O271 O 0.78706 0.68071 0.04326 0.0
O272 O 0.72795 0.59497 0.99278 0.0
C273 C 0.84569 0.54439 0.7548 0.0
O274 O 0.85232 0.53593 0.72942 0.0
O275 O 0.90607 0.52154 0.74267 0.0
Zn276 Zn 0.88737 0.51651 0.77844 0.0
O277 O 0.9111 0.5292 0.81561 0.0
C278 C 0.8866 0.45909 0.77286 0.0
O279 O 0.91045 0.46734 0.76466 0.0
O280 O 0.85759 0.53794 0.77771 0.0
C281 C 0.9336 0.52246 0.82285 0.0
O282 O 0.94409 0.50709 0.80436 0.0
C283 C 0.92984 0.5336 0.74054 0.0
O284 O 0.94566 0.54508 0.76379 0.0
O285 O 0.87222 0.47675 0.77931 0.0
C286 C 0.72623 0.43319 0.53378 0.0
O287 O 0.73304 0.42625 0.55963 0.0
O288 O 0.74836 0.37117 0.54912 0.0
Zn289 Zn 0.75699 0.39178 0.51427 0.0
O290 O 0.74818 0.36678 0.4767 0.0
C291 C 0.81329 0.3977 0.53408 0.0
O292 O 0.80412 0.376 0.5468 0.0
O293 O 0.73454 0.42163 0.51181 0.0
C294 C 0.76328 0.35033 0.46862 0.0
O295 O 0.78528 0.34905 0.48522 0.0
C296 C 0.74928 0.34601 0.5514 0.0
O297 O 0.7548 0.33064 0.52924 0.0
O298 O 0.79677 0.40866 0.51883 0.0
C299 C 0.66983 0.47377 0.30942 0.0
O300 O 0.66156 0.47938 0.33477 0.0
O301 O 0.61744 0.51599 0.25649 0.0
Zn302 Zn 0.64021 0.51541 0.29394 0.0
O303 O 0.61863 0.50757 0.32738 0.0
C304 C 0.65216 0.57299 0.30273 0.0
O305 O 0.62578 0.56894 0.29892 0.0
O306 O 0.66342 0.48692 0.28845 0.0
C307 C 0.595 0.51143 0.33086 0.0
O308 O 0.58127 0.5218 0.31065 0.0
C309 C 0.59539 0.5003 0.24691 0.0
O310 O 0.58491 0.4812 0.26245 0.0
O311 O 0.66377 0.55234 0.30249 0.0
Zn312 Zn 0.04908 0.00656 0.04101 0.0
Zn313 Zn 0.99821 0.02496 0.0095 0.0
C314 C 0.02946 0.96022 0.06604 0.0
O315 O 0.04171 0.97795 0.08769 0.0
C316 C 0.01812 0.07029 0.98288 0.0
O317 O 0.00694 0.05187 0.9614 0.0
O318 O 0.08653 0.00036 0.05307 0.0
O319 O 0.05248 0.01883 0.00135 0.0
O320 O 0.01248 0.00073 0.97934 0.0
C321 C 0.09189 0.98243 0.03441 0.0
O322 O 0.07353 0.9718 0.01288 0.0
O323 O 0.02754 0.96812 0.04079 0.0
C324 C 0.95584 0.05103 0.01348 0.0
O325 O 0.97425 0.06297 0.03446 0.0
O326 O 0.96038 0.03062 0.99744 0.0
O327 O 0.99554 0.01414 0.05016 0.0
O328 O 0.03619 0.0313 0.07101 0.0
O329 O 0.01904 0.06347 0.0086 0.0
C330 C 0.03771 0.00748 0.97861 0.0
C331 C 0.01115 0.02465 0.07269 0.0
Zn332 Zn 0.27334 0.76638 0.30418 0.0
Zn333 Zn 0.27934 0.75493 0.24227 0.0
C334 C 0.23625 0.7174 0.30035 0.0
O335 O 0.2234 0.73505 0.31304 0.0
C336 C 0.30921 0.80492 0.22726 0.0
O337 O 0.3199 0.78771 0.21103 0.0
O338 O 0.27324 0.77151 0.34739 0.0
O339 O 0.31162 0.77727 0.29601 0.0
O340 O 0.30791 0.73992 0.26635 0.0
C341 C 0.29093 0.76061 0.36083 0.0
O342 O 0.30795 0.74984 0.34593 0.0
O343 O 0.26 0.72567 0.2943 0.0
C344 C 0.25673 0.73246 0.18446 0.0
O345 O 0.23609 0.72085 0.19681 0.0
O346 O 0.27866 0.74221 0.20017 0.0
O347 O 0.24051 0.75139 0.24956 0.0
O348 O 0.24616 0.78544 0.28429 0.0
O349 O 0.29196 0.79561 0.24366 0.0
C350 C 0.32226 0.75822 0.28472 0.0
C351 C 0.23201 0.77124 0.2625 0.0
Zn352 Zn 0.48654 0.0212 0.52713 0.0
Zn353 Zn 0.54373 0.00768 0.50862 0.0
C354 C 0.50423 0.07302 0.55873 0.0
O355 O 0.49651 0.05799 0.57934 0.0
C356 C 0.53444 0.95337 0.48509 0.0
O357 O 0.55132 0.96569 0.46856 0.0
O358 O 0.44772 0.02149 0.53368 0.0
O359 O 0.48523 0.00724 0.48521 0.0
O360 O 0.52625 0.02296 0.47448 0.0
C361 C 0.43691 0.03636 0.51688 0.0
O362 O 0.4515 0.04915 0.49863 0.0
O363 O 0.50333 0.06143 0.53319 0.0
C364 C 0.59476 0.99576 0.52523 0.0
O365 O 0.58035 0.98557 0.54506 0.0
O366 O 0.58352 0.00767 0.50563 0.0
O367 O 0.54202 0.02578 0.54838 0.0
O368 O 0.50421 0.00089 0.55691 0.0
O369 O 0.5266 0.96763 0.50546 0.0
C370 C 0.50114 0.01549 0.46697 0.0
C371 C 0.52868 0.01116 0.56499 0.0
Zn372 Zn 0.285 0.2565 0.76483 0.0
Zn373 Zn 0.23139 0.26689 0.77341 0.0
C374 C 0.27733 0.2245 0.71084 0.0
O375 O 0.29247 0.21111 0.72653 0.0
C376 C 0.24385 0.29829 0.82742 0.0
O377 O 0.22752 0.31162 0.81325 0.0
O378 O 0.32431 0.25543 0.76438 0.0
O379 O 0.28407 0.29683 0.77468 0.0
O380 O 0.2455 0.29623 0.74906 0.0
C381 C 0.33402 0.26999 0.74542 0.0
O382 O 0.31859 0.28428 0.73134 0.0
O383 O 0.26995 0.24551 0.72281 0.0
C384 C 0.18515 0.25184 0.7976 0.0
O385 O 0.20245 0.23851 0.81013 0.0
O386 O 0.19261 0.26706 0.7782 0.0
O387 O 0.23156 0.22788 0.75931 0.0
O388 O 0.26768 0.22667 0.78811 0.0
O389 O 0.2502 0.27717 0.8144 0.0
C390 C 0.26869 0.30901 0.75939 0.0
C391 C 0.24473 0.21482 0.77587 0.0
Zn392 Zn 0.0236 0.97186 0.52418 0.0
Zn393 Zn 0.0117 0.03086 0.51294 0.0
C394 C 0.06115 0.99066 0.57397 0.0
O395 O 0.07761 0.98328 0.55592 0.0
C396 C 0.9694 0.02086 0.46864 0.0
O397 O 0.95887 0.03182 0.4905 0.0
O398 O 0.02364 0.93173 0.52751 0.0
O399 O 0.98454 0.974 0.51475 0.0
O400 O 0.98749 0.01343 0.54091 0.0
C401 C 0.00812 0.92253 0.54573 0.0
O402 O 0.99485 0.9393 0.55919 0.0
O403 O 0.03647 0.98896 0.56501 0.0
C404 C 0.02503 0.08352 0.49818 0.0
O405 O 0.0376 0.06915 0.48082 0.0
O406 O 0.01117 0.07126 0.51612 0.0
O407 O 0.0513 0.02889 0.51615 0.0
O408 O 0.05075 0.98653 0.49764 0.0
O409 O 0.99367 0.01742 0.4724 0.0
C410 C 0.97418 0.98983 0.53144 0.0
C411 C 0.06275 0.01131 0.50323 0.0
Zn412 Zn 0.24898 0.78763 0.776 0.0
Zn413 Zn 0.27485 0.7349 0.78993 0.0
C414 C 0.20299 0.76559 0.73875 0.0
O415 O 0.21725 0.78187 0.72289 0.0
C416 C 0.31958 0.75565 0.82766 0.0
O417 O 0.30419 0.73852 0.84168 0.0
O418 O 0.23799 0.82503 0.77646 0.0
O419 O 0.26211 0.78531 0.81737 0.0
O420 O 0.25144 0.74111 0.82189 0.0
C421 C 0.21841 0.82556 0.79163 0.0
O422 O 0.20998 0.80392 0.80487 0.0
O423 O 0.21314 0.76243 0.76395 0.0
C424 C 0.30443 0.69761 0.77068 0.0
O425 O 0.31152 0.71965 0.75754 0.0
O426 O 0.28595 0.69746 0.78745 0.0
O427 O 0.25936 0.73755 0.74927 0.0
O428 O 0.27366 0.78125 0.74536 0.0
O429 O 0.31093 0.7599 0.80223 0.0
C430 C 0.25418 0.76601 0.83246 0.0
C431 C 0.26845 0.75645 0.73429 0.0
Zn432 Zn 0.5241 0.01783 0.00353 0.0
Zn433 Zn 0.51846 0.00757 0.06455 0.0
C434 C 0.57905 0.04198 0.01229 0.0
O435 O 0.57105 0.05305 0.98918 0.0
C436 C 0.45763 0.00249 0.05666 0.0
O437 O 0.45846 0.02734 0.06918 0.0
O438 O 0.52853 0.01492 0.9607 0.0
O439 O 0.50543 0.9802 0.00912 0.0
O440 O 0.53575 0.97773 0.04496 0.0
C441 C 0.54201 0.99637 0.95405 0.0
O442 O 0.55055 0.98241 0.97455 0.0
O443 O 0.56208 0.02554 0.02372 0.0
C444 C 0.52766 0.02504 0.1265 0.0
O445 O 0.54221 0.04736 0.11921 0.0
O446 O 0.5192 0.00489 0.10734 0.0
O447 O 0.52835 0.04793 0.05931 0.0
O448 O 0.5066 0.04956 0.01656 0.0
O449 O 0.47925 0.99386 0.05282 0.0
C450 C 0.51935 0.96603 0.02344 0.0
C451 C 0.51666 0.06122 0.04146 0.0
Zn452 Zn 0.27681 0.24181 0.25611 0.0
Zn453 Zn 0.2763 0.29654 0.29329 0.0
C454 C 0.33426 0.24705 0.26392 0.0
O455 O 0.32841 0.22467 0.27686 0.0
C456 C 0.23315 0.28969 0.32551 0.0
O457 O 0.25408 0.2981 0.34489 0.0
O458 O 0.27815 0.2034 0.23955 0.0
O459 O 0.26488 0.23835 0.29581 0.0
O460 O 0.29612 0.27197 0.31675 0.0
C461 C 0.26702 0.18201 0.24987 0.0
O462 O 0.24948 0.18418 0.26858 0.0
O463 O 0.31555 0.25996 0.25671 0.0
C464 C 0.29231 0.35562 0.29853 0.0
O465 O 0.30338 0.35093 0.27466 0.0
O466 O 0.28385 0.33555 0.3124 0.0
O467 O 0.27934 0.29996 0.2506 0.0
O468 O 0.2561 0.2611 0.22818 0.0
O469 O 0.23708 0.28572 0.29903 0.0
C470 C 0.28073 0.24919 0.31798 0.0
C471 C 0.2656 0.28646 0.22813 0.0
Zn472 Zn 0.5219 0.49069 0.02959 0.0
Zn473 Zn 0.50244 0.54486 0.01518 0.0
C474 C 0.55768 0.51163 0.0801 0.0
O475 O 0.57527 0.50721 0.06209 0.0
C476 C 0.46628 0.52727 0.96701 0.0
O477 O 0.45278 0.53921 0.98551 0.0
O478 O 0.52481 0.45083 0.03221 0.0
O479 O 0.48173 0.48846 0.02005 0.0
O480 O 0.47718 0.52796 0.04221 0.0
C481 C 0.50986 0.44131 0.05086 0.0
O482 O 0.49709 0.45795 0.06524 0.0
O483 O 0.53288 0.50751 0.07078 0.0
C484 C 0.50841 0.59075 0.98615 0.0
O485 O 0.52031 0.57342 0.97156 0.0
O486 O 0.49817 0.58377 0.00894 0.0
O487 O 0.54195 0.54856 0.02593 0.0
O488 O 0.54843 0.50978 0.00401 0.0
O489 O 0.49015 0.52459 0.97535 0.0
C490 C 0.46803 0.50268 0.03462 0.0
C491 C 0.55622 0.53538 0.01114 0.0
Zn492 Zn 0.74124 0.29061 0.26328 0.0
Zn493 Zn 0.79724 0.23848 0.27982 0.0
C494 C 0.69848 0.25417 0.22554 0.0
O495 O 0.7184 0.24509 0.21418 0.0
C496 C 0.84608 0.23749 0.30961 0.0
O497 O 0.83012 0.21615 0.31713 0.0
O498 O 0.73755 0.32915 0.2765 0.0
O499 O 0.75527 0.27185 0.29851 0.0
O500 O 0.77889 0.24216 0.31581 0.0
C501 C 0.71832 0.33055 0.29187 0.0
O502 O 0.70379 0.30772 0.29806 0.0
O503 O 0.70358 0.27196 0.24752 0.0
C504 C 0.81348 0.19752 0.24493 0.0
O505 O 0.82856 0.21994 0.23851 0.0
O506 O 0.79561 0.1997 0.26199 0.0
O507 O 0.78185 0.2631 0.25483 0.0
O508 O 0.76301 0.28928 0.22834 0.0
O509 O 0.83624 0.25281 0.29267 0.0
C510 C 0.76404 0.26009 0.31989 0.0
C511 C 0.77848 0.272 0.23048 0.0
Zn512 Zn 0.02404 0.50954 0.48295 0.0
Zn513 Zn 0.01658 0.50604 0.54426 0.0
C514 C 0.07744 0.53869 0.49147 0.0
O515 O 0.06735 0.55048 0.46989 0.0
C516 C 0.96643 0.47173 0.53991 0.0
O517 O 0.98159 0.46006 0.55759 0.0
O518 O 0.02907 0.50657 0.44051 0.0
O519 O 0.00854 0.47142 0.49173 0.0
O520 O 0.03629 0.47586 0.53152 0.0
C521 C 0.04044 0.48683 0.43216 0.0
O522 O 0.04507 0.46904 0.45039 0.0
O523 O 0.06225 0.51991 0.50208 0.0
C524 C 0.99826 0.52359 0.59446 0.0
O525 O 0.98442 0.53347 0.57394 0.0
O526 O 0.01612 0.50992 0.58758 0.0
O527 O 0.02924 0.54449 0.53525 0.0
O528 O 0.00447 0.54067 0.49359 0.0
O529 O 0.97717 0.4931 0.52922 0.0
C530 C 0.02302 0.46086 0.50973 0.0
C531 C 0.01475 0.55488 0.51718 0.0
Zn532 Zn 0.79775 0.74651 0.27689 0.0
Zn533 Zn 0.74622 0.76763 0.29394 0.0
C534 C 0.77585 0.71702 0.22305 0.0
O535 O 0.78295 0.6974 0.23751 0.0
C536 C 0.75781 0.79936 0.3469 0.0
O537 O 0.74567 0.81445 0.33011 0.0
O538 O 0.83501 0.74117 0.26901 0.0
O539 O 0.80258 0.78548 0.29399 0.0
O540 O 0.76659 0.7956 0.27082 0.0
C541 C 0.84265 0.75495 0.24854 0.0
O542 O 0.82708 0.77067 0.2372 0.0
O543 O 0.77788 0.74086 0.2363 0.0
C544 C 0.69784 0.75554 0.31447 0.0
O545 O 0.71395 0.74148 0.32787 0.0
O546 O 0.70723 0.77123 0.29618 0.0
O547 O 0.74248 0.72727 0.28082 0.0
O548 O 0.78038 0.71783 0.30037 0.0
O549 O 0.7626 0.77667 0.3358 0.0
C550 C 0.7915 0.80198 0.27982 0.0
C551 C 0.75522 0.71099 0.29347 0.0
Zn552 Zn 0.74905 0.25 0.81091 0.0
Zn553 Zn 0.77237 0.25858 0.7522 0.0
C554 C 0.71267 0.19994 0.79256 0.0
O555 O 0.69517 0.21553 0.79896 0.0
C556 C 0.80839 0.30624 0.76932 0.0
O557 O 0.82274 0.28963 0.75735 0.0
O558 O 0.74256 0.25206 0.8531 0.0
O559 O 0.78926 0.25921 0.81249 0.0
O560 O 0.79641 0.23603 0.77231 0.0
C561 C 0.75214 0.23354 0.86553 0.0
O562 O 0.76276 0.21568 0.85016 0.0
O563 O 0.73749 0.21034 0.7953 0.0
C564 C 0.76535 0.2816 0.70162 0.0
O565 O 0.75303 0.29457 0.72049 0.0
O566 O 0.77758 0.26282 0.70998 0.0
O567 O 0.7328 0.24569 0.75047 0.0
O568 O 0.72615 0.27204 0.78827 0.0
O569 O 0.7838 0.29713 0.77153 0.0
C570 C 0.80324 0.24453 0.79895 0.0
C571 C 0.71886 0.26137 0.7624 0.0
Zn572 Zn 0.77295 0.72967 0.75779 0.0
Zn573 Zn 0.76312 0.78539 0.79372 0.0
C574 C 0.81732 0.7453 0.72806 0.0
O575 O 0.79755 0.73671 0.70733 0.0
C576 C 0.71729 0.77297 0.81954 0.0
O577 O 0.73648 0.78311 0.84043 0.0
O578 O 0.77026 0.69085 0.74002 0.0
O579 O 0.76602 0.7251 0.79927 0.0
O580 O 0.78223 0.76556 0.82356 0.0
C581 C 0.78618 0.67929 0.75524 0.0
O582 O 0.80099 0.69346 0.77792 0.0
O583 O 0.81199 0.74592 0.75425 0.0
C584 C 0.75087 0.83624 0.78902 0.0
O585 O 0.74045 0.8214 0.76469 0.0
O586 O 0.7641 0.82532 0.80793 0.0
O587 O 0.77475 0.78683 0.75303 0.0
O588 O 0.74887 0.74881 0.73316 0.0
O589 O 0.72342 0.77021 0.79369 0.0
C590 C 0.77515 0.73967 0.82298 0.0
C591 C 0.75957 0.77352 0.73142 0.0
Zn592 Zn 0.54647 0.50844 0.53745 0.0
Zn593 Zn 0.4857 0.51357 0.5139 0.0
C594 C 0.53771 0.46112 0.56558 0.0
O595 O 0.54887 0.47997 0.58671 0.0
C596 C 0.48663 0.56201 0.48975 0.0
O597 O 0.46986 0.54372 0.47182 0.0
O598 O 0.58637 0.5111 0.54958 0.0
O599 O 0.54166 0.51502 0.49523 0.0
O600 O 0.49973 0.49441 0.4806 0.0
C601 C 0.6039 0.51355 0.53171 0.0
O602 O 0.59691 0.51915 0.50537 0.0
O603 O 0.53295 0.46836 0.5404 0.0
C604 C 0.43676 0.52488 0.52737 0.0
O605 O 0.45403 0.53769 0.54895 0.0
O606 O 0.44523 0.51024 0.50772 0.0
O607 O 0.49267 0.50159 0.55349 0.0
O608 O 0.53007 0.53051 0.56762 0.0
O609 O 0.49877 0.5542 0.51181 0.0
C610 C 0.5236 0.50317 0.4752 0.0
C611 C 0.50721 0.51841 0.57301 0.0
Zn612 Zn 0.98983 0.52366 0.03675 0.0
Zn613 Zn 0.04333 0.5052 0.01977 0.0
C614 C 0.00751 0.57352 0.07007 0.0
O615 O 0.99146 0.55966 0.08637 0.0
C616 C 0.02436 0.45612 0.98605 0.0
O617 O 0.04046 0.4702 0.96999 0.0
O618 O 0.95133 0.52963 0.0392 0.0
O619 O 0.9903 0.51182 0.99448 0.0
O620 O 0.03247 0.52913 0.99022 0.0
C621 C 0.94614 0.54878 0.0243 0.0
O622 O 0.96516 0.56124 0.01026 0.0
O623 O 0.01208 0.56153 0.04636 0.0
C624 C 0.10193 0.50467 0.03076 0.0
O625 O 0.10229 0.52106 0.05448 0.0
O626 O 0.08033 0.49769 0.01373 0.0
O627 O 0.0438 0.51796 0.06149 0.0
O628 O 0.00208 0.50009 0.06713 0.0
O629 O 0.02021 0.4676 0.01024 0.0
C630 C 0.00808 0.52292 0.97955 0.0
C631 C 0.02694 0.50552 0.07654 0.0
H632 H 0.02739 0.17822 0.9234 0.0
H633 H 0.98761 0.2032 0.9964 0.0
H634 H 0.9929 0.16075 0.01772 0.0
H635 H 0.00504 0.11449 0.01285 0.0
H636 H 0.04278 0.08968 0.93826 0.0
H637 H 0.04283 0.13452 0.92064 0.0
C638 C 0.01993 0.17447 0.94405 0.0
C639 C 0.0067 0.19356 0.95808 0.0
C640 C 0.02302 0.1502 0.95602 0.0
C641 C 0.99769 0.18869 0.9851 0.0
C642 C 0.00074 0.16445 0.99728 0.0
C643 C 0.01401 0.11934 0.99325 0.0
C644 C 0.0241 0.09908 0.9769 0.0
C645 C 0.01296 0.14482 0.98265 0.0
C646 C 0.03511 0.10516 0.95119 0.0
C647 C 0.0349 0.13065 0.94101 0.0
H648 H 0.11568 0.79732 0.23454 0.0
H649 H 0.13229 0.77356 0.14771 0.0
H650 H 0.17674 0.76638 0.16624 0.0
H651 H 0.21026 0.76538 0.20707 0.0
H652 H 0.19546 0.79148 0.2938 0.0
H653 H 0.15093 0.79948 0.2754 0.0
C654 C 0.12914 0.79072 0.21973 0.0
C655 C 0.1207 0.78583 0.18985 0.0
C656 C 0.15488 0.787 0.2305 0.0
C657 C 0.13837 0.77757 0.17079 0.0
C658 C 0.16374 0.77333 0.18136 0.0
C659 C 0.19722 0.77274 0.22194 0.0
C660 C 0.2058 0.77746 0.25174 0.0
C661 C 0.17206 0.77771 0.21116 0.0
C662 C 0.18912 0.78765 0.27076 0.0
C663 C 0.16371 0.79214 0.26025 0.0
H664 H 0.47883 0.82873 0.4619 0.0
H665 H 0.55329 0.82435 0.42532 0.0
H666 H 0.56921 0.87288 0.44004 0.0
H667 H 0.56122 0.91708 0.46046 0.0
H668 H 0.48792 0.92253 0.49857 0.0
H669 H 0.47236 0.87302 0.48625 0.0
C670 C 0.49861 0.83836 0.45738 0.0
C671 C 0.51466 0.8229 0.4422 0.0
C672 C 0.5078 0.86648 0.466 0.0
C673 C 0.54038 0.83568 0.43678 0.0
C674 C 0.54954 0.86351 0.44513 0.0
C675 C 0.54185 0.90743 0.46614 0.0
C676 C 0.52555 0.92338 0.48 0.0
C677 C 0.53325 0.87916 0.45924 0.0
C678 C 0.50076 0.91059 0.48779 0.0
C679 C 0.49186 0.88234 0.48067 0.0
H680 H 0.45274 0.25975 0.72325 0.0
H681 H 0.42471 0.28293 0.64014 0.0
H682 H 0.38084 0.28474 0.65636 0.0
H683 H 0.35075 0.2806 0.69398 0.0
H684 H 0.37703 0.25566 0.77665 0.0
H685 H 0.42147 0.25371 0.76076 0.0
C686 C 0.437 0.26514 0.70871 0.0
C687 C 0.44204 0.27135 0.68059 0.0
C688 C 0.41164 0.26596 0.7181 0.0
C689 C 0.42139 0.27807 0.66189 0.0
C690 C 0.3963 0.27919 0.67115 0.0
C691 C 0.36624 0.27489 0.70863 0.0
C692 C 0.36084 0.26862 0.73654 0.0
C693 C 0.3913 0.27338 0.69922 0.0
C694 C 0.38086 0.26068 0.75507 0.0
C695 C 0.40619 0.25958 0.746 0.0
H696 H 0.98557 0.80976 0.59787 0.0
H697 H 0.06226 0.80301 0.5678 0.0
H698 H 0.06304 0.84603 0.54582 0.0
H699 H 0.04336 0.88739 0.53838 0.0
H700 H 0.96746 0.89408 0.57045 0.0
H701 H 0.96491 0.84918 0.5882 0.0
C702 C 0.00241 0.81753 0.58633 0.0
C703 C 0.02393 0.80329 0.58473 0.0
C704 C 0.00292 0.84237 0.57417 0.0
C705 C 0.04547 0.81362 0.56949 0.0
C706 C 0.04595 0.83825 0.55695 0.0
C707 C 0.02613 0.87879 0.5489 0.0
C708 C 0.00575 0.8941 0.55331 0.0
C709 C 0.025 0.85307 0.55961 0.0
C710 C 0.98356 0.88282 0.56708 0.0
C711 C 0.98206 0.85714 0.57724 0.0
H712 H 0.42942 0.77479 0.90434 0.0
H713 H 0.45971 0.7703 0.82102 0.0
H714 H 0.41438 0.76958 0.79698 0.0
H715 H 0.36511 0.76483 0.80006 0.0
H716 H 0.33628 0.76892 0.88429 0.0
H717 H 0.38214 0.77581 0.90765 0.0
C718 C 0.42615 0.77387 0.8809 0.0
C719 C 0.44763 0.77206 0.86439 0.0
C720 C 0.40029 0.77351 0.86746 0.0
C721 C 0.44333 0.77153 0.83412 0.0
C722 C 0.41744 0.77105 0.82042 0.0
C723 C 0.36905 0.76805 0.82348 0.0
C724 C 0.34742 0.76624 0.8405 0.0
C725 C 0.39561 0.77135 0.83688 0.0
C726 C 0.35264 0.77009 0.87082 0.0
C727 C 0.37883 0.77389 0.88419 0.0
H728 H 0.51484 0.17683 0.10612 0.0
H729 H 0.45802 0.18095 0.03265 0.0
H730 H 0.46444 0.13584 0.01169 0.0
H731 H 0.48538 0.09437 0.01547 0.0
H732 H 0.54327 0.09278 0.08904 0.0
H733 H 0.53733 0.13782 0.10848 0.0
C734 C 0.50373 0.16791 0.08554 0.0
C735 C 0.4857 0.18207 0.07117 0.0
C736 C 0.50778 0.14238 0.07356 0.0
C737 C 0.47191 0.17036 0.04425 0.0
C738 C 0.47559 0.1446 0.03226 0.0
C739 C 0.49685 0.10403 0.03559 0.0
C740 C 0.51445 0.08991 0.05092 0.0
C741 C 0.4934 0.13029 0.04685 0.0
C742 C 0.52925 0.10283 0.07693 0.0
C743 C 0.52592 0.12869 0.08814 0.0
H744 H 0.11059 0.27734 0.34672 0.0
H745 H 0.1474 0.30492 0.43394 0.0
H746 H 0.19179 0.30687 0.41782 0.0
H747 H 0.22019 0.30046 0.37959 0.0
H748 H 0.18462 0.27332 0.29196 0.0
H749 H 0.13966 0.27123 0.30772 0.0
C750 C 0.12834 0.28395 0.36213 0.0
C751 C 0.12563 0.29098 0.39151 0.0
C752 C 0.15399 0.28489 0.35274 0.0
C753 C 0.14884 0.29937 0.41123 0.0
C754 C 0.17428 0.30045 0.40206 0.0
C755 C 0.20266 0.294 0.36384 0.0
C756 C 0.20578 0.28703 0.33464 0.0
C757 C 0.17707 0.29312 0.37296 0.0
C758 C 0.18277 0.27875 0.3146 0.0
C759 C 0.15708 0.27763 0.32359 0.0
H760 H 0.98072 0.03236 0.20153 0.0
H761 H 0.90199 0.0007 0.15615 0.0
H762 H 0.92078 0.00142 0.10998 0.0
H763 H 0.95919 0.01053 0.08243 0.0
H764 H 0.03836 0.04145 0.12684 0.0
H765 H 0.01967 0.04168 0.17345 0.0
C766 C 0.96768 0.02563 0.18154 0.0
C767 C 0.93996 0.01645 0.18239 0.0
C768 C 0.97864 0.026 0.15489 0.0
C769 C 0.92338 0.00779 0.15624 0.0
C770 C 0.9341 0.00822 0.12976 0.0
C771 C 0.97246 0.01737 0.10225 0.0
C772 C 0.00017 0.02592 0.10108 0.0
C773 C 0.96165 0.01722 0.12884 0.0
C774 C 0.01695 0.03478 0.12707 0.0
C775 C 0.00628 0.03486 0.15373 0.0
H776 H 0.25786 0.72487 0.4801 0.0
H777 H 0.32886 0.68842 0.47583 0.0
H778 H 0.33918 0.71138 0.43298 0.0
H779 H 0.32529 0.73717 0.39386 0.0
H780 H 0.253 0.7716 0.3962 0.0
H781 H 0.24627 0.75453 0.44314 0.0
C782 C 0.27579 0.72223 0.47003 0.0
C783 C 0.29234 0.70462 0.48086 0.0
C784 C 0.28132 0.73504 0.44504 0.0
C785 C 0.31559 0.70158 0.4677 0.0
C786 C 0.32153 0.71471 0.4432 0.0
C787 C 0.30824 0.74131 0.40478 0.0
C788 C 0.28943 0.75523 0.39135 0.0
C789 C 0.30409 0.73078 0.43123 0.0
C790 C 0.26767 0.76075 0.40599 0.0
C791 C 0.26374 0.75087 0.43275 0.0
H792 H 0.6041 -0.00065 0.67589 0.0
H793 H 0.53328 0.9448 0.69405 0.0
H794 H 0.50936 0.95309 0.64843 0.0
H795 H 0.50849 0.97706 0.60397 0.0
H796 H 0.57957 0.03291 0.58833 0.0
H797 H 0.60333 0.02296 0.63265 0.0
C798 C 0.58347 0.98903 0.66991 0.0
C799 C 0.57052 0.97145 0.68837 0.0
C800 C 0.56979 0.99435 0.64421 0.0
C801 C 0.54374 0.95842 0.6802 0.0
C802 C 0.53003 0.96324 0.65419 0.0
C803 C 0.52913 0.98711 0.61036 0.0
C804 C 0.5422 0.00565 0.59277 0.0
C805 C 0.5428 0.98143 0.63616 0.0
C806 C 0.56897 0.01852 0.60137 0.0
C807 C 0.58266 0.01281 0.62671 0.0
H808 H 0.29561 0.3263 0.95773 0.0
H809 H 0.23355 0.37574 0.95862 0.0
H810 H 0.21889 0.36028 0.90784 0.0
H811 H 0.2238 0.33345 0.86305 0.0
H812 H 0.28462 0.28274 0.86134 0.0
H813 H 0.29966 0.29801 0.91256 0.0
C814 C 0.27885 0.33363 0.94682 0.0
C815 C 0.26579 0.35225 0.96205 0.0
C816 C 0.27034 0.32453 0.91745 0.0
C817 C 0.244 0.36141 0.94756 0.0
C818 C 0.2356 0.35263 0.91844 0.0
C819 C 0.24042 0.32576 0.87379 0.0
C820 C 0.25321 0.30715 0.85834 0.0
C821 C 0.24869 0.33434 0.90316 0.0
C822 C 0.27447 0.29713 0.87275 0.0
C823 C 0.28307 0.30587 0.90202 0.0
H824 H 0.88336 -9e-05 0.35951 0.0
H825 H 0.9547 0.01071 0.31507 0.0
H826 H 0.98277 0.01483 0.36139 0.0
H827 H 0.98701 0.01769 0.41498 0.0
H828 H 0.9152 0.00881 0.45865 0.0
H829 H 0.88741 0.00135 0.41219 0.0
C830 C 0.90504 0.00304 0.35986 0.0
C831 C 0.91688 0.00514 0.33385 0.0
C832 C 0.92101 0.00573 0.3865 0.0
C833 C 0.94504 0.00916 0.33479 0.0
C834 C 0.96112 0.0115 0.36128 0.0
C835 C 0.96528 0.01378 0.41422 0.0
C836 C 0.95316 0.01387 0.44018 0.0
C837 C 0.94933 0.01011 0.38733 0.0
C838 C 0.925 0.00903 0.43896 0.0
C839 C 0.90907 0.00477 0.41241 0.0
H840 H 0.29403 0.71144 0.61246 0.0
H841 H 0.21057 0.67331 0.60787 0.0
H842 H 0.20651 0.69874 0.65391 0.0
H843 H 0.22784 0.72793 0.6976 0.0
H844 H 0.31063 0.76756 0.70238 0.0
H845 H 0.31385 0.74576 0.65377 0.0
C846 C 0.27496 0.70886 0.62152 0.0
C847 C 0.25275 0.69018 0.60714 0.0
C848 C 0.27267 0.72383 0.64786 0.0
C849 C 0.22798 0.68742 0.61868 0.0
C850 C 0.22564 0.70192 0.64499 0.0
C851 C 0.24637 0.7323 0.68761 0.0
C852 C 0.26899 0.74918 0.70322 0.0
C853 C 0.24799 0.71967 0.66001 0.0
C854 C 0.29295 0.75479 0.6904 0.0
C855 C 0.29483 0.74211 0.66284 0.0
H856 H 0.59386 0.96725 0.84063 0.0
H857 H 0.55541 0.03254 0.81171 0.0
H858 H 0.53566 0.0366 0.85735 0.0
H859 H 0.53179 0.02363 0.90688 0.0
H860 H 0.5705 0.95819 0.93518 0.0
H861 H 0.58749 0.9522 0.88843 0.0
C862 C 0.581 0.98223 0.84419 0.0
C863 C 0.57635 -0.00028 0.82291 0.0
C864 C 0.56983 0.98458 0.8705 0.0
C865 C 0.55942 0.01886 0.82779 0.0
C866 C 0.54816 0.02127 0.85393 0.0
C867 C 0.54375 0.00792 0.9027 0.0
C868 C 0.55009 0.99164 0.92464 0.0
C869 C 0.55361 0.00456 0.87566 0.0
C870 C 0.56548 0.97124 0.91882 0.0
C871 C 0.57525 0.96774 0.89204 0.0
H872 H 0.26432 0.36705 0.13125 0.0
H873 H 0.25291 0.29115 0.07559 0.0
H874 H 0.25173 0.26529 0.11796 0.0
H875 H 0.25596 0.26445 0.1713 0.0
H876 H 0.26752 0.34094 0.22604 0.0
H877 H 0.26642 0.36619 0.18365 0.0
C878 C 0.26152 0.34484 0.1283 0.0
C879 C 0.2589 0.33112 0.10025 0.0
C880 C 0.26089 0.33013 0.15269 0.0
C881 C 0.25505 0.30229 0.09693 0.0
C882 C 0.25439 0.28746 0.12117 0.0
C883 C 0.25793 0.2866 0.17386 0.0
C884 C 0.26214 0.30078 0.20182 0.0
C885 C 0.25751 0.30117 0.14922 0.0
C886 C 0.26472 0.32952 0.2048 0.0
C887 C 0.26403 0.34403 0.18055 0.0
H888 H 0.19044 0.92474 0.01949 0.0
H889 H 0.2034 0.9432 0.11242 0.0
H890 H 0.16509 0.96731 0.1109 0.0
H891 H 0.12648 0.9812 0.0828 0.0
H892 H 0.11479 0.96159 0.98991 0.0
H893 H 0.15434 0.94018 0.99179 0.0
C894 C 0.18493 0.93395 0.03951 0.0
C895 C 0.1995 0.93189 0.06605 0.0
C896 C 0.16318 0.94772 0.03843 0.0
C897 C 0.19234 0.94438 0.09169 0.0
C898 C 0.17048 0.95817 0.09082 0.0
C899 C 0.13291 0.97256 0.06304 0.0
C900 C 0.11769 0.97275 0.0363 0.0
C901 C 0.1556 0.95979 0.06428 0.0
C902 C 0.12604 0.9614 0.01079 0.0
C903 C 0.14863 0.94913 0.01181 0.0
H904 H 0.65823 0.6205 0.99306 0.0
H905 H 0.69443 0.54813 0.98891 0.0
H906 H 0.65056 0.5195 0.99191 0.0
H907 H 0.60215 0.51568 -0.00046 0.0
H908 H 0.56828 0.58958 0.00634 0.0
H909 H 0.61082 0.61673 0.99829 0.0
C910 C 0.65662 0.59844 0.99255 0.0
C911 C 0.67967 0.58656 0.99097 0.0
C912 C 0.63161 0.58229 0.9949 0.0
C913 C 0.67702 0.55787 0.9902 0.0
C914 C 0.65193 0.54149 0.99201 0.0
C915 C 0.60409 0.53765 0.99888 0.0
C916 C 0.582 0.55052 0.0036 0.0
C917 C 0.62911 0.55353 0.99493 0.0
C918 C 0.58489 0.57908 0.0029 0.0
C919 C 0.60927 0.59473 0.99832 0.0
H920 H 0.66859 0.43014 0.34022 0.0
H921 H 0.70245 0.46531 0.26738 0.0
H922 H 0.7231 0.42501 0.25727 0.0
H923 H 0.72868 0.3783 0.26715 0.0
H924 H 0.69041 0.34171 0.33689 0.0
H925 H 0.67464 0.38412 0.35048 0.0
C926 C 0.68078 0.42913 0.32236 0.0
C927 C 0.68404 0.45059 0.30458 0.0
C928 C 0.69175 0.4056 0.31612 0.0
C929 C 0.69959 0.44892 0.28129 0.0
C930 C 0.71138 0.42591 0.27551 0.0
C931 C 0.71721 0.37982 0.28556 0.0
C932 C 0.71093 0.35706 0.30119 0.0
C933 C 0.7072 0.40391 0.29248 0.0
C934 C 0.69567 0.35905 0.32467 0.0
C935 C 0.68654 0.38325 0.33239 0.0
H936 H 0.84011 0.44153 0.51022 0.0
H937 H 0.85236 0.37795 0.565 0.0
H938 H 0.90053 0.39477 0.57063 0.0
H939 H 0.93912 0.42751 0.5608 0.0
H940 H 0.9281 0.49177 0.50671 0.0
H941 H 0.87955 0.47455 0.49987 0.0
C942 C 0.85334 0.43138 0.52338 0.0
C943 C 0.84254 0.40852 0.53719 0.0
C944 C 0.88125 0.4412 0.52661 0.0
C945 C 0.86001 0.39559 0.55413 0.0
C946 C 0.88763 0.40517 0.55737 0.0
C947 C 0.92618 0.43777 0.54741 0.0
C948 C 0.93724 0.46091 0.53432 0.0
C949 C 0.89844 0.42794 0.54379 0.0
C950 C 0.9201 0.47388 0.51702 0.0
C951 C 0.89234 0.46408 0.51316 0.0
H952 H 0.31025 0.07175 0.26179 0.0
H953 H 0.37842 0.11862 0.22864 0.0
H954 H 0.3538 0.15603 0.22243 0.0
H955 H 0.31422 0.1766 0.22917 0.0
H956 H 0.24659 0.131 0.26428 0.0
H957 H 0.26949 0.09167 0.2663 0.0
C958 C 0.31966 0.09007 0.25303 0.0
C959 C 0.34622 0.09238 0.24586 0.0
C960 C 0.30544 0.11167 0.24967 0.0
C961 C 0.35805 0.11626 0.23444 0.0
C962 C 0.34398 0.13769 0.23083 0.0
C963 C 0.30422 0.15791 0.23678 0.0
C964 C 0.2787 0.15676 0.24657 0.0
C965 C 0.3178 0.13574 0.23868 0.0
C966 C 0.26622 0.13243 0.25662 0.0
C967 C 0.27937 0.10999 0.25793 0.0
H968 H 0.3246 0.0632 0.5451 0.0
H969 H 0.32413 0.08585 0.45763 0.0
H970 H 0.36629 0.06966 0.45294 0.0
H971 H 0.40507 0.05275 0.47483 0.0
H972 H 0.40613 0.02973 0.56203 0.0
H973 H 0.36182 0.04218 0.56559 0.0
C974 C 0.33354 0.0643 0.52489 0.0
C975 C 0.3213 0.07605 0.50188 0.0
C976 C 0.35798 0.05508 0.52236 0.0
C977 C 0.33311 0.07709 0.47577 0.0
C978 C 0.35731 0.0679 0.47307 0.0
C979 C 0.39553 0.05028 0.49458 0.0
C980 C 0.40897 0.04068 0.51828 0.0
C981 C 0.3702 0.05748 0.49643 0.0
C982 C 0.39619 0.03713 0.54351 0.0
C983 C 0.37092 0.04435 0.54558 0.0
H984 H 0.70671 0.58862 0.31106 0.0
H985 H 0.63307 0.62029 0.29685 0.0
H986 H 0.65872 0.66576 0.29351 0.0
H987 H 0.70151 0.69558 0.29125 0.0
H988 H 0.77569 0.66536 0.30689 0.0
H989 H 0.75024 0.61999 0.31274 0.0
C990 C 0.69629 0.60552 0.30745 0.0
C991 C 0.66799 0.60097 0.30387 0.0
C992 C 0.71119 0.6317 0.30547 0.0
C993 C 0.6548 0.62314 0.29951 0.0
C994 C 0.66944 0.64915 0.29749 0.0
C995 C 0.71223 0.6792 0.29619 0.0
C996 C 0.74047 0.6838 0.29846 0.0
C997 C 0.69757 0.65349 0.29987 0.0
C998 C 0.75395 0.66231 0.30497 0.0
C999 C 0.73941 0.6364 0.3083 0.0
H1000 H 0.83733 0.43507 0.78557 0.0
H1001 H 0.91365 0.41694 0.76368 0.0
H1002 H 0.89678 0.36806 0.76369 0.0
H1003 H 0.8597 0.33053 0.76656 0.0
H1004 H 0.78276 0.34799 0.78681 0.0
H1005 H 0.80076 0.3972 0.79133 0.0
C1006 C 0.85031 0.42043 0.78094 0.0
C1007 C 0.8766 0.42963 0.77428 0.0
C1008 C 0.84042 0.39229 0.78073 0.0
C1009 C 0.89323 0.41042 0.76855 0.0
C1010 C 0.88364 0.38245 0.76862 0.0
C1011 C 0.84688 0.34506 0.77223 0.0
C1012 C 0.81987 0.33565 0.77604 0.0
C1013 C 0.85716 0.37318 0.77418 0.0
C1014 C 0.80362 0.35473 0.78367 0.0
C1015 C 0.81386 0.38286 0.7861 0.0
H1016 H 0.02105 0.83304 0.07291 0.0
H1017 H 0.02278 0.86038 0.16372 0.0
H1018 H 0.02073 0.90667 0.15206 0.0
H1019 H 0.02219 0.94022 0.11704 0.0
H1020 H 0.02214 0.91469 0.02625 0.0
H1021 H 0.01919 0.86686 0.03684 0.0
C1022 C 0.02076 0.8491 0.09008 0.0
C1023 C 0.02246 0.84324 0.11919 0.0
C1024 C 0.01984 0.87602 0.08326 0.0
C1025 C 0.02192 0.8643 0.14117 0.0
C1026 C 0.02065 0.89083 0.13455 0.0
C1027 C 0.02119 0.92416 0.09947 0.0
C1028 C 0.02258 0.93099 0.07096 0.0
C1029 C 0.02016 0.89702 0.1058 0.0
C1030 C 0.02097 0.90993 0.0484 0.0
C1031 C 0.01954 0.88262 0.0545 0.0
H1032 H 0.89842 0.22973 0.88823 0.0
H1033 H 0.94029 0.23063 0.81182 0.0
H1034 H 0.89842 0.23193 0.78175 0.0
H1035 H 0.85023 0.23616 0.77793 0.0
H1036 H 0.81118 0.24037 0.85605 0.0
H1037 H 0.85128 0.2333 0.88456 0.0
C1038 C 0.89837 0.22985 0.86495 0.0
C1039 C 0.92234 0.23009 0.85228 0.0
C1040 C 0.8746 0.23153 0.84806 0.0
C1041 C 0.92201 0.23054 0.8221 0.0
C1042 C 0.8981 0.2313 0.8049 0.0
C1043 C 0.85052 0.23514 0.80111 0.0
C1044 C 0.82762 0.23841 0.81485 0.0
C1045 C 0.87431 0.2323 0.81773 0.0
C1046 C 0.82838 0.23757 0.84496 0.0
C1047 C 0.8514 0.23368 0.86134 0.0
H1048 H 0.5097 0.20105 0.56815 0.0
H1049 H 0.52949 0.19132 0.65838 0.0
H1050 H 0.52925 0.14278 0.6462 0.0
H1051 H 0.52016 0.10235 0.61069 0.0
H1052 H 0.5015 0.11132 0.52024 0.0
H1053 H 0.50501 0.16086 0.53166 0.0
C1054 C 0.51414 0.18832 0.58508 0.0
C1055 C 0.51925 0.1998 0.61416 0.0
C1056 C 0.51418 0.16026 0.57792 0.0
C1057 C 0.52536 0.18309 0.63581 0.0
C1058 C 0.52519 0.15525 0.62891 0.0
C1059 C 0.51715 0.1152 0.59343 0.0
C1060 C 0.51031 0.1032 0.56475 0.0
C1061 C 0.51915 0.14353 0.60015 0.0
C1062 C 0.50682 0.1201 0.54253 0.0
C1063 C 0.50864 0.1484 0.54907 0.0
H1064 H 0.57812 0.75983 0.33941 0.0
H1065 H 0.59738 0.70262 0.39926 0.0
H1066 H 0.64129 0.70412 0.38191 0.0
H1067 H 0.67487 0.72316 0.35202 0.0
H1068 H 0.65781 0.78201 0.29325 0.0
H1069 H 0.6122 0.77828 0.30782 0.0
C1070 C 0.59184 0.74747 0.34835 0.0
C1071 C 0.58453 0.73115 0.37063 0.0
C1072 C 0.61744 0.74888 0.33867 0.0
C1073 C 0.60257 0.71543 0.38222 0.0
C1074 C 0.6277 0.71628 0.37233 0.0
C1075 C 0.66126 0.73522 0.34224 0.0
C1076 C 0.66983 0.75302 0.32172 0.0
C1077 C 0.63546 0.73324 0.35095 0.0
C1078 C 0.65175 0.76825 0.30921 0.0
C1079 C 0.6257 0.76612 0.31754 0.0
H1080 H 0.009 0.20531 0.48725 0.0
H1081 H 0.07293 0.20188 0.43272 0.0
H1082 H 0.07572 0.15581 0.44478 0.0
H1083 H 0.05816 0.11544 0.46785 0.0
H1084 H 0.99405 0.11769 0.52214 0.0
H1085 H 0.99341 0.16543 0.51337 0.0
C1086 C 0.02374 0.1946 0.47829 0.0
C1087 C 0.04052 0.20697 0.45889 0.0
C1088 C 0.02514 0.16787 0.48512 0.0
C1089 C 0.0596 0.19282 0.44755 0.0
C1090 C 0.06122 0.16642 0.45438 0.0
C1091 C 0.04411 0.12638 0.47792 0.0
C1092 C 0.02597 0.11298 0.49533 0.0
C1093 C 0.04375 0.15358 0.47265 0.0
C1094 C 0.00816 0.12755 0.50854 0.0
C1095 C 0.00774 0.15481 0.50346 0.0
H1096 H 0.59162 0.22225 0.14069 0.0
H1097 H 0.56387 0.27463 0.20568 0.0
H1098 H 0.60728 0.28043 0.23497 0.0
H1099 H 0.65367 0.27229 0.24104 0.0
H1100 H 0.68143 0.22042 0.17555 0.0
H1101 H 0.63728 0.2126 0.14768 0.0
C1102 C 0.59498 0.23488 0.16131 0.0
C1103 C 0.57456 0.24813 0.17087 0.0
C1104 C 0.61997 0.2382 0.17797 0.0
C1105 C 0.57928 0.2643 0.19772 0.0
C1106 C 0.60409 0.26762 0.2145 0.0
C1107 C 0.65001 0.25903 0.22082 0.0
C1108 C 0.6709 0.24702 0.21041 0.0
C1109 C 0.62466 0.25487 0.2047 0.0
C1110 C 0.66576 0.22991 0.18414 0.0
C1111 C 0.64053 0.22551 0.1681 0.0
H1112 H 0.48344 0.8472 0.96199 0.0
H1113 H 0.56895 0.85369 0.95964 0.0
H1114 H 0.57672 0.89788 0.98956 0.0
H1115 H 0.5586 0.93648 0.01318 0.0
H1116 H 0.47279 0.9308 0.00985 0.0
H1117 H 0.4657 0.88424 0.98615 0.0
C1118 C 0.50384 0.85808 0.96822 0.0
C1119 C 0.52556 0.84722 0.95851 0.0
C1120 C 0.50806 0.88359 0.98473 0.0
C1121 C 0.55184 0.86171 0.9667 0.0
C1122 C 0.5563 0.88695 0.98386 0.0
C1123 C 0.53847 0.92464 0.0079 0.0
C1124 C 0.51621 0.93663 0.01388 0.0
C1125 C 0.5345 0.89831 0.99265 0.0
C1126 C 0.49015 0.92163 0.00611 0.0
C1127 C 0.48609 0.89515 0.99223 0.0
H1128 H 0.93885 0.74784 0.70716 0.0
H1129 H 0.90599 0.75915 0.62107 0.0
H1130 H 0.86271 0.76152 0.6382 0.0
H1131 H 0.83304 0.75693 0.67624 0.0
H1132 H 0.86426 0.7452 0.76257 0.0
H1133 H 0.90928 0.74697 0.7469 0.0
C1134 C 0.92226 0.75103 0.69225 0.0
C1135 C 0.92569 0.7529 0.66275 0.0
C1136 C 0.89706 0.7523 0.70225 0.0
C1137 C 0.90399 0.75727 0.64379 0.0
C1138 C 0.87913 0.75869 0.65355 0.0
C1139 C 0.84973 0.75503 0.69176 0.0
C1140 C 0.84527 0.75066 0.72043 0.0
C1141 C 0.8753 0.75569 0.68253 0.0
C1142 C 0.86718 0.74862 0.74035 0.0
C1143 C 0.89288 0.74943 0.73133 0.0
H1144 H 0.1127 0.00813 0.8784 0.0
H1145 H 0.03898 0.01299 0.8269 0.0
H1146 H 0.01458 0.0088 0.86967 0.0
H1147 H 0.0147 0.00593 0.92257 0.0
H1148 H 0.08974 0.00461 0.97357 0.0
H1149 H 0.11281 0.00473 0.93025 0.0
C1150 C 0.09126 0.00809 0.87643 0.0
C1151 C 0.07775 0.01093 0.84948 0.0
C1152 C 0.07747 0.00619 0.90113 0.0
C1153 C 0.04995 0.01098 0.84743 0.0
C1154 C 0.03594 0.00854 0.87188 0.0
C1155 C 0.036 0.00531 0.92407 0.0
C1156 C 0.05036 0.00503 0.95132 0.0
C1157 C 0.04955 0.0064 0.89897 0.0
C1158 C 0.07808 0.00463 0.95293 0.0
C1159 C 0.09141 0.00485 0.92814 0.0
H1160 H 0.76892 0.30199 0.56967 0.0
H1161 H 0.72744 0.36678 0.59761 0.0
H1162 H 0.72844 0.35194 0.6462 0.0
H1163 H 0.74237 0.32199 0.68093 0.0
H1164 H 0.78537 0.258 0.65456 0.0
H1165 H 0.7826 0.27123 0.60499 0.0
C1166 C 0.75983 0.31265 0.58632 0.0
C1167 C 0.74803 0.33542 0.58003 0.0
C1168 C 0.76099 0.30435 0.61445 0.0
C1169 C 0.73665 0.34923 0.60191 0.0
C1170 C 0.73726 0.3408 0.6297 0.0
C1171 C 0.75117 0.31082 0.66442 0.0
C1172 C 0.76415 0.28905 0.67149 0.0
C1173 C 0.74965 0.31863 0.63626 0.0
C1174 C 0.77537 0.27488 0.64973 0.0
C1175 C 0.77373 0.28242 0.62139 0.0
H1176 H 0.46387 0.00948 0.33309 0.0
H1177 H 0.391 0.02476 0.36699 0.0
H1178 H 0.41243 0.02673 0.41645 0.0
H1179 H 0.45087 0.02201 0.44959 0.0
H1180 H 0.52531 0.01066 0.41691 0.0
H1181 H 0.50422 0.0091 0.36708 0.0
C1182 C 0.45279 0.01335 0.35137 0.0
C1183 C 0.42586 0.01671 0.34655 0.0
C1184 C 0.46544 0.01504 0.37973 0.0
C1185 C 0.41176 0.02213 0.37026 0.0
C1186 C 0.42395 0.02315 0.39848 0.0
C1187 C 0.46265 0.01953 0.43165 0.0
C1188 C 0.48958 0.01637 0.4369 0.0
C1189 C 0.45064 0.01935 0.4034 0.0
C1190 C 0.50455 0.0132 0.41337 0.0
C1191 C 0.49248 0.01222 0.38495 0.0
H1192 H 0.77988 0.71371 0.0881 0.0
H1193 H 0.75373 0.62735 0.09427 0.0
H1194 H 0.75071 0.6366 0.14595 0.0
H1195 H 0.75859 0.66869 0.19008 0.0
H1196 H 0.78336 0.75523 0.18432 0.0
H1197 H 0.78335 0.74653 0.13184 0.0
C1198 C 0.7734 0.69697 0.10076 0.0
C1199 C 0.76738 0.66986 0.08739 0.0
C1200 C 0.77136 0.70246 0.13054 0.0
C1201 C 0.75858 0.64841 0.10399 0.0
C1202 C 0.75687 0.65366 0.13359 0.0
C1203 C 0.76358 0.68569 0.17726 0.0
C1204 C 0.7711 0.71252 0.19107 0.0
C1205 C 0.76361 0.68053 0.14718 0.0
C1206 C 0.77734 0.73438 0.17419 0.0
C1207 C 0.77758 0.72939 0.1442 0.0
H1208 H 0.12297 0.01434 0.69912 0.0
H1209 H 0.04741 0.9709 0.72043 0.0
H1210 H 0.02816 0.96884 0.67001 0.0
H1211 H 0.03364 0.97727 0.61935 0.0
H1212 H 0.11044 0.01717 0.59774 0.0
H1213 H 0.12833 0.02313 0.64891 0.0
C1214 C 0.10222 0.00459 0.6928 0.0
C1215 C 0.08664 0.99278 0.71348 0.0
C1216 C 0.09152 0.00295 0.66374 0.0
C1217 C 0.05987 0.98001 0.70488 0.0
C1218 C 0.04883 0.97889 0.67609 0.0
C1219 C 0.05413 0.98769 0.626 0.0
C1220 C 0.0707 0.99702 0.60501 0.0
C1221 C 0.06456 0.99006 0.65527 0.0
C1222 C 0.09737 0.00993 0.61365 0.0
C1223 C 0.1076 0.01325 0.64283 0.0
H1224 H 0.77959 0.30276 0.45236 0.0
H1225 H 0.7329 0.361 0.42099 0.0
H1226 H 0.72671 0.33651 0.37243 0.0
H1227 H 0.73817 0.3011 0.33816 0.0
H1228 H 0.78365 0.24206 0.36991 0.0
H1229 H 0.7863 0.26405 0.41909 0.0
C1230 C 0.76783 0.30991 0.43492 0.0
C1231 C 0.75706 0.33385 0.44012 0.0
C1232 C 0.76406 0.29556 0.40714 0.0
C1233 C 0.74149 0.34266 0.4175 0.0
C1234 C 0.73794 0.32868 0.38971 0.0
C1235 C 0.74802 0.29259 0.35583 0.0
C1236 C 0.76076 0.27005 0.35009 0.0
C1237 C 0.74958 0.30542 0.38416 0.0
C1238 C 0.77368 0.25944 0.37349 0.0
C1239 C 0.77536 0.27209 0.4017 0.0
H1240 H 0.47492 0.05676 0.2386 0.0
H1241 H 0.41437 0.98822 0.20004 0.0
H1242 H 0.44283 0.97863 0.16256 0.0
H1243 H 0.48311 0.99157 0.13871 0.0
H1244 H 0.54273 0.06173 0.17488 0.0
H1245 H 0.51669 0.06839 0.21574 0.0
C1246 C 0.46803 0.03964 0.22209 0.0
C1247 C 0.44244 0.02343 0.22198 0.0
C1248 C 0.48438 0.0344 0.20029 0.0
C1249 C 0.43384 0.00124 0.20049 0.0
C1250 C 0.45015 0.99564 0.17908 0.0
C1251 C 0.49077 0.00801 0.15579 0.0
C1252 C 0.51487 0.02613 0.15374 0.0
C1253 C 0.47525 0.01232 0.17853 0.0
C1254 C 0.52425 0.04749 0.17596 0.0
C1255 C 0.50928 0.05141 0.19921 0.0
H1256 H 0.77178 0.65843 0.91976 0.0
H1257 H 0.75495 0.72874 0.97082 0.0
H1258 H 0.76083 0.75606 0.92987 0.0
H1259 H 0.76909 0.75945 0.8785 0.0
H1260 H 0.78272 0.68759 0.82746 0.0
H1261 H 0.78027 0.66178 0.86936 0.0
C1262 C 0.76952 0.67977 0.92205 0.0
C1263 C 0.76289 0.69143 0.94838 0.0
C1264 C 0.77253 0.69524 0.89832 0.0
C1265 C 0.75993 0.71913 0.95079 0.0
C1266 C 0.76336 0.73483 0.92737 0.0
C1267 C 0.77186 0.73827 0.87671 0.0
C1268 C 0.77629 0.7256 0.84981 0.0
C1269 C 0.76948 0.72306 0.90089 0.0
C1270 C 0.77943 0.69797 0.84782 0.0
C1271 C 0.77791 0.68308 0.8718 0.0
H1272 H 0.84106 0.08231 0.01157 0.0
H1273 H 0.88973 0.16317 0.0303 0.0
H1274 H 0.93024 0.14399 0.0248 0.0
H1275 H 0.95205 0.10408 0.01885 0.0
H1276 H 0.90428 0.02314 0.9988 0.0
H1277 H 0.863 0.04253 0.00016 0.0
C1278 C 0.86054 0.09572 0.01429 0.0
C1279 C 0.86243 0.12407 0.02182 0.0
C1280 C 0.8838 0.08456 0.01086 0.0
C1281 C 0.88772 0.14127 0.02472 0.0
C1282 C 0.91091 0.13033 0.02162 0.0
C1283 C 0.93255 0.09073 0.01443 0.0
C1284 C 0.93101 0.06227 0.00909 0.0
C1285 C 0.9092 0.10199 0.0153 0.0
C1286 C 0.9058 0.04514 0.00291 0.0
C1287 C 0.88229 0.05621 0.00393 0.0
H1288 H 0.34742 0.46333 0.05813 0.0
H1289 H 0.37237 0.38468 0.048 0.0
H1290 H 0.41747 0.40706 0.04072 0.0
H1291 H 0.44915 0.4485 0.03499 0.0
H1292 H 0.42605 0.52775 0.04827 0.0
H1293 H 0.38077 0.50559 0.05633 0.0
C1294 C 0.36279 0.45115 0.05446 0.0
C1295 C 0.35646 0.42235 0.05338 0.0
C1296 C 0.38891 0.46421 0.05067 0.0
C1297 C 0.37667 0.40685 0.04896 0.0
C1298 C 0.40246 0.41962 0.04467 0.0
C1299 C 0.43435 0.46102 0.03993 0.0
C1300 C 0.44098 0.48975 0.04096 0.0
C1301 C 0.40869 0.44822 0.04515 0.0
C1302 C 0.42148 0.5056 0.0474 0.0
C1303 C 0.39559 0.49293 0.05196 0.0
H1304 H 0.38425 0.6166 0.74716 0.0
H1305 H 0.31829 0.55748 0.76849 0.0
H1306 H 0.29216 0.59397 0.77669 0.0
H1307 H 0.28833 0.64322 0.77808 0.0
H1308 H 0.35454 0.70105 0.75492 0.0
H1309 H 0.38023 0.66462 0.74742 0.0
C1310 C 0.36414 0.61161 0.75357 0.0
C1311 C 0.3533 0.58437 0.75727 0.0
C1312 C 0.34926 0.63256 0.75807 0.0
C1313 C 0.32711 0.57831 0.7654 0.0
C1314 C 0.31219 0.59918 0.7702 0.0
C1315 C 0.3084 0.64775 0.77151 0.0
C1316 C 0.31946 0.6748 0.76707 0.0
C1317 C 0.3231 0.62647 0.76672 0.0
C1318 C 0.34543 0.68039 0.75831 0.0
C1319 C 0.36022 0.65957 0.75403 0.0
H1320 H 0.1952 0.56729 0.55605 0.0
H1321 H 0.2069 0.61412 0.48289 0.0
H1322 H 0.16024 0.59775 0.46339 0.0
H1323 H 0.11579 0.57164 0.46779 0.0
H1324 H 0.10344 0.52449 0.54051 0.0
H1325 H 0.15071 0.53952 0.55948 0.0
C1326 C 0.18759 0.57376 0.53575 0.0
C1327 C 0.20454 0.59203 0.52107 0.0
C1328 C 0.16059 0.56438 0.52465 0.0
C1329 C 0.19433 0.60016 0.49474 0.0
C1330 C 0.1676 0.59086 0.48355 0.0
C1331 C 0.12339 0.56463 0.48781 0.0
C1332 C 0.10608 0.54715 0.50283 0.0
C1333 C 0.1505 0.57324 0.49849 0.0
C1334 C 0.11635 0.53803 0.52857 0.0
C1335 C 0.14336 0.54662 0.53942 0.0
H1336 H 0.69889 0.93722 0.82803 0.0
H1337 H 0.69021 0.9401 0.73528 0.0
H1338 H 0.71716 0.90452 0.72922 0.0
H1339 H 0.73865 0.86919 0.74929 0.0
H1340 H 0.74646 0.86405 0.84147 0.0
H1341 H 0.72502 0.90437 0.84884 0.0
C1342 C 0.7032 0.93029 0.80655 0.0
C1343 C 0.69212 0.941 0.78211 0.0
C1344 C 0.71853 0.90942 0.80311 0.0
C1345 C 0.69808 0.93194 0.75444 0.0
C1346 C 0.71356 0.91161 0.75091 0.0
C1347 C 0.73605 0.87716 0.77107 0.0
C1348 C 0.74377 0.86357 0.79477 0.0
C1349 C 0.72319 0.8997 0.77497 0.0
C1350 C 0.74069 0.87427 0.82289 0.0
C1351 C 0.7282 0.89713 0.82705 0.0
H1352 H 0.70766 0.96723 0.50109 0.0
H1353 H 0.70699 0.94823 0.58977 0.0
H1354 H 0.6646 0.96447 0.5926 0.0
H1355 H 0.62613 0.98082 0.569 0.0
H1356 H 0.62625 -1e-05 0.48045 0.0
H1357 H 0.67056 0.98718 0.47859 0.0
C1358 C 0.6984 0.9669 0.52114 0.0
C1359 C 0.71046 0.95624 0.54509 0.0
C1360 C 0.67384 0.97617 0.52261 0.0
C1361 C 0.69819 0.95618 0.57095 0.0
C1362 C 0.67386 0.96541 0.57258 0.0
C1363 C 0.63591 0.98239 0.54932 0.0
C1364 C 0.62277 0.99108 0.52479 0.0
C1365 C 0.66126 0.97491 0.54839 0.0
C1366 C 0.6359 0.99335 0.49962 0.0
C1367 C 0.66119 0.98591 0.49852 0.0
H1368 H 0.29227 0.4315 0.72801 0.0
H1369 H 0.37005 0.42686 0.77131 0.0
H1370 H 0.35394 0.37959 0.77967 0.0
H1371 H 0.31811 0.33962 0.77503 0.0
H1372 H 0.24017 0.34318 0.73166 0.0
H1373 H 0.25606 0.39078 0.72301 0.0
C1374 C 0.30568 0.42013 0.73924 0.0
C1375 C 0.33233 0.43281 0.74901 0.0
C1376 C 0.2963 0.39276 0.74402 0.0
C1377 C 0.34945 0.41771 0.76351 0.0
C1378 C 0.34027 0.39062 0.76835 0.0
C1379 C 0.30451 0.35077 0.76374 0.0
C1380 C 0.27796 0.33786 0.75411 0.0
C1381 C 0.31376 0.37798 0.75877 0.0
C1382 C 0.26072 0.35263 0.73935 0.0
C1383 C 0.26979 0.37985 0.73439 0.0
H1384 H 0.15841 0.6057 0.25761 0.0
H1385 H 0.23265 0.57497 0.26823 0.0
H1386 H 0.25755 0.62169 0.28208 0.0
H1387 H 0.25784 0.67127 0.29257 0.0
H1388 H 0.18273 0.70084 0.28598 0.0
H1389 H 0.1585 0.65465 0.26923 0.0
C1390 C 0.18007 0.60931 0.26269 0.0
C1391 C 0.19377 0.58711 0.26168 0.0
C1392 C 0.19403 0.63599 0.27157 0.0
C1393 C 0.22175 0.59187 0.26885 0.0
C1394 C 0.23596 0.61853 0.27677 0.0
C1395 C 0.23619 0.6675 0.28738 0.0
C1396 C 0.22206 0.6893 0.29049 0.0
C1397 C 0.22227 0.64073 0.27844 0.0
C1398 C 0.19399 0.68427 0.28397 0.0
C1399 C 0.18013 0.65791 0.27428 0.0
H1400 H 0.51858 0.68225 0.45604 0.0
H1401 H 0.43329 0.66842 0.42925 0.0
H1402 H 0.42785 0.62403 0.44859 0.0
H1403 H 0.44773 0.58758 0.46924 0.0
H1404 H 0.53245 0.60116 0.4979 0.0
H1405 H 0.53777 0.64744 0.48197 0.0
C1406 C 0.49878 0.66961 0.4547 0.0
C1407 C 0.47641 0.67847 0.44086 0.0
C1408 C 0.49574 0.6441 0.46606 0.0
C1409 C 0.45083 0.66208 0.43967 0.0
C1410 C 0.44771 0.63663 0.45063 0.0
C1411 C 0.46732 0.60082 0.47223 0.0
C1412 C 0.48976 0.59104 0.48429 0.0
C1413 C 0.47008 0.62722 0.46325 0.0
C1414 C 0.51495 0.60839 0.48862 0.0
C1415 C 0.51797 0.63472 0.47937 0.0
H1416 H 0.62279 0.27256 0.67233 0.0
H1417 H 0.5881 0.29437 0.75019 0.0
H1418 H 0.62986 0.29114 0.77953 0.0
H1419 H 0.67561 0.27975 0.78284 0.0
H1420 H 0.70749 0.25439 0.70415 0.0
H1421 H 0.66751 0.26156 0.6754 0.0
C1422 C 0.62439 0.2769 0.69571 0.0
C1423 C 0.60247 0.28372 0.70908 0.0
C1424 C 0.64796 0.27425 0.71231 0.0
C1425 C 0.60477 0.289 0.73941 0.0
C1426 C 0.62859 0.28713 0.75617 0.0
C1427 C 0.67379 0.27601 0.75941 0.0
C1428 C 0.69454 0.26669 0.74569 0.0
C1429 C 0.65023 0.2794 0.74285 0.0
C1430 C 0.69185 0.2616 0.71531 0.0
C1431 C 0.66897 0.26568 0.69877 0.0
H1432 H 0.97169 0.33027 0.96224 0.0
H1433 H 0.03618 0.33235 0.90769 0.0
H1434 H 0.05007 0.3813 0.92114 0.0
H1435 H 0.0444 0.42344 0.94813 0.0
H1436 H 0.98201 0.42255 0.00501 0.0
H1437 H 0.96671 0.37325 0.9908 0.0
C1438 C 0.98877 0.34148 0.95335 0.0
C1439 C 0.00281 0.32758 0.93395 0.0
C1440 C 0.99698 0.36983 0.96147 0.0
C1441 C 0.02502 0.34239 0.92274 0.0
C1442 C 0.03298 0.37047 0.93033 0.0
C1443 C 0.0273 0.41256 0.95731 0.0
C1444 C 0.01419 0.42663 0.97738 0.0
C1445 C 0.01911 0.38436 0.94959 0.0
C1446 C 0.99238 0.41212 0.98944 0.0
C1447 C 0.98367 0.38397 0.98134 0.0
H1448 H 0.93389 0.75286 0.16803 0.0
H1449 H 0.98381 0.77521 0.24951 0.0
H1450 H 0.94371 0.76962 0.27547 0.0
H1451 H 0.89395 0.76151 0.27442 0.0
H1452 H 0.8452 0.74204 0.19209 0.0
H1453 H 0.88538 0.7429 0.167 0.0
C1454 C 0.93613 0.75642 0.19149 0.0
C1455 C 0.96179 0.76469 0.20678 0.0
C1456 C 0.91313 0.75353 0.2061 0.0
C1457 C 0.96424 0.769 0.2372 0.0
C1458 C 0.94133 0.76578 0.25205 0.0
C1459 C 0.89232 0.75694 0.25107 0.0
C1460 C 0.86691 0.75158 0.23497 0.0
C1461 C 0.91562 0.75842 0.23668 0.0
C1462 C 0.86473 0.74616 0.20474 0.0
C1463 C 0.88763 0.74677 0.19042 0.0
H1464 H 0.47995 0.32531 0.09468 0.0
H1465 H 0.55591 0.31574 0.06448 0.0
H1466 H 0.55994 0.36066 0.04594 0.0
H1467 H 0.54319 0.40427 0.04145 0.0
H1468 H 0.46787 0.41332 0.07369 0.0
H1469 H 0.46229 0.36704 0.08806 0.0
C1470 C 0.49732 0.33288 0.08384 0.0
C1471 C 0.51767 0.31723 0.08119 0.0
C1472 C 0.49971 0.35879 0.07368 0.0
C1473 C 0.53996 0.32739 0.06692 0.0
C1474 C 0.54232 0.35312 0.05636 0.0
C1475 C 0.52546 0.39591 0.05131 0.0
C1476 C 0.50613 0.41228 0.05673 0.0
C1477 C 0.52252 0.36924 0.06007 0.0
C1478 C 0.48325 0.40127 0.0696 0.0
C1479 C 0.47997 0.37477 0.07781 0.0
H1480 H 0.97077 0.27406 0.34554 0.0
H1481 H 0.95978 0.19305 0.37441 0.0
H1482 H 0.91211 0.1857 0.35724 0.0
H1483 H 0.87343 0.20255 0.33543 0.0
H1484 H 0.88387 0.28298 0.30535 0.0
H1485 H 0.93198 0.2903 0.3217 0.0
C1486 C 0.95799 0.25471 0.34783 0.0
C1487 C 0.96886 0.23416 0.36125 0.0
C1488 C 0.93052 0.25058 0.33792 0.0
C1489 C 0.95202 0.20918 0.36402 0.0
C1490 C 0.9247 0.20499 0.35436 0.0
C1491 C 0.88618 0.22173 0.33248 0.0
C1492 C 0.87509 0.24227 0.3194 0.0
C1493 C 0.91372 0.22563 0.34156 0.0
C1494 C 0.89195 0.26688 0.31545 0.0
C1495 C 0.91943 0.27106 0.32476 0.0
H1496 H 0.98387 0.67268 0.53819 0.0
H1497 H 0.00456 0.65749 0.62672 0.0
H1498 H 0.01403 0.61299 0.61019 0.0
H1499 H 0.01897 0.5796 0.5713 0.0
H1500 H 0.99528 0.59104 0.48254 0.0
H1501 H 0.98492 0.63612 0.49847 0.0
C1502 C 0.99019 0.65949 0.55382 0.0
C1503 C 0.99371 0.66864 0.58365 0.0
C1504 C 0.99545 0.63349 0.54418 0.0
C1505 C 0.0017 0.65116 0.60365 0.0
C1506 C 0.00729 0.62568 0.59424 0.0
C1507 C 0.01135 0.59175 0.5553 0.0
C1508 C 0.00804 0.58203 0.52575 0.0
C1509 C 0.00467 0.61689 0.56464 0.0
C1510 C 0.99807 0.59812 0.50543 0.0
C1511 C 0.99212 0.62384 0.51455 0.0
H1512 H 0.5953 0.77094 0.83727 0.0
H1513 H 0.62727 0.76447 0.92512 0.0
H1514 H 0.67097 0.76168 0.90924 0.0
H1515 H 0.70098 0.76407 0.87155 0.0
H1516 H 0.67076 0.77113 0.78351 0.0
H1517 H 0.62541 0.77009 0.79819 0.0
C1518 C 0.61181 0.76879 0.85287 0.0
C1519 C 0.60799 0.76825 0.88242 0.0
C1520 C 0.63719 0.76721 0.84358 0.0
C1521 C 0.62957 0.76519 0.9023 0.0
C1522 C 0.65465 0.76354 0.89326 0.0
C1523 C 0.68443 0.76514 0.85546 0.0
C1524 C 0.68921 0.76794 0.82657 0.0
C1525 C 0.65877 0.76496 0.86412 0.0
C1526 C 0.66753 0.7689 0.8059 0.0
C1527 C 0.64168 0.76853 0.81435 0.0
H1528 H 0.47841 0.54787 0.70012 0.0
H1529 H 0.40419 0.49474 0.66416 0.0
H1530 H 0.42222 0.48818 0.61808 0.0
H1531 H 0.45869 0.49673 0.58813 0.0
H1532 H 0.53307 0.55028 0.62225 0.0
H1533 H 0.51535 0.55729 0.66903 0.0
C1534 C 0.46619 0.53491 0.68219 0.0
C1535 C 0.43997 0.52178 0.68574 0.0
C1536 C 0.4767 0.53117 0.65548 0.0
C1537 C 0.42441 0.5051 0.66219 0.0
C1538 C 0.4347 0.50127 0.63576 0.0
C1539 C 0.47116 0.50999 0.60572 0.0
C1540 C 0.49721 0.52295 0.60164 0.0
C1541 C 0.4608 0.51408 0.63223 0.0
C1542 C 0.51294 0.54005 0.62477 0.0
C1543 C 0.5028 0.54407 0.65151 0.0
H1544 H 0.79045 0.20878 0.98872 0.0
H1545 H 0.70669 0.17248 0.98553 0.0
H1546 H 0.69674 0.19286 0.94081 0.0
H1547 H 0.71343 0.2146 0.89858 0.0
H1548 H 0.79718 0.25044 0.90207 0.0
H1549 H 0.80558 0.23716 0.95083 0.0
C1550 C 0.76996 0.20577 0.97849 0.0
C1551 C 0.74945 0.18876 0.99 0.0
C1552 C 0.76442 0.21741 0.95275 0.0
C1553 C 0.72288 0.18538 0.97692 0.0
C1554 C 0.71718 0.19693 0.95127 0.0
C1555 C 0.73322 0.22034 0.91058 0.0
C1556 C 0.7547 0.23335 0.89703 0.0
C1557 C 0.73797 0.21212 0.93842 0.0
C1558 C 0.78043 0.24037 0.91229 0.0
C1559 C 0.78526 0.23264 0.94006 0.0
H1560 H 0.0623 0.48842 0.206 0.0
H1561 H 0.13667 0.48463 0.16905 0.0
H1562 H 0.11453 0.48679 0.12091 0.0
H1563 H 0.07545 0.49324 0.09006 0.0
H1564 H 0.00128 0.4996 0.12584 0.0
H1565 H 0.02171 0.49217 0.17378 0.0
C1566 C 0.07355 0.48774 0.18735 0.0
C1567 C 0.10118 0.48665 0.19114 0.0
C1568 C 0.06077 0.4895 0.15966 0.0
C1569 C 0.11549 0.48577 0.16678 0.0
C1570 C 0.10285 0.48697 0.13924 0.0
C1571 C 0.06375 0.49313 0.10835 0.0
C1572 C 0.03716 0.4976 0.10467 0.0
C1573 C 0.07575 0.4895 0.13559 0.0
C1574 C 0.02187 0.49635 0.12827 0.0
C1575 C 0.03361 0.49227 0.15564 0.0
H1576 H 0.78769 0.82099 0.48282 0.0
H1577 H 0.73884 0.88299 0.47057 0.0
H1578 H 0.73144 0.86883 0.41877 0.0
H1579 H 0.73945 0.83987 0.37685 0.0
H1580 H 0.78738 0.77708 0.38799 0.0
H1581 H 0.79466 0.79068 0.44034 0.0
C1582 C 0.77527 0.83127 0.46885 0.0
C1583 C 0.76392 0.8531 0.48067 0.0
C1584 C 0.77112 0.82307 0.43886 0.0
C1585 C 0.74788 0.86617 0.46218 0.0
C1586 C 0.74368 0.85815 0.43247 0.0
C1587 C 0.75162 0.82917 0.39064 0.0
C1588 C 0.76305 0.80763 0.37848 0.0
C1589 C 0.75539 0.83685 0.42058 0.0
C1590 C 0.77846 0.79382 0.39679 0.0
C1591 C 0.78257 0.80155 0.42672 0.0
H1592 H 0.4057 0.52098 0.84239 0.0
H1593 H 0.4788 0.49726 0.81754 0.0
H1594 H 0.49646 0.50004 0.86877 0.0
H1595 H 0.49111 0.51029 0.9207 0.0
H1596 H 0.41649 0.53187 0.94408 0.0
H1597 H 0.39932 0.52842 0.89327 0.0
C1598 C 0.42561 0.5166 0.84812 0.0
C1599 C 0.44113 0.50936 0.82627 0.0
C1600 C 0.43523 0.51759 0.87736 0.0
C1601 C 0.46659 0.50311 0.83405 0.0
C1602 C 0.47663 0.50462 0.86329 0.0
C1603 C 0.47099 0.5139 0.91464 0.0
C1604 C 0.45521 0.52151 0.93621 0.0
C1605 C 0.4611 0.51188 0.88517 0.0
C1606 C 0.42916 0.52611 0.928 0.0
C1607 C 0.4193 0.52425 0.8989 0.0
H1608 H 0.81317 0.23238 0.11005 0.0
H1609 H 0.78063 0.15379 0.13735 0.0
H1610 H 0.77275 0.17624 0.18355 0.0
H1611 H 0.77152 0.21833 0.21441 0.0
H1612 H 0.80345 0.29697 0.18774 0.0
H1613 H 0.81473 0.27447 0.14262 0.0
C1614 C 0.80466 0.22012 0.12623 0.0
C1615 C 0.79728 0.19144 0.12011 0.0
C1616 C 0.79986 0.2332 0.15266 0.0
C1617 C 0.7863 0.17589 0.14136 0.0
C1618 C 0.78171 0.1887 0.16777 0.0
C1619 C 0.78178 0.2304 0.19909 0.0
C1620 C 0.78754 0.25905 0.20458 0.0
C1621 C 0.78797 0.21733 0.17341 0.0
C1622 C 0.79936 0.27478 0.18401 0.0
C1623 C 0.80574 0.26193 0.15831 0.0
H1624 H 0.1106 0.47275 0.32964 0.0
H1625 H 0.10019 0.55628 0.32218 0.0
H1626 H 0.07022 0.55342 0.36022 0.0
H1627 H 0.04925 0.5282 0.3977 0.0
H1628 H 0.0603 0.44495 0.40568 0.0
H1629 H 0.08733 0.44658 0.36502 0.0
C1630 C 0.10173 0.49031 0.33629 0.0
C1631 C 0.10785 0.51476 0.3233 0.0
C1632 C 0.0845 0.48855 0.35818 0.0
C1633 C 0.09595 0.53723 0.33193 0.0
C1634 C 0.07876 0.53563 0.35367 0.0
C1635 C 0.05716 0.51026 0.39021 0.0
C1636 C 0.05289 0.48656 0.40477 0.0
C1637 C 0.07315 0.5115 0.36718 0.0
C1638 C 0.06342 0.46352 0.39491 0.0
C1639 C 0.07897 0.46445 0.37174 0.0
H1640 H 0.73447 0.81146 0.60703 0.0
H1641 H 0.78951 0.88388 0.64652 0.0
H1642 H 0.79435 0.86286 0.69158 0.0
H1643 H 0.78315 0.82414 0.71993 0.0
H1644 H 0.72867 0.75126 0.68083 0.0
H1645 H 0.72348 0.77226 0.63556 0.0
C1646 C 0.74752 0.82265 0.62548 0.0
C1647 C 0.76156 0.84926 0.62329 0.0
C1648 C 0.75035 0.81037 0.65146 0.0
C1649 C 0.77845 0.86339 0.64747 0.0
C1650 C 0.78124 0.85139 0.67333 0.0
C1651 C 0.77012 0.81278 0.70154 0.0
C1652 C 0.75631 0.78613 0.70386 0.0
C1653 C 0.76731 0.82492 0.67557 0.0
C1654 C 0.73955 0.77179 0.67971 0.0
C1655 C 0.73657 0.7838 0.65379 0.0
H1656 H 0.69861 0.45512 0.5746 0.0
H1657 H 0.7108 0.45444 0.48408 0.0
H1658 H 0.67618 0.4823 0.47637 0.0
H1659 H 0.63967 0.50311 0.49418 0.0
H1660 H 0.6258 0.50193 0.58412 0.0
H1661 H 0.66413 0.47899 0.59325 0.0
C1662 C 0.69393 0.46131 0.55325 0.0
C1663 C 0.70715 0.45242 0.52991 0.0
C1664 C 0.67364 0.47699 0.54883 0.0
C1665 C 0.70082 0.46075 0.5024 0.0
C1666 C 0.68101 0.47671 0.49795 0.0
C1667 C 0.64528 0.49831 0.51592 0.0
C1668 C 0.62973 0.50412 0.53839 0.0
C1669 C 0.66688 0.48443 0.52085 0.0
C1670 C 0.63733 0.49763 0.56639 0.0
C1671 C 0.65919 0.48438 0.57161 0.0
H1672 H 0.18556 0.02966 0.48159 0.0
H1673 H 0.17632 0.11414 0.49807 0.0
H1674 H 0.12896 0.0995 0.50322 0.0
H1675 H 0.09051 0.06308 0.5048 0.0
H1676 H 0.09862 0.9784 0.48806 0.0
H1677 H 0.14598 0.99281 0.48113 0.0
C1678 C 0.17317 0.04487 0.4862 0.0
C1679 C 0.18466 0.07299 0.48959 0.0
C1680 C 0.14572 0.03631 0.48915 0.0
C1681 C 0.16818 0.09237 0.49543 0.0
C1682 C 0.14102 0.08404 0.49842 0.0
C1683 C 0.10254 0.04769 0.49953 0.0
C1684 C 0.091 0.01967 0.49711 0.0
C1685 C 0.12965 0.0561 0.49559 0.0
C1686 C 0.10694 0.00011 0.49002 0.0
C1687 C 0.13407 0.00834 0.48615 0.0
H1688 H 0.14022 0.90969 0.80754 0.0
H1689 H 0.20623 0.96469 0.78009 0.0
H1690 H 0.23175 0.92729 0.77564 0.0
H1691 H 0.23507 0.87847 0.77936 0.0
H1692 H 0.16871 0.82475 0.80806 0.0
H1693 H 0.14367 0.86206 0.81201 0.0
C1694 C 0.1602 0.91359 0.8006 0.0
C1695 C 0.17123 0.93994 0.79411 0.0
C1696 C 0.17474 0.89212 0.79821 0.0
C1697 C 0.19724 0.94458 0.78528 0.0
C1698 C 0.21183 0.92318 0.78265 0.0
C1699 C 0.21512 0.87501 0.7864 0.0
C1700 C 0.20385 0.84886 0.79343 0.0
C1701 C 0.20075 0.89679 0.78899 0.0
C1702 C 0.17801 0.84469 0.8027 0.0
C1703 C 0.16358 0.86602 0.80493 0.0
H1704 H 0.36297 0.90115 0.03662 0.0
H1705 H 0.31532 0.96491 0.04271 0.0
H1706 H 0.35617 -9e-05 0.04841 0.0
H1707 H 0.4059 0.01226 0.05313 0.0
H1708 H 0.45233 0.94731 0.04866 0.0
H1709 H 0.41159 0.91313 0.04057 0.0
C1710 C 0.36144 0.92269 0.03907 0.0
C1711 C 0.33617 0.93037 0.03933 0.0
C1712 C 0.38488 0.94259 0.04254 0.0
C1713 C 0.3346 0.95842 0.04256 0.0
C1714 C 0.35794 0.97846 0.04582 0.0
C1715 C 0.407 0.99064 0.05022 0.0
C1716 C 0.43218 0.98246 0.05091 0.0
C1717 C 0.38326 0.97078 0.04608 0.0
C1718 C 0.43329 0.95431 0.04733 0.0
C1719 C 0.40996 0.93463 0.04303 0.0
H1720 H 0.82575 0.5723 0.71225 0.0
H1721 H 0.82518 0.56192 0.80333 0.0
H1722 H 0.80285 0.60108 0.81037 0.0
H1723 H 0.7898 0.642 0.79241 0.0
H1724 H 0.79039 0.65372 0.70196 0.0
H1725 H 0.80607 0.61004 0.6927 0.0
C1726 C 0.82024 0.57828 0.73349 0.0
C1727 C 0.82767 0.5646 0.75735 0.0
C1728 C 0.80765 0.60116 0.73753 0.0
C1729 C 0.82015 0.57241 0.78469 0.0
C1730 C 0.80738 0.59482 0.78878 0.0
C1731 C 0.7928 0.6346 0.77056 0.0
C1732 C 0.78929 0.65086 0.74792 0.0
C1733 C 0.80203 0.60991 0.76563 0.0
C1734 C 0.79292 0.64126 0.71963 0.0
C1735 C 0.80209 0.61649 0.71444 0.0
H1736 H 0.82761 0.57343 0.02401 0.0
H1737 H 0.86433 0.64311 0.9833 0.0
H1738 H 0.90687 0.62683 0.98662 0.0
H1739 H 0.93389 0.59357 0.00132 0.0
H1740 H 0.89897 0.52426 0.04353 0.0
H1741 H 0.85552 0.5397 0.03949 0.0
C1742 C 0.84491 0.58494 0.01576 0.0
C1743 C 0.84272 0.60947 0.00338 0.0
C1744 C 0.86965 0.57563 0.01811 0.0
C1745 C 0.8654 0.62426 0.99302 0.0
C1746 C 0.88979 0.61496 0.99488 0.0
C1747 C 0.91682 0.58171 0.00965 0.0
C1748 C 0.9197 0.55773 0.02265 0.0
C1749 C 0.89216 0.59079 0.00746 0.0
C1750 C 0.89733 0.54282 0.03346 0.0
C1751 C 0.87248 0.55163 0.03109 0.0
H1752 H 0.20433 0.09343 0.80497 0.0
H1753 H 0.12863 0.1141 0.77266 0.0
H1754 H 0.15124 0.15973 0.76543 0.0
H1755 H 0.19211 0.19307 0.76624 0.0
H1756 H 0.26828 0.17475 0.79989 0.0
H1757 H 0.24584 0.12878 0.80855 0.0
C1758 C 0.1928 0.10799 0.79651 0.0
C1759 C 0.16481 0.10019 0.78916 0.0
C1760 C 0.20598 0.13449 0.79243 0.0
C1761 C 0.15015 0.1194 0.77842 0.0
C1762 C 0.16307 0.14554 0.77419 0.0
C1763 C 0.20394 0.1791 0.7755 0.0
C1764 C 0.23188 0.18722 0.78214 0.0
C1765 C 0.19094 0.15315 0.78075 0.0
C1766 C 0.24674 0.16894 0.79449 0.0
C1767 C 0.23391 0.14269 0.79942 0.0
H1768 H 0.34936 0.92701 0.20337 0.0
H1769 H 0.31463 0.94288 0.28281 0.0
H1770 H 0.29951 0.89364 0.28412 0.0
H1771 H 0.29856 0.84607 0.26414 0.0
H1772 H 0.33551 0.83054 0.18604 0.0
H1773 H 0.3475 0.87973 0.18286 0.0
C1774 C 0.33816 0.91974 0.22077 0.0
C1775 C 0.3331 0.93853 0.24295 0.0
C1776 C 0.33026 0.89146 0.22182 0.0
C1777 C 0.31881 0.92877 0.26551 0.0
C1778 C 0.31025 0.90064 0.26632 0.0
C1779 C 0.30917 0.85347 0.24639 0.0
C1780 C 0.31633 0.83471 0.22549 0.0
C1781 C 0.31629 0.88179 0.24487 0.0
C1782 C 0.33006 0.84457 0.20261 0.0
C1783 C 0.33682 0.87269 0.20068 0.0
H1784 H 0.52877 0.33352 0.57129 0.0
H1785 H 0.53212 0.3599 0.66255 0.0
H1786 H 0.53323 0.40702 0.65192 0.0
H1787 H 0.53482 0.44109 0.6173 0.0
H1788 H 0.53072 0.4158 0.52589 0.0
H1789 H 0.52799 0.36791 0.53597 0.0
C1790 C 0.52976 0.3496 0.58881 0.0
C1791 C 0.53057 0.34315 0.61767 0.0
C1792 C 0.53015 0.37684 0.58256 0.0
C1793 C 0.53153 0.36421 0.64012 0.0
C1794 C 0.53217 0.39123 0.63411 0.0
C1795 C 0.53319 0.42509 0.59954 0.0
C1796 C 0.53315 0.43195 0.57095 0.0
C1797 C 0.53169 0.39779 0.60548 0.0
C1798 C 0.5307 0.41099 0.54812 0.0
C1799 C 0.52931 0.38364 0.55389 0.0
H1800 H 0.43916 0.76943 0.34735 0.0
H1801 H 0.4272 0.6839 0.3147 0.0
H1802 H 0.38346 0.68714 0.28986 0.0
H1803 H 0.34744 0.71387 0.27967 0.0
H1804 H 0.35987 0.79907 0.31384 0.0
H1805 H 0.4046 0.79633 0.33559 0.0
C1806 C 0.42711 0.75148 0.33468 0.0
C1807 C 0.43643 0.72643 0.33306 0.0
C1808 C 0.40197 0.75342 0.32072 0.0
C1809 C 0.42052 0.70345 0.3164 0.0
C1810 C 0.39547 0.70527 0.3022 0.0
C1811 C 0.3601 0.73188 0.29158 0.0
C1812 C 0.35026 0.75658 0.29523 0.0
C1813 C 0.38582 0.73009 0.3045 0.0
C1814 C 0.36685 0.77973 0.31086 0.0
C1815 C 0.39246 0.77821 0.32335 0.0
H1816 H 0.05309 0.70106 0.0842 0.0
H1817 H 0.00111 0.69699 0.1527 0.0
H1818 H 0.98875 0.64763 0.14157 0.0
H1819 H 0.99258 0.6056 0.113 0.0
H1820 H 0.04307 0.60846 0.04336 0.0
H1821 H 0.05626 0.65826 0.05453 0.0
C1822 C 0.03896 0.68938 0.09656 0.0
C1823 C 0.02815 0.70282 0.11929 0.0
C1824 C 0.0318 0.66075 0.09004 0.0
C1825 C 0.00982 0.68731 0.13509 0.0
C1826 C 0.00274 0.65899 0.12882 0.0
C1827 C 0.00663 0.61701 0.10032 0.0
C1828 C 0.01695 0.60331 0.07751 0.0
C1829 C 0.0137 0.64551 0.10651 0.0
C1830 C 0.03492 0.61853 0.06115 0.0
C1831 C 0.04239 0.647 0.06746 0.0
H1832 H 0.06905 0.25964 0.83115 0.0
H1833 H 0.09907 0.22268 0.90506 0.0
H1834 H 0.14103 0.22098 0.88413 0.0
H1835 H 0.16956 0.23122 0.84603 0.0
H1836 H 0.14139 0.27041 0.77299 0.0
H1837 H 0.09809 0.26991 0.79238 0.0
C1838 C 0.08474 0.25107 0.84253 0.0
C1839 C 0.08105 0.24132 0.86958 0.0
C1840 C 0.10905 0.25061 0.83061 0.0
C1841 C 0.10155 0.23046 0.88428 0.0
C1842 C 0.12551 0.22943 0.87232 0.0
C1843 C 0.15392 0.23951 0.83417 0.0
C1844 C 0.15859 0.2508 0.80812 0.0
C1845 C 0.12952 0.23964 0.84567 0.0
C1846 C 0.13822 0.26165 0.79316 0.0
C1847 C 0.11351 0.26136 0.80423 0.0
H1848 H 0.5132 0.69417 0.91781 0.0
H1849 H 0.52212 0.73545 0.0044 0.0
H1850 H 0.51571 0.69113 0.02436 0.0
H1851 H 0.51025 0.64039 0.01712 0.0
H1852 H 0.50366 0.60041 0.93021 0.0
H1853 H 0.50613 0.64443 0.91048 0.0
C1854 C 0.51362 0.69357 0.94107 0.0
C1855 C 0.51832 0.71811 0.95957 0.0
C1856 C 0.51029 0.66817 0.95235 0.0
C1857 C 0.51869 0.71685 0.98964 0.0
C1858 C 0.515 0.69151 0.00108 0.0
C1859 C 0.50896 0.64142 0.99389 0.0
C1860 C 0.50687 0.61733 0.97511 0.0
C1861 C 0.51112 0.66701 0.98265 0.0
C1862 C 0.50549 0.6188 0.94506 0.0
C1863 C 0.50692 0.64393 0.93376 0.0
H1864 H 0.07688 0.74101 0.71186 0.0
H1865 H 0.09882 0.73139 0.62475 0.0
H1866 H 0.14611 0.73852 0.64324 0.0
H1867 H 0.18153 0.75021 0.68373 0.0
H1868 H 0.1607 0.758 0.77124 0.0
H1869 H 0.11278 0.74833 0.7532 0.0
C1870 C 0.09207 0.74043 0.69704 0.0
C1871 C 0.08439 0.73598 0.66699 0.0
C1872 C 0.11941 0.74403 0.70788 0.0
C1873 C 0.1042 0.73481 0.64799 0.0
C1874 C 0.13128 0.7389 0.65851 0.0
C1875 C 0.16644 0.74938 0.69884 0.0
C1876 C 0.17448 0.75488 0.72867 0.0
C1877 C 0.13913 0.74384 0.68834 0.0
C1878 C 0.15488 0.75356 0.74814 0.0
C1879 C 0.12752 0.74832 0.73781 0.0
H1880 H 0.05507 0.34747 0.4729 0.0
H1881 H 0.97093 0.32903 0.4403 0.0
H1882 H 0.9648 0.37366 0.46167 0.0
H1883 H 0.98413 0.41946 0.4856 0.0
H1884 H 0.06767 0.43798 0.5198 0.0
H1885 H 0.07325 0.39164 0.50214 0.0
C1886 C 0.03536 0.35316 0.47074 0.0
C1887 C 0.01359 0.33515 0.45467 0.0
C1888 C 0.0319 0.37885 0.48326 0.0
C1889 C 0.98806 0.34256 0.45242 0.0
C1890 C 0.98453 0.36812 0.46456 0.0
C1891 C 0.00346 0.41316 0.48948 0.0
C1892 C 0.02554 0.43198 0.5036 0.0
C1893 C 0.00642 0.38663 0.4794 0.0
C1894 C 0.0504 0.42367 0.50899 0.0
C1895 C 0.05362 0.3973 0.49872 0.0
H1896 H 0.44069 0.24293 0.20568 0.0
H1897 H 0.40797 0.29979 0.15383 0.0
H1898 H 0.37154 0.30017 0.18433 0.0
H1899 H 0.34722 0.28206 0.22352 0.0
H1900 H 0.3789 0.22413 0.27465 0.0
H1901 H 0.41775 0.22704 0.24709 0.0
C1902 C 0.42565 0.25549 0.20111 0.0
C1903 C 0.42698 0.27109 0.17728 0.0
C1904 C 0.40462 0.25559 0.21874 0.0
C1905 C 0.40743 0.28745 0.17189 0.0
C1906 C 0.38656 0.28773 0.18937 0.0
C1907 C 0.36284 0.27042 0.22905 0.0
C1908 C 0.36003 0.25279 0.25108 0.0
C1909 C 0.38476 0.27162 0.21261 0.0
C1910 C 0.38048 0.23782 0.25778 0.0
C1911 C 0.40264 0.23933 0.24189 0.0
H1912 H 0.54417 0.51313 0.34498 0.0
H1913 H 0.62124 0.49675 0.37892 0.0
H1914 H 0.60497 0.49063 0.4258 0.0
H1915 H 0.57009 0.49271 0.45806 0.0
H1916 H 0.49288 0.50889 0.42542 0.0
H1917 H 0.5077 0.51167 0.3769 0.0
C1918 C 0.55733 0.50807 0.36259 0.0
C1919 C 0.584 0.50577 0.35849 0.0
C1920 C 0.54782 0.50448 0.38967 0.0
C1921 C 0.60069 0.49885 0.38145 0.0
C1922 C 0.59143 0.49533 0.40833 0.0
C1923 C 0.55654 0.49684 0.4403 0.0
C1924 C 0.53069 0.50108 0.44526 0.0
C1925 C 0.56525 0.49858 0.4128 0.0
C1926 C 0.51293 0.50557 0.42199 0.0
C1927 C 0.52146 0.50735 0.39436 0.0
H1928 H 0.21269 0.79331 0.08331 0.0
H1929 H 0.29461 0.83723 0.0978 0.0
H1930 H 0.3062 0.80479 0.13092 0.0
H1931 H 0.2925 0.76658 0.15856 0.0
H1932 H 0.20991 0.72469 0.14793 0.0
H1933 H 0.19949 0.7529 0.10947 0.0
C1934 C 0.23311 0.79567 0.09359 0.0
C1935 C 0.25266 0.81784 0.08831 0.0
C1936 C 0.23962 0.77709 0.11298 0.0
C1937 C 0.27907 0.82054 0.10169 0.0
C1938 C 0.28578 0.8019 0.12053 0.0
C1939 C 0.27227 0.76324 0.14761 0.0
C1940 C 0.25195 0.7438 0.15649 0.0
C1941 C 0.26613 0.78041 0.12668 0.0
C1942 C 0.22596 0.73957 0.14164 0.0
C1943 C 0.21991 0.75591 0.11985 0.0
H1944 H 0.9848 0.52053 0.84441 0.0
H1945 H 0.9091 0.53753 0.86951 0.0
H1946 H 0.92629 0.5407 0.92041 0.0
H1947 H 0.96098 0.53414 0.95754 0.0
H1948 H 0.03765 0.51945 0.93368 0.0
H1949 H 0.02195 0.5199 0.88237 0.0
C1950 C 0.97223 0.52524 0.86106 0.0
C1951 C 0.94561 0.52834 0.85323 0.0
C1952 C 0.98228 0.5272 0.89039 0.0
C1953 C 0.92963 0.53491 0.87495 0.0
C1954 C 0.93937 0.53661 0.90408 0.0
C1955 C 0.97437 0.53141 0.94113 0.0
C1956 C 0.00024 0.52647 0.94916 0.0
C1957 C 0.96537 0.53207 0.91199 0.0
C1958 C 0.01758 0.52325 0.92784 0.0
C1959 C 0.00858 0.5234 0.89858 0.0
H1960 H 0.23594 0.19831 0.57754 0.0
H1961 H 0.2985 0.1495 0.5821 0.0
H1962 H 0.30932 0.16431 0.63364 0.0
H1963 H 0.30063 0.19021 0.67757 0.0
H1964 H 0.23913 0.24016 0.67362 0.0
H1965 H 0.22826 0.22576 0.62166 0.0
C1966 C 0.252 0.191 0.58979 0.0
C1967 C 0.26629 0.17273 0.57592 0.0
C1968 C 0.25823 0.19967 0.61954 0.0
C1969 C 0.28715 0.16357 0.59213 0.0
C1970 C 0.29333 0.17196 0.62167 0.0
C1971 C 0.28476 0.19789 0.6654 0.0
C1972 C 0.27054 0.21602 0.67947 0.0
C1973 C 0.27889 0.18981 0.63561 0.0
C1974 C 0.25032 0.22611 0.66328 0.0
C1975 C 0.24411 0.21788 0.63359 0.0
H1976 H 0.61775 0.52888 0.20565 0.0
H1977 H 0.54474 0.47684 0.2222 0.0
H1978 H 0.52521 0.47873 0.17256 0.0
H1979 H 0.53035 0.49229 0.12345 0.0
H1980 H 0.60495 0.5409 0.10635 0.0
H1981 H 0.62231 0.54365 0.15744 0.0
C1982 C 0.59745 0.51814 0.19854 0.0
C1983 C 0.58275 0.50264 0.21756 0.0
C1984 C 0.58666 0.51878 0.16989 0.0
C1985 C 0.55654 0.48877 0.20792 0.0
C1986 C 0.54535 0.48988 0.17957 0.0
C1987 C 0.55018 0.50395 0.13112 0.0
C1988 C 0.56636 0.51655 0.11138 0.0
C1989 C 0.5604 0.50446 0.16024 0.0
C1990 C 0.59221 0.53111 0.12129 0.0
C1991 C 0.60214 0.53258 0.15041 0.0
H1992 H 0.25969 0.78971 0.96822 0.0
H1993 H 0.2429 0.86712 0.94284 0.0
H1994 H 0.23871 0.84935 0.89206 0.0
H1995 H 0.24294 0.81351 0.85505 0.0
H1996 H 0.25916 0.73556 0.87876 0.0
H1997 H 0.26018 0.75181 0.93021 0.0
C1998 C 0.25499 0.80262 0.95156 0.0
C1999 C 0.25196 0.82984 0.95935 0.0
C2000 C 0.25254 0.79224 0.92222 0.0
C2001 C 0.24552 0.84619 0.93752 0.0
C2002 C 0.24313 0.83606 0.90844 0.0
C2003 C 0.2464 0.79988 0.87141 0.0
C2004 C 0.25121 0.77348 0.86318 0.0
C2005 C 0.24705 0.80935 0.9006 0.0
C2006 C 0.25538 0.75599 0.8846 0.0
C2007 C 0.25613 0.76535 0.91397 0.0
H2008 H 0.98065 0.53262 0.72712 0.0
H2009 H 0.90021 0.53458 0.6896 0.0
H2010 H 0.91485 0.53267 0.6412 0.0
H2011 H 0.94983 0.52913 0.60962 0.0
H2012 H 0.0297 0.52339 0.64559 0.0
H2013 H 0.01602 0.52801 0.69473 0.0
C2014 C 0.96649 0.53291 0.7083 0.0
C2015 C 0.93948 0.53392 0.71177 0.0
C2016 C 0.97488 0.53096 0.68042 0.0
C2017 C 0.9211 0.53379 0.68733 0.0
C2018 C 0.92944 0.5327 0.65971 0.0
C2019 C 0.96433 0.52907 0.62822 0.0
C2020 C 0.99074 0.52615 0.62417 0.0
C2021 C 0.95618 0.53107 0.65602 0.0
C2022 C 0.00921 0.52558 0.64833 0.0
C2023 C 0.00141 0.52829 0.67634 0.0
H2024 H 0.28966 0.1943 0.43521 0.0
H2025 H 0.20506 0.16668 0.40788 0.0
H2026 H 0.20879 0.19223 0.36573 0.0
H2027 H 0.2362 0.22041 0.33522 0.0
H2028 H 0.32027 0.25024 0.36254 0.0
H2029 H 0.31663 0.22602 0.4062 0.0
C2030 C 0.27204 0.19399 0.42008 0.0
C2031 C 0.24717 0.17831 0.4246 0.0
C2032 C 0.27424 0.20904 0.39585 0.0
C2033 C 0.22446 0.17845 0.40498 0.0
C2034 C 0.22656 0.19302 0.38077 0.0
C2035 C 0.25374 0.22165 0.35077 0.0
C2036 C 0.27856 0.23671 0.34554 0.0
C2037 C 0.25138 0.20803 0.37578 0.0
C2038 C 0.30097 0.23868 0.36612 0.0
C2039 C 0.29889 0.22476 0.39099 0.0
H2040 H 0.3286 0.56409 0.49003 0.0
H2041 H 0.34214 0.599 0.57941 0.0
H2042 H 0.3803 0.57587 0.58756 0.0
H2043 H 0.41225 0.54951 0.56839 0.0
H2044 H 0.40026 0.51571 0.47877 0.0
H2045 H 0.35872 0.53418 0.4718 0.0
C2046 C 0.33971 0.5664 0.51138 0.0
C2047 C 0.3327 0.58357 0.53398 0.0
C2048 C 0.36192 0.55328 0.51587 0.0
C2049 C 0.34723 0.58616 0.56154 0.0
C2050 C 0.36908 0.57293 0.56625 0.0
C2051 C 0.4004 0.54588 0.54738 0.0
C2052 C 0.40946 0.53153 0.52405 0.0
C2053 C 0.37697 0.55702 0.54342 0.0
C2054 C 0.39371 0.52669 0.49709 0.0
C2055 C 0.37006 0.53742 0.49305 0.0
H2056 H 0.85469 0.96864 0.5647 0.0
H2057 H 0.86486 0.88492 0.54484 0.0
H2058 H 0.91034 0.90066 0.53339 0.0
H2059 H 0.94697 0.93783 0.52817 0.0
H2060 H 0.93926 0.02172 0.55123 0.0
H2061 H 0.89311 0.00636 0.56209 0.0
C2062 C 0.86693 0.95393 0.55788 0.0
C2063 C 0.85636 0.92567 0.55554 0.0
C2064 C 0.89346 0.96312 0.55182 0.0
C2065 C 0.87251 0.90679 0.54696 0.0
C2066 C 0.89852 0.91575 0.54029 0.0
C2067 C 0.93529 0.95281 0.53571 0.0
C2068 C 0.94653 0.98087 0.53885 0.0
C2069 C 0.90916 0.94382 0.54255 0.0
C2070 C 0.93109 -4e-05 0.54873 0.0
C2071 C 0.90469 0.99119 0.55488 0.0
H2072 H 0.86495 0.09822 0.1996 0.0
H2073 H 0.83154 0.06455 0.27351 0.0
H2074 H 0.81013 0.10441 0.28215 0.0
H2075 H 0.80368 0.15044 0.27087 0.0
H2076 H 0.83904 0.18481 0.19838 0.0
H2077 H 0.85649 0.1429 0.18675 0.0
C2078 C 0.85282 0.09946 0.21748 0.0
C2079 C 0.85003 0.0785 0.23598 0.0
C2080 C 0.84085 0.12258 0.22255 0.0
C2081 C 0.8342 0.08048 0.25903 0.0
C2082 C 0.8219 0.10326 0.26398 0.0
C2083 C 0.81475 0.14849 0.2522 0.0
C2084 C 0.8201 0.17064 0.23552 0.0
C2085 C 0.82542 0.12463 0.24615 0.0
C2086 C 0.83476 0.16803 0.21161 0.0
C2087 C 0.84482 0.14413 0.205 0.0
H2088 H 0.69406 0.0786 0.08135 0.0
H2089 H 0.71466 0.08798 0.99439 0.0
H2090 H 0.66841 0.06979 0.9749 0.0
H2091 H 0.62149 0.0548 0.98255 0.0
H2092 H 0.60017 0.04366 0.06871 0.0
H2093 H 0.64734 0.05884 0.08854 0.0
C2094 C 0.68848 0.07632 0.05813 0.0
C2095 C 0.70778 0.08497 0.03945 0.0
C2096 C 0.66169 0.06578 0.04693 0.0
C2097 C 0.70027 0.08162 0.00935 0.0
C2098 C 0.67375 0.07132 0.99812 0.0
C2099 C 0.62723 0.05558 0.00567 0.0
C2100 C 0.60751 0.04858 0.02425 0.0
C2101 C 0.65423 0.06398 0.01674 0.0
C2102 C 0.61512 0.04908 0.05406 0.0
C2103 C 0.64203 0.05781 0.06536 0.0
H2104 H 0.22364 0.4451 0.33138 0.0
H2105 H 0.22569 0.45413 0.24024 0.0
H2106 H 0.25747 0.42274 0.23702 0.0
H2107 H 0.28158 0.38992 0.25886 0.0
H2108 H 0.2767 0.37731 0.3488 0.0
H2109 H 0.24974 0.41343 0.35394 0.0
C2110 C 0.23123 0.44036 0.31089 0.0
C2111 C 0.22213 0.45178 0.28604 0.0
C2112 C 0.24914 0.42179 0.30903 0.0
C2113 C 0.23211 0.44539 0.25963 0.0
C2114 C 0.25039 0.42753 0.25778 0.0
C2115 C 0.2752 0.3955 0.2798 0.0
C2116 C 0.28125 0.38105 0.30347 0.0
C2117 C 0.25869 0.41527 0.2822 0.0
C2118 C 0.27241 0.38825 0.3303 0.0
C2119 C 0.2568 0.40872 0.33317 0.0
H2120 H 0.18297 0.42872 0.99491 0.0
H2121 H 0.2227 0.46128 0.0797 0.0
H2122 H 0.1893 0.49087 0.0856 0.0
H2123 H 0.14733 0.5056 0.06753 0.0
H2124 H 0.10806 0.47226 0.98265 0.0
H2125 H 0.14293 0.44507 0.97594 0.0
C2126 C 0.18444 0.44233 0.01469 0.0
C2127 C 0.2052 0.4426 0.03692 0.0
C2128 C 0.16524 0.45921 0.01792 0.0
C2129 C 0.20688 0.4606 0.06226 0.0
C2130 C 0.18777 0.47751 0.06566 0.0
C2131 C 0.14662 0.49269 0.0474 0.0
C2132 C 0.12502 0.49096 0.02568 0.0
C2133 C 0.16668 0.47677 0.04373 0.0
C2134 C 0.12437 0.47399 -0.00021 0.0
C2135 C 0.14428 0.45833 0.99592 0.0
H2136 H 0.88066 0.90176 0.26181 0.0
H2137 H 0.81126 0.93727 0.23722 0.0
H2138 H 0.7816 0.89457 0.24419 0.0
H2139 H 0.77552 0.84744 0.2592 0.0
H2140 H 0.84587 0.81389 0.28561 0.0
H2141 H 0.87483 0.85542 0.27594 0.0
C2142 C 0.85905 0.90017 0.25775 0.0
C2143 C 0.84822 0.92268 0.24904 0.0
C2144 C 0.8422 0.87587 0.26229 0.0
C2145 C 0.82014 0.92024 0.24402 0.0
C2146 C 0.80316 0.89584 0.24803 0.0
C2147 C 0.79717 0.84925 0.26272 0.0
C2148 C 0.80841 0.82756 0.27323 0.0
C2149 C 0.81397 0.87357 0.25749 0.0
C2150 C 0.83656 0.83027 0.27775 0.0
C2151 C 0.85324 0.85403 0.27217 0.0
H2152 H 0.68906 0.07099 0.7702 0.0
H2153 H 0.6113 0.08695 0.73848 0.0
H2154 H 0.62768 0.13619 0.7483 0.0
H2155 H 0.66346 0.17467 0.76791 0.0
H2156 H 0.74186 0.15916 0.79762 0.0
H2157 H 0.72595 0.1098 0.78642 0.0
C2158 C 0.67578 0.08528 0.76536 0.0
C2159 C 0.64898 0.07538 0.75391 0.0
C2160 C 0.68541 0.11362 0.77074 0.0
C2161 C 0.63204 0.09408 0.74733 0.0
C2162 C 0.64135 0.12224 0.75301 0.0
C2163 C 0.67705 0.16046 0.77182 0.0
C2164 C 0.70366 0.17041 0.78381 0.0
C2165 C 0.66788 0.13222 0.76503 0.0
C2166 C 0.72125 0.1519 0.78838 0.0
C2167 C 0.71215 0.1237 0.78209 0.0
loop_
_geom_bond_atom_site_label_1
_geom_bond_atom_site_label_2
_geom_bond_distance
_geom_bond_site_symmetry_2
_ccdc_geom_bond_type
C0 O1 1.160 . S
C0 O7 1.185 . S
O1 C0 1.160 . S
O2 Zn3 1.899 . S
O2 C10 1.284 . S
Zn3 O2 1.899 . S
Zn3 O4 2.032 . S
Zn3 O7 2.086 . S
Zn3 O12 1.977 1_455 S
O4 Zn3 2.032 . S
O4 C8 1.278 . S
C5 O6 1.203 . S
C5 O12 1.267 . S
O6 C5 1.203 . S
O7 C0 1.185 . S
O7 Zn3 2.086 . S
C8 O4 1.278 . S
C8 O9 1.211 . S
O9 C8 1.211 . S
C10 O2 1.284 . S
C10 O11 1.273 . S
O11 C10 1.273 . S
O12 Zn3 1.977 1_655 S
O12 C5 1.267 . S
C13 O14 1.160 . S
C13 O20 1.185 . S
O14 C13 1.160 . S
O15 Zn16 1.899 . S
O15 C23 1.284 . S
Zn16 O15 1.899 . S
Zn16 O17 2.032 1_455 S
Zn16 O20 2.086 1_455 S
Zn16 O25 1.977 . S
O17 Zn16 2.032 1_655 S
O17 C21 1.278 1_655 S
C18 O19 1.203 . S
C18 O25 1.267 . S
O19 C18 1.203 . S
O20 C13 1.185 . S
O20 Zn16 2.086 1_655 S
C21 O17 1.278 1_455 S
C21 O22 1.211 . S
O22 C21 1.211 . S
C23 O15 1.284 . S
C23 O24 1.273 . S
O24 C23 1.273 . S
O25 Zn16 1.977 . S
O25 C18 1.267 . S
C26 O27 1.160 . S
C26 O33 1.185 . S
O27 C26 1.160 . S
O28 Zn29 1.899 . S
O28 C36 1.284 . S
Zn29 O28 1.899 . S
Zn29 O30 2.032 . S
Zn29 O33 2.086 . S
Zn29 O38 1.977 . S
O30 Zn29 2.032 . S
O30 C34 1.278 . S
C31 O32 1.203 . S
C31 O38 1.267 . S
O32 C31 1.203 . S
O33 C26 1.185 . S
O33 Zn29 2.086 . S
C34 O30 1.278 . S
C34 O35 1.211 . S
O35 C34 1.211 . S
C36 O28 1.284 . S
C36 O37 1.273 . S
O37 C36 1.273 . S
O38 Zn29 1.977 . S
O38 C31 1.267 . S
C39 O40 1.160 . S
C39 O46 1.185 . S
O40 C39 1.160 . S
O41 Zn42 1.899 . S
O41 C49 1.284 . S
Zn42 O41 1.899 . S
Zn42 O43 2.032 . S
Zn42 O46 2.086 . S
Zn42 O51 1.977 . S
O43 Zn42 2.032 . S
O43 C47 1.278 . S
C44 O45 1.203 . S
C44 O51 1.267 . S
O45 C44 1.203 . S
O46 C39 1.185 . S
O46 Zn42 2.086 . S
C47 O43 1.278 . S
C47 O48 1.211 . S
O48 C47 1.211 . S
C49 O41 1.284 . S
C49 O50 1.273 . S
O50 C49 1.273 . S
O51 Zn42 1.977 . S
O51 C44 1.267 . S
C52 O53 1.160 . S
C52 O59 1.185 1_655 S
O53 C52 1.160 . S
O54 Zn55 1.899 . S
O54 C62 1.284 . S
Zn55 O54 1.899 . S
Zn55 O56 2.032 . S
Zn55 O59 2.086 . S
Zn55 O64 1.977 . S
O56 Zn55 2.032 . S
O56 C60 1.278 . S
C57 O58 1.203 . S
C57 O64 1.267 . S
O58 C57 1.203 . S
O59 C52 1.185 1_455 S
O59 Zn55 2.086 . S
C60 O56 1.278 . S
C60 O61 1.211 . S
O61 C60 1.211 . S
C62 O54 1.284 . S
C62 O63 1.273 . S
O63 C62 1.273 . S
O64 Zn55 1.977 . S
O64 C57 1.267 . S
C65 O66 1.160 . S
C65 O72 1.185 . S
O66 C65 1.160 . S
O67 Zn68 1.899 . S
O67 C75 1.284 . S
Zn68 O67 1.899 . S
Zn68 O69 2.032 . S
Zn68 O72 2.086 . S
Zn68 O77 1.977 . S
O69 Zn68 2.032 . S
O69 C73 1.278 . S
C70 O71 1.203 . S
C70 O77 1.267 . S
O71 C70 1.203 . S
O72 C65 1.185 . S
O72 Zn68 2.086 . S
C73 O69 1.278 . S
C73 O74 1.211 . S
O74 C73 1.211 . S
C75 O67 1.284 . S
C75 O76 1.273 . S
O76 C75 1.273 . S
O77 Zn68 1.977 . S
O77 C70 1.267 . S
C78 O79 1.160 . S
C78 O85 1.185 . S
O79 C78 1.160 . S
O80 Zn81 1.899 . S
O80 C88 1.284 . S
Zn81 O80 1.899 . S
Zn81 O82 2.032 . S
Zn81 O85 2.086 . S
Zn81 O90 1.977 . S
O82 Zn81 2.032 . S
O82 C86 1.278 . S
C83 O84 1.203 . S
C83 O90 1.267 . S
O84 C83 1.203 . S
O85 C78 1.185 . S
O85 Zn81 2.086 . S
C86 O82 1.278 . S
C86 O87 1.211 . S
O87 C86 1.211 . S
C88 O80 1.284 . S
C88 O89 1.273 . S
O89 C88 1.273 . S
O90 Zn81 1.977 . S
O90 C83 1.267 . S
C91 O92 1.160 . S
C91 O98 1.185 . S
O92 C91 1.160 . S
O93 Zn94 1.898 . S
O93 C101 1.279 1_455 S
Zn94 O93 1.898 . S
Zn94 O95 2.032 . S
Zn94 O98 2.086 . S
Zn94 O103 1.977 1_455 S
O95 Zn94 2.032 . S
O95 C99 1.278 . S
C96 O97 1.203 . S
C96 O103 1.267 . S
O97 C96 1.203 . S
O98 C91 1.185 . S
O98 Zn94 2.086 . S
C99 O95 1.278 . S
C99 O100 1.211 1_455 S
O100 C99 1.211 1_655 S
C101 O93 1.279 1_655 S
C101 O102 1.273 . S
O102 C101 1.273 . S
O103 Zn94 1.977 1_655 S
O103 C96 1.267 . S
C104 O105 1.160 . S
C104 O111 1.185 . S
O105 C104 1.160 . S
O106 Zn107 1.899 . S
O106 C114 1.284 . S
Zn107 O106 1.899 . S
Zn107 O108 2.032 . S
Zn107 O111 2.086 . S
Zn107 O116 1.977 1_545 S
O108 Zn107 2.032 . S
O108 C112 1.278 . S
C109 O110 1.203 . S
C109 O116 1.267 . S
O110 C109 1.203 . S
O111 C104 1.185 . S
O111 Zn107 2.086 . S
C112 O108 1.278 . S
C112 O113 1.215 1_545 S
O113 C112 1.215 1_565 S
C114 O106 1.284 . S
C114 O115 1.273 . S
O115 C114 1.273 . S
O116 Zn107 1.977 1_565 S
O116 C109 1.267 . S
C117 O118 1.160 . S
C117 O124 1.185 . S
O118 C117 1.160 . S
O119 Zn120 1.899 . S
O119 C127 1.284 . S
Zn120 O119 1.899 . S
Zn120 O121 2.032 . S
Zn120 O124 2.086 . S
Zn120 O129 1.977 . S
O121 Zn120 2.032 . S
O121 C125 1.278 . S
C122 O123 1.203 . S
C122 O129 1.267 . S
O123 C122 1.203 . S
O124 C117 1.185 . S
O124 Zn120 2.086 . S
C125 O121 1.278 . S
C125 O126 1.211 . S
O126 C125 1.211 . S
C127 O119 1.284 . S
C127 O128 1.273 . S
O128 C127 1.273 . S
O129 Zn120 1.977 . S
O129 C122 1.267 . S
C130 O131 1.160 . S
C130 O137 1.185 . S
O131 C130 1.160 . S
O132 Zn133 1.899 . S
O132 C140 1.284 . S
Zn133 O132 1.899 . S
Zn133 O134 2.043 . S
Zn133 O137 2.086 1_545 S
Zn133 O142 1.977 . S
O134 Zn133 2.043 . S
O134 C138 1.307 . S
C135 O136 1.203 . S
C135 O142 1.267 . S
O136 C135 1.203 . S
O137 C130 1.185 . S
O137 Zn133 2.086 1_565 S
C138 O134 1.307 . S
C138 O139 1.211 . S
O139 C138 1.211 . S
C140 O132 1.284 . S
C140 O141 1.273 . S
O141 C140 1.273 . S
O142 Zn133 1.977 . S
O142 C135 1.267 . S
C143 O144 1.160 . S
C143 O150 1.185 . S
O144 C143 1.160 . S
O145 Zn146 1.899 . S
O145 C153 1.284 . S
Zn146 O145 1.899 . S
Zn146 O147 2.032 1_554 S
Zn146 O150 2.086 . S
Zn146 O155 1.977 . S
O147 Zn146 2.032 1_556 S
O147 C151 1.278 . S
C148 O149 1.203 . S
C148 O155 1.267 . S
O149 C148 1.203 . S
O150 C143 1.185 . S
O150 Zn146 2.086 . S
C151 O147 1.278 . S
C151 O152 1.211 . S
O152 C151 1.211 . S
C153 O145 1.284 . S
C153 O154 1.273 . S
O154 C153 1.273 . S
O155 Zn146 1.977 . S
O155 C148 1.267 . S
C156 O157 1.160 . S
C156 O163 1.185 . S
O157 C156 1.160 . S
O158 Zn159 1.899 . S
O158 C166 1.284 . S
Zn159 O158 1.899 . S
Zn159 O160 2.032 . S
Zn159 O163 2.086 . S
Zn159 O168 1.977 . S
O160 Zn159 2.032 . S
O160 C164 1.278 . S
C161 O162 1.203 . S
C161 O168 1.267 . S
O162 C161 1.203 . S
O163 C156 1.185 . S
O163 Zn159 2.086 . S
C164 O160 1.278 . S
C164 O165 1.211 . S
O165 C164 1.211 . S
C166 O158 1.284 . S
C166 O167 1.273 . S
O167 C166 1.273 . S
O168 Zn159 1.977 . S
O168 C161 1.267 . S
C169 O170 1.160 . S
C169 O176 1.185 . S
O170 C169 1.160 . S
O171 Zn172 1.899 . S
O171 C179 1.284 . S
Zn172 O171 1.899 . S
Zn172 O173 2.032 . S
Zn172 O176 2.086 . S
Zn172 O181 1.977 . S
O173 Zn172 2.032 . S
O173 C177 1.278 1_554 S
C174 O175 1.203 . S
C174 O181 1.267 . S
O175 C174 1.203 . S
O176 C169 1.185 . S
O176 Zn172 2.086 . S
C177 O173 1.278 1_556 S
C177 O178 1.211 . S
O178 C177 1.211 . S
C179 O171 1.284 . S
C179 O180 1.273 . S
O180 C179 1.273 . S
O181 Zn172 1.977 . S
O181 C174 1.267 . S
C182 O183 1.160 . S
C182 O189 1.185 . S
O183 C182 1.160 . S
O184 Zn185 1.899 . S
O184 C192 1.284 . S
Zn185 O184 1.899 . S
Zn185 O186 2.032 . S
Zn185 O189 2.086 . S
Zn185 O194 1.977 . S
O186 Zn185 2.032 . S
O186 C190 1.278 . S
C187 O188 1.203 . S
C187 O194 1.267 . S
O188 C187 1.203 . S
O189 C182 1.185 . S
O189 Zn185 2.086 . S
C190 O186 1.278 . S
C190 O191 1.211 . S
O191 C190 1.211 . S
C192 O184 1.284 . S
C192 O193 1.273 . S
O193 C192 1.273 . S
O194 Zn185 1.977 . S
O194 C187 1.267 . S
C195 O196 1.160 . S
C195 O202 1.185 . S
O196 C195 1.160 . S
O197 Zn198 1.899 . S
O197 C205 1.284 . S
Zn198 O197 1.899 . S
Zn198 O199 2.032 . S
Zn198 O202 2.086 . S
Zn198 O207 1.977 . S
O199 Zn198 2.032 . S
O199 C203 1.278 . S
C200 O201 1.203 . S
C200 O207 1.267 . S
O201 C200 1.203 . S
O202 C195 1.185 . S
O202 Zn198 2.086 . S
C203 O199 1.278 . S
C203 O204 1.211 . S
O204 C203 1.211 . S
C205 O197 1.284 . S
C205 O206 1.273 . S
O206 C205 1.273 . S
O207 Zn198 1.977 . S
O207 C200 1.267 . S
C208 O209 1.160 . S
C208 O215 1.185 . S
O209 C208 1.160 . S
O210 Zn211 1.899 . S
O210 C218 1.284 . S
Zn211 O210 1.899 . S
Zn211 O212 2.032 . S
Zn211 O215 2.086 . S
Zn211 O220 1.977 1_545 S
O212 Zn211 2.032 . S
O212 C216 1.278 . S
C213 O214 1.203 . S
C213 O220 1.267 . S
O214 C213 1.203 . S
O215 C208 1.185 . S
O215 Zn211 2.086 . S
C216 O212 1.278 . S
C216 O217 1.211 1_545 S
O217 C216 1.211 1_565 S
C218 O210 1.284 . S
C218 O219 1.273 . S
O219 C218 1.273 . S
O220 Zn211 1.977 1_565 S
O220 C213 1.267 . S
C221 O222 1.160 . S
C221 O228 1.185 . S
O222 C221 1.160 . S
O223 Zn224 1.899 . S
O223 C231 1.284 . S
Zn224 O223 1.899 . S
Zn224 O225 2.032 . S
Zn224 O228 2.086 . S
Zn224 O233 1.977 . S
O225 Zn224 2.032 . S
O225 C229 1.278 . S
C226 O227 1.203 . S
C226 O233 1.267 . S
O227 C226 1.203 . S
O228 C221 1.185 . S
O228 Zn224 2.086 . S
C229 O225 1.278 . S
C229 O230 1.211 . S
O230 C229 1.211 . S
C231 O223 1.284 . S
C231 O232 1.273 . S
O232 C231 1.273 . S
O233 Zn224 1.977 . S
O233 C226 1.267 . S
C234 O235 1.160 . S
C234 O241 1.185 . S
O235 C234 1.160 . S
O236 Zn237 1.899 . S
O236 C244 1.284 . S
Zn237 O236 1.899 . S
Zn237 O238 2.032 . S
Zn237 O241 2.086 . S
Zn237 O246 1.977 . S
O238 Zn237 2.032 . S
O238 C242 1.278 . S
C239 O240 1.203 . S
C239 O246 1.267 . S
O240 C239 1.203 . S
O241 C234 1.185 . S
O241 Zn237 2.086 . S
C242 O238 1.278 . S
C242 O243 1.211 . S
O243 C242 1.211 . S
C244 O236 1.284 . S
C244 O245 1.273 . S
O245 C244 1.273 . S
O246 Zn237 1.977 . S
O246 C239 1.267 . S
C247 O248 1.160 . S
C247 O254 1.185 . S
O248 C247 1.160 . S
O249 Zn250 1.899 . S
O249 C257 1.284 . S
Zn250 O249 1.899 . S
Zn250 O251 2.032 . S
Zn250 O254 2.086 . S
Zn250 O259 1.977 1_565 S
O251 Zn250 2.032 . S
O251 C255 1.278 1_565 S
C252 O253 1.203 . S
C252 O259 1.267 . S
O253 C252 1.203 . S
O254 C247 1.185 . S
O254 Zn250 2.086 . S
C255 O251 1.278 1_545 S
C255 O256 1.211 . S
O256 C255 1.211 . S
C257 O249 1.284 . S
C257 O258 1.273 1_565 S
O258 C257 1.273 1_545 S
O259 Zn250 1.977 1_545 S
O259 C252 1.267 . S
C260 O261 1.160 . S
C260 O267 1.185 1_554 S
O261 C260 1.160 . S
O262 Zn263 1.899 . S
O262 C270 1.284 . S
Zn263 O262 1.899 . S
Zn263 O264 2.032 1_554 S
Zn263 O267 2.086 1_554 S
Zn263 O272 1.977 1_554 S
O264 Zn263 2.032 1_556 S
O264 C268 1.278 . S
C265 O266 1.194 1_556 S
C265 O272 1.273 . S
O266 C265 1.194 1_554 S
O267 C260 1.185 1_556 S
O267 Zn263 2.086 1_556 S
C268 O264 1.278 . S
C268 O269 1.211 . S
O269 C268 1.211 . S
C270 O262 1.284 . S
C270 O271 1.273 . S
O271 C270 1.273 . S
O272 Zn263 1.977 1_556 S
O272 C265 1.273 . S
C273 O274 1.160 . S
C273 O280 1.185 . S
O274 C273 1.160 . S
O275 Zn276 1.899 . S
O275 C283 1.284 . S
Zn276 O275 1.899 . S
Zn276 O277 2.032 . S
Zn276 O280 2.086 . S
Zn276 O285 1.977 . S
O277 Zn276 2.032 . S
O277 C281 1.278 . S
C278 O279 1.203 . S
C278 O285 1.267 . S
O279 C278 1.203 . S
O280 C273 1.185 . S
O280 Zn276 2.086 . S
C281 O277 1.278 . S
C281 O282 1.211 . S
O282 C281 1.211 . S
C283 O275 1.284 . S
C283 O284 1.273 . S
O284 C283 1.273 . S
O285 Zn276 1.977 . S
O285 C278 1.267 . S
C286 O287 1.160 . S
C286 O293 1.185 . S
O287 C286 1.160 . S
O288 Zn289 1.899 . S
O288 C296 1.284 . S
Zn289 O288 1.899 . S
Zn289 O290 2.032 . S
Zn289 O293 2.086 . S
Zn289 O298 1.977 . S
O290 Zn289 2.032 . S
O290 C294 1.278 . S
C291 O292 1.203 . S
C291 O298 1.267 . S
O292 C291 1.203 . S
O293 C286 1.185 . S
O293 Zn289 2.086 . S
C294 O290 1.278 . S
C294 O295 1.211 . S
O295 C294 1.211 . S
C296 O288 1.284 . S
C296 O297 1.273 . S
O297 C296 1.273 . S
O298 Zn289 1.977 . S
O298 C291 1.267 . S
C299 O300 1.160 . S
C299 O306 1.185 . S
O300 C299 1.160 . S
O301 Zn302 1.899 . S
O301 C309 1.284 . S
Zn302 O301 1.899 . S
Zn302 O303 2.032 . S
Zn302 O306 2.086 . S
Zn302 O311 1.977 . S
O303 Zn302 2.032 . S
O303 C307 1.278 . S
C304 O305 1.203 . S
C304 O311 1.267 . S
O305 C304 1.203 . S
O306 C299 1.185 . S
O306 Zn302 2.086 . S
C307 O303 1.278 . S
C307 O308 1.211 . S
O308 C307 1.211 . S
C309 O301 1.284 . S
C309 O310 1.273 . S
O310 C309 1.273 . S
O311 Zn302 1.977 . S
O311 C304 1.267 . S
Zn312 O318 1.969 . S
Zn312 O319 1.965 1_565 S
Zn312 O323 2.024 . S
Zn312 O328 1.969 . S
Zn313 O320 1.969 1_654 S
Zn313 O326 1.969 1_554 S
Zn313 O327 1.965 . S
Zn313 O329 2.024 1_655 S
C314 O315 1.229 . S
C314 O323 1.058 . S
O315 C314 1.229 . S
C316 O317 1.229 1_454 S
C316 O329 1.058 . S
O317 C316 1.229 1_656 S
O318 Zn312 1.969 . S
O318 C321 1.267 . S
O319 Zn312 1.965 1_545 S
O319 C330 1.260 1_554 S
O320 Zn313 1.969 1_456 S
O320 C330 1.258 . S
C321 O318 1.267 . S
C321 O322 1.228 . S
O322 C321 1.228 . S
O323 Zn312 2.024 . S
O323 C314 1.058 . S
C324 O325 1.228 . S
C324 O326 1.267 1_554 S
O325 C324 1.228 . S
O326 Zn313 1.969 1_556 S
O326 C324 1.267 1_556 S
O327 Zn313 1.965 . S
O327 C331 1.260 1_655 S
O328 Zn312 1.969 . S
O328 C331 1.258 1_565 S
O329 Zn313 2.024 1_455 S
O329 C316 1.058 . S
C330 O319 1.260 1_556 S
C330 O320 1.258 . S
C331 O327 1.260 1_455 S
C331 O328 1.258 1_545 S
Zn332 O338 1.969 . S
Zn332 O339 1.965 . S
Zn332 O343 2.024 . S
Zn332 O348 1.969 . S
Zn333 O340 1.969 . S
Zn333 O346 1.969 . S
Zn333 O347 1.965 . S
Zn333 O349 2.024 . S
C334 O335 1.229 . S
C334 O343 1.058 . S
O335 C334 1.229 . S
C336 O337 1.229 . S
C336 O349 1.058 . S
O337 C336 1.229 . S
O338 Zn332 1.969 . S
O338 C341 1.267 . S
O339 Zn332 1.965 . S
O339 C350 1.260 . S
O340 Zn333 1.969 . S
O340 C350 1.258 . S
C341 O338 1.267 . S
C341 O342 1.228 . S
O342 C341 1.228 . S
O343 Zn332 2.024 . S
O343 C334 1.058 . S
C344 O345 1.228 . S
C344 O346 1.267 . S
O345 C344 1.228 . S
O346 Zn333 1.969 . S
O346 C344 1.267 . S
O347 Zn333 1.965 . S
O347 C351 1.260 . S
O348 Zn332 1.969 . S
O348 C351 1.258 . S
O349 Zn333 2.024 . S
O349 C336 1.058 . S
C350 O339 1.260 . S
C350 O340 1.258 . S
C351 O347 1.260 . S
C351 O348 1.258 . S
Zn352 O358 1.969 . S
Zn352 O359 1.965 . S
Zn352 O363 2.024 . S
Zn352 O368 1.969 . S
Zn353 O360 1.963 1_565 S
Zn353 O366 1.969 . S
Zn353 O367 1.965 1_565 S
Zn353 O369 2.024 . S
C354 O355 1.229 . S
C354 O363 1.058 . S
O355 C354 1.229 . S
C356 O357 1.229 . S
C356 O369 1.058 . S
O357 C356 1.229 . S
O358 Zn352 1.969 . S
O358 C361 1.267 . S
O359 Zn352 1.965 . S
O359 C370 1.260 . S
O360 Zn353 1.963 1_545 S
O360 C370 1.266 . S
C361 O358 1.267 . S
C361 O362 1.228 . S
O362 C361 1.228 . S
O363 Zn352 2.024 . S
O363 C354 1.058 . S
C364 O365 1.228 . S
C364 O366 1.267 . S
O365 C364 1.228 . S
O366 Zn353 1.969 . S
O366 C364 1.267 . S
O367 Zn353 1.965 1_545 S
O367 C371 1.260 . S
O368 Zn352 1.969 . S
O368 C371 1.258 . S
O369 Zn353 2.024 . S
O369 C356 1.058 . S
C370 O359 1.260 . S
C370 O360 1.266 . S
C371 O367 1.260 . S
C371 O368 1.258 . S
Zn372 O378 1.969 . S
Zn372 O379 1.965 . S
Zn372 O383 2.024 . S
Zn372 O388 1.969 . S
Zn373 O380 1.969 . S
Zn373 O386 1.969 . S
Zn373 O387 1.965 . S
Zn373 O389 2.024 . S
C374 O375 1.229 . S
C374 O383 1.058 . S
O375 C374 1.229 . S
C376 O377 1.229 . S
C376 O389 1.058 . S
O377 C376 1.229 . S
O378 Zn372 1.969 . S
O378 C381 1.267 . S
O379 Zn372 1.965 . S
O379 C390 1.260 . S
O380 Zn373 1.969 . S
O380 C390 1.258 . S
C381 O378 1.267 . S
C381 O382 1.228 . S
O382 C381 1.228 . S
O383 Zn372 2.024 . S
O383 C374 1.058 . S
C384 O385 1.228 . S
C384 O386 1.267 . S
O385 C384 1.228 . S
O386 Zn373 1.969 . S
O386 C384 1.267 . S
O387 Zn373 1.965 . S
O387 C391 1.260 . S
O388 Zn372 1.969 . S
O388 C391 1.258 . S
O389 Zn373 2.024 . S
O389 C376 1.058 . S
C390 O379 1.260 . S
C390 O380 1.258 . S
C391 O387 1.260 . S
C391 O388 1.258 . S
Zn392 O398 1.969 . S
Zn392 O399 1.965 1_455 S
Zn392 O403 2.024 1_565 S
Zn392 O408 1.969 1_565 S
Zn393 O400 1.969 1_455 S
Zn393 O406 1.969 1_455 S
Zn393 O407 1.965 . S
Zn393 O409 2.024 . S
C394 O395 1.229 1_545 S
C394 O403 1.058 . S
O395 C394 1.229 1_565 S
C396 O397 1.229 . S
C396 O409 1.058 1_655 S
O397 C396 1.229 . S
O398 Zn392 1.969 . S
O398 C401 1.267 . S
O399 Zn392 1.965 1_655 S
O399 C410 1.272 . S
O400 Zn393 1.969 1_655 S
O400 C410 1.242 1_545 S
C401 O398 1.267 . S
C401 O402 1.228 . S
O402 C401 1.228 . S
O403 Zn392 2.024 1_545 S
O403 C394 1.058 . S
C404 O405 1.228 . S
C404 O406 1.267 1_455 S
O405 C404 1.228 . S
O406 Zn393 1.969 1_655 S
O406 C404 1.267 1_655 S
O407 Zn393 1.965 . S
O407 C411 1.260 . S
O408 Zn392 1.969 1_545 S
O408 C411 1.258 . S
O409 Zn393 2.024 . S
O409 C396 1.058 1_455 S
C410 O399 1.272 . S
C410 O400 1.242 1_565 S
C411 O407 1.260 . S
C411 O408 1.258 . S
Zn412 O418 1.969 . S
Zn412 O419 1.965 . S
Zn412 O423 2.024 . S
Zn412 O428 1.969 . S
Zn413 O420 1.969 . S
Zn413 O426 1.969 . S
Zn413 O427 1.965 . S
Zn413 O429 2.024 . S
C414 O415 1.229 . S
C414 O423 1.058 . S
O415 C414 1.229 . S
C416 O417 1.229 . S
C416 O429 1.058 . S
O417 C416 1.229 . S
O418 Zn412 1.969 . S
O418 C421 1.267 . S
O419 Zn412 1.965 . S
O419 C430 1.260 . S
O420 Zn413 1.969 . S
O420 C430 1.258 . S
C421 O418 1.267 . S
C421 O422 1.228 . S
O422 C421 1.228 . S
O423 Zn412 2.024 . S
O423 C414 1.058 . S
C424 O425 1.228 . S
C424 O426 1.267 . S
O425 C424 1.228 . S
O426 Zn413 1.969 . S
O426 C424 1.267 . S
O427 Zn413 1.965 . S
O427 C431 1.260 . S
O428 Zn412 1.969 . S
O428 C431 1.258 . S
O429 Zn413 2.024 . S
O429 C416 1.058 . S
C430 O419 1.260 . S
C430 O420 1.258 . S
C431 O427 1.260 . S
C431 O428 1.258 . S
Zn432 O438 1.969 1_554 S
Zn432 O439 1.965 1_545 S
Zn432 O443 2.024 . S
Zn432 O448 1.969 . S
Zn433 O440 1.969 . S
Zn433 O446 1.969 . S
Zn433 O447 1.965 1_565 S
Zn433 O449 2.024 . S
C434 O435 1.229 . S
C434 O443 1.058 . S
O435 C434 1.229 . S
C436 O437 1.229 . S
C436 O449 1.058 . S
O437 C436 1.229 . S
O438 Zn432 1.969 1_556 S
O438 C441 1.267 . S
O439 Zn432 1.965 1_565 S
O439 C450 1.260 . S
O440 Zn433 1.969 . S
O440 C450 1.258 . S
C441 O438 1.267 . S
C441 O442 1.228 . S
O442 C441 1.228 . S
O443 Zn432 2.024 . S
O443 C434 1.058 . S
C444 O445 1.228 1_565 S
C444 O446 1.267 . S
O445 C444 1.228 1_545 S
O446 Zn433 1.969 . S
O446 C444 1.267 . S
O447 Zn433 1.965 1_545 S
O447 C451 1.260 . S
O448 Zn432 1.969 . S
O448 C451 1.258 . S
O449 Zn433 2.024 . S
O449 C436 1.058 . S
C450 O439 1.260 . S
C450 O440 1.258 . S
C451 O447 1.260 . S
C451 O448 1.258 . S
Zn452 O458 1.969 . S
Zn452 O459 1.965 . S
Zn452 O463 2.024 . S
Zn452 O468 1.969 . S
Zn453 O460 1.969 . S
Zn453 O466 1.969 . S
Zn453 O467 1.965 . S
Zn453 O469 2.024 . S
C454 O455 1.229 . S
C454 O463 1.058 . S
O455 C454 1.229 . S
C456 O457 1.229 . S
C456 O469 1.058 . S
O457 C456 1.229 . S
O458 Zn452 1.969 . S
O458 C461 1.267 . S
O459 Zn452 1.965 . S
O459 C470 1.260 . S
O460 Zn453 1.969 . S
O460 C470 1.258 . S
C461 O458 1.267 . S
C461 O462 1.228 . S
O462 C461 1.228 . S
O463 Zn452 2.024 . S
O463 C454 1.058 . S
C464 O465 1.228 . S
C464 O466 1.267 . S
O465 C464 1.228 . S
O466 Zn453 1.969 . S
O466 C464 1.267 . S
O467 Zn453 1.965 . S
O467 C471 1.260 . S
O468 Zn452 1.969 . S
O468 C471 1.258 . S
O469 Zn453 2.024 . S
O469 C456 1.058 . S
C470 O459 1.260 . S
C470 O460 1.258 . S
C471 O467 1.260 . S
C471 O468 1.258 . S
Zn472 O478 1.969 . S
Zn472 O479 1.965 . S
Zn472 O483 2.024 . S
Zn472 O488 1.969 . S
Zn473 O480 1.969 1_556 S
Zn473 O486 1.969 1_556 S
Zn473 O487 1.965 1_556 S
Zn473 O489 2.024 . S
C474 O475 1.229 . S
C474 O483 1.058 . S
O475 C474 1.229 . S
C476 O477 1.229 . S
C476 O489 1.058 . S
O477 C476 1.229 . S
O478 Zn472 1.969 . S
O478 C481 1.267 . S
O479 Zn472 1.965 . S
O479 C490 1.260 . S
O480 Zn473 1.969 1_554 S
O480 C490 1.258 . S
C481 O478 1.267 . S
C481 O482 1.228 . S
O482 C481 1.228 . S
O483 Zn472 2.024 . S
O483 C474 1.058 . S
C484 O485 1.228 . S
C484 O486 1.267 1_556 S
O485 C484 1.228 . S
O486 Zn473 1.969 1_554 S
O486 C484 1.267 1_554 S
O487 Zn473 1.965 1_554 S
O487 C491 1.260 . S
O488 Zn472 1.969 . S
O488 C491 1.258 . S
O489 Zn473 2.024 . S
O489 C476 1.058 . S
C490 O479 1.260 . S
C490 O480 1.258 . S
C491 O487 1.260 . S
C491 O488 1.258 . S
Zn492 O498 1.969 . S
Zn492 O499 1.965 . S
Zn492 O503 2.024 . S
Zn492 O508 1.969 . S
Zn493 O500 1.969 . S
Zn493 O506 1.969 . S
Zn493 O507 1.965 . S
Zn493 O509 2.024 . S
C494 O495 1.229 . S
C494 O503 1.058 . S
O495 C494 1.229 . S
C496 O497 1.229 . S
C496 O509 1.058 . S
O497 C496 1.229 . S
O498 Zn492 1.969 . S
O498 C501 1.267 . S
O499 Zn492 1.965 . S
O499 C510 1.260 . S
O500 Zn493 1.969 . S
O500 C510 1.258 . S
C501 O498 1.267 . S
C501 O502 1.228 . S
O502 C501 1.228 . S
O503 Zn492 2.024 . S
O503 C494 1.058 . S
C504 O505 1.228 . S
C504 O506 1.267 . S
O505 C504 1.228 . S
O506 Zn493 1.969 . S
O506 C504 1.267 . S
O507 Zn493 1.965 . S
O507 C511 1.260 . S
O508 Zn492 1.969 . S
O508 C511 1.258 . S
O509 Zn493 2.024 . S
O509 C496 1.058 . S
C510 O499 1.260 . S
C510 O500 1.258 . S
C511 O507 1.260 . S
C511 O508 1.258 . S
Zn512 O518 1.969 . S
Zn512 O519 1.965 . S
Zn512 O523 2.024 . S
Zn512 O528 1.969 . S
Zn513 O520 1.969 1_655 S
Zn513 O526 1.969 . S
Zn513 O527 1.965 1_655 S
Zn513 O529 2.024 . S
C514 O515 1.229 . S
C514 O523 1.058 . S
O515 C514 1.229 . S
C516 O517 1.229 . S
C516 O529 1.058 . S
O517 C516 1.229 . S
O518 Zn512 1.969 . S
O518 C521 1.267 . S
O519 Zn512 1.965 . S
O519 C530 1.260 . S
O520 Zn513 1.969 1_455 S
O520 C530 1.258 . S
C521 O518 1.267 . S
C521 O522 1.228 . S
O522 C521 1.228 . S
O523 Zn512 2.024 . S
O523 C514 1.058 . S
C524 O525 1.228 . S
C524 O526 1.267 . S
O525 C524 1.228 . S
O526 Zn513 1.969 . S
O526 C524 1.267 . S
O527 Zn513 1.965 1_455 S
O527 C531 1.260 . S
O528 Zn512 1.969 . S
O528 C531 1.258 . S
O529 Zn513 2.024 . S
O529 C516 1.058 . S
C530 O519 1.260 . S
C530 O520 1.258 . S
C531 O527 1.260 . S
C531 O528 1.258 . S
Zn532 O538 1.969 . S
Zn532 O539 1.965 . S
Zn532 O543 2.024 . S
Zn532 O548 1.969 . S
Zn533 O540 1.969 . S
Zn533 O546 1.969 . S
Zn533 O547 1.965 . S
Zn533 O549 2.024 . S
C534 O535 1.229 . S
C534 O543 1.058 . S
O535 C534 1.229 . S
C536 O537 1.229 . S
C536 O549 1.058 . S
O537 C536 1.229 . S
O538 Zn532 1.969 . S
O538 C541 1.267 . S
O539 Zn532 1.965 . S
O539 C550 1.260 . S
O540 Zn533 1.969 . S
O540 C550 1.258 . S
C541 O538 1.267 . S
C541 O542 1.228 . S
O542 C541 1.228 . S
O543 Zn532 2.024 . S
O543 C534 1.058 . S
C544 O545 1.228 . S
C544 O546 1.267 . S
O545 C544 1.228 . S
O546 Zn533 1.969 . S
O546 C544 1.267 . S
O547 Zn533 1.965 . S
O547 C551 1.260 . S
O548 Zn532 1.969 . S
O548 C551 1.258 . S
O549 Zn533 2.024 . S
O549 C536 1.058 . S
C550 O539 1.260 . S
C550 O540 1.258 . S
C551 O547 1.260 . S
C551 O548 1.258 . S
Zn552 O558 1.969 . S
Zn552 O559 1.965 . S
Zn552 O563 2.024 . S
Zn552 O568 1.969 . S
Zn553 O560 1.969 . S
Zn553 O566 1.969 . S
Zn553 O567 1.965 . S
Zn553 O569 2.024 . S
C554 O555 1.229 . S
C554 O563 1.058 . S
O555 C554 1.229 . S
C556 O557 1.229 . S
C556 O569 1.058 . S
O557 C556 1.229 . S
O558 Zn552 1.969 . S
O558 C561 1.267 . S
O559 Zn552 1.965 . S
O559 C570 1.260 . S
O560 Zn553 1.969 . S
O560 C570 1.258 . S
C561 O558 1.267 . S
C561 O562 1.228 . S
O562 C561 1.228 . S
O563 Zn552 2.024 . S
O563 C554 1.058 . S
C564 O565 1.228 . S
C564 O566 1.267 . S
O565 C564 1.228 . S
O566 Zn553 1.969 . S
O566 C564 1.267 . S
O567 Zn553 1.965 . S
O567 C571 1.260 . S
O568 Zn552 1.969 . S
O568 C571 1.258 . S
O569 Zn553 2.024 . S
O569 C556 1.058 . S
C570 O559 1.260 . S
C570 O560 1.258 . S
C571 O567 1.260 . S
C571 O568 1.258 . S
Zn572 O578 1.969 . S
Zn572 O579 1.965 . S
Zn572 O583 2.024 . S
Zn572 O588 1.969 . S
Zn573 O580 1.969 . S
Zn573 O586 1.969 . S
Zn573 O587 1.965 . S
Zn573 O589 2.024 . S
C574 O575 1.229 . S
C574 O583 1.058 . S
O575 C574 1.229 . S
C576 O577 1.229 . S
C576 O589 1.058 . S
O577 C576 1.229 . S
O578 Zn572 1.969 . S
O578 C581 1.267 . S
O579 Zn572 1.965 . S
O579 C590 1.260 . S
O580 Zn573 1.969 . S
O580 C590 1.258 . S
C581 O578 1.267 . S
C581 O582 1.228 . S
O582 C581 1.228 . S
O583 Zn572 2.024 . S
O583 C574 1.058 . S
C584 O585 1.228 . S
C584 O586 1.267 . S
O585 C584 1.228 . S
O586 Zn573 1.969 . S
O586 C584 1.267 . S
O587 Zn573 1.965 . S
O587 C591 1.260 . S
O588 Zn572 1.969 . S
O588 C591 1.258 . S
O589 Zn573 2.024 . S
O589 C576 1.058 . S
C590 O579 1.260 . S
C590 O580 1.258 . S
C591 O587 1.260 . S
C591 O588 1.258 . S
Zn592 O598 1.969 . S
Zn592 O599 1.965 . S
Zn592 O603 2.024 . S
Zn592 O608 1.969 . S
Zn593 O600 1.969 . S
Zn593 O606 1.969 . S
Zn593 O607 1.965 . S
Zn593 O609 2.024 . S
C594 O595 1.229 . S
C594 O603 1.058 . S
O595 C594 1.229 . S
C596 O597 1.229 . S
C596 O609 1.058 . S
O597 C596 1.229 . S
O598 Zn592 1.969 . S
O598 C601 1.267 . S
O599 Zn592 1.965 . S
O599 C610 1.260 . S
O600 Zn593 1.969 . S
O600 C610 1.258 . S
C601 O598 1.267 . S
C601 O602 1.228 . S
O602 C601 1.228 . S
O603 Zn592 2.024 . S
O603 C594 1.058 . S
C604 O605 1.228 . S
C604 O606 1.267 . S
O605 C604 1.228 . S
O606 Zn593 1.969 . S
O606 C604 1.267 . S
O607 Zn593 1.965 . S
O607 C611 1.260 . S
O608 Zn592 1.969 . S
O608 C611 1.258 . S
O609 Zn593 2.024 . S
O609 C596 1.058 . S
C610 O599 1.260 . S
C610 O600 1.258 . S
C611 O607 1.260 . S
C611 O608 1.258 . S
Zn612 O618 1.969 . S
Zn612 O619 1.965 . S
Zn612 O623 2.024 1_655 S
Zn612 O628 1.969 1_655 S
Zn613 O620 1.969 1_554 S
Zn613 O626 1.969 1_554 S
Zn613 O627 1.965 . S
Zn613 O629 2.024 . S
C614 O615 1.229 . S
C614 O623 1.058 . S
O615 C614 1.229 . S
C616 O617 1.229 . S
C616 O629 1.058 1_556 S
O617 C616 1.229 . S
O618 Zn612 1.969 . S
O618 C621 1.267 . S
O619 Zn612 1.965 . S
O619 C630 1.260 1_654 S
O620 Zn613 1.969 1_556 S
O620 C630 1.258 . S
C621 O618 1.267 . S
C621 O622 1.228 . S
O622 C621 1.228 . S
O623 Zn612 2.024 1_455 S
O623 C614 1.058 . S
C624 O625 1.228 . S
C624 O626 1.267 1_554 S
O625 C624 1.228 . S
O626 Zn613 1.969 1_556 S
O626 C624 1.267 1_556 S
O627 Zn613 1.965 . S
O627 C631 1.260 . S
O628 Zn612 1.969 1_455 S
O628 C631 1.258 . S
O629 Zn613 2.024 . S
O629 C616 1.058 1_554 S
C630 O619 1.260 1_456 S
C630 O620 1.258 . S
C631 O627 1.260 . S
C631 O628 1.258 . S
H632 C638 0.930 . S
H633 C641 0.930 . S
H634 C642 0.930 . S
H635 C643 0.930 1_554 S
H636 C646 0.930 . S
H637 C647 0.930 . S
C638 H632 0.930 . S
C638 C639 1.355 1_455 S
C638 C640 1.415 . S
C639 C638 1.355 1_655 S
C639 C641 1.419 . S
C640 C638 1.415 . S
C640 C645 1.425 1_455 S
C640 C647 1.409 . S
C641 H633 0.930 . S
C641 C639 1.419 . S
C641 C642 1.362 . S
C642 H634 0.930 . S
C642 C641 1.362 . S
C642 C645 1.409 . S
C643 H635 0.930 1_556 S
C643 C644 1.355 1_655 S
C643 C645 1.415 . S
C644 C643 1.355 1_455 S
C644 C646 1.419 . S
C645 C640 1.425 1_655 S
C645 C642 1.409 . S
C645 C643 1.415 . S
C646 H636 0.930 . S
C646 C644 1.419 . S
C646 C647 1.362 . S
C647 H637 0.930 . S
C647 C640 1.409 . S
C647 C646 1.362 . S
H648 C654 0.930 . S
H649 C657 0.930 . S
H650 C658 0.930 . S
H651 C659 0.930 . S
H652 C662 0.930 . S
H653 C663 0.930 . S
C654 H648 0.930 . S
C654 C655 1.355 . S
C654 C656 1.415 . S
C655 C654 1.355 . S
C655 C657 1.419 . S
C656 C654 1.415 . S
C656 C661 1.425 . S
C656 C663 1.409 . S
C657 H649 0.930 . S
C657 C655 1.419 . S
C657 C658 1.362 . S
C658 H650 0.930 . S
C658 C657 1.362 . S
C658 C661 1.409 . S
C659 H651 0.930 . S
C659 C660 1.355 . S
C659 C661 1.415 . S
C660 C659 1.355 . S
C660 C662 1.419 . S
C661 C656 1.425 . S
C661 C658 1.409 . S
C661 C659 1.415 . S
C662 H652 0.930 . S
C662 C660 1.419 . S
C662 C663 1.362 . S
C663 H653 0.930 . S
C663 C656 1.409 . S
C663 C662 1.362 . S
H664 C670 0.930 . S
H665 C673 0.930 . S
H666 C674 0.930 . S
H667 C675 0.930 . S
H668 C678 0.930 . S
H669 C679 0.930 . S
C670 H664 0.930 . S
C670 C671 1.355 . S
C670 C672 1.415 . S
C671 C670 1.355 . S
C671 C673 1.419 . S
C672 C670 1.415 . S
C672 C677 1.425 . S
C672 C679 1.409 . S
C673 H665 0.930 . S
C673 C671 1.419 . S
C673 C674 1.362 . S
C674 H666 0.930 . S
C674 C673 1.362 . S
C674 C677 1.409 . S
C675 H667 0.930 . S
C675 C676 1.355 . S
C675 C677 1.415 . S
C676 C675 1.355 . S
C676 C678 1.419 . S
C677 C672 1.425 . S
C677 C674 1.409 . S
C677 C675 1.415 . S
C678 H668 0.930 . S
C678 C676 1.419 . S
C678 C679 1.362 . S
C679 H669 0.930 . S
C679 C672 1.409 . S
C679 C678 1.362 . S
H680 C686 0.930 . S
H681 C689 0.930 . S
H682 C690 0.930 . S
H683 C691 0.930 . S
H684 C694 0.930 . S
H685 C695 0.930 . S
C686 H680 0.930 . S
C686 C687 1.355 . S
C686 C688 1.415 . S
C687 C686 1.355 . S
C687 C689 1.419 . S
C688 C686 1.415 . S
C688 C693 1.425 . S
C688 C695 1.409 . S
C689 H681 0.930 . S
C689 C687 1.419 . S
C689 C690 1.362 . S
C690 H682 0.930 . S
C690 C689 1.362 . S
C690 C693 1.409 . S
C691 H683 0.930 . S
C691 C692 1.355 . S
C691 C693 1.415 . S
C692 C691 1.355 . S
C692 C694 1.419 . S
C693 C688 1.425 . S
C693 C690 1.409 . S
C693 C691 1.415 . S
C694 H684 0.930 . S
C694 C692 1.419 . S
C694 C695 1.362 . S
C695 H685 0.930 . S
C695 C688 1.409 . S
C695 C694 1.362 . S
H696 C702 0.930 . S
H697 C705 0.930 . S
H698 C706 0.930 . S
H699 C707 0.930 . S
H700 C710 0.930 . S
H701 C711 0.930 . S
C702 H696 0.930 . S
C702 C703 1.355 1_655 S
C702 C704 1.415 1_655 S
C703 C702 1.355 1_455 S
C703 C705 1.419 . S
C704 C702 1.415 1_455 S
C704 C709 1.425 . S
C704 C711 1.409 1_455 S
C705 H697 0.930 . S
C705 C703 1.419 . S
C705 C706 1.362 . S
C706 H698 0.930 . S
C706 C705 1.362 . S
C706 C709 1.409 . S
C707 H699 0.930 . S
C707 C708 1.355 . S
C707 C709 1.415 . S
C708 C707 1.355 . S
C708 C710 1.419 1_455 S
C709 C704 1.425 . S
C709 C706 1.409 . S
C709 C707 1.415 . S
C710 H700 0.930 . S
C710 C708 1.419 1_655 S
C710 C711 1.362 . S
C711 H701 0.930 . S
C711 C704 1.409 1_655 S
C711 C710 1.362 . S
H712 C718 0.930 . S
H713 C721 0.930 . S
H714 C722 0.930 . S
H715 C723 0.930 . S
H716 C726 0.930 . S
H717 C727 0.930 . S
C718 H712 0.930 . S
C718 C719 1.355 . S
C718 C720 1.415 . S
C719 C718 1.355 . S
C719 C721 1.419 . S
C720 C718 1.415 . S
C720 C725 1.425 . S
C720 C727 1.409 . S
C721 H713 0.930 . S
C721 C719 1.419 . S
C721 C722 1.362 . S
C722 H714 0.930 . S
C722 C721 1.362 . S
C722 C725 1.409 . S
C723 H715 0.930 . S
C723 C724 1.355 . S
C723 C725 1.415 . S
C724 C723 1.355 . S
C724 C726 1.419 . S
C725 C720 1.425 . S
C725 C722 1.409 . S
C725 C723 1.415 . S
C726 H716 0.930 . S
C726 C724 1.419 . S
C726 C727 1.362 . S
C727 H717 0.930 . S
C727 C720 1.409 . S
C727 C726 1.362 . S
H728 C734 0.930 . S
H729 C737 0.930 . S
H730 C738 0.930 . S
H731 C739 0.930 . S
H732 C742 0.930 . S
H733 C743 0.930 . S
C734 H728 0.930 . S
C734 C735 1.355 . S
C734 C736 1.415 . S
C735 C734 1.355 . S
C735 C737 1.419 . S
C736 C734 1.415 . S
C736 C741 1.425 . S
C736 C743 1.409 . S
C737 H729 0.930 . S
C737 C735 1.419 . S
C737 C738 1.362 . S
C738 H730 0.930 . S
C738 C737 1.362 . S
C738 C741 1.409 . S
C739 H731 0.930 . S
C739 C740 1.355 . S
C739 C741 1.415 . S
C740 C739 1.355 . S
C740 C742 1.419 . S
C741 C736 1.425 . S
C741 C738 1.409 . S
C741 C739 1.415 . S
C742 H732 0.930 . S
C742 C740 1.419 . S
C742 C743 1.362 . S
C743 H733 0.930 . S
C743 C736 1.409 . S
C743 C742 1.362 . S
H744 C750 0.930 . S
H745 C753 0.930 . S
H746 C754 0.930 . S
H747 C755 0.930 . S
H748 C758 0.930 . S
H749 C759 0.930 . S
C750 H744 0.930 . S
C750 C751 1.355 . S
C750 C752 1.415 . S
C751 C750 1.355 . S
C751 C753 1.419 . S
C752 C750 1.415 . S
C752 C757 1.425 . S
C752 C759 1.409 . S
C753 H745 0.930 . S
C753 C751 1.419 . S
C753 C754 1.362 . S
C754 H746 0.930 . S
C754 C753 1.362 . S
C754 C757 1.409 . S
C755 H747 0.930 . S
C755 C756 1.355 . S
C755 C757 1.415 . S
C756 C755 1.355 . S
C756 C758 1.419 . S
C757 C752 1.425 . S
C757 C754 1.409 . S
C757 C755 1.415 . S
C758 H748 0.930 . S
C758 C756 1.419 . S
C758 C759 1.362 . S
C759 H749 0.930 . S
C759 C752 1.409 . S
C759 C758 1.362 . S
H760 C766 0.930 . S
H761 C769 0.930 . S
H762 C770 0.930 . S
H763 C771 0.930 1_565 S
H764 C774 0.930 . S
H765 C775 0.930 1_455 S
C766 H760 0.930 . S
C766 C767 1.355 . S
C766 C768 1.415 . S
C767 C766 1.355 . S
C767 C769 1.419 1_545 S
C768 C766 1.415 . S
C768 C773 1.425 . S
C768 C775 1.409 . S
C769 H761 0.930 . S
C769 C767 1.419 1_565 S
C769 C770 1.362 . S
C770 H762 0.930 . S
C770 C769 1.362 . S
C770 C773 1.409 1_565 S
C771 H763 0.930 1_545 S
C771 C772 1.355 . S
C771 C773 1.415 . S
C772 C771 1.355 . S
C772 C774 1.419 1_655 S
C773 C768 1.425 . S
C773 C770 1.409 1_545 S
C773 C771 1.415 . S
C774 H764 0.930 . S
C774 C772 1.419 1_455 S
C774 C775 1.362 1_455 S
C775 H765 0.930 1_655 S
C775 C768 1.409 . S
C775 C774 1.362 1_655 S
H776 C782 0.930 . S
H777 C785 0.930 . S
H778 C786 0.930 . S
H779 C787 0.930 . S
H780 C790 0.930 . S
H781 C791 0.930 . S
C782 H776 0.930 . S
C782 C783 1.355 . S
C782 C784 1.415 . S
C783 C782 1.355 . S
C783 C785 1.419 . S
C784 C782 1.415 . S
C784 C789 1.425 . S
C784 C791 1.409 . S
C785 H777 0.930 . S
C785 C783 1.419 . S
C785 C786 1.362 . S
C786 H778 0.930 . S
C786 C785 1.362 . S
C786 C789 1.409 . S
C787 H779 0.930 . S
C787 C788 1.355 . S
C787 C789 1.415 . S
C788 C787 1.355 . S
C788 C790 1.419 . S
C789 C784 1.425 . S
C789 C786 1.409 . S
C789 C787 1.415 . S
C790 H780 0.930 . S
C790 C788 1.419 . S
C790 C791 1.362 . S
C791 H781 0.930 . S
C791 C784 1.409 . S
C791 C790 1.362 . S
H792 C798 0.930 . S
H793 C801 0.930 . S
H794 C802 0.930 . S
H795 C803 0.929 . S
H796 C806 0.930 . S
H797 C807 0.930 . S
C798 H792 0.930 . S
C798 C799 1.355 1_545 S
C798 C800 1.415 . S
C799 C798 1.355 1_565 S
C799 C801 1.419 . S
C800 C798 1.415 . S
C800 C805 1.428 1_545 S
C800 C807 1.409 . S
C801 H793 0.930 . S
C801 C799 1.419 . S
C801 C802 1.362 . S
C802 H794 0.930 . S
C802 C801 1.362 . S
C802 C805 1.416 . S
C803 H795 0.929 . S
C803 C804 1.352 1_565 S
C803 C805 1.409 . S
C804 C803 1.352 1_545 S
C804 C806 1.419 . S
C805 C800 1.428 1_565 S
C805 C802 1.416 . S
C805 C803 1.409 . S
C806 H796 0.930 . S
C806 C804 1.419 . S
C806 C807 1.362 . S
C807 H797 0.930 . S
C807 C800 1.409 . S
C807 C806 1.362 . S
H808 C814 0.930 . S
H809 C817 0.930 . S
H810 C818 0.930 . S
H811 C819 0.930 . S
H812 C822 0.930 . S
H813 C823 0.930 . S
C814 H808 0.930 . S
C814 C815 1.355 . S
C814 C816 1.415 . S
C815 C814 1.355 . S
C815 C817 1.419 . S
C816 C814 1.415 . S
C816 C821 1.425 . S
C816 C823 1.409 . S
C817 H809 0.930 . S
C817 C815 1.419 . S
C817 C818 1.362 . S
C818 H810 0.930 . S
C818 C817 1.362 . S
C818 C821 1.409 . S
C819 H811 0.930 . S
C819 C820 1.355 . S
C819 C821 1.415 . S
C820 C819 1.355 . S
C820 C822 1.419 . S
C821 C816 1.425 . S
C821 C818 1.409 . S
C821 C819 1.415 . S
C822 H812 0.930 . S
C822 C820 1.419 . S
C822 C823 1.362 . S
C823 H813 0.930 . S
C823 C816 1.409 . S
C823 C822 1.362 . S
H824 C830 0.930 . S
H825 C833 0.930 . S
H826 C834 0.930 1_455 S
H827 C835 0.930 1_455 S
H828 C838 0.930 . S
H829 C839 0.930 . S
C830 H824 0.930 . S
C830 C831 1.355 . S
C830 C832 1.415 . S
C831 C830 1.355 . S
C831 C833 1.419 . S
C832 C830 1.415 . S
C832 C837 1.425 . S
C832 C839 1.409 1_545 S
C833 H825 0.930 . S
C833 C831 1.419 . S
C833 C834 1.362 . S
C834 H826 0.930 1_655 S
C834 C833 1.362 . S
C834 C837 1.409 . S
C835 H827 0.930 1_655 S
C835 C836 1.355 . S
C835 C837 1.415 . S
C836 C835 1.355 . S
C836 C838 1.419 1_545 S
C837 C832 1.425 . S
C837 C834 1.409 . S
C837 C835 1.415 . S
C838 H828 0.930 . S
C838 C836 1.419 1_565 S
C838 C839 1.362 . S
C839 H829 0.930 . S
C839 C832 1.409 1_565 S
C839 C838 1.362 . S
H840 C846 0.930 . S
H841 C849 0.930 . S
H842 C850 0.930 . S
H843 C851 0.930 . S
H844 C854 0.930 . S
H845 C855 0.930 . S
C846 H840 0.930 . S
C846 C847 1.355 . S
C846 C848 1.415 . S
C847 C846 1.355 . S
C847 C849 1.419 . S
C848 C846 1.415 . S
C848 C853 1.425 . S
C848 C855 1.409 . S
C849 H841 0.930 . S
C849 C847 1.419 . S
C849 C850 1.362 . S
C850 H842 0.930 . S
C850 C849 1.362 . S
C850 C853 1.409 . S
C851 H843 0.930 . S
C851 C852 1.355 . S
C851 C853 1.415 . S
C852 C851 1.355 . S
C852 C854 1.419 . S
C853 C848 1.425 . S
C853 C850 1.409 . S
C853 C851 1.415 . S
C854 H844 0.930 . S
C854 C852 1.419 . S
C854 C855 1.362 . S
C855 H845 0.930 . S
C855 C848 1.409 . S
C855 C854 1.362 . S
H856 C862 0.930 . S
H857 C865 0.930 . S
H858 C866 0.930 . S
H859 C867 0.930 . S
H860 C870 0.930 1_565 S
H861 C871 0.930 . S
C862 H856 0.930 . S
C862 C863 1.345 1_565 S
C862 C864 1.415 1_565 S
C863 C862 1.345 1_545 S
C863 C865 1.436 . S
C864 C862 1.415 1_545 S
C864 C869 1.425 . S
C864 C871 1.409 1_545 S
C865 H857 0.930 . S
C865 C863 1.436 . S
C865 C866 1.362 . S
C866 H858 0.930 . S
C866 C865 1.362 . S
C866 C869 1.409 . S
C867 H859 0.930 . S
C867 C868 1.355 . S
C867 C869 1.415 . S
C868 C867 1.355 . S
C868 C870 1.419 . S
C869 C864 1.425 . S
C869 C866 1.409 . S
C869 C867 1.415 . S
C870 H860 0.930 1_545 S
C870 C868 1.419 . S
C870 C871 1.362 1_545 S
C871 H861 0.930 . S
C871 C864 1.409 1_565 S
C871 C870 1.362 1_565 S
H872 C878 0.930 . S
H873 C881 0.930 . S
H874 C882 0.930 . S
H875 C883 0.930 . S
H876 C886 0.930 . S
H877 C887 0.930 . S
C878 H872 0.930 . S
C878 C879 1.355 . S
C878 C880 1.415 . S
C879 C878 1.355 . S
C879 C881 1.419 . S
C880 C878 1.415 . S
C880 C885 1.425 . S
C880 C887 1.409 . S
C881 H873 0.930 . S
C881 C879 1.419 . S
C881 C882 1.362 . S
C882 H874 0.930 . S
C882 C881 1.362 . S
C882 C885 1.409 . S
C883 H875 0.930 . S
C883 C884 1.355 . S
C883 C885 1.415 . S
C884 C883 1.355 . S
C884 C886 1.419 . S
C885 C880 1.425 . S
C885 C882 1.409 . S
C885 C883 1.415 . S
C886 H876 0.930 . S
C886 C884 1.419 . S
C886 C887 1.362 . S
C887 H877 0.930 . S
C887 C880 1.409 . S
C887 C886 1.362 . S
H888 C894 0.930 1_556 S
H889 C897 0.930 . S
H890 C898 0.930 . S
H891 C899 0.930 . S
H892 C902 0.918 1_556 S
H893 C903 0.930 . S
C894 H888 0.930 1_554 S
C894 C895 1.355 . S
C894 C896 1.415 . S
C895 C894 1.355 . S
C895 C897 1.419 . S
C896 C894 1.415 . S
C896 C901 1.425 . S
C896 C903 1.409 1_554 S
C897 H889 0.930 . S
C897 C895 1.419 . S
C897 C898 1.362 . S
C898 H890 0.930 . S
C898 C897 1.362 . S
C898 C901 1.409 . S
C899 H891 0.930 . S
C899 C900 1.355 . S
C899 C901 1.415 . S
C900 C899 1.355 . S
C900 C902 1.419 . S
C901 C896 1.425 . S
C901 C898 1.409 . S
C901 C899 1.415 . S
C902 H892 0.918 1_554 S
C902 C900 1.419 . S
C902 C903 1.362 1_554 S
C903 H893 0.930 . S
C903 C896 1.409 1_556 S
C903 C902 1.362 1_556 S
H904 C910 0.939 . S
H905 C913 0.930 . S
H906 C914 0.930 . S
H907 C915 0.930 . S
H908 C918 0.930 . S
H909 C919 0.930 1_556 S
C910 H904 0.939 . S
C910 C911 1.356 . S
C910 C912 1.406 1_556 S
C911 C910 1.356 . S
C911 C913 1.420 1_556 S
C912 C910 1.406 1_554 S
C912 C917 1.425 . S
C912 C919 1.409 . S
C913 H905 0.930 . S
C913 C911 1.420 1_554 S
C913 C914 1.362 . S
C914 H906 0.930 . S
C914 C913 1.362 . S
C914 C917 1.409 . S
C915 H907 0.930 . S
C915 C916 1.355 . S
C915 C917 1.415 . S
C916 C915 1.355 . S
C916 C918 1.419 . S
C917 C912 1.425 . S
C917 C914 1.409 . S
C917 C915 1.415 . S
C918 H908 0.930 . S
C918 C916 1.419 . S
C918 C919 1.362 . S
C919 H909 0.930 1_554 S
C919 C912 1.409 . S
C919 C918 1.362 . S
H920 C926 0.930 . S
H921 C929 0.930 . S
H922 C930 0.930 . S
H923 C931 0.930 . S
H924 C934 0.930 . S
H925 C935 0.930 . S
C926 H920 0.930 . S
C926 C927 1.355 . S
C926 C928 1.415 . S
C927 C926 1.355 . S
C927 C929 1.419 . S
C928 C926 1.415 . S
C928 C933 1.425 . S
C928 C935 1.409 . S
C929 H921 0.930 . S
C929 C927 1.419 . S
C929 C930 1.362 . S
C930 H922 0.930 . S
C930 C929 1.362 . S
C930 C933 1.409 . S
C931 H923 0.930 . S
C931 C932 1.355 . S
C931 C933 1.415 . S
C932 C931 1.355 . S
C932 C934 1.419 . S
C933 C928 1.425 . S
C933 C930 1.409 . S
C933 C931 1.415 . S
C934 H924 0.930 . S
C934 C932 1.419 . S
C934 C935 1.362 . S
C935 H925 0.930 . S
C935 C928 1.409 . S
C935 C934 1.362 . S
H936 C942 0.930 . S
H937 C945 0.930 . S
H938 C946 0.930 . S
H939 C947 0.930 . S
H940 C950 0.930 . S
H941 C951 0.930 . S
C942 H936 0.930 . S
C942 C943 1.355 . S
C942 C944 1.415 . S
C943 C942 1.355 . S
C943 C945 1.419 . S
C944 C942 1.415 . S
C944 C949 1.425 . S
C944 C951 1.409 . S
C945 H937 0.930 . S
C945 C943 1.419 . S
C945 C946 1.362 . S
C946 H938 0.930 . S
C946 C945 1.362 . S
C946 C949 1.409 . S
C947 H939 0.930 . S
C947 C948 1.355 . S
C947 C949 1.415 . S
C948 C947 1.355 . S
C948 C950 1.419 . S
C949 C944 1.425 . S
C949 C946 1.409 . S
C949 C947 1.415 . S
C950 H940 0.930 . S
C950 C948 1.419 . S
C950 C951 1.362 . S
C951 H941 0.930 . S
C951 C944 1.409 . S
C951 C950 1.362 . S
H952 C958 0.930 . S
H953 C961 0.930 . S
H954 C962 0.930 . S
H955 C963 0.930 . S
H956 C966 0.930 . S
H957 C967 0.930 . S
C958 H952 0.930 . S
C958 C959 1.355 . S
C958 C960 1.415 . S
C959 C958 1.355 . S
C959 C961 1.419 . S
C960 C958 1.415 . S
C960 C965 1.425 . S
C960 C967 1.409 . S
C961 H953 0.930 . S
C961 C959 1.419 . S
C961 C962 1.362 . S
C962 H954 0.930 . S
C962 C961 1.362 . S
C962 C965 1.409 . S
C963 H955 0.930 . S
C963 C964 1.355 . S
C963 C965 1.415 . S
C964 C963 1.355 . S
C964 C966 1.419 . S
C965 C960 1.425 . S
C965 C962 1.409 . S
C965 C963 1.415 . S
C966 H956 0.930 . S
C966 C964 1.419 . S
C966 C967 1.362 . S
C967 H957 0.930 . S
C967 C960 1.409 . S
C967 C966 1.362 . S
H968 C974 0.930 . S
H969 C977 0.930 . S
H970 C978 0.930 . S
H971 C979 0.930 . S
H972 C982 0.930 . S
H973 C983 0.930 . S
C974 H968 0.930 . S
C974 C975 1.355 . S
C974 C976 1.415 . S
C975 C974 1.355 . S
C975 C977 1.419 . S
C976 C974 1.415 . S
C976 C981 1.425 . S
C976 C983 1.409 . S
C977 H969 0.930 . S
C977 C975 1.419 . S
C977 C978 1.362 . S
C978 H970 0.930 . S
C978 C977 1.362 . S
C978 C981 1.409 . S
C979 H971 0.930 . S
C979 C980 1.355 . S
C979 C981 1.415 . S
C980 C979 1.355 . S
C980 C982 1.419 . S
C981 C976 1.425 . S
C981 C978 1.409 . S
C981 C979 1.415 . S
C982 H972 0.930 . S
C982 C980 1.419 . S
C982 C983 1.362 . S
C983 H973 0.930 . S
C983 C976 1.409 . S
C983 C982 1.362 . S
H984 C990 0.930 . S
H985 C993 0.930 . S
H986 C994 0.930 . S
H987 C995 0.930 . S
H988 C998 0.930 . S
H989 C999 0.930 . S
C990 H984 0.930 . S
C990 C991 1.355 . S
C990 C992 1.415 . S
C991 C990 1.355 . S
C991 C993 1.419 . S
C992 C990 1.415 . S
C992 C997 1.425 . S
C992 C999 1.409 . S
C993 H985 0.930 . S
C993 C991 1.419 . S
C993 C994 1.362 . S
C994 H986 0.930 . S
C994 C993 1.362 . S
C994 C997 1.409 . S
C995 H987 0.930 . S
C995 C996 1.355 . S
C995 C997 1.415 . S
C996 C995 1.355 . S
C996 C998 1.419 . S
C997 C992 1.425 . S
C997 C994 1.409 . S
C997 C995 1.415 . S
C998 H988 0.930 . S
C998 C996 1.419 . S
C998 C999 1.362 . S
C999 H989 0.930 . S
C999 C992 1.409 . S
C999 C998 1.362 . S
H1000 C1006 0.930 . S
H1001 C1009 0.930 . S
H1002 C1010 0.930 . S
H1003 C1011 0.930 . S
H1004 C1014 0.930 . S
H1005 C1015 0.930 . S
C1006 H1000 0.930 . S
C1006 C1007 1.355 . S
C1006 C1008 1.415 . S
C1007 C1006 1.355 . S
C1007 C1009 1.419 . S
C1008 C1006 1.415 . S
C1008 C1013 1.425 . S
C1008 C1015 1.409 . S
C1009 H1001 0.930 . S
C1009 C1007 1.419 . S
C1009 C1010 1.362 . S
C1010 H1002 0.930 . S
C1010 C1009 1.362 . S
C1010 C1013 1.409 . S
C1011 H1003 0.930 . S
C1011 C1012 1.355 . S
C1011 C1013 1.415 . S
C1012 C1011 1.355 . S
C1012 C1014 1.419 . S
C1013 C1008 1.425 . S
C1013 C1010 1.409 . S
C1013 C1011 1.415 . S
C1014 H1004 0.930 . S
C1014 C1012 1.419 . S
C1014 C1015 1.362 . S
C1015 H1005 0.930 . S
C1015 C1008 1.409 . S
C1015 C1014 1.362 . S
H1016 C1022 0.930 . S
H1017 C1025 0.928 1_655 S
H1018 C1026 0.930 . S
H1019 C1027 0.930 1_655 S
H1020 C1030 0.930 . S
H1021 C1031 0.930 . S
C1022 H1016 0.930 . S
C1022 C1023 1.355 . S
C1022 C1024 1.415 . S
C1023 C1022 1.355 . S
C1023 C1025 1.419 . S
C1024 C1022 1.415 . S
C1024 C1029 1.425 . S
C1024 C1031 1.409 . S
C1025 H1017 0.928 1_455 S
C1025 C1023 1.419 . S
C1025 C1026 1.362 1_455 S
C1026 H1018 0.930 . S
C1026 C1025 1.362 1_655 S
C1026 C1029 1.409 1_655 S
C1027 H1019 0.930 1_455 S
C1027 C1028 1.355 . S
C1027 C1029 1.415 . S
C1028 C1027 1.355 . S
C1028 C1030 1.419 . S
C1029 C1024 1.425 . S
C1029 C1026 1.409 1_455 S
C1029 C1027 1.415 . S
C1030 H1020 0.930 . S
C1030 C1028 1.419 . S
C1030 C1031 1.362 . S
C1031 H1021 0.930 . S
C1031 C1024 1.409 . S
C1031 C1030 1.362 . S
H1032 C1038 0.930 . S
H1033 C1041 0.930 . S
H1034 C1042 0.930 . S
H1035 C1043 0.930 . S
H1036 C1046 0.930 . S
H1037 C1047 0.930 . S
C1038 H1032 0.930 . S
C1038 C1039 1.355 . S
C1038 C1040 1.415 . S
C1039 C1038 1.355 . S
C1039 C1041 1.419 . S
C1040 C1038 1.415 . S
C1040 C1045 1.425 . S
C1040 C1047 1.409 . S
C1041 H1033 0.930 . S
C1041 C1039 1.419 . S
C1041 C1042 1.362 . S
C1042 H1034 0.930 . S
C1042 C1041 1.362 . S
C1042 C1045 1.409 . S
C1043 H1035 0.930 . S
C1043 C1044 1.355 . S
C1043 C1045 1.415 . S
C1044 C1043 1.355 . S
C1044 C1046 1.419 . S
C1045 C1040 1.425 . S
C1045 C1042 1.409 . S
C1045 C1043 1.415 . S
C1046 H1036 0.930 . S
C1046 C1044 1.419 . S
C1046 C1047 1.362 . S
C1047 H1037 0.930 . S
C1047 C1040 1.409 . S
C1047 C1046 1.362 . S
H1048 C1054 0.930 . S
H1049 C1057 0.930 . S
H1050 C1058 0.930 . S
H1051 C1059 0.930 . S
H1052 C1062 0.930 . S
H1053 C1063 0.930 . S
C1054 H1048 0.930 . S
C1054 C1055 1.355 . S
C1054 C1056 1.415 . S
C1055 C1054 1.355 . S
C1055 C1057 1.419 . S
C1056 C1054 1.415 . S
C1056 C1061 1.425 . S
C1056 C1063 1.409 . S
C1057 H1049 0.930 . S
C1057 C1055 1.419 . S
C1057 C1058 1.362 . S
C1058 H1050 0.930 . S
C1058 C1057 1.362 . S
C1058 C1061 1.409 . S
C1059 H1051 0.930 . S
C1059 C1060 1.355 . S
C1059 C1061 1.415 . S
C1060 C1059 1.355 . S
C1060 C1062 1.419 . S
C1061 C1056 1.425 . S
C1061 C1058 1.409 . S
C1061 C1059 1.415 . S
C1062 H1052 0.930 . S
C1062 C1060 1.419 . S
C1062 C1063 1.362 . S
C1063 H1053 0.930 . S
C1063 C1056 1.409 . S
C1063 C1062 1.362 . S
H1064 C1070 0.930 . S
H1065 C1073 0.930 . S
H1066 C1074 0.930 . S
H1067 C1075 0.930 . S
H1068 C1078 0.930 . S
H1069 C1079 0.930 . S
C1070 H1064 0.930 . S
C1070 C1071 1.355 . S
C1070 C1072 1.415 . S
C1071 C1070 1.355 . S
C1071 C1073 1.419 . S
C1072 C1070 1.415 . S
C1072 C1077 1.425 . S
C1072 C1079 1.409 . S
C1073 H1065 0.930 . S
C1073 C1071 1.419 . S
C1073 C1074 1.362 . S
C1074 H1066 0.930 . S
C1074 C1073 1.362 . S
C1074 C1077 1.409 . S
C1075 H1067 0.930 . S
C1075 C1076 1.355 . S
C1075 C1077 1.415 . S
C1076 C1075 1.355 . S
C1076 C1078 1.419 . S
C1077 C1072 1.425 . S
C1077 C1074 1.409 . S
C1077 C1075 1.415 . S
C1078 H1068 0.930 . S
C1078 C1076 1.419 . S
C1078 C1079 1.362 . S
C1079 H1069 0.930 . S
C1079 C1072 1.409 . S
C1079 C1078 1.362 . S
H1080 C1086 0.894 1_655 S
H1081 C1089 0.930 . S
H1082 C1090 0.930 . S
H1083 C1091 0.930 . S
H1084 C1094 0.930 . S
H1085 C1095 0.930 . S
C1086 H1080 0.894 1_455 S
C1086 C1087 1.384 . S
C1086 C1088 1.421 . S
C1087 C1086 1.384 . S
C1087 C1089 1.419 . S
C1088 C1086 1.421 . S
C1088 C1093 1.425 . S
C1088 C1095 1.409 1_455 S
C1089 H1081 0.930 . S
C1089 C1087 1.419 . S
C1089 C1090 1.362 . S
C1090 H1082 0.930 . S
C1090 C1089 1.362 . S
C1090 C1093 1.409 . S
C1091 H1083 0.930 . S
C1091 C1092 1.355 . S
C1091 C1093 1.415 . S
C1092 C1091 1.355 . S
C1092 C1094 1.419 1_455 S
C1093 C1088 1.425 . S
C1093 C1090 1.409 . S
C1093 C1091 1.415 . S
C1094 H1084 0.930 . S
C1094 C1092 1.419 1_655 S
C1094 C1095 1.362 . S
C1095 H1085 0.930 . S
C1095 C1088 1.409 1_655 S
C1095 C1094 1.362 . S
H1096 C1102 0.930 . S
H1097 C1105 0.930 . S
H1098 C1106 0.930 . S
H1099 C1107 0.930 . S
H1100 C1110 0.930 . S
H1101 C1111 0.930 . S
C1102 H1096 0.930 . S
C1102 C1103 1.355 . S
C1102 C1104 1.415 . S
C1103 C1102 1.355 . S
C1103 C1105 1.419 . S
C1104 C1102 1.415 . S
C1104 C1109 1.425 . S
C1104 C1111 1.409 . S
C1105 H1097 0.930 . S
C1105 C1103 1.419 . S
C1105 C1106 1.362 . S
C1106 H1098 0.930 . S
C1106 C1105 1.362 . S
C1106 C1109 1.409 . S
C1107 H1099 0.930 . S
C1107 C1108 1.355 . S
C1107 C1109 1.415 . S
C1108 C1107 1.355 . S
C1108 C1110 1.419 . S
C1109 C1104 1.425 . S
C1109 C1106 1.409 . S
C1109 C1107 1.415 . S
C1110 H1100 0.930 . S
C1110 C1108 1.419 . S
C1110 C1111 1.362 . S
C1111 H1101 0.930 . S
C1111 C1104 1.409 . S
C1111 C1110 1.362 . S
H1112 C1118 0.930 . S
H1113 C1121 0.930 . S
H1114 C1122 0.930 . S
H1115 C1123 0.927 1_554 S
H1116 C1126 0.930 . S
H1117 C1127 0.930 . S
C1118 H1112 0.930 . S
C1118 C1119 1.355 . S
C1118 C1120 1.415 . S
C1119 C1118 1.355 . S
C1119 C1121 1.419 . S
C1120 C1118 1.415 . S
C1120 C1125 1.425 . S
C1120 C1127 1.409 . S
C1121 H1113 0.930 . S
C1121 C1119 1.419 . S
C1121 C1122 1.362 . S
C1122 H1114 0.930 . S
C1122 C1121 1.362 . S
C1122 C1125 1.409 . S
C1123 H1115 0.927 1_556 S
C1123 C1124 1.352 1_556 S
C1123 C1125 1.420 . S
C1124 C1123 1.352 1_554 S
C1124 C1126 1.419 1_554 S
C1125 C1120 1.425 . S
C1125 C1122 1.409 . S
C1125 C1123 1.420 . S
C1126 H1116 0.930 . S
C1126 C1124 1.419 1_556 S
C1126 C1127 1.362 . S
C1127 H1117 0.930 . S
C1127 C1120 1.409 . S
C1127 C1126 1.362 . S
H1128 C1134 0.930 . S
H1129 C1137 0.930 . S
H1130 C1138 0.930 . S
H1131 C1139 0.930 . S
H1132 C1142 0.930 . S
H1133 C1143 0.930 . S
C1134 H1128 0.930 . S
C1134 C1135 1.355 . S
C1134 C1136 1.415 . S
C1135 C1134 1.355 . S
C1135 C1137 1.419 . S
C1136 C1134 1.415 . S
C1136 C1141 1.425 . S
C1136 C1143 1.409 . S
C1137 H1129 0.930 . S
C1137 C1135 1.419 . S
C1137 C1138 1.362 . S
C1138 H1130 0.930 . S
C1138 C1137 1.362 . S
C1138 C1141 1.409 . S
C1139 H1131 0.930 . S
C1139 C1140 1.355 . S
C1139 C1141 1.415 . S
C1140 C1139 1.355 . S
C1140 C1142 1.419 . S
C1141 C1136 1.425 . S
C1141 C1138 1.409 . S
C1141 C1139 1.415 . S
C1142 H1132 0.930 . S
C1142 C1140 1.419 . S
C1142 C1143 1.362 . S
C1143 H1133 0.930 . S
C1143 C1136 1.409 . S
C1143 C1142 1.362 . S
H1144 C1150 0.930 . S
H1145 C1153 0.930 . S
H1146 C1154 0.930 . S
H1147 C1155 0.930 . S
H1148 C1158 0.941 . S
H1149 C1159 0.930 . S
C1150 H1144 0.930 . S
C1150 C1151 1.355 . S
C1150 C1152 1.415 . S
C1151 C1150 1.355 . S
C1151 C1153 1.419 . S
C1152 C1150 1.415 . S
C1152 C1157 1.425 . S
C1152 C1159 1.409 . S
C1153 H1145 0.930 . S
C1153 C1151 1.419 . S
C1153 C1154 1.362 . S
C1154 H1146 0.930 . S
C1154 C1153 1.362 . S
C1154 C1157 1.409 . S
C1155 H1147 0.930 . S
C1155 C1156 1.347 1_545 S
C1155 C1157 1.415 . S
C1156 C1155 1.347 1_565 S
C1156 C1158 1.417 . S
C1157 C1152 1.425 . S
C1157 C1154 1.409 . S
C1157 C1155 1.415 . S
C1158 H1148 0.941 . S
C1158 C1156 1.417 . S
C1158 C1159 1.361 1_565 S
C1159 H1149 0.930 . S
C1159 C1152 1.409 . S
C1159 C1158 1.361 1_545 S
H1160 C1166 0.930 . S
H1161 C1169 0.930 . S
H1162 C1170 0.930 . S
H1163 C1171 0.930 . S
H1164 C1174 0.930 . S
H1165 C1175 0.930 . S
C1166 H1160 0.930 . S
C1166 C1167 1.355 . S
C1166 C1168 1.415 . S
C1167 C1166 1.355 . S
C1167 C1169 1.419 . S
C1168 C1166 1.415 . S
C1168 C1173 1.425 . S
C1168 C1175 1.409 . S
C1169 H1161 0.930 . S
C1169 C1167 1.419 . S
C1169 C1170 1.362 . S
C1170 H1162 0.930 . S
C1170 C1169 1.362 . S
C1170 C1173 1.409 . S
C1171 H1163 0.930 . S
C1171 C1172 1.355 . S
C1171 C1173 1.415 . S
C1172 C1171 1.355 . S
C1172 C1174 1.419 . S
C1173 C1168 1.425 . S
C1173 C1170 1.409 . S
C1173 C1171 1.415 . S
C1174 H1164 0.930 . S
C1174 C1172 1.419 . S
C1174 C1175 1.362 . S
C1175 H1165 0.930 . S
C1175 C1168 1.409 . S
C1175 C1174 1.362 . S
H1176 C1182 0.930 . S
H1177 C1185 0.930 . S
H1178 C1186 0.930 1_565 S
H1179 C1187 0.930 . S
H1180 C1190 0.930 . S
H1181 C1191 0.930 . S
C1182 H1176 0.930 . S
C1182 C1183 1.355 . S
C1182 C1184 1.415 . S
C1183 C1182 1.355 . S
C1183 C1185 1.419 . S
C1184 C1182 1.415 . S
C1184 C1189 1.425 . S
C1184 C1191 1.409 . S
C1185 H1177 0.930 . S
C1185 C1183 1.419 . S
C1185 C1186 1.362 . S
C1186 H1178 0.930 1_545 S
C1186 C1185 1.362 . S
C1186 C1189 1.409 . S
C1187 H1179 0.930 . S
C1187 C1188 1.355 . S
C1187 C1189 1.415 . S
C1188 C1187 1.355 . S
C1188 C1190 1.419 . S
C1189 C1184 1.425 . S
C1189 C1186 1.409 . S
C1189 C1187 1.415 . S
C1190 H1180 0.930 . S
C1190 C1188 1.419 . S
C1190 C1191 1.362 . S
C1191 H1181 0.930 . S
C1191 C1184 1.409 . S
C1191 C1190 1.362 . S
H1192 C1198 0.930 . S
H1193 C1201 0.930 . S
H1194 C1202 0.930 . S
H1195 C1203 0.930 . S
H1196 C1206 0.930 . S
H1197 C1207 0.930 . S
C1198 H1192 0.930 . S
C1198 C1199 1.355 . S
C1198 C1200 1.415 . S
C1199 C1198 1.355 . S
C1199 C1201 1.419 . S
C1200 C1198 1.415 . S
C1200 C1205 1.425 . S
C1200 C1207 1.409 . S
C1201 H1193 0.930 . S
C1201 C1199 1.419 . S
C1201 C1202 1.362 . S
C1202 H1194 0.930 . S
C1202 C1201 1.362 . S
C1202 C1205 1.409 . S
C1203 H1195 0.930 . S
C1203 C1204 1.355 . S
C1203 C1205 1.415 . S
C1204 C1203 1.355 . S
C1204 C1206 1.419 . S
C1205 C1200 1.425 . S
C1205 C1202 1.409 . S
C1205 C1203 1.415 . S
C1206 H1196 0.930 . S
C1206 C1204 1.419 . S
C1206 C1207 1.362 . S
C1207 H1197 0.930 . S
C1207 C1200 1.409 . S
C1207 C1206 1.362 . S
H1208 C1214 0.930 . S
H1209 C1217 0.930 . S
H1210 C1218 0.930 . S
H1211 C1219 0.930 . S
H1212 C1222 0.930 . S
H1213 C1223 0.930 1_565 S
C1214 H1208 0.930 . S
C1214 C1215 1.355 . S
C1214 C1216 1.415 . S
C1215 C1214 1.355 . S
C1215 C1217 1.419 . S
C1216 C1214 1.415 . S
C1216 C1221 1.425 . S
C1216 C1223 1.409 . S
C1217 H1209 0.930 . S
C1217 C1215 1.419 . S
C1217 C1218 1.362 . S
C1218 H1210 0.930 . S
C1218 C1217 1.362 . S
C1218 C1221 1.409 . S
C1219 H1211 0.930 . S
C1219 C1220 1.355 . S
C1219 C1221 1.415 . S
C1220 C1219 1.355 . S
C1220 C1222 1.419 . S
C1221 C1216 1.425 . S
C1221 C1218 1.409 . S
C1221 C1219 1.415 . S
C1222 H1212 0.930 . S
C1222 C1220 1.419 . S
C1222 C1223 1.362 . S
C1223 H1213 0.930 1_545 S
C1223 C1216 1.409 . S
C1223 C1222 1.362 . S
H1224 C1230 0.930 . S
H1225 C1233 0.930 . S
H1226 C1234 0.930 . S
H1227 C1235 0.930 . S
H1228 C1238 0.930 . S
H1229 C1239 0.930 . S
C1230 H1224 0.930 . S
C1230 C1231 1.355 . S
C1230 C1232 1.415 . S
C1231 C1230 1.355 . S
C1231 C1233 1.419 . S
C1232 C1230 1.415 . S
C1232 C1237 1.425 . S
C1232 C1239 1.409 . S
C1233 H1225 0.930 . S
C1233 C1231 1.419 . S
C1233 C1234 1.362 . S
C1234 H1226 0.930 . S
C1234 C1233 1.362 . S
C1234 C1237 1.409 . S
C1235 H1227 0.930 . S
C1235 C1236 1.355 . S
C1235 C1237 1.415 . S
C1236 C1235 1.355 . S
C1236 C1238 1.419 . S
C1237 C1232 1.425 . S
C1237 C1234 1.409 . S
C1237 C1235 1.415 . S
C1238 H1228 0.930 . S
C1238 C1236 1.419 . S
C1238 C1239 1.362 . S
C1239 H1229 0.930 . S
C1239 C1232 1.409 . S
C1239 C1238 1.362 . S
H1240 C1246 0.930 . S
H1241 C1249 0.930 . S
H1242 C1250 0.930 . S
H1243 C1251 0.931 . S
H1244 C1254 0.935 . S
H1245 C1255 0.930 . S
C1246 H1240 0.930 . S
C1246 C1247 1.355 . S
C1246 C1248 1.415 . S
C1247 C1246 1.355 . S
C1247 C1249 1.419 . S
C1248 C1246 1.415 . S
C1248 C1253 1.425 . S
C1248 C1255 1.409 . S
C1249 H1241 0.930 . S
C1249 C1247 1.419 . S
C1249 C1250 1.362 . S
C1250 H1242 0.930 . S
C1250 C1249 1.362 . S
C1250 C1253 1.409 . S
C1251 H1243 0.931 . S
C1251 C1252 1.364 . S
C1251 C1253 1.406 1_565 S
C1252 C1251 1.364 . S
C1252 C1254 1.419 1_565 S
C1253 C1248 1.425 . S
C1253 C1250 1.409 . S
C1253 C1251 1.406 1_545 S
C1254 H1244 0.935 . S
C1254 C1252 1.419 1_545 S
C1254 C1255 1.362 . S
C1255 H1245 0.930 . S
C1255 C1248 1.409 . S
C1255 C1254 1.362 . S
H1256 C1262 0.930 . S
H1257 C1265 0.930 . S
H1258 C1266 0.930 . S
H1259 C1267 0.930 . S
H1260 C1270 0.930 . S
H1261 C1271 0.930 . S
C1262 H1256 0.930 . S
C1262 C1263 1.355 . S
C1262 C1264 1.415 . S
C1263 C1262 1.355 . S
C1263 C1265 1.419 . S
C1264 C1262 1.415 . S
C1264 C1269 1.425 . S
C1264 C1271 1.409 . S
C1265 H1257 0.930 . S
C1265 C1263 1.419 . S
C1265 C1266 1.362 . S
C1266 H1258 0.930 . S
C1266 C1265 1.362 . S
C1266 C1269 1.409 . S
C1267 H1259 0.930 . S
C1267 C1268 1.355 . S
C1267 C1269 1.415 . S
C1268 C1267 1.355 . S
C1268 C1270 1.419 . S
C1269 C1264 1.425 . S
C1269 C1266 1.409 . S
C1269 C1267 1.415 . S
C1270 H1260 0.930 . S
C1270 C1268 1.419 . S
C1270 C1271 1.362 . S
C1271 H1261 0.930 . S
C1271 C1264 1.409 . S
C1271 C1270 1.362 . S
H1272 C1278 0.930 . S
H1273 C1281 0.930 . S
H1274 C1282 0.930 . S
H1275 C1283 0.930 . S
H1276 C1286 0.930 . S
H1277 C1287 0.930 . S
C1278 H1272 0.930 . S
C1278 C1279 1.355 . S
C1278 C1280 1.415 . S
C1279 C1278 1.355 . S
C1279 C1281 1.419 . S
C1280 C1278 1.415 . S
C1280 C1285 1.425 . S
C1280 C1287 1.409 1_554 S
C1281 H1273 0.930 . S
C1281 C1279 1.419 . S
C1281 C1282 1.362 . S
C1282 H1274 0.930 . S
C1282 C1281 1.362 . S
C1282 C1285 1.409 . S
C1283 H1275 0.930 . S
C1283 C1284 1.355 1_554 S
C1283 C1285 1.415 . S
C1284 C1283 1.355 1_556 S
C1284 C1286 1.419 . S
C1285 C1280 1.425 . S
C1285 C1282 1.409 . S
C1285 C1283 1.415 . S
C1286 H1276 0.930 . S
C1286 C1284 1.419 . S
C1286 C1287 1.362 . S
C1287 H1277 0.930 . S
C1287 C1280 1.409 1_556 S
C1287 C1286 1.362 . S
H1288 C1294 0.930 . S
H1289 C1297 0.930 . S
H1290 C1298 0.930 . S
H1291 C1299 0.930 . S
H1292 C1302 0.930 . S
H1293 C1303 0.940 . S
C1294 H1288 0.930 . S
C1294 C1295 1.355 . S
C1294 C1296 1.415 . S
C1295 C1294 1.355 . S
C1295 C1297 1.419 . S
C1296 C1294 1.415 . S
C1296 C1301 1.425 . S
C1296 C1303 1.409 . S
C1297 H1289 0.930 . S
C1297 C1295 1.419 . S
C1297 C1298 1.362 . S
C1298 H1290 0.930 . S
C1298 C1297 1.362 . S
C1298 C1301 1.409 . S
C1299 H1291 0.930 . S
C1299 C1300 1.355 . S
C1299 C1301 1.415 . S
C1300 C1299 1.355 . S
C1300 C1302 1.419 . S
C1301 C1296 1.425 . S
C1301 C1298 1.409 . S
C1301 C1299 1.415 . S
C1302 H1292 0.930 . S
C1302 C1300 1.419 . S
C1302 C1303 1.362 . S
C1303 H1293 0.940 . S
C1303 C1296 1.409 . S
C1303 C1302 1.362 . S
H1304 C1310 0.930 . S
H1305 C1313 0.930 . S
H1306 C1314 0.930 . S
H1307 C1315 0.930 . S
H1308 C1318 0.930 . S
H1309 C1319 0.930 . S
C1310 H1304 0.930 . S
C1310 C1311 1.355 . S
C1310 C1312 1.415 . S
C1311 C1310 1.355 . S
C1311 C1313 1.419 . S
C1312 C1310 1.415 . S
C1312 C1317 1.425 . S
C1312 C1319 1.409 . S
C1313 H1305 0.930 . S
C1313 C1311 1.419 . S
C1313 C1314 1.362 . S
C1314 H1306 0.930 . S
C1314 C1313 1.362 . S
C1314 C1317 1.409 . S
C1315 H1307 0.930 . S
C1315 C1316 1.355 . S
C1315 C1317 1.415 . S
C1316 C1315 1.355 . S
C1316 C1318 1.419 . S
C1317 C1312 1.425 . S
C1317 C1314 1.409 . S
C1317 C1315 1.415 . S
C1318 H1308 0.930 . S
C1318 C1316 1.419 . S
C1318 C1319 1.362 . S
C1319 H1309 0.930 . S
C1319 C1312 1.409 . S
C1319 C1318 1.362 . S
H1320 C1326 0.930 . S
H1321 C1329 0.930 . S
H1322 C1330 0.930 . S
H1323 C1331 0.930 . S
H1324 C1334 0.930 . S
H1325 C1335 0.930 . S
C1326 H1320 0.930 . S
C1326 C1327 1.355 . S
C1326 C1328 1.415 . S
C1327 C1326 1.355 . S
C1327 C1329 1.419 . S
C1328 C1326 1.415 . S
C1328 C1333 1.425 . S
C1328 C1335 1.409 . S
C1329 H1321 0.930 . S
C1329 C1327 1.419 . S
C1329 C1330 1.362 . S
C1330 H1322 0.930 . S
C1330 C1329 1.362 . S
C1330 C1333 1.409 . S
C1331 H1323 0.930 . S
C1331 C1332 1.355 . S
C1331 C1333 1.415 . S
C1332 C1331 1.355 . S
C1332 C1334 1.419 . S
C1333 C1328 1.425 . S
C1333 C1330 1.409 . S
C1333 C1331 1.415 . S
C1334 H1324 0.930 . S
C1334 C1332 1.419 . S
C1334 C1335 1.362 . S
C1335 H1325 0.930 . S
C1335 C1328 1.409 . S
C1335 C1334 1.362 . S
H1336 C1342 0.930 . S
H1337 C1345 0.930 . S
H1338 C1346 0.930 . S
H1339 C1347 0.930 . S
H1340 C1350 0.930 . S
H1341 C1351 0.930 . S
C1342 H1336 0.930 . S
C1342 C1343 1.355 . S
C1342 C1344 1.415 . S
C1343 C1342 1.355 . S
C1343 C1345 1.419 . S
C1344 C1342 1.415 . S
C1344 C1349 1.425 . S
C1344 C1351 1.409 . S
C1345 H1337 0.930 . S
C1345 C1343 1.419 . S
C1345 C1346 1.362 . S
C1346 H1338 0.930 . S
C1346 C1345 1.362 . S
C1346 C1349 1.409 . S
C1347 H1339 0.930 . S
C1347 C1348 1.355 . S
C1347 C1349 1.415 . S
C1348 C1347 1.355 . S
C1348 C1350 1.419 . S
C1349 C1344 1.425 . S
C1349 C1346 1.409 . S
C1349 C1347 1.415 . S
C1350 H1340 0.930 . S
C1350 C1348 1.419 . S
C1350 C1351 1.362 . S
C1351 H1341 0.930 . S
C1351 C1344 1.409 . S
C1351 C1350 1.362 . S
H1352 C1358 0.930 . S
H1353 C1361 0.930 . S
H1354 C1362 0.930 . S
H1355 C1363 0.930 . S
H1356 C1366 0.930 . S
H1357 C1367 0.930 . S
C1358 H1352 0.930 . S
C1358 C1359 1.355 . S
C1358 C1360 1.415 . S
C1359 C1358 1.355 . S
C1359 C1361 1.419 . S
C1360 C1358 1.415 . S
C1360 C1365 1.425 . S
C1360 C1367 1.409 . S
C1361 H1353 0.930 . S
C1361 C1359 1.419 . S
C1361 C1362 1.362 . S
C1362 H1354 0.930 . S
C1362 C1361 1.362 . S
C1362 C1365 1.409 . S
C1363 H1355 0.930 . S
C1363 C1364 1.355 . S
C1363 C1365 1.415 . S
C1364 C1363 1.355 . S
C1364 C1366 1.419 . S
C1365 C1360 1.425 . S
C1365 C1362 1.409 . S
C1365 C1363 1.415 . S
C1366 H1356 0.930 . S
C1366 C1364 1.419 . S
C1366 C1367 1.362 . S
C1367 H1357 0.930 . S
C1367 C1360 1.409 . S
C1367 C1366 1.362 . S
H1368 C1374 0.930 . S
H1369 C1377 0.930 . S
H1370 C1378 0.930 . S
H1371 C1379 0.930 . S
H1372 C1382 0.930 . S
H1373 C1383 0.930 . S
C1374 H1368 0.930 . S
C1374 C1375 1.355 . S
C1374 C1376 1.415 . S
C1375 C1374 1.355 . S
C1375 C1377 1.419 . S
C1376 C1374 1.415 . S
C1376 C1381 1.425 . S
C1376 C1383 1.409 . S
C1377 H1369 0.930 . S
C1377 C1375 1.419 . S
C1377 C1378 1.362 . S
C1378 H1370 0.930 . S
C1378 C1377 1.362 . S
C1378 C1381 1.409 . S
C1379 H1371 0.930 . S
C1379 C1380 1.355 . S
C1379 C1381 1.415 . S
C1380 C1379 1.355 . S
C1380 C1382 1.419 . S
C1381 C1376 1.425 . S
C1381 C1378 1.409 . S
C1381 C1379 1.415 . S
C1382 H1372 0.930 . S
C1382 C1380 1.419 . S
C1382 C1383 1.362 . S
C1383 H1373 0.930 . S
C1383 C1376 1.409 . S
C1383 C1382 1.362 . S
H1384 C1390 0.930 . S
H1385 C1393 0.930 . S
H1386 C1394 0.930 . S
H1387 C1395 0.930 . S
H1388 C1398 0.930 . S
H1389 C1399 0.930 . S
C1390 H1384 0.930 . S
C1390 C1391 1.355 . S
C1390 C1392 1.415 . S
C1391 C1390 1.355 . S
C1391 C1393 1.419 . S
C1392 C1390 1.415 . S
C1392 C1397 1.425 . S
C1392 C1399 1.409 . S
C1393 H1385 0.930 . S
C1393 C1391 1.419 . S
C1393 C1394 1.362 . S
C1394 H1386 0.930 . S
C1394 C1393 1.362 . S
C1394 C1397 1.409 . S
C1395 H1387 0.930 . S
C1395 C1396 1.355 . S
C1395 C1397 1.415 . S
C1396 C1395 1.355 . S
C1396 C1398 1.419 . S
C1397 C1392 1.425 . S
C1397 C1394 1.409 . S
C1397 C1395 1.415 . S
C1398 H1388 0.930 . S
C1398 C1396 1.419 . S
C1398 C1399 1.362 . S
C1399 H1389 0.930 . S
C1399 C1392 1.409 . S
C1399 C1398 1.362 . S
H1400 C1406 0.930 . S
H1401 C1409 0.930 . S
H1402 C1410 0.930 . S
H1403 C1411 0.930 . S
H1404 C1414 0.930 . S
H1405 C1415 0.930 . S
C1406 H1400 0.930 . S
C1406 C1407 1.355 . S
C1406 C1408 1.415 . S
C1407 C1406 1.355 . S
C1407 C1409 1.419 . S
C1408 C1406 1.415 . S
C1408 C1413 1.425 . S
C1408 C1415 1.409 . S
C1409 H1401 0.930 . S
C1409 C1407 1.419 . S
C1409 C1410 1.362 . S
C1410 H1402 0.930 . S
C1410 C1409 1.362 . S
C1410 C1413 1.409 . S
C1411 H1403 0.930 . S
C1411 C1412 1.355 . S
C1411 C1413 1.415 . S
C1412 C1411 1.355 . S
C1412 C1414 1.419 . S
C1413 C1408 1.425 . S
C1413 C1410 1.409 . S
C1413 C1411 1.415 . S
C1414 H1404 0.930 . S
C1414 C1412 1.419 . S
C1414 C1415 1.362 . S
C1415 H1405 0.930 . S
C1415 C1408 1.409 . S
C1415 C1414 1.362 . S
H1416 C1422 0.930 . S
H1417 C1425 0.930 . S
H1418 C1426 0.930 . S
H1419 C1427 0.930 . S
H1420 C1430 0.930 . S
H1421 C1431 0.930 . S
C1422 H1416 0.930 . S
C1422 C1423 1.355 . S
C1422 C1424 1.415 . S
C1423 C1422 1.355 . S
C1423 C1425 1.419 . S
C1424 C1422 1.415 . S
C1424 C1429 1.425 . S
C1424 C1431 1.409 . S
C1425 H1417 0.930 . S
C1425 C1423 1.419 . S
C1425 C1426 1.362 . S
C1426 H1418 0.930 . S
C1426 C1425 1.362 . S
C1426 C1429 1.409 . S
C1427 H1419 0.930 . S
C1427 C1428 1.355 . S
C1427 C1429 1.415 . S
C1428 C1427 1.355 . S
C1428 C1430 1.419 . S
C1429 C1424 1.425 . S
C1429 C1426 1.409 . S
C1429 C1427 1.415 . S
C1430 H1420 0.930 . S
C1430 C1428 1.419 . S
C1430 C1431 1.362 . S
C1431 H1421 0.930 . S
C1431 C1424 1.409 . S
C1431 C1430 1.362 . S
H1432 C1438 0.930 . S
H1433 C1441 0.930 . S
H1434 C1442 0.930 . S
H1435 C1443 0.930 . S
H1436 C1446 0.946 . S
H1437 C1447 0.930 . S
C1438 H1432 0.930 . S
C1438 C1439 1.355 1_655 S
C1438 C1440 1.415 . S
C1439 C1438 1.355 1_455 S
C1439 C1441 1.419 . S
C1440 C1438 1.415 . S
C1440 C1445 1.425 1_655 S
C1440 C1447 1.409 . S
C1441 H1433 0.930 . S
C1441 C1439 1.419 . S
C1441 C1442 1.362 . S
C1442 H1434 0.930 . S
C1442 C1441 1.362 . S
C1442 C1445 1.409 . S
C1443 H1435 0.930 . S
C1443 C1444 1.355 . S
C1443 C1445 1.415 . S
C1444 C1443 1.355 . S
C1444 C1446 1.419 1_455 S
C1445 C1440 1.425 1_455 S
C1445 C1442 1.409 . S
C1445 C1443 1.415 . S
C1446 H1436 0.946 . S
C1446 C1444 1.419 1_655 S
C1446 C1447 1.362 . S
C1447 H1437 0.930 . S
C1447 C1440 1.409 . S
C1447 C1446 1.362 . S
H1448 C1454 0.930 . S
H1449 C1457 0.930 . S
H1450 C1458 0.930 . S
H1451 C1459 0.930 . S
H1452 C1462 0.930 . S
H1453 C1463 0.930 . S
C1454 H1448 0.930 . S
C1454 C1455 1.355 . S
C1454 C1456 1.415 . S
C1455 C1454 1.355 . S
C1455 C1457 1.419 . S
C1456 C1454 1.415 . S
C1456 C1461 1.425 . S
C1456 C1463 1.409 . S
C1457 H1449 0.930 . S
C1457 C1455 1.419 . S
C1457 C1458 1.362 . S
C1458 H1450 0.930 . S
C1458 C1457 1.362 . S
C1458 C1461 1.409 . S
C1459 H1451 0.930 . S
C1459 C1460 1.355 . S
C1459 C1461 1.415 . S
C1460 C1459 1.355 . S
C1460 C1462 1.419 . S
C1461 C1456 1.425 . S
C1461 C1458 1.409 . S
C1461 C1459 1.415 . S
C1462 H1452 0.930 . S
C1462 C1460 1.419 . S
C1462 C1463 1.362 . S
C1463 H1453 0.930 . S
C1463 C1456 1.409 . S
C1463 C1462 1.362 . S
H1464 C1470 0.930 . S
H1465 C1473 0.930 . S
H1466 C1474 0.930 . S
H1467 C1475 0.930 . S
H1468 C1478 0.930 . S
H1469 C1479 0.930 . S
C1470 H1464 0.930 . S
C1470 C1471 1.355 . S
C1470 C1472 1.415 . S
C1471 C1470 1.355 . S
C1471 C1473 1.419 . S
C1472 C1470 1.415 . S
C1472 C1477 1.425 . S
C1472 C1479 1.409 . S
C1473 H1465 0.930 . S
C1473 C1471 1.419 . S
C1473 C1474 1.362 . S
C1474 H1466 0.930 . S
C1474 C1473 1.362 . S
C1474 C1477 1.409 . S
C1475 H1467 0.930 . S
C1475 C1476 1.355 . S
C1475 C1477 1.415 . S
C1476 C1475 1.355 . S
C1476 C1478 1.419 . S
C1477 C1472 1.425 . S
C1477 C1474 1.409 . S
C1477 C1475 1.415 . S
C1478 H1468 0.930 . S
C1478 C1476 1.419 . S
C1478 C1479 1.362 . S
C1479 H1469 0.930 . S
C1479 C1472 1.409 . S
C1479 C1478 1.362 . S
H1480 C1486 0.930 . S
H1481 C1489 0.930 . S
H1482 C1490 0.930 . S
H1483 C1491 0.930 . S
H1484 C1494 0.930 . S
H1485 C1495 0.930 . S
C1486 H1480 0.930 . S
C1486 C1487 1.355 . S
C1486 C1488 1.415 . S
C1487 C1486 1.355 . S
C1487 C1489 1.419 . S
C1488 C1486 1.415 . S
C1488 C1493 1.425 . S
C1488 C1495 1.409 . S
C1489 H1481 0.930 . S
C1489 C1487 1.419 . S
C1489 C1490 1.362 . S
C1490 H1482 0.930 . S
C1490 C1489 1.362 . S
C1490 C1493 1.409 . S
C1491 H1483 0.930 . S
C1491 C1492 1.355 . S
C1491 C1493 1.415 . S
C1492 C1491 1.355 . S
C1492 C1494 1.419 . S
C1493 C1488 1.425 . S
C1493 C1490 1.409 . S
C1493 C1491 1.415 . S
C1494 H1484 0.930 . S
C1494 C1492 1.419 . S
C1494 C1495 1.362 . S
C1495 H1485 0.930 . S
C1495 C1488 1.409 . S
C1495 C1494 1.362 . S
H1496 C1502 0.930 . S
H1497 C1505 0.930 . S
H1498 C1506 0.930 . S
H1499 C1507 0.936 . S
H1500 C1510 0.930 . S
H1501 C1511 0.930 . S
C1502 H1496 0.930 . S
C1502 C1503 1.355 . S
C1502 C1504 1.415 . S
C1503 C1502 1.355 . S
C1503 C1505 1.419 1_455 S
C1504 C1502 1.415 . S
C1504 C1509 1.424 . S
C1504 C1511 1.409 . S
C1505 H1497 0.930 . S
C1505 C1503 1.419 1_655 S
C1505 C1506 1.362 . S
C1506 H1498 0.930 . S
C1506 C1505 1.362 . S
C1506 C1509 1.411 1_655 S
C1507 H1499 0.936 . S
C1507 C1508 1.346 1_655 S
C1507 C1509 1.417 1_655 S
C1508 C1507 1.346 1_455 S
C1508 C1510 1.419 . S
C1509 C1504 1.424 . S
C1509 C1506 1.411 1_455 S
C1509 C1507 1.417 1_455 S
C1510 H1500 0.930 . S
C1510 C1508 1.419 . S
C1510 C1511 1.362 . S
C1511 H1501 0.930 . S
C1511 C1504 1.409 . S
C1511 C1510 1.362 . S
H1512 C1518 0.930 . S
H1513 C1521 0.930 . S
H1514 C1522 0.930 . S
H1515 C1523 0.930 . S
H1516 C1526 0.930 . S
H1517 C1527 0.930 . S
C1518 H1512 0.930 . S
C1518 C1519 1.355 . S
C1518 C1520 1.415 . S
C1519 C1518 1.355 . S
C1519 C1521 1.419 . S
C1520 C1518 1.415 . S
C1520 C1525 1.425 . S
C1520 C1527 1.409 . S
C1521 H1513 0.930 . S
C1521 C1519 1.419 . S
C1521 C1522 1.362 . S
C1522 H1514 0.930 . S
C1522 C1521 1.362 . S
C1522 C1525 1.409 . S
C1523 H1515 0.930 . S
C1523 C1524 1.355 . S
C1523 C1525 1.415 . S
C1524 C1523 1.355 . S
C1524 C1526 1.419 . S
C1525 C1520 1.425 . S
C1525 C1522 1.409 . S
C1525 C1523 1.415 . S
C1526 H1516 0.930 . S
C1526 C1524 1.419 . S
C1526 C1527 1.362 . S
C1527 H1517 0.930 . S
C1527 C1520 1.409 . S
C1527 C1526 1.362 . S
H1528 C1534 0.930 . S
H1529 C1537 0.930 . S
H1530 C1538 0.930 . S
H1531 C1539 0.930 . S
H1532 C1542 0.930 . S
H1533 C1543 0.930 . S
C1534 H1528 0.930 . S
C1534 C1535 1.355 . S
C1534 C1536 1.415 . S
C1535 C1534 1.355 . S
C1535 C1537 1.419 . S
C1536 C1534 1.415 . S
C1536 C1541 1.425 . S
C1536 C1543 1.409 . S
C1537 H1529 0.930 . S
C1537 C1535 1.419 . S
C1537 C1538 1.362 . S
C1538 H1530 0.930 . S
C1538 C1537 1.362 . S
C1538 C1541 1.409 . S
C1539 H1531 0.930 . S
C1539 C1540 1.355 . S
C1539 C1541 1.415 . S
C1540 C1539 1.355 . S
C1540 C1542 1.419 . S
C1541 C1536 1.425 . S
C1541 C1538 1.409 . S
C1541 C1539 1.415 . S
C1542 H1532 0.930 . S
C1542 C1540 1.419 . S
C1542 C1543 1.362 . S
C1543 H1533 0.930 . S
C1543 C1536 1.409 . S
C1543 C1542 1.362 . S
H1544 C1550 0.930 . S
H1545 C1553 0.930 . S
H1546 C1554 0.930 . S
H1547 C1555 0.930 . S
H1548 C1558 0.930 . S
H1549 C1559 0.930 . S
C1550 H1544 0.930 . S
C1550 C1551 1.355 . S
C1550 C1552 1.415 . S
C1551 C1550 1.355 . S
C1551 C1553 1.419 . S
C1552 C1550 1.415 . S
C1552 C1557 1.425 . S
C1552 C1559 1.409 . S
C1553 H1545 0.930 . S
C1553 C1551 1.419 . S
C1553 C1554 1.362 . S
C1554 H1546 0.930 . S
C1554 C1553 1.362 . S
C1554 C1557 1.409 . S
C1555 H1547 0.930 . S
C1555 C1556 1.355 . S
C1555 C1557 1.415 . S
C1556 C1555 1.355 . S
C1556 C1558 1.419 . S
C1557 C1552 1.425 . S
C1557 C1554 1.409 . S
C1557 C1555 1.415 . S
C1558 H1548 0.930 . S
C1558 C1556 1.419 . S
C1558 C1559 1.362 . S
C1559 H1549 0.930 . S
C1559 C1552 1.409 . S
C1559 C1558 1.362 . S
H1560 C1566 0.930 . S
H1561 C1569 0.930 . S
H1562 C1570 0.930 . S
H1563 C1571 0.930 . S
H1564 C1574 0.930 . S
H1565 C1575 0.930 . S
C1566 H1560 0.930 . S
C1566 C1567 1.355 . S
C1566 C1568 1.415 . S
C1567 C1566 1.355 . S
C1567 C1569 1.419 . S
C1568 C1566 1.415 . S
C1568 C1573 1.425 . S
C1568 C1575 1.409 . S
C1569 H1561 0.930 . S
C1569 C1567 1.419 . S
C1569 C1570 1.362 . S
C1570 H1562 0.930 . S
C1570 C1569 1.362 . S
C1570 C1573 1.409 . S
C1571 H1563 0.930 . S
C1571 C1572 1.355 . S
C1571 C1573 1.415 . S
C1572 C1571 1.355 . S
C1572 C1574 1.419 . S
C1573 C1568 1.425 . S
C1573 C1570 1.409 . S
C1573 C1571 1.415 . S
C1574 H1564 0.930 . S
C1574 C1572 1.419 . S
C1574 C1575 1.362 . S
C1575 H1565 0.930 . S
C1575 C1568 1.409 . S
C1575 C1574 1.362 . S
H1576 C1582 0.930 . S
H1577 C1585 0.930 . S
H1578 C1586 0.930 . S
H1579 C1587 0.930 . S
H1580 C1590 0.930 . S
H1581 C1591 0.930 . S
C1582 H1576 0.930 . S
C1582 C1583 1.355 . S
C1582 C1584 1.415 . S
C1583 C1582 1.355 . S
C1583 C1585 1.419 . S
C1584 C1582 1.415 . S
C1584 C1589 1.425 . S
C1584 C1591 1.409 . S
C1585 H1577 0.930 . S
C1585 C1583 1.419 . S
C1585 C1586 1.362 . S
C1586 H1578 0.930 . S
C1586 C1585 1.362 . S
C1586 C1589 1.409 . S
C1587 H1579 0.930 . S
C1587 C1588 1.355 . S
C1587 C1589 1.415 . S
C1588 C1587 1.355 . S
C1588 C1590 1.419 . S
C1589 C1584 1.425 . S
C1589 C1586 1.409 . S
C1589 C1587 1.415 . S
C1590 H1580 0.930 . S
C1590 C1588 1.419 . S
C1590 C1591 1.362 . S
C1591 H1581 0.930 . S
C1591 C1584 1.409 . S
C1591 C1590 1.362 . S
H1592 C1598 0.930 . S
H1593 C1601 0.930 . S
H1594 C1602 0.930 . S
H1595 C1603 0.930 . S
H1596 C1606 0.930 . S
H1597 C1607 0.930 . S
C1598 H1592 0.930 . S
C1598 C1599 1.355 . S
C1598 C1600 1.415 . S
C1599 C1598 1.355 . S
C1599 C1601 1.419 . S
C1600 C1598 1.415 . S
C1600 C1605 1.425 . S
C1600 C1607 1.409 . S
C1601 H1593 0.930 . S
C1601 C1599 1.419 . S
C1601 C1602 1.362 . S
C1602 H1594 0.930 . S
C1602 C1601 1.362 . S
C1602 C1605 1.409 . S
C1603 H1595 0.930 . S
C1603 C1604 1.355 . S
C1603 C1605 1.415 . S
C1604 C1603 1.355 . S
C1604 C1606 1.419 . S
C1605 C1600 1.425 . S
C1605 C1602 1.409 . S
C1605 C1603 1.415 . S
C1606 H1596 0.930 . S
C1606 C1604 1.419 . S
C1606 C1607 1.362 . S
C1607 H1597 0.930 . S
C1607 C1600 1.409 . S
C1607 C1606 1.362 . S
H1608 C1614 0.930 . S
H1609 C1617 0.930 . S
H1610 C1618 0.930 . S
H1611 C1619 0.930 . S
H1612 C1622 0.930 . S
H1613 C1623 0.930 . S
C1614 H1608 0.930 . S
C1614 C1615 1.355 . S
C1614 C1616 1.415 . S
C1615 C1614 1.355 . S
C1615 C1617 1.419 . S
C1616 C1614 1.415 . S
C1616 C1621 1.425 . S
C1616 C1623 1.409 . S
C1617 H1609 0.930 . S
C1617 C1615 1.419 . S
C1617 C1618 1.362 . S
C1618 H1610 0.930 . S
C1618 C1617 1.362 . S
C1618 C1621 1.409 . S
C1619 H1611 0.930 . S
C1619 C1620 1.355 . S
C1619 C1621 1.415 . S
C1620 C1619 1.355 . S
C1620 C1622 1.419 . S
C1621 C1616 1.425 . S
C1621 C1618 1.409 . S
C1621 C1619 1.415 . S
C1622 H1612 0.930 . S
C1622 C1620 1.419 . S
C1622 C1623 1.362 . S
C1623 H1613 0.930 . S
C1623 C1616 1.409 . S
C1623 C1622 1.362 . S
H1624 C1630 0.930 . S
H1625 C1633 0.930 . S
H1626 C1634 0.930 . S
H1627 C1635 0.930 . S
H1628 C1638 0.930 . S
H1629 C1639 0.930 . S
C1630 H1624 0.930 . S
C1630 C1631 1.355 . S
C1630 C1632 1.415 . S
C1631 C1630 1.355 . S
C1631 C1633 1.419 . S
C1632 C1630 1.415 . S
C1632 C1637 1.425 . S
C1632 C1639 1.409 . S
C1633 H1625 0.930 . S
C1633 C1631 1.419 . S
C1633 C1634 1.362 . S
C1634 H1626 0.930 . S
C1634 C1633 1.362 . S
C1634 C1637 1.409 . S
C1635 H1627 0.930 . S
C1635 C1636 1.355 . S
C1635 C1637 1.415 . S
C1636 C1635 1.355 . S
C1636 C1638 1.419 . S
C1637 C1632 1.425 . S
C1637 C1634 1.409 . S
C1637 C1635 1.415 . S
C1638 H1628 0.930 . S
C1638 C1636 1.419 . S
C1638 C1639 1.362 . S
C1639 H1629 0.930 . S
C1639 C1632 1.409 . S
C1639 C1638 1.362 . S
H1640 C1646 0.930 . S
H1641 C1649 0.930 . S
H1642 C1650 0.930 . S
H1643 C1651 0.930 . S
H1644 C1654 0.930 . S
H1645 C1655 0.930 . S
C1646 H1640 0.930 . S
C1646 C1647 1.355 . S
C1646 C1648 1.415 . S
C1647 C1646 1.355 . S
C1647 C1649 1.419 . S
C1648 C1646 1.415 . S
C1648 C1653 1.425 . S
C1648 C1655 1.409 . S
C1649 H1641 0.930 . S
C1649 C1647 1.419 . S
C1649 C1650 1.362 . S
C1650 H1642 0.930 . S
C1650 C1649 1.362 . S
C1650 C1653 1.409 . S
C1651 H1643 0.930 . S
C1651 C1652 1.355 . S
C1651 C1653 1.415 . S
C1652 C1651 1.355 . S
C1652 C1654 1.419 . S
C1653 C1648 1.425 . S
C1653 C1650 1.409 . S
C1653 C1651 1.415 . S
C1654 H1644 0.930 . S
C1654 C1652 1.419 . S
C1654 C1655 1.362 . S
C1655 H1645 0.930 . S
C1655 C1648 1.409 . S
C1655 C1654 1.362 . S
H1656 C1662 0.930 . S
H1657 C1665 0.930 . S
H1658 C1666 0.930 . S
H1659 C1667 0.930 . S
H1660 C1670 0.930 . S
H1661 C1671 0.930 . S
C1662 H1656 0.930 . S
C1662 C1663 1.355 . S
C1662 C1664 1.415 . S
C1663 C1662 1.355 . S
C1663 C1665 1.419 . S
C1664 C1662 1.415 . S
C1664 C1669 1.425 . S
C1664 C1671 1.409 . S
C1665 H1657 0.930 . S
C1665 C1663 1.419 . S
C1665 C1666 1.362 . S
C1666 H1658 0.930 . S
C1666 C1665 1.362 . S
C1666 C1669 1.409 . S
C1667 H1659 0.930 . S
C1667 C1668 1.355 . S
C1667 C1669 1.415 . S
C1668 C1667 1.355 . S
C1668 C1670 1.419 . S
C1669 C1664 1.425 . S
C1669 C1666 1.409 . S
C1669 C1667 1.415 . S
C1670 H1660 0.930 . S
C1670 C1668 1.419 . S
C1670 C1671 1.362 . S
C1671 H1661 0.930 . S
C1671 C1664 1.409 . S
C1671 C1670 1.362 . S
H1672 C1678 0.930 . S
H1673 C1681 0.930 . S
H1674 C1682 0.930 . S
H1675 C1683 0.930 . S
H1676 C1686 0.930 . S
H1677 C1687 0.930 . S
C1678 H1672 0.930 . S
C1678 C1679 1.355 . S
C1678 C1680 1.415 . S
C1679 C1678 1.355 . S
C1679 C1681 1.419 . S
C1680 C1678 1.415 . S
C1680 C1685 1.425 . S
C1680 C1687 1.409 . S
C1681 H1673 0.930 . S
C1681 C1679 1.419 . S
C1681 C1682 1.362 . S
C1682 H1674 0.930 . S
C1682 C1681 1.362 . S
C1682 C1685 1.409 . S
C1683 H1675 0.930 . S
C1683 C1684 1.355 . S
C1683 C1685 1.415 . S
C1684 C1683 1.355 . S
C1684 C1686 1.419 . S
C1685 C1680 1.425 . S
C1685 C1682 1.409 . S
C1685 C1683 1.415 . S
C1686 H1676 0.930 . S
C1686 C1684 1.419 . S
C1686 C1687 1.362 . S
C1687 H1677 0.930 . S
C1687 C1680 1.409 . S
C1687 C1686 1.362 . S
H1688 C1694 0.930 . S
H1689 C1697 0.930 . S
H1690 C1698 0.930 . S
H1691 C1699 0.930 . S
H1692 C1702 0.930 . S
H1693 C1703 0.930 . S
C1694 H1688 0.930 . S
C1694 C1695 1.355 . S
C1694 C1696 1.415 . S
C1695 C1694 1.355 . S
C1695 C1697 1.419 . S
C1696 C1694 1.415 . S
C1696 C1701 1.425 . S
C1696 C1703 1.409 . S
C1697 H1689 0.930 . S
C1697 C1695 1.419 . S
C1697 C1698 1.362 . S
C1698 H1690 0.930 . S
C1698 C1697 1.362 . S
C1698 C1701 1.409 . S
C1699 H1691 0.930 . S
C1699 C1700 1.355 . S
C1699 C1701 1.415 . S
C1700 C1699 1.355 . S
C1700 C1702 1.419 . S
C1701 C1696 1.425 . S
C1701 C1698 1.409 . S
C1701 C1699 1.415 . S
C1702 H1692 0.930 . S
C1702 C1700 1.419 . S
C1702 C1703 1.362 . S
C1703 H1693 0.930 . S
C1703 C1696 1.409 . S
C1703 C1702 1.362 . S
H1704 C1710 0.930 . S
H1705 C1713 0.930 . S
H1706 C1714 0.930 . S
H1707 C1715 0.930 . S
H1708 C1718 0.930 . S
H1709 C1719 0.930 . S
C1710 H1704 0.930 . S
C1710 C1711 1.355 . S
C1710 C1712 1.415 . S
C1711 C1710 1.355 . S
C1711 C1713 1.419 . S
C1712 C1710 1.415 . S
C1712 C1717 1.425 . S
C1712 C1719 1.409 . S
C1713 H1705 0.930 . S
C1713 C1711 1.419 . S
C1713 C1714 1.362 . S
C1714 H1706 0.930 . S
C1714 C1713 1.362 . S
C1714 C1717 1.409 . S
C1715 H1707 0.930 . S
C1715 C1716 1.355 . S
C1715 C1717 1.415 . S
C1716 C1715 1.355 . S
C1716 C1718 1.419 . S
C1717 C1712 1.425 . S
C1717 C1714 1.409 . S
C1717 C1715 1.415 . S
C1718 H1708 0.930 . S
C1718 C1716 1.419 . S
C1718 C1719 1.362 . S
C1719 H1709 0.930 . S
C1719 C1712 1.409 . S
C1719 C1718 1.362 . S
H1720 C1726 0.930 . S
H1721 C1729 0.930 . S
H1722 C1730 0.930 . S
H1723 C1731 0.930 . S
H1724 C1734 0.930 . S
H1725 C1735 0.930 . S
C1726 H1720 0.930 . S
C1726 C1727 1.355 . S
C1726 C1728 1.415 . S
C1727 C1726 1.355 . S
C1727 C1729 1.419 . S
C1728 C1726 1.415 . S
C1728 C1733 1.425 . S
C1728 C1735 1.409 . S
C1729 H1721 0.930 . S
C1729 C1727 1.419 . S
C1729 C1730 1.362 . S
C1730 H1722 0.930 . S
C1730 C1729 1.362 . S
C1730 C1733 1.409 . S
C1731 H1723 0.930 . S
C1731 C1732 1.355 . S
C1731 C1733 1.415 . S
C1732 C1731 1.355 . S
C1732 C1734 1.419 . S
C1733 C1728 1.425 . S
C1733 C1730 1.409 . S
C1733 C1731 1.415 . S
C1734 H1724 0.930 . S
C1734 C1732 1.419 . S
C1734 C1735 1.362 . S
C1735 H1725 0.930 . S
C1735 C1728 1.409 . S
C1735 C1734 1.362 . S
H1736 C1742 0.930 . S
H1737 C1745 0.930 . S
H1738 C1746 0.930 . S
H1739 C1747 0.930 . S
H1740 C1750 0.930 . S
H1741 C1751 0.930 . S
C1742 H1736 0.930 . S
C1742 C1743 1.355 . S
C1742 C1744 1.415 . S
C1743 C1742 1.355 . S
C1743 C1745 1.419 1_554 S
C1744 C1742 1.415 . S
C1744 C1749 1.425 . S
C1744 C1751 1.409 . S
C1745 H1737 0.930 . S
C1745 C1743 1.419 1_556 S
C1745 C1746 1.362 . S
C1746 H1738 0.930 . S
C1746 C1745 1.362 . S
C1746 C1749 1.409 1_556 S
C1747 H1739 0.930 . S
C1747 C1748 1.355 . S
C1747 C1749 1.415 . S
C1748 C1747 1.355 . S
C1748 C1750 1.419 . S
C1749 C1744 1.425 . S
C1749 C1746 1.409 1_554 S
C1749 C1747 1.415 . S
C1750 H1740 0.930 . S
C1750 C1748 1.419 . S
C1750 C1751 1.362 . S
C1751 H1741 0.930 . S
C1751 C1744 1.409 . S
C1751 C1750 1.362 . S
H1752 C1758 0.930 . S
H1753 C1761 0.930 . S
H1754 C1762 0.930 . S
H1755 C1763 0.930 . S
H1756 C1766 0.930 . S
H1757 C1767 0.930 . S
C1758 H1752 0.930 . S
C1758 C1759 1.355 . S
C1758 C1760 1.415 . S
C1759 C1758 1.355 . S
C1759 C1761 1.419 . S
C1760 C1758 1.415 . S
C1760 C1765 1.425 . S
C1760 C1767 1.409 . S
C1761 H1753 0.930 . S
C1761 C1759 1.419 . S
C1761 C1762 1.362 . S
C1762 H1754 0.930 . S
C1762 C1761 1.362 . S
C1762 C1765 1.409 . S
C1763 H1755 0.930 . S
C1763 C1764 1.355 . S
C1763 C1765 1.415 . S
C1764 C1763 1.355 . S
C1764 C1766 1.419 . S
C1765 C1760 1.425 . S
C1765 C1762 1.409 . S
C1765 C1763 1.415 . S
C1766 H1756 0.930 . S
C1766 C1764 1.419 . S
C1766 C1767 1.362 . S
C1767 H1757 0.930 . S
C1767 C1760 1.409 . S
C1767 C1766 1.362 . S
H1768 C1774 0.930 . S
H1769 C1777 0.930 . S
H1770 C1778 0.930 . S
H1771 C1779 0.930 . S
H1772 C1782 0.930 . S
H1773 C1783 0.930 . S
C1774 H1768 0.930 . S
C1774 C1775 1.355 . S
C1774 C1776 1.415 . S
C1775 C1774 1.355 . S
C1775 C1777 1.419 . S
C1776 C1774 1.415 . S
C1776 C1781 1.425 . S
C1776 C1783 1.409 . S
C1777 H1769 0.930 . S
C1777 C1775 1.419 . S
C1777 C1778 1.362 . S
C1778 H1770 0.930 . S
C1778 C1777 1.362 . S
C1778 C1781 1.409 . S
C1779 H1771 0.930 . S
C1779 C1780 1.355 . S
C1779 C1781 1.415 . S
C1780 C1779 1.355 . S
C1780 C1782 1.419 . S
C1781 C1776 1.425 . S
C1781 C1778 1.409 . S
C1781 C1779 1.415 . S
C1782 H1772 0.930 . S
C1782 C1780 1.419 . S
C1782 C1783 1.362 . S
C1783 H1773 0.930 . S
C1783 C1776 1.409 . S
C1783 C1782 1.362 . S
H1784 C1790 0.930 . S
H1785 C1793 0.930 . S
H1786 C1794 0.930 . S
H1787 C1795 0.930 . S
H1788 C1798 0.930 . S
H1789 C1799 0.930 . S
C1790 H1784 0.930 . S
C1790 C1791 1.355 . S
C1790 C1792 1.415 . S
C1791 C1790 1.355 . S
C1791 C1793 1.419 . S
C1792 C1790 1.415 . S
C1792 C1797 1.425 . S
C1792 C1799 1.409 . S
C1793 H1785 0.930 . S
C1793 C1791 1.419 . S
C1793 C1794 1.362 . S
C1794 H1786 0.930 . S
C1794 C1793 1.362 . S
C1794 C1797 1.409 . S
C1795 H1787 0.930 . S
C1795 C1796 1.355 . S
C1795 C1797 1.415 . S
C1796 C1795 1.355 . S
C1796 C1798 1.419 . S
C1797 C1792 1.425 . S
C1797 C1794 1.409 . S
C1797 C1795 1.415 . S
C1798 H1788 0.930 . S
C1798 C1796 1.419 . S
C1798 C1799 1.362 . S
C1799 H1789 0.930 . S
C1799 C1792 1.409 . S
C1799 C1798 1.362 . S
H1800 C1806 0.930 . S
H1801 C1809 0.930 . S
H1802 C1810 0.930 . S
H1803 C1811 0.930 . S
H1804 C1814 0.930 . S
H1805 C1815 0.930 . S
C1806 H1800 0.930 . S
C1806 C1807 1.355 . S
C1806 C1808 1.415 . S
C1807 C1806 1.355 . S
C1807 C1809 1.419 . S
C1808 C1806 1.415 . S
C1808 C1813 1.425 . S
C1808 C1815 1.409 . S
C1809 H1801 0.930 . S
C1809 C1807 1.419 . S
C1809 C1810 1.362 . S
C1810 H1802 0.930 . S
C1810 C1809 1.362 . S
C1810 C1813 1.409 . S
C1811 H1803 0.930 . S
C1811 C1812 1.355 . S
C1811 C1813 1.415 . S
C1812 C1811 1.355 . S
C1812 C1814 1.419 . S
C1813 C1808 1.425 . S
C1813 C1810 1.409 . S
C1813 C1811 1.415 . S
C1814 H1804 0.930 . S
C1814 C1812 1.419 . S
C1814 C1815 1.362 . S
C1815 H1805 0.930 . S
C1815 C1808 1.409 . S
C1815 C1814 1.362 . S
H1816 C1822 0.930 . S
H1817 C1825 0.930 . S
H1818 C1826 0.928 1_655 S
H1819 C1827 0.930 . S
H1820 C1830 0.930 . S
H1821 C1831 0.930 . S
C1822 H1816 0.930 . S
C1822 C1823 1.355 . S
C1822 C1824 1.415 . S
C1823 C1822 1.355 . S
C1823 C1825 1.419 . S
C1824 C1822 1.415 . S
C1824 C1829 1.425 . S
C1824 C1831 1.409 . S
C1825 H1817 0.930 . S
C1825 C1823 1.419 . S
C1825 C1826 1.362 . S
C1826 H1818 0.928 1_455 S
C1826 C1825 1.362 . S
C1826 C1829 1.409 . S
C1827 H1819 0.930 . S
C1827 C1828 1.355 . S
C1827 C1829 1.415 . S
C1828 C1827 1.355 . S
C1828 C1830 1.419 . S
C1829 C1824 1.425 . S
C1829 C1826 1.409 . S
C1829 C1827 1.415 . S
C1830 H1820 0.930 . S
C1830 C1828 1.419 . S
C1830 C1831 1.362 . S
C1831 H1821 0.930 . S
C1831 C1824 1.409 . S
C1831 C1830 1.362 . S
H1832 C1838 0.930 . S
H1833 C1841 0.930 . S
H1834 C1842 0.930 . S
H1835 C1843 0.930 . S
H1836 C1846 0.930 . S
H1837 C1847 0.930 . S
C1838 H1832 0.930 . S
C1838 C1839 1.355 . S
C1838 C1840 1.415 . S
C1839 C1838 1.355 . S
C1839 C1841 1.419 . S
C1840 C1838 1.415 . S
C1840 C1845 1.425 . S
C1840 C1847 1.409 . S
C1841 H1833 0.930 . S
C1841 C1839 1.419 . S
C1841 C1842 1.362 . S
C1842 H1834 0.930 . S
C1842 C1841 1.362 . S
C1842 C1845 1.409 . S
C1843 H1835 0.930 . S
C1843 C1844 1.355 . S
C1843 C1845 1.415 . S
C1844 C1843 1.355 . S
C1844 C1846 1.419 . S
C1845 C1840 1.425 . S
C1845 C1842 1.409 . S
C1845 C1843 1.415 . S
C1846 H1836 0.930 . S
C1846 C1844 1.419 . S
C1846 C1847 1.362 . S
C1847 H1837 0.930 . S
C1847 C1840 1.409 . S
C1847 C1846 1.362 . S
H1848 C1854 0.930 . S
H1849 C1857 0.930 . S
H1850 C1858 0.930 1_554 S
H1851 C1859 0.930 1_554 S
H1852 C1862 0.930 . S
H1853 C1863 0.930 . S
C1854 H1848 0.930 . S
C1854 C1855 1.355 . S
C1854 C1856 1.415 . S
C1855 C1854 1.355 . S
C1855 C1857 1.419 . S
C1856 C1854 1.415 . S
C1856 C1861 1.425 . S
C1856 C1863 1.409 . S
C1857 H1849 0.930 . S
C1857 C1855 1.419 . S
C1857 C1858 1.362 . S
C1858 H1850 0.930 1_556 S
C1858 C1857 1.362 . S
C1858 C1861 1.409 . S
C1859 H1851 0.930 1_556 S
C1859 C1860 1.355 . S
C1859 C1861 1.415 . S
C1860 C1859 1.355 . S
C1860 C1862 1.419 . S
C1861 C1856 1.425 . S
C1861 C1858 1.409 . S
C1861 C1859 1.415 . S
C1862 H1852 0.930 . S
C1862 C1860 1.419 . S
C1862 C1863 1.362 . S
C1863 H1853 0.930 . S
C1863 C1856 1.409 . S
C1863 C1862 1.362 . S
H1864 C1870 0.930 . S
H1865 C1873 0.930 . S
H1866 C1874 0.930 . S
H1867 C1875 0.930 . S
H1868 C1878 0.930 . S
H1869 C1879 0.930 . S
C1870 H1864 0.930 . S
C1870 C1871 1.355 . S
C1870 C1872 1.415 . S
C1871 C1870 1.355 . S
C1871 C1873 1.419 . S
C1872 C1870 1.415 . S
C1872 C1877 1.425 . S
C1872 C1879 1.409 . S
C1873 H1865 0.930 . S
C1873 C1871 1.419 . S
C1873 C1874 1.362 . S
C1874 H1866 0.930 . S
C1874 C1873 1.362 . S
C1874 C1877 1.409 . S
C1875 H1867 0.930 . S
C1875 C1876 1.355 . S
C1875 C1877 1.415 . S
C1876 C1875 1.355 . S
C1876 C1878 1.419 . S
C1877 C1872 1.425 . S
C1877 C1874 1.409 . S
C1877 C1875 1.415 . S
C1878 H1868 0.930 . S
C1878 C1876 1.419 . S
C1878 C1879 1.362 . S
C1879 H1869 0.930 . S
C1879 C1872 1.409 . S
C1879 C1878 1.362 . S
H1880 C1886 0.930 . S
H1881 C1889 0.930 1_655 S
H1882 C1890 0.930 1_655 S
H1883 C1891 0.930 1_655 S
H1884 C1894 0.930 . S
H1885 C1895 0.930 . S
C1886 H1880 0.930 . S
C1886 C1887 1.355 . S
C1886 C1888 1.415 . S
C1887 C1886 1.355 . S
C1887 C1889 1.419 . S
C1888 C1886 1.415 . S
C1888 C1893 1.425 . S
C1888 C1895 1.409 . S
C1889 H1881 0.930 1_455 S
C1889 C1887 1.419 . S
C1889 C1890 1.362 . S
C1890 H1882 0.930 1_455 S
C1890 C1889 1.362 . S
C1890 C1893 1.409 . S
C1891 H1883 0.930 1_455 S
C1891 C1892 1.355 . S
C1891 C1893 1.415 . S
C1892 C1891 1.355 . S
C1892 C1894 1.419 . S
C1893 C1888 1.425 . S
C1893 C1890 1.409 . S
C1893 C1891 1.415 . S
C1894 H1884 0.930 . S
C1894 C1892 1.419 . S
C1894 C1895 1.362 . S
C1895 H1885 0.930 . S
C1895 C1888 1.409 . S
C1895 C1894 1.362 . S
H1896 C1902 0.930 . S
H1897 C1905 0.930 . S
H1898 C1906 0.930 . S
H1899 C1907 0.930 . S
H1900 C1910 0.930 . S
H1901 C1911 0.930 . S
C1902 H1896 0.930 . S
C1902 C1903 1.355 . S
C1902 C1904 1.415 . S
C1903 C1902 1.355 . S
C1903 C1905 1.419 . S
C1904 C1902 1.415 . S
C1904 C1909 1.425 . S
C1904 C1911 1.409 . S
C1905 H1897 0.930 . S
C1905 C1903 1.419 . S
C1905 C1906 1.362 . S
C1906 H1898 0.930 . S
C1906 C1905 1.362 . S
C1906 C1909 1.409 . S
C1907 H1899 0.930 . S
C1907 C1908 1.355 . S
C1907 C1909 1.415 . S
C1908 C1907 1.355 . S
C1908 C1910 1.419 . S
C1909 C1904 1.425 . S
C1909 C1906 1.409 . S
C1909 C1907 1.415 . S
C1910 H1900 0.930 . S
C1910 C1908 1.419 . S
C1910 C1911 1.362 . S
C1911 H1901 0.930 . S
C1911 C1904 1.409 . S
C1911 C1910 1.362 . S
H1912 C1918 0.930 . S
H1913 C1921 0.930 . S
H1914 C1922 0.930 . S
H1915 C1923 0.930 . S
H1916 C1926 0.930 . S
H1917 C1927 0.930 . S
C1918 H1912 0.930 . S
C1918 C1919 1.355 . S
C1918 C1920 1.415 . S
C1919 C1918 1.355 . S
C1919 C1921 1.419 . S
C1920 C1918 1.415 . S
C1920 C1925 1.425 . S
C1920 C1927 1.409 . S
C1921 H1913 0.930 . S
C1921 C1919 1.419 . S
C1921 C1922 1.362 . S
C1922 H1914 0.930 . S
C1922 C1921 1.362 . S
C1922 C1925 1.409 . S
C1923 H1915 0.930 . S
C1923 C1924 1.355 . S
C1923 C1925 1.415 . S
C1924 C1923 1.355 . S
C1924 C1926 1.419 . S
C1925 C1920 1.425 . S
C1925 C1922 1.409 . S
C1925 C1923 1.415 . S
C1926 H1916 0.930 . S
C1926 C1924 1.419 . S
C1926 C1927 1.362 . S
C1927 H1917 0.930 . S
C1927 C1920 1.409 . S
C1927 C1926 1.362 . S
H1928 C1934 0.930 . S
H1929 C1937 0.930 . S
H1930 C1938 0.930 . S
H1931 C1939 0.930 . S
H1932 C1942 0.930 . S
H1933 C1943 0.930 . S
C1934 H1928 0.930 . S
C1934 C1935 1.355 . S
C1934 C1936 1.415 . S
C1935 C1934 1.355 . S
C1935 C1937 1.419 . S
C1936 C1934 1.415 . S
C1936 C1941 1.425 . S
C1936 C1943 1.409 . S
C1937 H1929 0.930 . S
C1937 C1935 1.419 . S
C1937 C1938 1.362 . S
C1938 H1930 0.930 . S
C1938 C1937 1.362 . S
C1938 C1941 1.409 . S
C1939 H1931 0.930 . S
C1939 C1940 1.355 . S
C1939 C1941 1.415 . S
C1940 C1939 1.355 . S
C1940 C1942 1.419 . S
C1941 C1936 1.425 . S
C1941 C1938 1.409 . S
C1941 C1939 1.415 . S
C1942 H1932 0.930 . S
C1942 C1940 1.419 . S
C1942 C1943 1.362 . S
C1943 H1933 0.930 . S
C1943 C1936 1.409 . S
C1943 C1942 1.362 . S
H1944 C1950 0.930 . S
H1945 C1953 0.930 . S
H1946 C1954 0.930 . S
H1947 C1955 0.930 . S
H1948 C1958 0.930 . S
H1949 C1959 0.930 . S
C1950 H1944 0.930 . S
C1950 C1951 1.355 . S
C1950 C1952 1.415 . S
C1951 C1950 1.355 . S
C1951 C1953 1.419 . S
C1952 C1950 1.415 . S
C1952 C1957 1.425 . S
C1952 C1959 1.409 1_655 S
C1953 H1945 0.930 . S
C1953 C1951 1.419 . S
C1953 C1954 1.362 . S
C1954 H1946 0.930 . S
C1954 C1953 1.362 . S
C1954 C1957 1.409 . S
C1955 H1947 0.930 . S
C1955 C1956 1.343 1_655 S
C1955 C1957 1.415 . S
C1956 C1955 1.343 1_455 S
C1956 C1958 1.427 . S
C1957 C1952 1.425 . S
C1957 C1954 1.409 . S
C1957 C1955 1.415 . S
C1958 H1948 0.930 . S
C1958 C1956 1.427 . S
C1958 C1959 1.362 . S
C1959 H1949 0.930 . S
C1959 C1952 1.409 1_455 S
C1959 C1958 1.362 . S
H1960 C1966 0.930 . S
H1961 C1969 0.930 . S
H1962 C1970 0.930 . S
H1963 C1971 0.930 . S
H1964 C1974 0.930 . S
H1965 C1975 0.930 . S
C1966 H1960 0.930 . S
C1966 C1967 1.355 . S
C1966 C1968 1.415 . S
C1967 C1966 1.355 . S
C1967 C1969 1.419 . S
C1968 C1966 1.415 . S
C1968 C1973 1.425 . S
C1968 C1975 1.409 . S
C1969 H1961 0.930 . S
C1969 C1967 1.419 . S
C1969 C1970 1.362 . S
C1970 H1962 0.930 . S
C1970 C1969 1.362 . S
C1970 C1973 1.409 . S
C1971 H1963 0.930 . S
C1971 C1972 1.355 . S
C1971 C1973 1.415 . S
C1972 C1971 1.355 . S
C1972 C1974 1.419 . S
C1973 C1968 1.425 . S
C1973 C1970 1.409 . S
C1973 C1971 1.415 . S
C1974 H1964 0.930 . S
C1974 C1972 1.419 . S
C1974 C1975 1.362 . S
C1975 H1965 0.930 . S
C1975 C1968 1.409 . S
C1975 C1974 1.362 . S
H1976 C1982 0.930 . S
H1977 C1985 0.930 . S
H1978 C1986 0.930 . S
H1979 C1987 0.930 . S
H1980 C1990 0.930 . S
H1981 C1991 0.930 . S
C1982 H1976 0.930 . S
C1982 C1983 1.355 . S
C1982 C1984 1.415 . S
C1983 C1982 1.355 . S
C1983 C1985 1.419 . S
C1984 C1982 1.415 . S
C1984 C1989 1.425 . S
C1984 C1991 1.409 . S
C1985 H1977 0.930 . S
C1985 C1983 1.419 . S
C1985 C1986 1.362 . S
C1986 H1978 0.930 . S
C1986 C1985 1.362 . S
C1986 C1989 1.409 . S
C1987 H1979 0.930 . S
C1987 C1988 1.355 . S
C1987 C1989 1.415 . S
C1988 C1987 1.355 . S
C1988 C1990 1.419 . S
C1989 C1984 1.425 . S
C1989 C1986 1.409 . S
C1989 C1987 1.415 . S
C1990 H1980 0.930 . S
C1990 C1988 1.419 . S
C1990 C1991 1.362 . S
C1991 H1981 0.930 . S
C1991 C1984 1.409 . S
C1991 C1990 1.362 . S
H1992 C1998 0.930 . S
H1993 C2001 0.930 . S
H1994 C2002 0.930 . S
H1995 C2003 0.930 . S
H1996 C2006 0.930 . S
H1997 C2007 0.930 . S
C1998 H1992 0.930 . S
C1998 C1999 1.355 . S
C1998 C2000 1.415 . S
C1999 C1998 1.355 . S
C1999 C2001 1.419 . S
C2000 C1998 1.415 . S
C2000 C2005 1.425 . S
C2000 C2007 1.409 . S
C2001 H1993 0.930 . S
C2001 C1999 1.419 . S
C2001 C2002 1.362 . S
C2002 H1994 0.930 . S
C2002 C2001 1.362 . S
C2002 C2005 1.409 . S
C2003 H1995 0.930 . S
C2003 C2004 1.355 . S
C2003 C2005 1.415 . S
C2004 C2003 1.355 . S
C2004 C2006 1.419 . S
C2005 C2000 1.425 . S
C2005 C2002 1.409 . S
C2005 C2003 1.415 . S
C2006 H1996 0.930 . S
C2006 C2004 1.419 . S
C2006 C2007 1.362 . S
C2007 H1997 0.930 . S
C2007 C2000 1.409 . S
C2007 C2006 1.362 . S
H2008 C2014 0.930 . S
H2009 C2017 0.930 . S
H2010 C2018 0.930 . S
H2011 C2019 0.930 . S
H2012 C2022 0.930 . S
H2013 C2023 0.930 1_455 S
C2014 H2008 0.930 . S
C2014 C2015 1.355 . S
C2014 C2016 1.415 . S
C2015 C2014 1.355 . S
C2015 C2017 1.419 . S
C2016 C2014 1.415 . S
C2016 C2021 1.425 . S
C2016 C2023 1.409 . S
C2017 H2009 0.930 . S
C2017 C2015 1.419 . S
C2017 C2018 1.362 . S
C2018 H2010 0.930 . S
C2018 C2017 1.362 . S
C2018 C2021 1.409 . S
C2019 H2011 0.930 . S
C2019 C2020 1.355 . S
C2019 C2021 1.415 . S
C2020 C2019 1.355 . S
C2020 C2022 1.419 1_655 S
C2021 C2016 1.425 . S
C2021 C2018 1.409 . S
C2021 C2019 1.415 . S
C2022 H2012 0.930 . S
C2022 C2020 1.419 1_455 S
C2022 C2023 1.362 1_455 S
C2023 H2013 0.930 1_655 S
C2023 C2016 1.409 . S
C2023 C2022 1.362 1_655 S
H2024 C2030 0.930 . S
H2025 C2033 0.930 . S
H2026 C2034 0.930 . S
H2027 C2035 0.930 . S
H2028 C2038 0.930 . S
H2029 C2039 0.930 . S
C2030 H2024 0.930 . S
C2030 C2031 1.355 . S
C2030 C2032 1.415 . S
C2031 C2030 1.355 . S
C2031 C2033 1.419 . S
C2032 C2030 1.415 . S
C2032 C2037 1.425 . S
C2032 C2039 1.409 . S
C2033 H2025 0.930 . S
C2033 C2031 1.419 . S
C2033 C2034 1.362 . S
C2034 H2026 0.930 . S
C2034 C2033 1.362 . S
C2034 C2037 1.409 . S
C2035 H2027 0.930 . S
C2035 C2036 1.355 . S
C2035 C2037 1.415 . S
C2036 C2035 1.355 . S
C2036 C2038 1.419 . S
C2037 C2032 1.425 . S
C2037 C2034 1.409 . S
C2037 C2035 1.415 . S
C2038 H2028 0.930 . S
C2038 C2036 1.419 . S
C2038 C2039 1.362 . S
C2039 H2029 0.930 . S
C2039 C2032 1.409 . S
C2039 C2038 1.362 . S
H2040 C2046 0.930 . S
H2041 C2049 0.930 . S
H2042 C2050 0.930 . S
H2043 C2051 0.930 . S
H2044 C2054 0.930 . S
H2045 C2055 0.930 . S
C2046 H2040 0.930 . S
C2046 C2047 1.355 . S
C2046 C2048 1.415 . S
C2047 C2046 1.355 . S
C2047 C2049 1.419 . S
C2048 C2046 1.415 . S
C2048 C2053 1.425 . S
C2048 C2055 1.409 . S
C2049 H2041 0.930 . S
C2049 C2047 1.419 . S
C2049 C2050 1.362 . S
C2050 H2042 0.930 . S
C2050 C2049 1.362 . S
C2050 C2053 1.409 . S
C2051 H2043 0.930 . S
C2051 C2052 1.355 . S
C2051 C2053 1.415 . S
C2052 C2051 1.355 . S
C2052 C2054 1.419 . S
C2053 C2048 1.425 . S
C2053 C2050 1.409 . S
C2053 C2051 1.415 . S
C2054 H2044 0.930 . S
C2054 C2052 1.419 . S
C2054 C2055 1.362 . S
C2055 H2045 0.930 . S
C2055 C2048 1.409 . S
C2055 C2054 1.362 . S
H2056 C2062 0.930 . S
H2057 C2065 0.930 . S
H2058 C2066 0.930 . S
H2059 C2067 0.930 . S
H2060 C2070 0.930 . S
H2061 C2071 0.930 1_545 S
C2062 H2056 0.930 . S
C2062 C2063 1.355 . S
C2062 C2064 1.415 . S
C2063 C2062 1.355 . S
C2063 C2065 1.419 . S
C2064 C2062 1.415 . S
C2064 C2069 1.425 . S
C2064 C2071 1.409 . S
C2065 H2057 0.930 . S
C2065 C2063 1.419 . S
C2065 C2066 1.362 . S
C2066 H2058 0.930 . S
C2066 C2065 1.362 . S
C2066 C2069 1.409 . S
C2067 H2059 0.930 . S
C2067 C2068 1.355 . S
C2067 C2069 1.415 . S
C2068 C2067 1.355 . S
C2068 C2070 1.419 1_565 S
C2069 C2064 1.425 . S
C2069 C2066 1.409 . S
C2069 C2067 1.415 . S
C2070 H2060 0.930 . S
C2070 C2068 1.419 1_545 S
C2070 C2071 1.362 1_545 S
C2071 H2061 0.930 1_565 S
C2071 C2064 1.409 . S
C2071 C2070 1.362 1_565 S
H2072 C2078 0.930 . S
H2073 C2081 0.930 . S
H2074 C2082 0.930 . S
H2075 C2083 0.930 . S
H2076 C2086 0.930 . S
H2077 C2087 0.930 . S
C2078 H2072 0.930 . S
C2078 C2079 1.355 . S
C2078 C2080 1.415 . S
C2079 C2078 1.355 . S
C2079 C2081 1.419 . S
C2080 C2078 1.415 . S
C2080 C2085 1.425 . S
C2080 C2087 1.409 . S
C2081 H2073 0.930 . S
C2081 C2079 1.419 . S
C2081 C2082 1.362 . S
C2082 H2074 0.930 . S
C2082 C2081 1.362 . S
C2082 C2085 1.409 . S
C2083 H2075 0.930 . S
C2083 C2084 1.355 . S
C2083 C2085 1.415 . S
C2084 C2083 1.355 . S
C2084 C2086 1.419 . S
C2085 C2080 1.425 . S
C2085 C2082 1.409 . S
C2085 C2083 1.415 . S
C2086 H2076 0.930 . S
C2086 C2084 1.419 . S
C2086 C2087 1.362 . S
C2087 H2077 0.930 . S
C2087 C2080 1.409 . S
C2087 C2086 1.362 . S
H2088 C2094 0.930 . S
H2089 C2097 0.930 1_556 S
H2090 C2098 0.930 . S
H2091 C2099 0.930 1_556 S
H2092 C2102 0.930 . S
H2093 C2103 0.930 . S
C2094 H2088 0.930 . S
C2094 C2095 1.355 . S
C2094 C2096 1.415 . S
C2095 C2094 1.355 . S
C2095 C2097 1.419 . S
C2096 C2094 1.415 . S
C2096 C2101 1.425 . S
C2096 C2103 1.409 . S
C2097 H2089 0.930 1_554 S
C2097 C2095 1.419 . S
C2097 C2098 1.362 1_554 S
C2098 H2090 0.930 . S
C2098 C2097 1.362 1_556 S
C2098 C2101 1.409 1_556 S
C2099 H2091 0.930 1_554 S
C2099 C2100 1.355 . S
C2099 C2101 1.415 . S
C2100 C2099 1.355 . S
C2100 C2102 1.419 . S
C2101 C2096 1.425 . S
C2101 C2098 1.409 1_554 S
C2101 C2099 1.415 . S
C2102 H2092 0.930 . S
C2102 C2100 1.419 . S
C2102 C2103 1.362 . S
C2103 H2093 0.930 . S
C2103 C2096 1.409 . S
C2103 C2102 1.362 . S
H2104 C2110 0.930 . S
H2105 C2113 0.930 . S
H2106 C2114 0.930 . S
H2107 C2115 0.930 . S
H2108 C2118 0.930 . S
H2109 C2119 0.930 . S
C2110 H2104 0.930 . S
C2110 C2111 1.355 . S
C2110 C2112 1.415 . S
C2111 C2110 1.355 . S
C2111 C2113 1.419 . S
C2112 C2110 1.415 . S
C2112 C2117 1.425 . S
C2112 C2119 1.409 . S
C2113 H2105 0.930 . S
C2113 C2111 1.419 . S
C2113 C2114 1.362 . S
C2114 H2106 0.930 . S
C2114 C2113 1.362 . S
C2114 C2117 1.409 . S
C2115 H2107 0.930 . S
C2115 C2116 1.355 . S
C2115 C2117 1.415 . S
C2116 C2115 1.355 . S
C2116 C2118 1.419 . S
C2117 C2112 1.425 . S
C2117 C2114 1.409 . S
C2117 C2115 1.415 . S
C2118 H2108 0.930 . S
C2118 C2116 1.419 . S
C2118 C2119 1.362 . S
C2119 H2109 0.930 . S
C2119 C2112 1.409 . S
C2119 C2118 1.362 . S
H2120 C2126 0.930 . S
H2121 C2129 0.930 . S
H2122 C2130 0.930 . S
H2123 C2131 0.930 . S
H2124 C2134 0.930 . S
H2125 C2135 0.930 . S
C2126 H2120 0.930 . S
C2126 C2127 1.355 . S
C2126 C2128 1.415 . S
C2127 C2126 1.355 . S
C2127 C2129 1.419 . S
C2128 C2126 1.415 . S
C2128 C2133 1.425 . S
C2128 C2135 1.409 . S
C2129 H2121 0.930 . S
C2129 C2127 1.419 . S
C2129 C2130 1.362 . S
C2130 H2122 0.930 . S
C2130 C2129 1.362 . S
C2130 C2133 1.409 . S
C2131 H2123 0.930 . S
C2131 C2132 1.355 . S
C2131 C2133 1.415 . S
C2132 C2131 1.355 . S
C2132 C2134 1.419 . S
C2133 C2128 1.425 . S
C2133 C2130 1.409 . S
C2133 C2131 1.415 . S
C2134 H2124 0.930 . S
C2134 C2132 1.419 . S
C2134 C2135 1.362 . S
C2135 H2125 0.930 . S
C2135 C2128 1.409 . S
C2135 C2134 1.362 . S
H2136 C2142 0.930 . S
H2137 C2145 0.930 . S
H2138 C2146 0.930 . S
H2139 C2147 0.930 . S
H2140 C2150 0.930 . S
H2141 C2151 0.930 . S
C2142 H2136 0.930 . S
C2142 C2143 1.355 . S
C2142 C2144 1.415 . S
C2143 C2142 1.355 . S
C2143 C2145 1.419 . S
C2144 C2142 1.415 . S
C2144 C2149 1.425 . S
C2144 C2151 1.409 . S
C2145 H2137 0.930 . S
C2145 C2143 1.419 . S
C2145 C2146 1.362 . S
C2146 H2138 0.930 . S
C2146 C2145 1.362 . S
C2146 C2149 1.409 . S
C2147 H2139 0.930 . S
C2147 C2148 1.355 . S
C2147 C2149 1.415 . S
C2148 C2147 1.355 . S
C2148 C2150 1.419 . S
C2149 C2144 1.425 . S
C2149 C2146 1.409 . S
C2149 C2147 1.415 . S
C2150 H2140 0.930 . S
C2150 C2148 1.419 . S
C2150 C2151 1.362 . S
C2151 H2141 0.930 . S
C2151 C2144 1.409 . S
C2151 C2150 1.362 . S
H2152 C2158 0.930 . S
H2153 C2161 0.930 . S
H2154 C2162 0.930 . S
H2155 C2163 0.930 . S
H2156 C2166 0.930 . S
H2157 C2167 0.930 . S
C2158 H2152 0.930 . S
C2158 C2159 1.355 . S
C2158 C2160 1.415 . S
C2159 C2158 1.355 . S
C2159 C2161 1.419 . S
C2160 C2158 1.415 . S
C2160 C2165 1.425 . S
C2160 C2167 1.409 . S
C2161 H2153 0.930 . S
C2161 C2159 1.419 . S
C2161 C2162 1.362 . S
C2162 H2154 0.930 . S
C2162 C2161 1.362 . S
C2162 C2165 1.409 . S
C2163 H2155 0.930 . S
C2163 C2164 1.355 . S
C2163 C2165 1.415 . S
C2164 C2163 1.355 . S
C2164 C2166 1.419 . S
C2165 C2160 1.425 . S
C2165 C2162 1.409 . S
C2165 C2163 1.415 . S
C2166 H2156 0.930 . S
C2166 C2164 1.419 . S
C2166 C2167 1.362 . S
C2167 H2157 0.930 . S
C2167 C2160 1.409 . S
C2167 C2166 1.362 . S
C639 C101 1.468 . S
C644 C316 1.330 1_556 S
C655 C57 1.451 . S
C660 C351 1.534 . S
C671 C73 1.192 . S
C676 C356 1.166 . S
C692 C381 1.378 . S
C687 C78 1.343 . S
C703 C21 1.458 . S
C708 C401 1.440 . S
C724 C416 1.072 . S
C719 C31 1.157 . S
C740 C451 1.567 . S
C735 C49 1.560 . S
C751 C0 1.317 . S
C756 C456 1.243 . S
C772 C331 1.564 1_655 S
C767 C218 1.625 . S
C783 C229 1.068 . S
C788 C341 1.082 . S
C804 C371 1.418 . S
C799 C257 1.439 . S
C820 C376 1.178 . S
C815 C164 1.178 1_556 S
C831 C216 1.250 . S
C836 C396 1.180 . S
C852 C431 1.455 . S
C847 C231 1.444 . S
C868 C441 0.975 . S
C863 C255 1.041 . S
C884 C471 1.565 . S
C879 C166 1.599 . S
C900 C321 1.240 . S
C895 C143 1.353 . S
C911 C265 1.724 . S
C916 C491 1.761 . S
C932 C501 1.352 . S
C927 C299 1.416 . S
C948 C516 1.046 . S
C943 C291 1.060 . S
C959 C104 1.325 . S
C964 C461 1.297 . S
C975 C117 1.503 . S
C980 C361 1.423 . S
C991 C304 1.629 . S
C996 C551 1.694 . S
C1012 C556 0.979 . S
C1007 C278 1.024 . S
C1028 C314 1.195 . S
C1023 C60 1.488 . S
C1044 C570 1.431 . S
C1039 C96 1.472 . S
C1055 C88 1.150 . S
C1060 C354 1.119 . S
C1071 C65 1.315 . S
C1076 C544 1.349 . S
C1092 C404 1.412 . S
C1087 C10 1.459 . S
C1103 C44 1.102 . S
C1108 C494 0.943 . S
C1124 C450 1.451 . S
C1119 C34 1.473 . S
C1140 C574 1.253 . S
C1135 C13 1.390 . S
C1156 C330 1.470 1_565 S
C1151 C138 1.580 . S
C1172 C564 1.010 . S
C1167 C296 1.018 . S
C1183 C112 1.301 . S
C1188 C370 1.393 . S
C1199 C270 1.217 . S
C1204 C534 1.175 . S
C1215 C140 1.170 . S
C1220 C394 1.033 . S
C1236 C510 1.358 . S
C1231 C294 1.358 . S
C1247 C114 1.038 . S
C1252 C444 1.037 . S
C1263 C268 1.579 . S
C1268 C590 1.457 . S
C1279 C169 1.441 . S
C1284 C324 1.338 1_556 S
C1295 C161 1.671 . S
C1300 C490 1.681 . S
C1311 C234 1.486 . S
C1316 C424 1.297 . S
C1327 C226 1.049 . S
C1332 C514 1.055 . S
C1348 C584 1.147 . S
C1343 C247 1.394 . S
C1359 C195 1.509 . S
C1364 C364 1.375 . S
C1380 C390 1.642 . S
C1375 C239 1.618 . S
C1396 C334 0.903 . S
C1391 C187 1.027 . S
C1407 C75 1.467 . S
C1412 C596 1.330 . S
C1428 C571 1.509 . S
C1423 C83 1.510 . S
C1439 C99 1.175 . S
C1444 C616 1.171 . S
C1455 C52 1.420 . S
C1460 C541 1.355 . S
C1471 C47 1.506 . S
C1476 C481 1.442 . S
C1492 C496 1.022 . S
C1487 C5 1.118 . S
C1508 C531 1.524 . S
C1503 C23 1.580 . S
C1524 C576 1.211 . S
C1519 C26 1.303 . S
C1540 C611 1.571 . S
C1535 C244 1.625 . S
C1551 C177 0.985 . S
C1556 C561 0.976 . S
C1572 C631 1.394 . S
C1567 C192 1.459 . S
C1588 C536 1.168 . S
C1583 C203 1.174 . S
C1604 C476 1.129 . S
C1599 C242 1.224 . S
C1615 C179 1.460 . S
C1620 C511 1.439 . S
C1636 C521 0.974 . S
C1631 C190 1.033 . S
C1647 C205 1.605 . S
C1652 C591 1.523 . S
C1668 C601 1.260 . S
C1663 C286 1.399 . S
C1679 C122 1.731 . S
C1684 C411 1.735 . S
C1700 C421 1.380 . S
C1695 C130 1.468 . S
C1716 C436 0.994 . S
C1711 C148 1.126 . S
C1732 C581 1.185 . S
C1727 C273 1.333 . S
C1743 C260 1.476 . S
C1748 C621 1.495 . S
C1764 C391 1.708 . S
C1759 C135 1.632 . S
C1780 C336 0.910 . S
C1775 C109 1.074 . S
C1791 C86 1.486 . S
C1796 C594 1.233 . S
C1812 C350 1.422 . S
C1807 C70 1.429 . S
C1823 C62 1.150 . S
C1828 C614 1.119 . S
C1839 C91 1.317 . S
C1844 C384 1.347 . S
C1855 C36 1.453 . S
C1860 C484 1.361 . S
C1876 C414 1.059 . S
C1871 C18 1.061 . S
C1887 C8 1.433 . S
C1892 C530 1.485 . S
C1903 C39 1.388 . S
C1908 C454 1.261 . S
C1924 C610 1.471 . S
C1919 C307 1.589 . S
C1935 C153 1.004 . S
C1940 C344 0.999 . S
C1956 C630 1.372 . S
C1951 C281 1.335 . S
C1967 C127 1.217 . S
C1972 C374 1.166 . S
C1983 C309 1.178 . S
C1988 C474 1.087 . S
C2004 C430 1.391 . S
C1999 C151 1.315 . S
C2015 C283 1.038 . S
C2020 C524 1.037 . S
C2036 C470 1.520 . S
C2031 C125 1.550 . S
C2052 C604 1.293 . S
C2047 C221 1.442 . S
C2068 C410 1.715 . S
C2063 C200 1.668 . S
C2079 C208 1.485 . S
C2084 C504 1.298 . S
C2100 C434 0.997 . S
C2095 C174 1.077 . S
C2111 C182 1.398 . S
C2116 C464 1.144 . S
C2127 C156 1.517 . S
C2132 C624 1.339 . S
C2148 C550 1.617 . S
C2143 C213 1.643 . S
C2164 C554 1.020 . S
C2159 C252 1.002 . S
