# Generated by pormake.
# Topology tsx, (6,3)-cn, num edge types: 1
# Building blocks:
#     Node 0, Type 0, BuildingBlock: JUFBIX_clean_sbu_0, # of connection points: 6
#     Node 1, Type 0, BuildingBlock: JUFBIX_clean_sbu_0, # of connection points: 6
#     Node 2, Type 1, BuildingBlock: OLANEW_clean_sbu_2, # of connection points: 3
#     Node 3, Type 1, BuildingBlock: OLANEW_clean_sbu_2, # of connection points: 3
#     Node 4, Type 1, BuildingBlock: OLANEW_clean_sbu_2, # of connection points: 3
#     Node 5, Type 1, BuildingBlock: OLANEW_clean_sbu_2, # of connection points: 3
#     Edge 6, Type (0, 1), BuildingBlock: EZIPEK_clean_linker_0, # of connection points: 2
#     Edge 7, Type (0, 1), BuildingBlock: EZIPEK_clean_linker_0, # of connection points: 2
#     Edge 8, Type (0, 1), BuildingBlock: EZIPEK_clean_linker_0, # of connection points: 2
#     Edge 9, Type (0, 1), BuildingBlock: EZIPEK_clean_linker_0, # of connection points: 2
#     Edge 10, Type (0, 1), BuildingBlock: EZIPEK_clean_linker_0, # of connection points: 2
#     Edge 11, Type (0, 1), BuildingBlock: EZIPEK_clean_linker_0, # of connection points: 2
#     Edge 12, Type (0, 1), BuildingBlock: EZIPEK_clean_linker_0, # of connection points: 2
#     Edge 13, Type (0, 1), BuildingBlock: EZIPEK_clean_linker_0, # of connection points: 2
#     Edge 14, Type (0, 1), BuildingBlock: EZIPEK_clean_linker_0, # of connection points: 2
#     Edge 15, Type (0, 1), BuildingBlock: EZIPEK_clean_linker_0, # of connection points: 2
#     Edge 16, Type (0, 1), BuildingBlock: EZIPEK_clean_linker_0, # of connection points: 2
#     Edge 17, Type (0, 1), BuildingBlock: EZIPEK_clean_linker_0, # of connection points: 2
# Relax obj value: 0.060
# Max RMSD: 0.106
# Mean RMSD: 0.077
data_MOF--net-tsx--node1-JUFBIX_clean_sbu_0--node2-OLANEW_clean_sbu_2--edge1-EZIPEK_clean_linker_0
_symmetry_space_group_name_H-M    P1
_symmetry_Int_Tables_number       1
_symmetry_cell_setting            triclinic
loop_
_symmetry_equiv_pos_as_xyz
'x, y, z'
_cell_length_a     17.193928
_cell_length_b     20.221808
_cell_length_c     24.282419
_cell_angle_alpha  98.645519
_cell_angle_beta   88.516685
_cell_angle_gamma 102.6432
loop_
_atom_site_label
_atom_site_type_symbol
_atom_site_fract_x
_atom_site_fract_y
_atom_site_fract_z
_atom_type_partial_charge
Co0 Co 0.09418 0.9803 0.01728 0.0
C1 C 0.05579 0.03881 0.9272 0.0
Co2 Co 0.00389 0.04323 0.03531 0.0
C3 C 0.17265 0.86481 0.99958 0.0
C4 C 0.24213 0.95605 0.9734 0.0
N5 N 0.17305 0.93149 0.99856 0.0
N6 N 0.23813 0.84715 0.97528 0.0
C7 C 0.28217 0.90432 0.95903 0.0
H8 H 0.12423 0.82925 0.01565 0.0
H9 H 0.2607 0.00767 0.96386 0.0
C10 C 0.04207 0.98433 0.12516 0.0
N11 N 0.92675 0.09334 0.0525 0.0
C12 C 0.86645 0.09681 0.01945 0.0
C13 C 0.91975 0.13616 0.09985 0.0
N14 N 0.82259 0.14017 0.04424 0.0
C15 C 0.8554 0.16523 0.09481 0.0
C16 C 0.93994 0.90611 0.998 0.0
O17 O 0.08868 0.95849 0.09107 0.0
O18 O 0.00044 0.02278 0.10923 0.0
O19 O 0.92469 0.96444 0.01447 0.0
O20 O 0.01218 0.90024 0.99444 0.0
O21 O 0.00812 0.06312 0.96109 0.0
H22 H 0.95977 0.14651 0.13526 0.0
H23 H 0.85564 0.06912 0.97764 0.0
O24 O 0.09905 0.00205 0.94352 0.0
O25 O 0.1742 0.0611 0.04121 0.0
O26 O 0.08258 0.12197 0.05646 0.0
C27 C 0.15511 0.11833 0.05652 0.0
H28 H 0.33797 0.90761 0.9368 0.0
H29 H 0.83527 0.20279 0.1251 0.0
Co30 Co 0.56095 0.50267 0.4989 0.0
C31 C 0.50215 0.56259 0.41699 0.0
Co32 Co 0.44464 0.52989 0.51806 0.0
C33 C 0.68705 0.42743 0.48365 0.0
C34 C 0.72117 0.52687 0.45875 0.0
N35 N 0.66055 0.48499 0.48125 0.0
N36 N 0.76117 0.43158 0.46278 0.0
C37 C 0.783 0.49392 0.44701 0.0
H38 H 0.65182 0.38244 0.49851 0.0
H39 H 0.71954 0.57739 0.44987 0.0
C40 C 0.5023 0.46977 0.59985 0.0
N41 N 0.34515 0.54735 0.53531 0.0
C42 C 0.31494 0.59992 0.5238 0.0
C43 C 0.2852 0.5076 0.56028 0.0
N44 N 0.23889 0.59433 0.54061 0.0
C45 C 0.2195 0.53652 0.56359 0.0
C46 C 0.43478 0.39734 0.46208 0.0
O47 O 0.56059 0.46636 0.56701 0.0
O48 O 0.447 0.49716 0.58687 0.0
O49 O 0.39593 0.4411 0.48405 0.0
O50 O 0.51046 0.4138 0.46264 0.0
O51 O 0.44262 0.56211 0.44904 0.0
H52 H 0.2885 0.45982 0.57403 0.0
H53 H 0.34729 0.64072 0.50244 0.0
O54 O 0.56022 0.53913 0.43109 0.0
O55 O 0.60998 0.5908 0.53542 0.0
O56 O 0.49435 0.61921 0.55214 0.0
C57 C 0.56996 0.63461 0.5553 0.0
H58 H 0.83872 0.51326 0.42715 0.0
H59 H 0.16156 0.51603 0.58003 0.0
O60 O 0.99161 0.88122 0.36855 0.0
Cd61 Cd 0.96345 0.86987 0.46611 0.0
O62 O 0.98865 0.98941 0.39168 0.0
Cd63 Cd 0.98875 0.09183 0.37397 0.0
O64 O 0.94532 0.18601 0.37997 0.0
C65 C 0.93069 0.21408 0.42838 0.0
O66 O 0.94681 0.18814 0.47211 0.0
C67 C 0.99681 0.94002 0.35462 0.0
C68 C 0.04501 0.77735 0.49682 0.0
O69 O 0.97308 0.7572 0.47873 0.0
O70 O 0.0775 0.84136 0.50194 0.0
O71 O 0.11665 0.11949 0.67374 0.0
Cd72 Cd 0.08509 0.11546 0.57509 0.0
O73 O 0.99378 0.06075 0.67106 0.0
Cd74 Cd 0.89236 0.99609 0.70582 0.0
O75 O 0.80066 0.9029 0.68975 0.0
C76 C 0.7542 0.89965 0.6492 0.0
O77 O 0.76 0.95329 0.62356 0.0
C78 C 0.05772 0.08707 0.6984 0.0
C79 C 0.20837 0.18354 0.51474 0.0
O80 O 0.15804 0.21481 0.5409 0.0
O81 O 0.2004 0.11939 0.51653 0.0
O82 O 0.47505 0.29357 0.80641 0.0
Cd83 Cd 0.43913 0.25135 0.89411 0.0
O84 O 0.42371 0.37938 0.84437 0.0
Cd85 Cd 0.3859 0.47564 0.84503 0.0
O86 O 0.34381 0.57051 0.86649 0.0
C87 C 0.32914 0.58945 0.91727 0.0
O88 O 0.33933 0.55177 0.95497 0.0
C89 C 0.45671 0.35029 0.80306 0.0
C90 C 0.56531 0.21559 0.942 0.0
O91 O 0.51403 0.17027 0.91149 0.0
O92 O 0.55766 0.27791 0.94944 0.0
O93 O 0.52123 0.73421 0.20474 0.0
Cd94 Cd 0.49973 0.75308 0.11009 0.0
O95 O 0.47744 0.62823 0.16634 0.0
Cd96 Cd 0.44231 0.51916 0.17027 0.0
O97 O 0.39106 0.41029 0.16136 0.0
C98 C 0.35725 0.38462 0.11486 0.0
O99 O 0.35906 0.42358 0.07595 0.0
C100 C 0.50199 0.67108 0.20937 0.0
C101 C 0.64172 0.77263 0.05204 0.0
O102 O 0.61529 0.82348 0.07732 0.0
O103 O 0.60053 0.71183 0.05312 0.0
C104 C 0.27742 0.20609 0.03912 0.0
C105 C 0.21567 0.181 0.07534 0.0
C106 C 0.24912 0.28854 0.13985 0.0
C107 C 0.31319 0.31246 0.10478 0.0
N108 N 0.40179 0.28677 0.03005 0.0
N109 N 0.15632 0.19034 0.16657 0.0
C110 C 0.33161 0.26889 0.05724 0.0
C111 C 0.20606 0.21967 0.12789 0.0
N112 N 0.28153 0.17263 0.9862 0.0
N113 N 0.22585 0.33236 0.18237 0.0
H114 H 0.12402 0.13977 0.15932 0.0
H115 H 0.15324 0.21379 0.20758 0.0
H116 H 0.25401 0.38386 0.19194 0.0
H117 H 0.17395 0.31922 0.20506 0.0
H118 H 0.31991 0.19315 0.95617 0.0
H119 H 0.24183 0.12735 0.97046 0.0
H120 H 0.42173 0.25302 0.99916 0.0
H121 H 0.44375 0.33201 0.0426 0.0
C122 C 0.21156 0.72938 0.92356 0.0
C123 C 0.25604 0.78026 0.96417 0.0
C124 C 0.3511 0.70789 0.97136 0.0
C125 C 0.30309 0.65461 0.93416 0.0
N126 N 0.17992 0.60966 0.88265 0.0
N127 N 0.35879 0.81444 0.03413 0.0
C128 C 0.23093 0.66386 0.91248 0.0
C129 C 0.323 0.76826 0.99036 0.0
N130 N 0.15342 0.74486 0.89372 0.0
N131 N 0.42543 0.70262 0.98609 0.0
H132 H 0.33849 0.85874 0.04913 0.0
H133 H 0.40342 0.80583 0.05854 0.0
H134 H 0.449 0.65969 0.97257 0.0
H135 H 0.46662 0.74357 0.00713 0.0
H136 H 0.1246 0.71237 0.85943 0.0
H137 H 0.13873 0.79278 0.90019 0.0
H138 H 0.12286 0.61168 0.87066 0.0
H139 H 0.19174 0.56071 0.87413 0.0
C140 C 0.86345 0.79637 0.02521 0.0
C141 C 0.87135 0.84658 0.98944 0.0
C142 C 0.72644 0.82019 0.97643 0.0
C143 C 0.71894 0.78498 0.02312 0.0
N144 N 0.77905 0.73594 0.09133 0.0
N145 N 0.8133 0.89785 0.92242 0.0
C146 C 0.78694 0.77033 0.04645 0.0
C147 C 0.80346 0.85438 0.96125 0.0
N148 N 0.92891 0.77478 0.03957 0.0
N149 N 0.65976 0.82129 0.94745 0.0
H150 H 0.86974 0.92043 0.90906 0.0
H151 H 0.7667 0.91283 0.90467 0.0
H152 H 0.60294 0.79594 0.95799 0.0
H153 H 0.66098 0.84213 0.9107 0.0
H154 H 0.92616 0.73508 0.06283 0.0
H155 H 0.98457 0.7907 0.02225 0.0
H156 H 0.82722 0.73169 0.11465 0.0
H157 H 0.72388 0.71501 0.10745 0.0
C158 C 0.77492 0.21028 0.98379 0.0
C159 C 0.75804 0.15992 0.01951 0.0
C160 C 0.61491 0.14991 0.00805 0.0
C161 C 0.63164 0.19632 0.96861 0.0
N162 N 0.7265 0.26312 0.91228 0.0
N163 N 0.66507 0.07488 0.06079 0.0
C164 C 0.71146 0.22479 0.95478 0.0
C165 C 0.67876 0.12771 0.03025 0.0
N166 N 0.85181 0.24487 0.97856 0.0
N167 N 0.53857 0.12946 0.02602 0.0
H168 H 0.71122 0.05871 0.07828 0.0
H169 H 0.60897 0.04403 0.06538 0.0
H170 H 0.49029 0.14549 0.01141 0.0
H171 H 0.52379 0.10122 0.05873 0.0
H172 H 0.86778 0.28728 0.95783 0.0
H173 H 0.89949 0.2342 0.99874 0.0
H174 H 0.78316 0.2794 0.89645 0.0
H175 H 0.68153 0.27403 0.88945 0.0
C176 C 0.66705 0.74314 0.54511 0.0
C177 C 0.61236 0.70427 0.57901 0.0
C178 C 0.64324 0.79782 0.65727 0.0
C179 C 0.70424 0.83297 0.62512 0.0
N180 N 0.78571 0.83218 0.54241 0.0
N181 N 0.55591 0.68943 0.66955 0.0
C182 C 0.71923 0.80392 0.57002 0.0
C183 C 0.60205 0.73025 0.63571 0.0
N184 N 0.66766 0.72307 0.48878 0.0
N185 N 0.62332 0.82965 0.70769 0.0
H186 H 0.52508 0.63956 0.6554 0.0
H187 H 0.55336 0.70286 0.71257 0.0
H188 H 0.65226 0.87915 0.72469 0.0
H189 H 0.57391 0.80942 0.7304 0.0
H190 H 0.70042 0.75341 0.46145 0.0
H191 H 0.6294 0.67935 0.46861 0.0
H192 H 0.80392 0.8086 0.50464 0.0
H193 H 0.82738 0.87552 0.55964 0.0
C194 C 0.87761 0.3852 0.48179 0.0
C195 C 0.8047 0.3778 0.45329 0.0
C196 C 0.81228 0.26188 0.41068 0.0
C197 C 0.8886 0.27127 0.43551 0.0
N198 N 0.00074 0.3463 0.4864 0.0
N199 N 0.71159 0.31647 0.38127 0.0
C200 C 0.92334 0.33428 0.4688 0.0
C201 C 0.77461 0.3182 0.41497 0.0
N202 N 0.90153 0.43982 0.5226 0.0
N203 N 0.77389 0.19851 0.38536 0.0
H204 H 0.68411 0.35778 0.38231 0.0
H205 H 0.69189 0.27703 0.34861 0.0
H206 H 0.79809 0.15516 0.38256 0.0
H207 H 0.71478 0.1875 0.37191 0.0
H208 H 0.95023 0.44494 0.54874 0.0
H209 H 0.86839 0.47725 0.53349 0.0
H210 H 0.03182 0.39379 0.50596 0.0
H211 H 0.03637 0.31051 0.47695 0.0
C212 C 0.31087 0.31468 0.42695 0.0
C213 C 0.39005 0.32542 0.44666 0.0
C214 C 0.35431 0.22646 0.49551 0.0
C215 C 0.27288 0.22155 0.48262 0.0
N216 N 0.17701 0.24294 0.42065 0.0
N217 N 0.49192 0.27058 0.47173 0.0
C218 C 0.25231 0.25957 0.44274 0.0
C219 C 0.41356 0.27376 0.47118 0.0
N220 N 0.29189 0.35977 0.39572 0.0
N221 N 0.37503 0.19059 0.5341 0.0
H222 H 0.53478 0.30159 0.45017 0.0
H223 H 0.51198 0.23144 0.48652 0.0
H224 H 0.33379 0.15603 0.55374 0.0
H225 H 0.43283 0.19908 0.54969 0.0
H226 H 0.23394 0.36051 0.38495 0.0
H227 H 0.33582 0.39781 0.38154 0.0
H228 H 0.15912 0.26589 0.389 0.0
H229 H 0.13396 0.20166 0.43095 0.0
C230 C 0.14679 0.62651 0.47914 0.0
C231 C 0.18677 0.63787 0.5309 0.0
C232 C 0.12459 0.7344 0.56324 0.0
C233 C 0.09105 0.72757 0.50929 0.0
N234 N 0.07988 0.67375 0.41302 0.0
N235 N 0.22175 0.70456 0.62053 0.0
C236 C 0.10408 0.67499 0.46646 0.0
C237 C 0.1778 0.6924 0.57258 0.0
N238 N 0.14942 0.56883 0.44241 0.0
N239 N 0.10325 0.77918 0.60588 0.0
H240 H 0.25973 0.67329 0.62861 0.0
H241 H 0.22482 0.74779 0.65038 0.0
H242 H 0.06306 0.80971 0.60078 0.0
H243 H 0.11979 0.78197 0.64724 0.0
H244 H 0.11449 0.55335 0.40644 0.0
H245 H 0.18206 0.53337 0.45028 0.0
H246 H 0.09519 0.64111 0.37912 0.0
H247 H 0.05029 0.70936 0.40138 0.0
C248 C 0.95946 0.92948 0.19926 0.0
C249 C 0.03324 0.96843 0.18285 0.0
C250 C 0.08214 0.99075 0.27943 0.0
C251 C 0.00936 0.94997 0.29555 0.0
N252 N 0.88128 0.87512 0.27136 0.0
N253 N 0.16888 0.02827 0.20437 0.0
C254 C 0.94888 0.91751 0.25551 0.0
C255 C 0.09591 -0.00339 0.22209 0.0
N256 N 0.89895 0.905 0.16106 0.0
N257 N 0.13764 0.02464 0.31914 0.0
H258 H 0.18056 0.03563 0.16313 0.0
H259 H 0.21967 0.0434 0.22946 0.0
H260 H 0.13212 0.01848 0.36102 0.0
H261 H 0.18723 0.06195 0.31151 0.0
H262 H 0.84059 0.88365 0.17107 0.0
H263 H 0.906 0.90863 0.11881 0.0
H264 H 0.83953 0.84296 0.24358 0.0
H265 H 0.86805 0.86931 0.31273 0.0
C266 C 0.04372 0.99553 0.82474 0.0
C267 C 0.05988 0.05172 0.86864 0.0
C268 C 0.07524 0.1321 0.80076 0.0
C269 C 0.06402 0.0759 0.75689 0.0
N270 N 0.05551 0.95536 0.72642 0.0
N271 N 0.1072 0.17303 0.89835 0.0
C272 C 0.05361 0.00793 0.76871 0.0
C273 C 0.08028 0.11998 0.85666 0.0
N274 N 0.01542 0.93048 0.83635 0.0
N275 N 0.07774 0.19669 0.78933 0.0
H276 H 0.11252 0.1662 0.9397 0.0
H277 H 0.13114 0.22293 0.89124 0.0
H278 H 0.0747 0.20777 0.74897 0.0
H279 H 0.07652 0.23839 0.82001 0.0
H280 H 0.99376 0.88879 0.80593 0.0
H281 H 0.00667 0.91878 0.87671 0.0
H282 H 0.05673 0.90588 0.73302 0.0
H283 H 0.06377 0.96255 0.68484 0.0
C284 C 0.43294 0.37813 0.65373 0.0
C285 C 0.49441 0.43733 0.65096 0.0
C286 C 0.52932 0.44123 0.74893 0.0
C287 C 0.47027 0.38026 0.75079 0.0
N288 N 0.37155 0.28585 0.70441 0.0
N289 N 0.6063 0.52211 0.69273 0.0
C290 C 0.42395 0.34721 0.70294 0.0
C291 C 0.54438 0.46786 0.69764 0.0
N292 N 0.38166 0.35244 0.6097 0.0
N293 N 0.57014 0.47401 0.79645 0.0
H294 H 0.61689 0.54472 0.6566 0.0
H295 H 0.65017 0.54258 0.72302 0.0
H296 H 0.56373 0.45419 0.83396 0.0
H297 H 0.60736 0.52252 0.79993 0.0
H298 H 0.32917 0.31571 0.61157 0.0
H299 H 0.3889 0.37053 0.57159 0.0
H300 H 0.34416 0.25446 0.66918 0.0
H301 H 0.35834 0.26383 0.74064 0.0
C302 C 0.48132 0.65512 0.36385 0.0
C303 C 0.50504 0.59215 0.36441 0.0
C304 C 0.54413 0.59158 0.2668 0.0
C305 C 0.5071 0.64712 0.26374 0.0
N306 N 0.42579 0.72327 0.30837 0.0
N307 N 0.54285 0.49268 0.3116 0.0
C308 C 0.4717 0.6768 0.312 0.0
C309 C 0.53228 0.55817 0.3146 0.0
N310 N 0.47128 0.69591 0.41256 0.0
N311 N 0.59235 0.57175 0.22482 0.0
H312 H 0.52974 0.46411 0.34429 0.0
H313 H 0.5557 0.46404 0.27444 0.0
H314 H 0.60501 0.5967 0.18998 0.0
H315 H 0.62618 0.53541 0.2276 0.0
H316 H 0.46094 0.74502 0.41385 0.0
H317 H 0.48268 0.68447 0.4516 0.0
H318 H 0.39249 0.74084 0.34167 0.0
H319 H 0.41409 0.73877 0.27098 0.0
loop_
_geom_bond_atom_site_label_1
_geom_bond_atom_site_label_2
_geom_bond_distance
_geom_bond_site_symmetry_2
_ccdc_geom_bond_type
Co0 N5 2.057 1_554 S
Co0 O17 2.021 . S
Co0 O20 2.062 1_455 S
Co0 O24 2.117 1_554 S
Co0 O25 2.020 1_565 S
C1 O21 1.259 . S
C1 O24 1.258 1_645 S
Co2 N11 2.057 . S
Co2 O18 2.117 . S
Co2 O19 2.020 1_545 S
Co2 O21 2.021 1_554 S
Co2 O26 2.062 1_655 S
C3 N5 1.316 1_554 S
C3 N6 1.347 1_554 S
C3 H8 0.931 . S
C4 N5 1.375 . S
C4 C7 1.350 . S
C4 H9 0.930 . S
N5 Co0 2.057 1_556 S
N5 C3 1.316 1_556 S
N5 C4 1.375 . S
N6 C3 1.347 1_556 S
N6 C7 1.373 . S
C7 C4 1.350 . S
C7 N6 1.373 . S
C7 H28 0.931 . S
H8 C3 0.931 . S
H9 C4 0.930 . S
C10 O17 1.259 1_545 S
C10 O18 1.258 1_455 S
N11 Co2 2.057 . S
N11 C12 1.313 1_554 S
N11 C13 1.375 . S
C12 N11 1.313 1_556 S
C12 N14 1.345 1_556 S
C12 H23 0.935 . S
C13 N11 1.375 . S
C13 C15 1.350 . S
C13 H22 0.930 . S
N14 C12 1.345 1_554 S
N14 C15 1.373 . S
C15 C13 1.350 . S
C15 N14 1.373 . S
C15 H29 0.931 . S
C16 O19 1.256 . S
C16 O20 1.255 . S
O17 Co0 2.021 . S
O17 C10 1.259 1_565 S
O18 Co2 2.117 . S
O18 C10 1.258 1_655 S
O19 Co2 2.020 1_565 S
O19 C16 1.256 . S
O20 Co0 2.062 1_655 S
O20 C16 1.255 . S
O21 C1 1.259 . S
O21 Co2 2.021 1_556 S
H22 C13 0.930 . S
H23 C12 0.935 . S
O24 Co0 2.117 1_556 S
O24 C1 1.258 1_465 S
O25 Co0 2.020 1_545 S
O25 C27 1.256 . S
O26 Co2 2.062 1_455 S
O26 C27 1.255 . S
C27 O25 1.256 . S
C27 O26 1.255 . S
H28 C7 0.931 . S
H29 C15 0.931 . S
Co30 N35 2.057 . S
Co30 O47 2.021 . S
Co30 O50 2.062 . S
Co30 O54 2.117 . S
Co30 O55 2.020 . S
C31 O51 1.259 . S
C31 O54 1.258 . S
Co32 N41 2.057 . S
Co32 O48 2.117 . S
Co32 O49 2.020 . S
Co32 O51 2.021 . S
Co32 O56 2.062 . S
C33 N35 1.316 . S
C33 N36 1.347 . S
C33 H38 0.931 . S
C34 N35 1.375 . S
C34 C37 1.350 . S
C34 H39 0.930 . S
N35 Co30 2.057 . S
N35 C33 1.316 . S
N35 C34 1.375 . S
N36 C33 1.347 . S
N36 C37 1.373 . S
C37 C34 1.350 . S
C37 N36 1.373 . S
C37 H58 0.931 . S
H38 C33 0.931 . S
H39 C34 0.930 . S
C40 O47 1.259 . S
C40 O48 1.258 . S
N41 Co32 2.057 . S
N41 C42 1.316 . S
N41 C43 1.375 . S
C42 N41 1.316 . S
C42 N44 1.347 . S
C42 H53 0.931 . S
C43 N41 1.375 . S
C43 C45 1.350 . S
C43 H52 0.930 . S
N44 C42 1.347 . S
N44 C45 1.373 . S
C45 C43 1.350 . S
C45 N44 1.373 . S
C45 H59 0.931 . S
C46 O49 1.256 . S
C46 O50 1.255 . S
O47 Co30 2.021 . S
O47 C40 1.259 . S
O48 Co32 2.117 . S
O48 C40 1.258 . S
O49 Co32 2.020 . S
O49 C46 1.256 . S
O50 Co30 2.062 . S
O50 C46 1.255 . S
O51 C31 1.259 . S
O51 Co32 2.021 . S
H52 C43 0.930 . S
H53 C42 0.931 . S
O54 Co30 2.117 . S
O54 C31 1.258 . S
O55 Co30 2.020 . S
O55 C57 1.256 . S
O56 Co32 2.062 . S
O56 C57 1.255 . S
C57 O55 1.256 . S
C57 O56 1.255 . S
H58 C37 0.931 . S
H59 C45 0.931 . S
O60 Cd61 2.300 1_565 S
O60 C67 1.275 1_565 S
Cd61 O60 2.300 1_545 S
Cd61 O69 2.381 1_545 S
Cd61 O70 2.378 1_545 S
O62 Cd63 2.385 . S
O62 C67 1.255 . S
Cd63 O62 2.385 . S
Cd63 O64 2.317 1_455 S
O64 Cd63 2.317 1_655 S
O64 C65 1.232 . S
C65 O64 1.232 . S
C65 O66 1.218 . S
O66 C65 1.218 . S
C67 O60 1.275 1_545 S
C67 O62 1.255 . S
C68 O69 1.258 . S
C68 O70 1.256 . S
O69 Cd61 2.381 1_565 S
O69 C68 1.258 . S
O70 Cd61 2.378 1_565 S
O70 C68 1.256 . S
O71 Cd72 2.300 . S
O71 C78 1.275 1_545 S
Cd72 O71 2.300 . S
Cd72 O80 2.381 . S
Cd72 O81 2.378 . S
O73 Cd74 2.385 . S
O73 C78 1.255 . S
Cd74 O73 2.385 . S
Cd74 O75 2.317 1_455 S
O75 Cd74 2.317 1_655 S
O75 C76 1.232 . S
C76 O75 1.232 . S
C76 O77 1.218 . S
O77 C76 1.218 . S
C78 O71 1.275 1_565 S
C78 O73 1.255 . S
C79 O80 1.258 . S
C79 O81 1.256 . S
O80 Cd72 2.381 . S
O80 C79 1.258 . S
O81 Cd72 2.378 . S
O81 C79 1.256 . S
O82 Cd83 2.300 . S
O82 C89 1.275 . S
Cd83 O82 2.300 . S
Cd83 O91 2.381 . S
Cd83 O92 2.378 1_556 S
O84 Cd85 2.385 . S
O84 C89 1.255 . S
Cd85 O84 2.385 . S
Cd85 O86 2.317 . S
O86 Cd85 2.317 . S
O86 C87 1.232 . S
C87 O86 1.232 . S
C87 O88 1.218 . S
O88 C87 1.218 . S
C89 O82 1.275 . S
C89 O84 1.255 . S
C90 O91 1.258 . S
C90 O92 1.256 1_556 S
O91 Cd83 2.381 . S
O91 C90 1.258 . S
O92 Cd83 2.378 1_554 S
O92 C90 1.256 1_554 S
O93 Cd94 2.300 . S
O93 C100 1.275 . S
Cd94 O93 2.300 . S
Cd94 O102 2.381 . S
Cd94 O103 2.378 1_554 S
O95 Cd96 2.385 . S
O95 C100 1.255 . S
Cd96 O95 2.385 . S
Cd96 O97 2.317 . S
O97 Cd96 2.317 . S
O97 C98 1.232 . S
C98 O97 1.232 . S
C98 O99 1.218 . S
O99 C98 1.218 . S
C100 O93 1.275 . S
C100 O95 1.255 . S
C101 O102 1.258 . S
C101 O103 1.256 1_554 S
O102 Cd94 2.381 . S
O102 C101 1.258 . S
O103 Cd94 2.378 1_556 S
O103 C101 1.256 1_556 S
C104 C105 1.363 1_556 S
C104 C110 1.379 . S
C104 N112 1.356 . S
C105 C104 1.363 1_554 S
C105 C111 1.363 . S
C106 C107 1.363 . S
C106 C111 1.379 . S
C106 N113 1.356 . S
C107 C106 1.363 . S
C107 C110 1.363 1_554 S
N108 C110 1.356 . S
N108 H120 0.984 . S
N108 H121 0.985 . S
N109 C111 1.356 . S
N109 H114 0.984 . S
N109 H115 0.985 . S
C110 C104 1.379 . S
C110 C107 1.363 1_556 S
C110 N108 1.356 . S
C111 C105 1.363 . S
C111 C106 1.379 . S
C111 N109 1.356 . S
N112 C104 1.356 . S
N112 H118 0.984 . S
N112 H119 0.984 . S
N113 C106 1.356 . S
N113 H116 0.984 . S
N113 H117 0.985 . S
H114 N109 0.984 . S
H115 N109 0.985 . S
H116 N113 0.984 . S
H117 N113 0.985 . S
H118 N112 0.984 . S
H119 N112 0.984 . S
H120 N108 0.984 . S
H121 N108 0.985 . S
C122 C123 1.363 1_556 S
C122 C128 1.379 . S
C122 N130 1.356 . S
C123 C122 1.363 1_554 S
C123 C129 1.363 . S
C124 C125 1.363 1_554 S
C124 C129 1.379 . S
C124 N131 1.356 . S
C125 C124 1.363 1_556 S
C125 C128 1.363 . S
N126 C128 1.356 . S
N126 H138 0.984 . S
N126 H139 0.985 . S
N127 C129 1.356 . S
N127 H132 0.984 . S
N127 H133 0.985 . S
C128 C122 1.379 . S
C128 C125 1.363 . S
C128 N126 1.356 . S
C129 C123 1.363 . S
C129 C124 1.379 . S
C129 N127 1.356 . S
N130 C122 1.356 . S
N130 H136 0.984 . S
N130 H137 0.984 . S
N131 C124 1.356 . S
N131 H134 0.984 . S
N131 H135 0.985 . S
H132 N127 0.984 . S
H133 N127 0.985 . S
H134 N131 0.984 . S
H135 N131 0.985 . S
H136 N130 0.984 . S
H137 N130 0.984 . S
H138 N126 0.984 . S
H139 N126 0.985 . S
C140 C141 1.363 . S
C140 C146 1.379 . S
C140 N148 1.356 . S
C141 C140 1.363 . S
C141 C147 1.363 1_554 S
C142 C143 1.363 1_556 S
C142 C147 1.379 . S
C142 N149 1.356 . S
C143 C142 1.363 1_554 S
C143 C146 1.363 . S
N144 C146 1.356 . S
N144 H156 0.984 . S
N144 H157 0.985 . S
N145 C147 1.356 . S
N145 H150 0.984 . S
N145 H151 0.985 . S
C146 C140 1.379 . S
C146 C143 1.363 . S
C146 N144 1.356 . S
C147 C141 1.363 1_556 S
C147 C142 1.379 . S
C147 N145 1.356 . S
N148 C140 1.356 . S
N148 H154 0.984 . S
N148 H155 0.984 . S
N149 C142 1.356 . S
N149 H152 0.984 . S
N149 H153 0.985 . S
H150 N145 0.984 . S
H151 N145 0.985 . S
H152 N149 0.984 . S
H153 N149 0.985 . S
H154 N148 0.984 . S
H155 N148 0.984 . S
H156 N144 0.984 . S
H157 N144 0.985 . S
C158 C159 1.363 1_556 S
C158 C164 1.379 . S
C158 N166 1.356 . S
C159 C158 1.363 1_554 S
C159 C165 1.363 . S
C160 C161 1.363 . S
C160 C165 1.379 . S
C160 N167 1.356 . S
C161 C160 1.363 . S
C161 C164 1.363 1_554 S
N162 C164 1.356 . S
N162 H174 0.984 . S
N162 H175 0.985 . S
N163 C165 1.356 . S
N163 H168 0.984 . S
N163 H169 0.985 . S
C164 C158 1.379 . S
C164 C161 1.363 1_556 S
C164 N162 1.356 . S
C165 C159 1.363 . S
C165 C160 1.379 . S
C165 N163 1.356 . S
N166 C158 1.356 . S
N166 H172 0.984 . S
N166 H173 0.984 . S
N167 C160 1.356 . S
N167 H170 0.984 . S
N167 H171 0.985 . S
H168 N163 0.984 . S
H169 N163 0.985 . S
H170 N167 0.984 . S
H171 N167 0.985 . S
H172 N166 0.984 . S
H173 N166 0.984 . S
H174 N162 0.984 . S
H175 N162 0.985 . S
C176 C177 1.363 . S
C176 C182 1.379 . S
C176 N184 1.356 . S
C177 C176 1.363 . S
C177 C183 1.363 . S
C178 C179 1.363 . S
C178 C183 1.379 . S
C178 N185 1.356 . S
C179 C178 1.363 . S
C179 C182 1.363 . S
N180 C182 1.356 . S
N180 H192 0.984 . S
N180 H193 0.985 . S
N181 C183 1.356 . S
N181 H186 0.984 . S
N181 H187 0.985 . S
C182 C176 1.379 . S
C182 C179 1.363 . S
C182 N180 1.356 . S
C183 C177 1.363 . S
C183 C178 1.379 . S
C183 N181 1.356 . S
N184 C176 1.356 . S
N184 H190 0.984 . S
N184 H191 0.984 . S
N185 C178 1.356 . S
N185 H188 0.984 . S
N185 H189 0.985 . S
H186 N181 0.984 . S
H187 N181 0.985 . S
H188 N185 0.984 . S
H189 N185 0.985 . S
H190 N184 0.984 . S
H191 N184 0.984 . S
H192 N180 0.984 . S
H193 N180 0.985 . S
C194 C195 1.363 . S
C194 C200 1.379 . S
C194 N202 1.356 . S
C195 C194 1.363 . S
C195 C201 1.363 . S
C196 C197 1.363 . S
C196 C201 1.379 . S
C196 N203 1.356 . S
C197 C196 1.363 . S
C197 C200 1.363 . S
N198 C200 1.356 . S
N198 H210 0.984 . S
N198 H211 0.985 . S
N199 C201 1.356 . S
N199 H204 0.984 . S
N199 H205 0.985 . S
C200 C194 1.379 . S
C200 C197 1.363 . S
C200 N198 1.356 . S
C201 C195 1.363 . S
C201 C196 1.379 . S
C201 N199 1.356 . S
N202 C194 1.356 . S
N202 H208 0.984 . S
N202 H209 0.984 . S
N203 C196 1.356 . S
N203 H206 0.984 . S
N203 H207 0.985 . S
H204 N199 0.984 . S
H205 N199 0.985 . S
H206 N203 0.984 . S
H207 N203 0.985 . S
H208 N202 0.984 . S
H209 N202 0.984 . S
H210 N198 0.984 . S
H211 N198 0.985 . S
C212 C213 1.363 . S
C212 C218 1.379 . S
C212 N220 1.356 . S
C213 C212 1.363 . S
C213 C219 1.363 . S
C214 C215 1.363 . S
C214 C219 1.379 . S
C214 N221 1.356 . S
C215 C214 1.363 . S
C215 C218 1.363 . S
N216 C218 1.356 . S
N216 H228 0.984 . S
N216 H229 0.985 . S
N217 C219 1.356 . S
N217 H222 0.984 . S
N217 H223 0.985 . S
C218 C212 1.379 . S
C218 C215 1.363 . S
C218 N216 1.356 . S
C219 C213 1.363 . S
C219 C214 1.379 . S
C219 N217 1.356 . S
N220 C212 1.356 . S
N220 H226 0.984 . S
N220 H227 0.984 . S
N221 C214 1.356 . S
N221 H224 0.984 . S
N221 H225 0.985 . S
H222 N217 0.984 . S
H223 N217 0.985 . S
H224 N221 0.984 . S
H225 N221 0.985 . S
H226 N220 0.984 . S
H227 N220 0.984 . S
H228 N216 0.984 . S
H229 N216 0.985 . S
C230 C231 1.363 . S
C230 C236 1.379 . S
C230 N238 1.356 . S
C231 C230 1.363 . S
C231 C237 1.363 . S
C232 C233 1.363 . S
C232 C237 1.379 . S
C232 N239 1.356 . S
C233 C232 1.363 . S
C233 C236 1.363 . S
N234 C236 1.356 . S
N234 H246 0.984 . S
N234 H247 0.985 . S
N235 C237 1.356 . S
N235 H240 0.984 . S
N235 H241 0.985 . S
C236 C230 1.379 . S
C236 C233 1.363 . S
C236 N234 1.356 . S
C237 C231 1.363 . S
C237 C232 1.379 . S
C237 N235 1.356 . S
N238 C230 1.356 . S
N238 H244 0.984 . S
N238 H245 0.984 . S
N239 C232 1.356 . S
N239 H242 0.984 . S
N239 H243 0.985 . S
H240 N235 0.984 . S
H241 N235 0.985 . S
H242 N239 0.984 . S
H243 N239 0.985 . S
H244 N238 0.984 . S
H245 N238 0.984 . S
H246 N234 0.984 . S
H247 N234 0.985 . S
C248 C249 1.363 1_665 S
C248 C254 1.379 . S
C248 N256 1.356 . S
C249 C248 1.363 1_445 S
C249 C255 1.363 . S
C250 C251 1.363 . S
C250 C255 1.379 . S
C250 N257 1.356 . S
C251 C250 1.363 . S
C251 C254 1.363 1_445 S
N252 C254 1.356 . S
N252 H264 0.984 . S
N252 H265 0.985 . S
N253 C255 1.356 . S
N253 H258 0.984 . S
N253 H259 0.985 . S
C254 C248 1.379 . S
C254 C251 1.363 1_665 S
C254 N252 1.356 . S
C255 C249 1.363 . S
C255 C250 1.379 . S
C255 N253 1.356 . S
N256 C248 1.356 . S
N256 H262 0.984 . S
N256 H263 0.984 . S
N257 C250 1.356 . S
N257 H260 0.984 . S
N257 H261 0.985 . S
H258 N253 0.984 . S
H259 N253 0.985 . S
H260 N257 0.984 . S
H261 N257 0.985 . S
H262 N256 0.984 . S
H263 N256 0.984 . S
H264 N252 0.984 . S
H265 N252 0.985 . S
C266 C267 1.362 1_565 S
C266 C272 1.379 . S
C266 N274 1.356 . S
C267 C266 1.362 1_545 S
C267 C273 1.364 1_455 S
C268 C269 1.363 1_545 S
C268 C273 1.379 . S
C268 N275 1.356 . S
C269 C268 1.363 1_565 S
C269 C272 1.363 1_655 S
N270 C272 1.356 . S
N270 H282 0.984 . S
N270 H283 0.985 . S
N271 C273 1.356 . S
N271 H276 0.984 . S
N271 H277 0.985 . S
C272 C266 1.379 . S
C272 C269 1.363 1_455 S
C272 N270 1.356 . S
C273 C267 1.364 1_655 S
C273 C268 1.379 . S
C273 N271 1.356 . S
N274 C266 1.356 . S
N274 H280 0.984 . S
N274 H281 0.984 . S
N275 C268 1.356 . S
N275 H278 0.984 . S
N275 H279 0.985 . S
H276 N271 0.984 . S
H277 N271 0.985 . S
H278 N275 0.984 . S
H279 N275 0.985 . S
H280 N274 0.984 . S
H281 N274 0.984 . S
H282 N270 0.984 . S
H283 N270 0.985 . S
C284 C285 1.363 . S
C284 C290 1.379 . S
C284 N292 1.356 . S
C285 C284 1.363 . S
C285 C291 1.363 . S
C286 C287 1.363 . S
C286 C291 1.379 . S
C286 N293 1.356 . S
C287 C286 1.363 . S
C287 C290 1.363 . S
N288 C290 1.356 . S
N288 H300 0.984 . S
N288 H301 0.985 . S
N289 C291 1.356 . S
N289 H294 0.984 . S
N289 H295 0.985 . S
C290 C284 1.379 . S
C290 C287 1.363 . S
C290 N288 1.356 . S
C291 C285 1.363 . S
C291 C286 1.379 . S
C291 N289 1.356 . S
N292 C284 1.356 . S
N292 H298 0.984 . S
N292 H299 0.984 . S
N293 C286 1.356 . S
N293 H296 0.984 . S
N293 H297 0.985 . S
H294 N289 0.984 . S
H295 N289 0.985 . S
H296 N293 0.984 . S
H297 N293 0.985 . S
H298 N292 0.984 . S
H299 N292 0.984 . S
H300 N288 0.984 . S
H301 N288 0.985 . S
C302 C303 1.363 . S
C302 C308 1.379 . S
C302 N310 1.356 . S
C303 C302 1.363 . S
C303 C309 1.363 . S
C304 C305 1.363 . S
C304 C309 1.379 . S
C304 N311 1.356 . S
C305 C304 1.363 . S
C305 C308 1.363 . S
N306 C308 1.356 . S
N306 H318 0.984 . S
N306 H319 0.985 . S
N307 C309 1.356 . S
N307 H312 0.984 . S
N307 H313 0.985 . S
C308 C302 1.379 . S
C308 C305 1.363 . S
C308 N306 1.356 . S
C309 C303 1.363 . S
C309 C304 1.379 . S
C309 N307 1.356 . S
N310 C302 1.356 . S
N310 H316 0.984 . S
N310 H317 0.984 . S
N311 C304 1.356 . S
N311 H314 0.984 . S
N311 H315 0.985 . S
H312 N307 0.984 . S
H313 N307 0.985 . S
H314 N311 0.984 . S
H315 N311 0.985 . S
H316 N310 0.984 . S
H317 N310 0.984 . S
H318 N306 0.984 . S
H319 N306 0.985 . S
C107 C98 1.268 . S
C105 C27 1.501 . S
C123 N6 1.433 1_554 S
C125 C87 1.251 . S
C141 C16 1.495 . S
C143 C101 1.454 . S
C159 N14 1.452 . S
C161 C90 1.440 1_554 S
C177 C57 1.501 . S
C179 C76 1.268 . S
C195 N36 1.433 . S
C197 C65 1.251 . S
C215 C79 1.454 . S
C213 C46 1.495 . S
C233 C68 1.440 . S
C231 N44 1.452 . S
C249 C10 1.455 . S
C251 C67 1.405 . S
C267 C1 1.533 1_455 S
C269 C78 1.482 1_655 S
C287 C89 1.405 . S
C285 C40 1.455 . S
C303 C31 1.533 . S
C305 C100 1.482 . S
