# Generated by pormake.
# Topology ocu, (6,8)-cn, num edge types: 1
# Building blocks:
#     Node 0, Type 0, BuildingBlock: JUFBIX_clean_sbu_0, # of connection points: 6
#     Node 1, Type 0, BuildingBlock: JUFBIX_clean_sbu_0, # of connection points: 6
#     Node 2, Type 0, BuildingBlock: JUFBIX_clean_sbu_0, # of connection points: 6
#     Node 3, Type 0, BuildingBlock: JUFBIX_clean_sbu_0, # of connection points: 6
#     Node 4, Type 0, BuildingBlock: JUFBIX_clean_sbu_0, # of connection points: 6
#     Node 5, Type 0, BuildingBlock: JUFBIX_clean_sbu_0, # of connection points: 6
#     Node 6, Type 0, BuildingBlock: JUFBIX_clean_sbu_0, # of connection points: 6
#     Node 7, Type 0, BuildingBlock: JUFBIX_clean_sbu_0, # of connection points: 6
#     Node 8, Type 1, BuildingBlock: VETTIZ_charged_sbu_0, # of connection points: 8
#     Node 9, Type 1, BuildingBlock: VETTIZ_charged_sbu_0, # of connection points: 8
#     Node 10, Type 1, BuildingBlock: VETTIZ_charged_sbu_0, # of connection points: 8
#     Node 11, Type 1, BuildingBlock: VETTIZ_charged_sbu_0, # of connection points: 8
#     Node 12, Type 1, BuildingBlock: VETTIZ_charged_sbu_0, # of connection points: 8
#     Node 13, Type 1, BuildingBlock: VETTIZ_charged_sbu_0, # of connection points: 8
#     Edge 14, Type (0, 1), BuildingBlock: ZUJKAS_clean_linker_0, # of connection points: 2
#     Edge 15, Type (0, 1), BuildingBlock: ZUJKAS_clean_linker_0, # of connection points: 2
#     Edge 16, Type (0, 1), BuildingBlock: ZUJKAS_clean_linker_0, # of connection points: 2
#     Edge 17, Type (0, 1), BuildingBlock: ZUJKAS_clean_linker_0, # of connection points: 2
#     Edge 18, Type (0, 1), BuildingBlock: ZUJKAS_clean_linker_0, # of connection points: 2
#     Edge 19, Type (0, 1), BuildingBlock: ZUJKAS_clean_linker_0, # of connection points: 2
#     Edge 20, Type (0, 1), BuildingBlock: ZUJKAS_clean_linker_0, # of connection points: 2
#     Edge 21, Type (0, 1), BuildingBlock: ZUJKAS_clean_linker_0, # of connection points: 2
#     Edge 22, Type (0, 1), BuildingBlock: ZUJKAS_clean_linker_0, # of connection points: 2
#     Edge 23, Type (0, 1), BuildingBlock: ZUJKAS_clean_linker_0, # of connection points: 2
#     Edge 24, Type (0, 1), BuildingBlock: ZUJKAS_clean_linker_0, # of connection points: 2
#     Edge 25, Type (0, 1), BuildingBlock: ZUJKAS_clean_linker_0, # of connection points: 2
#     Edge 26, Type (0, 1), BuildingBlock: ZUJKAS_clean_linker_0, # of connection points: 2
#     Edge 27, Type (0, 1), BuildingBlock: ZUJKAS_clean_linker_0, # of connection points: 2
#     Edge 28, Type (0, 1), BuildingBlock: ZUJKAS_clean_linker_0, # of connection points: 2
#     Edge 29, Type (0, 1), BuildingBlock: ZUJKAS_clean_linker_0, # of connection points: 2
#     Edge 30, Type (0, 1), BuildingBlock: ZUJKAS_clean_linker_0, # of connection points: 2
#     Edge 31, Type (0, 1), BuildingBlock: ZUJKAS_clean_linker_0, # of connection points: 2
#     Edge 32, Type (0, 1), BuildingBlock: ZUJKAS_clean_linker_0, # of connection points: 2
#     Edge 33, Type (0, 1), BuildingBlock: ZUJKAS_clean_linker_0, # of connection points: 2
#     Edge 34, Type (0, 1), BuildingBlock: ZUJKAS_clean_linker_0, # of connection points: 2
#     Edge 35, Type (0, 1), BuildingBlock: ZUJKAS_clean_linker_0, # of connection points: 2
#     Edge 36, Type (0, 1), BuildingBlock: ZUJKAS_clean_linker_0, # of connection points: 2
#     Edge 37, Type (0, 1), BuildingBlock: ZUJKAS_clean_linker_0, # of connection points: 2
#     Edge 38, Type (0, 1), BuildingBlock: ZUJKAS_clean_linker_0, # of connection points: 2
#     Edge 39, Type (0, 1), BuildingBlock: ZUJKAS_clean_linker_0, # of connection points: 2
#     Edge 40, Type (0, 1), BuildingBlock: ZUJKAS_clean_linker_0, # of connection points: 2
#     Edge 41, Type (0, 1), BuildingBlock: ZUJKAS_clean_linker_0, # of connection points: 2
#     Edge 42, Type (0, 1), BuildingBlock: ZUJKAS_clean_linker_0, # of connection points: 2
#     Edge 43, Type (0, 1), BuildingBlock: ZUJKAS_clean_linker_0, # of connection points: 2
#     Edge 44, Type (0, 1), BuildingBlock: ZUJKAS_clean_linker_0, # of connection points: 2
#     Edge 45, Type (0, 1), BuildingBlock: ZUJKAS_clean_linker_0, # of connection points: 2
#     Edge 46, Type (0, 1), BuildingBlock: ZUJKAS_clean_linker_0, # of connection points: 2
#     Edge 47, Type (0, 1), BuildingBlock: ZUJKAS_clean_linker_0, # of connection points: 2
#     Edge 48, Type (0, 1), BuildingBlock: ZUJKAS_clean_linker_0, # of connection points: 2
#     Edge 49, Type (0, 1), BuildingBlock: ZUJKAS_clean_linker_0, # of connection points: 2
#     Edge 50, Type (0, 1), BuildingBlock: ZUJKAS_clean_linker_0, # of connection points: 2
#     Edge 51, Type (0, 1), BuildingBlock: ZUJKAS_clean_linker_0, # of connection points: 2
#     Edge 52, Type (0, 1), BuildingBlock: ZUJKAS_clean_linker_0, # of connection points: 2
#     Edge 53, Type (0, 1), BuildingBlock: ZUJKAS_clean_linker_0, # of connection points: 2
#     Edge 54, Type (0, 1), BuildingBlock: ZUJKAS_clean_linker_0, # of connection points: 2
#     Edge 55, Type (0, 1), BuildingBlock: ZUJKAS_clean_linker_0, # of connection points: 2
#     Edge 56, Type (0, 1), BuildingBlock: ZUJKAS_clean_linker_0, # of connection points: 2
#     Edge 57, Type (0, 1), BuildingBlock: ZUJKAS_clean_linker_0, # of connection points: 2
#     Edge 58, Type (0, 1), BuildingBlock: ZUJKAS_clean_linker_0, # of connection points: 2
#     Edge 59, Type (0, 1), BuildingBlock: ZUJKAS_clean_linker_0, # of connection points: 2
#     Edge 60, Type (0, 1), BuildingBlock: ZUJKAS_clean_linker_0, # of connection points: 2
#     Edge 61, Type (0, 1), BuildingBlock: ZUJKAS_clean_linker_0, # of connection points: 2
# Relax obj value: 0.141
# Max RMSD: 0.265
# Mean RMSD: 0.149
data_MOF--net-ocu--node1-JUFBIX_clean_sbu_0--node2-VETTIZ_charged_sbu_0--edge1-ZUJKAS_clean_linker_0
_symmetry_space_group_name_H-M    P1
_symmetry_Int_Tables_number       1
_symmetry_cell_setting            triclinic
loop_
_symmetry_equiv_pos_as_xyz
'x, y, z'
_cell_length_a     47.257257
_cell_length_b     48.686567
_cell_length_c     47.429055
_cell_angle_alpha  93.125833
_cell_angle_beta   91.799717
_cell_angle_gamma 89.791487
loop_
_atom_site_label
_atom_site_type_symbol
_atom_site_fract_x
_atom_site_fract_y
_atom_site_fract_z
_atom_type_partial_charge
Co0 Co 0.24736 0.23976 0.25966 0.0
C1 C 0.22928 0.27755 0.30155 0.0
Co2 Co 0.27566 0.27544 0.26663 0.0
C3 C 0.20904 0.19655 0.27243 0.0
C4 C 0.2152 0.1983 0.2281 0.0
N5 N 0.22379 0.20972 0.25343 0.0
N6 N 0.19114 0.17755 0.26001 0.0
C7 C 0.19519 0.17859 0.23204 0.0
H8 H 0.21106 0.20144 0.2949 0.0
H9 H 0.2222 0.2047 0.20798 0.0
C10 C 0.29421 0.23776 0.22505 0.0
N11 N 0.29855 0.30611 0.27145 0.0
C12 C 0.30959 0.31896 0.24993 0.0
C13 C 0.30413 0.32287 0.29455 0.0
N14 N 0.32149 0.34319 0.25838 0.0
C15 C 0.3181 0.34593 0.28648 0.0
C16 C 0.29065 0.23248 0.30016 0.0
O17 O 0.27157 0.22531 0.23052 0.0
O18 O 0.30011 0.2603 0.23862 0.0
O19 O 0.2971 0.25701 0.29478 0.0
O20 O 0.26954 0.22095 0.28701 0.0
O21 O 0.25124 0.29034 0.29475 0.0
H22 H 0.2972 0.3193 0.31556 0.0
H23 H 0.30713 0.31159 0.22803 0.0
O24 O 0.22345 0.25446 0.28889 0.0
O25 O 0.2252 0.25873 0.23262 0.0
O26 O 0.25399 0.29374 0.23835 0.0
C27 C 0.23216 0.28271 0.22631 0.0
H28 H 0.18375 0.16687 0.21537 0.0
H29 H 0.32445 0.36362 0.29998 0.0
Co30 Co 0.78068 0.25435 0.24411 0.0
C31 C 0.78995 0.29727 0.28531 0.0
Co32 Co 0.74681 0.26016 0.27438 0.0
C33 C 0.82068 0.27037 0.20504 0.0
C34 C 0.82574 0.22783 0.21319 0.0
N35 N 0.80962 0.2502 0.21939 0.0
N36 N 0.84313 0.26168 0.19029 0.0
C37 C 0.84672 0.23498 0.19543 0.0
H38 H 0.81324 0.29145 0.20643 0.0
H39 H 0.82293 0.20789 0.22169 0.0
C40 C 0.73732 0.21726 0.23332 0.0
N41 N 0.71784 0.26365 0.29929 0.0
C42 C 0.70397 0.2423 0.30909 0.0
C43 C 0.70542 0.28625 0.31119 0.0
N44 N 0.68316 0.25043 0.32635 0.0
C45 C 0.68405 0.27811 0.32811 0.0
C46 C 0.73821 0.29011 0.22637 0.0
O47 O 0.76138 0.22416 0.22487 0.0
O48 O 0.72738 0.23019 0.25477 0.0
O49 O 0.72773 0.28508 0.24995 0.0
O50 O 0.76152 0.27878 0.21973 0.0
O51 O 0.76603 0.28985 0.29363 0.0
H52 H 0.71136 0.30718 0.30763 0.0
H53 H 0.70924 0.22101 0.30383 0.0
O54 O 0.80017 0.28482 0.2636 0.0
O55 O 0.79968 0.23024 0.26826 0.0
O56 O 0.76632 0.23527 0.29899 0.0
C57 C 0.78999 0.22484 0.29194 0.0
H58 H 0.86345 0.22185 0.18729 0.0
H59 H 0.67001 0.2914 0.34026 0.0
Co60 Co 0.76063 0.73218 0.28701 0.0
C61 C 0.80441 0.76729 0.30428 0.0
Co62 Co 0.76674 0.76504 0.25781 0.0
C63 C 0.77355 0.68206 0.31344 0.0
C64 C 0.73284 0.69724 0.32512 0.0
N65 N 0.75562 0.70325 0.31007 0.0
N66 N 0.76285 0.66302 0.32959 0.0
C67 C 0.7374 0.67253 0.33746 0.0
H68 H 0.79423 0.68048 0.30429 0.0
H69 H 0.71385 0.70964 0.32653 0.0
C70 C 0.72317 0.72946 0.24059 0.0
N71 N 0.77109 0.79384 0.2348 0.0
C72 C 0.75045 0.81141 0.22749 0.0
C73 C 0.79459 0.80309 0.22298 0.0
N74 N 0.76001 0.83145 0.21186 0.0
C75 C 0.78776 0.82623 0.20862 0.0
C76 C 0.79811 0.71883 0.24256 0.0
O77 O 0.73032 0.71856 0.26346 0.0
O78 O 0.7361 0.75091 0.23387 0.0
O79 O 0.79246 0.74315 0.23567 0.0
O80 O 0.7867 0.71013 0.26433 0.0
O81 O 0.79721 0.77872 0.28164 0.0
H82 H 0.81536 0.79385 0.22501 0.0
H83 H 0.72864 0.80942 0.23342 0.0
O84 O 0.79127 0.74588 0.31076 0.0
O85 O 0.73473 0.75455 0.30913 0.0
O86 O 0.74102 0.78715 0.28015 0.0
C87 C 0.72946 0.77887 0.30195 0.0
H88 H 0.72297 0.66207 0.35053 0.0
H89 H 0.80209 0.8385 0.19717 0.0
Co90 Co 0.25202 0.77358 0.27225 0.0
C91 C 0.29606 0.77292 0.31196 0.0
Co92 Co 0.27923 0.73725 0.26724 0.0
C93 C 0.20111 0.80545 0.27402 0.0
C94 C 0.23811 0.8306 0.27974 0.0
N95 N 0.22958 0.80432 0.27558 0.0
N96 N 0.19128 0.83149 0.27725 0.0
C97 C 0.21468 0.84733 0.28088 0.0
H98 H 0.18801 0.78733 0.27087 0.0
H99 H 0.25995 0.83711 0.28223 0.0
C100 C 0.23489 0.73752 0.22798 0.0
N101 N 0.30184 0.70649 0.26365 0.0
C102 C 0.32964 0.70578 0.25825 0.0
C103 C 0.29417 0.67995 0.26472 0.0
N104 N 0.33967 0.67985 0.25546 0.0
C105 C 0.31738 0.66351 0.25972 0.0
C106 C 0.2333 0.72955 0.30335 0.0
O107 O 0.22936 0.76036 0.24082 0.0
O108 O 0.25635 0.72386 0.23596 0.0
O109 O 0.25518 0.71834 0.29262 0.0
O110 O 0.22762 0.75426 0.29739 0.0
O111 O 0.30208 0.75046 0.2986 0.0
H112 H 0.27292 0.67293 0.26813 0.0
H113 H 0.342 0.72396 0.25516 0.0
O114 O 0.27465 0.7866 0.30388 0.0
O115 O 0.27634 0.79287 0.24728 0.0
O116 O 0.30313 0.75655 0.24173 0.0
C117 C 0.29791 0.78142 0.2362 0.0
H118 H 0.21509 0.86935 0.28525 0.0
H119 H 0.31754 0.64126 0.25861 0.0
Co120 Co 0.27683 0.75454 0.74814 0.0
C121 C 0.28543 0.79839 0.78793 0.0
Co122 Co 0.24303 0.76007 0.77857 0.0
C123 C 0.31499 0.77155 0.70802 0.0
C124 C 0.3222 0.72923 0.71591 0.0
N125 N 0.30562 0.75099 0.72302 0.0
N126 N 0.33668 0.7637 0.69174 0.0
C127 C 0.34159 0.7371 0.69672 0.0
H128 H 0.30663 0.79228 0.70974 0.0
H129 H 0.32052 0.70914 0.72438 0.0
C130 C 0.2347 0.71607 0.73875 0.0
N131 N 0.21399 0.76438 0.80318 0.0
C132 C 0.19926 0.74402 0.81379 0.0
C133 C 0.20055 0.78775 0.81164 0.0
N134 N 0.17671 0.75353 0.82805 0.0
C135 C 0.17756 0.78112 0.82704 0.0
C136 C 0.23267 0.78834 0.73001 0.0
O137 O 0.25839 0.72363 0.72998 0.0
O138 O 0.22427 0.7291 0.75995 0.0
O139 O 0.22337 0.78338 0.75397 0.0
O140 O 0.25633 0.77802 0.72292 0.0
O141 O 0.26184 0.79072 0.79683 0.0
H142 H 0.20639 0.80814 0.80596 0.0
H143 H 0.20478 0.72253 0.81051 0.0
O144 O 0.29559 0.78563 0.76645 0.0
O145 O 0.29671 0.73107 0.77343 0.0
O146 O 0.26262 0.73652 0.80351 0.0
C147 C 0.2864 0.72602 0.79709 0.0
H148 H 0.35797 0.72439 0.68726 0.0
H149 H 0.16209 0.79539 0.83573 0.0
Co150 Co 0.2666 0.25442 0.77009 0.0
C151 C 0.30738 0.29459 0.78454 0.0
Co152 Co 0.26968 0.28644 0.73924 0.0
C153 C 0.27437 0.20103 0.79264 0.0
C154 C 0.26019 0.23084 0.82387 0.0
N155 N 0.26544 0.22733 0.79612 0.0
N156 N 0.27578 0.18823 0.81718 0.0
C157 C 0.26647 0.20688 0.83683 0.0
H158 H 0.28125 0.19183 0.77275 0.0
H159 H 0.25425 0.25014 0.83446 0.0
C160 C 0.22857 0.24684 0.72481 0.0
N161 N 0.27117 0.31341 0.71343 0.0
C162 C 0.26618 0.34052 0.71819 0.0
C163 C 0.27345 0.3098 0.68525 0.0
N164 N 0.26422 0.35402 0.69403 0.0
C165 C 0.26918 0.33461 0.6733 0.0
C166 C 0.30447 0.2414 0.72652 0.0
O167 O 0.23719 0.2364 0.74759 0.0
O168 O 0.23985 0.26892 0.71753 0.0
O169 O 0.29686 0.26474 0.7181 0.0
O170 O 0.29435 0.23348 0.7492 0.0
O171 O 0.29934 0.30394 0.76111 0.0
H172 H 0.27609 0.2901 0.67395 0.0
H173 H 0.26248 0.34976 0.73898 0.0
O174 O 0.296 0.27276 0.79247 0.0
O175 O 0.23889 0.27563 0.79058 0.0
O176 O 0.24226 0.30784 0.76054 0.0
C177 C 0.23151 0.29921 0.78266 0.0
H178 H 0.26658 0.20428 0.85935 0.0
H179 H 0.26749 0.33743 0.65084 0.0
Co180 Co 0.74562 0.27197 0.76511 0.0
C181 C 0.79017 0.27131 0.80421 0.0
Co182 Co 0.77262 0.23551 0.7597 0.0
C183 C 0.69385 0.30019 0.77196 0.0
C184 C 0.72835 0.32865 0.77481 0.0
N185 N 0.72207 0.30188 0.76948 0.0
N186 N 0.68215 0.32459 0.77966 0.0
C187 C 0.70377 0.34271 0.78114 0.0
H188 H 0.68233 0.281 0.76967 0.0
H189 H 0.74955 0.33702 0.77585 0.0
C190 C 0.7287 0.23646 0.72009 0.0
N191 N 0.79529 0.20481 0.75585 0.0
C192 C 0.82352 0.2036 0.75275 0.0
C193 C 0.78693 0.17842 0.75636 0.0
N194 N 0.83318 0.17744 0.75121 0.0
C195 C 0.81013 0.16158 0.75363 0.0
C196 C 0.72717 0.22723 0.79577 0.0
O197 O 0.72291 0.25889 0.73357 0.0
O198 O 0.74992 0.2225 0.72813 0.0
O199 O 0.74872 0.21586 0.78468 0.0
O200 O 0.72203 0.25209 0.79037 0.0
O201 O 0.79546 0.24854 0.79107 0.0
H202 H 0.76531 0.17177 0.75836 0.0
H203 H 0.83654 0.2216 0.75086 0.0
O204 O 0.76866 0.28513 0.79654 0.0
O205 O 0.76913 0.29172 0.74013 0.0
O206 O 0.79642 0.25555 0.73456 0.0
C207 C 0.79082 0.28042 0.72902 0.0
H208 H 0.70237 0.36409 0.78852 0.0
H209 H 0.80982 0.13935 0.75311 0.0
Co210 Co 0.75369 0.74391 0.75963 0.0
C211 C 0.73566 0.78189 0.80098 0.0
Co212 Co 0.78213 0.77962 0.76554 0.0
C213 C 0.727 0.69601 0.77691 0.0
C214 C 0.71908 0.69982 0.73268 0.0
N215 N 0.73133 0.71277 0.75582 0.0
N216 N 0.71332 0.67288 0.76795 0.0
C217 C 0.70776 0.67517 0.74018 0.0
H218 H 0.73439 0.70029 0.79853 0.0
H219 H 0.71944 0.70721 0.71159 0.0
C220 C 0.79953 0.74137 0.72383 0.0
N221 N 0.80505 0.81021 0.77066 0.0
C222 C 0.81974 0.82282 0.7512 0.0
C223 C 0.81244 0.82344 0.79552 0.0
N224 N 0.8362 0.84327 0.76294 0.0
C225 C 0.83158 0.84377 0.79084 0.0
C226 C 0.79846 0.73785 0.79931 0.0
O227 O 0.77748 0.72892 0.73096 0.0
O228 O 0.80581 0.76447 0.73629 0.0
O229 O 0.80514 0.76183 0.79281 0.0
O230 O 0.77668 0.7266 0.78751 0.0
O231 O 0.75804 0.79433 0.79466 0.0
H232 H 0.80494 0.81818 0.81585 0.0
H233 H 0.81915 0.81638 0.72899 0.0
O234 O 0.72971 0.75893 0.78818 0.0
O235 O 0.7312 0.76157 0.73185 0.0
O236 O 0.75921 0.79744 0.73795 0.0
C237 C 0.7377 0.78582 0.72564 0.0
H238 H 0.69754 0.65966 0.72619 0.0
H239 H 0.84146 0.85765 0.80679 0.0
Fe240 Fe 0.01594 0.04164 0.50702 0.0
O241 O 0.98849 0.01064 0.50071 0.0
Fe242 Fe 0.08098 0.00805 0.50906 0.0
Fe243 Fe 0.94946 0.0125 0.51419 0.0
O244 O 0.04198 0.01266 0.52119 0.0
O245 O 0.04191 0.0101 0.52216 0.0
O246 O 0.98839 0.00808 0.50184 0.0
Fe247 Fe 0.01449 0.97914 0.51594 0.0
C248 C 0.97861 0.05472 0.55547 0.0
O249 O 0.98413 0.06805 0.49057 0.0
O250 O 0.94534 0.03961 0.48259 0.0
O251 O 0.02705 0.9717 0.47563 0.0
O252 O 0.07387 0.974 0.48166 0.0
O253 O 0.07567 0.03268 0.47548 0.0
O254 O 0.02931 0.03531 0.46637 0.0
O255 O 0.94442 0.97615 0.4901 0.0
O256 O 0.98208 0.95018 0.50602 0.0
C257 C 0.05475 0.03651 0.45861 0.0
O258 O 0.04603 0.95261 0.53226 0.0
O259 O 0.08487 0.98076 0.54064 0.0
O260 O 1.00328 0.04907 0.54729 0.0
O261 O 0.95647 0.04675 0.54133 0.0
C262 C 0.95903 0.06225 0.47931 0.0
C263 C 0.95798 0.95299 0.49218 0.0
C264 C 0.97622 0.98444 0.56466 0.0
O265 O 0.95508 0.98819 0.54803 0.0
O266 O 1.00153 0.98557 0.55661 0.0
C267 C 0.05174 0.96618 0.4674 0.0
O268 O 0.08589 0.04415 0.53337 0.0
O269 O 0.04844 0.07053 0.51747 0.0
C270 C 0.07091 0.95829 0.54395 0.0
C271 C 0.0724 0.06737 0.53154 0.0
Fe272 Fe 0.50969 0.97318 0.01718 0.0
O273 O 0.52984 1.00117 0.99536 0.0
Fe274 Fe 0.44792 1.00765 0.03465 0.0
Fe275 Fe 0.5712 1.0026 0.99232 0.0
O276 O 0.48926 1.00634 0.03276 0.0
O277 O 0.48945 0.00953 0.03238 0.0
O278 O 0.53005 1.00428 0.99501 0.0
Fe279 Fe 0.50962 0.0375 1.01047 0.0
C280 C 0.56571 0.97592 0.0486 0.0
O281 O 0.53484 0.94228 0.99662 0.0
O282 O 0.56366 0.96665 0.96821 0.0
O283 O 0.48063 0.03279 0.97733 0.0
O284 O 0.44065 0.03196 1.001 0.0
O285 O 0.4412 0.97352 1.00759 0.0
O286 O 0.48081 0.96777 0.98399 0.0
O287 O 0.56377 0.03057 0.96165 0.0
O288 O 0.5348 0.06235 0.98422 0.0
C289 C 0.45423 0.96489 0.98577 0.0
O290 O 0.48401 0.06843 0.0307 0.0
O291 O 0.45472 0.04375 0.05829 0.0
O292 O 0.53891 0.97748 0.0501 0.0
O293 O 0.5785 0.97803 0.0256 0.0
C294 C 0.55211 0.9441 0.97573 0.0
C295 C 0.55322 0.05519 0.96487 0.0
C296 C 0.56547 0.0458 0.04149 0.0
O297 O 0.57844 0.0364 0.01986 0.0
O298 O 0.53879 0.04332 0.04346 0.0
C299 C 0.4538 0.0345 0.97827 0.0
O300 O 0.45519 0.98 0.06567 0.0
O301 O 0.48446 0.94825 0.04346 0.0
C302 C 0.46534 0.06659 0.0504 0.0
C303 C 0.46598 0.95544 0.06278 0.0
Fe304 Fe 1.00963 0.53881 1.0127 0.0
O305 O 0.98912 0.50644 0.99489 0.0
Fe306 Fe 0.0769 0.5123 0.0278 0.0
Fe307 Fe 0.94821 0.50272 0.99519 0.0
O308 O 0.03511 0.51062 0.02949 0.0
O309 O 0.036 0.50796 0.02813 0.0
O310 O 0.99001 0.50381 0.99354 0.0
Fe311 Fe 0.01556 0.47552 1.01013 0.0
C312 C 0.95782 0.54352 0.04718 0.0
O313 O 0.9807 0.56428 0.99144 0.0
O314 O 0.94972 0.53396 0.96738 0.0
O315 O 0.04049 0.47389 0.97486 0.0
O316 O 0.08254 0.4818 0.99619 0.0
O317 O 0.07679 0.54173 0.9979 0.0
O318 O 0.03376 0.53841 0.97787 0.0
O319 O 0.95436 0.46956 0.96705 0.0
O320 O 0.98988 0.44503 0.98913 0.0
C321 C 0.05904 0.54693 0.9781 0.0
O322 O 0.04479 0.45007 0.03116 0.0
O323 O 0.07591 0.48048 0.05498 0.0
O324 O 0.98467 0.54074 0.04795 0.0
O325 O 0.94275 0.53392 0.02617 0.0
C326 C 0.96129 0.55805 0.97198 0.0
C327 C 0.96905 0.44732 0.97065 0.0
C328 C 0.96567 0.46942 0.04597 0.0
O329 O 0.94796 0.47428 0.026 0.0
O330 O 0.99165 0.47552 0.04509 0.0
C331 C 0.06743 0.47182 0.97537 0.0
O332 O 0.07034 0.54503 0.05647 0.0
O333 O 0.03509 0.56932 0.03357 0.0
C334 C 0.06448 0.45633 0.05036 0.0
C335 C 0.05545 0.56707 0.05246 0.0
Fe336 Fe 0.51427 0.53216 0.95136 0.0
O337 O 0.51966 0.52968 0.99228 0.0
Fe338 Fe 0.48446 0.51962 0.01528 0.0
Fe339 Fe 0.54797 0.50437 1.0096 0.0
O340 O 0.51688 0.53043 0.99246 0.0
O341 O 0.51305 0.49483 0.03302 0.0
O342 O 0.51574 0.49412 0.03287 0.0
Fe343 Fe 0.51896 0.49213 0.07385 0.0
C344 C 0.53584 0.47386 0.95405 0.0
O345 O 0.55336 0.55063 0.95641 0.0
O346 O 0.57814 0.51906 0.98239 0.0
O347 O 0.49799 0.52816 0.08357 0.0
O348 O 0.49433 0.55142 0.04422 0.0
O349 O 0.4586 0.54737 0.99279 0.0
O350 O 0.48888 0.56558 0.96147 0.0
O351 O 0.55974 0.53575 0.03821 0.0
O352 O 0.55658 0.51406 0.0781 0.0
C353 C 0.46512 0.56535 0.97452 0.0
O354 O 0.47949 0.47409 0.06932 0.0
O355 O 0.45432 0.50463 0.04228 0.0
O356 O 0.53628 0.49655 0.94198 0.0
O357 O 0.53671 0.4729 0.98081 0.0
C358 C 0.57668 0.53963 0.96586 0.0
C359 C 0.56536 0.53405 0.06445 0.0
C360 C 0.56701 0.45805 0.04985 0.0
O361 O 0.57365 0.47601 0.03159 0.0
O362 O 0.54348 0.45826 0.06329 0.0
C363 C 0.49644 0.55055 0.07097 0.0
O364 O 0.47368 0.48788 0.98645 0.0
O365 O 0.47718 0.5097 0.94667 0.0
C366 C 0.4561 0.48458 0.05941 0.0
C367 C 0.46877 0.4894 0.96003 0.0
Fe368 Fe 1.01121 0.47234 0.5185 0.0
O369 O 0.99155 0.50582 0.53465 0.0
Fe370 Fe 0.03667 0.4955 0.45559 0.0
Fe371 Fe 0.98725 0.51341 0.57549 0.0
O372 O 0.03155 0.49987 0.49642 0.0
O373 O 0.03231 0.50293 0.49642 0.0
O374 O 0.99235 0.5089 0.53467 0.0
Fe375 Fe 1.01276 0.5364 0.51265 0.0
C376 C 0.96547 0.45485 0.56196 0.0
O377 O 0.04288 0.4767 0.54881 0.0
O378 O 0.01781 0.48556 0.5872 0.0
O379 O 0.03766 0.56096 0.48604 0.0
O380 O 0.06402 0.52883 0.4607 0.0
O381 O 0.06376 0.46492 0.46804 0.0
O382 O 0.03602 0.44109 0.49788 0.0
O383 O 0.01741 0.54395 0.5812 0.0
O384 O 0.04433 0.5412 0.54341 0.0
C385 C 0.05759 0.44321 0.48141 0.0
O386 O 0.98114 0.53216 0.48244 0.0
O387 O 1.00604 0.52334 0.44393 0.0
O388 O 0.98629 0.44786 0.54519 0.0
O389 O 0.95991 0.48012 0.57039 0.0
C390 C 0.04105 0.47956 0.57547 0.0
C391 C 0.0409 0.54757 0.56947 0.0
C392 C 0.96652 0.56582 0.54981 0.0
O393 O 0.9602 0.54409 0.5631 0.0
O394 O 0.98808 0.56773 0.53329 0.0
C395 C 0.05845 0.55407 0.46921 0.0
O396 O 1.00655 0.4649 0.44976 0.0
O397 O 0.97967 0.46727 0.48762 0.0
C398 C 0.9829 0.52949 0.45579 0.0
C399 C 0.98311 0.46102 0.4615 0.0
Fe400 Fe 0.51543 0.97611 0.51507 0.0
O401 O 0.53405 0.00992 0.53262 0.0
Fe402 Fe 0.48656 0.99829 0.45199 0.0
Fe403 Fe 0.53896 0.0167 0.57397 0.0
O404 O 0.49273 1.00256 0.49284 0.0
O405 O 0.49138 1.00527 0.49336 0.0
O406 O 0.53274 0.01259 0.53312 0.0
Fe407 Fe 0.51027 0.03907 0.51071 0.0
C408 C 0.48922 0.97628 0.57087 0.0
O409 O 0.54192 0.95265 0.54143 0.0
O410 O 0.56792 0.98503 0.56842 0.0
O411 O 0.54078 0.03597 0.48115 0.0
O412 O 0.51433 0.02874 0.44198 0.0
O413 O 0.51815 0.96891 0.44631 0.0
O414 O 0.54622 0.97173 0.48493 0.0
O415 O 0.56368 0.04901 0.56291 0.0
O416 O 0.53426 0.07098 0.53128 0.0
C417 C 0.54147 0.96362 0.45919 0.0
O418 O 0.48395 0.06252 0.48415 0.0
O419 O 0.45772 0.03013 0.45738 0.0
O420 O 0.48492 0.97875 0.54462 0.0
O421 O 0.51117 0.98619 0.58393 0.0
C422 C 0.56315 0.95998 0.55849 0.0
C423 C 0.55648 0.06991 0.54825 0.0
C424 C 0.4842 0.05172 0.56674 0.0
O425 O 0.50731 0.04592 0.57974 0.0
O426 O 0.47957 0.04405 0.54086 0.0
C427 C 0.53623 0.03878 0.455 0.0
O428 O 0.46183 0.96601 0.46311 0.0
O429 O 0.49167 0.9441 0.49437 0.0
C430 C 0.4627 0.05523 0.46709 0.0
C431 C 0.4693 0.94509 0.47761 0.0
H432 H 0.16134 0.1335 0.2368 0.0
H433 H 0.12607 0.10666 0.25949 0.0
H434 H 0.13994 0.1559 0.33702 0.0
H435 H 0.17367 0.1839 0.31428 0.0
H436 H 0.13187 0.07477 0.30097 0.0
H437 H 0.05587 0.15503 0.33383 0.0
H438 H 0.08298 0.16112 0.30893 0.0
H439 H 0.09047 0.1655 0.34647 0.0
C440 C 0.15656 0.13913 0.25849 0.0
C441 C 0.17053 0.16119 0.27349 0.0
C442 C 0.13637 0.12359 0.27147 0.0
C443 C 0.12977 0.12968 0.29975 0.0
C444 C 0.14389 0.15137 0.31488 0.0
H445 H 0.10607 0.03751 0.43449 0.0
H446 H 0.11764 0.05575 0.38987 0.0
C447 C 0.16376 0.16712 0.30187 0.0
C448 C 0.11013 0.11203 0.31446 0.0
H449 H 0.05975 0.11583 0.36439 0.0
C450 C 0.11556 0.08366 0.31426 0.0
C451 C 0.08807 0.12325 0.33104 0.0
C452 C 0.07883 0.15286 0.32976 0.0
C453 C 0.10164 0.06684 0.33245 0.0
C454 C 0.08258 0.07892 0.35194 0.0
C455 C 0.07488 0.10663 0.34994 0.0
C456 C 0.07428 0.06472 0.37725 0.0
C457 C 0.10842 0.0365 0.33134 0.0
C458 C 0.04598 0.06413 0.38547 0.0
C459 C 0.03925 0.05408 0.41156 0.0
C460 C 0.06079 0.04472 0.42985 0.0
C461 C 0.08891 0.0446 0.42104 0.0
C462 C 0.09557 0.05469 0.39522 0.0
H463 H 0.11245 0.02884 0.30934 0.0
H464 H 0.12802 0.03303 0.34418 0.0
H465 H 0.09099 0.02429 0.33958 0.0
H466 H 0.02925 0.07208 0.37205 0.0
H467 H 0.01737 0.05447 0.41774 0.0
H468 H 0.84008 0.19894 0.28115 0.0
H469 H 0.87051 0.17395 0.31342 0.0
H470 H 0.81058 0.18804 0.37935 0.0
H471 H 0.77986 0.21353 0.34708 0.0
H472 H 0.86884 0.19846 0.39679 0.0
H473 H 0.85535 0.09646 0.33975 0.0
H474 H 0.86604 0.12348 0.3181 0.0
H475 H 0.83187 0.12502 0.33372 0.0
C476 C 0.83314 0.19662 0.30244 0.0
C477 C 0.80733 0.20813 0.31142 0.0
C478 C 0.85064 0.18226 0.32088 0.0
C479 C 0.84277 0.17888 0.34874 0.0
C480 C 0.81707 0.19036 0.35791 0.0
H481 H 0.90289 0.06281 0.46479 0.0
H482 H 0.87747 0.09301 0.43391 0.0
C483 C 0.79944 0.20476 0.33939 0.0
C484 C 0.86141 0.16324 0.36811 0.0
H485 H 0.88992 0.09956 0.37689 0.0
C486 C 0.87349 0.17684 0.39247 0.0
C487 C 0.86745 0.13502 0.36247 0.0
C488 C 0.85435 0.119 0.33724 0.0
C489 C 0.89138 0.16292 0.41133 0.0
C490 C 0.89749 0.13474 0.40556 0.0
C491 C 0.88551 0.12125 0.38113 0.0
C492 C 0.91374 0.11796 0.42587 0.0
C493 C 0.90298 0.17816 0.43769 0.0
C494 C 0.94282 0.12204 0.43203 0.0
C495 C 0.95778 0.10452 0.44995 0.0
C496 C 0.94387 0.08257 0.46179 0.0
C497 C 0.91461 0.07917 0.45591 0.0
C498 C 0.89986 0.09653 0.43822 0.0
H499 H 0.89299 0.19871 0.44116 0.0
H500 H 0.89964 0.16604 0.45647 0.0
H501 H 0.92612 0.18106 0.43588 0.0
H502 H 0.95407 0.13831 0.42248 0.0
H503 H 0.98026 0.10771 0.45391 0.0
H504 H 0.82619 0.74805 0.35382 0.0
H505 H 0.85834 0.77208 0.38833 0.0
H506 H 0.8633 0.84001 0.33404 0.0
H507 H 0.83189 0.81595 0.29922 0.0
H508 H 0.91479 0.82853 0.3593 0.0
H509 H 0.83049 0.83601 0.43864 0.0
H510 H 0.83964 0.80168 0.42637 0.0
H511 H 0.82334 0.8247 0.4023 0.0
C512 C 0.8344 0.76796 0.34909 0.0
C513 C 0.82621 0.78019 0.32388 0.0
C514 C 0.85266 0.78174 0.36891 0.0
C515 C 0.86277 0.8081 0.36404 0.0
C516 C 0.85569 0.81974 0.33832 0.0
H517 H 0.905 0.94849 0.46777 0.0
H518 H 0.88505 0.91014 0.43895 0.0
C519 C 0.83764 0.80594 0.31844 0.0
C520 C 0.87934 0.82448 0.38616 0.0
H521 H 0.87391 0.85708 0.45139 0.0
C522 C 0.90605 0.83453 0.37959 0.0
C523 C 0.86776 0.83247 0.41255 0.0
C524 C 0.83865 0.8234 0.42041 0.0
C525 C 0.92104 0.85307 0.39827 0.0
C526 C 0.9092 0.86138 0.42443 0.0
C527 C 0.88301 0.85052 0.43142 0.0
C528 C 0.92174 0.88383 0.44325 0.0
C529 C 0.94867 0.86472 0.38919 0.0
C530 C 0.94895 0.88169 0.45578 0.0
C531 C 0.96063 0.90383 0.47236 0.0
C532 C 0.94521 0.92843 0.47676 0.0
C533 C 0.91765 0.93003 0.4648 0.0
C534 C 0.9061 0.90803 0.44831 0.0
H535 H 0.95223 0.86007 0.36638 0.0
H536 H 0.94925 0.88738 0.39342 0.0
H537 H 0.96642 0.85567 0.40146 0.0
H538 H 0.96122 0.86302 0.45256 0.0
H539 H 0.98191 0.90186 0.4812 0.0
H540 H 0.14497 0.7992 0.28431 0.0
H541 H 0.09954 0.81489 0.30133 0.0
H542 H 0.12625 0.89913 0.29654 0.0
H543 H 0.1707 0.88378 0.27757 0.0
H544 H 0.10015 0.83731 0.3502 0.0
H545 H 0.04468 0.91105 0.28543 0.0
H546 H 0.0708 0.88776 0.27052 0.0
H547 H 0.08108 0.921 0.28641 0.0
C548 C 0.14096 0.82108 0.28572 0.0
C549 C 0.16228 0.84021 0.28068 0.0
C550 C 0.11472 0.83002 0.29542 0.0
C551 C 0.10939 0.8582 0.30051 0.0
C552 C 0.12943 0.87726 0.29248 0.0
H553 H 0.10053 0.94988 0.44203 0.0
H554 H 0.10511 0.91998 0.39945 0.0
C555 C 0.1554 0.86837 0.28228 0.0
C556 C 0.08744 0.86756 0.32051 0.0
H557 H 0.04923 0.92526 0.3378 0.0
C558 C 0.08799 0.85588 0.34699 0.0
C559 C 0.07097 0.89147 0.31656 0.0
C560 C 0.06667 0.90324 0.288 0.0
C561 C 0.07608 0.86961 0.37039 0.0
C562 C 0.0637 0.89567 0.36722 0.0
C563 C 0.05956 0.90556 0.34019 0.0
C564 C 0.06 0.91462 0.39202 0.0
C565 C 0.0791 0.85735 0.39887 0.0
C566 C 0.03306 0.92175 0.4014 0.0
C567 C 0.03034 0.93881 0.42582 0.0
C568 C 0.05458 0.94903 0.44101 0.0
C569 C 0.08149 0.94226 0.43099 0.0
C570 C 0.08414 0.9252 0.4067 0.0
H571 H 0.08145 0.83463 0.39671 0.0
H572 H 0.0983 0.8659 0.41017 0.0
H573 H 0.06052 0.86252 0.41193 0.0
H574 H 0.01427 0.91374 0.39019 0.0
H575 H 1.00926 0.94368 0.43294 0.0
H576 H 0.18025 0.81017 0.73891 0.0
H577 H 0.15028 0.83555 0.70658 0.0
H578 H 0.21505 0.8296 0.64448 0.0
H579 H 0.24516 0.80356 0.67668 0.0
H580 H 0.15911 0.88427 0.6846 0.0
H581 H 0.14557 0.80411 0.5977 0.0
H582 H 0.15996 0.79667 0.63218 0.0
H583 H 0.18195 0.81171 0.60688 0.0
C584 C 0.18821 0.81417 0.71836 0.0
C585 C 0.21517 0.80474 0.7104 0.0
C586 C 0.17096 0.82868 0.69984 0.0
C587 C 0.18011 0.83412 0.67285 0.0
C588 C 0.20718 0.82509 0.66491 0.0
H589 H 0.12442 0.96128 0.56734 0.0
H590 H 0.14801 0.92986 0.59832 0.0
C591 C 0.22451 0.81043 0.68345 0.0
C592 C 0.16169 0.85031 0.65372 0.0
H593 H 0.12983 0.84943 0.58784 0.0
C594 C 0.15258 0.87651 0.66353 0.0
C595 C 0.15267 0.84008 0.62637 0.0
C596 C 0.16028 0.81149 0.61521 0.0
C597 C 0.13557 0.89306 0.64651 0.0
C598 C 0.12773 0.88341 0.61868 0.0
C599 C 0.13598 0.85687 0.60912 0.0
C600 C 0.11292 0.90158 0.59872 0.0
C601 C 0.12622 0.92088 0.65842 0.0
C602 C 0.0854 0.89579 0.5879 0.0
C603 C 0.07154 0.91394 0.5699 0.0
C604 C 0.08511 0.93805 0.56229 0.0
C605 C 0.11296 0.94319 0.57278 0.0
C606 C 0.12663 0.92521 0.59064 0.0
H607 H 0.12713 0.92206 0.68189 0.0
H608 H 0.14051 0.9369 0.65114 0.0
H609 H 0.10431 0.92567 0.65104 0.0
H610 H 0.07449 0.87754 0.59378 0.0
H611 H 0.05018 0.90924 0.56224 0.0
H612 H 0.20663 0.19508 0.72812 0.0
H613 H 0.17434 0.17074 0.69399 0.0
H614 H 0.16836 0.24292 0.64532 0.0
H615 H 0.20105 0.26716 0.6789 0.0
H616 H 0.11923 0.18067 0.67302 0.0
H617 H 0.19803 0.18464 0.58872 0.0
H618 H 0.2069 0.19343 0.62534 0.0
H619 H 0.18798 0.21752 0.60434 0.0
C620 C 0.19825 0.20585 0.7103 0.0
C621 C 0.20673 0.23293 0.70604 0.0
C622 C 0.17974 0.19194 0.69084 0.0
C623 C 0.16935 0.20486 0.66683 0.0
C624 C 0.17659 0.23236 0.66335 0.0
H625 H 0.04721 0.11671 0.54804 0.0
H626 H 0.06796 0.15376 0.57932 0.0
C627 C 0.19524 0.2462 0.68264 0.0
C628 C 0.15242 0.18898 0.64465 0.0
H629 H 0.15456 0.16335 0.57627 0.0
C630 C 0.12678 0.17704 0.65178 0.0
C631 C 0.16243 0.18418 0.61698 0.0
C632 C 0.19044 0.19538 0.60834 0.0
C633 C 0.11122 0.15986 0.63218 0.0
C634 C 0.12146 0.15482 0.60464 0.0
C635 C 0.14664 0.16746 0.59731 0.0
C636 C 0.10866 0.13374 0.58435 0.0
C637 C 0.08472 0.14621 0.64149 0.0
C638 C 0.12492 0.11077 0.57599 0.0
C639 C 0.11335 0.0899 0.55801 0.0
C640 C 0.08512 0.09141 0.54783 0.0
C641 C 0.06903 0.11492 0.5554 0.0
C642 C 0.08074 0.13595 0.57353 0.0
H643 H 0.08232 0.14863 0.66472 0.0
H644 H 0.06595 0.15558 0.63111 0.0
H645 H 0.08482 0.12392 0.63512 0.0
H646 H 0.14652 0.10864 0.58396 0.0
H647 H 0.1265 0.07226 0.55255 0.0
H648 H 0.88246 0.20636 0.75833 0.0
H649 H 0.92807 0.19336 0.73825 0.0
H650 H 0.89308 0.11503 0.70831 0.0
H651 H 0.84797 0.12767 0.72777 0.0
H652 H 0.95071 0.11223 0.7267 0.0
H653 H 0.92963 0.19509 0.65171 0.0
H654 H 0.93309 0.20371 0.68903 0.0
H655 H 0.90258 0.1851 0.67505 0.0
C656 C 0.8846 0.18625 0.74773 0.0
C657 C 0.86124 0.16834 0.74412 0.0
C658 C 0.91073 0.17882 0.73647 0.0
C659 C 0.91376 0.15342 0.72149 0.0
C660 C 0.89122 0.13472 0.71994 0.0
H661 H 0.93019 0.06709 0.58334 0.0
H662 H 0.92559 0.09536 0.62704 0.0
C663 C 0.86527 0.14206 0.7311 0.0
C664 C 0.93806 0.14723 0.70341 0.0
H665 H 0.95507 0.15663 0.63532 0.0
C666 C 0.95284 0.12256 0.70719 0.0
C667 C 0.94083 0.1609 0.67804 0.0
C668 C 0.92575 0.18766 0.67299 0.0
C669 C 0.96702 0.1093 0.68477 0.0
C670 C 0.96641 0.12123 0.65835 0.0
C671 C 0.95516 0.14763 0.65575 0.0
C672 C 0.97035 0.10416 0.63226 0.0
C673 C 0.97961 0.08117 0.68836 0.0
C674 C 0.99711 0.09993 0.62101 0.0
C675 C 0.99984 0.08372 0.59601 0.0
C676 C 0.97578 0.07169 0.58197 0.0
C677 C 0.94906 0.0761 0.59351 0.0
C678 C 0.94641 0.0922 0.61845 0.0
H679 H 0.98188 0.07638 0.71095 0.0
H680 H 0.96573 0.06541 0.67727 0.0
H681 H 1.0007 0.0797 0.67869 0.0
H682 H 0.01573 0.10915 0.63149 0.0
H683 H 0.02076 0.08077 0.58762 0.0
H684 H 0.88435 0.86719 0.78518 0.0
H685 H 0.91841 0.89408 0.76031 0.0
H686 H 0.86709 0.88333 0.68375 0.0
H687 H 0.83283 0.85683 0.70841 0.0
H688 H 0.92716 0.87022 0.67933 0.0
H689 H 0.90608 0.97342 0.73137 0.0
H690 H 0.91273 0.94485 0.75325 0.0
H691 H 0.88089 0.94564 0.73175 0.0
C692 C 0.88011 0.87087 0.76316 0.0
C693 C 0.85586 0.85984 0.74874 0.0
C694 C 0.89964 0.88615 0.749 0.0
C695 C 0.89513 0.89068 0.7203 0.0
C696 C 0.87093 0.8799 0.70593 0.0
H697 H 0.92713 0.99016 0.5926 0.0
H698 H 0.91494 0.96936 0.63606 0.0
C699 C 0.85144 0.86467 0.72001 0.0
C700 C 0.91563 0.90625 0.70465 0.0
H701 H 0.93571 0.97165 0.69251 0.0
C702 C 0.92963 0.89233 0.6825 0.0
C703 C 0.91868 0.93502 0.7091 0.0
C704 C 0.90378 0.95081 0.73255 0.0
C705 C 0.9451 0.90667 0.66335 0.0
C706 C 0.94687 0.93567 0.66682 0.0
C707 C 0.93444 0.9494 0.69012 0.0
C708 C 0.95658 0.95214 0.64374 0.0
C709 C 0.95751 0.89089 0.63834 0.0
C710 C 0.9844 0.95024 0.63427 0.0
C711 C 0.99144 0.96199 0.60914 0.0
C712 C 0.97067 0.97573 0.59328 0.0
C713 C 0.94346 0.97927 0.60405 0.0
C714 C 0.93651 0.96759 0.62903 0.0
H715 H 0.95118 0.86889 0.63705 0.0
H716 H 0.95068 0.90017 0.61835 0.0
H717 H 0.98095 0.89186 0.64011 0.0
H718 H 1.00028 0.9387 0.64562 0.0
H719 H 1.01266 0.95914 0.60148 0.0
H720 H 0.34675 0.2566 0.21278 0.0
H721 H 0.3802 0.23596 0.17931 0.0
H722 H 0.32044 0.1713 0.15623 0.0
H723 H 0.28686 0.19172 0.18965 0.0
H724 H 0.40348 0.18163 0.17906 0.0
H725 H 0.34357 0.19966 0.07951 0.0
H726 H 0.33625 0.21816 0.11256 0.0
H727 H 0.32288 0.18388 0.1053 0.0
C728 C 0.34059 0.23809 0.20044 0.0
C729 C 0.31403 0.22585 0.20389 0.0
C730 C 0.35979 0.22632 0.18134 0.0
C731 C 0.35272 0.20229 0.165 0.0
C732 C 0.32618 0.19012 0.16826 0.0
H733 H 0.41052 0.07266 0.06269 0.0
H734 H 0.38761 0.11051 0.08834 0.0
C735 C 0.30704 0.20175 0.18749 0.0
C736 C 0.37337 0.18916 0.14537 0.0
H737 H 0.38034 0.16564 0.07679 0.0
C738 C 0.39876 0.17857 0.15659 0.0
C739 C 0.36732 0.18546 0.11603 0.0
C740 C 0.34116 0.19762 0.10253 0.0
C741 C 0.41719 0.16259 0.13958 0.0
C742 C 0.41025 0.15748 0.11052 0.0
C743 C 0.38572 0.16957 0.09904 0.0
C744 C 0.42505 0.13595 0.09295 0.0
C745 C 0.44293 0.14974 0.15319 0.0
C746 C 0.45383 0.13778 0.08627 0.0
C747 C 0.46724 0.11581 0.07132 0.0
C748 C 0.45202 0.09175 0.06321 0.0
C749 C 0.42303 0.09068 0.06904 0.0
C750 C 0.40978 0.11243 0.08361 0.0
H751 H 0.44354 0.15319 0.17655 0.0
H752 H 0.44336 0.12725 0.14787 0.0
H753 H 0.46233 0.15876 0.14494 0.0
H754 H 0.46595 0.15594 0.09294 0.0
H755 H 0.48955 0.11721 0.06705 0.0
H756 H 0.82576 0.30009 0.15552 0.0
H757 H 0.8551 0.33549 0.13652 0.0
H758 H 0.92979 0.29869 0.17336 0.0
H759 H 0.90025 0.26277 0.19204 0.0
H760 H 0.88857 0.37134 0.17325 0.0
H761 H 0.95204 0.31425 0.09182 0.0
H762 H 0.91973 0.30043 0.10458 0.0
H763 H 0.95137 0.30103 0.1265 0.0
C764 C 0.84851 0.2993 0.15897 0.0
C765 C 0.86091 0.27896 0.17514 0.0
C766 C 0.86518 0.31946 0.14827 0.0
C767 C 0.89448 0.31966 0.15373 0.0
C768 C 0.9072 0.29861 0.16875 0.0
H769 H 0.99976 0.4456 0.08532 0.0
H770 H 0.98603 0.41161 0.11822 0.0
C771 C 0.89044 0.27816 0.17927 0.0
C772 C 0.91093 0.34318 0.14515 0.0
H773 H 0.95667 0.3623 0.09582 0.0
C774 C 0.90383 0.3694 0.15663 0.0
C775 C 0.93098 0.34036 0.12377 0.0
C776 C 0.93901 0.31257 0.11074 0.0
C777 C 0.91502 0.39311 0.14598 0.0
C778 C 0.9336 0.39034 0.12334 0.0
C779 C 0.9423 0.36414 0.11322 0.0
C780 C 0.94136 0.41403 0.10738 0.0
C781 C 0.9061 0.42094 0.15821 0.0
C782 C 0.92056 0.42687 0.09094 0.0
C783 C 0.92825 0.44612 0.07191 0.0
C784 C 0.95688 0.45273 0.06912 0.0
C785 C 0.97748 0.44095 0.08691 0.0
C786 C 0.96976 0.42153 0.10573 0.0
H787 H 0.89829 0.41968 0.17995 0.0
H788 H 0.92393 0.43577 0.15866 0.0
H789 H 0.88866 0.42904 0.14479 0.0
H790 H 0.89853 0.42094 0.09177 0.0
H791 H 0.91192 0.45491 0.0586 0.0
H792 H 0.76579 0.85428 0.16173 0.0
H793 H 0.73283 0.88667 0.14011 0.0
H794 H 0.68326 0.88962 0.21503 0.0
H795 H 0.71621 0.85757 0.23678 0.0
H796 H 0.6733 0.87089 0.13346 0.0
H797 H 0.68922 0.97181 0.19268 0.0
H798 H 0.71642 0.94563 0.1908 0.0
H799 H 0.68702 0.94196 0.2133 0.0
C800 C 0.74829 0.86244 0.1738 0.0
C801 C 0.74329 0.85325 0.20072 0.0
C802 C 0.7295 0.88082 0.16147 0.0
C803 C 0.7058 0.89055 0.17612 0.0
C804 C 0.70163 0.88256 0.20358 0.0
H805 H 0.55039 0.94545 0.09253 0.0
H806 H 0.5825 0.92721 0.12877 0.0
C807 C 0.72026 0.86406 0.21581 0.0
C808 C 0.68353 0.90601 0.16138 0.0
H809 H 0.65034 0.96831 0.15983 0.0
C810 C 0.66822 0.89217 0.13921 0.0
C811 C 0.67702 0.93367 0.16921 0.0
C812 C 0.69334 0.94933 0.19268 0.0
C813 C 0.64659 0.90537 0.12434 0.0
C814 C 0.64 0.93304 0.13212 0.0
C815 C 0.65524 0.94693 0.15436 0.0
C816 C 0.61942 0.94838 0.11511 0.0
C817 C 0.63147 0.8899 0.09987 0.0
C818 C 0.62949 0.96716 0.0965 0.0
C819 C 0.6114 0.97732 0.0758 0.0
C820 C 0.58294 0.96898 0.07356 0.0
C821 C 0.57229 0.95204 0.09377 0.0
C822 C 0.59054 0.94165 0.11439 0.0
H823 H 0.64188 0.86995 0.09417 0.0
H824 H 0.60937 0.88569 0.10559 0.0
H825 H 0.63063 0.90244 0.08099 0.0
H826 H 0.65172 0.97258 0.09684 0.0
H827 H 0.61998 0.9908 0.06076 0.0
H828 H 0.18012 0.75273 0.21753 0.0
H829 H 0.14523 0.72868 0.18613 0.0
H830 H 0.20991 0.67225 0.15683 0.0
H831 H 0.24469 0.69551 0.18901 0.0
H832 H 0.13848 0.71625 0.13023 0.0
H833 H 0.15339 0.62081 0.18737 0.0
H834 H 0.16872 0.65318 0.20008 0.0
H835 H 0.18571 0.63221 0.17305 0.0
C836 C 0.18699 0.73538 0.20415 0.0
C837 C 0.21504 0.72571 0.20599 0.0
C838 C 0.16702 0.72168 0.18622 0.0
C839 C 0.17483 0.69825 0.16972 0.0
C840 C 0.20327 0.68979 0.17004 0.0
H841 H 0.08417 0.60983 0.0337 0.0
H842 H 0.10947 0.64536 0.06292 0.0
C843 C 0.22315 0.70319 0.18828 0.0
C844 C 0.153 0.68178 0.15342 0.0
H845 H 0.12665 0.61678 0.14408 0.0
C846 C 0.13569 0.69453 0.13335 0.0
C847 C 0.14884 0.65365 0.1581 0.0
C848 C 0.16493 0.63923 0.18104 0.0
C849 C 0.11495 0.67963 0.11714 0.0
C850 C 0.11206 0.65109 0.12061 0.0
C851 C 0.12888 0.63862 0.14126 0.0
C852 C 0.09283 0.63319 0.10245 0.0
C853 C 0.09621 0.69473 0.09679 0.0
C854 C 0.07494 0.61453 0.11482 0.0
C855 C 0.06117 0.59381 0.0982 0.0
C856 C 0.06459 0.59187 0.06895 0.0
C857 C 0.08091 0.61146 0.05626 0.0
C858 C 0.09521 0.63183 0.07294 0.0
H859 H 0.09384 0.71672 0.1039 0.0
H860 H 0.10603 0.69403 0.07581 0.0
H861 H 0.07484 0.68533 0.09433 0.0
H862 H 0.07282 0.61512 0.13752 0.0
H863 H 0.04886 0.57861 0.10828 0.0
H864 H 0.33865 0.81673 0.77741 0.0
H865 H 0.36839 0.84781 0.80789 0.0
H866 H 0.2999 0.85996 0.86522 0.0
H867 H 0.27009 0.82883 0.83513 0.0
H868 H 0.36067 0.90426 0.8306 0.0
H869 H 0.36586 0.82757 0.91314 0.0
H870 H 0.35396 0.8189 0.87722 0.0
H871 H 0.33061 0.83636 0.90147 0.0
C872 C 0.32977 0.82631 0.79631 0.0
C873 C 0.30209 0.82005 0.80401 0.0
C874 C 0.3468 0.84406 0.81367 0.0
C875 C 0.33647 0.85576 0.83901 0.0
C876 C 0.30839 0.85075 0.84596 0.0
H877 H 0.39778 0.95292 0.98375 0.0
H878 H 0.37075 0.92759 0.94631 0.0
C879 C 0.29136 0.83303 0.82867 0.0
C880 C 0.35544 0.87185 0.85909 0.0
H881 H 0.3847 0.87176 0.92581 0.0
C882 C 0.36614 0.89713 0.85134 0.0
C883 C 0.36267 0.86232 0.88604 0.0
C884 C 0.35293 0.83469 0.89497 0.0
C885 C 0.38311 0.91363 0.87033 0.0
C886 C 0.38972 0.90433 0.89749 0.0
C887 C 0.37949 0.87882 0.90497 0.0
C888 C 0.40625 0.92114 0.91906 0.0
C889 C 0.39311 0.94123 0.86169 0.0
C890 C 0.43526 0.92588 0.9161 0.0
C891 C 0.45096 0.94028 0.93763 0.0
C892 C 0.43785 0.95013 0.96247 0.0
C893 C 0.40866 0.94559 0.96503 0.0
C894 C 0.3931 0.93115 0.94362 0.0
H895 H 0.38262 0.94724 0.84165 0.0
H896 H 0.389 0.95739 0.87851 0.0
H897 H 0.4163 0.94041 0.8587 0.0
H898 H 0.44585 0.91798 0.89741 0.0
H899 H 0.47337 0.94344 0.93493 0.0
H900 H 0.21067 0.29005 0.83467 0.0
H901 H 0.18012 0.31991 0.86357 0.0
H902 H 0.17622 0.37813 0.79821 0.0
H903 H 0.20761 0.3487 0.76953 0.0
H904 H 0.18451 0.40457 0.84725 0.0
H905 H 0.09671 0.332 0.85918 0.0
H906 H 0.12979 0.31798 0.87118 0.0
H907 H 0.12444 0.32505 0.83448 0.0
C908 C 0.20312 0.30908 0.82627 0.0
C909 C 0.21156 0.3168 0.79961 0.0
C910 C 0.18538 0.32611 0.8428 0.0
C911 C 0.17516 0.35116 0.83299 0.0
C912 C 0.18354 0.35889 0.80633 0.0
H913 H 0.04444 0.4466 0.92609 0.0
H914 H 0.06925 0.41894 0.88962 0.0
C915 C 0.2015 0.34197 0.78986 0.0
C916 C 0.15703 0.36987 0.85111 0.0
H917 H 0.09825 0.3716 0.8917 0.0
C918 C 0.1655 0.39734 0.85671 0.0
C919 C 0.13179 0.36089 0.86318 0.0
C920 C 0.11997 0.33246 0.85645 0.0
C921 C 0.15023 0.41559 0.87466 0.0
C922 C 0.12607 0.40608 0.88821 0.0
C923 C 0.11694 0.37894 0.88177 0.0
C924 C 0.11077 0.42359 0.9099 0.0
C925 C 0.1601 0.44503 0.87865 0.0
C926 C 0.12557 0.43529 0.9337 0.0
C927 C 0.11154 0.45127 0.95438 0.0
C928 C 0.08207 0.45578 0.9522 0.0
C929 C 0.06712 0.44383 0.92847 0.0
C930 C 0.08131 0.42789 0.9076 0.0
H931 H 0.17187 0.45129 0.86014 0.0
H932 H 0.14205 0.45939 0.88194 0.0
H933 H 0.1747 0.4471 0.89742 0.0
H934 H 0.14808 0.43172 0.93661 0.0
H935 H 0.12389 0.45973 0.9724 0.0
H936 H 0.68198 0.24647 0.82703 0.0
H937 H 0.65112 0.22074 0.85681 0.0
H938 H 0.6969 0.1463 0.83485 0.0
H939 H 0.7283 0.17203 0.80597 0.0
H940 H 0.61428 0.18062 0.84819 0.0
H941 H 0.69871 0.1404 0.91767 0.0
H942 H 0.70554 0.16632 0.89305 0.0
H943 H 0.70465 0.13043 0.88144 0.0
C944 C 0.6857 0.22465 0.82873 0.0
C945 C 0.70809 0.21156 0.81419 0.0
C946 C 0.66786 0.20983 0.8458 0.0
C947 C 0.67175 0.1814 0.84897 0.0
C948 C 0.69371 0.16825 0.83388 0.0
H949 H 0.58634 0.0455 0.91895 0.0
H950 H 0.61269 0.07783 0.89276 0.0
C951 C 0.71168 0.18307 0.81704 0.0
C952 C 0.65271 0.16544 0.86747 0.0
H953 H 0.65357 0.11834 0.91891 0.0
C954 C 0.623 0.16731 0.86388 0.0
C955 C 0.66357 0.14803 0.88841 0.0
C956 C 0.69484 0.14639 0.89561 0.0
C957 C 0.60432 0.15166 0.87951 0.0
C958 C 0.61531 0.13348 0.8995 0.0
C959 C 0.6449 0.13207 0.90357 0.0
C960 C 0.59686 0.1143 0.91496 0.0
C961 C 0.57286 0.15389 0.87388 0.0
C962 C 0.57842 0.12369 0.93633 0.0
C963 C 0.56309 0.10491 0.95188 0.0
C964 C 0.56575 0.07623 0.9464 0.0
C965 C 0.58352 0.06723 0.92425 0.0
C966 C 0.59884 0.08583 0.90905 0.0
H967 H 0.56765 0.16653 0.8556 0.0
H968 H 0.56353 0.1331 0.86975 0.0
H969 H 0.5628 0.16346 0.89285 0.0
H970 H 0.57651 0.14552 0.94161 0.0
H971 H 0.54997 0.11285 0.96878 0.0
H972 H 0.85539 0.74295 0.80983 0.0
H973 H 0.88571 0.71422 0.83903 0.0
H974 H 0.81204 0.67061 0.86413 0.0
H975 H 0.78203 0.69799 0.83346 0.0
H976 H 0.89229 0.70526 0.89129 0.0
H977 H 0.85731 0.60688 0.83825 0.0
H978 H 0.8468 0.63955 0.82523 0.0
H979 H 0.82788 0.62497 0.85328 0.0
C980 C 0.84572 0.72722 0.82163 0.0
C981 C 0.81642 0.72247 0.81914 0.0
C982 C 0.86306 0.71079 0.83833 0.0
C983 C 0.85137 0.68959 0.85325 0.0
C984 C 0.82183 0.68598 0.85199 0.0
H985 H 0.93943 0.60749 0.98998 0.0
H986 H 0.91446 0.64068 0.96112 0.0
C987 C 0.80461 0.70185 0.83468 0.0
C988 C 0.87004 0.67122 0.86989 0.0
H989 H 0.88306 0.60379 0.88201 0.0
C990 C 0.89044 0.68305 0.88904 0.0
C991 C 0.86827 0.64215 0.86662 0.0
C992 C 0.84911 0.62768 0.84449 0.0
C993 C 0.90863 0.66676 0.90529 0.0
C994 C 0.90554 0.63775 0.90334 0.0
C995 C 0.88541 0.62597 0.88388 0.0
C996 C 0.92274 0.61901 0.92103 0.0
C997 C 0.93141 0.68091 0.9237 0.0
C998 C 0.93534 0.59535 0.90844 0.0
C999 C 0.94864 0.57593 0.92503 0.0
C1000 C 0.9503 0.58008 0.95453 0.0
C1001 C 0.93883 0.60416 0.9672 0.0
C1002 C 0.92472 0.62322 0.95064 0.0
H1003 H 0.93749 0.70083 0.91526 0.0
H1004 H 0.92324 0.68541 0.94514 0.0
H1005 H 0.95067 0.66793 0.92548 0.0
H1006 H 0.93425 0.59151 0.88571 0.0
H1007 H 0.9573 0.55743 0.91485 0.0
H1008 H 0.24798 0.32478 0.19432 0.0
H1009 H 0.21791 0.35135 0.16283 0.0
H1010 H 0.14556 0.30319 0.18314 0.0
H1011 H 0.17594 0.27549 0.2132 0.0
H1012 H 0.14155 0.31227 0.13063 0.0
H1013 H 0.16724 0.41206 0.18648 0.0
H1014 H 0.19842 0.39585 0.17288 0.0
H1015 H 0.17904 0.37987 0.19976 0.0
C1016 C 0.22567 0.31981 0.19194 0.0
C1017 C 0.21429 0.29817 0.20637 0.0
C1018 C 0.2084 0.3352 0.17413 0.0
C1019 C 0.17916 0.32995 0.17116 0.0
C1020 C 0.16795 0.30787 0.18511 0.0
H1021 H 0.06556 0.45513 0.1074 0.0
H1022 H 0.09038 0.42214 0.13657 0.0
C1023 C 0.18535 0.29203 0.20234 0.0
C1024 C 0.16024 0.34739 0.15365 0.0
H1025 H 0.14268 0.41404 0.14205 0.0
C1026 C 0.14165 0.33453 0.13331 0.0
C1027 C 0.15976 0.37648 0.1574 0.0
C1028 C 0.17695 0.39183 0.18053 0.0
C1029 C 0.12301 0.34983 0.11649 0.0
C1030 C 0.12373 0.37896 0.11915 0.0
C1031 C 0.14214 0.39176 0.13968 0.0
C1032 C 0.10565 0.3968 0.1012 0.0
C1033 C 0.10223 0.33443 0.0967 0.0
C1034 C 0.10518 0.39337 0.07151 0.0
C1035 C 0.09012 0.41175 0.05487 0.0
C1036 C 0.07602 0.43436 0.0676 0.0
C1037 C 0.07614 0.43768 0.09716 0.0
C1038 C 0.09048 0.41892 0.11379 0.0
H1039 H 0.09751 0.31378 0.10425 0.0
H1040 H 0.08201 0.34588 0.09441 0.0
H1041 H 0.11159 0.33133 0.0756 0.0
H1042 H 0.11736 0.37715 0.06109 0.0
H1043 H 0.09082 0.40918 0.03207 0.0
H1044 H 0.16272 0.70089 0.81264 0.0
H1045 H 0.13155 0.67139 0.83678 0.0
H1046 H 0.10922 0.73951 0.89394 0.0
H1047 H 0.14227 0.76899 0.87087 0.0
H1048 H 0.12398 0.69801 0.92226 0.0
H1049 H 0.04922 0.65865 0.83894 0.0
H1050 H 0.08426 0.65346 0.82643 0.0
H1051 H 0.07151 0.68798 0.83422 0.0
C1052 C 0.1513 0.70972 0.83036 0.0
C1053 C 0.15549 0.73718 0.84023 0.0
C1054 C 0.13286 0.69291 0.84374 0.0
C1055 C 0.11759 0.70335 0.86682 0.0
C1056 C 0.12064 0.73113 0.87596 0.0
H1057 H 0.02209 0.57663 0.94657 0.0
H1058 H 0.0328 0.61685 0.92054 0.0
C1059 C 0.13946 0.74795 0.86275 0.0
C1060 C 0.10199 0.68407 0.88357 0.0
H1061 H 0.06135 0.62634 0.87588 0.0
C1062 C 0.10968 0.68277 0.91228 0.0
C1063 C 0.08281 0.66454 0.87082 0.0
C1064 C 0.07128 0.66651 0.84098 0.0
C1065 C 0.10059 0.66112 0.92793 0.0
C1066 C 0.08437 0.63974 0.91413 0.0
C1067 C 0.07463 0.64228 0.88615 0.0
C1068 C 0.0781 0.61426 0.92815 0.0
C1069 C 0.10891 0.66122 0.95894 0.0
C1070 C 0.10017 0.59878 0.93996 0.0
C1071 C 0.09415 0.57596 0.95522 0.0
C1072 C 0.06599 0.56791 0.95826 0.0
C1073 C 0.04406 0.5823 0.94465 0.0
C1074 C 0.05008 0.60538 0.92984 0.0
H1075 H 0.11202 0.68254 0.96806 0.0
H1076 H 0.09268 0.65103 0.97116 0.0
H1077 H 0.12929 0.65011 0.96152 0.0
H1078 H 0.12204 0.60474 0.93793 0.0
H1079 H 0.11144 0.56507 0.96521 0.0
H1080 H 0.26789 0.15486 0.86004 0.0
H1081 H 0.29999 0.11847 0.87497 0.0
H1082 H 0.35017 0.12843 0.80191 0.0
H1083 H 0.31875 0.16515 0.78718 0.0
H1084 H 0.3245 0.06691 0.84666 0.0
H1085 H 0.40132 0.15188 0.87335 0.0
H1086 H 0.36416 0.15846 0.86681 0.0
H1087 H 0.38643 0.14879 0.83795 0.0
C1088 C 0.28548 0.14899 0.84691 0.0
C1089 C 0.29095 0.16325 0.82269 0.0
C1090 C 0.30364 0.12807 0.85533 0.0
C1091 C 0.32755 0.12109 0.83967 0.0
C1092 C 0.33186 0.13369 0.81431 0.0
H1093 H 0.47324 0.04833 0.92685 0.0
H1094 H 0.44487 0.06342 0.88638 0.0
C1095 C 0.31372 0.15461 0.80586 0.0
C1096 C 0.34977 0.10364 0.85206 0.0
H1097 H 0.41288 0.10848 0.88877 0.0
C1098 C 0.34409 0.07579 0.85546 0.0
C1099 C 0.37538 0.1153 0.86322 0.0
C1100 C 0.38232 0.14526 0.86037 0.0
C1101 C 0.36292 0.05953 0.8709 0.0
C1102 C 0.38753 0.07176 0.88384 0.0
C1103 C 0.394 0.09914 0.87886 0.0
C1104 C 0.40456 0.05821 0.90586 0.0
C1105 C 0.35594 0.02962 0.87374 0.0
C1106 C 0.39131 0.05011 0.93009 0.0
C1107 C 0.40736 0.04159 0.95315 0.0
C1108 C 0.4371 0.04131 0.95267 0.0
C1109 C 0.45038 0.04846 0.92797 0.0
C1110 C 0.43421 0.05697 0.90479 0.0
H1111 H 0.34395 0.02109 0.85474 0.0
H1112 H 0.37535 0.01706 0.87686 0.0
H1113 H 0.34235 0.0277 0.89218 0.0
H1114 H 0.36855 0.05163 0.93178 0.0
H1115 H 0.39637 0.03604 0.97171 0.0
H1116 H 0.78677 0.32044 0.83474 0.0
H1117 H 0.82297 0.34153 0.86683 0.0
H1118 H 0.87525 0.2692 0.85593 0.0
H1119 H 0.8393 0.24797 0.82357 0.0
H1120 H 0.85031 0.32383 0.91779 0.0
H1121 H 0.92451 0.33279 0.82977 0.0
H1122 H 0.88738 0.32534 0.82359 0.0
H1123 H 0.91104 0.29905 0.8352 0.0
C1124 C 0.80578 0.30885 0.83942 0.0
C1125 C 0.81025 0.28263 0.82639 0.0
C1126 C 0.82643 0.32092 0.85779 0.0
C1127 C 0.85191 0.30706 0.86339 0.0
C1128 C 0.85589 0.28037 0.85153 0.0
H1129 H 0.97257 0.39326 0.98432 0.0
H1130 H 0.94874 0.35387 0.95917 0.0
C1131 C 0.83525 0.26825 0.83314 0.0
C1132 C 0.8748 0.32142 0.88028 0.0
H1133 H 0.93857 0.35291 0.87402 0.0
C1134 C 0.86987 0.32981 0.90846 0.0
C1135 C 0.90019 0.32923 0.86786 0.0
C1136 C 0.90619 0.32136 0.8374 0.0
C1137 C 0.88915 0.3468 0.92426 0.0
C1138 C 0.91407 0.35537 0.91153 0.0
C1139 C 0.91958 0.34601 0.88375 0.0
C1140 C 0.93209 0.37747 0.925 0.0
C1141 C 0.88192 0.35685 0.95384 0.0
C1142 C 0.93159 0.40334 0.91342 0.0
C1143 C 0.94506 0.42568 0.92761 0.0
C1144 C 0.95949 0.42258 0.9536 0.0
C1145 C 0.96163 0.39624 0.9643 0.0
C1146 C 0.94788 0.3738 0.9501 0.0
H1147 H 0.86024 0.35076 0.95938 0.0
H1148 H 0.89722 0.34812 0.96917 0.0
H1149 H 0.88357 0.37961 0.9562 0.0
H1150 H 0.91962 0.40656 0.89401 0.0
H1151 H 0.94328 0.44566 0.91868 0.0
H1152 H 0.6818 0.76568 0.81186 0.0
H1153 H 0.64786 0.78907 0.84288 0.0
H1154 H 0.7109 0.84991 0.86879 0.0
H1155 H 0.74465 0.82717 0.83709 0.0
H1156 H 0.64562 0.8015 0.89858 0.0
H1157 H 0.64759 0.89816 0.84237 0.0
H1158 H 0.66413 0.86697 0.82877 0.0
H1159 H 0.68197 0.88865 0.85566 0.0
C1160 C 0.68851 0.784 0.82423 0.0
C1161 C 0.7159 0.79472 0.8217 0.0
C1162 C 0.66904 0.79735 0.84202 0.0
C1163 C 0.67651 0.82166 0.85777 0.0
C1164 C 0.70428 0.83167 0.85627 0.0
H1165 H 0.58564 0.9037 0.99591 0.0
H1166 H 0.61377 0.87084 0.96744 0.0
C1167 C 0.72366 0.81852 0.83825 0.0
C1168 C 0.6551 0.83685 0.87518 0.0
H1169 H 0.624 0.89984 0.88587 0.0
C1170 C 0.64077 0.82298 0.89571 0.0
C1171 C 0.64824 0.86474 0.87113 0.0
C1172 C 0.66105 0.88043 0.8481 0.0
C1173 C 0.6203 0.83634 0.91261 0.0
C1174 C 0.61441 0.86458 0.90941 0.0
C1175 C 0.62847 0.87826 0.88856 0.0
C1176 C 0.59409 0.88074 0.92735 0.0
C1177 C 0.60484 0.81985 0.93329 0.0
C1178 C 0.57327 0.89712 0.9146 0.0
C1179 C 0.55756 0.91617 0.93085 0.0
C1180 C 0.56188 0.91889 0.96028 0.0
C1181 C 0.58129 0.90134 0.97334 0.0
C1182 C 0.59743 0.88258 0.95701 0.0
H1183 H 0.60463 0.7976 0.92669 0.0
H1184 H 0.61586 0.82215 0.95428 0.0
H1185 H 0.58265 0.82702 0.9355 0.0
H1186 H 0.5702 0.89621 0.89183 0.0
H1187 H 0.54314 0.92989 0.92026 0.0
H1188 H 0.81972 0.72848 0.19099 0.0
H1189 H 0.84849 0.69778 0.16098 0.0
H1190 H 0.84883 0.63747 0.22427 0.0
H1191 H 0.81924 0.66772 0.25399 0.0
H1192 H 0.89988 0.67623 0.16638 0.0
H1193 H 0.82276 0.59057 0.15675 0.0
H1194 H 0.81391 0.624 0.17225 0.0
H1195 H 0.83337 0.59971 0.19265 0.0
C1196 C 0.82587 0.70867 0.19857 0.0
C1197 C 0.81688 0.70058 0.2249 0.0
C1198 C 0.84242 0.69108 0.18134 0.0
C1199 C 0.85054 0.66491 0.18993 0.0
C1200 C 0.8423 0.65713 0.21663 0.0
H1201 H 0.98055 0.56664 0.09759 0.0
H1202 H 0.9562 0.59506 0.13372 0.0
C1203 C 0.8255 0.67461 0.23377 0.0
C1204 C 0.86748 0.64596 0.17087 0.0
H1205 H 0.86769 0.58179 0.13749 0.0
C1206 C 0.89282 0.65556 0.16011 0.0
C1207 C 0.85827 0.61901 0.16224 0.0
C1208 C 0.83047 0.60777 0.17132 0.0
C1209 C 0.90899 0.63921 0.14106 0.0
C1210 C 0.90008 0.61205 0.13292 0.0
C1211 C 0.87483 0.60242 0.14383 0.0
C1212 C 0.91535 0.59396 0.11163 0.0
C1213 C 0.93488 0.65167 0.12905 0.0
C1214 C 0.90054 0.58285 0.08754 0.0
C1215 C 0.91427 0.56622 0.06715 0.0
C1216 C 0.94338 0.56015 0.07008 0.0
C1217 C 0.9582 0.57091 0.09445 0.0
C1218 C 0.9443 0.58744 0.11506 0.0
H1219 H 0.93451 0.6745 0.13136 0.0
H1220 H 0.95405 0.64446 0.14057 0.0
H1221 H 0.93672 0.64542 0.10631 0.0
H1222 H 0.87826 0.58738 0.08422 0.0
H1223 H 0.90199 0.55847 0.04877 0.0
H1224 H 0.29762 0.8369 0.22698 0.0
H1225 H 0.32897 0.86266 0.19777 0.0
H1226 H 0.37302 0.78782 0.17383 0.0
H1227 H 0.34191 0.76191 0.20332 0.0
H1228 H 0.39086 0.86637 0.2018 0.0
H1229 H 0.35364 0.82242 0.09661 0.0
H1230 H 0.33279 0.82056 0.12774 0.0
H1231 H 0.36285 0.79837 0.12292 0.0
C1232 C 0.31386 0.82578 0.21544 0.0
C1233 C 0.31692 0.79711 0.21763 0.0
C1234 C 0.33192 0.84064 0.19868 0.0
C1235 C 0.35341 0.82737 0.1831 0.0
C1236 C 0.35649 0.79873 0.18515 0.0
H1237 H 0.47034 0.89774 0.06046 0.0
H1238 H 0.4459 0.86536 0.08975 0.0
C1239 C 0.33864 0.78386 0.20222 0.0
C1240 C 0.37287 0.84368 0.16547 0.0
H1241 H 0.39099 0.85442 0.09729 0.0
C1242 C 0.39085 0.86365 0.17895 0.0
C1243 C 0.3735 0.84014 0.13558 0.0
C1244 C 0.35459 0.81937 0.11966 0.0
C1245 C 0.40909 0.87999 0.16365 0.0
C1246 C 0.40892 0.87733 0.1336 0.0
C1247 C 0.39139 0.85685 0.12016 0.0
C1248 C 0.42521 0.89674 0.11596 0.0
C1249 C 0.42882 0.89962 0.18018 0.0
C1250 C 0.42205 0.92535 0.12039 0.0
C1251 C 0.43623 0.94379 0.10399 0.0
C1252 C 0.45397 0.9346 0.08189 0.0
C1253 C 0.4573 0.90588 0.07734 0.0
C1254 C 0.44305 0.88725 0.09405 0.0
H1255 H 0.43428 0.89209 0.20138 0.0
H1256 H 0.44875 0.90262 0.16896 0.0
H1257 H 0.41815 0.91983 0.18346 0.0
H1258 H 0.40796 0.93366 0.13628 0.0
H1259 H 0.43261 0.96555 0.10842 0.0
H1260 H 0.75133 0.18621 0.18576 0.0
H1261 H 0.72079 0.15433 0.15707 0.0
H1262 H 0.65367 0.16833 0.21565 0.0
H1263 H 0.68392 0.2002 0.24446 0.0
H1264 H 0.69007 0.10509 0.17284 0.0
H1265 H 0.61936 0.18893 0.13724 0.0
H1266 H 0.65428 0.19551 0.15262 0.0
H1267 H 0.62561 0.18762 0.17474 0.0
C1268 C 0.73017 0.18232 0.1927 0.0
C1269 C 0.72003 0.19594 0.21731 0.0
C1270 C 0.71276 0.1641 0.17628 0.0
C1271 C 0.68486 0.1593 0.18404 0.0
C1272 C 0.675 0.17207 0.20909 0.0
H1273 H 0.54624 0.07265 0.08986 0.0
H1274 H 0.57438 0.09832 0.12671 0.0
C1275 C 0.6924 0.1902 0.22558 0.0
C1276 C 0.6658 0.14162 0.16543 0.0
H1277 H 0.60734 0.1437 0.12136 0.0
C1278 C 0.67193 0.11347 0.16162 0.0
C1279 C 0.64205 0.1526 0.151 0.0
C1280 C 0.63491 0.18285 0.15384 0.0
C1281 C 0.65493 0.09598 0.14369 0.0
C1282 C 0.6316 0.1071 0.12863 0.0
C1283 C 0.62518 0.13517 0.13291 0.0
C1284 C 0.61457 0.09039 0.10713 0.0
C1285 C 0.66199 0.0657 0.14127 0.0
C1286 C 0.62773 0.07761 0.08377 0.0
C1287 C 0.61178 0.06293 0.06277 0.0
C1288 C 0.58217 0.06091 0.06442 0.0
C1289 C 0.56897 0.07372 0.08789 0.0
C1290 C 0.58503 0.08841 0.10898 0.0
H1291 H 0.67395 0.05919 0.16033 0.0
H1292 H 0.64256 0.05298 0.13824 0.0
H1293 H 0.6755 0.06151 0.1228 0.0
H1294 H 0.65037 0.07939 0.08147 0.0
H1295 H 0.62275 0.05341 0.04505 0.0
H1296 H 0.7506 0.65085 0.80414 0.0
H1297 H 0.74039 0.61742 0.83908 0.0
H1298 H 0.65434 0.61112 0.80603 0.0
H1299 H 0.66501 0.64395 0.77039 0.0
H1300 H 0.70544 0.62798 0.87923 0.0
H1301 H 0.66946 0.53245 0.82168 0.0
H1302 H 0.68818 0.5589 0.80461 0.0
H1303 H 0.6504 0.56124 0.80862 0.0
C1304 C 0.72973 0.6417 0.80396 0.0
C1305 C 0.70844 0.64995 0.78486 0.0
C1306 C 0.72395 0.6226 0.82383 0.0
C1307 C 0.69667 0.61157 0.82511 0.0
C1308 C 0.67575 0.61876 0.80503 0.0
H1309 H 0.58779 0.5915 0.95172 0.0
H1310 H 0.6254 0.60586 0.92193 0.0
C1311 C 0.68172 0.63761 0.7848 0.0
C1312 C 0.68895 0.59613 0.84981 0.0
H1313 H 0.64987 0.54167 0.86846 0.0
C1314 C 0.69395 0.6087 0.87688 0.0
C1315 C 0.67453 0.57069 0.84699 0.0
C1316 C 0.67065 0.55493 0.81889 0.0
C1317 C 0.68272 0.5978 0.90084 0.0
C1318 C 0.66557 0.57409 0.89754 0.0
C1319 C 0.66274 0.56011 0.87092 0.0
C1320 C 0.64661 0.56633 0.91998 0.0
C1321 C 0.68826 0.6125 0.9293 0.0
C1322 C 0.6463 0.53941 0.9292 0.0
C1323 C 0.6247 0.53114 0.9464 0.0
C1324 C 0.60293 0.54958 0.95402 0.0
C1325 C 0.60431 0.57689 0.94611 0.0
C1326 C 0.62592 0.58517 0.92925 0.0
H1327 H 0.7092 0.62287 0.93019 0.0
H1328 H 0.67187 0.62859 0.93284 0.0
H1329 H 0.68759 0.59812 0.94665 0.0
H1330 H 0.66197 0.52453 0.92204 0.0
H1331 H 0.62393 0.50988 0.95199 0.0
H1332 H 0.27198 0.71462 0.85076 0.0
H1333 H 0.2988 0.68791 0.88478 0.0
H1334 H 0.36347 0.67202 0.82388 0.0
H1335 H 0.33676 0.69866 0.78961 0.0
H1336 H 0.34651 0.62474 0.85251 0.0
H1337 H 0.37277 0.71346 0.92738 0.0
H1338 H 0.33587 0.70927 0.91781 0.0
H1339 H 0.3604 0.71772 0.89147 0.0
C1340 C 0.29189 0.70543 0.84452 0.0
C1341 C 0.30224 0.70893 0.81741 0.0
C1342 C 0.30728 0.69026 0.8641 0.0
C1343 C 0.33335 0.67825 0.85706 0.0
C1344 C 0.34347 0.6812 0.82985 0.0
H1345 H 0.47349 0.61501 0.95225 0.0
H1346 H 0.43895 0.64245 0.92667 0.0
C1347 C 0.32817 0.69647 0.81027 0.0
C1348 C 0.3501 0.66257 0.87798 0.0
H1349 H 0.3873 0.66952 0.94102 0.0
C1350 C 0.35528 0.63448 0.87195 0.0
C1351 C 0.36171 0.67534 0.90326 0.0
C1352 C 0.35768 0.70565 0.9104 0.0
C1353 C 0.37186 0.61886 0.89039 0.0
C1354 C 0.38342 0.6316 0.91573 0.0
C1355 C 0.37813 0.65968 0.92182 0.0
C1356 C 0.40321 0.61671 0.93469 0.0
C1357 C 0.37775 0.58907 0.88213 0.0
C1358 C 0.39445 0.59371 0.94885 0.0
C1359 C 0.41424 0.57798 0.9638 0.0
C1360 C 0.44316 0.58492 0.96466 0.0
C1361 C 0.45144 0.60896 0.9519 0.0
C1362 C 0.4317 0.62471 0.93723 0.0
H1363 H 0.37155 0.58371 0.85972 0.0
H1364 H 0.40057 0.58429 0.88541 0.0
H1365 H 0.36555 0.5758 0.89564 0.0
H1366 H 0.37248 0.58739 0.94755 0.0
H1367 H 0.40715 0.55954 0.97321 0.0
H1368 H 0.33747 0.34009 0.77252 0.0
H1369 H 0.36811 0.36842 0.8046 0.0
H1370 H 0.35471 0.31337 0.87108 0.0
H1371 H 0.32379 0.28484 0.8391 0.0
H1372 H 0.34549 0.36897 0.88696 0.0
H1373 H 0.44858 0.35492 0.83573 0.0
H1374 H 0.42074 0.36495 0.81176 0.0
H1375 H 0.4189 0.33229 0.82764 0.0
C1376 C 0.34133 0.33372 0.79384 0.0
C1377 C 0.32819 0.31014 0.80321 0.0
C1378 C 0.35899 0.3499 0.81212 0.0
C1379 C 0.36398 0.34284 0.84014 0.0
C1380 C 0.35129 0.31908 0.84948 0.0
H1381 H 0.44833 0.44145 0.97979 0.0
H1382 H 0.42389 0.40394 0.95254 0.0
C1383 C 0.33369 0.30278 0.83114 0.0
C1384 C 0.38084 0.36139 0.86005 0.0
H1385 H 0.4449 0.39344 0.86912 0.0
C1386 C 0.36737 0.37404 0.88335 0.0
C1387 C 0.40935 0.36798 0.85526 0.0
C1388 C 0.42535 0.35413 0.83139 0.0
C1389 C 0.38123 0.39405 0.90122 0.0
C1390 C 0.40949 0.40123 0.89593 0.0
C1391 C 0.42322 0.38796 0.87312 0.0
C1392 C 0.42465 0.42359 0.91273 0.0
C1393 C 0.36507 0.40822 0.92482 0.0
C1394 C 0.43375 0.44681 0.89932 0.0
C1395 C 0.44777 0.4682 0.91475 0.0
C1396 C 0.45313 0.46684 0.94401 0.0
C1397 C 0.44426 0.44337 0.95738 0.0
C1398 C 0.43022 0.42192 0.94185 0.0
H1399 H 0.3419 0.4047 0.92221 0.0
H1400 H 0.37226 0.40005 0.94524 0.0
H1401 H 0.36906 0.43072 0.92596 0.0
H1402 H 0.42979 0.4485 0.87686 0.0
H1403 H 0.45447 0.48579 0.90364 0.0
H1404 H 0.65203 0.37195 0.78212 0.0
H1405 H 0.60991 0.38118 0.80985 0.0
H1406 H 0.60732 0.29616 0.83059 0.0
H1407 H 0.64955 0.2868 0.80358 0.0
H1408 H 0.551 0.35276 0.81453 0.0
H1409 H 0.62824 0.34509 0.90539 0.0
H1410 H 0.64038 0.34964 0.87027 0.0
H1411 H 0.62534 0.31744 0.87867 0.0
C1412 C 0.64217 0.35513 0.79211 0.0
C1413 C 0.65445 0.32882 0.79096 0.0
C1414 C 0.61797 0.36033 0.80766 0.0
C1415 C 0.60575 0.33932 0.82228 0.0
C1416 C 0.61649 0.31255 0.81933 0.0
H1417 H 0.53568 0.42055 0.97059 0.0
H1418 H 0.54098 0.3786 0.94024 0.0
C1419 C 0.64067 0.30731 0.80378 0.0
C1420 C 0.58549 0.34683 0.84435 0.0
H1421 H 0.58638 0.36903 0.91358 0.0
C1422 C 0.55828 0.35563 0.8364 0.0
C1423 C 0.59484 0.3498 0.87294 0.0
C1424 C 0.62378 0.34007 0.88256 0.0
C1425 C 0.54118 0.36983 0.85599 0.0
C1426 C 0.55222 0.37621 0.88365 0.0
C1427 C 0.57799 0.36445 0.8923 0.0
C1428 C 0.54155 0.3998 0.90129 0.0
C1429 C 0.51215 0.37914 0.84643 0.0
C1430 C 0.53953 0.42555 0.88947 0.0
C1431 C 0.53656 0.44937 0.90663 0.0
C1432 C 0.53608 0.4481 0.93613 0.0
C1433 C 0.53646 0.42223 0.94795 0.0
C1434 C 0.53921 0.39823 0.93063 0.0
H1435 H 0.50201 0.36315 0.8319 0.0
H1436 H 0.49822 0.38361 0.86454 0.0
H1437 H 0.51409 0.39797 0.83446 0.0
H1438 H 0.54223 0.42757 0.8671 0.0
H1439 H 0.53597 0.4689 0.89672 0.0
H1440 H 0.75344 0.3017 0.17306 0.0
H1441 H 0.7283 0.33026 0.13953 0.0
H1442 H 0.66382 0.34784 0.20026 0.0
H1443 H 0.68887 0.3193 0.23404 0.0
H1444 H 0.67259 0.32371 0.11686 0.0
H1445 H 0.68612 0.42468 0.1757 0.0
H1446 H 0.70716 0.39488 0.18372 0.0
H1447 H 0.67166 0.39828 0.19601 0.0
C1448 C 0.734 0.31175 0.17943 0.0
C1449 C 0.72325 0.30822 0.20637 0.0
C1450 C 0.71961 0.32806 0.16015 0.0
C1451 C 0.69432 0.34148 0.16742 0.0
C1452 C 0.68354 0.33808 0.19431 0.0
H1453 H 0.55759 0.40736 0.06919 0.0
H1454 H 0.59115 0.37847 0.09426 0.0
C1455 C 0.69784 0.32164 0.21358 0.0
C1456 C 0.6788 0.35834 0.14659 0.0
H1457 H 0.65343 0.42305 0.1364 0.0
C1458 C 0.66858 0.34547 0.12105 0.0
C1459 C 0.67391 0.38685 0.15178 0.0
C1460 C 0.68549 0.40212 0.17816 0.0
C1461 C 0.65276 0.36008 0.10112 0.0
C1462 C 0.6468 0.38831 0.1069 0.0
C1463 C 0.65789 0.40141 0.13196 0.0
C1464 C 0.62748 0.40417 0.08829 0.0
C1465 C 0.64246 0.34515 0.07406 0.0
C1466 C 0.6367 0.42815 0.07611 0.0
C1467 C 0.61747 0.44471 0.06144 0.0
C1468 C 0.58856 0.43784 0.05919 0.0
C1469 C 0.57971 0.41322 0.07042 0.0
C1470 C 0.59892 0.3966 0.08474 0.0
H1471 H 0.65534 0.32646 0.0691 0.0
H1472 H 0.62023 0.33857 0.07636 0.0
H1473 H 0.64306 0.35872 0.05602 0.0
H1474 H 0.65862 0.43449 0.07869 0.0
H1475 H 0.62491 0.46372 0.05344 0.0
H1476 H 0.68987 0.68582 0.251 0.0
H1477 H 0.66073 0.65804 0.21716 0.0
H1478 H 0.6797 0.7127 0.15178 0.0
H1479 H 0.70942 0.74061 0.1856 0.0
H1480 H 0.61364 0.66996 0.18258 0.0
H1481 H 0.70645 0.63731 0.11938 0.0
H1482 H 0.71029 0.65435 0.15404 0.0
H1483 H 0.70061 0.67375 0.12406 0.0
C1484 C 0.68765 0.6922 0.22951 0.0
C1485 C 0.70222 0.71533 0.22095 0.0
C1486 C 0.67094 0.67626 0.21018 0.0
C1487 C 0.66847 0.68298 0.18184 0.0
C1488 C 0.68177 0.70684 0.17345 0.0
H1489 H 0.58431 0.58223 0.04414 0.0
H1490 H 0.60854 0.62029 0.07076 0.0
C1491 C 0.69855 0.7229 0.19285 0.0
C1492 C 0.65289 0.66413 0.16117 0.0
H1493 H 0.66233 0.61808 0.10519 0.0
C1494 C 0.62422 0.65881 0.1655 0.0
C1495 C 0.66675 0.64958 0.13889 0.0
C1496 C 0.69777 0.65377 0.1338 0.0
C1497 C 0.6092 0.63895 0.14852 0.0
C1498 C 0.62331 0.62378 0.12691 0.0
C1499 C 0.65165 0.62975 0.12185 0.0
C1500 C 0.6094 0.60052 0.1105 0.0
C1501 C 0.57838 0.63412 0.15391 0.0
C1502 C 0.60256 0.57656 0.12391 0.0
C1503 C 0.58905 0.55467 0.10877 0.0
C1504 C 0.58188 0.55636 0.07988 0.0
C1505 C 0.58943 0.5802 0.06635 0.0
C1506 C 0.6032 0.60202 0.08151 0.0
H1507 H 0.56905 0.65135 0.16688 0.0
H1508 H 0.566 0.63143 0.13365 0.0
H1509 H 0.57632 0.61502 0.16541 0.0
H1510 H 0.60758 0.57485 0.14619 0.0
H1511 H 0.58371 0.53664 0.11989 0.0
H1512 H 0.35297 0.63162 0.22783 0.0
H1513 H 0.39692 0.62023 0.20497 0.0
H1514 H 0.43253 0.69812 0.23546 0.0
H1515 H 0.3884 0.70967 0.25913 0.0
H1516 H 0.43707 0.68816 0.17761 0.0
H1517 H 0.47539 0.59839 0.23322 0.0
H1518 H 0.43836 0.59448 0.22474 0.0
H1519 H 0.45029 0.62258 0.24846 0.0
C1520 C 0.37028 0.64608 0.23054 0.0
C1521 C 0.36698 0.67164 0.24526 0.0
C1522 C 0.3955 0.6395 0.2174 0.0
C1523 C 0.41806 0.65821 0.21885 0.0
C1524 C 0.41535 0.68339 0.23426 0.0
H1525 H 0.53108 0.56426 0.11549 0.0
H1526 H 0.52395 0.60066 0.15181 0.0
C1527 C 0.39006 0.68997 0.24759 0.0
C1528 C 0.44293 0.65205 0.20157 0.0
H1529 H 0.4835 0.59704 0.18227 0.0
C1530 C 0.44807 0.66866 0.179 0.0
C1531 C 0.45801 0.62721 0.20396 0.0
C1532 C 0.45543 0.60985 0.22915 0.0
C1533 C 0.46522 0.65927 0.15685 0.0
C1534 C 0.47663 0.63238 0.15709 0.0
C1535 C 0.47435 0.61745 0.18149 0.0
C1536 C 0.48663 0.61733 0.13124 0.0
C1537 C 0.46985 0.67777 0.13295 0.0
C1538 C 0.46909 0.61553 0.10662 0.0
C1539 C 0.47385 0.59524 0.08528 0.0
C1540 C 0.4956 0.57603 0.08881 0.0
C1541 C 0.51432 0.57906 0.1123 0.0
C1542 C 0.51019 0.59984 0.13309 0.0
H1543 H 0.47205 0.6995 0.14115 0.0
H1544 H 0.489 0.67183 0.12107 0.0
H1545 H 0.45109 0.67675 0.11825 0.0
H1546 H 0.45025 0.6281 0.10491 0.0
H1547 H 0.45902 0.59301 0.06742 0.0
H1548 H 0.35151 0.3324 0.21202 0.0
H1549 H 0.36407 0.36476 0.17691 0.0
H1550 H 0.32599 0.43097 0.22681 0.0
H1551 H 0.31381 0.39844 0.2624 0.0
H1552 H 0.32642 0.39596 0.14588 0.0
H1553 H 0.40309 0.46253 0.20959 0.0
H1554 H 0.39203 0.42957 0.22095 0.0
H1555 H 0.36853 0.45859 0.22364 0.0
C1556 C 0.34616 0.35392 0.21563 0.0
C1557 C 0.33181 0.363 0.23987 0.0
C1558 C 0.35321 0.37236 0.19556 0.0
C1559 C 0.34594 0.40025 0.19924 0.0
C1560 C 0.33213 0.40959 0.22376 0.0
H1561 H 0.41278 0.5151 0.0812 0.0
H1562 H 0.37686 0.49879 0.11275 0.0
C1563 C 0.32529 0.39108 0.24408 0.0
C1564 C 0.35258 0.41895 0.1768 0.0
H1565 H 0.39772 0.47014 0.16141 0.0
C1566 C 0.34162 0.41254 0.14935 0.0
C1567 C 0.37212 0.44078 0.18145 0.0
C1568 C 0.38484 0.4483 0.21042 0.0
C1569 C 0.3512 0.42609 0.12615 0.0
C1570 C 0.37224 0.44648 0.13056 0.0
C1571 C 0.38149 0.45448 0.1582 0.0
C1572 C 0.38873 0.45594 0.10702 0.0
C1573 C 0.33979 0.4176 0.09694 0.0
C1574 C 0.40663 0.43712 0.0929 0.0
C1575 C 0.42724 0.44636 0.07534 0.0
C1576 C 0.43003 0.47454 0.07136 0.0
C1577 C 0.41067 0.49321 0.08366 0.0
C1578 C 0.39031 0.48397 0.10174 0.0
H1579 H 0.31832 0.40848 0.09765 0.0
H1580 H 0.33884 0.43539 0.08324 0.0
H1581 H 0.35401 0.40183 0.0872 0.0
H1582 H 0.40606 0.41547 0.09708 0.0
H1583 H 0.4421 0.43167 0.06619 0.0
H1584 H 0.79131 0.69252 0.69358 0.0
H1585 H 0.82174 0.67053 0.65832 0.0
H1586 H 0.87933 0.73912 0.66792 0.0
H1587 H 0.84905 0.76125 0.70366 0.0
H1588 H 0.83946 0.6887 0.60663 0.0
H1589 H 0.93124 0.67296 0.68048 0.0
H1590 H 0.89652 0.68211 0.69279 0.0
H1591 H 0.91855 0.70768 0.6787 0.0
C1592 C 0.81043 0.70302 0.68826 0.0
C1593 C 0.81779 0.72862 0.70166 0.0
C1594 C 0.8278 0.69041 0.66799 0.0
C1595 C 0.85303 0.70296 0.66066 0.0
C1596 C 0.86023 0.72878 0.67356 0.0
H1597 H 0.98361 0.61975 0.55717 0.0
H1598 H 0.95675 0.6579 0.57975 0.0
C1599 C 0.84281 0.74147 0.69391 0.0
C1600 C 0.87167 0.68857 0.63976 0.0
H1601 H 0.93552 0.65588 0.63356 0.0
C1602 C 0.86059 0.68178 0.61244 0.0
C1603 C 0.89935 0.6797 0.6472 0.0
C1604 C 0.91217 0.68575 0.67642 0.0
C1605 C 0.87604 0.66571 0.59272 0.0
C1606 C 0.90315 0.65571 0.60061 0.0
C1607 C 0.91478 0.66359 0.62745 0.0
C1608 C 0.91824 0.63446 0.58287 0.0
C1609 C 0.86297 0.65927 0.5637 0.0
C1610 C 0.90542 0.60882 0.57656 0.0
C1611 C 0.92065 0.58716 0.56376 0.0
C1612 C 0.94913 0.59053 0.55694 0.0
C1613 C 0.96158 0.61663 0.56178 0.0
C1614 C 0.94632 0.63836 0.5749 0.0
H1615 H 0.84772 0.67553 0.55768 0.0
H1616 H 0.87936 0.65712 0.54745 0.0
H1617 H 0.85116 0.63962 0.56374 0.0
H1618 H 0.88404 0.60503 0.58295 0.0
H1619 H 0.91049 0.56728 0.56045 0.0
H1620 H 0.31511 0.8047 0.66199 0.0
H1621 H 0.3418 0.83993 0.63956 0.0
H1622 H 0.41986 0.79848 0.6606 0.0
H1623 H 0.39307 0.76305 0.68329 0.0
H1624 H 0.38318 0.87252 0.67176 0.0
H1625 H 0.42671 0.81815 0.57623 0.0
H1626 H 0.39645 0.80555 0.59395 0.0
H1627 H 0.43141 0.80152 0.60904 0.0
C1628 C 0.33794 0.80292 0.6615 0.0
C1629 C 0.35213 0.7814 0.67459 0.0
C1630 C 0.35311 0.82296 0.64865 0.0
C1631 C 0.3827 0.82174 0.64854 0.0
C1632 C 0.39695 0.79952 0.66027 0.0
H1633 H 0.49546 0.95853 0.62455 0.0
H1634 H 0.46898 0.92174 0.64486 0.0
C1635 C 0.3817 0.77933 0.67313 0.0
C1636 C 0.39847 0.8451 0.6384 0.0
H1637 H 0.44117 0.86416 0.58633 0.0
C1638 C 0.39594 0.87075 0.65312 0.0
C1639 C 0.41485 0.84256 0.61403 0.0
C1640 C 0.41748 0.81554 0.59718 0.0
C1641 C 0.40933 0.89412 0.64397 0.0
C1642 C 0.42587 0.89156 0.6197 0.0
C1643 C 0.42848 0.86589 0.60502 0.0
C1644 C 0.44018 0.91541 0.60874 0.0
C1645 C 0.40521 0.92146 0.6599 0.0
C1646 C 0.43239 0.92413 0.58194 0.0
C1647 C 0.44737 0.94509 0.57029 0.0
C1648 C 0.4706 0.95755 0.5852 0.0
C1649 C 0.47761 0.94947 0.61258 0.0
C1650 C 0.46254 0.92847 0.62422 0.0
H1651 H 0.38724 0.92099 0.67442 0.0
H1652 H 0.4247 0.92673 0.67268 0.0
H1653 H 0.40134 0.93802 0.64504 0.0
H1654 H 0.41511 0.91425 0.56976 0.0
H1655 H 0.44136 0.95078 0.54916 0.0
H1656 H 0.26356 0.38331 0.64668 0.0
H1657 H 0.2311 0.42043 0.63654 0.0
H1658 H 0.20534 0.42476 0.7231 0.0
H1659 H 0.23637 0.38665 0.73314 0.0
H1660 H 0.1626 0.41255 0.689 0.0
H1661 H 0.21607 0.50098 0.64679 0.0
H1662 H 0.22814 0.46988 0.6291 0.0
H1663 H 0.2351 0.47572 0.66657 0.0
C1664 C 0.25139 0.39232 0.66377 0.0
C1665 C 0.25185 0.38087 0.6904 0.0
C1666 C 0.23317 0.41409 0.65804 0.0
C1667 C 0.21563 0.42536 0.67903 0.0
C1668 C 0.21861 0.41629 0.70653 0.0
H1669 H 0.04836 0.49271 0.63208 0.0
H1670 H 0.09113 0.48654 0.66155 0.0
C1671 C 0.2365 0.39427 0.71219 0.0
C1672 C 0.19029 0.44141 0.67077 0.0
H1673 H 0.1679 0.49131 0.62737 0.0
C1674 C 0.16374 0.43034 0.67628 0.0
C1675 C 0.19173 0.46457 0.65413 0.0
C1676 C 0.21936 0.4786 0.6491 0.0
C1677 C 0.13886 0.44022 0.66364 0.0
C1678 C 0.14056 0.46199 0.64527 0.0
C1679 C 0.16679 0.47443 0.64131 0.0
C1680 C 0.11597 0.46939 0.62731 0.0
C1681 C 0.11123 0.42589 0.66832 0.0
C1682 C 0.11614 0.46239 0.59826 0.0
C1683 C 0.09182 0.46576 0.5814 0.0
C1684 C 0.06684 0.47614 0.59335 0.0
C1685 C 0.06707 0.48407 0.62234 0.0
C1686 C 0.0915 0.48079 0.63918 0.0
H1687 H 0.11426 0.40701 0.68021 0.0
H1688 H 0.09715 0.44006 0.68053 0.0
H1689 H 0.10029 0.42016 0.64779 0.0
H1690 H 0.13486 0.45345 0.58879 0.0
H1691 H 0.09248 0.45975 0.55909 0.0
H1692 H 0.68385 0.26288 0.69556 0.0
H1693 H 0.6531 0.2456 0.65607 0.0
H1694 H 0.70193 0.17063 0.64995 0.0
H1695 H 0.73307 0.18786 0.68898 0.0
H1696 H 0.68722 0.19223 0.59693 0.0
H1697 H 0.59432 0.18538 0.66585 0.0
H1698 H 0.61104 0.2184 0.66494 0.0
H1699 H 0.62982 0.19045 0.68022 0.0
C1700 C 0.68813 0.24276 0.68571 0.0
C1701 C 0.71074 0.2266 0.69556 0.0
C1702 C 0.67051 0.23294 0.6632 0.0
C1703 C 0.67507 0.20674 0.65036 0.0
C1704 C 0.69809 0.19093 0.6596 0.0
H1705 H 0.61275 0.0716 0.56082 0.0
H1706 H 0.64041 0.11143 0.57808 0.0
C1707 C 0.71578 0.20076 0.68199 0.0
C1708 C 0.65519 0.19483 0.62832 0.0
H1709 H 0.58943 0.16642 0.61969 0.0
C1710 C 0.66565 0.18701 0.60168 0.0
C1711 C 0.62696 0.18837 0.63448 0.0
C1712 C 0.61477 0.19588 0.66294 0.0
C1713 C 0.64913 0.17143 0.58163 0.0
C1714 C 0.6217 0.1632 0.58863 0.0
C1715 C 0.61048 0.17283 0.61438 0.0
C1716 C 0.60644 0.14077 0.57236 0.0
C1717 C 0.6616 0.163 0.55358 0.0
C1718 C 0.57819 0.14404 0.56301 0.0
C1719 C 0.56222 0.12113 0.55308 0.0
C1720 C 0.57421 0.09467 0.553 0.0
C1721 C 0.60292 0.09175 0.56084 0.0
C1722 C 0.61886 0.11456 0.57042 0.0
H1723 H 0.67706 0.17851 0.54731 0.0
H1724 H 0.67309 0.14322 0.55542 0.0
H1725 H 0.6449 0.16022 0.53667 0.0
H1726 H 0.56815 0.16408 0.56466 0.0
H1727 H 0.54008 0.12391 0.54727 0.0
H1728 H 0.84193 0.31853 0.27414 0.0
H1729 H 0.87083 0.35042 0.30471 0.0
H1730 H 0.80462 0.35573 0.36522 0.0
H1731 H 0.77556 0.32409 0.33492 0.0
H1732 H 0.85514 0.40733 0.33091 0.0
H1733 H 0.87883 0.32697 0.40754 0.0
H1734 H 0.86731 0.31848 0.37145 0.0
H1735 H 0.84239 0.33161 0.39659 0.0
C1736 C 0.83338 0.32673 0.29379 0.0
C1737 C 0.80648 0.31861 0.30213 0.0
C1738 C 0.84991 0.34494 0.31121 0.0
C1739 C 0.83993 0.35517 0.33731 0.0
C1740 C 0.81277 0.34787 0.34525 0.0
H1741 H 0.93127 0.44334 0.47848 0.0
H1742 H 0.8939 0.42024 0.44901 0.0
C1743 C 0.79618 0.32981 0.32784 0.0
C1744 C 0.85838 0.37248 0.35684 0.0
H1745 H 0.89786 0.37098 0.4183 0.0
C1746 C 0.86445 0.39947 0.35006 0.0
C1747 C 0.8702 0.36221 0.38193 0.0
C1748 C 0.86459 0.33319 0.38991 0.0
C1749 C 0.88224 0.41647 0.36771 0.0
C1750 C 0.89483 0.4059 0.39238 0.0
C1751 C 0.8882 0.37909 0.39943 0.0
C1752 C 0.91646 0.42151 0.41008 0.0
C1753 C 0.8872 0.44565 0.35987 0.0
C1754 C 0.94157 0.42975 0.39805 0.0
C1755 C 0.96287 0.44285 0.41475 0.0
C1756 C 0.95974 0.44784 0.44402 0.0
C1757 C 0.93442 0.43981 0.45605 0.0
C1758 C 0.91304 0.42662 0.43924 0.0
H1759 H 0.86925 0.45334 0.34678 0.0
H1760 H 0.89023 0.45975 0.37892 0.0
H1761 H 0.90654 0.44631 0.34725 0.0
H1762 H 0.945 0.42549 0.37577 0.0
H1763 H 0.98199 0.44878 0.40465 0.0
H1764 H 0.72538 0.83481 0.30041 0.0
H1765 H 0.69624 0.86637 0.32889 0.0
H1766 H 0.66114 0.79772 0.36967 0.0
H1767 H 0.69151 0.76613 0.3422 0.0
H1768 H 0.64358 0.87441 0.33158 0.0
H1769 H 0.67824 0.84506 0.4381 0.0
H1770 H 0.69584 0.83252 0.40677 0.0
H1771 H 0.66404 0.81613 0.41745 0.0
C1772 C 0.71161 0.82638 0.3156 0.0
C1773 C 0.71098 0.79786 0.31908 0.0
C1774 C 0.69486 0.84454 0.33194 0.0
C1775 C 0.67667 0.83476 0.35208 0.0
C1776 C 0.67557 0.80614 0.35514 0.0
H1777 H 0.53194 0.92996 0.41195 0.0
H1778 H 0.56497 0.89954 0.38721 0.0
C1779 C 0.69278 0.78797 0.33914 0.0
C1780 C 0.65822 0.85448 0.36881 0.0
H1781 H 0.63635 0.87269 0.43551 0.0
C1782 C 0.64226 0.87405 0.35435 0.0
C1783 C 0.65664 0.85475 0.39868 0.0
C1784 C 0.67485 0.83619 0.41618 0.0
C1785 C 0.62463 0.89327 0.36858 0.0
C1786 C 0.62168 0.89239 0.39821 0.0
C1787 C 0.6381 0.87327 0.41281 0.0
C1788 C 0.60135 0.91074 0.4142 0.0
C1789 C 0.60993 0.91476 0.35157 0.0
C1790 C 0.61011 0.9265 0.43873 0.0
C1791 C 0.59089 0.94367 0.45351 0.0
C1792 C 0.56247 0.94565 0.44397 0.0
C1793 C 0.55374 0.92954 0.41968 0.0
C1794 C 0.57276 0.91213 0.40529 0.0
H1795 H 0.62186 0.91892 0.33245 0.0
H1796 H 0.58867 0.90712 0.34436 0.0
H1797 H 0.60737 0.93443 0.36422 0.0
H1798 H 0.63193 0.92572 0.44635 0.0
H1799 H 0.59835 0.95557 0.47221 0.0
H1800 H 0.18423 0.74638 0.33007 0.0
H1801 H 0.15447 0.72019 0.36062 0.0
H1802 H 0.20974 0.65016 0.34935 0.0
H1803 H 0.23967 0.67625 0.31935 0.0
H1804 H 0.12346 0.67346 0.35236 0.0
H1805 H 0.20624 0.65428 0.43378 0.0
H1806 H 0.21108 0.67847 0.40686 0.0
H1807 H 0.21655 0.64222 0.39921 0.0
C1808 C 0.19021 0.72546 0.33422 0.0
C1809 C 0.21474 0.71373 0.32224 0.0
C1810 C 0.17303 0.71037 0.35175 0.0
C1811 C 0.17986 0.6831 0.3581 0.0
C1812 C 0.20411 0.67128 0.34574 0.0
H1813 H 0.11004 0.54733 0.4448 0.0
H1814 H 0.13739 0.57997 0.41977 0.0
C1815 C 0.22125 0.6863 0.32827 0.0
C1816 C 0.16158 0.66684 0.37707 0.0
H1817 H 0.16422 0.62737 0.43501 0.0
C1818 C 0.1324 0.66366 0.3706 0.0
C1819 C 0.17278 0.6539 0.40116 0.0
C1820 C 0.2033 0.65759 0.41088 0.0
C1821 C 0.11471 0.64724 0.38653 0.0
C1822 C 0.12611 0.63374 0.4102 0.0
C1823 C 0.15515 0.63744 0.41699 0.0
C1824 C 0.10898 0.61433 0.42701 0.0
C1825 C 0.08413 0.6436 0.37708 0.0
C1826 C 0.08378 0.62244 0.44054 0.0
C1827 C 0.06782 0.60352 0.45527 0.0
C1828 C 0.07654 0.57587 0.4569 0.0
C1829 C 0.10223 0.56823 0.44409 0.0
C1830 C 0.11811 0.58704 0.42961 0.0
H1831 H 0.08028 0.6497 0.35505 0.0
H1832 H 0.07738 0.6219 0.37845 0.0
H1833 H 0.07066 0.65673 0.39106 0.0
H1834 H 0.07632 0.64342 0.43966 0.0
H1835 H 0.04826 0.61038 0.46467 0.0
H1836 H 0.2831 0.1797 0.31563 0.0
H1837 H 0.31222 0.15398 0.34854 0.0
H1838 H 0.3663 0.22454 0.36494 0.0
H1839 H 0.33746 0.25039 0.33163 0.0
H1840 H 0.39654 0.1769 0.35513 0.0
H1841 H 0.31554 0.16023 0.43417 0.0
H1842 H 0.30403 0.14897 0.39904 0.0
H1843 H 0.31092 0.1849 0.40732 0.0
C1844 C 0.30105 0.18988 0.32636 0.0
C1845 C 0.30783 0.2172 0.321 0.0
C1846 C 0.31761 0.17516 0.34536 0.0
C1847 C 0.3412 0.18743 0.35967 0.0
C1848 C 0.34809 0.21468 0.35434 0.0
H1849 H 0.47139 0.11132 0.46894 0.0
H1850 H 0.4425 0.14596 0.44563 0.0
C1851 C 0.33154 0.22944 0.33529 0.0
C1852 C 0.35931 0.17135 0.37917 0.0
H1853 H 0.35702 0.13192 0.43655 0.0
C1854 C 0.38801 0.16739 0.37318 0.0
C1855 C 0.34823 0.15899 0.40281 0.0
C1856 C 0.31806 0.16369 0.41142 0.0
C1857 C 0.40555 0.15038 0.38931 0.0
C1858 C 0.39419 0.13728 0.41237 0.0
C1859 C 0.36572 0.14191 0.41887 0.0
C1860 C 0.41086 0.11706 0.42858 0.0
C1861 C 0.43574 0.14559 0.38078 0.0
C1862 C 0.40216 0.08951 0.4277 0.0
C1863 C 0.41849 0.06974 0.44107 0.0
C1864 C 0.44392 0.07703 0.45586 0.0
C1865 C 0.45199 0.10491 0.45777 0.0
C1866 C 0.43562 0.12472 0.44423 0.0
H1867 H 0.43956 0.15282 0.35941 0.0
H1868 H 0.45022 0.15696 0.39611 0.0
H1869 H 0.44123 0.1234 0.38097 0.0
H1870 H 0.38308 0.08311 0.41592 0.0
H1871 H 0.41139 0.04858 0.43927 0.0
H1872 H 0.69037 0.76735 0.69541 0.0
H1873 H 0.66111 0.79242 0.66179 0.0
H1874 H 0.71558 0.86305 0.67548 0.0
H1875 H 0.74513 0.8381 0.70868 0.0
H1876 H 0.63121 0.84026 0.67094 0.0
H1877 H 0.7108 0.85473 0.58995 0.0
H1878 H 0.71586 0.83074 0.6174 0.0
H1879 H 0.72294 0.86679 0.62464 0.0
C1880 C 0.69628 0.78815 0.69109 0.0
C1881 C 0.72021 0.80064 0.7047 0.0
C1882 C 0.67949 0.80246 0.67187 0.0
C1883 C 0.68638 0.82948 0.66569 0.0
C1884 C 0.7102 0.84201 0.67932 0.0
H1885 H 0.61488 0.96692 0.58532 0.0
H1886 H 0.64367 0.9326 0.60845 0.0
C1887 C 0.72699 0.82774 0.69849 0.0
C1888 C 0.668 0.84511 0.64607 0.0
H1889 H 0.66939 0.88321 0.58766 0.0
C1890 C 0.63943 0.84931 0.65249 0.0
C1891 C 0.67869 0.85686 0.6219 0.0
C1892 C 0.70868 0.85184 0.61287 0.0
C1893 C 0.62168 0.866 0.63624 0.0
C1894 C 0.63267 0.87853 0.61267 0.0
C1895 C 0.66098 0.87364 0.60574 0.0
C1896 C 0.61582 0.89854 0.59641 0.0
C1897 C 0.59168 0.87113 0.6452 0.0
C1898 C 0.59089 0.8907 0.58115 0.0
C1899 C 0.57424 0.91038 0.56774 0.0
C1900 C 0.58222 0.93829 0.56941 0.0
C1901 C 0.60785 0.94573 0.58375 0.0
C1902 C 0.62445 0.92609 0.59698 0.0
H1903 H 0.58812 0.86416 0.66673 0.0
H1904 H 0.58636 0.89335 0.64485 0.0
H1905 H 0.57689 0.85974 0.63019 0.0
H1906 H 0.58406 0.86945 0.58002 0.0
H1907 H 0.55469 0.90388 0.5569 0.0
H1908 H 0.66179 0.25772 0.37859 0.0
H1909 H 0.63538 0.22332 0.40339 0.0
H1910 H 0.63637 0.16835 0.32899 0.0
H1911 H 0.66227 0.20246 0.30422 0.0
H1912 H 0.58121 0.19117 0.38475 0.0
H1913 H 0.67942 0.12906 0.39648 0.0
H1914 H 0.67988 0.16533 0.39021 0.0
H1915 H 0.67189 0.14058 0.36164 0.0
C1916 C 0.6558 0.23851 0.36747 0.0
C1917 C 0.66442 0.23245 0.33974 0.0
C1918 C 0.6409 0.21893 0.3816 0.0
C1919 C 0.63451 0.19328 0.36803 0.0
C1920 C 0.64159 0.18793 0.33984 0.0
H1921 H 0.52925 0.05665 0.4015 0.0
H1922 H 0.55395 0.09472 0.38154 0.0
C1923 C 0.65642 0.20734 0.32581 0.0
C1924 C 0.62189 0.17123 0.38342 0.0
H1925 H 0.63613 0.10727 0.40619 0.0
C1926 C 0.59318 0.17292 0.38976 0.0
C1927 C 0.63782 0.1477 0.39006 0.0
C1928 C 0.66904 0.14551 0.3845 0.0
C1929 C 0.57962 0.15101 0.40174 0.0
C1930 C 0.59524 0.12688 0.40703 0.0
C1931 C 0.62422 0.1257 0.40171 0.0
C1932 C 0.58185 0.1026 0.41812 0.0
C1933 C 0.54874 0.15381 0.40861 0.0
C1934 C 0.59047 0.09366 0.44461 0.0
C1935 C 0.57666 0.07177 0.45597 0.0
C1936 C 0.55401 0.05844 0.44093 0.0
C1937 C 0.54651 0.06652 0.41368 0.0
C1938 C 0.56038 0.08844 0.40235 0.0
H1939 H 0.54188 0.17569 0.40998 0.0
H1940 H 0.53572 0.14286 0.39169 0.0
H1941 H 0.54441 0.14452 0.4289 0.0
H1942 H 0.60727 0.10421 0.45689 0.0
H1943 H 0.58305 0.06604 0.47699 0.0
H1944 H 0.76673 0.64223 0.38103 0.0
H1945 H 0.7995 0.60581 0.39507 0.0
H1946 H 0.82241 0.59103 0.30819 0.0
H1947 H 0.79041 0.628 0.29438 0.0
H1948 H 0.81216 0.54931 0.37967 0.0
H1949 H 0.89452 0.62222 0.34781 0.0
H1950 H 0.85782 0.63192 0.35037 0.0
H1951 H 0.86933 0.61087 0.32057 0.0
C1952 C 0.77822 0.63061 0.36496 0.0
C1953 C 0.77669 0.63807 0.33683 0.0
C1954 C 0.79682 0.60985 0.3729 0.0
C1955 C 0.81373 0.59623 0.35269 0.0
C1956 C 0.8099 0.60171 0.32412 0.0
H1957 H 0.97679 0.523 0.39818 0.0
H1958 H 0.93428 0.53165 0.36919 0.0
C1959 C 0.79173 0.62275 0.31629 0.0
C1960 C 0.83823 0.57988 0.3621 0.0
H1961 H 0.91014 0.58292 0.36955 0.0
C1962 C 0.83363 0.55635 0.37713 0.0
C1963 C 0.8662 0.5892 0.35868 0.0
C1964 C 0.87241 0.61503 0.34369 0.0
C1965 C 0.85635 0.54238 0.38969 0.0
C1966 C 0.88411 0.55256 0.38739 0.0
C1967 C 0.88878 0.57515 0.37109 0.0
C1968 C 0.90819 0.54284 0.40471 0.0
C1969 C 0.85043 0.51732 0.40586 0.0
C1970 C 0.90747 0.5463 0.4342 0.0
C1971 C 0.93168 0.54168 0.45078 0.0
C1972 C 0.95717 0.53374 0.43811 0.0
C1973 C 0.9576 0.52948 0.40856 0.0
C1974 C 0.9333 0.53412 0.39198 0.0
H1975 H 0.83093 0.50666 0.39747 0.0
H1976 H 0.86839 0.50256 0.40501 0.0
H1977 H 0.84709 0.52379 0.42831 0.0
H1978 H 0.88849 0.55372 0.44438 0.0
H1979 H 0.93053 0.54497 0.47349 0.0
H1980 H 0.29138 0.82191 0.34225 0.0
H1981 H 0.32293 0.84035 0.38035 0.0
H1982 H 0.37266 0.76589 0.37524 0.0
H1983 H 0.34147 0.74739 0.33662 0.0
H1984 H 0.33905 0.82074 0.43361 0.0
H1985 H 0.43039 0.82615 0.3625 0.0
H1986 H 0.39471 0.82021 0.34899 0.0
H1987 H 0.41421 0.79306 0.36494 0.0
C1988 C 0.30893 0.80936 0.34928 0.0
C1989 C 0.31411 0.78331 0.3362 0.0
C1990 C 0.32687 0.81988 0.37115 0.0
C1991 C 0.35028 0.8046 0.38036 0.0
C1992 C 0.35495 0.77817 0.3681 0.0
H1993 H 0.48589 0.89119 0.47959 0.0
H1994 H 0.45796 0.85059 0.46326 0.0
C1995 C 0.33708 0.76764 0.34609 0.0
C1996 C 0.37046 0.81733 0.40165 0.0
H1997 H 0.43596 0.84663 0.40799 0.0
C1998 C 0.36044 0.82597 0.42825 0.0
C1999 C 0.39846 0.82387 0.39468 0.0
C2000 C 0.41017 0.81555 0.3662 0.0
C2001 C 0.37711 0.84239 0.44742 0.0
C2002 C 0.40428 0.8506 0.43958 0.0
C2003 C 0.41511 0.84023 0.41393 0.0
C2004 C 0.41962 0.87359 0.45487 0.0
C2005 C 0.3651 0.85171 0.47544 0.0
C2006 C 0.40715 0.89978 0.45597 0.0
C2007 C 0.42301 0.92284 0.46492 0.0
C2008 C 0.4517 0.92019 0.47298 0.0
C2009 C 0.46378 0.89379 0.4736 0.0
C2010 C 0.44789 0.87063 0.46428 0.0
H2011 H 0.34969 0.83652 0.48247 0.0
H2012 H 0.38207 0.85491 0.49202 0.0
H2013 H 0.35369 0.87147 0.47315 0.0
H2014 H 0.38557 0.90263 0.44825 0.0
H2015 H 0.41311 0.94292 0.46441 0.0
H2016 H 0.23578 0.32694 0.33111 0.0
H2017 H 0.2046 0.34828 0.36606 0.0
H2018 H 0.14914 0.27804 0.35689 0.0
H2019 H 0.18047 0.25628 0.32184 0.0
H2020 H 0.14713 0.36142 0.35607 0.0
H2021 H 0.16053 0.29059 0.44378 0.0
H2022 H 0.18534 0.29161 0.41564 0.0
H2023 H 0.15168 0.27511 0.40933 0.0
C2024 C 0.21709 0.31584 0.33661 0.0
C2025 C 0.21065 0.28986 0.32358 0.0
C2026 C 0.19927 0.32811 0.35665 0.0
C2027 C 0.17467 0.31468 0.36435 0.0
C2028 C 0.16825 0.2886 0.35166 0.0
H2029 H 0.03993 0.39048 0.46738 0.0
H2030 H 0.06738 0.35505 0.44103 0.0
C2031 C 0.1861 0.27627 0.33148 0.0
C2032 C 0.15516 0.329 0.38437 0.0
H2033 H 0.12902 0.32802 0.45086 0.0
C2034 C 0.14304 0.35397 0.3767 0.0
C2035 C 0.14968 0.31922 0.41125 0.0
C2036 C 0.16257 0.29276 0.42073 0.0
C2037 C 0.12612 0.36968 0.39529 0.0
C2038 C 0.12141 0.36043 0.42251 0.0
C2039 C 0.13272 0.33504 0.42999 0.0
C2040 C 0.10644 0.3782 0.44371 0.0
C2041 C 0.11373 0.39642 0.38588 0.0
C2042 C 0.11969 0.40221 0.4551 0.0
C2043 C 0.10416 0.42231 0.47001 0.0
C2044 C 0.07509 0.41873 0.47407 0.0
C2045 C 0.06239 0.39358 0.46493 0.0
C2046 C 0.07799 0.37344 0.44972 0.0
H2047 H 0.11438 0.39789 0.36261 0.0
H2048 H 0.09144 0.39875 0.3924 0.0
H2049 H 0.12605 0.41383 0.39605 0.0
H2050 H 0.14163 0.40622 0.45079 0.0
H2051 H 0.11446 0.44152 0.47675 0.0
H2052 H 0.32767 0.25015 0.67519 0.0
H2053 H 0.35624 0.21816 0.64608 0.0
H2054 H 0.35276 0.15856 0.7098 0.0
H2055 H 0.32411 0.19019 0.73884 0.0
H2056 H 0.40838 0.19394 0.6566 0.0
H2057 H 0.32623 0.11338 0.63902 0.0
H2058 H 0.31827 0.1477 0.65296 0.0
H2059 H 0.33342 0.12275 0.67567 0.0
C2060 C 0.33304 0.23027 0.68308 0.0
C2061 C 0.3234 0.22281 0.7094 0.0
C2062 C 0.34937 0.21194 0.66635 0.0
C2063 C 0.35627 0.18562 0.67538 0.0
C2064 C 0.34722 0.1784 0.70194 0.0
H2065 H 0.48874 0.07374 0.62108 0.0
H2066 H 0.45713 0.10609 0.6454 0.0
C2067 C 0.33096 0.19669 0.71868 0.0
C2068 C 0.37333 0.16592 0.65737 0.0
H2069 H 0.37304 0.10092 0.62569 0.0
C2070 C 0.40053 0.17368 0.64972 0.0
C2071 C 0.36309 0.13953 0.64793 0.0
C2072 C 0.33355 0.13038 0.65405 0.0
C2073 C 0.41801 0.15558 0.63383 0.0
C2074 C 0.40824 0.12879 0.62545 0.0
C2075 C 0.3807 0.12132 0.63227 0.0
C2076 C 0.42676 0.10805 0.61052 0.0
C2077 C 0.44686 0.16534 0.62604 0.0
C2078 C 0.41992 0.09751 0.58294 0.0
C2079 C 0.4381 0.0788 0.56876 0.0
C2080 C 0.4634 0.06996 0.58201 0.0
C2081 C 0.46961 0.08 0.60998 0.0
C2082 C 0.45158 0.09873 0.62398 0.0
H2083 H 0.44832 0.18815 0.62748 0.0
H2084 H 0.46309 0.15718 0.64082 0.0
H2085 H 0.45195 0.15776 0.60427 0.0
H2086 H 0.40079 0.10423 0.57213 0.0
H2087 H 0.43254 0.07161 0.54729 0.0
H2088 H 0.83971 0.26354 0.70209 0.0
H2089 H 0.87023 0.2902 0.67271 0.0
H2090 H 0.81459 0.36 0.68344 0.0
H2091 H 0.78436 0.33372 0.71303 0.0
H2092 H 0.86206 0.3154 0.62253 0.0
H2093 H 0.88933 0.39542 0.70601 0.0
H2094 H 0.87197 0.36382 0.71353 0.0
H2095 H 0.85183 0.39197 0.7 0.0
C2096 C 0.83394 0.28459 0.69828 0.0
C2097 C 0.80944 0.29634 0.71031 0.0
C2098 C 0.85149 0.29989 0.68132 0.0
C2099 C 0.84532 0.32754 0.67601 0.0
C2100 C 0.82054 0.33907 0.68757 0.0
H2101 H 0.91389 0.46192 0.58618 0.0
H2102 H 0.88668 0.42978 0.61188 0.0
C2103 C 0.80302 0.32383 0.70446 0.0
C2104 C 0.8645 0.34433 0.65847 0.0
H2105 H 0.90112 0.40517 0.65919 0.0
C2106 C 0.87077 0.33492 0.6307 0.0
C2107 C 0.87628 0.36988 0.66878 0.0
C2108 C 0.87229 0.38077 0.69879 0.0
C2109 C 0.88723 0.35063 0.61289 0.0
C2110 C 0.89842 0.37651 0.62303 0.0
C2111 C 0.89262 0.38556 0.651 0.0
C2112 C 0.91494 0.39524 0.60495 0.0
C2113 C 0.89159 0.33978 0.58296 0.0
C2114 C 0.94019 0.38695 0.59162 0.0
C2115 C 0.95608 0.4056 0.57647 0.0
C2116 C 0.94733 0.43319 0.57439 0.0
C2117 C 0.9217 0.44105 0.58718 0.0
C2118 C 0.90595 0.42254 0.60213 0.0
H2119 H 0.87602 0.32349 0.5762 0.0
H2120 H 0.88982 0.35656 0.56805 0.0
H2121 H 0.9131 0.33073 0.58149 0.0
H2122 H 0.94819 0.36628 0.59368 0.0
H2123 H 0.97575 0.39866 0.56735 0.0
H2124 H 0.24823 0.68788 0.68945 0.0
H2125 H 0.21838 0.65545 0.66079 0.0
H2126 H 0.15465 0.66145 0.72393 0.0
H2127 H 0.18409 0.69416 0.75256 0.0
H2128 H 0.19236 0.60411 0.67124 0.0
H2129 H 0.11369 0.68648 0.65179 0.0
H2130 H 0.14875 0.69366 0.66646 0.0
H2131 H 0.12155 0.68183 0.68851 0.0
C2132 C 0.228 0.68207 0.69741 0.0
C2133 C 0.21837 0.69388 0.72313 0.0
C2134 C 0.21101 0.6635 0.68101 0.0
C2135 C 0.18413 0.65646 0.69001 0.0
C2136 C 0.17512 0.66704 0.71637 0.0
H2137 H 0.04067 0.56373 0.62545 0.0
H2138 H 0.07763 0.58798 0.65364 0.0
C2139 C 0.19203 0.68566 0.73274 0.0
C2140 C 0.16477 0.63942 0.67117 0.0
H2141 H 0.10055 0.64105 0.63628 0.0
C2142 C 0.17237 0.61217 0.66342 0.0
C2143 C 0.13884 0.65014 0.66078 0.0
C2144 C 0.13027 0.6797 0.66705 0.0
C2145 C 0.15415 0.59508 0.6463 0.0
C2146 C 0.12796 0.60569 0.6366 0.0
C2147 C 0.12066 0.63302 0.64391 0.0
C2148 C 0.10709 0.58862 0.61975 0.0
C2149 C 0.16252 0.56562 0.6393 0.0
C2150 C 0.11155 0.5808 0.59131 0.0
C2151 C 0.09029 0.56702 0.5749 0.0
C2152 C 0.06423 0.56097 0.58673 0.0
C2153 C 0.06031 0.56824 0.61548 0.0
C2154 C 0.08145 0.58203 0.63174 0.0
H2155 H 0.1819 0.55956 0.65132 0.0
H2156 H 0.14501 0.55154 0.64389 0.0
H2157 H 0.16656 0.56288 0.61639 0.0
H2158 H 0.13115 0.586 0.58164 0.0
H2159 H 0.09407 0.56161 0.55289 0.0
loop_
_geom_bond_atom_site_label_1
_geom_bond_atom_site_label_2
_geom_bond_distance
_geom_bond_site_symmetry_2
_ccdc_geom_bond_type
Co0 N5 2.057 . S
Co0 O17 2.021 . S
Co0 O20 2.062 . S
Co0 O24 2.117 . S
Co0 O25 2.020 . S
C1 O21 1.259 . S
C1 O24 1.258 . S
Co2 N11 2.057 . S
Co2 O18 2.117 . S
Co2 O19 2.020 . S
Co2 O21 2.021 . S
Co2 O26 2.062 . S
C3 N5 1.316 . S
C3 N6 1.347 . S
C3 H8 0.931 . S
C4 N5 1.375 . S
C4 C7 1.350 . S
C4 H9 0.930 . S
N5 Co0 2.057 . S
N5 C3 1.316 . S
N5 C4 1.375 . S
N6 C3 1.347 . S
N6 C7 1.373 . S
C7 C4 1.350 . S
C7 N6 1.373 . S
C7 H28 0.931 . S
H8 C3 0.931 . S
H9 C4 0.930 . S
C10 O17 1.259 . S
C10 O18 1.258 . S
N11 Co2 2.057 . S
N11 C12 1.316 . S
N11 C13 1.375 . S
C12 N11 1.316 . S
C12 N14 1.347 . S
C12 H23 0.931 . S
C13 N11 1.375 . S
C13 C15 1.350 . S
C13 H22 0.930 . S
N14 C12 1.347 . S
N14 C15 1.373 . S
C15 C13 1.350 . S
C15 N14 1.373 . S
C15 H29 0.931 . S
C16 O19 1.256 . S
C16 O20 1.255 . S
O17 Co0 2.021 . S
O17 C10 1.259 . S
O18 Co2 2.117 . S
O18 C10 1.258 . S
O19 Co2 2.020 . S
O19 C16 1.256 . S
O20 Co0 2.062 . S
O20 C16 1.255 . S
O21 C1 1.259 . S
O21 Co2 2.021 . S
H22 C13 0.930 . S
H23 C12 0.931 . S
O24 Co0 2.117 . S
O24 C1 1.258 . S
O25 Co0 2.020 . S
O25 C27 1.256 . S
O26 Co2 2.062 . S
O26 C27 1.255 . S
C27 O25 1.256 . S
C27 O26 1.255 . S
H28 C7 0.931 . S
H29 C15 0.931 . S
Co30 N35 2.057 . S
Co30 O47 2.021 . S
Co30 O50 2.062 . S
Co30 O54 2.117 . S
Co30 O55 2.020 . S
C31 O51 1.259 . S
C31 O54 1.258 . S
Co32 N41 2.057 . S
Co32 O48 2.117 . S
Co32 O49 2.020 . S
Co32 O51 2.021 . S
Co32 O56 2.062 . S
C33 N35 1.316 . S
C33 N36 1.347 . S
C33 H38 0.931 . S
C34 N35 1.375 . S
C34 C37 1.350 . S
C34 H39 0.930 . S
N35 Co30 2.057 . S
N35 C33 1.316 . S
N35 C34 1.375 . S
N36 C33 1.347 . S
N36 C37 1.373 . S
C37 C34 1.350 . S
C37 N36 1.373 . S
C37 H58 0.931 . S
H38 C33 0.931 . S
H39 C34 0.930 . S
C40 O47 1.259 . S
C40 O48 1.258 . S
N41 Co32 2.057 . S
N41 C42 1.316 . S
N41 C43 1.375 . S
C42 N41 1.316 . S
C42 N44 1.347 . S
C42 H53 0.931 . S
C43 N41 1.375 . S
C43 C45 1.350 . S
C43 H52 0.930 . S
N44 C42 1.347 . S
N44 C45 1.373 . S
C45 C43 1.350 . S
C45 N44 1.373 . S
C45 H59 0.931 . S
C46 O49 1.256 . S
C46 O50 1.255 . S
O47 Co30 2.021 . S
O47 C40 1.259 . S
O48 Co32 2.117 . S
O48 C40 1.258 . S
O49 Co32 2.020 . S
O49 C46 1.256 . S
O50 Co30 2.062 . S
O50 C46 1.255 . S
O51 C31 1.259 . S
O51 Co32 2.021 . S
H52 C43 0.930 . S
H53 C42 0.931 . S
O54 Co30 2.117 . S
O54 C31 1.258 . S
O55 Co30 2.020 . S
O55 C57 1.256 . S
O56 Co32 2.062 . S
O56 C57 1.255 . S
C57 O55 1.256 . S
C57 O56 1.255 . S
H58 C37 0.931 . S
H59 C45 0.931 . S
Co60 N65 2.057 . S
Co60 O77 2.021 . S
Co60 O80 2.062 . S
Co60 O84 2.117 . S
Co60 O85 2.020 . S
C61 O81 1.259 . S
C61 O84 1.258 . S
Co62 N71 2.057 . S
Co62 O78 2.117 . S
Co62 O79 2.020 . S
Co62 O81 2.021 . S
Co62 O86 2.062 . S
C63 N65 1.316 . S
C63 N66 1.347 . S
C63 H68 0.931 . S
C64 N65 1.375 . S
C64 C67 1.350 . S
C64 H69 0.930 . S
N65 Co60 2.057 . S
N65 C63 1.316 . S
N65 C64 1.375 . S
N66 C63 1.347 . S
N66 C67 1.373 . S
C67 C64 1.350 . S
C67 N66 1.373 . S
C67 H88 0.931 . S
H68 C63 0.931 . S
H69 C64 0.930 . S
C70 O77 1.259 . S
C70 O78 1.258 . S
N71 Co62 2.057 . S
N71 C72 1.316 . S
N71 C73 1.375 . S
C72 N71 1.316 . S
C72 N74 1.347 . S
C72 H83 0.931 . S
C73 N71 1.375 . S
C73 C75 1.350 . S
C73 H82 0.930 . S
N74 C72 1.347 . S
N74 C75 1.373 . S
C75 C73 1.350 . S
C75 N74 1.373 . S
C75 H89 0.931 . S
C76 O79 1.256 . S
C76 O80 1.255 . S
O77 Co60 2.021 . S
O77 C70 1.259 . S
O78 Co62 2.117 . S
O78 C70 1.258 . S
O79 Co62 2.020 . S
O79 C76 1.256 . S
O80 Co60 2.062 . S
O80 C76 1.255 . S
O81 C61 1.259 . S
O81 Co62 2.021 . S
H82 C73 0.930 . S
H83 C72 0.931 . S
O84 Co60 2.117 . S
O84 C61 1.258 . S
O85 Co60 2.020 . S
O85 C87 1.256 . S
O86 Co62 2.062 . S
O86 C87 1.255 . S
C87 O85 1.256 . S
C87 O86 1.255 . S
H88 C67 0.931 . S
H89 C75 0.931 . S
Co90 N95 2.057 . S
Co90 O107 2.021 . S
Co90 O110 2.062 . S
Co90 O114 2.117 . S
Co90 O115 2.020 . S
C91 O111 1.259 . S
C91 O114 1.258 . S
Co92 N101 2.057 . S
Co92 O108 2.117 . S
Co92 O109 2.020 . S
Co92 O111 2.021 . S
Co92 O116 2.062 . S
C93 N95 1.316 . S
C93 N96 1.347 . S
C93 H98 0.931 . S
C94 N95 1.375 . S
C94 C97 1.350 . S
C94 H99 0.930 . S
N95 Co90 2.057 . S
N95 C93 1.316 . S
N95 C94 1.375 . S
N96 C93 1.347 . S
N96 C97 1.373 . S
C97 C94 1.350 . S
C97 N96 1.373 . S
C97 H118 0.931 . S
H98 C93 0.931 . S
H99 C94 0.930 . S
C100 O107 1.259 . S
C100 O108 1.258 . S
N101 Co92 2.057 . S
N101 C102 1.316 . S
N101 C103 1.375 . S
C102 N101 1.316 . S
C102 N104 1.347 . S
C102 H113 0.931 . S
C103 N101 1.375 . S
C103 C105 1.350 . S
C103 H112 0.930 . S
N104 C102 1.347 . S
N104 C105 1.373 . S
C105 C103 1.350 . S
C105 N104 1.373 . S
C105 H119 0.931 . S
C106 O109 1.256 . S
C106 O110 1.255 . S
O107 Co90 2.021 . S
O107 C100 1.259 . S
O108 Co92 2.117 . S
O108 C100 1.258 . S
O109 Co92 2.020 . S
O109 C106 1.256 . S
O110 Co90 2.062 . S
O110 C106 1.255 . S
O111 C91 1.259 . S
O111 Co92 2.021 . S
H112 C103 0.930 . S
H113 C102 0.931 . S
O114 Co90 2.117 . S
O114 C91 1.258 . S
O115 Co90 2.020 . S
O115 C117 1.256 . S
O116 Co92 2.062 . S
O116 C117 1.255 . S
C117 O115 1.256 . S
C117 O116 1.255 . S
H118 C97 0.931 . S
H119 C105 0.931 . S
Co120 N125 2.057 . S
Co120 O137 2.021 . S
Co120 O140 2.062 . S
Co120 O144 2.117 . S
Co120 O145 2.020 . S
C121 O141 1.259 . S
C121 O144 1.258 . S
Co122 N131 2.057 . S
Co122 O138 2.117 . S
Co122 O139 2.020 . S
Co122 O141 2.021 . S
Co122 O146 2.062 . S
C123 N125 1.316 . S
C123 N126 1.347 . S
C123 H128 0.931 . S
C124 N125 1.375 . S
C124 C127 1.350 . S
C124 H129 0.930 . S
N125 Co120 2.057 . S
N125 C123 1.316 . S
N125 C124 1.375 . S
N126 C123 1.347 . S
N126 C127 1.373 . S
C127 C124 1.350 . S
C127 N126 1.373 . S
C127 H148 0.931 . S
H128 C123 0.931 . S
H129 C124 0.930 . S
C130 O137 1.259 . S
C130 O138 1.258 . S
N131 Co122 2.057 . S
N131 C132 1.316 . S
N131 C133 1.375 . S
C132 N131 1.316 . S
C132 N134 1.347 . S
C132 H143 0.931 . S
C133 N131 1.375 . S
C133 C135 1.350 . S
C133 H142 0.930 . S
N134 C132 1.347 . S
N134 C135 1.373 . S
C135 C133 1.350 . S
C135 N134 1.373 . S
C135 H149 0.931 . S
C136 O139 1.256 . S
C136 O140 1.255 . S
O137 Co120 2.021 . S
O137 C130 1.259 . S
O138 Co122 2.117 . S
O138 C130 1.258 . S
O139 Co122 2.020 . S
O139 C136 1.256 . S
O140 Co120 2.062 . S
O140 C136 1.255 . S
O141 C121 1.259 . S
O141 Co122 2.021 . S
H142 C133 0.930 . S
H143 C132 0.931 . S
O144 Co120 2.117 . S
O144 C121 1.258 . S
O145 Co120 2.020 . S
O145 C147 1.256 . S
O146 Co122 2.062 . S
O146 C147 1.255 . S
C147 O145 1.256 . S
C147 O146 1.255 . S
H148 C127 0.931 . S
H149 C135 0.931 . S
Co150 N155 2.057 . S
Co150 O167 2.021 . S
Co150 O170 2.062 . S
Co150 O174 2.117 . S
Co150 O175 2.020 . S
C151 O171 1.259 . S
C151 O174 1.258 . S
Co152 N161 2.057 . S
Co152 O168 2.117 . S
Co152 O169 2.020 . S
Co152 O171 2.021 . S
Co152 O176 2.062 . S
C153 N155 1.316 . S
C153 N156 1.347 . S
C153 H158 0.931 . S
C154 N155 1.375 . S
C154 C157 1.350 . S
C154 H159 0.930 . S
N155 Co150 2.057 . S
N155 C153 1.316 . S
N155 C154 1.375 . S
N156 C153 1.347 . S
N156 C157 1.373 . S
C157 C154 1.350 . S
C157 N156 1.373 . S
C157 H178 0.931 . S
H158 C153 0.931 . S
H159 C154 0.930 . S
C160 O167 1.259 . S
C160 O168 1.258 . S
N161 Co152 2.057 . S
N161 C162 1.316 . S
N161 C163 1.375 . S
C162 N161 1.316 . S
C162 N164 1.347 . S
C162 H173 0.931 . S
C163 N161 1.375 . S
C163 C165 1.350 . S
C163 H172 0.930 . S
N164 C162 1.347 . S
N164 C165 1.373 . S
C165 C163 1.350 . S
C165 N164 1.373 . S
C165 H179 0.931 . S
C166 O169 1.256 . S
C166 O170 1.255 . S
O167 Co150 2.021 . S
O167 C160 1.259 . S
O168 Co152 2.117 . S
O168 C160 1.258 . S
O169 Co152 2.020 . S
O169 C166 1.256 . S
O170 Co150 2.062 . S
O170 C166 1.255 . S
O171 C151 1.259 . S
O171 Co152 2.021 . S
H172 C163 0.930 . S
H173 C162 0.931 . S
O174 Co150 2.117 . S
O174 C151 1.258 . S
O175 Co150 2.020 . S
O175 C177 1.256 . S
O176 Co152 2.062 . S
O176 C177 1.255 . S
C177 O175 1.256 . S
C177 O176 1.255 . S
H178 C157 0.931 . S
H179 C165 0.931 . S
Co180 N185 2.057 . S
Co180 O197 2.021 . S
Co180 O200 2.062 . S
Co180 O204 2.117 . S
Co180 O205 2.020 . S
C181 O201 1.259 . S
C181 O204 1.258 . S
Co182 N191 2.057 . S
Co182 O198 2.117 . S
Co182 O199 2.020 . S
Co182 O201 2.021 . S
Co182 O206 2.062 . S
C183 N185 1.316 . S
C183 N186 1.347 . S
C183 H188 0.931 . S
C184 N185 1.375 . S
C184 C187 1.350 . S
C184 H189 0.930 . S
N185 Co180 2.057 . S
N185 C183 1.316 . S
N185 C184 1.375 . S
N186 C183 1.347 . S
N186 C187 1.373 . S
C187 C184 1.350 . S
C187 N186 1.373 . S
C187 H208 0.931 . S
H188 C183 0.931 . S
H189 C184 0.930 . S
C190 O197 1.259 . S
C190 O198 1.258 . S
N191 Co182 2.057 . S
N191 C192 1.316 . S
N191 C193 1.375 . S
C192 N191 1.316 . S
C192 N194 1.347 . S
C192 H203 0.931 . S
C193 N191 1.375 . S
C193 C195 1.350 . S
C193 H202 0.930 . S
N194 C192 1.347 . S
N194 C195 1.373 . S
C195 C193 1.350 . S
C195 N194 1.373 . S
C195 H209 0.931 . S
C196 O199 1.256 . S
C196 O200 1.255 . S
O197 Co180 2.021 . S
O197 C190 1.259 . S
O198 Co182 2.117 . S
O198 C190 1.258 . S
O199 Co182 2.020 . S
O199 C196 1.256 . S
O200 Co180 2.062 . S
O200 C196 1.255 . S
O201 C181 1.259 . S
O201 Co182 2.021 . S
H202 C193 0.930 . S
H203 C192 0.931 . S
O204 Co180 2.117 . S
O204 C181 1.258 . S
O205 Co180 2.020 . S
O205 C207 1.256 . S
O206 Co182 2.062 . S
O206 C207 1.255 . S
C207 O205 1.256 . S
C207 O206 1.255 . S
H208 C187 0.931 . S
H209 C195 0.931 . S
Co210 N215 2.057 . S
Co210 O227 2.021 . S
Co210 O230 2.062 . S
Co210 O234 2.117 . S
Co210 O235 2.020 . S
C211 O231 1.259 . S
C211 O234 1.258 . S
Co212 N221 2.057 . S
Co212 O228 2.117 . S
Co212 O229 2.020 . S
Co212 O231 2.021 . S
Co212 O236 2.062 . S
C213 N215 1.316 . S
C213 N216 1.347 . S
C213 H218 0.931 . S
C214 N215 1.375 . S
C214 C217 1.350 . S
C214 H219 0.930 . S
N215 Co210 2.057 . S
N215 C213 1.316 . S
N215 C214 1.375 . S
N216 C213 1.347 . S
N216 C217 1.373 . S
C217 C214 1.350 . S
C217 N216 1.373 . S
C217 H238 0.931 . S
H218 C213 0.931 . S
H219 C214 0.930 . S
C220 O227 1.259 . S
C220 O228 1.258 . S
N221 Co212 2.057 . S
N221 C222 1.316 . S
N221 C223 1.375 . S
C222 N221 1.316 . S
C222 N224 1.347 . S
C222 H233 0.931 . S
C223 N221 1.375 . S
C223 C225 1.350 . S
C223 H232 0.930 . S
N224 C222 1.347 . S
N224 C225 1.373 . S
C225 C223 1.350 . S
C225 N224 1.373 . S
C225 H239 0.931 . S
C226 O229 1.256 . S
C226 O230 1.255 . S
O227 Co210 2.021 . S
O227 C220 1.259 . S
O228 Co212 2.117 . S
O228 C220 1.258 . S
O229 Co212 2.020 . S
O229 C226 1.256 . S
O230 Co210 2.062 . S
O230 C226 1.255 . S
O231 C211 1.259 . S
O231 Co212 2.021 . S
H232 C223 0.930 . S
H233 C222 0.931 . S
O234 Co210 2.117 . S
O234 C211 1.258 . S
O235 Co210 2.020 . S
O235 C237 1.256 . S
O236 Co212 2.062 . S
O236 C237 1.255 . S
C237 O235 1.256 . S
C237 O236 1.255 . S
H238 C217 0.931 . S
H239 C225 0.931 . S
Fe240 O241 1.889 . S
Fe240 O244 1.712 1_655 S
Fe240 O249 2.080 . S
Fe240 O254 1.933 1_655 S
Fe240 O260 2.080 . S
Fe240 O269 1.933 1_655 S
O241 Fe240 1.889 . S
O241 Fe243 1.684 1_545 S
Fe242 O244 1.886 . S
Fe242 O245 1.715 1_545 S
Fe242 O252 1.935 1_545 S
Fe242 O253 2.077 . S
Fe242 O259 1.935 1_545 S
Fe242 O268 2.077 . S
Fe243 O241 1.684 1_565 S
Fe243 O246 1.916 . S
Fe243 O250 1.911 1_565 S
Fe243 O255 2.104 . S
Fe243 O261 1.913 1_565 S
Fe243 O265 2.106 . S
O244 Fe240 1.712 1_455 S
O244 Fe242 1.886 . S
O245 Fe242 1.715 1_565 S
O245 Fe247 1.896 . S
O246 Fe243 1.916 . S
O246 Fe247 1.704 1_655 S
Fe247 O245 1.896 . S
Fe247 O246 1.704 1_455 S
Fe247 O251 2.087 . S
Fe247 O256 1.928 1_455 S
Fe247 O258 2.086 . S
Fe247 O266 1.927 1_455 S
C248 O260 1.381 . S
C248 O261 1.421 . S
O249 Fe240 2.080 . S
O249 C262 1.381 . S
O250 Fe243 1.911 1_545 S
O250 C262 1.421 . S
O251 Fe247 2.087 . S
O251 C267 1.381 . S
O252 Fe242 1.935 1_565 S
O252 C267 1.421 . S
O253 Fe242 2.077 . S
O253 C257 1.381 . S
O254 Fe240 1.933 1_455 S
O254 C257 1.421 . S
O255 Fe243 2.104 . S
O255 C263 1.381 . S
O256 Fe247 1.928 1_655 S
O256 C263 1.421 . S
C257 O253 1.381 . S
C257 O254 1.421 . S
O258 Fe247 2.086 . S
O258 C270 1.381 . S
O259 Fe242 1.935 1_565 S
O259 C270 1.421 . S
O260 Fe240 2.080 . S
O260 C248 1.381 . S
O261 Fe243 1.913 1_545 S
O261 C248 1.421 . S
C262 O249 1.381 . S
C262 O250 1.421 . S
C263 O255 1.381 . S
C263 O256 1.421 . S
C264 O265 1.381 . S
C264 O266 1.421 . S
O265 Fe243 2.106 . S
O265 C264 1.381 . S
O266 Fe247 1.927 1_655 S
O266 C264 1.421 . S
C267 O251 1.381 . S
C267 O252 1.421 . S
O268 Fe242 2.077 . S
O268 C271 1.381 . S
O269 Fe240 1.933 1_455 S
O269 C271 1.421 . S
C270 O258 1.381 . S
C270 O259 1.421 . S
C271 O268 1.381 . S
C271 O269 1.421 . S
Fe272 O273 1.885 1_556 S
Fe272 O276 1.715 . S
Fe272 O281 2.077 . S
Fe272 O286 1.935 . S
Fe272 O292 2.077 1_556 S
Fe272 O301 1.935 1_556 S
O273 Fe272 1.885 1_554 S
O273 Fe275 1.715 1_565 S
Fe274 O276 1.916 . S
Fe274 O277 1.685 1_566 S
Fe274 O284 1.911 1_565 S
Fe274 O285 2.103 . S
Fe274 O291 1.914 1_566 S
Fe274 O300 2.105 1_556 S
Fe275 O273 1.715 1_545 S
Fe275 O278 1.886 . S
Fe275 O282 1.935 1_544 S
Fe275 O287 2.077 1_554 S
Fe275 O293 1.935 1_545 S
Fe275 O297 2.077 . S
O276 Fe272 1.715 . S
O276 Fe274 1.916 . S
O277 Fe274 1.685 1_544 S
O277 Fe279 1.885 . S
O278 Fe275 1.886 . S
O278 Fe279 1.715 . S
Fe279 O277 1.885 . S
Fe279 O278 1.715 . S
Fe279 O283 2.077 1_554 S
Fe279 O288 1.935 1_554 S
Fe279 O290 2.077 . S
Fe279 O298 1.935 . S
C280 O292 1.381 . S
C280 O293 1.421 . S
O281 Fe272 2.077 . S
O281 C294 1.381 . S
O282 Fe275 1.935 1_566 S
O282 C294 1.421 . S
O283 Fe279 2.077 1_556 S
O283 C299 1.381 . S
O284 Fe274 1.911 1_545 S
O284 C299 1.421 . S
O285 Fe274 2.103 . S
O285 C289 1.381 . S
O286 Fe272 1.935 . S
O286 C289 1.421 . S
O287 Fe275 2.077 1_556 S
O287 C295 1.381 . S
O288 Fe279 1.935 1_556 S
O288 C295 1.421 . S
C289 O285 1.381 . S
C289 O286 1.421 . S
O290 Fe279 2.077 . S
O290 C302 1.381 . S
O291 Fe274 1.914 1_544 S
O291 C302 1.421 . S
O292 Fe272 2.077 1_554 S
O292 C280 1.381 . S
O293 Fe275 1.935 1_565 S
O293 C280 1.421 . S
C294 O281 1.381 . S
C294 O282 1.421 . S
C295 O287 1.381 . S
C295 O288 1.421 . S
C296 O297 1.381 . S
C296 O298 1.421 . S
O297 Fe275 2.077 . S
O297 C296 1.381 . S
O298 Fe279 1.935 . S
O298 C296 1.421 . S
C299 O283 1.381 . S
C299 O284 1.421 . S
O300 Fe274 2.105 1_554 S
O300 C303 1.381 . S
O301 Fe272 1.935 1_554 S
O301 C303 1.421 . S
C302 O290 1.381 . S
C302 O291 1.421 . S
C303 O300 1.381 . S
C303 O301 1.421 . S
Fe304 O305 1.889 . S
Fe304 O308 1.712 1_655 S
Fe304 O313 2.080 1_554 S
Fe304 O318 1.933 1_654 S
Fe304 O324 2.080 . S
Fe304 O333 1.933 1_655 S
O305 Fe304 1.889 . S
O305 Fe307 1.715 1_554 S
Fe306 O308 1.886 . S
Fe306 O309 1.715 . S
Fe306 O316 1.935 1_554 S
Fe306 O317 2.077 1_554 S
Fe306 O323 1.935 . S
Fe306 O332 2.077 . S
Fe307 O305 1.715 1_556 S
Fe307 O310 1.886 . S
Fe307 O314 1.935 . S
Fe307 O319 2.077 . S
Fe307 O325 1.935 1_556 S
Fe307 O329 2.077 1_556 S
O308 Fe304 1.712 1_455 S
O308 Fe306 1.886 . S
O309 Fe306 1.715 . S
O309 Fe311 1.896 1_554 S
O310 Fe307 1.886 . S
O310 Fe311 1.705 1_655 S
Fe311 O309 1.896 1_556 S
Fe311 O310 1.705 1_455 S
Fe311 O315 2.087 . S
Fe311 O320 1.928 1_455 S
Fe311 O322 2.086 1_556 S
Fe311 O330 1.927 1_456 S
C312 O324 1.381 . S
C312 O325 1.421 . S
O313 Fe304 2.080 1_556 S
O313 C326 1.381 . S
O314 Fe307 1.935 . S
O314 C326 1.421 . S
O315 Fe311 2.087 . S
O315 C331 1.381 . S
O316 Fe306 1.935 1_556 S
O316 C331 1.421 . S
O317 Fe306 2.077 1_556 S
O317 C321 1.381 . S
O318 Fe304 1.933 1_456 S
O318 C321 1.421 . S
O319 Fe307 2.077 . S
O319 C327 1.381 . S
O320 Fe311 1.928 1_655 S
O320 C327 1.421 . S
C321 O317 1.381 . S
C321 O318 1.421 . S
O322 Fe311 2.086 1_554 S
O322 C334 1.381 . S
O323 Fe306 1.935 . S
O323 C334 1.421 . S
O324 Fe304 2.080 . S
O324 C312 1.381 . S
O325 Fe307 1.935 1_554 S
O325 C312 1.421 . S
C326 O313 1.381 . S
C326 O314 1.421 . S
C327 O319 1.381 . S
C327 O320 1.421 . S
C328 O329 1.381 . S
C328 O330 1.421 . S
O329 Fe307 2.077 1_554 S
O329 C328 1.381 . S
O330 Fe311 1.927 1_654 S
O330 C328 1.421 . S
C331 O315 1.381 . S
C331 O316 1.421 . S
O332 Fe306 2.077 . S
O332 C335 1.381 . S
O333 Fe304 1.933 1_455 S
O333 C335 1.421 . S
C334 O322 1.381 . S
C334 O323 1.421 . S
C335 O332 1.381 . S
C335 O333 1.421 . S
Fe336 O337 1.886 . S
Fe336 O340 1.715 . S
Fe336 O345 2.077 . S
Fe336 O350 1.935 . S
Fe336 O356 2.077 . S
Fe336 O365 1.935 . S
O337 Fe336 1.886 . S
O337 Fe339 1.715 1_556 S
Fe338 O340 1.886 . S
Fe338 O341 1.715 1_556 S
Fe338 O348 1.935 1_556 S
Fe338 O349 2.077 . S
Fe338 O355 1.935 1_556 S
Fe338 O364 2.077 . S
Fe339 O337 1.715 1_554 S
Fe339 O342 1.886 . S
Fe339 O346 1.935 1_554 S
Fe339 O351 2.077 . S
Fe339 O357 1.935 1_554 S
Fe339 O361 2.077 . S
O340 Fe336 1.715 . S
O340 Fe338 1.886 . S
O341 Fe338 1.715 1_554 S
O341 Fe343 1.886 . S
O342 Fe339 1.886 . S
O342 Fe343 1.715 . S
Fe343 O341 1.886 . S
Fe343 O342 1.715 . S
Fe343 O347 2.077 . S
Fe343 O352 1.935 . S
Fe343 O354 2.077 . S
Fe343 O362 1.935 . S
C344 O356 1.381 . S
C344 O357 1.421 . S
O345 Fe336 2.077 . S
O345 C358 1.381 . S
O346 Fe339 1.935 1_556 S
O346 C358 1.421 . S
O347 Fe343 2.077 . S
O347 C363 1.381 . S
O348 Fe338 1.935 1_554 S
O348 C363 1.421 . S
O349 Fe338 2.077 . S
O349 C353 1.381 . S
O350 Fe336 1.935 . S
O350 C353 1.421 . S
O351 Fe339 2.077 . S
O351 C359 1.381 . S
O352 Fe343 1.935 . S
O352 C359 1.421 . S
C353 O349 1.381 . S
C353 O350 1.421 . S
O354 Fe343 2.077 . S
O354 C366 1.381 . S
O355 Fe338 1.935 1_554 S
O355 C366 1.421 . S
O356 Fe336 2.077 . S
O356 C344 1.381 . S
O357 Fe339 1.935 1_556 S
O357 C344 1.421 . S
C358 O345 1.381 . S
C358 O346 1.421 . S
C359 O351 1.381 . S
C359 O352 1.421 . S
C360 O361 1.381 . S
C360 O362 1.421 . S
O361 Fe339 2.077 . S
O361 C360 1.381 . S
O362 Fe343 1.935 . S
O362 C360 1.421 . S
C363 O347 1.381 . S
C363 O348 1.421 . S
O364 Fe338 2.077 . S
O364 C367 1.381 . S
O365 Fe336 1.935 . S
O365 C367 1.421 . S
C366 O354 1.381 . S
C366 O355 1.421 . S
C367 O364 1.381 . S
C367 O365 1.421 . S
Fe368 O369 1.887 1_655 S
Fe368 O372 1.716 . S
Fe368 O377 2.072 1_655 S
Fe368 O382 1.929 1_655 S
Fe368 O388 2.083 . S
Fe368 O397 1.941 . S
O369 Fe368 1.887 1_455 S
O369 Fe371 1.715 . S
Fe370 O372 1.885 . S
Fe370 O373 1.715 . S
Fe370 O380 1.935 1_655 S
Fe370 O381 2.077 1_655 S
Fe370 O387 1.935 . S
Fe370 O396 2.077 . S
Fe371 O369 1.715 . S
Fe371 O374 1.886 . S
Fe371 O378 1.935 . S
Fe371 O383 2.077 . S
Fe371 O389 1.935 1_455 S
Fe371 O393 2.077 1_455 S
O372 Fe368 1.716 . S
O372 Fe370 1.885 . S
O373 Fe370 1.715 . S
O373 Fe375 1.887 1_655 S
O374 Fe371 1.886 . S
O374 Fe375 1.715 . S
Fe375 O373 1.887 1_455 S
Fe375 O374 1.715 . S
Fe375 O379 2.090 . S
Fe375 O384 1.949 . S
Fe375 O386 2.065 1_455 S
Fe375 O394 1.921 1_455 S
C376 O388 1.381 . S
C376 O389 1.421 . S
O377 Fe368 2.072 1_455 S
O377 C390 1.381 . S
O378 Fe371 1.935 . S
O378 C390 1.421 . S
O379 Fe375 2.090 . S
O379 C395 1.381 . S
O380 Fe370 1.935 1_455 S
O380 C395 1.421 . S
O381 Fe370 2.077 1_455 S
O381 C385 1.381 . S
O382 Fe368 1.929 1_455 S
O382 C385 1.421 . S
O383 Fe371 2.077 . S
O383 C391 1.381 . S
O384 Fe375 1.949 . S
O384 C391 1.421 . S
C385 O381 1.381 . S
C385 O382 1.421 . S
O386 Fe375 2.065 1_655 S
O386 C398 1.381 . S
O387 Fe370 1.935 . S
O387 C398 1.421 . S
O388 Fe368 2.083 . S
O388 C376 1.381 . S
O389 Fe371 1.935 1_655 S
O389 C376 1.421 . S
C390 O377 1.381 . S
C390 O378 1.421 . S
C391 O383 1.381 . S
C391 O384 1.421 . S
C392 O393 1.381 . S
C392 O394 1.421 . S
O393 Fe371 2.077 1_655 S
O393 C392 1.381 . S
O394 Fe375 1.921 1_655 S
O394 C392 1.421 . S
C395 O379 1.381 . S
C395 O380 1.421 . S
O396 Fe370 2.077 . S
O396 C399 1.381 . S
O397 Fe368 1.941 . S
O397 C399 1.421 . S
C398 O386 1.381 . S
C398 O387 1.421 . S
C399 O396 1.381 . S
C399 O397 1.421 . S
Fe400 O401 1.886 . S
Fe400 O404 1.715 . S
Fe400 O409 2.077 . S
Fe400 O414 1.935 . S
Fe400 O420 2.077 . S
Fe400 O429 1.935 . S
O401 Fe400 1.886 . S
O401 Fe403 1.715 1_565 S
Fe402 O404 1.886 . S
Fe402 O405 1.715 1_565 S
Fe402 O412 1.935 1_565 S
Fe402 O413 2.077 . S
Fe402 O419 1.935 1_565 S
Fe402 O428 2.077 . S
Fe403 O401 1.715 1_545 S
Fe403 O406 1.886 . S
Fe403 O410 1.935 1_545 S
Fe403 O415 2.077 . S
Fe403 O421 1.935 1_545 S
Fe403 O425 2.077 . S
O404 Fe400 1.715 . S
O404 Fe402 1.886 . S
O405 Fe402 1.715 1_545 S
O405 Fe407 1.886 . S
O406 Fe403 1.886 . S
O406 Fe407 1.715 . S
Fe407 O405 1.886 . S
Fe407 O406 1.715 . S
Fe407 O411 2.077 . S
Fe407 O416 1.935 . S
Fe407 O418 2.077 . S
Fe407 O426 1.935 . S
C408 O420 1.381 . S
C408 O421 1.421 . S
O409 Fe400 2.077 . S
O409 C422 1.381 . S
O410 Fe403 1.935 1_565 S
O410 C422 1.421 . S
O411 Fe407 2.077 . S
O411 C427 1.381 . S
O412 Fe402 1.935 1_545 S
O412 C427 1.421 . S
O413 Fe402 2.077 . S
O413 C417 1.381 . S
O414 Fe400 1.935 . S
O414 C417 1.421 . S
O415 Fe403 2.077 . S
O415 C423 1.381 . S
O416 Fe407 1.935 . S
O416 C423 1.421 . S
C417 O413 1.381 . S
C417 O414 1.421 . S
O418 Fe407 2.077 . S
O418 C430 1.381 . S
O419 Fe402 1.935 1_545 S
O419 C430 1.421 . S
O420 Fe400 2.077 . S
O420 C408 1.381 . S
O421 Fe403 1.935 1_565 S
O421 C408 1.421 . S
C422 O409 1.381 . S
C422 O410 1.421 . S
C423 O415 1.381 . S
C423 O416 1.421 . S
C424 O425 1.381 . S
C424 O426 1.421 . S
O425 Fe403 2.077 . S
O425 C424 1.381 . S
O426 Fe407 1.935 . S
O426 C424 1.421 . S
C427 O411 1.381 . S
C427 O412 1.421 . S
O428 Fe402 2.077 . S
O428 C431 1.381 . S
O429 Fe400 1.935 . S
O429 C431 1.421 . S
C430 O418 1.381 . S
C430 O419 1.421 . S
C431 O428 1.381 . S
C431 O429 1.421 . S
H432 C440 0.929 . S
H433 C442 0.930 . S
H434 C444 0.930 . S
H435 C447 0.929 . S
H436 C450 0.930 . S
H437 C452 0.960 . S
H438 C452 0.960 . S
H439 C452 0.960 . S
C440 H432 0.929 . S
C440 C441 1.377 . S
C440 C442 1.384 . S
C441 C440 1.377 . S
C441 C447 1.390 . S
C442 H433 0.930 . S
C442 C440 1.384 . S
C442 C443 1.372 . S
C443 C442 1.372 . S
C443 C444 1.400 . S
C443 C448 1.490 . S
C444 H434 0.930 . S
C444 C443 1.400 . S
C444 C447 1.386 . S
H445 C461 0.930 . S
H446 C462 0.931 . S
C447 H435 0.929 . S
C447 C441 1.390 . S
C447 C444 1.386 . S
C448 C443 1.490 . S
C448 C450 1.395 . S
C448 C451 1.403 . S
H449 C455 0.930 . S
C450 H436 0.930 . S
C450 C448 1.395 . S
C450 C453 1.403 . S
C451 C448 1.403 . S
C451 C452 1.524 . S
C451 C455 1.400 . S
C452 H437 0.960 . S
C452 H438 0.960 . S
C452 H439 0.960 . S
C452 C451 1.524 . S
C453 C450 1.403 . S
C453 C454 1.392 . S
C453 C457 1.495 . S
C454 C453 1.392 . S
C454 C455 1.385 . S
C454 C456 1.478 . S
C455 H449 0.930 . S
C455 C451 1.400 . S
C455 C454 1.385 . S
C456 C454 1.478 . S
C456 C458 1.381 . S
C456 C462 1.383 . S
C457 C453 1.495 . S
C457 H463 0.959 . S
C457 H464 0.961 . S
C457 H465 0.960 . S
C458 C456 1.381 . S
C458 C459 1.394 . S
C458 H466 0.930 . S
C459 C458 1.394 . S
C459 C460 1.383 . S
C459 H467 0.929 . S
C460 C459 1.383 . S
C460 C461 1.377 . S
C461 H445 0.930 . S
C461 C460 1.377 . S
C461 C462 1.379 . S
C462 H446 0.931 . S
C462 C456 1.383 . S
C462 C461 1.379 . S
H463 C457 0.959 . S
H464 C457 0.961 . S
H465 C457 0.960 . S
H466 C458 0.930 . S
H467 C459 0.929 . S
H468 C476 0.929 . S
H469 C478 0.930 . S
H470 C480 0.930 . S
H471 C483 0.929 . S
H472 C486 0.930 . S
H473 C488 0.960 . S
H474 C488 0.960 . S
H475 C488 0.960 . S
C476 H468 0.929 . S
C476 C477 1.377 . S
C476 C478 1.384 . S
C477 C476 1.377 . S
C477 C483 1.390 . S
C478 H469 0.930 . S
C478 C476 1.384 . S
C478 C479 1.372 . S
C479 C478 1.372 . S
C479 C480 1.400 . S
C479 C484 1.490 . S
C480 H470 0.930 . S
C480 C479 1.400 . S
C480 C483 1.386 . S
H481 C497 0.930 . S
H482 C498 0.931 . S
C483 H471 0.929 . S
C483 C477 1.390 . S
C483 C480 1.386 . S
C484 C479 1.490 . S
C484 C486 1.395 . S
C484 C487 1.403 . S
H485 C491 0.930 . S
C486 H472 0.930 . S
C486 C484 1.395 . S
C486 C489 1.403 . S
C487 C484 1.403 . S
C487 C488 1.524 . S
C487 C491 1.400 . S
C488 H473 0.960 . S
C488 H474 0.960 . S
C488 H475 0.960 . S
C488 C487 1.524 . S
C489 C486 1.403 . S
C489 C490 1.392 . S
C489 C493 1.495 . S
C490 C489 1.392 . S
C490 C491 1.385 . S
C490 C492 1.478 . S
C491 H485 0.930 . S
C491 C487 1.400 . S
C491 C490 1.385 . S
C492 C490 1.478 . S
C492 C494 1.381 . S
C492 C498 1.383 . S
C493 C489 1.495 . S
C493 H499 0.959 . S
C493 H500 0.961 . S
C493 H501 0.960 . S
C494 C492 1.381 . S
C494 C495 1.394 . S
C494 H502 0.930 . S
C495 C494 1.394 . S
C495 C496 1.383 . S
C495 H503 0.929 . S
C496 C495 1.383 . S
C496 C497 1.377 . S
C497 H481 0.930 . S
C497 C496 1.377 . S
C497 C498 1.379 . S
C498 H482 0.931 . S
C498 C492 1.383 . S
C498 C497 1.379 . S
H499 C493 0.959 . S
H500 C493 0.961 . S
H501 C493 0.960 . S
H502 C494 0.930 . S
H503 C495 0.929 . S
H504 C512 0.929 . S
H505 C514 0.930 . S
H506 C516 0.930 . S
H507 C519 0.929 . S
H508 C522 0.930 . S
H509 C524 0.960 . S
H510 C524 0.960 . S
H511 C524 0.960 . S
C512 H504 0.929 . S
C512 C513 1.377 . S
C512 C514 1.384 . S
C513 C512 1.377 . S
C513 C519 1.390 . S
C514 H505 0.930 . S
C514 C512 1.384 . S
C514 C515 1.372 . S
C515 C514 1.372 . S
C515 C516 1.400 . S
C515 C520 1.490 . S
C516 H506 0.930 . S
C516 C515 1.400 . S
C516 C519 1.386 . S
H517 C533 0.930 . S
H518 C534 0.931 . S
C519 H507 0.929 . S
C519 C513 1.390 . S
C519 C516 1.386 . S
C520 C515 1.490 . S
C520 C522 1.395 . S
C520 C523 1.403 . S
H521 C527 0.930 . S
C522 H508 0.930 . S
C522 C520 1.395 . S
C522 C525 1.403 . S
C523 C520 1.403 . S
C523 C524 1.524 . S
C523 C527 1.400 . S
C524 H509 0.960 . S
C524 H510 0.960 . S
C524 H511 0.960 . S
C524 C523 1.524 . S
C525 C522 1.403 . S
C525 C526 1.392 . S
C525 C529 1.495 . S
C526 C525 1.392 . S
C526 C527 1.385 . S
C526 C528 1.478 . S
C527 H521 0.930 . S
C527 C523 1.400 . S
C527 C526 1.385 . S
C528 C526 1.478 . S
C528 C530 1.381 . S
C528 C534 1.383 . S
C529 C525 1.495 . S
C529 H535 0.959 . S
C529 H536 0.961 . S
C529 H537 0.960 . S
C530 C528 1.381 . S
C530 C531 1.394 . S
C530 H538 0.930 . S
C531 C530 1.394 . S
C531 C532 1.383 . S
C531 H539 0.929 . S
C532 C531 1.383 . S
C532 C533 1.377 . S
C533 H517 0.930 . S
C533 C532 1.377 . S
C533 C534 1.379 . S
C534 H518 0.931 . S
C534 C528 1.383 . S
C534 C533 1.379 . S
H535 C529 0.959 . S
H536 C529 0.961 . S
H537 C529 0.960 . S
H538 C530 0.930 . S
H539 C531 0.929 . S
H540 C548 0.929 . S
H541 C550 0.930 . S
H542 C552 0.930 . S
H543 C555 0.929 . S
H544 C558 0.930 . S
H545 C560 0.960 . S
H546 C560 0.960 . S
H547 C560 0.960 . S
C548 H540 0.929 . S
C548 C549 1.377 . S
C548 C550 1.384 . S
C549 C548 1.377 . S
C549 C555 1.390 . S
C550 H541 0.930 . S
C550 C548 1.384 . S
C550 C551 1.372 . S
C551 C550 1.372 . S
C551 C552 1.400 . S
C551 C556 1.490 . S
C552 H542 0.930 . S
C552 C551 1.400 . S
C552 C555 1.386 . S
H553 C569 0.930 . S
H554 C570 0.931 . S
C555 H543 0.929 . S
C555 C549 1.390 . S
C555 C552 1.386 . S
C556 C551 1.490 . S
C556 C558 1.395 . S
C556 C559 1.403 . S
H557 C563 0.930 . S
C558 H544 0.930 . S
C558 C556 1.395 . S
C558 C561 1.403 . S
C559 C556 1.403 . S
C559 C560 1.524 . S
C559 C563 1.400 . S
C560 H545 0.960 . S
C560 H546 0.960 . S
C560 H547 0.960 . S
C560 C559 1.524 . S
C561 C558 1.403 . S
C561 C562 1.392 . S
C561 C565 1.495 . S
C562 C561 1.392 . S
C562 C563 1.385 . S
C562 C564 1.478 . S
C563 H557 0.930 . S
C563 C559 1.400 . S
C563 C562 1.385 . S
C564 C562 1.478 . S
C564 C566 1.381 . S
C564 C570 1.383 . S
C565 C561 1.495 . S
C565 H571 0.959 . S
C565 H572 0.961 . S
C565 H573 0.960 . S
C566 C564 1.381 . S
C566 C567 1.394 . S
C566 H574 0.930 . S
C567 C566 1.394 . S
C567 C568 1.383 . S
C567 H575 0.929 . S
C568 C567 1.383 . S
C568 C569 1.377 . S
C569 H553 0.930 . S
C569 C568 1.377 . S
C569 C570 1.379 . S
C570 H554 0.931 . S
C570 C564 1.383 . S
C570 C569 1.379 . S
H571 C565 0.959 . S
H572 C565 0.961 . S
H573 C565 0.960 . S
H574 C566 0.930 . S
H575 C567 0.929 . S
H576 C584 0.929 . S
H577 C586 0.930 . S
H578 C588 0.930 . S
H579 C591 0.929 . S
H580 C594 0.930 . S
H581 C596 0.960 . S
H582 C596 0.960 . S
H583 C596 0.960 . S
C584 H576 0.929 . S
C584 C585 1.377 . S
C584 C586 1.384 . S
C585 C584 1.377 . S
C585 C591 1.390 . S
C586 H577 0.930 . S
C586 C584 1.384 . S
C586 C587 1.372 . S
C587 C586 1.372 . S
C587 C588 1.400 . S
C587 C592 1.490 . S
C588 H578 0.930 . S
C588 C587 1.400 . S
C588 C591 1.386 . S
H589 C605 0.930 . S
H590 C606 0.931 . S
C591 H579 0.929 . S
C591 C585 1.390 . S
C591 C588 1.386 . S
C592 C587 1.490 . S
C592 C594 1.395 . S
C592 C595 1.403 . S
H593 C599 0.930 . S
C594 H580 0.930 . S
C594 C592 1.395 . S
C594 C597 1.403 . S
C595 C592 1.403 . S
C595 C596 1.524 . S
C595 C599 1.400 . S
C596 H581 0.960 . S
C596 H582 0.960 . S
C596 H583 0.960 . S
C596 C595 1.524 . S
C597 C594 1.403 . S
C597 C598 1.392 . S
C597 C601 1.495 . S
C598 C597 1.392 . S
C598 C599 1.385 . S
C598 C600 1.478 . S
C599 H593 0.930 . S
C599 C595 1.400 . S
C599 C598 1.385 . S
C600 C598 1.478 . S
C600 C602 1.381 . S
C600 C606 1.383 . S
C601 C597 1.495 . S
C601 H607 0.959 . S
C601 H608 0.961 . S
C601 H609 0.960 . S
C602 C600 1.381 . S
C602 C603 1.394 . S
C602 H610 0.930 . S
C603 C602 1.394 . S
C603 C604 1.383 . S
C603 H611 0.929 . S
C604 C603 1.383 . S
C604 C605 1.377 . S
C605 H589 0.930 . S
C605 C604 1.377 . S
C605 C606 1.379 . S
C606 H590 0.931 . S
C606 C600 1.383 . S
C606 C605 1.379 . S
H607 C601 0.959 . S
H608 C601 0.961 . S
H609 C601 0.960 . S
H610 C602 0.930 . S
H611 C603 0.929 . S
H612 C620 0.929 . S
H613 C622 0.930 . S
H614 C624 0.930 . S
H615 C627 0.929 . S
H616 C630 0.930 . S
H617 C632 0.960 . S
H618 C632 0.960 . S
H619 C632 0.960 . S
C620 H612 0.929 . S
C620 C621 1.377 . S
C620 C622 1.384 . S
C621 C620 1.377 . S
C621 C627 1.390 . S
C622 H613 0.930 . S
C622 C620 1.384 . S
C622 C623 1.372 . S
C623 C622 1.372 . S
C623 C624 1.400 . S
C623 C628 1.490 . S
C624 H614 0.930 . S
C624 C623 1.400 . S
C624 C627 1.386 . S
H625 C641 0.930 . S
H626 C642 0.931 . S
C627 H615 0.929 . S
C627 C621 1.390 . S
C627 C624 1.386 . S
C628 C623 1.490 . S
C628 C630 1.395 . S
C628 C631 1.403 . S
H629 C635 0.930 . S
C630 H616 0.930 . S
C630 C628 1.395 . S
C630 C633 1.403 . S
C631 C628 1.403 . S
C631 C632 1.524 . S
C631 C635 1.400 . S
C632 H617 0.960 . S
C632 H618 0.960 . S
C632 H619 0.960 . S
C632 C631 1.524 . S
C633 C630 1.403 . S
C633 C634 1.392 . S
C633 C637 1.495 . S
C634 C633 1.392 . S
C634 C635 1.385 . S
C634 C636 1.478 . S
C635 H629 0.930 . S
C635 C631 1.400 . S
C635 C634 1.385 . S
C636 C634 1.478 . S
C636 C638 1.381 . S
C636 C642 1.383 . S
C637 C633 1.495 . S
C637 H643 0.959 . S
C637 H644 0.961 . S
C637 H645 0.960 . S
C638 C636 1.381 . S
C638 C639 1.394 . S
C638 H646 0.930 . S
C639 C638 1.394 . S
C639 C640 1.383 . S
C639 H647 0.929 . S
C640 C639 1.383 . S
C640 C641 1.377 . S
C641 H625 0.930 . S
C641 C640 1.377 . S
C641 C642 1.379 . S
C642 H626 0.931 . S
C642 C636 1.383 . S
C642 C641 1.379 . S
H643 C637 0.959 . S
H644 C637 0.961 . S
H645 C637 0.960 . S
H646 C638 0.930 . S
H647 C639 0.929 . S
H648 C656 0.929 . S
H649 C658 0.930 . S
H650 C660 0.930 . S
H651 C663 0.929 . S
H652 C666 0.930 . S
H653 C668 0.960 . S
H654 C668 0.960 . S
H655 C668 0.960 . S
C656 H648 0.929 . S
C656 C657 1.377 . S
C656 C658 1.384 . S
C657 C656 1.377 . S
C657 C663 1.390 . S
C658 H649 0.930 . S
C658 C656 1.384 . S
C658 C659 1.372 . S
C659 C658 1.372 . S
C659 C660 1.400 . S
C659 C664 1.490 . S
C660 H650 0.930 . S
C660 C659 1.400 . S
C660 C663 1.386 . S
H661 C677 0.930 . S
H662 C678 0.931 . S
C663 H651 0.929 . S
C663 C657 1.390 . S
C663 C660 1.386 . S
C664 C659 1.490 . S
C664 C666 1.395 . S
C664 C667 1.403 . S
H665 C671 0.930 . S
C666 H652 0.930 . S
C666 C664 1.395 . S
C666 C669 1.403 . S
C667 C664 1.403 . S
C667 C668 1.524 . S
C667 C671 1.400 . S
C668 H653 0.960 . S
C668 H654 0.960 . S
C668 H655 0.960 . S
C668 C667 1.524 . S
C669 C666 1.403 . S
C669 C670 1.392 . S
C669 C673 1.495 . S
C670 C669 1.392 . S
C670 C671 1.385 . S
C670 C672 1.478 . S
C671 H665 0.930 . S
C671 C667 1.400 . S
C671 C670 1.385 . S
C672 C670 1.478 . S
C672 C674 1.381 . S
C672 C678 1.383 . S
C673 C669 1.495 . S
C673 H679 0.959 . S
C673 H680 0.961 . S
C673 H681 0.960 . S
C674 C672 1.381 . S
C674 C675 1.394 . S
C674 H682 0.930 . S
C675 C674 1.394 . S
C675 C676 1.383 . S
C675 H683 0.929 . S
C676 C675 1.383 . S
C676 C677 1.377 . S
C677 H661 0.930 . S
C677 C676 1.377 . S
C677 C678 1.379 . S
C678 H662 0.931 . S
C678 C672 1.383 . S
C678 C677 1.379 . S
H679 C673 0.959 . S
H680 C673 0.961 . S
H681 C673 0.960 . S
H682 C674 0.930 . S
H683 C675 0.929 . S
H684 C692 0.929 . S
H685 C694 0.930 . S
H686 C696 0.930 . S
H687 C699 0.929 . S
H688 C702 0.930 . S
H689 C704 0.960 . S
H690 C704 0.960 . S
H691 C704 0.960 . S
C692 H684 0.929 . S
C692 C693 1.377 . S
C692 C694 1.384 . S
C693 C692 1.377 . S
C693 C699 1.390 . S
C694 H685 0.930 . S
C694 C692 1.384 . S
C694 C695 1.372 . S
C695 C694 1.372 . S
C695 C696 1.400 . S
C695 C700 1.490 . S
C696 H686 0.930 . S
C696 C695 1.400 . S
C696 C699 1.386 . S
H697 C713 0.930 . S
H698 C714 0.931 . S
C699 H687 0.929 . S
C699 C693 1.390 . S
C699 C696 1.386 . S
C700 C695 1.490 . S
C700 C702 1.395 . S
C700 C703 1.403 . S
H701 C707 0.930 . S
C702 H688 0.930 . S
C702 C700 1.395 . S
C702 C705 1.403 . S
C703 C700 1.403 . S
C703 C704 1.524 . S
C703 C707 1.400 . S
C704 H689 0.960 . S
C704 H690 0.960 . S
C704 H691 0.960 . S
C704 C703 1.524 . S
C705 C702 1.403 . S
C705 C706 1.392 . S
C705 C709 1.495 . S
C706 C705 1.392 . S
C706 C707 1.385 . S
C706 C708 1.478 . S
C707 H701 0.930 . S
C707 C703 1.400 . S
C707 C706 1.385 . S
C708 C706 1.478 . S
C708 C710 1.381 . S
C708 C714 1.383 . S
C709 C705 1.495 . S
C709 H715 0.959 . S
C709 H716 0.961 . S
C709 H717 0.960 . S
C710 C708 1.381 . S
C710 C711 1.394 . S
C710 H718 0.930 . S
C711 C710 1.394 . S
C711 C712 1.383 . S
C711 H719 0.929 . S
C712 C711 1.383 . S
C712 C713 1.377 . S
C713 H697 0.930 . S
C713 C712 1.377 . S
C713 C714 1.379 . S
C714 H698 0.931 . S
C714 C708 1.383 . S
C714 C713 1.379 . S
H715 C709 0.959 . S
H716 C709 0.961 . S
H717 C709 0.960 . S
H718 C710 0.930 . S
H719 C711 0.929 . S
H720 C728 0.929 . S
H721 C730 0.930 . S
H722 C732 0.930 . S
H723 C735 0.929 . S
H724 C738 0.930 . S
H725 C740 0.960 . S
H726 C740 0.960 . S
H727 C740 0.960 . S
C728 H720 0.929 . S
C728 C729 1.377 . S
C728 C730 1.384 . S
C729 C728 1.377 . S
C729 C735 1.390 . S
C730 H721 0.930 . S
C730 C728 1.384 . S
C730 C731 1.372 . S
C731 C730 1.372 . S
C731 C732 1.400 . S
C731 C736 1.490 . S
C732 H722 0.930 . S
C732 C731 1.400 . S
C732 C735 1.386 . S
H733 C749 0.930 . S
H734 C750 0.931 . S
C735 H723 0.929 . S
C735 C729 1.390 . S
C735 C732 1.386 . S
C736 C731 1.490 . S
C736 C738 1.395 . S
C736 C739 1.403 . S
H737 C743 0.930 . S
C738 H724 0.930 . S
C738 C736 1.395 . S
C738 C741 1.403 . S
C739 C736 1.403 . S
C739 C740 1.524 . S
C739 C743 1.400 . S
C740 H725 0.960 . S
C740 H726 0.960 . S
C740 H727 0.960 . S
C740 C739 1.524 . S
C741 C738 1.403 . S
C741 C742 1.392 . S
C741 C745 1.495 . S
C742 C741 1.392 . S
C742 C743 1.385 . S
C742 C744 1.478 . S
C743 H737 0.930 . S
C743 C739 1.400 . S
C743 C742 1.385 . S
C744 C742 1.478 . S
C744 C746 1.381 . S
C744 C750 1.383 . S
C745 C741 1.495 . S
C745 H751 0.959 . S
C745 H752 0.961 . S
C745 H753 0.960 . S
C746 C744 1.381 . S
C746 C747 1.394 . S
C746 H754 0.930 . S
C747 C746 1.394 . S
C747 C748 1.383 . S
C747 H755 0.929 . S
C748 C747 1.383 . S
C748 C749 1.377 . S
C749 H733 0.930 . S
C749 C748 1.377 . S
C749 C750 1.379 . S
C750 H734 0.931 . S
C750 C744 1.383 . S
C750 C749 1.379 . S
H751 C745 0.959 . S
H752 C745 0.961 . S
H753 C745 0.960 . S
H754 C746 0.930 . S
H755 C747 0.929 . S
H756 C764 0.929 . S
H757 C766 0.930 . S
H758 C768 0.930 . S
H759 C771 0.929 . S
H760 C774 0.930 . S
H761 C776 0.960 . S
H762 C776 0.960 . S
H763 C776 0.960 . S
C764 H756 0.929 . S
C764 C765 1.377 . S
C764 C766 1.384 . S
C765 C764 1.377 . S
C765 C771 1.390 . S
C766 H757 0.930 . S
C766 C764 1.384 . S
C766 C767 1.372 . S
C767 C766 1.372 . S
C767 C768 1.400 . S
C767 C772 1.490 . S
C768 H758 0.930 . S
C768 C767 1.400 . S
C768 C771 1.386 . S
H769 C785 0.930 . S
H770 C786 0.931 . S
C771 H759 0.929 . S
C771 C765 1.390 . S
C771 C768 1.386 . S
C772 C767 1.490 . S
C772 C774 1.395 . S
C772 C775 1.403 . S
H773 C779 0.930 . S
C774 H760 0.930 . S
C774 C772 1.395 . S
C774 C777 1.403 . S
C775 C772 1.403 . S
C775 C776 1.524 . S
C775 C779 1.400 . S
C776 H761 0.960 . S
C776 H762 0.960 . S
C776 H763 0.960 . S
C776 C775 1.524 . S
C777 C774 1.403 . S
C777 C778 1.392 . S
C777 C781 1.495 . S
C778 C777 1.392 . S
C778 C779 1.385 . S
C778 C780 1.478 . S
C779 H773 0.930 . S
C779 C775 1.400 . S
C779 C778 1.385 . S
C780 C778 1.478 . S
C780 C782 1.381 . S
C780 C786 1.383 . S
C781 C777 1.495 . S
C781 H787 0.959 . S
C781 H788 0.961 . S
C781 H789 0.960 . S
C782 C780 1.381 . S
C782 C783 1.394 . S
C782 H790 0.930 . S
C783 C782 1.394 . S
C783 C784 1.383 . S
C783 H791 0.929 . S
C784 C783 1.383 . S
C784 C785 1.377 . S
C785 H769 0.930 . S
C785 C784 1.377 . S
C785 C786 1.379 . S
C786 H770 0.931 . S
C786 C780 1.383 . S
C786 C785 1.379 . S
H787 C781 0.959 . S
H788 C781 0.961 . S
H789 C781 0.960 . S
H790 C782 0.930 . S
H791 C783 0.929 . S
H792 C800 0.929 . S
H793 C802 0.930 . S
H794 C804 0.930 . S
H795 C807 0.929 . S
H796 C810 0.930 . S
H797 C812 0.960 . S
H798 C812 0.960 . S
H799 C812 0.960 . S
C800 H792 0.929 . S
C800 C801 1.377 . S
C800 C802 1.384 . S
C801 C800 1.377 . S
C801 C807 1.390 . S
C802 H793 0.930 . S
C802 C800 1.384 . S
C802 C803 1.372 . S
C803 C802 1.372 . S
C803 C804 1.400 . S
C803 C808 1.490 . S
C804 H794 0.930 . S
C804 C803 1.400 . S
C804 C807 1.386 . S
H805 C821 0.930 . S
H806 C822 0.931 . S
C807 H795 0.929 . S
C807 C801 1.390 . S
C807 C804 1.386 . S
C808 C803 1.490 . S
C808 C810 1.395 . S
C808 C811 1.403 . S
H809 C815 0.930 . S
C810 H796 0.930 . S
C810 C808 1.395 . S
C810 C813 1.403 . S
C811 C808 1.403 . S
C811 C812 1.524 . S
C811 C815 1.400 . S
C812 H797 0.960 . S
C812 H798 0.960 . S
C812 H799 0.960 . S
C812 C811 1.524 . S
C813 C810 1.403 . S
C813 C814 1.392 . S
C813 C817 1.495 . S
C814 C813 1.392 . S
C814 C815 1.385 . S
C814 C816 1.478 . S
C815 H809 0.930 . S
C815 C811 1.400 . S
C815 C814 1.385 . S
C816 C814 1.478 . S
C816 C818 1.381 . S
C816 C822 1.383 . S
C817 C813 1.495 . S
C817 H823 0.959 . S
C817 H824 0.961 . S
C817 H825 0.960 . S
C818 C816 1.381 . S
C818 C819 1.394 . S
C818 H826 0.930 . S
C819 C818 1.394 . S
C819 C820 1.383 . S
C819 H827 0.929 . S
C820 C819 1.383 . S
C820 C821 1.377 . S
C821 H805 0.930 . S
C821 C820 1.377 . S
C821 C822 1.379 . S
C822 H806 0.931 . S
C822 C816 1.383 . S
C822 C821 1.379 . S
H823 C817 0.959 . S
H824 C817 0.961 . S
H825 C817 0.960 . S
H826 C818 0.930 . S
H827 C819 0.929 . S
H828 C836 0.929 . S
H829 C838 0.930 . S
H830 C840 0.930 . S
H831 C843 0.929 . S
H832 C846 0.930 . S
H833 C848 0.960 . S
H834 C848 0.960 . S
H835 C848 0.960 . S
C836 H828 0.929 . S
C836 C837 1.377 . S
C836 C838 1.384 . S
C837 C836 1.377 . S
C837 C843 1.390 . S
C838 H829 0.930 . S
C838 C836 1.384 . S
C838 C839 1.372 . S
C839 C838 1.372 . S
C839 C840 1.400 . S
C839 C844 1.490 . S
C840 H830 0.930 . S
C840 C839 1.400 . S
C840 C843 1.386 . S
H841 C857 0.930 . S
H842 C858 0.931 . S
C843 H831 0.929 . S
C843 C837 1.390 . S
C843 C840 1.386 . S
C844 C839 1.490 . S
C844 C846 1.395 . S
C844 C847 1.403 . S
H845 C851 0.930 . S
C846 H832 0.930 . S
C846 C844 1.395 . S
C846 C849 1.403 . S
C847 C844 1.403 . S
C847 C848 1.524 . S
C847 C851 1.400 . S
C848 H833 0.960 . S
C848 H834 0.960 . S
C848 H835 0.960 . S
C848 C847 1.524 . S
C849 C846 1.403 . S
C849 C850 1.392 . S
C849 C853 1.495 . S
C850 C849 1.392 . S
C850 C851 1.385 . S
C850 C852 1.478 . S
C851 H845 0.930 . S
C851 C847 1.400 . S
C851 C850 1.385 . S
C852 C850 1.478 . S
C852 C854 1.381 . S
C852 C858 1.383 . S
C853 C849 1.495 . S
C853 H859 0.959 . S
C853 H860 0.961 . S
C853 H861 0.960 . S
C854 C852 1.381 . S
C854 C855 1.394 . S
C854 H862 0.930 . S
C855 C854 1.394 . S
C855 C856 1.383 . S
C855 H863 0.929 . S
C856 C855 1.383 . S
C856 C857 1.377 . S
C857 H841 0.930 . S
C857 C856 1.377 . S
C857 C858 1.379 . S
C858 H842 0.931 . S
C858 C852 1.383 . S
C858 C857 1.379 . S
H859 C853 0.959 . S
H860 C853 0.961 . S
H861 C853 0.960 . S
H862 C854 0.930 . S
H863 C855 0.929 . S
H864 C872 0.929 . S
H865 C874 0.930 . S
H866 C876 0.930 . S
H867 C879 0.929 . S
H868 C882 0.930 . S
H869 C884 0.960 . S
H870 C884 0.960 . S
H871 C884 0.960 . S
C872 H864 0.929 . S
C872 C873 1.377 . S
C872 C874 1.384 . S
C873 C872 1.377 . S
C873 C879 1.390 . S
C874 H865 0.930 . S
C874 C872 1.384 . S
C874 C875 1.372 . S
C875 C874 1.372 . S
C875 C876 1.400 . S
C875 C880 1.490 . S
C876 H866 0.930 . S
C876 C875 1.400 . S
C876 C879 1.386 . S
H877 C893 0.930 . S
H878 C894 0.931 . S
C879 H867 0.929 . S
C879 C873 1.390 . S
C879 C876 1.386 . S
C880 C875 1.490 . S
C880 C882 1.395 . S
C880 C883 1.403 . S
H881 C887 0.930 . S
C882 H868 0.930 . S
C882 C880 1.395 . S
C882 C885 1.403 . S
C883 C880 1.403 . S
C883 C884 1.524 . S
C883 C887 1.400 . S
C884 H869 0.960 . S
C884 H870 0.960 . S
C884 H871 0.960 . S
C884 C883 1.524 . S
C885 C882 1.403 . S
C885 C886 1.392 . S
C885 C889 1.495 . S
C886 C885 1.392 . S
C886 C887 1.385 . S
C886 C888 1.478 . S
C887 H881 0.930 . S
C887 C883 1.400 . S
C887 C886 1.385 . S
C888 C886 1.478 . S
C888 C890 1.381 . S
C888 C894 1.383 . S
C889 C885 1.495 . S
C889 H895 0.959 . S
C889 H896 0.961 . S
C889 H897 0.960 . S
C890 C888 1.381 . S
C890 C891 1.394 . S
C890 H898 0.930 . S
C891 C890 1.394 . S
C891 C892 1.383 . S
C891 H899 0.929 . S
C892 C891 1.383 . S
C892 C893 1.377 . S
C893 H877 0.930 . S
C893 C892 1.377 . S
C893 C894 1.379 . S
C894 H878 0.931 . S
C894 C888 1.383 . S
C894 C893 1.379 . S
H895 C889 0.959 . S
H896 C889 0.961 . S
H897 C889 0.960 . S
H898 C890 0.930 . S
H899 C891 0.929 . S
H900 C908 0.929 . S
H901 C910 0.930 . S
H902 C912 0.930 . S
H903 C915 0.929 . S
H904 C918 0.930 . S
H905 C920 0.960 . S
H906 C920 0.960 . S
H907 C920 0.960 . S
C908 H900 0.929 . S
C908 C909 1.377 . S
C908 C910 1.384 . S
C909 C908 1.377 . S
C909 C915 1.390 . S
C910 H901 0.930 . S
C910 C908 1.384 . S
C910 C911 1.372 . S
C911 C910 1.372 . S
C911 C912 1.400 . S
C911 C916 1.490 . S
C912 H902 0.930 . S
C912 C911 1.400 . S
C912 C915 1.386 . S
H913 C929 0.930 . S
H914 C930 0.931 . S
C915 H903 0.929 . S
C915 C909 1.390 . S
C915 C912 1.386 . S
C916 C911 1.490 . S
C916 C918 1.395 . S
C916 C919 1.403 . S
H917 C923 0.930 . S
C918 H904 0.930 . S
C918 C916 1.395 . S
C918 C921 1.403 . S
C919 C916 1.403 . S
C919 C920 1.524 . S
C919 C923 1.400 . S
C920 H905 0.960 . S
C920 H906 0.960 . S
C920 H907 0.960 . S
C920 C919 1.524 . S
C921 C918 1.403 . S
C921 C922 1.392 . S
C921 C925 1.495 . S
C922 C921 1.392 . S
C922 C923 1.385 . S
C922 C924 1.478 . S
C923 H917 0.930 . S
C923 C919 1.400 . S
C923 C922 1.385 . S
C924 C922 1.478 . S
C924 C926 1.381 . S
C924 C930 1.383 . S
C925 C921 1.495 . S
C925 H931 0.959 . S
C925 H932 0.961 . S
C925 H933 0.960 . S
C926 C924 1.381 . S
C926 C927 1.394 . S
C926 H934 0.930 . S
C927 C926 1.394 . S
C927 C928 1.383 . S
C927 H935 0.929 . S
C928 C927 1.383 . S
C928 C929 1.377 . S
C929 H913 0.930 . S
C929 C928 1.377 . S
C929 C930 1.379 . S
C930 H914 0.931 . S
C930 C924 1.383 . S
C930 C929 1.379 . S
H931 C925 0.959 . S
H932 C925 0.961 . S
H933 C925 0.960 . S
H934 C926 0.930 . S
H935 C927 0.929 . S
H936 C944 0.929 . S
H937 C946 0.930 . S
H938 C948 0.930 . S
H939 C951 0.929 . S
H940 C954 0.930 . S
H941 C956 0.960 . S
H942 C956 0.960 . S
H943 C956 0.960 . S
C944 H936 0.929 . S
C944 C945 1.377 . S
C944 C946 1.384 . S
C945 C944 1.377 . S
C945 C951 1.390 . S
C946 H937 0.930 . S
C946 C944 1.384 . S
C946 C947 1.372 . S
C947 C946 1.372 . S
C947 C948 1.400 . S
C947 C952 1.490 . S
C948 H938 0.930 . S
C948 C947 1.400 . S
C948 C951 1.386 . S
H949 C965 0.930 . S
H950 C966 0.931 . S
C951 H939 0.929 . S
C951 C945 1.390 . S
C951 C948 1.386 . S
C952 C947 1.490 . S
C952 C954 1.395 . S
C952 C955 1.403 . S
H953 C959 0.930 . S
C954 H940 0.930 . S
C954 C952 1.395 . S
C954 C957 1.403 . S
C955 C952 1.403 . S
C955 C956 1.524 . S
C955 C959 1.400 . S
C956 H941 0.960 . S
C956 H942 0.960 . S
C956 H943 0.960 . S
C956 C955 1.524 . S
C957 C954 1.403 . S
C957 C958 1.392 . S
C957 C961 1.495 . S
C958 C957 1.392 . S
C958 C959 1.385 . S
C958 C960 1.478 . S
C959 H953 0.930 . S
C959 C955 1.400 . S
C959 C958 1.385 . S
C960 C958 1.478 . S
C960 C962 1.381 . S
C960 C966 1.383 . S
C961 C957 1.495 . S
C961 H967 0.959 . S
C961 H968 0.961 . S
C961 H969 0.960 . S
C962 C960 1.381 . S
C962 C963 1.394 . S
C962 H970 0.930 . S
C963 C962 1.394 . S
C963 C964 1.383 . S
C963 H971 0.929 . S
C964 C963 1.383 . S
C964 C965 1.377 . S
C965 H949 0.930 . S
C965 C964 1.377 . S
C965 C966 1.379 . S
C966 H950 0.931 . S
C966 C960 1.383 . S
C966 C965 1.379 . S
H967 C961 0.959 . S
H968 C961 0.961 . S
H969 C961 0.960 . S
H970 C962 0.930 . S
H971 C963 0.929 . S
H972 C980 0.929 . S
H973 C982 0.930 . S
H974 C984 0.930 . S
H975 C987 0.929 . S
H976 C990 0.930 . S
H977 C992 0.960 . S
H978 C992 0.960 . S
H979 C992 0.960 . S
C980 H972 0.929 . S
C980 C981 1.377 . S
C980 C982 1.384 . S
C981 C980 1.377 . S
C981 C987 1.390 . S
C982 H973 0.930 . S
C982 C980 1.384 . S
C982 C983 1.372 . S
C983 C982 1.372 . S
C983 C984 1.400 . S
C983 C988 1.490 . S
C984 H974 0.930 . S
C984 C983 1.400 . S
C984 C987 1.386 . S
H985 C1001 0.930 . S
H986 C1002 0.931 . S
C987 H975 0.929 . S
C987 C981 1.390 . S
C987 C984 1.386 . S
C988 C983 1.490 . S
C988 C990 1.395 . S
C988 C991 1.403 . S
H989 C995 0.930 . S
C990 H976 0.930 . S
C990 C988 1.395 . S
C990 C993 1.403 . S
C991 C988 1.403 . S
C991 C992 1.524 . S
C991 C995 1.400 . S
C992 H977 0.960 . S
C992 H978 0.960 . S
C992 H979 0.960 . S
C992 C991 1.524 . S
C993 C990 1.403 . S
C993 C994 1.392 . S
C993 C997 1.495 . S
C994 C993 1.392 . S
C994 C995 1.385 . S
C994 C996 1.478 . S
C995 H989 0.930 . S
C995 C991 1.400 . S
C995 C994 1.385 . S
C996 C994 1.478 . S
C996 C998 1.381 . S
C996 C1002 1.383 . S
C997 C993 1.495 . S
C997 H1003 0.959 . S
C997 H1004 0.961 . S
C997 H1005 0.960 . S
C998 C996 1.381 . S
C998 C999 1.394 . S
C998 H1006 0.930 . S
C999 C998 1.394 . S
C999 C1000 1.383 . S
C999 H1007 0.929 . S
C1000 C999 1.383 . S
C1000 C1001 1.377 . S
C1001 H985 0.930 . S
C1001 C1000 1.377 . S
C1001 C1002 1.379 . S
C1002 H986 0.931 . S
C1002 C996 1.383 . S
C1002 C1001 1.379 . S
H1003 C997 0.959 . S
H1004 C997 0.961 . S
H1005 C997 0.960 . S
H1006 C998 0.930 . S
H1007 C999 0.929 . S
H1008 C1016 0.929 . S
H1009 C1018 0.930 . S
H1010 C1020 0.930 . S
H1011 C1023 0.929 . S
H1012 C1026 0.930 . S
H1013 C1028 0.960 . S
H1014 C1028 0.960 . S
H1015 C1028 0.960 . S
C1016 H1008 0.929 . S
C1016 C1017 1.377 . S
C1016 C1018 1.384 . S
C1017 C1016 1.377 . S
C1017 C1023 1.390 . S
C1018 H1009 0.930 . S
C1018 C1016 1.384 . S
C1018 C1019 1.372 . S
C1019 C1018 1.372 . S
C1019 C1020 1.400 . S
C1019 C1024 1.490 . S
C1020 H1010 0.930 . S
C1020 C1019 1.400 . S
C1020 C1023 1.386 . S
H1021 C1037 0.930 . S
H1022 C1038 0.931 . S
C1023 H1011 0.929 . S
C1023 C1017 1.390 . S
C1023 C1020 1.386 . S
C1024 C1019 1.490 . S
C1024 C1026 1.395 . S
C1024 C1027 1.403 . S
H1025 C1031 0.930 . S
C1026 H1012 0.930 . S
C1026 C1024 1.395 . S
C1026 C1029 1.403 . S
C1027 C1024 1.403 . S
C1027 C1028 1.524 . S
C1027 C1031 1.400 . S
C1028 H1013 0.960 . S
C1028 H1014 0.960 . S
C1028 H1015 0.960 . S
C1028 C1027 1.524 . S
C1029 C1026 1.403 . S
C1029 C1030 1.392 . S
C1029 C1033 1.495 . S
C1030 C1029 1.392 . S
C1030 C1031 1.385 . S
C1030 C1032 1.478 . S
C1031 H1025 0.930 . S
C1031 C1027 1.400 . S
C1031 C1030 1.385 . S
C1032 C1030 1.478 . S
C1032 C1034 1.381 . S
C1032 C1038 1.383 . S
C1033 C1029 1.495 . S
C1033 H1039 0.959 . S
C1033 H1040 0.961 . S
C1033 H1041 0.960 . S
C1034 C1032 1.381 . S
C1034 C1035 1.394 . S
C1034 H1042 0.930 . S
C1035 C1034 1.394 . S
C1035 C1036 1.383 . S
C1035 H1043 0.929 . S
C1036 C1035 1.383 . S
C1036 C1037 1.377 . S
C1037 H1021 0.930 . S
C1037 C1036 1.377 . S
C1037 C1038 1.379 . S
C1038 H1022 0.931 . S
C1038 C1032 1.383 . S
C1038 C1037 1.379 . S
H1039 C1033 0.959 . S
H1040 C1033 0.961 . S
H1041 C1033 0.960 . S
H1042 C1034 0.930 . S
H1043 C1035 0.929 . S
H1044 C1052 0.929 . S
H1045 C1054 0.930 . S
H1046 C1056 0.930 . S
H1047 C1059 0.929 . S
H1048 C1062 0.930 . S
H1049 C1064 0.960 . S
H1050 C1064 0.960 . S
H1051 C1064 0.960 . S
C1052 H1044 0.929 . S
C1052 C1053 1.377 . S
C1052 C1054 1.384 . S
C1053 C1052 1.377 . S
C1053 C1059 1.390 . S
C1054 H1045 0.930 . S
C1054 C1052 1.384 . S
C1054 C1055 1.372 . S
C1055 C1054 1.372 . S
C1055 C1056 1.400 . S
C1055 C1060 1.490 . S
C1056 H1046 0.930 . S
C1056 C1055 1.400 . S
C1056 C1059 1.386 . S
H1057 C1073 0.930 . S
H1058 C1074 0.931 . S
C1059 H1047 0.929 . S
C1059 C1053 1.390 . S
C1059 C1056 1.386 . S
C1060 C1055 1.490 . S
C1060 C1062 1.395 . S
C1060 C1063 1.403 . S
H1061 C1067 0.930 . S
C1062 H1048 0.930 . S
C1062 C1060 1.395 . S
C1062 C1065 1.403 . S
C1063 C1060 1.403 . S
C1063 C1064 1.524 . S
C1063 C1067 1.400 . S
C1064 H1049 0.960 . S
C1064 H1050 0.960 . S
C1064 H1051 0.960 . S
C1064 C1063 1.524 . S
C1065 C1062 1.403 . S
C1065 C1066 1.392 . S
C1065 C1069 1.495 . S
C1066 C1065 1.392 . S
C1066 C1067 1.385 . S
C1066 C1068 1.478 . S
C1067 H1061 0.930 . S
C1067 C1063 1.400 . S
C1067 C1066 1.385 . S
C1068 C1066 1.478 . S
C1068 C1070 1.381 . S
C1068 C1074 1.383 . S
C1069 C1065 1.495 . S
C1069 H1075 0.959 . S
C1069 H1076 0.961 . S
C1069 H1077 0.960 . S
C1070 C1068 1.381 . S
C1070 C1071 1.394 . S
C1070 H1078 0.930 . S
C1071 C1070 1.394 . S
C1071 C1072 1.383 . S
C1071 H1079 0.929 . S
C1072 C1071 1.383 . S
C1072 C1073 1.377 . S
C1073 H1057 0.930 . S
C1073 C1072 1.377 . S
C1073 C1074 1.379 . S
C1074 H1058 0.931 . S
C1074 C1068 1.383 . S
C1074 C1073 1.379 . S
H1075 C1069 0.959 . S
H1076 C1069 0.961 . S
H1077 C1069 0.960 . S
H1078 C1070 0.930 . S
H1079 C1071 0.929 . S
H1080 C1088 0.929 . S
H1081 C1090 0.930 . S
H1082 C1092 0.930 . S
H1083 C1095 0.929 . S
H1084 C1098 0.930 . S
H1085 C1100 0.960 . S
H1086 C1100 0.960 . S
H1087 C1100 0.960 . S
C1088 H1080 0.929 . S
C1088 C1089 1.377 . S
C1088 C1090 1.384 . S
C1089 C1088 1.377 . S
C1089 C1095 1.390 . S
C1090 H1081 0.930 . S
C1090 C1088 1.384 . S
C1090 C1091 1.372 . S
C1091 C1090 1.372 . S
C1091 C1092 1.400 . S
C1091 C1096 1.490 . S
C1092 H1082 0.930 . S
C1092 C1091 1.400 . S
C1092 C1095 1.386 . S
H1093 C1109 0.930 . S
H1094 C1110 0.931 . S
C1095 H1083 0.929 . S
C1095 C1089 1.390 . S
C1095 C1092 1.386 . S
C1096 C1091 1.490 . S
C1096 C1098 1.395 . S
C1096 C1099 1.403 . S
H1097 C1103 0.930 . S
C1098 H1084 0.930 . S
C1098 C1096 1.395 . S
C1098 C1101 1.403 . S
C1099 C1096 1.403 . S
C1099 C1100 1.524 . S
C1099 C1103 1.400 . S
C1100 H1085 0.960 . S
C1100 H1086 0.960 . S
C1100 H1087 0.960 . S
C1100 C1099 1.524 . S
C1101 C1098 1.403 . S
C1101 C1102 1.392 . S
C1101 C1105 1.495 . S
C1102 C1101 1.392 . S
C1102 C1103 1.385 . S
C1102 C1104 1.478 . S
C1103 H1097 0.930 . S
C1103 C1099 1.400 . S
C1103 C1102 1.385 . S
C1104 C1102 1.478 . S
C1104 C1106 1.381 . S
C1104 C1110 1.383 . S
C1105 C1101 1.495 . S
C1105 H1111 0.959 . S
C1105 H1112 0.961 . S
C1105 H1113 0.960 . S
C1106 C1104 1.381 . S
C1106 C1107 1.394 . S
C1106 H1114 0.930 . S
C1107 C1106 1.394 . S
C1107 C1108 1.383 . S
C1107 H1115 0.929 . S
C1108 C1107 1.383 . S
C1108 C1109 1.377 . S
C1109 H1093 0.930 . S
C1109 C1108 1.377 . S
C1109 C1110 1.379 . S
C1110 H1094 0.931 . S
C1110 C1104 1.383 . S
C1110 C1109 1.379 . S
H1111 C1105 0.959 . S
H1112 C1105 0.961 . S
H1113 C1105 0.960 . S
H1114 C1106 0.930 . S
H1115 C1107 0.929 . S
H1116 C1124 0.929 . S
H1117 C1126 0.930 . S
H1118 C1128 0.930 . S
H1119 C1131 0.929 . S
H1120 C1134 0.930 . S
H1121 C1136 0.960 . S
H1122 C1136 0.960 . S
H1123 C1136 0.960 . S
C1124 H1116 0.929 . S
C1124 C1125 1.377 . S
C1124 C1126 1.384 . S
C1125 C1124 1.377 . S
C1125 C1131 1.390 . S
C1126 H1117 0.930 . S
C1126 C1124 1.384 . S
C1126 C1127 1.372 . S
C1127 C1126 1.372 . S
C1127 C1128 1.400 . S
C1127 C1132 1.490 . S
C1128 H1118 0.930 . S
C1128 C1127 1.400 . S
C1128 C1131 1.386 . S
H1129 C1145 0.930 . S
H1130 C1146 0.931 . S
C1131 H1119 0.929 . S
C1131 C1125 1.390 . S
C1131 C1128 1.386 . S
C1132 C1127 1.490 . S
C1132 C1134 1.395 . S
C1132 C1135 1.403 . S
H1133 C1139 0.930 . S
C1134 H1120 0.930 . S
C1134 C1132 1.395 . S
C1134 C1137 1.403 . S
C1135 C1132 1.403 . S
C1135 C1136 1.524 . S
C1135 C1139 1.400 . S
C1136 H1121 0.960 . S
C1136 H1122 0.960 . S
C1136 H1123 0.960 . S
C1136 C1135 1.524 . S
C1137 C1134 1.403 . S
C1137 C1138 1.392 . S
C1137 C1141 1.495 . S
C1138 C1137 1.392 . S
C1138 C1139 1.385 . S
C1138 C1140 1.478 . S
C1139 H1133 0.930 . S
C1139 C1135 1.400 . S
C1139 C1138 1.385 . S
C1140 C1138 1.478 . S
C1140 C1142 1.381 . S
C1140 C1146 1.383 . S
C1141 C1137 1.495 . S
C1141 H1147 0.959 . S
C1141 H1148 0.961 . S
C1141 H1149 0.960 . S
C1142 C1140 1.381 . S
C1142 C1143 1.394 . S
C1142 H1150 0.930 . S
C1143 C1142 1.394 . S
C1143 C1144 1.383 . S
C1143 H1151 0.929 . S
C1144 C1143 1.383 . S
C1144 C1145 1.377 . S
C1145 H1129 0.930 . S
C1145 C1144 1.377 . S
C1145 C1146 1.379 . S
C1146 H1130 0.931 . S
C1146 C1140 1.383 . S
C1146 C1145 1.379 . S
H1147 C1141 0.959 . S
H1148 C1141 0.961 . S
H1149 C1141 0.960 . S
H1150 C1142 0.930 . S
H1151 C1143 0.929 . S
H1152 C1160 0.929 . S
H1153 C1162 0.930 . S
H1154 C1164 0.930 . S
H1155 C1167 0.929 . S
H1156 C1170 0.930 . S
H1157 C1172 0.960 . S
H1158 C1172 0.960 . S
H1159 C1172 0.960 . S
C1160 H1152 0.929 . S
C1160 C1161 1.377 . S
C1160 C1162 1.384 . S
C1161 C1160 1.377 . S
C1161 C1167 1.390 . S
C1162 H1153 0.930 . S
C1162 C1160 1.384 . S
C1162 C1163 1.372 . S
C1163 C1162 1.372 . S
C1163 C1164 1.400 . S
C1163 C1168 1.490 . S
C1164 H1154 0.930 . S
C1164 C1163 1.400 . S
C1164 C1167 1.386 . S
H1165 C1181 0.930 . S
H1166 C1182 0.931 . S
C1167 H1155 0.929 . S
C1167 C1161 1.390 . S
C1167 C1164 1.386 . S
C1168 C1163 1.490 . S
C1168 C1170 1.395 . S
C1168 C1171 1.403 . S
H1169 C1175 0.930 . S
C1170 H1156 0.930 . S
C1170 C1168 1.395 . S
C1170 C1173 1.403 . S
C1171 C1168 1.403 . S
C1171 C1172 1.524 . S
C1171 C1175 1.400 . S
C1172 H1157 0.960 . S
C1172 H1158 0.960 . S
C1172 H1159 0.960 . S
C1172 C1171 1.524 . S
C1173 C1170 1.403 . S
C1173 C1174 1.392 . S
C1173 C1177 1.495 . S
C1174 C1173 1.392 . S
C1174 C1175 1.385 . S
C1174 C1176 1.478 . S
C1175 H1169 0.930 . S
C1175 C1171 1.400 . S
C1175 C1174 1.385 . S
C1176 C1174 1.478 . S
C1176 C1178 1.381 . S
C1176 C1182 1.383 . S
C1177 C1173 1.495 . S
C1177 H1183 0.959 . S
C1177 H1184 0.961 . S
C1177 H1185 0.960 . S
C1178 C1176 1.381 . S
C1178 C1179 1.394 . S
C1178 H1186 0.930 . S
C1179 C1178 1.394 . S
C1179 C1180 1.383 . S
C1179 H1187 0.929 . S
C1180 C1179 1.383 . S
C1180 C1181 1.377 . S
C1181 H1165 0.930 . S
C1181 C1180 1.377 . S
C1181 C1182 1.379 . S
C1182 H1166 0.931 . S
C1182 C1176 1.383 . S
C1182 C1181 1.379 . S
H1183 C1177 0.959 . S
H1184 C1177 0.961 . S
H1185 C1177 0.960 . S
H1186 C1178 0.930 . S
H1187 C1179 0.929 . S
H1188 C1196 0.929 . S
H1189 C1198 0.930 . S
H1190 C1200 0.930 . S
H1191 C1203 0.929 . S
H1192 C1206 0.930 . S
H1193 C1208 0.960 . S
H1194 C1208 0.960 . S
H1195 C1208 0.960 . S
C1196 H1188 0.929 . S
C1196 C1197 1.377 . S
C1196 C1198 1.384 . S
C1197 C1196 1.377 . S
C1197 C1203 1.390 . S
C1198 H1189 0.930 . S
C1198 C1196 1.384 . S
C1198 C1199 1.372 . S
C1199 C1198 1.372 . S
C1199 C1200 1.400 . S
C1199 C1204 1.490 . S
C1200 H1190 0.930 . S
C1200 C1199 1.400 . S
C1200 C1203 1.386 . S
H1201 C1217 0.930 . S
H1202 C1218 0.931 . S
C1203 H1191 0.929 . S
C1203 C1197 1.390 . S
C1203 C1200 1.386 . S
C1204 C1199 1.490 . S
C1204 C1206 1.395 . S
C1204 C1207 1.403 . S
H1205 C1211 0.930 . S
C1206 H1192 0.930 . S
C1206 C1204 1.395 . S
C1206 C1209 1.403 . S
C1207 C1204 1.403 . S
C1207 C1208 1.524 . S
C1207 C1211 1.400 . S
C1208 H1193 0.960 . S
C1208 H1194 0.960 . S
C1208 H1195 0.960 . S
C1208 C1207 1.524 . S
C1209 C1206 1.403 . S
C1209 C1210 1.392 . S
C1209 C1213 1.495 . S
C1210 C1209 1.392 . S
C1210 C1211 1.385 . S
C1210 C1212 1.478 . S
C1211 H1205 0.930 . S
C1211 C1207 1.400 . S
C1211 C1210 1.385 . S
C1212 C1210 1.478 . S
C1212 C1214 1.381 . S
C1212 C1218 1.383 . S
C1213 C1209 1.495 . S
C1213 H1219 0.959 . S
C1213 H1220 0.961 . S
C1213 H1221 0.960 . S
C1214 C1212 1.381 . S
C1214 C1215 1.394 . S
C1214 H1222 0.930 . S
C1215 C1214 1.394 . S
C1215 C1216 1.383 . S
C1215 H1223 0.929 . S
C1216 C1215 1.383 . S
C1216 C1217 1.377 . S
C1217 H1201 0.930 . S
C1217 C1216 1.377 . S
C1217 C1218 1.379 . S
C1218 H1202 0.931 . S
C1218 C1212 1.383 . S
C1218 C1217 1.379 . S
H1219 C1213 0.959 . S
H1220 C1213 0.961 . S
H1221 C1213 0.960 . S
H1222 C1214 0.930 . S
H1223 C1215 0.929 . S
H1224 C1232 0.929 . S
H1225 C1234 0.930 . S
H1226 C1236 0.930 . S
H1227 C1239 0.929 . S
H1228 C1242 0.930 . S
H1229 C1244 0.960 . S
H1230 C1244 0.960 . S
H1231 C1244 0.960 . S
C1232 H1224 0.929 . S
C1232 C1233 1.377 . S
C1232 C1234 1.384 . S
C1233 C1232 1.377 . S
C1233 C1239 1.390 . S
C1234 H1225 0.930 . S
C1234 C1232 1.384 . S
C1234 C1235 1.372 . S
C1235 C1234 1.372 . S
C1235 C1236 1.400 . S
C1235 C1240 1.490 . S
C1236 H1226 0.930 . S
C1236 C1235 1.400 . S
C1236 C1239 1.386 . S
H1237 C1253 0.930 . S
H1238 C1254 0.931 . S
C1239 H1227 0.929 . S
C1239 C1233 1.390 . S
C1239 C1236 1.386 . S
C1240 C1235 1.490 . S
C1240 C1242 1.395 . S
C1240 C1243 1.403 . S
H1241 C1247 0.930 . S
C1242 H1228 0.930 . S
C1242 C1240 1.395 . S
C1242 C1245 1.403 . S
C1243 C1240 1.403 . S
C1243 C1244 1.524 . S
C1243 C1247 1.400 . S
C1244 H1229 0.960 . S
C1244 H1230 0.960 . S
C1244 H1231 0.960 . S
C1244 C1243 1.524 . S
C1245 C1242 1.403 . S
C1245 C1246 1.392 . S
C1245 C1249 1.495 . S
C1246 C1245 1.392 . S
C1246 C1247 1.385 . S
C1246 C1248 1.478 . S
C1247 H1241 0.930 . S
C1247 C1243 1.400 . S
C1247 C1246 1.385 . S
C1248 C1246 1.478 . S
C1248 C1250 1.381 . S
C1248 C1254 1.383 . S
C1249 C1245 1.495 . S
C1249 H1255 0.959 . S
C1249 H1256 0.961 . S
C1249 H1257 0.960 . S
C1250 C1248 1.381 . S
C1250 C1251 1.394 . S
C1250 H1258 0.930 . S
C1251 C1250 1.394 . S
C1251 C1252 1.383 . S
C1251 H1259 0.929 . S
C1252 C1251 1.383 . S
C1252 C1253 1.377 . S
C1253 H1237 0.930 . S
C1253 C1252 1.377 . S
C1253 C1254 1.379 . S
C1254 H1238 0.931 . S
C1254 C1248 1.383 . S
C1254 C1253 1.379 . S
H1255 C1249 0.959 . S
H1256 C1249 0.961 . S
H1257 C1249 0.960 . S
H1258 C1250 0.930 . S
H1259 C1251 0.929 . S
H1260 C1268 0.929 . S
H1261 C1270 0.930 . S
H1262 C1272 0.930 . S
H1263 C1275 0.929 . S
H1264 C1278 0.930 . S
H1265 C1280 0.960 . S
H1266 C1280 0.960 . S
H1267 C1280 0.960 . S
C1268 H1260 0.929 . S
C1268 C1269 1.377 . S
C1268 C1270 1.384 . S
C1269 C1268 1.377 . S
C1269 C1275 1.390 . S
C1270 H1261 0.930 . S
C1270 C1268 1.384 . S
C1270 C1271 1.372 . S
C1271 C1270 1.372 . S
C1271 C1272 1.400 . S
C1271 C1276 1.490 . S
C1272 H1262 0.930 . S
C1272 C1271 1.400 . S
C1272 C1275 1.386 . S
H1273 C1289 0.930 . S
H1274 C1290 0.931 . S
C1275 H1263 0.929 . S
C1275 C1269 1.390 . S
C1275 C1272 1.386 . S
C1276 C1271 1.490 . S
C1276 C1278 1.395 . S
C1276 C1279 1.403 . S
H1277 C1283 0.930 . S
C1278 H1264 0.930 . S
C1278 C1276 1.395 . S
C1278 C1281 1.403 . S
C1279 C1276 1.403 . S
C1279 C1280 1.524 . S
C1279 C1283 1.400 . S
C1280 H1265 0.960 . S
C1280 H1266 0.960 . S
C1280 H1267 0.960 . S
C1280 C1279 1.524 . S
C1281 C1278 1.403 . S
C1281 C1282 1.392 . S
C1281 C1285 1.495 . S
C1282 C1281 1.392 . S
C1282 C1283 1.385 . S
C1282 C1284 1.478 . S
C1283 H1277 0.930 . S
C1283 C1279 1.400 . S
C1283 C1282 1.385 . S
C1284 C1282 1.478 . S
C1284 C1286 1.381 . S
C1284 C1290 1.383 . S
C1285 C1281 1.495 . S
C1285 H1291 0.959 . S
C1285 H1292 0.961 . S
C1285 H1293 0.960 . S
C1286 C1284 1.381 . S
C1286 C1287 1.394 . S
C1286 H1294 0.930 . S
C1287 C1286 1.394 . S
C1287 C1288 1.383 . S
C1287 H1295 0.929 . S
C1288 C1287 1.383 . S
C1288 C1289 1.377 . S
C1289 H1273 0.930 . S
C1289 C1288 1.377 . S
C1289 C1290 1.379 . S
C1290 H1274 0.931 . S
C1290 C1284 1.383 . S
C1290 C1289 1.379 . S
H1291 C1285 0.959 . S
H1292 C1285 0.961 . S
H1293 C1285 0.960 . S
H1294 C1286 0.930 . S
H1295 C1287 0.929 . S
H1296 C1304 0.929 . S
H1297 C1306 0.930 . S
H1298 C1308 0.930 . S
H1299 C1311 0.929 . S
H1300 C1314 0.930 . S
H1301 C1316 0.960 . S
H1302 C1316 0.960 . S
H1303 C1316 0.960 . S
C1304 H1296 0.929 . S
C1304 C1305 1.377 . S
C1304 C1306 1.384 . S
C1305 C1304 1.377 . S
C1305 C1311 1.390 . S
C1306 H1297 0.930 . S
C1306 C1304 1.384 . S
C1306 C1307 1.372 . S
C1307 C1306 1.372 . S
C1307 C1308 1.400 . S
C1307 C1312 1.490 . S
C1308 H1298 0.930 . S
C1308 C1307 1.400 . S
C1308 C1311 1.386 . S
H1309 C1325 0.930 . S
H1310 C1326 0.931 . S
C1311 H1299 0.929 . S
C1311 C1305 1.390 . S
C1311 C1308 1.386 . S
C1312 C1307 1.490 . S
C1312 C1314 1.395 . S
C1312 C1315 1.403 . S
H1313 C1319 0.930 . S
C1314 H1300 0.930 . S
C1314 C1312 1.395 . S
C1314 C1317 1.403 . S
C1315 C1312 1.403 . S
C1315 C1316 1.524 . S
C1315 C1319 1.400 . S
C1316 H1301 0.960 . S
C1316 H1302 0.960 . S
C1316 H1303 0.960 . S
C1316 C1315 1.524 . S
C1317 C1314 1.403 . S
C1317 C1318 1.392 . S
C1317 C1321 1.495 . S
C1318 C1317 1.392 . S
C1318 C1319 1.385 . S
C1318 C1320 1.478 . S
C1319 H1313 0.930 . S
C1319 C1315 1.400 . S
C1319 C1318 1.385 . S
C1320 C1318 1.478 . S
C1320 C1322 1.381 . S
C1320 C1326 1.383 . S
C1321 C1317 1.495 . S
C1321 H1327 0.959 . S
C1321 H1328 0.961 . S
C1321 H1329 0.960 . S
C1322 C1320 1.381 . S
C1322 C1323 1.394 . S
C1322 H1330 0.930 . S
C1323 C1322 1.394 . S
C1323 C1324 1.383 . S
C1323 H1331 0.929 . S
C1324 C1323 1.383 . S
C1324 C1325 1.377 . S
C1325 H1309 0.930 . S
C1325 C1324 1.377 . S
C1325 C1326 1.379 . S
C1326 H1310 0.931 . S
C1326 C1320 1.383 . S
C1326 C1325 1.379 . S
H1327 C1321 0.959 . S
H1328 C1321 0.961 . S
H1329 C1321 0.960 . S
H1330 C1322 0.930 . S
H1331 C1323 0.929 . S
H1332 C1340 0.929 . S
H1333 C1342 0.930 . S
H1334 C1344 0.930 . S
H1335 C1347 0.929 . S
H1336 C1350 0.930 . S
H1337 C1352 0.960 . S
H1338 C1352 0.960 . S
H1339 C1352 0.960 . S
C1340 H1332 0.929 . S
C1340 C1341 1.377 . S
C1340 C1342 1.384 . S
C1341 C1340 1.377 . S
C1341 C1347 1.390 . S
C1342 H1333 0.930 . S
C1342 C1340 1.384 . S
C1342 C1343 1.372 . S
C1343 C1342 1.372 . S
C1343 C1344 1.400 . S
C1343 C1348 1.490 . S
C1344 H1334 0.930 . S
C1344 C1343 1.400 . S
C1344 C1347 1.386 . S
H1345 C1361 0.930 . S
H1346 C1362 0.931 . S
C1347 H1335 0.929 . S
C1347 C1341 1.390 . S
C1347 C1344 1.386 . S
C1348 C1343 1.490 . S
C1348 C1350 1.395 . S
C1348 C1351 1.403 . S
H1349 C1355 0.930 . S
C1350 H1336 0.930 . S
C1350 C1348 1.395 . S
C1350 C1353 1.403 . S
C1351 C1348 1.403 . S
C1351 C1352 1.524 . S
C1351 C1355 1.400 . S
C1352 H1337 0.960 . S
C1352 H1338 0.960 . S
C1352 H1339 0.960 . S
C1352 C1351 1.524 . S
C1353 C1350 1.403 . S
C1353 C1354 1.392 . S
C1353 C1357 1.495 . S
C1354 C1353 1.392 . S
C1354 C1355 1.385 . S
C1354 C1356 1.478 . S
C1355 H1349 0.930 . S
C1355 C1351 1.400 . S
C1355 C1354 1.385 . S
C1356 C1354 1.478 . S
C1356 C1358 1.381 . S
C1356 C1362 1.383 . S
C1357 C1353 1.495 . S
C1357 H1363 0.959 . S
C1357 H1364 0.961 . S
C1357 H1365 0.960 . S
C1358 C1356 1.381 . S
C1358 C1359 1.394 . S
C1358 H1366 0.930 . S
C1359 C1358 1.394 . S
C1359 C1360 1.383 . S
C1359 H1367 0.929 . S
C1360 C1359 1.383 . S
C1360 C1361 1.377 . S
C1361 H1345 0.930 . S
C1361 C1360 1.377 . S
C1361 C1362 1.379 . S
C1362 H1346 0.931 . S
C1362 C1356 1.383 . S
C1362 C1361 1.379 . S
H1363 C1357 0.959 . S
H1364 C1357 0.961 . S
H1365 C1357 0.960 . S
H1366 C1358 0.930 . S
H1367 C1359 0.929 . S
H1368 C1376 0.929 . S
H1369 C1378 0.930 . S
H1370 C1380 0.930 . S
H1371 C1383 0.929 . S
H1372 C1386 0.930 . S
H1373 C1388 0.960 . S
H1374 C1388 0.960 . S
H1375 C1388 0.960 . S
C1376 H1368 0.929 . S
C1376 C1377 1.377 . S
C1376 C1378 1.384 . S
C1377 C1376 1.377 . S
C1377 C1383 1.390 . S
C1378 H1369 0.930 . S
C1378 C1376 1.384 . S
C1378 C1379 1.372 . S
C1379 C1378 1.372 . S
C1379 C1380 1.400 . S
C1379 C1384 1.490 . S
C1380 H1370 0.930 . S
C1380 C1379 1.400 . S
C1380 C1383 1.386 . S
H1381 C1397 0.930 . S
H1382 C1398 0.931 . S
C1383 H1371 0.929 . S
C1383 C1377 1.390 . S
C1383 C1380 1.386 . S
C1384 C1379 1.490 . S
C1384 C1386 1.395 . S
C1384 C1387 1.403 . S
H1385 C1391 0.930 . S
C1386 H1372 0.930 . S
C1386 C1384 1.395 . S
C1386 C1389 1.403 . S
C1387 C1384 1.403 . S
C1387 C1388 1.524 . S
C1387 C1391 1.400 . S
C1388 H1373 0.960 . S
C1388 H1374 0.960 . S
C1388 H1375 0.960 . S
C1388 C1387 1.524 . S
C1389 C1386 1.403 . S
C1389 C1390 1.392 . S
C1389 C1393 1.495 . S
C1390 C1389 1.392 . S
C1390 C1391 1.385 . S
C1390 C1392 1.478 . S
C1391 H1385 0.930 . S
C1391 C1387 1.400 . S
C1391 C1390 1.385 . S
C1392 C1390 1.478 . S
C1392 C1394 1.381 . S
C1392 C1398 1.383 . S
C1393 C1389 1.495 . S
C1393 H1399 0.959 . S
C1393 H1400 0.961 . S
C1393 H1401 0.960 . S
C1394 C1392 1.381 . S
C1394 C1395 1.394 . S
C1394 H1402 0.930 . S
C1395 C1394 1.394 . S
C1395 C1396 1.383 . S
C1395 H1403 0.929 . S
C1396 C1395 1.383 . S
C1396 C1397 1.377 . S
C1397 H1381 0.930 . S
C1397 C1396 1.377 . S
C1397 C1398 1.379 . S
C1398 H1382 0.931 . S
C1398 C1392 1.383 . S
C1398 C1397 1.379 . S
H1399 C1393 0.959 . S
H1400 C1393 0.961 . S
H1401 C1393 0.960 . S
H1402 C1394 0.930 . S
H1403 C1395 0.929 . S
H1404 C1412 0.929 . S
H1405 C1414 0.930 . S
H1406 C1416 0.930 . S
H1407 C1419 0.929 . S
H1408 C1422 0.930 . S
H1409 C1424 0.960 . S
H1410 C1424 0.960 . S
H1411 C1424 0.960 . S
C1412 H1404 0.929 . S
C1412 C1413 1.377 . S
C1412 C1414 1.384 . S
C1413 C1412 1.377 . S
C1413 C1419 1.390 . S
C1414 H1405 0.930 . S
C1414 C1412 1.384 . S
C1414 C1415 1.372 . S
C1415 C1414 1.372 . S
C1415 C1416 1.400 . S
C1415 C1420 1.490 . S
C1416 H1406 0.930 . S
C1416 C1415 1.400 . S
C1416 C1419 1.386 . S
H1417 C1433 0.930 . S
H1418 C1434 0.931 . S
C1419 H1407 0.929 . S
C1419 C1413 1.390 . S
C1419 C1416 1.386 . S
C1420 C1415 1.490 . S
C1420 C1422 1.395 . S
C1420 C1423 1.403 . S
H1421 C1427 0.930 . S
C1422 H1408 0.930 . S
C1422 C1420 1.395 . S
C1422 C1425 1.403 . S
C1423 C1420 1.403 . S
C1423 C1424 1.524 . S
C1423 C1427 1.400 . S
C1424 H1409 0.960 . S
C1424 H1410 0.960 . S
C1424 H1411 0.960 . S
C1424 C1423 1.524 . S
C1425 C1422 1.403 . S
C1425 C1426 1.392 . S
C1425 C1429 1.495 . S
C1426 C1425 1.392 . S
C1426 C1427 1.385 . S
C1426 C1428 1.478 . S
C1427 H1421 0.930 . S
C1427 C1423 1.400 . S
C1427 C1426 1.385 . S
C1428 C1426 1.478 . S
C1428 C1430 1.381 . S
C1428 C1434 1.383 . S
C1429 C1425 1.495 . S
C1429 H1435 0.959 . S
C1429 H1436 0.961 . S
C1429 H1437 0.960 . S
C1430 C1428 1.381 . S
C1430 C1431 1.394 . S
C1430 H1438 0.930 . S
C1431 C1430 1.394 . S
C1431 C1432 1.383 . S
C1431 H1439 0.929 . S
C1432 C1431 1.383 . S
C1432 C1433 1.377 . S
C1433 H1417 0.930 . S
C1433 C1432 1.377 . S
C1433 C1434 1.379 . S
C1434 H1418 0.931 . S
C1434 C1428 1.383 . S
C1434 C1433 1.379 . S
H1435 C1429 0.959 . S
H1436 C1429 0.961 . S
H1437 C1429 0.960 . S
H1438 C1430 0.930 . S
H1439 C1431 0.929 . S
H1440 C1448 0.929 . S
H1441 C1450 0.930 . S
H1442 C1452 0.930 . S
H1443 C1455 0.929 . S
H1444 C1458 0.930 . S
H1445 C1460 0.960 . S
H1446 C1460 0.960 . S
H1447 C1460 0.960 . S
C1448 H1440 0.929 . S
C1448 C1449 1.377 . S
C1448 C1450 1.384 . S
C1449 C1448 1.377 . S
C1449 C1455 1.390 . S
C1450 H1441 0.930 . S
C1450 C1448 1.384 . S
C1450 C1451 1.372 . S
C1451 C1450 1.372 . S
C1451 C1452 1.400 . S
C1451 C1456 1.490 . S
C1452 H1442 0.930 . S
C1452 C1451 1.400 . S
C1452 C1455 1.386 . S
H1453 C1469 0.930 . S
H1454 C1470 0.931 . S
C1455 H1443 0.929 . S
C1455 C1449 1.390 . S
C1455 C1452 1.386 . S
C1456 C1451 1.490 . S
C1456 C1458 1.395 . S
C1456 C1459 1.403 . S
H1457 C1463 0.930 . S
C1458 H1444 0.930 . S
C1458 C1456 1.395 . S
C1458 C1461 1.403 . S
C1459 C1456 1.403 . S
C1459 C1460 1.524 . S
C1459 C1463 1.400 . S
C1460 H1445 0.960 . S
C1460 H1446 0.960 . S
C1460 H1447 0.960 . S
C1460 C1459 1.524 . S
C1461 C1458 1.403 . S
C1461 C1462 1.392 . S
C1461 C1465 1.495 . S
C1462 C1461 1.392 . S
C1462 C1463 1.385 . S
C1462 C1464 1.478 . S
C1463 H1457 0.930 . S
C1463 C1459 1.400 . S
C1463 C1462 1.385 . S
C1464 C1462 1.478 . S
C1464 C1466 1.381 . S
C1464 C1470 1.383 . S
C1465 C1461 1.495 . S
C1465 H1471 0.959 . S
C1465 H1472 0.961 . S
C1465 H1473 0.960 . S
C1466 C1464 1.381 . S
C1466 C1467 1.394 . S
C1466 H1474 0.930 . S
C1467 C1466 1.394 . S
C1467 C1468 1.383 . S
C1467 H1475 0.929 . S
C1468 C1467 1.383 . S
C1468 C1469 1.377 . S
C1469 H1453 0.930 . S
C1469 C1468 1.377 . S
C1469 C1470 1.379 . S
C1470 H1454 0.931 . S
C1470 C1464 1.383 . S
C1470 C1469 1.379 . S
H1471 C1465 0.959 . S
H1472 C1465 0.961 . S
H1473 C1465 0.960 . S
H1474 C1466 0.930 . S
H1475 C1467 0.929 . S
H1476 C1484 0.929 . S
H1477 C1486 0.930 . S
H1478 C1488 0.930 . S
H1479 C1491 0.929 . S
H1480 C1494 0.930 . S
H1481 C1496 0.960 . S
H1482 C1496 0.960 . S
H1483 C1496 0.960 . S
C1484 H1476 0.929 . S
C1484 C1485 1.377 . S
C1484 C1486 1.384 . S
C1485 C1484 1.377 . S
C1485 C1491 1.390 . S
C1486 H1477 0.930 . S
C1486 C1484 1.384 . S
C1486 C1487 1.372 . S
C1487 C1486 1.372 . S
C1487 C1488 1.400 . S
C1487 C1492 1.490 . S
C1488 H1478 0.930 . S
C1488 C1487 1.400 . S
C1488 C1491 1.386 . S
H1489 C1505 0.930 . S
H1490 C1506 0.931 . S
C1491 H1479 0.929 . S
C1491 C1485 1.390 . S
C1491 C1488 1.386 . S
C1492 C1487 1.490 . S
C1492 C1494 1.395 . S
C1492 C1495 1.403 . S
H1493 C1499 0.930 . S
C1494 H1480 0.930 . S
C1494 C1492 1.395 . S
C1494 C1497 1.403 . S
C1495 C1492 1.403 . S
C1495 C1496 1.524 . S
C1495 C1499 1.400 . S
C1496 H1481 0.960 . S
C1496 H1482 0.960 . S
C1496 H1483 0.960 . S
C1496 C1495 1.524 . S
C1497 C1494 1.403 . S
C1497 C1498 1.392 . S
C1497 C1501 1.495 . S
C1498 C1497 1.392 . S
C1498 C1499 1.385 . S
C1498 C1500 1.478 . S
C1499 H1493 0.930 . S
C1499 C1495 1.400 . S
C1499 C1498 1.385 . S
C1500 C1498 1.478 . S
C1500 C1502 1.381 . S
C1500 C1506 1.383 . S
C1501 C1497 1.495 . S
C1501 H1507 0.959 . S
C1501 H1508 0.961 . S
C1501 H1509 0.960 . S
C1502 C1500 1.381 . S
C1502 C1503 1.394 . S
C1502 H1510 0.930 . S
C1503 C1502 1.394 . S
C1503 C1504 1.383 . S
C1503 H1511 0.929 . S
C1504 C1503 1.383 . S
C1504 C1505 1.377 . S
C1505 H1489 0.930 . S
C1505 C1504 1.377 . S
C1505 C1506 1.379 . S
C1506 H1490 0.931 . S
C1506 C1500 1.383 . S
C1506 C1505 1.379 . S
H1507 C1501 0.959 . S
H1508 C1501 0.961 . S
H1509 C1501 0.960 . S
H1510 C1502 0.930 . S
H1511 C1503 0.929 . S
H1512 C1520 0.929 . S
H1513 C1522 0.930 . S
H1514 C1524 0.930 . S
H1515 C1527 0.929 . S
H1516 C1530 0.930 . S
H1517 C1532 0.960 . S
H1518 C1532 0.960 . S
H1519 C1532 0.960 . S
C1520 H1512 0.929 . S
C1520 C1521 1.377 . S
C1520 C1522 1.384 . S
C1521 C1520 1.377 . S
C1521 C1527 1.390 . S
C1522 H1513 0.930 . S
C1522 C1520 1.384 . S
C1522 C1523 1.372 . S
C1523 C1522 1.372 . S
C1523 C1524 1.400 . S
C1523 C1528 1.490 . S
C1524 H1514 0.930 . S
C1524 C1523 1.400 . S
C1524 C1527 1.386 . S
H1525 C1541 0.930 . S
H1526 C1542 0.931 . S
C1527 H1515 0.929 . S
C1527 C1521 1.390 . S
C1527 C1524 1.386 . S
C1528 C1523 1.490 . S
C1528 C1530 1.395 . S
C1528 C1531 1.403 . S
H1529 C1535 0.930 . S
C1530 H1516 0.930 . S
C1530 C1528 1.395 . S
C1530 C1533 1.403 . S
C1531 C1528 1.403 . S
C1531 C1532 1.524 . S
C1531 C1535 1.400 . S
C1532 H1517 0.960 . S
C1532 H1518 0.960 . S
C1532 H1519 0.960 . S
C1532 C1531 1.524 . S
C1533 C1530 1.403 . S
C1533 C1534 1.392 . S
C1533 C1537 1.495 . S
C1534 C1533 1.392 . S
C1534 C1535 1.385 . S
C1534 C1536 1.478 . S
C1535 H1529 0.930 . S
C1535 C1531 1.400 . S
C1535 C1534 1.385 . S
C1536 C1534 1.478 . S
C1536 C1538 1.381 . S
C1536 C1542 1.383 . S
C1537 C1533 1.495 . S
C1537 H1543 0.959 . S
C1537 H1544 0.961 . S
C1537 H1545 0.960 . S
C1538 C1536 1.381 . S
C1538 C1539 1.394 . S
C1538 H1546 0.930 . S
C1539 C1538 1.394 . S
C1539 C1540 1.383 . S
C1539 H1547 0.929 . S
C1540 C1539 1.383 . S
C1540 C1541 1.377 . S
C1541 H1525 0.930 . S
C1541 C1540 1.377 . S
C1541 C1542 1.379 . S
C1542 H1526 0.931 . S
C1542 C1536 1.383 . S
C1542 C1541 1.379 . S
H1543 C1537 0.959 . S
H1544 C1537 0.961 . S
H1545 C1537 0.960 . S
H1546 C1538 0.930 . S
H1547 C1539 0.929 . S
H1548 C1556 0.929 . S
H1549 C1558 0.930 . S
H1550 C1560 0.930 . S
H1551 C1563 0.929 . S
H1552 C1566 0.930 . S
H1553 C1568 0.960 . S
H1554 C1568 0.960 . S
H1555 C1568 0.960 . S
C1556 H1548 0.929 . S
C1556 C1557 1.377 . S
C1556 C1558 1.384 . S
C1557 C1556 1.377 . S
C1557 C1563 1.390 . S
C1558 H1549 0.930 . S
C1558 C1556 1.384 . S
C1558 C1559 1.372 . S
C1559 C1558 1.372 . S
C1559 C1560 1.400 . S
C1559 C1564 1.490 . S
C1560 H1550 0.930 . S
C1560 C1559 1.400 . S
C1560 C1563 1.386 . S
H1561 C1577 0.930 . S
H1562 C1578 0.931 . S
C1563 H1551 0.929 . S
C1563 C1557 1.390 . S
C1563 C1560 1.386 . S
C1564 C1559 1.490 . S
C1564 C1566 1.395 . S
C1564 C1567 1.403 . S
H1565 C1571 0.930 . S
C1566 H1552 0.930 . S
C1566 C1564 1.395 . S
C1566 C1569 1.403 . S
C1567 C1564 1.403 . S
C1567 C1568 1.524 . S
C1567 C1571 1.400 . S
C1568 H1553 0.960 . S
C1568 H1554 0.960 . S
C1568 H1555 0.960 . S
C1568 C1567 1.524 . S
C1569 C1566 1.403 . S
C1569 C1570 1.392 . S
C1569 C1573 1.495 . S
C1570 C1569 1.392 . S
C1570 C1571 1.385 . S
C1570 C1572 1.478 . S
C1571 H1565 0.930 . S
C1571 C1567 1.400 . S
C1571 C1570 1.385 . S
C1572 C1570 1.478 . S
C1572 C1574 1.381 . S
C1572 C1578 1.383 . S
C1573 C1569 1.495 . S
C1573 H1579 0.959 . S
C1573 H1580 0.961 . S
C1573 H1581 0.960 . S
C1574 C1572 1.381 . S
C1574 C1575 1.394 . S
C1574 H1582 0.930 . S
C1575 C1574 1.394 . S
C1575 C1576 1.383 . S
C1575 H1583 0.929 . S
C1576 C1575 1.383 . S
C1576 C1577 1.377 . S
C1577 H1561 0.930 . S
C1577 C1576 1.377 . S
C1577 C1578 1.379 . S
C1578 H1562 0.931 . S
C1578 C1572 1.383 . S
C1578 C1577 1.379 . S
H1579 C1573 0.959 . S
H1580 C1573 0.961 . S
H1581 C1573 0.960 . S
H1582 C1574 0.930 . S
H1583 C1575 0.929 . S
H1584 C1592 0.929 . S
H1585 C1594 0.930 . S
H1586 C1596 0.930 . S
H1587 C1599 0.929 . S
H1588 C1602 0.930 . S
H1589 C1604 0.960 . S
H1590 C1604 0.960 . S
H1591 C1604 0.960 . S
C1592 H1584 0.929 . S
C1592 C1593 1.377 . S
C1592 C1594 1.384 . S
C1593 C1592 1.377 . S
C1593 C1599 1.390 . S
C1594 H1585 0.930 . S
C1594 C1592 1.384 . S
C1594 C1595 1.372 . S
C1595 C1594 1.372 . S
C1595 C1596 1.400 . S
C1595 C1600 1.490 . S
C1596 H1586 0.930 . S
C1596 C1595 1.400 . S
C1596 C1599 1.386 . S
H1597 C1613 0.930 . S
H1598 C1614 0.931 . S
C1599 H1587 0.929 . S
C1599 C1593 1.390 . S
C1599 C1596 1.386 . S
C1600 C1595 1.490 . S
C1600 C1602 1.395 . S
C1600 C1603 1.403 . S
H1601 C1607 0.930 . S
C1602 H1588 0.930 . S
C1602 C1600 1.395 . S
C1602 C1605 1.403 . S
C1603 C1600 1.403 . S
C1603 C1604 1.524 . S
C1603 C1607 1.400 . S
C1604 H1589 0.960 . S
C1604 H1590 0.960 . S
C1604 H1591 0.960 . S
C1604 C1603 1.524 . S
C1605 C1602 1.403 . S
C1605 C1606 1.392 . S
C1605 C1609 1.495 . S
C1606 C1605 1.392 . S
C1606 C1607 1.385 . S
C1606 C1608 1.478 . S
C1607 H1601 0.930 . S
C1607 C1603 1.400 . S
C1607 C1606 1.385 . S
C1608 C1606 1.478 . S
C1608 C1610 1.381 . S
C1608 C1614 1.383 . S
C1609 C1605 1.495 . S
C1609 H1615 0.959 . S
C1609 H1616 0.961 . S
C1609 H1617 0.960 . S
C1610 C1608 1.381 . S
C1610 C1611 1.394 . S
C1610 H1618 0.930 . S
C1611 C1610 1.394 . S
C1611 C1612 1.383 . S
C1611 H1619 0.929 . S
C1612 C1611 1.383 . S
C1612 C1613 1.377 . S
C1613 H1597 0.930 . S
C1613 C1612 1.377 . S
C1613 C1614 1.379 . S
C1614 H1598 0.931 . S
C1614 C1608 1.383 . S
C1614 C1613 1.379 . S
H1615 C1609 0.959 . S
H1616 C1609 0.961 . S
H1617 C1609 0.960 . S
H1618 C1610 0.930 . S
H1619 C1611 0.929 . S
H1620 C1628 0.929 . S
H1621 C1630 0.930 . S
H1622 C1632 0.930 . S
H1623 C1635 0.929 . S
H1624 C1638 0.930 . S
H1625 C1640 0.960 . S
H1626 C1640 0.960 . S
H1627 C1640 0.960 . S
C1628 H1620 0.929 . S
C1628 C1629 1.377 . S
C1628 C1630 1.384 . S
C1629 C1628 1.377 . S
C1629 C1635 1.390 . S
C1630 H1621 0.930 . S
C1630 C1628 1.384 . S
C1630 C1631 1.372 . S
C1631 C1630 1.372 . S
C1631 C1632 1.400 . S
C1631 C1636 1.490 . S
C1632 H1622 0.930 . S
C1632 C1631 1.400 . S
C1632 C1635 1.386 . S
H1633 C1649 0.930 . S
H1634 C1650 0.931 . S
C1635 H1623 0.929 . S
C1635 C1629 1.390 . S
C1635 C1632 1.386 . S
C1636 C1631 1.490 . S
C1636 C1638 1.395 . S
C1636 C1639 1.403 . S
H1637 C1643 0.930 . S
C1638 H1624 0.930 . S
C1638 C1636 1.395 . S
C1638 C1641 1.403 . S
C1639 C1636 1.403 . S
C1639 C1640 1.524 . S
C1639 C1643 1.400 . S
C1640 H1625 0.960 . S
C1640 H1626 0.960 . S
C1640 H1627 0.960 . S
C1640 C1639 1.524 . S
C1641 C1638 1.403 . S
C1641 C1642 1.392 . S
C1641 C1645 1.495 . S
C1642 C1641 1.392 . S
C1642 C1643 1.385 . S
C1642 C1644 1.478 . S
C1643 H1637 0.930 . S
C1643 C1639 1.400 . S
C1643 C1642 1.385 . S
C1644 C1642 1.478 . S
C1644 C1646 1.381 . S
C1644 C1650 1.383 . S
C1645 C1641 1.495 . S
C1645 H1651 0.959 . S
C1645 H1652 0.961 . S
C1645 H1653 0.960 . S
C1646 C1644 1.381 . S
C1646 C1647 1.394 . S
C1646 H1654 0.930 . S
C1647 C1646 1.394 . S
C1647 C1648 1.383 . S
C1647 H1655 0.929 . S
C1648 C1647 1.383 . S
C1648 C1649 1.377 . S
C1649 H1633 0.930 . S
C1649 C1648 1.377 . S
C1649 C1650 1.379 . S
C1650 H1634 0.931 . S
C1650 C1644 1.383 . S
C1650 C1649 1.379 . S
H1651 C1645 0.959 . S
H1652 C1645 0.961 . S
H1653 C1645 0.960 . S
H1654 C1646 0.930 . S
H1655 C1647 0.929 . S
H1656 C1664 0.929 . S
H1657 C1666 0.930 . S
H1658 C1668 0.930 . S
H1659 C1671 0.929 . S
H1660 C1674 0.930 . S
H1661 C1676 0.960 . S
H1662 C1676 0.960 . S
H1663 C1676 0.960 . S
C1664 H1656 0.929 . S
C1664 C1665 1.377 . S
C1664 C1666 1.384 . S
C1665 C1664 1.377 . S
C1665 C1671 1.390 . S
C1666 H1657 0.930 . S
C1666 C1664 1.384 . S
C1666 C1667 1.372 . S
C1667 C1666 1.372 . S
C1667 C1668 1.400 . S
C1667 C1672 1.490 . S
C1668 H1658 0.930 . S
C1668 C1667 1.400 . S
C1668 C1671 1.386 . S
H1669 C1685 0.930 . S
H1670 C1686 0.931 . S
C1671 H1659 0.929 . S
C1671 C1665 1.390 . S
C1671 C1668 1.386 . S
C1672 C1667 1.490 . S
C1672 C1674 1.395 . S
C1672 C1675 1.403 . S
H1673 C1679 0.930 . S
C1674 H1660 0.930 . S
C1674 C1672 1.395 . S
C1674 C1677 1.403 . S
C1675 C1672 1.403 . S
C1675 C1676 1.524 . S
C1675 C1679 1.400 . S
C1676 H1661 0.960 . S
C1676 H1662 0.960 . S
C1676 H1663 0.960 . S
C1676 C1675 1.524 . S
C1677 C1674 1.403 . S
C1677 C1678 1.392 . S
C1677 C1681 1.495 . S
C1678 C1677 1.392 . S
C1678 C1679 1.385 . S
C1678 C1680 1.478 . S
C1679 H1673 0.930 . S
C1679 C1675 1.400 . S
C1679 C1678 1.385 . S
C1680 C1678 1.478 . S
C1680 C1682 1.381 . S
C1680 C1686 1.383 . S
C1681 C1677 1.495 . S
C1681 H1687 0.959 . S
C1681 H1688 0.961 . S
C1681 H1689 0.960 . S
C1682 C1680 1.381 . S
C1682 C1683 1.394 . S
C1682 H1690 0.930 . S
C1683 C1682 1.394 . S
C1683 C1684 1.383 . S
C1683 H1691 0.929 . S
C1684 C1683 1.383 . S
C1684 C1685 1.377 . S
C1685 H1669 0.930 . S
C1685 C1684 1.377 . S
C1685 C1686 1.379 . S
C1686 H1670 0.931 . S
C1686 C1680 1.383 . S
C1686 C1685 1.379 . S
H1687 C1681 0.959 . S
H1688 C1681 0.961 . S
H1689 C1681 0.960 . S
H1690 C1682 0.930 . S
H1691 C1683 0.929 . S
H1692 C1700 0.929 . S
H1693 C1702 0.930 . S
H1694 C1704 0.930 . S
H1695 C1707 0.929 . S
H1696 C1710 0.930 . S
H1697 C1712 0.960 . S
H1698 C1712 0.960 . S
H1699 C1712 0.960 . S
C1700 H1692 0.929 . S
C1700 C1701 1.377 . S
C1700 C1702 1.384 . S
C1701 C1700 1.377 . S
C1701 C1707 1.390 . S
C1702 H1693 0.930 . S
C1702 C1700 1.384 . S
C1702 C1703 1.372 . S
C1703 C1702 1.372 . S
C1703 C1704 1.400 . S
C1703 C1708 1.490 . S
C1704 H1694 0.930 . S
C1704 C1703 1.400 . S
C1704 C1707 1.386 . S
H1705 C1721 0.930 . S
H1706 C1722 0.931 . S
C1707 H1695 0.929 . S
C1707 C1701 1.390 . S
C1707 C1704 1.386 . S
C1708 C1703 1.490 . S
C1708 C1710 1.395 . S
C1708 C1711 1.403 . S
H1709 C1715 0.930 . S
C1710 H1696 0.930 . S
C1710 C1708 1.395 . S
C1710 C1713 1.403 . S
C1711 C1708 1.403 . S
C1711 C1712 1.524 . S
C1711 C1715 1.400 . S
C1712 H1697 0.960 . S
C1712 H1698 0.960 . S
C1712 H1699 0.960 . S
C1712 C1711 1.524 . S
C1713 C1710 1.403 . S
C1713 C1714 1.392 . S
C1713 C1717 1.495 . S
C1714 C1713 1.392 . S
C1714 C1715 1.385 . S
C1714 C1716 1.478 . S
C1715 H1709 0.930 . S
C1715 C1711 1.400 . S
C1715 C1714 1.385 . S
C1716 C1714 1.478 . S
C1716 C1718 1.381 . S
C1716 C1722 1.383 . S
C1717 C1713 1.495 . S
C1717 H1723 0.959 . S
C1717 H1724 0.961 . S
C1717 H1725 0.960 . S
C1718 C1716 1.381 . S
C1718 C1719 1.394 . S
C1718 H1726 0.930 . S
C1719 C1718 1.394 . S
C1719 C1720 1.383 . S
C1719 H1727 0.929 . S
C1720 C1719 1.383 . S
C1720 C1721 1.377 . S
C1721 H1705 0.930 . S
C1721 C1720 1.377 . S
C1721 C1722 1.379 . S
C1722 H1706 0.931 . S
C1722 C1716 1.383 . S
C1722 C1721 1.379 . S
H1723 C1717 0.959 . S
H1724 C1717 0.961 . S
H1725 C1717 0.960 . S
H1726 C1718 0.930 . S
H1727 C1719 0.929 . S
H1728 C1736 0.929 . S
H1729 C1738 0.930 . S
H1730 C1740 0.930 . S
H1731 C1743 0.929 . S
H1732 C1746 0.930 . S
H1733 C1748 0.960 . S
H1734 C1748 0.960 . S
H1735 C1748 0.960 . S
C1736 H1728 0.929 . S
C1736 C1737 1.377 . S
C1736 C1738 1.384 . S
C1737 C1736 1.377 . S
C1737 C1743 1.390 . S
C1738 H1729 0.930 . S
C1738 C1736 1.384 . S
C1738 C1739 1.372 . S
C1739 C1738 1.372 . S
C1739 C1740 1.400 . S
C1739 C1744 1.490 . S
C1740 H1730 0.930 . S
C1740 C1739 1.400 . S
C1740 C1743 1.386 . S
H1741 C1757 0.930 . S
H1742 C1758 0.931 . S
C1743 H1731 0.929 . S
C1743 C1737 1.390 . S
C1743 C1740 1.386 . S
C1744 C1739 1.490 . S
C1744 C1746 1.395 . S
C1744 C1747 1.403 . S
H1745 C1751 0.930 . S
C1746 H1732 0.930 . S
C1746 C1744 1.395 . S
C1746 C1749 1.403 . S
C1747 C1744 1.403 . S
C1747 C1748 1.524 . S
C1747 C1751 1.400 . S
C1748 H1733 0.960 . S
C1748 H1734 0.960 . S
C1748 H1735 0.960 . S
C1748 C1747 1.524 . S
C1749 C1746 1.403 . S
C1749 C1750 1.392 . S
C1749 C1753 1.495 . S
C1750 C1749 1.392 . S
C1750 C1751 1.385 . S
C1750 C1752 1.478 . S
C1751 H1745 0.930 . S
C1751 C1747 1.400 . S
C1751 C1750 1.385 . S
C1752 C1750 1.478 . S
C1752 C1754 1.381 . S
C1752 C1758 1.383 . S
C1753 C1749 1.495 . S
C1753 H1759 0.959 . S
C1753 H1760 0.961 . S
C1753 H1761 0.960 . S
C1754 C1752 1.381 . S
C1754 C1755 1.394 . S
C1754 H1762 0.930 . S
C1755 C1754 1.394 . S
C1755 C1756 1.383 . S
C1755 H1763 0.929 . S
C1756 C1755 1.383 . S
C1756 C1757 1.377 . S
C1757 H1741 0.930 . S
C1757 C1756 1.377 . S
C1757 C1758 1.379 . S
C1758 H1742 0.931 . S
C1758 C1752 1.383 . S
C1758 C1757 1.379 . S
H1759 C1753 0.959 . S
H1760 C1753 0.961 . S
H1761 C1753 0.960 . S
H1762 C1754 0.930 . S
H1763 C1755 0.929 . S
H1764 C1772 0.929 . S
H1765 C1774 0.930 . S
H1766 C1776 0.930 . S
H1767 C1779 0.929 . S
H1768 C1782 0.930 . S
H1769 C1784 0.960 . S
H1770 C1784 0.960 . S
H1771 C1784 0.960 . S
C1772 H1764 0.929 . S
C1772 C1773 1.377 . S
C1772 C1774 1.384 . S
C1773 C1772 1.377 . S
C1773 C1779 1.390 . S
C1774 H1765 0.930 . S
C1774 C1772 1.384 . S
C1774 C1775 1.372 . S
C1775 C1774 1.372 . S
C1775 C1776 1.400 . S
C1775 C1780 1.490 . S
C1776 H1766 0.930 . S
C1776 C1775 1.400 . S
C1776 C1779 1.386 . S
H1777 C1793 0.930 . S
H1778 C1794 0.931 . S
C1779 H1767 0.929 . S
C1779 C1773 1.390 . S
C1779 C1776 1.386 . S
C1780 C1775 1.490 . S
C1780 C1782 1.395 . S
C1780 C1783 1.403 . S
H1781 C1787 0.930 . S
C1782 H1768 0.930 . S
C1782 C1780 1.395 . S
C1782 C1785 1.403 . S
C1783 C1780 1.403 . S
C1783 C1784 1.524 . S
C1783 C1787 1.400 . S
C1784 H1769 0.960 . S
C1784 H1770 0.960 . S
C1784 H1771 0.960 . S
C1784 C1783 1.524 . S
C1785 C1782 1.403 . S
C1785 C1786 1.392 . S
C1785 C1789 1.495 . S
C1786 C1785 1.392 . S
C1786 C1787 1.385 . S
C1786 C1788 1.478 . S
C1787 H1781 0.930 . S
C1787 C1783 1.400 . S
C1787 C1786 1.385 . S
C1788 C1786 1.478 . S
C1788 C1790 1.381 . S
C1788 C1794 1.383 . S
C1789 C1785 1.495 . S
C1789 H1795 0.959 . S
C1789 H1796 0.961 . S
C1789 H1797 0.960 . S
C1790 C1788 1.381 . S
C1790 C1791 1.394 . S
C1790 H1798 0.930 . S
C1791 C1790 1.394 . S
C1791 C1792 1.383 . S
C1791 H1799 0.929 . S
C1792 C1791 1.383 . S
C1792 C1793 1.377 . S
C1793 H1777 0.930 . S
C1793 C1792 1.377 . S
C1793 C1794 1.379 . S
C1794 H1778 0.931 . S
C1794 C1788 1.383 . S
C1794 C1793 1.379 . S
H1795 C1789 0.959 . S
H1796 C1789 0.961 . S
H1797 C1789 0.960 . S
H1798 C1790 0.930 . S
H1799 C1791 0.929 . S
H1800 C1808 0.929 . S
H1801 C1810 0.930 . S
H1802 C1812 0.930 . S
H1803 C1815 0.929 . S
H1804 C1818 0.930 . S
H1805 C1820 0.960 . S
H1806 C1820 0.960 . S
H1807 C1820 0.960 . S
C1808 H1800 0.929 . S
C1808 C1809 1.377 . S
C1808 C1810 1.384 . S
C1809 C1808 1.377 . S
C1809 C1815 1.390 . S
C1810 H1801 0.930 . S
C1810 C1808 1.384 . S
C1810 C1811 1.372 . S
C1811 C1810 1.372 . S
C1811 C1812 1.400 . S
C1811 C1816 1.490 . S
C1812 H1802 0.930 . S
C1812 C1811 1.400 . S
C1812 C1815 1.386 . S
H1813 C1829 0.930 . S
H1814 C1830 0.931 . S
C1815 H1803 0.929 . S
C1815 C1809 1.390 . S
C1815 C1812 1.386 . S
C1816 C1811 1.490 . S
C1816 C1818 1.395 . S
C1816 C1819 1.403 . S
H1817 C1823 0.930 . S
C1818 H1804 0.930 . S
C1818 C1816 1.395 . S
C1818 C1821 1.403 . S
C1819 C1816 1.403 . S
C1819 C1820 1.524 . S
C1819 C1823 1.400 . S
C1820 H1805 0.960 . S
C1820 H1806 0.960 . S
C1820 H1807 0.960 . S
C1820 C1819 1.524 . S
C1821 C1818 1.403 . S
C1821 C1822 1.392 . S
C1821 C1825 1.495 . S
C1822 C1821 1.392 . S
C1822 C1823 1.385 . S
C1822 C1824 1.478 . S
C1823 H1817 0.930 . S
C1823 C1819 1.400 . S
C1823 C1822 1.385 . S
C1824 C1822 1.478 . S
C1824 C1826 1.381 . S
C1824 C1830 1.383 . S
C1825 C1821 1.495 . S
C1825 H1831 0.959 . S
C1825 H1832 0.961 . S
C1825 H1833 0.960 . S
C1826 C1824 1.381 . S
C1826 C1827 1.394 . S
C1826 H1834 0.930 . S
C1827 C1826 1.394 . S
C1827 C1828 1.383 . S
C1827 H1835 0.929 . S
C1828 C1827 1.383 . S
C1828 C1829 1.377 . S
C1829 H1813 0.930 . S
C1829 C1828 1.377 . S
C1829 C1830 1.379 . S
C1830 H1814 0.931 . S
C1830 C1824 1.383 . S
C1830 C1829 1.379 . S
H1831 C1825 0.959 . S
H1832 C1825 0.961 . S
H1833 C1825 0.960 . S
H1834 C1826 0.930 . S
H1835 C1827 0.929 . S
H1836 C1844 0.929 . S
H1837 C1846 0.930 . S
H1838 C1848 0.930 . S
H1839 C1851 0.929 . S
H1840 C1854 0.930 . S
H1841 C1856 0.960 . S
H1842 C1856 0.960 . S
H1843 C1856 0.960 . S
C1844 H1836 0.929 . S
C1844 C1845 1.377 . S
C1844 C1846 1.384 . S
C1845 C1844 1.377 . S
C1845 C1851 1.390 . S
C1846 H1837 0.930 . S
C1846 C1844 1.384 . S
C1846 C1847 1.372 . S
C1847 C1846 1.372 . S
C1847 C1848 1.400 . S
C1847 C1852 1.490 . S
C1848 H1838 0.930 . S
C1848 C1847 1.400 . S
C1848 C1851 1.386 . S
H1849 C1865 0.930 . S
H1850 C1866 0.931 . S
C1851 H1839 0.929 . S
C1851 C1845 1.390 . S
C1851 C1848 1.386 . S
C1852 C1847 1.490 . S
C1852 C1854 1.395 . S
C1852 C1855 1.403 . S
H1853 C1859 0.930 . S
C1854 H1840 0.930 . S
C1854 C1852 1.395 . S
C1854 C1857 1.403 . S
C1855 C1852 1.403 . S
C1855 C1856 1.524 . S
C1855 C1859 1.400 . S
C1856 H1841 0.960 . S
C1856 H1842 0.960 . S
C1856 H1843 0.960 . S
C1856 C1855 1.524 . S
C1857 C1854 1.403 . S
C1857 C1858 1.392 . S
C1857 C1861 1.495 . S
C1858 C1857 1.392 . S
C1858 C1859 1.385 . S
C1858 C1860 1.478 . S
C1859 H1853 0.930 . S
C1859 C1855 1.400 . S
C1859 C1858 1.385 . S
C1860 C1858 1.478 . S
C1860 C1862 1.381 . S
C1860 C1866 1.383 . S
C1861 C1857 1.495 . S
C1861 H1867 0.959 . S
C1861 H1868 0.961 . S
C1861 H1869 0.960 . S
C1862 C1860 1.381 . S
C1862 C1863 1.394 . S
C1862 H1870 0.930 . S
C1863 C1862 1.394 . S
C1863 C1864 1.383 . S
C1863 H1871 0.929 . S
C1864 C1863 1.383 . S
C1864 C1865 1.377 . S
C1865 H1849 0.930 . S
C1865 C1864 1.377 . S
C1865 C1866 1.379 . S
C1866 H1850 0.931 . S
C1866 C1860 1.383 . S
C1866 C1865 1.379 . S
H1867 C1861 0.959 . S
H1868 C1861 0.961 . S
H1869 C1861 0.960 . S
H1870 C1862 0.930 . S
H1871 C1863 0.929 . S
H1872 C1880 0.929 . S
H1873 C1882 0.930 . S
H1874 C1884 0.930 . S
H1875 C1887 0.929 . S
H1876 C1890 0.930 . S
H1877 C1892 0.960 . S
H1878 C1892 0.960 . S
H1879 C1892 0.960 . S
C1880 H1872 0.929 . S
C1880 C1881 1.377 . S
C1880 C1882 1.384 . S
C1881 C1880 1.377 . S
C1881 C1887 1.390 . S
C1882 H1873 0.930 . S
C1882 C1880 1.384 . S
C1882 C1883 1.372 . S
C1883 C1882 1.372 . S
C1883 C1884 1.400 . S
C1883 C1888 1.490 . S
C1884 H1874 0.930 . S
C1884 C1883 1.400 . S
C1884 C1887 1.386 . S
H1885 C1901 0.930 . S
H1886 C1902 0.931 . S
C1887 H1875 0.929 . S
C1887 C1881 1.390 . S
C1887 C1884 1.386 . S
C1888 C1883 1.490 . S
C1888 C1890 1.395 . S
C1888 C1891 1.403 . S
H1889 C1895 0.930 . S
C1890 H1876 0.930 . S
C1890 C1888 1.395 . S
C1890 C1893 1.403 . S
C1891 C1888 1.403 . S
C1891 C1892 1.524 . S
C1891 C1895 1.400 . S
C1892 H1877 0.960 . S
C1892 H1878 0.960 . S
C1892 H1879 0.960 . S
C1892 C1891 1.524 . S
C1893 C1890 1.403 . S
C1893 C1894 1.392 . S
C1893 C1897 1.495 . S
C1894 C1893 1.392 . S
C1894 C1895 1.385 . S
C1894 C1896 1.478 . S
C1895 H1889 0.930 . S
C1895 C1891 1.400 . S
C1895 C1894 1.385 . S
C1896 C1894 1.478 . S
C1896 C1898 1.381 . S
C1896 C1902 1.383 . S
C1897 C1893 1.495 . S
C1897 H1903 0.959 . S
C1897 H1904 0.961 . S
C1897 H1905 0.960 . S
C1898 C1896 1.381 . S
C1898 C1899 1.394 . S
C1898 H1906 0.930 . S
C1899 C1898 1.394 . S
C1899 C1900 1.383 . S
C1899 H1907 0.929 . S
C1900 C1899 1.383 . S
C1900 C1901 1.377 . S
C1901 H1885 0.930 . S
C1901 C1900 1.377 . S
C1901 C1902 1.379 . S
C1902 H1886 0.931 . S
C1902 C1896 1.383 . S
C1902 C1901 1.379 . S
H1903 C1897 0.959 . S
H1904 C1897 0.961 . S
H1905 C1897 0.960 . S
H1906 C1898 0.930 . S
H1907 C1899 0.929 . S
H1908 C1916 0.929 . S
H1909 C1918 0.930 . S
H1910 C1920 0.930 . S
H1911 C1923 0.929 . S
H1912 C1926 0.930 . S
H1913 C1928 0.960 . S
H1914 C1928 0.960 . S
H1915 C1928 0.960 . S
C1916 H1908 0.929 . S
C1916 C1917 1.377 . S
C1916 C1918 1.384 . S
C1917 C1916 1.377 . S
C1917 C1923 1.390 . S
C1918 H1909 0.930 . S
C1918 C1916 1.384 . S
C1918 C1919 1.372 . S
C1919 C1918 1.372 . S
C1919 C1920 1.400 . S
C1919 C1924 1.490 . S
C1920 H1910 0.930 . S
C1920 C1919 1.400 . S
C1920 C1923 1.386 . S
H1921 C1937 0.930 . S
H1922 C1938 0.931 . S
C1923 H1911 0.929 . S
C1923 C1917 1.390 . S
C1923 C1920 1.386 . S
C1924 C1919 1.490 . S
C1924 C1926 1.395 . S
C1924 C1927 1.403 . S
H1925 C1931 0.930 . S
C1926 H1912 0.930 . S
C1926 C1924 1.395 . S
C1926 C1929 1.403 . S
C1927 C1924 1.403 . S
C1927 C1928 1.524 . S
C1927 C1931 1.400 . S
C1928 H1913 0.960 . S
C1928 H1914 0.960 . S
C1928 H1915 0.960 . S
C1928 C1927 1.524 . S
C1929 C1926 1.403 . S
C1929 C1930 1.392 . S
C1929 C1933 1.495 . S
C1930 C1929 1.392 . S
C1930 C1931 1.385 . S
C1930 C1932 1.478 . S
C1931 H1925 0.930 . S
C1931 C1927 1.400 . S
C1931 C1930 1.385 . S
C1932 C1930 1.478 . S
C1932 C1934 1.381 . S
C1932 C1938 1.383 . S
C1933 C1929 1.495 . S
C1933 H1939 0.959 . S
C1933 H1940 0.961 . S
C1933 H1941 0.960 . S
C1934 C1932 1.381 . S
C1934 C1935 1.394 . S
C1934 H1942 0.930 . S
C1935 C1934 1.394 . S
C1935 C1936 1.383 . S
C1935 H1943 0.929 . S
C1936 C1935 1.383 . S
C1936 C1937 1.377 . S
C1937 H1921 0.930 . S
C1937 C1936 1.377 . S
C1937 C1938 1.379 . S
C1938 H1922 0.931 . S
C1938 C1932 1.383 . S
C1938 C1937 1.379 . S
H1939 C1933 0.959 . S
H1940 C1933 0.961 . S
H1941 C1933 0.960 . S
H1942 C1934 0.930 . S
H1943 C1935 0.929 . S
H1944 C1952 0.929 . S
H1945 C1954 0.930 . S
H1946 C1956 0.930 . S
H1947 C1959 0.929 . S
H1948 C1962 0.930 . S
H1949 C1964 0.960 . S
H1950 C1964 0.960 . S
H1951 C1964 0.960 . S
C1952 H1944 0.929 . S
C1952 C1953 1.377 . S
C1952 C1954 1.384 . S
C1953 C1952 1.377 . S
C1953 C1959 1.390 . S
C1954 H1945 0.930 . S
C1954 C1952 1.384 . S
C1954 C1955 1.372 . S
C1955 C1954 1.372 . S
C1955 C1956 1.400 . S
C1955 C1960 1.490 . S
C1956 H1946 0.930 . S
C1956 C1955 1.400 . S
C1956 C1959 1.386 . S
H1957 C1973 0.930 . S
H1958 C1974 0.931 . S
C1959 H1947 0.929 . S
C1959 C1953 1.390 . S
C1959 C1956 1.386 . S
C1960 C1955 1.490 . S
C1960 C1962 1.395 . S
C1960 C1963 1.403 . S
H1961 C1967 0.930 . S
C1962 H1948 0.930 . S
C1962 C1960 1.395 . S
C1962 C1965 1.403 . S
C1963 C1960 1.403 . S
C1963 C1964 1.524 . S
C1963 C1967 1.400 . S
C1964 H1949 0.960 . S
C1964 H1950 0.960 . S
C1964 H1951 0.960 . S
C1964 C1963 1.524 . S
C1965 C1962 1.403 . S
C1965 C1966 1.392 . S
C1965 C1969 1.495 . S
C1966 C1965 1.392 . S
C1966 C1967 1.385 . S
C1966 C1968 1.478 . S
C1967 H1961 0.930 . S
C1967 C1963 1.400 . S
C1967 C1966 1.385 . S
C1968 C1966 1.478 . S
C1968 C1970 1.381 . S
C1968 C1974 1.383 . S
C1969 C1965 1.495 . S
C1969 H1975 0.959 . S
C1969 H1976 0.961 . S
C1969 H1977 0.960 . S
C1970 C1968 1.381 . S
C1970 C1971 1.394 . S
C1970 H1978 0.930 . S
C1971 C1970 1.394 . S
C1971 C1972 1.383 . S
C1971 H1979 0.929 . S
C1972 C1971 1.383 . S
C1972 C1973 1.377 . S
C1973 H1957 0.930 . S
C1973 C1972 1.377 . S
C1973 C1974 1.379 . S
C1974 H1958 0.931 . S
C1974 C1968 1.383 . S
C1974 C1973 1.379 . S
H1975 C1969 0.959 . S
H1976 C1969 0.961 . S
H1977 C1969 0.960 . S
H1978 C1970 0.930 . S
H1979 C1971 0.929 . S
H1980 C1988 0.929 . S
H1981 C1990 0.930 . S
H1982 C1992 0.930 . S
H1983 C1995 0.929 . S
H1984 C1998 0.930 . S
H1985 C2000 0.960 . S
H1986 C2000 0.960 . S
H1987 C2000 0.960 . S
C1988 H1980 0.929 . S
C1988 C1989 1.377 . S
C1988 C1990 1.384 . S
C1989 C1988 1.377 . S
C1989 C1995 1.390 . S
C1990 H1981 0.930 . S
C1990 C1988 1.384 . S
C1990 C1991 1.372 . S
C1991 C1990 1.372 . S
C1991 C1992 1.400 . S
C1991 C1996 1.490 . S
C1992 H1982 0.930 . S
C1992 C1991 1.400 . S
C1992 C1995 1.386 . S
H1993 C2009 0.930 . S
H1994 C2010 0.931 . S
C1995 H1983 0.929 . S
C1995 C1989 1.390 . S
C1995 C1992 1.386 . S
C1996 C1991 1.490 . S
C1996 C1998 1.395 . S
C1996 C1999 1.403 . S
H1997 C2003 0.930 . S
C1998 H1984 0.930 . S
C1998 C1996 1.395 . S
C1998 C2001 1.403 . S
C1999 C1996 1.403 . S
C1999 C2000 1.524 . S
C1999 C2003 1.400 . S
C2000 H1985 0.960 . S
C2000 H1986 0.960 . S
C2000 H1987 0.960 . S
C2000 C1999 1.524 . S
C2001 C1998 1.403 . S
C2001 C2002 1.392 . S
C2001 C2005 1.495 . S
C2002 C2001 1.392 . S
C2002 C2003 1.385 . S
C2002 C2004 1.478 . S
C2003 H1997 0.930 . S
C2003 C1999 1.400 . S
C2003 C2002 1.385 . S
C2004 C2002 1.478 . S
C2004 C2006 1.381 . S
C2004 C2010 1.383 . S
C2005 C2001 1.495 . S
C2005 H2011 0.959 . S
C2005 H2012 0.961 . S
C2005 H2013 0.960 . S
C2006 C2004 1.381 . S
C2006 C2007 1.394 . S
C2006 H2014 0.930 . S
C2007 C2006 1.394 . S
C2007 C2008 1.383 . S
C2007 H2015 0.929 . S
C2008 C2007 1.383 . S
C2008 C2009 1.377 . S
C2009 H1993 0.930 . S
C2009 C2008 1.377 . S
C2009 C2010 1.379 . S
C2010 H1994 0.931 . S
C2010 C2004 1.383 . S
C2010 C2009 1.379 . S
H2011 C2005 0.959 . S
H2012 C2005 0.961 . S
H2013 C2005 0.960 . S
H2014 C2006 0.930 . S
H2015 C2007 0.929 . S
H2016 C2024 0.929 . S
H2017 C2026 0.930 . S
H2018 C2028 0.930 . S
H2019 C2031 0.929 . S
H2020 C2034 0.930 . S
H2021 C2036 0.960 . S
H2022 C2036 0.960 . S
H2023 C2036 0.960 . S
C2024 H2016 0.929 . S
C2024 C2025 1.377 . S
C2024 C2026 1.384 . S
C2025 C2024 1.377 . S
C2025 C2031 1.390 . S
C2026 H2017 0.930 . S
C2026 C2024 1.384 . S
C2026 C2027 1.372 . S
C2027 C2026 1.372 . S
C2027 C2028 1.400 . S
C2027 C2032 1.490 . S
C2028 H2018 0.930 . S
C2028 C2027 1.400 . S
C2028 C2031 1.386 . S
H2029 C2045 0.930 . S
H2030 C2046 0.931 . S
C2031 H2019 0.929 . S
C2031 C2025 1.390 . S
C2031 C2028 1.386 . S
C2032 C2027 1.490 . S
C2032 C2034 1.395 . S
C2032 C2035 1.403 . S
H2033 C2039 0.930 . S
C2034 H2020 0.930 . S
C2034 C2032 1.395 . S
C2034 C2037 1.403 . S
C2035 C2032 1.403 . S
C2035 C2036 1.524 . S
C2035 C2039 1.400 . S
C2036 H2021 0.960 . S
C2036 H2022 0.960 . S
C2036 H2023 0.960 . S
C2036 C2035 1.524 . S
C2037 C2034 1.403 . S
C2037 C2038 1.392 . S
C2037 C2041 1.495 . S
C2038 C2037 1.392 . S
C2038 C2039 1.385 . S
C2038 C2040 1.478 . S
C2039 H2033 0.930 . S
C2039 C2035 1.400 . S
C2039 C2038 1.385 . S
C2040 C2038 1.478 . S
C2040 C2042 1.381 . S
C2040 C2046 1.383 . S
C2041 C2037 1.495 . S
C2041 H2047 0.959 . S
C2041 H2048 0.961 . S
C2041 H2049 0.960 . S
C2042 C2040 1.381 . S
C2042 C2043 1.394 . S
C2042 H2050 0.930 . S
C2043 C2042 1.394 . S
C2043 C2044 1.383 . S
C2043 H2051 0.929 . S
C2044 C2043 1.383 . S
C2044 C2045 1.377 . S
C2045 H2029 0.930 . S
C2045 C2044 1.377 . S
C2045 C2046 1.379 . S
C2046 H2030 0.931 . S
C2046 C2040 1.383 . S
C2046 C2045 1.379 . S
H2047 C2041 0.959 . S
H2048 C2041 0.961 . S
H2049 C2041 0.960 . S
H2050 C2042 0.930 . S
H2051 C2043 0.929 . S
H2052 C2060 0.929 . S
H2053 C2062 0.930 . S
H2054 C2064 0.930 . S
H2055 C2067 0.929 . S
H2056 C2070 0.930 . S
H2057 C2072 0.960 . S
H2058 C2072 0.960 . S
H2059 C2072 0.960 . S
C2060 H2052 0.929 . S
C2060 C2061 1.377 . S
C2060 C2062 1.384 . S
C2061 C2060 1.377 . S
C2061 C2067 1.390 . S
C2062 H2053 0.930 . S
C2062 C2060 1.384 . S
C2062 C2063 1.372 . S
C2063 C2062 1.372 . S
C2063 C2064 1.400 . S
C2063 C2068 1.490 . S
C2064 H2054 0.930 . S
C2064 C2063 1.400 . S
C2064 C2067 1.386 . S
H2065 C2081 0.930 . S
H2066 C2082 0.931 . S
C2067 H2055 0.929 . S
C2067 C2061 1.390 . S
C2067 C2064 1.386 . S
C2068 C2063 1.490 . S
C2068 C2070 1.395 . S
C2068 C2071 1.403 . S
H2069 C2075 0.930 . S
C2070 H2056 0.930 . S
C2070 C2068 1.395 . S
C2070 C2073 1.403 . S
C2071 C2068 1.403 . S
C2071 C2072 1.524 . S
C2071 C2075 1.400 . S
C2072 H2057 0.960 . S
C2072 H2058 0.960 . S
C2072 H2059 0.960 . S
C2072 C2071 1.524 . S
C2073 C2070 1.403 . S
C2073 C2074 1.392 . S
C2073 C2077 1.495 . S
C2074 C2073 1.392 . S
C2074 C2075 1.385 . S
C2074 C2076 1.478 . S
C2075 H2069 0.930 . S
C2075 C2071 1.400 . S
C2075 C2074 1.385 . S
C2076 C2074 1.478 . S
C2076 C2078 1.381 . S
C2076 C2082 1.383 . S
C2077 C2073 1.495 . S
C2077 H2083 0.959 . S
C2077 H2084 0.961 . S
C2077 H2085 0.960 . S
C2078 C2076 1.381 . S
C2078 C2079 1.394 . S
C2078 H2086 0.930 . S
C2079 C2078 1.394 . S
C2079 C2080 1.383 . S
C2079 H2087 0.929 . S
C2080 C2079 1.383 . S
C2080 C2081 1.377 . S
C2081 H2065 0.930 . S
C2081 C2080 1.377 . S
C2081 C2082 1.379 . S
C2082 H2066 0.931 . S
C2082 C2076 1.383 . S
C2082 C2081 1.379 . S
H2083 C2077 0.959 . S
H2084 C2077 0.961 . S
H2085 C2077 0.960 . S
H2086 C2078 0.930 . S
H2087 C2079 0.929 . S
H2088 C2096 0.929 . S
H2089 C2098 0.930 . S
H2090 C2100 0.930 . S
H2091 C2103 0.929 . S
H2092 C2106 0.930 . S
H2093 C2108 0.960 . S
H2094 C2108 0.960 . S
H2095 C2108 0.960 . S
C2096 H2088 0.929 . S
C2096 C2097 1.377 . S
C2096 C2098 1.384 . S
C2097 C2096 1.377 . S
C2097 C2103 1.390 . S
C2098 H2089 0.930 . S
C2098 C2096 1.384 . S
C2098 C2099 1.372 . S
C2099 C2098 1.372 . S
C2099 C2100 1.400 . S
C2099 C2104 1.490 . S
C2100 H2090 0.930 . S
C2100 C2099 1.400 . S
C2100 C2103 1.386 . S
H2101 C2117 0.930 . S
H2102 C2118 0.931 . S
C2103 H2091 0.929 . S
C2103 C2097 1.390 . S
C2103 C2100 1.386 . S
C2104 C2099 1.490 . S
C2104 C2106 1.395 . S
C2104 C2107 1.403 . S
H2105 C2111 0.930 . S
C2106 H2092 0.930 . S
C2106 C2104 1.395 . S
C2106 C2109 1.403 . S
C2107 C2104 1.403 . S
C2107 C2108 1.524 . S
C2107 C2111 1.400 . S
C2108 H2093 0.960 . S
C2108 H2094 0.960 . S
C2108 H2095 0.960 . S
C2108 C2107 1.524 . S
C2109 C2106 1.403 . S
C2109 C2110 1.392 . S
C2109 C2113 1.495 . S
C2110 C2109 1.392 . S
C2110 C2111 1.385 . S
C2110 C2112 1.478 . S
C2111 H2105 0.930 . S
C2111 C2107 1.400 . S
C2111 C2110 1.385 . S
C2112 C2110 1.478 . S
C2112 C2114 1.381 . S
C2112 C2118 1.383 . S
C2113 C2109 1.495 . S
C2113 H2119 0.959 . S
C2113 H2120 0.961 . S
C2113 H2121 0.960 . S
C2114 C2112 1.381 . S
C2114 C2115 1.394 . S
C2114 H2122 0.930 . S
C2115 C2114 1.394 . S
C2115 C2116 1.383 . S
C2115 H2123 0.929 . S
C2116 C2115 1.383 . S
C2116 C2117 1.377 . S
C2117 H2101 0.930 . S
C2117 C2116 1.377 . S
C2117 C2118 1.379 . S
C2118 H2102 0.931 . S
C2118 C2112 1.383 . S
C2118 C2117 1.379 . S
H2119 C2113 0.959 . S
H2120 C2113 0.961 . S
H2121 C2113 0.960 . S
H2122 C2114 0.930 . S
H2123 C2115 0.929 . S
H2124 C2132 0.929 . S
H2125 C2134 0.930 . S
H2126 C2136 0.930 . S
H2127 C2139 0.929 . S
H2128 C2142 0.930 . S
H2129 C2144 0.960 . S
H2130 C2144 0.960 . S
H2131 C2144 0.960 . S
C2132 H2124 0.929 . S
C2132 C2133 1.377 . S
C2132 C2134 1.384 . S
C2133 C2132 1.377 . S
C2133 C2139 1.390 . S
C2134 H2125 0.930 . S
C2134 C2132 1.384 . S
C2134 C2135 1.372 . S
C2135 C2134 1.372 . S
C2135 C2136 1.400 . S
C2135 C2140 1.490 . S
C2136 H2126 0.930 . S
C2136 C2135 1.400 . S
C2136 C2139 1.386 . S
H2137 C2153 0.930 . S
H2138 C2154 0.931 . S
C2139 H2127 0.929 . S
C2139 C2133 1.390 . S
C2139 C2136 1.386 . S
C2140 C2135 1.490 . S
C2140 C2142 1.395 . S
C2140 C2143 1.403 . S
H2141 C2147 0.930 . S
C2142 H2128 0.930 . S
C2142 C2140 1.395 . S
C2142 C2145 1.403 . S
C2143 C2140 1.403 . S
C2143 C2144 1.524 . S
C2143 C2147 1.400 . S
C2144 H2129 0.960 . S
C2144 H2130 0.960 . S
C2144 H2131 0.960 . S
C2144 C2143 1.524 . S
C2145 C2142 1.403 . S
C2145 C2146 1.392 . S
C2145 C2149 1.495 . S
C2146 C2145 1.392 . S
C2146 C2147 1.385 . S
C2146 C2148 1.478 . S
C2147 H2141 0.930 . S
C2147 C2143 1.400 . S
C2147 C2146 1.385 . S
C2148 C2146 1.478 . S
C2148 C2150 1.381 . S
C2148 C2154 1.383 . S
C2149 C2145 1.495 . S
C2149 H2155 0.959 . S
C2149 H2156 0.961 . S
C2149 H2157 0.960 . S
C2150 C2148 1.381 . S
C2150 C2151 1.394 . S
C2150 H2158 0.930 . S
C2151 C2150 1.394 . S
C2151 C2152 1.383 . S
C2151 H2159 0.929 . S
C2152 C2151 1.383 . S
C2152 C2153 1.377 . S
C2153 H2137 0.930 . S
C2153 C2152 1.377 . S
C2153 C2154 1.379 . S
C2154 H2138 0.931 . S
C2154 C2148 1.383 . S
C2154 C2153 1.379 . S
H2155 C2149 0.959 . S
H2156 C2149 0.961 . S
H2157 C2149 0.960 . S
H2158 C2150 0.930 . S
H2159 C2151 0.929 . S
C460 C257 0.850 . S
C441 N6 0.828 . S
C496 C262 1.810 . S
C477 C57 1.852 . S
C532 C263 1.276 . S
C513 C61 1.285 . S
C549 N96 0.554 . S
C568 C267 0.398 . S
C585 C136 1.849 . S
C604 C270 1.836 . S
C640 C271 1.265 . S
C621 C160 1.275 . S
C657 N194 0.528 . S
C676 C248 0.501 . S
C693 N224 0.827 . S
C712 C264 0.821 . S
C748 C302 1.754 . S
C729 C10 1.789 . S
C765 N36 0.797 . S
C784 C328 0.793 . S
C820 C280 0.444 . S
C801 N74 0.567 . S
C856 C335 1.206 . S
C837 C100 1.253 . S
C873 C121 1.270 . S
C892 C289 1.258 . S
C928 C331 1.666 . S
C909 C177 1.735 . S
C945 C196 2.155 . S
C964 C295 2.110 . S
C981 C226 1.825 . S
C1000 C326 1.792 . S
C1017 C27 1.826 . S
C1036 C334 1.765 . S
C1053 N134 0.773 . S
C1072 C321 0.782 . S
C1108 C299 0.464 . S
C1089 N156 0.523 . S
C1144 C327 1.218 . S
C1125 C181 1.265 . S
C1161 C211 1.793 . S
C1180 C294 1.722 . S
C1197 C76 1.732 . S
C1216 C312 1.688 . S
C1252 C303 2.112 . S
C1233 C117 2.155 . S
C1269 C40 1.270 . S
C1288 C296 1.197 . S
C1305 N216 0.815 . S
C1324 C358 0.826 . S
C1341 C147 1.815 . S
C1360 C353 1.754 . S
C1396 C367 1.202 . S
C1377 C151 1.254 . S
C1432 C344 0.510 . S
C1413 N186 0.512 . S
C1449 C46 1.819 . S
C1468 C360 1.772 . S
C1504 C359 1.182 . S
C1485 C70 1.247 . S
C1521 N104 0.508 . S
C1540 C363 0.539 . S
C1557 N14 0.789 . S
C1576 C366 0.784 . S
C1593 C220 1.786 . S
C1612 C392 1.779 . S
C1648 C408 0.812 . S
C1629 N126 0.816 . S
C1665 N164 0.548 . S
C1684 C390 0.441 . S
C1701 C190 1.291 . S
C1720 C423 1.249 . S
C1756 C399 1.269 . S
C1737 C31 1.278 . S
C1773 C87 1.765 . S
C1792 C417 1.726 . S
C1828 C395 2.095 . S
C1809 C106 2.149 . S
C1864 C430 1.789 . S
C1845 C16 1.852 . S
C1900 C422 1.793 . S
C1881 C237 1.860 . S
C1917 N44 0.818 . S
C1936 C427 0.759 . S
C1953 N66 0.536 . S
C1972 C398 0.544 . S
C2008 C431 1.276 . S
C1989 C91 1.293 . S
C2025 C1 1.787 . S
C2044 C385 1.770 . S
C2061 C166 1.763 . S
C2080 C424 1.705 . S
C2116 C376 2.107 . S
C2097 C207 2.152 . S
C2152 C391 1.273 . S
C2133 C130 1.276 . S
