# Generated by pormake.
# Topology cor, (4,6)-cn, num edge types: 1
# Building blocks:
#     Node 0, Type 0, BuildingBlock: ESEHIV_clean_sbu_0, # of connection points: 4
#     Node 1, Type 0, BuildingBlock: ESEHIV_clean_sbu_0, # of connection points: 4
#     Node 2, Type 0, BuildingBlock: ESEHIV_clean_sbu_0, # of connection points: 4
#     Node 3, Type 0, BuildingBlock: ESEHIV_clean_sbu_0, # of connection points: 4
#     Node 4, Type 0, BuildingBlock: ESEHIV_clean_sbu_0, # of connection points: 4
#     Node 5, Type 0, BuildingBlock: ESEHIV_clean_sbu_0, # of connection points: 4
#     Node 6, Type 0, BuildingBlock: ESEHIV_clean_sbu_0, # of connection points: 4
#     Node 7, Type 0, BuildingBlock: ESEHIV_clean_sbu_0, # of connection points: 4
#     Node 8, Type 0, BuildingBlock: ESEHIV_clean_sbu_0, # of connection points: 4
#     Node 9, Type 0, BuildingBlock: ESEHIV_clean_sbu_0, # of connection points: 4
#     Node 10, Type 0, BuildingBlock: ESEHIV_clean_sbu_0, # of connection points: 4
#     Node 11, Type 0, BuildingBlock: ESEHIV_clean_sbu_0, # of connection points: 4
#     Node 12, Type 0, BuildingBlock: ESEHIV_clean_sbu_0, # of connection points: 4
#     Node 13, Type 0, BuildingBlock: ESEHIV_clean_sbu_0, # of connection points: 4
#     Node 14, Type 0, BuildingBlock: ESEHIV_clean_sbu_0, # of connection points: 4
#     Node 15, Type 0, BuildingBlock: ESEHIV_clean_sbu_0, # of connection points: 4
#     Node 16, Type 0, BuildingBlock: ESEHIV_clean_sbu_0, # of connection points: 4
#     Node 17, Type 0, BuildingBlock: ESEHIV_clean_sbu_0, # of connection points: 4
#     Node 18, Type 1, BuildingBlock: MIDCAF_clean_sbu_0, # of connection points: 6
#     Node 19, Type 1, BuildingBlock: MIDCAF_clean_sbu_0, # of connection points: 6
#     Node 20, Type 1, BuildingBlock: MIDCAF_clean_sbu_0, # of connection points: 6
#     Node 21, Type 1, BuildingBlock: MIDCAF_clean_sbu_0, # of connection points: 6
#     Node 22, Type 1, BuildingBlock: MIDCAF_clean_sbu_0, # of connection points: 6
#     Node 23, Type 1, BuildingBlock: MIDCAF_clean_sbu_0, # of connection points: 6
#     Node 24, Type 1, BuildingBlock: MIDCAF_clean_sbu_0, # of connection points: 6
#     Node 25, Type 1, BuildingBlock: MIDCAF_clean_sbu_0, # of connection points: 6
#     Node 26, Type 1, BuildingBlock: MIDCAF_clean_sbu_0, # of connection points: 6
#     Node 27, Type 1, BuildingBlock: MIDCAF_clean_sbu_0, # of connection points: 6
#     Node 28, Type 1, BuildingBlock: MIDCAF_clean_sbu_0, # of connection points: 6
#     Node 29, Type 1, BuildingBlock: MIDCAF_clean_sbu_0, # of connection points: 6
#     Edge 30, Type (0, 1), None
#     Edge 31, Type (0, 1), None
#     Edge 32, Type (0, 1), None
#     Edge 33, Type (0, 1), None
#     Edge 34, Type (0, 1), None
#     Edge 35, Type (0, 1), None
#     Edge 36, Type (0, 1), None
#     Edge 37, Type (0, 1), None
#     Edge 38, Type (0, 1), None
#     Edge 39, Type (0, 1), None
#     Edge 40, Type (0, 1), None
#     Edge 41, Type (0, 1), None
#     Edge 42, Type (0, 1), None
#     Edge 43, Type (0, 1), None
#     Edge 44, Type (0, 1), None
#     Edge 45, Type (0, 1), None
#     Edge 46, Type (0, 1), None
#     Edge 47, Type (0, 1), None
#     Edge 48, Type (0, 1), None
#     Edge 49, Type (0, 1), None
#     Edge 50, Type (0, 1), None
#     Edge 51, Type (0, 1), None
#     Edge 52, Type (0, 1), None
#     Edge 53, Type (0, 1), None
#     Edge 54, Type (0, 1), None
#     Edge 55, Type (0, 1), None
#     Edge 56, Type (0, 1), None
#     Edge 57, Type (0, 1), None
#     Edge 58, Type (0, 1), None
#     Edge 59, Type (0, 1), None
#     Edge 60, Type (0, 1), None
#     Edge 61, Type (0, 1), None
#     Edge 62, Type (0, 1), None
#     Edge 63, Type (0, 1), None
#     Edge 64, Type (0, 1), None
#     Edge 65, Type (0, 1), None
#     Edge 66, Type (0, 1), None
#     Edge 67, Type (0, 1), None
#     Edge 68, Type (0, 1), None
#     Edge 69, Type (0, 1), None
#     Edge 70, Type (0, 1), None
#     Edge 71, Type (0, 1), None
#     Edge 72, Type (0, 1), None
#     Edge 73, Type (0, 1), None
#     Edge 74, Type (0, 1), None
#     Edge 75, Type (0, 1), None
#     Edge 76, Type (0, 1), None
#     Edge 77, Type (0, 1), None
#     Edge 78, Type (0, 1), None
#     Edge 79, Type (0, 1), None
#     Edge 80, Type (0, 1), None
#     Edge 81, Type (0, 1), None
#     Edge 82, Type (0, 1), None
#     Edge 83, Type (0, 1), None
#     Edge 84, Type (0, 1), None
#     Edge 85, Type (0, 1), None
#     Edge 86, Type (0, 1), None
#     Edge 87, Type (0, 1), None
#     Edge 88, Type (0, 1), None
#     Edge 89, Type (0, 1), None
#     Edge 90, Type (0, 1), None
#     Edge 91, Type (0, 1), None
#     Edge 92, Type (0, 1), None
#     Edge 93, Type (0, 1), None
#     Edge 94, Type (0, 1), None
#     Edge 95, Type (0, 1), None
#     Edge 96, Type (0, 1), None
#     Edge 97, Type (0, 1), None
#     Edge 98, Type (0, 1), None
#     Edge 99, Type (0, 1), None
#     Edge 100, Type (0, 1), None
#     Edge 101, Type (0, 1), None
# Relax obj value: 0.159
# Max RMSD: 0.319
# Mean RMSD: 0.238
data_MOF--net-cor--node1-ESEHIV_clean_sbu_0--node2-MIDCAF_clean_sbu_0--edge1-none
_symmetry_space_group_name_H-M    P1
_symmetry_Int_Tables_number       1
_symmetry_cell_setting            triclinic
loop_
_symmetry_equiv_pos_as_xyz
'x, y, z'
_cell_length_a     19.907507
_cell_length_b     18.443377
_cell_length_c     51.006447
_cell_angle_alpha  94.875838
_cell_angle_beta   93.670605
_cell_angle_gamma 120.02888
loop_
_atom_site_label
_atom_site_type_symbol
_atom_site_fract_x
_atom_site_fract_y
_atom_site_fract_z
_atom_type_partial_charge
Cu0 Cu 0.75145 0.05956 0.32326 0.0
N1 N 0.75353 0.99732 0.29205 0.0
N2 N 0.80207 0.98769 0.25404 0.0
C3 C 0.78467 0.03496 0.27088 0.0
C4 C 0.777 0.91457 0.26434 0.0
C5 C 0.74769 0.92103 0.28793 0.0
O6 O 0.73677 0.14726 0.31119 0.0
C7 C 0.87832 0.12714 0.36949 0.0
O8 O 0.832 0.12041 0.38746 0.0
H9 H 0.80294 0.10017 0.26938 0.0
H10 H 0.73078 0.87674 0.30223 0.0
N11 N 0.67071 0.99724 0.34301 0.0
N12 N 0.56101 0.89478 0.35518 0.0
C13 C 0.61072 0.91763 0.33658 0.0
C14 C 0.65781 0.02585 0.36625 0.0
C15 C 0.59065 0.96224 0.37404 0.0
C16 C 0.79329 0.21258 0.30429 0.0
O17 O 0.8647 0.2261 0.30814 0.0
H18 H 0.6029 0.87792 0.31839 0.0
H19 H 0.69327 0.08957 0.37642 0.0
O20 O 0.85253 0.107 0.34475 0.0
H21 H 0.78766 0.86465 0.25723 0.0
H22 H 0.56432 0.96632 0.39159 0.0
Cu23 Cu 0.02164 0.77137 0.30942 0.0
N24 N 0.06222 0.83468 0.28216 0.0
N25 N 0.06451 0.92638 0.25598 0.0
C26 C 0.03643 0.88717 0.27704 0.0
C27 C 0.11054 0.89755 0.24714 0.0
C28 C 0.10903 0.84028 0.26353 0.0
O29 O 0.92228 0.67576 0.29582 0.0
C30 C 0.98313 0.85028 0.35489 0.0
O31 O 0.93614 0.77898 0.36358 0.0
H32 H 0.99537 0.89446 0.28831 0.0
H33 H 0.13785 0.80394 0.2615 0.0
N34 N 0.07788 0.7308 0.32686 0.0
N35 N 0.16382 0.69472 0.3409 0.0
C36 C 0.14522 0.73371 0.32291 0.0
C37 C 0.05317 0.68822 0.34771 0.0
C38 C 0.10612 0.66599 0.3565 0.0
C39 C 0.91567 0.62566 0.27574 0.0
O40 O 0.97544 0.64426 0.2625 0.0
H41 H 0.18011 0.76447 0.30751 0.0
H42 H 0.99993 0.67435 0.35595 0.0
O43 O 0.01668 0.85156 0.33451 0.0
H44 H 0.14087 0.91438 0.2298 0.0
H45 H 0.10246 0.63166 0.37303 0.0
Cu46 Cu 0.33662 0.31117 0.30829 0.0
N47 N 0.31851 0.24428 0.33612 0.0
N48 N 0.26057 0.19239 0.37204 0.0
C49 C 0.29146 0.25898 0.35826 0.0
C50 C 0.2734 0.13455 0.35891 0.0
C51 C 0.30851 0.1665 0.33657 0.0
O52 O 0.37144 0.42561 0.32432 0.0
C53 C 0.21973 0.21624 0.26355 0.0
O54 O 0.26005 0.17909 0.25874 0.0
H55 H 0.28599 0.31388 0.3627 0.0
H56 H 0.31833 0.13197 0.32052 0.0
N57 N 0.41156 0.31672 0.2872 0.0
N58 N 0.52079 0.33095 0.27339 0.0
C59 C 0.47847 0.31809 0.29401 0.0
C60 C 0.41256 0.33053 0.26164 0.0
C61 C 0.47922 0.33778 0.2529 0.0
C62 C 0.32204 0.44218 0.33342 0.0
O63 O 0.2478 0.38318 0.32996 0.0
H64 H 0.49689 0.31273 0.31384 0.0
H65 H 0.36897 0.33783 0.25034 0.0
O66 O 0.24037 0.26999 0.28431 0.0
H67 H 0.24957 0.06998 0.36291 0.0
H68 H 0.49764 0.35171 0.23356 0.0
Cu69 Cu 0.31682 0.01498 0.79931 0.0
N70 N 0.31475 0.07722 0.83052 0.0
N71 N 0.26621 0.08686 0.86853 0.0
C72 C 0.28362 0.03958 0.8517 0.0
C73 C 0.29128 0.15997 0.85823 0.0
C74 C 0.32058 0.15351 0.83464 0.0
O75 O 0.33151 0.92728 0.81139 0.0
C76 C 0.18995 0.9474 0.75308 0.0
O77 O 0.23627 0.95413 0.73512 0.0
H78 H 0.26535 0.97438 0.85319 0.0
H79 H 0.33748 0.1978 0.82034 0.0
N80 N 0.39757 0.07729 0.77956 0.0
N81 N 0.50727 0.17976 0.7674 0.0
C82 C 0.45755 0.1569 0.78599 0.0
C83 C 0.41046 0.04868 0.75632 0.0
C84 C 0.47763 0.1123 0.74853 0.0
C85 C 0.27499 0.86197 0.81828 0.0
O86 O 0.20358 0.84845 0.81444 0.0
H87 H 0.46538 0.19661 0.80418 0.0
H88 H 0.37501 0.98497 0.74615 0.0
O89 O 0.21574 0.96754 0.77782 0.0
H90 H 0.28062 0.20989 0.86534 0.0
H91 H 0.50395 0.10822 0.73098 0.0
Cu92 Cu 0.04664 0.30317 0.81315 0.0
N93 N 0.00606 0.23986 0.84041 0.0
N94 N 0.00378 0.14816 0.86659 0.0
C95 C 0.03185 0.18738 0.84553 0.0
C96 C 0.95774 0.17699 0.87543 0.0
C97 C 0.95926 0.23426 0.85905 0.0
O98 O 0.146 0.39878 0.82675 0.0
C99 C 0.08515 0.22426 0.76768 0.0
O100 O 0.13214 0.29555 0.75899 0.0
H101 H 0.07292 0.18009 0.83426 0.0
H102 H 0.93043 0.2706 0.86107 0.0
N103 N 0.99039 0.34374 0.79571 0.0
N104 N 0.90445 0.37981 0.78167 0.0
C105 C 0.92305 0.34082 0.79966 0.0
C106 C 0.01511 0.38632 0.77486 0.0
C107 C 0.96215 0.40854 0.76608 0.0
C108 C 0.15261 0.44888 0.84683 0.0
O109 O 0.09285 0.43027 0.86008 0.0
H110 H 0.88816 0.31007 0.81507 0.0
H111 H 0.06834 0.40018 0.76662 0.0
O112 O 0.05159 0.22298 0.78807 0.0
H113 H 0.92741 0.16016 0.89277 0.0
H114 H 0.96581 0.44287 0.74954 0.0
Cu115 Cu 0.73166 0.76337 0.81429 0.0
N116 N 0.74977 0.83026 0.78646 0.0
N117 N 0.8077 0.88215 0.75053 0.0
C118 C 0.77682 0.81556 0.76431 0.0
C119 C 0.79488 0.93999 0.76367 0.0
C120 C 0.75978 0.90804 0.78601 0.0
O121 O 0.69684 0.64893 0.79825 0.0
C122 C 0.84855 0.8583 0.85903 0.0
O123 O 0.80824 0.89545 0.86384 0.0
H124 H 0.78228 0.76066 0.75987 0.0
H125 H 0.74996 0.94257 0.80206 0.0
N126 N 0.65673 0.75782 0.83538 0.0
N127 N 0.5475 0.74359 0.84919 0.0
C128 C 0.58982 0.75645 0.82857 0.0
C129 C 0.65573 0.74402 0.86094 0.0
C130 C 0.58907 0.73677 0.86967 0.0
C131 C 0.74624 0.63235 0.78915 0.0
O132 O 0.82048 0.69136 0.79261 0.0
H133 H 0.57139 0.7618 0.80874 0.0
H134 H 0.69932 0.73672 0.87224 0.0
O135 O 0.82792 0.80455 0.83826 0.0
H136 H 0.81871 1.00456 0.75967 0.0
H137 H 0.57065 0.72284 0.88902 0.0
Cu138 Cu 0.41812 0.39289 0.65659 0.0
N139 N 0.42019 0.33065 0.62539 0.0
N140 N 0.46873 0.32101 0.58737 0.0
C141 C 0.45133 0.36829 0.60421 0.0
C142 C 0.44366 0.2479 0.59767 0.0
C143 C 0.41435 0.25436 0.62126 0.0
O144 O 0.40343 0.48059 0.64452 0.0
C145 C 0.54499 0.46047 0.70282 0.0
O146 O 0.49867 0.45374 0.72079 0.0
H147 H 0.4696 0.4335 0.60271 0.0
H148 H 0.39744 0.21007 0.63556 0.0
N149 N 0.33737 0.33057 0.67634 0.0
N150 N 0.22767 0.22811 0.68851 0.0
C151 C 0.27738 0.25096 0.66991 0.0
C152 C 0.32447 0.35918 0.69959 0.0
C153 C 0.25731 0.29557 0.70737 0.0
C154 C 0.45995 0.5459 0.63762 0.0
O155 O 0.53136 0.55943 0.64147 0.0
H156 H 0.26956 0.21125 0.65172 0.0
H157 H 0.35993 0.4229 0.70975 0.0
O158 O 0.51919 0.44033 0.67808 0.0
H159 H 0.45432 0.19798 0.59056 0.0
H160 H 0.23098 0.29965 0.72492 0.0
Cu161 Cu 0.6883 0.1047 0.64276 0.0
N162 N 0.72888 0.16801 0.61549 0.0
N163 N 0.73117 0.25971 0.58931 0.0
C164 C 0.70309 0.22049 0.61038 0.0
C165 C 0.7772 0.23088 0.58047 0.0
C166 C 0.77568 0.17361 0.59686 0.0
O167 O 0.58894 1.00909 0.62915 0.0
C168 C 0.64979 0.18361 0.68823 0.0
O169 O 0.6028 0.11232 0.69692 0.0
H170 H 0.66202 0.22778 0.62164 0.0
H171 H 0.8045 0.13727 0.59484 0.0
N172 N 0.74454 0.06413 0.66019 0.0
N173 N 0.83049 0.02805 0.67423 0.0
C174 C 0.81188 0.06704 0.65624 0.0
C175 C 0.71983 0.02155 0.68105 0.0
C176 C 0.77279 0.99933 0.68983 0.0
C177 C 0.58233 0.95898 0.60908 0.0
O178 O 0.64209 0.97759 0.59583 0.0
H179 H 0.84677 0.09779 0.64084 0.0
H180 H 0.66659 1.00769 0.68928 0.0
O181 O 0.68334 0.18489 0.66784 0.0
H182 H 0.80753 0.24771 0.56314 0.0
H183 H 0.76912 0.965 0.70637 0.0
Cu184 Cu 0.00328 0.64449 0.64162 0.0
N185 N 0.98517 0.57761 0.66945 0.0
N186 N 0.92723 0.52572 0.70537 0.0
C187 C 0.95812 0.5923 0.6916 0.0
C188 C 0.94006 0.46788 0.69224 0.0
C189 C 0.97516 0.49982 0.6699 0.0
O190 O 0.0381 0.75894 0.65766 0.0
C191 C 0.88639 0.54957 0.59688 0.0
O192 O 0.92671 0.51242 0.59207 0.0
H193 H 0.95266 0.64721 0.69603 0.0
H194 H 0.98498 0.4653 0.65385 0.0
N195 N 0.07822 0.65005 0.62053 0.0
N196 N 0.18745 0.66428 0.60672 0.0
C197 C 0.14513 0.65141 0.62734 0.0
C198 C 0.07921 0.66385 0.59497 0.0
C199 C 0.14588 0.6711 0.58623 0.0
C200 C 0.9887 0.77551 0.66675 0.0
O201 O 0.91446 0.71651 0.6633 0.0
H202 H 0.16355 0.64606 0.64717 0.0
H203 H 0.03563 0.67116 0.58367 0.0
O204 O 0.90703 0.60332 0.61764 0.0
H205 H 0.91623 0.4033 0.69624 0.0
H206 H 0.16429 0.68503 0.56689 0.0
Cu207 Cu 0.9835 0.34832 0.13265 0.0
N208 N 0.98143 0.41056 0.16385 0.0
N209 N 0.93289 0.42019 0.20187 0.0
C210 C 0.95029 0.37291 0.18503 0.0
C211 C 0.95796 0.4933 0.19157 0.0
C212 C 0.98727 0.48685 0.16798 0.0
O213 O 0.99819 0.26062 0.14472 0.0
C214 C 0.85663 0.28074 0.08642 0.0
O215 O 0.90295 0.28747 0.06845 0.0
H216 H 0.93201 0.30771 0.18653 0.0
H217 H 0.00417 0.53114 0.15368 0.0
N218 N 0.06425 0.41063 0.1129 0.0
N219 N 0.17395 0.5131 0.10073 0.0
C220 C 0.12423 0.49024 0.11933 0.0
C221 C 0.07714 0.38202 0.08965 0.0
C222 C 0.14431 0.44564 0.08187 0.0
C223 C 0.94167 0.1953 0.15162 0.0
O224 O 0.87026 0.18178 0.14777 0.0
H225 H 0.13206 0.52995 0.13752 0.0
H226 H 0.04169 0.31831 0.07949 0.0
O227 O 0.88242 0.30088 0.11116 0.0
H228 H 0.9473 0.54323 0.19868 0.0
H229 H 0.17063 0.44156 0.06432 0.0
Cu230 Cu 0.71331 0.6365 0.14648 0.0
N231 N 0.67273 0.5732 0.17375 0.0
N232 N 0.67045 0.4815 0.19993 0.0
C233 C 0.69853 0.52071 0.17886 0.0
C234 C 0.62442 0.51032 0.20877 0.0
C235 C 0.62593 0.5676 0.19238 0.0
O236 O 0.81268 0.73211 0.16009 0.0
C237 C 0.75183 0.5576 0.10101 0.0
O238 O 0.79882 0.62889 0.09232 0.0
H239 H 0.73959 0.51342 0.1676 0.0
H240 H 0.59711 0.60394 0.1944 0.0
N241 N 0.65707 0.67708 0.12905 0.0
N242 N 0.57113 0.71315 0.11501 0.0
C243 C 0.58973 0.67416 0.133 0.0
C244 C 0.68179 0.71966 0.10819 0.0
C245 C 0.62883 0.74188 0.09941 0.0
C246 C 0.81928 0.78222 0.18016 0.0
O247 O 0.75952 0.76361 0.19341 0.0
H248 H 0.55484 0.64341 0.1484 0.0
H249 H 0.73502 0.73352 0.09996 0.0
O250 O 0.71827 0.55632 0.1214 0.0
H251 H 0.59409 0.4935 0.2261 0.0
H252 H 0.63249 0.77621 0.08287 0.0
Cu253 Cu 0.39833 0.09671 0.14762 0.0
N254 N 0.41645 0.1636 0.11979 0.0
N255 N 0.47438 0.21549 0.08387 0.0
C256 C 0.4435 0.1489 0.09764 0.0
C257 C 0.46155 0.27333 0.097 0.0
C258 C 0.42645 0.24138 0.11934 0.0
O259 O 0.36352 0.98227 0.13158 0.0
C260 C 0.51522 0.19164 0.19236 0.0
O261 O 0.47491 0.22879 0.19717 0.0
H262 H 0.44896 0.094 0.09321 0.0
H263 H 0.41663 0.27591 0.13539 0.0
N264 N 0.3234 0.09116 0.16871 0.0
N265 N 0.21417 0.07693 0.18252 0.0
C266 C 0.25649 0.08979 0.1619 0.0
C267 C 0.3224 0.07735 0.19427 0.0
C268 C 0.25574 0.0701 0.20301 0.0
C269 C 0.41292 0.96569 0.12249 0.0
O270 O 0.48715 0.0247 0.12594 0.0
H271 H 0.23806 0.09514 0.14207 0.0
H272 H 0.36599 0.07005 0.20557 0.0
O273 O 0.49459 0.13789 0.1716 0.0
H274 H 0.48539 0.3379 0.093 0.0
H275 H 0.23732 0.05617 0.22235 0.0
Cu276 Cu 0.08479 0.72623 0.98993 0.0
N277 N 0.08686 0.66398 0.95872 0.0
N278 N 0.1354 0.65434 0.92071 0.0
C279 C 0.118 0.70162 0.93754 0.0
C280 C 0.11034 0.58124 0.93101 0.0
C281 C 0.08103 0.5877 0.9546 0.0
O282 O 0.07011 0.81393 0.97785 0.0
C283 C 0.21167 0.79381 1.03616 0.0
O284 O 0.16535 0.78708 1.05412 0.0
H285 H 0.13626 0.76683 0.93605 0.0
H286 H 0.06413 0.54341 0.9689 0.0
N287 N 0.00405 0.66391 1.00968 0.0
N288 N 0.89435 0.56145 1.02184 0.0
C289 C 0.94407 0.5843 1.00325 0.0
C290 C 0.99115 0.69252 1.03292 0.0
C291 C 0.92399 0.62891 1.04071 0.0
C292 C 0.12662 0.87924 0.97096 0.0
O293 O 0.19803 0.89276 0.9748 0.0
H294 H 0.93624 0.54459 0.98506 0.0
H295 H 0.02661 0.75624 1.04309 0.0
O296 O 0.18587 0.77367 1.01142 0.0
H297 H 0.121 0.53132 0.9239 0.0
H298 H 0.89766 0.63299 1.05826 0.0
Cu299 Cu 0.35498 0.43804 0.97609 0.0
N300 N 0.39556 0.50134 0.94883 0.0
N301 N 0.39784 0.59305 0.92265 0.0
C302 C 0.36976 0.55383 0.94371 0.0
C303 C 0.44387 0.56422 0.91381 0.0
C304 C 0.44236 0.50695 0.93019 0.0
O305 O 0.25561 0.34243 0.96249 0.0
C306 C 0.31647 0.51695 1.02156 0.0
O307 O 0.26948 0.44565 1.03025 0.0
H308 H 0.3287 0.56112 0.95498 0.0
H309 H 0.47118 0.47061 0.92817 0.0
N310 N 0.41122 0.39747 0.99353 0.0
N311 N 0.49716 0.36139 1.00757 0.0
C312 C 0.47856 0.40038 0.98958 0.0
C313 C 0.38651 0.35489 1.01438 0.0
C314 C 0.43946 0.33267 1.02316 0.0
C315 C 0.24901 0.29232 0.94241 0.0
O316 O 0.30877 0.31093 0.92916 0.0
H317 H 0.51345 0.43114 0.97417 0.0
H318 H 0.33327 0.34102 1.02262 0.0
O319 O 0.35002 0.51823 1.00117 0.0
H320 H 0.4742 0.58104 0.89647 0.0
H321 H 0.4358 0.29833 1.0397 0.0
Cu322 Cu 0.66995 0.97783 0.97495 0.0
N323 N 0.65184 0.91095 1.00278 0.0
N324 N 0.59391 0.85905 1.03871 0.0
C325 C 0.62479 0.92564 1.02493 0.0
C326 C 0.60674 0.80121 1.02557 0.0
C327 C 0.64184 0.83316 1.00323 0.0
O328 O 0.70477 0.09227 0.99099 0.0
C329 C 0.55306 0.8829 0.93021 0.0
O330 O 0.59338 0.84576 0.9254 0.0
H331 H 0.61933 0.98055 1.02937 0.0
H332 H 0.65166 0.79864 0.98718 0.0
N333 N 0.74489 0.98339 0.95386 0.0
N334 N 0.85412 0.99762 0.94005 0.0
C335 C 0.8118 0.98475 0.96067 0.0
C336 C 0.74588 0.99719 0.9283 0.0
C337 C 0.81255 1.00444 0.91957 0.0
C338 C 0.65537 0.10885 1.00009 0.0
O339 O 0.58114 0.04985 0.99663 0.0
H340 H 0.83022 0.9794 0.9805 0.0
H341 H 0.7023 1.00449 0.917 0.0
O342 O 0.5737 0.93665 0.95098 0.0
H343 H 0.58291 0.73664 1.02957 0.0
H344 H 0.83096 0.01837 0.90022 0.0
Cu345 Cu 0.65016 0.68165 0.46598 0.0
N346 N 0.64809 0.74389 0.49719 0.0
N347 N 0.59954 0.75352 0.5352 0.0
C348 C 0.61695 0.70624 0.51836 0.0
C349 C 0.62462 0.82663 0.5249 0.0
C350 C 0.65392 0.82018 0.50131 0.0
O351 O 0.66485 0.59395 0.47805 0.0
C352 C 0.52329 0.61407 0.41975 0.0
O353 O 0.56961 0.6208 0.40178 0.0
H354 H 0.59867 0.64104 0.51986 0.0
H355 H 0.67083 0.86447 0.48701 0.0
N356 N 0.73091 0.74396 0.44623 0.0
N357 N 0.84061 0.84643 0.43406 0.0
C358 C 0.79089 0.82357 0.45266 0.0
C359 C 0.7438 0.71535 0.42299 0.0
C360 C 0.81097 0.77897 0.4152 0.0
C361 C 0.60833 0.52863 0.48495 0.0
O362 O 0.53691 0.51511 0.4811 0.0
H363 H 0.79872 0.86328 0.47085 0.0
H364 H 0.70835 0.65163 0.41282 0.0
O365 O 0.54908 0.63421 0.44449 0.0
H366 H 0.61396 0.87656 0.53201 0.0
H367 H 0.83729 0.77489 0.39765 0.0
Cu368 Cu 0.37997 0.96983 0.47982 0.0
N369 N 0.33939 0.90653 0.50708 0.0
N370 N 0.33711 0.81482 0.53326 0.0
C371 C 0.36518 0.85404 0.5122 0.0
C372 C 0.29108 0.84365 0.5421 0.0
C373 C 0.29259 0.90092 0.52571 0.0
O374 O 0.47934 0.06544 0.49342 0.0
C375 C 0.41849 0.89093 0.43435 0.0
O376 O 0.46548 0.96222 0.42566 0.0
H377 H 0.40625 0.84675 0.50093 0.0
H378 H 0.26377 0.93727 0.52773 0.0
N379 N 0.32373 1.0104 0.46238 0.0
N380 N 0.23779 0.04648 0.44834 0.0
C381 C 0.25639 1.00749 0.46633 0.0
C382 C 0.34845 0.05299 0.44153 0.0
C383 C 0.29549 0.07521 0.43274 0.0
C384 C 0.48594 0.11555 0.5135 0.0
O385 O 0.42618 0.09694 0.52674 0.0
H386 H 0.2215 0.97674 0.48173 0.0
H387 H 0.40168 0.06685 0.43329 0.0
O388 O 0.38493 0.88964 0.45473 0.0
H389 H 0.26074 0.82683 0.55944 0.0
H390 H 0.29915 0.10954 0.41621 0.0
Cu391 Cu 0.06499 0.43004 0.48095 0.0
N392 N 0.0831 0.49692 0.45312 0.0
N393 N 0.14104 0.54882 0.4172 0.0
C394 C 0.11016 0.48223 0.43098 0.0
C395 C 0.12821 0.60666 0.43033 0.0
C396 C 0.09311 0.57471 0.45267 0.0
O397 O 0.03017 0.3156 0.46492 0.0
C398 C 0.18188 0.52497 0.52569 0.0
O399 O 0.14156 0.56211 0.5305 0.0
H400 H 0.11562 0.42733 0.42654 0.0
H401 H 0.08328 0.60923 0.46872 0.0
N402 N 0.99005 0.42448 0.50204 0.0
N403 N 0.88083 0.41026 0.51585 0.0
C404 C 0.92315 0.42312 0.49524 0.0
C405 C 0.98906 0.41068 0.5276 0.0
C406 C 0.9224 0.40343 0.53634 0.0
C407 C 0.07958 0.29902 0.45582 0.0
O408 O 0.15381 0.35803 0.45928 0.0
H409 H 0.90472 0.42847 0.4754 0.0
H410 H 0.03264 0.40338 0.5389 0.0
O411 O 0.16124 0.47122 0.50493 0.0
H412 H 0.15204 0.67123 0.42633 0.0
H413 H 0.90398 0.3895 0.55568 0.0
Zn414 Zn 0.99114 1.00984 0.16142 0.0
Zn415 Zn 0.99782 0.10514 0.24541 0.0
Zn416 Zn 0.99447 0.05003 0.20593 0.0
C417 C 0.04478 0.97995 0.24593 0.0
C418 C 0.14403 0.18536 0.24767 0.0
O419 O 0.98757 0.14375 0.1854 0.0
O420 O 0.93824 0.06664 0.14622 0.0
C421 C 0.88539 0.86823 0.18336 0.0
O422 O 0.07458 0.01776 0.22586 0.0
O423 O 1.00002 0.99936 0.25746 0.0
O424 O 0.0999 0.21165 0.2554 0.0
O425 O 0.11606 0.12079 0.22951 0.0
O426 O 0.92836 0.88829 0.16497 0.0
O427 O 0.89384 0.92508 0.20173 0.0
O428 O 0.107 0.05478 0.20311 0.0
O429 O 0.1049 0.05969 0.15989 0.0
C430 C 0.14112 0.06462 0.18183 0.0
O431 O 0.88413 0.97794 0.22526 0.0
O432 O 0.89537 0.10025 0.23761 0.0
C433 C 0.95539 0.13204 0.16172 0.0
C434 C 0.8567 0.02073 0.23686 0.0
Zn435 Zn 0.06956 0.11322 0.37237 0.0
Zn436 Zn 0.04473 0.05896 0.45855 0.0
Zn437 Zn 0.04572 0.06509 0.41166 0.0
C438 C 0.05973 0.21156 0.44955 0.0
C439 C 0.90871 0.92081 0.4353 0.0
O440 O 0.97592 0.94136 0.39005 0.0
O441 O 0.05502 0.99781 0.35991 0.0
C442 C 0.20299 0.17713 0.38773 0.0
O443 O 0.02997 0.17 0.4262 0.0
O444 O 0.08095 0.18055 0.46711 0.0
O445 O 0.93188 0.97372 0.45603 0.0
O446 O 0.95081 0.93764 0.41604 0.0
O447 O 0.17072 0.22076 0.38653 0.0
O448 O 0.16638 0.10757 0.39784 0.0
O449 O 0.97928 0.13172 0.40054 0.0
O450 O 0.98694 0.125 0.3575 0.0
C451 C 0.95401 0.13388 0.37669 0.0
O452 O 0.15908 0.08525 0.42637 0.0
O453 O 0.12338 0.0225 0.46205 0.0
C454 C 0.0043 0.93275 0.36893 0.0
C455 C 0.17259 0.0523 0.44575 0.0
Zn456 Zn 0.07714 0.0647 0.96116 0.0
Zn457 Zn 0.07047 0.9694 0.87717 0.0
Zn458 Zn 0.07382 0.02451 0.91664 0.0
C459 C 0.02351 0.0946 0.87664 0.0
C460 C 0.92426 0.88918 0.8749 0.0
O461 O 0.08072 0.93079 0.93717 0.0
O462 O 0.13004 1.00789 0.97636 0.0
C463 C 0.1829 0.20631 0.93921 0.0
O464 O 0.99371 0.05678 0.89671 0.0
O465 O 0.06827 0.07519 0.86511 0.0
O466 O 0.96839 0.86289 0.86717 0.0
O467 O 0.95223 0.95375 0.89307 0.0
O468 O 0.13994 0.18625 0.95761 0.0
O469 O 0.17445 0.14947 0.92084 0.0
O470 O 0.96129 0.01976 0.91946 0.0
O471 O 0.96339 0.01485 0.96268 0.0
C472 C 0.92717 1.00992 0.94074 0.0
O473 O 0.18416 0.09661 0.89731 0.0
O474 O 0.17292 0.9743 0.88497 0.0
C475 C 0.1129 0.9425 0.96086 0.0
C476 C 0.21159 0.05382 0.88571 0.0
Zn477 Zn 0.99871 0.96131 0.75021 0.0
Zn478 Zn 0.02354 0.01558 0.66403 0.0
Zn479 Zn 0.02256 1.00945 0.71092 0.0
C480 C 0.00855 0.86297 0.67303 0.0
C481 C 0.15956 0.15372 0.68727 0.0
O482 O 0.09235 0.13317 0.73253 0.0
O483 O 0.01326 0.07673 0.76267 0.0
C484 C 0.86529 0.8974 0.73484 0.0
O485 O 0.0383 0.90453 0.69637 0.0
O486 O 0.98732 0.89398 0.65546 0.0
O487 O 0.1364 0.10081 0.66654 0.0
O488 O 0.11747 0.13689 0.70654 0.0
O489 O 0.89756 0.85377 0.73604 0.0
O490 O 0.90189 0.96697 0.72473 0.0
O491 O 0.08899 0.94281 0.72203 0.0
O492 O 0.08133 0.94953 0.76507 0.0
C493 C 0.11426 0.94065 0.74588 0.0
O494 O 0.9092 0.98929 0.6962 0.0
O495 O 0.94489 0.05204 0.66052 0.0
C496 C 0.06398 0.14179 0.75364 0.0
C497 C 0.89569 0.02223 0.67682 0.0
Zn498 Zn 0.66447 0.43847 0.57874 0.0
Zn499 Zn 0.6578 0.34317 0.49475 0.0
Zn500 Zn 0.66112 0.38336 0.53927 0.0
C501 C 0.80777 0.39795 0.51516 0.0
C502 C 0.55205 0.20156 0.51669 0.0
O503 O 0.55079 0.31127 0.55859 0.0
O504 O 0.56203 0.43358 0.57094 0.0
C505 C 0.81068 0.51869 0.581 0.0
O506 O 0.77365 0.38811 0.53644 0.0
O507 O 0.77156 0.39302 0.49322 0.0
O508 O 0.59501 0.22162 0.4983 0.0
O509 O 0.5605 0.2584 0.53506 0.0
O510 O 0.76656 0.54498 0.58873 0.0
O511 O 0.78272 0.45412 0.56284 0.0
O512 O 0.74124 0.35109 0.5592 0.0
O513 O 0.66667 0.33268 0.59079 0.0
C514 C 0.71144 0.31327 0.57926 0.0
O515 O 0.65423 0.47708 0.51873 0.0
O516 O 0.60489 0.39997 0.47955 0.0
C517 C 0.52335 0.35406 0.57019 0.0
C518 C 0.62204 0.46536 0.49505 0.0
Zn519 Zn 0.71139 0.39229 0.79188 0.0
Zn520 Zn 0.73622 0.44655 0.7057 0.0
Zn521 Zn 0.71238 0.39842 0.74499 0.0
C522 C 0.62068 0.46721 0.71002 0.0
C523 C 0.86965 0.51046 0.72106 0.0
O524 O 0.82574 0.41858 0.7597 0.0
O525 O 0.79005 0.35583 0.79539 0.0
C526 C 0.57537 0.25414 0.76863 0.0
O527 O 0.64594 0.46506 0.73387 0.0
O528 O 0.6536 0.45833 0.69084 0.0
O529 O 0.83738 0.55409 0.71987 0.0
O530 O 0.83304 0.44089 0.73118 0.0
O531 O 0.59854 0.30705 0.78936 0.0
O532 O 0.61747 0.27097 0.74937 0.0
O533 O 0.69663 0.50334 0.75953 0.0
O534 O 0.74761 0.51388 0.80044 0.0
C535 C 0.72639 0.54489 0.78288 0.0
O536 O 0.64258 0.27469 0.72338 0.0
O537 O 0.72168 0.33114 0.69324 0.0
C538 C 0.83925 0.38563 0.77909 0.0
C539 C 0.67096 0.26608 0.70227 0.0
Zn540 Zn 0.74382 0.39803 0.29449 0.0
Zn541 Zn 0.73714 0.30273 0.2105 0.0
Zn542 Zn 0.74049 0.35785 0.24997 0.0
C543 C 0.69018 0.42793 0.20998 0.0
C544 C 0.59093 0.22252 0.20824 0.0
O545 O 0.74739 0.26413 0.27051 0.0
O546 O 0.79672 0.34124 0.30969 0.0
C547 C 0.84957 0.53965 0.27255 0.0
O548 O 0.66038 0.39012 0.23004 0.0
O549 O 0.73494 0.40852 0.19845 0.0
O550 O 0.63506 0.19622 0.2005 0.0
O551 O 0.6189 0.28709 0.2264 0.0
O552 O 0.8066 0.51959 0.29094 0.0
O553 O 0.84112 0.4828 0.25418 0.0
O554 O 0.62796 0.3531 0.2528 0.0
O555 O 0.63006 0.34818 0.29602 0.0
C556 C 0.59384 0.34325 0.27408 0.0
O557 O 0.85083 0.42994 0.23065 0.0
O558 O 0.83959 0.30763 0.2183 0.0
C559 C 0.77957 0.27584 0.29419 0.0
C560 C 0.87826 0.38715 0.21905 0.0
Zn561 Zn 0.66539 0.29465 0.08354 0.0
Zn562 Zn 0.69022 0.34892 0.99736 0.0
Zn563 Zn 0.68924 0.34279 1.04425 0.0
C564 C 0.67523 0.19632 1.00636 0.0
C565 C 0.82624 0.48706 1.02061 0.0
O566 O 0.75903 0.46651 0.06586 0.0
O567 O 0.67994 0.41007 0.096 0.0
C568 C 0.53197 0.23074 0.06818 0.0
O569 O 0.70498 0.23787 1.02971 0.0
O570 O 0.654 0.22732 0.9888 0.0
O571 O 0.80308 0.43415 0.99988 0.0
O572 O 0.78415 0.47024 1.03987 0.0
O573 O 0.56424 0.18711 0.06937 0.0
O574 O 0.56857 0.30031 1.05806 0.0
O575 O 0.75567 0.27615 1.05537 0.0
O576 O 0.74801 0.28287 0.0984 0.0
C577 C 0.78094 0.27399 0.07922 0.0
O578 O 0.57588 0.32263 1.02954 0.0
O579 O 0.61157 0.38538 0.99385 0.0
C580 C 0.73066 0.47513 0.08697 0.0
C581 C 0.56237 0.35557 1.01015 0.0
Zn582 Zn 0.33114 0.7718 0.91207 0.0
Zn583 Zn 0.32447 0.67651 0.82809 0.0
Zn584 Zn 0.32779 0.71669 0.8726 0.0
C585 C 0.47444 0.73129 0.8485 0.0
C586 C 0.21871 0.53489 0.85003 0.0
O587 O 0.21746 0.6446 0.89193 0.0
O588 O 0.2287 0.76691 0.90427 0.0
C589 C 0.47735 0.85202 0.91434 0.0
O590 O 0.44032 0.72144 0.86978 0.0
O591 O 0.43823 0.72635 0.82656 0.0
O592 O 0.26168 0.55496 0.83163 0.0
O593 O 0.22717 0.59174 0.8684 0.0
O594 O 0.43323 0.87832 0.92207 0.0
O595 O 0.44938 0.78745 0.89617 0.0
O596 O 0.40791 0.68442 0.89253 0.0
O597 O 0.33334 0.66602 0.92413 0.0
C598 C 0.37811 0.64661 0.9126 0.0
O599 O 0.32089 0.81041 0.85207 0.0
O600 O 0.27157 0.73332 0.81288 0.0
C601 C 0.19002 0.68739 0.90353 0.0
C602 C 0.28872 0.7987 0.82838 0.0
Zn603 Zn 0.37807 0.72563 0.12521 0.0
Zn604 Zn 0.4029 0.77989 1.03903 0.0
Zn605 Zn 0.37906 0.73176 0.07832 0.0
C606 C 0.28736 0.80055 1.04336 0.0
C607 C 0.53633 0.8438 1.0544 0.0
O608 O 0.49242 0.75192 0.09304 0.0
O609 O 0.45673 0.68917 0.12872 0.0
C610 C 0.24205 0.58748 0.10197 0.0
O611 O 0.31262 0.7984 0.06721 0.0
O612 O 0.32028 0.79167 1.02417 0.0
O613 O 0.50406 0.88743 1.0532 0.0
O614 O 0.49972 0.77423 0.06451 0.0
O615 O 0.26522 0.64039 0.1227 0.0
O616 O 0.28415 0.60431 0.0827 0.0
O617 O 0.36331 0.83668 0.09287 0.0
O618 O 0.41429 0.84722 0.13378 0.0
C619 C 0.39307 0.87823 0.11621 0.0
O620 O 0.30926 0.60803 1.05671 0.0
O621 O 0.38836 0.66448 1.02657 0.0
C622 C 0.50593 0.71897 0.11242 0.0
C623 C 0.33763 0.59942 1.0356 0.0
Zn624 Zn 0.41047 0.73136 0.62782 0.0
Zn625 Zn 0.4038 0.63606 0.54383 0.0
Zn626 Zn 0.40715 0.69117 0.58331 0.0
C627 C 0.35684 0.76126 0.54331 0.0
C628 C 0.25759 0.55584 0.54157 0.0
O629 O 0.41405 0.59745 0.60384 0.0
O630 O 0.46338 0.67456 0.64302 0.0
C631 C 0.51623 0.87298 0.60588 0.0
O632 O 0.32704 0.72345 0.56338 0.0
O633 O 0.4016 0.74185 0.53178 0.0
O634 O 0.30171 0.52955 0.53384 0.0
O635 O 0.28556 0.62042 0.55973 0.0
O636 O 0.47326 0.85291 0.62427 0.0
O637 O 0.50777 0.81613 0.58751 0.0
O638 O 0.29462 0.68643 0.58613 0.0
O639 O 0.29672 0.68151 0.62935 0.0
C640 C 0.2605 0.67658 0.60741 0.0
O641 O 0.51749 0.76327 0.56398 0.0
O642 O 0.50624 0.64095 0.55163 0.0
C643 C 0.44623 0.60917 0.62752 0.0
C644 C 0.54492 0.72048 0.55238 0.0
Zn645 Zn 0.35688 0.68225 0.33069 0.0
Zn646 Zn 0.33205 0.62798 0.41687 0.0
Zn647 Zn 0.3559 0.67612 0.37758 0.0
C648 C 0.4476 0.60732 0.41255 0.0
C649 C 0.19863 0.56407 0.40151 0.0
O650 O 0.24254 0.65596 0.36287 0.0
O651 O 0.27823 0.71871 0.32719 0.0
C652 C 0.4929 0.82039 0.35394 0.0
O653 O 0.42233 0.60948 0.3887 0.0
O654 O 0.41467 0.6162 0.43174 0.0
O655 O 0.2309 0.52044 0.40271 0.0
O656 O 0.23523 0.63364 0.3914 0.0
O657 O 0.46974 0.76748 0.33321 0.0
O658 O 0.45081 0.80357 0.3732 0.0
O659 O 0.37165 0.5712 0.36304 0.0
O660 O 0.32066 0.56065 0.32213 0.0
C661 C 0.34189 0.52965 0.33969 0.0
O662 O 0.42569 0.79984 0.39919 0.0
O663 O 0.3466 0.7434 0.42933 0.0
C664 C 0.22903 0.6889 0.34349 0.0
C665 C 0.39732 0.80846 0.42031 0.0
loop_
_geom_bond_atom_site_label_1
_geom_bond_atom_site_label_2
_geom_bond_distance
_geom_bond_site_symmetry_2
_ccdc_geom_bond_type
Cu0 N1 1.999 . S
Cu0 O6 1.974 . S
Cu0 N11 1.985 1_545 S
Cu0 O20 1.959 1_545 S
N1 Cu0 1.999 . S
N1 C3 1.263 . S
N1 C5 1.389 1_545 S
N2 C3 1.358 . S
N2 C4 1.400 . S
C3 N1 1.263 . S
C3 N2 1.358 . S
C3 H9 0.930 . S
C4 N2 1.400 . S
C4 C5 1.351 1_545 S
C4 H21 0.927 1_545 S
C5 N1 1.389 1_565 S
C5 C4 1.351 1_565 S
C5 H10 0.930 . S
O6 Cu0 1.974 . S
O6 C16 1.282 . S
C7 O8 1.261 . S
C7 O20 1.251 1_545 S
O8 C7 1.261 . S
H9 C3 0.930 . S
H10 C5 0.930 . S
N11 Cu0 1.985 1_565 S
N11 C13 1.335 . S
N11 C14 1.390 1_565 S
N12 C13 1.345 . S
N12 C15 1.336 1_565 S
C13 N11 1.335 . S
C13 N12 1.345 . S
C13 H18 0.930 . S
C14 N11 1.390 1_545 S
C14 C15 1.346 . S
C14 H19 0.930 . S
C15 N12 1.336 1_545 S
C15 C14 1.346 . S
C15 H22 0.929 . S
C16 O6 1.282 . S
C16 O17 1.216 . S
O17 C16 1.216 . S
H18 C13 0.930 . S
H19 C14 0.930 . S
O20 Cu0 1.959 1_565 S
O20 C7 1.251 1_565 S
H21 C4 0.927 1_565 S
H22 C15 0.929 . S
Cu23 N24 1.999 . S
Cu23 O29 1.974 1_455 S
Cu23 N34 1.985 . S
Cu23 O43 1.959 . S
N24 Cu23 1.999 . S
N24 C26 1.263 1_455 S
N24 C28 1.389 . S
N25 C26 1.358 . S
N25 C27 1.400 1_655 S
C26 N24 1.263 1_655 S
C26 N25 1.358 . S
C26 H32 0.930 . S
C27 N25 1.400 1_455 S
C27 C28 1.351 . S
C27 H44 0.930 . S
C28 N24 1.389 . S
C28 C27 1.351 . S
C28 H33 0.930 . S
O29 Cu23 1.974 1_655 S
O29 C39 1.282 . S
C30 O31 1.261 1_455 S
C30 O43 1.251 . S
O31 C30 1.261 1_655 S
H32 C26 0.930 . S
H33 C28 0.930 . S
N34 Cu23 1.985 . S
N34 C36 1.335 . S
N34 C37 1.390 . S
N35 C36 1.345 . S
N35 C38 1.336 . S
C36 N34 1.335 . S
C36 N35 1.345 . S
C36 H41 0.930 . S
C37 N34 1.390 . S
C37 C38 1.346 . S
C37 H42 0.930 1_455 S
C38 N35 1.336 . S
C38 C37 1.346 . S
C38 H45 0.929 . S
C39 O29 1.282 . S
C39 O40 1.216 . S
O40 C39 1.216 . S
H41 C36 0.930 . S
H42 C37 0.930 1_655 S
O43 Cu23 1.959 . S
O43 C30 1.251 . S
H44 C27 0.930 . S
H45 C38 0.929 . S
Cu46 N47 1.999 . S
Cu46 O52 1.974 . S
Cu46 N57 1.985 . S
Cu46 O66 1.959 . S
N47 Cu46 1.999 . S
N47 C49 1.263 . S
N47 C51 1.389 . S
N48 C49 1.358 . S
N48 C50 1.400 . S
C49 N47 1.263 . S
C49 N48 1.358 . S
C49 H55 0.930 . S
C50 N48 1.400 . S
C50 C51 1.351 . S
C50 H67 0.930 . S
C51 N47 1.389 . S
C51 C50 1.351 . S
C51 H56 0.930 . S
O52 Cu46 1.974 . S
O52 C62 1.282 . S
C53 O54 1.261 . S
C53 O66 1.251 . S
O54 C53 1.261 . S
H55 C49 0.930 . S
H56 C51 0.930 . S
N57 Cu46 1.985 . S
N57 C59 1.335 . S
N57 C60 1.390 . S
N58 C59 1.345 . S
N58 C61 1.336 . S
C59 N57 1.335 . S
C59 N58 1.345 . S
C59 H64 0.930 . S
C60 N57 1.390 . S
C60 C61 1.346 . S
C60 H65 0.930 . S
C61 N58 1.336 . S
C61 C60 1.346 . S
C61 H68 0.929 . S
C62 O52 1.282 . S
C62 O63 1.216 . S
O63 C62 1.216 . S
H64 C59 0.930 . S
H65 C60 0.930 . S
O66 Cu46 1.959 . S
O66 C53 1.251 . S
H67 C50 0.930 . S
H68 C61 0.929 . S
Cu69 N70 1.999 . S
Cu69 O75 1.974 1_545 S
Cu69 N80 1.985 . S
Cu69 O89 1.959 . S
N70 Cu69 1.999 . S
N70 C72 1.263 1_545 S
N70 C74 1.389 . S
N71 C72 1.358 . S
N71 C73 1.400 1_565 S
C72 N70 1.263 1_565 S
C72 N71 1.358 . S
C72 H78 0.930 . S
C73 N71 1.400 1_545 S
C73 C74 1.351 . S
C73 H90 0.930 . S
C74 N70 1.389 . S
C74 C73 1.351 . S
C74 H79 0.930 . S
O75 Cu69 1.974 1_565 S
O75 C85 1.282 . S
C76 O77 1.261 1_545 S
C76 O89 1.251 . S
O77 C76 1.261 1_565 S
H78 C72 0.930 . S
H79 C74 0.930 . S
N80 Cu69 1.985 . S
N80 C82 1.335 . S
N80 C83 1.390 . S
N81 C82 1.345 . S
N81 C84 1.336 . S
C82 N80 1.335 . S
C82 N81 1.345 . S
C82 H87 0.930 . S
C83 N80 1.390 . S
C83 C84 1.346 . S
C83 H88 0.930 1_545 S
C84 N81 1.336 . S
C84 C83 1.346 . S
C84 H91 0.929 . S
C85 O75 1.282 . S
C85 O86 1.216 . S
O86 C85 1.216 . S
H87 C82 0.930 . S
H88 C83 0.930 1_565 S
O89 Cu69 1.959 . S
O89 C76 1.251 . S
H90 C73 0.930 . S
H91 C84 0.929 . S
Cu92 N93 1.999 . S
Cu92 O98 1.974 . S
Cu92 N103 1.985 1_455 S
Cu92 O112 1.959 1_455 S
N93 Cu92 1.999 . S
N93 C95 1.263 . S
N93 C97 1.389 1_455 S
N94 C95 1.358 . S
N94 C96 1.400 . S
C95 N93 1.263 . S
C95 N94 1.358 . S
C95 H101 0.930 . S
C96 N94 1.400 . S
C96 C97 1.346 1_455 S
C96 H113 0.930 . S
C97 N93 1.389 1_655 S
C97 C96 1.346 1_655 S
C97 H102 0.935 . S
O98 Cu92 1.974 . S
O98 C108 1.282 . S
C99 O100 1.261 . S
C99 O112 1.251 1_455 S
O100 C99 1.261 . S
H101 C95 0.930 . S
H102 C97 0.935 . S
N103 Cu92 1.985 1_655 S
N103 C105 1.335 . S
N103 C106 1.390 1_655 S
N104 C105 1.345 . S
N104 C107 1.340 . S
C105 N103 1.335 . S
C105 N104 1.345 . S
C105 H110 0.930 . S
C106 N103 1.390 1_455 S
C106 C107 1.340 1_455 S
C106 H111 0.930 . S
C107 N104 1.340 . S
C107 C106 1.340 1_655 S
C107 H114 0.932 1_655 S
C108 O98 1.282 . S
C108 O109 1.216 . S
O109 C108 1.216 . S
H110 C105 0.930 . S
H111 C106 0.930 . S
O112 Cu92 1.959 1_655 S
O112 C99 1.251 1_655 S
H113 C96 0.930 . S
H114 C107 0.932 1_455 S
Cu115 N116 1.999 . S
Cu115 O121 1.974 . S
Cu115 N126 1.985 . S
Cu115 O135 1.959 . S
N116 Cu115 1.999 . S
N116 C118 1.263 . S
N116 C120 1.389 . S
N117 C118 1.358 . S
N117 C119 1.400 . S
C118 N116 1.263 . S
C118 N117 1.358 . S
C118 H124 0.930 . S
C119 N117 1.400 . S
C119 C120 1.351 . S
C119 H136 0.930 . S
C120 N116 1.389 . S
C120 C119 1.351 . S
C120 H125 0.930 . S
O121 Cu115 1.974 . S
O121 C131 1.282 . S
C122 O123 1.261 . S
C122 O135 1.251 . S
O123 C122 1.261 . S
H124 C118 0.930 . S
H125 C120 0.930 . S
N126 Cu115 1.985 . S
N126 C128 1.335 . S
N126 C129 1.390 . S
N127 C128 1.345 . S
N127 C130 1.336 . S
C128 N126 1.335 . S
C128 N127 1.345 . S
C128 H133 0.930 . S
C129 N126 1.390 . S
C129 C130 1.346 . S
C129 H134 0.930 . S
C130 N127 1.336 . S
C130 C129 1.346 . S
C130 H137 0.929 . S
C131 O121 1.282 . S
C131 O132 1.216 . S
O132 C131 1.216 . S
H133 C128 0.930 . S
H134 C129 0.930 . S
O135 Cu115 1.959 . S
O135 C122 1.251 . S
H136 C119 0.930 . S
H137 C130 0.929 . S
Cu138 N139 1.999 . S
Cu138 O144 1.974 . S
Cu138 N149 1.985 . S
Cu138 O158 1.959 . S
N139 Cu138 1.999 . S
N139 C141 1.263 . S
N139 C143 1.389 . S
N140 C141 1.358 . S
N140 C142 1.400 . S
C141 N139 1.263 . S
C141 N140 1.358 . S
C141 H147 0.930 . S
C142 N140 1.400 . S
C142 C143 1.351 . S
C142 H159 0.930 . S
C143 N139 1.389 . S
C143 C142 1.351 . S
C143 H148 0.930 . S
O144 Cu138 1.974 . S
O144 C154 1.282 . S
C145 O146 1.261 . S
C145 O158 1.251 . S
O146 C145 1.261 . S
H147 C141 0.930 . S
H148 C143 0.930 . S
N149 Cu138 1.985 . S
N149 C151 1.335 . S
N149 C152 1.390 . S
N150 C151 1.345 . S
N150 C153 1.336 . S
C151 N149 1.335 . S
C151 N150 1.345 . S
C151 H156 0.930 . S
C152 N149 1.390 . S
C152 C153 1.346 . S
C152 H157 0.930 . S
C153 N150 1.336 . S
C153 C152 1.346 . S
C153 H160 0.929 . S
C154 O144 1.282 . S
C154 O155 1.216 . S
O155 C154 1.216 . S
H156 C151 0.930 . S
H157 C152 0.930 . S
O158 Cu138 1.959 . S
O158 C145 1.251 . S
H159 C142 0.930 . S
H160 C153 0.929 . S
Cu161 N162 1.999 . S
Cu161 O167 1.974 1_545 S
Cu161 N172 1.985 . S
Cu161 O181 1.959 . S
N162 Cu161 1.999 . S
N162 C164 1.263 . S
N162 C166 1.389 . S
N163 C164 1.358 . S
N163 C165 1.400 . S
C164 N162 1.263 . S
C164 N163 1.358 . S
C164 H170 0.930 . S
C165 N163 1.400 . S
C165 C166 1.351 . S
C165 H182 0.930 . S
C166 N162 1.389 . S
C166 C165 1.351 . S
C166 H171 0.930 . S
O167 Cu161 1.974 1_565 S
O167 C177 1.282 . S
C168 O169 1.261 . S
C168 O181 1.251 . S
O169 C168 1.261 . S
H170 C164 0.930 . S
H171 C166 0.930 . S
N172 Cu161 1.985 . S
N172 C174 1.335 . S
N172 C175 1.390 1_545 S
N173 C174 1.345 1_565 S
N173 C176 1.336 . S
C174 N172 1.335 . S
C174 N173 1.345 1_545 S
C174 H179 0.930 . S
C175 N172 1.390 1_565 S
C175 C176 1.346 . S
C175 H180 0.930 . S
C176 N173 1.336 . S
C176 C175 1.346 . S
C176 H183 0.929 . S
C177 O167 1.282 . S
C177 O178 1.216 . S
O178 C177 1.216 . S
H179 C174 0.930 . S
H180 C175 0.930 . S
O181 Cu161 1.959 . S
O181 C168 1.251 . S
H182 C165 0.930 . S
H183 C176 0.929 . S
Cu184 N185 1.999 . S
Cu184 O190 1.974 1_655 S
Cu184 N195 1.985 1_655 S
Cu184 O204 1.959 . S
N185 Cu184 1.999 . S
N185 C187 1.263 . S
N185 C189 1.389 . S
N186 C187 1.358 . S
N186 C188 1.400 . S
C187 N185 1.263 . S
C187 N186 1.358 . S
C187 H193 0.930 . S
C188 N186 1.400 . S
C188 C189 1.351 . S
C188 H205 0.930 . S
C189 N185 1.389 . S
C189 C188 1.351 . S
C189 H194 0.930 . S
O190 Cu184 1.974 1_455 S
O190 C200 1.282 . S
C191 O192 1.261 . S
C191 O204 1.251 . S
O192 C191 1.261 . S
H193 C187 0.930 . S
H194 C189 0.930 . S
N195 Cu184 1.985 1_455 S
N195 C197 1.335 . S
N195 C198 1.390 . S
N196 C197 1.345 . S
N196 C199 1.336 . S
C197 N195 1.335 . S
C197 N196 1.345 . S
C197 H202 0.930 . S
C198 N195 1.390 . S
C198 C199 1.346 . S
C198 H203 0.930 . S
C199 N196 1.336 . S
C199 C198 1.346 . S
C199 H206 0.929 . S
C200 O190 1.282 . S
C200 O201 1.216 1_455 S
O201 C200 1.216 1_655 S
H202 C197 0.930 . S
H203 C198 0.930 . S
O204 Cu184 1.959 . S
O204 C191 1.251 . S
H205 C188 0.930 . S
H206 C199 0.929 . S
Cu207 N208 1.999 . S
Cu207 O213 1.974 1_655 S
Cu207 N218 1.985 1_655 S
Cu207 O227 1.959 . S
N208 Cu207 1.999 . S
N208 C210 1.263 . S
N208 C212 1.389 . S
N209 C210 1.358 . S
N209 C211 1.400 . S
C210 N208 1.263 . S
C210 N209 1.358 . S
C210 H216 0.930 . S
C211 N209 1.400 . S
C211 C212 1.351 . S
C211 H228 0.930 . S
C212 N208 1.389 . S
C212 C211 1.351 . S
C212 H217 0.930 . S
O213 Cu207 1.974 1_455 S
O213 C223 1.282 . S
C214 O215 1.261 . S
C214 O227 1.251 . S
O215 C214 1.261 . S
H216 C210 0.930 . S
H217 C212 0.930 . S
N218 Cu207 1.985 1_455 S
N218 C220 1.335 . S
N218 C221 1.390 . S
N219 C220 1.345 . S
N219 C222 1.336 . S
C220 N218 1.335 . S
C220 N219 1.345 . S
C220 H225 0.930 . S
C221 N218 1.390 . S
C221 C222 1.346 . S
C221 H226 0.930 . S
C222 N219 1.336 . S
C222 C221 1.346 . S
C222 H229 0.929 . S
C223 O213 1.282 . S
C223 O224 1.216 1_455 S
O224 C223 1.216 1_655 S
H225 C220 0.930 . S
H226 C221 0.930 . S
O227 Cu207 1.959 . S
O227 C214 1.251 . S
H228 C211 0.930 . S
H229 C222 0.929 . S
Cu230 N231 1.999 . S
Cu230 O236 1.974 . S
Cu230 N241 1.985 . S
Cu230 O250 1.959 . S
N231 Cu230 1.999 . S
N231 C233 1.263 . S
N231 C235 1.389 . S
N232 C233 1.358 . S
N232 C234 1.400 . S
C233 N231 1.263 . S
C233 N232 1.358 . S
C233 H239 0.930 . S
C234 N232 1.400 . S
C234 C235 1.351 . S
C234 H251 0.930 . S
C235 N231 1.389 . S
C235 C234 1.351 . S
C235 H240 0.930 . S
O236 Cu230 1.974 . S
O236 C246 1.282 . S
C237 O238 1.261 . S
C237 O250 1.251 . S
O238 C237 1.261 . S
H239 C233 0.930 . S
H240 C235 0.930 . S
N241 Cu230 1.985 . S
N241 C243 1.335 . S
N241 C244 1.390 . S
N242 C243 1.345 . S
N242 C245 1.336 . S
C243 N241 1.335 . S
C243 N242 1.345 . S
C243 H248 0.930 . S
C244 N241 1.390 . S
C244 C245 1.346 . S
C244 H249 0.930 . S
C245 N242 1.336 . S
C245 C244 1.346 . S
C245 H252 0.929 . S
C246 O236 1.282 . S
C246 O247 1.216 . S
O247 C246 1.216 . S
H248 C243 0.930 . S
H249 C244 0.930 . S
O250 Cu230 1.959 . S
O250 C237 1.251 . S
H251 C234 0.930 . S
H252 C245 0.929 . S
Cu253 N254 1.999 . S
Cu253 O259 1.974 1_545 S
Cu253 N264 1.985 . S
Cu253 O273 1.959 . S
N254 Cu253 1.999 . S
N254 C256 1.263 . S
N254 C258 1.389 . S
N255 C256 1.358 . S
N255 C257 1.400 . S
C256 N254 1.263 . S
C256 N255 1.358 . S
C256 H262 0.930 . S
C257 N255 1.400 . S
C257 C258 1.351 . S
C257 H274 0.930 . S
C258 N254 1.389 . S
C258 C257 1.351 . S
C258 H263 0.930 . S
O259 Cu253 1.974 1_565 S
O259 C269 1.282 . S
C260 O261 1.261 . S
C260 O273 1.251 . S
O261 C260 1.261 . S
H262 C256 0.930 . S
H263 C258 0.930 . S
N264 Cu253 1.985 . S
N264 C266 1.335 . S
N264 C267 1.390 1_545 S
N265 C266 1.345 1_565 S
N265 C268 1.336 . S
C266 N264 1.335 . S
C266 N265 1.345 1_545 S
C266 H271 0.930 . S
C267 N264 1.390 1_565 S
C267 C268 1.346 . S
C267 H272 0.930 . S
C268 N265 1.336 . S
C268 C267 1.346 . S
C268 H275 0.929 . S
C269 O259 1.282 . S
C269 O270 1.216 . S
O270 C269 1.216 . S
H271 C266 0.930 . S
H272 C267 0.930 . S
O273 Cu253 1.959 . S
O273 C260 1.251 . S
H274 C257 0.930 . S
H275 C268 0.929 . S
Cu276 N277 1.999 . S
Cu276 O282 1.974 . S
Cu276 N287 1.985 1_455 S
Cu276 O296 1.959 . S
N277 Cu276 1.999 . S
N277 C279 1.263 . S
N277 C281 1.389 . S
N278 C279 1.358 . S
N278 C280 1.400 . S
C279 N277 1.263 . S
C279 N278 1.358 . S
C279 H285 0.930 . S
C280 N278 1.400 . S
C280 C281 1.351 . S
C280 H297 0.930 . S
C281 N277 1.389 . S
C281 C280 1.351 . S
C281 H286 0.930 . S
O282 Cu276 1.974 . S
O282 C292 1.282 . S
C283 O284 1.261 . S
C283 O296 1.251 . S
O284 C283 1.261 . S
H285 C279 0.930 . S
H286 C281 0.930 . S
N287 Cu276 1.985 1_655 S
N287 C289 1.335 . S
N287 C290 1.390 . S
N288 C289 1.345 . S
N288 C291 1.336 . S
C289 N287 1.335 . S
C289 N288 1.345 . S
C289 H294 0.930 . S
C290 N287 1.390 . S
C290 C291 1.346 . S
C290 H295 0.930 . S
C291 N288 1.336 . S
C291 C290 1.346 . S
C291 H298 0.929 . S
C292 O282 1.282 . S
C292 O293 1.216 . S
O293 C292 1.216 . S
H294 C289 0.930 . S
H295 C290 0.930 . S
O296 Cu276 1.959 . S
O296 C283 1.251 . S
H297 C280 0.930 . S
H298 C291 0.929 . S
Cu299 N300 1.999 . S
Cu299 O305 1.974 . S
Cu299 N310 1.985 . S
Cu299 O319 1.959 . S
N300 Cu299 1.999 . S
N300 C302 1.263 . S
N300 C304 1.389 . S
N301 C302 1.358 . S
N301 C303 1.400 . S
C302 N300 1.263 . S
C302 N301 1.358 . S
C302 H308 0.930 . S
C303 N301 1.400 . S
C303 C304 1.351 . S
C303 H320 0.930 . S
C304 N300 1.389 . S
C304 C303 1.351 . S
C304 H309 0.930 . S
O305 Cu299 1.974 . S
O305 C315 1.282 . S
C306 O307 1.261 . S
C306 O319 1.251 . S
O307 C306 1.261 . S
H308 C302 0.930 . S
H309 C304 0.930 . S
N310 Cu299 1.985 . S
N310 C312 1.335 . S
N310 C313 1.390 . S
N311 C312 1.345 . S
N311 C314 1.336 . S
C312 N310 1.335 . S
C312 N311 1.345 . S
C312 H317 0.930 . S
C313 N310 1.390 . S
C313 C314 1.346 . S
C313 H318 0.930 . S
C314 N311 1.336 . S
C314 C313 1.346 . S
C314 H321 0.929 . S
C315 O305 1.282 . S
C315 O316 1.216 . S
O316 C315 1.216 . S
H317 C312 0.930 . S
H318 C313 0.930 . S
O319 Cu299 1.959 . S
O319 C306 1.251 . S
H320 C303 0.930 . S
H321 C314 0.929 . S
Cu322 N323 1.999 . S
Cu322 O328 1.974 1_565 S
Cu322 N333 1.985 1_565 S
Cu322 O342 1.959 . S
N323 Cu322 1.999 . S
N323 C325 1.263 . S
N323 C327 1.389 . S
N324 C325 1.358 . S
N324 C326 1.400 . S
C325 N323 1.263 . S
C325 N324 1.358 . S
C325 H331 0.927 1_565 S
C326 N324 1.400 . S
C326 C327 1.351 . S
C326 H343 0.930 . S
C327 N323 1.389 . S
C327 C326 1.351 . S
C327 H332 0.930 . S
O328 Cu322 1.974 1_545 S
O328 C338 1.282 . S
C329 O330 1.261 . S
C329 O342 1.251 . S
O330 C329 1.261 . S
H331 C325 0.927 1_545 S
H332 C327 0.930 . S
N333 Cu322 1.985 1_545 S
N333 C335 1.335 . S
N333 C336 1.390 . S
N334 C335 1.345 . S
N334 C337 1.336 . S
C335 N333 1.335 . S
C335 N334 1.345 . S
C335 H340 0.930 1_545 S
C336 N333 1.390 . S
C336 C337 1.346 . S
C336 H341 0.930 . S
C337 N334 1.336 . S
C337 C336 1.346 . S
C337 H344 0.929 . S
C338 O328 1.282 . S
C338 O339 1.216 . S
O339 C338 1.216 . S
H340 C335 0.930 1_565 S
H341 C336 0.930 . S
O342 Cu322 1.959 . S
O342 C329 1.251 . S
H343 C326 0.930 . S
H344 C337 0.929 . S
Cu345 N346 1.999 . S
Cu345 O351 1.974 . S
Cu345 N356 1.985 . S
Cu345 O365 1.959 . S
N346 Cu345 1.999 . S
N346 C348 1.263 . S
N346 C350 1.389 . S
N347 C348 1.358 . S
N347 C349 1.400 . S
C348 N346 1.263 . S
C348 N347 1.358 . S
C348 H354 0.930 . S
C349 N347 1.400 . S
C349 C350 1.351 . S
C349 H366 0.930 . S
C350 N346 1.389 . S
C350 C349 1.351 . S
C350 H355 0.930 . S
O351 Cu345 1.974 . S
O351 C361 1.282 . S
C352 O353 1.261 . S
C352 O365 1.251 . S
O353 C352 1.261 . S
H354 C348 0.930 . S
H355 C350 0.930 . S
N356 Cu345 1.985 . S
N356 C358 1.335 . S
N356 C359 1.390 . S
N357 C358 1.345 . S
N357 C360 1.336 . S
C358 N356 1.335 . S
C358 N357 1.345 . S
C358 H363 0.930 . S
C359 N356 1.390 . S
C359 C360 1.346 . S
C359 H364 0.930 . S
C360 N357 1.336 . S
C360 C359 1.346 . S
C360 H367 0.929 . S
C361 O351 1.282 . S
C361 O362 1.216 . S
O362 C361 1.216 . S
H363 C358 0.930 . S
H364 C359 0.930 . S
O365 Cu345 1.959 . S
O365 C352 1.251 . S
H366 C349 0.930 . S
H367 C360 0.929 . S
Cu368 N369 1.999 . S
Cu368 O374 1.974 1_565 S
Cu368 N379 1.985 1_565 S
Cu368 O388 1.959 . S
N369 Cu368 1.999 . S
N369 C371 1.263 . S
N369 C373 1.389 . S
N370 C371 1.358 . S
N370 C372 1.400 . S
C371 N369 1.263 . S
C371 N370 1.358 . S
C371 H377 0.930 . S
C372 N370 1.400 . S
C372 C373 1.351 . S
C372 H389 0.930 . S
C373 N369 1.389 . S
C373 C372 1.351 . S
C373 H378 0.930 . S
O374 Cu368 1.974 1_545 S
O374 C384 1.282 . S
C375 O376 1.261 . S
C375 O388 1.251 . S
O376 C375 1.261 . S
H377 C371 0.930 . S
H378 C373 0.930 . S
N379 Cu368 1.985 1_545 S
N379 C381 1.335 . S
N379 C382 1.390 . S
N380 C381 1.345 . S
N380 C383 1.336 . S
C381 N379 1.335 . S
C381 N380 1.345 . S
C381 H386 0.930 1_545 S
C382 N379 1.390 . S
C382 C383 1.346 . S
C382 H387 0.930 . S
C383 N380 1.336 . S
C383 C382 1.346 . S
C383 H390 0.929 . S
C384 O374 1.282 . S
C384 O385 1.216 . S
O385 C384 1.216 . S
H386 C381 0.930 1_565 S
H387 C382 0.930 . S
O388 Cu368 1.959 . S
O388 C375 1.251 . S
H389 C372 0.930 . S
H390 C383 0.929 . S
Cu391 N392 1.999 . S
Cu391 O397 1.974 . S
Cu391 N402 1.985 1_455 S
Cu391 O411 1.959 . S
N392 Cu391 1.999 . S
N392 C394 1.263 . S
N392 C396 1.389 . S
N393 C394 1.358 . S
N393 C395 1.400 . S
C394 N392 1.263 . S
C394 N393 1.358 . S
C394 H400 0.930 . S
C395 N393 1.400 . S
C395 C396 1.351 . S
C395 H412 0.930 . S
C396 N392 1.389 . S
C396 C395 1.351 . S
C396 H401 0.930 . S
O397 Cu391 1.974 . S
O397 C407 1.282 . S
C398 O399 1.261 . S
C398 O411 1.251 . S
O399 C398 1.261 . S
H400 C394 0.930 . S
H401 C396 0.930 . S
N402 Cu391 1.985 1_655 S
N402 C404 1.335 . S
N402 C405 1.390 . S
N403 C404 1.345 . S
N403 C406 1.336 . S
C404 N402 1.335 . S
C404 N403 1.345 . S
C404 H409 0.930 . S
C405 N402 1.390 . S
C405 C406 1.346 . S
C405 H410 0.930 . S
C406 N403 1.336 . S
C406 C405 1.346 . S
C406 H413 0.929 . S
C407 O397 1.282 . S
C407 O408 1.216 . S
O408 C407 1.216 . S
H409 C404 0.930 . S
H410 C405 0.930 . S
O411 Cu391 1.959 . S
O411 C398 1.251 . S
H412 C395 0.930 . S
H413 C406 0.929 . S
Zn414 O420 1.920 1_455 S
Zn414 O426 1.898 1_445 S
Zn414 O429 1.905 . S
Zn415 O423 1.905 1_545 S
Zn415 O424 1.898 . S
Zn415 O432 1.920 1_455 S
Zn416 O419 2.080 . S
Zn416 O422 2.114 1_545 S
Zn416 O425 2.120 . S
Zn416 O427 2.120 1_445 S
Zn416 O428 2.114 . S
Zn416 O431 2.080 1_455 S
C417 O422 1.166 . S
C417 O423 1.182 . S
C418 O424 1.167 . S
C418 O425 1.299 . S
O419 Zn416 2.080 . S
O419 C433 1.305 1_455 S
O420 Zn414 1.920 1_655 S
O420 C433 1.234 . S
C421 O426 1.167 . S
C421 O427 1.299 . S
O422 Zn416 2.114 1_565 S
O422 C417 1.166 . S
O423 Zn415 1.905 1_565 S
O423 C417 1.182 . S
O424 Zn415 1.898 . S
O424 C418 1.167 . S
O425 Zn416 2.120 . S
O425 C418 1.299 . S
O426 Zn414 1.898 1_665 S
O426 C421 1.167 . S
O427 Zn416 2.120 1_665 S
O427 C421 1.299 . S
O428 Zn416 2.114 . S
O428 C430 1.166 . S
O429 Zn414 1.905 . S
O429 C430 1.182 . S
C430 O428 1.166 . S
C430 O429 1.182 . S
O431 Zn416 2.080 1_655 S
O431 C434 1.305 . S
O432 Zn415 1.920 1_655 S
O432 C434 1.234 . S
C433 O419 1.305 1_655 S
C433 O420 1.234 . S
C434 O431 1.305 . S
C434 O432 1.234 . S
Zn435 O441 1.920 1_545 S
Zn435 O447 1.898 . S
Zn435 O450 1.905 1_445 S
Zn436 O444 1.905 . S
Zn436 O445 1.898 1_445 S
Zn436 O453 1.920 1_545 S
Zn437 O440 2.080 1_445 S
Zn437 O443 2.114 . S
Zn437 O446 2.120 1_445 S
Zn437 O448 2.120 . S
Zn437 O449 2.114 1_455 S
Zn437 O452 2.080 . S
C438 O443 1.166 . S
C438 O444 1.182 . S
C439 O445 1.167 . S
C439 O446 1.299 . S
O440 Zn437 2.080 1_665 S
O440 C454 1.305 1_655 S
O441 Zn435 1.920 1_565 S
O441 C454 1.234 . S
C442 O447 1.167 . S
C442 O448 1.299 . S
O443 Zn437 2.114 . S
O443 C438 1.166 . S
O444 Zn436 1.905 . S
O444 C438 1.182 . S
O445 Zn436 1.898 1_665 S
O445 C439 1.167 . S
O446 Zn437 2.120 1_665 S
O446 C439 1.299 . S
O447 Zn435 1.898 . S
O447 C442 1.167 . S
O448 Zn437 2.120 . S
O448 C442 1.299 . S
O449 Zn437 2.114 1_655 S
O449 C451 1.166 . S
O450 Zn435 1.905 1_665 S
O450 C451 1.182 1_565 S
C451 O449 1.166 . S
C451 O450 1.182 1_545 S
O452 Zn437 2.080 . S
O452 C455 1.305 1_545 S
O453 Zn436 1.920 1_565 S
O453 C455 1.234 . S
C454 O440 1.305 1_455 S
C454 O441 1.234 . S
C455 O452 1.305 1_565 S
C455 O453 1.234 . S
Zn456 O462 1.920 1_545 S
Zn456 O468 1.898 . S
Zn456 O471 1.905 1_445 S
Zn457 O465 1.905 1_565 S
Zn457 O466 1.898 1_455 S
Zn457 O474 1.920 . S
Zn458 O461 2.080 1_545 S
Zn458 O464 2.114 . S
Zn458 O467 2.120 1_445 S
Zn458 O469 2.120 . S
Zn458 O470 2.114 1_455 S
Zn458 O473 2.080 . S
C459 O464 1.166 . S
C459 O465 1.182 . S
C460 O466 1.167 . S
C460 O467 1.299 . S
O461 Zn458 2.080 1_565 S
O461 C475 1.305 . S
O462 Zn456 1.920 1_565 S
O462 C475 1.234 . S
C463 O468 1.167 . S
C463 O469 1.299 . S
O464 Zn458 2.114 . S
O464 C459 1.166 . S
O465 Zn457 1.905 1_545 S
O465 C459 1.182 . S
O466 Zn457 1.898 1_655 S
O466 C460 1.167 . S
O467 Zn458 2.120 1_665 S
O467 C460 1.299 . S
O468 Zn456 1.898 . S
O468 C463 1.167 . S
O469 Zn458 2.120 . S
O469 C463 1.299 . S
O470 Zn458 2.114 1_655 S
O470 C472 1.166 1_545 S
O471 Zn456 1.905 1_665 S
O471 C472 1.182 . S
C472 O470 1.166 1_565 S
C472 O471 1.182 . S
O473 Zn458 2.080 . S
O473 C476 1.305 1_545 S
O474 Zn457 1.920 . S
O474 C476 1.234 . S
C475 O461 1.305 . S
C475 O462 1.234 . S
C476 O473 1.305 1_565 S
C476 O474 1.234 . S
Zn477 O483 1.920 . S
Zn477 O489 1.898 1_445 S
Zn477 O492 1.905 . S
Zn478 O486 1.905 1_445 S
Zn478 O487 1.898 . S
Zn478 O495 1.920 1_455 S
Zn479 O482 2.080 . S
Zn479 O485 2.114 1_545 S
Zn479 O488 2.120 . S
Zn479 O490 2.120 1_445 S
Zn479 O491 2.114 . S
Zn479 O494 2.080 1_455 S
C480 O485 1.166 1_655 S
C480 O486 1.182 . S
C481 O487 1.167 . S
C481 O488 1.299 . S
O482 Zn479 2.080 . S
O482 C496 1.305 . S
O483 Zn477 1.920 . S
O483 C496 1.234 . S
C484 O489 1.167 . S
C484 O490 1.299 . S
O485 Zn479 2.114 1_565 S
O485 C480 1.166 1_455 S
O486 Zn478 1.905 1_665 S
O486 C480 1.182 . S
O487 Zn478 1.898 . S
O487 C481 1.167 . S
O488 Zn479 2.120 . S
O488 C481 1.299 . S
O489 Zn477 1.898 1_665 S
O489 C484 1.167 . S
O490 Zn479 2.120 1_665 S
O490 C484 1.299 . S
O491 Zn479 2.114 . S
O491 C493 1.166 . S
O492 Zn477 1.905 . S
O492 C493 1.182 . S
C493 O491 1.166 . S
C493 O492 1.182 . S
O494 Zn479 2.080 1_655 S
O494 C497 1.305 . S
O495 Zn478 1.920 1_655 S
O495 C497 1.234 . S
C496 O482 1.305 . S
C496 O483 1.234 . S
C497 O494 1.305 . S
C497 O495 1.234 . S
Zn498 O504 1.920 . S
Zn498 O510 1.898 . S
Zn498 O513 1.905 . S
Zn499 O507 1.905 . S
Zn499 O508 1.898 . S
Zn499 O516 1.920 . S
Zn500 O503 2.080 . S
Zn500 O506 2.114 . S
Zn500 O509 2.120 . S
Zn500 O511 2.120 . S
Zn500 O512 2.114 . S
Zn500 O515 2.080 . S
C501 O506 1.166 . S
C501 O507 1.182 . S
C502 O508 1.167 . S
C502 O509 1.299 . S
O503 Zn500 2.080 . S
O503 C517 1.305 . S
O504 Zn498 1.920 . S
O504 C517 1.234 . S
C505 O510 1.167 . S
C505 O511 1.299 . S
O506 Zn500 2.114 . S
O506 C501 1.166 . S
O507 Zn499 1.905 . S
O507 C501 1.182 . S
O508 Zn499 1.898 . S
O508 C502 1.167 . S
O509 Zn500 2.120 . S
O509 C502 1.299 . S
O510 Zn498 1.898 . S
O510 C505 1.167 . S
O511 Zn500 2.120 . S
O511 C505 1.299 . S
O512 Zn500 2.114 . S
O512 C514 1.166 . S
O513 Zn498 1.905 . S
O513 C514 1.182 . S
C514 O512 1.166 . S
C514 O513 1.182 . S
O515 Zn500 2.080 . S
O515 C518 1.305 . S
O516 Zn499 1.920 . S
O516 C518 1.234 . S
C517 O503 1.305 . S
C517 O504 1.234 . S
C518 O515 1.305 . S
C518 O516 1.234 . S
Zn519 O525 1.920 . S
Zn519 O531 1.898 . S
Zn519 O534 1.905 . S
Zn520 O528 1.905 . S
Zn520 O529 1.898 . S
Zn520 O537 1.920 . S
Zn521 O524 2.080 . S
Zn521 O527 2.114 . S
Zn521 O530 2.120 . S
Zn521 O532 2.120 . S
Zn521 O533 2.114 . S
Zn521 O536 2.080 . S
C522 O527 1.166 . S
C522 O528 1.182 . S
C523 O529 1.167 . S
C523 O530 1.299 . S
O524 Zn521 2.080 . S
O524 C538 1.305 . S
O525 Zn519 1.920 . S
O525 C538 1.234 . S
C526 O531 1.167 . S
C526 O532 1.299 . S
O527 Zn521 2.114 . S
O527 C522 1.166 . S
O528 Zn520 1.905 . S
O528 C522 1.182 . S
O529 Zn520 1.898 . S
O529 C523 1.167 . S
O530 Zn521 2.120 . S
O530 C523 1.299 . S
O531 Zn519 1.898 . S
O531 C526 1.167 . S
O532 Zn521 2.120 . S
O532 C526 1.299 . S
O533 Zn521 2.114 . S
O533 C535 1.166 . S
O534 Zn519 1.905 . S
O534 C535 1.182 . S
C535 O533 1.166 . S
C535 O534 1.182 . S
O536 Zn521 2.080 . S
O536 C539 1.305 . S
O537 Zn520 1.920 . S
O537 C539 1.234 . S
C538 O524 1.305 . S
C538 O525 1.234 . S
C539 O536 1.305 . S
C539 O537 1.234 . S
Zn540 O546 1.920 . S
Zn540 O552 1.898 . S
Zn540 O555 1.905 . S
Zn541 O549 1.905 . S
Zn541 O550 1.898 . S
Zn541 O558 1.920 . S
Zn542 O545 2.080 . S
Zn542 O548 2.114 . S
Zn542 O551 2.120 . S
Zn542 O553 2.120 . S
Zn542 O554 2.114 . S
Zn542 O557 2.080 . S
C543 O548 1.166 . S
C543 O549 1.182 . S
C544 O550 1.167 . S
C544 O551 1.299 . S
O545 Zn542 2.080 . S
O545 C559 1.305 . S
O546 Zn540 1.920 . S
O546 C559 1.234 . S
C547 O552 1.167 . S
C547 O553 1.299 . S
O548 Zn542 2.114 . S
O548 C543 1.166 . S
O549 Zn541 1.905 . S
O549 C543 1.182 . S
O550 Zn541 1.898 . S
O550 C544 1.167 . S
O551 Zn542 2.120 . S
O551 C544 1.299 . S
O552 Zn540 1.898 . S
O552 C547 1.167 . S
O553 Zn542 2.120 . S
O553 C547 1.299 . S
O554 Zn542 2.114 . S
O554 C556 1.166 . S
O555 Zn540 1.905 . S
O555 C556 1.182 . S
C556 O554 1.166 . S
C556 O555 1.182 . S
O557 Zn542 2.080 . S
O557 C560 1.305 . S
O558 Zn541 1.920 . S
O558 C560 1.234 . S
C559 O545 1.305 . S
C559 O546 1.234 . S
C560 O557 1.305 . S
C560 O558 1.234 . S
Zn561 O567 1.920 . S
Zn561 O573 1.898 . S
Zn561 O576 1.905 . S
Zn562 O570 1.905 . S
Zn562 O571 1.898 . S
Zn562 O579 1.920 . S
Zn563 O566 2.080 1_556 S
Zn563 O569 2.114 . S
Zn563 O572 2.120 . S
Zn563 O574 2.120 1_556 S
Zn563 O575 2.114 1_556 S
Zn563 O578 2.080 . S
C564 O569 1.166 . S
C564 O570 1.182 . S
C565 O571 1.167 . S
C565 O572 1.299 . S
O566 Zn563 2.080 1_554 S
O566 C580 1.305 . S
O567 Zn561 1.920 . S
O567 C580 1.234 . S
C568 O573 1.167 . S
C568 O574 1.299 . S
O569 Zn563 2.114 . S
O569 C564 1.166 . S
O570 Zn562 1.905 . S
O570 C564 1.182 . S
O571 Zn562 1.898 . S
O571 C565 1.167 . S
O572 Zn563 2.120 . S
O572 C565 1.299 . S
O573 Zn561 1.898 . S
O573 C568 1.167 . S
O574 Zn563 2.120 1_554 S
O574 C568 1.299 . S
O575 Zn563 2.114 1_554 S
O575 C577 1.166 . S
O576 Zn561 1.905 . S
O576 C577 1.182 . S
C577 O575 1.166 . S
C577 O576 1.182 . S
O578 Zn563 2.080 . S
O578 C581 1.305 . S
O579 Zn562 1.920 . S
O579 C581 1.234 . S
C580 O566 1.305 . S
C580 O567 1.234 . S
C581 O578 1.305 . S
C581 O579 1.234 . S
Zn582 O588 1.920 . S
Zn582 O594 1.898 . S
Zn582 O597 1.905 . S
Zn583 O591 1.905 . S
Zn583 O592 1.898 . S
Zn583 O600 1.920 . S
Zn584 O587 2.080 . S
Zn584 O590 2.114 . S
Zn584 O593 2.120 . S
Zn584 O595 2.120 . S
Zn584 O596 2.114 . S
Zn584 O599 2.080 . S
C585 O590 1.166 . S
C585 O591 1.182 . S
C586 O592 1.167 . S
C586 O593 1.299 . S
O587 Zn584 2.080 . S
O587 C601 1.305 . S
O588 Zn582 1.920 . S
O588 C601 1.234 . S
C589 O594 1.167 . S
C589 O595 1.299 . S
O590 Zn584 2.114 . S
O590 C585 1.166 . S
O591 Zn583 1.905 . S
O591 C585 1.182 . S
O592 Zn583 1.898 . S
O592 C586 1.167 . S
O593 Zn584 2.120 . S
O593 C586 1.299 . S
O594 Zn582 1.898 . S
O594 C589 1.167 . S
O595 Zn584 2.120 . S
O595 C589 1.299 . S
O596 Zn584 2.114 . S
O596 C598 1.166 . S
O597 Zn582 1.905 . S
O597 C598 1.182 . S
C598 O596 1.166 . S
C598 O597 1.182 . S
O599 Zn584 2.080 . S
O599 C602 1.305 . S
O600 Zn583 1.920 . S
O600 C602 1.234 . S
C601 O587 1.305 . S
C601 O588 1.234 . S
C602 O599 1.305 . S
C602 O600 1.234 . S
Zn603 O609 1.920 . S
Zn603 O615 1.898 . S
Zn603 O618 1.905 . S
Zn604 O612 1.905 . S
Zn604 O613 1.898 . S
Zn604 O621 1.920 . S
Zn605 O608 2.080 . S
Zn605 O611 2.114 1_554 S
Zn605 O614 2.120 1_554 S
Zn605 O616 2.120 . S
Zn605 O617 2.114 . S
Zn605 O620 2.080 1_554 S
C606 O611 1.166 . S
C606 O612 1.182 . S
C607 O613 1.167 . S
C607 O614 1.299 . S
O608 Zn605 2.080 . S
O608 C622 1.305 . S
O609 Zn603 1.920 . S
O609 C622 1.234 . S
C610 O615 1.167 . S
C610 O616 1.299 . S
O611 Zn605 2.114 1_556 S
O611 C606 1.166 . S
O612 Zn604 1.905 . S
O612 C606 1.182 . S
O613 Zn604 1.898 . S
O613 C607 1.167 . S
O614 Zn605 2.120 1_556 S
O614 C607 1.299 . S
O615 Zn603 1.898 . S
O615 C610 1.167 . S
O616 Zn605 2.120 . S
O616 C610 1.299 . S
O617 Zn605 2.114 . S
O617 C619 1.166 . S
O618 Zn603 1.905 . S
O618 C619 1.182 . S
C619 O617 1.166 . S
C619 O618 1.182 . S
O620 Zn605 2.080 1_556 S
O620 C623 1.305 . S
O621 Zn604 1.920 . S
O621 C623 1.234 . S
C622 O608 1.305 . S
C622 O609 1.234 . S
C623 O620 1.305 . S
C623 O621 1.234 . S
Zn624 O630 1.920 . S
Zn624 O636 1.898 . S
Zn624 O639 1.905 . S
Zn625 O633 1.905 . S
Zn625 O634 1.898 . S
Zn625 O642 1.920 . S
Zn626 O629 2.080 . S
Zn626 O632 2.114 . S
Zn626 O635 2.120 . S
Zn626 O637 2.120 . S
Zn626 O638 2.114 . S
Zn626 O641 2.080 . S
C627 O632 1.166 . S
C627 O633 1.182 . S
C628 O634 1.167 . S
C628 O635 1.299 . S
O629 Zn626 2.080 . S
O629 C643 1.305 . S
O630 Zn624 1.920 . S
O630 C643 1.234 . S
C631 O636 1.167 . S
C631 O637 1.299 . S
O632 Zn626 2.114 . S
O632 C627 1.166 . S
O633 Zn625 1.905 . S
O633 C627 1.182 . S
O634 Zn625 1.898 . S
O634 C628 1.167 . S
O635 Zn626 2.120 . S
O635 C628 1.299 . S
O636 Zn624 1.898 . S
O636 C631 1.167 . S
O637 Zn626 2.120 . S
O637 C631 1.299 . S
O638 Zn626 2.114 . S
O638 C640 1.166 . S
O639 Zn624 1.905 . S
O639 C640 1.182 . S
C640 O638 1.166 . S
C640 O639 1.182 . S
O641 Zn626 2.080 . S
O641 C644 1.305 . S
O642 Zn625 1.920 . S
O642 C644 1.234 . S
C643 O629 1.305 . S
C643 O630 1.234 . S
C644 O641 1.305 . S
C644 O642 1.234 . S
Zn645 O651 1.920 . S
Zn645 O657 1.898 . S
Zn645 O660 1.905 . S
Zn646 O654 1.905 . S
Zn646 O655 1.898 . S
Zn646 O663 1.920 . S
Zn647 O650 2.080 . S
Zn647 O653 2.114 . S
Zn647 O656 2.120 . S
Zn647 O658 2.120 . S
Zn647 O659 2.114 . S
Zn647 O662 2.080 . S
C648 O653 1.166 . S
C648 O654 1.182 . S
C649 O655 1.167 . S
C649 O656 1.299 . S
O650 Zn647 2.080 . S
O650 C664 1.305 . S
O651 Zn645 1.920 . S
O651 C664 1.234 . S
C652 O657 1.167 . S
C652 O658 1.299 . S
O653 Zn647 2.114 . S
O653 C648 1.166 . S
O654 Zn646 1.905 . S
O654 C648 1.182 . S
O655 Zn646 1.898 . S
O655 C649 1.167 . S
O656 Zn647 2.120 . S
O656 C649 1.299 . S
O657 Zn645 1.898 . S
O657 C652 1.167 . S
O658 Zn647 2.120 . S
O658 C652 1.299 . S
O659 Zn647 2.114 . S
O659 C661 1.166 . S
O660 Zn645 1.905 . S
O660 C661 1.182 . S
C661 O659 1.166 . S
C661 O660 1.182 . S
O662 Zn647 2.080 . S
O662 C665 1.305 . S
O663 Zn646 1.920 . S
O663 C665 1.234 . S
C664 O650 1.305 . S
C664 O651 1.234 . S
C665 O662 1.305 . S
C665 O663 1.234 . S
C53 C418 1.319 . S
N2 C434 0.955 . S
C417 N25 1.249 1_455 S
C442 N48 0.988 . S
C7 C451 1.429 . S
C454 C30 1.364 . S
C122 C460 1.319 . S
C476 N71 0.954 . S
C459 N94 1.250 . S
N117 C484 0.988 . S
C493 C76 1.430 . S
C496 C99 1.364 . S
C505 C191 1.319 . S
C517 N140 0.955 . S
C514 N163 1.250 . S
N186 C523 0.988 . S
C522 C145 1.430 . S
C168 C539 1.363 . S
C544 C260 1.319 . S
C560 N209 0.954 . S
N232 C543 1.250 . S
C568 N255 0.988 . S
C577 C214 1.430 . S
C237 C580 1.364 . S
C329 C589 1.319 . S
C601 N278 0.955 . S
C598 N301 1.250 . S
N324 C607 0.988 . S
C606 C283 1.430 . S
C306 C623 1.363 . S
C628 C398 1.319 . S
C644 N347 0.955 . S
N370 C627 1.250 . S
C649 N393 0.988 . S
C648 C352 1.430 . S
C665 C375 1.364 . S
C430 N265 2.805 1_545 S
C223 C433 1.904 1_455 S
C421 C246 2.093 . S
C407 C438 1.803 . S
N357 C439 2.487 . S
C455 N380 2.719 1_565 S
C472 N334 2.805 1_565 S
C475 C292 1.904 . S
C315 C463 2.093 . S
C480 C200 1.803 1_655 S
N150 C481 2.487 . S
N173 C497 2.720 1_565 S
N403 C501 2.805 . S
C361 C518 1.904 . S
C502 C384 2.093 . S
C535 C131 1.803 . S
C526 N81 2.487 . S
N104 C538 2.720 . S
C556 N58 2.805 . S
C559 C16 1.904 . S
C39 C547 2.093 . S
C564 C338 1.802 . S
C565 N288 2.487 . S
C581 N311 2.719 . S
C585 N127 2.805 . S
C602 C85 1.904 . S
C108 C586 2.093 . S
C269 C619 1.803 . S
N219 C610 2.486 . S
C622 N242 2.719 . S
N196 C640 2.805 . S
C154 C643 1.904 . S
C631 C177 2.092 . S
C661 C62 1.803 . S
C652 N12 2.487 . S
N35 C664 2.719 . S
