# Generated by pormake.
# Topology gar, (4,6)-cn, num edge types: 1
# Building blocks:
#     Node 0, Type 0, BuildingBlock: QUQFOY_clean_sbu_1, # of connection points: 4
#     Node 1, Type 0, BuildingBlock: QUQFOY_clean_sbu_1, # of connection points: 4
#     Node 2, Type 0, BuildingBlock: QUQFOY_clean_sbu_1, # of connection points: 4
#     Node 3, Type 0, BuildingBlock: QUQFOY_clean_sbu_1, # of connection points: 4
#     Node 4, Type 0, BuildingBlock: QUQFOY_clean_sbu_1, # of connection points: 4
#     Node 5, Type 0, BuildingBlock: QUQFOY_clean_sbu_1, # of connection points: 4
#     Node 6, Type 0, BuildingBlock: QUQFOY_clean_sbu_1, # of connection points: 4
#     Node 7, Type 0, BuildingBlock: QUQFOY_clean_sbu_1, # of connection points: 4
#     Node 8, Type 0, BuildingBlock: QUQFOY_clean_sbu_1, # of connection points: 4
#     Node 9, Type 0, BuildingBlock: QUQFOY_clean_sbu_1, # of connection points: 4
#     Node 10, Type 0, BuildingBlock: QUQFOY_clean_sbu_1, # of connection points: 4
#     Node 11, Type 0, BuildingBlock: QUQFOY_clean_sbu_1, # of connection points: 4
#     Node 12, Type 0, BuildingBlock: QUQFOY_clean_sbu_1, # of connection points: 4
#     Node 13, Type 0, BuildingBlock: QUQFOY_clean_sbu_1, # of connection points: 4
#     Node 14, Type 0, BuildingBlock: QUQFOY_clean_sbu_1, # of connection points: 4
#     Node 15, Type 0, BuildingBlock: QUQFOY_clean_sbu_1, # of connection points: 4
#     Node 16, Type 0, BuildingBlock: QUQFOY_clean_sbu_1, # of connection points: 4
#     Node 17, Type 0, BuildingBlock: QUQFOY_clean_sbu_1, # of connection points: 4
#     Node 18, Type 0, BuildingBlock: QUQFOY_clean_sbu_1, # of connection points: 4
#     Node 19, Type 0, BuildingBlock: QUQFOY_clean_sbu_1, # of connection points: 4
#     Node 20, Type 0, BuildingBlock: QUQFOY_clean_sbu_1, # of connection points: 4
#     Node 21, Type 0, BuildingBlock: QUQFOY_clean_sbu_1, # of connection points: 4
#     Node 22, Type 0, BuildingBlock: QUQFOY_clean_sbu_1, # of connection points: 4
#     Node 23, Type 0, BuildingBlock: QUQFOY_clean_sbu_1, # of connection points: 4
#     Node 24, Type 1, BuildingBlock: KUMJIN_clean_sbu_0, # of connection points: 6
#     Node 25, Type 1, BuildingBlock: KUMJIN_clean_sbu_0, # of connection points: 6
#     Node 26, Type 1, BuildingBlock: KUMJIN_clean_sbu_0, # of connection points: 6
#     Node 27, Type 1, BuildingBlock: KUMJIN_clean_sbu_0, # of connection points: 6
#     Node 28, Type 1, BuildingBlock: KUMJIN_clean_sbu_0, # of connection points: 6
#     Node 29, Type 1, BuildingBlock: KUMJIN_clean_sbu_0, # of connection points: 6
#     Node 30, Type 1, BuildingBlock: KUMJIN_clean_sbu_0, # of connection points: 6
#     Node 31, Type 1, BuildingBlock: KUMJIN_clean_sbu_0, # of connection points: 6
#     Node 32, Type 1, BuildingBlock: KUMJIN_clean_sbu_0, # of connection points: 6
#     Node 33, Type 1, BuildingBlock: KUMJIN_clean_sbu_0, # of connection points: 6
#     Node 34, Type 1, BuildingBlock: KUMJIN_clean_sbu_0, # of connection points: 6
#     Node 35, Type 1, BuildingBlock: KUMJIN_clean_sbu_0, # of connection points: 6
#     Node 36, Type 1, BuildingBlock: KUMJIN_clean_sbu_0, # of connection points: 6
#     Node 37, Type 1, BuildingBlock: KUMJIN_clean_sbu_0, # of connection points: 6
#     Node 38, Type 1, BuildingBlock: KUMJIN_clean_sbu_0, # of connection points: 6
#     Node 39, Type 1, BuildingBlock: KUMJIN_clean_sbu_0, # of connection points: 6
#     Edge 40, Type (0, 1), BuildingBlock: MIFKUJ_clean_linker_0, # of connection points: 2
#     Edge 41, Type (0, 1), BuildingBlock: MIFKUJ_clean_linker_0, # of connection points: 2
#     Edge 42, Type (0, 1), BuildingBlock: MIFKUJ_clean_linker_0, # of connection points: 2
#     Edge 43, Type (0, 1), BuildingBlock: MIFKUJ_clean_linker_0, # of connection points: 2
#     Edge 44, Type (0, 1), BuildingBlock: MIFKUJ_clean_linker_0, # of connection points: 2
#     Edge 45, Type (0, 1), BuildingBlock: MIFKUJ_clean_linker_0, # of connection points: 2
#     Edge 46, Type (0, 1), BuildingBlock: MIFKUJ_clean_linker_0, # of connection points: 2
#     Edge 47, Type (0, 1), BuildingBlock: MIFKUJ_clean_linker_0, # of connection points: 2
#     Edge 48, Type (0, 1), BuildingBlock: MIFKUJ_clean_linker_0, # of connection points: 2
#     Edge 49, Type (0, 1), BuildingBlock: MIFKUJ_clean_linker_0, # of connection points: 2
#     Edge 50, Type (0, 1), BuildingBlock: MIFKUJ_clean_linker_0, # of connection points: 2
#     Edge 51, Type (0, 1), BuildingBlock: MIFKUJ_clean_linker_0, # of connection points: 2
#     Edge 52, Type (0, 1), BuildingBlock: MIFKUJ_clean_linker_0, # of connection points: 2
#     Edge 53, Type (0, 1), BuildingBlock: MIFKUJ_clean_linker_0, # of connection points: 2
#     Edge 54, Type (0, 1), BuildingBlock: MIFKUJ_clean_linker_0, # of connection points: 2
#     Edge 55, Type (0, 1), BuildingBlock: MIFKUJ_clean_linker_0, # of connection points: 2
#     Edge 56, Type (0, 1), BuildingBlock: MIFKUJ_clean_linker_0, # of connection points: 2
#     Edge 57, Type (0, 1), BuildingBlock: MIFKUJ_clean_linker_0, # of connection points: 2
#     Edge 58, Type (0, 1), BuildingBlock: MIFKUJ_clean_linker_0, # of connection points: 2
#     Edge 59, Type (0, 1), BuildingBlock: MIFKUJ_clean_linker_0, # of connection points: 2
#     Edge 60, Type (0, 1), BuildingBlock: MIFKUJ_clean_linker_0, # of connection points: 2
#     Edge 61, Type (0, 1), BuildingBlock: MIFKUJ_clean_linker_0, # of connection points: 2
#     Edge 62, Type (0, 1), BuildingBlock: MIFKUJ_clean_linker_0, # of connection points: 2
#     Edge 63, Type (0, 1), BuildingBlock: MIFKUJ_clean_linker_0, # of connection points: 2
#     Edge 64, Type (0, 1), BuildingBlock: MIFKUJ_clean_linker_0, # of connection points: 2
#     Edge 65, Type (0, 1), BuildingBlock: MIFKUJ_clean_linker_0, # of connection points: 2
#     Edge 66, Type (0, 1), BuildingBlock: MIFKUJ_clean_linker_0, # of connection points: 2
#     Edge 67, Type (0, 1), BuildingBlock: MIFKUJ_clean_linker_0, # of connection points: 2
#     Edge 68, Type (0, 1), BuildingBlock: MIFKUJ_clean_linker_0, # of connection points: 2
#     Edge 69, Type (0, 1), BuildingBlock: MIFKUJ_clean_linker_0, # of connection points: 2
#     Edge 70, Type (0, 1), BuildingBlock: MIFKUJ_clean_linker_0, # of connection points: 2
#     Edge 71, Type (0, 1), BuildingBlock: MIFKUJ_clean_linker_0, # of connection points: 2
#     Edge 72, Type (0, 1), BuildingBlock: MIFKUJ_clean_linker_0, # of connection points: 2
#     Edge 73, Type (0, 1), BuildingBlock: MIFKUJ_clean_linker_0, # of connection points: 2
#     Edge 74, Type (0, 1), BuildingBlock: MIFKUJ_clean_linker_0, # of connection points: 2
#     Edge 75, Type (0, 1), BuildingBlock: MIFKUJ_clean_linker_0, # of connection points: 2
#     Edge 76, Type (0, 1), BuildingBlock: MIFKUJ_clean_linker_0, # of connection points: 2
#     Edge 77, Type (0, 1), BuildingBlock: MIFKUJ_clean_linker_0, # of connection points: 2
#     Edge 78, Type (0, 1), BuildingBlock: MIFKUJ_clean_linker_0, # of connection points: 2
#     Edge 79, Type (0, 1), BuildingBlock: MIFKUJ_clean_linker_0, # of connection points: 2
#     Edge 80, Type (0, 1), BuildingBlock: MIFKUJ_clean_linker_0, # of connection points: 2
#     Edge 81, Type (0, 1), BuildingBlock: MIFKUJ_clean_linker_0, # of connection points: 2
#     Edge 82, Type (0, 1), BuildingBlock: MIFKUJ_clean_linker_0, # of connection points: 2
#     Edge 83, Type (0, 1), BuildingBlock: MIFKUJ_clean_linker_0, # of connection points: 2
#     Edge 84, Type (0, 1), BuildingBlock: MIFKUJ_clean_linker_0, # of connection points: 2
#     Edge 85, Type (0, 1), BuildingBlock: MIFKUJ_clean_linker_0, # of connection points: 2
#     Edge 86, Type (0, 1), BuildingBlock: MIFKUJ_clean_linker_0, # of connection points: 2
#     Edge 87, Type (0, 1), BuildingBlock: MIFKUJ_clean_linker_0, # of connection points: 2
#     Edge 88, Type (0, 1), BuildingBlock: MIFKUJ_clean_linker_0, # of connection points: 2
#     Edge 89, Type (0, 1), BuildingBlock: MIFKUJ_clean_linker_0, # of connection points: 2
#     Edge 90, Type (0, 1), BuildingBlock: MIFKUJ_clean_linker_0, # of connection points: 2
#     Edge 91, Type (0, 1), BuildingBlock: MIFKUJ_clean_linker_0, # of connection points: 2
#     Edge 92, Type (0, 1), BuildingBlock: MIFKUJ_clean_linker_0, # of connection points: 2
#     Edge 93, Type (0, 1), BuildingBlock: MIFKUJ_clean_linker_0, # of connection points: 2
#     Edge 94, Type (0, 1), BuildingBlock: MIFKUJ_clean_linker_0, # of connection points: 2
#     Edge 95, Type (0, 1), BuildingBlock: MIFKUJ_clean_linker_0, # of connection points: 2
#     Edge 96, Type (0, 1), BuildingBlock: MIFKUJ_clean_linker_0, # of connection points: 2
#     Edge 97, Type (0, 1), BuildingBlock: MIFKUJ_clean_linker_0, # of connection points: 2
#     Edge 98, Type (0, 1), BuildingBlock: MIFKUJ_clean_linker_0, # of connection points: 2
#     Edge 99, Type (0, 1), BuildingBlock: MIFKUJ_clean_linker_0, # of connection points: 2
#     Edge 100, Type (0, 1), BuildingBlock: MIFKUJ_clean_linker_0, # of connection points: 2
#     Edge 101, Type (0, 1), BuildingBlock: MIFKUJ_clean_linker_0, # of connection points: 2
#     Edge 102, Type (0, 1), BuildingBlock: MIFKUJ_clean_linker_0, # of connection points: 2
#     Edge 103, Type (0, 1), BuildingBlock: MIFKUJ_clean_linker_0, # of connection points: 2
#     Edge 104, Type (0, 1), BuildingBlock: MIFKUJ_clean_linker_0, # of connection points: 2
#     Edge 105, Type (0, 1), BuildingBlock: MIFKUJ_clean_linker_0, # of connection points: 2
#     Edge 106, Type (0, 1), BuildingBlock: MIFKUJ_clean_linker_0, # of connection points: 2
#     Edge 107, Type (0, 1), BuildingBlock: MIFKUJ_clean_linker_0, # of connection points: 2
#     Edge 108, Type (0, 1), BuildingBlock: MIFKUJ_clean_linker_0, # of connection points: 2
#     Edge 109, Type (0, 1), BuildingBlock: MIFKUJ_clean_linker_0, # of connection points: 2
#     Edge 110, Type (0, 1), BuildingBlock: MIFKUJ_clean_linker_0, # of connection points: 2
#     Edge 111, Type (0, 1), BuildingBlock: MIFKUJ_clean_linker_0, # of connection points: 2
#     Edge 112, Type (0, 1), BuildingBlock: MIFKUJ_clean_linker_0, # of connection points: 2
#     Edge 113, Type (0, 1), BuildingBlock: MIFKUJ_clean_linker_0, # of connection points: 2
#     Edge 114, Type (0, 1), BuildingBlock: MIFKUJ_clean_linker_0, # of connection points: 2
#     Edge 115, Type (0, 1), BuildingBlock: MIFKUJ_clean_linker_0, # of connection points: 2
#     Edge 116, Type (0, 1), BuildingBlock: MIFKUJ_clean_linker_0, # of connection points: 2
#     Edge 117, Type (0, 1), BuildingBlock: MIFKUJ_clean_linker_0, # of connection points: 2
#     Edge 118, Type (0, 1), BuildingBlock: MIFKUJ_clean_linker_0, # of connection points: 2
#     Edge 119, Type (0, 1), BuildingBlock: MIFKUJ_clean_linker_0, # of connection points: 2
#     Edge 120, Type (0, 1), BuildingBlock: MIFKUJ_clean_linker_0, # of connection points: 2
#     Edge 121, Type (0, 1), BuildingBlock: MIFKUJ_clean_linker_0, # of connection points: 2
#     Edge 122, Type (0, 1), BuildingBlock: MIFKUJ_clean_linker_0, # of connection points: 2
#     Edge 123, Type (0, 1), BuildingBlock: MIFKUJ_clean_linker_0, # of connection points: 2
#     Edge 124, Type (0, 1), BuildingBlock: MIFKUJ_clean_linker_0, # of connection points: 2
#     Edge 125, Type (0, 1), BuildingBlock: MIFKUJ_clean_linker_0, # of connection points: 2
#     Edge 126, Type (0, 1), BuildingBlock: MIFKUJ_clean_linker_0, # of connection points: 2
#     Edge 127, Type (0, 1), BuildingBlock: MIFKUJ_clean_linker_0, # of connection points: 2
#     Edge 128, Type (0, 1), BuildingBlock: MIFKUJ_clean_linker_0, # of connection points: 2
#     Edge 129, Type (0, 1), BuildingBlock: MIFKUJ_clean_linker_0, # of connection points: 2
#     Edge 130, Type (0, 1), BuildingBlock: MIFKUJ_clean_linker_0, # of connection points: 2
#     Edge 131, Type (0, 1), BuildingBlock: MIFKUJ_clean_linker_0, # of connection points: 2
#     Edge 132, Type (0, 1), BuildingBlock: MIFKUJ_clean_linker_0, # of connection points: 2
#     Edge 133, Type (0, 1), BuildingBlock: MIFKUJ_clean_linker_0, # of connection points: 2
#     Edge 134, Type (0, 1), BuildingBlock: MIFKUJ_clean_linker_0, # of connection points: 2
#     Edge 135, Type (0, 1), BuildingBlock: MIFKUJ_clean_linker_0, # of connection points: 2
# Relax obj value: 0.126
# Max RMSD: 0.318
# Mean RMSD: 0.177
data_MOF--net-gar--node1-QUQFOY_clean_sbu_1--node2-KUMJIN_clean_sbu_0--edge1-MIFKUJ_clean_linker_0
_symmetry_space_group_name_H-M    P1
_symmetry_Int_Tables_number       1
_symmetry_cell_setting            triclinic
loop_
_symmetry_equiv_pos_as_xyz
'x, y, z'
_cell_length_a     78.388455
_cell_length_b     73.335607
_cell_length_c     73.339264
_cell_angle_alpha  100.18836
_cell_angle_beta   93.484499
_cell_angle_gamma 104.36366
loop_
_atom_site_label
_atom_site_type_symbol
_atom_site_fract_x
_atom_site_fract_y
_atom_site_fract_z
_atom_type_partial_charge
O0 O 0.0861 0.2695 0.38302 0.0
Cd1 Cd 0.08803 0.28736 0.36397 0.0
Cd2 Cd 0.08412 0.31385 0.39282 0.0
O3 O 0.0857 0.29228 0.40694 0.0
O4 O 0.10465 0.28228 0.34557 0.0
O5 O 0.10986 0.30909 0.36699 0.0
C6 C 0.1149 0.299 0.35308 0.0
C7 C 0.09392 0.3455 0.40916 0.0
C8 C 0.0858 0.27506 0.40041 0.0
C9 C 0.05656 0.30127 0.35854 0.0
O10 O 0.06196 0.31092 0.3749 0.0
O11 O 0.06521 0.29021 0.35062 0.0
O12 O 0.07995 0.33377 0.41269 0.0
O13 O 0.10325 0.33898 0.39696 0.0
O14 O 0.01013 0.73327 0.67033 0.0
Cd15 Cd 0.0182 0.7587 0.68938 0.0
Cd16 Cd 0.0355 0.77127 0.66022 0.0
O17 O 0.02302 0.74357 0.64687 0.0
O18 O 1.00294 0.7529 0.70928 0.0
O19 O 1.00256 0.77658 0.69435 0.0
C20 C 0.99642 0.76681 0.70665 0.0
C21 C 0.03598 0.79466 0.64227 0.0
C22 C 0.01354 0.73017 0.65355 0.0
C23 C 0.05783 0.77208 0.69547 0.0
O24 O 0.05749 0.77506 0.67891 0.0
O25 O 0.04353 0.76598 0.70236 0.0
O26 O 0.04528 0.78247 0.63909 0.0
O27 O 0.02644 0.79387 0.656 0.0
O28 O 0.63362 0.80899 0.88563 0.0
Cd29 Cd 0.61351 0.81085 0.90223 0.0
Cd30 Cd 0.60081 0.82438 0.87303 0.0
O31 O 0.62205 0.81762 0.86142 0.0
O32 O 0.61882 0.79854 0.92311 0.0
O33 O 0.59419 0.78732 0.90374 0.0
C34 C 0.60377 0.78604 0.91819 0.0
C35 C 0.57347 0.81525 0.85507 0.0
C36 C 0.63434 0.81225 0.86921 0.0
C37 C 0.61006 0.85151 0.90951 0.0
O38 O 0.60588 0.84965 0.89217 0.0
O39 O 0.61272 0.83752 0.91621 0.0
O40 O 0.58645 0.82839 0.85164 0.0
O41 O 0.57605 0.80686 0.86868 0.0
O42 O 0.49605 0.22858 0.16208 0.0
Cd43 Cd 0.50167 0.25592 0.1774 0.0
Cd44 Cd 0.51487 0.26623 0.1466 0.0
O45 O 0.50328 0.23753 0.13586 0.0
O46 O 0.48664 0.25447 0.19815 0.0
O47 O 0.48351 0.27068 0.17587 0.0
C48 C 0.47815 0.26474 0.19065 0.0
C49 C 0.51245 0.28752 0.12692 0.0
C50 C 0.49727 0.22438 0.14476 0.0
C51 C 0.54068 0.2721 0.18066 0.0
O52 O 0.53857 0.27252 0.16342 0.0
O53 O 0.52734 0.2671 0.18941 0.0
O54 O 0.5219 0.27551 0.12356 0.0
O55 O 0.50424 0.28763 0.14166 0.0
O56 O 0.07727 0.78585 0.11349 0.0
Cd57 Cd 0.0807 0.81069 0.13351 0.0
Cd58 Cd 0.09875 0.82651 0.1051 0.0
O59 O 0.09034 0.79746 0.09051 0.0
O60 O 0.06539 0.80223 0.15319 0.0
O61 O 0.06047 0.82353 0.13729 0.0
C62 C 0.05587 0.81349 0.14983 0.0
C63 C 0.09191 0.85313 0.09358 0.0
C64 C 0.08222 0.78312 0.09722 0.0
C65 C 0.12063 0.82745 0.14172 0.0
O66 O 0.1206 0.83119 0.12534 0.0
O67 O 0.10604 0.82055 0.14788 0.0
O68 O 0.1048 0.84619 0.08816 0.0
O69 O 0.08265 0.84488 0.1053 0.0
O70 O 0.5644 0.78239 0.41674 0.0
Cd71 Cd 0.54764 0.7808 0.43799 0.0
Cd72 Cd 0.52586 0.79212 0.40453 0.0
O73 O 0.54837 0.78719 0.39275 0.0
O74 O 0.55885 0.76906 0.45755 0.0
O75 O 0.53379 0.75361 0.44046 0.0
C76 C 0.54616 0.75351 0.45291 0.0
C77 C 0.49892 0.7883 0.38499 0.0
C78 C 0.56267 0.78461 0.39988 0.0
C79 C 0.53776 0.81978 0.44355 0.0
O80 O 0.53101 0.81532 0.42659 0.0
O81 O 0.5439 0.80783 0.45107 0.0
O82 O 0.51305 0.80161 0.38467 0.0
O83 O 0.50008 0.77654 0.3959 0.0
O84 O 0.58382 0.2912 0.62188 0.0
Cd85 Cd 0.58802 0.31581 0.64234 0.0
Cd86 Cd 0.6056 0.33225 0.61364 0.0
O87 O 0.59637 0.30329 0.59887 0.0
O88 O 0.57277 0.30703 0.66203 0.0
O89 O 0.56816 0.32907 0.64698 0.0
C90 C 0.56337 0.31857 0.65913 0.0
C91 C 0.59894 0.35946 0.60296 0.0
C92 C 0.58834 0.28879 0.60541 0.0
C93 C 0.62827 0.33211 0.64931 0.0
O94 O 0.62791 0.33615 0.63303 0.0
O95 O 0.61383 0.32529 0.65584 0.0
O96 O 0.61058 0.35135 0.59592 0.0
O97 O 0.59084 0.35205 0.61585 0.0
O98 O 0.02796 0.23984 0.92256 0.0
Cd99 Cd 0.02838 0.25955 0.90507 0.0
Cd100 Cd 0.01681 0.27959 0.93739 0.0
O101 O 0.02173 0.25603 0.94857 0.0
O102 O 0.04189 0.25139 0.88399 0.0
O103 O 0.05197 0.27866 0.90427 0.0
C104 C 0.05435 0.26694 0.88988 0.0
C105 C 0.02797 0.31271 0.95159 0.0
C106 C 0.02558 0.24111 0.93974 0.0
C107 C 0.99247 0.26871 0.90062 0.0
O108 O 0.99454 0.27508 0.91817 0.0
O109 O 1.00448 0.26234 0.89272 0.0
O110 O 0.01534 0.30148 0.95797 0.0
O111 O 0.03521 0.3049 0.93799 0.0
O112 O 0.42653 0.06029 0.2504 0.0
Cd113 Cd 0.40725 0.06487 0.26716 0.0
Cd114 Cd 0.4309 0.05279 0.29445 0.0
O115 O 0.44424 0.05324 0.27113 0.0
O116 O 0.39256 0.07661 0.25205 0.0
O117 O 0.40787 0.09219 0.27897 0.0
C118 C 0.39758 0.09218 0.26451 0.0
C119 C 0.44999 0.05558 0.3215 0.0
C120 C 0.44071 0.05594 0.25484 0.0
C121 C 0.39197 0.0298 0.2833 0.0
O122 O 0.40688 0.03277 0.29277 0.0
O123 O 0.38947 0.04092 0.27251 0.0
O124 O 0.44605 0.04054 0.30848 0.0
O125 O 0.44288 0.06928 0.31944 0.0
O126 O 0.31024 0.20191 0.54458 0.0
Cd127 Cd 0.30819 0.18306 0.51937 0.0
Cd128 Cd 0.29487 0.21221 0.50798 0.0
O129 O 0.30406 0.22681 0.53524 0.0
O130 O 0.31934 0.16308 0.52637 0.0
O131 O 0.33055 0.18154 0.50705 0.0
C132 C 0.33159 0.16809 0.51595 0.0
C133 C 0.30059 0.22598 0.48153 0.0
C134 C 0.3086 0.21899 0.54828 0.0
C135 C 0.26945 0.17315 0.50492 0.0
O136 O 0.27139 0.19094 0.50515 0.0
O137 O 0.28279 0.16686 0.5084 0.0
O138 O 0.29018 0.23132 0.4931 0.0
O139 O 0.30845 0.21335 0.48537 0.0
O140 O 0.17243 0.01148 0.73782 0.0
Cd141 Cd 0.19444 0.0124 0.75813 0.0
Cd142 Cd 0.16445 0.03254 0.78218 0.0
O143 O 0.15232 0.02335 0.75323 0.0
O144 O 0.2112 0.99554 0.74619 0.0
O145 O 0.19855 0.98933 0.77063 0.0
C146 C 0.20888 0.98476 0.7585 0.0
C147 C 0.14911 0.03249 0.81148 0.0
C148 C 0.15779 0.01668 0.73772 0.0
C149 C 0.2033 0.05715 0.77697 0.0
O150 O 0.18796 0.05479 0.78294 0.0
O151 O 0.20832 0.04265 0.76845 0.0
O152 O 0.14791 0.04395 0.80024 0.0
O153 O 0.15832 0.02054 0.80606 0.0
O154 O 0.3086 0.95264 0.04821 0.0
Cd155 Cd 0.3173 0.97482 0.03445 0.0
Cd156 Cd 0.32122 0.94565 0.00735 0.0
O157 O 0.30912 0.92907 0.02512 0.0
O158 O 0.30909 0.99665 0.04731 0.0
O159 O 0.30005 0.98237 0.01785 0.0
C160 C 0.29948 0.99541 0.03202 0.0
C161 C 0.31613 0.93141 0.97577 0.0
C162 C 0.30586 0.93481 0.0416 0.0
C163 C 0.35405 0.97625 0.02681 0.0
O164 O 0.34724 0.96054 0.01546 0.0
O165 O 0.34425 0.98534 0.03555 0.0
O166 O 0.32576 0.92598 0.9874 0.0
O167 O 0.30876 0.94481 0.98201 0.0
O168 O 0.3048 0.40828 0.06999 0.0
Cd169 Cd 0.30842 0.42525 0.04981 0.0
Cd170 Cd 0.31769 0.39201 0.03068 0.0
O171 O 0.31065 0.38197 0.05488 0.0
O172 O 0.29617 0.44617 0.05691 0.0
O173 O 0.28794 0.42434 0.03096 0.0
C174 C 0.28561 0.4393 0.04172 0.0
C175 C 0.311 0.37239 1.00064 0.0
C176 C 0.30637 0.3913 0.06951 0.0
C177 C 0.34583 0.43064 0.03989 0.0
O178 O 0.34138 0.41273 0.03311 0.0
O179 O 0.33459 0.43885 0.04703 0.0
O180 O 0.32291 0.37062 0.01261 0.0
O181 O 0.30192 0.38445 0.00606 0.0
O182 O 0.80566 0.1587 0.05283 0.0
Cd183 Cd 0.79813 0.13601 0.03032 0.0
Cd184 Cd 0.79589 0.16435 0.01246 0.0
O185 O 0.80945 0.18173 0.03667 0.0
O186 O 0.80637 0.11472 0.03797 0.0
O187 O 0.81638 0.12853 0.01478 0.0
C188 C 0.81676 0.11593 0.025 0.0
C189 C 0.80165 0.17451 0.98459 0.0
C190 C 0.81057 0.17641 0.05214 0.0
C191 C 0.76209 0.13545 0.01591 0.0
O192 O 0.76937 0.15191 0.01277 0.0
O193 O 0.77147 0.12537 0.02171 0.0
O194 O 0.79404 0.18337 0.99697 0.0
O195 O 0.80683 0.16005 0.98833 0.0
O196 O 0.1824 0.52525 0.21119 0.0
Cd197 Cd 0.20107 0.53216 0.23419 0.0
Cd198 Cd 0.17566 0.54306 0.2521 0.0
O199 O 0.16038 0.52891 0.22757 0.0
O200 O 0.21679 0.51433 0.23273 0.0
O201 O 0.1964 0.51487 0.25234 0.0
C202 C 0.20862 0.50745 0.24582 0.0
C203 C 0.16457 0.53886 0.28028 0.0
C204 C 0.16599 0.524 0.21204 0.0
C205 C 0.20807 0.57395 0.24922 0.0
O206 O 0.19198 0.56988 0.25249 0.0
O207 O 0.21525 0.56066 0.24306 0.0
O208 O 0.15814 0.54817 0.2695 0.0
O209 O 0.17714 0.53146 0.27486 0.0
O210 O 0.80448 0.90888 0.57231 0.0
Cd211 Cd 0.80818 0.92463 0.55124 0.0
Cd212 Cd 0.81571 0.89129 0.5331 0.0
O213 O 0.80668 0.88101 0.55671 0.0
O214 O 0.79672 0.94625 0.55787 0.0
O215 O 0.78746 0.92352 0.53268 0.0
C216 C 0.78568 0.93898 0.54307 0.0
C217 C 0.80717 0.8746 0.50201 0.0
C218 C 0.80398 0.89127 0.57168 0.0
C219 C 0.84561 0.92795 0.54197 0.0
O220 O 0.84087 0.9098 0.53652 0.0
O221 O 0.83436 0.93699 0.54757 0.0
O222 O 0.817 0.86895 0.51339 0.0
O223 O 0.80111 0.889 0.50862 0.0
O224 O 0.94301 0.0818 0.24253 0.0
Cd225 Cd 0.92168 0.08412 0.26012 0.0
Cd226 Cd 0.95586 0.06623 0.28373 0.0
O227 O 0.96475 0.07238 0.25687 0.0
O228 O 0.9028 0.09632 0.24804 0.0
O229 O 0.91928 0.11157 0.27364 0.0
C230 C 0.90699 0.11158 0.26105 0.0
C231 C 0.97353 0.06561 0.31337 0.0
C232 C 0.958 0.07728 0.24242 0.0
C233 C 0.91421 0.04359 0.27384 0.0
O234 O 0.93059 0.04676 0.2798 0.0
O235 O 0.90847 0.05633 0.26693 0.0
O236 O 0.97171 0.05283 0.29829 0.0
O237 O 0.96654 0.07952 0.31158 0.0
O238 O 0.31773 0.64384 0.55985 0.0
Cd239 Cd 0.30776 0.62398 0.53557 0.0
Cd240 Cd 0.30344 0.65436 0.5224 0.0
O241 O 0.31912 0.66878 0.54662 0.0
O242 O 0.31793 0.60181 0.53571 0.0
O243 O 0.32347 0.621 0.51532 0.0
C244 C 0.32604 0.60643 0.52172 0.0
C245 C 0.30736 0.67029 0.49738 0.0
C246 C 0.32218 0.66188 0.56079 0.0
C247 C 0.27069 0.62456 0.52779 0.0
O248 O 0.27735 0.64129 0.52486 0.0
O249 O 0.28063 0.61391 0.5309 0.0
O250 O 0.30039 0.67652 0.5118 0.0
O251 O 0.3123 0.65471 0.49699 0.0
O252 O 0.44421 0.5788 0.73974 0.0
Cd253 Cd 0.42248 0.58045 0.7568 0.0
Cd254 Cd 0.45636 0.56327 0.78096 0.0
O255 O 0.46591 0.56975 0.75455 0.0
O256 O 0.40438 0.59359 0.74459 0.0
O257 O 0.41953 0.60731 0.77129 0.0
C258 C 0.40802 0.60821 0.75829 0.0
C259 C 0.4737 0.5631 0.81086 0.0
C260 C 0.45933 0.57458 0.73998 0.0
C261 C 0.41515 0.53949 0.76976 0.0
O262 O 0.43142 0.54309 0.77636 0.0
O263 O 0.40934 0.55207 0.76261 0.0
O264 O 0.47251 0.55047 0.79581 0.0
O265 O 0.46621 0.5766 0.80894 0.0
O266 O 0.68211 0.03028 0.7262 0.0
Cd267 Cd 0.70194 0.03427 0.74737 0.0
Cd268 Cd 0.68059 0.05007 0.76832 0.0
O269 O 0.66386 0.04177 0.74378 0.0
O270 O 0.71535 0.01486 0.74053 0.0
O271 O 0.69983 0.01594 0.76482 0.0
C272 C 0.70995 0.00787 0.75476 0.0
C273 C 0.66826 0.04553 0.79592 0.0
C274 C 0.66736 0.03433 0.72792 0.0
C275 C 0.71643 0.07551 0.7642 0.0
O276 O 0.7016 0.07401 0.77072 0.0
O277 O 0.71978 0.06093 0.75448 0.0
O278 O 0.66559 0.05854 0.78724 0.0
O279 O 0.67785 0.03471 0.78875 0.0
O280 O 0.81017 0.69952 0.04564 0.0
Cd281 Cd 0.80874 0.68111 0.02024 0.0
Cd282 Cd 0.79666 0.71116 0.00873 0.0
O283 O 0.80522 0.72506 0.03644 0.0
O284 O 0.81951 0.66066 0.02689 0.0
O285 O 0.83128 0.67962 0.00823 0.0
C286 C 0.83196 0.66579 0.01672 0.0
C287 C 0.80358 0.72535 0.98256 0.0
C288 C 0.80882 0.71671 0.04948 0.0
C289 C 0.77037 0.67228 0.00492 0.0
O290 O 0.77286 0.69014 0.00512 0.0
O291 O 0.78334 0.66551 0.00869 0.0
O292 O 0.79282 0.73063 0.99371 0.0
O293 O 0.81112 0.71257 0.98671 0.0
O294 O 0.92765 0.55946 0.74065 0.0
Cd295 Cd 0.91538 0.56033 0.76474 0.0
Cd296 Cd 0.94618 0.55143 0.77792 0.0
O297 O 0.95335 0.55695 0.75243 0.0
O298 O 0.89495 0.5705 0.75888 0.0
O299 O 0.91691 0.5862 0.78077 0.0
C300 C 0.90213 0.58551 0.77153 0.0
C301 C 0.96797 0.56027 0.80347 0.0
C302 C 0.94349 0.55875 0.73881 0.0
C303 C 0.91082 0.52225 0.77578 0.0
O304 O 0.92761 0.52609 0.77809 0.0
O305 O 0.9032 0.53452 0.77149 0.0
O306 O 0.96794 0.54681 0.78958 0.0
O307 O 0.95591 0.56941 0.80261 0.0
O308 O 0.8012 0.42537 0.55835 0.0
Cd309 Cd 0.80775 0.44014 0.53715 0.0
Cd310 Cd 0.81615 0.40826 0.52353 0.0
O311 O 0.79868 0.39698 0.54092 0.0
O312 O 0.79607 0.46126 0.54236 0.0
O313 O 0.78787 0.43779 0.51748 0.0
C314 C 0.78515 0.45288 0.52767 0.0
C315 C 0.81409 0.39198 0.49291 0.0
C316 C 0.79596 0.40719 0.55575 0.0
C317 C 0.84568 0.44334 0.53659 0.0
O318 O 0.84107 0.42521 0.53486 0.0
O319 O 0.83407 0.45254 0.53515 0.0
O320 O 0.82076 0.38613 0.50658 0.0
O321 O 0.80816 0.40702 0.49671 0.0
O322 O 0.67339 0.51405 0.23558 0.0
Cd323 Cd 0.6951 0.51543 0.25624 0.0
Cd324 Cd 0.66539 0.53514 0.27976 0.0
O325 O 0.65318 0.52573 0.25091 0.0
O326 O 0.7123 0.49901 0.24495 0.0
O327 O 0.69876 0.49239 0.26882 0.0
C328 C 0.70955 0.48811 0.25711 0.0
C329 C 0.65051 0.53481 0.30914 0.0
C330 C 0.65869 0.5191 0.23543 0.0
C331 C 0.70381 0.56009 0.2747 0.0
O332 O 0.68845 0.55777 0.28058 0.0
O333 O 0.70889 0.54558 0.26637 0.0
O334 O 0.64829 0.54564 0.29758 0.0
O335 O 0.66045 0.52358 0.30396 0.0
Eu336 Eu 0.03469 0.03572 0.01699 0.0
C337 C 0.08491 0.10974 0.0667 0.0
C338 C 0.08895 0.13382 0.04756 0.0
C339 C 0.09207 0.1436 0.08127 0.0
C340 C 0.08452 0.11437 0.04929 0.0
C341 C 0.08905 0.12432 0.08291 0.0
C342 C 0.09226 0.14835 0.06362 0.0
C343 C 0.09031 0.10011 0.10099 0.0
N344 N 0.0832 0.09113 0.06772 0.0
C345 C 0.08676 0.0863 0.08449 0.0
C346 C 0.09119 0.11919 0.10023 0.0
Eu347 Eu 0.07651 0.06804 0.0393 0.0
N348 N 0.08212 0.1 0.03415 0.0
C349 C 0.08557 0.10427 0.01712 0.0
C350 C 0.09125 0.1381 0.0299 0.0
C351 C 0.08974 0.12327 0.01464 0.0
H352 H 0.08627 0.0716 0.0852 0.0
H353 H 0.09204 0.12645 1.001 0.0
H354 H 0.09589 0.16333 0.06264 0.0
H355 H 0.09253 0.09606 0.11425 0.0
H356 H 0.08484 0.09307 0.00519 0.0
H357 H 0.02172 0.98707 0.0667 0.0
H358 H 0.09514 0.1528 0.02801 0.0
H359 H 0.02655 0.02354 0.97043 0.0
H360 H 0.02732 0.01776 0.05679 0.0
H361 H 0.02121 0.99481 0.94535 0.0
H362 H 0.09525 0.15499 0.09355 0.0
H363 H 0.01979 0.95726 0.04397 0.0
H364 H 0.01943 0.94109 0.01086 0.0
H365 H 0.09432 0.12995 0.113 0.0
H366 H 0.0195 0.94319 0.97777 0.0
N367 N 0.02909 1.00625 0.02824 0.0
C368 C 0.02646 1.00519 0.04638 0.0
C369 C 0.02222 0.97084 0.03938 0.0
C370 C 0.02377 0.97172 0.02067 0.0
C371 C 0.02326 0.98762 0.05222 0.0
C372 C 0.02704 0.98982 0.01542 0.0
H373 H 0.01978 0.96307 0.95321 0.0
N374 N 0.02883 0.00838 0.99228 0.0
C375 C 0.02296 0.99351 0.95977 0.0
C376 C 0.02707 0.99096 0.99687 0.0
C377 C 0.02596 0.00973 0.97402 0.0
C378 C 0.02222 0.97565 0.96426 0.0
C379 C 0.02388 0.97412 0.98299 0.0
O380 O 0.01024 0.03359 0.99972 0.0
O381 O 0.05 0.06691 0.02508 0.0
O382 O 0.05696 0.07103 0.06143 0.0
O383 O 0.03165 0.04698 0.04812 0.0
O384 O 0.03652 0.05772 0.99853 0.0
O385 O 0.01071 0.0383 0.02963 0.0
O386 O 0.10068 0.06371 0.05233 0.0
O387 O 0.06149 0.03674 0.03028 0.0
O388 O 0.05463 0.03393 0.99484 0.0
O389 O 0.07849 0.06004 0.00741 0.0
O390 O 0.07517 0.04526 0.05664 0.0
O391 O 0.10073 0.07209 0.0256 0.0
C392 C 0.04624 0.07243 0.01015 0.0
C393 C 0.98367 0.02116 0.01202 0.0
C394 C 0.95159 0.01507 0.01064 0.0
C395 C 0.96843 0.02779 0.0115 0.0
C396 C 0.95021 0.99554 0.01033 0.0
C397 C 0.98212 1.00161 0.01153 0.0
C398 C 0.96543 0.98887 0.01069 0.0
C399 C 0.04075 0.06037 0.0625 0.0
C400 C 1.00102 0.03505 0.01377 0.0
C401 C 0.02173 0.95624 0.98821 0.0
C402 C 0.02166 0.95504 0.00703 0.0
C403 C 0.06557 0.03073 0.04481 0.0
C404 C 0.1276 0.08226 0.0451 0.0
C405 C 0.1427 0.07559 0.04262 0.0
C406 C 0.15973 0.08809 0.04795 0.0
C407 C 0.16138 0.10751 0.05566 0.0
C408 C 0.12944 0.10163 0.05282 0.0
C409 C 0.14628 0.1142 0.05806 0.0
C410 C 0.0701 0.04593 0.99326 0.0
C411 C 0.11014 0.06875 0.03922 0.0
H412 H 0.96972 0.04298 0.01218 0.0
H413 H 0.93738 0.98544 0.00964 0.0
H414 H 0.99375 0.99624 0.01194 0.0
H415 H 0.9643 0.9738 0.01038 0.0
H416 H 0.14115 0.06065 0.03632 0.0
H417 H 0.1743 0.11745 0.06009 0.0
H418 H 0.11792 0.10704 0.05474 0.0
H419 H 0.14765 0.12914 0.06405 0.0
Eu420 Eu 0.31517 0.79536 0.24452 0.0
C421 C 0.28438 0.84843 0.30188 0.0
C422 C 0.30997 0.87533 0.31338 0.0
C423 C 0.28052 0.88042 0.31241 0.0
C424 C 0.30259 0.85558 0.30579 0.0
C425 C 0.27314 0.8607 0.30566 0.0
C426 C 0.29889 0.88772 0.31624 0.0
C427 C 0.24804 0.83283 0.29764 0.0
N428 N 0.27754 0.82933 0.29539 0.0
C429 C 0.25969 0.82128 0.29415 0.0
C430 C 0.25479 0.85269 0.3031 0.0
Eu431 Eu 0.29787 0.81066 0.28855 0.0
N432 N 0.31304 0.84325 0.30273 0.0
C433 C 0.33087 0.84977 0.30838 0.0
C434 C 0.32826 0.88206 0.31819 0.0
C435 C 0.33869 0.86916 0.31595 0.0
H436 H 0.25445 0.80588 0.28999 0.0
H437 H 0.35285 0.87418 0.3199 0.0
H438 H 0.30439 0.90292 0.32181 0.0
H439 H 0.2339 0.82642 0.29612 0.0
H440 H 0.33955 0.84052 0.30671 0.0
H441 H 0.26663 0.73148 0.20551 0.0
H442 H 0.3344 0.8971 0.32396 0.0
H443 H 0.35934 0.80489 0.2508 0.0
H444 H 0.27694 0.7642 0.22437 0.0
H445 H 0.38277 0.78836 0.24375 0.0
H446 H 0.2721 0.89007 0.31516 0.0
H447 H 0.28804 0.71244 0.19769 0.0
H448 H 0.31971 0.7109 0.19874 0.0
H449 H 0.24575 0.86163 0.30586 0.0
H450 H 0.35103 0.72563 0.2103 0.0
N451 N 0.30372 0.76311 0.22882 0.0
C452 C 0.28636 0.75581 0.2217 0.0
C453 C 0.29258 0.72654 0.20658 0.0
C454 C 0.31049 0.73439 0.21325 0.0
C455 C 0.28046 0.73728 0.21087 0.0
C456 C 0.31573 0.75292 0.22462 0.0
H457 H 0.37467 0.75443 0.22726 0.0
N458 N 0.33822 0.78009 0.23978 0.0
C459 C 0.36897 0.78065 0.23998 0.0
C460 C 0.33349 0.7616 0.23044 0.0
C461 C 0.35569 0.78993 0.244 0.0
C462 C 0.36434 0.76147 0.23075 0.0
C463 C 0.34646 0.75184 0.22546 0.0
O464 O 0.33124 0.81199 0.22686 0.0
O465 O 0.31105 0.81997 0.26463 0.0
O466 O 0.27828 0.81342 0.26535 0.0
O467 O 0.28708 0.79842 0.23795 0.0
O468 O 0.33574 0.8237 0.25527 0.0
O469 O 0.30417 0.79557 0.21657 0.0
O470 O 0.28608 0.80929 0.31468 0.0
O471 O 0.29986 0.78601 0.26722 0.0
O472 O 0.3304 0.78714 0.26787 0.0
O473 O 0.32681 0.80932 0.29334 0.0
O474 O 0.27547 0.7838 0.27717 0.0
O475 O 0.30407 0.79213 0.30688 0.0
C476 C 0.32571 0.83197 0.26513 0.0
C477 C 0.3242 0.80178 0.19431 0.0
C478 C 0.32654 0.80933 0.1634 0.0
C479 C 0.321 0.81258 0.18125 0.0
C480 C 0.33494 0.79454 0.15861 0.0
C481 C 0.33265 0.78714 0.18948 0.0
C482 C 0.33791 0.78349 0.17161 0.0
C483 C 0.27608 0.80697 0.24702 0.0
C484 C 0.31881 0.80663 0.21288 0.0
C485 C 0.34126 0.73324 0.21452 0.0
C486 C 0.32337 0.72472 0.20815 0.0
C487 C 0.2845 0.77507 0.26617 0.0
C488 C 0.30394 0.80347 0.33879 0.0
C489 C 0.30291 0.78945 0.34967 0.0
C490 C 0.31181 0.79414 0.36777 0.0
C491 C 0.32175 0.81319 0.37484 0.0
C492 C 0.31388 0.82239 0.34602 0.0
C493 C 0.32274 0.8272 0.36399 0.0
C494 C 0.33536 0.79707 0.28515 0.0
C495 C 0.29491 0.7979 0.31979 0.0
H496 H 0.31413 0.8236 0.18509 0.0
H497 H 0.33949 0.79175 0.145 0.0
H498 H 0.33525 0.77868 0.19945 0.0
H499 H 0.34447 0.77221 0.1679 0.0
H500 H 0.29504 0.7749 0.34402 0.0
H501 H 0.32899 0.8172 0.38862 0.0
H502 H 0.31478 0.83341 0.33781 0.0
H503 H 0.33046 0.84179 0.3695 0.0
Eu504 Eu 0.5871 0.05641 0.51808 0.0
C505 C 0.52213 0.01927 0.55178 0.0
C506 C 0.50817 0.99142 0.5277 0.0
C507 C 0.50375 0.99067 0.56013 0.0
C508 C 0.5192 0.01026 0.53321 0.0
C509 C 0.51412 0.00971 0.56541 0.0
C510 C 0.50063 0.98165 0.5413 0.0
C511 C 0.52446 0.03954 0.58786 0.0
N512 N 0.53134 0.03801 0.55627 0.0
C513 C 0.53173 0.0485 0.57375 0.0
C514 C 0.51583 0.01997 0.58374 0.0
Eu515 Eu 0.54286 0.0524 0.5316 0.0
N516 N 0.52593 0.02047 0.52037 0.0
C517 C 0.52157 0.01307 0.50177 0.0
C518 C 0.50431 0.98337 0.50865 0.0
C519 C 0.51089 0.99433 0.49562 0.0
H520 H 0.53808 0.06374 0.57684 0.0
H521 H 0.5077 0.98839 0.48085 0.0
H522 H 0.49169 0.96746 0.53738 0.0
H523 H 0.5253 0.04778 0.60182 0.0
H524 H 0.52651 0.02155 0.49166 0.0
H525 H 0.64647 0.06273 0.56414 0.0
H526 H 0.49587 0.96895 0.50385 0.0
H527 H 0.57826 0.08858 0.49376 0.0
H528 H 0.61835 0.0461 0.54426 0.0
H529 H 0.59035 0.1223 0.49183 0.0
H530 H 0.49742 0.98311 0.57037 0.0
H531 H 0.65851 0.0978 0.56725 0.0
H532 H 0.65612 0.12834 0.55775 0.0
H533 H 0.50989 0.01313 0.5946 0.0
H534 H 0.64108 0.14444 0.53766 0.0
N535 N 0.6135 0.07175 0.53821 0.0
C536 C 0.62312 0.06153 0.54636 0.0
C537 C 0.64586 0.09064 0.55912 0.0
C538 C 0.63674 0.10077 0.54943 0.0
C539 C 0.63915 0.07085 0.55735 0.0
C540 C 0.62051 0.0907 0.53866 0.0
H541 H 0.61713 0.14206 0.51254 0.0
N542 N 0.59743 0.08907 0.51577 0.0
C543 C 0.59661 0.11616 0.50188 0.0
C544 C 0.61226 0.09961 0.52705 0.0
C545 C 0.58976 0.09695 0.50302 0.0
C546 C 0.61162 0.12728 0.51365 0.0
C547 C 0.61973 0.11904 0.52633 0.0
O548 O 0.60142 0.05751 0.49339 0.0
O549 O 0.55995 0.03576 0.51595 0.0
O550 O 0.5593 0.04566 0.55494 0.0
O551 O 0.58859 0.05821 0.54938 0.0
O552 O 0.58161 0.02732 0.52594 0.0
O553 O 0.60253 0.03584 0.50935 0.0
O554 O 0.52823 0.07311 0.54255 0.0
O555 O 0.56759 0.07339 0.52662 0.0
O556 O 0.56924 0.05292 0.4914 0.0
O557 O 0.54306 0.0577 0.50226 0.0
O558 O 0.5574 0.07964 0.5517 0.0
O559 O 0.51779 0.05292 0.51701 0.0
C560 C 0.56475 0.02195 0.52128 0.0
C561 C 0.62924 0.05022 0.49823 0.0
C562 C 0.65763 0.04289 0.50508 0.0
C563 C 0.63893 0.03709 0.50187 0.0
C564 C 0.66646 0.06185 0.50417 0.0
C565 C 0.63854 0.06906 0.49744 0.0
C566 C 0.65699 0.07475 0.50033 0.0
C567 C 0.57659 0.05106 0.55998 0.0
C568 C 0.60954 0.04472 0.4967 0.0
C569 C 0.63527 0.12946 0.5379 0.0
C570 C 0.64379 0.12032 0.54939 0.0
C571 C 0.56961 0.08592 0.54162 0.0
C572 C 0.49705 0.06375 0.53522 0.0
C573 C 0.48579 0.07461 0.52979 0.0
C574 C 0.46851 0.07188 0.53531 0.0
C575 C 0.46294 0.05833 0.54663 0.0
C576 C 0.49091 0.05008 0.5461 0.0
C577 C 0.47402 0.0475 0.55185 0.0
C578 C 0.55338 0.05586 0.4889 0.0
C579 C 0.51509 0.06663 0.52941 0.0
H580 H 0.63191 0.02261 0.5028 0.0
H581 H 0.68079 0.0667 0.50631 0.0
H582 H 0.6316 0.07958 0.49487 0.0
H583 H 0.66399 0.08931 0.49974 0.0
H584 H 0.49041 0.08492 0.52107 0.0
H585 H 0.45002 0.05618 0.55165 0.0
H586 H 0.49911 0.0414 0.55019 0.0
H587 H 0.46951 0.03705 0.56044 0.0
Eu588 Eu 0.28671 0.30261 0.76908 0.0
C589 C 0.34353 0.27737 0.8129 0.0
C590 C 0.35185 0.3028 0.84022 0.0
C591 C 0.3522 0.27031 0.84274 0.0
C592 C 0.34566 0.29626 0.82112 0.0
C593 C 0.34741 0.26428 0.82344 0.0
C594 C 0.35443 0.28959 0.85114 0.0
C595 C 0.34415 0.24125 0.79466 0.0
N596 N 0.33934 0.27227 0.79421 0.0
C597 C 0.34063 0.25487 0.78486 0.0
C598 C 0.34717 0.24582 0.8141 0.0
Eu599 Eu 0.33111 0.29504 0.77851 0.0
N600 N 0.34328 0.30859 0.81004 0.0
C601 C 0.34874 0.32795 0.81681 0.0
C602 C 0.35609 0.32252 0.84753 0.0
C603 C 0.35498 0.33518 0.83565 0.0
H604 H 0.33811 0.25122 0.76983 0.0
H605 H 0.35874 0.35052 0.84102 0.0
H606 H 0.35887 0.29428 0.8659 0.0
H607 H 0.34447 0.22722 0.78723 0.0
H608 H 0.34779 0.338 0.80798 0.0
H609 H 0.25492 0.24843 0.70745 0.0
H610 H 0.36087 0.32815 0.86212 0.0
H611 H 0.28358 0.34787 0.78001 0.0
H612 H 0.26982 0.26039 0.73916 0.0
H613 H 0.27514 0.37218 0.76455 0.0
H614 H 0.35495 0.2604 0.85114 0.0
H615 H 0.24873 0.27124 0.68834 0.0
H616 H 0.24993 0.30512 0.68583 0.0
H617 H 0.35001 0.2353 0.82167 0.0
H618 H 0.25562 0.33898 0.70139 0.0
N619 N 0.27294 0.2899 0.73818 0.0
C620 C 0.26746 0.27061 0.73109 0.0
C621 C 0.25566 0.2766 0.70221 0.0
C622 C 0.26049 0.29625 0.70984 0.0
C623 C 0.25898 0.26371 0.71297 0.0
C624 C 0.269 0.30252 0.7282 0.0
H625 H 0.26464 0.36404 0.73087 0.0
N626 N 0.27856 0.32649 0.75518 0.0
C627 C 0.27429 0.35801 0.75659 0.0
C628 C 0.27202 0.32148 0.73696 0.0
C629 C 0.27902 0.34421 0.7653 0.0
C630 C 0.26845 0.35339 0.73757 0.0
C631 C 0.26685 0.3348 0.72759 0.0
O632 O 0.26842 0.31215 0.78778 0.0
O633 O 0.30732 0.30123 0.79103 0.0
O634 O 0.31123 0.26719 0.78204 0.0
O635 O 0.284 0.27055 0.7702 0.0
O636 O 0.29621 0.3243 0.79584 0.0
O637 O 0.26153 0.28303 0.77237 0.0
O638 O 0.35053 0.2858 0.76127 0.0
O639 O 0.31022 0.29578 0.75655 0.0
O640 O 0.30669 0.32856 0.76191 0.0
O641 O 0.33308 0.32694 0.77727 0.0
O642 O 0.32253 0.27371 0.75134 0.0
O643 O 0.35578 0.31534 0.77492 0.0
C644 C 0.30699 0.316 0.80278 0.0
C645 C 0.23788 0.29689 0.77934 0.0
C646 C 0.20762 0.29398 0.78779 0.0
C647 C 0.22541 0.29394 0.79239 0.0
C648 C 0.20272 0.29744 0.77021 0.0
C649 C 0.23254 0.30029 0.76194 0.0
C650 C 0.21511 0.30065 0.75747 0.0
C651 C 0.29396 0.26013 0.77648 0.0
C652 C 0.25627 0.2959 0.78362 0.0
C653 C 0.2595 0.32892 0.70889 0.0
C654 C 0.25627 0.30965 0.70003 0.0
C655 C 0.31094 0.28123 0.74467 0.0
C656 C 0.38056 0.3028 0.77017 0.0
C657 C 0.39337 0.30553 0.75745 0.0
C658 C 0.41124 0.30632 0.7628 0.0
C659 C 0.41587 0.30404 0.78096 0.0
C660 C 0.38563 0.30058 0.78813 0.0
C661 C 0.40317 0.30116 0.79345 0.0
C662 C 0.32355 0.33647 0.76886 0.0
C663 C 0.36199 0.30251 0.76484 0.0
H664 H 0.2294 0.29118 0.80582 0.0
H665 H 0.18926 0.29777 0.76634 0.0
H666 H 0.24181 0.30251 0.75174 0.0
H667 H 0.21114 0.30329 0.74399 0.0
H668 H 0.38951 0.30736 0.74359 0.0
H669 H 0.42935 0.30425 0.78547 0.0
H670 H 0.37603 0.29846 0.79807 0.0
H671 H 0.40696 0.29939 0.80733 0.0
Eu672 Eu 0.05928 0.06241 0.53742 0.0
C673 C 0.08341 1.00572 0.47812 0.0
C674 C 0.06098 0.9988 0.45185 0.0
C675 C 0.09086 0.99695 0.44662 0.0
C676 C 0.06629 1.00446 0.47118 0.0
C677 C 0.09578 1.00149 0.46595 0.0
C678 C 0.07348 0.9956 0.43957 0.0
C679 C 0.1163 1.00454 0.49294 0.0
N680 N 0.08761 0.00986 0.49688 0.0
C681 C 0.10358 0.00863 0.50443 0.0
C682 C 0.1125 1.00127 0.47361 0.0
Eu683 Eu 0.06555 0.01743 0.51537 0.0
N684 N 0.05449 1.00732 0.48343 0.0
C685 C 0.03687 1.00307 0.47743 0.0
C686 C 0.0431 0.99573 0.44552 0.0
C687 C 0.03095 0.99754 0.45843 0.0
H688 H 0.10671 0.0111 0.51932 0.0
H689 H 0.01702 0.99471 0.45386 0.0
H690 H 0.06969 0.99146 0.42467 0.0
H691 H 0.12904 1.00395 0.499 0.0
H692 H 0.0273 1.00436 0.48722 0.0
H693 H 0.10751 0.08443 0.59948 0.0
H694 H 0.03849 0.99131 0.43079 0.0
H695 H 0.01803 0.06846 0.53329 0.0
H696 H 0.09747 0.07521 0.56584 0.0
H697 H 0.99555 0.07536 0.55355 0.0
H698 H 0.10023 0.99385 0.43704 0.0
H699 H 0.08584 0.08756 0.62221 0.0
H700 H 0.05461 0.08758 0.62809 0.0
H701 H 0.12236 0.99805 0.46474 0.0
H702 H 0.02415 0.0853 0.61557 0.0
N703 N 0.07024 0.07222 0.56943 0.0
C704 C 0.08784 0.0764 0.57558 0.0
C705 C 0.08134 0.0834 0.60744 0.0
C706 C 0.06352 0.08047 0.60097 0.0
C707 C 0.09361 0.08171 0.59466 0.0
C708 C 0.05834 0.07501 0.5816 0.0
H709 H 1.00213 0.08116 0.58782 0.0
N710 N 0.03706 0.06969 0.55579 0.0
C711 C 0.0083 0.07483 0.55965 0.0
C712 C 0.04122 0.07377 0.57456 0.0
C713 C 0.0211 0.07088 0.54819 0.0
C714 C 0.01205 0.07805 0.57898 0.0
C715 C 0.02877 0.07788 0.58669 0.0
O716 O 0.05467 0.08428 0.52252 0.0
O717 O 0.05838 0.0438 0.50889 0.0
O718 O 0.08781 0.03985 0.50751 0.0
O719 O 0.08801 0.06473 0.532 0.0
O720 O 0.0375 0.05575 0.51324 0.0
O721 O 0.07653 0.09172 0.54417 0.0
O722 O 0.07083 0.99545 0.52972 0.0
O723 O 0.06659 0.03605 0.54395 0.0
O724 O 0.03682 0.04016 0.54495 0.0
O725 O 0.03668 0.01522 0.52058 0.0
O726 O 0.08757 0.02435 0.53919 0.0
O727 O 0.04746 0.98857 0.51 0.0
C728 C 0.04404 0.04558 0.50076 0.0
C729 C 0.06381 0.11645 0.53796 0.0
C730 C 0.06167 0.14672 0.52979 0.0
C731 C 0.0665 0.12933 0.52577 0.0
C732 C 0.05449 0.15122 0.54664 0.0
C733 C 0.05664 0.12109 0.55466 0.0
C734 C 0.0521 0.13849 0.559 0.0
C735 C 0.09533 0.057 0.51787 0.0
C736 C 0.06764 0.09786 0.53212 0.0
C737 C 0.03359 0.0823 0.60603 0.0
C738 C 0.05093 0.08358 0.61316 0.0
C739 C 0.08108 0.03434 0.55185 0.0
C740 C 0.05972 0.96318 0.51497 0.0
C741 C 0.05543 0.94964 0.52635 0.0
C742 C 0.0594 0.93178 0.52198 0.0
C743 C 0.06734 0.92759 0.50555 0.0
C744 C 0.06752 0.95877 0.49865 0.0
C745 C 0.07121 0.94095 0.49394 0.0
C746 C 0.02908 0.02326 0.53432 0.0
C747 C 0.05698 0.98221 0.52128 0.0
H748 H 0.07232 0.12564 0.51305 0.0
H749 H 0.05041 0.16435 0.55013 0.0
H750 H 0.05443 0.11124 0.56419 0.0
H751 H 0.04647 0.14202 0.57185 0.0
H752 H 0.04911 0.9532 0.53874 0.0
H753 H 0.07091 0.91418 0.50183 0.0
H754 H 0.07092 0.96911 0.48973 0.0
H755 H 0.07738 0.93761 0.48141 0.0
Eu756 Eu 0.33249 0.81599 0.76139 0.0
C757 C 0.28574 0.73767 0.75784 0.0
C758 C 0.26517 0.725 0.72981 0.0
C759 C 0.2772 0.70334 0.74505 0.0
C760 C 0.27504 0.74064 0.74359 0.0
C761 C 0.2867 0.71894 0.75893 0.0
C762 C 0.26648 0.70637 0.7305 0.0
C763 C 0.30567 0.7323 0.78787 0.0
N764 N 0.29486 0.75306 0.77093 0.0
C765 C 0.30431 0.7506 0.78615 0.0
C766 C 0.29699 0.71641 0.77409 0.0
Eu767 Eu 0.29197 0.78366 0.76735 0.0
N768 N 0.27428 0.75887 0.74322 0.0
C769 C 0.26293 0.76227 0.73009 0.0
C770 C 0.25421 0.72855 0.71581 0.0
C771 C 0.25297 0.74725 0.71606 0.0
H772 H 0.31118 0.7628 0.79682 0.0
H773 H 0.24433 0.7501 0.70545 0.0
H774 H 0.25909 0.6942 0.71997 0.0
H775 H 0.31349 0.73049 0.79977 0.0
H776 H 0.26182 0.77664 0.7301 0.0
H777 H 0.31955 0.88655 0.77638 0.0
H778 H 0.24649 0.71694 0.70491 0.0
H779 H 0.35562 0.79991 0.72725 0.0
H780 H 0.32345 0.85603 0.78323 0.0
H781 H 0.36482 0.80714 0.69735 0.0
H782 H 0.27789 0.68886 0.74557 0.0
H783 H 0.32354 0.8939 0.74506 0.0
H784 H 0.33289 0.88483 0.71326 0.0
H785 H 0.29811 0.70226 0.77542 0.0
H786 H 0.34542 0.86319 0.69172 0.0
N787 N 0.32896 0.84579 0.75584 0.0
C788 C 0.32518 0.85901 0.76947 0.0
C789 C 0.32521 0.88043 0.74795 0.0
C790 C 0.33043 0.86746 0.73448 0.0
C791 C 0.32299 0.87637 0.76567 0.0
C792 C 0.33242 0.85012 0.739 0.0
H793 H 0.35777 0.83444 0.68586 0.0
N794 N 0.34246 0.82224 0.73248 0.0
C795 C 0.35754 0.81583 0.70545 0.0
C796 C 0.3395 0.83801 0.72695 0.0
C797 C 0.35216 0.81171 0.72243 0.0
C798 C 0.35351 0.83123 0.69899 0.0
C799 C 0.34472 0.8428 0.70995 0.0
O800 O 0.35781 0.81288 0.7731 0.0
O801 O 0.3215 0.78704 0.76965 0.0
O802 O 0.3082 0.79548 0.79535 0.0
O803 O 0.32432 0.82446 0.79013 0.0
O804 O 0.34072 0.78832 0.75168 0.0
O805 O 0.35347 0.8409 0.77575 0.0
O806 O 0.28073 0.77646 0.79247 0.0
O807 O 0.30435 0.81549 0.7677 0.0
O808 O 0.31764 0.80235 0.73262 0.0
O809 O 0.29916 0.77446 0.73863 0.0
O810 O 0.28008 0.80371 0.75285 0.0
O811 O 0.26567 0.78681 0.77298 0.0
C812 C 0.33054 0.77688 0.76028 0.0
C813 C 0.38241 0.83825 0.77131 0.0
C814 C 0.41367 0.83853 0.77201 0.0
C815 C 0.39676 0.83196 0.77767 0.0
C816 C 0.4159 0.85147 0.75971 0.0
C817 C 0.38488 0.85096 0.75885 0.0
C818 C 0.40156 0.85751 0.75312 0.0
C819 C 0.31748 0.8133 0.80151 0.0
C820 C 0.36498 0.8312 0.77769 0.0
C821 C 0.34169 0.85939 0.70482 0.0
C822 C 0.33455 0.87171 0.71708 0.0
C823 C 0.29215 0.81963 0.75794 0.0
C824 C 0.24975 0.76272 0.78752 0.0
C825 C 0.23288 0.76499 0.78308 0.0
C826 C 0.21775 0.74959 0.78151 0.0
C827 C 0.2196 0.73185 0.78483 0.0
C828 C 0.25142 0.74491 0.79091 0.0
C829 C 0.23638 0.72962 0.78964 0.0
C830 C 0.30765 0.78452 0.72717 0.0
C831 C 0.26536 0.77877 0.78745 0.0
H832 H 0.39463 0.82177 0.78689 0.0
H833 H 0.42877 0.85718 0.75535 0.0
H834 H 0.37397 0.85587 0.75357 0.0
H835 H 0.40342 0.86741 0.74363 0.0
H836 H 0.2316 0.77859 0.7801 0.0
H837 H 0.20811 0.71977 0.78368 0.0
H838 H 0.26429 0.74268 0.79429 0.0
H839 H 0.23774 0.71592 0.79216 0.0
Eu840 Eu 0.57733 0.03048 0.0752 0.0
C841 C 0.51555 0.0399 0.02004 0.0
C842 C 0.49323 0.00947 0.01457 0.0
C843 C 0.48491 0.03823 0.00998 0.0
C844 C 0.5109 0.02048 0.02008 0.0
C845 C 0.50265 0.04893 0.01462 0.0
C846 C 0.48024 0.0185 0.00983 0.0
C847 C 0.52607 0.07776 0.01616 0.0
N848 N 0.53292 0.04962 0.02372 0.0
C849 C 0.53838 0.06808 0.02105 0.0
C850 C 0.5081 0.06819 0.01305 0.0
Eu851 Eu 0.55328 0.03204 0.03092 0.0
N852 N 0.52388 0.01206 0.02405 0.0
C853 C 0.52022 0.99252 0.02175 0.0
C854 C 0.48929 0.98957 0.01311 0.0
C855 C 0.5029 0.98103 0.01645 0.0
H856 H 0.55226 0.07552 0.02277 0.0
H857 H 0.50007 0.9656 0.01498 0.0
H858 H 0.4666 0.01029 0.00566 0.0
H859 H 0.53049 0.0925 0.01445 0.0
H860 H 0.53054 0.98562 0.02414 0.0
H861 H 0.56485 0.07075 0.14137 0.0
H862 H 0.47589 0.98063 0.00895 0.0
H863 H 0.61751 0.0281 0.06249 0.0
H864 H 0.55834 0.04445 0.11425 0.0
H865 H 0.64841 0.04743 0.06896 0.0
H866 H 0.47481 0.0449 0.00585 0.0
H867 H 0.59373 0.09513 0.14681 0.0
H868 H 0.62433 0.10598 0.13776 0.0
H869 H 0.49866 0.07558 0.00873 0.0
H870 H 0.6472 0.09943 0.11821 0.0
N871 N 0.58282 0.0542 0.10318 0.0
C872 C 0.57099 0.0549 0.11613 0.0
C873 C 0.59085 0.08368 0.1346 0.0
C874 C 0.60354 0.08196 0.12225 0.0
C875 C 0.57462 0.06988 0.13168 0.0
C876 C 0.59911 0.06684 0.10646 0.0
H877 H 0.65645 0.07733 0.0928 0.0
N878 N 0.60757 0.04788 0.08094 0.0
C879 C 0.63823 0.05233 0.07617 0.0
C880 C 0.6119 0.06353 0.09503 0.0
C881 C 0.62057 0.04151 0.07236 0.0
C882 C 0.6427 0.0693 0.08953 0.0
C883 C 0.62956 0.07488 0.09949 0.0
O884 O 0.59138 0.01874 0.09506 0.0
O885 O 0.55209 0.01944 0.05632 0.0
O886 O 0.54668 0.05432 0.05276 0.0
O887 O 0.56625 0.05698 0.0796 0.0
O888 O 0.54994 0.02382 0.0848 0.0
O889 O 0.57023 0.99976 0.07561 0.0
O890 O 0.57069 0.03912 0.00946 0.0
O891 O 0.5797 0.04023 0.04826 0.0
O892 O 0.58761 0.01694 0.04924 0.0
O893 O 0.56034 1.00431 0.03309 0.0
O894 O 0.57314 0.06116 0.03583 0.0
O895 O 0.54795 0.01487 1.00262 0.0
C896 C 0.54125 0.01851 0.06847 0.0
C897 C 0.57409 0.99191 0.10481 0.0
C898 C 0.55494 0.99035 0.12973 0.0
C899 C 0.56273 0.99961 0.11596 0.0
C900 C 0.55897 0.97331 0.13246 0.0
C901 C 0.57796 0.97489 0.10757 0.0
C902 C 0.57045 0.96566 0.12142 0.0
C903 C 0.55433 0.06274 0.06988 0.0
C904 C 0.58141 1.00132 0.08992 0.0
C905 C 0.63376 0.09058 0.11454 0.0
C906 C 0.62073 0.09423 0.12579 0.0
C907 C 0.5851 0.05745 0.0464 0.0
C908 C 0.5571 0.0316 0.97875 0.0
C909 C 0.56982 0.03283 0.96612 0.0
C910 C 0.56655 0.03794 0.94891 0.0
C911 C 0.55039 0.0422 0.94471 0.0
C912 C 0.54106 0.03593 0.9744 0.0
C913 C 0.53778 0.04128 0.95744 0.0
C914 C 0.57695 1.00391 0.03592 0.0
C915 C 0.56099 0.02578 0.99633 0.0
H916 H 0.56007 0.01292 0.11399 0.0
H917 H 0.55308 0.96577 0.14291 0.0
H918 H 0.58668 0.96871 0.09898 0.0
H919 H 0.57342 0.95249 0.12352 0.0
H920 H 0.58214 0.02943 0.96963 0.0
H921 H 0.54755 0.04638 0.93164 0.0
H922 H 0.5311 0.03513 0.98404 0.0
H923 H 0.52541 0.04463 0.95412 0.0
Eu924 Eu 0.31523 0.32815 0.28676 0.0
C925 C 0.24144 0.27399 0.25992 0.0
C926 C 0.23076 0.24729 0.27524 0.0
C927 C 0.20982 0.26196 0.26175 0.0
C928 C 0.24483 0.26046 0.26952 0.0
C929 C 0.22381 0.27458 0.25556 0.0
C930 C 0.2133 0.2484 0.27166 0.0
C931 C 0.23497 0.29986 0.23897 0.0
N932 N 0.25528 0.28618 0.25434 0.0
C933 C 0.2522 0.29894 0.24381 0.0
C934 C 0.22071 0.28753 0.24475 0.0
Eu935 Eu 0.28407 0.28213 0.26154 0.0
N936 N 0.26178 0.2595 0.27244 0.0
C937 C 0.26541 0.24468 0.27959 0.0
C938 C 0.23461 0.23298 0.28383 0.0
C939 C 0.25201 0.23152 0.28579 0.0
H940 H 0.26287 0.30876 0.23918 0.0
H941 H 0.25508 0.22015 0.29189 0.0
H942 H 0.20235 0.2385 0.27605 0.0
H943 H 0.23271 0.31004 0.23068 0.0
H944 H 0.2788 0.24323 0.28072 0.0
H945 H 0.34301 0.39036 0.25618 0.0
H946 H 0.22419 0.22263 0.28845 0.0
H947 H 0.33775 0.3035 0.31045 0.0
H948 H 0.31978 0.3672 0.26783 0.0
H949 H 0.36796 0.30138 0.31675 0.0
H950 H 0.19624 0.26237 0.25868 0.0
H951 H 0.37389 0.38774 0.25832 0.0
H952 H 0.39606 0.37155 0.26938 0.0
H953 H 0.20734 0.28794 0.24062 0.0
H954 H 0.40275 0.34706 0.28548 0.0
N955 N 0.33707 0.35082 0.27531 0.0
C956 C 0.33319 0.36573 0.2685 0.0
C957 C 0.36369 0.37737 0.26319 0.0
C958 C 0.36781 0.36284 0.27125 0.0
C959 C 0.3463 0.37891 0.26196 0.0
C960 C 0.35401 0.34955 0.2772 0.0
H961 H 0.39244 0.32107 0.30332 0.0
N962 N 0.34427 0.32421 0.29302 0.0
C963 C 0.36528 0.31107 0.30807 0.0
C964 C 0.35773 0.33581 0.2863 0.0
C965 C 0.34797 0.3124 0.30437 0.0
C966 C 0.37904 0.32212 0.3004 0.0
C967 C 0.37544 0.33497 0.28969 0.0
O968 O 0.31571 0.33465 0.31717 0.0
O969 O 0.2873 0.31059 0.28007 0.0
O970 O 0.29057 0.30286 0.24156 0.0
O971 O 0.31278 0.33025 0.25626 0.0
O972 O 0.29176 0.33938 0.27944 0.0
O973 O 0.31718 0.3572 0.3016 0.0
O974 O 0.28117 0.27385 0.2311 0.0
O975 O 0.31191 0.29994 0.26797 0.0
O976 O 0.30942 0.30662 0.30603 0.0
O977 O 0.28565 0.28042 0.29218 0.0
O978 O 0.30783 0.27147 0.26922 0.0
O979 O 0.28467 0.25342 0.24796 0.0
C980 C 0.27971 0.32348 0.27807 0.0
C981 C 0.30039 0.35803 0.3274 0.0
C982 C 0.27657 0.37426 0.32875 0.0
C983 C 0.29003 0.36833 0.31945 0.0
C984 C 0.27308 0.36905 0.34596 0.0
C985 C 0.29693 0.35334 0.34479 0.0
C986 C 0.28322 0.35864 0.35388 0.0
C987 C 0.30193 0.31961 0.24161 0.0
C988 C 0.3147 0.35217 0.31757 0.0
C989 C 0.38912 0.34761 0.28311 0.0
C990 C 0.38533 0.36158 0.27399 0.0
C991 C 0.31978 0.28737 0.27019 0.0
C992 C 0.29828 0.25249 0.2199 0.0
C993 C 0.30971 0.24225 0.22613 0.0
C994 C 0.32233 0.23685 0.215 0.0
C995 C 0.32385 0.24255 0.1977 0.0
C996 C 0.2999 0.25776 0.20247 0.0
C997 C 0.31276 0.25302 0.19158 0.0
C998 C 0.29734 0.29047 0.30644 0.0
C999 C 0.28448 0.25732 0.23131 0.0
H1000 H 0.2924 0.37177 0.3059 0.0
H1001 H 0.26285 0.37345 0.35352 0.0
H1002 H 0.30484 0.3456 0.35135 0.0
H1003 H 0.28059 0.35489 0.36726 0.0
H1004 H 0.30876 0.23845 0.23971 0.0
H1005 H 0.33324 0.23852 0.18862 0.0
H1006 H 0.29117 0.26548 0.19724 0.0
H1007 H 0.31393 0.25718 0.17817 0.0
Eu1008 Eu 0.55903 0.56201 0.03557 0.0
C1009 C 0.58195 0.5057 0.97429 0.0
C1010 C 0.55902 0.4995 0.94864 0.0
C1011 C 0.58861 0.49732 0.94241 0.0
C1012 C 0.56477 0.50476 0.96791 0.0
C1013 C 0.59394 0.50146 0.96165 0.0
C1014 C 0.57117 0.49637 0.93591 0.0
C1015 C 0.6149 0.50367 0.98801 0.0
N1016 N 0.58655 0.50947 0.99296 0.0
C1017 C 0.60255 0.50785 0.99997 0.0
C1018 C 0.6107 0.50079 0.96876 0.0
Eu1019 Eu 0.56526 0.51728 0.01245 0.0
N1020 N 0.55334 0.50748 0.98062 0.0
C1021 C 0.53561 0.5033 0.97508 0.0
C1022 C 0.54108 0.49673 0.94282 0.0
C1023 C 0.52926 0.49825 0.95614 0.0
H1024 H 0.606 0.51013 0.01481 0.0
H1025 H 0.51526 0.49559 0.95183 0.0
H1026 H 0.56705 0.49254 0.92105 0.0
H1027 H 0.62768 0.50276 0.99365 0.0
H1028 H 0.52629 0.50444 0.98517 0.0
H1029 H 0.61148 0.58672 0.09373 0.0
H1030 H 0.53612 0.49274 0.92816 0.0
H1031 H 0.51688 0.56474 0.03496 0.0
H1032 H 0.59903 0.57613 0.06091 0.0
H1033 H 0.49565 0.57084 0.05731 0.0
H1034 H 0.5977 0.49424 0.93247 0.0
H1035 H 0.59172 0.58973 0.11852 0.0
H1036 H 0.56097 0.58849 0.12715 0.0
H1037 H 0.62029 0.49753 0.95952 0.0
H1038 H 0.52944 0.58428 0.11722 0.0
N1039 N 0.57226 0.57255 0.06681 0.0
C1040 C 0.59017 0.57734 0.07148 0.0
C1041 C 0.58612 0.58502 0.10406 0.0
C1042 C 0.56787 0.58121 0.0991 0.0
C1043 C 0.59733 0.58337 0.09014 0.0
C1044 C 0.56127 0.57509 0.08008 0.0
H1045 H 0.50504 0.57805 0.09121 0.0
N1046 N 0.53793 0.56801 0.05601 0.0
C1047 C 0.50906 0.57135 0.06234 0.0
C1048 C 0.54356 0.57277 0.07451 0.0
C1049 C 0.52113 0.56793 0.04972 0.0
C1050 C 0.5144 0.57535 0.08146 0.0
C1051 C 0.53191 0.57642 0.08777 0.0
O1052 O 0.55022 0.58433 0.02461 0.0
O1053 O 0.55807 0.54392 0.00683 0.0
O1054 O 0.58752 0.53974 1.00459 0.0
O1055 O 0.58738 0.56538 0.02829 0.0
O1056 O 0.53694 0.55535 0.01169 0.0
O1057 O 0.57668 0.59082 0.03889 0.0
O1058 O 0.57163 0.49406 0.0241 0.0
O1059 O 0.56688 0.53576 0.04124 0.0
O1060 O 0.5381 0.53887 0.04412 0.0
O1061 O 0.53659 0.51523 0.01821 0.0
O1062 O 0.58754 0.5238 0.03603 0.0
O1063 O 0.54569 0.48961 0.00951 0.0
C1064 C 0.54366 0.5457 0.99898 0.0
C1065 C 0.56316 0.61637 0.0395 0.0
C1066 C 0.56201 0.64844 0.03594 0.0
C1067 C 0.56349 0.63002 0.02832 0.0
C1068 C 0.5601 0.65302 0.05502 0.0
C1069 C 0.56113 0.62101 0.05848 0.0
C1070 C 0.55958 0.63931 0.06618 0.0
C1071 C 0.59478 0.55721 0.01446 0.0
C1072 C 0.56491 0.59746 0.0308 0.0
C1073 C 0.53822 0.58159 0.1068 0.0
C1074 C 0.55617 0.58398 0.11246 0.0
C1075 C 0.58143 0.53401 0.04885 0.0
C1076 C 0.55635 0.46228 0.01005 0.0
C1077 C 0.54884 0.44766 0.01938 0.0
C1078 C 0.54965 0.42866 0.01302 0.0
C1079 C 0.55775 0.42454 0.9967 0.0
C1080 C 0.56425 0.45793 0.99379 0.0
C1081 C 0.56485 0.43908 0.98712 0.0
C1082 C 0.52977 0.52247 0.03299 0.0
C1083 C 0.55629 0.482 0.01812 0.0
H1084 H 0.56529 0.62638 0.01369 0.0
H1085 H 0.55893 0.66714 0.06125 0.0
H1086 H 0.56082 0.6106 0.06731 0.0
H1087 H 0.55804 0.64289 0.08084 0.0
H1088 H 0.54243 0.45124 0.0317 0.0
H1089 H 0.55896 0.41021 0.9915 0.0
H1090 H 0.57006 0.46908 0.98641 0.0
H1091 H 0.5711 0.43576 0.97463 0.0
Eu1092 Eu 0.82879 0.31788 0.26086 0.0
C1093 C 0.7793 0.25551 0.29367 0.0
C1094 C 0.78647 0.22595 0.28063 0.0
C1095 C 0.77505 0.22945 0.31076 0.0
C1096 C 0.78578 0.2448 0.27963 0.0
C1097 C 0.77354 0.24782 0.30923 0.0
C1098 C 0.7815 0.21853 0.29648 0.0
C1099 C 0.76381 0.27629 0.31985 0.0
N1100 N 0.77782 0.27312 0.29167 0.0
C1101 C 0.76965 0.28328 0.30415 0.0
C1102 C 0.76596 0.25858 0.32254 0.0
Eu1103 Eu 0.78843 0.28418 0.26491 0.0
N1104 N 0.79023 0.25228 0.26438 0.0
C1105 C 0.79414 0.24112 0.24906 0.0
C1106 C 0.79151 0.21487 0.26539 0.0
C1107 C 0.79507 0.22238 0.24942 0.0
H1108 H 0.76796 0.29701 0.30227 0.0
H1109 H 0.79863 0.21381 0.2374 0.0
H1110 H 0.78212 0.20416 0.29758 0.0
H1111 H 0.75769 0.28458 0.32989 0.0
H1112 H 0.79697 0.24672 0.23663 0.0
H1113 H 0.8178 0.38768 0.28938 0.0
H1114 H 0.79223 0.20034 0.26563 0.0
H1115 H 0.85046 0.30641 0.22411 0.0
H1116 H 0.81964 0.35476 0.28959 0.0
H1117 H 0.86151 0.31984 0.19723 0.0
H1118 H 0.77084 0.22336 0.32269 0.0
H1119 H 0.82469 0.40194 0.26168 0.0
H1120 H 0.83553 0.39904 0.23007 0.0
H1121 H 0.76138 0.25317 0.33469 0.0
H1122 H 0.84755 0.3806 0.20503 0.0
N1123 N 0.82688 0.34986 0.26197 0.0
C1124 C 0.82267 0.36066 0.27736 0.0
C1125 C 0.82547 0.38739 0.26166 0.0
C1126 C 0.83089 0.37672 0.24641 0.0
C1127 C 0.82163 0.37942 0.27733 0.0
C1128 C 0.83164 0.35781 0.24707 0.0
H1129 H 0.85762 0.35124 0.19286 0.0
N1130 N 0.83998 0.32984 0.23473 0.0
C1131 C 0.85497 0.3277 0.20715 0.0
C1132 C 0.83846 0.3475 0.23303 0.0
C1133 C 0.84869 0.32016 0.22243 0.0
C1134 C 0.8527 0.34542 0.2047 0.0
C1135 C 0.84462 0.35571 0.21787 0.0
O1136 O 0.85628 0.31654 0.26416 0.0
O1137 O 0.8181 0.2878 0.26679 0.0
O1138 O 0.80375 0.29237 0.29336 0.0
O1139 O 0.82049 0.32214 0.29024 0.0
O1140 O 0.83709 0.29087 0.24873 0.0
O1141 O 0.84734 0.33695 0.28381 0.0
O1142 O 0.7609 0.28543 0.26167 0.0
O1143 O 0.79914 0.31402 0.25855 0.0
O1144 O 0.81409 0.30909 0.23201 0.0
O1145 O 0.79668 0.27974 0.23565 0.0
O1146 O 0.78026 0.31141 0.2767 0.0
O1147 O 0.76964 0.26456 0.24241 0.0
C1148 C 0.82759 0.2786 0.25708 0.0
C1149 C 0.87729 0.34551 0.27749 0.0
C1150 C 0.90951 0.35429 0.28016 0.0
C1151 C 0.89335 0.34079 0.28022 0.0
C1152 C 0.90949 0.3727 0.27724 0.0
C1153 C 0.87736 0.36385 0.27428 0.0
C1154 C 0.89344 0.37736 0.27414 0.0
C1155 C 0.81367 0.30976 0.30064 0.0
C1156 C 0.86083 0.33096 0.27822 0.0
C1157 C 0.84304 0.37413 0.21666 0.0
C1158 C 0.83619 0.38462 0.2309 0.0
C1159 C 0.7897 0.32341 0.26805 0.0
C1160 C 0.73983 0.25628 0.24916 0.0
C1161 C 0.72357 0.25983 0.24432 0.0
C1162 C 0.70752 0.24678 0.24599 0.0
C1163 C 0.70803 0.22998 0.25254 0.0
C1164 C 0.74012 0.23945 0.25561 0.0
C1165 C 0.72425 0.22637 0.25728 0.0
C1166 C 0.80395 0.29169 0.22504 0.0
C1167 C 0.75621 0.27073 0.24788 0.0
H1168 H 0.89329 0.32667 0.28286 0.0
H1169 H 0.92185 0.38338 0.27729 0.0
H1170 H 0.86508 0.36777 0.27202 0.0
H1171 H 0.89347 0.39152 0.27177 0.0
H1172 H 0.72348 0.27274 0.23908 0.0
H1173 H 0.69592 0.21975 0.25421 0.0
H1174 H 0.75252 0.23641 0.25936 0.0
H1175 H 0.72453 0.21344 0.26235 0.0
Eu1176 Eu 0.06749 0.52737 0.55699 0.0
C1177 C 0.01785 0.5578 0.50682 0.0
C1178 C 0.99378 0.52963 0.4937 0.0
C1179 C 0.98922 0.56141 0.49561 0.0
C1180 C 0.01141 0.53793 0.50196 0.0
C1181 C 0.00687 0.5697 0.50327 0.0
C1182 C 0.98268 0.54145 0.49092 0.0
C1183 C 0.03209 0.59721 0.51298 0.0
N1184 N 0.0352 0.56551 0.51343 0.0
C1185 C 0.04252 0.5849 0.51598 0.0
C1186 C 0.0142 0.58959 0.50657 0.0
Eu1187 Eu 0.05231 0.54341 0.5159 0.0
N1188 N 0.02273 0.5268 0.50371 0.0
C1189 C 0.01753 0.50755 0.4963 0.0
C1190 C 0.98808 0.50975 0.48739 0.0
C1191 C 1.0001 0.49871 0.4884 0.0
H1192 H 0.05648 0.59092 0.5204 0.0
H1193 H 0.99598 0.48338 0.48304 0.0
H1194 H 0.96921 0.53528 0.48441 0.0
H1195 H 0.03795 0.61254 0.51525 0.0
H1196 H 0.02649 0.49862 0.49664 0.0
H1197 H 0.06533 0.56592 0.62765 0.0
H1198 H 0.97464 0.50288 0.48107 0.0
H1199 H 0.1019 0.50793 0.54661 0.0
H1200 H 0.05354 0.54198 0.59851 0.0
H1201 H 0.13447 0.51758 0.55259 0.0
H1202 H 0.98067 0.57032 0.49266 0.0
H1203 H 0.09716 0.5834 0.63292 0.0
H1204 H 0.12772 0.58673 0.62261 0.0
H1205 H 0.00629 0.59915 0.50367 0.0
H1206 H 0.14693 0.57348 0.60157 0.0
N1207 N 0.07815 0.54691 0.58703 0.0
C1208 C 0.06741 0.54963 0.60073 0.0
C1209 C 0.09199 0.57309 0.62007 0.0
C1210 C 0.10326 0.56855 0.6069 0.0
C1211 C 0.07404 0.56317 0.6172 0.0
C1212 C 0.09581 0.55504 0.59041 0.0
H1213 H 0.14959 0.54702 0.5757 0.0
N1214 N 0.09861 0.53282 0.56449 0.0
C1215 C 0.1268 0.52644 0.55977 0.0
C1216 C 0.10652 0.54768 0.57863 0.0
C1217 C 0.10831 0.52121 0.55615 0.0
C1218 C 0.13529 0.54307 0.5728 0.0
C1219 C 0.12508 0.55349 0.58299 0.0
O1220 O 0.05771 0.49624 0.54757 0.0
O1221 O 0.04424 0.5238 0.53577 0.0
O1222 O 0.04674 0.5633 0.54087 0.0
O1223 O 0.06078 0.55598 0.56689 0.0
O1224 O 0.03997 0.52762 0.564 0.0
O1225 O 0.06614 0.50775 0.57653 0.0
O1226 O 0.07371 0.54465 0.49789 0.0
O1227 O 0.07548 0.54406 0.53519 0.0
O1228 O 0.07953 0.51788 0.53077 0.0
O1229 O 0.0553 0.51302 0.50984 0.0
O1230 O 0.07512 0.56986 0.52779 0.0
O1231 O 0.04777 0.54406 0.48632 0.0
C1232 C 0.03276 0.52487 0.54713 0.0
C1233 C 0.03989 0.48231 0.56835 0.0
C1234 C 0.0128 0.48343 0.58268 0.0
C1235 C 0.03077 0.49146 0.58138 0.0
C1236 C 1.00398 0.46575 0.57117 0.0
C1237 C 0.03102 0.46445 0.55716 0.0
C1238 C 0.01317 0.45619 0.55866 0.0
C1239 C 0.0521 0.56647 0.55892 0.0
C1240 C 0.0574 0.49275 0.56424 0.0
C1241 C 0.13267 0.56848 0.59825 0.0
C1242 C 0.12174 0.57601 0.61024 0.0
C1243 C 0.08399 0.56145 0.53748 0.0
C1244 C 0.07215 0.56051 0.47301 0.0
C1245 C 0.08229 0.55587 0.45872 0.0
C1246 C 0.09076 0.56991 0.44912 0.0
C1247 C 0.08887 0.58867 0.4539 0.0
C1248 C 0.0703 0.57926 0.47758 0.0
C1249 C 0.0786 0.59326 0.46803 0.0
C1250 C 0.07034 0.50927 0.51455 0.0
C1251 C 0.06416 0.54572 0.4833 0.0
H1252 H 0.03735 0.5054 0.58988 0.0
H1253 H 0.99008 0.45934 0.57193 0.0
H1254 H 0.03772 0.45725 0.54682 0.0
H1255 H 0.00635 0.44254 0.54982 0.0
H1256 H 0.08396 0.54144 0.45539 0.0
H1257 H 0.09522 0.59971 0.44662 0.0
H1258 H 0.06253 0.58309 0.48851 0.0
H1259 H 0.07713 0.60771 0.47163 0.0
Eu1260 Eu 0.78389 0.8051 0.27144 0.0
C1261 C 0.84193 0.78131 0.31078 0.0
C1262 C 0.84932 0.80594 0.33885 0.0
C1263 C 0.85206 0.77384 0.33989 0.0
C1264 C 0.84324 0.79988 0.3197 0.0
C1265 C 0.84697 0.76826 0.3206 0.0
C1266 C 0.85319 0.79265 0.34902 0.0
C1267 C 0.84411 0.74628 0.29117 0.0
N1268 N 0.8373 0.77658 0.29211 0.0
C1269 C 0.8394 0.75984 0.28207 0.0
C1270 C 0.84757 0.75035 0.31058 0.0
Eu1271 Eu 0.82884 0.79991 0.27754 0.0
N1272 N 0.83962 0.81235 0.30939 0.0
C1273 C 0.84286 0.83141 0.31709 0.0
C1274 C 0.85179 0.82527 0.34706 0.0
C1275 C 0.84883 0.83812 0.33605 0.0
H1276 H 0.83684 0.75675 0.26704 0.0
H1277 H 0.85098 0.85317 0.34218 0.0
H1278 H 0.85764 0.79696 0.3638 0.0
H1279 H 0.84514 0.73276 0.28321 0.0
H1280 H 0.84044 0.84144 0.3088 0.0
H1281 H 0.72355 0.74648 0.2613 0.0
H1282 H 0.85636 0.83049 0.36175 0.0
H1283 H 0.79803 0.83545 0.24252 0.0
H1284 H 0.74944 0.77126 0.27904 0.0
H1285 H 0.79108 0.83863 0.2104 0.0
H1286 H 0.85574 0.76393 0.34774 0.0
H1287 H 0.71757 0.74397 0.22731 0.0
H1288 H 0.72476 0.75805 0.19917 0.0
H1289 H 0.85138 0.73992 0.31759 0.0
H1290 H 0.7429 0.78361 0.18543 0.0
N1291 N 0.75914 0.78085 0.25501 0.0
C1292 C 0.74727 0.76965 0.26408 0.0
C1293 C 0.72922 0.7544 0.23496 0.0
C1294 C 0.74035 0.76733 0.22612 0.0
C1295 C 0.73252 0.7558 0.25413 0.0
C1296 C 0.75537 0.78066 0.2367 0.0
H1297 H 0.76747 0.81366 0.1895 0.0
N1298 N 0.77882 0.80865 0.24017 0.0
C1299 C 0.78379 0.82627 0.21544 0.0
C1300 C 0.76545 0.7951 0.22906 0.0
C1301 C 0.7877 0.82437 0.23376 0.0
C1302 C 0.77052 0.81211 0.20367 0.0
C1303 C 0.76096 0.79645 0.2105 0.0
O1304 O 0.77008 0.82776 0.272 0.0
O1305 O 0.80793 0.81084 0.29204 0.0
O1306 O 0.80972 0.77111 0.28074 0.0
O1307 O 0.7817 0.77271 0.26916 0.0
O1308 O 0.78394 0.79526 0.29874 0.0
O1309 O 0.76493 0.80916 0.29164 0.0
O1310 O 0.84686 0.79359 0.2569 0.0
O1311 O 0.80731 0.80152 0.25653 0.0
O1312 O 0.80269 0.83571 0.27506 0.0
O1313 O 0.83107 0.83114 0.27493 0.0
O1314 O 0.81886 0.77858 0.25077 0.0
O1315 O 0.8558 0.81833 0.27881 0.0
C1316 C 0.80035 0.80318 0.30471 0.0
C1317 C 0.74037 0.81813 0.27951 0.0
C1318 C 0.71007 0.81249 0.28867 0.0
C1319 C 0.72864 0.81706 0.29349 0.0
C1320 C 0.70358 0.80861 0.26966 0.0
C1321 C 0.73333 0.81442 0.26075 0.0
C1322 C 0.7151 0.80963 0.25591 0.0
C1323 C 0.79253 0.76304 0.27514 0.0
C1324 C 0.7598 0.82201 0.28433 0.0
C1325 C 0.74658 0.78267 0.19965 0.0
C1326 C 0.73629 0.76813 0.20744 0.0
C1327 C 0.8074 0.78658 0.24466 0.0
C1328 C 0.87748 0.80314 0.2674 0.0
C1329 C 0.89034 0.80676 0.25483 0.0
C1330 C 0.90673 0.80213 0.25745 0.0
C1331 C 0.9096 0.79335 0.27257 0.0
C1332 C 0.88115 0.79503 0.28262 0.0
C1333 C 0.897 0.79 0.28505 0.0
C1334 C 0.82014 0.84238 0.27501 0.0
C1335 C 0.86025 0.80775 0.26471 0.0
H1336 H 0.73398 0.81989 0.30798 0.0
H1337 H 0.68947 0.8045 0.26531 0.0
H1338 H 0.74189 0.815 0.24971 0.0
H1339 H 0.70984 0.80656 0.24138 0.0
H1340 H 0.88767 0.81342 0.24329 0.0
H1341 H 0.92161 0.7889 0.27478 0.0
H1342 H 0.87178 0.79258 0.29267 0.0
H1343 H 0.89955 0.78346 0.2967 0.0
Eu1344 Eu 0.81654 0.28418 0.74825 0.0
C1345 C 0.80965 0.35794 0.79842 0.0
C1346 C 0.83984 0.37562 0.81029 0.0
C1347 C 0.81746 0.39289 0.80766 0.0
C1348 C 0.82696 0.35796 0.80342 0.0
C1349 C 0.80475 0.37549 0.80056 0.0
C1350 C 0.83496 0.39295 0.81252 0.0
C1351 C 0.77461 0.35749 0.79026 0.0
N1352 N 0.79751 0.34089 0.79174 0.0
C1353 C 0.77997 0.34056 0.78878 0.0
C1354 C 0.7871 0.37508 0.79594 0.0
Eu1355 Eu 0.80718 0.31232 0.79158 0.0
N1356 N 0.8314 0.34093 0.80099 0.0
C1357 C 0.8489 0.34112 0.80408 0.0
C1358 C 0.8574 0.37548 0.81444 0.0
C1359 C 0.86196 0.35817 0.81108 0.0
H1360 H 0.76977 0.32722 0.78569 0.0
H1361 H 0.87567 0.35796 0.81345 0.0
H1362 H 0.84469 0.40655 0.81778 0.0
H1363 H 0.76075 0.35688 0.78752 0.0
H1364 H 0.8535 0.32857 0.80033 0.0
H1365 H 0.74696 0.23998 0.73335 0.0
H1366 H 0.86762 0.38871 0.81964 0.0
H1367 H 0.85358 0.26899 0.75068 0.0
H1368 H 0.77033 0.26901 0.74516 0.0
H1369 H 0.86252 0.23891 0.74454 0.0
H1370 H 0.8139 0.40641 0.8094 0.0
H1371 H 0.75421 0.20917 0.72311 0.0
H1372 H 0.77704 0.19085 0.7199 0.0
H1373 H 0.78288 0.38821 0.79733 0.0
H1374 H 0.80822 0.19036 0.72394 0.0
N1375 N 0.79173 0.25618 0.73986 0.0
C1376 C 0.77425 0.25633 0.73973 0.0
C1377 C 0.7648 0.2222 0.72776 0.0
C1378 C 0.7825 0.2217 0.72898 0.0
C1379 C 0.76067 0.23955 0.73344 0.0
C1380 C 0.79585 0.23909 0.73524 0.0
H1381 H 0.83996 0.20801 0.73358 0.0
N1382 N 0.82586 0.25541 0.74499 0.0
C1383 C 0.84862 0.23858 0.74282 0.0
C1384 C 0.8134 0.23872 0.73787 0.0
C1385 C 0.8434 0.25562 0.74659 0.0
C1386 C 0.83589 0.22121 0.73653 0.0
C1387 C 0.81807 0.22112 0.73376 0.0
O1388 O 0.84157 0.29259 0.73655 0.0
O1389 O 0.82405 0.31255 0.76844 0.0
O1390 O 0.78669 0.31055 0.76656 0.0
O1391 O 0.79304 0.29414 0.73835 0.0
O1392 O 0.81915 0.31299 0.74023 0.0
O1393 O 0.81762 0.27628 0.71841 0.0
O1394 O 0.78218 0.30695 0.80356 0.0
O1395 O 0.80029 0.28396 0.77175 0.0
O1396 O 0.83659 0.28409 0.77289 0.0
O1397 O 0.83095 0.30232 0.80054 0.0
O1398 O 0.80348 0.2835 0.80002 0.0
O1399 O 0.80684 0.31779 0.8219 0.0
C1400 C 0.82381 0.32321 0.75672 0.0
C1401 C 0.83845 0.29935 0.70657 0.0
C1402 C 0.82985 0.32079 0.68809 0.0
C1403 C 0.82543 0.3071 0.69934 0.0
C1404 C 0.84738 0.32637 0.68377 0.0
C1405 C 0.85591 0.3052 0.70228 0.0
C1406 C 0.86033 0.31864 0.69088 0.0
C1407 C 0.78357 0.30426 0.74812 0.0
C1408 C 0.83421 0.28598 0.71939 0.0
C1409 C 0.80487 0.20396 0.7271 0.0
C1410 C 0.78713 0.20425 0.72472 0.0
C1411 C 0.79987 0.27326 0.78352 0.0
C1412 C 0.78208 0.29741 0.83239 0.0
C1413 C 0.79144 0.28517 0.83868 0.0
C1414 C 0.78274 0.27052 0.84753 0.0
C1415 C 0.76494 0.26862 0.85063 0.0
C1416 C 0.76436 0.29541 0.83585 0.0
C1417 C 0.75588 0.28115 0.84499 0.0
C1418 C 0.84016 0.29157 0.79113 0.0
C1419 C 0.78961 0.31118 0.8207 0.0
H1420 H 0.81194 0.30282 0.70275 0.0
H1421 H 0.85104 0.33656 0.67471 0.0
H1422 H 0.86613 0.29946 0.70785 0.0
H1423 H 0.87381 0.32309 0.68756 0.0
H1424 H 0.80516 0.28656 0.83624 0.0
H1425 H 0.75809 0.25748 0.85754 0.0
H1426 H 0.75695 0.30467 0.8311 0.0
H1427 H 0.74217 0.27962 0.84747 0.0
Eu1428 Eu 0.83049 0.82532 0.78358 0.0
C1429 C 0.75667 0.77105 0.77286 0.0
C1430 C 0.75234 0.74404 0.78864 0.0
C1431 C 0.72838 0.75899 0.78443 0.0
C1432 C 0.76324 0.75733 0.77968 0.0
C1433 C 0.73889 0.77139 0.7745 0.0
C1434 C 0.73513 0.74542 0.79158 0.0
C1435 C 0.74254 0.79515 0.75513 0.0
N1436 N 0.7672 0.78314 0.76352 0.0
C1437 C 0.76016 0.7946 0.75412 0.0
C1438 C 0.73192 0.78367 0.76552 0.0
Eu1439 Eu 0.79673 0.78032 0.76253 0.0
N1440 N 0.77977 0.75598 0.77629 0.0
C1441 C 0.78542 0.74052 0.7796 0.0
C1442 C 0.75875 0.72922 0.79366 0.0
C1443 C 0.77521 0.72722 0.78876 0.0
H1444 H 0.76791 0.80364 0.74594 0.0
H1445 H 0.78002 0.71541 0.79196 0.0
H1446 H 0.72668 0.73553 0.7987 0.0
H1447 H 0.73716 0.80444 0.74785 0.0
H1448 H 0.79808 0.7388 0.77575 0.0
H1449 H 0.85981 0.82064 0.71664 0.0
H1450 H 0.7508 0.7188 0.80063 0.0
H1451 H 0.84938 0.81891 0.82488 0.0
H1452 H 0.83572 0.81605 0.73599 0.0
H1453 H 0.87864 0.82073 0.83929 0.0
H1454 H 0.71484 0.75938 0.78615 0.0
H1455 H 0.8908 0.82917 0.73082 0.0
H1456 H 0.91197 0.83387 0.75905 0.0
H1457 H 0.7182 0.7839 0.76597 0.0
H1458 H 0.91699 0.83298 0.79218 0.0
N1459 N 0.85228 0.82424 0.76197 0.0
C1460 C 0.84891 0.82096 0.74293 0.0
C1461 C 0.88015 0.82777 0.73966 0.0
C1462 C 0.88357 0.82939 0.75886 0.0
C1463 C 0.8627 0.82302 0.73162 0.0
C1464 C 0.86919 0.82733 0.76979 0.0
H1465 H 0.90465 0.82731 0.82179 0.0
N1466 N 0.85774 0.82275 0.79816 0.0
C1467 C 0.87697 0.82227 0.82493 0.0
C1468 C 0.872 0.8266 0.78843 0.0
C1469 C 0.86015 0.8208 0.81636 0.0
C1470 C 0.89162 0.82617 0.81508 0.0
C1471 C 0.88929 0.82833 0.79664 0.0
O1472 O 0.83809 0.84409 0.81076 0.0
O1473 O 0.80259 0.80846 0.78164 0.0
O1474 O 0.79721 0.80341 0.74488 0.0
O1475 O 0.81961 0.83174 0.75686 0.0
O1476 O 0.80636 0.83749 0.78537 0.0
O1477 O 0.84027 0.85648 0.78597 0.0
O1478 O 0.80657 0.76914 0.73672 0.0
O1479 O 0.82531 0.79604 0.7664 0.0
O1480 O 0.82282 0.80708 0.80593 0.0
O1481 O 0.80227 0.77771 0.79261 0.0
O1482 O 0.81911 0.7674 0.76926 0.0
O1483 O 0.77909 0.75872 0.74042 0.0
C1484 C 0.79463 0.82141 0.78366 0.0
C1485 C 0.83416 0.87493 0.81399 0.0
C1486 C 0.81176 0.89288 0.81635 0.0
C1487 C 0.81995 0.88024 0.80572 0.0
C1488 C 0.81826 0.90057 0.83516 0.0
C1489 C 0.84053 0.8829 0.83274 0.0
C1490 C 0.83264 0.89569 0.84323 0.0
C1491 C 0.80648 0.8211 0.74416 0.0
C1492 C 0.84154 0.85982 0.8042 0.0
C1493 C 0.90367 0.83153 0.78606 0.0
C1494 C 0.90082 0.83207 0.76721 0.0
C1495 C 0.83177 0.78282 0.7703 0.0
C1496 C 0.79211 0.73678 0.72301 0.0
C1497 C 0.80485 0.72888 0.73061 0.0
C1498 C 0.80455 0.70952 0.7242 0.0
C1499 C 0.79132 0.69825 0.70999 0.0
C1500 C 0.77915 0.72532 0.70879 0.0
C1501 C 0.7788 0.70615 0.70231 0.0
C1502 C 0.81284 0.78973 0.80685 0.0
C1503 C 0.79163 0.75666 0.73011 0.0
H1504 H 0.81495 0.87423 0.79125 0.0
H1505 H 0.81236 0.91057 0.84356 0.0
H1506 H 0.85141 0.87891 0.83938 0.0
H1507 H 0.83759 0.90171 0.8577 0.0
H1508 H 0.81501 0.73781 0.74141 0.0
H1509 H 0.79044 0.6832 0.70498 0.0
H1510 H 0.7692 0.73116 0.70283 0.0
H1511 H 0.76866 0.69733 0.69144 0.0
Eu1512 Eu 0.53862 0.54054 0.51559 0.0
C1513 C 0.59224 0.60793 0.56235 0.0
C1514 C 0.59756 0.6295 0.54064 0.0
C1515 C 0.5996 0.64252 0.57374 0.0
C1516 C 0.59307 0.61065 0.54423 0.0
C1517 C 0.59599 0.62386 0.57735 0.0
C1518 C 0.60036 0.64534 0.55542 0.0
C1519 C 0.59412 0.6019 0.59852 0.0
N1520 N 0.58886 0.58977 0.56543 0.0
C1521 C 0.59058 0.58663 0.58323 0.0
C1522 C 0.59656 0.6206 0.59557 0.0
Eu1523 Eu 0.58128 0.56417 0.53897 0.0
N1524 N 0.59029 0.595 0.53023 0.0
C1525 C 0.59295 0.59756 0.51244 0.0
C1526 C 0.59944 0.63195 0.52236 0.0
C1527 C 0.59739 0.61592 0.50826 0.0
H1528 H 0.58863 0.57219 0.58562 0.0
H1529 H 0.59905 0.61765 0.49406 0.0
H1530 H 0.60357 0.65984 0.55285 0.0
H1531 H 0.59495 0.59921 0.61255 0.0
H1532 H 0.59133 0.58575 0.50101 0.0
H1533 H 0.4766 0.51999 0.54644 0.0
H1534 H 0.60279 0.64615 0.51904 0.0
H1535 H 0.56166 0.51188 0.49338 0.0
H1536 H 0.50053 0.54157 0.53395 0.0
H1537 H 0.56164 0.47785 0.48738 0.0
H1538 H 0.60228 0.65489 0.58507 0.0
H1539 H 0.47709 0.48631 0.54587 0.0
H1540 H 0.49087 0.45946 0.53516 0.0
H1541 H 0.59938 0.63244 0.60744 0.0
H1542 H 0.5136 0.44789 0.51829 0.0
N1543 N 0.51528 0.52086 0.52812 0.0
C1544 C 0.50107 0.527 0.53412 0.0
C1545 C 0.48779 0.49583 0.54074 0.0
C1546 C 0.50146 0.4891 0.53289 0.0
C1547 C 0.48745 0.51481 0.54107 0.0
C1548 C 0.51516 0.50211 0.52651 0.0
H1549 H 0.53993 0.45456 0.50066 0.0
N1550 N 0.54035 0.50825 0.51019 0.0
C1551 C 0.55212 0.48264 0.49581 0.0
C1552 C 0.52798 0.49558 0.51713 0.0
C1553 C 0.55208 0.50199 0.49926 0.0
C1554 C 0.53989 0.46956 0.50337 0.0
C1555 C 0.52747 0.4759 0.51396 0.0
O1556 O 0.52797 0.52763 0.48666 0.0
O1557 O 0.55997 0.56824 0.51973 0.0
O1558 O 0.56103 0.56699 0.56111 0.0
O1559 O 0.53351 0.54828 0.54647 0.0
O1560 O 0.53489 0.57035 0.52496 0.0
O1561 O 0.51564 0.54728 0.50278 0.0
O1562 O 0.59934 0.54684 0.52966 0.0
O1563 O 0.56237 0.53488 0.52987 0.0
O1564 O 0.55723 0.54396 0.49225 0.0
O1565 O 0.58563 0.55558 0.50788 0.0
O1566 O 0.57218 0.54313 0.55773 0.0
O1567 O 0.60816 0.57015 0.55308 0.0
C1568 C 0.55082 0.58016 0.52406 0.0
C1569 C 0.49662 0.52108 0.48181 0.0
C1570 C 0.46448 0.5157 0.47761 0.0
C1571 C 0.48159 0.52824 0.48164 0.0
C1572 C 0.46257 0.49579 0.47332 0.0
C1573 C 0.49444 0.50112 0.47754 0.0
C1574 C 0.47749 0.48859 0.47322 0.0
C1575 C 0.54372 0.55926 0.56157 0.0
C1576 C 0.51427 0.53464 0.48756 0.0
C1577 C 0.51424 0.46305 0.52083 0.0
C1578 C 0.50131 0.46964 0.53037 0.0
C1579 C 0.56277 0.52902 0.54526 0.0
C1580 C 0.61663 0.54144 0.55427 0.0
C1581 C 0.62785 0.53039 0.54699 0.0
C1582 C 0.63205 0.51663 0.55639 0.0
C1583 C 0.62446 0.51365 0.57285 0.0
C1584 C 0.60954 0.53851 0.57099 0.0
C1585 C 0.61329 0.52455 0.58008 0.0
C1586 C 0.57476 0.54881 0.4921 0.0
C1587 C 0.61134 0.55484 0.54365 0.0
H1588 H 0.48324 0.5436 0.48536 0.0
H1589 H 0.44955 0.48579 0.47006 0.0
H1590 H 0.50576 0.49514 0.47774 0.0
H1591 H 0.47589 0.47324 0.46999 0.0
H1592 H 0.63351 0.53273 0.5342 0.0
H1593 H 0.62726 0.50295 0.58018 0.0
H1594 H 0.60098 0.54684 0.57701 0.0
H1595 H 0.60756 0.52224 0.59281 0.0
Eu1596 Eu 0.08744 0.55593 0.00864 0.0
C1597 C 0.02159 0.50809 0.03298 0.0
C1598 C 0.0119 0.48232 0.0059 0.0
C1599 C 0.00641 0.47598 0.03674 0.0
C1600 C 0.02037 0.50167 0.01394 0.0
C1601 C 0.01414 0.49546 0.04455 0.0
C1602 C 1.0053 0.46942 0.01744 0.0
C1603 C 0.02062 0.52268 0.07024 0.0
N1604 N 0.02905 0.52699 0.04005 0.0
C1605 C 0.02769 0.53464 0.05816 0.0
C1606 C 0.01411 0.50293 0.06348 0.0
Eu1607 Eu 0.04138 0.54619 0.01882 0.0
N1608 N 0.02701 0.51446 1.0032 0.0
C1609 C 0.02476 0.50914 0.98423 0.0
C1610 C 0.01012 0.4766 0.98648 0.0
C1611 C 0.01635 0.49014 0.97559 0.0
H1612 H 0.03268 0.54994 0.06334 0.0
H1613 H 0.01485 0.48593 0.96055 0.0
H1614 H 0.99899 0.45445 0.01155 0.0
H1615 H 0.02015 0.52869 0.08472 0.0
H1616 H 0.02967 0.51943 0.97569 0.0
H1617 H 0.14401 0.56767 0.06058 0.0
H1618 H 1.00375 0.46186 0.97977 0.0
H1619 H 0.07876 0.58751 0.9831 0.0
H1620 H 0.11954 0.54883 0.03646 0.0
H1621 H 0.08718 0.62219 0.98401 0.0
H1622 H 1.00082 0.466 0.04543 0.0
H1623 H 0.15088 0.60317 0.06739 0.0
H1624 H 0.14554 0.63313 0.05877 0.0
H1625 H 0.00854 0.49369 0.07284 0.0
H1626 H 0.13038 0.64795 0.03744 0.0
N1627 N 0.11148 0.57321 0.03138 0.0
C1628 C 0.12207 0.56425 0.03994 0.0
C1629 C 0.13991 0.59491 0.05713 0.0
C1630 C 0.13029 0.60404 0.04673 0.0
C1631 C 0.13607 0.57489 0.05336 0.0
C1632 C 0.11618 0.59259 0.03349 0.0
H1633 H 0.10906 0.64395 0.00919 0.0
N1634 N 0.09534 0.58921 0.00777 0.0
C1635 C 0.09308 0.6164 0.99462 0.0
C1636 C 0.10795 0.60085 0.02122 0.0
C1637 C 0.08825 0.59663 0.99422 0.0
C1638 C 0.10541 0.62863 0.00886 0.0
C1639 C 0.11323 0.6209 0.02223 0.0
O1640 O 0.10444 0.56034 0.98627 0.0
O1641 O 0.06127 0.53328 1.00415 0.0
O1642 O 0.05746 0.53896 0.04214 0.0
O1643 O 0.08683 0.5547 0.03929 0.0
O1644 O 0.08376 0.52598 0.01405 0.0
O1645 O 0.10442 0.537 1.00031 0.0
O1646 O 0.02526 0.56487 0.03072 0.0
O1647 O 0.06551 0.56953 0.01664 0.0
O1648 O 0.07066 0.55265 0.98131 0.0
O1649 O 0.04304 0.55426 0.99052 0.0
O1650 O 0.0535 0.57251 0.04112 0.0
O1651 O 0.0162 0.54623 1.00404 0.0
C1652 C 0.067 0.51977 0.00889 0.0
C1653 C 0.13212 0.55298 0.99239 0.0
C1654 C 0.16008 0.54528 1.00063 0.0
C1655 C 0.14147 0.53959 0.99619 0.0
C1656 C 0.16918 0.56443 1.00071 0.0
C1657 C 0.14168 0.57201 0.99272 0.0
C1658 C 0.16005 0.5776 0.99677 0.0
C1659 C 0.07453 0.54523 0.0483 0.0
C1660 C 0.11244 0.54732 0.98917 0.0
C1661 C 0.12637 0.63251 0.03627 0.0
C1662 C 0.13493 0.62408 0.04847 0.0
C1663 C 0.06595 0.58069 0.0322 0.0
C1664 C 0.99431 0.55445 0.02234 0.0
C1665 C 0.98303 0.56607 0.01886 0.0
C1666 C 0.96572 0.56243 0.02444 0.0
C1667 C 0.96023 0.54714 0.03387 0.0
C1668 C 0.98813 0.53899 0.03113 0.0
C1669 C 0.97127 0.53547 0.03697 0.0
C1670 C 0.05443 0.55441 0.97799 0.0
C1671 C 0.01256 0.55873 0.0171 0.0
H1672 H 0.13422 0.52495 0.99624 0.0
H1673 H 0.18347 0.56925 1.00372 0.0
H1674 H 0.13497 0.58268 0.99005 0.0
H1675 H 0.16727 0.59229 0.99697 0.0
H1676 H 0.98775 0.57773 0.01166 0.0
H1677 H 0.94742 0.54419 0.0391 0.0
H1678 H 0.99635 0.52968 0.03361 0.0
H1679 H 0.96674 0.52368 0.04406 0.0
H1680 H 0.03799 0.21011 0.92599 0.0
H1681 H 0.04089 0.18344 0.94044 0.0
H1682 H 0.01997 0.20757 0.9893 0.0
H1683 H 0.01753 0.23486 0.97499 0.0
H1684 H 0.04475 0.19356 1.00067 0.0
H1685 H 0.99518 0.16626 0.95514 0.0
H1686 H 0.97798 0.15826 0.92419 0.0
H1687 H 0.01451 0.12761 0.90167 0.0
H1688 H 0.03207 0.13564 0.93245 0.0
H1689 H 0.03945 0.10347 0.03384 0.0
H1690 H 0.03481 0.13288 0.02528 0.0
H1691 H 0.0501 0.11584 0.97062 0.0
H1692 H 0.05304 0.08588 0.9787 0.0
H1693 H 0.02404 0.12685 0.96465 0.0
H1694 H 0.07869 0.17487 0.01047 0.0
H1695 H 0.09427 0.18843 0.04212 0.0
H1696 H 0.04445 0.17946 0.06509 0.0
H1697 H 0.02863 0.16667 0.03346 0.0
C1698 C 0.03394 0.20986 0.93982 0.0
C1699 C 0.02739 0.22482 0.94917 0.0
C1700 C 0.0355 0.19435 0.94809 0.0
C1701 C 0.0303 0.19293 0.96595 0.0
C1702 C 0.02403 0.20803 0.9755 0.0
C1703 C 0.02259 0.22371 0.96726 0.0
C1704 C 0.0317 0.17588 0.97454 0.0
C1705 C 0.04007 0.17896 0.99276 0.0
C1706 C 0.02556 0.15659 0.96461 0.0
C1707 C 0.01502 0.15169 0.94608 0.0
C1708 C 0.99961 0.15792 0.94356 0.0
C1709 C 0.98979 0.15337 0.92605 0.0
C1710 C 0.99517 0.14247 0.91096 0.0
C1711 C 0.01037 0.13606 0.91337 0.0
C1712 C 0.02025 0.14059 0.93085 0.0
C1713 C 0.04217 0.10626 0.02015 0.0
C1714 C 0.04685 0.09232 0.00705 0.0
C1715 C 0.03969 0.12337 0.01522 0.0
C1716 C 0.0423 0.12732 0.99721 0.0
C1717 C 0.04773 0.11355 0.98454 0.0
C1718 C 0.04958 0.09632 0.98922 0.0
C1719 C 0.03808 0.14448 0.99052 0.0
C1720 C 0.02893 0.14142 0.97257 0.0
C1721 C 0.0432 0.16373 1.00083 0.0
C1722 C 0.05258 0.16911 0.01979 0.0
C1723 C 0.07112 0.17551 0.02234 0.0
C1724 C 0.07996 0.18334 0.04021 0.0
C1725 C 0.07037 0.18458 0.05564 0.0
C1726 C 0.05189 0.1783 0.05317 0.0
C1727 C 0.04298 0.17089 0.03528 0.0
H1728 H 0.07726 0.19052 0.06947 0.0
H1729 H 0.98755 0.13896 0.89742 0.0
H1730 H 0.12584 0.82451 0.17838 0.0
H1731 H 0.15286 0.82277 0.19567 0.0
H1732 H 0.1813 0.83108 0.14804 0.0
H1733 H 0.15423 0.83283 0.13058 0.0
H1734 H 0.1881 0.80148 0.16247 0.0
H1735 H 0.18869 0.86668 0.18698 0.0
H1736 H 0.1765 0.89297 0.20152 0.0
H1737 H 0.16913 0.86809 0.25019 0.0
H1738 H 0.18106 0.84149 0.23583 0.0
H1739 H 0.27277 0.80994 0.21023 0.0
H1740 H 0.24771 0.81521 0.19228 0.0
H1741 H 0.2186 0.81452 0.24032 0.0
H1742 H 0.24379 0.80974 0.25834 0.0
H1743 H 0.21281 0.84136 0.2248 0.0
H1744 H 0.21061 0.77552 0.20036 0.0
H1745 H 0.22236 0.74871 0.1862 0.0
H1746 H 0.23192 0.77377 0.13788 0.0
H1747 H 0.22045 0.80088 0.15187 0.0
C1748 C 0.13788 0.82628 0.17161 0.0
C1749 C 0.13774 0.82893 0.15302 0.0
C1750 C 0.1534 0.82528 0.18157 0.0
C1751 C 0.1693 0.82685 0.17329 0.0
C1752 C 0.16929 0.8298 0.15483 0.0
C1753 C 0.15377 0.83097 0.14488 0.0
C1754 C 0.18565 0.82476 0.18368 0.0
C1755 C 0.19366 0.81042 0.17597 0.0
C1756 C 0.19277 0.83601 0.20156 0.0
C1757 C 0.18562 0.852 0.21025 0.0
C1758 C 0.18434 0.86673 0.20072 0.0
C1759 C 0.1775 0.8817 0.20894 0.0
C1760 C 0.172 0.88218 0.22675 0.0
C1761 C 0.17337 0.86769 0.23639 0.0
C1762 C 0.18019 0.85268 0.22822 0.0
C1763 C 0.261 0.81081 0.21698 0.0
C1764 C 0.26044 0.80949 0.23588 0.0
C1765 C 0.24657 0.81378 0.20663 0.0
C1766 C 0.23094 0.81506 0.21472 0.0
C1767 C 0.2304 0.81371 0.23361 0.0
C1768 C 0.24492 0.811 0.24401 0.0
C1769 C 0.21524 0.81793 0.2037 0.0
C1770 C 0.20732 0.83242 0.21128 0.0
C1771 C 0.20811 0.8067 0.18577 0.0
C1772 C 0.21484 0.79032 0.17724 0.0
C1773 C 0.21532 0.77537 0.18676 0.0
C1774 C 0.22192 0.76012 0.17876 0.0
C1775 C 0.22792 0.75957 0.16117 0.0
C1776 C 0.22729 0.77423 0.15152 0.0
C1777 C 0.22073 0.78954 0.15947 0.0
H1778 H 0.23303 0.74775 0.155 0.0
H1779 H 0.16671 0.89378 0.23309 0.0
H1780 H 0.52993 0.84908 0.42927 0.0
H1781 H 0.53387 0.88233 0.44431 0.0
H1782 H 0.55326 0.87057 0.49603 0.0
H1783 H 0.54953 0.83677 0.48086 0.0
H1784 H 0.52838 0.89365 0.50001 0.0
H1785 H 0.5822 0.89436 0.47239 0.0
H1786 H 0.6004 0.88726 0.44716 0.0
H1787 H 0.57685 0.91957 0.41441 0.0
H1788 H 0.5583 0.92663 0.43934 0.0
H1789 H 0.55975 0.99415 0.54192 0.0
H1790 H 0.55359 0.95944 0.53065 0.0
H1791 H 0.54626 0.96747 0.47412 0.0
H1792 H 0.55319 1.00231 0.48549 0.0
H1793 H 0.5665 0.94561 0.47429 0.0
H1794 H 0.50644 0.93373 0.495 0.0
H1795 H 0.48373 0.9357 0.51658 0.0
H1796 H 0.51689 0.92451 0.55979 0.0
H1797 H 0.5394 0.92149 0.53806 0.0
C1798 C 0.53499 0.85334 0.44389 0.0
C1799 C 0.53941 0.83996 0.45376 0.0
C1800 C 0.53733 0.87256 0.45247 0.0
C1801 C 0.54407 0.8792 0.47129 0.0
C1802 C 0.5481 0.86589 0.48146 0.0
C1803 C 0.54595 0.84652 0.47276 0.0
C1804 C 0.54678 0.90003 0.48 0.0
C1805 C 0.53701 0.90501 0.49462 0.0
C1806 C 0.55754 0.91501 0.47267 0.0
C1807 C 0.56876 0.91089 0.45769 0.0
C1808 C 0.5808 0.89983 0.45975 0.0
C1809 C 0.5912 0.89583 0.44551 0.0
C1810 C 0.58976 0.90293 0.42918 0.0
C1811 C 0.57794 0.91407 0.42707 0.0
C1812 C 0.5675 0.91809 0.44126 0.0
C1813 C 0.5562 0.98841 0.52714 0.0
C1814 C 0.55635 1.00098 0.51468 0.0
C1815 C 0.55261 0.96844 0.52064 0.0
C1816 C 0.54915 0.96041 0.50142 0.0
C1817 C 0.54879 0.97302 0.48901 0.0
C1818 C 0.55251 0.993 0.49552 0.0
C1819 C 0.5478 0.93939 0.49418 0.0
C1820 C 0.55792 0.93433 0.47982 0.0
C1821 C 0.53721 0.92431 0.50157 0.0
C1822 C 0.52466 0.92778 0.5151 0.0
C1823 C 0.50893 0.93189 0.50917 0.0
C1824 C 0.49601 0.93293 0.52133 0.0
C1825 C 0.49894 0.93044 0.53962 0.0
C1826 C 0.51469 0.92656 0.54567 0.0
C1827 C 0.52744 0.92498 0.53338 0.0
H1828 H 0.48898 0.93145 0.54907 0.0
H1829 H 0.59782 0.89982 0.41817 0.0
H1830 H 0.55317 0.30199 0.68869 0.0
H1831 H 0.52632 0.30123 0.70403 0.0
H1832 H 0.50986 0.33486 0.66709 0.0
H1833 H 0.53714 0.33618 0.65202 0.0
H1834 H 0.50164 0.34659 0.70018 0.0
H1835 H 0.49174 0.28473 0.66118 0.0
H1836 H 0.4984 0.2542 0.64816 0.0
H1837 H 0.49847 0.23936 0.70223 0.0
H1838 H 0.49204 0.26993 0.71563 0.0
H1839 H 0.40955 0.28936 0.72583 0.0
H1840 H 0.4336 0.29262 0.70566 0.0
H1841 H 0.46874 0.33312 0.75045 0.0
H1842 H 0.44481 0.33016 0.77045 0.0
H1843 H 0.46478 0.28393 0.70921 0.0
H1844 H 0.49886 0.36568 0.73315 0.0
H1845 H 0.49016 0.39558 0.74385 0.0
H1846 H 0.43808 0.36975 0.71496 0.0
H1847 H 0.44655 0.33983 0.70381 0.0
C1848 C 0.5439 0.30931 0.68384 0.0
C1849 C 0.54733 0.31906 0.66901 0.0
C1850 C 0.52842 0.30876 0.69258 0.0
C1851 C 0.51572 0.31762 0.68653 0.0
C1852 C 0.51933 0.32781 0.67203 0.0
C1853 C 0.53495 0.32854 0.66338 0.0
C1854 C 0.49872 0.31607 0.69529 0.0
C1855 C 0.4936 0.33287 0.70211 0.0
C1856 C 0.4878 0.29816 0.69746 0.0
C1857 C 0.49153 0.27969 0.68943 0.0
C1858 C 0.49328 0.27501 0.67031 0.0
C1859 C 0.497 0.25769 0.66286 0.0
C1860 C 0.49889 0.24487 0.67437 0.0
C1861 C 0.49701 0.24931 0.69334 0.0
C1862 C 0.49331 0.26662 0.70087 0.0
C1863 C 0.42232 0.2992 0.73126 0.0
C1864 C 0.42523 0.30945 0.7498 0.0
C1865 C 0.43612 0.30094 0.71976 0.0
C1866 C 0.45305 0.31318 0.72644 0.0
C1867 C 0.45582 0.32372 0.74482 0.0
C1868 C 0.44212 0.32191 0.75632 0.0
C1869 C 0.46806 0.31448 0.71461 0.0
C1870 C 0.47279 0.29764 0.7072 0.0
C1871 C 0.47837 0.33229 0.71155 0.0
C1872 C 0.47332 0.35044 0.71778 0.0
C1873 C 0.48559 0.36642 0.72898 0.0
C1874 C 0.48069 0.38336 0.73514 0.0
C1875 C 0.46357 0.38454 0.73014 0.0
C1876 C 0.45133 0.3688 0.71887 0.0
C1877 C 0.45617 0.35184 0.71264 0.0
H1878 H 0.45978 0.39765 0.73497 0.0
H1879 H 0.50178 0.23147 0.66857 0.0
H1880 H 0.02961 0.83013 0.65099 0.0
H1881 H 0.03236 0.8542 0.63124 0.0
H1882 H 0.045 0.81462 0.58642 0.0
H1883 H 0.04325 0.79114 0.6064 0.0
H1884 H 0.06642 0.84668 0.58829 0.0
H1885 H 1.00328 0.82688 0.58794 0.0
H1886 H 0.97484 0.82057 0.60143 0.0
H1887 H 0.98598 0.88005 0.6277 0.0
H1888 H 0.0146 0.88668 0.61455 0.0
H1889 H 0.04913 0.89226 0.51297 0.0
H1890 H 0.0442 0.86979 0.53428 0.0
H1891 H 0.05524 0.91711 0.5812 0.0
H1892 H 0.06139 0.93977 0.56028 0.0
H1893 H 0.0219 0.8828 0.5789 0.0
H1894 H 0.08586 0.90109 0.578 0.0
H1895 H 0.11297 0.90594 0.56206 0.0
H1896 H 0.09794 0.84646 0.53511 0.0
H1897 H 0.07059 0.84133 0.55068 0.0
C1898 C 0.03287 0.82661 0.63688 0.0
C1899 C 0.03631 0.80885 0.63023 0.0
C1900 C 0.03435 0.84031 0.62555 0.0
C1901 C 0.03874 0.83622 0.60722 0.0
C1902 C 0.04172 0.81824 0.60052 0.0
C1903 C 0.04067 0.80479 0.61194 0.0
C1904 C 0.04105 0.85079 0.59515 0.0
C1905 C 0.05652 0.85434 0.58613 0.0
C1906 C 0.02836 0.86117 0.59249 0.0
C1907 C 0.01117 0.85722 0.60043 0.0
C1908 C 0.99973 0.83858 0.59672 0.0
C1909 C 0.98356 0.83495 0.60428 0.0
C1910 C 0.97863 0.84989 0.61547 0.0
C1911 C 0.98983 0.86849 0.61907 0.0
C1912 C 0.00602 0.8722 0.61155 0.0
C1913 C 0.05075 0.89798 0.52781 0.0
C1914 C 0.05569 0.91793 0.5348 0.0
C1915 C 0.04772 0.88508 0.53994 0.0
C1916 C 0.04928 0.89186 0.55923 0.0
C1917 C 0.0538 0.91166 0.56631 0.0
C1918 C 0.0572 0.92457 0.55425 0.0
C1919 C 0.04701 0.87825 0.57207 0.0
C1920 C 0.03167 0.87501 0.5812 0.0
C1921 C 0.0596 0.86785 0.57458 0.0
C1922 C 0.0761 0.87088 0.56534 0.0
C1923 C 0.08826 0.88909 0.56853 0.0
C1924 C 0.10368 0.89188 0.55959 0.0
C1925 C 0.10715 0.87653 0.54753 0.0
C1926 C 0.09522 0.85834 0.54443 0.0
C1927 C 0.07976 0.85548 0.55332 0.0
H1928 H 0.1191 0.87871 0.54063 0.0
H1929 H 0.96611 0.84705 0.6213 0.0
H1930 H 0.56668 0.81907 0.81947 0.0
H1931 H 0.53807 0.81769 0.8034 0.0
H1932 H 0.51222 0.80191 0.85076 0.0
H1933 H 0.54088 0.80245 0.86662 0.0
H1934 H 0.4909 0.78498 0.81942 0.0
H1935 H 0.52474 0.84884 0.84627 0.0
H1936 H 0.55091 0.87677 0.85275 0.0
H1937 H 0.54875 0.87921 0.79461 0.0
H1938 H 0.52271 0.8511 0.78775 0.0
H1939 H 0.42076 0.83137 0.80685 0.0
H1940 H 0.44634 0.82188 0.81871 0.0
H1941 H 0.4674 0.82281 0.76587 0.0
H1942 H 0.44141 0.83124 0.75342 0.0
H1943 H 0.49035 0.84619 0.79966 0.0
H1944 H 0.45388 0.78224 0.77436 0.0
H1945 H 0.42661 0.75581 0.77036 0.0
H1946 H 0.43237 0.75555 0.8289 0.0
H1947 H 0.45953 0.78222 0.83332 0.0
C1948 C 0.55484 0.81491 0.8263 0.0
C1949 C 0.55597 0.81111 0.84437 0.0
C1950 C 0.53852 0.81419 0.81713 0.0
C1951 C 0.52308 0.81025 0.8261 0.0
C1952 C 0.52398 0.80511 0.84364 0.0
C1953 C 0.54034 0.80544 0.85269 0.0
C1954 C 0.50647 0.81326 0.81788 0.0
C1955 C 0.49074 0.79841 0.81524 0.0
C1956 C 0.50625 0.8308 0.8124 0.0
C1957 C 0.52189 0.84775 0.81647 0.0
C1958 C 0.52993 0.85525 0.83485 0.0
C1959 C 0.54472 0.87112 0.8386 0.0
C1960 C 0.55152 0.87973 0.8241 0.0
C1961 C 0.54349 0.87251 0.80583 0.0
C1962 C 0.52871 0.85661 0.802 0.0
C1963 C 0.43056 0.8291 0.79753 0.0
C1964 C 0.42897 0.83215 0.77914 0.0
C1965 C 0.44521 0.82376 0.8044 0.0
C1966 C 0.45865 0.8216 0.79312 0.0
C1967 C 0.45711 0.82442 0.77475 0.0
C1968 C 0.44232 0.82944 0.76775 0.0
C1969 C 0.47494 0.81785 0.80095 0.0
C1970 C 0.49058 0.8327 0.80368 0.0
C1971 C 0.47492 0.80051 0.80685 0.0
C1972 C 0.45865 0.78438 0.8042 0.0
C1973 C 0.44924 0.77669 0.78642 0.0
C1974 C 0.43382 0.76163 0.78407 0.0
C1975 C 0.42773 0.75404 0.79937 0.0
C1976 C 0.43709 0.76146 0.81706 0.0
C1977 C 0.45251 0.77654 0.81949 0.0
H1978 H 0.41579 0.74238 0.79753 0.0
H1979 H 0.56297 0.89202 0.82703 0.0
H1980 H 0.48863 0.1926 0.16054 0.0
H1981 H 0.49263 0.161 0.14786 0.0
H1982 H 0.50443 0.17877 0.09599 0.0
H1983 H 0.50026 0.21026 0.10839 0.0
H1984 H 0.48758 0.14005 0.09104 0.0
H1985 H 0.53596 0.18766 0.13085 0.0
H1986 H 0.54893 0.20999 0.16046 0.0
H1987 H 0.54077 0.16283 0.18912 0.0
H1988 H 0.52695 0.1403 0.15984 0.0
H1989 H 0.54969 0.09281 0.05522 0.0
H1990 H 0.53515 0.11722 0.06845 0.0
H1991 H 0.53001 0.09351 0.11829 0.0
H1992 H 0.54409 0.06879 0.10479 0.0
H1993 H 0.54044 0.13213 0.1264 0.0
H1994 H 0.49499 0.08395 0.08612 0.0
H1995 H 0.47977 0.06173 0.05725 0.0
H1996 H 0.4823 0.10912 0.02971 0.0
H1997 H 0.49782 0.13171 0.0583 0.0
C1998 C 0.49151 0.1896 0.14622 0.0
C1999 C 0.49461 0.2041 0.13563 0.0
C2000 C 0.49381 0.17154 0.13902 0.0
C2001 C 0.49929 0.16781 0.12121 0.0
C2002 C 0.50035 0.18147 0.10985 0.0
C2003 C 0.49804 0.1995 0.11701 0.0
C2004 C 0.50653 0.15118 0.1154 0.0
C2005 C 0.49916 0.13829 0.0987 0.0
C2006 C 0.52144 0.14879 0.12569 0.0
C2007 C 0.53019 0.16231 0.14319 0.0
C2008 C 0.53678 0.18206 0.14349 0.0
C2009 C 0.54429 0.19476 0.16021 0.0
C2010 C 0.54575 0.18783 0.17664 0.0
C2011 C 0.53962 0.16819 0.17639 0.0
C2012 C 0.53186 0.15545 0.15975 0.0
C2013 C 0.54546 0.09285 0.06898 0.0
C2014 C 0.54808 0.07901 0.07904 0.0
C2015 C 0.53715 0.10675 0.07652 0.0
C2016 C 0.53123 0.10693 0.09421 0.0
C2017 C 0.53449 0.09359 0.10461 0.0
C2018 C 0.54281 0.07968 0.09703 0.0
C2019 C 0.52168 0.12112 0.10181 0.0
C2020 C 0.52869 0.13363 0.11884 0.0
C2021 C 0.50645 0.12315 0.09181 0.0
C2022 C 0.49767 0.10954 0.07437 0.0
C2023 C 0.49249 0.08965 0.07386 0.0
C2024 C 0.48377 0.07698 0.05756 0.0
C2025 C 0.48 0.08401 0.04172 0.0
C2026 C 0.48515 0.10372 0.04204 0.0
C2027 C 0.49392 0.11646 0.05829 0.0
H2028 H 0.47311 0.07419 0.02917 0.0
H2029 H 0.55163 0.19769 0.18956 0.0
H2030 H 0.12579 0.28465 0.32036 0.0
H2031 H 0.15431 0.29566 0.30876 0.0
H2032 H 0.17125 0.34065 0.35773 0.0
H2033 H 0.14252 0.32977 0.36944 0.0
H2034 H 0.17204 0.33171 0.30111 0.0
H2035 H 0.21677 0.34228 0.3681 0.0
H2036 H 0.21634 0.33275 0.39875 0.0
H2037 H 0.17797 0.27962 0.37473 0.0
H2038 H 0.17837 0.28874 0.34393 0.0
H2039 H 0.26206 0.35081 0.27622 0.0
H2040 H 0.23483 0.35346 0.28982 0.0
H2041 H 0.23095 0.29964 0.30767 0.0
H2042 H 0.25872 0.29789 0.29542 0.0
H2043 H 0.22507 0.3221 0.33441 0.0
H2044 H 0.20368 0.31051 0.26711 0.0
H2045 H 0.20278 0.31916 0.23592 0.0
H2046 H 0.19283 0.3728 0.25984 0.0
H2047 H 0.19414 0.36462 0.29104 0.0
C2048 C 0.13552 0.29696 0.32864 0.0
C2049 C 0.13196 0.30627 0.34587 0.0
C2050 C 0.15176 0.30332 0.32192 0.0
C2051 C 0.16485 0.31895 0.33239 0.0
C2052 C 0.16128 0.32854 0.34947 0.0
C2053 C 0.1449 0.3223 0.35612 0.0
C2054 C 0.1825 0.32419 0.3257 0.0
C2055 C 0.18373 0.32978 0.30841 0.0
C2056 C 0.19775 0.32204 0.33542 0.0
C2057 C 0.1974 0.31634 0.35382 0.0
C2058 C 0.20825 0.32857 0.36939 0.0
C2059 C 0.20802 0.32323 0.38678 0.0
C2060 C 0.19707 0.30563 0.38871 0.0
C2061 C 0.18638 0.29329 0.37324 0.0
C2062 C 0.18658 0.29855 0.35582 0.0
C2063 C 0.25516 0.33943 0.2828 0.0
C2064 C 0.26215 0.32377 0.28416 0.0
C2065 C 0.23958 0.34095 0.2906 0.0
C2066 C 0.23061 0.32671 0.29975 0.0
C2067 C 0.23757 0.31095 0.30083 0.0
C2068 C 0.25332 0.30972 0.29349 0.0
C2069 C 0.21442 0.32816 0.30896 0.0
C2070 C 0.21354 0.3243 0.32705 0.0
C2071 C 0.19949 0.33191 0.29993 0.0
C2072 C 0.19934 0.33706 0.28131 0.0
C2073 C 0.20161 0.32423 0.26562 0.0
C2074 C 0.20098 0.32903 0.24801 0.0
C2075 C 0.19785 0.34654 0.24593 0.0
C2076 C 0.19527 0.35924 0.26145 0.0
C2077 C 0.19604 0.35457 0.2791 0.0
H2078 H 0.19737 0.35023 0.23229 0.0
H2079 H 0.19691 0.30152 0.40218 0.0
H2080 H 0.99138 0.07142 0.23548 0.0
H2081 H 1.00507 0.06906 0.20616 0.0
H2082 H 0.95928 0.07856 0.1779 0.0
H2083 H 0.94561 0.08099 0.20711 0.0
H2084 H 0.96902 0.05173 0.15492 0.0
H2085 H 1.00205 0.11365 0.18953 0.0
H2086 H 0.02067 0.13658 0.21632 0.0
H2087 H 0.06096 0.10621 0.2103 0.0
H2088 H 0.04247 0.08295 0.18361 0.0
H2089 H 0.00596 0.06046 0.06832 0.0
H2090 H 0.99254 0.06473 0.09749 0.0
H2091 H 0.0424 0.06879 0.12831 0.0
H2092 H 0.05607 0.06622 0.09913 0.0
H2093 H 0.03019 0.08874 0.15043 0.0
H2094 H 0.99734 0.02577 0.11714 0.0
H2095 H 0.97907 1.00227 0.09046 0.0
H2096 H 0.93884 0.03284 0.09437 0.0
H2097 H 0.95697 0.05664 0.12094 0.0
C2098 C 0.98417 0.07319 0.22313 0.0
C2099 C 0.9672 0.07661 0.22427 0.0
C2100 C 0.99215 0.07187 0.2061 0.0
C2101 C 0.98356 0.07376 0.18918 0.0
C2102 C 0.96655 0.07699 0.1903 0.0
C2103 C 0.95867 0.07852 0.20734 0.0
C2104 C 0.99204 0.07224 0.17052 0.0
C2105 C 0.98236 0.06004 0.15405 0.0
C2106 C 0.00967 0.0825 0.16869 0.0
C2107 C 0.0208 0.09645 0.1847 0.0
C2108 C 0.01483 0.11178 0.19401 0.0
C2109 C 0.02537 0.12485 0.20916 0.0
C2110 C 0.04197 0.12282 0.21504 0.0
C2111 C 0.04809 0.10775 0.20575 0.0
C2112 C 0.03759 0.09463 0.1906 0.0
C2113 C 0.01416 0.06235 0.0813 0.0
C2114 C 0.03234 0.06308 0.08093 0.0
C2115 C 0.00629 0.0645 0.09832 0.0
C2116 C 0.01591 0.0665 0.11596 0.0
C2117 C 0.03417 0.06732 0.11547 0.0
C2118 C 0.04216 0.06583 0.09849 0.0
C2119 C 0.00729 0.06796 0.13466 0.0
C2120 C 0.0169 0.08024 0.15119 0.0
C2121 C 0.98965 0.05754 0.1366 0.0
C2122 C 0.97858 0.04305 0.12092 0.0
C2123 C 0.98462 0.02749 0.11228 0.0
C2124 C 0.97429 0.01413 0.09717 0.0
C2125 C 0.95783 0.01609 0.0907 0.0
C2126 C 0.95161 0.03136 0.09938 0.0
C2127 C 0.96189 0.04477 0.11448 0.0
H2128 H 0.94988 1.00577 0.07897 0.0
H2129 H 0.05011 0.13296 0.22677 0.0
H2130 H 0.30082 0.70478 0.49692 0.0
H2131 H 0.30188 0.7217 0.47123 0.0
H2132 H 0.31889 0.67686 0.43683 0.0
H2133 H 0.31802 0.65966 0.46286 0.0
H2134 H 0.33714 0.71402 0.43307 0.0
H2135 H 0.27765 0.6772 0.42875 0.0
H2136 H 0.2492 0.66326 0.4399 0.0
H2137 H 0.24228 0.7197 0.4579 0.0
H2138 H 0.27083 0.73402 0.44712 0.0
H2139 H 0.3131 0.75697 0.35605 0.0
H2140 H 0.31294 0.73263 0.375 0.0
H2141 H 0.30801 0.77266 0.42378 0.0
H2142 H 0.30842 0.79723 0.40503 0.0
H2143 H 0.28259 0.73234 0.41484 0.0
H2144 H 0.34589 0.76772 0.42559 0.0
H2145 H 0.37438 0.7813 0.41421 0.0
H2146 H 0.3724 0.72601 0.38142 0.0
H2147 H 0.344 0.71206 0.39287 0.0
C2148 C 0.30484 0.69845 0.48394 0.0
C2149 C 0.30916 0.68076 0.48185 0.0
C2150 C 0.30541 0.70815 0.46925 0.0
C2151 C 0.31013 0.70034 0.45204 0.0
C2152 C 0.31509 0.68302 0.45 0.0
C2153 C 0.31456 0.67323 0.46483 0.0
C2154 C 0.30942 0.71044 0.43636 0.0
C2155 C 0.32511 0.71763 0.42875 0.0
C2156 C 0.29373 0.7152 0.43077 0.0
C2157 C 0.27645 0.70669 0.4372 0.0
C2158 C 0.27013 0.68666 0.4352 0.0
C2159 C 0.25397 0.67869 0.44144 0.0
C2160 C 0.24394 0.69059 0.44962 0.0
C2161 C 0.25005 0.7105 0.45155 0.0
C2162 C 0.26622 0.71855 0.44535 0.0
C2163 C 0.31189 0.76059 0.37079 0.0
C2164 C 0.31095 0.77911 0.37908 0.0
C2165 C 0.31192 0.74671 0.38158 0.0
C2166 C 0.31058 0.75098 0.40072 0.0
C2167 C 0.30916 0.76922 0.40899 0.0
C2168 C 0.30948 0.78323 0.39829 0.0
C2169 C 0.31038 0.73637 0.41218 0.0
C2170 C 0.29448 0.72832 0.4189 0.0
C2171 C 0.32576 0.73064 0.41672 0.0
C2172 C 0.34284 0.7389 0.40997 0.0
C2173 C 0.35154 0.75848 0.41594 0.0
C2174 C 0.3677 0.76622 0.40955 0.0
C2175 C 0.37517 0.75454 0.39705 0.0
C2176 C 0.36659 0.73505 0.39109 0.0
C2177 C 0.35053 0.72719 0.3976 0.0
H2178 H 0.38759 0.76061 0.39198 0.0
H2179 H 0.23144 0.68439 0.45445 0.0
H2180 H 0.63467 0.04151 0.72623 0.0
H2181 H 0.6162 0.04198 0.69831 0.0
H2182 H 0.65349 0.02279 0.66382 0.0
H2183 H 0.67206 0.02232 0.69158 0.0
H2184 H 0.64636 0.05554 0.65626 0.0
H2185 H 0.61353 0.99333 0.66468 0.0
H2186 H 0.5967 0.97023 0.68201 0.0
H2187 H 0.55781 1.00237 0.68887 0.0
H2188 H 0.57454 0.02583 0.6718 0.0
H2189 H 0.60247 0.03385 0.56619 0.0
H2190 H 0.61527 0.03011 0.59603 0.0
H2191 H 0.57742 0.0554 0.62412 0.0
H2192 H 0.56515 0.06008 0.59415 0.0
H2193 H 0.58316 0.02127 0.63636 0.0
H2194 H 0.61504 0.08293 0.62784 0.0
H2195 H 0.63198 0.10712 0.6117 0.0
H2196 H 0.6725 0.07707 0.60605 0.0
H2197 H 0.65565 0.05248 0.62188 0.0
C2198 C 0.63881 0.03708 0.7127 0.0
C2199 C 0.65493 0.03203 0.71115 0.0
C2200 C 0.62819 0.0373 0.69676 0.0
C2201 C 0.63351 0.03245 0.67903 0.0
C2202 C 0.64919 0.02663 0.67741 0.0
C2203 C 0.65977 0.02633 0.6933 0.0
C2204 C 0.6236 0.03498 0.66224 0.0
C2205 C 0.63261 0.04784 0.65178 0.0
C2206 C 0.60547 0.02553 0.65688 0.0
C2207 C 0.5954 0.01146 0.66715 0.0
C2208 C 0.60148 0.99558 0.67004 0.0
C2209 C 0.59194 0.9824 0.67978 0.0
C2210 C 0.57623 0.98487 0.68659 0.0
C2211 C 0.57 1.0005 0.68362 0.0
C2212 C 0.5795 0.01373 0.6739 0.0
C2213 C 0.59713 0.03896 0.57874 0.0
C2214 C 0.58314 0.04767 0.57796 0.0
C2215 C 0.60425 0.03656 0.59573 0.0
C2216 C 0.59738 0.04266 0.61224 0.0
C2217 C 0.58286 0.0506 0.61147 0.0
C2218 C 0.57583 0.05318 0.59439 0.0
C2219 C 0.60609 0.04145 0.63025 0.0
C2220 C 0.59689 0.02898 0.64093 0.0
C2221 C 0.62405 0.05134 0.63596 0.0
C2222 C 0.63402 0.06579 0.62595 0.0
C2223 C 0.62746 0.08134 0.62296 0.0
C2224 C 0.63707 0.09516 0.61391 0.0
C2225 C 0.65333 0.09367 0.60793 0.0
C2226 C 0.65993 0.07823 0.61076 0.0
C2227 C 0.65035 0.06435 0.61977 0.0
H2228 H 0.66087 0.10453 0.60119 0.0
H2229 H 0.56885 0.97464 0.69412 0.0
H2230 H 0.28117 0.35963 0.97537 0.0
H2231 H 0.27907 0.34459 0.9424 0.0
H2232 H 0.33535 0.3498 0.9481 0.0
H2233 H 0.33702 0.36312 0.9812 0.0
H2234 H 0.28902 0.35542 0.91498 0.0
H2235 H 0.34943 0.32151 0.91551 0.0
H2236 H 0.36347 0.30415 0.93526 0.0
H2237 H 0.31496 0.28715 0.95953 0.0
H2238 H 0.30055 0.30416 0.93975 0.0
H2239 H 0.31584 0.34964 0.82716 0.0
H2240 H 0.3163 0.35506 0.86099 0.0
H2241 H 0.30364 0.29389 0.85859 0.0
H2242 H 0.30411 0.28852 0.82453 0.0
H2243 H 0.32366 0.31055 0.88928 0.0
H2244 H 0.27113 0.31886 0.86204 0.0
H2245 H 0.25202 0.33046 0.84137 0.0
H2246 H 0.27562 0.38857 0.87 0.0
H2247 H 0.29508 0.37734 0.89067 0.0
C2248 C 0.29297 0.35714 0.96959 0.0
C2249 C 0.3092 0.36233 0.98091 0.0
C2250 C 0.29183 0.34863 0.95068 0.0
C2251 C 0.307 0.34564 0.9425 0.0
C2252 C 0.32325 0.3511 0.95392 0.0
C2253 C 0.32425 0.35893 0.97291 0.0
C2254 C 0.30615 0.33814 0.92192 0.0
C2255 C 0.29652 0.34549 0.90951 0.0
C2256 C 0.31539 0.32463 0.91436 0.0
C2257 C 0.32396 0.31428 0.92625 0.0
C2258 C 0.34173 0.314 0.925 0.0
C2259 C 0.34976 0.30423 0.93622 0.0
C2260 C 0.34013 0.29461 0.94868 0.0
C2261 C 0.32243 0.29467 0.94992 0.0
C2262 C 0.31433 0.3044 0.93873 0.0
C2263 C 0.31352 0.33737 0.83391 0.0
C2264 C 0.31008 0.3187 0.82329 0.0
C2265 C 0.31361 0.34046 0.85324 0.0
C2266 C 0.30944 0.32489 0.8624 0.0
C2267 C 0.30676 0.30617 0.8519 0.0
C2268 C 0.30706 0.30309 0.83245 0.0
C2269 C 0.30708 0.32839 0.8827 0.0
C2270 C 0.31605 0.32031 0.89494 0.0
C2271 C 0.29644 0.34037 0.8901 0.0
C2272 C 0.28465 0.34726 0.87784 0.0
C2273 C 0.27232 0.33413 0.86387 0.0
C2274 C 0.26142 0.34063 0.85215 0.0
C2275 C 0.26263 0.36024 0.85436 0.0
C2276 C 0.27471 0.37338 0.86831 0.0
C2277 C 0.28566 0.36695 0.88005 0.0
H2278 H 0.25418 0.36526 0.84527 0.0
H2279 H 0.34637 0.28706 0.95736 0.0
H2280 H 0.98207 0.09173 0.34753 0.0
H2281 H 0.99507 0.08804 0.3776 0.0
H2282 H 0.99799 0.03135 0.3526 0.0
H2283 H 0.98509 0.03505 0.32256 0.0
H2284 H 0.98731 0.02917 0.38546 0.0
H2285 H 0.03588 0.07322 0.36632 0.0
H2286 H 0.05115 0.10294 0.35641 0.0
H2287 H 0.04185 0.13666 0.40707 0.0
H2288 H 0.02627 0.10716 0.41718 0.0
H2289 H 0.06428 0.04991 0.4701 0.0
H2290 H 0.0539 0.05248 0.43829 0.0
H2291 H 1.00043 0.04275 0.45273 0.0
H2292 H 0.01071 0.04041 0.48414 0.0
H2293 H 0.03807 0.07749 0.42431 0.0
H2294 H 0.97141 0.02501 0.42071 0.0
H2295 H 0.95691 0.99347 0.42782 0.0
H2296 H 1.00418 0.975 0.4192 0.0
H2297 H 0.01907 1.00665 0.41255 0.0
C2298 C 0.98559 0.07849 0.34828 0.0
C2299 C 0.98244 0.0638 0.3321 0.0
C2300 C 0.99319 0.07637 0.36572 0.0
C2301 C 0.99793 0.05939 0.36797 0.0
C2302 C 0.99467 0.04469 0.35181 0.0
C2303 C 0.98727 0.04688 0.33435 0.0
C2304 C 0.00578 0.05666 0.38695 0.0
C2305 C 0.99839 0.03992 0.39382 0.0
C2306 C 0.02046 0.07024 0.39846 0.0
C2307 C 0.02975 0.08798 0.39241 0.0
C2308 C 0.03696 0.08698 0.37528 0.0
C2309 C 0.04569 0.10379 0.36964 0.0
C2310 C 0.04742 0.12168 0.38108 0.0
C2311 C 0.04046 0.1228 0.39821 0.0
C2312 C 0.03168 0.10604 0.40391 0.0
C2313 C 0.05027 0.04797 0.46643 0.0
C2314 C 0.03842 0.04464 0.48004 0.0
C2315 C 0.04425 0.04961 0.44808 0.0
C2316 C 0.0261 0.04768 0.4424 0.0
C2317 C 0.01437 0.04401 0.456 0.0
C2318 C 0.02037 0.0427 0.47426 0.0
C2319 C 0.01936 0.05017 0.42288 0.0
C2320 C 0.02694 0.06684 0.41594 0.0
C2321 C 1.00481 0.03661 0.41126 0.0
C2322 C 0.99637 0.01816 0.4164 0.0
C2323 C 0.97873 0.01425 0.42054 0.0
C2324 C 0.97047 0.9964 0.42452 0.0
C2325 C 0.97965 0.98228 0.42406 0.0
C2326 C 0.99713 0.986 0.41967 0.0
C2327 C 0.00555 1.00395 0.41601 0.0
H2328 H 0.97321 0.96842 0.42702 0.0
H2329 H 0.05419 0.13467 0.3767 0.0
H2330 H 0.33726 0.70054 0.56724 0.0
H2331 H 0.33874 0.72329 0.59633 0.0
H2332 H 0.32085 0.67623 0.62443 0.0
H2333 H 0.3194 0.65333 0.59543 0.0
H2334 H 0.29845 0.70061 0.62443 0.0
H2335 H 0.36008 0.70522 0.63893 0.0
H2336 H 0.39139 0.71026 0.63306 0.0
H2337 H 0.39338 0.76742 0.62535 0.0
H2338 H 0.362 0.76262 0.63095 0.0
H2339 H 0.29818 0.74587 0.71538 0.0
H2340 H 0.30373 0.7276 0.68677 0.0
H2341 H 0.32449 0.7799 0.66698 0.0
H2342 H 0.31922 0.79871 0.69637 0.0
H2343 H 0.34574 0.75505 0.66134 0.0
H2344 H 0.28406 0.75075 0.64895 0.0
H2345 H 0.25333 0.74571 0.65686 0.0
H2346 H 0.25146 0.68761 0.66107 0.0
H2347 H 0.28227 0.69238 0.65347 0.0
C2348 C 0.33419 0.69501 0.57975 0.0
C2349 C 0.32793 0.67514 0.57899 0.0
C2350 C 0.3351 0.70805 0.59636 0.0
C2351 C 0.32972 0.70139 0.61241 0.0
C2352 C 0.32498 0.68158 0.61211 0.0
C2353 C 0.32424 0.66853 0.59554 0.0
C2354 C 0.32637 0.71483 0.62846 0.0
C2355 C 0.30882 0.71239 0.63265 0.0
C2356 C 0.33981 0.73059 0.63862 0.0
C2357 C 0.35863 0.73347 0.63512 0.0
C2358 C 0.36714 0.71879 0.63578 0.0
C2359 C 0.38491 0.72162 0.63256 0.0
C2360 C 0.39435 0.73912 0.62877 0.0
C2361 C 0.38604 0.75385 0.62825 0.0
C2362 C 0.36827 0.75109 0.63147 0.0
C2363 C 0.30372 0.75367 0.70499 0.0
C2364 C 0.30851 0.77385 0.70834 0.0
C2365 C 0.30689 0.7431 0.68853 0.0
C2366 C 0.31439 0.75236 0.67468 0.0
C2367 C 0.31873 0.7725 0.67759 0.0
C2368 C 0.31571 0.7832 0.69431 0.0
C2369 C 0.31787 0.74064 0.65746 0.0
C2370 C 0.33536 0.74341 0.65297 0.0
C2371 C 0.30436 0.72515 0.64693 0.0
C2372 C 0.28552 0.72196 0.65069 0.0
C2373 C 0.27711 0.7369 0.65158 0.0
C2374 C 0.25968 0.7341 0.65604 0.0
C2375 C 0.25046 0.71635 0.65949 0.0
C2376 C 0.25861 0.70134 0.65839 0.0
C2377 C 0.27605 0.70407 0.65396 0.0
H2378 H 0.23699 0.71424 0.66301 0.0
H2379 H 0.40811 0.74129 0.62629 0.0
H2380 H 0.64706 0.06582 0.81313 0.0
H2381 H 0.63458 0.06299 0.84237 0.0
H2382 H 0.65981 0.01806 0.84848 0.0
H2383 H 0.67223 0.02061 0.81881 0.0
H2384 H 0.62683 0.00861 0.85684 0.0
H2385 H 0.67576 0.06217 0.87639 0.0
H2386 H 0.69695 0.09318 0.87611 0.0
H2387 H 0.65536 0.12164 0.88284 0.0
H2388 H 0.63386 0.09075 0.88291 0.0
H2389 H 0.60265 0.05204 0.95553 0.0
H2390 H 0.62437 0.05067 0.93308 0.0
H2391 H 0.58196 0.02353 0.88893 0.0
H2392 H 0.56029 0.02411 0.91137 0.0
H2393 H 0.63038 0.06681 0.90476 0.0
H2394 H 0.59276 0.99363 0.8566 0.0
H2395 H 0.57529 0.96162 0.8599 0.0
H2396 H 0.60109 0.97046 0.91528 0.0
H2397 H 0.6185 1.00264 0.91245 0.0
C2398 C 0.65002 0.05534 0.82066 0.0
C2399 C 0.66068 0.04347 0.81366 0.0
C2400 C 0.64297 0.05384 0.83748 0.0
C2401 C 0.64652 0.04057 0.8478 0.0
C2402 C 0.657 0.02849 0.84079 0.0
C2403 C 0.66408 0.02997 0.82385 0.0
C2404 C 0.63862 0.03904 0.86553 0.0
C2405 C 0.62773 0.02129 0.86741 0.0
C2406 C 0.64034 0.05543 0.87971 0.0
C2407 C 0.65317 0.07409 0.87954 0.0
C2408 C 0.6711 0.07501 0.87766 0.0
C2409 C 0.68317 0.09258 0.87757 0.0
C2410 C 0.6775 0.10936 0.87943 0.0
C2411 C 0.65973 0.10862 0.8814 0.0
C2412 C 0.6476 0.09109 0.8815 0.0
C2413 C 0.59798 0.04562 0.94105 0.0
C2414 C 0.57974 0.03815 0.93522 0.0
C2415 C 0.6104 0.04489 0.92824 0.0
C2416 C 0.60483 0.03669 0.90937 0.0
C2417 C 0.58662 0.02952 0.90349 0.0
C2418 C 0.57421 0.03017 0.91628 0.0
C2419 C 0.61784 0.0366 0.89551 0.0
C2420 C 0.62971 0.05406 0.89438 0.0
C2421 C 0.61753 0.01981 0.88243 0.0
C2422 C 0.60688 1.00058 0.88432 0.0
C2423 C 0.59469 0.98875 0.86949 0.0
C2424 C 0.58474 0.97062 0.87132 0.0
C2425 C 0.58699 0.96408 0.88785 0.0
C2426 C 0.59921 0.97565 0.90258 0.0
C2427 C 0.60906 0.99387 0.9009 0.0
H2428 H 0.57932 0.95002 0.88923 0.0
H2429 H 0.68687 0.12295 0.87938 0.0
H2430 H 0.31051 0.35633 0.0749 0.0
H2431 H 0.30941 0.34397 0.10382 0.0
H2432 H 0.29688 0.39497 0.13213 0.0
H2433 H 0.29814 0.40753 0.10339 0.0
H2434 H 0.32193 0.38655 0.15299 0.0
H2435 H 0.26525 0.35125 0.11954 0.0
H2436 H 0.24503 0.33014 0.09281 0.0
H2437 H 0.27013 0.28501 0.09704 0.0
H2438 H 0.29065 0.30595 0.12365 0.0
H2439 H 0.29955 0.35485 0.23662 0.0
H2440 H 0.29928 0.36659 0.20738 0.0
H2441 H 0.30586 0.31274 0.17792 0.0
H2442 H 0.30503 0.30071 0.20708 0.0
H2443 H 0.28408 0.32271 0.15742 0.0
H2444 H 0.34051 0.35746 0.19119 0.0
H2445 H 0.36044 0.37821 0.21838 0.0
H2446 H 0.3366 0.4241 0.21347 0.0
H2447 H 0.31629 0.40354 0.18653 0.0
C2448 C 0.30735 0.36487 0.08722 0.0
C2449 C 0.30436 0.38294 0.08669 0.0
C2450 C 0.3067 0.35775 0.10379 0.0
C2451 C 0.30296 0.36845 0.12024 0.0
C2452 C 0.29983 0.38641 0.1197 0.0
C2453 C 0.30047 0.39354 0.10316 0.0
C2454 C 0.3026 0.36116 0.13809 0.0
C2455 C 0.31349 0.37268 0.15401 0.0
C2456 C 0.29196 0.34286 0.13942 0.0
C2457 C 0.27959 0.33024 0.12347 0.0
C2458 C 0.26654 0.33688 0.11468 0.0
C2459 C 0.25501 0.32493 0.09956 0.0
C2460 C 0.25633 0.30626 0.0932 0.0
C2461 C 0.26914 0.29948 0.10197 0.0
C2462 C 0.28071 0.31138 0.11708 0.0
C2463 C 0.30102 0.34561 0.22388 0.0
C2464 C 0.30241 0.32692 0.22405 0.0
C2465 C 0.30095 0.35234 0.20714 0.0
C2466 C 0.30295 0.34078 0.1903 0.0
C2467 C 0.3043 0.32203 0.19058 0.0
C2468 C 0.30387 0.31513 0.20725 0.0
C2469 C 0.30346 0.34806 0.17241 0.0
C2470 C 0.29259 0.33656 0.15646 0.0
C2471 C 0.31424 0.36634 0.17102 0.0
C2472 C 0.3268 0.3789 0.1869 0.0
C2473 C 0.3395 0.37196 0.19595 0.0
C2474 C 0.35084 0.38367 0.21132 0.0
C2475 C 0.34979 0.40244 0.21763 0.0
C2476 C 0.3374 0.40955 0.20856 0.0
C2477 C 0.32597 0.39788 0.19324 0.0
H2478 H 0.35856 0.41146 0.22954 0.0
H2479 H 0.24739 0.29704 0.08149 0.0
H2480 H 0.27048 0.99028 0.00705 0.0
H2481 H 0.24911 0.00968 0.0084 0.0
H2482 H 0.28086 0.04895 0.05632 0.0
H2483 H 0.30182 0.02926 0.05543 0.0
H2484 H 0.24886 0.03962 0.06356 0.0
H2485 H 0.2766 0.06135 0.01248 0.0
H2486 H 0.28814 0.05851 0.98186 0.0
H2487 H 0.23582 0.02948 0.95498 0.0
H2488 H 0.224 0.0319 0.98548 0.0
H2489 H 0.19101 0.10524 0.03577 0.0
H2490 H 0.21719 0.09285 0.03228 0.0
H2491 H 0.19012 0.04158 0.05057 0.0
H2492 H 0.16432 0.05414 0.05483 0.0
H2493 H 0.22242 0.06132 0.01085 0.0
H2494 H 0.21851 0.02689 0.0765 0.0
H2495 H 0.20881 0.03257 0.10791 0.0
H2496 H 0.21759 0.09259 0.10716 0.0
H2497 H 0.22756 0.08732 0.07587 0.0
C2498 C 0.273 1.00321 0.01768 0.0
C2499 C 0.28771 0.00819 0.03122 0.0
C2500 C 0.26084 0.01434 0.0184 0.0
C2501 C 0.26341 0.03084 0.03243 0.0
C2502 C 0.27854 0.03624 0.04544 0.0
C2503 C 0.29052 0.02498 0.0449 0.0
C2504 C 0.24965 0.04155 0.0346 0.0
C2505 C 0.24318 0.04445 0.05203 0.0
C2506 C 0.2424 0.04815 0.01967 0.0
C2507 C 0.24944 0.04667 1.00129 0.0
C2508 C 0.26758 0.05423 1.00006 0.0
C2509 C 0.27416 0.05272 0.98272 0.0
C2510 C 0.26273 0.04379 0.96649 0.0
C2511 C 0.24467 0.03638 0.96757 0.0
C2512 C 0.23801 0.03784 0.98487 0.0
C2513 C 0.19074 0.09143 0.03925 0.0
C2514 C 0.17562 0.0807 0.04564 0.0
C2515 C 0.20562 0.0843 0.03707 0.0
C2516 C 0.20564 0.06639 0.04133 0.0
C2517 C 0.19047 0.05555 0.04743 0.0
C2518 C 0.17566 0.06268 0.04969 0.0
C2519 C 0.22152 0.05899 0.03966 0.0
C2520 C 0.22829 0.05664 0.02237 0.0
C2521 C 0.2294 0.0533 0.05482 0.0
C2522 C 0.22364 0.05666 0.07377 0.0
C2523 C 0.21845 0.04131 0.08308 0.0
C2524 C 0.21289 0.04446 0.10085 0.0
C2525 C 0.21254 0.06292 0.1095 0.0
C2526 C 0.21781 0.07828 0.10042 0.0
C2527 C 0.22339 0.07522 0.08266 0.0
H2528 H 0.20821 0.06532 0.12325 0.0
H2529 H 0.26785 0.04263 0.95308 0.0
H2530 H 0.75966 0.63285 0.99648 0.0
H2531 H 0.72952 0.61224 0.99523 0.0
H2532 H 0.70963 0.66239 0.00673 0.0
H2533 H 0.73953 0.68305 0.00759 0.0
H2534 H 0.70041 0.63441 0.03121 0.0
H2535 H 0.69985 0.63855 0.96598 0.0
H2536 H 0.7112 0.63516 0.93528 0.0
H2537 H 0.70458 0.57494 0.93343 0.0
H2538 H 0.69343 0.57803 0.96428 0.0
H2539 H 0.60915 0.59588 0.02413 0.0
H2540 H 0.63839 0.61424 0.01949 0.0
H2541 H 0.64981 0.56227 0.99184 0.0
H2542 H 0.61994 0.54398 0.99533 0.0
H2543 H 0.66446 0.58962 0.97562 0.0
H2544 H 0.66454 0.58375 0.03928 0.0
H2545 H 0.65322 0.58556 0.07 0.0
H2546 H 0.66233 0.64663 0.07607 0.0
H2547 H 0.67333 0.64514 0.04518 0.0
C2548 C 0.74883 0.63948 0.99847 0.0
C2549 C 0.75202 0.65961 1.00213 0.0
C2550 C 0.73163 0.62768 0.99775 0.0
C2551 C 0.71738 0.63581 1.00095 0.0
C2552 C 0.72046 0.65585 1.00424 0.0
C2553 C 0.73756 0.66762 0.00463 0.0
C2554 C 0.69939 0.62354 1.00182 0.0
C2555 C 0.69245 0.62476 0.01903 0.0
C2556 C 0.68933 0.61044 0.98607 0.0
C2557 C 0.69601 0.60857 0.96753 0.0
C2558 C 0.70099 0.62463 0.95912 0.0
C2559 C 0.70734 0.62275 0.94167 0.0
C2560 C 0.70866 0.60486 0.93243 0.0
C2561 C 0.70358 0.58879 0.94061 0.0
C2562 C 0.69723 0.5906 0.95807 0.0
C2563 C 0.61781 0.58829 0.017 0.0
C2564 C 0.6123 0.56829 0.01053 0.0
C2565 C 0.63463 0.59885 0.01442 0.0
C2566 C 0.64664 0.58961 0.0059 0.0
C2567 C 0.64092 0.56975 0.99869 0.0
C2568 C 0.62385 0.55923 1.00083 0.0
C2569 C 0.66522 0.60068 0.00502 0.0
C2570 C 0.67238 0.59918 0.98786 0.0
C2571 C 0.67568 0.61327 0.02094 0.0
C2572 C 0.66964 0.61431 0.03983 0.0
C2573 C 0.66408 0.59756 0.04713 0.0
C2574 C 0.65769 0.59853 0.06457 0.0
C2575 C 0.65703 0.6162 0.07496 0.0
C2576 C 0.66283 0.63295 0.06798 0.0
C2577 C 0.66915 0.63206 0.05051 0.0
H2578 H 0.65204 0.61693 0.08843 0.0
H2579 H 0.71358 0.60343 0.91892 0.0
H2580 H 0.7086 0.46422 0.28312 0.0
H2581 H 0.72263 0.4379 0.284 0.0
H2582 H 0.74495 0.44698 0.23313 0.0
H2583 H 0.73084 0.47333 0.23222 0.0
H2584 H 0.73577 0.40931 0.23108 0.0
H2585 H 0.77003 0.46034 0.27938 0.0
H2586 H 0.77532 0.48542 0.30789 0.0
H2587 H 0.75271 0.44296 0.33931 0.0
H2588 H 0.74709 0.41766 0.31092 0.0
H2589 H 0.79164 0.3439 0.23807 0.0
H2590 H 0.78002 0.37178 0.23531 0.0
H2591 H 0.76131 0.37139 0.28931 0.0
H2592 H 0.77354 0.34445 0.29231 0.0
H2593 H 0.76989 0.40578 0.28883 0.0
H2594 H 0.73405 0.35493 0.2409 0.0
H2595 H 0.72823 0.32947 0.21263 0.0
H2596 H 0.7529 0.37073 0.1809 0.0
H2597 H 0.75904 0.3964 0.20906 0.0
C2598 C 0.7165 0.46076 0.27206 0.0
C2599 C 0.71839 0.47144 0.25763 0.0
C2600 C 0.72475 0.44552 0.27263 0.0
C2601 C 0.7354 0.43998 0.25878 0.0
C2602 C 0.73704 0.45046 0.24418 0.0
C2603 C 0.72889 0.46582 0.24369 0.0
C2604 C 0.74469 0.42357 0.25955 0.0
C2605 C 0.74339 0.40883 0.24374 0.0
C2606 C 0.75462 0.42198 0.27592 0.0
C2607 C 0.75798 0.43714 0.29299 0.0
C2608 C 0.76607 0.45638 0.29234 0.0
C2609 C 0.76915 0.47063 0.30849 0.0
C2610 C 0.76431 0.4658 0.32539 0.0
C2611 C 0.75642 0.44669 0.3262 0.0
C2612 C 0.7533 0.43239 0.31009 0.0
C2613 C 0.78528 0.34989 0.24948 0.0
C2614 C 0.78392 0.34163 0.26558 0.0
C2615 C 0.77825 0.3659 0.24781 0.0
C2616 C 0.76915 0.37421 0.26194 0.0
C2617 C 0.76808 0.36593 0.27799 0.0
C2618 C 0.77515 0.35018 0.2797 0.0
C2619 C 0.76075 0.39121 0.26045 0.0
C2620 C 0.76225 0.40615 0.27615 0.0
C2621 C 0.75089 0.39286 0.24403 0.0
C2622 C 0.74717 0.37752 0.22711 0.0
C2623 C 0.73832 0.35854 0.22791 0.0
C2624 C 0.73495 0.34408 0.21191 0.0
C2625 C 0.74024 0.34847 0.19499 0.0
C2626 C 0.74885 0.36734 0.19403 0.0
C2627 C 0.75226 0.38186 0.21 0.0
H2628 H 0.73762 0.33726 0.18262 0.0
H2629 H 0.7667 0.47685 0.33787 0.0
H2630 H 0.86297 0.46916 0.51737 0.0
H2631 H 0.89474 0.48436 0.52047 0.0
H2632 H 0.9024 0.45696 0.56675 0.0
H2633 H 0.87076 0.44039 0.56241 0.0
H2634 H 0.91638 0.50839 0.54356 0.0
H2635 H 0.94525 0.45339 0.57266 0.0
H2636 H 0.93752 0.41887 0.5736 0.0
H2637 H 0.90435 0.40632 0.52173 0.0
H2638 H 0.91198 0.44076 0.52044 0.0
H2639 H 0.01081 0.54598 0.56063 0.0
H2640 H 0.97878 0.53475 0.56051 0.0
H2641 H 0.97922 0.48137 0.52455 0.0
H2642 H 0.01141 0.49168 0.52727 0.0
H2643 H 0.96116 0.47166 0.54705 0.0
H2644 H 0.95151 0.52156 0.51098 0.0
H2645 H 0.95118 0.55335 0.50415 0.0
H2646 H 0.94338 0.57305 0.56089 0.0
H2647 H 0.94309 0.54126 0.56788 0.0
C2648 C 0.87151 0.4664 0.52815 0.0
C2649 C 0.86458 0.45356 0.53955 0.0
C2650 C 0.88966 0.47513 0.53001 0.0
C2651 C 0.90119 0.47166 0.5437 0.0
C2652 C 0.89402 0.45947 0.5557 0.0
C2653 C 0.87593 0.45013 0.55334 0.0
C2654 C 0.92059 0.48077 0.54502 0.0
C2655 C 0.92617 0.50027 0.54416 0.0
C2656 C 0.93353 0.47042 0.54616 0.0
C2657 C 0.92892 0.44967 0.54665 0.0
C2658 C 0.93627 0.44325 0.56148 0.0
C2659 C 0.93193 0.42371 0.56207 0.0
C2660 C 0.92037 0.41042 0.54779 0.0
C2661 C 0.91322 0.41664 0.53284 0.0
C2662 C 0.91753 0.43617 0.53219 0.0
C2663 C 1.00389 0.53207 0.5523 0.0
C2664 C 0.01341 0.52009 0.54297 0.0
C2665 C 0.98546 0.52568 0.55204 0.0
C2666 C 0.97615 0.50727 0.54213 0.0
C2667 C 0.98582 0.49564 0.53234 0.0
C2668 C 1.00425 0.5017 0.53338 0.0
C2669 C 0.95694 0.49899 0.54372 0.0
C2670 C 0.95144 0.47977 0.54595 0.0
C2671 C 0.94398 0.5094 0.54316 0.0
C2672 C 0.9477 0.52927 0.54002 0.0
C2673 C 0.9502 0.53287 0.52207 0.0
C2674 C 0.94987 0.55076 0.51812 0.0
C2675 C 0.94727 0.56516 0.53206 0.0
C2676 C 0.94531 0.56185 0.55009 0.0
C2677 C 0.94539 0.54392 0.55405 0.0
H2678 H 0.94682 0.57891 0.5289 0.0
H2679 H 0.91702 0.39529 0.54827 0.0
H2680 H 0.37227 0.09432 0.23854 0.0
H2681 H 0.36444 0.12285 0.23218 0.0
H2682 H 0.403 0.15813 0.27718 0.0
H2683 H 0.41066 0.12933 0.28398 0.0
H2684 H 0.37403 0.1704 0.27713 0.0
H2685 H 0.41174 0.15676 0.23198 0.0
H2686 H 0.42379 0.1375 0.20754 0.0
H2687 H 0.37524 0.1252 0.17173 0.0
H2688 H 0.3628 0.14419 0.19604 0.0
H2689 H 0.35689 0.23752 0.20907 0.0
H2690 H 0.37427 0.21678 0.21879 0.0
H2691 H 0.33041 0.18827 0.24498 0.0
H2692 H 0.31258 0.20797 0.23452 0.0
H2693 H 0.37057 0.1796 0.21168 0.0
H2694 H 0.34445 0.17729 0.28462 0.0
H2695 H 0.33428 0.1991 0.30856 0.0
H2696 H 0.36494 0.24786 0.28954 0.0
H2697 H 0.37552 0.22642 0.26569 0.0
C2698 C 0.37907 0.10811 0.24717 0.0
C2699 C 0.39218 0.10956 0.26169 0.0
C2700 C 0.37465 0.12447 0.24343 0.0
C2701 C 0.38342 0.14273 0.2539 0.0
C2702 C 0.39615 0.14421 0.26882 0.0
C2703 C 0.4005 0.12775 0.27269 0.0
C2704 C 0.37904 0.16005 0.24912 0.0
C2705 C 0.3734 0.1725 0.26285 0.0
C2706 C 0.37887 0.16331 0.23063 0.0
C2707 C 0.38631 0.15188 0.21589 0.0
C2708 C 0.40359 0.14989 0.21893 0.0
C2709 C 0.4105 0.13902 0.20509 0.0
C2710 C 0.40029 0.13012 0.1881 0.0
C2711 C 0.38315 0.13211 0.1849 0.0
C2712 C 0.37617 0.14296 0.19869 0.0
C2713 C 0.35085 0.22675 0.21678 0.0
C2714 C 0.33333 0.22469 0.22121 0.0
C2715 C 0.36092 0.21506 0.2225 0.0
C2716 C 0.35389 0.20144 0.23313 0.0
C2717 C 0.33635 0.19912 0.23731 0.0
C2718 C 0.32618 0.21054 0.23137 0.0
C2719 C 0.36449 0.18905 0.23942 0.0
C2720 C 0.37143 0.17765 0.22599 0.0
C2721 C 0.36632 0.18715 0.25827 0.0
C2722 C 0.36072 0.20019 0.27326 0.0
C2723 C 0.34918 0.19267 0.28566 0.0
C2724 C 0.3433 0.20497 0.29918 0.0
C2725 C 0.34889 0.22484 0.30049 0.0
C2726 C 0.36056 0.23247 0.28844 0.0
C2727 C 0.36651 0.22024 0.27492 0.0
H2728 H 0.34414 0.23431 0.3108 0.0
H2729 H 0.40565 0.1217 0.1774 0.0
H2730 H 0.36467 0.18183 0.50536 0.0
H2731 H 0.38983 0.16759 0.50655 0.0
H2732 H 0.35698 0.11907 0.5248 0.0
H2733 H 0.33223 0.13364 0.52445 0.0
H2734 H 0.38611 0.12936 0.54519 0.0
H2735 H 0.37127 0.11818 0.47879 0.0
H2736 H 0.36574 0.12701 0.44847 0.0
H2737 H 0.4187 0.16361 0.45509 0.0
H2738 H 0.42447 0.15517 0.48558 0.0
H2739 H 0.43264 0.05895 0.52559 0.0
H2740 H 0.41177 0.07769 0.52035 0.0
H2741 H 0.45499 0.12849 0.52588 0.0
H2742 H 0.47614 0.10997 0.532 0.0
H2743 H 0.42376 0.12025 0.49413 0.0
H2744 H 0.43794 0.12887 0.56083 0.0
H2745 H 0.44243 0.11718 0.58981 0.0
H2746 H 0.38869 0.08231 0.58081 0.0
H2747 H 0.38398 0.09357 0.55159 0.0
C2748 C 0.36282 0.16804 0.50945 0.0
C2749 C 0.34648 0.15889 0.51486 0.0
C2750 C 0.3772 0.15985 0.51007 0.0
C2751 C 0.37539 0.14212 0.51567 0.0
C2752 C 0.35887 0.1328 0.52056 0.0
C2753 C 0.34466 0.14112 0.52029 0.0
C2754 C 0.39069 0.1335 0.51731 0.0
C2755 C 0.39418 0.12729 0.53389 0.0
C2756 C 0.40168 0.13112 0.50285 0.0
C2757 C 0.39823 0.13622 0.48456 0.0
C2758 C 0.38169 0.12824 0.47385 0.0
C2759 C 0.37852 0.13314 0.45662 0.0
C2760 C 0.39184 0.14591 0.44989 0.0
C2761 C 0.40838 0.15375 0.46035 0.0
C2762 C 0.41161 0.1489 0.47759 0.0
C2763 C 0.43782 0.07412 0.52579 0.0
C2764 C 0.45613 0.08298 0.52963 0.0
C2765 C 0.42583 0.08477 0.52259 0.0
C2766 C 0.43182 0.10448 0.52285 0.0
C2767 C 0.45011 0.11326 0.52558 0.0
C2768 C 0.46218 0.10262 0.52903 0.0
C2769 C 0.41871 0.11593 0.52176 0.0
C2770 C 0.4157 0.1226 0.50538 0.0
C2771 C 0.40794 0.11851 0.53625 0.0
C2772 C 0.41066 0.11193 0.55394 0.0
C2773 C 0.42713 0.11858 0.56495 0.0
C2774 C 0.4297 0.11206 0.58143 0.0
C2775 C 0.41586 0.09898 0.58713 0.0
C2776 C 0.3994 0.09243 0.57637 0.0
C2777 C 0.39677 0.0989 0.55986 0.0
H2778 H 0.41788 0.09394 0.59989 0.0
H2779 H 0.38937 0.14969 0.43655 0.0
H2780 H 0.73733 0.57361 0.26322 0.0
H2781 H 0.7535 0.607 0.26325 0.0
H2782 H 0.71164 0.62694 0.28867 0.0
H2783 H 0.69558 0.59392 0.28876 0.0
H2784 H 0.72067 0.64562 0.26138 0.0
H2785 H 0.75369 0.63244 0.31282 0.0
H2786 H 0.77145 0.61484 0.32814 0.0
H2787 H 0.81083 0.62611 0.29044 0.0
H2788 H 0.79317 0.64358 0.27473 0.0
H2789 H 0.7603 0.74601 0.28581 0.0
H2790 H 0.74695 0.71223 0.28589 0.0
H2791 H 0.7935 0.69794 0.26588 0.0
H2792 H 0.80699 0.73203 0.26612 0.0
H2793 H 0.78289 0.67566 0.28864 0.0
H2794 H 0.75109 0.68942 0.23754 0.0
H2795 H 0.7338 0.70706 0.22162 0.0
H2796 H 0.69248 0.69407 0.25685 0.0
H2797 H 0.70965 0.67664 0.27322 0.0
C2798 C 0.73163 0.58507 0.26906 0.0
C2799 C 0.71501 0.58065 0.27609 0.0
C2800 C 0.74096 0.60434 0.26907 0.0
C2801 C 0.734 0.61995 0.27601 0.0
C2802 C 0.71751 0.6155 0.28313 0.0
C2803 C 0.7083 0.59637 0.28327 0.0
C2804 C 0.74347 0.64078 0.27561 0.0
C2805 C 0.73422 0.65215 0.26756 0.0
C2806 C 0.76141 0.64962 0.28307 0.0
C2807 C 0.77201 0.63913 0.29247 0.0
C2808 C 0.76606 0.63103 0.3077 0.0
C2809 C 0.77612 0.6211 0.31647 0.0
C2810 C 0.79223 0.6193 0.31023 0.0
C2811 C 0.79833 0.62748 0.29523 0.0
C2812 C 0.78831 0.6374 0.2864 0.0
C2813 C 0.76766 0.73573 0.28117 0.0
C2814 C 0.78473 0.74204 0.2757 0.0
C2815 C 0.75995 0.71617 0.28122 0.0
C2816 C 0.7688 0.70191 0.27541 0.0
C2817 C 0.7861 0.70827 0.27038 0.0
C2818 C 0.79392 0.72795 0.27055 0.0
C2819 C 0.76001 0.6806 0.2746 0.0
C2820 C 0.76936 0.66914 0.28238 0.0
C2821 C 0.7422 0.67158 0.26669 0.0
C2822 C 0.73172 0.68183 0.2567 0.0
C2823 C 0.73836 0.69041 0.24196 0.0
C2824 C 0.72858 0.70037 0.23286 0.0
C2825 C 0.71206 0.70168 0.23823 0.0
C2826 C 0.70528 0.69303 0.25271 0.0
C2827 C 0.71502 0.6831 0.2619 0.0
H2828 H 0.70448 0.70935 0.23114 0.0
H2829 H 0.8 0.61162 0.31704 0.0
H2830 H 0.87492 0.50726 0.76754 0.0
H2831 H 0.85812 0.47393 0.76541 0.0
H2832 H 0.90573 0.45993 0.78398 0.0
H2833 H 0.92266 0.49308 0.78592 0.0
H2834 H 0.88928 0.43604 0.75252 0.0
H2835 H 0.87249 0.46137 0.81169 0.0
H2836 H 0.86019 0.48263 0.83402 0.0
H2837 H 0.80978 0.46278 0.80064 0.0
H2838 H 0.82186 0.44161 0.77794 0.0
H2839 H 0.85776 0.34293 0.76725 0.0
H2840 H 0.87049 0.3775 0.77081 0.0
H2841 H 0.81902 0.38431 0.75398 0.0
H2842 H 0.80618 0.3496 0.75125 0.0
H2843 H 0.83495 0.41229 0.78184 0.0
H2844 H 0.8515 0.3868 0.72349 0.0
H2845 H 0.86341 0.36534 0.701 0.0
H2846 H 0.91412 0.38476 0.73372 0.0
H2847 H 0.90257 0.40651 0.7564 0.0
C2848 C 0.88177 0.49716 0.77144 0.0
C2849 C 0.90017 0.5028 0.77674 0.0
C2850 C 0.87213 0.47813 0.77027 0.0
C2851 C 0.88069 0.46447 0.77453 0.0
C2852 C 0.89889 0.47025 0.78055 0.0
C2853 C 0.90854 0.48922 0.78167 0.0
C2854 C 0.87107 0.44389 0.77136 0.0
C2855 C 0.87761 0.4308 0.75926 0.0
C2856 C 0.85538 0.43718 0.77947 0.0
C2857 C 0.84816 0.45012 0.79296 0.0
C2858 C 0.85885 0.46171 0.80898 0.0
C2859 C 0.8519 0.47371 0.82174 0.0
C2860 C 0.83424 0.47411 0.81872 0.0
C2861 C 0.82347 0.46249 0.80294 0.0
C2862 C 0.83036 0.4505 0.79012 0.0
C2863 C 0.84915 0.35196 0.7648 0.0
C2864 C 0.83095 0.34401 0.75991 0.0
C2865 C 0.85645 0.3716 0.76645 0.0
C2866 C 0.84574 0.3835 0.76246 0.0
C2867 C 0.82751 0.37543 0.75719 0.0
C2868 C 0.8202 0.35571 0.75566 0.0
C2869 C 0.85375 0.40432 0.76394 0.0
C2870 C 0.84677 0.41749 0.77539 0.0
C2871 C 0.86908 0.41115 0.75533 0.0
C2872 C 0.87614 0.39818 0.7417 0.0
C2873 C 0.86517 0.38643 0.72594 0.0
C2874 C 0.87185 0.37421 0.71316 0.0
C2875 C 0.88945 0.37355 0.71599 0.0
C2876 C 0.90047 0.38525 0.73156 0.0
C2877 C 0.89389 0.3976 0.74434 0.0
H2878 H 0.89456 0.36402 0.70608 0.0
H2879 H 0.82888 0.48339 0.82863 0.0
H2880 H 0.1152 0.8826 0.08215 0.0
H2881 H 0.10952 0.91107 0.07259 0.0
H2882 H 0.054 0.88994 0.07833 0.0
H2883 H 0.06005 0.86238 0.08945 0.0
H2884 H 0.09508 0.9212 0.04749 0.0
H2885 H 0.03187 0.92347 0.08411 0.0
H2886 H 0.0187 0.9152 0.11227 0.0
H2887 H 0.07041 0.92081 0.13931 0.0
H2888 H 0.08389 0.92931 0.11139 0.0
H2889 H 0.06534 0.99803 0.018 0.0
H2890 H 0.06755 0.96655 0.02378 0.0
H2891 H 0.07199 0.98828 0.08304 0.0
H2892 H 0.06819 0.01865 0.07716 0.0
H2893 H 0.05525 0.95571 0.07997 0.0
H2894 H 0.10882 0.98032 0.05367 0.0
H2895 H 0.12673 0.99288 0.02988 0.0
H2896 H 0.1028 0.94084 0.99008 0.0
H2897 H 0.08461 0.92807 0.01361 0.0
C2898 C 0.10178 0.8841 0.08152 0.0
C2899 C 0.08815 0.87018 0.08685 0.0
C2900 C 0.09847 0.90047 0.0759 0.0
C2901 C 0.08131 0.90336 0.07497 0.0
C2902 C 0.06754 0.88891 0.07953 0.0
C2903 C 0.07097 0.87288 0.08576 0.0
C2904 C 0.07796 0.9214 0.06942 0.0
C2905 C 0.08637 0.92868 0.05472 0.0
C2906 C 0.06683 0.93181 0.07872 0.0
C2907 C 0.05885 0.92678 0.09558 0.0
C2908 C 0.04042 0.92297 0.09608 0.0
C2909 C 0.0329 0.91824 0.112 0.0
C2910 C 0.0437 0.9174 0.12754 0.0
C2911 C 0.06205 0.92138 0.12723 0.0
C2912 C 0.06964 0.92614 0.11137 0.0
C2913 C 0.06636 0.99586 0.03221 0.0
C2914 C 0.06605 0.01082 0.04707 0.0
C2915 C 0.068 0.97788 0.03561 0.0
C2916 C 0.07019 0.97462 0.054 0.0
C2917 C 0.07011 0.98982 0.06869 0.0
C2918 C 0.06805 1.00744 0.0653 0.0
C2919 C 0.0727 0.95581 0.05837 0.0
C2920 C 0.064 0.94828 0.07277 0.0
C2921 C 0.08426 0.94577 0.04944 0.0
C2922 C 0.09524 0.95333 0.03532 0.0
C2923 C 0.10732 0.97161 0.03981 0.0
C2924 C 0.11752 0.97876 0.02639 0.0
C2925 C 0.11586 0.96769 0.00846 0.0
C2926 C 0.10404 0.94941 1.00396 0.0
C2927 C 0.0938 0.9422 0.01733 0.0
H2928 H 0.12376 0.97325 0.99808 0.0
H2929 H 0.03786 0.91373 0.13984 0.0
H2930 H 0.9785 0.24864 0.86523 0.0
H2931 H 0.95246 0.25086 0.84646 0.0
H2932 H 0.94418 0.29386 0.89089 0.0
H2933 H 0.96957 0.29085 0.91002 0.0
H2934 H 0.91406 0.27387 0.87728 0.0
H2935 H 0.96366 0.30319 0.8479 0.0
H2936 H 0.99123 0.30552 0.8329 0.0
H2937 H 0.96448 0.25792 0.78923 0.0
H2938 H 0.93679 0.25516 0.8041 0.0
H2939 H 0.85777 0.31219 0.82491 0.0
H2940 H 0.88369 0.30807 0.84199 0.0
H2941 H 0.88365 0.25899 0.79982 0.0
H2942 H 0.85797 0.26346 0.78227 0.0
H2943 H 0.91737 0.28079 0.81145 0.0
H2944 H 0.86572 0.25674 0.84116 0.0
H2945 H 0.83912 0.25984 0.85617 0.0
H2946 H 0.87124 0.30293 0.90084 0.0
H2947 H 0.89805 0.30063 0.88573 0.0
C2948 C 0.97109 0.25852 0.87104 0.0
C2949 C 0.97625 0.26959 0.88919 0.0
C2950 C 0.9562 0.25992 0.86019 0.0
C2951 C 0.94633 0.27288 0.86691 0.0
C2952 C 0.95138 0.28372 0.88517 0.0
C2953 C 0.96602 0.28202 0.89616 0.0
C2954 C 0.93085 0.27523 0.85508 0.0
C2955 C 0.91495 0.2756 0.86296 0.0
C2956 C 0.9316 0.27724 0.83619 0.0
C2957 C 0.94822 0.27884 0.82723 0.0
C2958 C 0.9637 0.29314 0.83517 0.0
C2959 C 0.97934 0.29455 0.82668 0.0
C2960 C 0.97962 0.28184 0.81015 0.0
C2961 C 0.96425 0.26773 0.80205 0.0
C2962 C 0.94858 0.26624 0.8105 0.0
C2963 C 0.8633 0.30061 0.81903 0.0
C2964 C 0.85579 0.28841 0.80181 0.0
C2965 C 0.87819 0.29822 0.82895 0.0
C2966 C 0.88571 0.2831 0.82238 0.0
C2967 C 0.87828 0.27087 0.80522 0.0
C2968 C 0.86352 0.27347 0.7951 0.0
C2969 C 0.90081 0.27966 0.83376 0.0
C2970 C 0.91654 0.27899 0.82576 0.0
C2971 C 0.90006 0.27791 0.85269 0.0
C2972 C 0.88394 0.27867 0.86216 0.0
C2973 C 0.86713 0.26708 0.85406 0.0
C2974 C 0.85198 0.26871 0.8626 0.0
C2975 C 0.85348 0.28167 0.87943 0.0
C2976 C 0.87011 0.29295 0.88778 0.0
C2977 C 0.8853 0.29149 0.87922 0.0
H2978 H 0.84179 0.28297 0.88608 0.0
H2979 H 0.99174 0.28296 0.8036 0.0
H2980 H 0.566 0.25599 0.61189 0.0
H2981 H 0.5643 0.22271 0.59813 0.0
H2982 H 0.6034 0.2418 0.56192 0.0
H2983 H 0.60482 0.27538 0.57541 0.0
H2984 H 0.58035 0.21051 0.54342 0.0
H2985 H 0.6143 0.22626 0.60273 0.0
H2986 H 0.62106 0.23856 0.63662 0.0
H2987 H 0.57601 0.19574 0.64636 0.0
H2988 H 0.56885 0.18333 0.61249 0.0
H2989 H 0.59696 0.11192 0.56461 0.0
H2990 H 0.60264 0.14697 0.57146 0.0
H2991 H 0.55836 0.14256 0.53141 0.0
H2992 H 0.55389 0.1078 0.52351 0.0
H2993 H 0.58692 0.16796 0.58742 0.0
H2994 H 0.55435 0.18125 0.52043 0.0
H2995 H 0.55239 0.1713 0.48623 0.0
H2996 H 0.60314 0.15925 0.49131 0.0
H2997 H 0.60525 0.1689 0.52562 0.0
C2998 C 0.57411 0.2532 0.60082 0.0
C2999 C 0.58562 0.26856 0.59488 0.0
C3000 C 0.57322 0.23403 0.59302 0.0
C3001 C 0.58405 0.22948 0.57923 0.0
C3002 C 0.59495 0.24475 0.5726 0.0
C3003 C 0.59573 0.26403 0.58031 0.0
C3004 C 0.58431 0.2089 0.57231 0.0
C3005 C 0.58182 0.20123 0.55307 0.0
C3006 C 0.58667 0.19664 0.58468 0.0
C3007 C 0.59096 0.20397 0.60507 0.0
C3008 C 0.60577 0.21954 0.61209 0.0
C3009 C 0.60968 0.22652 0.6313 0.0
C3010 C 0.59894 0.21796 0.64363 0.0
C3011 C 0.5843 0.20237 0.63679 0.0
C3012 C 0.58032 0.19534 0.61759 0.0
C3013 C 0.58897 0.11859 0.55672 0.0
C3014 C 0.57543 0.10714 0.54301 0.0
C3015 C 0.59203 0.1387 0.56082 0.0
C3016 C 0.58111 0.14797 0.55193 0.0
C3017 C 0.56756 0.13635 0.53812 0.0
C3018 C 0.56491 0.1163 0.53361 0.0
C3019 C 0.58283 0.16927 0.55836 0.0
C3020 C 0.58557 0.17713 0.57763 0.0
C3021 C 0.58127 0.18182 0.54598 0.0
C3022 C 0.57985 0.17551 0.52551 0.0
C3023 C 0.56504 0.17637 0.51423 0.0
C3024 C 0.56388 0.17074 0.49486 0.0
C3025 C 0.57758 0.1645 0.48663 0.0
C3026 C 0.59246 0.16388 0.49775 0.0
C3027 C 0.5936 0.16929 0.51714 0.0
H3028 H 0.5767 0.16023 0.47163 0.0
H3029 H 0.60199 0.22339 0.65849 0.0
H3030 H 0.59454 0.77708 0.40884 0.0
H3031 H 0.62049 0.7809 0.39155 0.0
H3032 H 0.59228 0.79903 0.34875 0.0
H3033 H 0.56615 0.79471 0.36567 0.0
H3034 H 0.61029 0.77694 0.3328 0.0
H3035 H 0.62476 0.83119 0.38375 0.0
H3036 H 0.6292 0.84778 0.41668 0.0
H3037 H 0.66927 0.81941 0.42815 0.0
H3038 H 0.6649 0.80246 0.39532 0.0
H3039 H 0.68001 0.82512 0.2891 0.0
H3040 H 0.65659 0.81939 0.30939 0.0
H3041 H 0.68703 0.79211 0.34144 0.0
H3042 H 0.71058 0.79741 0.32073 0.0
H3043 H 0.66915 0.81677 0.36358 0.0
H3044 H 0.65534 0.76418 0.31112 0.0
H3045 H 0.65108 0.74936 0.2777 0.0
H3046 H 0.60952 0.77653 0.26875 0.0
H3047 H 0.61373 0.79177 0.30209 0.0
C3048 C 0.59378 0.78175 0.39568 0.0
C3049 C 0.57815 0.78561 0.38874 0.0
C3050 C 0.60875 0.78409 0.38584 0.0
C3051 C 0.60861 0.79063 0.36892 0.0
C3052 C 0.59287 0.79402 0.36175 0.0
C3053 C 0.57786 0.79153 0.37149 0.0
C3054 C 0.62476 0.794 0.35865 0.0
C3055 C 0.62308 0.78582 0.33957 0.0
C3056 C 0.6417 0.80521 0.3674 0.0
C3057 C 0.64436 0.81539 0.38713 0.0
C3058 C 0.63442 0.82837 0.39333 0.0
C3059 C 0.63694 0.83786 0.41197 0.0
C3060 C 0.64947 0.83461 0.42451 0.0
C3061 C 0.65955 0.82189 0.41842 0.0
C3062 C 0.65706 0.81235 0.3998 0.0
C3063 C 0.68181 0.81786 0.30042 0.0
C3064 C 0.69712 0.81137 0.30296 0.0
C3065 C 0.66837 0.81466 0.31209 0.0
C3066 C 0.66983 0.80499 0.32676 0.0
C3067 C 0.68553 0.79951 0.33014 0.0
C3068 C 0.69903 0.80261 0.31832 0.0
C3069 C 0.6545 0.79992 0.3378 0.0
C3070 C 0.65635 0.80778 0.35694 0.0
C3071 C 0.63766 0.78857 0.3291 0.0
C3072 C 0.63495 0.77924 0.30908 0.0
C3073 C 0.64538 0.76711 0.30201 0.0
C3074 C 0.64296 0.75861 0.28308 0.0
C3075 C 0.63006 0.76203 0.2711 0.0
C3076 C 0.61952 0.77391 0.27804 0.0
C3077 C 0.6219 0.78246 0.29696 0.0
H3078 H 0.62822 0.75544 0.25645 0.0
H3079 H 0.65141 0.84197 0.43894 0.0
H3080 H 0.08825 0.28315 0.43841 0.0
H3081 H 0.08521 0.26063 0.45954 0.0
H3082 H 0.07826 0.21357 0.41283 0.0
H3083 H 0.0812 0.23606 0.39144 0.0
H3084 H 0.05323 0.20635 0.43695 0.0
H3085 H 0.11638 0.22833 0.44096 0.0
H3086 H 0.14534 0.25231 0.44541 0.0
H3087 H 0.13612 0.27467 0.50105 0.0
H3088 H 0.10698 0.25098 0.49684 0.0
H3089 H 0.05689 0.13694 0.4916 0.0
H3090 H 0.06222 0.15814 0.46938 0.0
H3091 H 0.07551 0.20745 0.51458 0.0
H3092 H 0.07155 0.18623 0.53707 0.0
H3093 H 0.09794 0.2128 0.4902 0.0
H3094 H 0.03424 0.19169 0.48581 0.0
H3095 H 1.00521 0.16779 0.48132 0.0
H3096 H 0.01526 0.14403 0.42644 0.0
H3097 H 0.04444 0.1677 0.43069 0.0
C3098 C 0.08619 0.26803 0.43258 0.0
C3099 C 0.08495 0.26141 0.4132 0.0
C3100 C 0.08454 0.25519 0.44471 0.0
C3101 C 0.08165 0.23546 0.43776 0.0
C3102 C 0.08052 0.22877 0.41846 0.0
C3103 C 0.08226 0.24164 0.40627 0.0
C3104 C 0.07915 0.22183 0.45069 0.0
C3105 C 0.06311 0.20754 0.44844 0.0
C3106 C 0.09187 0.22374 0.46592 0.0
C3107 C 0.10942 0.23798 0.46851 0.0
C3108 C 0.12046 0.23846 0.45409 0.0
C3109 C 0.13692 0.25198 0.45658 0.0
C3110 C 0.14255 0.26503 0.47349 0.0
C3111 C 0.13174 0.26456 0.48795 0.0
C3112 C 0.11526 0.25107 0.48553 0.0
C3113 C 0.0612 0.15228 0.49691 0.0
C3114 C 0.06391 0.15982 0.51622 0.0
C3115 C 0.06397 0.16442 0.48411 0.0
C3116 C 0.06899 0.18443 0.49025 0.0
C3117 C 0.07157 0.19205 0.50949 0.0
C3118 C 0.0691 0.17989 0.52234 0.0
C3119 C 0.0719 0.19738 0.47662 0.0
C3120 C 0.08804 0.21156 0.47872 0.0
C3121 C 0.05922 0.19541 0.46128 0.0
C3122 C 0.04159 0.18134 0.45864 0.0
C3123 C 0.0303 0.1813 0.47283 0.0
C3124 C 0.01381 0.16781 0.47032 0.0
C3125 C 0.00842 0.15437 0.45362 0.0
C3126 C 0.01947 0.15444 0.43937 0.0
C3127 C 0.03596 0.1679 0.44181 0.0
H3128 H 0.99566 0.14393 0.45171 0.0
H3129 H 0.1553 0.27549 0.47539 0.0
H3130 H 0.57256 0.28761 0.1687 0.0
H3131 H 0.60188 0.28676 0.18139 0.0
H3132 H 0.57857 0.26032 0.22529 0.0
H3133 H 0.54948 0.26191 0.21323 0.0
H3134 H 0.60889 0.283 0.23875 0.0
H3135 H 0.58795 0.23337 0.18296 0.0
H3136 H 0.57749 0.22069 0.14958 0.0
H3137 H 0.62475 0.25605 0.13455 0.0
H3138 H 0.63552 0.26897 0.1678 0.0
H3139 H 0.67725 0.22128 0.22733 0.0
H3140 H 0.64931 0.22798 0.21808 0.0
H3141 H 0.67133 0.28796 0.2426 0.0
H3142 H 0.69899 0.28123 0.25269 0.0
H3143 H 0.64215 0.2493 0.195 0.0
H3144 H 0.63852 0.30761 0.25799 0.0
H3145 H 0.64795 0.31677 0.29181 0.0
H3146 H 0.64713 0.25835 0.29355 0.0
H3147 H 0.63748 0.24879 0.25981 0.0
C3148 C 0.57376 0.28198 0.18128 0.0
C3149 C 0.55867 0.27469 0.18987 0.0
C3150 C 0.5905 0.28135 0.18843 0.0
C3151 C 0.59238 0.273 0.20401 0.0
C3152 C 0.57748 0.26675 0.21321 0.0
C3153 C 0.56081 0.26768 0.20628 0.0
C3154 C 0.60957 0.26972 0.21023 0.0
C3155 C 0.6162 0.27572 0.22915 0.0
C3156 C 0.61902 0.25994 0.1978 0.0
C3157 C 0.61245 0.25228 0.17784 0.0
C3158 C 0.59605 0.23854 0.17253 0.0
C3159 C 0.59008 0.23129 0.15365 0.0
C3160 C 0.60039 0.23763 0.13998 0.0
C3161 C 0.61675 0.25118 0.14515 0.0
C3162 C 0.62282 0.25844 0.164 0.0
C3163 C 0.67605 0.23584 0.23105 0.0
C3164 C 0.69036 0.25071 0.24077 0.0
C3165 C 0.66013 0.23968 0.22558 0.0
C3166 C 0.65819 0.25845 0.22973 0.0
C3167 C 0.67244 0.27333 0.23944 0.0
C3168 C 0.68832 0.26948 0.24502 0.0
C3169 C 0.64138 0.26247 0.22351 0.0
C3170 C 0.63489 0.25668 0.20457 0.0
C3171 C 0.63184 0.272 0.23601 0.0
C3172 C 0.63747 0.27755 0.25634 0.0
C3173 C 0.6403 0.29671 0.26561 0.0
C3174 C 0.64569 0.30198 0.28476 0.0
C3175 C 0.6482 0.28816 0.29481 0.0
C3176 C 0.64526 0.26904 0.28574 0.0
C3177 C 0.63985 0.26371 0.2666 0.0
H3178 H 0.65238 0.29227 0.30963 0.0
H3179 H 0.59573 0.232 0.12539 0.0
H3180 H 0.61838 0.88734 0.90134 0.0
H3181 H 0.61971 0.91775 0.92225 0.0
H3182 H 0.60471 0.88715 0.96648 0.0
H3183 H 0.60448 0.85706 0.94602 0.0
H3184 H 0.59636 0.93048 0.93668 0.0
H3185 H 0.61725 0.91293 0.00854 0.0
H3186 H 0.63791 0.89662 0.02113 0.0
H3187 H 0.66939 0.90509 0.97591 0.0
H3188 H 0.64907 0.92171 0.96319 0.0
H3189 H 0.55816 0.97485 0.00818 0.0
H3190 H 0.5696 0.95384 0.98541 0.0
H3191 H 0.62307 0.98323 0.00967 0.0
H3192 H 0.61164 1.00409 0.03288 0.0
H3193 H 0.61983 0.94694 1.00357 0.0
H3194 H 0.60932 0.98823 0.96453 0.0
H3195 H 0.59449 0.00821 0.94916 0.0
H3196 H 0.55104 0.95904 0.92681 0.0
H3197 H 0.56592 0.93857 0.94167 0.0
C3198 C 0.61561 0.88722 0.91562 0.0
C3199 C 0.61137 0.86992 0.92212 0.0
C3200 C 0.61637 0.90457 0.92755 0.0
C3201 C 0.61258 0.90485 0.94607 0.0
C3202 C 0.60828 0.88749 0.95249 0.0
C3203 C 0.60797 0.87024 0.94072 0.0
C3204 C 0.61165 0.92294 0.95828 0.0
C3205 C 0.60168 0.93414 0.95125 0.0
C3206 C 0.61915 0.92831 0.97714 0.0
C3207 C 0.63155 0.91848 0.98485 0.0
C3208 C 0.62863 0.91143 1.00134 0.0
C3209 C 0.64027 0.9021 0.00849 0.0
C3210 C 0.65493 0.89978 0.99931 0.0
C3211 C 0.658 0.90684 0.98298 0.0
C3212 C 0.64641 0.9162 0.97578 0.0
C3213 C 0.57236 0.97688 0.00868 0.0
C3214 C 0.584 0.99107 0.02238 0.0
C3215 C 0.57891 0.96499 0.99551 0.0
C3216 C 0.59722 0.96719 0.9956 0.0
C3217 C 0.60889 0.98134 0.00929 0.0
C3218 C 0.60234 0.9932 0.02258 0.0
C3219 C 0.60388 0.95375 0.9821 0.0
C3220 C 0.61487 0.94344 0.9889 0.0
C3221 C 0.59804 0.94973 0.96285 0.0
C3222 C 0.58864 0.96194 0.95439 0.0
C3223 C 0.59651 0.98172 0.95651 0.0
C3224 C 0.5881 0.99313 0.94784 0.0
C3225 C 0.57166 0.985 0.93726 0.0
C3226 C 0.56371 0.96535 0.93511 0.0
C3227 C 0.5722 0.9538 0.94354 0.0
H3228 H 0.56515 0.99386 0.93057 0.0
H3229 H 0.66392 0.89254 0.00485 0.0
H3230 H 0.97061 0.74056 0.71772 0.0
H3231 H 0.94464 0.74567 0.73228 0.0
H3232 H 0.96357 0.80666 0.73427 0.0
H3233 H 0.98898 0.80126 0.71825 0.0
H3234 H 0.93737 0.76192 0.76229 0.0
H3235 H 0.92962 0.82681 0.73113 0.0
H3236 H 0.93693 0.84125 0.7037 0.0
H3237 H 0.9371 0.78614 0.67201 0.0
H3238 H 0.92956 0.77134 0.69918 0.0
H3239 H 0.85913 0.7836 0.79541 0.0
H3240 H 0.88958 0.78437 0.78892 0.0
H3241 H 0.87293 0.77481 0.72988 0.0
H3242 H 0.84348 0.77706 0.73681 0.0
H3243 H 0.9007 0.7981 0.73428 0.0
H3244 H 0.88194 0.74149 0.75993 0.0
H3245 H 0.87211 0.72187 0.78332 0.0
H3246 H 0.91973 0.75153 0.81948 0.0
H3247 H 0.92976 0.77137 0.79635 0.0
C3248 C 0.96922 0.75507 0.7213 0.0
C3249 C 0.98161 0.77051 0.71671 0.0
C3250 C 0.95443 0.75801 0.72974 0.0
C3251 C 0.95195 0.77653 0.73419 0.0
C3252 C 0.9649 0.79216 0.73052 0.0
C3253 C 0.97943 0.78911 0.72146 0.0
C3254 C 0.93531 0.77905 0.74165 0.0
C3255 C 0.92931 0.76985 0.7562 0.0
C3256 C 0.92474 0.78931 0.73367 0.0
C3257 C 0.92931 0.79805 0.71727 0.0
C3258 C 0.93122 0.81779 0.7183 0.0
C3259 C 0.93539 0.82603 0.7028 0.0
C3260 C 0.93757 0.81464 0.68615 0.0
C3261 C 0.93549 0.79496 0.68494 0.0
C3262 C 0.93129 0.78665 0.70039 0.0
C3263 C 0.86228 0.78212 0.78114 0.0
C3264 C 0.84952 0.78142 0.76666 0.0
C3265 C 0.87955 0.78215 0.77736 0.0
C3266 C 0.88377 0.77972 0.75885 0.0
C3267 C 0.87034 0.77731 0.74432 0.0
C3268 C 0.85346 0.77843 0.74822 0.0
C3269 C 0.90205 0.77996 0.75423 0.0
C3270 C 0.90862 0.79012 0.74048 0.0
C3271 C 0.91267 0.76976 0.76235 0.0
C3272 C 0.90657 0.75793 0.77637 0.0
C3273 C 0.89031 0.74378 0.77286 0.0
C3274 C 0.88469 0.73266 0.78609 0.0
C3275 C 0.89529 0.73545 0.80287 0.0
C3276 C 0.91153 0.74937 0.80646 0.0
C3277 C 0.91718 0.76056 0.79329 0.0
H3278 H 0.89092 0.72681 0.81309 0.0
H3279 H 0.94081 0.82105 0.67417 0.0
H3280 H 0.15146 0.01199 0.83988 0.0
H3281 H 0.13843 0.01391 0.8696 0.0
H3282 H 0.11465 0.05738 0.85576 0.0
H3283 H 0.12754 0.05536 0.82604 0.0
H3284 H 0.14098 0.03844 0.9007 0.0
H3285 H 0.07761 0.05902 0.878 0.0
H3286 H 0.05685 0.05418 0.84982 0.0
H3287 H 0.07044 1.00211 0.82733 0.0
H3288 H 0.09111 1.00652 0.85546 0.0
H3289 H 0.10125 0.06843 0.9836 0.0
H3290 H 0.11414 0.06601 0.95393 0.0
H3291 H 0.07087 0.01699 0.92991 0.0
H3292 H 0.058 0.01933 0.95959 0.0
H3293 H 0.07771 0.03707 0.90377 0.0
H3294 H 0.11563 0.01476 0.94306 0.0
H3295 H 0.13545 0.0164 0.97108 0.0
H3296 H 0.17151 0.06671 0.95999 0.0
H3297 H 0.15179 0.06552 0.93201 0.0
C3298 C 0.14338 0.02193 0.84301 0.0
C3299 C 0.14066 0.03339 0.83001 0.0
C3300 C 0.1359 0.02311 0.86031 0.0
C3301 C 0.12509 0.03565 0.86549 0.0
C3302 C 0.12248 0.0472 0.85252 0.0
C3303 C 0.13003 0.04609 0.83528 0.0
C3304 C 0.11674 0.03666 0.88422 0.0
C3305 C 0.12715 0.03824 0.90119 0.0
C3306 C 0.09852 0.03609 0.88563 0.0
C3307 C 0.08604 0.03322 0.86875 0.0
C3308 C 0.07612 0.04651 0.86706 0.0
C3309 C 0.06438 0.04384 0.85109 0.0
C3310 C 0.06237 0.02788 0.83677 0.0
C3311 C 0.07205 0.01451 0.8384 0.0
C3312 C 0.0838 0.01709 0.85435 0.0
C3313 C 0.09438 0.05701 0.97211 0.0
C3314 C 0.07829 0.04412 0.97456 0.0
C3315 C 0.10192 0.05557 0.95488 0.0
C3316 C 0.09385 0.04115 0.93906 0.0
C3317 C 0.07769 0.02837 0.94144 0.0
C3318 C 0.07021 0.02973 0.95872 0.0
C3319 C 0.10207 0.03938 0.9203 0.0
C3320 C 0.09161 0.03751 0.90331 0.0
C3321 C 0.12019 0.0395 0.91885 0.0
C3322 C 0.13215 0.04016 0.93554 0.0
C3323 C 0.12774 0.02624 0.94666 0.0
C3324 C 0.13896 0.02708 0.96253 0.0
C3325 C 0.1547 0.04168 0.96734 0.0
C3326 C 0.15929 0.05543 0.95626 0.0
C3327 C 0.14811 0.05467 0.94038 0.0
H3328 H 0.16337 0.04232 0.97964 0.0
H3329 H 0.05328 0.02585 0.82442 0.0
H3330 H 0.77397 0.37122 0.5518 0.0
H3331 H 0.7649 0.35387 0.57665 0.0
H3332 H 0.79197 0.40436 0.61771 0.0
H3333 H 0.80016 0.42193 0.59299 0.0
H3334 H 0.78697 0.34492 0.59664 0.0
H3335 H 0.78126 0.40394 0.66025 0.0
H3336 H 0.76635 0.42995 0.66627 0.0
H3337 H 0.72868 0.40265 0.61826 0.0
H3338 H 0.74312 0.37625 0.61213 0.0
H3339 H 0.83191 0.35829 0.68727 0.0
H3340 H 0.81197 0.37037 0.66856 0.0
H3341 H 0.7767 0.31341 0.65278 0.0
H3342 H 0.79672 0.30118 0.67133 0.0
H3343 H 0.77422 0.36903 0.66057 0.0
H3344 H 0.77356 0.30476 0.60587 0.0
H3345 H 0.7886 0.27878 0.5995 0.0
H3346 H 0.83723 0.31703 0.62814 0.0
H3347 H 0.82252 0.34326 0.63437 0.0
C3348 C 0.77753 0.37873 0.56617 0.0
C3349 C 0.788 0.3978 0.57052 0.0
C3350 C 0.77228 0.36884 0.58035 0.0
C3351 C 0.77771 0.37774 0.59911 0.0
C3352 C 0.7872 0.39721 0.60343 0.0
C3353 C 0.7921 0.40723 0.58925 0.0
C3354 C 0.77668 0.366 0.61376 0.0
C3355 C 0.78346 0.34985 0.61039 0.0
C3356 C 0.77229 0.37237 0.63184 0.0
C3357 C 0.76335 0.38809 0.63569 0.0
C3358 C 0.7697 0.40336 0.65106 0.0
C3359 C 0.76134 0.41821 0.65448 0.0
C3360 C 0.74659 0.41796 0.64265 0.0
C3361 C 0.74013 0.40284 0.6274 0.0
C3362 C 0.74841 0.38793 0.62394 0.0
C3363 C 0.81971 0.34844 0.68015 0.0
C3364 C 0.8161 0.32873 0.68025 0.0
C3365 C 0.80817 0.35541 0.66975 0.0
C3366 C 0.79299 0.34272 0.65918 0.0
C3367 C 0.78837 0.3234 0.66088 0.0
C3368 C 0.79988 0.31642 0.67137 0.0
C3369 C 0.78498 0.34872 0.64328 0.0
C3370 C 0.77674 0.36374 0.64649 0.0
C3371 C 0.78779 0.34128 0.62492 0.0
C3372 C 0.7969 0.32583 0.62075 0.0
C3373 C 0.78747 0.3076 0.61071 0.0
C3374 C 0.79594 0.29285 0.60713 0.0
C3375 C 0.81384 0.29624 0.61346 0.0
C3376 C 0.82336 0.31441 0.62328 0.0
C3377 C 0.81497 0.32922 0.62683 0.0
H3378 H 0.82035 0.28479 0.61072 0.0
H3379 H 0.74017 0.42949 0.6453 0.0
H3380 H 0.45826 0.08299 0.35381 0.0
H3381 H 0.47848 0.08413 0.38108 0.0
H3382 H 0.49023 0.03235 0.3534 0.0
H3383 H 0.46978 0.03084 0.32647 0.0
H3384 H 0.48518 0.02973 0.3875 0.0
H3385 H 0.5199 0.07756 0.35848 0.0
H3386 H 0.52673 0.10647 0.34463 0.0
H3387 H 0.5211 0.14107 0.39647 0.0
H3388 H 0.514 0.11231 0.41057 0.0
H3389 H 0.5578 0.0368 0.45456 0.0
H3390 H 0.54326 0.03814 0.42428 0.0
H3391 H 0.51959 0.0813 0.45165 0.0
H3392 H 0.53371 0.07976 0.48175 0.0
H3393 H 0.53278 0.08797 0.41665 0.0
H3394 H 0.496 0.03892 0.44441 0.0
H3395 H 0.491 0.01007 0.45836 0.0
H3396 H 0.50202 0.97751 0.40787 0.0
H3397 H 0.50748 1.00632 0.39376 0.0
C3398 C 0.4652 0.07189 0.35355 0.0
C3399 C 0.4624 0.05682 0.338 0.0
C3400 C 0.47682 0.0726 0.3691 0.0
C3401 C 0.48606 0.05843 0.36923 0.0
C3402 C 0.48327 0.04343 0.35367 0.0
C3403 C 0.47157 0.04262 0.33825 0.0
C3404 C 0.49828 0.05885 0.38573 0.0
C3405 C 0.49575 0.04239 0.39364 0.0
C3406 C 0.512 0.07541 0.39395 0.0
C3407 C 0.51625 0.09274 0.38552 0.0
C3408 C 0.51998 0.09131 0.36688 0.0
C3409 C 0.52392 0.10767 0.35899 0.0
C3410 C 0.5243 0.12559 0.36965 0.0
C3411 C 0.52078 0.12718 0.38823 0.0
C3412 C 0.5168 0.11085 0.39618 0.0
C3413 C 0.54972 0.04676 0.454 0.0
C3414 C 0.54668 0.05801 0.47042 0.0
C3415 C 0.54144 0.04752 0.43677 0.0
C3416 C 0.53032 0.05978 0.43582 0.0
C3417 C 0.52814 0.07179 0.45211 0.0
C3418 C 0.5361 0.07078 0.46928 0.0
C3419 C 0.51958 0.05894 0.41824 0.0
C3420 C 0.52231 0.0753 0.41026 0.0
C3421 C 0.50615 0.04227 0.40985 0.0
C3422 C 0.50235 0.02482 0.4181 0.0
C3423 C 0.49749 0.02564 0.43633 0.0
C3424 C 0.49456 0.0093 0.44427 0.0
C3425 C 0.49624 0.99198 0.43403 0.0
C3426 C 0.50077 0.99095 0.4158 0.0
C3427 C 0.50378 1.00728 0.40783 0.0
H3428 H 0.49399 0.97934 0.4402 0.0
H3429 H 0.52736 0.13825 0.36352 0.0
H3430 H 0.81018 0.75449 0.06438 0.0
H3431 H 0.80877 0.76854 0.0971 0.0
H3432 H 0.8072 0.71407 0.11231 0.0
H3433 H 0.80895 0.70006 0.07997 0.0
H3434 H 0.77991 0.73075 0.12532 0.0
H3435 H 0.84338 0.74779 0.12432 0.0
H3436 H 0.87136 0.76287 0.11292 0.0
H3437 H 0.86052 0.81801 0.12629 0.0
H3438 H 0.83233 0.80319 0.13753 0.0
H3439 H 0.79005 0.75202 0.22405 0.0
H3440 H 0.78857 0.74182 0.19049 0.0
H3441 H 0.81083 0.80062 0.18559 0.0
H3442 H 0.81463 0.81014 0.21955 0.0
H3443 H 0.82647 0.78308 0.16572 0.0
H3444 H 0.76069 0.76624 0.15951 0.0
H3445 H 0.73045 0.75099 0.16603 0.0
H3446 H 0.74423 0.69782 0.16541 0.0
H3447 H 0.77416 0.7124 0.15767 0.0
C3448 C 0.80978 0.74557 0.07473 0.0
C3449 C 0.8097 0.72612 0.06944 0.0
C3450 C 0.80896 0.75363 0.09344 0.0
C3451 C 0.80782 0.74234 0.10718 0.0
C3452 C 0.80803 0.72305 0.10198 0.0
C3453 C 0.80912 0.7151 0.08342 0.0
C3454 C 0.80569 0.75022 0.12686 0.0
C3455 C 0.79011 0.74218 0.13422 0.0
C3456 C 0.81873 0.76545 0.13834 0.0
C3457 C 0.83564 0.77434 0.13155 0.0
C3458 C 0.84687 0.76309 0.12465 0.0
C3459 C 0.86279 0.7716 0.11826 0.0
C3460 C 0.86769 0.79138 0.11882 0.0
C3461 C 0.85669 0.80269 0.12582 0.0
C3462 C 0.84075 0.79425 0.13222 0.0
C3463 C 0.79403 0.76284 0.2157 0.0
C3464 C 0.80155 0.78209 0.22441 0.0
C3465 C 0.793 0.75702 0.1963 0.0
C3466 C 0.79905 0.77039 0.18493 0.0
C3467 C 0.80591 0.78984 0.19372 0.0
C3468 C 0.80763 0.79549 0.21321 0.0
C3469 C 0.80038 0.76386 0.16449 0.0
C3470 C 0.81596 0.77199 0.15691 0.0
C3471 C 0.78717 0.74891 0.15264 0.0
C3472 C 0.7697 0.7405 0.15844 0.0
C3473 C 0.75729 0.75136 0.16096 0.0
C3474 C 0.74018 0.7428 0.1647 0.0
C3475 C 0.73554 0.7236 0.16654 0.0
C3476 C 0.74787 0.71274 0.16416 0.0
C3477 C 0.76482 0.72106 0.15985 0.0
H3478 H 0.72234 0.71708 0.16961 0.0
H3479 H 0.88002 0.79794 0.11388 0.0
H3480 H 0.16929 0.01327 0.70235 0.0
H3481 H 0.15514 0.01671 0.67287 0.0
H3482 H 0.10953 0.02464 0.69977 0.0
H3483 H 0.12385 0.0216 0.72954 0.0
H3484 H 0.09878 1.0017 0.66341 0.0
H3485 H 0.13903 0.06283 0.68915 0.0
H3486 H 0.16771 0.08529 0.70258 0.0
H3487 H 0.19101 0.06792 0.65312 0.0
H3488 H 0.16245 0.04509 0.63947 0.0
H3489 H 0.06175 0.03232 0.58359 0.0
H3490 H 0.07262 0.02984 0.6152 0.0
H3491 H 0.12478 0.03361 0.59807 0.0
H3492 H 0.11412 0.03656 0.56711 0.0
H3493 H 0.13085 0.05143 0.63093 0.0
H3494 H 0.09208 0.98928 0.60544 0.0
H3495 H 0.06393 0.96595 0.59139 0.0
H3496 H 0.03857 0.98388 0.6391 0.0
H3497 H 0.06655 1.00748 0.65335 0.0
C3498 C 0.15616 0.01555 0.70216 0.0
C3499 C 0.14793 0.01699 0.71886 0.0
C3500 C 0.148 0.01767 0.68504 0.0
C3501 C 0.13102 0.02111 0.68352 0.0
C3502 C 0.12252 0.02199 0.70004 0.0
C3503 C 0.13084 0.02022 0.7173 0.0
C3504 C 0.12262 0.02435 0.66503 0.0
C3505 C 0.10579 0.0128 0.65653 0.0
C3506 C 0.13147 0.03846 0.65525 0.0
C3507 C 0.14865 0.05212 0.66337 0.0
C3508 C 0.15031 0.06368 0.6812 0.0
C3509 C 0.16654 0.07651 0.68884 0.0
C3510 C 0.18121 0.07802 0.67874 0.0
C3511 C 0.17965 0.06671 0.66094 0.0
C3512 C 0.16343 0.05383 0.65324 0.0
C3513 C 0.07559 0.0329 0.58662 0.0
C3514 C 0.08697 0.03487 0.57241 0.0
C3515 C 0.08188 0.0312 0.60485 0.0
C3516 C 0.09977 0.03115 0.60965 0.0
C3517 C 0.11102 0.03355 0.59544 0.0
C3518 C 0.1048 0.03524 0.57742 0.0
C3519 C 0.10704 0.02861 0.629 0.0
C3520 C 0.12375 0.04032 0.63773 0.0
C3521 C 0.09815 0.01448 0.63881 0.0
C3522 C 0.08135 1.00029 0.63036 0.0
C3523 C 0.08047 0.98833 0.61288 0.0
C3524 C 0.06455 0.97505 0.60489 0.0
C3525 C 0.04946 0.97348 0.61432 0.0
C3526 C 0.05027 0.98514 0.6318 0.0
C3527 C 0.06616 0.99847 0.63984 0.0
H3528 H 0.03714 0.96319 0.60811 0.0
H3529 H 0.19377 0.08798 0.68467 0.0
H3530 H 0.79829 0.39824 0.46106 0.0
H3531 H 0.79874 0.38202 0.42893 0.0
H3532 H 0.82987 0.34715 0.4488 0.0
H3533 H 0.82947 0.36319 0.48086 0.0
H3534 H 0.84323 0.36244 0.41936 0.0
H3535 H 0.78753 0.32749 0.43487 0.0
H3536 H 0.7581 0.32371 0.44617 0.0
H3537 H 0.74112 0.34923 0.40236 0.0
H3538 H 0.77054 0.35341 0.39096 0.0
H3539 H 0.80338 0.28848 0.32718 0.0
H3540 H 0.80406 0.30029 0.36062 0.0
H3541 H 0.82968 0.35761 0.35398 0.0
H3542 H 0.8287 0.34609 0.32053 0.0
H3543 H 0.78815 0.32794 0.37768 0.0
H3544 H 0.8589 0.37921 0.39333 0.0
H3545 H 0.88829 0.38165 0.38216 0.0
H3546 H 0.87528 0.32037 0.36428 0.0
H3547 H 0.84593 0.31753 0.3756 0.0
C3548 C 0.80517 0.38707 0.45858 0.0
C3549 C 0.8138 0.38196 0.47349 0.0
C3550 C 0.80539 0.3778 0.44024 0.0
C3551 C 0.81429 0.36335 0.43653 0.0
C3552 C 0.82295 0.35828 0.45138 0.0
C3553 C 0.82263 0.36742 0.46969 0.0
C3554 C 0.81472 0.3536 0.41714 0.0
C3555 C 0.8312 0.35488 0.41024 0.0
C3556 C 0.79902 0.34348 0.40538 0.0
C3557 C 0.78129 0.34092 0.41217 0.0
C3558 C 0.77757 0.33244 0.42774 0.0
C3559 C 0.76088 0.3302 0.43414 0.0
C3560 C 0.74776 0.33627 0.42502 0.0
C3561 C 0.75129 0.34455 0.40943 0.0
C3562 C 0.76797 0.34685 0.40298 0.0
C3563 C 0.80907 0.30361 0.33279 0.0
C3564 C 0.81564 0.31639 0.32109 0.0
C3565 C 0.80951 0.31031 0.35192 0.0
C3566 C 0.81689 0.3298 0.35972 0.0
C3567 C 0.82401 0.34248 0.34821 0.0
C3568 C 0.82341 0.33585 0.32908 0.0
C3569 C 0.81664 0.33711 0.37981 0.0
C3570 C 0.80018 0.33543 0.38683 0.0
C3571 C 0.83237 0.34669 0.39171 0.0
C3572 C 0.85014 0.34819 0.38518 0.0
C3573 C 0.86234 0.36625 0.38711 0.0
C3574 C 0.87899 0.3677 0.38073 0.0
C3575 C 0.88362 0.35118 0.37246 0.0
C3576 C 0.87165 0.33316 0.37062 0.0
C3577 C 0.85499 0.33163 0.377 0.0
H3578 H 0.89651 0.35235 0.36751 0.0
H3579 H 0.73485 0.33452 0.43 0.0
H3580 H 0.43782 0.0596 0.21818 0.0
H3581 H 0.4573 0.0523 0.19462 0.0
H3582 H 0.4904 0.03772 0.23592 0.0
H3583 H 0.47138 0.04532 0.25949 0.0
H3584 H 0.51015 0.05776 0.21463 0.0
H3585 H 0.45803 1.00366 0.20488 0.0
H3586 H 0.42612 0.98752 0.19788 0.0
H3587 H 0.42566 1.00523 0.14512 0.0
H3588 H 0.45753 0.02172 0.15194 0.0
H3589 H 0.55353 0.9938 0.16727 0.0
H3590 H 0.53409 0.00857 0.18624 0.0
H3591 H 0.50983 0.0211 0.13716 0.0
H3592 H 0.52883 1.00578 0.11799 0.0
H3593 H 0.48543 1.00633 0.15896 0.0
H3594 H 0.53899 0.05677 0.16746 0.0
H3595 H 0.57114 0.0717 0.17469 0.0
H3596 H 0.56914 0.05975 0.22983 0.0
H3597 H 0.53705 0.04456 0.22293 0.0
C3598 C 0.44934 0.05501 0.22227 0.0
C3599 C 0.45297 0.05292 0.24071 0.0
C3600 C 0.46041 0.05077 0.20877 0.0
C3601 C 0.47518 0.04424 0.21347 0.0
C3602 C 0.47909 0.04275 0.23197 0.0
C3603 C 0.46813 0.04704 0.24544 0.0
C3604 C 0.48638 0.0383 0.19921 0.0
C3605 C 0.50476 0.04647 0.20248 0.0
C3606 C 0.47928 0.02396 0.18307 0.0
C3607 C 0.46009 0.01419 0.17906 0.0
C3608 C 0.45108 1.00429 0.19188 0.0
C3609 C 0.43301 0.99504 0.18792 0.0
C3610 C 0.42385 0.99542 0.1711 0.0
C3611 C 0.43276 1.00501 0.15818 0.0
C3612 C 0.45082 0.01432 0.16208 0.0
C3613 C 0.54392 0.99951 0.1605 0.0
C3614 C 0.54275 0.99868 0.14117 0.0
C3615 C 0.53298 0.00814 0.17136 0.0
C3616 C 0.52075 0.01621 0.16312 0.0
C3617 C 0.5193 0.0151 0.14379 0.0
C3618 C 0.53022 1.00644 0.1329 0.0
C3619 C 0.50921 0.02536 0.17474 0.0
C3620 C 0.4908 0.01786 0.17092 0.0
C3621 C 0.51628 0.04023 0.19044 0.0
C3622 C 0.53561 0.04942 0.19463 0.0
C3623 C 0.54542 0.0572 0.18109 0.0
C3624 C 0.56363 0.06573 0.18513 0.0
C3625 C 0.57216 0.06662 0.20267 0.0
C3626 C 0.56251 0.05904 0.21624 0.0
C3627 C 0.54431 0.0505 0.21229 0.0
H3628 H 0.58625 0.07322 0.20576 0.0
H3629 H 0.40987 0.98823 0.16806 0.0
H3630 H 0.81795 0.71083 0.95182 0.0
H3631 H 0.82018 0.72188 0.92228 0.0
H3632 H 0.79794 0.76841 0.94421 0.0
H3633 H 0.79495 0.75685 0.97345 0.0
H3634 H 0.78369 0.75513 0.91102 0.0
H3635 H 0.84421 0.77386 0.93756 0.0
H3636 H 0.87198 0.76973 0.95179 0.0
H3637 H 0.8742 0.72839 0.9032 0.0
H3638 H 0.84631 0.73209 0.88876 0.0
H3639 H 0.81434 0.81158 0.84157 0.0
H3640 H 0.81346 0.80086 0.87154 0.0
H3641 H 0.81157 0.74353 0.84324 0.0
H3642 H 0.81181 0.754 0.81324 0.0
H3643 H 0.83831 0.76275 0.87913 0.0
H3644 H 0.77713 0.74607 0.85272 0.0
H3645 H 0.75085 0.7535 0.83887 0.0
H3646 H 0.75094 0.79408 0.8889 0.0
H3647 H 0.77773 0.78756 0.9027 0.0
C3648 C 0.81369 0.72353 0.95042 0.0
C3649 C 0.80635 0.73299 0.9651 0.0
C3650 C 0.81503 0.72992 0.93348 0.0
C3651 C 0.80948 0.74624 0.93089 0.0
C3652 C 0.80232 0.7558 0.94567 0.0
C3653 C 0.8007 0.74922 0.96249 0.0
C3654 C 0.81071 0.75308 0.91274 0.0
C3655 C 0.79575 0.757 0.90426 0.0
C3656 C 0.82631 0.75538 0.90353 0.0
C3657 C 0.84308 0.75311 0.91216 0.0
C3658 C 0.85055 0.76378 0.92997 0.0
C3659 C 0.86632 0.76154 0.93806 0.0
C3660 C 0.87482 0.74877 0.92843 0.0
C3661 C 0.86759 0.73825 0.91066 0.0
C3662 C 0.85181 0.74043 0.9025 0.0
C3663 C 0.81379 0.79671 0.84178 0.0
C3664 C 0.81304 0.78359 0.82507 0.0
C3665 C 0.81328 0.79061 0.85888 0.0
C3666 C 0.81246 0.77139 0.85963 0.0
C3667 C 0.81221 0.75841 0.843 0.0
C3668 C 0.81223 0.76438 0.82587 0.0
C3669 C 0.81138 0.76471 0.87768 0.0
C3670 C 0.82632 0.76085 0.88604 0.0
C3671 C 0.79589 0.76277 0.8869 0.0
C3672 C 0.77965 0.76655 0.87864 0.0
C3673 C 0.77175 0.75684 0.86065 0.0
C3674 C 0.75675 0.76089 0.85279 0.0
C3675 C 0.74929 0.77436 0.86294 0.0
C3676 C 0.7568 0.78377 0.88098 0.0
C3677 C 0.77194 0.77995 0.8888 0.0
H3678 H 0.73765 0.77744 0.85686 0.0
H3679 H 0.88703 0.74705 0.93472 0.0
H3680 H 0.8411 0.11548 0.99979 0.0
H3681 H 0.86211 0.0957 0.99654 0.0
H3682 H 0.84106 0.06849 0.04092 0.0
H3683 H 0.82021 0.08835 0.04443 0.0
H3684 H 0.87645 0.07888 0.04568 0.0
H3685 H 0.83149 0.0446 0.99598 0.0
H3686 H 0.81085 0.04037 0.9679 0.0
H3687 H 0.85465 0.05897 0.93716 0.0
H3688 H 0.87556 0.06357 0.96515 0.0
H3689 H 0.92388 1.00751 0.03151 0.0
H3690 H 0.89878 0.0219 0.03291 0.0
H3691 H 0.91856 0.05395 0.99117 0.0
H3692 H 0.94345 0.03939 0.98948 0.0
H3693 H 0.88238 0.03904 0.98543 0.0
H3694 H 0.92705 0.07501 0.03599 0.0
H3695 H 0.94756 0.07852 0.06402 0.0
H3696 H 0.90375 0.05598 0.0932 0.0
H3697 H 0.88299 0.05206 0.06523 0.0
C3698 C 0.84088 0.10521 0.00878 0.0
C3699 C 0.82899 0.10348 0.02235 0.0
C3700 C 0.85284 0.09387 0.00687 0.0
C3701 C 0.85304 0.08051 0.0184 0.0
C3702 C 0.84113 0.07871 0.03189 0.0
C3703 C 0.82919 0.09004 0.03382 0.0
C3704 C 0.86601 0.06881 0.01675 0.0
C3705 C 0.87755 0.06992 0.03257 0.0
C3706 C 0.86762 0.05736 0.99959 0.0
C3707 C 0.85509 0.0546 0.98272 0.0
C3708 C 0.83672 0.04794 0.98328 0.0
C3709 C 0.82497 0.04544 0.96737 0.0
C3710 C 0.83143 0.04944 0.95077 0.0
C3711 C 0.84966 0.0559 0.95003 0.0
C3712 C 0.86147 0.05843 0.96591 0.0
C3713 C 0.92268 0.01737 0.02242 0.0
C3714 C 0.93565 0.02245 0.01047 0.0
C3715 C 0.90844 0.02567 0.02332 0.0
C3716 C 0.90696 0.03914 0.01229 0.0
C3717 C 0.9195 0.04362 0.99982 0.0
C3718 C 0.93376 0.03541 0.99897 0.0
C3719 C 0.89284 0.04928 0.01428 0.0
C3720 C 0.88114 0.04789 0.99855 0.0
C3721 C 0.89104 0.06043 0.03153 0.0
C3722 C 0.90348 0.06306 0.04845 0.0
C3723 C 0.9218 0.07068 0.04834 0.0
C3724 C 0.93347 0.07276 0.06422 0.0
C3725 C 0.92697 0.06743 0.08036 0.0
C3726 C 0.90877 0.06007 0.08067 0.0
C3727 C 0.89704 0.05793 0.06482 0.0
H3728 H 0.93603 0.06906 0.09264 0.0
H3729 H 0.82231 0.0475 0.93846 0.0
H3730 H 0.37032 0.42016 0.01844 0.0
H3731 H 0.40156 0.43657 0.01965 0.0
H3732 H 0.39544 0.48188 0.06299 0.0
H3733 H 0.3638 0.46573 0.06138 0.0
H3734 H 0.41636 0.49709 0.04056 0.0
H3735 H 0.41495 0.4455 0.07198 0.0
H3736 H 0.40761 0.41237 0.07745 0.0
H3737 H 0.43437 0.3949 0.03074 0.0
H3738 H 0.44162 0.42785 0.02477 0.0
H3739 H 0.511 0.53177 0.06213 0.0
H3740 H 0.47997 0.51721 0.06543 0.0
H3741 H 0.47624 0.47595 0.01458 0.0
H3742 H 0.50701 0.49075 0.01081 0.0
H3743 H 0.46104 0.46001 0.04446 0.0
H3744 H 0.46037 0.51257 0.01272 0.0
H3745 H 0.46962 0.54658 0.01003 0.0
H3746 H 0.44811 0.56286 0.06102 0.0
H3747 H 0.43899 0.52894 0.06418 0.0
C3748 C 0.37556 0.43366 0.02821 0.0
C3749 C 0.36455 0.44155 0.03992 0.0
C3750 C 0.39351 0.44298 0.02898 0.0
C3751 C 0.40106 0.46024 0.04176 0.0
C3752 C 0.39 0.4685 0.0531 0.0
C3753 C 0.3719 0.45927 0.05216 0.0
C3754 C 0.42045 0.46958 0.04308 0.0
C3755 C 0.4261 0.48901 0.04173 0.0
C3756 C 0.43332 0.45912 0.04451 0.0
C3757 C 0.42867 0.43915 0.04781 0.0
C3758 C 0.41911 0.43456 0.06274 0.0
C3759 C 0.41499 0.41581 0.06596 0.0
C3760 C 0.42048 0.40152 0.05442 0.0
C3761 C 0.43008 0.40596 0.03963 0.0
C3762 C 0.43421 0.42468 0.03634 0.0
C3763 C 0.50356 0.51975 0.05153 0.0
C3764 C 0.51143 0.51277 0.03597 0.0
C3765 C 0.48584 0.51136 0.05351 0.0
C3766 C 0.47576 0.49563 0.04014 0.0
C3767 C 0.48378 0.48812 0.02503 0.0
C3768 C 0.50139 0.49665 0.0229 0.0
C3769 C 0.45671 0.4872 0.04154 0.0
C3770 C 0.4512 0.468 0.04343 0.0
C3771 C 0.44404 0.49792 0.0409 0.0
C3772 C 0.44913 0.51824 0.03877 0.0
C3773 C 0.4577 0.52341 0.02342 0.0
C3774 C 0.46291 0.54267 0.0218 0.0
C3775 C 0.45946 0.55687 0.03535 0.0
C3776 C 0.45076 0.55184 0.05053 0.0
C3777 C 0.44557 0.5326 0.05224 0.0
H3778 H 0.46352 0.57178 0.03409 0.0
H3779 H 0.41732 0.38703 0.05696 0.0
H3780 H 0.41405 0.64229 0.78499 0.0
H3781 H 0.4009 0.66944 0.78588 0.0
H3782 H 0.36881 0.64085 0.73415 0.0
H3783 H 0.38237 0.61388 0.73303 0.0
H3784 H 0.37616 0.67612 0.73204 0.0
H3785 H 0.35351 0.6479 0.78277 0.0
H3786 H 0.3549 0.63584 0.81202 0.0
H3787 H 0.38606 0.69147 0.84076 0.0
H3788 H 0.38502 0.7038 0.81162 0.0
H3789 H 0.32095 0.74147 0.73617 0.0
H3790 H 0.33229 0.71325 0.73634 0.0
H3791 H 0.36418 0.74157 0.78828 0.0
H3792 H 0.35202 0.7695 0.7884 0.0
H3793 H 0.35678 0.70635 0.79021 0.0
H3794 H 0.37931 0.7346 0.73926 0.0
H3795 H 0.37698 0.74677 0.71018 0.0
H3796 H 0.3456 0.69113 0.68177 0.0
H3797 H 0.34757 0.67867 0.71076 0.0
C3798 C 0.40415 0.64159 0.77375 0.0
C3799 C 0.39946 0.6253 0.75898 0.0
C3800 C 0.39636 0.65736 0.77434 0.0
C3801 C 0.3832 0.65777 0.76029 0.0
C3802 C 0.3787 0.64155 0.7454 0.0
C3803 C 0.38655 0.62581 0.74478 0.0
C3804 C 0.37439 0.67483 0.76099 0.0
C3805 C 0.37177 0.6824 0.74483 0.0
C3806 C 0.36866 0.68406 0.77748 0.0
C3807 C 0.36934 0.67671 0.79498 0.0
C3808 C 0.36076 0.65752 0.79531 0.0
C3809 C 0.36147 0.65064 0.81187 0.0
C3810 C 0.37061 0.66287 0.82822 0.0
C3811 C 0.37901 0.68201 0.82807 0.0
C3812 C 0.37836 0.68895 0.81154 0.0
C3813 C 0.32999 0.74159 0.74794 0.0
C3814 C 0.33484 0.75793 0.76259 0.0
C3815 C 0.33693 0.72533 0.74787 0.0
C3816 C 0.34982 0.72473 0.76206 0.0
C3817 C 0.35442 0.74098 0.77695 0.0
C3818 C 0.34725 0.75716 0.77713 0.0
C3819 C 0.35858 0.70764 0.7613 0.0
C3820 C 0.36119 0.70008 0.77744 0.0
C3821 C 0.3643 0.69843 0.74478 0.0
C3822 C 0.36346 0.70575 0.72723 0.0
C3823 C 0.37187 0.72497 0.72683 0.0
C3824 C 0.3706 0.73192 0.71036 0.0
C3825 C 0.36111 0.71974 0.69414 0.0
C3826 C 0.35293 0.70055 0.69435 0.0
C3827 C 0.35413 0.69353 0.71079 0.0
H3828 H 0.36011 0.72516 0.68142 0.0
H3829 H 0.37114 0.65752 0.84103 0.0
H3830 H 0.24755 0.64681 0.53297 0.0
H3831 H 0.21604 0.63652 0.53675 0.0
H3832 H 0.21866 0.57766 0.52889 0.0
H3833 H 0.25036 0.58784 0.52545 0.0
H3834 H 0.18954 0.58595 0.50687 0.0
H3835 H 0.21753 0.5971 0.57006 0.0
H3836 H 0.23748 0.61669 0.59767 0.0
H3837 H 0.20798 0.65909 0.60103 0.0
H3838 H 0.18801 0.63987 0.57325 0.0
H3839 H 0.10717 0.54107 0.5266 0.0
H3840 H 0.13906 0.55208 0.52842 0.0
H3841 H 0.13682 0.60919 0.55349 0.0
H3842 H 0.10453 0.59732 0.55349 0.0
H3843 H 0.16614 0.60345 0.5671 0.0
H3844 H 0.13848 0.59469 0.50555 0.0
H3845 H 0.11818 0.57742 0.47762 0.0
H3846 H 0.14682 0.53425 0.46927 0.0
H3847 H 0.16719 0.55116 0.49755 0.0
C3848 C 0.24143 0.63165 0.53194 0.0
C3849 C 0.25143 0.61811 0.52888 0.0
C3850 C 0.22346 0.62585 0.53422 0.0
C3851 C 0.21515 0.60639 0.53325 0.0
C3852 C 0.22494 0.59276 0.52976 0.0
C3853 C 0.243 0.59859 0.5278 0.0
C3854 C 0.19613 0.60025 0.5356 0.0
C3855 C 0.1844 0.58953 0.52007 0.0
C3856 C 0.18949 0.60568 0.55266 0.0
C3857 C 0.20139 0.61714 0.56946 0.0
C3858 C 0.21539 0.61068 0.57658 0.0
C3859 C 0.22668 0.62171 0.59229 0.0
C3860 C 0.22403 0.63916 0.60107 0.0
C3861 C 0.21004 0.64559 0.5942 0.0
C3862 C 0.19872 0.63463 0.57848 0.0
C3863 C 0.11347 0.55565 0.53347 0.0
C3864 C 0.10345 0.56806 0.5407 0.0
C3865 C 0.13175 0.56215 0.53401 0.0
C3866 C 0.14037 0.58159 0.54066 0.0
C3867 C 0.13047 0.5941 0.54828 0.0
C3868 C 0.11208 0.58736 0.54826 0.0
C3869 C 0.15943 0.58883 0.53839 0.0
C3870 C 0.17119 0.59985 0.55386 0.0
C3871 C 0.16612 0.58408 0.52111 0.0
C3872 C 0.15428 0.57413 0.50376 0.0
C3873 C 0.14043 0.58148 0.49781 0.0
C3874 C 0.12888 0.57172 0.4819 0.0
C3875 C 0.13115 0.55468 0.47162 0.0
C3876 C 0.14506 0.54743 0.47724 0.0
C3877 C 0.15662 0.55711 0.49322 0.0
H3878 H 0.12216 0.5471 0.45932 0.0
H3879 H 0.23279 0.64767 0.61322 0.0
H3880 H 0.73194 0.98898 0.73686 0.0
H3881 H 0.74342 0.96367 0.74623 0.0
H3882 H 0.71247 0.96404 0.79292 0.0
H3883 H 0.70114 0.98975 0.7838 0.0
H3884 H 0.7456 0.96617 0.80384 0.0
H3885 H 0.70257 0.92553 0.7557 0.0
H3886 H 0.68599 0.9145 0.72438 0.0
H3887 H 0.73365 0.90898 0.70066 0.0
H3888 H 0.75058 0.92027 0.7318 0.0
H3889 H 0.78068 0.89429 0.8307 0.0
H3890 H 0.75764 0.90773 0.81882 0.0
H3891 H 0.78574 0.91747 0.77116 0.0
H3892 H 0.80876 0.90393 0.78293 0.0
H3893 H 0.74955 0.90662 0.762 0.0
H3894 H 0.79278 0.95246 0.80914 0.0
H3895 H 0.8097 0.96369 0.8403 0.0
H3896 H 0.76122 0.95947 0.86557 0.0
H3897 H 0.74401 0.94793 0.83454 0.0
C3898 C 0.72739 0.98355 0.74901 0.0
C3899 C 0.71569 0.99145 0.75965 0.0
C3900 C 0.73386 0.96894 0.75426 0.0
C3901 C 0.72864 0.96178 0.77015 0.0
C3902 C 0.71661 0.96931 0.78057 0.0
C3903 C 0.71016 0.98399 0.77534 0.0
C3904 C 0.73707 0.94779 0.77678 0.0
C3905 C 0.74606 0.95291 0.79482 0.0
C3906 C 0.738 0.93067 0.7649 0.0
C3907 C 0.72788 0.92389 0.7461 0.0
C3908 C 0.70955 0.92212 0.74379 0.0
C3909 C 0.70008 0.91579 0.72607 0.0
C3910 C 0.70877 0.91107 0.71054 0.0
C3911 C 0.72694 0.91265 0.7127 0.0
C3912 C 0.73648 0.91899 0.73039 0.0
C3913 C 0.78182 0.89911 0.81759 0.0
C3914 C 0.79665 0.89842 0.80789 0.0
C3915 C 0.76864 0.90669 0.81079 0.0
C3916 C 0.77017 0.9139 0.7943 0.0
C3917 C 0.78433 0.912 0.78394 0.0
C3918 C 0.79748 0.90431 0.79068 0.0
C3919 C 0.7582 0.92524 0.78885 0.0
C3920 C 0.74867 0.91967 0.77108 0.0
C3921 C 0.75676 0.94199 0.80093 0.0
C3922 C 0.76711 0.94913 0.81956 0.0
C3923 C 0.78573 0.9538 0.82135 0.0
C3924 C 0.79537 0.96023 0.83898 0.0
C3925 C 0.78654 0.96224 0.85491 0.0
C3926 C 0.76804 0.95787 0.85322 0.0
C3927 C 0.75834 0.95139 0.83562 0.0
H3928 H 0.79402 0.96722 0.86855 0.0
H3929 H 0.70141 0.90617 0.69683 0.0
H3930 H 0.78087 0.97315 0.56068 0.0
H3931 H 0.75728 0.988 0.55371 0.0
H3932 H 0.7341 0.9403 0.50834 0.0
H3933 H 0.75806 0.92553 0.51499 0.0
H3934 H 0.7328 0.97254 0.49791 0.0
H3935 H 0.71609 0.9457 0.55088 0.0
H3936 H 0.71993 0.93919 0.58251 0.0
H3937 H 0.73011 0.99934 0.60583 0.0
H3938 H 0.72657 1.00625 0.5743 0.0
H3939 H 0.65431 1.00536 0.48804 0.0
H3940 H 0.67373 0.98492 0.49405 0.0
H3941 H 0.70445 0.03017 0.53825 0.0
H3942 H 0.68502 0.05041 0.53251 0.0
H3943 H 0.69937 0.99579 0.54832 0.0
H3944 H 0.71828 0.02236 0.49476 0.0
H3945 H 0.71416 0.0285 0.46301 0.0
H3946 H 0.69905 0.96784 0.44075 0.0
H3947 H 0.70285 0.96134 0.47243 0.0
C3948 C 0.77077 0.96577 0.5492 0.0
C3949 C 0.77135 0.94806 0.53846 0.0
C3950 C 0.75718 0.97426 0.54529 0.0
C3951 C 0.74361 0.96516 0.53071 0.0
C3952 C 0.74432 0.94762 0.51973 0.0
C3953 C 0.75802 0.93915 0.52357 0.0
C3954 C 0.72889 0.97412 0.52691 0.0
C3955 C 0.72529 0.97728 0.50888 0.0
C3956 C 0.71912 0.9806 0.5412 0.0
C3957 C 0.7212 0.97651 0.5602 0.0
C3958 C 0.71927 0.95756 0.56274 0.0
C3959 C 0.72137 0.9538 0.58065 0.0
C3960 C 0.7253 0.96885 0.59617 0.0
C3961 C 0.72708 0.9877 0.5938 0.0
C3962 C 0.72501 0.99154 0.57591 0.0
C3963 C 0.66505 0.01082 0.4992 0.0
C3964 C 0.66821 0.02959 0.50967 0.0
C3965 C 0.67625 0.99919 0.50253 0.0
C3966 C 0.69077 1.00607 0.51644 0.0
C3967 C 0.69344 0.02452 0.52738 0.0
C3968 C 0.68236 0.03614 0.524 0.0
C3969 C 0.70354 0.99447 0.51944 0.0
C3970 C 0.70677 0.99082 0.53732 0.0
C3971 C 0.71288 0.98746 0.50501 0.0
C3972 C 0.71065 0.99136 0.48597 0.0
C3973 C 0.71394 0.01033 0.48311 0.0
C3974 C 0.71169 0.01388 0.46513 0.0
C3975 C 0.70629 0.99857 0.44988 0.0
C3976 C 0.70319 0.97968 0.45258 0.0
C3977 C 0.7054 0.97606 0.47054 0.0
H3978 H 0.70456 1.00134 0.43596 0.0
H3979 H 0.72693 0.9659 0.61003 0.0
H3980 H 0.38083 0.52026 0.75194 0.0
H3981 H 0.36426 0.48663 0.75054 0.0
H3982 H 0.40667 0.47902 0.78612 0.0
H3983 H 0.42313 0.51206 0.78738 0.0
H3984 H 0.3973 0.44879 0.76052 0.0
H3985 H 0.36337 0.4824 0.79995 0.0
H3986 H 0.34539 0.50526 0.80825 0.0
H3987 H 0.30692 0.47542 0.76153 0.0
H3988 H 0.32479 0.4525 0.75283 0.0
H3989 H 0.35616 0.35982 0.78569 0.0
H3990 H 0.36991 0.3934 0.78503 0.0
H3991 H 0.32501 0.3948 0.74893 0.0
H3992 H 0.31109 0.36107 0.74966 0.0
H3993 H 0.33461 0.42782 0.77252 0.0
H3994 H 0.36769 0.39337 0.73384 0.0
H3995 H 0.38563 0.37055 0.72517 0.0
H3996 H 0.42582 0.40206 0.76979 0.0
H3997 H 0.408 0.42491 0.77892 0.0
C3998 C 0.38656 0.51153 0.75966 0.0
C3999 C 0.40352 0.51936 0.7698 0.0
C4000 C 0.377 0.4921 0.75887 0.0
C4001 C 0.38396 0.47975 0.76827 0.0
C4002 C 0.40075 0.48774 0.77855 0.0
C4003 C 0.41023 0.50697 0.77933 0.0
C4004 C 0.37432 0.45857 0.76731 0.0
C4005 C 0.38364 0.44438 0.76341 0.0
C4006 C 0.35625 0.45212 0.77044 0.0
C4007 C 0.34552 0.46588 0.77562 0.0
C4008 C 0.35115 0.48081 0.79137 0.0
C4009 C 0.34096 0.49376 0.79615 0.0
C4010 C 0.32505 0.49183 0.78539 0.0
C4011 C 0.31927 0.47691 0.76983 0.0
C4012 C 0.32941 0.46394 0.76497 0.0
C4013 C 0.34909 0.36712 0.77753 0.0
C4014 C 0.33224 0.35732 0.76786 0.0
C4015 C 0.35713 0.38656 0.77707 0.0
C4016 C 0.34883 0.39713 0.76673 0.0
C4017 C 0.33194 0.38739 0.75711 0.0
C4018 C 0.32388 0.3679 0.75757 0.0
C4019 C 0.35771 0.41812 0.76605 0.0
C4020 C 0.34826 0.43224 0.76961 0.0
C4021 C 0.37569 0.42453 0.76256 0.0
C4022 C 0.38641 0.41075 0.75718 0.0
C4023 C 0.38028 0.39535 0.74191 0.0
C4024 C 0.39044 0.38242 0.73689 0.0
C4025 C 0.40684 0.38483 0.74695 0.0
C4026 C 0.41311 0.40019 0.76203 0.0
C4027 C 0.40299 0.41314 0.76712 0.0
H4028 H 0.4147 0.37482 0.74303 0.0
H4029 H 0.31719 0.50187 0.78912 0.0
H4030 H 0.244 0.58923 0.25672 0.0
H4031 H 0.26025 0.62324 0.26213 0.0
H4032 H 0.21105 0.63831 0.25255 0.0
H4033 H 0.19482 0.60467 0.24826 0.0
H4034 H 0.26566 0.64775 0.24204 0.0
H4035 H 0.21137 0.6819 0.27396 0.0
H4036 H 0.18827 0.67472 0.29496 0.0
H4037 H 0.21633 0.63976 0.31895 0.0
H4038 H 0.23975 0.64696 0.29831 0.0
H4039 H 0.25222 0.75109 0.25366 0.0
H4040 H 0.24323 0.71621 0.25061 0.0
H4041 H 0.29718 0.71681 0.26724 0.0
H4042 H 0.30631 0.75155 0.2691 0.0
H4043 H 0.24464 0.6995 0.27923 0.0
H4044 H 0.30416 0.68447 0.26236 0.0
H4045 H 0.32884 0.6845 0.24298 0.0
H4046 H 0.29319 0.67696 0.19379 0.0
H4047 H 0.26846 0.67761 0.21302 0.0
C4048 C 0.23669 0.59988 0.25594 0.0
C4049 C 0.21815 0.59434 0.25223 0.0
C4050 C 0.24597 0.6193 0.25903 0.0
C4051 C 0.23689 0.6335 0.25816 0.0
C4052 C 0.21838 0.62783 0.25399 0.0
C4053 C 0.2091 0.60853 0.25137 0.0
C4054 C 0.2467 0.65411 0.26058 0.0
C4055 C 0.26116 0.65903 0.25041 0.0
C4056 C 0.24115 0.66897 0.27171 0.0
C4057 C 0.22727 0.66488 0.28446 0.0
C4058 C 0.21269 0.67279 0.2838 0.0
C4059 C 0.19952 0.66869 0.29562 0.0
C4060 C 0.20081 0.65675 0.30824 0.0
C4061 C 0.21532 0.64896 0.30912 0.0
C4062 C 0.22854 0.65303 0.29735 0.0
C4063 C 0.26222 0.74363 0.25607 0.0
C4064 C 0.27994 0.75391 0.26143 0.0
C4065 C 0.2571 0.72371 0.25438 0.0
C4066 C 0.26951 0.71365 0.25851 0.0
C4067 C 0.28739 0.72391 0.26334 0.0
C4068 C 0.2926 0.74386 0.26459 0.0
C4069 C 0.26302 0.69309 0.25992 0.0
C4070 C 0.24916 0.68818 0.27096 0.0
C4071 C 0.26954 0.67825 0.25019 0.0
C4072 C 0.28467 0.68173 0.23913 0.0
C4073 C 0.30175 0.68345 0.24746 0.0
C4074 C 0.3157 0.6832 0.23651 0.0
C4075 C 0.31257 0.68066 0.21717 0.0
C4076 C 0.29558 0.67892 0.20878 0.0
C4077 C 0.28166 0.67953 0.21972 0.0
H4078 H 0.32331 0.68011 0.20867 0.0
H4079 H 0.19058 0.65357 0.31736 0.0
H4080 H 0.5632 0.75152 0.4862 0.0
H4081 H 0.56431 0.72308 0.49882 0.0
H4082 H 0.53175 0.6869 0.44982 0.0
H4083 H 0.52961 0.71551 0.43789 0.0
H4084 H 0.52241 0.66985 0.47465 0.0
H4085 H 0.58118 0.69544 0.46123 0.0
H4086 H 0.60963 0.71943 0.46187 0.0
H4087 H 0.61859 0.72556 0.52125 0.0
H4088 H 0.59008 0.70177 0.521 0.0
H4089 H 0.5522 0.586 0.48831 0.0
H4090 H 0.55187 0.6155 0.47679 0.0
H4091 H 0.55363 0.64572 0.53315 0.0
H4092 H 0.55325 0.61599 0.54462 0.0
H4093 H 0.57908 0.66483 0.50459 0.0
H4094 H 0.51785 0.63689 0.51503 0.0
H4095 H 0.49113 0.60972 0.51063 0.0
H4096 H 0.48919 0.60494 0.45129 0.0
H4097 H 0.5161 0.6319 0.45535 0.0
C4098 C 0.55618 0.73751 0.47814 0.0
C4099 C 0.54632 0.73597 0.46095 0.0
C4100 C 0.55699 0.72106 0.4853 0.0
C4101 C 0.54857 0.70236 0.47521 0.0
C4102 C 0.53849 0.70089 0.45811 0.0
C4103 C 0.53727 0.71738 0.4512 0.0
C4104 C 0.5501 0.68448 0.48243 0.0
C4105 C 0.53494 0.6689 0.48098 0.0
C4106 C 0.5663 0.68261 0.49087 0.0
C4107 C 0.5834 0.69699 0.49111 0.0
C4108 C 0.58916 0.70202 0.47444 0.0
C4109 C 0.6053 0.71556 0.47473 0.0
C4110 C 0.61588 0.72406 0.4916 0.0
C4111 C 0.61036 0.719 0.5082 0.0
C4112 C 0.59422 0.70548 0.50799 0.0
C4113 C 0.55278 0.59902 0.49826 0.0
C4114 C 0.55318 0.59874 0.51745 0.0
C4115 C 0.55253 0.61589 0.49165 0.0
C4116 C 0.55278 0.633 0.50404 0.0
C4117 C 0.55352 0.63282 0.52325 0.0
C4118 C 0.55334 0.61582 0.52983 0.0
C4119 C 0.55148 0.65073 0.49688 0.0
C4120 C 0.56665 0.66609 0.49828 0.0
C4121 C 0.53548 0.65217 0.48789 0.0
C4122 C 0.51909 0.63627 0.48549 0.0
C4123 C 0.51181 0.62994 0.50104 0.0
C4124 C 0.49662 0.61459 0.49861 0.0
C4125 C 0.48849 0.60556 0.48069 0.0
C4126 C 0.49551 0.61193 0.46517 0.0
C4127 C 0.51073 0.62725 0.46752 0.0
H4128 H 0.47674 0.59367 0.47883 0.0
H4129 H 0.62838 0.73454 0.49179 0.0
H4130 H 0.66145 0.33718 0.63711 0.0
H4131 H 0.68872 0.33457 0.65345 0.0
H4132 H 0.66171 0.32623 0.70197 0.0
H4133 H 0.63443 0.32877 0.68576 0.0
H4134 H 0.69555 0.34976 0.7118 0.0
H4135 H 0.66804 0.28819 0.67189 0.0
H4136 H 0.65541 0.26639 0.64189 0.0
H4137 H 0.70495 0.28356 0.6195 0.0
H4138 H 0.7178 0.30567 0.64931 0.0
H4139 H 0.7518 0.30762 0.76038 0.0
H4140 H 0.72712 0.31475 0.7436 0.0
H4141 H 0.75551 0.31639 0.6951 0.0
H4142 H 0.78033 0.30934 0.71199 0.0
H4143 H 0.72224 0.29798 0.68431 0.0
H4144 H 0.75073 0.3579 0.72383 0.0
H4145 H 0.76403 0.38046 0.75322 0.0
H4146 H 0.71399 0.36806 0.77554 0.0
H4147 H 0.70044 0.34513 0.74641 0.0
C4148 C 0.66134 0.33508 0.65136 0.0
C4149 C 0.64558 0.33318 0.66003 0.0
C4150 C 0.67697 0.33344 0.66067 0.0
C4151 C 0.67735 0.32993 0.67895 0.0
C4152 C 0.66187 0.32888 0.6879 0.0
C4153 C 0.64621 0.33034 0.67856 0.0
C4154 C 0.69357 0.32664 0.68851 0.0
C4155 C 0.70125 0.3383 0.70586 0.0
C4156 C 0.7015 0.31208 0.68064 0.0
C4157 C 0.69382 0.29873 0.66276 0.0
C4158 C 0.67619 0.28743 0.66052 0.0
C4159 C 0.669 0.27499 0.64356 0.0
C4160 C 0.67935 0.27363 0.62878 0.0
C4161 C 0.69694 0.28466 0.63095 0.0
C4162 C 0.70418 0.29713 0.64788 0.0
C4163 C 0.75301 0.30994 0.74632 0.0
C4164 C 0.76831 0.30836 0.73778 0.0
C4165 C 0.73877 0.31391 0.73661 0.0
C4166 C 0.7394 0.31653 0.71807 0.0
C4167 C 0.75456 0.31455 0.70937 0.0
C4168 C 0.7688 0.31051 0.71908 0.0
C4169 C 0.72416 0.32097 0.70776 0.0
C4170 C 0.71664 0.30953 0.69025 0.0
C4171 C 0.71651 0.33588 0.71541 0.0
C4172 C 0.7246 0.34967 0.73297 0.0
C4173 C 0.74258 0.35987 0.73505 0.0
C4174 C 0.75016 0.37275 0.75165 0.0
C4175 C 0.73985 0.37571 0.76622 0.0
C4176 C 0.72195 0.36577 0.76423 0.0
C4177 C 0.71431 0.35283 0.74768 0.0
H4178 H 0.74575 0.38569 0.77906 0.0
H4179 H 0.67376 0.264 0.61566 0.0
H4180 H 0.01971 0.33273 0.9837 0.0
H4181 H 0.02569 0.36752 0.99399 0.0
H4182 H 0.05237 0.37596 0.9452 0.0
H4183 H 0.04715 0.34117 0.93537 0.0
H4184 H 0.06938 0.40258 0.9714 0.0
H4185 H 0.00743 0.37978 0.95118 0.0
H4186 H 0.97669 0.3602 0.94982 0.0
H4187 H 0.97558 0.38343 0.00762 0.0
H4188 H 0.00641 0.40296 0.00939 0.0
H4189 H 0.06105 0.49844 0.97367 0.0
H4190 H 0.05373 0.46322 0.96449 0.0
H4191 H 0.04918 0.45848 0.02183 0.0
H4192 H 0.05718 0.49374 0.03108 0.0
H4193 H 0.02055 0.43077 0.99147 0.0
H4194 H 0.08378 0.45376 0.01021 0.0
H4195 H 0.11349 0.47472 0.00913 0.0
H4196 H 0.1107 0.45181 0.95062 0.0
H4197 H 0.0808 0.43096 0.95129 0.0
C4198 C 0.02701 0.34199 0.97524 0.0
C4199 C 0.03291 0.33402 0.95867 0.0
C4200 C 0.03028 0.36199 0.98105 0.0
C4201 C 0.03913 0.37469 0.97021 0.0
C4202 C 0.04546 0.36672 0.9539 0.0
C4203 C 0.04246 0.34671 0.94826 0.0
C4204 C 0.04172 0.39613 0.97577 0.0
C4205 C 0.05856 0.40859 0.97556 0.0
C4206 C 0.02781 0.40443 0.98146 0.0
C4207 C 0.0093 0.39266 0.98047 0.0
C4208 C 1.00068 0.38059 0.96364 0.0
C4209 C 0.98323 0.36952 0.96279 0.0
C4210 C 0.9742 0.37052 0.97864 0.0
C4211 C 0.9826 0.38263 0.99536 0.0
C4212 C 1.00005 0.39371 0.9963 0.0
C4213 C 0.05802 0.48983 0.98422 0.0
C4214 C 0.05899 0.49878 1.003 0.0
C4215 C 0.05396 0.46972 0.97899 0.0
C4216 C 0.05079 0.45812 0.99243 0.0
C4217 C 0.05139 0.46706 0.01117 0.0
C4218 C 0.05586 0.48719 0.01644 0.0
C4219 C 0.04807 0.43684 0.98709 0.0
C4220 C 0.03126 0.42454 0.98732 0.0
C4221 C 0.06188 0.42871 0.98111 0.0
C4222 C 0.07998 0.44095 0.98075 0.0
C4223 C 0.08943 0.45331 0.99707 0.0
C4224 C 0.10632 0.46516 0.99655 0.0
C4225 C 0.11396 0.46464 0.9798 0.0
C4226 C 0.10475 0.45222 0.96357 0.0
C4227 C 0.08784 0.44038 0.96402 0.0
H4228 H 0.12703 0.47382 0.97942 0.0
H4229 H 0.96069 0.36195 0.97795 0.0
H4230 H 0.04924 0.80366 0.18333 0.0
H4231 H 0.02294 0.80347 0.19946 0.0
H4232 H 0.9998 0.82412 0.15497 0.0
H4233 H 0.02672 0.82533 0.13922 0.0
H4234 H 0.99062 0.84003 0.18519 0.0
H4235 H 0.98736 0.77487 0.16036 0.0
H4236 H 0.99738 0.7453 0.15355 0.0
H4237 H 1.0038 0.74483 0.21201 0.0
H4238 H 0.99405 0.77456 0.2192 0.0
H4239 H 0.90337 0.80024 0.21919 0.0
H4240 H 0.92719 0.80421 0.19872 0.0
H4241 H 0.96611 0.81627 0.24629 0.0
H4242 H 0.94276 0.81349 0.26687 0.0
H4243 H 0.96408 0.78244 0.21082 0.0
H4244 H 0.96899 0.85099 0.23372 0.0
H4245 H 0.95653 0.87902 0.23795 0.0
H4246 H 0.94339 0.87005 0.17877 0.0
H4247 H 0.95556 0.84177 0.17423 0.0
C4248 C 0.0386 0.80825 0.17699 0.0
C4249 C 0.04005 0.81436 0.1599 0.0
C4250 C 0.02343 0.80798 0.18618 0.0
C4251 C 0.00898 0.81321 0.17826 0.0
C4252 C 0.01061 0.81986 0.1614 0.0
C4253 C 0.02602 0.82053 0.15237 0.0
C4254 C 0.99229 0.8116 0.18763 0.0
C4255 C 0.98473 0.82727 0.19051 0.0
C4256 C 0.98427 0.79497 0.19456 0.0
C4257 C 0.9901 0.77704 0.19032 0.0
C4258 C 0.99101 0.76853 0.17177 0.0
C4259 C 0.99663 0.75173 0.16784 0.0
C4260 C 1.00125 0.74321 0.18234 0.0
C4261 C 1.00023 0.75146 0.2008 0.0
C4262 C 0.99463 0.76827 0.20481 0.0
C4263 C 0.917 0.80416 0.22538 0.0
C4264 C 0.92099 0.80619 0.24477 0.0
C4265 C 0.9306 0.8063 0.21361 0.0
C4266 C 0.94842 0.81039 0.22098 0.0
C4267 C 0.95245 0.81297 0.24029 0.0
C4268 C 0.93899 0.81118 0.25203 0.0
C4269 C 0.96294 0.81098 0.20872 0.0
C4270 C 0.96998 0.79505 0.20528 0.0
C4271 C 0.97017 0.82713 0.20092 0.0
C4272 C 0.96294 0.84413 0.20367 0.0
C4273 C 0.96326 0.85486 0.22163 0.0
C4274 C 0.9563 0.87083 0.22408 0.0
C4275 C 0.94911 0.87627 0.20864 0.0
C4276 C 0.94893 0.8658 0.19072 0.0
C4277 C 0.95585 0.84981 0.1882 0.0
H4278 H 0.94374 0.88864 0.21056 0.0
H4279 H 0.0056 0.73021 0.17927 0.0
H4280 H 0.51438 0.28103 0.0897 0.0
H4281 H 0.51638 0.30399 0.06905 0.0
H4282 H 0.51179 0.34752 0.11511 0.0
H4283 H 0.50872 0.3241 0.13564 0.0
H4284 H 0.496 0.35271 0.08501 0.0
H4285 H 0.55291 0.34355 0.10067 0.0
H4286 H 0.57513 0.32542 0.10413 0.0
H4287 H 0.56782 0.30359 0.04508 0.0
H4288 H 0.54537 0.3214 0.0413 0.0
H4289 H 0.54978 0.43244 0.05102 0.0
H4290 H 0.53864 0.40758 0.06863 0.0
H4291 H 0.52368 0.36524 0.01764 0.0
H4292 H 0.53369 0.3902 0.99961 0.0
H4293 H 0.54815 0.35938 0.04915 0.0
H4294 H 0.49185 0.37233 0.03488 0.0
H4295 H 0.47167 0.39319 0.03367 0.0
H4296 H 0.48087 0.41159 0.09317 0.0
H4297 H 0.5013 0.39103 0.09472 0.0
C4298 C 0.51354 0.29543 0.09535 0.0
C4299 C 0.51161 0.30091 0.11428 0.0
C4300 C 0.51478 0.30858 0.08357 0.0
C4301 C 0.5148 0.32768 0.09062 0.0
C4302 C 0.51194 0.33291 0.10936 0.0
C4303 C 0.51022 0.31956 0.12109 0.0
C4304 C 0.51883 0.34231 0.0787 0.0
C4305 C 0.50749 0.35425 0.07731 0.0
C4306 C 0.53379 0.34434 0.06852 0.0
C4307 C 0.54733 0.33365 0.07073 0.0
C4308 C 0.55595 0.33478 0.08844 0.0
C4309 C 0.5686 0.32457 0.09046 0.0
C4310 C 0.57285 0.31332 0.07484 0.0
C4311 C 0.56449 0.31229 0.05717 0.0
C4312 C 0.55181 0.32244 0.05508 0.0
C4313 C 0.54367 0.41799 0.04339 0.0
C4314 C 0.5426 0.41345 0.02377 0.0
C4315 C 0.53742 0.40378 0.05355 0.0
C4316 C 0.53026 0.38469 0.04439 0.0
C4317 C 0.52913 0.37997 0.0249 0.0
C4318 C 0.53505 0.39425 0.01466 0.0
C4319 C 0.52525 0.3695 0.05536 0.0
C4320 C 0.53656 0.35762 0.05671 0.0
C4321 C 0.51056 0.36791 0.0658 0.0
C4322 C 0.49827 0.38028 0.06489 0.0
C4323 C 0.48972 0.38097 0.04769 0.0
C4324 C 0.47819 0.3927 0.04695 0.0
C4325 C 0.47503 0.40375 0.06332 0.0
C4326 C 0.48335 0.40304 0.08049 0.0
C4327 C 0.49489 0.39133 0.08131 0.0
H4328 H 0.46612 0.41284 0.06272 0.0
H4329 H 0.58265 0.30543 0.07643 0.0
H4330 H 0.03986 0.28299 0.32356 0.0
H4331 H 0.01427 0.28923 0.30725 0.0
H4332 H 0.01219 0.33237 0.35481 0.0
H4333 H 0.03718 0.32594 0.37124 0.0
H4334 H 0.98022 0.31186 0.34217 0.0
H4335 H 0.03133 0.34366 0.31518 0.0
H4336 H 0.05811 0.34544 0.29885 0.0
H4337 H 0.0273 0.30538 0.25134 0.0
H4338 H 1.00035 0.30319 0.2675 0.0
H4339 H 0.93631 0.37324 0.30733 0.0
H4340 H 0.96149 0.36182 0.31752 0.0
H4341 H 0.94522 0.31229 0.27269 0.0
H4342 H 0.91983 0.3235 0.26263 0.0
H4343 H 0.98457 0.33206 0.28112 0.0
H4344 H 0.93267 0.30322 0.30861 0.0
H4345 H 0.90651 0.30408 0.32546 0.0
H4346 H 0.93994 0.34105 0.37307 0.0
H4347 H 0.96629 0.34078 0.35635 0.0
C4348 C 0.03384 0.29368 0.33056 0.0
C4349 C 0.0406 0.30398 0.34868 0.0
C4350 C 0.01928 0.2973 0.3212 0.0
C4351 C 0.01143 0.31142 0.32975 0.0
C4352 C 0.01798 0.32139 0.34794 0.0
C4353 C 0.03235 0.3177 0.35731 0.0
C4354 C 0.99657 0.31627 0.31989 0.0
C4355 C 0.98125 0.31633 0.32886 0.0
C4356 C 0.99772 0.32178 0.30234 0.0
C4357 C 0.01388 0.32308 0.29262 0.0
C4358 C 0.0303 0.33511 0.30131 0.0
C4359 C 0.0455 0.33622 0.29207 0.0
C4360 C 0.04442 0.32548 0.27409 0.0
C4361 C 0.02812 0.31366 0.26528 0.0
C4362 C 0.01288 0.31248 0.27447 0.0
C4363 C 0.93838 0.36018 0.29941 0.0
C4364 C 0.92621 0.3492 0.28426 0.0
C4365 C 0.95267 0.35364 0.30526 0.0
C4366 C 0.95506 0.33619 0.29588 0.0
C4367 C 0.94355 0.3258 0.28004 0.0
C4368 C 0.92909 0.33217 0.27437 0.0
C4369 C 0.96862 0.32804 0.30368 0.0
C4370 C 0.98356 0.32733 0.29431 0.0
C4371 C 0.96726 0.32214 0.32098 0.0
C4372 C 0.95145 0.32212 0.33115 0.0
C4373 C 0.93444 0.31168 0.32261 0.0
C4374 C 0.91957 0.31203 0.33214 0.0
C4375 C 0.92156 0.32261 0.35031 0.0
C4376 C 0.93842 0.33287 0.35899 0.0
C4377 C 0.95333 0.33262 0.34949 0.0
H4378 H 0.91004 0.32282 0.35768 0.0
H4379 H 0.0562 0.32636 0.26697 0.0
H4380 H 0.99637 0.69718 0.66454 0.0
H4381 H 0.99474 0.6643 0.6491 0.0
H4382 H 0.01835 0.68536 0.60269 0.0
H4383 H 0.01975 0.71813 0.61777 0.0
H4384 H 0.99408 0.64922 0.59208 0.0
H4385 H 0.04561 0.68211 0.64002 0.0
H4386 H 0.05551 0.69913 0.67255 0.0
H4387 H 0.02532 0.6506 0.6923 0.0
H4388 H 0.01528 0.63325 0.65983 0.0
H4389 H 0.05349 0.60232 0.55322 0.0
H4390 H 0.04049 0.62593 0.57093 0.0
H4391 H 0.02531 0.58857 0.60983 0.0
H4392 H 0.03792 0.56466 0.59174 0.0
H4393 H 0.03807 0.6265 0.62742 0.0
H4394 H 0.99664 0.58956 0.57796 0.0
H4395 H 0.98429 0.57313 0.546 0.0
H4396 H 0.99026 0.62748 0.52946 0.0
H4397 H 1.0041 0.64432 0.56097 0.0
C4398 C 1.00074 0.69478 0.6508 0.0
C4399 C 0.0086 0.71032 0.64257 0.0
C4400 C 0.9998 0.67597 0.64202 0.0
C4401 C 0.0068 0.67249 0.62498 0.0
C4402 C 0.01296 0.68777 0.6159 0.0
C4403 C 0.01385 0.70653 0.62461 0.0
C4404 C 0.01045 0.65383 0.6179 0.0
C4405 C 1.00366 0.64415 0.59971 0.0
C4406 C 0.02237 0.64684 0.62827 0.0
C4407 C 0.02972 0.65644 0.6476 0.0
C4408 C 0.04127 0.67501 0.65133 0.0
C4409 C 0.04686 0.6847 0.66973 0.0
C4410 C 0.04106 0.67589 0.68447 0.0
C4411 C 0.02987 0.65729 0.68084 0.0
C4412 C 0.02426 0.64751 0.66246 0.0
C4413 C 0.04737 0.59916 0.56551 0.0
C4414 C 0.0466 0.58168 0.57107 0.0
C4415 C 0.04003 0.61266 0.57567 0.0
C4416 C 0.03169 0.60883 0.5915 0.0
C4417 C 0.03168 0.59176 0.59764 0.0
C4418 C 0.03903 0.57822 0.58741 0.0
C4419 C 0.02248 0.62247 0.60106 0.0
C4420 C 0.02818 0.63116 0.61978 0.0
C4421 C 0.00936 0.62834 0.59117 0.0
C4422 C 1.00149 0.61827 0.57195 0.0
C4423 C 0.99566 0.59807 0.56748 0.0
C4424 C 0.98839 0.58867 0.54941 0.0
C4425 C 0.98614 0.59929 0.53584 0.0
C4426 C 0.99182 0.61931 0.54009 0.0
C4427 C 0.99957 0.62879 0.55801 0.0
H4428 H 0.98001 0.59203 0.522 0.0
H4429 H 0.04514 0.6835 0.6987 0.0
H4430 H 0.64302 0.82537 0.83762 0.0
H4431 H 0.67024 0.82669 0.82311 0.0
H4432 H 0.6889 0.79851 0.86414 0.0
H4433 H 0.66177 0.79772 0.87924 0.0
H4434 H 0.71447 0.82752 0.85952 0.0
H4435 H 0.67402 0.77472 0.8185 0.0
H4436 H 0.64664 0.75707 0.79803 0.0
H4437 H 0.65784 0.79742 0.76164 0.0
H4438 H 0.68518 0.81547 0.78204 0.0
H4439 H 0.78088 0.79898 0.80785 0.0
H4440 H 0.75359 0.79825 0.82242 0.0
H4441 H 0.74361 0.84117 0.79295 0.0
H4442 H 0.77131 0.84224 0.77858 0.0
H4443 H 0.71407 0.80558 0.79151 0.0
H4444 H 0.75639 0.85672 0.83318 0.0
H4445 H 0.78491 0.87101 0.85276 0.0
H4446 H 0.77083 0.82969 0.88778 0.0
H4447 H 0.74231 0.81494 0.86817 0.0
C4448 C 0.6528 0.81924 0.84349 0.0
C4449 C 0.6502 0.81136 0.85956 0.0
C4450 C 0.66836 0.81998 0.83513 0.0
C4451 C 0.68152 0.81248 0.84239 0.0
C4452 C 0.6789 0.80437 0.8583 0.0
C4453 C 0.66337 0.80384 0.86685 0.0
C4454 C 0.69816 0.81366 0.8336 0.0
C4455 C 0.71438 0.82238 0.8447 0.0
C4456 C 0.69805 0.80732 0.81419 0.0
C4457 C 0.68155 0.79657 0.80192 0.0
C4458 C 0.67057 0.77993 0.80623 0.0
C4459 C 0.65507 0.76983 0.79462 0.0
C4460 C 0.65048 0.77615 0.77858 0.0
C4461 C 0.6614 0.79256 0.77409 0.0
C4462 C 0.67691 0.80272 0.78566 0.0
C4463 C 0.77284 0.80815 0.80438 0.0
C4464 C 0.77784 0.82027 0.79173 0.0
C4465 C 0.75734 0.8078 0.81278 0.0
C4466 C 0.74668 0.81961 0.80864 0.0
C4467 C 0.7517 0.83189 0.79615 0.0
C4468 C 0.76742 0.83249 0.788 0.0
C4469 C 0.73022 0.81897 0.81742 0.0
C4470 C 0.71409 0.81047 0.80632 0.0
C4471 C 0.73046 0.82512 0.83682 0.0
C4472 C 0.74732 0.83449 0.84902 0.0
C4473 C 0.75943 0.85054 0.84494 0.0
C4474 C 0.77558 0.85877 0.85607 0.0
C4475 C 0.77971 0.85121 0.87146 0.0
C4476 C 0.76764 0.83548 0.87581 0.0
C4477 C 0.75148 0.82719 0.8647 0.0
H4478 H 0.79223 0.85757 0.88004 0.0
H4479 H 0.63847 0.76831 0.7696 0.0
H4480 H 0.49385 0.5717 0.7344 0.0
H4481 H 0.50816 0.56958 0.70543 0.0
H4482 H 0.46077 0.57316 0.67508 0.0
H4483 H 0.44654 0.57557 0.70397 0.0
H4484 H 0.47369 0.54606 0.65424 0.0
H4485 H 0.49977 0.61149 0.68568 0.0
H4486 H 0.51605 0.63729 0.71171 0.0
H4487 H 0.56125 0.6141 0.70909 0.0
H4488 H 0.54514 0.58799 0.68319 0.0
H4489 H 0.50872 0.55775 0.56772 0.0
H4490 H 0.49534 0.56107 0.59694 0.0
H4491 H 0.54618 0.56929 0.62764 0.0
H4492 H 0.55968 0.56676 0.5983 0.0
H4493 H 0.53167 0.58982 0.64881 0.0
H4494 H 0.50707 0.52457 0.61847 0.0
H4495 H 0.49197 0.49822 0.59235 0.0
H4496 H 0.44527 0.51885 0.59359 0.0
H4497 H 0.4602 0.54553 0.61952 0.0
C4498 C 0.48641 0.57221 0.72166 0.0
C4499 C 0.46884 0.57402 0.72208 0.0
C4500 C 0.49473 0.571 0.70484 0.0
C4501 C 0.48585 0.57127 0.68748 0.0
C4502 C 0.46825 0.57287 0.68789 0.0
C4503 C 0.46005 0.57439 0.7047 0.0
C4504 C 0.49468 0.56986 0.66909 0.0
C4505 C 0.48629 0.55585 0.65313 0.0
C4506 C 0.51148 0.58201 0.6671 0.0
C4507 C 0.52118 0.59768 0.68264 0.0
C4508 C 0.51313 0.6118 0.69076 0.0
C4509 C 0.52234 0.6265 0.70547 0.0
C4510 C 0.53966 0.6273 0.71209 0.0
C4511 C 0.54782 0.61344 0.70397 0.0
C4512 C 0.53866 0.5987 0.68927 0.0
C4513 C 0.51716 0.56021 0.58061 0.0
C4514 C 0.5355 0.5619 0.58013 0.0
C4515 C 0.50935 0.56199 0.59765 0.0
C4516 C 0.51932 0.56496 0.61523 0.0
C4517 C 0.53775 0.56696 0.61474 0.0
C4518 C 0.54562 0.56553 0.59768 0.0
C4519 C 0.5107 0.566 0.63382 0.0
C4520 C 0.51912 0.57994 0.64985 0.0
C4521 C 0.49406 0.55353 0.63598 0.0
C4522 C 0.48482 0.53715 0.62083 0.0
C4523 C 0.4936 0.52352 0.61314 0.0
C4524 C 0.48508 0.50854 0.59835 0.0
C4525 C 0.46769 0.5069 0.59128 0.0
C4526 C 0.45875 0.52016 0.59906 0.0
C4527 C 0.46723 0.53521 0.61381 0.0
H4528 H 0.46113 0.49533 0.5798 0.0
H4529 H 0.54677 0.63869 0.72347 0.0
H4530 H 0.78813 0.20138 0.97253 0.0
H4531 H 0.78881 0.21005 0.94209 0.0
H4532 H 0.81917 0.16967 0.92464 0.0
H4533 H 0.81843 0.16061 0.95541 0.0
H4534 H 0.83216 0.20669 0.91582 0.0
H4535 H 0.77924 0.15695 0.90605 0.0
H4536 H 0.75068 0.13807 0.91328 0.0
H4537 H 0.72896 0.18646 0.9141 0.0
H4538 H 0.75747 0.20575 0.90716 0.0
H4539 H 0.77603 0.23235 0.83377 0.0
H4540 H 0.78557 0.20871 0.84879 0.0
H4541 H 0.81816 0.25458 0.8913 0.0
H4542 H 0.80892 0.27817 0.87593 0.0
H4543 H 0.77568 0.20404 0.87982 0.0
H4544 H 0.84602 0.24465 0.9149 0.0
H4545 H 0.87695 0.25654 0.9085 0.0
H4546 H 0.86533 0.21946 0.85457 0.0
H4547 H 0.83416 0.20764 0.86048 0.0
C4548 C 0.79502 0.19431 0.96231 0.0
C4549 C 0.80322 0.18028 0.96637 0.0
C4550 C 0.79528 0.19922 0.94487 0.0
C4551 C 0.80378 0.19026 0.93109 0.0
C4552 C 0.81241 0.17658 0.93512 0.0
C4553 C 0.81201 0.17148 0.95265 0.0
C4554 C 0.80381 0.19595 0.91278 0.0
C4555 C 0.81987 0.20594 0.9077 0.0
C4556 C 0.7878 0.19434 0.90195 0.0
C4557 C 0.77055 0.18282 0.90611 0.0
C4558 C 0.76841 0.16362 0.90789 0.0
C4559 C 0.75222 0.15283 0.91192 0.0
C4560 C 0.73802 0.16106 0.91415 0.0
C4561 C 0.73997 0.1801 0.91234 0.0
C4562 C 0.75614 0.19096 0.90832 0.0
C4563 C 0.7858 0.23733 0.8459 0.0
C4564 C 0.79184 0.25697 0.85374 0.0
C4565 C 0.79126 0.22386 0.85447 0.0
C4566 C 0.80279 0.22981 0.8711 0.0
C4567 C 0.80974 0.24958 0.87819 0.0
C4568 C 0.80436 0.26308 0.86952 0.0
C4569 C 0.80408 0.21586 0.88321 0.0
C4570 C 0.78813 0.20439 0.88737 0.0
C4571 C 0.82023 0.21587 0.89297 0.0
C4572 C 0.83776 0.22547 0.88803 0.0
C4573 C 0.84999 0.23934 0.90152 0.0
C4574 C 0.86756 0.24596 0.89803 0.0
C4575 C 0.87309 0.23862 0.88118 0.0
C4576 C 0.86094 0.2251 0.86757 0.0
C4577 C 0.84328 0.21863 0.87088 0.0
H4578 H 0.88677 0.24352 0.87861 0.0
H4579 H 0.72549 0.15268 0.91726 0.0
H4580 H 0.17343 0.51562 0.17599 0.0
H4581 H 0.15441 0.51418 0.14785 0.0
H4582 H 0.11174 0.52046 0.18082 0.0
H4583 H 0.13052 0.52159 0.20901 0.0
H4584 H 0.09929 0.49745 0.14596 0.0
H4585 H 0.13801 0.55936 0.1724 0.0
H4586 H 0.16657 0.5826 0.18511 0.0
H4587 H 0.18723 0.57019 0.13276 0.0
H4588 H 0.15885 0.54661 0.11983 0.0
H4589 H 0.06086 0.54697 0.08198 0.0
H4590 H 0.07312 0.53874 0.11025 0.0
H4591 H 0.1145 0.52248 0.08036 0.0
H4592 H 0.10177 0.52956 0.05214 0.0
H4593 H 0.12581 0.55107 0.11492 0.0
H4594 H 0.08558 0.48897 0.08871 0.0
H4595 H 0.05599 0.46765 0.07653 0.0
H4596 H 0.03694 0.48261 0.12933 0.0
H4597 H 0.06635 0.50435 0.14171 0.0
C4598 C 0.15988 0.51621 0.17723 0.0
C4599 C 0.15362 0.51912 0.19478 0.0
C4600 C 0.14902 0.51539 0.16114 0.0
C4601 C 0.13181 0.51763 0.16235 0.0
C4602 C 0.12501 0.51881 0.17962 0.0
C4603 C 0.13583 0.51956 0.19572 0.0
C4604 C 0.12191 0.52129 0.14616 0.0
C4605 C 0.105 0.50925 0.13925 0.0
C4606 C 0.12932 0.53681 0.13754 0.0
C4607 C 0.14637 0.55107 0.14522 0.0
C4608 C 0.14869 0.56147 0.16365 0.0
C4609 C 0.16484 0.57472 0.17089 0.0
C4610 C 0.17872 0.57783 0.15977 0.0
C4611 C 0.17647 0.56773 0.14137 0.0
C4612 C 0.16035 0.55443 0.13407 0.0
C4613 C 0.0724 0.54138 0.08147 0.0
C4614 C 0.0808 0.53951 0.06513 0.0
C4615 C 0.07939 0.53675 0.09755 0.0
C4616 C 0.09481 0.53026 0.09734 0.0
C4617 C 0.10276 0.52777 0.08083 0.0
C4618 C 0.09567 0.53212 0.06482 0.0
C4619 C 0.10344 0.52697 0.11443 0.0
C4620 C 0.12011 0.53925 0.12162 0.0
C4621 C 0.09567 0.51187 0.12335 0.0
C4622 C 0.07811 0.49846 0.11607 0.0
C4623 C 0.07504 0.48785 0.09768 0.0
C4624 C 0.05831 0.47567 0.09074 0.0
C4625 C 0.04457 0.47382 0.10213 0.0
C4626 C 0.04758 0.48409 0.12051 0.0
C4627 C 0.06428 0.49634 0.12749 0.0
H4628 H 0.03162 0.4644 0.09673 0.0
H4629 H 0.19122 0.5881 0.1654 0.0
H4630 H 0.81287 0.84058 0.48507 0.0
H4631 H 0.81166 0.82806 0.45171 0.0
H4632 H 0.79519 0.87698 0.43956 0.0
H4633 H 0.79568 0.88914 0.47297 0.0
H4634 H 0.77857 0.84761 0.41475 0.0
H4635 H 0.83956 0.87283 0.43869 0.0
H4636 H 0.86683 0.87692 0.45934 0.0
H4637 H 0.86475 0.8174 0.44093 0.0
H4638 H 0.83731 0.81289 0.42035 0.0
H4639 H 0.80406 0.83991 0.3224 0.0
H4640 H 0.80546 0.85181 0.35611 0.0
H4641 H 0.80617 0.79579 0.36608 0.0
H4642 H 0.80429 0.78376 0.3323 0.0
H4643 H 0.83114 0.82886 0.39142 0.0
H4644 H 0.76944 0.80507 0.36657 0.0
H4645 H 0.74345 0.80324 0.34493 0.0
H4646 H 0.74859 0.86331 0.36435 0.0
H4647 H 0.77483 0.86559 0.38587 0.0
C4648 C 0.80877 0.84856 0.4753 0.0
C4649 C 0.80443 0.86592 0.48174 0.0
C4650 C 0.80824 0.84147 0.45617 0.0
C4651 C 0.8038 0.85178 0.44296 0.0
C4652 C 0.79877 0.86874 0.44936 0.0
C4653 C 0.79903 0.87569 0.46851 0.0
C4654 C 0.80474 0.84511 0.42258 0.0
C4655 C 0.79019 0.84375 0.40972 0.0
C4656 C 0.81978 0.83983 0.41577 0.0
C4657 C 0.83627 0.84248 0.42813 0.0
C4658 C 0.84484 0.86058 0.43916 0.0
C4659 C 0.86034 0.86298 0.45083 0.0
C4660 C 0.86749 0.84742 0.45149 0.0
C4661 C 0.85918 0.82944 0.44043 0.0
C4662 C 0.84366 0.82695 0.42875 0.0
C4663 C 0.80495 0.83031 0.33186 0.0
C4664 C 0.80461 0.81109 0.32488 0.0
C4665 C 0.80561 0.83706 0.35107 0.0
C4666 C 0.8059 0.82468 0.36362 0.0
C4667 C 0.80605 0.8056 0.35667 0.0
C4668 C 0.80504 0.79876 0.33743 0.0
C4669 C 0.80502 0.83136 0.38385 0.0
C4670 C 0.81958 0.83273 0.39659 0.0
C4671 C 0.79013 0.83696 0.3905 0.0
C4672 C 0.77422 0.83554 0.37771 0.0
C4673 C 0.76514 0.81793 0.36611 0.0
C4674 C 0.75034 0.8168 0.35388 0.0
C4675 C 0.74439 0.83315 0.35324 0.0
C4676 C 0.75322 0.85066 0.36485 0.0
C4677 C 0.76806 0.85188 0.37707 0.0
H4678 H 0.73292 0.83225 0.3438 0.0
H4679 H 0.87949 0.84931 0.46053 0.0
H4680 H 0.48811 0.53426 0.8198 0.0
H4681 H 0.50091 0.53093 0.85001 0.0
H4682 H 0.49211 0.58481 0.87576 0.0
H4683 H 0.47938 0.58822 0.84545 0.0
H4684 H 0.52253 0.58331 0.89219 0.0
H4685 H 0.46532 0.53822 0.88018 0.0
H4686 H 0.44152 0.51106 0.86244 0.0
H4687 H 0.47569 0.47357 0.86332 0.0
H4688 H 0.49978 0.50057 0.88087 0.0
H4689 H 0.51026 0.53964 0.98214 0.0
H4690 H 0.50007 0.54184 0.95057 0.0
H4691 H 0.55393 0.55426 0.93722 0.0
H4692 H 0.56417 0.55144 0.96897 0.0
H4693 H 0.50115 0.52275 0.91489 0.0
H4694 H 0.55672 0.58794 0.90614 0.0
H4695 H 0.57802 0.61629 0.92567 0.0
H4696 H 0.5435 0.61521 0.96896 0.0
H4697 H 0.5219 0.58704 0.9496 0.0
C4698 C 0.48892 0.54553 0.83181 0.0
C4699 C 0.4825 0.56156 0.82971 0.0
C4700 C 0.49623 0.54353 0.84937 0.0
C4701 C 0.49752 0.55743 0.86585 0.0
C4702 C 0.49148 0.57368 0.86368 0.0
C4703 C 0.48407 0.57563 0.84612 0.0
C4704 C 0.50478 0.55489 0.88513 0.0
C4705 C 0.51786 0.56992 0.89691 0.0
C4706 C 0.49885 0.5377 0.89216 0.0
C4707 C 0.4844 0.52146 0.88166 0.0
C4708 C 0.46779 0.52421 0.87647 0.0
C4709 C 0.45425 0.50884 0.86647 0.0
C4710 C 0.45711 0.49061 0.86171 0.0
C4711 C 0.47351 0.4877 0.86699 0.0
C4712 C 0.48711 0.50303 0.87697 0.0
C4713 C 0.52002 0.54255 0.97246 0.0
C4714 C 0.53812 0.5451 0.97841 0.0
C4715 C 0.5141 0.54384 0.95419 0.0
C4716 C 0.52601 0.54838 0.94099 0.0
C4717 C 0.5442 0.55084 0.94682 0.0
C4718 C 0.55013 0.54909 0.9651 0.0
C4719 C 0.51924 0.55091 0.92161 0.0
C4720 C 0.50609 0.53597 0.90994 0.0
C4721 C 0.52497 0.56823 0.9148 0.0
C4722 C 0.53781 0.58523 0.92649 0.0
C4723 C 0.55367 0.59377 0.91981 0.0
C4724 C 0.56579 0.60981 0.93085 0.0
C4725 C 0.56214 0.6175 0.94857 0.0
C4726 C 0.54634 0.60919 0.95527 0.0
C4727 C 0.53418 0.59317 0.94427 0.0
H4728 H 0.57153 0.62991 0.95709 0.0
H4729 H 0.44661 0.47873 0.85397 0.0
H4730 H 0.80584 0.17089 0.08748 0.0
H4731 H 0.80722 0.19558 0.11502 0.0
H4732 H 0.8267 0.23975 0.08401 0.0
H4733 H 0.82512 0.21512 0.05614 0.0
H4734 H 0.84209 0.24415 0.12644 0.0
H4735 H 0.78925 0.23532 0.08395 0.0
H4736 H 0.76326 0.21514 0.06263 0.0
H4737 H 0.74291 0.18819 0.10711 0.0
H4738 H 0.76896 0.20799 0.12861 0.0
H4739 H 0.81749 0.31039 0.19755 0.0
H4740 H 0.82046 0.29538 0.16569 0.0
H4741 H 0.78997 0.24074 0.17483 0.0
H4742 H 0.78742 0.25533 0.20656 0.0
H4743 H 0.78135 0.2467 0.14014 0.0
H4744 H 0.83332 0.25133 0.1814 0.0
H4745 H 0.85958 0.26823 0.20381 0.0
H4746 H 0.88175 0.30037 0.16337 0.0
H4747 H 0.85542 0.28389 0.14082 0.0
C4748 C 0.81086 0.18582 0.08658 0.0
C4749 C 0.81515 0.19106 0.06956 0.0
C4750 C 0.81163 0.19989 0.10233 0.0
C4751 C 0.8169 0.21938 0.10138 0.0
C4752 C 0.8226 0.22473 0.08491 0.0
C4753 C 0.82163 0.21065 0.06903 0.0
C4754 C 0.81425 0.2338 0.11691 0.0
C4755 C 0.82889 0.24515 0.12925 0.0
C4756 C 0.79697 0.23467 0.12062 0.0
C4757 C 0.78113 0.22302 0.10783 0.0
C4758 C 0.77931 0.22498 0.08914 0.0
C4759 C 0.76456 0.21363 0.07703 0.0
C4760 C 0.75146 0.20036 0.0835 0.0
C4761 C 0.75307 0.19846 0.10211 0.0
C4762 C 0.76782 0.20976 0.11426 0.0
C4763 C 0.8115 0.29518 0.19278 0.0
C4764 C 0.80289 0.28392 0.20487 0.0
C4765 C 0.81307 0.28668 0.17455 0.0
C4766 C 0.8057 0.26691 0.16809 0.0
C4767 C 0.79585 0.25601 0.17961 0.0
C4768 C 0.79448 0.26441 0.19782 0.0
C4769 C 0.80917 0.25699 0.14991 0.0
C4770 C 0.79464 0.24629 0.13708 0.0
C4771 C 0.82654 0.25656 0.14593 0.0
C4772 C 0.8423 0.26657 0.15951 0.0
C4773 C 0.8437 0.26214 0.17735 0.0
C4774 C 0.85862 0.27161 0.19006 0.0
C4775 C 0.87233 0.28535 0.18501 0.0
C4776 C 0.87113 0.2897 0.16725 0.0
C4777 C 0.8562 0.28033 0.15451 0.0
H4778 H 0.88387 0.29266 0.19487 0.0
H4779 H 0.74005 0.19158 0.0741 0.0
H4780 H 0.13533 0.54803 0.29291 0.0
H4781 H 0.12723 0.55076 0.32462 0.0
H4782 H 0.17199 0.53085 0.34144 0.0
H4783 H 0.18005 0.52769 0.30942 0.0
H4784 H 0.14252 0.51697 0.35899 0.0
H4785 H 0.17696 0.57711 0.35043 0.0
H4786 H 0.18643 0.60422 0.33441 0.0
H4787 H 0.13603 0.61678 0.33902 0.0
H4788 H 0.12615 0.58957 0.35481 0.0
H4789 H 0.1242 0.58964 0.445 0.0
H4790 H 0.1423 0.58186 0.42023 0.0
H4791 H 0.10012 0.53174 0.39524 0.0
H4792 H 0.0823 0.53914 0.4203 0.0
H4793 H 0.13669 0.58188 0.38598 0.0
H4794 H 0.11481 0.49749 0.3698 0.0
H4795 H 0.10799 0.47135 0.38738 0.0
H4796 H 0.13898 0.50891 0.43617 0.0
H4797 H 0.14624 0.53522 0.41884 0.0
C4798 C 0.14333 0.54397 0.30326 0.0
C4799 C 0.15846 0.53792 0.29877 0.0
C4800 C 0.1387 0.54556 0.32138 0.0
C4801 C 0.14926 0.54141 0.3354 0.0
C4802 C 0.16377 0.53423 0.33079 0.0
C4803 C 0.16835 0.53248 0.31254 0.0
C4804 C 0.14561 0.54594 0.35498 0.0
C4805 C 0.14134 0.53115 0.36505 0.0
C4806 C 0.14487 0.56468 0.36309 0.0
C4807 C 0.15079 0.58122 0.35374 0.0
C4808 C 0.16786 0.58558 0.34793 0.0
C4809 C 0.1733 0.60097 0.3389 0.0
C4810 C 0.16183 0.6122 0.33568 0.0
C4811 C 0.1449 0.60807 0.34152 0.0
C4812 C 0.13938 0.59268 0.35055 0.0
C4813 C 0.11889 0.57692 0.43425 0.0
C4814 C 0.10185 0.56503 0.43443 0.0
C4815 C 0.12925 0.57242 0.4202 0.0
C4816 C 0.12266 0.5561 0.40599 0.0
C4817 C 0.10569 0.54412 0.40631 0.0
C4818 C 0.09545 0.54845 0.42052 0.0
C4819 C 0.13262 0.55266 0.38977 0.0
C4820 C 0.13816 0.56773 0.38026 0.0
C4821 C 0.13503 0.53433 0.38255 0.0
C4822 C 0.13101 0.5184 0.39299 0.0
C4823 C 0.1203 0.50016 0.38423 0.0
C4824 C 0.11633 0.4853 0.39417 0.0
C4825 C 0.12304 0.48846 0.41288 0.0
C4826 C 0.13376 0.50648 0.42169 0.0
C4827 C 0.13779 0.52139 0.41181 0.0
H4828 H 0.11996 0.47695 0.42054 0.0
H4829 H 0.16607 0.6241 0.32868 0.0
H4830 H 0.80621 0.91109 0.60743 0.0
H4831 H 0.8048 0.89864 0.63622 0.0
H4832 H 0.79494 0.84098 0.60455 0.0
H4833 H 0.79668 0.85338 0.57549 0.0
H4834 H 0.77257 0.84644 0.63552 0.0
H4835 H 0.83391 0.85939 0.62339 0.0
H4836 H 0.86195 0.87956 0.61637 0.0
H4837 H 0.86402 0.92078 0.66651 0.0
H4838 H 0.83582 0.90097 0.67368 0.0
H4839 H 0.78955 0.80077 0.71009 0.0
H4840 H 0.78739 0.81229 0.68104 0.0
H4841 H 0.81376 0.86997 0.70995 0.0
H4842 H 0.81667 0.85832 0.73895 0.0
H4843 H 0.82724 0.8644 0.67973 0.0
H4844 H 0.76713 0.85337 0.69287 0.0
H4845 H 0.73847 0.83526 0.70066 0.0
H4846 H 0.73283 0.79334 0.65021 0.0
H4847 H 0.76159 0.81106 0.64224 0.0
C4848 C 0.80358 0.89572 0.60647 0.0
C4849 C 0.80159 0.88326 0.58903 0.0
C4850 C 0.80282 0.88863 0.62302 0.0
C4851 C 0.79984 0.86887 0.62261 0.0
C4852 C 0.79724 0.85628 0.60523 0.0
C4853 C 0.79828 0.8634 0.58862 0.0
C4854 C 0.80018 0.86161 0.64039 0.0
C4855 C 0.78456 0.85011 0.6451 0.0
C4856 C 0.81566 0.86693 0.65321 0.0
C4857 C 0.83266 0.87879 0.64897 0.0
C4858 C 0.84026 0.87283 0.63283 0.0
C4859 C 0.8562 0.88419 0.62884 0.0
C4860 C 0.86474 0.90147 0.64096 0.0
C4861 C 0.85738 0.90741 0.65712 0.0
C4862 C 0.84142 0.89611 0.66116 0.0
C4863 C 0.79467 0.81598 0.71038 0.0
C4864 C 0.80323 0.82861 0.72697 0.0
C4865 C 0.79337 0.8226 0.69366 0.0
C4866 C 0.80019 0.84213 0.69313 0.0
C4867 C 0.80839 0.85484 0.70982 0.0
C4868 C 0.80997 0.84816 0.72648 0.0
C4869 C 0.79954 0.84915 0.6751 0.0
C4870 C 0.81515 0.86065 0.67028 0.0
C4871 C 0.78394 0.84411 0.66236 0.0
C4872 C 0.7666 0.83345 0.66705 0.0
C4873 C 0.75984 0.84022 0.6835 0.0
C4874 C 0.74357 0.83003 0.68794 0.0
C4875 C 0.73386 0.81314 0.67596 0.0
C4876 C 0.74038 0.80642 0.65949 0.0
C4877 C 0.75665 0.81654 0.655 0.0
H4878 H 0.72126 0.80527 0.67943 0.0
H4879 H 0.87708 0.91024 0.63785 0.0
H4880 H 0.77521 0.48216 0.5486 0.0
H4881 H 0.7462 0.48859 0.54677 0.0
H4882 H 0.72898 0.44435 0.49733 0.0
H4883 H 0.75809 0.43739 0.49923 0.0
H4884 H 0.71992 0.48715 0.50276 0.0
H4885 H 0.71321 0.42689 0.52434 0.0
H4886 H 0.72315 0.40611 0.54336 0.0
H4887 H 0.72271 0.44659 0.59327 0.0
H4888 H 0.7131 0.46779 0.57451 0.0
H4889 H 0.63392 0.49844 0.52076 0.0
H4890 H 0.65676 0.48279 0.50991 0.0
H4891 H 0.68256 0.49617 0.56616 0.0
H4892 H 0.65967 0.51126 0.57702 0.0
H4893 H 0.68398 0.46241 0.55089 0.0
H4894 H 0.69562 0.52407 0.53183 0.0
H4895 H 0.68829 0.54805 0.51519 0.0
H4896 H 0.68142 0.50828 0.46305 0.0
H4897 H 0.68851 0.48398 0.47944 0.0
C4898 C 0.76544 0.474 0.53709 0.0
C4899 C 0.76891 0.45912 0.52415 0.0
C4900 C 0.74886 0.47772 0.53609 0.0
C4901 C 0.7355 0.46681 0.52204 0.0
C4902 C 0.73921 0.45286 0.50829 0.0
C4903 C 0.75581 0.44894 0.5094 0.0
C4904 C 0.71739 0.46909 0.52311 0.0
C4905 C 0.71173 0.48132 0.51286 0.0
C4906 C 0.70707 0.46185 0.53666 0.0
C4907 C 0.71263 0.44902 0.54799 0.0
C4908 C 0.71542 0.43146 0.53935 0.0
C4909 C 0.72096 0.41958 0.55009 0.0
C4910 C 0.72361 0.42505 0.56951 0.0
C4911 C 0.72068 0.44238 0.57823 0.0
C4912 C 0.71518 0.45433 0.56755 0.0
C4913 C 0.64446 0.49793 0.53076 0.0
C4914 C 0.64511 0.50616 0.5497 0.0
C4915 C 0.65749 0.48901 0.52457 0.0
C4916 C 0.67156 0.48855 0.53717 0.0
C4917 C 0.67185 0.49628 0.55616 0.0
C4918 C 0.65876 0.50493 0.56236 0.0
C4919 C 0.68649 0.48086 0.53081 0.0
C4920 C 0.69169 0.46771 0.54024 0.0
C4921 C 0.69651 0.48753 0.51671 0.0
C4922 C 0.69237 0.50215 0.50687 0.0
C4923 C 0.69242 0.52041 0.51683 0.0
C4924 C 0.68833 0.53406 0.50745 0.0
C4925 C 0.68433 0.52967 0.48808 0.0
C4926 C 0.68448 0.51164 0.47805 0.0
C4927 C 0.68853 0.49793 0.48738 0.0
H4928 H 0.68116 0.54025 0.48084 0.0
H4929 H 0.7279 0.41585 0.5778 0.0
H4930 H 0.23813 0.18274 0.50826 0.0
H4931 H 0.20873 0.16116 0.50778 0.0
H4932 H 0.23014 0.11221 0.49512 0.0
H4933 H 0.25981 0.13374 0.49602 0.0
H4934 H 0.19362 0.11205 0.47379 0.0
H4935 H 0.22595 0.11945 0.53474 0.0
H4936 H 0.24441 0.13887 0.56337 0.0
H4937 H 0.20461 0.16899 0.57525 0.0
H4938 H 0.18603 0.14993 0.54651 0.0
H4939 H 0.11858 0.04453 0.49513 0.0
H4940 H 0.14836 0.06237 0.49102 0.0
H4941 H 0.14135 0.11265 0.52714 0.0
H4942 H 0.11224 0.0945 0.53236 0.0
H4943 H 0.17199 0.11066 0.53585 0.0
H4944 H 0.13951 0.10542 0.47667 0.0
H4945 H 0.12036 0.08856 0.4476 0.0
H4946 H 0.1587 0.05763 0.4315 0.0
H4947 H 0.17798 0.07413 0.4606 0.0
C4948 C 0.23659 0.16739 0.50508 0.0
C4949 C 0.25136 0.15997 0.50225 0.0
C4950 C 0.21977 0.15509 0.50483 0.0
C4951 C 0.21731 0.13513 0.50145 0.0
C4952 C 0.2318 0.12759 0.4977 0.0
C4953 C 0.24873 0.13991 0.49829 0.0
C4954 C 0.19988 0.12238 0.50336 0.0
C4955 C 0.18891 0.11146 0.48734 0.0
C4956 C 0.19364 0.12211 0.521 0.0
C4957 C 0.2047 0.13341 0.53838 0.0
C4958 C 0.22122 0.13033 0.54337 0.0
C4959 C 0.23168 0.14125 0.55963 0.0
C4960 C 0.22571 0.15519 0.5711 0.0
C4961 C 0.20923 0.1582 0.56634 0.0
C4962 C 0.19872 0.14734 0.55008 0.0
C4963 C 0.12346 0.05929 0.50237 0.0
C4964 C 0.11308 0.0679 0.51435 0.0
C4965 C 0.14045 0.06962 0.4998 0.0
C4966 C 0.14718 0.08902 0.50861 0.0
C4967 C 0.13663 0.0977 0.52026 0.0
C4968 C 0.11988 0.08727 0.5232 0.0
C4969 C 0.1653 0.10028 0.5062 0.0
C4970 C 0.17653 0.11103 0.52221 0.0
C4971 C 0.17158 0.10066 0.48848 0.0
C4972 C 0.1601 0.09087 0.47089 0.0
C4973 C 0.1438 0.09493 0.46698 0.0
C4974 C 0.13293 0.08546 0.4505 0.0
C4975 C 0.13828 0.072 0.43774 0.0
C4976 C 0.15455 0.06804 0.44141 0.0
C4977 C 0.16547 0.07746 0.45789 0.0
H4978 H 0.12984 0.06467 0.42499 0.0
H4979 H 0.23384 0.16363 0.58368 0.0
H4980 H 0.22581 0.9666 0.73091 0.0
H4981 H 0.23965 0.93997 0.73117 0.0
H4982 H 0.22662 0.93762 0.78698 0.0
H4983 H 0.21243 0.964 0.78659 0.0
H4984 H 0.25988 0.933 0.7849 0.0
H4985 H 0.20477 0.90192 0.7472 0.0
H4986 H 0.18168 0.89665 0.72101 0.0
H4987 H 0.21932 0.88935 0.68201 0.0
H4988 H 0.2427 0.89483 0.70799 0.0
H4989 H 0.28654 0.84517 0.7892 0.0
H4990 H 0.27342 0.87244 0.79019 0.0
H4991 H 0.27115 0.86479 0.73039 0.0
H4992 H 0.28348 0.83709 0.72954 0.0
H4993 H 0.2448 0.87473 0.735 0.0
H4994 H 0.3007 0.91174 0.77047 0.0
H4995 H 0.32565 0.92349 0.79546 0.0
H4996 H 0.28909 0.92227 0.8368 0.0
H4997 H 0.26394 0.91088 0.81201 0.0
C4998 C 0.22575 0.96047 0.7433 0.0
C4999 C 0.21768 0.96794 0.7587 0.0
C5000 C 0.23374 0.94491 0.74342 0.0
C5001 C 0.2344 0.93602 0.75906 0.0
C5002 C 0.22657 0.94369 0.77456 0.0
C5003 C 0.21828 0.95901 0.77431 0.0
C5004 C 0.2433 0.91918 0.75937 0.0
C5005 C 0.25631 0.92018 0.77402 0.0
C5006 C 0.23951 0.90222 0.74516 0.0
C5007 C 0.22552 0.89898 0.72954 0.0
C5008 C 0.20815 0.89935 0.73304 0.0
C5009 C 0.19501 0.89629 0.71823 0.0
C5010 C 0.19904 0.89272 0.69986 0.0
C5011 C 0.21622 0.89215 0.69625 0.0
C5012 C 0.22942 0.89522 0.71101 0.0
C5013 C 0.28362 0.84951 0.77625 0.0
C5014 C 0.28678 0.83879 0.7593 0.0
C5015 C 0.27602 0.86549 0.77678 0.0
C5016 C 0.2711 0.87177 0.76038 0.0
C5017 C 0.27441 0.86096 0.74351 0.0
C5018 C 0.2818 0.84493 0.74299 0.0
C5019 C 0.26186 0.88856 0.76045 0.0
C5020 C 0.24859 0.88751 0.7459 0.0
C5021 C 0.26565 0.90568 0.77459 0.0
C5022 C 0.28051 0.91023 0.78944 0.0
C5023 C 0.29801 0.91373 0.7849 0.0
C5024 C 0.31217 0.92055 0.79901 0.0
C5025 C 0.30894 0.92375 0.8177 0.0
C5026 C 0.29156 0.91989 0.82232 0.0
C5027 C 0.27736 0.91331 0.80826 0.0
H5028 H 0.31991 0.9291 0.8286 0.0
H5029 H 0.18884 0.89035 0.68842 0.0
H5030 H 0.37409 0.01106 0.04672 0.0
H5031 H 0.40609 0.0202 0.05635 0.0
H5032 H 0.40966 0.96507 0.02713 0.0
H5033 H 0.37794 0.95591 0.0172 0.0
H5034 H 0.42573 0.97676 0.06591 0.0
H5035 H 0.42537 0.99989 0.00736 0.0
H5036 H 0.41655 0.01893 0.98567 0.0
H5037 H 0.43636 0.07047 0.02728 0.0
H5038 H 0.44508 0.05166 0.04927 0.0
H5039 H 0.51665 0.98427 0.0589 0.0
H5040 H 0.48432 0.97869 0.05552 0.0
H5041 H 0.49055 0.03958 0.07294 0.0
H5042 H 0.52239 0.04492 0.07564 0.0
H5043 H 0.46866 0.02798 0.04397 0.0
H5044 H 0.47357 1.00718 0.10046 0.0
H5045 H 0.48306 0.98989 0.12345 0.0
H5046 H 0.45511 0.93596 0.08856 0.0
H5047 H 0.44561 0.9529 0.06522 0.0
C5048 C 0.38174 1.00099 0.04218 0.0
C5049 C 0.37349 0.98278 0.0312 0.0
C5050 C 0.39995 1.00621 0.04772 0.0
C5051 C 0.41008 0.9932 0.04253 0.0
C5052 C 0.40197 0.9752 0.03134 0.0
C5053 C 0.38387 0.97008 0.02559 0.0
C5054 C 0.42916 0.9982 0.04885 0.0
C5055 C 0.43523 0.98776 0.06095 0.0
C5056 C 0.4413 0.01313 0.04302 0.0
C5057 C 0.4357 0.02437 0.02999 0.0
C5058 C 0.42766 0.01525 0.01193 0.0
C5059 C 0.42273 0.02601 0.99957 0.0
C5060 C 0.42585 0.04589 0.00511 0.0
C5061 C 0.43391 0.05506 0.02302 0.0
C5062 C 0.43888 0.04437 0.03542 0.0
C5063 C 0.51099 0.99642 0.06151 0.0
C5064 C 0.52196 0.0152 0.06581 0.0
C5065 C 0.49257 0.99324 0.06 0.0
C5066 C 0.48497 0.0088 0.06366 0.0
C5067 C 0.49605 0.02742 0.0694 0.0
C5068 C 0.51435 0.03052 0.07066 0.0
C5069 C 0.46558 1.00589 0.06029 0.0
C5070 C 0.45933 0.0169 0.04895 0.0
C5071 C 0.45333 0.99165 0.06703 0.0
C5072 C 0.45899 0.98132 0.081 0.0
C5073 C 0.46956 0.99163 0.0976 0.0
C5074 C 0.47492 0.98189 0.11072 0.0
C5075 C 0.46973 0.96185 0.10744 0.0
C5076 C 0.45913 0.95149 0.09107 0.0
C5077 C 0.45372 0.96115 0.0779 0.0
H5078 H 0.4739 0.95434 0.11762 0.0
H5079 H 0.42205 0.0542 0.99551 0.0
H5080 H 0.91849 0.62364 0.78438 0.0
H5081 H 0.90536 0.65067 0.78346 0.0
H5082 H 0.85443 0.61079 0.76358 0.0
H5083 H 0.86745 0.58391 0.76419 0.0
H5084 H 0.88973 0.65623 0.75038 0.0
H5085 H 0.82244 0.63099 0.78009 0.0
H5086 H 0.81121 0.61529 0.80566 0.0
H5087 H 0.863 0.63518 0.83623 0.0
H5088 H 0.8745 0.65124 0.81098 0.0
H5089 H 0.82064 0.68332 0.70637 0.0
H5090 H 0.84055 0.66754 0.7202 0.0
H5091 H 0.83916 0.70112 0.77444 0.0
H5092 H 0.81833 0.71618 0.76086 0.0
H5093 H 0.83533 0.66595 0.77724 0.0
H5094 H 0.87467 0.70875 0.74868 0.0
H5095 H 0.8878 0.72586 0.72471 0.0
H5096 H 0.89362 0.67294 0.69322 0.0
H5097 H 0.8805 0.65565 0.71706 0.0
C5098 C 0.90442 0.62071 0.78025 0.0
C5099 C 0.89398 0.60173 0.77424 0.0
C5100 C 0.89697 0.63612 0.77967 0.0
C5101 C 0.87893 0.63269 0.77351 0.0
C5102 C 0.86833 0.61374 0.76856 0.0
C5103 C 0.8758 0.5984 0.76883 0.0
C5104 C 0.87137 0.64853 0.7701 0.0
C5105 C 0.87793 0.65856 0.75632 0.0
C5106 C 0.85623 0.65174 0.77822 0.0
C5107 C 0.84935 0.64223 0.79356 0.0
C5108 C 0.83142 0.63211 0.7923 0.0
C5109 C 0.82501 0.62312 0.80674 0.0
C5110 C 0.83639 0.6242 0.82254 0.0
C5111 C 0.85421 0.6343 0.82395 0.0
C5112 C 0.86069 0.64332 0.80957 0.0
C5113 C 0.82445 0.6873 0.72126 0.0
C5114 C 0.81776 0.70096 0.73249 0.0
C5115 C 0.83608 0.67845 0.72913 0.0
C5116 C 0.84158 0.68332 0.74834 0.0
C5117 C 0.83518 0.6972 0.75957 0.0
C5118 C 0.82338 0.70592 0.75173 0.0
C5119 C 0.85317 0.67307 0.75677 0.0
C5120 C 0.84731 0.66399 0.77144 0.0
C5121 C 0.86903 0.6708 0.74947 0.0
C5122 C 0.87665 0.68099 0.73479 0.0
C5123 C 0.87878 0.70084 0.73667 0.0
C5124 C 0.8862 0.71055 0.72309 0.0
C5125 C 0.89156 0.70049 0.70744 0.0
C5126 C 0.88949 0.68073 0.70537 0.0
C5127 C 0.8821 0.67099 0.71897 0.0
H5128 H 0.8973 0.708 0.69692 0.0
H5129 H 0.8314 0.61723 0.8337 0.0
H5130 H 0.83173 0.63061 0.02395 0.0
H5131 H 0.85593 0.61519 0.02351 0.0
H5132 H 0.8899 0.664 0.0068 0.0
H5133 H 0.86525 0.67914 0.00636 0.0
H5134 H 0.89736 0.6335 0.9897 0.0
H5135 H 0.89236 0.65638 0.05323 0.0
H5136 H 0.87777 0.66167 0.08183 0.0
H5137 H 0.86245 0.60094 0.08022 0.0
H5138 H 0.87674 0.59525 0.05146 0.0
H5139 H 0.97357 0.60117 0.02289 0.0
H5140 H 0.95274 0.6207 0.01963 0.0
H5141 H 0.9089 0.5707 0.01506 0.0
H5142 H 0.92935 0.55091 0.01725 0.0
H5143 H 0.9097 0.60557 0.04436 0.0
H5144 H 0.91463 0.5844 0.9785 0.0
H5145 H 0.93145 0.58144 0.95128 0.0
H5146 H 0.95022 0.64286 0.95988 0.0
H5147 H 0.9337 0.64616 0.98734 0.0
C5148 C 0.84432 0.63805 0.02009 0.0
C5149 C 0.8466 0.65619 0.01535 0.0
C5150 C 0.85824 0.62926 0.01997 0.0
C5151 C 0.87501 0.6386 0.01565 0.0
C5152 C 0.87718 0.6565 0.01033 0.0
C5153 C 0.86308 0.66517 0.0101 0.0
C5154 C 0.89015 0.62965 0.01697 0.0
C5155 C 0.9002 0.6277 1.00181 0.0
C5156 C 0.89409 0.62206 0.03275 0.0
C5157 C 0.88551 0.62539 0.0501 0.0
C5158 C 0.88578 0.64414 0.0589 0.0
C5159 C 0.87757 0.64721 0.07515 0.0
C5160 C 0.86916 0.63165 0.08281 0.0
C5161 C 0.86897 0.61298 0.07426 0.0
C5162 C 0.87713 0.60983 0.058 0.0
C5163 C 0.95953 0.5942 0.02091 0.0
C5164 C 0.95331 0.5744 0.02085 0.0
C5165 C 0.94763 0.60545 0.01911 0.0
C5166 C 0.92927 0.59718 0.01733 0.0
C5167 C 0.92301 0.57742 0.01667 0.0
C5168 C 0.93483 0.56615 0.01813 0.0
C5169 C 0.9164 0.60903 0.01697 0.0
C5170 C 0.90688 0.61157 0.03237 0.0
C5171 C 0.91328 0.61752 1.00164 0.0
C5172 C 0.92311 0.61552 0.9851 0.0
C5173 C 0.92249 0.59727 0.9747 0.0
C5174 C 0.93194 0.59553 0.9592 0.0
C5175 C 0.94195 0.61195 0.95389 0.0
C5176 C 0.94249 0.63015 0.96403 0.0
C5177 C 0.93308 0.63196 0.97955 0.0
H5178 H 0.94925 0.61058 0.94188 0.0
H5179 H 0.86282 0.63405 0.09539 0.0
H5180 H 0.19425 0.09091 0.78935 0.0
H5181 H 0.21026 0.12395 0.78927 0.0
H5182 H 0.2539 0.10454 0.76764 0.0
H5183 H 0.23769 0.07102 0.76742 0.0
H5184 H 0.26593 0.13893 0.7951 0.0
H5185 H 0.22602 0.11774 0.73909 0.0
H5186 H 0.19724 0.10337 0.72013 0.0
H5187 H 0.17593 0.14702 0.74995 0.0
H5188 H 0.20458 0.1615 0.76935 0.0
H5189 H 0.30863 0.22909 0.77214 0.0
H5190 H 0.29473 0.19544 0.77219 0.0
H5191 H 0.24515 0.20911 0.78134 0.0
H5192 H 0.25905 0.24283 0.78057 0.0
H5193 H 0.2368 0.17686 0.75991 0.0
H5194 H 0.27614 0.1979 0.81659 0.0
H5195 H 0.305 0.21288 0.83546 0.0
H5196 H 0.32708 0.1701 0.80531 0.0
H5197 H 0.29843 0.15504 0.78605 0.0
C5198 C 0.20732 0.09345 0.78468 0.0
C5199 C 0.21447 0.0778 0.77841 0.0
C5200 C 0.21652 0.11261 0.78455 0.0
C5201 C 0.23342 0.1172 0.77829 0.0
C5202 C 0.24094 0.10173 0.77257 0.0
C5203 C 0.23158 0.08239 0.77245 0.0
C5204 C 0.24275 0.13795 0.77731 0.0
C5205 C 0.2596 0.14708 0.78718 0.0
C5206 C 0.23463 0.1492 0.76743 0.0
C5207 C 0.21739 0.14059 0.7558 0.0
C5208 C 0.21516 0.12419 0.74172 0.0
C5209 C 0.19886 0.11603 0.73086 0.0
C5210 C 0.18472 0.12425 0.73384 0.0
C5211 C 0.18688 0.14066 0.74767 0.0
C5212 C 0.20315 0.14885 0.7586 0.0
C5213 C 0.29487 0.22513 0.77451 0.0
C5214 C 0.28526 0.23916 0.77679 0.0
C5215 C 0.28678 0.2056 0.77455 0.0
C5216 C 0.26874 0.19919 0.77733 0.0
C5217 C 0.25904 0.21319 0.77928 0.0
C5218 C 0.26708 0.2327 0.77891 0.0
C5219 C 0.25999 0.17808 0.77787 0.0
C5220 C 0.24319 0.16883 0.76791 0.0
C5221 C 0.26812 0.16681 0.78782 0.0
C5222 C 0.28518 0.17544 0.79977 0.0
C5223 C 0.28717 0.19172 0.81395 0.0
C5224 C 0.30349 0.20024 0.8247 0.0
C5225 C 0.31787 0.19247 0.82155 0.0
C5226 C 0.31593 0.17611 0.80771 0.0
C5227 C 0.29965 0.16757 0.79688 0.0
H5228 H 0.33051 0.19912 0.82985 0.0
H5229 H 0.17211 0.11793 0.72541 0.0
H5230 H 0.36238 0.01283 0.25835 0.0
H5231 H 0.34319 0.98027 0.25513 0.0
H5232 H 0.37162 0.97334 0.30457 0.0
H5233 H 0.39071 1.00576 0.30795 0.0
H5234 H 0.35525 0.94905 0.24846 0.0
H5235 H 0.34532 0.94027 0.32519 0.0
H5236 H 0.33934 0.95908 0.35427 0.0
H5237 H 0.31672 0.99322 0.32294 0.0
H5238 H 0.32228 0.97442 0.29363 0.0
H5239 H 0.35665 0.85953 0.26972 0.0
H5240 H 0.36081 0.89407 0.27154 0.0
H5241 H 0.30419 0.88588 0.26687 0.0
H5242 H 0.29993 0.85115 0.26428 0.0
H5243 H 0.32624 0.91753 0.29725 0.0
H5244 H 0.31858 0.8939 0.23177 0.0
H5245 H 0.32335 0.87481 0.20223 0.0
H5246 H 0.37834 0.9057 0.21002 0.0
H5247 H 0.37398 0.92472 0.23982 0.0
C5248 C 0.36424 1.00457 0.26882 0.0
C5249 C 0.37819 0.01184 0.28331 0.0
C5250 C 0.35329 0.98594 0.26692 0.0
C5251 C 0.35595 0.97437 0.27961 0.0
C5252 C 0.36915 0.98205 0.29473 0.0
C5253 C 0.38015 1.00059 0.29658 0.0
C5254 C 0.34665 0.9536 0.27589 0.0
C5255 C 0.34869 0.94221 0.25905 0.0
C5256 C 0.33785 0.94467 0.28959 0.0
C5257 C 0.33437 0.95601 0.30718 0.0
C5258 C 0.33899 0.95173 0.32447 0.0
C5259 C 0.33569 0.9624 0.34101 0.0
C5260 C 0.3277 0.97737 0.34046 0.0
C5261 C 0.32297 0.98167 0.32335 0.0
C5262 C 0.32623 0.97103 0.30677 0.0
C5263 C 0.34511 0.86513 0.26911 0.0
C5264 C 0.328 0.85282 0.2673 0.0
C5265 C 0.34749 0.88478 0.27014 0.0
C5266 C 0.3328 0.89242 0.26935 0.0
C5267 C 0.31567 0.88019 0.26756 0.0
C5268 C 0.31327 0.86044 0.26619 0.0
C5269 C 0.3356 0.91323 0.27028 0.0
C5270 C 0.33245 0.92452 0.28658 0.0
C5271 C 0.34323 0.92211 0.25604 0.0
C5272 C 0.34597 0.91065 0.23814 0.0
C5273 C 0.33173 0.89649 0.2273 0.0
C5274 C 0.33436 0.8857 0.21048 0.0
C5275 C 0.35114 0.88902 0.20426 0.0
C5276 C 0.36534 0.90314 0.21486 0.0
C5277 C 0.3628 0.91394 0.23172 0.0
H5278 H 0.35314 0.8807 0.19121 0.0
H5279 H 0.32516 0.98562 0.35328 0.0
H5280 H 0.60991 0.37507 0.5726 0.0
H5281 H 0.60344 0.40281 0.56214 0.0
H5282 H 0.57354 0.41159 0.60888 0.0
H5283 H 0.57936 0.38338 0.61883 0.0
H5284 H 0.55627 0.41768 0.58255 0.0
H5285 H 0.61825 0.4408 0.60232 0.0
H5286 H 0.65025 0.44311 0.60389 0.0
H5287 H 0.64992 0.44774 0.54633 0.0
H5288 H 0.61788 0.44507 0.54429 0.0
H5289 H 0.54801 0.51071 0.57182 0.0
H5290 H 0.55351 0.48227 0.58135 0.0
H5291 H 0.58421 0.47437 0.53513 0.0
H5292 H 0.57998 0.50397 0.52678 0.0
H5293 H 0.60095 0.46788 0.56139 0.0
H5294 H 0.53586 0.43535 0.54205 0.0
H5295 H 0.50375 0.43216 0.54296 0.0
H5296 H 0.5117 0.44879 0.60257 0.0
H5297 H 0.5436 0.45087 0.60211 0.0
C5298 C 0.60196 0.38291 0.58069 0.0
C5299 C 0.59517 0.37677 0.59662 0.0
C5300 C 0.59837 0.39903 0.57476 0.0
C5301 C 0.58815 0.4099 0.58474 0.0
C5302 C 0.58142 0.40374 0.60071 0.0
C5303 C 0.58481 0.38748 0.60648 0.0
C5304 C 0.58377 0.42705 0.57829 0.0
C5305 C 0.56622 0.42868 0.57811 0.0
C5306 C 0.5964 0.44163 0.57208 0.0
C5307 C 0.61555 0.4424 0.57309 0.0
C5308 C 0.62493 0.442 0.58992 0.0
C5309 C 0.64311 0.44345 0.5909 0.0
C5310 C 0.65211 0.44549 0.5752 0.0
C5311 C 0.64294 0.44608 0.55847 0.0
C5312 C 0.62476 0.44457 0.55739 0.0
C5313 C 0.55544 0.50251 0.56331 0.0
C5314 C 0.56267 0.50913 0.54785 0.0
C5315 C 0.55852 0.48598 0.56872 0.0
C5316 C 0.56882 0.47523 0.55872 0.0
C5317 C 0.57598 0.48188 0.54312 0.0
C5318 C 0.5732 0.49868 0.53798 0.0
C5319 C 0.5734 0.45822 0.56528 0.0
C5320 C 0.59101 0.4567 0.56559 0.0
C5321 C 0.56095 0.44384 0.57185 0.0
C5322 C 0.54207 0.44362 0.57201 0.0
C5323 C 0.53074 0.43847 0.55531 0.0
C5324 C 0.5126 0.43675 0.55576 0.0
C5325 C 0.50578 0.44067 0.57275 0.0
C5326 C 0.51702 0.44591 0.5894 0.0
C5327 C 0.53507 0.44713 0.58908 0.0
H5328 H 0.49175 0.43947 0.57302 0.0
H5329 H 0.66619 0.44668 0.57602 0.0
H5330 H 0.46561 0.76462 0.38545 0.0
H5331 H 0.43769 0.76426 0.36812 0.0
H5332 H 0.46563 0.80953 0.34216 0.0
H5333 H 0.49349 0.80987 0.35929 0.0
H5334 H 0.41948 0.79011 0.36847 0.0
H5335 H 0.44517 0.80558 0.29854 0.0
H5336 H 0.46803 0.79864 0.27872 0.0
H5337 H 0.46834 0.74903 0.30215 0.0
H5338 H 0.44533 0.75552 0.3219 0.0
H5339 H 0.35389 0.81911 0.31819 0.0
H5340 H 0.38095 0.81634 0.33436 0.0
H5341 H 0.38039 0.76646 0.29288 0.0
H5342 H 0.35364 0.76964 0.27622 0.0
H5343 H 0.41229 0.78562 0.30003 0.0
H5344 H 0.36975 0.76399 0.34104 0.0
H5345 H 0.34569 0.76488 0.36085 0.0
H5346 H 0.37652 0.81848 0.3942 0.0
H5347 H 0.40101 0.8177 0.37466 0.0
C5348 C 0.46585 0.77439 0.37593 0.0
C5349 C 0.48191 0.78722 0.37377 0.0
C5350 C 0.44981 0.77424 0.36606 0.0
C5351 C 0.4494 0.78677 0.35362 0.0
C5352 C 0.46547 0.7995 0.35139 0.0
C5353 C 0.48146 0.79972 0.36129 0.0
C5354 C 0.43221 0.78689 0.34335 0.0
C5355 C 0.41798 0.78917 0.3535 0.0
C5356 C 0.42986 0.78522 0.32372 0.0
C5357 C 0.44367 0.78119 0.31185 0.0
C5358 C 0.45009 0.79317 0.29942 0.0
C5359 C 0.46308 0.78931 0.2882 0.0
C5360 C 0.46968 0.77344 0.28923 0.0
C5361 C 0.46328 0.76137 0.30143 0.0
C5362 C 0.45028 0.76515 0.31266 0.0
C5363 C 0.35947 0.80754 0.31242 0.0
C5364 C 0.35152 0.79477 0.29566 0.0
C5365 C 0.37499 0.80584 0.32186 0.0
C5366 C 0.38286 0.79101 0.31514 0.0
C5367 C 0.37482 0.77812 0.29849 0.0
C5368 C 0.35941 0.77995 0.28891 0.0
C5369 C 0.3996 0.78919 0.32519 0.0
C5370 C 0.41379 0.78664 0.315 0.0
C5371 C 0.40178 0.79009 0.34472 0.0
C5372 C 0.38707 0.79089 0.35628 0.0
C5373 C 0.37132 0.77605 0.3525 0.0
C5374 C 0.3576 0.77655 0.36369 0.0
C5375 C 0.35944 0.79188 0.37865 0.0
C5376 C 0.37508 0.80668 0.38253 0.0
C5377 C 0.38892 0.80616 0.37147 0.0
H5378 H 0.3489 0.79214 0.38746 0.0
H5379 H 0.47973 0.77048 0.28053 0.0
H5380 H 0.06305 0.75022 0.10673 0.0
H5381 H 0.06158 0.71703 0.0932 0.0
H5382 H 0.09414 0.73584 0.05125 0.0
H5383 H 0.096 0.76944 0.06511 0.0
H5384 H 0.04916 0.69333 0.06245 0.0
H5385 H 0.11931 0.70365 0.03858 0.0
H5386 H 0.14904 0.72623 0.04655 0.0
H5387 H 0.13723 0.7428 0.10252 0.0
H5388 H 0.10754 0.72015 0.09496 0.0
H5389 H 0.05431 0.60341 0.01138 0.0
H5390 H 0.05824 0.63827 0.01965 0.0
H5391 H 0.09152 0.64087 0.06955 0.0
H5392 H 0.0874 0.60592 0.06134 0.0
H5393 H 0.10417 0.67258 0.0532 0.0
H5394 H 0.05023 0.63988 0.0731 0.0
H5395 H 0.02113 0.61631 0.06959 0.0
H5396 H 1.00131 0.6436 0.02887 0.0
H5397 H 0.03046 0.66721 0.03192 0.0
C5398 C 0.06983 0.74743 0.09452 0.0
C5399 C 0.07972 0.76275 0.08712 0.0
C5400 C 0.06894 0.72827 0.08672 0.0
C5401 C 0.07792 0.72365 0.07126 0.0
C5402 C 0.0873 0.73885 0.06336 0.0
C5403 C 0.08823 0.75814 0.07121 0.0
C5404 C 0.07761 0.70298 0.06392 0.0
C5405 C 0.06124 0.68894 0.06028 0.0
C5406 C 0.09328 0.69682 0.06138 0.0
C5407 C 0.11113 0.7104 0.06611 0.0
C5408 C 0.12308 0.7121 0.05259 0.0
C5409 C 0.13992 0.7249 0.05704 0.0
C5410 C 0.14499 0.736 0.07501 0.0
C5411 C 0.13326 0.73426 0.08859 0.0
C5412 C 0.11641 0.72146 0.08422 0.0
C5413 C 0.06285 0.61153 0.02385 0.0
C5414 C 0.07099 0.60204 0.03544 0.0
C5415 C 0.06498 0.63145 0.02866 0.0
C5416 C 0.07518 0.64235 0.04527 0.0
C5417 C 0.08371 0.63292 0.0566 0.0
C5418 C 0.08137 0.61294 0.05191 0.0
C5419 C 0.07575 0.66318 0.05155 0.0
C5420 C 0.09213 0.67714 0.05506 0.0
C5421 C 0.06014 0.66924 0.05446 0.0
C5422 C 0.04257 0.65518 0.05259 0.0
C5423 C 0.03972 0.64076 0.06328 0.0
C5424 C 0.02322 0.62741 0.06139 0.0
C5425 C 0.0094 0.62844 0.049 0.0
C5426 C 0.01205 0.64282 0.03845 0.0
C5427 C 0.02856 0.6562 0.04025 0.0
H5428 H 0.99663 0.61814 0.04767 0.0
H5429 H 0.15803 0.74591 0.07842 0.0
H5430 H 0.06088 0.24743 0.85683 0.0
H5431 H 0.08827 0.2526 0.84208 0.0
H5432 H 0.11321 0.29981 0.88733 0.0
H5433 H 0.0855 0.29504 0.90192 0.0
H5434 H 0.12331 0.30907 0.85622 0.0
H5435 H 0.12169 0.25428 0.88312 0.0
H5436 H 0.10903 0.22229 0.8901 0.0
H5437 H 0.10415 0.1968 0.83198 0.0
H5438 H 0.11655 0.22867 0.82461 0.0
H5439 H 0.20898 0.31089 0.8247 0.0
H5440 H 0.18473 0.30683 0.8447 0.0
H5441 H 0.15093 0.26459 0.80013 0.0
H5442 H 0.17496 0.26864 0.78022 0.0
H5443 H 0.14764 0.25372 0.83425 0.0
H5444 H 0.14763 0.30989 0.80798 0.0
H5445 H 0.16107 0.34211 0.80194 0.0
H5446 H 0.17036 0.36517 0.86078 0.0
H5447 H 0.15719 0.33301 0.86718 0.0
C5448 C 0.07216 0.25896 0.86367 0.0
C5449 C 0.07096 0.27075 0.88065 0.0
C5450 C 0.08792 0.26184 0.85525 0.0
C5451 C 0.10308 0.27634 0.86373 0.0
C5452 C 0.1018 0.28844 0.8805 0.0
C5453 C 0.08593 0.28569 0.88885 0.0
C5454 C 0.12011 0.27881 0.855 0.0
C5455 C 0.12876 0.297 0.85175 0.0
C5456 C 0.12733 0.26312 0.84894 0.0
C5457 C 0.11992 0.2439 0.8533 0.0
C5458 C 0.1178 0.24187 0.87181 0.0
C5459 C 0.11069 0.22375 0.87584 0.0
C5460 C 0.10575 0.20753 0.86149 0.0
C5461 C 0.10796 0.20938 0.84308 0.0
C5462 C 0.11505 0.22747 0.83897 0.0
C5463 C 0.19645 0.30055 0.81931 0.0
C5464 C 0.19385 0.29016 0.80085 0.0
C5465 C 0.18256 0.29834 0.83069 0.0
C5466 C 0.16589 0.28553 0.82388 0.0
C5467 C 0.1636 0.27459 0.80572 0.0
C5468 C 0.17734 0.27696 0.79432 0.0
C5469 C 0.15057 0.28384 0.83524 0.0
C5470 C 0.14225 0.2658 0.83895 0.0
C5471 C 0.1438 0.29968 0.8419 0.0
C5472 C 0.15162 0.31902 0.83806 0.0
C5473 C 0.15267 0.32181 0.81964 0.0
C5474 C 0.16022 0.34006 0.81615 0.0
C5475 C 0.16661 0.35567 0.83097 0.0
C5476 C 0.16543 0.35306 0.84932 0.0
C5477 C 0.15792 0.33483 0.85288 0.0
H5478 H 0.17245 0.36979 0.82824 0.0
H5479 H 0.10025 0.19352 0.86464 0.0
H5480 H 0.61755 0.78523 0.95276 0.0
H5481 H 0.60816 0.76086 0.97128 0.0
H5482 H 0.56728 0.72835 0.9272 0.0
H5483 H 0.57631 0.75327 0.90869 0.0
H5484 H 0.55487 0.72797 0.95989 0.0
H5485 H 0.60589 0.71471 0.93461 0.0
H5486 H 0.63655 0.7216 0.92638 0.0
H5487 H 0.65642 0.7395 0.98436 0.0
H5488 H 0.62586 0.73298 0.99294 0.0
H5489 H 0.54525 0.64377 1.00099 0.0
H5490 H 0.55009 0.66658 0.97992 0.0
H5491 H 0.5867 0.7084 0.02267 0.0
H5492 H 0.58203 0.68561 0.04375 0.0
H5493 H 0.60011 0.70138 0.98809 0.0
H5494 H 0.54763 0.71512 0.01237 0.0
H5495 H 0.51659 0.70659 0.01932 0.0
H5496 H 0.49913 0.68513 0.96108 0.0
H5497 H 0.53011 0.69329 0.95381 0.0
C5498 C 0.60658 0.77289 0.94694 0.0
C5499 C 0.59777 0.77106 0.92918 0.0
C5500 C 0.60126 0.75891 0.95754 0.0
C5501 C 0.58728 0.74255 0.95047 0.0
C5502 C 0.57819 0.74081 0.93287 0.0
C5503 C 0.58338 0.755 0.9223 0.0
C5504 C 0.58229 0.72743 0.96167 0.0
C5505 C 0.5647 0.72191 0.96579 0.0
C5506 C 0.59513 0.7196 0.9695 0.0
C5507 C 0.61356 0.72348 0.96441 0.0
C5508 C 0.61679 0.72024 0.94561 0.0
C5509 C 0.63416 0.72406 0.94088 0.0
C5510 C 0.64842 0.73102 0.95484 0.0
C5511 C 0.64535 0.73412 0.97356 0.0
C5512 C 0.62801 0.73034 0.97837 0.0
C5513 C 0.5542 0.6579 0.00593 0.0
C5514 C 0.5633 0.66293 0.02399 0.0
C5515 C 0.55687 0.67092 0.99393 0.0
C5516 C 0.56872 0.68915 0.99978 0.0
C5517 C 0.57748 0.69438 0.01794 0.0
C5518 C 0.5747 0.68143 0.03 0.0
C5519 C 0.57286 0.70237 0.98665 0.0
C5520 C 0.59029 0.7074 0.98208 0.0
C5521 C 0.55982 0.70946 0.97821 0.0
C5522 C 0.5412 0.70463 0.98257 0.0
C5523 C 0.53718 0.70842 1.00106 0.0
C5524 C 0.5196 0.70369 0.00506 0.0
C5525 C 0.5059 0.69527 0.99066 0.0
C5526 C 0.50975 0.69162 0.97222 0.0
C5527 C 0.52732 0.69631 0.96816 0.0
H5528 H 0.49229 0.69162 0.99378 0.0
H5529 H 0.66186 0.73397 0.95115 0.0
H5530 H 0.09075 0.77859 0.68336 0.0
H5531 H 0.11815 0.7769 0.69991 0.0
H5532 H 0.09113 0.76839 0.74848 0.0
H5533 H 0.06361 0.76968 0.73197 0.0
H5534 H 0.13939 0.79566 0.73099 0.0
H5535 H 0.10421 0.7349 0.76712 0.0
H5536 H 0.07724 0.70789 0.76197 0.0
H5537 H 0.07593 0.70484 0.70286 0.0
H5538 H 0.10282 0.73174 0.70767 0.0
H5539 H 0.20332 0.77905 0.79419 0.0
H5540 H 0.17602 0.7847 0.78119 0.0
H5541 H 0.16599 0.73142 0.74119 0.0
H5542 H 0.19315 0.72562 0.75427 0.0
H5543 H 0.13649 0.73555 0.75437 0.0
H5544 H 0.18439 0.77456 0.72958 0.0
H5545 H 0.21265 0.79902 0.73083 0.0
H5546 H 0.1907 0.84212 0.76062 0.0
H5547 H 0.16238 0.81783 0.75984 0.0
C5548 C 0.09069 0.77664 0.69766 0.0
C5549 C 0.07495 0.774 0.70626 0.0
C5550 C 0.10637 0.77572 0.70711 0.0
C5551 C 0.10657 0.77218 0.72529 0.0
C5552 C 0.09116 0.77077 0.73432 0.0
C5553 C 0.07546 0.77157 0.72487 0.0
C5554 C 0.12252 0.76866 0.73433 0.0
C5555 C 0.13877 0.78258 0.73621 0.0
C5556 C 0.12175 0.75141 0.74076 0.0
C5557 C 0.10538 0.73546 0.73778 0.0
C5558 C 0.09811 0.72847 0.75303 0.0
C5559 C 0.08283 0.71319 0.75017 0.0
C5560 C 0.0748 0.7047 0.7321 0.0
C5561 C 0.08203 0.71149 0.71686 0.0
C5562 C 0.09727 0.72679 0.71964 0.0
C5563 C 0.19518 0.76849 0.78272 0.0
C5564 C 0.20032 0.75193 0.77517 0.0
C5565 C 0.17967 0.77177 0.77528 0.0
C5566 C 0.16917 0.75864 0.76004 0.0
C5567 C 0.17393 0.74174 0.75295 0.0
C5568 C 0.18938 0.73839 0.76047 0.0
C5569 C 0.15337 0.7626 0.75121 0.0
C5570 C 0.13712 0.74875 0.74937 0.0
C5571 C 0.1543 0.77968 0.74436 0.0
C5572 C 0.17132 0.79432 0.74483 0.0
C5573 C 0.18563 0.78922 0.73654 0.0
C5574 C 0.20166 0.80306 0.73715 0.0
C5575 C 0.20349 0.8221 0.74585 0.0
C5576 C 0.18928 0.82735 0.75393 0.0
C5577 C 0.17323 0.81355 0.7534 0.0
H5578 H 0.2159 0.8328 0.74629 0.0
H5579 H 0.06302 0.69282 0.72994 0.0
H5580 H 0.07038 0.36454 0.42171 0.0
H5581 H 0.07583 0.39837 0.43574 0.0
H5582 H 0.13162 0.40696 0.43052 0.0
H5583 H 0.12613 0.37274 0.41564 0.0
H5584 H 0.1152 0.41875 0.46981 0.0
H5585 H 0.12239 0.43073 0.40892 0.0
H5586 H 0.11607 0.42501 0.37475 0.0
H5587 H 0.06406 0.43293 0.38046 0.0
H5588 H 0.06993 0.43835 0.41466 0.0
H5589 H 0.10499 0.50856 0.5143 0.0
H5590 H 0.11741 0.48715 0.49304 0.0
H5591 H 0.06561 0.46094 0.46281 0.0
H5592 H 0.05312 0.48278 0.48385 0.0
H5593 H 0.0913 0.46392 0.43941 0.0
H5594 H 0.08128 0.44225 0.49812 0.0
H5595 H 0.08572 0.44662 0.53237 0.0
H5596 H 0.14182 0.45573 0.53058 0.0
H5597 H 0.1377 0.45167 0.49631 0.0
C5598 C 0.08384 0.37357 0.42348 0.0
C5599 C 0.09788 0.36602 0.41775 0.0
C5600 C 0.08689 0.39291 0.43136 0.0
C5601 C 0.10406 0.40506 0.43397 0.0
C5602 C 0.11825 0.39771 0.4284 0.0
C5603 C 0.11512 0.37826 0.42001 0.0
C5604 C 0.10663 0.42506 0.44375 0.0
C5605 C 0.11067 0.42905 0.46314 0.0
C5606 C 0.1003 0.43814 0.43497 0.0
C5607 C 0.09657 0.43478 0.41438 0.0
C5608 C 0.10952 0.43103 0.40289 0.0
C5609 C 0.10603 0.42788 0.38351 0.0
C5610 C 0.08965 0.42854 0.37543 0.0
C5611 C 0.07674 0.4324 0.38673 0.0
C5612 C 0.08015 0.43553 0.40612 0.0
C5613 C 0.09621 0.49832 0.50311 0.0
C5614 C 0.07797 0.49705 0.50099 0.0
C5615 C 0.10339 0.48617 0.49089 0.0
C5616 C 0.0924 0.47228 0.47654 0.0
C5617 C 0.07433 0.47159 0.47382 0.0
C5618 C 0.06718 0.48395 0.48592 0.0
C5619 C 0.09919 0.4572 0.46552 0.0
C5620 C 0.09667 0.45412 0.44601 0.0
C5621 C 0.10679 0.44483 0.47419 0.0
C5622 C 0.10922 0.44689 0.49472 0.0
C5623 C 0.09457 0.44528 0.50506 0.0
C5624 C 0.09702 0.4477 0.52446 0.0
C5625 C 0.11405 0.45151 0.53365 0.0
C5626 C 0.12864 0.45283 0.52345 0.0
C5627 C 0.12626 0.45046 0.50404 0.0
H5628 H 0.11593 0.4534 0.54868 0.0
H5629 H 0.08698 0.42613 0.36043 0.0
H5630 H 0.46938 0.26449 0.22595 0.0
H5631 H 0.44174 0.26808 0.23788 0.0
H5632 H 0.42248 0.27538 0.1839 0.0
H5633 H 0.45053 0.27283 0.17225 0.0
H5634 H 0.41303 0.2983 0.20757 0.0
H5635 H 0.40947 0.2325 0.20124 0.0
H5636 H 0.41617 0.20206 0.20452 0.0
H5637 H 0.41367 0.21533 0.26352 0.0
H5638 H 0.40743 0.2461 0.26072 0.0
H5639 H 0.32718 0.29401 0.23613 0.0
H5640 H 0.35182 0.28798 0.21973 0.0
H5641 H 0.37422 0.27376 0.26904 0.0
H5642 H 0.34745 0.27568 0.28368 0.0
H5643 H 0.38098 0.25287 0.24429 0.0
H5644 H 0.38719 0.32381 0.24552 0.0
H5645 H 0.37665 0.35019 0.2357 0.0
H5646 H 0.36887 0.32068 0.17876 0.0
H5647 H 0.37945 0.29432 0.18803 0.0
C5648 C 0.45929 0.26704 0.2167 0.0
C5649 C 0.46206 0.2684 0.19819 0.0
C5650 C 0.44342 0.26888 0.22346 0.0
C5651 C 0.42981 0.27155 0.21169 0.0
C5652 C 0.43274 0.27329 0.19327 0.0
C5653 C 0.44878 0.27187 0.18663 0.0
C5654 C 0.4127 0.27296 0.2187 0.0
C5655 C 0.40596 0.28826 0.21552 0.0
C5656 C 0.40329 0.25976 0.22885 0.0
C5657 C 0.40824 0.24182 0.23079 0.0
C5658 C 0.41073 0.22916 0.21498 0.0
C5659 C 0.41438 0.21179 0.21674 0.0
C5660 C 0.41548 0.20685 0.23424 0.0
C5661 C 0.41294 0.21925 0.25 0.0
C5662 C 0.40937 0.23667 0.24833 0.0
C5663 C 0.33757 0.28988 0.2435 0.0
C5664 C 0.33607 0.28648 0.26164 0.0
C5665 C 0.35189 0.28671 0.23418 0.0
C5666 C 0.36575 0.28154 0.24335 0.0
C5667 C 0.36401 0.27802 0.26153 0.0
C5668 C 0.34894 0.2796 0.27019 0.0
C5669 C 0.38164 0.27881 0.23402 0.0
C5670 C 0.38816 0.2631 0.23662 0.0
C5671 C 0.39047 0.2912 0.22271 0.0
C5672 C 0.384 0.3071 0.21749 0.0
C5673 C 0.38318 0.32297 0.23095 0.0
C5674 C 0.3772 0.33788 0.22549 0.0
C5675 C 0.37204 0.33703 0.20673 0.0
C5676 C 0.37285 0.32131 0.1933 0.0
C5677 C 0.37889 0.30644 0.19861 0.0
H5678 H 0.36751 0.34861 0.20257 0.0
H5679 H 0.41823 0.19337 0.23557 0.0
H5680 H 0.66061 0.52286 0.34116 0.0
H5681 H 0.64887 0.5256 0.37137 0.0
H5682 H 0.60955 0.55078 0.3502 0.0
H5683 H 0.62226 0.54932 0.32038 0.0
H5684 H 0.61488 0.56683 0.3826 0.0
H5685 H 0.60354 0.49913 0.36121 0.0
H5686 H 0.61006 0.46822 0.3494 0.0
H5687 H 0.64666 0.47678 0.39808 0.0
H5688 H 0.64049 0.50785 0.41008 0.0
H5689 H 0.5589 0.5475 0.45666 0.0
H5690 H 0.57149 0.54533 0.42668 0.0
H5691 H 0.62098 0.54359 0.45413 0.0
H5692 H 0.60861 0.54638 0.48426 0.0
H5693 H 0.61003 0.51547 0.41923 0.0
H5694 H 0.61824 0.58331 0.4406 0.0
H5695 H 0.60809 0.61211 0.45196 0.0
H5696 H 0.57292 0.60045 0.40163 0.0
H5697 H 0.58261 0.57135 0.39011 0.0
C5698 C 0.64939 0.52892 0.34281 0.0
C5699 C 0.64246 0.53568 0.32783 0.0
C5700 C 0.6424 0.53033 0.36033 0.0
C5701 C 0.62764 0.53793 0.3637 0.0
C5702 C 0.62079 0.54476 0.34865 0.0
C5703 C 0.62809 0.54381 0.33127 0.0
C5704 C 0.61965 0.5391 0.38267 0.0
C5705 C 0.61368 0.5553 0.39025 0.0
C5706 C 0.6179 0.52452 0.39361 0.0
C5707 C 0.6217 0.50591 0.38643 0.0
C5708 C 0.61306 0.49447 0.36933 0.0
C5709 C 0.61668 0.47692 0.36261 0.0
C5710 C 0.62881 0.47057 0.37296 0.0
C5711 C 0.6373 0.48174 0.39007 0.0
C5712 C 0.63374 0.49931 0.39684 0.0
C5713 C 0.57249 0.54667 0.45645 0.0
C5714 C 0.58257 0.54717 0.47331 0.0
C5715 C 0.57977 0.54546 0.43909 0.0
C5716 C 0.5974 0.54426 0.43763 0.0
C5717 C 0.6074 0.54443 0.45442 0.0
C5718 C 0.60025 0.54612 0.47186 0.0
C5719 C 0.60535 0.54302 0.41884 0.0
C5720 C 0.61128 0.52687 0.41139 0.0
C5721 C 0.60663 0.55738 0.40782 0.0
C5722 C 0.60103 0.57505 0.41457 0.0
C5723 C 0.60824 0.5868 0.43201 0.0
C5724 C 0.60258 0.60319 0.43848 0.0
C5725 C 0.58984 0.60808 0.42754 0.0
C5726 C 0.58277 0.59663 0.41009 0.0
C5727 C 0.58835 0.58019 0.40359 0.0
H5728 H 0.58547 0.62077 0.43257 0.0
H5729 H 0.63159 0.45697 0.36773 0.0
H5730 H 0.29765 0.89564 0.03188 0.0
H5731 H 0.29714 0.87326 0.05296 0.0
H5732 H 0.30396 0.91974 0.10021 0.0
H5733 H 0.30454 0.94228 0.07927 0.0
H5734 H 0.32997 0.90068 0.10064 0.0
H5735 H 0.26653 0.8846 0.09185 0.0
H5736 H 0.23702 0.87456 0.07385 0.0
H5737 H 0.24685 0.82109 0.04896 0.0
H5738 H 0.27654 0.83093 0.06662 0.0
H5739 H 0.33001 0.84794 0.17125 0.0
H5740 H 0.32306 0.86795 0.15034 0.0
H5741 H 0.31072 0.81935 0.10441 0.0
H5742 H 0.31649 0.79875 0.12568 0.0
H5743 H 0.28686 0.83913 0.10302 0.0
H5744 H 0.35035 0.85521 0.11017 0.0
H5745 H 0.3801 0.86476 0.12767 0.0
H5746 H 0.37066 0.91779 0.15451 0.0
H5747 H 0.34078 0.90846 0.1373 0.0
C5748 C 0.29858 0.90105 0.04674 0.0
C5749 C 0.30141 0.92079 0.05392 0.0
C5750 C 0.29822 0.88821 0.05876 0.0
C5751 C 0.30062 0.8949 0.07811 0.0
C5752 C 0.30215 0.91435 0.08529 0.0
C5753 C 0.30242 0.92719 0.07329 0.0
C5754 C 0.30389 0.8822 0.09072 0.0
C5755 C 0.32042 0.88738 0.10142 0.0
C5756 C 0.29168 0.86453 0.09111 0.0
C5757 C 0.27384 0.85859 0.08044 0.0
C5758 C 0.26248 0.87078 0.08241 0.0
C5759 C 0.24569 0.8651 0.0723 0.0
C5760 C 0.24008 0.84722 0.06024 0.0
C5761 C 0.25122 0.83495 0.0583 0.0
C5762 C 0.26802 0.84056 0.06837 0.0
C5763 C 0.32562 0.84139 0.15675 0.0
C5764 C 0.32367 0.82168 0.15016 0.0
C5765 C 0.32187 0.85293 0.14474 0.0
C5766 C 0.3166 0.84521 0.12575 0.0
C5767 C 0.31481 0.8256 0.11902 0.0
C5768 C 0.31831 0.81391 0.13113 0.0
C5769 C 0.3129 0.8577 0.11306 0.0
C5770 C 0.29638 0.85246 0.10227 0.0
C5771 C 0.32519 0.87528 0.11241 0.0
C5772 C 0.34328 0.88107 0.12254 0.0
C5773 C 0.35459 0.86887 0.11987 0.0
C5774 C 0.37148 0.87425 0.12973 0.0
C5775 C 0.37725 0.89185 0.14222 0.0
C5776 C 0.36617 0.90415 0.14483 0.0
C5777 C 0.34927 0.89885 0.135 0.0
H5778 H 0.39032 0.89598 0.14986 0.0
H5779 H 0.22708 0.84285 0.05242 0.0
H5780 H 0.96737 0.58168 0.83796 0.0
H5781 H 0.98589 0.58354 0.86666 0.0
H5782 H 0.01562 0.54873 0.83579 0.0
H5783 H 0.99693 0.54646 0.80719 0.0
H5784 H 0.00578 0.5348 0.86501 0.0
H5785 H 0.03394 0.59714 0.85462 0.0
H5786 H 0.03584 0.62946 0.84829 0.0
H5787 H 0.01322 0.64438 0.89888 0.0
H5788 H 0.01095 0.61204 0.9054 0.0
H5789 H 0.06734 0.54471 0.94469 0.0
H5790 H 0.0563 0.54855 0.91389 0.0
H5791 H 0.01768 0.57494 0.93887 0.0
H5792 H 0.02841 0.57101 0.96948 0.0
H5793 H 0.03504 0.59384 0.91172 0.0
H5794 H 1.00454 0.53049 0.92017 0.0
H5795 H 1.00331 0.49846 0.92693 0.0
H5796 H 0.03108 0.48579 0.87958 0.0
H5797 H 0.03279 0.51793 0.87276 0.0
C5798 C 0.97806 0.57472 0.83724 0.0
C5799 C 0.98063 0.56386 0.82033 0.0
C5800 C 0.98868 0.57583 0.85365 0.0
C5801 C 1.00222 0.56632 0.85339 0.0
C5802 C 1.00523 0.55612 0.83636 0.0
C5803 C 0.99456 0.55489 0.82001 0.0
C5804 C 0.01234 0.56578 0.87101 0.0
C5805 C 0.01248 0.54776 0.87502 0.0
C5806 C 0.02081 0.58263 0.88429 0.0
C5807 C 0.02213 0.6021 0.88042 0.0
C5808 C 0.02923 0.60726 0.86433 0.0
C5809 C 0.0304 0.62559 0.86072 0.0
C5810 C 0.02461 0.63895 0.87315 0.0
C5811 C 0.01768 0.63401 0.88925 0.0
C5812 C 0.01647 0.61569 0.89292 0.0
C5813 C 0.05658 0.55144 0.94359 0.0
C5814 C 0.04861 0.55736 0.95944 0.0
C5815 C 0.05031 0.55363 0.92604 0.0
C5816 C 0.03616 0.56199 0.92416 0.0
C5817 C 0.02863 0.5685 0.94005 0.0
C5818 C 0.03469 0.56608 0.9575 0.0
C5819 C 0.02836 0.56295 0.90558 0.0
C5820 C 0.02857 0.58097 0.90149 0.0
C5821 C 0.02025 0.54614 0.89218 0.0
C5822 C 0.01898 0.5267 0.89609 0.0
C5823 C 0.01052 0.52094 0.91129 0.0
C5824 C 0.00972 0.50275 0.91513 0.0
C5825 C 0.01716 0.49011 0.90372 0.0
C5826 C 0.02536 0.49561 0.88843 0.0
C5827 C 0.02625 0.51381 0.88457 0.0
H5828 H 0.01652 0.47604 0.90671 0.0
H5829 H 0.02554 0.65314 0.87034 0.0
H5830 H 0.30468 0.25501 0.56265 0.0
H5831 H 0.30383 0.26894 0.59551 0.0
H5832 H 0.31499 0.21902 0.6117 0.0
H5833 H 0.316 0.20512 0.5792 0.0
H5834 H 0.28523 0.22741 0.62567 0.0
H5835 H 0.34581 0.26082 0.6211 0.0
H5836 H 0.3694 0.28215 0.60813 0.0
H5837 H 0.34522 0.32854 0.62235 0.0
H5838 H 0.32132 0.30739 0.63518 0.0
H5839 H 0.30475 0.24679 0.72217 0.0
H5840 H 0.302 0.23925 0.6884 0.0
H5841 H 0.30276 0.29798 0.68672 0.0
H5842 H 0.30681 0.30587 0.72106 0.0
H5843 H 0.32333 0.28816 0.66388 0.0
H5844 H 0.2611 0.25524 0.66343 0.0
H5845 H 0.23516 0.23418 0.67367 0.0
H5846 H 0.26052 0.18817 0.66712 0.0
H5847 H 0.28642 0.20894 0.65662 0.0
C5848 C 0.30726 0.24714 0.57323 0.0
C5849 C 0.31032 0.22886 0.56818 0.0
C5850 C 0.30678 0.25515 0.59203 0.0
C5851 C 0.30928 0.24499 0.60609 0.0
C5852 C 0.31294 0.22709 0.60111 0.0
C5853 C 0.31356 0.21918 0.58245 0.0
C5854 C 0.30688 0.25212 0.62586 0.0
C5855 C 0.29366 0.24065 0.63405 0.0
C5856 C 0.31732 0.26977 0.63663 0.0
C5857 C 0.33166 0.28245 0.62888 0.0
C5858 C 0.34542 0.27551 0.62129 0.0
C5859 C 0.35887 0.28758 0.614 0.0
C5860 C 0.35878 0.30667 0.61436 0.0
C5861 C 0.34526 0.31374 0.62205 0.0
C5862 C 0.33176 0.30172 0.62934 0.0
C5863 C 0.30394 0.25804 0.71461 0.0
C5864 C 0.30565 0.27684 0.72428 0.0
C5865 C 0.30212 0.25364 0.69517 0.0
C5866 C 0.30165 0.26784 0.68468 0.0
C5867 C 0.30291 0.28665 0.69435 0.0
C5868 C 0.30503 0.29115 0.71398 0.0
C5869 C 0.30183 0.26322 0.66392 0.0
C5870 C 0.31466 0.2751 0.65548 0.0
C5871 C 0.29085 0.24604 0.65272 0.0
C5872 C 0.27575 0.23374 0.65972 0.0
C5873 C 0.26117 0.24072 0.66448 0.0
C5874 C 0.24643 0.22878 0.67012 0.0
C5875 C 0.24626 0.20991 0.67121 0.0
C5876 C 0.26071 0.20283 0.66639 0.0
C5877 C 0.27536 0.21463 0.66049 0.0
H5878 H 0.23488 0.20073 0.67568 0.0
H5879 H 0.36921 0.316 0.60872 0.0
H5880 H 0.62554 0.52588 0.22749 0.0
H5881 H 0.61136 0.52879 0.19767 0.0
H5882 H 0.65544 0.5167 0.17021 0.0
H5883 H 0.66952 0.51357 0.19985 0.0
H5884 H 0.64716 0.54572 0.15771 0.0
H5885 H 0.61201 0.48394 0.16432 0.0
H5886 H 0.59252 0.46106 0.17994 0.0
H5887 H 0.55389 0.49361 0.18049 0.0
H5888 H 0.57326 0.51683 0.16508 0.0
H5889 H 0.61421 0.53393 0.06294 0.0
H5890 H 0.62538 0.53161 0.0938 0.0
H5891 H 0.57512 0.5339 0.11344 0.0
H5892 H 0.56344 0.53501 0.08165 0.0
H5893 H 0.58551 0.5114 0.1313 0.0
H5894 H 0.61984 0.5739 0.12681 0.0
H5895 H 0.63967 0.59927 0.11414 0.0
H5896 H 0.67925 0.56787 0.11143 0.0
H5897 H 0.65977 0.54245 0.12433 0.0
C5898 C 0.63219 0.52353 0.21511 0.0
C5899 C 0.64884 0.51924 0.21657 0.0
C5900 C 0.62396 0.52522 0.19781 0.0
C5901 C 0.63201 0.52292 0.18105 0.0
C5902 C 0.64861 0.51861 0.18252 0.0
C5903 C 0.65671 0.51667 0.19972 0.0
C5904 C 0.62363 0.52549 0.16228 0.0
C5905 C 0.63373 0.53794 0.15194 0.0
C5906 C 0.60581 0.51615 0.15447 0.0
C5907 C 0.59417 0.50224 0.16374 0.0
C5908 C 0.59942 0.48631 0.16791 0.0
C5909 C 0.58839 0.47326 0.1767 0.0
C5910 C 0.572 0.47591 0.18125 0.0
C5911 C 0.5666 0.49159 0.17698 0.0
C5912 C 0.5776 0.50469 0.16821 0.0
C5913 C 0.60543 0.53419 0.07378 0.0
C5914 C 0.58787 0.5351 0.06938 0.0
C5915 C 0.61203 0.53306 0.09185 0.0
C5916 C 0.6016 0.53311 0.10691 0.0
C5917 C 0.58388 0.53396 0.10259 0.0
C5918 C 0.57713 0.53484 0.08424 0.0
C5919 C 0.60913 0.53156 0.12654 0.0
C5920 C 0.59892 0.51928 0.13705 0.0
C5921 C 0.62681 0.54132 0.13473 0.0
C5922 C 0.63828 0.55621 0.12636 0.0
C5923 C 0.63271 0.57234 0.12337 0.0
C5924 C 0.64392 0.58675 0.11621 0.0
C5925 C 0.66066 0.58512 0.11188 0.0
C5926 C 0.66627 0.5691 0.11476 0.0
C5927 C 0.65519 0.55474 0.12208 0.0
H5928 H 0.66932 0.59631 0.10638 0.0
H5929 H 0.56347 0.46579 0.18805 0.0
H5930 H 0.28574 0.91732 0.9517 0.0
H5931 H 0.2828 0.89743 0.92023 0.0
H5932 H 0.33946 0.90597 0.92422 0.0
H5933 H 0.34234 0.92508 0.95568 0.0
H5934 H 0.32082 0.90767 0.88723 0.0
H5935 H 0.32028 0.86943 0.93652 0.0
H5936 H 0.30768 0.85749 0.96352 0.0
H5937 H 0.25685 0.834 0.93128 0.0
H5938 H 0.26913 0.84608 0.90416 0.0
H5939 H 0.34425 0.83906 0.82481 0.0
H5940 H 0.34179 0.8581 0.85504 0.0
H5941 H 0.28645 0.82796 0.851 0.0
H5942 H 0.28925 0.80801 0.82147 0.0
H5943 H 0.29944 0.83774 0.88615 0.0
H5944 H 0.29942 0.87022 0.83559 0.0
H5945 H 0.31164 0.87866 0.80717 0.0
H5946 H 0.36014 0.91276 0.83959 0.0
H5947 H 0.34836 0.90405 0.86824 0.0
C5948 C 0.29752 0.91526 0.94559 0.0
C5949 C 0.31424 0.92257 0.95595 0.0
C5950 C 0.29585 0.90394 0.92773 0.0
C5951 C 0.31094 0.90032 0.92002 0.0
C5952 C 0.32771 0.90873 0.92993 0.0
C5953 C 0.32933 0.91954 0.94787 0.0
C5954 C 0.30942 0.8861 0.90267 0.0
C5955 C 0.31608 0.8924 0.88691 0.0
C5956 C 0.30285 0.86622 0.9022 0.0
C5957 C 0.29555 0.85886 0.91843 0.0
C5958 C 0.30638 0.86188 0.93526 0.0
C5959 C 0.29931 0.85506 0.95056 0.0
C5960 C 0.28146 0.84505 0.94914 0.0
C5961 C 0.27066 0.84179 0.93238 0.0
C5962 C 0.27767 0.84862 0.91704 0.0
C5963 C 0.33174 0.83618 0.83071 0.0
C5964 C 0.31693 0.82222 0.82091 0.0
C5965 C 0.33028 0.84709 0.84786 0.0
C5966 C 0.31377 0.84487 0.85495 0.0
C5967 C 0.29927 0.83001 0.84575 0.0
C5968 C 0.30089 0.81863 0.82888 0.0
C5969 C 0.31129 0.85925 0.8708 0.0
C5970 C 0.30383 0.853 0.88624 0.0
C5971 C 0.3167 0.87919 0.87078 0.0
C5972 C 0.32306 0.88636 0.85404 0.0
C5973 C 0.31268 0.87956 0.83668 0.0
C5974 C 0.31961 0.88421 0.82049 0.0
C5975 C 0.33676 0.89603 0.82153 0.0
C5976 C 0.3469 0.90349 0.8388 0.0
C5977 C 0.3401 0.8987 0.85503 0.0
H5978 H 0.34212 0.89959 0.80896 0.0
H5979 H 0.27601 0.83977 0.961 0.0
H5980 H 0.97597 0.55562 0.7295 0.0
H5981 H 0.98526 0.55014 0.69845 0.0
H5982 H 0.93531 0.55529 0.67478 0.0
H5983 H 0.92569 0.56038 0.70598 0.0
H5984 H 0.94196 0.52387 0.65728 0.0
H5985 H 0.9748 0.58902 0.672 0.0
H5986 H 0.99438 0.6188 0.69112 0.0
H5987 H 0.03708 0.59185 0.69253 0.0
H5988 H 0.01774 0.56185 0.67363 0.0
H5989 H 0.98178 0.49264 0.5753 0.0
H5990 H 0.96767 0.51274 0.59655 0.0
H5991 H 0.00871 0.51792 0.6407 0.0
H5992 H 0.02305 0.49864 0.6193 0.0
H5993 H 1.00214 0.55153 0.64099 0.0
H5994 H 0.96506 0.48456 0.63538 0.0
H5995 H 0.94563 0.45457 0.61633 0.0
H5996 H 0.9113 0.4862 0.59696 0.0
H5997 H 0.93058 0.51637 0.61586 0.0
C5998 C 0.96704 0.55595 0.71777 0.0
C5999 C 0.95003 0.55831 0.72025 0.0
C6000 C 0.97244 0.55296 0.69997 0.0
C6001 C 0.96107 0.55252 0.68425 0.0
C6002 C 0.94433 0.55564 0.68671 0.0
C6003 C 0.93887 0.55858 0.70456 0.0
C6004 C 0.96609 0.54663 0.66534 0.0
C6005 C 0.95494 0.53027 0.65349 0.0
C6006 C 0.98296 0.55498 0.66025 0.0
C6007 C 0.99476 0.57313 0.67142 0.0
C6008 C 0.98834 0.58941 0.67645 0.0
C6009 C 0.99941 0.60633 0.68726 0.0
C6010 C 0.01694 0.60718 0.69309 0.0
C6011 C 0.02349 0.59116 0.68801 0.0
C6012 C 0.01249 0.57421 0.67721 0.0
C6013 C 0.98764 0.49807 0.58957 0.0
C6014 C 1.0034 0.49412 0.59573 0.0
C6015 C 0.97964 0.50955 0.60168 0.0
C6016 C 0.9871 0.5168 0.62027 0.0
C6017 C 1.00279 0.51267 0.62639 0.0
C6018 C 0.01091 0.50153 0.61423 0.0
C6019 C 0.97856 0.52809 0.63389 0.0
C6020 C 0.98896 0.54556 0.64458 0.0
C6021 C 0.96103 0.52082 0.63789 0.0
C6022 C 0.94926 0.50266 0.62694 0.0
C6023 C 0.95335 0.48508 0.62706 0.0
C6024 C 0.94238 0.46807 0.6163 0.0
C6025 C 0.92722 0.46848 0.60548 0.0
C6026 C 0.92302 0.4859 0.60538 0.0
C6027 C 0.93394 0.50295 0.61614 0.0
H6028 H 0.91875 0.45529 0.59719 0.0
H6029 H 0.02546 0.62022 0.70157 0.0
H6030 H 0.29489 0.25938 0.47431 0.0
H6031 H 0.29533 0.27019 0.44466 0.0
H6032 H 0.3096 0.21927 0.41873 0.0
H6033 H 0.31016 0.209 0.44874 0.0
H6034 H 0.32572 0.2463 0.40391 0.0
H6035 H 0.2653 0.22543 0.41464 0.0
H6036 H 0.2389 0.22356 0.43158 0.0
H6037 H 0.24341 0.28332 0.43273 0.0
H6038 H 0.27 0.28562 0.41601 0.0
H6039 H 0.29443 0.25367 0.31121 0.0
H6040 H 0.29554 0.24235 0.34074 0.0
H6041 H 0.30112 0.29987 0.3711 0.0
H6042 H 0.30032 0.31123 0.34161 0.0
H6043 H 0.27434 0.2682 0.38239 0.0
H6044 H 0.33584 0.2872 0.37062 0.0
H6045 H 0.36036 0.28623 0.35126 0.0
H6046 H 0.35105 0.22567 0.34934 0.0
H6047 H 0.32625 0.22622 0.36844 0.0
C6048 C 0.2983 0.25059 0.46233 0.0
C6049 C 0.30241 0.23328 0.46388 0.0
C6050 C 0.29839 0.25669 0.44528 0.0
C6051 C 0.30197 0.24532 0.42914 0.0
C6052 C 0.30667 0.22832 0.43083 0.0
C6053 C 0.307 0.22243 0.44803 0.0
C6054 C 0.30051 0.25102 0.41055 0.0
C6055 C 0.31433 0.25083 0.39918 0.0
C6056 C 0.28573 0.25704 0.40414 0.0
C6057 C 0.26976 0.25574 0.41424 0.0
C6058 C 0.26074 0.23821 0.41863 0.0
C6059 C 0.24573 0.23707 0.42818 0.0
C6060 C 0.23951 0.25333 0.43327 0.0
C6061 C 0.24826 0.27075 0.4288 0.0
C6062 C 0.2633 0.27198 0.41928 0.0
C6063 C 0.29565 0.26382 0.32416 0.0
C6064 C 0.29715 0.28332 0.32412 0.0
C6065 C 0.29643 0.25738 0.34103 0.0
C6066 C 0.29843 0.27028 0.35813 0.0
C6067 C 0.29956 0.28967 0.35808 0.0
C6068 C 0.29917 0.29617 0.34125 0.0
C6069 C 0.29955 0.26365 0.3761 0.0
C6070 C 0.28565 0.26362 0.38725 0.0
C6071 C 0.31401 0.25701 0.38206 0.0
C6072 C 0.32909 0.25672 0.37082 0.0
C6073 C 0.33893 0.27365 0.36595 0.0
C6074 C 0.3529 0.27318 0.35505 0.0
C6075 C 0.35727 0.25591 0.3491 0.0
C6076 C 0.34768 0.23905 0.35401 0.0
C6077 C 0.33366 0.23943 0.36487 0.0
H6078 H 0.36809 0.25557 0.34065 0.0
H6079 H 0.22788 0.25241 0.44066 0.0
H6080 H 0.3302 0.57247 0.52872 0.0
H6081 H 0.35253 0.55622 0.51831 0.0
H6082 H 0.3728 0.6001 0.48714 0.0
H6083 H 0.35011 0.61628 0.49719 0.0
H6084 H 0.37305 0.56514 0.46814 0.0
H6085 H 0.3931 0.60171 0.52976 0.0
H6086 H 0.39116 0.61302 0.5631 0.0
H6087 H 0.38443 0.55568 0.57266 0.0
H6088 H 0.38608 0.54397 0.5393 0.0
H6089 H 0.45876 0.54665 0.4645 0.0
H6090 H 0.43393 0.56104 0.46926 0.0
H6091 H 0.40989 0.51675 0.49848 0.0
H6092 H 0.43482 0.50252 0.4941 0.0
H6093 H 0.41205 0.55279 0.51781 0.0
H6094 H 0.39255 0.51667 0.45536 0.0
H6095 H 0.39546 0.50643 0.42207 0.0
H6096 H 0.40262 0.56439 0.41422 0.0
H6097 H 0.4 0.57503 0.44754 0.0
C6098 C 0.3393 0.5786 0.51951 0.0
C6099 C 0.33852 0.59577 0.51393 0.0
C6100 C 0.35209 0.56931 0.51361 0.0
C6101 C 0.36457 0.57716 0.50227 0.0
C6102 C 0.36335 0.59385 0.49597 0.0
C6103 C 0.35041 0.60309 0.50175 0.0
C6104 C 0.37929 0.56836 0.49774 0.0
C6105 C 0.38172 0.56265 0.47899 0.0
C6106 C 0.3905 0.56493 0.51191 0.0
C6107 C 0.38955 0.57193 0.532 0.0
C6108 C 0.39107 0.59148 0.53894 0.0
C6109 C 0.39004 0.59797 0.55785 0.0
C6110 C 0.38763 0.58507 0.56998 0.0
C6111 C 0.38628 0.56565 0.56324 0.0
C6112 C 0.38727 0.55909 0.54434 0.0
C6113 C 0.44813 0.53994 0.47185 0.0
C6114 C 0.44873 0.52346 0.47893 0.0
C6115 C 0.4339 0.54808 0.47443 0.0
C6116 C 0.42003 0.53988 0.48412 0.0
C6117 C 0.42045 0.52325 0.4909 0.0
C6118 C 0.43462 0.51506 0.48827 0.0
C6119 C 0.40562 0.54927 0.48822 0.0
C6120 C 0.40334 0.55522 0.50695 0.0
C6121 C 0.39473 0.55306 0.47403 0.0
C6122 C 0.39625 0.54668 0.45399 0.0
C6123 C 0.39489 0.52726 0.44657 0.0
C6124 C 0.39646 0.52138 0.42769 0.0
C6125 C 0.39927 0.53476 0.41605 0.0
C6126 C 0.40047 0.55405 0.42326 0.0
C6127 C 0.39892 0.56001 0.44214 0.0
H6128 H 0.40048 0.53017 0.40144 0.0
H6129 H 0.38684 0.59012 0.58461 0.0
H6130 H 0.86297 0.96459 0.56012 0.0
H6131 H 0.89423 0.98124 0.56056 0.0
H6132 H 0.90198 0.93191 0.52362 0.0
H6133 H 0.871 0.91498 0.52373 0.0
H6134 H 0.92861 0.94441 0.54861 0.0
H6135 H 0.89859 0.97492 0.5091 0.0
H6136 H 0.87704 0.99222 0.50045 0.0
H6137 H 0.90094 0.03948 0.54557 0.0
H6138 H 0.92251 0.02235 0.55463 0.0
H6139 H 0.00791 0.98942 0.51381 0.0
H6140 H 0.97715 0.97399 0.517 0.0
H6141 H 0.97719 0.01947 0.56315 0.0
H6142 H 0.00819 0.03477 0.56047 0.0
H6143 H 0.94722 0.01005 0.53529 0.0
H6144 H 0.97871 0.97897 0.57292 0.0
H6145 H 1.00084 0.96148 0.57919 0.0
H6146 H 0.9743 0.91465 0.5347 0.0
H6147 H 0.95216 0.932 0.52797 0.0
C6148 C 0.87132 0.95732 0.55205 0.0
C6149 C 0.86444 0.93846 0.54186 0.0
C6150 C 0.88922 0.9669 0.55224 0.0
C6151 C 0.90053 0.95799 0.54192 0.0
C6152 C 0.89363 0.93914 0.53175 0.0
C6153 C 0.87584 0.92948 0.53177 0.0
C6154 C 0.91957 0.96812 0.54177 0.0
C6155 C 0.9326 0.95868 0.54549 0.0
C6156 C 0.92498 0.98693 0.53807 0.0
C6157 C 0.91203 0.99726 0.53267 0.0
C6158 C 0.89916 0.98894 0.51726 0.0
C6159 C 0.88696 0.99872 0.51227 0.0
C6160 C 0.88759 0.01691 0.52249 0.0
C6161 C 0.90045 0.02538 0.53769 0.0
C6162 C 0.91267 0.01564 0.54275 0.0
C6163 C 1.00147 0.99616 0.52473 0.0
C6164 C 0.01055 0.01354 0.53674 0.0
C6165 C 0.98385 0.98728 0.52652 0.0
C6166 C 0.97486 0.99559 0.54029 0.0
C6167 C 0.98384 0.01288 0.55235 0.0
C6168 C 1.00157 0.02164 0.55074 0.0
C6169 C 0.95605 0.98624 0.54194 0.0
C6170 C 0.94313 0.99583 0.53851 0.0
C6171 C 0.95073 0.96747 0.54562 0.0
C6172 C 0.96386 0.95687 0.54984 0.0
C6173 C 0.97766 0.965 0.56438 0.0
C6174 C 0.9902 0.95511 0.56804 0.0
C6175 C 0.989 0.93698 0.55732 0.0
C6176 C 0.97522 0.92869 0.54298 0.0
C6177 C 0.96266 0.93855 0.53925 0.0
H6178 H 0.99873 0.92935 0.56016 0.0
H6179 H 0.87814 0.02447 0.5186 0.0
H6180 H 0.87507 0.11218 0.24224 0.0
H6181 H 0.86072 0.13831 0.243 0.0
H6182 H 0.90449 0.17636 0.28066 0.0
H6183 H 0.91819 0.14968 0.28089 0.0
H6184 H 0.88068 0.19019 0.2902 0.0
H6185 H 0.89209 0.17452 0.22709 0.0
H6186 H 0.89151 0.15433 0.19623 0.0
H6187 H 0.83464 0.13962 0.18976 0.0
H6188 H 0.83488 0.15956 0.22069 0.0
H6189 H 0.84335 0.2581 0.23191 0.0
H6190 H 0.85573 0.23109 0.23377 0.0
H6191 H 0.83754 0.22889 0.28782 0.0
H6192 H 0.82599 0.25706 0.28632 0.0
H6193 H 0.84877 0.1974 0.23269 0.0
H6194 H 0.85773 0.20273 0.31252 0.0
H6195 H 0.86403 0.22747 0.34143 0.0
H6196 H 0.88944 0.27005 0.31142 0.0
H6197 H 0.88345 0.24555 0.28243 0.0
C6198 C 0.88176 0.12608 0.25073 0.0
C6199 C 0.8981 0.12834 0.2614 0.0
C6200 C 0.87351 0.14144 0.25101 0.0
C6201 C 0.88136 0.16031 0.26144 0.0
C6202 C 0.89766 0.16246 0.27229 0.0
C6203 C 0.90571 0.14694 0.27236 0.0
C6204 C 0.87276 0.17745 0.26114 0.0
C6205 C 0.87369 0.1915 0.27749 0.0
C6206 C 0.86374 0.18043 0.2448 0.0
C6207 C 0.86351 0.16834 0.22628 0.0
C6208 C 0.87946 0.16687 0.21913 0.0
C6209 C 0.87919 0.15549 0.20162 0.0
C6210 C 0.86305 0.14565 0.19107 0.0
C6211 C 0.84713 0.14721 0.19797 0.0
C6212 C 0.84733 0.15856 0.21548 0.0
C6213 C 0.84188 0.25197 0.24431 0.0
C6214 C 0.83327 0.26014 0.25882 0.0
C6215 C 0.84904 0.23613 0.24535 0.0
C6216 C 0.84815 0.22725 0.26103 0.0
C6217 C 0.8392 0.23519 0.27556 0.0
C6218 C 0.83217 0.25137 0.2746 0.0
C6219 C 0.85656 0.21006 0.26174 0.0
C6220 C 0.85563 0.19602 0.24544 0.0
C6221 C 0.86623 0.2076 0.27791 0.0
C6222 C 0.86995 0.22235 0.29529 0.0
C6223 C 0.86469 0.21736 0.31212 0.0
C6224 C 0.8682 0.23135 0.32852 0.0
C6225 C 0.87707 0.25034 0.32825 0.0
C6226 C 0.88251 0.25537 0.31161 0.0
C6227 C 0.87905 0.24144 0.29519 0.0
H6228 H 0.87977 0.26115 0.34095 0.0
H6229 H 0.86287 0.13685 0.17751 0.0
H6230 H 0.74161 0.09884 0.01351 0.0
H6231 H 0.70952 0.08876 0.01448 0.0
H6232 H 0.70658 0.14694 0.01603 0.0
H6233 H 0.73855 0.1571 0.01467 0.0
H6234 H 0.69359 0.13012 0.04644 0.0
H6235 H 0.68639 0.11776 0.98054 0.0
H6236 H 0.69095 0.1049 0.94835 0.0
H6237 H 0.6725 0.04734 0.95739 0.0
H6238 H 0.66813 0.05983 0.98976 0.0
H6239 H 0.60016 0.09568 0.05567 0.0
H6240 H 0.62893 0.11275 0.04797 0.0
H6241 H 0.64032 0.05853 0.02776 0.0
H6242 H 0.61083 0.04168 0.03345 0.0
H6243 H 0.64743 0.07926 1.00388 0.0
H6244 H 0.67573 0.09859 0.07363 0.0
H6245 H 0.67508 0.11294 0.1066 0.0
H6246 H 0.65371 0.15667 0.08974 0.0
H6247 H 0.65509 0.14304 0.0567 0.0
C6248 C 0.73407 0.1094 0.01369 0.0
C6249 C 0.74259 0.12877 0.01417 0.0
C6250 C 0.71576 0.10361 0.01411 0.0
C6251 C 0.70577 0.11713 0.01525 0.0
C6252 C 0.71411 0.13632 0.01502 0.0
C6253 C 0.73236 0.14207 0.01427 0.0
C6254 C 0.6872 0.11166 0.0193 0.0
C6255 C 0.68335 0.11925 0.03699 0.0
C6256 C 0.67403 0.09739 0.00702 0.0
C6257 C 0.67708 0.08977 0.98768 0.0
C6258 C 0.68352 0.10236 0.97577 0.0
C6259 C 0.68602 0.09513 0.95745 0.0
C6260 C 0.68205 0.07532 0.95084 0.0
C6261 C 0.67559 0.06269 0.96254 0.0
C6262 C 0.67309 0.06984 0.98087 0.0
C6263 C 0.60911 0.08752 0.05011 0.0
C6264 C 0.60372 0.0674 0.04602 0.0
C6265 C 0.62565 0.09728 0.04587 0.0
C6266 C 0.63718 0.08702 0.03782 0.0
C6267 C 0.63181 0.06685 0.03413 0.0
C6268 C 0.61508 0.05717 0.03773 0.0
C6269 C 0.65406 0.09691 0.03151 0.0
C6270 C 0.65758 0.09027 0.01327 0.0
C6271 C 0.667 0.11202 0.04328 0.0
C6272 C 0.66488 0.11941 0.06281 0.0
C6273 C 0.67065 0.1111 0.07701 0.0
C6274 C 0.67034 0.11922 0.09568 0.0
C6275 C 0.66402 0.13549 0.10027 0.0
C6276 C 0.65838 0.14393 0.08618 0.0
C6277 C 0.65907 0.13611 0.06749 0.0
H6278 H 0.66367 0.14166 0.11474 0.0
H6279 H 0.68394 0.06975 0.93663 0.0
H6280 H 0.18858 0.48384 0.26576 0.0
H6281 H 0.19606 0.45784 0.27848 0.0
H6282 H 0.24634 0.46952 0.25587 0.0
H6283 H 0.23854 0.49496 0.24237 0.0
H6284 H 0.23364 0.43267 0.25158 0.0
H6285 H 0.24094 0.48614 0.30321 0.0
H6286 H 0.23111 0.51105 0.32386 0.0
H6287 H 0.1903 0.46753 0.3396 0.0
H6288 H 0.19977 0.44237 0.31885 0.0
H6289 H 0.29004 0.40332 0.31081 0.0
H6290 H 0.27414 0.42204 0.2956 0.0
H6291 H 0.22528 0.39247 0.31349 0.0
H6292 H 0.24108 0.373 0.32842 0.0
H6293 H 0.2324 0.43398 0.31938 0.0
H6294 H 0.23023 0.38045 0.27149 0.0
H6295 H 0.24123 0.35645 0.25105 0.0
H6296 H 0.27524 0.40131 0.2295 0.0
H6297 H 0.26417 0.42557 0.2496 0.0
C6298 C 0.20121 0.48081 0.26345 0.0
C6299 C 0.21305 0.49153 0.2532 0.0
C6300 C 0.20549 0.46598 0.27078 0.0
C6301 C 0.22191 0.46192 0.26845 0.0
C6302 C 0.23359 0.47237 0.25787 0.0
C6303 C 0.22917 0.48697 0.25023 0.0
C6304 C 0.22721 0.4472 0.2774 0.0
C6305 C 0.23348 0.43305 0.26642 0.0
C6306 C 0.22649 0.4473 0.29669 0.0
C6307 C 0.22093 0.4624 0.30933 0.0
C6308 C 0.22981 0.4819 0.31099 0.0
C6309 C 0.22431 0.49606 0.32272 0.0
C6310 C 0.21005 0.49088 0.33298 0.0
C6311 C 0.20132 0.47152 0.33161 0.0
C6312 C 0.20675 0.4573 0.31988 0.0
C6313 C 0.27587 0.40052 0.31134 0.0
C6314 C 0.26679 0.38638 0.32057 0.0
C6315 C 0.26683 0.41134 0.30271 0.0
C6316 C 0.24854 0.40842 0.30322 0.0
C6317 C 0.23943 0.39485 0.31294 0.0
C6318 C 0.24849 0.38385 0.32154 0.0
C6319 C 0.23928 0.41991 0.29364 0.0
C6320 C 0.23227 0.43343 0.30448 0.0
C6321 C 0.23958 0.4194 0.27429 0.0
C6322 C 0.24629 0.40485 0.26207 0.0
C6323 C 0.24 0.3852 0.26237 0.0
C6324 C 0.24626 0.37154 0.25084 0.0
C6325 C 0.259 0.37735 0.23905 0.0
C6326 C 0.26536 0.39682 0.23864 0.0
C6327 C 0.25901 0.41053 0.25002 0.0
H6328 H 0.26392 0.36677 0.23021 0.0
H6329 H 0.2058 0.50186 0.34203 0.0
H6330 H 0.28039 0.4732 0.05955 0.0
H6331 H 0.25711 0.48828 0.05209 0.0
H6332 H 0.23477 0.44112 0.00597 0.0
H6333 H 0.25848 0.42618 0.01307 0.0
H6334 H 0.23383 0.47315 0.99558 0.0
H6335 H 0.21561 0.44667 0.04833 0.0
H6336 H 0.21861 0.44023 0.08008 0.0
H6337 H 0.22907 0.50047 0.10311 0.0
H6338 H 0.22638 0.50731 0.07147 0.0
H6339 H 0.15655 0.50765 0.98347 0.0
H6340 H 0.17526 0.4867 0.99004 0.0
H6341 H 0.20551 0.53135 0.035 0.0
H6342 H 0.18673 0.55206 0.02879 0.0
H6343 H 0.19971 0.49708 0.04495 0.0
H6344 H 0.22028 0.52323 0.99163 0.0
H6345 H 0.2169 0.52927 0.95975 0.0
H6346 H 0.20109 0.46856 0.93776 0.0
H6347 H 0.20416 0.46217 0.96956 0.0
C6348 C 0.27053 0.46597 0.04782 0.0
C6349 C 0.27131 0.44839 0.03698 0.0
C6350 C 0.25709 0.47459 0.04362 0.0
C6351 C 0.24384 0.46572 0.02866 0.0
C6352 C 0.24472 0.44827 0.01764 0.0
C6353 C 0.25829 0.4397 0.02174 0.0
C6354 C 0.22934 0.47489 0.02445 0.0
C6355 C 0.22617 0.47804 0.00633 0.0
C6356 C 0.21935 0.48157 0.03844 0.0
C6357 C 0.22093 0.47751 0.0575 0.0
C6358 C 0.21867 0.45856 0.06015 0.0
C6359 C 0.2203 0.45483 0.07813 0.0
C6360 C 0.22407 0.46993 0.0936 0.0
C6361 C 0.22617 0.48879 0.09111 0.0
C6362 C 0.22457 0.4926 0.07316 0.0
C6363 C 0.16704 0.51289 0.99491 0.0
C6364 C 0.17026 0.53166 0.00543 0.0
C6365 C 0.17784 0.50095 0.99856 0.0
C6366 C 0.19204 0.50751 0.01285 0.0
C6367 C 0.19475 0.52593 0.02384 0.0
C6368 C 0.18405 0.53785 0.02016 0.0
C6369 C 0.20448 0.49561 0.01621 0.0
C6370 C 0.20726 0.49196 0.03418 0.0
C6371 C 0.21401 0.48839 1.00208 0.0
C6372 C 0.21225 0.49223 0.98297 0.0
C6373 C 0.21595 0.51118 0.98001 0.0
C6374 C 0.21412 0.51466 0.96195 0.0
C6375 C 0.20874 0.49931 0.94674 0.0
C6376 C 0.20523 0.48044 0.94955 0.0
C6377 C 0.20702 0.47687 0.96759 0.0
H6378 H 0.20732 0.50204 0.93277 0.0
H6379 H 0.22533 0.46702 0.10751 0.0
H6380 H 0.92371 0.01342 0.28526 0.0
H6381 H 0.90616 0.98095 0.28468 0.0
H6382 H 0.85975 0.99472 0.26277 0.0
H6383 H 0.87751 0.02778 0.26317 0.0
H6384 H 0.85182 0.97147 0.28993 0.0
H6385 H 0.88073 0.96784 0.23431 0.0
H6386 H 0.90594 0.97305 0.21558 0.0
H6387 H 0.93121 0.94038 0.24625 0.0
H6388 H 0.90627 0.93521 0.26536 0.0
H6389 H 0.80347 0.87086 0.26966 0.0
H6390 H 0.81702 0.90463 0.26871 0.0
H6391 H 0.86886 0.8962 0.27979 0.0
H6392 H 0.85544 0.8625 0.28016 0.0
H6393 H 0.8722 0.91738 0.25615 0.0
H6394 H 0.84518 0.92259 0.31313 0.0
H6395 H 0.82081 0.91765 0.33298 0.0
H6396 H 0.79291 0.94731 0.3013 0.0
H6397 H 0.81703 0.95221 0.2811 0.0
C6398 C 0.90975 0.00983 0.28032 0.0
C6399 C 0.90228 0.02372 0.27421 0.0
C6400 C 0.89964 0.99094 0.27994 0.0
C6401 C 0.88147 0.98486 0.27347 0.0
C6402 C 0.8737 0.99874 0.26781 0.0
C6403 C 0.88394 0.01779 0.26803 0.0
C6404 C 0.87106 0.96401 0.27242 0.0
C6405 C 0.85613 0.95967 0.28225 0.0
C6406 C 0.87668 0.94824 0.26287 0.0
C6407 C 0.89169 0.95128 0.25138 0.0
C6408 C 0.89173 0.96189 0.23716 0.0
C6409 C 0.90596 0.96482 0.22646 0.0
C6410 C 0.92019 0.95709 0.22975 0.0
C6411 C 0.92019 0.94638 0.24373 0.0
C6412 C 0.906 0.94343 0.25449 0.0
C6413 C 0.81776 0.87617 0.27199 0.0
C6414 C 0.8282 0.86357 0.27502 0.0
C6415 C 0.82561 0.89573 0.27155 0.0
C6416 C 0.84421 0.90361 0.27442 0.0
C6417 C 0.85456 0.89095 0.27745 0.0
C6418 C 0.84676 0.87144 0.27773 0.0
C6419 C 0.85303 0.92467 0.27393 0.0
C6420 C 0.86774 0.92909 0.26379 0.0
C6421 C 0.8473 0.94047 0.28335 0.0
C6422 C 0.83281 0.93757 0.29547 0.0
C6423 C 0.83378 0.92793 0.31031 0.0
C6424 C 0.82003 0.92516 0.32164 0.0
C6425 C 0.80529 0.93211 0.31837 0.0
C6426 C 0.80431 0.9419 0.3038 0.0
C6427 C 0.81803 0.94469 0.29241 0.0
H6428 H 0.79466 0.92995 0.32716 0.0
H6429 H 0.93119 0.95936 0.22144 0.0
H6430 H 0.71142 0.10986 0.7805 0.0
H6431 H 0.73082 0.14176 0.78197 0.0
H6432 H 0.76975 0.11689 0.75574 0.0
H6433 H 0.75023 0.08458 0.75395 0.0
H6434 H 0.7829 0.15122 0.78828 0.0
H6435 H 0.7499 0.13102 0.72809 0.0
H6436 H 0.72325 0.11632 0.70562 0.0
H6437 H 0.69815 0.15862 0.73124 0.0
H6438 H 0.72455 0.17338 0.75408 0.0
H6439 H 0.8214 0.24914 0.78083 0.0
H6440 H 0.81218 0.21403 0.77423 0.0
H6441 H 0.75762 0.21587 0.77676 0.0
H6442 H 0.76685 0.25077 0.78068 0.0
H6443 H 0.75757 0.18991 0.75043 0.0
H6444 H 0.79136 0.20786 0.81336 0.0
H6445 H 0.81989 0.22375 0.83284 0.0
H6446 H 0.84496 0.18551 0.8002 0.0
H6447 H 0.81685 0.16986 0.78019 0.0
C6448 C 0.72418 0.11105 0.77523 0.0
C6449 C 0.72919 0.09464 0.76693 0.0
C6450 C 0.73525 0.12932 0.77611 0.0
C6451 C 0.7516 0.13159 0.76885 0.0
C6452 C 0.75715 0.11533 0.76142 0.0
C6453 C 0.74596 0.09693 0.76035 0.0
C6454 C 0.76195 0.15109 0.76784 0.0
C6455 C 0.77756 0.15972 0.77987 0.0
C6456 C 0.75505 0.16196 0.75666 0.0
C6457 C 0.73915 0.1532 0.7429 0.0
C6458 C 0.73863 0.13708 0.72905 0.0
C6459 C 0.72358 0.12875 0.71622 0.0
C6460 C 0.709 0.1365 0.71703 0.0
C6461 C 0.70945 0.15262 0.73064 0.0
C6462 C 0.72446 0.16098 0.74352 0.0
C6463 C 0.80743 0.24188 0.77942 0.0
C6464 C 0.79468 0.25232 0.78003 0.0
C6465 C 0.80216 0.22182 0.77611 0.0
C6466 C 0.78414 0.21207 0.77513 0.0
C6467 C 0.77157 0.22286 0.77707 0.0
C6468 C 0.77679 0.24278 0.77936 0.0
C6469 C 0.77795 0.19075 0.77195 0.0
C6470 C 0.76311 0.18159 0.75887 0.0
C6471 C 0.78569 0.17947 0.78211 0.0
C6472 C 0.80204 0.18779 0.79524 0.0
C6473 C 0.80294 0.20278 0.81047 0.0
C6474 C 0.81903 0.2118 0.82152 0.0
C6475 C 0.83416 0.20562 0.81774 0.0
C6476 C 0.83323 0.19029 0.80307 0.0
C6477 C 0.81724 0.18137 0.79185 0.0
H6478 H 0.84664 0.21279 0.82611 0.0
H6479 H 0.69736 0.13004 0.70708 0.0
loop_
_geom_bond_atom_site_label_1
_geom_bond_atom_site_label_2
_geom_bond_distance
_geom_bond_site_symmetry_2
_ccdc_geom_bond_type
O0 Cd1 2.223 . S
O0 C8 1.315 . S
Cd1 O0 2.223 . S
Cd1 O4 2.297 . S
Cd1 O5 2.439 . S
Cd1 O11 2.240 . S
Cd2 O3 2.240 . S
Cd2 O10 2.223 . S
Cd2 O12 2.297 . S
Cd2 O13 2.439 . S
O3 Cd2 2.240 . S
O3 C8 1.279 . S
O4 Cd1 2.297 . S
O4 C6 1.247 . S
O5 Cd1 2.439 . S
O5 C6 1.208 . S
C6 O4 1.247 . S
C6 O5 1.208 . S
C7 O12 1.247 . S
C7 O13 1.208 . S
C8 O0 1.315 . S
C8 O3 1.279 . S
C9 O10 1.315 . S
C9 O11 1.279 . S
O10 Cd2 2.223 . S
O10 C9 1.315 . S
O11 Cd1 2.240 . S
O11 C9 1.279 . S
O12 Cd2 2.297 . S
O12 C7 1.247 . S
O13 Cd2 2.439 . S
O13 C7 1.208 . S
O14 Cd15 2.240 . S
O14 C22 1.320 . S
Cd15 O14 2.240 . S
Cd15 O18 2.297 . S
Cd15 O19 2.439 . S
Cd15 O25 2.240 1_655 S
Cd16 O17 2.240 1_455 S
Cd16 O24 2.223 . S
Cd16 O26 2.297 . S
Cd16 O27 2.455 . S
O17 Cd16 2.240 1_655 S
O17 C22 1.279 . S
O18 Cd15 2.297 . S
O18 C20 1.247 . S
O19 Cd15 2.439 . S
O19 C20 1.208 . S
C20 O18 1.247 . S
C20 O19 1.208 . S
C21 O26 1.247 . S
C21 O27 1.227 . S
C22 O14 1.320 . S
C22 O17 1.279 . S
C23 O24 1.315 . S
C23 O25 1.279 . S
O24 Cd16 2.223 . S
O24 C23 1.315 . S
O25 Cd15 2.240 1_455 S
O25 C23 1.279 . S
O26 Cd16 2.297 . S
O26 C21 1.247 . S
O27 Cd16 2.455 . S
O27 C21 1.227 . S
O28 Cd29 2.223 . S
O28 C36 1.315 . S
Cd29 O28 2.223 . S
Cd29 O32 2.297 . S
Cd29 O33 2.439 . S
Cd29 O39 2.240 . S
Cd30 O31 2.240 . S
Cd30 O38 2.223 . S
Cd30 O40 2.297 . S
Cd30 O41 2.439 . S
O31 Cd30 2.240 . S
O31 C36 1.279 . S
O32 Cd29 2.297 . S
O32 C34 1.247 . S
O33 Cd29 2.439 . S
O33 C34 1.208 . S
C34 O32 1.247 . S
C34 O33 1.208 . S
C35 O40 1.247 . S
C35 O41 1.208 . S
C36 O28 1.315 . S
C36 O31 1.279 . S
C37 O38 1.315 . S
C37 O39 1.279 . S
O38 Cd30 2.223 . S
O38 C37 1.315 . S
O39 Cd29 2.240 . S
O39 C37 1.279 . S
O40 Cd30 2.297 . S
O40 C35 1.247 . S
O41 Cd30 2.439 . S
O41 C35 1.208 . S
O42 Cd43 2.223 . S
O42 C50 1.315 . S
Cd43 O42 2.223 . S
Cd43 O46 2.297 . S
Cd43 O47 2.439 . S
Cd43 O53 2.240 . S
Cd44 O45 2.240 . S
Cd44 O52 2.223 . S
Cd44 O54 2.297 . S
Cd44 O55 2.439 . S
O45 Cd44 2.240 . S
O45 C50 1.279 . S
O46 Cd43 2.297 . S
O46 C48 1.247 . S
O47 Cd43 2.439 . S
O47 C48 1.208 . S
C48 O46 1.247 . S
C48 O47 1.208 . S
C49 O54 1.247 . S
C49 O55 1.208 . S
C50 O42 1.315 . S
C50 O45 1.279 . S
C51 O52 1.315 . S
C51 O53 1.279 . S
O52 Cd44 2.223 . S
O52 C51 1.315 . S
O53 Cd43 2.240 . S
O53 C51 1.279 . S
O54 Cd44 2.297 . S
O54 C49 1.247 . S
O55 Cd44 2.439 . S
O55 C49 1.208 . S
O56 Cd57 2.223 . S
O56 C64 1.315 . S
Cd57 O56 2.223 . S
Cd57 O60 2.297 . S
Cd57 O61 2.439 . S
Cd57 O67 2.240 . S
Cd58 O59 2.240 . S
Cd58 O66 2.223 . S
Cd58 O68 2.297 . S
Cd58 O69 2.439 . S
O59 Cd58 2.240 . S
O59 C64 1.279 . S
O60 Cd57 2.297 . S
O60 C62 1.247 . S
O61 Cd57 2.439 . S
O61 C62 1.208 . S
C62 O60 1.247 . S
C62 O61 1.208 . S
C63 O68 1.247 . S
C63 O69 1.208 . S
C64 O56 1.315 . S
C64 O59 1.279 . S
C65 O66 1.315 . S
C65 O67 1.279 . S
O66 Cd58 2.223 . S
O66 C65 1.315 . S
O67 Cd57 2.240 . S
O67 C65 1.279 . S
O68 Cd58 2.297 . S
O68 C63 1.247 . S
O69 Cd58 2.439 . S
O69 C63 1.208 . S
O70 Cd71 2.223 . S
O70 C78 1.315 . S
Cd71 O70 2.223 . S
Cd71 O74 2.297 . S
Cd71 O75 2.439 . S
Cd71 O81 2.240 . S
Cd72 O73 2.240 . S
Cd72 O80 2.223 . S
Cd72 O82 2.297 . S
Cd72 O83 2.439 . S
O73 Cd72 2.240 . S
O73 C78 1.279 . S
O74 Cd71 2.297 . S
O74 C76 1.247 . S
O75 Cd71 2.439 . S
O75 C76 1.208 . S
C76 O74 1.247 . S
C76 O75 1.208 . S
C77 O82 1.247 . S
C77 O83 1.208 . S
C78 O70 1.315 . S
C78 O73 1.279 . S
C79 O80 1.315 . S
C79 O81 1.279 . S
O80 Cd72 2.223 . S
O80 C79 1.315 . S
O81 Cd71 2.240 . S
O81 C79 1.279 . S
O82 Cd72 2.297 . S
O82 C77 1.247 . S
O83 Cd72 2.439 . S
O83 C77 1.208 . S
O84 Cd85 2.223 . S
O84 C92 1.315 . S
Cd85 O84 2.223 . S
Cd85 O88 2.297 . S
Cd85 O89 2.439 . S
Cd85 O95 2.240 . S
Cd86 O87 2.240 . S
Cd86 O94 2.223 . S
Cd86 O96 2.297 . S
Cd86 O97 2.439 . S
O87 Cd86 2.240 . S
O87 C92 1.279 . S
O88 Cd85 2.297 . S
O88 C90 1.247 . S
O89 Cd85 2.439 . S
O89 C90 1.208 . S
C90 O88 1.247 . S
C90 O89 1.208 . S
C91 O96 1.247 . S
C91 O97 1.208 . S
C92 O84 1.315 . S
C92 O87 1.279 . S
C93 O94 1.315 . S
C93 O95 1.279 . S
O94 Cd86 2.223 . S
O94 C93 1.315 . S
O95 Cd85 2.240 . S
O95 C93 1.279 . S
O96 Cd86 2.297 . S
O96 C91 1.247 . S
O97 Cd86 2.439 . S
O97 C91 1.208 . S
O98 Cd99 2.223 . S
O98 C106 1.315 . S
Cd99 O98 2.223 . S
Cd99 O102 2.297 . S
Cd99 O103 2.439 . S
Cd99 O109 2.240 . S
Cd100 O101 2.240 . S
Cd100 O108 2.223 1_455 S
Cd100 O110 2.297 . S
Cd100 O111 2.439 . S
O101 Cd100 2.240 . S
O101 C106 1.279 . S
O102 Cd99 2.297 . S
O102 C104 1.247 . S
O103 Cd99 2.439 . S
O103 C104 1.208 . S
C104 O102 1.247 . S
C104 O103 1.208 . S
C105 O110 1.247 . S
C105 O111 1.208 . S
C106 O98 1.315 . S
C106 O101 1.279 . S
C107 O108 1.315 . S
C107 O109 1.279 1_655 S
O108 Cd100 2.223 1_655 S
O108 C107 1.315 . S
O109 Cd99 2.240 . S
O109 C107 1.279 1_455 S
O110 Cd100 2.297 . S
O110 C105 1.247 . S
O111 Cd100 2.439 . S
O111 C105 1.208 . S
O112 Cd113 2.223 . S
O112 C120 1.315 . S
Cd113 O112 2.223 . S
Cd113 O116 2.297 . S
Cd113 O117 2.439 . S
Cd113 O123 2.240 . S
Cd114 O115 2.240 . S
Cd114 O122 2.223 . S
Cd114 O124 2.297 . S
Cd114 O125 2.439 . S
O115 Cd114 2.240 . S
O115 C120 1.279 . S
O116 Cd113 2.297 . S
O116 C118 1.247 . S
O117 Cd113 2.439 . S
O117 C118 1.208 . S
C118 O116 1.247 . S
C118 O117 1.208 . S
C119 O124 1.247 . S
C119 O125 1.208 . S
C120 O112 1.315 . S
C120 O115 1.279 . S
C121 O122 1.315 . S
C121 O123 1.279 . S
O122 Cd114 2.223 . S
O122 C121 1.315 . S
O123 Cd113 2.240 . S
O123 C121 1.279 . S
O124 Cd114 2.297 . S
O124 C119 1.247 . S
O125 Cd114 2.439 . S
O125 C119 1.208 . S
O126 Cd127 2.223 . S
O126 C134 1.315 . S
Cd127 O126 2.223 . S
Cd127 O130 2.297 . S
Cd127 O131 2.439 . S
Cd127 O137 2.240 . S
Cd128 O129 2.240 . S
Cd128 O136 2.223 . S
Cd128 O138 2.297 . S
Cd128 O139 2.439 . S
O129 Cd128 2.240 . S
O129 C134 1.279 . S
O130 Cd127 2.297 . S
O130 C132 1.247 . S
O131 Cd127 2.439 . S
O131 C132 1.208 . S
C132 O130 1.247 . S
C132 O131 1.208 . S
C133 O138 1.247 . S
C133 O139 1.208 . S
C134 O126 1.315 . S
C134 O129 1.279 . S
C135 O136 1.315 . S
C135 O137 1.279 . S
O136 Cd128 2.223 . S
O136 C135 1.315 . S
O137 Cd127 2.240 . S
O137 C135 1.279 . S
O138 Cd128 2.297 . S
O138 C133 1.247 . S
O139 Cd128 2.439 . S
O139 C133 1.208 . S
O140 Cd141 2.223 1_545 S
O140 C148 1.315 1_545 S
Cd141 O140 2.223 1_565 S
Cd141 O144 2.297 . S
Cd141 O145 2.439 . S
Cd141 O151 2.240 1_565 S
Cd142 O143 2.240 1_545 S
Cd142 O150 2.223 . S
Cd142 O152 2.297 . S
Cd142 O153 2.439 1_545 S
O143 Cd142 2.240 1_565 S
O143 C148 1.279 . S
O144 Cd141 2.297 . S
O144 C146 1.247 . S
O145 Cd141 2.439 . S
O145 C146 1.208 . S
C146 O144 1.247 . S
C146 O145 1.208 . S
C147 O152 1.247 . S
C147 O153 1.208 1_545 S
C148 O140 1.315 1_565 S
C148 O143 1.279 . S
C149 O150 1.315 . S
C149 O151 1.279 . S
O150 Cd142 2.223 . S
O150 C149 1.315 . S
O151 Cd141 2.240 1_545 S
O151 C149 1.279 . S
O152 Cd142 2.297 . S
O152 C147 1.247 . S
O153 Cd142 2.439 1_565 S
O153 C147 1.208 1_565 S
O154 Cd155 2.223 . S
O154 C162 1.315 . S
Cd155 O154 2.223 . S
Cd155 O158 2.297 . S
Cd155 O159 2.439 . S
Cd155 O165 2.240 . S
Cd156 O157 2.240 1_556 S
Cd156 O164 2.223 1_556 S
Cd156 O166 2.297 . S
Cd156 O167 2.439 . S
O157 Cd156 2.240 1_554 S
O157 C162 1.279 . S
O158 Cd155 2.297 . S
O158 C160 1.247 . S
O159 Cd155 2.439 . S
O159 C160 1.208 . S
C160 O158 1.247 . S
C160 O159 1.208 . S
C161 O166 1.247 . S
C161 O167 1.208 . S
C162 O154 1.315 . S
C162 O157 1.279 . S
C163 O164 1.315 . S
C163 O165 1.279 . S
O164 Cd156 2.223 1_554 S
O164 C163 1.315 . S
O165 Cd155 2.240 . S
O165 C163 1.279 . S
O166 Cd156 2.297 . S
O166 C161 1.247 . S
O167 Cd156 2.439 . S
O167 C161 1.208 . S
O168 Cd169 2.223 . S
O168 C176 1.315 . S
Cd169 O168 2.223 . S
Cd169 O172 2.297 . S
Cd169 O173 2.439 . S
Cd169 O179 2.240 . S
Cd170 O171 2.240 . S
Cd170 O178 2.223 . S
Cd170 O180 2.297 1_554 S
Cd170 O181 2.439 1_554 S
O171 Cd170 2.240 . S
O171 C176 1.279 . S
O172 Cd169 2.297 . S
O172 C174 1.247 . S
O173 Cd169 2.439 . S
O173 C174 1.208 . S
C174 O172 1.247 . S
C174 O173 1.208 . S
C175 O180 1.247 . S
C175 O181 1.208 . S
C176 O168 1.315 . S
C176 O171 1.279 . S
C177 O178 1.315 . S
C177 O179 1.279 . S
O178 Cd170 2.223 . S
O178 C177 1.315 . S
O179 Cd169 2.240 . S
O179 C177 1.279 . S
O180 Cd170 2.297 1_556 S
O180 C175 1.247 . S
O181 Cd170 2.439 1_556 S
O181 C175 1.208 . S
O182 Cd183 2.223 . S
O182 C190 1.315 . S
Cd183 O182 2.223 . S
Cd183 O186 2.297 . S
Cd183 O187 2.439 . S
Cd183 O193 2.240 . S
Cd184 O185 2.240 . S
Cd184 O192 2.223 . S
Cd184 O194 2.297 1_554 S
Cd184 O195 2.439 1_554 S
O185 Cd184 2.240 . S
O185 C190 1.279 . S
O186 Cd183 2.297 . S
O186 C188 1.247 . S
O187 Cd183 2.439 . S
O187 C188 1.208 . S
C188 O186 1.247 . S
C188 O187 1.208 . S
C189 O194 1.247 . S
C189 O195 1.208 . S
C190 O182 1.315 . S
C190 O185 1.279 . S
C191 O192 1.315 . S
C191 O193 1.279 . S
O192 Cd184 2.223 . S
O192 C191 1.315 . S
O193 Cd183 2.240 . S
O193 C191 1.279 . S
O194 Cd184 2.297 1_556 S
O194 C189 1.247 . S
O195 Cd184 2.439 1_556 S
O195 C189 1.208 . S
O196 Cd197 2.223 . S
O196 C204 1.315 . S
Cd197 O196 2.223 . S
Cd197 O200 2.297 . S
Cd197 O201 2.439 . S
Cd197 O207 2.240 . S
Cd198 O199 2.240 . S
Cd198 O206 2.223 . S
Cd198 O208 2.297 . S
Cd198 O209 2.439 . S
O199 Cd198 2.240 . S
O199 C204 1.279 . S
O200 Cd197 2.297 . S
O200 C202 1.247 . S
O201 Cd197 2.439 . S
O201 C202 1.208 . S
C202 O200 1.247 . S
C202 O201 1.208 . S
C203 O208 1.247 . S
C203 O209 1.208 . S
C204 O196 1.315 . S
C204 O199 1.279 . S
C205 O206 1.315 . S
C205 O207 1.279 . S
O206 Cd198 2.223 . S
O206 C205 1.315 . S
O207 Cd197 2.240 . S
O207 C205 1.279 . S
O208 Cd198 2.297 . S
O208 C203 1.247 . S
O209 Cd198 2.439 . S
O209 C203 1.208 . S
O210 Cd211 2.223 . S
O210 C218 1.315 . S
Cd211 O210 2.223 . S
Cd211 O214 2.297 . S
Cd211 O215 2.439 . S
Cd211 O221 2.240 . S
Cd212 O213 2.240 . S
Cd212 O220 2.223 . S
Cd212 O222 2.297 . S
Cd212 O223 2.439 . S
O213 Cd212 2.240 . S
O213 C218 1.279 . S
O214 Cd211 2.297 . S
O214 C216 1.247 . S
O215 Cd211 2.439 . S
O215 C216 1.208 . S
C216 O214 1.247 . S
C216 O215 1.208 . S
C217 O222 1.247 . S
C217 O223 1.208 . S
C218 O210 1.315 . S
C218 O213 1.279 . S
C219 O220 1.315 . S
C219 O221 1.279 . S
O220 Cd212 2.223 . S
O220 C219 1.315 . S
O221 Cd211 2.240 . S
O221 C219 1.279 . S
O222 Cd212 2.297 . S
O222 C217 1.247 . S
O223 Cd212 2.439 . S
O223 C217 1.208 . S
O224 Cd225 2.223 . S
O224 C232 1.315 . S
Cd225 O224 2.223 . S
Cd225 O228 2.297 . S
Cd225 O229 2.439 . S
Cd225 O235 2.240 . S
Cd226 O227 2.240 . S
Cd226 O234 2.223 . S
Cd226 O236 2.297 . S
Cd226 O237 2.439 . S
O227 Cd226 2.240 . S
O227 C232 1.279 . S
O228 Cd225 2.297 . S
O228 C230 1.247 . S
O229 Cd225 2.439 . S
O229 C230 1.208 . S
C230 O228 1.247 . S
C230 O229 1.208 . S
C231 O236 1.247 . S
C231 O237 1.208 . S
C232 O224 1.315 . S
C232 O227 1.279 . S
C233 O234 1.315 . S
C233 O235 1.279 . S
O234 Cd226 2.223 . S
O234 C233 1.315 . S
O235 Cd225 2.240 . S
O235 C233 1.279 . S
O236 Cd226 2.297 . S
O236 C231 1.247 . S
O237 Cd226 2.439 . S
O237 C231 1.208 . S
O238 Cd239 2.223 . S
O238 C246 1.315 . S
Cd239 O238 2.223 . S
Cd239 O242 2.297 . S
Cd239 O243 2.439 . S
Cd239 O249 2.240 . S
Cd240 O241 2.240 . S
Cd240 O248 2.223 . S
Cd240 O250 2.297 . S
Cd240 O251 2.439 . S
O241 Cd240 2.240 . S
O241 C246 1.279 . S
O242 Cd239 2.297 . S
O242 C244 1.247 . S
O243 Cd239 2.439 . S
O243 C244 1.208 . S
C244 O242 1.247 . S
C244 O243 1.208 . S
C245 O250 1.247 . S
C245 O251 1.208 . S
C246 O238 1.315 . S
C246 O241 1.279 . S
C247 O248 1.315 . S
C247 O249 1.279 . S
O248 Cd240 2.223 . S
O248 C247 1.315 . S
O249 Cd239 2.240 . S
O249 C247 1.279 . S
O250 Cd240 2.297 . S
O250 C245 1.247 . S
O251 Cd240 2.439 . S
O251 C245 1.208 . S
O252 Cd253 2.223 . S
O252 C260 1.315 . S
Cd253 O252 2.223 . S
Cd253 O256 2.297 . S
Cd253 O257 2.439 . S
Cd253 O263 2.240 . S
Cd254 O255 2.240 . S
Cd254 O262 2.223 . S
Cd254 O264 2.297 . S
Cd254 O265 2.439 . S
O255 Cd254 2.240 . S
O255 C260 1.279 . S
O256 Cd253 2.297 . S
O256 C258 1.247 . S
O257 Cd253 2.439 . S
O257 C258 1.208 . S
C258 O256 1.247 . S
C258 O257 1.208 . S
C259 O264 1.247 . S
C259 O265 1.208 . S
C260 O252 1.315 . S
C260 O255 1.279 . S
C261 O262 1.315 . S
C261 O263 1.279 . S
O262 Cd254 2.223 . S
O262 C261 1.315 . S
O263 Cd253 2.240 . S
O263 C261 1.279 . S
O264 Cd254 2.297 . S
O264 C259 1.247 . S
O265 Cd254 2.439 . S
O265 C259 1.208 . S
O266 Cd267 2.223 . S
O266 C274 1.315 . S
Cd267 O266 2.223 . S
Cd267 O270 2.297 . S
Cd267 O271 2.439 . S
Cd267 O277 2.240 . S
Cd268 O269 2.240 . S
Cd268 O276 2.223 . S
Cd268 O278 2.297 . S
Cd268 O279 2.439 . S
O269 Cd268 2.240 . S
O269 C274 1.279 . S
O270 Cd267 2.297 . S
O270 C272 1.247 . S
O271 Cd267 2.439 . S
O271 C272 1.208 . S
C272 O270 1.247 . S
C272 O271 1.208 . S
C273 O278 1.247 . S
C273 O279 1.208 . S
C274 O266 1.315 . S
C274 O269 1.279 . S
C275 O276 1.315 . S
C275 O277 1.279 . S
O276 Cd268 2.223 . S
O276 C275 1.315 . S
O277 Cd267 2.240 . S
O277 C275 1.279 . S
O278 Cd268 2.297 . S
O278 C273 1.247 . S
O279 Cd268 2.439 . S
O279 C273 1.208 . S
O280 Cd281 2.223 . S
O280 C288 1.315 . S
Cd281 O280 2.223 . S
Cd281 O284 2.297 . S
Cd281 O285 2.439 1_554 S
Cd281 O291 2.240 1_554 S
Cd282 O283 2.240 1_556 S
Cd282 O290 2.223 1_556 S
Cd282 O292 2.297 . S
Cd282 O293 2.439 . S
O283 Cd282 2.240 1_554 S
O283 C288 1.279 . S
O284 Cd281 2.297 . S
O284 C286 1.247 . S
O285 Cd281 2.439 1_556 S
O285 C286 1.208 1_556 S
C286 O284 1.247 . S
C286 O285 1.208 1_554 S
C287 O292 1.247 . S
C287 O293 1.208 . S
C288 O280 1.315 . S
C288 O283 1.279 . S
C289 O290 1.315 1_556 S
C289 O291 1.302 . S
O290 Cd282 2.223 1_554 S
O290 C289 1.315 1_554 S
O291 Cd281 2.240 1_556 S
O291 C289 1.302 . S
O292 Cd282 2.297 . S
O292 C287 1.247 . S
O293 Cd282 2.439 . S
O293 C287 1.208 . S
O294 Cd295 2.223 . S
O294 C302 1.315 . S
Cd295 O294 2.223 . S
Cd295 O298 2.297 . S
Cd295 O299 2.439 . S
Cd295 O305 2.240 . S
Cd296 O297 2.240 . S
Cd296 O304 2.223 . S
Cd296 O306 2.297 . S
Cd296 O307 2.439 . S
O297 Cd296 2.240 . S
O297 C302 1.279 . S
O298 Cd295 2.297 . S
O298 C300 1.247 . S
O299 Cd295 2.439 . S
O299 C300 1.208 . S
C300 O298 1.247 . S
C300 O299 1.208 . S
C301 O306 1.247 . S
C301 O307 1.208 . S
C302 O294 1.315 . S
C302 O297 1.279 . S
C303 O304 1.315 . S
C303 O305 1.279 . S
O304 Cd296 2.223 . S
O304 C303 1.315 . S
O305 Cd295 2.240 . S
O305 C303 1.279 . S
O306 Cd296 2.297 . S
O306 C301 1.247 . S
O307 Cd296 2.439 . S
O307 C301 1.208 . S
O308 Cd309 2.223 . S
O308 C316 1.315 . S
Cd309 O308 2.223 . S
Cd309 O312 2.297 . S
Cd309 O313 2.439 . S
Cd309 O319 2.240 . S
Cd310 O311 2.240 . S
Cd310 O318 2.223 . S
Cd310 O320 2.297 . S
Cd310 O321 2.439 . S
O311 Cd310 2.240 . S
O311 C316 1.279 . S
O312 Cd309 2.297 . S
O312 C314 1.247 . S
O313 Cd309 2.439 . S
O313 C314 1.208 . S
C314 O312 1.247 . S
C314 O313 1.208 . S
C315 O320 1.247 . S
C315 O321 1.208 . S
C316 O308 1.315 . S
C316 O311 1.279 . S
C317 O318 1.315 . S
C317 O319 1.279 . S
O318 Cd310 2.223 . S
O318 C317 1.315 . S
O319 Cd309 2.240 . S
O319 C317 1.279 . S
O320 Cd310 2.297 . S
O320 C315 1.247 . S
O321 Cd310 2.439 . S
O321 C315 1.208 . S
O322 Cd323 2.223 . S
O322 C330 1.315 . S
Cd323 O322 2.223 . S
Cd323 O326 2.297 . S
Cd323 O327 2.439 . S
Cd323 O333 2.240 . S
Cd324 O325 2.240 . S
Cd324 O332 2.223 . S
Cd324 O334 2.297 . S
Cd324 O335 2.439 . S
O325 Cd324 2.240 . S
O325 C330 1.279 . S
O326 Cd323 2.297 . S
O326 C328 1.247 . S
O327 Cd323 2.439 . S
O327 C328 1.208 . S
C328 O326 1.247 . S
C328 O327 1.208 . S
C329 O334 1.247 . S
C329 O335 1.208 . S
C330 O322 1.315 . S
C330 O325 1.279 . S
C331 O332 1.315 . S
C331 O333 1.279 . S
O332 Cd324 2.223 . S
O332 C331 1.315 . S
O333 Cd323 2.240 . S
O333 C331 1.279 . S
O334 Cd324 2.297 . S
O334 C329 1.247 . S
O335 Cd324 2.439 . S
O335 C329 1.208 . S
Eu336 N367 2.657 . S
Eu336 N374 2.609 1_554 S
Eu336 O380 2.558 1_554 S
Eu336 O381 2.612 . S
Eu336 O383 2.339 . S
Eu336 O384 2.563 . S
Eu336 O385 2.478 . S
Eu336 O387 2.380 . S
Eu336 O388 2.432 1_554 S
Eu336 C400 2.848 1_455 S
C337 C340 1.429 . S
C337 C341 1.411 . S
C337 N344 1.377 . S
C338 C340 1.420 . S
C338 C342 1.423 . S
C338 C350 1.392 . S
C339 C341 1.420 . S
C339 C342 1.351 . S
C339 H362 0.931 . S
C340 C337 1.429 . S
C340 C338 1.420 . S
C340 N348 1.362 . S
C341 C337 1.411 . S
C341 C339 1.420 . S
C341 C346 1.395 . S
C342 C338 1.423 . S
C342 C339 1.351 . S
C342 H354 0.930 . S
C343 C345 1.400 . S
C343 C346 1.386 . S
C343 H355 0.930 . S
N344 C337 1.377 . S
N344 C345 1.321 . S
N344 Eu347 2.609 . S
C345 C343 1.400 . S
C345 N344 1.321 . S
C345 H352 0.930 . S
C346 C341 1.395 . S
C346 C343 1.386 . S
C346 H365 0.930 . S
Eu347 N344 2.609 . S
Eu347 N348 2.657 . S
Eu347 O381 2.380 . S
Eu347 O382 2.432 . S
Eu347 O386 2.558 . S
Eu347 O387 2.612 . S
Eu347 O389 2.339 . S
Eu347 O390 2.563 . S
Eu347 O391 2.419 . S
Eu347 C411 2.848 . S
N348 C340 1.362 . S
N348 Eu347 2.657 . S
N348 C349 1.334 . S
C349 N348 1.334 . S
C349 C351 1.413 1_554 S
C349 H356 0.929 1_554 S
C350 C338 1.392 . S
C350 C351 1.367 1_554 S
C350 H358 0.930 . S
C351 C349 1.413 1_556 S
C351 C350 1.367 1_556 S
C351 H353 0.930 . S
H352 C345 0.930 . S
H353 C351 0.930 . S
H354 C342 0.930 . S
H355 C343 0.930 . S
H356 C349 0.929 1_556 S
H357 C371 0.930 . S
H358 C350 0.930 . S
H359 C377 0.930 . S
H360 C368 0.929 . S
H361 C375 0.930 . S
H362 C339 0.931 . S
H363 C369 0.925 1_655 S
H364 C402 0.930 . S
H365 C346 0.930 . S
H366 C401 0.931 . S
N367 Eu336 2.657 . S
N367 C368 1.334 . S
N367 C372 1.362 1_545 S
C368 H360 0.929 . S
C368 N367 1.334 . S
C368 C371 1.413 1_545 S
C369 H363 0.925 1_455 S
C369 C370 1.394 1_455 S
C369 C371 1.373 . S
C370 C369 1.394 1_655 S
C370 C372 1.413 1_655 S
C370 C402 1.430 . S
C371 H357 0.930 . S
C371 C368 1.413 1_565 S
C371 C369 1.373 . S
C372 N367 1.362 1_565 S
C372 C370 1.413 1_455 S
C372 C376 1.429 1_554 S
H373 C378 0.930 . S
N374 Eu336 2.609 1_556 S
N374 C376 1.377 1_545 S
N374 C377 1.321 . S
C375 H361 0.930 . S
C375 C377 1.400 1_565 S
C375 C378 1.386 1_455 S
C376 C372 1.429 1_556 S
C376 N374 1.377 1_565 S
C376 C379 1.411 1_455 S
C377 H359 0.930 . S
C377 N374 1.321 . S
C377 C375 1.400 1_545 S
C378 H373 0.930 . S
C378 C375 1.386 1_655 S
C378 C379 1.395 . S
C379 C376 1.411 1_655 S
C379 C378 1.395 . S
C379 C401 1.420 . S
O380 Eu336 2.558 1_556 S
O380 C400 1.257 1_456 S
O381 Eu336 2.612 . S
O381 Eu347 2.380 . S
O381 C392 1.276 . S
O382 Eu347 2.432 . S
O382 C399 1.264 . S
O383 Eu336 2.339 . S
O383 C399 1.254 . S
O384 Eu336 2.563 . S
O384 C392 1.235 . S
O385 Eu336 2.478 . S
O385 C400 1.233 1_455 S
O386 Eu347 2.558 . S
O386 C411 1.257 . S
O387 Eu336 2.380 . S
O387 Eu347 2.612 . S
O387 C403 1.276 . S
O388 Eu336 2.432 1_556 S
O388 C410 1.264 . S
O389 Eu347 2.339 . S
O389 C410 1.254 1_554 S
O390 Eu347 2.563 . S
O390 C403 1.235 . S
O391 Eu347 2.419 . S
O391 C411 1.249 . S
C392 O381 1.276 . S
C392 O384 1.235 . S
C393 C395 1.393 1_556 S
C393 C397 1.395 . S
C393 C400 1.492 1_556 S
C394 C395 1.392 . S
C394 C396 1.386 1_554 S
C395 C393 1.393 1_554 S
C395 C394 1.392 . S
C395 H412 0.930 . S
C396 C394 1.386 1_556 S
C396 C398 1.395 . S
C396 H413 0.930 . S
C397 C393 1.395 . S
C397 C398 1.379 . S
C397 H414 0.930 . S
C398 C396 1.395 . S
C398 C397 1.379 . S
C398 H415 0.930 . S
C399 O382 1.264 . S
C399 O383 1.254 . S
C400 Eu336 2.848 1_655 S
C400 O380 1.257 1_654 S
C400 O385 1.233 1_655 S
C400 C393 1.492 1_554 S
C401 H366 0.931 . S
C401 C379 1.420 . S
C401 C402 1.351 1_556 S
C402 H364 0.930 . S
C402 C370 1.430 . S
C402 C401 1.351 1_554 S
C403 O387 1.276 . S
C403 O390 1.235 . S
C404 C405 1.393 . S
C404 C408 1.395 . S
C404 C411 1.492 . S
C405 C404 1.393 . S
C405 C406 1.392 . S
C405 H416 0.930 . S
C406 C405 1.392 . S
C406 C407 1.386 . S
C407 C406 1.386 . S
C407 C409 1.395 . S
C407 H417 0.930 . S
C408 C404 1.395 . S
C408 C409 1.379 . S
C408 H418 0.930 . S
C409 C407 1.395 . S
C409 C408 1.379 . S
C409 H419 0.930 . S
C410 O388 1.264 . S
C410 O389 1.254 1_556 S
C411 Eu347 2.848 . S
C411 O386 1.257 . S
C411 O391 1.249 . S
C411 C404 1.492 . S
H412 C395 0.930 . S
H413 C396 0.930 . S
H414 C397 0.930 . S
H415 C398 0.930 . S
H416 C405 0.930 . S
H417 C407 0.930 . S
H418 C408 0.930 . S
H419 C409 0.930 . S
Eu420 N451 2.657 . S
Eu420 N458 2.609 . S
Eu420 O464 2.558 . S
Eu420 O465 2.612 . S
Eu420 O467 2.339 . S
Eu420 O468 2.563 . S
Eu420 O469 2.419 . S
Eu420 O471 2.380 . S
Eu420 O472 2.432 . S
Eu420 C484 2.848 . S
C421 C424 1.429 . S
C421 C425 1.411 . S
C421 N428 1.377 . S
C422 C424 1.420 . S
C422 C426 1.423 . S
C422 C434 1.392 . S
C423 C425 1.420 . S
C423 C426 1.351 . S
C423 H446 0.931 . S
C424 C421 1.429 . S
C424 C422 1.420 . S
C424 N432 1.362 . S
C425 C421 1.411 . S
C425 C423 1.420 . S
C425 C430 1.395 . S
C426 C422 1.423 . S
C426 C423 1.351 . S
C426 H438 0.930 . S
C427 C429 1.400 . S
C427 C430 1.386 . S
C427 H439 0.930 . S
N428 C421 1.377 . S
N428 C429 1.321 . S
N428 Eu431 2.609 . S
C429 C427 1.400 . S
C429 N428 1.321 . S
C429 H436 0.930 . S
C430 C425 1.395 . S
C430 C427 1.386 . S
C430 H449 0.930 . S
Eu431 N428 2.609 . S
Eu431 N432 2.657 . S
Eu431 O465 2.380 . S
Eu431 O466 2.432 . S
Eu431 O470 2.558 . S
Eu431 O471 2.612 . S
Eu431 O473 2.339 . S
Eu431 O474 2.563 . S
Eu431 O475 2.419 . S
Eu431 C495 2.848 . S
N432 C424 1.362 . S
N432 Eu431 2.657 . S
N432 C433 1.334 . S
C433 N432 1.334 . S
C433 C435 1.413 . S
C433 H440 0.929 . S
C434 C422 1.392 . S
C434 C435 1.367 . S
C434 H442 0.930 . S
C435 C433 1.413 . S
C435 C434 1.367 . S
C435 H437 0.930 . S
H436 C429 0.930 . S
H437 C435 0.930 . S
H438 C426 0.930 . S
H439 C427 0.930 . S
H440 C433 0.929 . S
H441 C455 0.930 . S
H442 C434 0.930 . S
H443 C461 0.930 . S
H444 C452 0.929 . S
H445 C459 0.930 . S
H446 C423 0.931 . S
H447 C453 0.930 . S
H448 C486 0.930 . S
H449 C430 0.930 . S
H450 C485 0.931 . S
N451 Eu420 2.657 . S
N451 C452 1.334 . S
N451 C456 1.362 . S
C452 H444 0.929 . S
C452 N451 1.334 . S
C452 C455 1.413 . S
C453 H447 0.930 . S
C453 C454 1.392 . S
C453 C455 1.367 . S
C454 C453 1.392 . S
C454 C456 1.420 . S
C454 C486 1.423 . S
C455 H441 0.930 . S
C455 C452 1.413 . S
C455 C453 1.367 . S
C456 N451 1.362 . S
C456 C454 1.420 . S
C456 C460 1.429 . S
H457 C462 0.930 . S
N458 Eu420 2.609 . S
N458 C460 1.377 . S
N458 C461 1.321 . S
C459 H445 0.930 . S
C459 C461 1.400 . S
C459 C462 1.386 . S
C460 C456 1.429 . S
C460 N458 1.377 . S
C460 C463 1.411 . S
C461 H443 0.930 . S
C461 N458 1.321 . S
C461 C459 1.400 . S
C462 H457 0.930 . S
C462 C459 1.386 . S
C462 C463 1.395 . S
C463 C460 1.411 . S
C463 C462 1.395 . S
C463 C485 1.420 . S
O464 Eu420 2.558 . S
O464 C484 1.257 . S
O465 Eu420 2.612 . S
O465 Eu431 2.380 . S
O465 C476 1.276 . S
O466 Eu431 2.432 . S
O466 C483 1.264 . S
O467 Eu420 2.339 . S
O467 C483 1.254 . S
O468 Eu420 2.563 . S
O468 C476 1.235 . S
O469 Eu420 2.419 . S
O469 C484 1.249 . S
O470 Eu431 2.558 . S
O470 C495 1.257 . S
O471 Eu420 2.380 . S
O471 Eu431 2.612 . S
O471 C487 1.276 . S
O472 Eu420 2.432 . S
O472 C494 1.264 . S
O473 Eu431 2.339 . S
O473 C494 1.254 . S
O474 Eu431 2.563 . S
O474 C487 1.235 . S
O475 Eu431 2.419 . S
O475 C495 1.249 . S
C476 O465 1.276 . S
C476 O468 1.235 . S
C477 C479 1.393 . S
C477 C481 1.395 . S
C477 C484 1.492 . S
C478 C479 1.392 . S
C478 C480 1.386 . S
C479 C477 1.393 . S
C479 C478 1.392 . S
C479 H496 0.930 . S
C480 C478 1.386 . S
C480 C482 1.395 . S
C480 H497 0.930 . S
C481 C477 1.395 . S
C481 C482 1.379 . S
C481 H498 0.930 . S
C482 C480 1.395 . S
C482 C481 1.379 . S
C482 H499 0.930 . S
C483 O466 1.264 . S
C483 O467 1.254 . S
C484 Eu420 2.848 . S
C484 O464 1.257 . S
C484 O469 1.249 . S
C484 C477 1.492 . S
C485 H450 0.931 . S
C485 C463 1.420 . S
C485 C486 1.351 . S
C486 H448 0.930 . S
C486 C454 1.423 . S
C486 C485 1.351 . S
C487 O471 1.276 . S
C487 O474 1.235 . S
C488 C489 1.393 . S
C488 C492 1.395 . S
C488 C495 1.492 . S
C489 C488 1.393 . S
C489 C490 1.392 . S
C489 H500 0.930 . S
C490 C489 1.392 . S
C490 C491 1.386 . S
C491 C490 1.386 . S
C491 C493 1.395 . S
C491 H501 0.930 . S
C492 C488 1.395 . S
C492 C493 1.379 . S
C492 H502 0.930 . S
C493 C491 1.395 . S
C493 C492 1.379 . S
C493 H503 0.930 . S
C494 O472 1.264 . S
C494 O473 1.254 . S
C495 Eu431 2.848 . S
C495 O470 1.257 . S
C495 O475 1.249 . S
C495 C488 1.492 . S
H496 C479 0.930 . S
H497 C480 0.930 . S
H498 C481 0.930 . S
H499 C482 0.930 . S
H500 C489 0.930 . S
H501 C491 0.930 . S
H502 C492 0.930 . S
H503 C493 0.930 . S
Eu504 N535 2.657 . S
Eu504 N542 2.609 . S
Eu504 O548 2.558 . S
Eu504 O549 2.612 . S
Eu504 O551 2.339 . S
Eu504 O552 2.563 . S
Eu504 O553 2.419 . S
Eu504 O555 2.380 . S
Eu504 O556 2.432 . S
Eu504 C568 2.848 . S
C505 C508 1.429 . S
C505 C509 1.411 . S
C505 N512 1.377 1_565 S
C506 C508 1.420 . S
C506 C510 1.423 . S
C506 C518 1.392 . S
C507 C509 1.420 . S
C507 C510 1.351 . S
C507 H530 0.931 . S
C508 C505 1.429 . S
C508 C506 1.420 . S
C508 N516 1.362 1_565 S
C509 C505 1.411 . S
C509 C507 1.420 . S
C509 C514 1.395 . S
C510 C506 1.423 . S
C510 C507 1.351 . S
C510 H522 0.930 . S
C511 C513 1.400 . S
C511 C514 1.386 1_545 S
C511 H523 0.930 . S
N512 C505 1.377 1_545 S
N512 C513 1.321 . S
N512 Eu515 2.609 . S
C513 C511 1.400 . S
C513 N512 1.321 . S
C513 H520 0.930 . S
C514 C509 1.395 . S
C514 C511 1.386 1_565 S
C514 H533 0.930 . S
Eu515 N512 2.609 . S
Eu515 N516 2.657 . S
Eu515 O549 2.380 . S
Eu515 O550 2.432 . S
Eu515 O554 2.558 . S
Eu515 O555 2.612 . S
Eu515 O557 2.339 . S
Eu515 O558 2.563 . S
Eu515 O559 2.419 . S
Eu515 C579 2.848 . S
N516 C508 1.362 1_545 S
N516 Eu515 2.657 . S
N516 C517 1.334 1_545 S
C517 N516 1.334 1_565 S
C517 C519 1.413 . S
C517 H524 0.929 1_565 S
C518 C506 1.392 . S
C518 C519 1.367 . S
C518 H526 0.930 . S
C519 C517 1.413 . S
C519 C518 1.367 . S
C519 H521 0.930 . S
H520 C513 0.930 . S
H521 C519 0.930 . S
H522 C510 0.930 . S
H523 C511 0.930 . S
H524 C517 0.929 1_545 S
H525 C539 0.930 . S
H526 C518 0.930 . S
H527 C545 0.930 . S
H528 C536 0.929 . S
H529 C543 0.930 . S
H530 C507 0.931 . S
H531 C537 0.930 . S
H532 C570 0.930 . S
H533 C514 0.930 . S
H534 C569 0.931 . S
N535 Eu504 2.657 . S
N535 C536 1.334 . S
N535 C540 1.362 . S
C536 H528 0.929 . S
C536 N535 1.334 . S
C536 C539 1.413 . S
C537 H531 0.930 . S
C537 C538 1.392 . S
C537 C539 1.367 . S
C538 C537 1.392 . S
C538 C540 1.420 . S
C538 C570 1.423 . S
C539 H525 0.930 . S
C539 C536 1.413 . S
C539 C537 1.367 . S
C540 N535 1.362 . S
C540 C538 1.420 . S
C540 C544 1.429 . S
H541 C546 0.930 . S
N542 Eu504 2.609 . S
N542 C544 1.377 . S
N542 C545 1.321 . S
C543 H529 0.930 . S
C543 C545 1.400 . S
C543 C546 1.386 . S
C544 C540 1.429 . S
C544 N542 1.377 . S
C544 C547 1.411 . S
C545 H527 0.930 . S
C545 N542 1.321 . S
C545 C543 1.400 . S
C546 H541 0.930 . S
C546 C543 1.386 . S
C546 C547 1.395 . S
C547 C544 1.411 . S
C547 C546 1.395 . S
C547 C569 1.420 . S
O548 Eu504 2.558 . S
O548 C568 1.257 . S
O549 Eu504 2.612 . S
O549 Eu515 2.380 . S
O549 C560 1.276 . S
O550 Eu515 2.432 . S
O550 C567 1.264 . S
O551 Eu504 2.339 . S
O551 C567 1.254 . S
O552 Eu504 2.563 . S
O552 C560 1.235 . S
O553 Eu504 2.419 . S
O553 C568 1.249 . S
O554 Eu515 2.558 . S
O554 C579 1.257 . S
O555 Eu504 2.380 . S
O555 Eu515 2.612 . S
O555 C571 1.276 . S
O556 Eu504 2.432 . S
O556 C578 1.264 . S
O557 Eu515 2.339 . S
O557 C578 1.254 . S
O558 Eu515 2.563 . S
O558 C571 1.235 . S
O559 Eu515 2.419 . S
O559 C579 1.249 . S
C560 O549 1.276 . S
C560 O552 1.235 . S
C561 C563 1.393 . S
C561 C565 1.395 . S
C561 C568 1.492 . S
C562 C563 1.433 . S
C562 C564 1.394 . S
C563 C561 1.393 . S
C563 C562 1.433 . S
C563 H580 0.930 . S
C564 C562 1.394 . S
C564 C566 1.395 . S
C564 H581 0.930 1_545 S
C565 C561 1.395 . S
C565 C566 1.379 . S
C565 H582 0.930 . S
C566 C564 1.395 . S
C566 C565 1.379 . S
C566 H583 0.930 . S
C567 O550 1.264 . S
C567 O551 1.254 . S
C568 Eu504 2.848 . S
C568 O548 1.257 . S
C568 O553 1.249 . S
C568 C561 1.492 . S
C569 H534 0.931 . S
C569 C547 1.420 . S
C569 C570 1.351 . S
C570 H532 0.930 . S
C570 C538 1.423 . S
C570 C569 1.351 . S
C571 O555 1.276 . S
C571 O558 1.235 . S
C572 C573 1.393 . S
C572 C576 1.395 . S
C572 C579 1.492 . S
C573 C572 1.393 . S
C573 C574 1.392 . S
C573 H584 0.930 . S
C574 C573 1.392 . S
C574 C575 1.386 . S
C575 C574 1.386 . S
C575 C577 1.395 . S
C575 H585 0.930 . S
C576 C572 1.395 . S
C576 C577 1.379 . S
C576 H586 0.930 . S
C577 C575 1.395 . S
C577 C576 1.379 . S
C577 H587 0.930 . S
C578 O556 1.264 . S
C578 O557 1.254 . S
C579 Eu515 2.848 . S
C579 O554 1.257 . S
C579 O559 1.249 . S
C579 C572 1.492 . S
H580 C563 0.930 . S
H581 C564 0.930 1_565 S
H582 C565 0.930 . S
H583 C566 0.930 . S
H584 C573 0.930 . S
H585 C575 0.930 . S
H586 C576 0.930 . S
H587 C577 0.930 . S
Eu588 N619 2.657 . S
Eu588 N626 2.609 . S
Eu588 O632 2.558 . S
Eu588 O633 2.612 . S
Eu588 O635 2.339 . S
Eu588 O636 2.563 . S
Eu588 O637 2.419 . S
Eu588 O639 2.380 . S
Eu588 O640 2.432 . S
Eu588 C652 2.848 . S
C589 C592 1.429 . S
C589 C593 1.411 . S
C589 N596 1.377 . S
C590 C592 1.420 . S
C590 C594 1.423 . S
C590 C602 1.392 . S
C591 C593 1.420 . S
C591 C594 1.351 . S
C591 H614 0.931 . S
C592 C589 1.429 . S
C592 C590 1.420 . S
C592 N600 1.362 . S
C593 C589 1.411 . S
C593 C591 1.420 . S
C593 C598 1.395 . S
C594 C590 1.423 . S
C594 C591 1.351 . S
C594 H606 0.930 . S
C595 C597 1.400 . S
C595 C598 1.386 . S
C595 H607 0.930 . S
N596 C589 1.377 . S
N596 C597 1.321 . S
N596 Eu599 2.609 . S
C597 C595 1.400 . S
C597 N596 1.321 . S
C597 H604 0.930 . S
C598 C593 1.395 . S
C598 C595 1.386 . S
C598 H617 0.930 . S
Eu599 N596 2.609 . S
Eu599 N600 2.657 . S
Eu599 O633 2.380 . S
Eu599 O634 2.432 . S
Eu599 O638 2.558 . S
Eu599 O639 2.612 . S
Eu599 O641 2.339 . S
Eu599 O642 2.563 . S
Eu599 O643 2.419 . S
Eu599 C663 2.848 . S
N600 C592 1.362 . S
N600 Eu599 2.657 . S
N600 C601 1.334 . S
C601 N600 1.334 . S
C601 C603 1.413 . S
C601 H608 0.929 . S
C602 C590 1.392 . S
C602 C603 1.367 . S
C602 H610 0.930 . S
C603 C601 1.413 . S
C603 C602 1.367 . S
C603 H605 0.930 . S
H604 C597 0.930 . S
H605 C603 0.930 . S
H606 C594 0.930 . S
H607 C595 0.930 . S
H608 C601 0.929 . S
H609 C623 0.930 . S
H610 C602 0.930 . S
H611 C629 0.930 . S
H612 C620 0.929 . S
H613 C627 0.930 . S
H614 C591 0.931 . S
H615 C621 0.930 . S
H616 C654 0.930 . S
H617 C598 0.930 . S
H618 C653 0.931 . S
N619 Eu588 2.657 . S
N619 C620 1.334 . S
N619 C624 1.362 . S
C620 H612 0.929 . S
C620 N619 1.334 . S
C620 C623 1.413 . S
C621 H615 0.930 . S
C621 C622 1.392 . S
C621 C623 1.367 . S
C622 C621 1.392 . S
C622 C624 1.420 . S
C622 C654 1.423 . S
C623 H609 0.930 . S
C623 C620 1.413 . S
C623 C621 1.367 . S
C624 N619 1.362 . S
C624 C622 1.420 . S
C624 C628 1.429 . S
H625 C630 0.930 . S
N626 Eu588 2.609 . S
N626 C628 1.377 . S
N626 C629 1.321 . S
C627 H613 0.930 . S
C627 C629 1.400 . S
C627 C630 1.386 . S
C628 C624 1.429 . S
C628 N626 1.377 . S
C628 C631 1.411 . S
C629 H611 0.930 . S
C629 N626 1.321 . S
C629 C627 1.400 . S
C630 H625 0.930 . S
C630 C627 1.386 . S
C630 C631 1.395 . S
C631 C628 1.411 . S
C631 C630 1.395 . S
C631 C653 1.420 . S
O632 Eu588 2.558 . S
O632 C652 1.257 . S
O633 Eu588 2.612 . S
O633 Eu599 2.380 . S
O633 C644 1.276 . S
O634 Eu599 2.432 . S
O634 C651 1.264 . S
O635 Eu588 2.339 . S
O635 C651 1.254 . S
O636 Eu588 2.563 . S
O636 C644 1.235 . S
O637 Eu588 2.419 . S
O637 C652 1.249 . S
O638 Eu599 2.558 . S
O638 C663 1.257 . S
O639 Eu588 2.380 . S
O639 Eu599 2.612 . S
O639 C655 1.276 . S
O640 Eu588 2.432 . S
O640 C662 1.264 . S
O641 Eu599 2.339 . S
O641 C662 1.254 . S
O642 Eu599 2.563 . S
O642 C655 1.235 . S
O643 Eu599 2.419 . S
O643 C663 1.249 . S
C644 O633 1.276 . S
C644 O636 1.235 . S
C645 C647 1.393 . S
C645 C649 1.395 . S
C645 C652 1.492 . S
C646 C647 1.392 . S
C646 C648 1.386 . S
C647 C645 1.393 . S
C647 C646 1.392 . S
C647 H664 0.930 . S
C648 C646 1.386 . S
C648 C650 1.395 . S
C648 H665 0.930 . S
C649 C645 1.395 . S
C649 C650 1.379 . S
C649 H666 0.930 . S
C650 C648 1.395 . S
C650 C649 1.379 . S
C650 H667 0.930 . S
C651 O634 1.264 . S
C651 O635 1.254 . S
C652 Eu588 2.848 . S
C652 O632 1.257 . S
C652 O637 1.249 . S
C652 C645 1.492 . S
C653 H618 0.931 . S
C653 C631 1.420 . S
C653 C654 1.351 . S
C654 H616 0.930 . S
C654 C622 1.423 . S
C654 C653 1.351 . S
C655 O639 1.276 . S
C655 O642 1.235 . S
C656 C657 1.393 . S
C656 C660 1.395 . S
C656 C663 1.492 . S
C657 C656 1.393 . S
C657 C658 1.392 . S
C657 H668 0.930 . S
C658 C657 1.392 . S
C658 C659 1.386 . S
C659 C658 1.386 . S
C659 C661 1.395 . S
C659 H669 0.930 . S
C660 C656 1.395 . S
C660 C661 1.379 . S
C660 H670 0.930 . S
C661 C659 1.395 . S
C661 C660 1.379 . S
C661 H671 0.930 . S
C662 O640 1.264 . S
C662 O641 1.254 . S
C663 Eu599 2.848 . S
C663 O638 1.257 . S
C663 O643 1.249 . S
C663 C656 1.492 . S
H664 C647 0.930 . S
H665 C648 0.930 . S
H666 C649 0.930 . S
H667 C650 0.930 . S
H668 C657 0.930 . S
H669 C659 0.930 . S
H670 C660 0.930 . S
H671 C661 0.930 . S
Eu672 N703 2.657 . S
Eu672 N710 2.609 . S
Eu672 O716 2.558 . S
Eu672 O717 2.612 . S
Eu672 O719 2.339 . S
Eu672 O720 2.563 . S
Eu672 O721 2.419 . S
Eu672 O723 2.380 . S
Eu672 O724 2.432 . S
Eu672 C736 2.848 . S
C673 C676 1.429 . S
C673 C677 1.411 . S
C673 N680 1.377 1_565 S
C674 C676 1.420 . S
C674 C678 1.423 . S
C674 C686 1.392 . S
C675 C677 1.420 . S
C675 C678 1.351 . S
C675 H698 0.931 . S
C676 C673 1.429 . S
C676 C674 1.420 . S
C676 N684 1.384 . S
C677 C673 1.411 . S
C677 C675 1.420 . S
C677 C682 1.395 . S
C678 C674 1.423 . S
C678 C675 1.351 . S
C678 H690 0.930 . S
C679 C681 1.400 1_565 S
C679 C682 1.386 . S
C679 H691 0.930 . S
N680 C673 1.377 1_545 S
N680 C681 1.321 . S
N680 Eu683 2.609 . S
C681 C679 1.400 1_545 S
C681 N680 1.321 . S
C681 H688 0.930 . S
C682 C677 1.395 . S
C682 C679 1.386 . S
C682 H701 0.930 . S
Eu683 N680 2.609 . S
Eu683 N684 2.648 1_545 S
Eu683 O717 2.380 . S
Eu683 O718 2.432 . S
Eu683 O722 2.558 1_545 S
Eu683 O723 2.612 . S
Eu683 O725 2.339 . S
Eu683 O726 2.563 . S
Eu683 O727 2.419 1_545 S
Eu683 C747 2.848 1_545 S
N684 C676 1.384 . S
N684 Eu683 2.648 1_565 S
N684 C685 1.325 . S
C685 N684 1.325 . S
C685 C687 1.413 . S
C685 H692 0.929 1_565 S
C686 C674 1.392 . S
C686 C687 1.367 . S
C686 H694 0.930 . S
C687 C685 1.413 . S
C687 C686 1.367 . S
C687 H689 0.897 1_455 S
H688 C681 0.930 . S
H689 C687 0.897 1_655 S
H690 C678 0.930 . S
H691 C679 0.930 . S
H692 C685 0.929 1_545 S
H693 C707 0.930 . S
H694 C686 0.930 . S
H695 C713 0.930 . S
H696 C704 0.929 . S
H697 C711 0.930 . S
H698 C675 0.931 . S
H699 C705 0.930 . S
H700 C738 0.930 . S
H701 C682 0.930 . S
H702 C737 0.931 . S
N703 Eu672 2.657 . S
N703 C704 1.334 . S
N703 C708 1.362 . S
C704 H696 0.929 . S
C704 N703 1.334 . S
C704 C707 1.413 . S
C705 H699 0.930 . S
C705 C706 1.392 . S
C705 C707 1.367 . S
C706 C705 1.392 . S
C706 C708 1.420 . S
C706 C738 1.423 . S
C707 H693 0.930 . S
C707 C704 1.413 . S
C707 C705 1.367 . S
C708 N703 1.362 . S
C708 C706 1.420 . S
C708 C712 1.429 . S
H709 C714 0.930 . S
N710 Eu672 2.609 . S
N710 C712 1.377 . S
N710 C713 1.321 . S
C711 H697 0.930 . S
C711 C713 1.400 . S
C711 C714 1.386 . S
C712 C708 1.429 . S
C712 N710 1.377 . S
C712 C715 1.411 . S
C713 H695 0.930 . S
C713 N710 1.321 . S
C713 C711 1.400 . S
C714 H709 0.930 . S
C714 C711 1.386 . S
C714 C715 1.395 . S
C715 C712 1.411 . S
C715 C714 1.395 . S
C715 C737 1.420 . S
O716 Eu672 2.558 . S
O716 C736 1.257 . S
O717 Eu672 2.612 . S
O717 Eu683 2.380 . S
O717 C728 1.276 . S
O718 Eu683 2.432 . S
O718 C735 1.264 . S
O719 Eu672 2.339 . S
O719 C735 1.254 . S
O720 Eu672 2.563 . S
O720 C728 1.235 . S
O721 Eu672 2.419 . S
O721 C736 1.249 . S
O722 Eu683 2.558 1_565 S
O722 C747 1.257 . S
O723 Eu672 2.380 . S
O723 Eu683 2.612 . S
O723 C739 1.276 . S
O724 Eu672 2.432 . S
O724 C746 1.264 . S
O725 Eu683 2.339 . S
O725 C746 1.254 . S
O726 Eu683 2.563 . S
O726 C739 1.235 . S
O727 Eu683 2.419 1_565 S
O727 C747 1.249 . S
C728 O717 1.276 . S
C728 O720 1.235 . S
C729 C731 1.393 . S
C729 C733 1.395 . S
C729 C736 1.492 . S
C730 C731 1.392 . S
C730 C732 1.386 . S
C731 C729 1.393 . S
C731 C730 1.392 . S
C731 H748 0.930 . S
C732 C730 1.386 . S
C732 C734 1.395 . S
C732 H749 0.930 . S
C733 C729 1.395 . S
C733 C734 1.379 . S
C733 H750 0.930 . S
C734 C732 1.395 . S
C734 C733 1.379 . S
C734 H751 0.930 . S
C735 O718 1.264 . S
C735 O719 1.254 . S
C736 Eu672 2.848 . S
C736 O716 1.257 . S
C736 O721 1.249 . S
C736 C729 1.492 . S
C737 H702 0.931 . S
C737 C715 1.420 . S
C737 C738 1.351 . S
C738 H700 0.930 . S
C738 C706 1.423 . S
C738 C737 1.351 . S
C739 O723 1.276 . S
C739 O726 1.235 . S
C740 C741 1.393 . S
C740 C744 1.395 . S
C740 C747 1.492 . S
C741 C740 1.393 . S
C741 C742 1.392 . S
C741 H752 0.930 . S
C742 C741 1.392 . S
C742 C743 1.386 . S
C743 C742 1.386 . S
C743 C745 1.395 . S
C743 H753 0.930 . S
C744 C740 1.395 . S
C744 C745 1.379 . S
C744 H754 0.930 . S
C745 C743 1.395 . S
C745 C744 1.379 . S
C745 H755 0.930 . S
C746 O724 1.264 . S
C746 O725 1.254 . S
C747 Eu683 2.848 1_565 S
C747 O722 1.257 . S
C747 O727 1.249 . S
C747 C740 1.492 . S
H748 C731 0.930 . S
H749 C732 0.930 . S
H750 C733 0.930 . S
H751 C734 0.930 . S
H752 C741 0.930 . S
H753 C743 0.930 . S
H754 C744 0.930 . S
H755 C745 0.930 . S
Eu756 N787 2.657 . S
Eu756 N794 2.609 . S
Eu756 O800 2.558 . S
Eu756 O801 2.612 . S
Eu756 O803 2.339 . S
Eu756 O804 2.563 . S
Eu756 O805 2.419 . S
Eu756 O807 2.380 . S
Eu756 O808 2.432 . S
Eu756 C820 2.848 . S
C757 C760 1.429 . S
C757 C761 1.411 . S
C757 N764 1.377 . S
C758 C760 1.420 . S
C758 C762 1.423 . S
C758 C770 1.392 . S
C759 C761 1.420 . S
C759 C762 1.351 . S
C759 H782 0.931 . S
C760 C757 1.429 . S
C760 C758 1.420 . S
C760 N768 1.362 . S
C761 C757 1.411 . S
C761 C759 1.420 . S
C761 C766 1.395 . S
C762 C758 1.423 . S
C762 C759 1.351 . S
C762 H774 0.930 . S
C763 C765 1.400 . S
C763 C766 1.386 . S
C763 H775 0.930 . S
N764 C757 1.377 . S
N764 C765 1.321 . S
N764 Eu767 2.609 . S
C765 C763 1.400 . S
C765 N764 1.321 . S
C765 H772 0.930 . S
C766 C761 1.395 . S
C766 C763 1.386 . S
C766 H785 0.930 . S
Eu767 N764 2.609 . S
Eu767 N768 2.657 . S
Eu767 O801 2.380 . S
Eu767 O802 2.432 . S
Eu767 O806 2.558 . S
Eu767 O807 2.612 . S
Eu767 O809 2.339 . S
Eu767 O810 2.563 . S
Eu767 O811 2.419 . S
Eu767 C831 2.848 . S
N768 C760 1.362 . S
N768 Eu767 2.657 . S
N768 C769 1.334 . S
C769 N768 1.334 . S
C769 C771 1.413 . S
C769 H776 0.929 . S
C770 C758 1.392 . S
C770 C771 1.367 . S
C770 H778 0.930 . S
C771 C769 1.413 . S
C771 C770 1.367 . S
C771 H773 0.930 . S
H772 C765 0.930 . S
H773 C771 0.930 . S
H774 C762 0.930 . S
H775 C763 0.930 . S
H776 C769 0.929 . S
H777 C791 0.930 . S
H778 C770 0.930 . S
H779 C797 0.930 . S
H780 C788 0.929 . S
H781 C795 0.930 . S
H782 C759 0.931 . S
H783 C789 0.930 . S
H784 C822 0.930 . S
H785 C766 0.930 . S
H786 C821 0.931 . S
N787 Eu756 2.657 . S
N787 C788 1.334 . S
N787 C792 1.362 . S
C788 H780 0.929 . S
C788 N787 1.334 . S
C788 C791 1.413 . S
C789 H783 0.930 . S
C789 C790 1.392 . S
C789 C791 1.367 . S
C790 C789 1.392 . S
C790 C792 1.420 . S
C790 C822 1.423 . S
C791 H777 0.930 . S
C791 C788 1.413 . S
C791 C789 1.367 . S
C792 N787 1.362 . S
C792 C790 1.420 . S
C792 C796 1.429 . S
H793 C798 0.930 . S
N794 Eu756 2.609 . S
N794 C796 1.377 . S
N794 C797 1.321 . S
C795 H781 0.930 . S
C795 C797 1.400 . S
C795 C798 1.386 . S
C796 C792 1.429 . S
C796 N794 1.377 . S
C796 C799 1.411 . S
C797 H779 0.930 . S
C797 N794 1.321 . S
C797 C795 1.400 . S
C798 H793 0.930 . S
C798 C795 1.386 . S
C798 C799 1.395 . S
C799 C796 1.411 . S
C799 C798 1.395 . S
C799 C821 1.420 . S
O800 Eu756 2.558 . S
O800 C820 1.257 . S
O801 Eu756 2.612 . S
O801 Eu767 2.380 . S
O801 C812 1.276 . S
O802 Eu767 2.432 . S
O802 C819 1.264 . S
O803 Eu756 2.339 . S
O803 C819 1.254 . S
O804 Eu756 2.563 . S
O804 C812 1.235 . S
O805 Eu756 2.419 . S
O805 C820 1.249 . S
O806 Eu767 2.558 . S
O806 C831 1.257 . S
O807 Eu756 2.380 . S
O807 Eu767 2.612 . S
O807 C823 1.276 . S
O808 Eu756 2.432 . S
O808 C830 1.264 . S
O809 Eu767 2.339 . S
O809 C830 1.254 . S
O810 Eu767 2.563 . S
O810 C823 1.235 . S
O811 Eu767 2.419 . S
O811 C831 1.249 . S
C812 O801 1.276 . S
C812 O804 1.235 . S
C813 C815 1.393 . S
C813 C817 1.395 . S
C813 C820 1.492 . S
C814 C815 1.392 . S
C814 C816 1.386 . S
C815 C813 1.393 . S
C815 C814 1.392 . S
C815 H832 0.930 . S
C816 C814 1.386 . S
C816 C818 1.395 . S
C816 H833 0.930 . S
C817 C813 1.395 . S
C817 C818 1.379 . S
C817 H834 0.930 . S
C818 C816 1.395 . S
C818 C817 1.379 . S
C818 H835 0.930 . S
C819 O802 1.264 . S
C819 O803 1.254 . S
C820 Eu756 2.848 . S
C820 O800 1.257 . S
C820 O805 1.249 . S
C820 C813 1.492 . S
C821 H786 0.931 . S
C821 C799 1.420 . S
C821 C822 1.351 . S
C822 H784 0.930 . S
C822 C790 1.423 . S
C822 C821 1.351 . S
C823 O807 1.276 . S
C823 O810 1.235 . S
C824 C825 1.393 . S
C824 C828 1.395 . S
C824 C831 1.492 . S
C825 C824 1.393 . S
C825 C826 1.392 . S
C825 H836 0.930 . S
C826 C825 1.392 . S
C826 C827 1.386 . S
C827 C826 1.386 . S
C827 C829 1.395 . S
C827 H837 0.930 . S
C828 C824 1.395 . S
C828 C829 1.379 . S
C828 H838 0.930 . S
C829 C827 1.395 . S
C829 C828 1.379 . S
C829 H839 0.930 . S
C830 O808 1.264 . S
C830 O809 1.254 . S
C831 Eu767 2.848 . S
C831 O806 1.257 . S
C831 O811 1.249 . S
C831 C824 1.492 . S
H832 C815 0.930 . S
H833 C816 0.930 . S
H834 C817 0.930 . S
H835 C818 0.930 . S
H836 C825 0.930 . S
H837 C827 0.930 . S
H838 C828 0.930 . S
H839 C829 0.930 . S
Eu840 N871 2.657 . S
Eu840 N878 2.609 . S
Eu840 O884 2.558 . S
Eu840 O885 2.612 . S
Eu840 O887 2.339 . S
Eu840 O888 2.563 . S
Eu840 O889 2.419 . S
Eu840 O891 2.380 . S
Eu840 O892 2.432 . S
Eu840 C904 2.848 . S
C841 C844 1.429 . S
C841 C845 1.411 . S
C841 N848 1.377 . S
C842 C844 1.420 . S
C842 C846 1.423 . S
C842 C854 1.392 1_545 S
C843 C845 1.420 . S
C843 C846 1.351 . S
C843 H866 0.931 . S
C844 C841 1.429 . S
C844 C842 1.420 . S
C844 N852 1.362 . S
C845 C841 1.411 . S
C845 C843 1.420 . S
C845 C850 1.395 . S
C846 C842 1.423 . S
C846 C843 1.351 . S
C846 H858 0.930 . S
C847 C849 1.400 . S
C847 C850 1.386 . S
C847 H859 0.930 . S
N848 C841 1.377 . S
N848 C849 1.321 . S
N848 Eu851 2.609 1_556 S
C849 C847 1.400 . S
C849 N848 1.321 . S
C849 H856 0.934 . S
C850 C845 1.395 . S
C850 C847 1.386 . S
C850 H869 0.930 . S
Eu851 N848 2.609 1_554 S
Eu851 N852 2.657 1_554 S
Eu851 O885 2.380 . S
Eu851 O886 2.432 . S
Eu851 O890 2.558 1_554 S
Eu851 O891 2.612 . S
Eu851 O893 2.339 1_554 S
Eu851 O894 2.563 . S
Eu851 O895 2.419 1_554 S
Eu851 C915 2.848 1_554 S
N852 C844 1.362 . S
N852 Eu851 2.657 1_556 S
N852 C853 1.334 . S
C853 N852 1.334 . S
C853 C855 1.413 1_545 S
C853 H860 0.970 . S
C854 C842 1.392 1_565 S
C854 C855 1.367 . S
C854 H862 0.930 . S
C855 C853 1.413 1_565 S
C855 C854 1.367 . S
C855 H857 0.930 . S
H856 C849 0.934 . S
H857 C855 0.930 . S
H858 C846 0.930 . S
H859 C847 0.930 . S
H860 C853 0.970 . S
H861 C875 0.930 . S
H862 C854 0.930 . S
H863 C881 0.930 1_565 S
H864 C872 0.929 . S
H865 C879 0.930 . S
H866 C843 0.931 . S
H867 C873 0.930 . S
H868 C906 0.930 . S
H869 C850 0.930 . S
H870 C905 0.931 . S
N871 Eu840 2.657 . S
N871 C872 1.334 . S
N871 C876 1.362 . S
C872 H864 0.929 . S
C872 N871 1.334 . S
C872 C875 1.413 . S
C873 H867 0.930 . S
C873 C874 1.392 . S
C873 C875 1.367 . S
C874 C873 1.392 . S
C874 C876 1.420 . S
C874 C906 1.423 . S
C875 H861 0.930 . S
C875 C872 1.413 . S
C875 C873 1.367 . S
C876 N871 1.362 . S
C876 C874 1.420 . S
C876 C880 1.429 . S
H877 C882 0.919 1_565 S
N878 Eu840 2.609 . S
N878 C880 1.377 . S
N878 C881 1.321 . S
C879 H865 0.930 . S
C879 C881 1.400 1_565 S
C879 C882 1.386 1_565 S
C880 C876 1.429 . S
C880 N878 1.377 . S
C880 C883 1.411 . S
C881 H863 0.930 1_545 S
C881 N878 1.321 . S
C881 C879 1.400 1_545 S
C882 H877 0.919 1_545 S
C882 C879 1.386 1_545 S
C882 C883 1.395 . S
C883 C880 1.411 . S
C883 C882 1.395 . S
C883 C905 1.420 . S
O884 Eu840 2.558 . S
O884 C904 1.257 . S
O885 Eu840 2.612 . S
O885 Eu851 2.380 . S
O885 C896 1.276 . S
O886 Eu851 2.432 . S
O886 C903 1.264 . S
O887 Eu840 2.339 . S
O887 C903 1.254 . S
O888 Eu840 2.563 . S
O888 C896 1.235 . S
O889 Eu840 2.419 . S
O889 C904 1.249 . S
O890 Eu851 2.558 1_556 S
O890 C915 1.257 . S
O891 Eu840 2.380 . S
O891 Eu851 2.612 . S
O891 C907 1.276 . S
O892 Eu840 2.432 . S
O892 C914 1.264 . S
O893 Eu851 2.339 1_556 S
O893 C914 1.251 1_556 S
O894 Eu851 2.563 . S
O894 C907 1.235 . S
O895 Eu851 2.419 1_556 S
O895 C915 1.249 . S
C896 O885 1.276 . S
C896 O888 1.235 . S
C897 C899 1.393 . S
C897 C901 1.395 . S
C897 C904 1.492 . S
C898 C899 1.392 . S
C898 C900 1.386 . S
C899 C897 1.393 . S
C899 C898 1.392 . S
C899 H916 0.930 . S
C900 C898 1.386 . S
C900 C902 1.402 . S
C900 H917 0.930 . S
C901 C897 1.395 . S
C901 C902 1.381 . S
C901 H918 0.930 1_545 S
C902 C900 1.402 . S
C902 C901 1.381 . S
C902 H919 0.920 1_545 S
C903 O886 1.264 . S
C903 O887 1.254 . S
C904 Eu840 2.848 . S
C904 O884 1.257 . S
C904 O889 1.249 . S
C904 C897 1.492 . S
C905 H870 0.931 . S
C905 C883 1.420 . S
C905 C906 1.351 . S
C906 H868 0.930 . S
C906 C874 1.423 . S
C906 C905 1.351 . S
C907 O891 1.276 . S
C907 O894 1.235 . S
C908 C909 1.393 . S
C908 C912 1.395 . S
C908 C915 1.492 . S
C909 C908 1.393 . S
C909 C910 1.392 . S
C909 H920 0.930 . S
C910 C909 1.392 . S
C910 C911 1.386 . S
C911 C910 1.386 . S
C911 C913 1.395 . S
C911 H921 0.930 . S
C912 C908 1.395 . S
C912 C913 1.379 . S
C912 H922 0.930 . S
C913 C911 1.395 . S
C913 C912 1.379 . S
C913 H923 0.930 . S
C914 O892 1.264 . S
C914 O893 1.251 1_554 S
C915 Eu851 2.848 1_556 S
C915 O890 1.257 . S
C915 O895 1.249 . S
C915 C908 1.492 . S
H916 C899 0.930 . S
H917 C900 0.930 . S
H918 C901 0.930 1_565 S
H919 C902 0.920 1_565 S
H920 C909 0.930 . S
H921 C911 0.930 . S
H922 C912 0.930 . S
H923 C913 0.930 . S
Eu924 N955 2.657 . S
Eu924 N962 2.609 . S
Eu924 O968 2.558 . S
Eu924 O969 2.612 . S
Eu924 O971 2.339 . S
Eu924 O972 2.563 . S
Eu924 O973 2.419 . S
Eu924 O975 2.380 . S
Eu924 O976 2.432 . S
Eu924 C988 2.848 . S
C925 C928 1.429 . S
C925 C929 1.411 . S
C925 N932 1.377 . S
C926 C928 1.420 . S
C926 C930 1.423 . S
C926 C938 1.392 . S
C927 C929 1.420 . S
C927 C930 1.351 . S
C927 H950 0.931 . S
C928 C925 1.429 . S
C928 C926 1.420 . S
C928 N936 1.362 . S
C929 C925 1.411 . S
C929 C927 1.420 . S
C929 C934 1.395 . S
C930 C926 1.423 . S
C930 C927 1.351 . S
C930 H942 0.930 . S
C931 C933 1.400 . S
C931 C934 1.386 . S
C931 H943 0.930 . S
N932 C925 1.377 . S
N932 C933 1.321 . S
N932 Eu935 2.609 . S
C933 C931 1.400 . S
C933 N932 1.321 . S
C933 H940 0.930 . S
C934 C929 1.395 . S
C934 C931 1.386 . S
C934 H953 0.930 . S
Eu935 N932 2.609 . S
Eu935 N936 2.657 . S
Eu935 O969 2.380 . S
Eu935 O970 2.432 . S
Eu935 O974 2.558 . S
Eu935 O975 2.612 . S
Eu935 O977 2.339 . S
Eu935 O978 2.563 . S
Eu935 O979 2.419 . S
Eu935 C999 2.848 . S
N936 C928 1.362 . S
N936 Eu935 2.657 . S
N936 C937 1.334 . S
C937 N936 1.334 . S
C937 C939 1.413 . S
C937 H944 0.929 . S
C938 C926 1.392 . S
C938 C939 1.367 . S
C938 H946 0.930 . S
C939 C937 1.413 . S
C939 C938 1.367 . S
C939 H941 0.930 . S
H940 C933 0.930 . S
H941 C939 0.930 . S
H942 C930 0.930 . S
H943 C931 0.930 . S
H944 C937 0.929 . S
H945 C959 0.930 . S
H946 C938 0.930 . S
H947 C965 0.930 . S
H948 C956 0.929 . S
H949 C963 0.930 . S
H950 C927 0.931 . S
H951 C957 0.930 . S
H952 C990 0.930 . S
H953 C934 0.930 . S
H954 C989 0.931 . S
N955 Eu924 2.657 . S
N955 C956 1.334 . S
N955 C960 1.362 . S
C956 H948 0.929 . S
C956 N955 1.334 . S
C956 C959 1.413 . S
C957 H951 0.930 . S
C957 C958 1.392 . S
C957 C959 1.367 . S
C958 C957 1.392 . S
C958 C960 1.420 . S
C958 C990 1.423 . S
C959 H945 0.930 . S
C959 C956 1.413 . S
C959 C957 1.367 . S
C960 N955 1.362 . S
C960 C958 1.420 . S
C960 C964 1.429 . S
H961 C966 0.930 . S
N962 Eu924 2.609 . S
N962 C964 1.377 . S
N962 C965 1.321 . S
C963 H949 0.930 . S
C963 C965 1.400 . S
C963 C966 1.386 . S
C964 C960 1.429 . S
C964 N962 1.377 . S
C964 C967 1.411 . S
C965 H947 0.930 . S
C965 N962 1.321 . S
C965 C963 1.400 . S
C966 H961 0.930 . S
C966 C963 1.386 . S
C966 C967 1.395 . S
C967 C964 1.411 . S
C967 C966 1.395 . S
C967 C989 1.420 . S
O968 Eu924 2.558 . S
O968 C988 1.257 . S
O969 Eu924 2.612 . S
O969 Eu935 2.380 . S
O969 C980 1.276 . S
O970 Eu935 2.432 . S
O970 C987 1.264 . S
O971 Eu924 2.339 . S
O971 C987 1.254 . S
O972 Eu924 2.563 . S
O972 C980 1.235 . S
O973 Eu924 2.419 . S
O973 C988 1.249 . S
O974 Eu935 2.558 . S
O974 C999 1.257 . S
O975 Eu924 2.380 . S
O975 Eu935 2.612 . S
O975 C991 1.276 . S
O976 Eu924 2.432 . S
O976 C998 1.264 . S
O977 Eu935 2.339 . S
O977 C998 1.254 . S
O978 Eu935 2.563 . S
O978 C991 1.235 . S
O979 Eu935 2.419 . S
O979 C999 1.249 . S
C980 O969 1.276 . S
C980 O972 1.235 . S
C981 C983 1.393 . S
C981 C985 1.395 . S
C981 C988 1.492 . S
C982 C983 1.392 . S
C982 C984 1.386 . S
C983 C981 1.393 . S
C983 C982 1.392 . S
C983 H1000 0.930 . S
C984 C982 1.386 . S
C984 C986 1.395 . S
C984 H1001 0.930 . S
C985 C981 1.395 . S
C985 C986 1.379 . S
C985 H1002 0.930 . S
C986 C984 1.395 . S
C986 C985 1.379 . S
C986 H1003 0.930 . S
C987 O970 1.264 . S
C987 O971 1.254 . S
C988 Eu924 2.848 . S
C988 O968 1.257 . S
C988 O973 1.249 . S
C988 C981 1.492 . S
C989 H954 0.931 . S
C989 C967 1.420 . S
C989 C990 1.351 . S
C990 H952 0.930 . S
C990 C958 1.423 . S
C990 C989 1.351 . S
C991 O975 1.276 . S
C991 O978 1.235 . S
C992 C993 1.393 . S
C992 C996 1.395 . S
C992 C999 1.492 . S
C993 C992 1.393 . S
C993 C994 1.392 . S
C993 H1004 0.930 . S
C994 C993 1.392 . S
C994 C995 1.386 . S
C995 C994 1.386 . S
C995 C997 1.395 . S
C995 H1005 0.930 . S
C996 C992 1.395 . S
C996 C997 1.379 . S
C996 H1006 0.930 . S
C997 C995 1.395 . S
C997 C996 1.379 . S
C997 H1007 0.930 . S
C998 O976 1.264 . S
C998 O977 1.254 . S
C999 Eu935 2.848 . S
C999 O974 1.257 . S
C999 O979 1.249 . S
C999 C992 1.492 . S
H1000 C983 0.930 . S
H1001 C984 0.930 . S
H1002 C985 0.930 . S
H1003 C986 0.930 . S
H1004 C993 0.930 . S
H1005 C995 0.930 . S
H1006 C996 0.930 . S
H1007 C997 0.930 . S
Eu1008 N1039 2.657 . S
Eu1008 N1046 2.609 . S
Eu1008 O1052 2.558 . S
Eu1008 O1053 2.612 . S
Eu1008 O1055 2.339 . S
Eu1008 O1056 2.563 1_554 S
Eu1008 O1057 2.419 . S
Eu1008 O1059 2.380 . S
Eu1008 O1060 2.432 . S
Eu1008 C1072 2.848 . S
C1009 C1012 1.429 . S
C1009 C1013 1.411 . S
C1009 N1016 1.377 . S
C1010 C1012 1.420 . S
C1010 C1014 1.423 . S
C1010 C1022 1.392 . S
C1011 C1013 1.420 . S
C1011 C1014 1.351 . S
C1011 H1034 0.931 . S
C1012 C1009 1.429 . S
C1012 C1010 1.420 . S
C1012 N1020 1.362 . S
C1013 C1009 1.411 . S
C1013 C1011 1.420 . S
C1013 C1018 1.395 . S
C1014 C1010 1.423 . S
C1014 C1011 1.351 . S
C1014 H1026 0.930 . S
C1015 C1017 1.400 . S
C1015 C1018 1.386 . S
C1015 H1027 0.930 . S
N1016 C1009 1.377 . S
N1016 C1017 1.321 . S
N1016 Eu1019 2.609 1_556 S
C1017 C1015 1.400 . S
C1017 N1016 1.321 . S
C1017 H1024 0.930 . S
C1018 C1013 1.395 . S
C1018 C1015 1.386 . S
C1018 H1037 0.930 . S
Eu1019 N1016 2.609 1_554 S
Eu1019 N1020 2.657 1_554 S
Eu1019 O1053 2.380 . S
Eu1019 O1054 2.432 . S
Eu1019 O1058 2.558 . S
Eu1019 O1059 2.612 . S
Eu1019 O1061 2.339 . S
Eu1019 O1062 2.563 . S
Eu1019 O1063 2.419 . S
Eu1019 C1083 2.848 . S
N1020 C1012 1.362 . S
N1020 Eu1019 2.657 1_556 S
N1020 C1021 1.334 . S
C1021 N1020 1.334 . S
C1021 C1023 1.413 . S
C1021 H1028 0.929 . S
C1022 C1010 1.392 . S
C1022 C1023 1.367 . S
C1022 H1030 0.930 . S
C1023 C1021 1.413 . S
C1023 C1022 1.367 . S
C1023 H1025 0.930 . S
H1024 C1017 0.930 . S
H1025 C1023 0.930 . S
H1026 C1014 0.930 . S
H1027 C1015 0.930 . S
H1028 C1021 0.929 . S
H1029 C1043 0.930 . S
H1030 C1022 0.930 . S
H1031 C1049 0.930 . S
H1032 C1040 0.929 . S
H1033 C1047 0.930 . S
H1034 C1011 0.931 . S
H1035 C1041 0.930 . S
H1036 C1074 0.930 . S
H1037 C1018 0.930 . S
H1038 C1073 0.931 . S
N1039 Eu1008 2.657 . S
N1039 C1040 1.334 . S
N1039 C1044 1.362 . S
C1040 H1032 0.929 . S
C1040 N1039 1.334 . S
C1040 C1043 1.413 . S
C1041 H1035 0.930 . S
C1041 C1042 1.392 . S
C1041 C1043 1.367 . S
C1042 C1041 1.392 . S
C1042 C1044 1.420 . S
C1042 C1074 1.423 . S
C1043 H1029 0.930 . S
C1043 C1040 1.413 . S
C1043 C1041 1.367 . S
C1044 N1039 1.362 . S
C1044 C1042 1.420 . S
C1044 C1048 1.429 . S
H1045 C1050 0.930 . S
N1046 Eu1008 2.609 . S
N1046 C1048 1.377 . S
N1046 C1049 1.321 . S
C1047 H1033 0.930 . S
C1047 C1049 1.400 . S
C1047 C1050 1.386 . S
C1048 C1044 1.429 . S
C1048 N1046 1.377 . S
C1048 C1051 1.411 . S
C1049 H1031 0.930 . S
C1049 N1046 1.321 . S
C1049 C1047 1.400 . S
C1050 H1045 0.930 . S
C1050 C1047 1.386 . S
C1050 C1051 1.395 . S
C1051 C1048 1.411 . S
C1051 C1050 1.395 . S
C1051 C1073 1.420 . S
O1052 Eu1008 2.558 . S
O1052 C1072 1.257 . S
O1053 Eu1008 2.612 . S
O1053 Eu1019 2.380 . S
O1053 C1064 1.276 1_554 S
O1054 Eu1019 2.432 . S
O1054 C1071 1.264 . S
O1055 Eu1008 2.339 . S
O1055 C1071 1.254 . S
O1056 Eu1008 2.563 1_556 S
O1056 C1064 1.235 . S
O1057 Eu1008 2.419 . S
O1057 C1072 1.249 . S
O1058 Eu1019 2.558 . S
O1058 C1083 1.257 . S
O1059 Eu1008 2.380 . S
O1059 Eu1019 2.612 . S
O1059 C1075 1.276 . S
O1060 Eu1008 2.432 . S
O1060 C1082 1.264 . S
O1061 Eu1019 2.339 . S
O1061 C1082 1.254 . S
O1062 Eu1019 2.563 . S
O1062 C1075 1.235 . S
O1063 Eu1019 2.419 . S
O1063 C1083 1.249 . S
C1064 O1053 1.276 1_556 S
C1064 O1056 1.235 . S
C1065 C1067 1.393 . S
C1065 C1069 1.395 . S
C1065 C1072 1.492 . S
C1066 C1067 1.392 . S
C1066 C1068 1.386 . S
C1067 C1065 1.393 . S
C1067 C1066 1.392 . S
C1067 H1084 0.930 . S
C1068 C1066 1.386 . S
C1068 C1070 1.395 . S
C1068 H1085 0.930 . S
C1069 C1065 1.395 . S
C1069 C1070 1.379 . S
C1069 H1086 0.930 . S
C1070 C1068 1.395 . S
C1070 C1069 1.379 . S
C1070 H1087 0.930 . S
C1071 O1054 1.264 . S
C1071 O1055 1.254 . S
C1072 Eu1008 2.848 . S
C1072 O1052 1.257 . S
C1072 O1057 1.249 . S
C1072 C1065 1.492 . S
C1073 H1038 0.931 . S
C1073 C1051 1.420 . S
C1073 C1074 1.351 . S
C1074 H1036 0.930 . S
C1074 C1042 1.423 . S
C1074 C1073 1.351 . S
C1075 O1059 1.276 . S
C1075 O1062 1.235 . S
C1076 C1077 1.393 . S
C1076 C1080 1.395 . S
C1076 C1083 1.492 . S
C1077 C1076 1.393 . S
C1077 C1078 1.392 . S
C1077 H1088 0.930 . S
C1078 C1077 1.392 . S
C1078 C1079 1.386 . S
C1079 C1078 1.386 . S
C1079 C1081 1.395 . S
C1079 H1089 0.930 . S
C1080 C1076 1.395 . S
C1080 C1081 1.379 . S
C1080 H1090 0.930 . S
C1081 C1079 1.395 . S
C1081 C1080 1.379 . S
C1081 H1091 0.930 . S
C1082 O1060 1.264 . S
C1082 O1061 1.254 . S
C1083 Eu1019 2.848 . S
C1083 O1058 1.257 . S
C1083 O1063 1.249 . S
C1083 C1076 1.492 . S
H1084 C1067 0.930 . S
H1085 C1068 0.930 . S
H1086 C1069 0.930 . S
H1087 C1070 0.930 . S
H1088 C1077 0.930 . S
H1089 C1079 0.930 . S
H1090 C1080 0.930 . S
H1091 C1081 0.930 . S
Eu1092 N1123 2.657 . S
Eu1092 N1130 2.609 . S
Eu1092 O1136 2.558 . S
Eu1092 O1137 2.612 . S
Eu1092 O1139 2.339 . S
Eu1092 O1140 2.563 . S
Eu1092 O1141 2.419 . S
Eu1092 O1143 2.380 . S
Eu1092 O1144 2.432 . S
Eu1092 C1156 2.848 . S
C1093 C1096 1.429 . S
C1093 C1097 1.411 . S
C1093 N1100 1.377 . S
C1094 C1096 1.420 . S
C1094 C1098 1.423 . S
C1094 C1106 1.392 . S
C1095 C1097 1.420 . S
C1095 C1098 1.351 . S
C1095 H1118 0.931 . S
C1096 C1093 1.429 . S
C1096 C1094 1.420 . S
C1096 N1104 1.362 . S
C1097 C1093 1.411 . S
C1097 C1095 1.420 . S
C1097 C1102 1.395 . S
C1098 C1094 1.423 . S
C1098 C1095 1.351 . S
C1098 H1110 0.930 . S
C1099 C1101 1.400 . S
C1099 C1102 1.386 . S
C1099 H1111 0.930 . S
N1100 C1093 1.377 . S
N1100 C1101 1.321 . S
N1100 Eu1103 2.609 . S
C1101 C1099 1.400 . S
C1101 N1100 1.321 . S
C1101 H1108 0.930 . S
C1102 C1097 1.395 . S
C1102 C1099 1.386 . S
C1102 H1121 0.930 . S
Eu1103 N1100 2.609 . S
Eu1103 N1104 2.657 . S
Eu1103 O1137 2.380 . S
Eu1103 O1138 2.432 . S
Eu1103 O1142 2.558 . S
Eu1103 O1143 2.612 . S
Eu1103 O1145 2.339 . S
Eu1103 O1146 2.563 . S
Eu1103 O1147 2.419 . S
Eu1103 C1167 2.848 . S
N1104 C1096 1.362 . S
N1104 Eu1103 2.657 . S
N1104 C1105 1.334 . S
C1105 N1104 1.334 . S
C1105 C1107 1.413 . S
C1105 H1112 0.929 . S
C1106 C1094 1.392 . S
C1106 C1107 1.367 . S
C1106 H1114 0.930 . S
C1107 C1105 1.413 . S
C1107 C1106 1.367 . S
C1107 H1109 0.930 . S
H1108 C1101 0.930 . S
H1109 C1107 0.930 . S
H1110 C1098 0.930 . S
H1111 C1099 0.930 . S
H1112 C1105 0.929 . S
H1113 C1127 0.930 . S
H1114 C1106 0.930 . S
H1115 C1133 0.930 . S
H1116 C1124 0.929 . S
H1117 C1131 0.930 . S
H1118 C1095 0.931 . S
H1119 C1125 0.930 . S
H1120 C1158 0.930 . S
H1121 C1102 0.930 . S
H1122 C1157 0.931 . S
N1123 Eu1092 2.657 . S
N1123 C1124 1.334 . S
N1123 C1128 1.362 . S
C1124 H1116 0.929 . S
C1124 N1123 1.334 . S
C1124 C1127 1.413 . S
C1125 H1119 0.930 . S
C1125 C1126 1.392 . S
C1125 C1127 1.367 . S
C1126 C1125 1.392 . S
C1126 C1128 1.420 . S
C1126 C1158 1.423 . S
C1127 H1113 0.930 . S
C1127 C1124 1.413 . S
C1127 C1125 1.367 . S
C1128 N1123 1.362 . S
C1128 C1126 1.420 . S
C1128 C1132 1.429 . S
H1129 C1134 0.930 . S
N1130 Eu1092 2.609 . S
N1130 C1132 1.377 . S
N1130 C1133 1.321 . S
C1131 H1117 0.930 . S
C1131 C1133 1.400 . S
C1131 C1134 1.386 . S
C1132 C1128 1.429 . S
C1132 N1130 1.377 . S
C1132 C1135 1.411 . S
C1133 H1115 0.930 . S
C1133 N1130 1.321 . S
C1133 C1131 1.400 . S
C1134 H1129 0.930 . S
C1134 C1131 1.386 . S
C1134 C1135 1.395 . S
C1135 C1132 1.411 . S
C1135 C1134 1.395 . S
C1135 C1157 1.420 . S
O1136 Eu1092 2.558 . S
O1136 C1156 1.257 . S
O1137 Eu1092 2.612 . S
O1137 Eu1103 2.380 . S
O1137 C1148 1.276 . S
O1138 Eu1103 2.432 . S
O1138 C1155 1.264 . S
O1139 Eu1092 2.339 . S
O1139 C1155 1.254 . S
O1140 Eu1092 2.563 . S
O1140 C1148 1.235 . S
O1141 Eu1092 2.419 . S
O1141 C1156 1.249 . S
O1142 Eu1103 2.558 . S
O1142 C1167 1.257 . S
O1143 Eu1092 2.380 . S
O1143 Eu1103 2.612 . S
O1143 C1159 1.276 . S
O1144 Eu1092 2.432 . S
O1144 C1166 1.264 . S
O1145 Eu1103 2.339 . S
O1145 C1166 1.254 . S
O1146 Eu1103 2.563 . S
O1146 C1159 1.235 . S
O1147 Eu1103 2.419 . S
O1147 C1167 1.249 . S
C1148 O1137 1.276 . S
C1148 O1140 1.235 . S
C1149 C1151 1.393 . S
C1149 C1153 1.395 . S
C1149 C1156 1.492 . S
C1150 C1151 1.392 . S
C1150 C1152 1.386 . S
C1151 C1149 1.393 . S
C1151 C1150 1.392 . S
C1151 H1168 0.930 . S
C1152 C1150 1.386 . S
C1152 C1154 1.395 . S
C1152 H1169 0.930 . S
C1153 C1149 1.395 . S
C1153 C1154 1.379 . S
C1153 H1170 0.930 . S
C1154 C1152 1.395 . S
C1154 C1153 1.379 . S
C1154 H1171 0.930 . S
C1155 O1138 1.264 . S
C1155 O1139 1.254 . S
C1156 Eu1092 2.848 . S
C1156 O1136 1.257 . S
C1156 O1141 1.249 . S
C1156 C1149 1.492 . S
C1157 H1122 0.931 . S
C1157 C1135 1.420 . S
C1157 C1158 1.351 . S
C1158 H1120 0.930 . S
C1158 C1126 1.423 . S
C1158 C1157 1.351 . S
C1159 O1143 1.276 . S
C1159 O1146 1.235 . S
C1160 C1161 1.393 . S
C1160 C1164 1.395 . S
C1160 C1167 1.492 . S
C1161 C1160 1.393 . S
C1161 C1162 1.392 . S
C1161 H1172 0.930 . S
C1162 C1161 1.392 . S
C1162 C1163 1.386 . S
C1163 C1162 1.386 . S
C1163 C1165 1.395 . S
C1163 H1173 0.930 . S
C1164 C1160 1.395 . S
C1164 C1165 1.379 . S
C1164 H1174 0.930 . S
C1165 C1163 1.395 . S
C1165 C1164 1.379 . S
C1165 H1175 0.930 . S
C1166 O1144 1.264 . S
C1166 O1145 1.254 . S
C1167 Eu1103 2.848 . S
C1167 O1142 1.257 . S
C1167 O1147 1.249 . S
C1167 C1160 1.492 . S
H1168 C1151 0.930 . S
H1169 C1152 0.930 . S
H1170 C1153 0.930 . S
H1171 C1154 0.930 . S
H1172 C1161 0.930 . S
H1173 C1163 0.930 . S
H1174 C1164 0.930 . S
H1175 C1165 0.930 . S
Eu1176 N1207 2.657 . S
Eu1176 N1214 2.609 . S
Eu1176 O1220 2.558 . S
Eu1176 O1221 2.612 . S
Eu1176 O1223 2.339 . S
Eu1176 O1224 2.563 . S
Eu1176 O1225 2.419 . S
Eu1176 O1227 2.380 . S
Eu1176 O1228 2.432 . S
Eu1176 C1240 2.848 . S
C1177 C1180 1.429 . S
C1177 C1181 1.411 1_455 S
C1177 N1184 1.377 . S
C1178 C1180 1.420 1_655 S
C1178 C1182 1.423 . S
C1178 C1190 1.392 . S
C1179 C1181 1.420 . S
C1179 C1182 1.351 . S
C1179 H1202 0.931 . S
C1180 C1177 1.429 . S
C1180 C1178 1.420 1_455 S
C1180 N1188 1.362 . S
C1181 C1177 1.411 1_655 S
C1181 C1179 1.420 . S
C1181 C1186 1.390 . S
C1182 C1178 1.423 . S
C1182 C1179 1.351 . S
C1182 H1194 0.930 . S
C1183 C1185 1.400 . S
C1183 C1186 1.351 1_455 S
C1183 H1195 0.930 . S
N1184 C1177 1.377 . S
N1184 C1185 1.321 . S
N1184 Eu1187 2.609 . S
C1185 C1183 1.400 . S
C1185 N1184 1.321 . S
C1185 H1192 0.930 . S
C1186 C1181 1.390 . S
C1186 C1183 1.351 1_655 S
C1186 H1205 0.972 . S
Eu1187 N1184 2.609 . S
Eu1187 N1188 2.657 . S
Eu1187 O1221 2.380 . S
Eu1187 O1222 2.432 . S
Eu1187 O1226 2.558 . S
Eu1187 O1227 2.612 . S
Eu1187 O1229 2.339 . S
Eu1187 O1230 2.563 . S
Eu1187 O1231 2.419 . S
Eu1187 C1251 2.848 . S
N1188 C1180 1.362 . S
N1188 Eu1187 2.657 . S
N1188 C1189 1.334 . S
C1189 N1188 1.334 . S
C1189 C1191 1.413 . S
C1189 H1196 0.929 . S
C1190 C1178 1.392 . S
C1190 C1191 1.367 1_655 S
C1190 H1198 0.930 . S
C1191 C1189 1.413 . S
C1191 C1190 1.367 1_455 S
C1191 H1193 0.930 . S
H1192 C1185 0.930 . S
H1193 C1191 0.930 . S
H1194 C1182 0.930 . S
H1195 C1183 0.930 . S
H1196 C1189 0.929 . S
H1197 C1211 0.930 . S
H1198 C1190 0.930 . S
H1199 C1217 0.930 . S
H1200 C1208 0.929 . S
H1201 C1215 0.930 . S
H1202 C1179 0.931 . S
H1203 C1209 0.930 . S
H1204 C1242 0.930 . S
H1205 C1186 0.972 . S
H1206 C1241 0.931 . S
N1207 Eu1176 2.657 . S
N1207 C1208 1.334 . S
N1207 C1212 1.362 . S
C1208 H1200 0.929 . S
C1208 N1207 1.334 . S
C1208 C1211 1.413 . S
C1209 H1203 0.930 . S
C1209 C1210 1.392 . S
C1209 C1211 1.367 . S
C1210 C1209 1.392 . S
C1210 C1212 1.420 . S
C1210 C1242 1.423 . S
C1211 H1197 0.930 . S
C1211 C1208 1.413 . S
C1211 C1209 1.367 . S
C1212 N1207 1.362 . S
C1212 C1210 1.420 . S
C1212 C1216 1.429 . S
H1213 C1218 0.930 . S
N1214 Eu1176 2.609 . S
N1214 C1216 1.377 . S
N1214 C1217 1.321 . S
C1215 H1201 0.930 . S
C1215 C1217 1.400 . S
C1215 C1218 1.386 . S
C1216 C1212 1.429 . S
C1216 N1214 1.377 . S
C1216 C1219 1.411 . S
C1217 H1199 0.930 . S
C1217 N1214 1.321 . S
C1217 C1215 1.400 . S
C1218 H1213 0.930 . S
C1218 C1215 1.386 . S
C1218 C1219 1.395 . S
C1219 C1216 1.411 . S
C1219 C1218 1.395 . S
C1219 C1241 1.420 . S
O1220 Eu1176 2.558 . S
O1220 C1240 1.257 . S
O1221 Eu1176 2.612 . S
O1221 Eu1187 2.380 . S
O1221 C1232 1.276 . S
O1222 Eu1187 2.432 . S
O1222 C1239 1.264 . S
O1223 Eu1176 2.339 . S
O1223 C1239 1.254 . S
O1224 Eu1176 2.563 . S
O1224 C1232 1.235 . S
O1225 Eu1176 2.419 . S
O1225 C1240 1.249 . S
O1226 Eu1187 2.558 . S
O1226 C1251 1.257 . S
O1227 Eu1176 2.380 . S
O1227 Eu1187 2.612 . S
O1227 C1243 1.276 . S
O1228 Eu1176 2.432 . S
O1228 C1250 1.264 . S
O1229 Eu1187 2.339 . S
O1229 C1250 1.254 . S
O1230 Eu1187 2.563 . S
O1230 C1243 1.235 . S
O1231 Eu1187 2.419 . S
O1231 C1251 1.249 . S
C1232 O1221 1.276 . S
C1232 O1224 1.235 . S
C1233 C1235 1.393 . S
C1233 C1237 1.395 . S
C1233 C1240 1.492 . S
C1234 C1235 1.392 . S
C1234 C1236 1.386 . S
C1235 C1233 1.393 . S
C1235 C1234 1.392 . S
C1235 H1252 0.930 . S
C1236 C1234 1.386 . S
C1236 C1238 1.395 . S
C1236 H1253 0.930 . S
C1237 C1233 1.395 . S
C1237 C1238 1.379 . S
C1237 H1254 0.930 . S
C1238 C1236 1.395 . S
C1238 C1237 1.379 . S
C1238 H1255 0.930 . S
C1239 O1222 1.264 . S
C1239 O1223 1.254 . S
C1240 Eu1176 2.848 . S
C1240 O1220 1.257 . S
C1240 O1225 1.249 . S
C1240 C1233 1.492 . S
C1241 H1206 0.931 . S
C1241 C1219 1.420 . S
C1241 C1242 1.351 . S
C1242 H1204 0.930 . S
C1242 C1210 1.423 . S
C1242 C1241 1.351 . S
C1243 O1227 1.276 . S
C1243 O1230 1.235 . S
C1244 C1245 1.393 . S
C1244 C1248 1.395 . S
C1244 C1251 1.492 . S
C1245 C1244 1.393 . S
C1245 C1246 1.392 . S
C1245 H1256 0.930 . S
C1246 C1245 1.392 . S
C1246 C1247 1.386 . S
C1247 C1246 1.386 . S
C1247 C1249 1.395 . S
C1247 H1257 0.930 . S
C1248 C1244 1.395 . S
C1248 C1249 1.379 . S
C1248 H1258 0.930 . S
C1249 C1247 1.395 . S
C1249 C1248 1.379 . S
C1249 H1259 0.930 . S
C1250 O1228 1.264 . S
C1250 O1229 1.254 . S
C1251 Eu1187 2.848 . S
C1251 O1226 1.257 . S
C1251 O1231 1.249 . S
C1251 C1244 1.492 . S
H1252 C1235 0.930 . S
H1253 C1236 0.930 . S
H1254 C1237 0.930 . S
H1255 C1238 0.930 . S
H1256 C1245 0.930 . S
H1257 C1247 0.930 . S
H1258 C1248 0.930 . S
H1259 C1249 0.930 . S
Eu1260 N1291 2.657 . S
Eu1260 N1298 2.609 . S
Eu1260 O1304 2.558 . S
Eu1260 O1305 2.612 . S
Eu1260 O1307 2.339 . S
Eu1260 O1308 2.563 . S
Eu1260 O1309 2.419 . S
Eu1260 O1311 2.380 . S
Eu1260 O1312 2.432 . S
Eu1260 C1324 2.848 . S
C1261 C1264 1.429 . S
C1261 C1265 1.411 . S
C1261 N1268 1.377 . S
C1262 C1264 1.420 . S
C1262 C1266 1.423 . S
C1262 C1274 1.392 . S
C1263 C1265 1.420 . S
C1263 C1266 1.351 . S
C1263 H1286 0.931 . S
C1264 C1261 1.429 . S
C1264 C1262 1.420 . S
C1264 N1272 1.362 . S
C1265 C1261 1.411 . S
C1265 C1263 1.420 . S
C1265 C1270 1.395 . S
C1266 C1262 1.423 . S
C1266 C1263 1.351 . S
C1266 H1278 0.930 . S
C1267 C1269 1.400 . S
C1267 C1270 1.386 . S
C1267 H1279 0.930 . S
N1268 C1261 1.377 . S
N1268 C1269 1.321 . S
N1268 Eu1271 2.609 . S
C1269 C1267 1.400 . S
C1269 N1268 1.321 . S
C1269 H1276 0.930 . S
C1270 C1265 1.395 . S
C1270 C1267 1.386 . S
C1270 H1289 0.930 . S
Eu1271 N1268 2.609 . S
Eu1271 N1272 2.657 . S
Eu1271 O1305 2.380 . S
Eu1271 O1306 2.432 . S
Eu1271 O1310 2.558 . S
Eu1271 O1311 2.612 . S
Eu1271 O1313 2.339 . S
Eu1271 O1314 2.563 . S
Eu1271 O1315 2.419 . S
Eu1271 C1335 2.848 . S
N1272 C1264 1.362 . S
N1272 Eu1271 2.657 . S
N1272 C1273 1.334 . S
C1273 N1272 1.334 . S
C1273 C1275 1.413 . S
C1273 H1280 0.929 . S
C1274 C1262 1.392 . S
C1274 C1275 1.367 . S
C1274 H1282 0.930 . S
C1275 C1273 1.413 . S
C1275 C1274 1.367 . S
C1275 H1277 0.930 . S
H1276 C1269 0.930 . S
H1277 C1275 0.930 . S
H1278 C1266 0.930 . S
H1279 C1267 0.930 . S
H1280 C1273 0.929 . S
H1281 C1295 0.930 . S
H1282 C1274 0.930 . S
H1283 C1301 0.930 . S
H1284 C1292 0.929 . S
H1285 C1299 0.930 . S
H1286 C1263 0.931 . S
H1287 C1293 0.930 . S
H1288 C1326 0.930 . S
H1289 C1270 0.930 . S
H1290 C1325 0.931 . S
N1291 Eu1260 2.657 . S
N1291 C1292 1.334 . S
N1291 C1296 1.362 . S
C1292 H1284 0.929 . S
C1292 N1291 1.334 . S
C1292 C1295 1.413 . S
C1293 H1287 0.930 . S
C1293 C1294 1.392 . S
C1293 C1295 1.367 . S
C1294 C1293 1.392 . S
C1294 C1296 1.420 . S
C1294 C1326 1.423 . S
C1295 H1281 0.930 . S
C1295 C1292 1.413 . S
C1295 C1293 1.367 . S
C1296 N1291 1.362 . S
C1296 C1294 1.420 . S
C1296 C1300 1.429 . S
H1297 C1302 0.930 . S
N1298 Eu1260 2.609 . S
N1298 C1300 1.377 . S
N1298 C1301 1.321 . S
C1299 H1285 0.930 . S
C1299 C1301 1.400 . S
C1299 C1302 1.386 . S
C1300 C1296 1.429 . S
C1300 N1298 1.377 . S
C1300 C1303 1.411 . S
C1301 H1283 0.930 . S
C1301 N1298 1.321 . S
C1301 C1299 1.400 . S
C1302 H1297 0.930 . S
C1302 C1299 1.386 . S
C1302 C1303 1.395 . S
C1303 C1300 1.411 . S
C1303 C1302 1.395 . S
C1303 C1325 1.420 . S
O1304 Eu1260 2.558 . S
O1304 C1324 1.257 . S
O1305 Eu1260 2.612 . S
O1305 Eu1271 2.380 . S
O1305 C1316 1.276 . S
O1306 Eu1271 2.432 . S
O1306 C1323 1.264 . S
O1307 Eu1260 2.339 . S
O1307 C1323 1.254 . S
O1308 Eu1260 2.563 . S
O1308 C1316 1.235 . S
O1309 Eu1260 2.419 . S
O1309 C1324 1.249 . S
O1310 Eu1271 2.558 . S
O1310 C1335 1.257 . S
O1311 Eu1260 2.380 . S
O1311 Eu1271 2.612 . S
O1311 C1327 1.276 . S
O1312 Eu1260 2.432 . S
O1312 C1334 1.264 . S
O1313 Eu1271 2.339 . S
O1313 C1334 1.254 . S
O1314 Eu1271 2.563 . S
O1314 C1327 1.235 . S
O1315 Eu1271 2.419 . S
O1315 C1335 1.249 . S
C1316 O1305 1.276 . S
C1316 O1308 1.235 . S
C1317 C1319 1.393 . S
C1317 C1321 1.395 . S
C1317 C1324 1.492 . S
C1318 C1319 1.392 . S
C1318 C1320 1.386 . S
C1319 C1317 1.393 . S
C1319 C1318 1.392 . S
C1319 H1336 0.930 . S
C1320 C1318 1.386 . S
C1320 C1322 1.395 . S
C1320 H1337 0.930 . S
C1321 C1317 1.395 . S
C1321 C1322 1.379 . S
C1321 H1338 0.930 . S
C1322 C1320 1.395 . S
C1322 C1321 1.379 . S
C1322 H1339 0.930 . S
C1323 O1306 1.264 . S
C1323 O1307 1.254 . S
C1324 Eu1260 2.848 . S
C1324 O1304 1.257 . S
C1324 O1309 1.249 . S
C1324 C1317 1.492 . S
C1325 H1290 0.931 . S
C1325 C1303 1.420 . S
C1325 C1326 1.351 . S
C1326 H1288 0.930 . S
C1326 C1294 1.423 . S
C1326 C1325 1.351 . S
C1327 O1311 1.276 . S
C1327 O1314 1.235 . S
C1328 C1329 1.393 . S
C1328 C1332 1.395 . S
C1328 C1335 1.492 . S
C1329 C1328 1.393 . S
C1329 C1330 1.392 . S
C1329 H1340 0.930 . S
C1330 C1329 1.392 . S
C1330 C1331 1.386 . S
C1331 C1330 1.386 . S
C1331 C1333 1.395 . S
C1331 H1341 0.930 . S
C1332 C1328 1.395 . S
C1332 C1333 1.379 . S
C1332 H1342 0.930 . S
C1333 C1331 1.395 . S
C1333 C1332 1.379 . S
C1333 H1343 0.930 . S
C1334 O1312 1.264 . S
C1334 O1313 1.254 . S
C1335 Eu1271 2.848 . S
C1335 O1310 1.257 . S
C1335 O1315 1.249 . S
C1335 C1328 1.492 . S
H1336 C1319 0.930 . S
H1337 C1320 0.930 . S
H1338 C1321 0.930 . S
H1339 C1322 0.930 . S
H1340 C1329 0.930 . S
H1341 C1331 0.930 . S
H1342 C1332 0.930 . S
H1343 C1333 0.930 . S
Eu1344 N1375 2.657 . S
Eu1344 N1382 2.609 . S
Eu1344 O1388 2.558 . S
Eu1344 O1389 2.612 . S
Eu1344 O1391 2.339 . S
Eu1344 O1392 2.563 . S
Eu1344 O1393 2.419 . S
Eu1344 O1395 2.380 . S
Eu1344 O1396 2.432 . S
Eu1344 C1408 2.848 . S
C1345 C1348 1.429 . S
C1345 C1349 1.411 . S
C1345 N1352 1.377 . S
C1346 C1348 1.420 . S
C1346 C1350 1.423 . S
C1346 C1358 1.392 . S
C1347 C1349 1.420 . S
C1347 C1350 1.351 . S
C1347 H1370 0.931 . S
C1348 C1345 1.429 . S
C1348 C1346 1.420 . S
C1348 N1356 1.362 . S
C1349 C1345 1.411 . S
C1349 C1347 1.420 . S
C1349 C1354 1.395 . S
C1350 C1346 1.423 . S
C1350 C1347 1.351 . S
C1350 H1362 0.930 . S
C1351 C1353 1.400 . S
C1351 C1354 1.386 . S
C1351 H1363 0.930 . S
N1352 C1345 1.377 . S
N1352 C1353 1.321 . S
N1352 Eu1355 2.609 . S
C1353 C1351 1.400 . S
C1353 N1352 1.321 . S
C1353 H1360 0.930 . S
C1354 C1349 1.395 . S
C1354 C1351 1.386 . S
C1354 H1373 0.930 . S
Eu1355 N1352 2.609 . S
Eu1355 N1356 2.657 . S
Eu1355 O1389 2.380 . S
Eu1355 O1390 2.432 . S
Eu1355 O1394 2.558 . S
Eu1355 O1395 2.612 . S
Eu1355 O1397 2.339 . S
Eu1355 O1398 2.563 . S
Eu1355 O1399 2.419 . S
Eu1355 C1419 2.848 . S
N1356 C1348 1.362 . S
N1356 Eu1355 2.657 . S
N1356 C1357 1.334 . S
C1357 N1356 1.334 . S
C1357 C1359 1.413 . S
C1357 H1364 0.929 . S
C1358 C1346 1.392 . S
C1358 C1359 1.367 . S
C1358 H1366 0.930 . S
C1359 C1357 1.413 . S
C1359 C1358 1.367 . S
C1359 H1361 0.930 . S
H1360 C1353 0.930 . S
H1361 C1359 0.930 . S
H1362 C1350 0.930 . S
H1363 C1351 0.930 . S
H1364 C1357 0.929 . S
H1365 C1379 0.930 . S
H1366 C1358 0.930 . S
H1367 C1385 0.930 . S
H1368 C1376 0.929 . S
H1369 C1383 0.930 . S
H1370 C1347 0.931 . S
H1371 C1377 0.930 . S
H1372 C1410 0.930 . S
H1373 C1354 0.930 . S
H1374 C1409 0.931 . S
N1375 Eu1344 2.657 . S
N1375 C1376 1.334 . S
N1375 C1380 1.362 . S
C1376 H1368 0.929 . S
C1376 N1375 1.334 . S
C1376 C1379 1.413 . S
C1377 H1371 0.930 . S
C1377 C1378 1.392 . S
C1377 C1379 1.367 . S
C1378 C1377 1.392 . S
C1378 C1380 1.420 . S
C1378 C1410 1.423 . S
C1379 H1365 0.930 . S
C1379 C1376 1.413 . S
C1379 C1377 1.367 . S
C1380 N1375 1.362 . S
C1380 C1378 1.420 . S
C1380 C1384 1.429 . S
H1381 C1386 0.930 . S
N1382 Eu1344 2.609 . S
N1382 C1384 1.377 . S
N1382 C1385 1.321 . S
C1383 H1369 0.930 . S
C1383 C1385 1.400 . S
C1383 C1386 1.386 . S
C1384 C1380 1.429 . S
C1384 N1382 1.377 . S
C1384 C1387 1.411 . S
C1385 H1367 0.930 . S
C1385 N1382 1.321 . S
C1385 C1383 1.400 . S
C1386 H1381 0.930 . S
C1386 C1383 1.386 . S
C1386 C1387 1.395 . S
C1387 C1384 1.411 . S
C1387 C1386 1.395 . S
C1387 C1409 1.420 . S
O1388 Eu1344 2.558 . S
O1388 C1408 1.257 . S
O1389 Eu1344 2.612 . S
O1389 Eu1355 2.380 . S
O1389 C1400 1.276 . S
O1390 Eu1355 2.432 . S
O1390 C1407 1.264 . S
O1391 Eu1344 2.339 . S
O1391 C1407 1.254 . S
O1392 Eu1344 2.563 . S
O1392 C1400 1.235 . S
O1393 Eu1344 2.419 . S
O1393 C1408 1.249 . S
O1394 Eu1355 2.558 . S
O1394 C1419 1.257 . S
O1395 Eu1344 2.380 . S
O1395 Eu1355 2.612 . S
O1395 C1411 1.276 . S
O1396 Eu1344 2.432 . S
O1396 C1418 1.264 . S
O1397 Eu1355 2.339 . S
O1397 C1418 1.254 . S
O1398 Eu1355 2.563 . S
O1398 C1411 1.235 . S
O1399 Eu1355 2.419 . S
O1399 C1419 1.249 . S
C1400 O1389 1.276 . S
C1400 O1392 1.235 . S
C1401 C1403 1.393 . S
C1401 C1405 1.395 . S
C1401 C1408 1.492 . S
C1402 C1403 1.392 . S
C1402 C1404 1.386 . S
C1403 C1401 1.393 . S
C1403 C1402 1.392 . S
C1403 H1420 0.930 . S
C1404 C1402 1.386 . S
C1404 C1406 1.395 . S
C1404 H1421 0.930 . S
C1405 C1401 1.395 . S
C1405 C1406 1.379 . S
C1405 H1422 0.930 . S
C1406 C1404 1.395 . S
C1406 C1405 1.379 . S
C1406 H1423 0.930 . S
C1407 O1390 1.264 . S
C1407 O1391 1.254 . S
C1408 Eu1344 2.848 . S
C1408 O1388 1.257 . S
C1408 O1393 1.249 . S
C1408 C1401 1.492 . S
C1409 H1374 0.931 . S
C1409 C1387 1.420 . S
C1409 C1410 1.351 . S
C1410 H1372 0.930 . S
C1410 C1378 1.423 . S
C1410 C1409 1.351 . S
C1411 O1395 1.276 . S
C1411 O1398 1.235 . S
C1412 C1413 1.393 . S
C1412 C1416 1.395 . S
C1412 C1419 1.492 . S
C1413 C1412 1.393 . S
C1413 C1414 1.392 . S
C1413 H1424 0.930 . S
C1414 C1413 1.392 . S
C1414 C1415 1.386 . S
C1415 C1414 1.386 . S
C1415 C1417 1.395 . S
C1415 H1425 0.930 . S
C1416 C1412 1.395 . S
C1416 C1417 1.379 . S
C1416 H1426 0.930 . S
C1417 C1415 1.395 . S
C1417 C1416 1.379 . S
C1417 H1427 0.930 . S
C1418 O1396 1.264 . S
C1418 O1397 1.254 . S
C1419 Eu1355 2.848 . S
C1419 O1394 1.257 . S
C1419 O1399 1.249 . S
C1419 C1412 1.492 . S
H1420 C1403 0.930 . S
H1421 C1404 0.930 . S
H1422 C1405 0.930 . S
H1423 C1406 0.930 . S
H1424 C1413 0.930 . S
H1425 C1415 0.930 . S
H1426 C1416 0.930 . S
H1427 C1417 0.930 . S
Eu1428 N1459 2.657 . S
Eu1428 N1466 2.609 . S
Eu1428 O1472 2.558 . S
Eu1428 O1473 2.612 . S
Eu1428 O1475 2.339 . S
Eu1428 O1476 2.563 . S
Eu1428 O1477 2.419 . S
Eu1428 O1479 2.380 . S
Eu1428 O1480 2.432 . S
Eu1428 C1492 2.848 . S
C1429 C1432 1.429 . S
C1429 C1433 1.411 . S
C1429 N1436 1.377 . S
C1430 C1432 1.420 . S
C1430 C1434 1.423 . S
C1430 C1442 1.392 . S
C1431 C1433 1.420 . S
C1431 C1434 1.351 . S
C1431 H1454 0.931 . S
C1432 C1429 1.429 . S
C1432 C1430 1.420 . S
C1432 N1440 1.362 . S
C1433 C1429 1.411 . S
C1433 C1431 1.420 . S
C1433 C1438 1.395 . S
C1434 C1430 1.423 . S
C1434 C1431 1.351 . S
C1434 H1446 0.930 . S
C1435 C1437 1.400 . S
C1435 C1438 1.386 . S
C1435 H1447 0.930 . S
N1436 C1429 1.377 . S
N1436 C1437 1.321 . S
N1436 Eu1439 2.609 . S
C1437 C1435 1.400 . S
C1437 N1436 1.321 . S
C1437 H1444 0.930 . S
C1438 C1433 1.395 . S
C1438 C1435 1.386 . S
C1438 H1457 0.930 . S
Eu1439 N1436 2.609 . S
Eu1439 N1440 2.657 . S
Eu1439 O1473 2.380 . S
Eu1439 O1474 2.432 . S
Eu1439 O1478 2.558 . S
Eu1439 O1479 2.612 . S
Eu1439 O1481 2.339 . S
Eu1439 O1482 2.563 . S
Eu1439 O1483 2.419 . S
Eu1439 C1503 2.848 . S
N1440 C1432 1.362 . S
N1440 Eu1439 2.657 . S
N1440 C1441 1.334 . S
C1441 N1440 1.334 . S
C1441 C1443 1.413 . S
C1441 H1448 0.929 . S
C1442 C1430 1.392 . S
C1442 C1443 1.367 . S
C1442 H1450 0.930 . S
C1443 C1441 1.413 . S
C1443 C1442 1.367 . S
C1443 H1445 0.930 . S
H1444 C1437 0.930 . S
H1445 C1443 0.930 . S
H1446 C1434 0.930 . S
H1447 C1435 0.930 . S
H1448 C1441 0.929 . S
H1449 C1463 0.930 . S
H1450 C1442 0.930 . S
H1451 C1469 0.930 . S
H1452 C1460 0.929 . S
H1453 C1467 0.930 . S
H1454 C1431 0.931 . S
H1455 C1461 0.930 . S
H1456 C1494 0.930 . S
H1457 C1438 0.930 . S
H1458 C1493 0.931 . S
N1459 Eu1428 2.657 . S
N1459 C1460 1.334 . S
N1459 C1464 1.362 . S
C1460 H1452 0.929 . S
C1460 N1459 1.334 . S
C1460 C1463 1.413 . S
C1461 H1455 0.930 . S
C1461 C1462 1.392 . S
C1461 C1463 1.367 . S
C1462 C1461 1.392 . S
C1462 C1464 1.420 . S
C1462 C1494 1.423 . S
C1463 H1449 0.930 . S
C1463 C1460 1.413 . S
C1463 C1461 1.367 . S
C1464 N1459 1.362 . S
C1464 C1462 1.420 . S
C1464 C1468 1.429 . S
H1465 C1470 0.930 . S
N1466 Eu1428 2.609 . S
N1466 C1468 1.377 . S
N1466 C1469 1.321 . S
C1467 H1453 0.930 . S
C1467 C1469 1.400 . S
C1467 C1470 1.386 . S
C1468 C1464 1.429 . S
C1468 N1466 1.377 . S
C1468 C1471 1.411 . S
C1469 H1451 0.930 . S
C1469 N1466 1.321 . S
C1469 C1467 1.400 . S
C1470 H1465 0.930 . S
C1470 C1467 1.386 . S
C1470 C1471 1.395 . S
C1471 C1468 1.411 . S
C1471 C1470 1.395 . S
C1471 C1493 1.420 . S
O1472 Eu1428 2.558 . S
O1472 C1492 1.257 . S
O1473 Eu1428 2.612 . S
O1473 Eu1439 2.380 . S
O1473 C1484 1.276 . S
O1474 Eu1439 2.432 . S
O1474 C1491 1.264 . S
O1475 Eu1428 2.339 . S
O1475 C1491 1.254 . S
O1476 Eu1428 2.563 . S
O1476 C1484 1.235 . S
O1477 Eu1428 2.419 . S
O1477 C1492 1.249 . S
O1478 Eu1439 2.558 . S
O1478 C1503 1.257 . S
O1479 Eu1428 2.380 . S
O1479 Eu1439 2.612 . S
O1479 C1495 1.276 . S
O1480 Eu1428 2.432 . S
O1480 C1502 1.264 . S
O1481 Eu1439 2.339 . S
O1481 C1502 1.254 . S
O1482 Eu1439 2.563 . S
O1482 C1495 1.235 . S
O1483 Eu1439 2.419 . S
O1483 C1503 1.249 . S
C1484 O1473 1.276 . S
C1484 O1476 1.235 . S
C1485 C1487 1.393 . S
C1485 C1489 1.395 . S
C1485 C1492 1.492 . S
C1486 C1487 1.392 . S
C1486 C1488 1.386 . S
C1487 C1485 1.393 . S
C1487 C1486 1.392 . S
C1487 H1504 0.930 . S
C1488 C1486 1.386 . S
C1488 C1490 1.395 . S
C1488 H1505 0.930 . S
C1489 C1485 1.395 . S
C1489 C1490 1.379 . S
C1489 H1506 0.930 . S
C1490 C1488 1.395 . S
C1490 C1489 1.379 . S
C1490 H1507 0.930 . S
C1491 O1474 1.264 . S
C1491 O1475 1.254 . S
C1492 Eu1428 2.848 . S
C1492 O1472 1.257 . S
C1492 O1477 1.249 . S
C1492 C1485 1.492 . S
C1493 H1458 0.931 . S
C1493 C1471 1.420 . S
C1493 C1494 1.351 . S
C1494 H1456 0.930 . S
C1494 C1462 1.423 . S
C1494 C1493 1.351 . S
C1495 O1479 1.276 . S
C1495 O1482 1.235 . S
C1496 C1497 1.393 . S
C1496 C1500 1.395 . S
C1496 C1503 1.492 . S
C1497 C1496 1.393 . S
C1497 C1498 1.392 . S
C1497 H1508 0.930 . S
C1498 C1497 1.392 . S
C1498 C1499 1.386 . S
C1499 C1498 1.386 . S
C1499 C1501 1.395 . S
C1499 H1509 0.930 . S
C1500 C1496 1.395 . S
C1500 C1501 1.379 . S
C1500 H1510 0.930 . S
C1501 C1499 1.395 . S
C1501 C1500 1.379 . S
C1501 H1511 0.930 . S
C1502 O1480 1.264 . S
C1502 O1481 1.254 . S
C1503 Eu1439 2.848 . S
C1503 O1478 1.257 . S
C1503 O1483 1.249 . S
C1503 C1496 1.492 . S
H1504 C1487 0.930 . S
H1505 C1488 0.930 . S
H1506 C1489 0.930 . S
H1507 C1490 0.930 . S
H1508 C1497 0.930 . S
H1509 C1499 0.930 . S
H1510 C1500 0.930 . S
H1511 C1501 0.930 . S
Eu1512 N1543 2.657 . S
Eu1512 N1550 2.609 . S
Eu1512 O1556 2.558 . S
Eu1512 O1557 2.612 . S
Eu1512 O1559 2.339 . S
Eu1512 O1560 2.563 . S
Eu1512 O1561 2.419 . S
Eu1512 O1563 2.380 . S
Eu1512 O1564 2.432 . S
Eu1512 C1576 2.848 . S
C1513 C1516 1.429 . S
C1513 C1517 1.411 . S
C1513 N1520 1.377 . S
C1514 C1516 1.420 . S
C1514 C1518 1.423 . S
C1514 C1526 1.392 . S
C1515 C1517 1.420 . S
C1515 C1518 1.351 . S
C1515 H1538 0.931 . S
C1516 C1513 1.429 . S
C1516 C1514 1.420 . S
C1516 N1524 1.362 . S
C1517 C1513 1.411 . S
C1517 C1515 1.420 . S
C1517 C1522 1.395 . S
C1518 C1514 1.423 . S
C1518 C1515 1.351 . S
C1518 H1530 0.930 . S
C1519 C1521 1.400 . S
C1519 C1522 1.386 . S
C1519 H1531 0.930 . S
N1520 C1513 1.377 . S
N1520 C1521 1.321 . S
N1520 Eu1523 2.609 . S
C1521 C1519 1.400 . S
C1521 N1520 1.321 . S
C1521 H1528 0.930 . S
C1522 C1517 1.395 . S
C1522 C1519 1.386 . S
C1522 H1541 0.930 . S
Eu1523 N1520 2.609 . S
Eu1523 N1524 2.657 . S
Eu1523 O1557 2.380 . S
Eu1523 O1558 2.432 . S
Eu1523 O1562 2.558 . S
Eu1523 O1563 2.612 . S
Eu1523 O1565 2.339 . S
Eu1523 O1566 2.563 . S
Eu1523 O1567 2.419 . S
Eu1523 C1587 2.848 . S
N1524 C1516 1.362 . S
N1524 Eu1523 2.657 . S
N1524 C1525 1.334 . S
C1525 N1524 1.334 . S
C1525 C1527 1.413 . S
C1525 H1532 0.929 . S
C1526 C1514 1.392 . S
C1526 C1527 1.367 . S
C1526 H1534 0.930 . S
C1527 C1525 1.413 . S
C1527 C1526 1.367 . S
C1527 H1529 0.930 . S
H1528 C1521 0.930 . S
H1529 C1527 0.930 . S
H1530 C1518 0.930 . S
H1531 C1519 0.930 . S
H1532 C1525 0.929 . S
H1533 C1547 0.930 . S
H1534 C1526 0.930 . S
H1535 C1553 0.930 . S
H1536 C1544 0.929 . S
H1537 C1551 0.930 . S
H1538 C1515 0.931 . S
H1539 C1545 0.930 . S
H1540 C1578 0.930 . S
H1541 C1522 0.930 . S
H1542 C1577 0.931 . S
N1543 Eu1512 2.657 . S
N1543 C1544 1.334 . S
N1543 C1548 1.362 . S
C1544 H1536 0.929 . S
C1544 N1543 1.334 . S
C1544 C1547 1.413 . S
C1545 H1539 0.930 . S
C1545 C1546 1.392 . S
C1545 C1547 1.367 . S
C1546 C1545 1.392 . S
C1546 C1548 1.420 . S
C1546 C1578 1.423 . S
C1547 H1533 0.930 . S
C1547 C1544 1.413 . S
C1547 C1545 1.367 . S
C1548 N1543 1.362 . S
C1548 C1546 1.420 . S
C1548 C1552 1.429 . S
H1549 C1554 0.930 . S
N1550 Eu1512 2.609 . S
N1550 C1552 1.377 . S
N1550 C1553 1.321 . S
C1551 H1537 0.930 . S
C1551 C1553 1.400 . S
C1551 C1554 1.386 . S
C1552 C1548 1.429 . S
C1552 N1550 1.377 . S
C1552 C1555 1.411 . S
C1553 H1535 0.930 . S
C1553 N1550 1.321 . S
C1553 C1551 1.400 . S
C1554 H1549 0.930 . S
C1554 C1551 1.386 . S
C1554 C1555 1.395 . S
C1555 C1552 1.411 . S
C1555 C1554 1.395 . S
C1555 C1577 1.420 . S
O1556 Eu1512 2.558 . S
O1556 C1576 1.257 . S
O1557 Eu1512 2.612 . S
O1557 Eu1523 2.380 . S
O1557 C1568 1.276 . S
O1558 Eu1523 2.432 . S
O1558 C1575 1.264 . S
O1559 Eu1512 2.339 . S
O1559 C1575 1.254 . S
O1560 Eu1512 2.563 . S
O1560 C1568 1.235 . S
O1561 Eu1512 2.419 . S
O1561 C1576 1.249 . S
O1562 Eu1523 2.558 . S
O1562 C1587 1.257 . S
O1563 Eu1512 2.380 . S
O1563 Eu1523 2.612 . S
O1563 C1579 1.276 . S
O1564 Eu1512 2.432 . S
O1564 C1586 1.264 . S
O1565 Eu1523 2.339 . S
O1565 C1586 1.254 . S
O1566 Eu1523 2.563 . S
O1566 C1579 1.235 . S
O1567 Eu1523 2.419 . S
O1567 C1587 1.249 . S
C1568 O1557 1.276 . S
C1568 O1560 1.235 . S
C1569 C1571 1.393 . S
C1569 C1573 1.395 . S
C1569 C1576 1.492 . S
C1570 C1571 1.392 . S
C1570 C1572 1.386 . S
C1571 C1569 1.393 . S
C1571 C1570 1.392 . S
C1571 H1588 0.930 . S
C1572 C1570 1.386 . S
C1572 C1574 1.395 . S
C1572 H1589 0.930 . S
C1573 C1569 1.395 . S
C1573 C1574 1.379 . S
C1573 H1590 0.930 . S
C1574 C1572 1.395 . S
C1574 C1573 1.379 . S
C1574 H1591 0.930 . S
C1575 O1558 1.264 . S
C1575 O1559 1.254 . S
C1576 Eu1512 2.848 . S
C1576 O1556 1.257 . S
C1576 O1561 1.249 . S
C1576 C1569 1.492 . S
C1577 H1542 0.931 . S
C1577 C1555 1.420 . S
C1577 C1578 1.351 . S
C1578 H1540 0.930 . S
C1578 C1546 1.423 . S
C1578 C1577 1.351 . S
C1579 O1563 1.276 . S
C1579 O1566 1.235 . S
C1580 C1581 1.393 . S
C1580 C1584 1.395 . S
C1580 C1587 1.492 . S
C1581 C1580 1.393 . S
C1581 C1582 1.392 . S
C1581 H1592 0.930 . S
C1582 C1581 1.392 . S
C1582 C1583 1.386 . S
C1583 C1582 1.386 . S
C1583 C1585 1.395 . S
C1583 H1593 0.930 . S
C1584 C1580 1.395 . S
C1584 C1585 1.379 . S
C1584 H1594 0.930 . S
C1585 C1583 1.395 . S
C1585 C1584 1.379 . S
C1585 H1595 0.930 . S
C1586 O1564 1.264 . S
C1586 O1565 1.254 . S
C1587 Eu1523 2.848 . S
C1587 O1562 1.257 . S
C1587 O1567 1.249 . S
C1587 C1580 1.492 . S
H1588 C1571 0.930 . S
H1589 C1572 0.930 . S
H1590 C1573 0.930 . S
H1591 C1574 0.930 . S
H1592 C1581 0.930 . S
H1593 C1583 0.930 . S
H1594 C1584 0.930 . S
H1595 C1585 0.930 . S
Eu1596 N1627 2.657 . S
Eu1596 N1634 2.609 . S
Eu1596 O1640 2.558 . S
Eu1596 O1641 2.612 . S
Eu1596 O1643 2.339 . S
Eu1596 O1644 2.563 . S
Eu1596 O1645 2.419 . S
Eu1596 O1647 2.380 . S
Eu1596 O1648 2.432 . S
Eu1596 C1660 2.848 . S
C1597 C1600 1.429 1_455 S
C1597 C1601 1.411 1_455 S
C1597 N1604 1.377 . S
C1598 C1600 1.420 . S
C1598 C1602 1.423 . S
C1598 C1610 1.392 . S
C1599 C1601 1.420 . S
C1599 C1602 1.351 . S
C1599 H1622 0.931 . S
C1600 C1597 1.429 1_655 S
C1600 C1598 1.420 . S
C1600 N1608 1.362 1_655 S
C1601 C1597 1.411 1_655 S
C1601 C1599 1.420 . S
C1601 C1606 1.395 . S
C1602 C1598 1.423 . S
C1602 C1599 1.351 . S
C1602 H1614 0.930 . S
C1603 C1605 1.400 . S
C1603 C1606 1.386 1_455 S
C1603 H1615 0.930 . S
N1604 C1597 1.377 . S
N1604 C1605 1.321 . S
N1604 Eu1607 2.609 . S
C1605 C1603 1.400 . S
C1605 N1604 1.321 . S
C1605 H1612 0.930 . S
C1606 C1601 1.395 . S
C1606 C1603 1.386 1_655 S
C1606 H1625 0.930 . S
Eu1607 N1604 2.609 . S
Eu1607 N1608 2.657 . S
Eu1607 O1641 2.380 . S
Eu1607 O1642 2.432 . S
Eu1607 O1646 2.558 . S
Eu1607 O1647 2.612 . S
Eu1607 O1649 2.339 . S
Eu1607 O1650 2.563 . S
Eu1607 O1651 2.419 . S
Eu1607 C1671 2.848 1_455 S
N1608 C1600 1.362 1_455 S
N1608 Eu1607 2.657 . S
N1608 C1609 1.334 . S
C1609 N1608 1.334 . S
C1609 C1611 1.413 1_455 S
C1609 H1616 0.929 . S
C1610 C1598 1.392 . S
C1610 C1611 1.367 . S
C1610 H1618 0.930 . S
C1611 C1609 1.413 1_655 S
C1611 C1610 1.367 . S
C1611 H1613 0.930 1_554 S
H1612 C1605 0.930 . S
H1613 C1611 0.930 1_556 S
H1614 C1602 0.930 . S
H1615 C1603 0.930 . S
H1616 C1609 0.929 . S
H1617 C1631 0.930 . S
H1618 C1610 0.930 . S
H1619 C1637 0.930 . S
H1620 C1628 0.929 . S
H1621 C1635 0.930 . S
H1622 C1599 0.931 . S
H1623 C1629 0.930 . S
H1624 C1662 0.930 . S
H1625 C1606 0.930 . S
H1626 C1661 0.931 . S
N1627 Eu1596 2.657 . S
N1627 C1628 1.334 . S
N1627 C1632 1.362 . S
C1628 H1620 0.929 . S
C1628 N1627 1.334 . S
C1628 C1631 1.413 . S
C1629 H1623 0.930 . S
C1629 C1630 1.392 . S
C1629 C1631 1.367 . S
C1630 C1629 1.392 . S
C1630 C1632 1.420 . S
C1630 C1662 1.423 . S
C1631 H1617 0.930 . S
C1631 C1628 1.413 . S
C1631 C1629 1.367 . S
C1632 N1627 1.362 . S
C1632 C1630 1.420 . S
C1632 C1636 1.429 . S
H1633 C1638 0.930 . S
N1634 Eu1596 2.609 . S
N1634 C1636 1.377 . S
N1634 C1637 1.321 1_554 S
C1635 H1621 0.930 . S
C1635 C1637 1.400 . S
C1635 C1638 1.386 . S
C1636 C1632 1.429 . S
C1636 N1634 1.377 . S
C1636 C1639 1.411 . S
C1637 H1619 0.930 . S
C1637 N1634 1.321 1_556 S
C1637 C1635 1.400 . S
C1638 H1633 0.930 . S
C1638 C1635 1.386 . S
C1638 C1639 1.395 1_556 S
C1639 C1636 1.411 . S
C1639 C1638 1.395 1_554 S
C1639 C1661 1.420 . S
O1640 Eu1596 2.558 . S
O1640 C1660 1.257 . S
O1641 Eu1596 2.612 . S
O1641 Eu1607 2.380 . S
O1641 C1652 1.276 . S
O1642 Eu1607 2.432 . S
O1642 C1659 1.264 . S
O1643 Eu1596 2.339 . S
O1643 C1659 1.254 . S
O1644 Eu1596 2.563 . S
O1644 C1652 1.235 . S
O1645 Eu1596 2.419 . S
O1645 C1660 1.249 . S
O1646 Eu1607 2.558 . S
O1646 C1671 1.257 1_455 S
O1647 Eu1596 2.380 . S
O1647 Eu1607 2.612 . S
O1647 C1663 1.276 . S
O1648 Eu1596 2.432 . S
O1648 C1670 1.264 . S
O1649 Eu1607 2.339 . S
O1649 C1670 1.254 . S
O1650 Eu1607 2.563 . S
O1650 C1663 1.235 . S
O1651 Eu1607 2.419 . S
O1651 C1671 1.249 1_455 S
C1652 O1641 1.276 . S
C1652 O1644 1.235 . S
C1653 C1655 1.393 . S
C1653 C1657 1.395 1_554 S
C1653 C1660 1.492 . S
C1654 C1655 1.392 . S
C1654 C1656 1.386 . S
C1655 C1653 1.393 . S
C1655 C1654 1.392 . S
C1655 H1672 0.930 . S
C1656 C1654 1.386 . S
C1656 C1658 1.395 1_554 S
C1656 H1673 0.930 . S
C1657 C1653 1.395 1_556 S
C1657 C1658 1.379 . S
C1657 H1674 0.930 . S
C1658 C1656 1.395 1_556 S
C1658 C1657 1.379 . S
C1658 H1675 0.930 . S
C1659 O1642 1.264 . S
C1659 O1643 1.254 . S
C1660 Eu1596 2.848 . S
C1660 O1640 1.257 . S
C1660 O1645 1.249 . S
C1660 C1653 1.492 . S
C1661 H1626 0.931 . S
C1661 C1639 1.420 . S
C1661 C1662 1.351 . S
C1662 H1624 0.930 . S
C1662 C1630 1.423 . S
C1662 C1661 1.351 . S
C1663 O1647 1.276 . S
C1663 O1650 1.235 . S
C1664 C1665 1.393 . S
C1664 C1668 1.395 . S
C1664 C1671 1.492 . S
C1665 C1664 1.393 . S
C1665 C1666 1.392 . S
C1665 H1676 0.930 . S
C1666 C1665 1.392 . S
C1666 C1667 1.386 . S
C1667 C1666 1.386 . S
C1667 C1669 1.395 . S
C1667 H1677 0.930 . S
C1668 C1664 1.395 . S
C1668 C1669 1.379 . S
C1668 H1678 0.930 . S
C1669 C1667 1.395 . S
C1669 C1668 1.379 . S
C1669 H1679 0.930 . S
C1670 O1648 1.264 . S
C1670 O1649 1.254 . S
C1671 Eu1607 2.848 1_655 S
C1671 O1646 1.257 1_655 S
C1671 O1651 1.249 1_655 S
C1671 C1664 1.492 . S
H1672 C1655 0.930 . S
H1673 C1656 0.930 . S
H1674 C1657 0.930 . S
H1675 C1658 0.930 . S
H1676 C1665 0.930 . S
H1677 C1667 0.930 . S
H1678 C1668 0.930 . S
H1679 C1669 0.930 . S
H1680 C1698 0.951 . S
H1681 C1700 0.951 . S
H1682 C1702 0.950 . S
H1683 C1703 0.950 . S
H1684 C1705 0.950 . S
H1685 C1708 0.950 . S
H1686 C1709 0.950 . S
H1687 C1711 0.950 . S
H1688 C1712 0.950 1_455 S
H1689 C1713 0.951 . S
H1690 C1715 0.951 . S
H1691 C1717 0.950 . S
H1692 C1718 0.950 . S
H1693 C1720 0.950 . S
H1694 C1723 0.950 . S
H1695 C1724 0.949 . S
H1696 C1726 0.950 . S
H1697 C1727 0.950 . S
C1698 H1680 0.951 . S
C1698 C1699 1.366 . S
C1698 C1700 1.388 . S
C1699 C1698 1.366 . S
C1699 C1703 1.385 . S
C1700 H1681 0.951 . S
C1700 C1698 1.388 . S
C1700 C1701 1.366 . S
C1701 C1700 1.366 . S
C1701 C1702 1.414 . S
C1701 C1704 1.499 . S
C1702 H1682 0.950 . S
C1702 C1701 1.414 . S
C1702 C1703 1.374 . S
C1703 H1683 0.950 . S
C1703 C1699 1.385 . S
C1703 C1702 1.374 . S
C1704 C1701 1.499 . S
C1704 C1705 1.373 . S
C1704 C1706 1.389 . S
C1705 H1684 0.950 . S
C1705 C1704 1.373 . S
C1705 C1721 1.377 . S
C1706 C1704 1.389 . S
C1706 C1707 1.534 . S
C1706 C1720 1.377 . S
C1707 C1706 1.534 . S
C1707 C1708 1.388 1_455 S
C1707 C1712 1.362 1_455 S
C1708 H1685 0.950 . S
C1708 C1707 1.388 1_655 S
C1708 C1709 1.334 . S
C1709 H1686 0.950 . S
C1709 C1708 1.334 . S
C1709 C1710 1.287 . S
C1710 C1709 1.287 . S
C1710 C1711 1.524 . S
C1710 H1729 0.913 . S
C1711 H1687 0.950 . S
C1711 C1710 1.524 . S
C1711 C1712 1.415 . S
C1712 H1688 0.950 1_655 S
C1712 C1707 1.362 1_655 S
C1712 C1711 1.415 . S
C1713 H1689 0.951 . S
C1713 C1714 1.366 . S
C1713 C1715 1.388 . S
C1714 C1713 1.366 . S
C1714 C1718 1.385 1_554 S
C1715 H1690 0.951 . S
C1715 C1713 1.388 . S
C1715 C1716 1.366 1_554 S
C1716 C1715 1.366 1_556 S
C1716 C1717 1.414 . S
C1716 C1719 1.499 . S
C1717 H1691 0.950 . S
C1717 C1716 1.414 . S
C1717 C1718 1.374 . S
C1718 H1692 0.950 . S
C1718 C1714 1.385 1_556 S
C1718 C1717 1.374 . S
C1719 C1716 1.499 . S
C1719 C1720 1.373 . S
C1719 C1721 1.389 . S
C1720 H1693 0.950 . S
C1720 C1706 1.377 . S
C1720 C1719 1.373 . S
C1721 C1705 1.377 . S
C1721 C1719 1.389 . S
C1721 C1722 1.524 1_556 S
C1722 C1721 1.524 1_554 S
C1722 C1723 1.397 1_554 S
C1722 C1727 1.363 . S
C1723 H1694 0.950 . S
C1723 C1722 1.397 1_556 S
C1723 C1724 1.334 1_556 S
C1724 H1695 0.949 . S
C1724 C1723 1.334 1_554 S
C1724 C1725 1.287 . S
C1725 C1724 1.287 . S
C1725 C1726 1.524 . S
C1725 H1728 0.999 . S
C1726 H1696 0.950 . S
C1726 C1725 1.524 . S
C1726 C1727 1.415 . S
C1727 H1697 0.950 . S
C1727 C1722 1.363 . S
C1727 C1726 1.415 . S
H1728 C1725 0.999 . S
H1729 C1710 0.913 . S
H1730 C1748 0.951 . S
H1731 C1750 0.951 . S
H1732 C1752 0.950 . S
H1733 C1753 0.950 . S
H1734 C1755 0.950 . S
H1735 C1758 0.950 . S
H1736 C1759 0.950 . S
H1737 C1761 0.950 . S
H1738 C1762 0.950 . S
H1739 C1763 0.951 . S
H1740 C1765 0.951 . S
H1741 C1767 0.950 . S
H1742 C1768 0.950 . S
H1743 C1770 0.950 . S
H1744 C1773 0.950 . S
H1745 C1774 0.950 . S
H1746 C1776 0.950 . S
H1747 C1777 0.950 . S
C1748 H1730 0.951 . S
C1748 C1749 1.366 . S
C1748 C1750 1.388 . S
C1749 C1748 1.366 . S
C1749 C1753 1.385 . S
C1750 H1731 0.951 . S
C1750 C1748 1.388 . S
C1750 C1751 1.366 . S
C1751 C1750 1.366 . S
C1751 C1752 1.414 . S
C1751 C1754 1.499 . S
C1752 H1732 0.950 . S
C1752 C1751 1.414 . S
C1752 C1753 1.374 . S
C1753 H1733 0.950 . S
C1753 C1749 1.385 . S
C1753 C1752 1.374 . S
C1754 C1751 1.499 . S
C1754 C1755 1.373 . S
C1754 C1756 1.389 . S
C1755 H1734 0.950 . S
C1755 C1754 1.373 . S
C1755 C1771 1.377 . S
C1756 C1754 1.389 . S
C1756 C1757 1.524 . S
C1756 C1770 1.377 . S
C1757 C1756 1.524 . S
C1757 C1758 1.397 . S
C1757 C1762 1.363 . S
C1758 H1735 0.950 . S
C1758 C1757 1.397 . S
C1758 C1759 1.334 . S
C1759 H1736 0.950 . S
C1759 C1758 1.334 . S
C1759 C1760 1.287 . S
C1760 C1759 1.287 . S
C1760 C1761 1.524 . S
C1760 H1779 0.913 . S
C1761 H1737 0.950 . S
C1761 C1760 1.524 . S
C1761 C1762 1.415 . S
C1762 H1738 0.950 . S
C1762 C1757 1.363 . S
C1762 C1761 1.415 . S
C1763 H1739 0.951 . S
C1763 C1764 1.366 . S
C1763 C1765 1.388 . S
C1764 C1763 1.366 . S
C1764 C1768 1.385 . S
C1765 H1740 0.951 . S
C1765 C1763 1.388 . S
C1765 C1766 1.366 . S
C1766 C1765 1.366 . S
C1766 C1767 1.414 . S
C1766 C1769 1.499 . S
C1767 H1741 0.950 . S
C1767 C1766 1.414 . S
C1767 C1768 1.374 . S
C1768 H1742 0.950 . S
C1768 C1764 1.385 . S
C1768 C1767 1.374 . S
C1769 C1766 1.499 . S
C1769 C1770 1.373 . S
C1769 C1771 1.389 . S
C1770 H1743 0.950 . S
C1770 C1756 1.377 . S
C1770 C1769 1.373 . S
C1771 C1755 1.377 . S
C1771 C1769 1.389 . S
C1771 C1772 1.524 . S
C1772 C1771 1.524 . S
C1772 C1773 1.397 . S
C1772 C1777 1.363 . S
C1773 H1744 0.950 . S
C1773 C1772 1.397 . S
C1773 C1774 1.334 . S
C1774 H1745 0.950 . S
C1774 C1773 1.334 . S
C1774 C1775 1.287 . S
C1775 C1774 1.287 . S
C1775 C1776 1.524 . S
C1775 H1778 0.999 . S
C1776 H1746 0.950 . S
C1776 C1775 1.524 . S
C1776 C1777 1.415 . S
C1777 H1747 0.950 . S
C1777 C1772 1.363 . S
C1777 C1776 1.415 . S
H1778 C1775 0.999 . S
H1779 C1760 0.913 . S
H1780 C1798 0.951 . S
H1781 C1800 0.951 . S
H1782 C1802 0.950 . S
H1783 C1803 0.950 . S
H1784 C1805 0.950 . S
H1785 C1808 0.950 . S
H1786 C1809 0.950 . S
H1787 C1811 0.950 . S
H1788 C1812 0.950 . S
H1789 C1813 0.951 . S
H1790 C1815 0.951 . S
H1791 C1817 0.950 . S
H1792 C1818 0.950 . S
H1793 C1820 0.950 . S
H1794 C1823 0.950 . S
H1795 C1824 0.950 . S
H1796 C1826 0.950 . S
H1797 C1827 0.950 . S
C1798 H1780 0.951 . S
C1798 C1799 1.366 . S
C1798 C1800 1.388 . S
C1799 C1798 1.366 . S
C1799 C1803 1.385 . S
C1800 H1781 0.951 . S
C1800 C1798 1.388 . S
C1800 C1801 1.366 . S
C1801 C1800 1.366 . S
C1801 C1802 1.414 . S
C1801 C1804 1.499 . S
C1802 H1782 0.950 . S
C1802 C1801 1.414 . S
C1802 C1803 1.374 . S
C1803 H1783 0.950 . S
C1803 C1799 1.385 . S
C1803 C1802 1.374 . S
C1804 C1801 1.499 . S
C1804 C1805 1.373 . S
C1804 C1806 1.389 . S
C1805 H1784 0.950 . S
C1805 C1804 1.373 . S
C1805 C1821 1.377 . S
C1806 C1804 1.389 . S
C1806 C1807 1.524 . S
C1806 C1820 1.377 . S
C1807 C1806 1.524 . S
C1807 C1808 1.397 . S
C1807 C1812 1.363 . S
C1808 H1785 0.950 . S
C1808 C1807 1.397 . S
C1808 C1809 1.334 . S
C1809 H1786 0.950 . S
C1809 C1808 1.334 . S
C1809 C1810 1.287 . S
C1810 C1809 1.287 . S
C1810 C1811 1.524 . S
C1810 H1829 0.913 . S
C1811 H1787 0.950 . S
C1811 C1810 1.524 . S
C1811 C1812 1.415 . S
C1812 H1788 0.950 . S
C1812 C1807 1.363 . S
C1812 C1811 1.415 . S
C1813 H1789 0.951 . S
C1813 C1814 1.366 . S
C1813 C1815 1.388 . S
C1814 C1813 1.366 . S
C1814 C1818 1.385 . S
C1815 H1790 0.951 . S
C1815 C1813 1.388 . S
C1815 C1816 1.366 . S
C1816 C1815 1.366 . S
C1816 C1817 1.414 . S
C1816 C1819 1.499 . S
C1817 H1791 0.950 . S
C1817 C1816 1.414 . S
C1817 C1818 1.374 . S
C1818 H1792 0.950 . S
C1818 C1814 1.385 . S
C1818 C1817 1.374 . S
C1819 C1816 1.499 . S
C1819 C1820 1.373 . S
C1819 C1821 1.389 . S
C1820 H1793 0.950 . S
C1820 C1806 1.377 . S
C1820 C1819 1.373 . S
C1821 C1805 1.377 . S
C1821 C1819 1.389 . S
C1821 C1822 1.524 . S
C1822 C1821 1.524 . S
C1822 C1823 1.397 . S
C1822 C1827 1.363 . S
C1823 H1794 0.950 . S
C1823 C1822 1.397 . S
C1823 C1824 1.334 . S
C1824 H1795 0.950 . S
C1824 C1823 1.334 . S
C1824 C1825 1.287 . S
C1825 C1824 1.287 . S
C1825 C1826 1.524 . S
C1825 H1828 0.999 . S
C1826 H1796 0.950 . S
C1826 C1825 1.524 . S
C1826 C1827 1.415 . S
C1827 H1797 0.950 . S
C1827 C1822 1.363 . S
C1827 C1826 1.415 . S
H1828 C1825 0.999 . S
H1829 C1810 0.913 . S
H1830 C1848 0.951 . S
H1831 C1850 0.951 . S
H1832 C1852 0.950 . S
H1833 C1853 0.950 . S
H1834 C1855 0.950 . S
H1835 C1858 0.950 . S
H1836 C1859 0.950 . S
H1837 C1861 0.950 . S
H1838 C1862 0.950 . S
H1839 C1863 0.951 . S
H1840 C1865 0.951 . S
H1841 C1867 0.950 . S
H1842 C1868 0.950 . S
H1843 C1870 0.950 . S
H1844 C1873 0.950 . S
H1845 C1874 0.950 . S
H1846 C1876 0.950 . S
H1847 C1877 0.950 . S
C1848 H1830 0.951 . S
C1848 C1849 1.366 . S
C1848 C1850 1.388 . S
C1849 C1848 1.366 . S
C1849 C1853 1.385 . S
C1850 H1831 0.951 . S
C1850 C1848 1.388 . S
C1850 C1851 1.366 . S
C1851 C1850 1.366 . S
C1851 C1852 1.414 . S
C1851 C1854 1.499 . S
C1852 H1832 0.950 . S
C1852 C1851 1.414 . S
C1852 C1853 1.374 . S
C1853 H1833 0.950 . S
C1853 C1849 1.385 . S
C1853 C1852 1.374 . S
C1854 C1851 1.499 . S
C1854 C1855 1.373 . S
C1854 C1856 1.389 . S
C1855 H1834 0.950 . S
C1855 C1854 1.373 . S
C1855 C1871 1.377 . S
C1856 C1854 1.389 . S
C1856 C1857 1.524 . S
C1856 C1870 1.377 . S
C1857 C1856 1.524 . S
C1857 C1858 1.397 . S
C1857 C1862 1.363 . S
C1858 H1835 0.950 . S
C1858 C1857 1.397 . S
C1858 C1859 1.334 . S
C1859 H1836 0.950 . S
C1859 C1858 1.334 . S
C1859 C1860 1.287 . S
C1860 C1859 1.287 . S
C1860 C1861 1.524 . S
C1860 H1879 0.913 . S
C1861 H1837 0.950 . S
C1861 C1860 1.524 . S
C1861 C1862 1.415 . S
C1862 H1838 0.950 . S
C1862 C1857 1.363 . S
C1862 C1861 1.415 . S
C1863 H1839 0.951 . S
C1863 C1864 1.366 . S
C1863 C1865 1.388 . S
C1864 C1863 1.366 . S
C1864 C1868 1.385 . S
C1865 H1840 0.951 . S
C1865 C1863 1.388 . S
C1865 C1866 1.366 . S
C1866 C1865 1.366 . S
C1866 C1867 1.414 . S
C1866 C1869 1.499 . S
C1867 H1841 0.950 . S
C1867 C1866 1.414 . S
C1867 C1868 1.374 . S
C1868 H1842 0.950 . S
C1868 C1864 1.385 . S
C1868 C1867 1.374 . S
C1869 C1866 1.499 . S
C1869 C1870 1.373 . S
C1869 C1871 1.389 . S
C1870 H1843 0.950 . S
C1870 C1856 1.377 . S
C1870 C1869 1.373 . S
C1871 C1855 1.377 . S
C1871 C1869 1.389 . S
C1871 C1872 1.524 . S
C1872 C1871 1.524 . S
C1872 C1873 1.397 . S
C1872 C1877 1.363 . S
C1873 H1844 0.950 . S
C1873 C1872 1.397 . S
C1873 C1874 1.334 . S
C1874 H1845 0.950 . S
C1874 C1873 1.334 . S
C1874 C1875 1.287 . S
C1875 C1874 1.287 . S
C1875 C1876 1.524 . S
C1875 H1878 0.999 . S
C1876 H1846 0.950 . S
C1876 C1875 1.524 . S
C1876 C1877 1.415 . S
C1877 H1847 0.950 . S
C1877 C1872 1.363 . S
C1877 C1876 1.415 . S
H1878 C1875 0.999 . S
H1879 C1860 0.913 . S
H1880 C1898 0.951 . S
H1881 C1900 0.951 . S
H1882 C1902 0.950 . S
H1883 C1903 0.950 . S
H1884 C1905 0.950 . S
H1885 C1908 0.950 . S
H1886 C1909 0.950 . S
H1887 C1911 0.950 . S
H1888 C1912 0.950 . S
H1889 C1913 0.951 . S
H1890 C1915 0.951 . S
H1891 C1917 0.950 . S
H1892 C1918 0.950 . S
H1893 C1920 0.950 . S
H1894 C1923 0.950 . S
H1895 C1924 0.950 . S
H1896 C1926 0.950 . S
H1897 C1927 0.950 . S
C1898 H1880 0.951 . S
C1898 C1899 1.366 . S
C1898 C1900 1.388 . S
C1899 C1898 1.366 . S
C1899 C1903 1.385 . S
C1900 H1881 0.951 . S
C1900 C1898 1.388 . S
C1900 C1901 1.366 . S
C1901 C1900 1.366 . S
C1901 C1902 1.414 . S
C1901 C1904 1.499 . S
C1902 H1882 0.950 . S
C1902 C1901 1.414 . S
C1902 C1903 1.374 . S
C1903 H1883 0.950 . S
C1903 C1899 1.385 . S
C1903 C1902 1.374 . S
C1904 C1901 1.499 . S
C1904 C1905 1.373 . S
C1904 C1906 1.389 . S
C1905 H1884 0.950 . S
C1905 C1904 1.373 . S
C1905 C1921 1.377 . S
C1906 C1904 1.389 . S
C1906 C1907 1.524 1_455 S
C1906 C1920 1.377 . S
C1907 C1906 1.524 1_655 S
C1907 C1908 1.397 . S
C1907 C1912 1.363 . S
C1908 H1885 0.950 . S
C1908 C1907 1.397 . S
C1908 C1909 1.334 . S
C1909 H1886 0.950 . S
C1909 C1908 1.334 . S
C1909 C1910 1.287 . S
C1910 C1909 1.287 . S
C1910 C1911 1.524 . S
C1910 H1929 0.913 . S
C1911 H1887 0.950 . S
C1911 C1910 1.524 . S
C1911 C1912 1.415 . S
C1912 H1888 0.950 . S
C1912 C1907 1.363 . S
C1912 C1911 1.415 . S
C1913 H1889 0.951 . S
C1913 C1914 1.366 . S
C1913 C1915 1.388 . S
C1914 C1913 1.366 . S
C1914 C1918 1.385 . S
C1915 H1890 0.951 . S
C1915 C1913 1.388 . S
C1915 C1916 1.366 . S
C1916 C1915 1.366 . S
C1916 C1917 1.414 . S
C1916 C1919 1.499 . S
C1917 H1891 0.950 . S
C1917 C1916 1.414 . S
C1917 C1918 1.374 . S
C1918 H1892 0.950 . S
C1918 C1914 1.385 . S
C1918 C1917 1.374 . S
C1919 C1916 1.499 . S
C1919 C1920 1.373 . S
C1919 C1921 1.389 . S
C1920 H1893 0.950 . S
C1920 C1906 1.377 . S
C1920 C1919 1.373 . S
C1921 C1905 1.377 . S
C1921 C1919 1.389 . S
C1921 C1922 1.524 . S
C1922 C1921 1.524 . S
C1922 C1923 1.397 . S
C1922 C1927 1.363 . S
C1923 H1894 0.950 . S
C1923 C1922 1.397 . S
C1923 C1924 1.334 . S
C1924 H1895 0.950 . S
C1924 C1923 1.334 . S
C1924 C1925 1.287 . S
C1925 C1924 1.287 . S
C1925 C1926 1.524 . S
C1925 H1928 0.999 . S
C1926 H1896 0.950 . S
C1926 C1925 1.524 . S
C1926 C1927 1.415 . S
C1927 H1897 0.950 . S
C1927 C1922 1.363 . S
C1927 C1926 1.415 . S
H1928 C1925 0.999 . S
H1929 C1910 0.913 . S
H1930 C1948 0.951 . S
H1931 C1950 0.951 . S
H1932 C1952 0.950 . S
H1933 C1953 0.950 . S
H1934 C1955 0.950 . S
H1935 C1958 0.950 . S
H1936 C1959 0.950 . S
H1937 C1961 0.950 . S
H1938 C1962 0.950 . S
H1939 C1963 0.951 . S
H1940 C1965 0.951 . S
H1941 C1967 0.950 . S
H1942 C1968 0.950 . S
H1943 C1970 0.950 . S
H1944 C1973 0.950 . S
H1945 C1974 0.950 . S
H1946 C1976 0.950 . S
H1947 C1977 0.950 . S
C1948 H1930 0.951 . S
C1948 C1949 1.366 . S
C1948 C1950 1.388 . S
C1949 C1948 1.366 . S
C1949 C1953 1.385 . S
C1950 H1931 0.951 . S
C1950 C1948 1.388 . S
C1950 C1951 1.366 . S
C1951 C1950 1.366 . S
C1951 C1952 1.414 . S
C1951 C1954 1.499 . S
C1952 H1932 0.950 . S
C1952 C1951 1.414 . S
C1952 C1953 1.374 . S
C1953 H1933 0.950 . S
C1953 C1949 1.385 . S
C1953 C1952 1.374 . S
C1954 C1951 1.499 . S
C1954 C1955 1.373 . S
C1954 C1956 1.389 . S
C1955 H1934 0.950 . S
C1955 C1954 1.373 . S
C1955 C1971 1.377 . S
C1956 C1954 1.389 . S
C1956 C1957 1.524 . S
C1956 C1970 1.377 . S
C1957 C1956 1.524 . S
C1957 C1958 1.397 . S
C1957 C1962 1.363 . S
C1958 H1935 0.950 . S
C1958 C1957 1.397 . S
C1958 C1959 1.334 . S
C1959 H1936 0.950 . S
C1959 C1958 1.334 . S
C1959 C1960 1.287 . S
C1960 C1959 1.287 . S
C1960 C1961 1.524 . S
C1960 H1979 0.913 . S
C1961 H1937 0.950 . S
C1961 C1960 1.524 . S
C1961 C1962 1.415 . S
C1962 H1938 0.950 . S
C1962 C1957 1.363 . S
C1962 C1961 1.415 . S
C1963 H1939 0.951 . S
C1963 C1964 1.366 . S
C1963 C1965 1.388 . S
C1964 C1963 1.366 . S
C1964 C1968 1.385 . S
C1965 H1940 0.951 . S
C1965 C1963 1.388 . S
C1965 C1966 1.366 . S
C1966 C1965 1.366 . S
C1966 C1967 1.414 . S
C1966 C1969 1.499 . S
C1967 H1941 0.950 . S
C1967 C1966 1.414 . S
C1967 C1968 1.374 . S
C1968 H1942 0.950 . S
C1968 C1964 1.385 . S
C1968 C1967 1.374 . S
C1969 C1966 1.499 . S
C1969 C1970 1.373 . S
C1969 C1971 1.389 . S
C1970 H1943 0.950 . S
C1970 C1956 1.377 . S
C1970 C1969 1.373 . S
C1971 C1955 1.377 . S
C1971 C1969 1.389 . S
C1971 C1972 1.524 . S
C1972 C1971 1.524 . S
C1972 C1973 1.397 . S
C1972 C1977 1.363 . S
C1973 H1944 0.950 . S
C1973 C1972 1.397 . S
C1973 C1974 1.334 . S
C1974 H1945 0.950 . S
C1974 C1973 1.334 . S
C1974 C1975 1.287 . S
C1975 C1974 1.287 . S
C1975 C1976 1.524 . S
C1975 H1978 0.999 . S
C1976 H1946 0.950 . S
C1976 C1975 1.524 . S
C1976 C1977 1.415 . S
C1977 H1947 0.950 . S
C1977 C1972 1.363 . S
C1977 C1976 1.415 . S
H1978 C1975 0.999 . S
H1979 C1960 0.913 . S
H1980 C1998 0.951 . S
H1981 C2000 0.951 . S
H1982 C2002 0.950 . S
H1983 C2003 0.950 . S
H1984 C2005 0.950 . S
H1985 C2008 0.950 . S
H1986 C2009 0.950 . S
H1987 C2011 0.950 . S
H1988 C2012 0.950 . S
H1989 C2013 0.951 . S
H1990 C2015 0.951 . S
H1991 C2017 0.950 . S
H1992 C2018 0.950 . S
H1993 C2020 0.950 . S
H1994 C2023 0.950 . S
H1995 C2024 0.950 . S
H1996 C2026 0.950 . S
H1997 C2027 0.950 . S
C1998 H1980 0.951 . S
C1998 C1999 1.366 . S
C1998 C2000 1.388 . S
C1999 C1998 1.366 . S
C1999 C2003 1.385 . S
C2000 H1981 0.951 . S
C2000 C1998 1.388 . S
C2000 C2001 1.366 . S
C2001 C2000 1.366 . S
C2001 C2002 1.414 . S
C2001 C2004 1.499 . S
C2002 H1982 0.950 . S
C2002 C2001 1.414 . S
C2002 C2003 1.374 . S
C2003 H1983 0.950 . S
C2003 C1999 1.385 . S
C2003 C2002 1.374 . S
C2004 C2001 1.499 . S
C2004 C2005 1.373 . S
C2004 C2006 1.389 . S
C2005 H1984 0.950 . S
C2005 C2004 1.373 . S
C2005 C2021 1.377 . S
C2006 C2004 1.389 . S
C2006 C2007 1.524 . S
C2006 C2020 1.377 . S
C2007 C2006 1.524 . S
C2007 C2008 1.397 . S
C2007 C2012 1.363 . S
C2008 H1985 0.950 . S
C2008 C2007 1.397 . S
C2008 C2009 1.334 . S
C2009 H1986 0.950 . S
C2009 C2008 1.334 . S
C2009 C2010 1.287 . S
C2010 C2009 1.287 . S
C2010 C2011 1.524 . S
C2010 H2029 0.913 . S
C2011 H1987 0.950 . S
C2011 C2010 1.524 . S
C2011 C2012 1.415 . S
C2012 H1988 0.950 . S
C2012 C2007 1.363 . S
C2012 C2011 1.415 . S
C2013 H1989 0.951 . S
C2013 C2014 1.366 . S
C2013 C2015 1.388 . S
C2014 C2013 1.366 . S
C2014 C2018 1.385 . S
C2015 H1990 0.951 . S
C2015 C2013 1.388 . S
C2015 C2016 1.366 . S
C2016 C2015 1.366 . S
C2016 C2017 1.414 . S
C2016 C2019 1.499 . S
C2017 H1991 0.950 . S
C2017 C2016 1.414 . S
C2017 C2018 1.374 . S
C2018 H1992 0.950 . S
C2018 C2014 1.385 . S
C2018 C2017 1.374 . S
C2019 C2016 1.499 . S
C2019 C2020 1.373 . S
C2019 C2021 1.389 . S
C2020 H1993 0.950 . S
C2020 C2006 1.377 . S
C2020 C2019 1.373 . S
C2021 C2005 1.377 . S
C2021 C2019 1.389 . S
C2021 C2022 1.524 . S
C2022 C2021 1.524 . S
C2022 C2023 1.397 . S
C2022 C2027 1.363 . S
C2023 H1994 0.950 . S
C2023 C2022 1.397 . S
C2023 C2024 1.334 . S
C2024 H1995 0.950 . S
C2024 C2023 1.334 . S
C2024 C2025 1.287 . S
C2025 C2024 1.287 . S
C2025 C2026 1.524 . S
C2025 H2028 0.999 . S
C2026 H1996 0.950 . S
C2026 C2025 1.524 . S
C2026 C2027 1.415 . S
C2027 H1997 0.950 . S
C2027 C2022 1.363 . S
C2027 C2026 1.415 . S
H2028 C2025 0.999 . S
H2029 C2010 0.913 . S
H2030 C2048 0.951 . S
H2031 C2050 0.951 . S
H2032 C2052 0.950 . S
H2033 C2053 0.950 . S
H2034 C2055 0.950 . S
H2035 C2058 0.950 . S
H2036 C2059 0.950 . S
H2037 C2061 0.950 . S
H2038 C2062 0.950 . S
H2039 C2063 0.951 . S
H2040 C2065 0.951 . S
H2041 C2067 0.950 . S
H2042 C2068 0.950 . S
H2043 C2070 0.950 . S
H2044 C2073 0.950 . S
H2045 C2074 0.950 . S
H2046 C2076 0.950 . S
H2047 C2077 0.950 . S
C2048 H2030 0.951 . S
C2048 C2049 1.366 . S
C2048 C2050 1.388 . S
C2049 C2048 1.366 . S
C2049 C2053 1.385 . S
C2050 H2031 0.951 . S
C2050 C2048 1.388 . S
C2050 C2051 1.366 . S
C2051 C2050 1.366 . S
C2051 C2052 1.414 . S
C2051 C2054 1.499 . S
C2052 H2032 0.950 . S
C2052 C2051 1.414 . S
C2052 C2053 1.374 . S
C2053 H2033 0.950 . S
C2053 C2049 1.385 . S
C2053 C2052 1.374 . S
C2054 C2051 1.499 . S
C2054 C2055 1.373 . S
C2054 C2056 1.389 . S
C2055 H2034 0.950 . S
C2055 C2054 1.373 . S
C2055 C2071 1.377 . S
C2056 C2054 1.389 . S
C2056 C2057 1.524 . S
C2056 C2070 1.377 . S
C2057 C2056 1.524 . S
C2057 C2058 1.397 . S
C2057 C2062 1.363 . S
C2058 H2035 0.950 . S
C2058 C2057 1.397 . S
C2058 C2059 1.334 . S
C2059 H2036 0.950 . S
C2059 C2058 1.334 . S
C2059 C2060 1.287 . S
C2060 C2059 1.287 . S
C2060 C2061 1.524 . S
C2060 H2079 0.913 . S
C2061 H2037 0.950 . S
C2061 C2060 1.524 . S
C2061 C2062 1.415 . S
C2062 H2038 0.950 . S
C2062 C2057 1.363 . S
C2062 C2061 1.415 . S
C2063 H2039 0.951 . S
C2063 C2064 1.366 . S
C2063 C2065 1.388 . S
C2064 C2063 1.366 . S
C2064 C2068 1.385 . S
C2065 H2040 0.951 . S
C2065 C2063 1.388 . S
C2065 C2066 1.366 . S
C2066 C2065 1.366 . S
C2066 C2067 1.414 . S
C2066 C2069 1.499 . S
C2067 H2041 0.950 . S
C2067 C2066 1.414 . S
C2067 C2068 1.374 . S
C2068 H2042 0.950 . S
C2068 C2064 1.385 . S
C2068 C2067 1.374 . S
C2069 C2066 1.499 . S
C2069 C2070 1.373 . S
C2069 C2071 1.389 . S
C2070 H2043 0.950 . S
C2070 C2056 1.377 . S
C2070 C2069 1.373 . S
C2071 C2055 1.377 . S
C2071 C2069 1.389 . S
C2071 C2072 1.524 . S
C2072 C2071 1.524 . S
C2072 C2073 1.397 . S
C2072 C2077 1.363 . S
C2073 H2044 0.950 . S
C2073 C2072 1.397 . S
C2073 C2074 1.334 . S
C2074 H2045 0.950 . S
C2074 C2073 1.334 . S
C2074 C2075 1.287 . S
C2075 C2074 1.287 . S
C2075 C2076 1.524 . S
C2075 H2078 0.999 . S
C2076 H2046 0.950 . S
C2076 C2075 1.524 . S
C2076 C2077 1.415 . S
C2077 H2047 0.950 . S
C2077 C2072 1.363 . S
C2077 C2076 1.415 . S
H2078 C2075 0.999 . S
H2079 C2060 0.913 . S
H2080 C2098 0.951 . S
H2081 C2100 0.951 . S
H2082 C2102 0.950 . S
H2083 C2103 0.950 . S
H2084 C2105 0.950 . S
H2085 C2108 0.950 . S
H2086 C2109 0.950 . S
H2087 C2111 0.950 . S
H2088 C2112 0.950 . S
H2089 C2113 0.951 . S
H2090 C2115 0.951 . S
H2091 C2117 0.950 . S
H2092 C2118 0.950 . S
H2093 C2120 0.950 . S
H2094 C2123 0.950 . S
H2095 C2124 0.950 . S
H2096 C2126 0.950 . S
H2097 C2127 0.950 . S
C2098 H2080 0.951 . S
C2098 C2099 1.366 . S
C2098 C2100 1.388 . S
C2099 C2098 1.366 . S
C2099 C2103 1.385 . S
C2100 H2081 0.951 . S
C2100 C2098 1.388 . S
C2100 C2101 1.366 . S
C2101 C2100 1.366 . S
C2101 C2102 1.414 . S
C2101 C2104 1.499 . S
C2102 H2082 0.950 . S
C2102 C2101 1.414 . S
C2102 C2103 1.374 . S
C2103 H2083 0.950 . S
C2103 C2099 1.385 . S
C2103 C2102 1.374 . S
C2104 C2101 1.499 . S
C2104 C2105 1.373 . S
C2104 C2106 1.389 1_655 S
C2105 H2084 0.950 . S
C2105 C2104 1.373 . S
C2105 C2121 1.377 . S
C2106 C2104 1.389 1_455 S
C2106 C2107 1.524 . S
C2106 C2120 1.377 . S
C2107 C2106 1.524 . S
C2107 C2108 1.397 . S
C2107 C2112 1.363 . S
C2108 H2085 0.950 . S
C2108 C2107 1.397 . S
C2108 C2109 1.334 . S
C2109 H2086 0.950 . S
C2109 C2108 1.334 . S
C2109 C2110 1.287 . S
C2110 C2109 1.287 . S
C2110 C2111 1.524 . S
C2110 H2129 0.913 . S
C2111 H2087 0.950 . S
C2111 C2110 1.524 . S
C2111 C2112 1.415 . S
C2112 H2088 0.950 . S
C2112 C2107 1.363 . S
C2112 C2111 1.415 . S
C2113 H2089 0.951 . S
C2113 C2114 1.366 . S
C2113 C2115 1.388 . S
C2114 C2113 1.366 . S
C2114 C2118 1.385 . S
C2115 H2090 0.951 . S
C2115 C2113 1.388 . S
C2115 C2116 1.366 . S
C2116 C2115 1.366 . S
C2116 C2117 1.414 . S
C2116 C2119 1.499 . S
C2117 H2091 0.950 . S
C2117 C2116 1.414 . S
C2117 C2118 1.374 . S
C2118 H2092 0.950 . S
C2118 C2114 1.385 . S
C2118 C2117 1.374 . S
C2119 C2116 1.499 . S
C2119 C2120 1.373 . S
C2119 C2121 1.389 1_455 S
C2120 H2093 0.950 . S
C2120 C2106 1.377 . S
C2120 C2119 1.373 . S
C2121 C2105 1.377 . S
C2121 C2119 1.389 1_655 S
C2121 C2122 1.524 . S
C2122 C2121 1.524 . S
C2122 C2123 1.397 . S
C2122 C2127 1.363 . S
C2123 H2094 0.950 . S
C2123 C2122 1.397 . S
C2123 C2124 1.334 . S
C2124 H2095 0.950 . S
C2124 C2123 1.334 . S
C2124 C2125 1.287 . S
C2125 C2124 1.287 . S
C2125 C2126 1.524 . S
C2125 H2128 0.999 . S
C2126 H2096 0.950 . S
C2126 C2125 1.524 . S
C2126 C2127 1.415 . S
C2127 H2097 0.950 . S
C2127 C2122 1.363 . S
C2127 C2126 1.415 . S
H2128 C2125 0.999 . S
H2129 C2110 0.913 . S
H2130 C2148 0.951 . S
H2131 C2150 0.951 . S
H2132 C2152 0.950 . S
H2133 C2153 0.950 . S
H2134 C2155 0.950 . S
H2135 C2158 0.950 . S
H2136 C2159 0.950 . S
H2137 C2161 0.950 . S
H2138 C2162 0.950 . S
H2139 C2163 0.951 . S
H2140 C2165 0.951 . S
H2141 C2167 0.950 . S
H2142 C2168 0.950 . S
H2143 C2170 0.950 . S
H2144 C2173 0.950 . S
H2145 C2174 0.950 . S
H2146 C2176 0.950 . S
H2147 C2177 0.950 . S
C2148 H2130 0.951 . S
C2148 C2149 1.366 . S
C2148 C2150 1.388 . S
C2149 C2148 1.366 . S
C2149 C2153 1.385 . S
C2150 H2131 0.951 . S
C2150 C2148 1.388 . S
C2150 C2151 1.366 . S
C2151 C2150 1.366 . S
C2151 C2152 1.414 . S
C2151 C2154 1.499 . S
C2152 H2132 0.950 . S
C2152 C2151 1.414 . S
C2152 C2153 1.374 . S
C2153 H2133 0.950 . S
C2153 C2149 1.385 . S
C2153 C2152 1.374 . S
C2154 C2151 1.499 . S
C2154 C2155 1.373 . S
C2154 C2156 1.389 . S
C2155 H2134 0.950 . S
C2155 C2154 1.373 . S
C2155 C2171 1.377 . S
C2156 C2154 1.389 . S
C2156 C2157 1.524 . S
C2156 C2170 1.377 . S
C2157 C2156 1.524 . S
C2157 C2158 1.397 . S
C2157 C2162 1.363 . S
C2158 H2135 0.950 . S
C2158 C2157 1.397 . S
C2158 C2159 1.334 . S
C2159 H2136 0.950 . S
C2159 C2158 1.334 . S
C2159 C2160 1.287 . S
C2160 C2159 1.287 . S
C2160 C2161 1.524 . S
C2160 H2179 0.913 . S
C2161 H2137 0.950 . S
C2161 C2160 1.524 . S
C2161 C2162 1.415 . S
C2162 H2138 0.950 . S
C2162 C2157 1.363 . S
C2162 C2161 1.415 . S
C2163 H2139 0.951 . S
C2163 C2164 1.366 . S
C2163 C2165 1.388 . S
C2164 C2163 1.366 . S
C2164 C2168 1.385 . S
C2165 H2140 0.951 . S
C2165 C2163 1.388 . S
C2165 C2166 1.366 . S
C2166 C2165 1.366 . S
C2166 C2167 1.414 . S
C2166 C2169 1.499 . S
C2167 H2141 0.950 . S
C2167 C2166 1.414 . S
C2167 C2168 1.374 . S
C2168 H2142 0.950 . S
C2168 C2164 1.385 . S
C2168 C2167 1.374 . S
C2169 C2166 1.499 . S
C2169 C2170 1.373 . S
C2169 C2171 1.389 . S
C2170 H2143 0.950 . S
C2170 C2156 1.377 . S
C2170 C2169 1.373 . S
C2171 C2155 1.377 . S
C2171 C2169 1.389 . S
C2171 C2172 1.524 . S
C2172 C2171 1.524 . S
C2172 C2173 1.397 . S
C2172 C2177 1.363 . S
C2173 H2144 0.950 . S
C2173 C2172 1.397 . S
C2173 C2174 1.334 . S
C2174 H2145 0.950 . S
C2174 C2173 1.334 . S
C2174 C2175 1.287 . S
C2175 C2174 1.287 . S
C2175 C2176 1.524 . S
C2175 H2178 0.999 . S
C2176 H2146 0.950 . S
C2176 C2175 1.524 . S
C2176 C2177 1.415 . S
C2177 H2147 0.950 . S
C2177 C2172 1.363 . S
C2177 C2176 1.415 . S
H2178 C2175 0.999 . S
H2179 C2160 0.913 . S
H2180 C2198 0.951 . S
H2181 C2200 0.951 . S
H2182 C2202 0.950 . S
H2183 C2203 0.950 . S
H2184 C2205 0.950 . S
H2185 C2208 0.950 1_545 S
H2186 C2209 0.950 . S
H2187 C2211 0.950 . S
H2188 C2212 0.931 1_545 S
H2189 C2213 0.951 . S
H2190 C2215 0.951 . S
H2191 C2217 0.950 . S
H2192 C2218 0.950 . S
H2193 C2220 0.950 . S
H2194 C2223 0.950 . S
H2195 C2224 0.950 . S
H2196 C2226 0.950 . S
H2197 C2227 0.950 . S
C2198 H2180 0.951 . S
C2198 C2199 1.366 . S
C2198 C2200 1.388 . S
C2199 C2198 1.366 . S
C2199 C2203 1.385 . S
C2200 H2181 0.951 . S
C2200 C2198 1.388 . S
C2200 C2201 1.366 . S
C2201 C2200 1.366 . S
C2201 C2202 1.414 . S
C2201 C2204 1.499 . S
C2202 H2182 0.950 . S
C2202 C2201 1.414 . S
C2202 C2203 1.374 . S
C2203 H2183 0.950 . S
C2203 C2199 1.385 . S
C2203 C2202 1.374 . S
C2204 C2201 1.499 . S
C2204 C2205 1.373 . S
C2204 C2206 1.389 . S
C2205 H2184 0.950 . S
C2205 C2204 1.373 . S
C2205 C2221 1.377 . S
C2206 C2204 1.389 . S
C2206 C2207 1.524 . S
C2206 C2220 1.377 . S
C2207 C2206 1.524 . S
C2207 C2208 1.397 1_545 S
C2207 C2212 1.363 1_545 S
C2208 H2185 0.950 1_565 S
C2208 C2207 1.397 1_565 S
C2208 C2209 1.334 . S
C2209 H2186 0.950 . S
C2209 C2208 1.334 . S
C2209 C2210 1.287 . S
C2210 C2209 1.287 . S
C2210 C2211 1.524 . S
C2210 H2229 0.913 . S
C2211 H2187 0.950 . S
C2211 C2210 1.524 . S
C2211 C2212 1.415 . S
C2212 H2188 0.931 1_565 S
C2212 C2207 1.363 1_565 S
C2212 C2211 1.415 . S
C2213 H2189 0.951 . S
C2213 C2214 1.366 . S
C2213 C2215 1.388 . S
C2214 C2213 1.366 . S
C2214 C2218 1.385 . S
C2215 H2190 0.951 . S
C2215 C2213 1.388 . S
C2215 C2216 1.366 . S
C2216 C2215 1.366 . S
C2216 C2217 1.414 . S
C2216 C2219 1.499 . S
C2217 H2191 0.950 . S
C2217 C2216 1.414 . S
C2217 C2218 1.374 . S
C2218 H2192 0.950 . S
C2218 C2214 1.385 . S
C2218 C2217 1.374 . S
C2219 C2216 1.499 . S
C2219 C2220 1.373 . S
C2219 C2221 1.389 . S
C2220 H2193 0.950 . S
C2220 C2206 1.377 . S
C2220 C2219 1.373 . S
C2221 C2205 1.377 . S
C2221 C2219 1.389 . S
C2221 C2222 1.524 . S
C2222 C2221 1.524 . S
C2222 C2223 1.397 . S
C2222 C2227 1.363 . S
C2223 H2194 0.950 . S
C2223 C2222 1.397 . S
C2223 C2224 1.334 . S
C2224 H2195 0.950 . S
C2224 C2223 1.334 . S
C2224 C2225 1.287 . S
C2225 C2224 1.287 . S
C2225 C2226 1.524 . S
C2225 H2228 0.999 . S
C2226 H2196 0.950 . S
C2226 C2225 1.524 . S
C2226 C2227 1.415 . S
C2227 H2197 0.950 . S
C2227 C2222 1.363 . S
C2227 C2226 1.415 . S
H2228 C2225 0.999 . S
H2229 C2210 0.913 . S
H2230 C2248 0.951 . S
H2231 C2250 0.951 . S
H2232 C2252 0.950 . S
H2233 C2253 0.950 . S
H2234 C2255 0.950 . S
H2235 C2258 0.950 . S
H2236 C2259 0.950 . S
H2237 C2261 0.950 . S
H2238 C2262 0.950 . S
H2239 C2263 0.951 . S
H2240 C2265 0.951 . S
H2241 C2267 0.950 . S
H2242 C2268 0.950 . S
H2243 C2270 0.950 . S
H2244 C2273 0.950 . S
H2245 C2274 0.950 . S
H2246 C2276 0.950 . S
H2247 C2277 0.950 . S
C2248 H2230 0.951 . S
C2248 C2249 1.366 . S
C2248 C2250 1.388 . S
C2249 C2248 1.366 . S
C2249 C2253 1.385 . S
C2250 H2231 0.951 . S
C2250 C2248 1.388 . S
C2250 C2251 1.366 . S
C2251 C2250 1.366 . S
C2251 C2252 1.414 . S
C2251 C2254 1.499 . S
C2252 H2232 0.950 . S
C2252 C2251 1.414 . S
C2252 C2253 1.374 . S
C2253 H2233 0.950 . S
C2253 C2249 1.385 . S
C2253 C2252 1.374 . S
C2254 C2251 1.499 . S
C2254 C2255 1.373 . S
C2254 C2256 1.389 . S
C2255 H2234 0.950 . S
C2255 C2254 1.373 . S
C2255 C2271 1.377 . S
C2256 C2254 1.389 . S
C2256 C2257 1.524 . S
C2256 C2270 1.377 . S
C2257 C2256 1.524 . S
C2257 C2258 1.397 . S
C2257 C2262 1.363 . S
C2258 H2235 0.950 . S
C2258 C2257 1.397 . S
C2258 C2259 1.334 . S
C2259 H2236 0.950 . S
C2259 C2258 1.334 . S
C2259 C2260 1.287 . S
C2260 C2259 1.287 . S
C2260 C2261 1.524 . S
C2260 H2279 0.913 . S
C2261 H2237 0.950 . S
C2261 C2260 1.524 . S
C2261 C2262 1.415 . S
C2262 H2238 0.950 . S
C2262 C2257 1.363 . S
C2262 C2261 1.415 . S
C2263 H2239 0.951 . S
C2263 C2264 1.366 . S
C2263 C2265 1.388 . S
C2264 C2263 1.366 . S
C2264 C2268 1.385 . S
C2265 H2240 0.951 . S
C2265 C2263 1.388 . S
C2265 C2266 1.366 . S
C2266 C2265 1.366 . S
C2266 C2267 1.414 . S
C2266 C2269 1.499 . S
C2267 H2241 0.950 . S
C2267 C2266 1.414 . S
C2267 C2268 1.374 . S
C2268 H2242 0.950 . S
C2268 C2264 1.385 . S
C2268 C2267 1.374 . S
C2269 C2266 1.499 . S
C2269 C2270 1.373 . S
C2269 C2271 1.389 . S
C2270 H2243 0.950 . S
C2270 C2256 1.377 . S
C2270 C2269 1.373 . S
C2271 C2255 1.377 . S
C2271 C2269 1.389 . S
C2271 C2272 1.524 . S
C2272 C2271 1.524 . S
C2272 C2273 1.397 . S
C2272 C2277 1.363 . S
C2273 H2244 0.950 . S
C2273 C2272 1.397 . S
C2273 C2274 1.334 . S
C2274 H2245 0.950 . S
C2274 C2273 1.334 . S
C2274 C2275 1.287 . S
C2275 C2274 1.287 . S
C2275 C2276 1.524 . S
C2275 H2278 0.999 . S
C2276 H2246 0.950 . S
C2276 C2275 1.524 . S
C2276 C2277 1.415 . S
C2277 H2247 0.950 . S
C2277 C2272 1.363 . S
C2277 C2276 1.415 . S
H2278 C2275 0.999 . S
H2279 C2260 0.913 . S
H2280 C2298 0.951 . S
H2281 C2300 0.951 . S
H2282 C2302 0.950 . S
H2283 C2303 0.950 . S
H2284 C2305 0.950 . S
H2285 C2308 0.950 . S
H2286 C2309 0.950 . S
H2287 C2311 0.950 . S
H2288 C2312 0.950 . S
H2289 C2313 0.951 . S
H2290 C2315 0.951 . S
H2291 C2317 0.950 . S
H2292 C2318 0.950 . S
H2293 C2320 0.950 . S
H2294 C2323 0.950 . S
H2295 C2324 0.950 . S
H2296 C2326 0.950 . S
H2297 C2327 0.950 . S
C2298 H2280 0.951 . S
C2298 C2299 1.366 . S
C2298 C2300 1.388 . S
C2299 C2298 1.366 . S
C2299 C2303 1.385 . S
C2300 H2281 0.951 . S
C2300 C2298 1.388 . S
C2300 C2301 1.366 . S
C2301 C2300 1.366 . S
C2301 C2302 1.414 . S
C2301 C2304 1.491 1_655 S
C2302 H2282 0.950 . S
C2302 C2301 1.414 . S
C2302 C2303 1.374 . S
C2303 H2283 0.950 . S
C2303 C2299 1.385 . S
C2303 C2302 1.374 . S
C2304 C2301 1.491 1_455 S
C2304 C2305 1.369 1_455 S
C2304 C2306 1.401 . S
C2305 H2284 0.950 . S
C2305 C2304 1.369 1_655 S
C2305 C2321 1.373 1_655 S
C2306 C2304 1.401 . S
C2306 C2307 1.524 . S
C2306 C2320 1.377 . S
C2307 C2306 1.524 . S
C2307 C2308 1.397 . S
C2307 C2312 1.363 . S
C2308 H2285 0.950 . S
C2308 C2307 1.397 . S
C2308 C2309 1.334 . S
C2309 H2286 0.950 . S
C2309 C2308 1.334 . S
C2309 C2310 1.287 . S
C2310 C2309 1.287 . S
C2310 C2311 1.524 . S
C2310 H2329 0.913 . S
C2311 H2287 0.950 . S
C2311 C2310 1.524 . S
C2311 C2312 1.415 . S
C2312 H2288 0.950 . S
C2312 C2307 1.363 . S
C2312 C2311 1.415 . S
C2313 H2289 0.951 . S
C2313 C2314 1.366 . S
C2313 C2315 1.388 . S
C2314 C2313 1.366 . S
C2314 C2318 1.385 . S
C2315 H2290 0.951 . S
C2315 C2313 1.388 . S
C2315 C2316 1.366 . S
C2316 C2315 1.366 . S
C2316 C2317 1.414 . S
C2316 C2319 1.499 . S
C2317 H2291 0.950 . S
C2317 C2316 1.414 . S
C2317 C2318 1.374 . S
C2318 H2292 0.950 . S
C2318 C2314 1.385 . S
C2318 C2317 1.374 . S
C2319 C2316 1.499 . S
C2319 C2320 1.373 . S
C2319 C2321 1.395 . S
C2320 H2293 0.950 . S
C2320 C2306 1.377 . S
C2320 C2319 1.373 . S
C2321 C2305 1.373 1_455 S
C2321 C2319 1.395 . S
C2321 C2322 1.521 1_455 S
C2322 C2321 1.521 1_655 S
C2322 C2323 1.397 . S
C2322 C2327 1.363 . S
C2323 H2294 0.950 . S
C2323 C2322 1.397 . S
C2323 C2324 1.334 . S
C2324 H2295 0.950 . S
C2324 C2323 1.334 . S
C2324 C2325 1.287 . S
C2325 C2324 1.287 . S
C2325 C2326 1.524 1_545 S
C2325 H2328 0.999 1_545 S
C2326 H2296 0.950 . S
C2326 C2325 1.524 1_565 S
C2326 C2327 1.415 1_565 S
C2327 H2297 0.950 . S
C2327 C2322 1.363 . S
C2327 C2326 1.415 1_545 S
H2328 C2325 0.999 1_565 S
H2329 C2310 0.913 . S
H2330 C2348 0.951 . S
H2331 C2350 0.951 . S
H2332 C2352 0.950 . S
H2333 C2353 0.950 . S
H2334 C2355 0.950 . S
H2335 C2358 0.950 . S
H2336 C2359 0.950 . S
H2337 C2361 0.950 . S
H2338 C2362 0.950 . S
H2339 C2363 0.951 . S
H2340 C2365 0.951 . S
H2341 C2367 0.950 . S
H2342 C2368 0.950 . S
H2343 C2370 0.950 . S
H2344 C2373 0.950 . S
H2345 C2374 0.950 . S
H2346 C2376 0.950 . S
H2347 C2377 0.950 . S
C2348 H2330 0.951 . S
C2348 C2349 1.366 . S
C2348 C2350 1.388 . S
C2349 C2348 1.366 . S
C2349 C2353 1.385 . S
C2350 H2331 0.951 . S
C2350 C2348 1.388 . S
C2350 C2351 1.366 . S
C2351 C2350 1.366 . S
C2351 C2352 1.414 . S
C2351 C2354 1.499 . S
C2352 H2332 0.950 . S
C2352 C2351 1.414 . S
C2352 C2353 1.374 . S
C2353 H2333 0.950 . S
C2353 C2349 1.385 . S
C2353 C2352 1.374 . S
C2354 C2351 1.499 . S
C2354 C2355 1.373 . S
C2354 C2356 1.389 . S
C2355 H2334 0.950 . S
C2355 C2354 1.373 . S
C2355 C2371 1.377 . S
C2356 C2354 1.389 . S
C2356 C2357 1.524 . S
C2356 C2370 1.377 . S
C2357 C2356 1.524 . S
C2357 C2358 1.397 . S
C2357 C2362 1.363 . S
C2358 H2335 0.950 . S
C2358 C2357 1.397 . S
C2358 C2359 1.334 . S
C2359 H2336 0.950 . S
C2359 C2358 1.334 . S
C2359 C2360 1.287 . S
C2360 C2359 1.287 . S
C2360 C2361 1.524 . S
C2360 H2379 0.913 . S
C2361 H2337 0.950 . S
C2361 C2360 1.524 . S
C2361 C2362 1.415 . S
C2362 H2338 0.950 . S
C2362 C2357 1.363 . S
C2362 C2361 1.415 . S
C2363 H2339 0.951 . S
C2363 C2364 1.366 . S
C2363 C2365 1.388 . S
C2364 C2363 1.366 . S
C2364 C2368 1.385 . S
C2365 H2340 0.951 . S
C2365 C2363 1.388 . S
C2365 C2366 1.366 . S
C2366 C2365 1.366 . S
C2366 C2367 1.414 . S
C2366 C2369 1.499 . S
C2367 H2341 0.950 . S
C2367 C2366 1.414 . S
C2367 C2368 1.374 . S
C2368 H2342 0.950 . S
C2368 C2364 1.385 . S
C2368 C2367 1.374 . S
C2369 C2366 1.499 . S
C2369 C2370 1.373 . S
C2369 C2371 1.389 . S
C2370 H2343 0.950 . S
C2370 C2356 1.377 . S
C2370 C2369 1.373 . S
C2371 C2355 1.377 . S
C2371 C2369 1.389 . S
C2371 C2372 1.524 . S
C2372 C2371 1.524 . S
C2372 C2373 1.397 . S
C2372 C2377 1.363 . S
C2373 H2344 0.950 . S
C2373 C2372 1.397 . S
C2373 C2374 1.334 . S
C2374 H2345 0.950 . S
C2374 C2373 1.334 . S
C2374 C2375 1.287 . S
C2375 C2374 1.287 . S
C2375 C2376 1.524 . S
C2375 H2378 0.999 . S
C2376 H2346 0.950 . S
C2376 C2375 1.524 . S
C2376 C2377 1.415 . S
C2377 H2347 0.950 . S
C2377 C2372 1.363 . S
C2377 C2376 1.415 . S
H2378 C2375 0.999 . S
H2379 C2360 0.913 . S
H2380 C2398 0.951 . S
H2381 C2400 0.951 . S
H2382 C2402 0.950 . S
H2383 C2403 0.950 . S
H2384 C2405 0.950 . S
H2385 C2408 0.950 . S
H2386 C2409 0.950 . S
H2387 C2411 0.950 . S
H2388 C2412 0.950 . S
H2389 C2413 0.951 . S
H2390 C2415 0.951 . S
H2391 C2417 0.950 . S
H2392 C2418 0.950 . S
H2393 C2420 0.950 . S
H2394 C2423 0.950 . S
H2395 C2424 0.950 . S
H2396 C2426 0.950 . S
H2397 C2427 0.950 . S
C2398 H2380 0.951 . S
C2398 C2399 1.366 . S
C2398 C2400 1.388 . S
C2399 C2398 1.366 . S
C2399 C2403 1.385 . S
C2400 H2381 0.951 . S
C2400 C2398 1.388 . S
C2400 C2401 1.366 . S
C2401 C2400 1.366 . S
C2401 C2402 1.414 . S
C2401 C2404 1.499 . S
C2402 H2382 0.950 . S
C2402 C2401 1.414 . S
C2402 C2403 1.374 . S
C2403 H2383 0.950 . S
C2403 C2399 1.385 . S
C2403 C2402 1.374 . S
C2404 C2401 1.499 . S
C2404 C2405 1.373 . S
C2404 C2406 1.389 . S
C2405 H2384 0.950 . S
C2405 C2404 1.373 . S
C2405 C2421 1.377 . S
C2406 C2404 1.389 . S
C2406 C2407 1.524 . S
C2406 C2420 1.377 . S
C2407 C2406 1.524 . S
C2407 C2408 1.397 . S
C2407 C2412 1.363 . S
C2408 H2385 0.950 . S
C2408 C2407 1.397 . S
C2408 C2409 1.334 . S
C2409 H2386 0.950 . S
C2409 C2408 1.334 . S
C2409 C2410 1.287 . S
C2410 C2409 1.287 . S
C2410 C2411 1.524 . S
C2410 H2429 0.913 . S
C2411 H2387 0.950 . S
C2411 C2410 1.524 . S
C2411 C2412 1.415 . S
C2412 H2388 0.950 . S
C2412 C2407 1.363 . S
C2412 C2411 1.415 . S
C2413 H2389 0.951 . S
C2413 C2414 1.366 . S
C2413 C2415 1.388 . S
C2414 C2413 1.366 . S
C2414 C2418 1.385 . S
C2415 H2390 0.951 . S
C2415 C2413 1.388 . S
C2415 C2416 1.366 . S
C2416 C2415 1.366 . S
C2416 C2417 1.414 . S
C2416 C2419 1.499 . S
C2417 H2391 0.950 . S
C2417 C2416 1.414 . S
C2417 C2418 1.374 . S
C2418 H2392 0.950 . S
C2418 C2414 1.385 . S
C2418 C2417 1.374 . S
C2419 C2416 1.499 . S
C2419 C2420 1.373 . S
C2419 C2421 1.389 . S
C2420 H2393 0.950 . S
C2420 C2406 1.377 . S
C2420 C2419 1.373 . S
C2421 C2405 1.377 . S
C2421 C2419 1.389 . S
C2421 C2422 1.524 . S
C2422 C2421 1.524 . S
C2422 C2423 1.397 . S
C2422 C2427 1.363 . S
C2423 H2394 0.950 . S
C2423 C2422 1.397 . S
C2423 C2424 1.334 1_545 S
C2424 H2395 0.950 . S
C2424 C2423 1.334 1_565 S
C2424 C2425 1.287 . S
C2425 C2424 1.287 . S
C2425 C2426 1.524 . S
C2425 H2428 0.999 . S
C2426 H2396 0.950 . S
C2426 C2425 1.524 . S
C2426 C2427 1.415 1_565 S
C2427 H2397 0.950 . S
C2427 C2422 1.363 . S
C2427 C2426 1.415 1_545 S
H2428 C2425 0.999 . S
H2429 C2410 0.913 . S
H2430 C2448 0.951 . S
H2431 C2450 0.951 . S
H2432 C2452 0.950 . S
H2433 C2453 0.950 . S
H2434 C2455 0.950 . S
H2435 C2458 0.950 . S
H2436 C2459 0.950 . S
H2437 C2461 0.950 . S
H2438 C2462 0.950 . S
H2439 C2463 0.951 . S
H2440 C2465 0.951 . S
H2441 C2467 0.950 . S
H2442 C2468 0.950 . S
H2443 C2470 0.950 . S
H2444 C2473 0.950 . S
H2445 C2474 0.950 . S
H2446 C2476 0.950 . S
H2447 C2477 0.950 . S
C2448 H2430 0.951 . S
C2448 C2449 1.366 . S
C2448 C2450 1.388 . S
C2449 C2448 1.366 . S
C2449 C2453 1.385 . S
C2450 H2431 0.951 . S
C2450 C2448 1.388 . S
C2450 C2451 1.366 . S
C2451 C2450 1.366 . S
C2451 C2452 1.414 . S
C2451 C2454 1.499 . S
C2452 H2432 0.950 . S
C2452 C2451 1.414 . S
C2452 C2453 1.374 . S
C2453 H2433 0.950 . S
C2453 C2449 1.385 . S
C2453 C2452 1.374 . S
C2454 C2451 1.499 . S
C2454 C2455 1.373 . S
C2454 C2456 1.389 . S
C2455 H2434 0.950 . S
C2455 C2454 1.373 . S
C2455 C2471 1.377 . S
C2456 C2454 1.389 . S
C2456 C2457 1.524 . S
C2456 C2470 1.377 . S
C2457 C2456 1.524 . S
C2457 C2458 1.397 . S
C2457 C2462 1.363 . S
C2458 H2435 0.950 . S
C2458 C2457 1.397 . S
C2458 C2459 1.334 . S
C2459 H2436 0.950 . S
C2459 C2458 1.334 . S
C2459 C2460 1.287 . S
C2460 C2459 1.287 . S
C2460 C2461 1.524 . S
C2460 H2479 0.913 . S
C2461 H2437 0.950 . S
C2461 C2460 1.524 . S
C2461 C2462 1.415 . S
C2462 H2438 0.950 . S
C2462 C2457 1.363 . S
C2462 C2461 1.415 . S
C2463 H2439 0.951 . S
C2463 C2464 1.366 . S
C2463 C2465 1.388 . S
C2464 C2463 1.366 . S
C2464 C2468 1.385 . S
C2465 H2440 0.951 . S
C2465 C2463 1.388 . S
C2465 C2466 1.366 . S
C2466 C2465 1.366 . S
C2466 C2467 1.414 . S
C2466 C2469 1.499 . S
C2467 H2441 0.950 . S
C2467 C2466 1.414 . S
C2467 C2468 1.374 . S
C2468 H2442 0.950 . S
C2468 C2464 1.385 . S
C2468 C2467 1.374 . S
C2469 C2466 1.499 . S
C2469 C2470 1.373 . S
C2469 C2471 1.389 . S
C2470 H2443 0.950 . S
C2470 C2456 1.377 . S
C2470 C2469 1.373 . S
C2471 C2455 1.377 . S
C2471 C2469 1.389 . S
C2471 C2472 1.524 . S
C2472 C2471 1.524 . S
C2472 C2473 1.397 . S
C2472 C2477 1.363 . S
C2473 H2444 0.950 . S
C2473 C2472 1.397 . S
C2473 C2474 1.334 . S
C2474 H2445 0.950 . S
C2474 C2473 1.334 . S
C2474 C2475 1.287 . S
C2475 C2474 1.287 . S
C2475 C2476 1.524 . S
C2475 H2478 0.999 . S
C2476 H2446 0.950 . S
C2476 C2475 1.524 . S
C2476 C2477 1.415 . S
C2477 H2447 0.950 . S
C2477 C2472 1.363 . S
C2477 C2476 1.415 . S
H2478 C2475 0.999 . S
H2479 C2460 0.913 . S
H2480 C2498 0.951 1_556 S
H2481 C2500 0.951 1_556 S
H2482 C2502 0.950 . S
H2483 C2503 0.950 . S
H2484 C2505 0.950 . S
H2485 C2508 0.905 1_544 S
H2486 C2509 0.950 1_545 S
H2487 C2511 0.950 . S
H2488 C2512 0.950 . S
H2489 C2513 0.951 . S
H2490 C2515 0.951 . S
H2491 C2517 0.950 . S
H2492 C2518 0.950 . S
H2493 C2520 0.950 1_556 S
H2494 C2523 0.950 . S
H2495 C2524 0.950 . S
H2496 C2526 0.950 . S
H2497 C2527 0.943 1_545 S
C2498 H2480 0.951 1_554 S
C2498 C2499 1.366 . S
C2498 C2500 1.388 . S
C2499 C2498 1.366 . S
C2499 C2503 1.385 . S
C2500 H2481 0.951 1_554 S
C2500 C2498 1.388 . S
C2500 C2501 1.366 . S
C2501 C2500 1.366 . S
C2501 C2502 1.414 . S
C2501 C2504 1.499 . S
C2502 H2482 0.950 . S
C2502 C2501 1.414 . S
C2502 C2503 1.374 . S
C2503 H2483 0.950 . S
C2503 C2499 1.385 . S
C2503 C2502 1.374 . S
C2504 C2501 1.499 . S
C2504 C2505 1.373 . S
C2504 C2506 1.389 . S
C2505 H2484 0.950 . S
C2505 C2504 1.373 . S
C2505 C2521 1.377 . S
C2506 C2504 1.389 . S
C2506 C2507 1.524 1_554 S
C2506 C2520 1.377 . S
C2507 C2506 1.524 1_556 S
C2507 C2508 1.397 . S
C2507 C2512 1.363 . S
C2508 H2485 0.905 1_566 S
C2508 C2507 1.397 . S
C2508 C2509 1.334 . S
C2509 H2486 0.950 1_565 S
C2509 C2508 1.334 . S
C2509 C2510 1.287 . S
C2510 C2509 1.287 . S
C2510 C2511 1.524 . S
C2510 H2529 0.913 . S
C2511 H2487 0.950 . S
C2511 C2510 1.524 . S
C2511 C2512 1.415 . S
C2512 H2488 0.950 . S
C2512 C2507 1.363 . S
C2512 C2511 1.415 . S
C2513 H2489 0.951 . S
C2513 C2514 1.366 . S
C2513 C2515 1.388 . S
C2514 C2513 1.366 . S
C2514 C2518 1.385 . S
C2515 H2490 0.951 . S
C2515 C2513 1.388 . S
C2515 C2516 1.366 . S
C2516 C2515 1.366 . S
C2516 C2517 1.414 1_545 S
C2516 C2519 1.499 1_545 S
C2517 H2491 0.950 . S
C2517 C2516 1.414 1_565 S
C2517 C2518 1.374 1_565 S
C2518 H2492 0.950 . S
C2518 C2514 1.385 . S
C2518 C2517 1.374 1_545 S
C2519 C2516 1.499 1_565 S
C2519 C2520 1.373 . S
C2519 C2521 1.389 . S
C2520 H2493 0.950 1_554 S
C2520 C2506 1.377 . S
C2520 C2519 1.373 . S
C2521 C2505 1.377 . S
C2521 C2519 1.389 . S
C2521 C2522 1.524 . S
C2522 C2521 1.524 . S
C2522 C2523 1.397 . S
C2522 C2527 1.363 . S
C2523 H2494 0.950 . S
C2523 C2522 1.397 . S
C2523 C2524 1.334 . S
C2524 H2495 0.950 . S
C2524 C2523 1.334 . S
C2524 C2525 1.287 . S
C2525 C2524 1.287 . S
C2525 C2526 1.524 . S
C2525 H2528 0.999 . S
C2526 H2496 0.950 . S
C2526 C2525 1.524 . S
C2526 C2527 1.415 . S
C2527 H2497 0.943 1_565 S
C2527 C2522 1.363 . S
C2527 C2526 1.415 . S
H2528 C2525 0.999 . S
H2529 C2510 0.913 . S
H2530 C2548 0.951 1_556 S
H2531 C2550 0.955 . S
H2532 C2552 0.950 . S
H2533 C2553 0.950 . S
H2534 C2555 0.950 . S
H2535 C2558 0.950 . S
H2536 C2559 0.950 . S
H2537 C2561 0.950 . S
H2538 C2562 0.950 . S
H2539 C2563 0.951 . S
H2540 C2565 0.951 . S
H2541 C2567 0.950 . S
H2542 C2568 0.950 . S
H2543 C2570 0.950 . S
H2544 C2573 0.950 . S
H2545 C2574 0.950 . S
H2546 C2576 0.950 . S
H2547 C2577 0.950 . S
C2548 H2530 0.951 1_554 S
C2548 C2549 1.374 . S
C2548 C2550 1.383 . S
C2549 C2548 1.374 . S
C2549 C2553 1.387 . S
C2550 H2531 0.955 . S
C2550 C2548 1.383 . S
C2550 C2551 1.367 . S
C2551 C2550 1.367 . S
C2551 C2552 1.414 . S
C2551 C2554 1.499 . S
C2552 H2532 0.950 . S
C2552 C2551 1.414 . S
C2552 C2553 1.374 . S
C2553 H2533 0.950 . S
C2553 C2549 1.387 . S
C2553 C2552 1.374 . S
C2554 C2551 1.499 . S
C2554 C2555 1.373 . S
C2554 C2556 1.389 1_554 S
C2555 H2534 0.950 . S
C2555 C2554 1.373 . S
C2555 C2571 1.377 . S
C2556 C2554 1.389 1_556 S
C2556 C2557 1.524 . S
C2556 C2570 1.377 . S
C2557 C2556 1.524 . S
C2557 C2558 1.397 . S
C2557 C2562 1.363 . S
C2558 H2535 0.950 . S
C2558 C2557 1.397 . S
C2558 C2559 1.334 . S
C2559 H2536 0.950 . S
C2559 C2558 1.334 . S
C2559 C2560 1.287 . S
C2560 C2559 1.287 . S
C2560 C2561 1.524 . S
C2560 H2579 0.913 . S
C2561 H2537 0.950 . S
C2561 C2560 1.524 . S
C2561 C2562 1.415 . S
C2562 H2538 0.950 . S
C2562 C2557 1.363 . S
C2562 C2561 1.415 . S
C2563 H2539 0.951 . S
C2563 C2564 1.366 . S
C2563 C2565 1.388 . S
C2564 C2563 1.366 . S
C2564 C2568 1.385 . S
C2565 H2540 0.951 . S
C2565 C2563 1.388 . S
C2565 C2566 1.366 . S
C2566 C2565 1.366 . S
C2566 C2567 1.414 . S
C2566 C2569 1.499 . S
C2567 H2541 0.950 . S
C2567 C2566 1.414 . S
C2567 C2568 1.374 . S
C2568 H2542 0.950 . S
C2568 C2564 1.385 . S
C2568 C2567 1.374 . S
C2569 C2566 1.499 . S
C2569 C2570 1.373 1_554 S
C2569 C2571 1.389 . S
C2570 H2543 0.950 . S
C2570 C2556 1.377 . S
C2570 C2569 1.373 1_556 S
C2571 C2555 1.377 . S
C2571 C2569 1.389 . S
C2571 C2572 1.524 . S
C2572 C2571 1.524 . S
C2572 C2573 1.397 . S
C2572 C2577 1.363 . S
C2573 H2544 0.950 . S
C2573 C2572 1.397 . S
C2573 C2574 1.334 . S
C2574 H2545 0.950 . S
C2574 C2573 1.334 . S
C2574 C2575 1.287 . S
C2575 C2574 1.287 . S
C2575 C2576 1.524 . S
C2575 H2578 0.999 . S
C2576 H2546 0.950 . S
C2576 C2575 1.524 . S
C2576 C2577 1.415 . S
C2577 H2547 0.950 . S
C2577 C2572 1.363 . S
C2577 C2576 1.415 . S
H2578 C2575 0.999 . S
H2579 C2560 0.913 . S
H2580 C2598 0.951 . S
H2581 C2600 0.951 . S
H2582 C2602 0.950 . S
H2583 C2603 0.950 . S
H2584 C2605 0.950 . S
H2585 C2608 0.950 . S
H2586 C2609 0.950 . S
H2587 C2611 0.950 . S
H2588 C2612 0.950 . S
H2589 C2613 0.951 . S
H2590 C2615 0.951 . S
H2591 C2617 0.950 . S
H2592 C2618 0.950 . S
H2593 C2620 0.950 . S
H2594 C2623 0.950 . S
H2595 C2624 0.950 . S
H2596 C2626 0.950 . S
H2597 C2627 0.950 . S
C2598 H2580 0.951 . S
C2598 C2599 1.366 . S
C2598 C2600 1.388 . S
C2599 C2598 1.366 . S
C2599 C2603 1.385 . S
C2600 H2581 0.951 . S
C2600 C2598 1.388 . S
C2600 C2601 1.366 . S
C2601 C2600 1.366 . S
C2601 C2602 1.414 . S
C2601 C2604 1.499 . S
C2602 H2582 0.950 . S
C2602 C2601 1.414 . S
C2602 C2603 1.374 . S
C2603 H2583 0.950 . S
C2603 C2599 1.385 . S
C2603 C2602 1.374 . S
C2604 C2601 1.499 . S
C2604 C2605 1.373 . S
C2604 C2606 1.389 . S
C2605 H2584 0.950 . S
C2605 C2604 1.373 . S
C2605 C2621 1.377 . S
C2606 C2604 1.389 . S
C2606 C2607 1.524 . S
C2606 C2620 1.377 . S
C2607 C2606 1.524 . S
C2607 C2608 1.397 . S
C2607 C2612 1.363 . S
C2608 H2585 0.950 . S
C2608 C2607 1.397 . S
C2608 C2609 1.334 . S
C2609 H2586 0.950 . S
C2609 C2608 1.334 . S
C2609 C2610 1.287 . S
C2610 C2609 1.287 . S
C2610 C2611 1.524 . S
C2610 H2629 0.913 . S
C2611 H2587 0.950 . S
C2611 C2610 1.524 . S
C2611 C2612 1.415 . S
C2612 H2588 0.950 . S
C2612 C2607 1.363 . S
C2612 C2611 1.415 . S
C2613 H2589 0.951 . S
C2613 C2614 1.366 . S
C2613 C2615 1.388 . S
C2614 C2613 1.366 . S
C2614 C2618 1.385 . S
C2615 H2590 0.951 . S
C2615 C2613 1.388 . S
C2615 C2616 1.366 . S
C2616 C2615 1.366 . S
C2616 C2617 1.414 . S
C2616 C2619 1.499 . S
C2617 H2591 0.950 . S
C2617 C2616 1.414 . S
C2617 C2618 1.374 . S
C2618 H2592 0.950 . S
C2618 C2614 1.385 . S
C2618 C2617 1.374 . S
C2619 C2616 1.499 . S
C2619 C2620 1.373 . S
C2619 C2621 1.389 . S
C2620 H2593 0.950 . S
C2620 C2606 1.377 . S
C2620 C2619 1.373 . S
C2621 C2605 1.377 . S
C2621 C2619 1.389 . S
C2621 C2622 1.524 . S
C2622 C2621 1.524 . S
C2622 C2623 1.397 . S
C2622 C2627 1.363 . S
C2623 H2594 0.950 . S
C2623 C2622 1.397 . S
C2623 C2624 1.334 . S
C2624 H2595 0.950 . S
C2624 C2623 1.334 . S
C2624 C2625 1.287 . S
C2625 C2624 1.287 . S
C2625 C2626 1.524 . S
C2625 H2628 0.999 . S
C2626 H2596 0.950 . S
C2626 C2625 1.524 . S
C2626 C2627 1.415 . S
C2627 H2597 0.950 . S
C2627 C2622 1.363 . S
C2627 C2626 1.415 . S
H2628 C2625 0.999 . S
H2629 C2610 0.913 . S
H2630 C2648 0.951 . S
H2631 C2650 0.951 . S
H2632 C2652 0.950 . S
H2633 C2653 0.950 . S
H2634 C2655 0.950 . S
H2635 C2658 0.950 . S
H2636 C2659 0.950 . S
H2637 C2661 0.950 . S
H2638 C2662 0.950 . S
H2639 C2663 0.951 . S
H2640 C2665 0.951 . S
H2641 C2667 0.950 . S
H2642 C2668 0.950 . S
H2643 C2670 0.950 . S
H2644 C2673 0.950 . S
H2645 C2674 0.950 . S
H2646 C2676 0.950 . S
H2647 C2677 0.950 . S
C2648 H2630 0.951 . S
C2648 C2649 1.366 . S
C2648 C2650 1.388 . S
C2649 C2648 1.366 . S
C2649 C2653 1.385 . S
C2650 H2631 0.951 . S
C2650 C2648 1.388 . S
C2650 C2651 1.366 . S
C2651 C2650 1.366 . S
C2651 C2652 1.414 . S
C2651 C2654 1.499 . S
C2652 H2632 0.950 . S
C2652 C2651 1.414 . S
C2652 C2653 1.374 . S
C2653 H2633 0.950 . S
C2653 C2649 1.385 . S
C2653 C2652 1.374 . S
C2654 C2651 1.499 . S
C2654 C2655 1.373 . S
C2654 C2656 1.389 . S
C2655 H2634 0.950 . S
C2655 C2654 1.373 . S
C2655 C2671 1.377 . S
C2656 C2654 1.389 . S
C2656 C2657 1.524 . S
C2656 C2670 1.377 . S
C2657 C2656 1.524 . S
C2657 C2658 1.397 . S
C2657 C2662 1.363 . S
C2658 H2635 0.950 . S
C2658 C2657 1.397 . S
C2658 C2659 1.334 . S
C2659 H2636 0.950 . S
C2659 C2658 1.334 . S
C2659 C2660 1.287 . S
C2660 C2659 1.287 . S
C2660 C2661 1.524 . S
C2660 H2679 0.913 . S
C2661 H2637 0.950 . S
C2661 C2660 1.524 . S
C2661 C2662 1.415 . S
C2662 H2638 0.950 . S
C2662 C2657 1.363 . S
C2662 C2661 1.415 . S
C2663 H2639 0.951 . S
C2663 C2664 1.366 . S
C2663 C2665 1.388 1_455 S
C2664 C2663 1.366 . S
C2664 C2668 1.385 . S
C2665 H2640 0.951 . S
C2665 C2663 1.388 1_655 S
C2665 C2666 1.366 . S
C2666 C2665 1.366 . S
C2666 C2667 1.414 . S
C2666 C2669 1.499 . S
C2667 H2641 0.950 . S
C2667 C2666 1.414 . S
C2667 C2668 1.374 1_655 S
C2668 H2642 0.950 . S
C2668 C2664 1.385 . S
C2668 C2667 1.374 1_455 S
C2669 C2666 1.499 . S
C2669 C2670 1.373 . S
C2669 C2671 1.389 . S
C2670 H2643 0.950 . S
C2670 C2656 1.377 . S
C2670 C2669 1.373 . S
C2671 C2655 1.377 . S
C2671 C2669 1.389 . S
C2671 C2672 1.524 . S
C2672 C2671 1.524 . S
C2672 C2673 1.397 . S
C2672 C2677 1.363 . S
C2673 H2644 0.950 . S
C2673 C2672 1.397 . S
C2673 C2674 1.334 . S
C2674 H2645 0.950 . S
C2674 C2673 1.334 . S
C2674 C2675 1.287 . S
C2675 C2674 1.287 . S
C2675 C2676 1.524 . S
C2675 H2678 0.999 . S
C2676 H2646 0.950 . S
C2676 C2675 1.524 . S
C2676 C2677 1.415 . S
C2677 H2647 0.950 . S
C2677 C2672 1.363 . S
C2677 C2676 1.415 . S
H2678 C2675 0.999 . S
H2679 C2660 0.913 . S
H2680 C2698 0.951 . S
H2681 C2700 0.951 . S
H2682 C2702 0.950 . S
H2683 C2703 0.950 . S
H2684 C2705 0.950 . S
H2685 C2708 0.950 . S
H2686 C2709 0.950 . S
H2687 C2711 0.950 . S
H2688 C2712 0.950 . S
H2689 C2713 0.951 . S
H2690 C2715 0.951 . S
H2691 C2717 0.950 . S
H2692 C2718 0.950 . S
H2693 C2720 0.950 . S
H2694 C2723 0.950 . S
H2695 C2724 0.950 . S
H2696 C2726 0.950 . S
H2697 C2727 0.950 . S
C2698 H2680 0.951 . S
C2698 C2699 1.366 . S
C2698 C2700 1.388 . S
C2699 C2698 1.366 . S
C2699 C2703 1.385 . S
C2700 H2681 0.951 . S
C2700 C2698 1.388 . S
C2700 C2701 1.366 . S
C2701 C2700 1.366 . S
C2701 C2702 1.414 . S
C2701 C2704 1.499 . S
C2702 H2682 0.950 . S
C2702 C2701 1.414 . S
C2702 C2703 1.374 . S
C2703 H2683 0.950 . S
C2703 C2699 1.385 . S
C2703 C2702 1.374 . S
C2704 C2701 1.499 . S
C2704 C2705 1.373 . S
C2704 C2706 1.389 . S
C2705 H2684 0.950 . S
C2705 C2704 1.373 . S
C2705 C2721 1.377 . S
C2706 C2704 1.389 . S
C2706 C2707 1.524 . S
C2706 C2720 1.377 . S
C2707 C2706 1.524 . S
C2707 C2708 1.397 . S
C2707 C2712 1.363 . S
C2708 H2685 0.950 . S
C2708 C2707 1.397 . S
C2708 C2709 1.334 . S
C2709 H2686 0.950 . S
C2709 C2708 1.334 . S
C2709 C2710 1.287 . S
C2710 C2709 1.287 . S
C2710 C2711 1.524 . S
C2710 H2729 0.913 . S
C2711 H2687 0.950 . S
C2711 C2710 1.524 . S
C2711 C2712 1.415 . S
C2712 H2688 0.950 . S
C2712 C2707 1.363 . S
C2712 C2711 1.415 . S
C2713 H2689 0.951 . S
C2713 C2714 1.366 . S
C2713 C2715 1.388 . S
C2714 C2713 1.366 . S
C2714 C2718 1.385 . S
C2715 H2690 0.951 . S
C2715 C2713 1.388 . S
C2715 C2716 1.366 . S
C2716 C2715 1.366 . S
C2716 C2717 1.414 . S
C2716 C2719 1.499 . S
C2717 H2691 0.950 . S
C2717 C2716 1.414 . S
C2717 C2718 1.374 . S
C2718 H2692 0.950 . S
C2718 C2714 1.385 . S
C2718 C2717 1.374 . S
C2719 C2716 1.499 . S
C2719 C2720 1.373 . S
C2719 C2721 1.389 . S
C2720 H2693 0.950 . S
C2720 C2706 1.377 . S
C2720 C2719 1.373 . S
C2721 C2705 1.377 . S
C2721 C2719 1.389 . S
C2721 C2722 1.524 . S
C2722 C2721 1.524 . S
C2722 C2723 1.397 . S
C2722 C2727 1.363 . S
C2723 H2694 0.950 . S
C2723 C2722 1.397 . S
C2723 C2724 1.334 . S
C2724 H2695 0.950 . S
C2724 C2723 1.334 . S
C2724 C2725 1.287 . S
C2725 C2724 1.287 . S
C2725 C2726 1.524 . S
C2725 H2728 0.999 . S
C2726 H2696 0.950 . S
C2726 C2725 1.524 . S
C2726 C2727 1.415 . S
C2727 H2697 0.950 . S
C2727 C2722 1.363 . S
C2727 C2726 1.415 . S
H2728 C2725 0.999 . S
H2729 C2710 0.913 . S
H2730 C2748 0.951 . S
H2731 C2750 0.951 . S
H2732 C2752 0.950 . S
H2733 C2753 0.950 . S
H2734 C2755 0.950 . S
H2735 C2758 0.950 . S
H2736 C2759 0.950 . S
H2737 C2761 0.950 . S
H2738 C2762 0.950 . S
H2739 C2763 0.951 . S
H2740 C2765 0.951 . S
H2741 C2767 0.950 . S
H2742 C2768 0.950 . S
H2743 C2770 0.950 . S
H2744 C2773 0.950 . S
H2745 C2774 0.950 . S
H2746 C2776 0.950 . S
H2747 C2777 0.950 . S
C2748 H2730 0.951 . S
C2748 C2749 1.366 . S
C2748 C2750 1.388 . S
C2749 C2748 1.366 . S
C2749 C2753 1.385 . S
C2750 H2731 0.951 . S
C2750 C2748 1.388 . S
C2750 C2751 1.366 . S
C2751 C2750 1.366 . S
C2751 C2752 1.414 . S
C2751 C2754 1.499 . S
C2752 H2732 0.950 . S
C2752 C2751 1.414 . S
C2752 C2753 1.374 . S
C2753 H2733 0.950 . S
C2753 C2749 1.385 . S
C2753 C2752 1.374 . S
C2754 C2751 1.499 . S
C2754 C2755 1.373 . S
C2754 C2756 1.389 . S
C2755 H2734 0.950 . S
C2755 C2754 1.373 . S
C2755 C2771 1.377 . S
C2756 C2754 1.389 . S
C2756 C2757 1.524 . S
C2756 C2770 1.377 . S
C2757 C2756 1.524 . S
C2757 C2758 1.397 . S
C2757 C2762 1.363 . S
C2758 H2735 0.950 . S
C2758 C2757 1.397 . S
C2758 C2759 1.334 . S
C2759 H2736 0.950 . S
C2759 C2758 1.334 . S
C2759 C2760 1.287 . S
C2760 C2759 1.287 . S
C2760 C2761 1.524 . S
C2760 H2779 0.913 . S
C2761 H2737 0.950 . S
C2761 C2760 1.524 . S
C2761 C2762 1.415 . S
C2762 H2738 0.950 . S
C2762 C2757 1.363 . S
C2762 C2761 1.415 . S
C2763 H2739 0.951 . S
C2763 C2764 1.366 . S
C2763 C2765 1.388 . S
C2764 C2763 1.366 . S
C2764 C2768 1.385 . S
C2765 H2740 0.951 . S
C2765 C2763 1.388 . S
C2765 C2766 1.366 . S
C2766 C2765 1.366 . S
C2766 C2767 1.414 . S
C2766 C2769 1.499 . S
C2767 H2741 0.950 . S
C2767 C2766 1.414 . S
C2767 C2768 1.374 . S
C2768 H2742 0.950 . S
C2768 C2764 1.385 . S
C2768 C2767 1.374 . S
C2769 C2766 1.499 . S
C2769 C2770 1.373 . S
C2769 C2771 1.389 . S
C2770 H2743 0.950 . S
C2770 C2756 1.377 . S
C2770 C2769 1.373 . S
C2771 C2755 1.377 . S
C2771 C2769 1.389 . S
C2771 C2772 1.524 . S
C2772 C2771 1.524 . S
C2772 C2773 1.397 . S
C2772 C2777 1.363 . S
C2773 H2744 0.950 . S
C2773 C2772 1.397 . S
C2773 C2774 1.334 . S
C2774 H2745 0.950 . S
C2774 C2773 1.334 . S
C2774 C2775 1.287 . S
C2775 C2774 1.287 . S
C2775 C2776 1.524 . S
C2775 H2778 0.999 . S
C2776 H2746 0.950 . S
C2776 C2775 1.524 . S
C2776 C2777 1.415 . S
C2777 H2747 0.950 . S
C2777 C2772 1.363 . S
C2777 C2776 1.415 . S
H2778 C2775 0.999 . S
H2779 C2760 0.913 . S
H2780 C2798 0.951 . S
H2781 C2800 0.951 . S
H2782 C2802 0.950 . S
H2783 C2803 0.950 . S
H2784 C2805 0.950 . S
H2785 C2808 0.950 . S
H2786 C2809 0.950 . S
H2787 C2811 0.950 . S
H2788 C2812 0.950 . S
H2789 C2813 0.951 . S
H2790 C2815 0.951 . S
H2791 C2817 0.950 . S
H2792 C2818 0.950 . S
H2793 C2820 0.950 . S
H2794 C2823 0.950 . S
H2795 C2824 0.950 . S
H2796 C2826 0.950 . S
H2797 C2827 0.950 . S
C2798 H2780 0.951 . S
C2798 C2799 1.366 . S
C2798 C2800 1.388 . S
C2799 C2798 1.366 . S
C2799 C2803 1.385 . S
C2800 H2781 0.951 . S
C2800 C2798 1.388 . S
C2800 C2801 1.366 . S
C2801 C2800 1.366 . S
C2801 C2802 1.414 . S
C2801 C2804 1.499 . S
C2802 H2782 0.950 . S
C2802 C2801 1.414 . S
C2802 C2803 1.374 . S
C2803 H2783 0.950 . S
C2803 C2799 1.385 . S
C2803 C2802 1.374 . S
C2804 C2801 1.499 . S
C2804 C2805 1.373 . S
C2804 C2806 1.389 . S
C2805 H2784 0.950 . S
C2805 C2804 1.373 . S
C2805 C2821 1.377 . S
C2806 C2804 1.389 . S
C2806 C2807 1.524 . S
C2806 C2820 1.377 . S
C2807 C2806 1.524 . S
C2807 C2808 1.397 . S
C2807 C2812 1.363 . S
C2808 H2785 0.950 . S
C2808 C2807 1.397 . S
C2808 C2809 1.334 . S
C2809 H2786 0.950 . S
C2809 C2808 1.334 . S
C2809 C2810 1.287 . S
C2810 C2809 1.287 . S
C2810 C2811 1.524 . S
C2810 H2829 0.913 . S
C2811 H2787 0.950 . S
C2811 C2810 1.524 . S
C2811 C2812 1.415 . S
C2812 H2788 0.950 . S
C2812 C2807 1.363 . S
C2812 C2811 1.415 . S
C2813 H2789 0.951 . S
C2813 C2814 1.366 . S
C2813 C2815 1.388 . S
C2814 C2813 1.366 . S
C2814 C2818 1.385 . S
C2815 H2790 0.951 . S
C2815 C2813 1.388 . S
C2815 C2816 1.366 . S
C2816 C2815 1.366 . S
C2816 C2817 1.414 . S
C2816 C2819 1.499 . S
C2817 H2791 0.950 . S
C2817 C2816 1.414 . S
C2817 C2818 1.374 . S
C2818 H2792 0.950 . S
C2818 C2814 1.385 . S
C2818 C2817 1.374 . S
C2819 C2816 1.499 . S
C2819 C2820 1.373 . S
C2819 C2821 1.389 . S
C2820 H2793 0.950 . S
C2820 C2806 1.377 . S
C2820 C2819 1.373 . S
C2821 C2805 1.377 . S
C2821 C2819 1.389 . S
C2821 C2822 1.524 . S
C2822 C2821 1.524 . S
C2822 C2823 1.397 . S
C2822 C2827 1.363 . S
C2823 H2794 0.950 . S
C2823 C2822 1.397 . S
C2823 C2824 1.334 . S
C2824 H2795 0.950 . S
C2824 C2823 1.334 . S
C2824 C2825 1.287 . S
C2825 C2824 1.287 . S
C2825 C2826 1.524 . S
C2825 H2828 0.999 . S
C2826 H2796 0.950 . S
C2826 C2825 1.524 . S
C2826 C2827 1.415 . S
C2827 H2797 0.950 . S
C2827 C2822 1.363 . S
C2827 C2826 1.415 . S
H2828 C2825 0.999 . S
H2829 C2810 0.913 . S
H2830 C2848 0.951 . S
H2831 C2850 0.951 . S
H2832 C2852 0.950 . S
H2833 C2853 0.950 . S
H2834 C2855 0.950 . S
H2835 C2858 0.950 . S
H2836 C2859 0.950 . S
H2837 C2861 0.950 . S
H2838 C2862 0.950 . S
H2839 C2863 0.951 . S
H2840 C2865 0.951 . S
H2841 C2867 0.950 . S
H2842 C2868 0.950 . S
H2843 C2870 0.950 . S
H2844 C2873 0.950 . S
H2845 C2874 0.950 . S
H2846 C2876 0.950 . S
H2847 C2877 0.950 . S
C2848 H2830 0.951 . S
C2848 C2849 1.366 . S
C2848 C2850 1.388 . S
C2849 C2848 1.366 . S
C2849 C2853 1.385 . S
C2850 H2831 0.951 . S
C2850 C2848 1.388 . S
C2850 C2851 1.366 . S
C2851 C2850 1.366 . S
C2851 C2852 1.414 . S
C2851 C2854 1.499 . S
C2852 H2832 0.950 . S
C2852 C2851 1.414 . S
C2852 C2853 1.374 . S
C2853 H2833 0.950 . S
C2853 C2849 1.385 . S
C2853 C2852 1.374 . S
C2854 C2851 1.499 . S
C2854 C2855 1.373 . S
C2854 C2856 1.389 . S
C2855 H2834 0.950 . S
C2855 C2854 1.373 . S
C2855 C2871 1.377 . S
C2856 C2854 1.389 . S
C2856 C2857 1.524 . S
C2856 C2870 1.377 . S
C2857 C2856 1.524 . S
C2857 C2858 1.397 . S
C2857 C2862 1.363 . S
C2858 H2835 0.950 . S
C2858 C2857 1.397 . S
C2858 C2859 1.334 . S
C2859 H2836 0.950 . S
C2859 C2858 1.334 . S
C2859 C2860 1.287 . S
C2860 C2859 1.287 . S
C2860 C2861 1.524 . S
C2860 H2879 0.913 . S
C2861 H2837 0.950 . S
C2861 C2860 1.524 . S
C2861 C2862 1.415 . S
C2862 H2838 0.950 . S
C2862 C2857 1.363 . S
C2862 C2861 1.415 . S
C2863 H2839 0.951 . S
C2863 C2864 1.366 . S
C2863 C2865 1.388 . S
C2864 C2863 1.366 . S
C2864 C2868 1.385 . S
C2865 H2840 0.951 . S
C2865 C2863 1.388 . S
C2865 C2866 1.366 . S
C2866 C2865 1.366 . S
C2866 C2867 1.414 . S
C2866 C2869 1.499 . S
C2867 H2841 0.950 . S
C2867 C2866 1.414 . S
C2867 C2868 1.374 . S
C2868 H2842 0.950 . S
C2868 C2864 1.385 . S
C2868 C2867 1.374 . S
C2869 C2866 1.499 . S
C2869 C2870 1.373 . S
C2869 C2871 1.389 . S
C2870 H2843 0.950 . S
C2870 C2856 1.377 . S
C2870 C2869 1.373 . S
C2871 C2855 1.377 . S
C2871 C2869 1.389 . S
C2871 C2872 1.524 . S
C2872 C2871 1.524 . S
C2872 C2873 1.397 . S
C2872 C2877 1.363 . S
C2873 H2844 0.950 . S
C2873 C2872 1.397 . S
C2873 C2874 1.334 . S
C2874 H2845 0.950 . S
C2874 C2873 1.334 . S
C2874 C2875 1.287 . S
C2875 C2874 1.287 . S
C2875 C2876 1.524 . S
C2875 H2878 0.999 . S
C2876 H2846 0.950 . S
C2876 C2875 1.524 . S
C2876 C2877 1.415 . S
C2877 H2847 0.950 . S
C2877 C2872 1.363 . S
C2877 C2876 1.415 . S
H2878 C2875 0.999 . S
H2879 C2860 0.913 . S
H2880 C2898 0.951 . S
H2881 C2900 0.951 . S
H2882 C2902 0.950 . S
H2883 C2903 0.950 . S
H2884 C2905 0.950 . S
H2885 C2908 0.950 . S
H2886 C2909 0.950 . S
H2887 C2911 0.950 . S
H2888 C2912 0.950 . S
H2889 C2913 0.951 . S
H2890 C2915 0.951 . S
H2891 C2917 0.950 . S
H2892 C2918 0.950 1_545 S
H2893 C2920 0.950 . S
H2894 C2923 0.950 . S
H2895 C2924 0.950 . S
H2896 C2926 0.950 . S
H2897 C2927 0.950 . S
C2898 H2880 0.951 . S
C2898 C2899 1.366 . S
C2898 C2900 1.388 . S
C2899 C2898 1.366 . S
C2899 C2903 1.385 . S
C2900 H2881 0.951 . S
C2900 C2898 1.388 . S
C2900 C2901 1.366 . S
C2901 C2900 1.366 . S
C2901 C2902 1.414 . S
C2901 C2904 1.499 . S
C2902 H2882 0.950 . S
C2902 C2901 1.414 . S
C2902 C2903 1.374 . S
C2903 H2883 0.950 . S
C2903 C2899 1.385 . S
C2903 C2902 1.374 . S
C2904 C2901 1.499 . S
C2904 C2905 1.373 . S
C2904 C2906 1.389 . S
C2905 H2884 0.950 . S
C2905 C2904 1.373 . S
C2905 C2921 1.377 . S
C2906 C2904 1.389 . S
C2906 C2907 1.524 . S
C2906 C2920 1.377 . S
C2907 C2906 1.524 . S
C2907 C2908 1.397 . S
C2907 C2912 1.363 . S
C2908 H2885 0.950 . S
C2908 C2907 1.397 . S
C2908 C2909 1.334 . S
C2909 H2886 0.950 . S
C2909 C2908 1.334 . S
C2909 C2910 1.287 . S
C2910 C2909 1.287 . S
C2910 C2911 1.524 . S
C2910 H2929 0.913 . S
C2911 H2887 0.950 . S
C2911 C2910 1.524 . S
C2911 C2912 1.415 . S
C2912 H2888 0.950 . S
C2912 C2907 1.363 . S
C2912 C2911 1.415 . S
C2913 H2889 0.951 . S
C2913 C2914 1.366 . S
C2913 C2915 1.388 . S
C2914 C2913 1.366 . S
C2914 C2918 1.385 . S
C2915 H2890 0.951 . S
C2915 C2913 1.388 . S
C2915 C2916 1.366 . S
C2916 C2915 1.366 . S
C2916 C2917 1.414 . S
C2916 C2919 1.499 . S
C2917 H2891 0.950 . S
C2917 C2916 1.414 . S
C2917 C2918 1.374 . S
C2918 H2892 0.950 1_565 S
C2918 C2914 1.385 . S
C2918 C2917 1.374 . S
C2919 C2916 1.499 . S
C2919 C2920 1.373 . S
C2919 C2921 1.389 . S
C2920 H2893 0.950 . S
C2920 C2906 1.377 . S
C2920 C2919 1.373 . S
C2921 C2905 1.377 . S
C2921 C2919 1.389 . S
C2921 C2922 1.524 . S
C2922 C2921 1.524 . S
C2922 C2923 1.397 . S
C2922 C2927 1.363 . S
C2923 H2894 0.950 . S
C2923 C2922 1.397 . S
C2923 C2924 1.334 1_554 S
C2924 H2895 0.950 . S
C2924 C2923 1.334 1_556 S
C2924 C2925 1.287 . S
C2925 C2924 1.287 . S
C2925 C2926 1.532 . S
C2925 H2928 0.999 . S
C2926 H2896 0.950 . S
C2926 C2925 1.532 . S
C2926 C2927 1.407 1_556 S
C2927 H2897 0.950 . S
C2927 C2922 1.363 . S
C2927 C2926 1.407 1_554 S
H2928 C2925 0.999 . S
H2929 C2910 0.913 . S
H2930 C2948 0.951 . S
H2931 C2950 0.951 . S
H2932 C2952 0.950 . S
H2933 C2953 0.950 . S
H2934 C2955 0.950 . S
H2935 C2958 0.950 . S
H2936 C2959 0.950 . S
H2937 C2961 0.950 . S
H2938 C2962 0.950 . S
H2939 C2963 0.951 . S
H2940 C2965 0.951 . S
H2941 C2967 0.950 . S
H2942 C2968 0.950 . S
H2943 C2970 0.950 . S
H2944 C2973 0.950 . S
H2945 C2974 0.950 . S
H2946 C2976 0.950 . S
H2947 C2977 0.950 . S
C2948 H2930 0.951 . S
C2948 C2949 1.366 . S
C2948 C2950 1.388 . S
C2949 C2948 1.366 . S
C2949 C2953 1.385 . S
C2950 H2931 0.951 . S
C2950 C2948 1.388 . S
C2950 C2951 1.366 . S
C2951 C2950 1.366 . S
C2951 C2952 1.414 . S
C2951 C2954 1.499 . S
C2952 H2932 0.950 . S
C2952 C2951 1.414 . S
C2952 C2953 1.374 . S
C2953 H2933 0.950 . S
C2953 C2949 1.385 . S
C2953 C2952 1.374 . S
C2954 C2951 1.499 . S
C2954 C2955 1.373 . S
C2954 C2956 1.389 . S
C2955 H2934 0.950 . S
C2955 C2954 1.373 . S
C2955 C2971 1.377 . S
C2956 C2954 1.389 . S
C2956 C2957 1.524 . S
C2956 C2970 1.377 . S
C2957 C2956 1.524 . S
C2957 C2958 1.397 . S
C2957 C2962 1.363 . S
C2958 H2935 0.950 . S
C2958 C2957 1.397 . S
C2958 C2959 1.334 . S
C2959 H2936 0.950 . S
C2959 C2958 1.334 . S
C2959 C2960 1.287 . S
C2960 C2959 1.287 . S
C2960 C2961 1.524 . S
C2960 H2979 0.913 . S
C2961 H2937 0.950 . S
C2961 C2960 1.524 . S
C2961 C2962 1.415 . S
C2962 H2938 0.950 . S
C2962 C2957 1.363 . S
C2962 C2961 1.415 . S
C2963 H2939 0.951 . S
C2963 C2964 1.366 . S
C2963 C2965 1.388 . S
C2964 C2963 1.366 . S
C2964 C2968 1.385 . S
C2965 H2940 0.951 . S
C2965 C2963 1.388 . S
C2965 C2966 1.366 . S
C2966 C2965 1.366 . S
C2966 C2967 1.414 . S
C2966 C2969 1.499 . S
C2967 H2941 0.950 . S
C2967 C2966 1.414 . S
C2967 C2968 1.374 . S
C2968 H2942 0.950 . S
C2968 C2964 1.385 . S
C2968 C2967 1.374 . S
C2969 C2966 1.499 . S
C2969 C2970 1.373 . S
C2969 C2971 1.389 . S
C2970 H2943 0.950 . S
C2970 C2956 1.377 . S
C2970 C2969 1.373 . S
C2971 C2955 1.377 . S
C2971 C2969 1.389 . S
C2971 C2972 1.524 . S
C2972 C2971 1.524 . S
C2972 C2973 1.397 . S
C2972 C2977 1.363 . S
C2973 H2944 0.950 . S
C2973 C2972 1.397 . S
C2973 C2974 1.334 . S
C2974 H2945 0.950 . S
C2974 C2973 1.334 . S
C2974 C2975 1.287 . S
C2975 C2974 1.287 . S
C2975 C2976 1.524 . S
C2975 H2978 0.999 . S
C2976 H2946 0.950 . S
C2976 C2975 1.524 . S
C2976 C2977 1.415 . S
C2977 H2947 0.950 . S
C2977 C2972 1.363 . S
C2977 C2976 1.415 . S
H2978 C2975 0.999 . S
H2979 C2960 0.913 . S
H2980 C2998 0.951 . S
H2981 C3000 0.951 . S
H2982 C3002 0.950 . S
H2983 C3003 0.950 . S
H2984 C3005 0.950 . S
H2985 C3008 0.950 . S
H2986 C3009 0.950 . S
H2987 C3011 0.950 . S
H2988 C3012 0.950 . S
H2989 C3013 0.951 . S
H2990 C3015 0.951 . S
H2991 C3017 0.950 . S
H2992 C3018 0.950 . S
H2993 C3020 0.950 . S
H2994 C3023 0.950 . S
H2995 C3024 0.950 . S
H2996 C3026 0.950 . S
H2997 C3027 0.950 . S
C2998 H2980 0.951 . S
C2998 C2999 1.366 . S
C2998 C3000 1.388 . S
C2999 C2998 1.366 . S
C2999 C3003 1.385 . S
C3000 H2981 0.951 . S
C3000 C2998 1.388 . S
C3000 C3001 1.366 . S
C3001 C3000 1.366 . S
C3001 C3002 1.414 . S
C3001 C3004 1.499 . S
C3002 H2982 0.950 . S
C3002 C3001 1.414 . S
C3002 C3003 1.374 . S
C3003 H2983 0.950 . S
C3003 C2999 1.385 . S
C3003 C3002 1.374 . S
C3004 C3001 1.499 . S
C3004 C3005 1.373 . S
C3004 C3006 1.389 . S
C3005 H2984 0.950 . S
C3005 C3004 1.373 . S
C3005 C3021 1.377 . S
C3006 C3004 1.389 . S
C3006 C3007 1.524 . S
C3006 C3020 1.377 . S
C3007 C3006 1.524 . S
C3007 C3008 1.397 . S
C3007 C3012 1.363 . S
C3008 H2985 0.950 . S
C3008 C3007 1.397 . S
C3008 C3009 1.334 . S
C3009 H2986 0.950 . S
C3009 C3008 1.334 . S
C3009 C3010 1.287 . S
C3010 C3009 1.287 . S
C3010 C3011 1.524 . S
C3010 H3029 0.913 . S
C3011 H2987 0.950 . S
C3011 C3010 1.524 . S
C3011 C3012 1.415 . S
C3012 H2988 0.950 . S
C3012 C3007 1.363 . S
C3012 C3011 1.415 . S
C3013 H2989 0.951 . S
C3013 C3014 1.366 . S
C3013 C3015 1.388 . S
C3014 C3013 1.366 . S
C3014 C3018 1.385 . S
C3015 H2990 0.951 . S
C3015 C3013 1.388 . S
C3015 C3016 1.366 . S
C3016 C3015 1.366 . S
C3016 C3017 1.414 . S
C3016 C3019 1.499 . S
C3017 H2991 0.950 . S
C3017 C3016 1.414 . S
C3017 C3018 1.374 . S
C3018 H2992 0.950 . S
C3018 C3014 1.385 . S
C3018 C3017 1.374 . S
C3019 C3016 1.499 . S
C3019 C3020 1.373 . S
C3019 C3021 1.389 . S
C3020 H2993 0.950 . S
C3020 C3006 1.377 . S
C3020 C3019 1.373 . S
C3021 C3005 1.377 . S
C3021 C3019 1.389 . S
C3021 C3022 1.524 . S
C3022 C3021 1.524 . S
C3022 C3023 1.397 . S
C3022 C3027 1.363 . S
C3023 H2994 0.950 . S
C3023 C3022 1.397 . S
C3023 C3024 1.334 . S
C3024 H2995 0.950 . S
C3024 C3023 1.334 . S
C3024 C3025 1.287 . S
C3025 C3024 1.287 . S
C3025 C3026 1.524 . S
C3025 H3028 0.999 . S
C3026 H2996 0.950 . S
C3026 C3025 1.524 . S
C3026 C3027 1.415 . S
C3027 H2997 0.950 . S
C3027 C3022 1.363 . S
C3027 C3026 1.415 . S
H3028 C3025 0.999 . S
H3029 C3010 0.913 . S
H3030 C3048 0.951 . S
H3031 C3050 0.951 . S
H3032 C3052 0.950 . S
H3033 C3053 0.950 . S
H3034 C3055 0.950 . S
H3035 C3058 0.950 . S
H3036 C3059 0.950 . S
H3037 C3061 0.950 . S
H3038 C3062 0.950 . S
H3039 C3063 0.951 . S
H3040 C3065 0.951 . S
H3041 C3067 0.950 . S
H3042 C3068 0.950 . S
H3043 C3070 0.950 . S
H3044 C3073 0.950 . S
H3045 C3074 0.950 . S
H3046 C3076 0.950 . S
H3047 C3077 0.950 . S
C3048 H3030 0.951 . S
C3048 C3049 1.366 . S
C3048 C3050 1.388 . S
C3049 C3048 1.366 . S
C3049 C3053 1.385 . S
C3050 H3031 0.951 . S
C3050 C3048 1.388 . S
C3050 C3051 1.366 . S
C3051 C3050 1.366 . S
C3051 C3052 1.414 . S
C3051 C3054 1.499 . S
C3052 H3032 0.950 . S
C3052 C3051 1.414 . S
C3052 C3053 1.374 . S
C3053 H3033 0.950 . S
C3053 C3049 1.385 . S
C3053 C3052 1.374 . S
C3054 C3051 1.499 . S
C3054 C3055 1.373 . S
C3054 C3056 1.389 . S
C3055 H3034 0.950 . S
C3055 C3054 1.373 . S
C3055 C3071 1.377 . S
C3056 C3054 1.389 . S
C3056 C3057 1.524 . S
C3056 C3070 1.377 . S
C3057 C3056 1.524 . S
C3057 C3058 1.397 . S
C3057 C3062 1.363 . S
C3058 H3035 0.950 . S
C3058 C3057 1.397 . S
C3058 C3059 1.334 . S
C3059 H3036 0.950 . S
C3059 C3058 1.334 . S
C3059 C3060 1.287 . S
C3060 C3059 1.287 . S
C3060 C3061 1.524 . S
C3060 H3079 0.913 . S
C3061 H3037 0.950 . S
C3061 C3060 1.524 . S
C3061 C3062 1.415 . S
C3062 H3038 0.950 . S
C3062 C3057 1.363 . S
C3062 C3061 1.415 . S
C3063 H3039 0.951 . S
C3063 C3064 1.366 . S
C3063 C3065 1.388 . S
C3064 C3063 1.366 . S
C3064 C3068 1.385 . S
C3065 H3040 0.951 . S
C3065 C3063 1.388 . S
C3065 C3066 1.366 . S
C3066 C3065 1.366 . S
C3066 C3067 1.414 . S
C3066 C3069 1.499 . S
C3067 H3041 0.950 . S
C3067 C3066 1.414 . S
C3067 C3068 1.374 . S
C3068 H3042 0.950 . S
C3068 C3064 1.385 . S
C3068 C3067 1.374 . S
C3069 C3066 1.499 . S
C3069 C3070 1.373 . S
C3069 C3071 1.389 . S
C3070 H3043 0.950 . S
C3070 C3056 1.377 . S
C3070 C3069 1.373 . S
C3071 C3055 1.377 . S
C3071 C3069 1.389 . S
C3071 C3072 1.524 . S
C3072 C3071 1.524 . S
C3072 C3073 1.397 . S
C3072 C3077 1.363 . S
C3073 H3044 0.950 . S
C3073 C3072 1.397 . S
C3073 C3074 1.334 . S
C3074 H3045 0.950 . S
C3074 C3073 1.334 . S
C3074 C3075 1.287 . S
C3075 C3074 1.287 . S
C3075 C3076 1.524 . S
C3075 H3078 0.999 . S
C3076 H3046 0.950 . S
C3076 C3075 1.524 . S
C3076 C3077 1.415 . S
C3077 H3047 0.950 . S
C3077 C3072 1.363 . S
C3077 C3076 1.415 . S
H3078 C3075 0.999 . S
H3079 C3060 0.913 . S
H3080 C3098 0.951 . S
H3081 C3100 0.951 . S
H3082 C3102 0.950 . S
H3083 C3103 0.950 . S
H3084 C3105 0.950 . S
H3085 C3108 0.950 . S
H3086 C3109 0.950 . S
H3087 C3111 0.950 . S
H3088 C3112 0.950 . S
H3089 C3113 0.951 . S
H3090 C3115 0.951 . S
H3091 C3117 0.950 . S
H3092 C3118 0.950 . S
H3093 C3120 0.950 . S
H3094 C3123 0.950 . S
H3095 C3124 0.950 . S
H3096 C3126 0.950 . S
H3097 C3127 0.950 . S
C3098 H3080 0.951 . S
C3098 C3099 1.366 . S
C3098 C3100 1.388 . S
C3099 C3098 1.366 . S
C3099 C3103 1.385 . S
C3100 H3081 0.951 . S
C3100 C3098 1.388 . S
C3100 C3101 1.366 . S
C3101 C3100 1.366 . S
C3101 C3102 1.414 . S
C3101 C3104 1.499 . S
C3102 H3082 0.950 . S
C3102 C3101 1.414 . S
C3102 C3103 1.374 . S
C3103 H3083 0.950 . S
C3103 C3099 1.385 . S
C3103 C3102 1.374 . S
C3104 C3101 1.499 . S
C3104 C3105 1.373 . S
C3104 C3106 1.389 . S
C3105 H3084 0.950 . S
C3105 C3104 1.373 . S
C3105 C3121 1.377 . S
C3106 C3104 1.389 . S
C3106 C3107 1.524 . S
C3106 C3120 1.377 . S
C3107 C3106 1.524 . S
C3107 C3108 1.397 . S
C3107 C3112 1.363 . S
C3108 H3085 0.950 . S
C3108 C3107 1.397 . S
C3108 C3109 1.334 . S
C3109 H3086 0.950 . S
C3109 C3108 1.334 . S
C3109 C3110 1.287 . S
C3110 C3109 1.287 . S
C3110 C3111 1.524 . S
C3110 H3129 0.913 . S
C3111 H3087 0.950 . S
C3111 C3110 1.524 . S
C3111 C3112 1.415 . S
C3112 H3088 0.950 . S
C3112 C3107 1.363 . S
C3112 C3111 1.415 . S
C3113 H3089 0.951 . S
C3113 C3114 1.366 . S
C3113 C3115 1.388 . S
C3114 C3113 1.366 . S
C3114 C3118 1.385 . S
C3115 H3090 0.951 . S
C3115 C3113 1.388 . S
C3115 C3116 1.366 . S
C3116 C3115 1.366 . S
C3116 C3117 1.414 . S
C3116 C3119 1.499 . S
C3117 H3091 0.950 . S
C3117 C3116 1.414 . S
C3117 C3118 1.374 . S
C3118 H3092 0.950 . S
C3118 C3114 1.385 . S
C3118 C3117 1.374 . S
C3119 C3116 1.499 . S
C3119 C3120 1.373 . S
C3119 C3121 1.389 . S
C3120 H3093 0.950 . S
C3120 C3106 1.377 . S
C3120 C3119 1.373 . S
C3121 C3105 1.377 . S
C3121 C3119 1.389 . S
C3121 C3122 1.524 . S
C3122 C3121 1.524 . S
C3122 C3123 1.397 . S
C3122 C3127 1.363 . S
C3123 H3094 0.950 . S
C3123 C3122 1.397 . S
C3123 C3124 1.334 . S
C3124 H3095 0.950 . S
C3124 C3123 1.334 . S
C3124 C3125 1.287 . S
C3125 C3124 1.287 . S
C3125 C3126 1.524 . S
C3125 H3128 0.999 . S
C3126 H3096 0.950 . S
C3126 C3125 1.524 . S
C3126 C3127 1.415 . S
C3127 H3097 0.950 . S
C3127 C3122 1.363 . S
C3127 C3126 1.415 . S
H3128 C3125 0.999 . S
H3129 C3110 0.913 . S
H3130 C3148 0.951 . S
H3131 C3150 0.951 . S
H3132 C3152 0.950 . S
H3133 C3153 0.950 . S
H3134 C3155 0.950 . S
H3135 C3158 0.950 . S
H3136 C3159 0.950 . S
H3137 C3161 0.950 . S
H3138 C3162 0.950 . S
H3139 C3163 0.951 . S
H3140 C3165 0.951 . S
H3141 C3167 0.950 . S
H3142 C3168 0.950 . S
H3143 C3170 0.950 . S
H3144 C3173 0.950 . S
H3145 C3174 0.950 . S
H3146 C3176 0.950 . S
H3147 C3177 0.950 . S
C3148 H3130 0.951 . S
C3148 C3149 1.366 . S
C3148 C3150 1.388 . S
C3149 C3148 1.366 . S
C3149 C3153 1.385 . S
C3150 H3131 0.951 . S
C3150 C3148 1.388 . S
C3150 C3151 1.366 . S
C3151 C3150 1.366 . S
C3151 C3152 1.414 . S
C3151 C3154 1.499 . S
C3152 H3132 0.950 . S
C3152 C3151 1.414 . S
C3152 C3153 1.374 . S
C3153 H3133 0.950 . S
C3153 C3149 1.385 . S
C3153 C3152 1.374 . S
C3154 C3151 1.499 . S
C3154 C3155 1.373 . S
C3154 C3156 1.389 . S
C3155 H3134 0.950 . S
C3155 C3154 1.373 . S
C3155 C3171 1.377 . S
C3156 C3154 1.389 . S
C3156 C3157 1.524 . S
C3156 C3170 1.377 . S
C3157 C3156 1.524 . S
C3157 C3158 1.397 . S
C3157 C3162 1.363 . S
C3158 H3135 0.950 . S
C3158 C3157 1.397 . S
C3158 C3159 1.334 . S
C3159 H3136 0.950 . S
C3159 C3158 1.334 . S
C3159 C3160 1.287 . S
C3160 C3159 1.287 . S
C3160 C3161 1.524 . S
C3160 H3179 0.913 . S
C3161 H3137 0.950 . S
C3161 C3160 1.524 . S
C3161 C3162 1.415 . S
C3162 H3138 0.950 . S
C3162 C3157 1.363 . S
C3162 C3161 1.415 . S
C3163 H3139 0.951 . S
C3163 C3164 1.366 . S
C3163 C3165 1.388 . S
C3164 C3163 1.366 . S
C3164 C3168 1.385 . S
C3165 H3140 0.951 . S
C3165 C3163 1.388 . S
C3165 C3166 1.366 . S
C3166 C3165 1.366 . S
C3166 C3167 1.414 . S
C3166 C3169 1.499 . S
C3167 H3141 0.950 . S
C3167 C3166 1.414 . S
C3167 C3168 1.374 . S
C3168 H3142 0.950 . S
C3168 C3164 1.385 . S
C3168 C3167 1.374 . S
C3169 C3166 1.499 . S
C3169 C3170 1.373 . S
C3169 C3171 1.389 . S
C3170 H3143 0.950 . S
C3170 C3156 1.377 . S
C3170 C3169 1.373 . S
C3171 C3155 1.377 . S
C3171 C3169 1.389 . S
C3171 C3172 1.524 . S
C3172 C3171 1.524 . S
C3172 C3173 1.397 . S
C3172 C3177 1.363 . S
C3173 H3144 0.950 . S
C3173 C3172 1.397 . S
C3173 C3174 1.334 . S
C3174 H3145 0.950 . S
C3174 C3173 1.334 . S
C3174 C3175 1.287 . S
C3175 C3174 1.287 . S
C3175 C3176 1.524 . S
C3175 H3178 0.999 . S
C3176 H3146 0.950 . S
C3176 C3175 1.524 . S
C3176 C3177 1.415 . S
C3177 H3147 0.950 . S
C3177 C3172 1.363 . S
C3177 C3176 1.415 . S
H3178 C3175 0.999 . S
H3179 C3160 0.913 . S
H3180 C3198 0.951 . S
H3181 C3200 0.951 . S
H3182 C3202 0.950 . S
H3183 C3203 0.950 . S
H3184 C3205 0.950 . S
H3185 C3208 0.950 . S
H3186 C3209 0.950 . S
H3187 C3211 0.950 . S
H3188 C3212 0.950 . S
H3189 C3213 0.951 . S
H3190 C3215 0.951 . S
H3191 C3217 0.950 . S
H3192 C3218 0.950 1_554 S
H3193 C3220 0.950 . S
H3194 C3223 0.950 . S
H3195 C3224 0.950 . S
H3196 C3226 0.950 . S
H3197 C3227 0.950 . S
C3198 H3180 0.951 . S
C3198 C3199 1.366 . S
C3198 C3200 1.388 . S
C3199 C3198 1.366 . S
C3199 C3203 1.385 . S
C3200 H3181 0.951 . S
C3200 C3198 1.388 . S
C3200 C3201 1.366 . S
C3201 C3200 1.366 . S
C3201 C3202 1.414 . S
C3201 C3204 1.499 . S
C3202 H3182 0.950 . S
C3202 C3201 1.414 . S
C3202 C3203 1.374 . S
C3203 H3183 0.950 . S
C3203 C3199 1.385 . S
C3203 C3202 1.374 . S
C3204 C3201 1.499 . S
C3204 C3205 1.373 . S
C3204 C3206 1.389 . S
C3205 H3184 0.950 . S
C3205 C3204 1.373 . S
C3205 C3221 1.377 . S
C3206 C3204 1.389 . S
C3206 C3207 1.524 . S
C3206 C3220 1.377 . S
C3207 C3206 1.524 . S
C3207 C3208 1.397 . S
C3207 C3212 1.363 . S
C3208 H3185 0.950 . S
C3208 C3207 1.397 . S
C3208 C3209 1.334 . S
C3209 H3186 0.950 . S
C3209 C3208 1.334 . S
C3209 C3210 1.287 . S
C3210 C3209 1.287 . S
C3210 C3211 1.524 . S
C3210 H3229 0.913 . S
C3211 H3187 0.950 . S
C3211 C3210 1.524 . S
C3211 C3212 1.415 . S
C3212 H3188 0.950 . S
C3212 C3207 1.363 . S
C3212 C3211 1.415 . S
C3213 H3189 0.951 . S
C3213 C3214 1.391 1_556 S
C3213 C3215 1.388 . S
C3214 C3213 1.391 1_554 S
C3214 C3218 1.387 1_564 S
C3215 H3190 0.951 . S
C3215 C3213 1.388 . S
C3215 C3216 1.366 . S
C3216 C3215 1.366 . S
C3216 C3217 1.414 . S
C3216 C3219 1.499 . S
C3217 H3191 0.950 . S
C3217 C3216 1.414 . S
C3217 C3218 1.374 1_565 S
C3218 H3192 0.950 1_556 S
C3218 C3214 1.387 1_546 S
C3218 C3217 1.374 1_545 S
C3219 C3216 1.499 . S
C3219 C3220 1.373 . S
C3219 C3221 1.389 . S
C3220 H3193 0.950 . S
C3220 C3206 1.377 . S
C3220 C3219 1.373 . S
C3221 C3205 1.377 . S
C3221 C3219 1.389 . S
C3221 C3222 1.524 . S
C3222 C3221 1.524 . S
C3222 C3223 1.397 . S
C3222 C3227 1.363 . S
C3223 H3194 0.950 . S
C3223 C3222 1.397 . S
C3223 C3224 1.334 . S
C3224 H3195 0.950 . S
C3224 C3223 1.334 . S
C3224 C3225 1.287 . S
C3225 C3224 1.287 . S
C3225 C3226 1.524 . S
C3225 H3228 0.999 . S
C3226 H3196 0.950 . S
C3226 C3225 1.524 . S
C3226 C3227 1.415 . S
C3227 H3197 0.950 . S
C3227 C3222 1.363 . S
C3227 C3226 1.415 . S
H3228 C3225 0.999 . S
H3229 C3210 0.913 . S
H3230 C3248 0.951 . S
H3231 C3250 0.951 . S
H3232 C3252 0.950 . S
H3233 C3253 0.950 . S
H3234 C3255 0.950 . S
H3235 C3258 0.950 . S
H3236 C3259 0.950 . S
H3237 C3261 0.950 . S
H3238 C3262 0.950 . S
H3239 C3263 0.951 . S
H3240 C3265 0.951 . S
H3241 C3267 0.950 . S
H3242 C3268 0.950 . S
H3243 C3270 0.950 . S
H3244 C3273 0.950 . S
H3245 C3274 0.950 . S
H3246 C3276 0.950 . S
H3247 C3277 0.950 . S
C3248 H3230 0.951 . S
C3248 C3249 1.366 . S
C3248 C3250 1.388 . S
C3249 C3248 1.366 . S
C3249 C3253 1.385 . S
C3250 H3231 0.951 . S
C3250 C3248 1.388 . S
C3250 C3251 1.366 . S
C3251 C3250 1.366 . S
C3251 C3252 1.414 . S
C3251 C3254 1.499 . S
C3252 H3232 0.950 . S
C3252 C3251 1.414 . S
C3252 C3253 1.374 . S
C3253 H3233 0.950 . S
C3253 C3249 1.385 . S
C3253 C3252 1.374 . S
C3254 C3251 1.499 . S
C3254 C3255 1.373 . S
C3254 C3256 1.389 . S
C3255 H3234 0.950 . S
C3255 C3254 1.373 . S
C3255 C3271 1.377 . S
C3256 C3254 1.389 . S
C3256 C3257 1.524 . S
C3256 C3270 1.377 . S
C3257 C3256 1.524 . S
C3257 C3258 1.397 . S
C3257 C3262 1.363 . S
C3258 H3235 0.950 . S
C3258 C3257 1.397 . S
C3258 C3259 1.334 . S
C3259 H3236 0.950 . S
C3259 C3258 1.334 . S
C3259 C3260 1.287 . S
C3260 C3259 1.287 . S
C3260 C3261 1.524 . S
C3260 H3279 0.913 . S
C3261 H3237 0.950 . S
C3261 C3260 1.524 . S
C3261 C3262 1.415 . S
C3262 H3238 0.950 . S
C3262 C3257 1.363 . S
C3262 C3261 1.415 . S
C3263 H3239 0.951 . S
C3263 C3264 1.366 . S
C3263 C3265 1.388 . S
C3264 C3263 1.366 . S
C3264 C3268 1.385 . S
C3265 H3240 0.951 . S
C3265 C3263 1.388 . S
C3265 C3266 1.366 . S
C3266 C3265 1.366 . S
C3266 C3267 1.414 . S
C3266 C3269 1.499 . S
C3267 H3241 0.950 . S
C3267 C3266 1.414 . S
C3267 C3268 1.374 . S
C3268 H3242 0.950 . S
C3268 C3264 1.385 . S
C3268 C3267 1.374 . S
C3269 C3266 1.499 . S
C3269 C3270 1.373 . S
C3269 C3271 1.389 . S
C3270 H3243 0.950 . S
C3270 C3256 1.377 . S
C3270 C3269 1.373 . S
C3271 C3255 1.377 . S
C3271 C3269 1.389 . S
C3271 C3272 1.524 . S
C3272 C3271 1.524 . S
C3272 C3273 1.397 . S
C3272 C3277 1.363 . S
C3273 H3244 0.950 . S
C3273 C3272 1.397 . S
C3273 C3274 1.334 . S
C3274 H3245 0.950 . S
C3274 C3273 1.334 . S
C3274 C3275 1.287 . S
C3275 C3274 1.287 . S
C3275 C3276 1.524 . S
C3275 H3278 0.999 . S
C3276 H3246 0.950 . S
C3276 C3275 1.524 . S
C3276 C3277 1.415 . S
C3277 H3247 0.950 . S
C3277 C3272 1.363 . S
C3277 C3276 1.415 . S
H3278 C3275 0.999 . S
H3279 C3260 0.913 . S
H3280 C3298 0.951 . S
H3281 C3300 0.951 1_565 S
H3282 C3302 0.950 . S
H3283 C3303 0.950 . S
H3284 C3305 0.950 . S
H3285 C3308 0.950 . S
H3286 C3309 0.950 . S
H3287 C3311 0.950 . S
H3288 C3312 0.920 1_565 S
H3289 C3313 0.951 . S
H3290 C3315 0.951 . S
H3291 C3317 0.950 . S
H3292 C3318 0.950 . S
H3293 C3320 0.950 . S
H3294 C3323 0.950 1_565 S
H3295 C3324 0.950 . S
H3296 C3326 0.950 . S
H3297 C3327 0.950 . S
C3298 H3280 0.951 . S
C3298 C3299 1.366 1_565 S
C3298 C3300 1.388 1_565 S
C3299 C3298 1.366 1_545 S
C3299 C3303 1.385 . S
C3300 H3281 0.951 1_545 S
C3300 C3298 1.388 1_545 S
C3300 C3301 1.366 . S
C3301 C3300 1.366 . S
C3301 C3302 1.414 . S
C3301 C3304 1.499 . S
C3302 H3282 0.950 . S
C3302 C3301 1.414 . S
C3302 C3303 1.374 . S
C3303 H3283 0.950 . S
C3303 C3299 1.385 . S
C3303 C3302 1.374 . S
C3304 C3301 1.499 . S
C3304 C3305 1.373 . S
C3304 C3306 1.389 . S
C3305 H3284 0.950 . S
C3305 C3304 1.373 . S
C3305 C3321 1.377 . S
C3306 C3304 1.389 . S
C3306 C3307 1.524 . S
C3306 C3320 1.377 . S
C3307 C3306 1.524 . S
C3307 C3308 1.397 . S
C3307 C3312 1.363 . S
C3308 H3285 0.950 . S
C3308 C3307 1.397 . S
C3308 C3309 1.334 . S
C3309 H3286 0.950 . S
C3309 C3308 1.334 . S
C3309 C3310 1.287 . S
C3310 C3309 1.287 . S
C3310 C3311 1.524 . S
C3310 H3329 0.913 . S
C3311 H3287 0.950 . S
C3311 C3310 1.524 . S
C3311 C3312 1.415 . S
C3312 H3288 0.920 1_545 S
C3312 C3307 1.363 . S
C3312 C3311 1.415 . S
C3313 H3289 0.951 . S
C3313 C3314 1.366 . S
C3313 C3315 1.388 . S
C3314 C3313 1.366 . S
C3314 C3318 1.385 . S
C3315 H3290 0.951 . S
C3315 C3313 1.388 . S
C3315 C3316 1.366 . S
C3316 C3315 1.366 . S
C3316 C3317 1.414 . S
C3316 C3319 1.499 . S
C3317 H3291 0.950 . S
C3317 C3316 1.414 . S
C3317 C3318 1.374 . S
C3318 H3292 0.950 . S
C3318 C3314 1.385 . S
C3318 C3317 1.374 . S
C3319 C3316 1.499 . S
C3319 C3320 1.373 . S
C3319 C3321 1.389 . S
C3320 H3293 0.950 . S
C3320 C3306 1.377 . S
C3320 C3319 1.373 . S
C3321 C3305 1.377 . S
C3321 C3319 1.389 . S
C3321 C3322 1.524 . S
C3322 C3321 1.524 . S
C3322 C3323 1.397 . S
C3322 C3327 1.363 . S
C3323 H3294 0.950 1_545 S
C3323 C3322 1.397 . S
C3323 C3324 1.334 1_545 S
C3324 H3295 0.950 . S
C3324 C3323 1.334 1_565 S
C3324 C3325 1.287 1_565 S
C3325 C3324 1.287 1_545 S
C3325 C3326 1.524 . S
C3325 H3328 0.999 . S
C3326 H3296 0.950 . S
C3326 C3325 1.524 . S
C3326 C3327 1.415 . S
C3327 H3297 0.950 . S
C3327 C3322 1.363 . S
C3327 C3326 1.415 . S
H3328 C3325 0.999 . S
H3329 C3310 0.913 . S
H3330 C3348 0.951 . S
H3331 C3350 0.951 . S
H3332 C3352 0.950 . S
H3333 C3353 0.950 . S
H3334 C3355 0.950 . S
H3335 C3358 0.950 . S
H3336 C3359 0.950 . S
H3337 C3361 0.950 . S
H3338 C3362 0.950 . S
H3339 C3363 0.951 . S
H3340 C3365 0.951 . S
H3341 C3367 0.950 . S
H3342 C3368 0.950 . S
H3343 C3370 0.950 . S
H3344 C3373 0.950 . S
H3345 C3374 0.950 . S
H3346 C3376 0.950 . S
H3347 C3377 0.950 . S
C3348 H3330 0.951 . S
C3348 C3349 1.366 . S
C3348 C3350 1.388 . S
C3349 C3348 1.366 . S
C3349 C3353 1.385 . S
C3350 H3331 0.951 . S
C3350 C3348 1.388 . S
C3350 C3351 1.366 . S
C3351 C3350 1.366 . S
C3351 C3352 1.414 . S
C3351 C3354 1.499 . S
C3352 H3332 0.950 . S
C3352 C3351 1.414 . S
C3352 C3353 1.374 . S
C3353 H3333 0.950 . S
C3353 C3349 1.385 . S
C3353 C3352 1.374 . S
C3354 C3351 1.499 . S
C3354 C3355 1.373 . S
C3354 C3356 1.389 . S
C3355 H3334 0.950 . S
C3355 C3354 1.373 . S
C3355 C3371 1.377 . S
C3356 C3354 1.389 . S
C3356 C3357 1.524 . S
C3356 C3370 1.377 . S
C3357 C3356 1.524 . S
C3357 C3358 1.397 . S
C3357 C3362 1.363 . S
C3358 H3335 0.950 . S
C3358 C3357 1.397 . S
C3358 C3359 1.334 . S
C3359 H3336 0.950 . S
C3359 C3358 1.334 . S
C3359 C3360 1.287 . S
C3360 C3359 1.287 . S
C3360 C3361 1.524 . S
C3360 H3379 0.913 . S
C3361 H3337 0.950 . S
C3361 C3360 1.524 . S
C3361 C3362 1.415 . S
C3362 H3338 0.950 . S
C3362 C3357 1.363 . S
C3362 C3361 1.415 . S
C3363 H3339 0.951 . S
C3363 C3364 1.366 . S
C3363 C3365 1.388 . S
C3364 C3363 1.366 . S
C3364 C3368 1.385 . S
C3365 H3340 0.951 . S
C3365 C3363 1.388 . S
C3365 C3366 1.366 . S
C3366 C3365 1.366 . S
C3366 C3367 1.414 . S
C3366 C3369 1.499 . S
C3367 H3341 0.950 . S
C3367 C3366 1.414 . S
C3367 C3368 1.374 . S
C3368 H3342 0.950 . S
C3368 C3364 1.385 . S
C3368 C3367 1.374 . S
C3369 C3366 1.499 . S
C3369 C3370 1.373 . S
C3369 C3371 1.389 . S
C3370 H3343 0.950 . S
C3370 C3356 1.377 . S
C3370 C3369 1.373 . S
C3371 C3355 1.377 . S
C3371 C3369 1.389 . S
C3371 C3372 1.524 . S
C3372 C3371 1.524 . S
C3372 C3373 1.397 . S
C3372 C3377 1.363 . S
C3373 H3344 0.950 . S
C3373 C3372 1.397 . S
C3373 C3374 1.334 . S
C3374 H3345 0.950 . S
C3374 C3373 1.334 . S
C3374 C3375 1.287 . S
C3375 C3374 1.287 . S
C3375 C3376 1.524 . S
C3375 H3378 0.999 . S
C3376 H3346 0.950 . S
C3376 C3375 1.524 . S
C3376 C3377 1.415 . S
C3377 H3347 0.950 . S
C3377 C3372 1.363 . S
C3377 C3376 1.415 . S
H3378 C3375 0.999 . S
H3379 C3360 0.913 . S
H3380 C3398 0.951 . S
H3381 C3400 0.951 . S
H3382 C3402 0.950 . S
H3383 C3403 0.950 . S
H3384 C3405 0.950 . S
H3385 C3408 0.950 . S
H3386 C3409 0.950 . S
H3387 C3411 0.950 . S
H3388 C3412 0.950 . S
H3389 C3413 0.951 . S
H3390 C3415 0.951 . S
H3391 C3417 0.950 . S
H3392 C3418 0.950 . S
H3393 C3420 0.950 . S
H3394 C3423 0.950 . S
H3395 C3424 0.950 . S
H3396 C3426 0.950 1_565 S
H3397 C3427 0.950 . S
C3398 H3380 0.951 . S
C3398 C3399 1.366 . S
C3398 C3400 1.388 . S
C3399 C3398 1.366 . S
C3399 C3403 1.385 . S
C3400 H3381 0.951 . S
C3400 C3398 1.388 . S
C3400 C3401 1.366 . S
C3401 C3400 1.366 . S
C3401 C3402 1.414 . S
C3401 C3404 1.499 . S
C3402 H3382 0.950 . S
C3402 C3401 1.414 . S
C3402 C3403 1.374 . S
C3403 H3383 0.950 . S
C3403 C3399 1.385 . S
C3403 C3402 1.374 . S
C3404 C3401 1.499 . S
C3404 C3405 1.373 . S
C3404 C3406 1.389 . S
C3405 H3384 0.950 . S
C3405 C3404 1.373 . S
C3405 C3421 1.377 . S
C3406 C3404 1.389 . S
C3406 C3407 1.524 . S
C3406 C3420 1.377 . S
C3407 C3406 1.524 . S
C3407 C3408 1.397 . S
C3407 C3412 1.363 . S
C3408 H3385 0.950 . S
C3408 C3407 1.397 . S
C3408 C3409 1.334 . S
C3409 H3386 0.950 . S
C3409 C3408 1.334 . S
C3409 C3410 1.287 . S
C3410 C3409 1.287 . S
C3410 C3411 1.524 . S
C3410 H3429 0.913 . S
C3411 H3387 0.950 . S
C3411 C3410 1.524 . S
C3411 C3412 1.415 . S
C3412 H3388 0.950 . S
C3412 C3407 1.363 . S
C3412 C3411 1.415 . S
C3413 H3389 0.951 . S
C3413 C3414 1.366 . S
C3413 C3415 1.388 . S
C3414 C3413 1.366 . S
C3414 C3418 1.385 . S
C3415 H3390 0.951 . S
C3415 C3413 1.388 . S
C3415 C3416 1.366 . S
C3416 C3415 1.366 . S
C3416 C3417 1.414 . S
C3416 C3419 1.499 . S
C3417 H3391 0.950 . S
C3417 C3416 1.414 . S
C3417 C3418 1.374 . S
C3418 H3392 0.950 . S
C3418 C3414 1.385 . S
C3418 C3417 1.374 . S
C3419 C3416 1.499 . S
C3419 C3420 1.373 . S
C3419 C3421 1.389 . S
C3420 H3393 0.950 . S
C3420 C3406 1.377 . S
C3420 C3419 1.373 . S
C3421 C3405 1.377 . S
C3421 C3419 1.389 . S
C3421 C3422 1.524 . S
C3422 C3421 1.524 . S
C3422 C3423 1.397 . S
C3422 C3427 1.363 . S
C3423 H3394 0.950 . S
C3423 C3422 1.397 . S
C3423 C3424 1.334 . S
C3424 H3395 0.950 . S
C3424 C3423 1.334 . S
C3424 C3425 1.287 . S
C3425 C3424 1.287 . S
C3425 C3426 1.524 . S
C3425 H3428 0.999 . S
C3426 H3396 0.950 1_545 S
C3426 C3425 1.524 . S
C3426 C3427 1.415 . S
C3427 H3397 0.950 . S
C3427 C3422 1.363 . S
C3427 C3426 1.415 . S
H3428 C3425 0.999 . S
H3429 C3410 0.913 . S
H3430 C3448 0.951 . S
H3431 C3450 0.951 . S
H3432 C3452 0.950 . S
H3433 C3453 0.950 . S
H3434 C3455 0.950 . S
H3435 C3458 0.950 . S
H3436 C3459 0.950 . S
H3437 C3461 0.950 . S
H3438 C3462 0.950 . S
H3439 C3463 0.951 . S
H3440 C3465 0.951 . S
H3441 C3467 0.950 . S
H3442 C3468 0.950 . S
H3443 C3470 0.950 . S
H3444 C3473 0.950 . S
H3445 C3474 0.950 . S
H3446 C3476 0.950 . S
H3447 C3477 0.950 . S
C3448 H3430 0.951 . S
C3448 C3449 1.366 . S
C3448 C3450 1.388 . S
C3449 C3448 1.366 . S
C3449 C3453 1.385 . S
C3450 H3431 0.951 . S
C3450 C3448 1.388 . S
C3450 C3451 1.366 . S
C3451 C3450 1.366 . S
C3451 C3452 1.414 . S
C3451 C3454 1.499 . S
C3452 H3432 0.950 . S
C3452 C3451 1.414 . S
C3452 C3453 1.374 . S
C3453 H3433 0.950 . S
C3453 C3449 1.385 . S
C3453 C3452 1.374 . S
C3454 C3451 1.499 . S
C3454 C3455 1.373 . S
C3454 C3456 1.389 . S
C3455 H3434 0.950 . S
C3455 C3454 1.373 . S
C3455 C3471 1.377 . S
C3456 C3454 1.389 . S
C3456 C3457 1.524 . S
C3456 C3470 1.377 . S
C3457 C3456 1.524 . S
C3457 C3458 1.397 . S
C3457 C3462 1.363 . S
C3458 H3435 0.950 . S
C3458 C3457 1.397 . S
C3458 C3459 1.334 . S
C3459 H3436 0.950 . S
C3459 C3458 1.334 . S
C3459 C3460 1.287 . S
C3460 C3459 1.287 . S
C3460 C3461 1.524 . S
C3460 H3479 0.913 . S
C3461 H3437 0.950 . S
C3461 C3460 1.524 . S
C3461 C3462 1.415 . S
C3462 H3438 0.950 . S
C3462 C3457 1.363 . S
C3462 C3461 1.415 . S
C3463 H3439 0.951 . S
C3463 C3464 1.366 . S
C3463 C3465 1.388 . S
C3464 C3463 1.366 . S
C3464 C3468 1.385 . S
C3465 H3440 0.951 . S
C3465 C3463 1.388 . S
C3465 C3466 1.366 . S
C3466 C3465 1.366 . S
C3466 C3467 1.414 . S
C3466 C3469 1.499 . S
C3467 H3441 0.950 . S
C3467 C3466 1.414 . S
C3467 C3468 1.374 . S
C3468 H3442 0.950 . S
C3468 C3464 1.385 . S
C3468 C3467 1.374 . S
C3469 C3466 1.499 . S
C3469 C3470 1.373 . S
C3469 C3471 1.389 . S
C3470 H3443 0.950 . S
C3470 C3456 1.377 . S
C3470 C3469 1.373 . S
C3471 C3455 1.377 . S
C3471 C3469 1.389 . S
C3471 C3472 1.524 . S
C3472 C3471 1.524 . S
C3472 C3473 1.397 . S
C3472 C3477 1.363 . S
C3473 H3444 0.950 . S
C3473 C3472 1.397 . S
C3473 C3474 1.334 . S
C3474 H3445 0.950 . S
C3474 C3473 1.334 . S
C3474 C3475 1.287 . S
C3475 C3474 1.287 . S
C3475 C3476 1.524 . S
C3475 H3478 0.999 . S
C3476 H3446 0.950 . S
C3476 C3475 1.524 . S
C3476 C3477 1.415 . S
C3477 H3447 0.950 . S
C3477 C3472 1.363 . S
C3477 C3476 1.415 . S
H3478 C3475 0.999 . S
H3479 C3460 0.913 . S
H3480 C3498 0.951 . S
H3481 C3500 0.951 . S
H3482 C3502 0.950 . S
H3483 C3503 0.950 . S
H3484 C3505 0.950 . S
H3485 C3508 0.950 . S
H3486 C3509 0.950 . S
H3487 C3511 0.950 1_565 S
H3488 C3512 0.950 1_565 S
H3489 C3513 0.951 . S
H3490 C3515 0.951 . S
H3491 C3517 0.950 . S
H3492 C3518 0.950 . S
H3493 C3520 0.950 . S
H3494 C3523 0.950 1_565 S
H3495 C3524 0.950 1_565 S
H3496 C3526 0.950 . S
H3497 C3527 0.950 . S
C3498 H3480 0.951 . S
C3498 C3499 1.366 1_565 S
C3498 C3500 1.388 . S
C3499 C3498 1.366 1_545 S
C3499 C3503 1.385 . S
C3500 H3481 0.951 . S
C3500 C3498 1.388 . S
C3500 C3501 1.366 1_565 S
C3501 C3500 1.366 1_545 S
C3501 C3502 1.414 . S
C3501 C3504 1.499 . S
C3502 H3482 0.950 . S
C3502 C3501 1.414 . S
C3502 C3503 1.374 . S
C3503 H3483 0.950 . S
C3503 C3499 1.385 . S
C3503 C3502 1.374 . S
C3504 C3501 1.499 . S
C3504 C3505 1.373 . S
C3504 C3506 1.389 . S
C3505 H3484 0.950 . S
C3505 C3504 1.373 . S
C3505 C3521 1.377 . S
C3506 C3504 1.389 . S
C3506 C3507 1.524 . S
C3506 C3520 1.377 . S
C3507 C3506 1.524 . S
C3507 C3508 1.397 . S
C3507 C3512 1.363 . S
C3508 H3485 0.950 . S
C3508 C3507 1.397 . S
C3508 C3509 1.334 . S
C3509 H3486 0.950 . S
C3509 C3508 1.334 . S
C3509 C3510 1.287 . S
C3510 C3509 1.287 . S
C3510 C3511 1.524 . S
C3510 H3529 0.913 . S
C3511 H3487 0.950 1_545 S
C3511 C3510 1.524 . S
C3511 C3512 1.415 . S
C3512 H3488 0.950 1_545 S
C3512 C3507 1.363 . S
C3512 C3511 1.415 . S
C3513 H3489 0.951 . S
C3513 C3514 1.366 . S
C3513 C3515 1.388 . S
C3514 C3513 1.366 . S
C3514 C3518 1.385 . S
C3515 H3490 0.951 . S
C3515 C3513 1.388 . S
C3515 C3516 1.366 . S
C3516 C3515 1.366 . S
C3516 C3517 1.414 . S
C3516 C3519 1.499 . S
C3517 H3491 0.950 . S
C3517 C3516 1.414 . S
C3517 C3518 1.374 . S
C3518 H3492 0.950 . S
C3518 C3514 1.385 . S
C3518 C3517 1.374 . S
C3519 C3516 1.499 . S
C3519 C3520 1.373 . S
C3519 C3521 1.389 . S
C3520 H3493 0.950 . S
C3520 C3506 1.377 . S
C3520 C3519 1.373 . S
C3521 C3505 1.377 . S
C3521 C3519 1.389 . S
C3521 C3522 1.524 . S
C3522 C3521 1.524 . S
C3522 C3523 1.397 . S
C3522 C3527 1.363 . S
C3523 H3494 0.950 1_545 S
C3523 C3522 1.397 . S
C3523 C3524 1.334 . S
C3524 H3495 0.950 1_545 S
C3524 C3523 1.334 . S
C3524 C3525 1.287 . S
C3525 C3524 1.287 . S
C3525 C3526 1.524 . S
C3525 H3528 0.999 . S
C3526 H3496 0.950 . S
C3526 C3525 1.524 . S
C3526 C3527 1.415 . S
C3527 H3497 0.950 . S
C3527 C3522 1.363 . S
C3527 C3526 1.415 . S
H3528 C3525 0.999 . S
H3529 C3510 0.913 . S
H3530 C3548 0.951 . S
H3531 C3550 0.951 . S
H3532 C3552 0.950 . S
H3533 C3553 0.950 . S
H3534 C3555 0.950 . S
H3535 C3558 0.950 . S
H3536 C3559 0.950 . S
H3537 C3561 0.950 . S
H3538 C3562 0.950 . S
H3539 C3563 0.951 . S
H3540 C3565 0.951 . S
H3541 C3567 0.950 . S
H3542 C3568 0.950 . S
H3543 C3570 0.950 . S
H3544 C3573 0.950 . S
H3545 C3574 0.950 . S
H3546 C3576 0.950 . S
H3547 C3577 0.950 . S
C3548 H3530 0.951 . S
C3548 C3549 1.366 . S
C3548 C3550 1.388 . S
C3549 C3548 1.366 . S
C3549 C3553 1.385 . S
C3550 H3531 0.951 . S
C3550 C3548 1.388 . S
C3550 C3551 1.366 . S
C3551 C3550 1.366 . S
C3551 C3552 1.414 . S
C3551 C3554 1.499 . S
C3552 H3532 0.950 . S
C3552 C3551 1.414 . S
C3552 C3553 1.374 . S
C3553 H3533 0.950 . S
C3553 C3549 1.385 . S
C3553 C3552 1.374 . S
C3554 C3551 1.499 . S
C3554 C3555 1.373 . S
C3554 C3556 1.389 . S
C3555 H3534 0.950 . S
C3555 C3554 1.373 . S
C3555 C3571 1.377 . S
C3556 C3554 1.389 . S
C3556 C3557 1.524 . S
C3556 C3570 1.377 . S
C3557 C3556 1.524 . S
C3557 C3558 1.397 . S
C3557 C3562 1.363 . S
C3558 H3535 0.950 . S
C3558 C3557 1.397 . S
C3558 C3559 1.334 . S
C3559 H3536 0.950 . S
C3559 C3558 1.334 . S
C3559 C3560 1.287 . S
C3560 C3559 1.287 . S
C3560 C3561 1.524 . S
C3560 H3579 0.913 . S
C3561 H3537 0.950 . S
C3561 C3560 1.524 . S
C3561 C3562 1.415 . S
C3562 H3538 0.950 . S
C3562 C3557 1.363 . S
C3562 C3561 1.415 . S
C3563 H3539 0.951 . S
C3563 C3564 1.366 . S
C3563 C3565 1.388 . S
C3564 C3563 1.366 . S
C3564 C3568 1.385 . S
C3565 H3540 0.951 . S
C3565 C3563 1.388 . S
C3565 C3566 1.366 . S
C3566 C3565 1.366 . S
C3566 C3567 1.414 . S
C3566 C3569 1.499 . S
C3567 H3541 0.950 . S
C3567 C3566 1.414 . S
C3567 C3568 1.374 . S
C3568 H3542 0.950 . S
C3568 C3564 1.385 . S
C3568 C3567 1.374 . S
C3569 C3566 1.499 . S
C3569 C3570 1.373 . S
C3569 C3571 1.389 . S
C3570 H3543 0.950 . S
C3570 C3556 1.377 . S
C3570 C3569 1.373 . S
C3571 C3555 1.377 . S
C3571 C3569 1.389 . S
C3571 C3572 1.524 . S
C3572 C3571 1.524 . S
C3572 C3573 1.397 . S
C3572 C3577 1.363 . S
C3573 H3544 0.950 . S
C3573 C3572 1.397 . S
C3573 C3574 1.334 . S
C3574 H3545 0.950 . S
C3574 C3573 1.334 . S
C3574 C3575 1.287 . S
C3575 C3574 1.287 . S
C3575 C3576 1.524 . S
C3575 H3578 0.999 . S
C3576 H3546 0.950 . S
C3576 C3575 1.524 . S
C3576 C3577 1.415 . S
C3577 H3547 0.950 . S
C3577 C3572 1.363 . S
C3577 C3576 1.415 . S
H3578 C3575 0.999 . S
H3579 C3560 0.913 . S
H3580 C3598 0.951 . S
H3581 C3600 0.951 . S
H3582 C3602 0.950 . S
H3583 C3603 0.950 . S
H3584 C3605 0.950 . S
H3585 C3608 0.950 1_565 S
H3586 C3609 0.950 . S
H3587 C3611 0.950 . S
H3588 C3612 0.950 . S
H3589 C3613 0.951 . S
H3590 C3615 0.951 . S
H3591 C3617 0.950 . S
H3592 C3618 0.950 . S
H3593 C3620 0.950 . S
H3594 C3623 0.950 . S
H3595 C3624 0.950 . S
H3596 C3626 0.950 . S
H3597 C3627 0.950 . S
C3598 H3580 0.951 . S
C3598 C3599 1.366 . S
C3598 C3600 1.388 . S
C3599 C3598 1.366 . S
C3599 C3603 1.385 . S
C3600 H3581 0.951 . S
C3600 C3598 1.388 . S
C3600 C3601 1.366 . S
C3601 C3600 1.366 . S
C3601 C3602 1.414 . S
C3601 C3604 1.499 . S
C3602 H3582 0.950 . S
C3602 C3601 1.414 . S
C3602 C3603 1.374 . S
C3603 H3583 0.950 . S
C3603 C3599 1.385 . S
C3603 C3602 1.374 . S
C3604 C3601 1.499 . S
C3604 C3605 1.373 . S
C3604 C3606 1.389 . S
C3605 H3584 0.950 . S
C3605 C3604 1.373 . S
C3605 C3621 1.377 . S
C3606 C3604 1.389 . S
C3606 C3607 1.524 . S
C3606 C3620 1.377 . S
C3607 C3606 1.524 . S
C3607 C3608 1.397 . S
C3607 C3612 1.363 . S
C3608 H3585 0.950 1_545 S
C3608 C3607 1.397 . S
C3608 C3609 1.334 1_545 S
C3609 H3586 0.950 . S
C3609 C3608 1.334 1_565 S
C3609 C3610 1.287 1_565 S
C3610 C3609 1.287 1_545 S
C3610 C3611 1.524 . S
C3610 H3629 0.913 1_545 S
C3611 H3587 0.950 . S
C3611 C3610 1.524 . S
C3611 C3612 1.415 . S
C3612 H3588 0.950 . S
C3612 C3607 1.363 . S
C3612 C3611 1.415 . S
C3613 H3589 0.951 . S
C3613 C3614 1.366 . S
C3613 C3615 1.388 . S
C3614 C3613 1.366 . S
C3614 C3618 1.385 . S
C3615 H3590 0.951 . S
C3615 C3613 1.388 . S
C3615 C3616 1.366 . S
C3616 C3615 1.366 . S
C3616 C3617 1.414 . S
C3616 C3619 1.499 . S
C3617 H3591 0.950 . S
C3617 C3616 1.414 . S
C3617 C3618 1.374 . S
C3618 H3592 0.950 . S
C3618 C3614 1.385 . S
C3618 C3617 1.374 . S
C3619 C3616 1.499 . S
C3619 C3620 1.373 . S
C3619 C3621 1.389 . S
C3620 H3593 0.950 . S
C3620 C3606 1.377 . S
C3620 C3619 1.373 . S
C3621 C3605 1.377 . S
C3621 C3619 1.389 . S
C3621 C3622 1.524 . S
C3622 C3621 1.524 . S
C3622 C3623 1.397 . S
C3622 C3627 1.363 . S
C3623 H3594 0.950 . S
C3623 C3622 1.397 . S
C3623 C3624 1.334 . S
C3624 H3595 0.950 . S
C3624 C3623 1.334 . S
C3624 C3625 1.287 . S
C3625 C3624 1.287 . S
C3625 C3626 1.524 . S
C3625 H3628 0.999 . S
C3626 H3596 0.950 . S
C3626 C3625 1.524 . S
C3626 C3627 1.415 . S
C3627 H3597 0.950 . S
C3627 C3622 1.363 . S
C3627 C3626 1.415 . S
H3628 C3625 0.999 . S
H3629 C3610 0.913 1_565 S
H3630 C3648 0.951 . S
H3631 C3650 0.951 . S
H3632 C3652 0.950 . S
H3633 C3653 0.950 . S
H3634 C3655 0.950 . S
H3635 C3658 0.950 . S
H3636 C3659 0.950 . S
H3637 C3661 0.950 . S
H3638 C3662 0.950 . S
H3639 C3663 0.951 . S
H3640 C3665 0.951 . S
H3641 C3667 0.950 . S
H3642 C3668 0.950 . S
H3643 C3670 0.950 . S
H3644 C3673 0.950 . S
H3645 C3674 0.950 . S
H3646 C3676 0.950 . S
H3647 C3677 0.950 . S
C3648 H3630 0.951 . S
C3648 C3649 1.366 . S
C3648 C3650 1.388 . S
C3649 C3648 1.366 . S
C3649 C3653 1.385 . S
C3650 H3631 0.951 . S
C3650 C3648 1.388 . S
C3650 C3651 1.366 . S
C3651 C3650 1.366 . S
C3651 C3652 1.414 . S
C3651 C3654 1.499 . S
C3652 H3632 0.950 . S
C3652 C3651 1.414 . S
C3652 C3653 1.374 . S
C3653 H3633 0.950 . S
C3653 C3649 1.385 . S
C3653 C3652 1.374 . S
C3654 C3651 1.499 . S
C3654 C3655 1.373 . S
C3654 C3656 1.389 . S
C3655 H3634 0.950 . S
C3655 C3654 1.373 . S
C3655 C3671 1.377 . S
C3656 C3654 1.389 . S
C3656 C3657 1.524 . S
C3656 C3670 1.377 . S
C3657 C3656 1.524 . S
C3657 C3658 1.397 . S
C3657 C3662 1.363 . S
C3658 H3635 0.950 . S
C3658 C3657 1.397 . S
C3658 C3659 1.334 . S
C3659 H3636 0.950 . S
C3659 C3658 1.334 . S
C3659 C3660 1.287 . S
C3660 C3659 1.287 . S
C3660 C3661 1.524 . S
C3660 H3679 0.913 . S
C3661 H3637 0.950 . S
C3661 C3660 1.524 . S
C3661 C3662 1.415 . S
C3662 H3638 0.950 . S
C3662 C3657 1.363 . S
C3662 C3661 1.415 . S
C3663 H3639 0.951 . S
C3663 C3664 1.366 . S
C3663 C3665 1.388 . S
C3664 C3663 1.366 . S
C3664 C3668 1.385 . S
C3665 H3640 0.951 . S
C3665 C3663 1.388 . S
C3665 C3666 1.366 . S
C3666 C3665 1.366 . S
C3666 C3667 1.414 . S
C3666 C3669 1.499 . S
C3667 H3641 0.950 . S
C3667 C3666 1.414 . S
C3667 C3668 1.374 . S
C3668 H3642 0.950 . S
C3668 C3664 1.385 . S
C3668 C3667 1.374 . S
C3669 C3666 1.499 . S
C3669 C3670 1.373 . S
C3669 C3671 1.389 . S
C3670 H3643 0.950 . S
C3670 C3656 1.377 . S
C3670 C3669 1.373 . S
C3671 C3655 1.377 . S
C3671 C3669 1.389 . S
C3671 C3672 1.524 . S
C3672 C3671 1.524 . S
C3672 C3673 1.397 . S
C3672 C3677 1.363 . S
C3673 H3644 0.950 . S
C3673 C3672 1.397 . S
C3673 C3674 1.334 . S
C3674 H3645 0.950 . S
C3674 C3673 1.334 . S
C3674 C3675 1.287 . S
C3675 C3674 1.287 . S
C3675 C3676 1.524 . S
C3675 H3678 0.999 . S
C3676 H3646 0.950 . S
C3676 C3675 1.524 . S
C3676 C3677 1.415 . S
C3677 H3647 0.950 . S
C3677 C3672 1.363 . S
C3677 C3676 1.415 . S
H3678 C3675 0.999 . S
H3679 C3660 0.913 . S
H3680 C3698 0.951 . S
H3681 C3700 0.951 . S
H3682 C3702 0.950 . S
H3683 C3703 0.950 . S
H3684 C3705 0.950 . S
H3685 C3708 0.950 . S
H3686 C3709 0.950 . S
H3687 C3711 0.950 . S
H3688 C3712 0.950 . S
H3689 C3713 0.951 . S
H3690 C3715 0.951 . S
H3691 C3717 0.936 1_556 S
H3692 C3718 0.950 1_556 S
H3693 C3720 0.950 1_556 S
H3694 C3723 0.950 . S
H3695 C3724 0.950 . S
H3696 C3726 0.950 . S
H3697 C3727 0.950 . S
C3698 H3680 0.951 . S
C3698 C3699 1.366 . S
C3698 C3700 1.388 . S
C3699 C3698 1.366 . S
C3699 C3703 1.385 . S
C3700 H3681 0.951 . S
C3700 C3698 1.388 . S
C3700 C3701 1.366 . S
C3701 C3700 1.366 . S
C3701 C3702 1.414 . S
C3701 C3704 1.499 . S
C3702 H3682 0.950 . S
C3702 C3701 1.414 . S
C3702 C3703 1.374 . S
C3703 H3683 0.950 . S
C3703 C3699 1.385 . S
C3703 C3702 1.374 . S
C3704 C3701 1.499 . S
C3704 C3705 1.373 . S
C3704 C3706 1.389 . S
C3705 H3684 0.950 . S
C3705 C3704 1.373 . S
C3705 C3721 1.377 . S
C3706 C3704 1.389 . S
C3706 C3707 1.524 1_554 S
C3706 C3720 1.377 . S
C3707 C3706 1.524 1_556 S
C3707 C3708 1.397 . S
C3707 C3712 1.363 . S
C3708 H3685 0.950 . S
C3708 C3707 1.397 . S
C3708 C3709 1.334 . S
C3709 H3686 0.950 . S
C3709 C3708 1.334 . S
C3709 C3710 1.287 . S
C3710 C3709 1.287 . S
C3710 C3711 1.524 . S
C3710 H3729 0.913 . S
C3711 H3687 0.950 . S
C3711 C3710 1.524 . S
C3711 C3712 1.415 . S
C3712 H3688 0.950 . S
C3712 C3707 1.363 . S
C3712 C3711 1.415 . S
C3713 H3689 0.951 . S
C3713 C3714 1.366 . S
C3713 C3715 1.388 . S
C3714 C3713 1.366 . S
C3714 C3718 1.385 . S
C3715 H3690 0.951 . S
C3715 C3713 1.388 . S
C3715 C3716 1.366 . S
C3716 C3715 1.366 . S
C3716 C3717 1.414 . S
C3716 C3719 1.499 . S
C3717 H3691 0.936 1_554 S
C3717 C3716 1.414 . S
C3717 C3718 1.374 . S
C3718 H3692 0.950 1_554 S
C3718 C3714 1.385 . S
C3718 C3717 1.374 . S
C3719 C3716 1.499 . S
C3719 C3720 1.373 . S
C3719 C3721 1.389 . S
C3720 H3693 0.950 1_554 S
C3720 C3706 1.377 . S
C3720 C3719 1.373 . S
C3721 C3705 1.377 . S
C3721 C3719 1.389 . S
C3721 C3722 1.524 . S
C3722 C3721 1.524 . S
C3722 C3723 1.397 . S
C3722 C3727 1.363 . S
C3723 H3694 0.950 . S
C3723 C3722 1.397 . S
C3723 C3724 1.334 . S
C3724 H3695 0.950 . S
C3724 C3723 1.334 . S
C3724 C3725 1.287 . S
C3725 C3724 1.287 . S
C3725 C3726 1.524 . S
C3725 H3728 0.999 . S
C3726 H3696 0.950 . S
C3726 C3725 1.524 . S
C3726 C3727 1.415 . S
C3727 H3697 0.950 . S
C3727 C3722 1.363 . S
C3727 C3726 1.415 . S
H3728 C3725 0.999 . S
H3729 C3710 0.913 . S
H3730 C3748 0.951 . S
H3731 C3750 0.951 . S
H3732 C3752 0.950 . S
H3733 C3753 0.950 . S
H3734 C3755 0.950 . S
H3735 C3758 0.950 . S
H3736 C3759 0.950 . S
H3737 C3761 0.950 . S
H3738 C3762 0.950 . S
H3739 C3763 0.951 . S
H3740 C3765 0.951 . S
H3741 C3767 0.950 . S
H3742 C3768 0.950 . S
H3743 C3770 0.950 . S
H3744 C3773 0.950 . S
H3745 C3774 0.950 . S
H3746 C3776 0.950 . S
H3747 C3777 0.950 . S
C3748 H3730 0.951 . S
C3748 C3749 1.366 . S
C3748 C3750 1.388 . S
C3749 C3748 1.366 . S
C3749 C3753 1.385 . S
C3750 H3731 0.951 . S
C3750 C3748 1.388 . S
C3750 C3751 1.366 . S
C3751 C3750 1.366 . S
C3751 C3752 1.414 . S
C3751 C3754 1.499 . S
C3752 H3732 0.950 . S
C3752 C3751 1.414 . S
C3752 C3753 1.374 . S
C3753 H3733 0.950 . S
C3753 C3749 1.385 . S
C3753 C3752 1.374 . S
C3754 C3751 1.499 . S
C3754 C3755 1.373 . S
C3754 C3756 1.389 . S
C3755 H3734 0.950 . S
C3755 C3754 1.373 . S
C3755 C3771 1.377 . S
C3756 C3754 1.389 . S
C3756 C3757 1.524 . S
C3756 C3770 1.377 . S
C3757 C3756 1.524 . S
C3757 C3758 1.397 . S
C3757 C3762 1.363 . S
C3758 H3735 0.950 . S
C3758 C3757 1.397 . S
C3758 C3759 1.334 . S
C3759 H3736 0.950 . S
C3759 C3758 1.334 . S
C3759 C3760 1.287 . S
C3760 C3759 1.287 . S
C3760 C3761 1.524 . S
C3760 H3779 0.913 . S
C3761 H3737 0.950 . S
C3761 C3760 1.524 . S
C3761 C3762 1.415 . S
C3762 H3738 0.950 . S
C3762 C3757 1.363 . S
C3762 C3761 1.415 . S
C3763 H3739 0.951 . S
C3763 C3764 1.366 . S
C3763 C3765 1.388 . S
C3764 C3763 1.366 . S
C3764 C3768 1.385 . S
C3765 H3740 0.951 . S
C3765 C3763 1.388 . S
C3765 C3766 1.366 . S
C3766 C3765 1.366 . S
C3766 C3767 1.414 . S
C3766 C3769 1.499 . S
C3767 H3741 0.950 . S
C3767 C3766 1.414 . S
C3767 C3768 1.374 . S
C3768 H3742 0.950 . S
C3768 C3764 1.385 . S
C3768 C3767 1.374 . S
C3769 C3766 1.499 . S
C3769 C3770 1.373 . S
C3769 C3771 1.389 . S
C3770 H3743 0.950 . S
C3770 C3756 1.377 . S
C3770 C3769 1.373 . S
C3771 C3755 1.377 . S
C3771 C3769 1.389 . S
C3771 C3772 1.524 . S
C3772 C3771 1.524 . S
C3772 C3773 1.397 1_554 S
C3772 C3777 1.363 . S
C3773 H3744 0.950 . S
C3773 C3772 1.397 1_556 S
C3773 C3774 1.334 . S
C3774 H3745 0.950 . S
C3774 C3773 1.334 . S
C3774 C3775 1.287 . S
C3775 C3774 1.287 . S
C3775 C3776 1.524 . S
C3775 H3778 0.999 . S
C3776 H3746 0.950 . S
C3776 C3775 1.524 . S
C3776 C3777 1.415 1_556 S
C3777 H3747 0.950 . S
C3777 C3772 1.363 . S
C3777 C3776 1.415 1_554 S
H3778 C3775 0.999 . S
H3779 C3760 0.913 . S
H3780 C3798 0.951 . S
H3781 C3800 0.951 . S
H3782 C3802 0.950 . S
H3783 C3803 0.950 . S
H3784 C3805 0.950 . S
H3785 C3808 0.950 . S
H3786 C3809 0.950 . S
H3787 C3811 0.950 . S
H3788 C3812 0.950 . S
H3789 C3813 0.951 . S
H3790 C3815 0.951 . S
H3791 C3817 0.950 . S
H3792 C3818 0.950 . S
H3793 C3820 0.950 . S
H3794 C3823 0.950 . S
H3795 C3824 0.950 . S
H3796 C3826 0.950 . S
H3797 C3827 0.950 . S
C3798 H3780 0.951 . S
C3798 C3799 1.366 . S
C3798 C3800 1.388 . S
C3799 C3798 1.366 . S
C3799 C3803 1.385 . S
C3800 H3781 0.951 . S
C3800 C3798 1.388 . S
C3800 C3801 1.366 . S
C3801 C3800 1.366 . S
C3801 C3802 1.414 . S
C3801 C3804 1.499 . S
C3802 H3782 0.950 . S
C3802 C3801 1.414 . S
C3802 C3803 1.374 . S
C3803 H3783 0.950 . S
C3803 C3799 1.385 . S
C3803 C3802 1.374 . S
C3804 C3801 1.499 . S
C3804 C3805 1.373 . S
C3804 C3806 1.389 . S
C3805 H3784 0.950 . S
C3805 C3804 1.373 . S
C3805 C3821 1.377 . S
C3806 C3804 1.389 . S
C3806 C3807 1.524 . S
C3806 C3820 1.377 . S
C3807 C3806 1.524 . S
C3807 C3808 1.397 . S
C3807 C3812 1.363 . S
C3808 H3785 0.950 . S
C3808 C3807 1.397 . S
C3808 C3809 1.334 . S
C3809 H3786 0.950 . S
C3809 C3808 1.334 . S
C3809 C3810 1.287 . S
C3810 C3809 1.287 . S
C3810 C3811 1.524 . S
C3810 H3829 0.913 . S
C3811 H3787 0.950 . S
C3811 C3810 1.524 . S
C3811 C3812 1.415 . S
C3812 H3788 0.950 . S
C3812 C3807 1.363 . S
C3812 C3811 1.415 . S
C3813 H3789 0.951 . S
C3813 C3814 1.366 . S
C3813 C3815 1.388 . S
C3814 C3813 1.366 . S
C3814 C3818 1.385 . S
C3815 H3790 0.951 . S
C3815 C3813 1.388 . S
C3815 C3816 1.366 . S
C3816 C3815 1.366 . S
C3816 C3817 1.414 . S
C3816 C3819 1.499 . S
C3817 H3791 0.950 . S
C3817 C3816 1.414 . S
C3817 C3818 1.374 . S
C3818 H3792 0.950 . S
C3818 C3814 1.385 . S
C3818 C3817 1.374 . S
C3819 C3816 1.499 . S
C3819 C3820 1.373 . S
C3819 C3821 1.389 . S
C3820 H3793 0.950 . S
C3820 C3806 1.377 . S
C3820 C3819 1.373 . S
C3821 C3805 1.377 . S
C3821 C3819 1.389 . S
C3821 C3822 1.524 . S
C3822 C3821 1.524 . S
C3822 C3823 1.397 . S
C3822 C3827 1.363 . S
C3823 H3794 0.950 . S
C3823 C3822 1.397 . S
C3823 C3824 1.334 . S
C3824 H3795 0.950 . S
C3824 C3823 1.334 . S
C3824 C3825 1.287 . S
C3825 C3824 1.287 . S
C3825 C3826 1.524 . S
C3825 H3828 0.999 . S
C3826 H3796 0.950 . S
C3826 C3825 1.524 . S
C3826 C3827 1.415 . S
C3827 H3797 0.950 . S
C3827 C3822 1.363 . S
C3827 C3826 1.415 . S
H3828 C3825 0.999 . S
H3829 C3810 0.913 . S
H3830 C3848 0.951 . S
H3831 C3850 0.951 . S
H3832 C3852 0.950 . S
H3833 C3853 0.950 . S
H3834 C3855 0.950 . S
H3835 C3858 0.950 . S
H3836 C3859 0.950 . S
H3837 C3861 0.950 . S
H3838 C3862 0.950 . S
H3839 C3863 0.951 . S
H3840 C3865 0.951 . S
H3841 C3867 0.950 . S
H3842 C3868 0.950 . S
H3843 C3870 0.950 . S
H3844 C3873 0.950 . S
H3845 C3874 0.950 . S
H3846 C3876 0.950 . S
H3847 C3877 0.950 . S
C3848 H3830 0.951 . S
C3848 C3849 1.366 . S
C3848 C3850 1.388 . S
C3849 C3848 1.366 . S
C3849 C3853 1.385 . S
C3850 H3831 0.951 . S
C3850 C3848 1.388 . S
C3850 C3851 1.366 . S
C3851 C3850 1.366 . S
C3851 C3852 1.414 . S
C3851 C3854 1.499 . S
C3852 H3832 0.950 . S
C3852 C3851 1.414 . S
C3852 C3853 1.374 . S
C3853 H3833 0.950 . S
C3853 C3849 1.385 . S
C3853 C3852 1.374 . S
C3854 C3851 1.499 . S
C3854 C3855 1.373 . S
C3854 C3856 1.389 . S
C3855 H3834 0.950 . S
C3855 C3854 1.373 . S
C3855 C3871 1.377 . S
C3856 C3854 1.389 . S
C3856 C3857 1.524 . S
C3856 C3870 1.377 . S
C3857 C3856 1.524 . S
C3857 C3858 1.397 . S
C3857 C3862 1.363 . S
C3858 H3835 0.950 . S
C3858 C3857 1.397 . S
C3858 C3859 1.334 . S
C3859 H3836 0.950 . S
C3859 C3858 1.334 . S
C3859 C3860 1.287 . S
C3860 C3859 1.287 . S
C3860 C3861 1.524 . S
C3860 H3879 0.913 . S
C3861 H3837 0.950 . S
C3861 C3860 1.524 . S
C3861 C3862 1.415 . S
C3862 H3838 0.950 . S
C3862 C3857 1.363 . S
C3862 C3861 1.415 . S
C3863 H3839 0.951 . S
C3863 C3864 1.366 . S
C3863 C3865 1.388 . S
C3864 C3863 1.366 . S
C3864 C3868 1.385 . S
C3865 H3840 0.951 . S
C3865 C3863 1.388 . S
C3865 C3866 1.366 . S
C3866 C3865 1.366 . S
C3866 C3867 1.414 . S
C3866 C3869 1.499 . S
C3867 H3841 0.950 . S
C3867 C3866 1.414 . S
C3867 C3868 1.374 . S
C3868 H3842 0.950 . S
C3868 C3864 1.385 . S
C3868 C3867 1.374 . S
C3869 C3866 1.499 . S
C3869 C3870 1.373 . S
C3869 C3871 1.389 . S
C3870 H3843 0.950 . S
C3870 C3856 1.377 . S
C3870 C3869 1.373 . S
C3871 C3855 1.377 . S
C3871 C3869 1.389 . S
C3871 C3872 1.524 . S
C3872 C3871 1.524 . S
C3872 C3873 1.397 . S
C3872 C3877 1.363 . S
C3873 H3844 0.950 . S
C3873 C3872 1.397 . S
C3873 C3874 1.334 . S
C3874 H3845 0.950 . S
C3874 C3873 1.334 . S
C3874 C3875 1.287 . S
C3875 C3874 1.287 . S
C3875 C3876 1.524 . S
C3875 H3878 0.999 . S
C3876 H3846 0.950 . S
C3876 C3875 1.524 . S
C3876 C3877 1.415 . S
C3877 H3847 0.950 . S
C3877 C3872 1.363 . S
C3877 C3876 1.415 . S
H3878 C3875 0.999 . S
H3879 C3860 0.913 . S
H3880 C3898 0.951 . S
H3881 C3900 0.951 . S
H3882 C3902 0.950 . S
H3883 C3903 0.915 1_545 S
H3884 C3905 0.950 . S
H3885 C3908 0.950 . S
H3886 C3909 0.950 . S
H3887 C3911 0.950 . S
H3888 C3912 0.950 . S
H3889 C3913 0.951 . S
H3890 C3915 0.951 . S
H3891 C3917 0.950 . S
H3892 C3918 0.950 . S
H3893 C3920 0.950 . S
H3894 C3923 0.950 . S
H3895 C3924 0.950 . S
H3896 C3926 0.950 . S
H3897 C3927 0.950 . S
C3898 H3880 0.951 . S
C3898 C3899 1.350 1_565 S
C3898 C3900 1.388 . S
C3899 C3898 1.350 1_545 S
C3899 C3903 1.359 1_545 S
C3900 H3881 0.951 . S
C3900 C3898 1.388 . S
C3900 C3901 1.366 . S
C3901 C3900 1.366 . S
C3901 C3902 1.414 . S
C3901 C3904 1.499 . S
C3902 H3882 0.950 . S
C3902 C3901 1.414 . S
C3902 C3903 1.430 . S
C3903 H3883 0.915 1_565 S
C3903 C3899 1.359 1_565 S
C3903 C3902 1.430 . S
C3904 C3901 1.499 . S
C3904 C3905 1.373 . S
C3904 C3906 1.389 . S
C3905 H3884 0.950 . S
C3905 C3904 1.373 . S
C3905 C3921 1.377 . S
C3906 C3904 1.389 . S
C3906 C3907 1.524 . S
C3906 C3920 1.377 . S
C3907 C3906 1.524 . S
C3907 C3908 1.397 . S
C3907 C3912 1.363 . S
C3908 H3885 0.950 . S
C3908 C3907 1.397 . S
C3908 C3909 1.334 . S
C3909 H3886 0.950 . S
C3909 C3908 1.334 . S
C3909 C3910 1.287 . S
C3910 C3909 1.287 . S
C3910 C3911 1.524 . S
C3910 H3929 0.913 . S
C3911 H3887 0.950 . S
C3911 C3910 1.524 . S
C3911 C3912 1.415 . S
C3912 H3888 0.950 . S
C3912 C3907 1.363 . S
C3912 C3911 1.415 . S
C3913 H3889 0.951 . S
C3913 C3914 1.366 . S
C3913 C3915 1.388 . S
C3914 C3913 1.366 . S
C3914 C3918 1.385 . S
C3915 H3890 0.951 . S
C3915 C3913 1.388 . S
C3915 C3916 1.366 . S
C3916 C3915 1.366 . S
C3916 C3917 1.414 . S
C3916 C3919 1.499 . S
C3917 H3891 0.950 . S
C3917 C3916 1.414 . S
C3917 C3918 1.374 . S
C3918 H3892 0.950 . S
C3918 C3914 1.385 . S
C3918 C3917 1.374 . S
C3919 C3916 1.499 . S
C3919 C3920 1.373 . S
C3919 C3921 1.389 . S
C3920 H3893 0.950 . S
C3920 C3906 1.377 . S
C3920 C3919 1.373 . S
C3921 C3905 1.377 . S
C3921 C3919 1.389 . S
C3921 C3922 1.524 . S
C3922 C3921 1.524 . S
C3922 C3923 1.397 . S
C3922 C3927 1.363 . S
C3923 H3894 0.950 . S
C3923 C3922 1.397 . S
C3923 C3924 1.334 . S
C3924 H3895 0.950 . S
C3924 C3923 1.334 . S
C3924 C3925 1.287 . S
C3925 C3924 1.287 . S
C3925 C3926 1.524 . S
C3925 H3928 0.999 . S
C3926 H3896 0.950 . S
C3926 C3925 1.524 . S
C3926 C3927 1.415 . S
C3927 H3897 0.950 . S
C3927 C3922 1.363 . S
C3927 C3926 1.415 . S
H3928 C3925 0.999 . S
H3929 C3910 0.913 . S
H3930 C3948 0.951 . S
H3931 C3950 0.951 . S
H3932 C3952 0.950 . S
H3933 C3953 0.950 . S
H3934 C3955 0.950 . S
H3935 C3958 0.950 . S
H3936 C3959 0.950 . S
H3937 C3961 0.978 . S
H3938 C3962 0.950 . S
H3939 C3963 0.951 . S
H3940 C3965 0.951 . S
H3941 C3967 0.950 . S
H3942 C3968 0.992 . S
H3943 C3970 0.950 . S
H3944 C3973 0.950 . S
H3945 C3974 0.950 . S
H3946 C3976 0.950 . S
H3947 C3977 0.950 . S
C3948 H3930 0.951 . S
C3948 C3949 1.366 . S
C3948 C3950 1.388 . S
C3949 C3948 1.366 . S
C3949 C3953 1.385 . S
C3950 H3931 0.951 . S
C3950 C3948 1.388 . S
C3950 C3951 1.366 . S
C3951 C3950 1.366 . S
C3951 C3952 1.414 . S
C3951 C3954 1.499 . S
C3952 H3932 0.950 . S
C3952 C3951 1.414 . S
C3952 C3953 1.374 . S
C3953 H3933 0.950 . S
C3953 C3949 1.385 . S
C3953 C3952 1.374 . S
C3954 C3951 1.499 . S
C3954 C3955 1.373 . S
C3954 C3956 1.389 . S
C3955 H3934 0.950 . S
C3955 C3954 1.373 . S
C3955 C3971 1.377 . S
C3956 C3954 1.389 . S
C3956 C3957 1.524 . S
C3956 C3970 1.377 . S
C3957 C3956 1.524 . S
C3957 C3958 1.397 . S
C3957 C3962 1.363 . S
C3958 H3935 0.950 . S
C3958 C3957 1.397 . S
C3958 C3959 1.334 . S
C3959 H3936 0.950 . S
C3959 C3958 1.334 . S
C3959 C3960 1.287 . S
C3960 C3959 1.287 . S
C3960 C3961 1.524 . S
C3960 H3979 0.913 . S
C3961 H3937 0.978 . S
C3961 C3960 1.524 . S
C3961 C3962 1.415 . S
C3962 H3938 0.950 . S
C3962 C3957 1.363 . S
C3962 C3961 1.415 . S
C3963 H3939 0.951 . S
C3963 C3964 1.366 . S
C3963 C3965 1.388 . S
C3964 C3963 1.366 . S
C3964 C3968 1.376 1_565 S
C3965 H3940 0.951 . S
C3965 C3963 1.388 . S
C3965 C3966 1.366 . S
C3966 C3965 1.366 . S
C3966 C3967 1.414 . S
C3966 C3969 1.499 . S
C3967 H3941 0.950 . S
C3967 C3966 1.414 . S
C3967 C3968 1.341 1_565 S
C3968 H3942 0.992 . S
C3968 C3964 1.376 1_545 S
C3968 C3967 1.341 1_545 S
C3969 C3966 1.499 . S
C3969 C3970 1.373 . S
C3969 C3971 1.389 . S
C3970 H3943 0.950 . S
C3970 C3956 1.377 . S
C3970 C3969 1.373 . S
C3971 C3955 1.377 . S
C3971 C3969 1.389 . S
C3971 C3972 1.524 . S
C3972 C3971 1.524 . S
C3972 C3973 1.397 . S
C3972 C3977 1.363 . S
C3973 H3944 0.950 . S
C3973 C3972 1.397 . S
C3973 C3974 1.334 . S
C3974 H3945 0.950 . S
C3974 C3973 1.334 . S
C3974 C3975 1.287 . S
C3975 C3974 1.287 . S
C3975 C3976 1.524 . S
C3975 H3978 0.999 . S
C3976 H3946 0.950 . S
C3976 C3975 1.524 . S
C3976 C3977 1.415 . S
C3977 H3947 0.950 . S
C3977 C3972 1.363 . S
C3977 C3976 1.415 . S
H3978 C3975 0.999 . S
H3979 C3960 0.913 . S
H3980 C3998 0.951 . S
H3981 C4000 0.951 . S
H3982 C4002 0.950 . S
H3983 C4003 0.950 . S
H3984 C4005 0.950 . S
H3985 C4008 0.950 . S
H3986 C4009 0.950 . S
H3987 C4011 0.950 . S
H3988 C4012 0.950 . S
H3989 C4013 0.951 . S
H3990 C4015 0.951 . S
H3991 C4017 0.950 . S
H3992 C4018 0.950 . S
H3993 C4020 0.950 . S
H3994 C4023 0.950 . S
H3995 C4024 0.950 . S
H3996 C4026 0.950 . S
H3997 C4027 0.950 . S
C3998 H3980 0.951 . S
C3998 C3999 1.366 . S
C3998 C4000 1.388 . S
C3999 C3998 1.366 . S
C3999 C4003 1.385 . S
C4000 H3981 0.951 . S
C4000 C3998 1.388 . S
C4000 C4001 1.366 . S
C4001 C4000 1.366 . S
C4001 C4002 1.414 . S
C4001 C4004 1.499 . S
C4002 H3982 0.950 . S
C4002 C4001 1.414 . S
C4002 C4003 1.374 . S
C4003 H3983 0.950 . S
C4003 C3999 1.385 . S
C4003 C4002 1.374 . S
C4004 C4001 1.499 . S
C4004 C4005 1.373 . S
C4004 C4006 1.389 . S
C4005 H3984 0.950 . S
C4005 C4004 1.373 . S
C4005 C4021 1.377 . S
C4006 C4004 1.389 . S
C4006 C4007 1.524 . S
C4006 C4020 1.377 . S
C4007 C4006 1.524 . S
C4007 C4008 1.397 . S
C4007 C4012 1.363 . S
C4008 H3985 0.950 . S
C4008 C4007 1.397 . S
C4008 C4009 1.334 . S
C4009 H3986 0.950 . S
C4009 C4008 1.334 . S
C4009 C4010 1.287 . S
C4010 C4009 1.287 . S
C4010 C4011 1.524 . S
C4010 H4029 0.913 . S
C4011 H3987 0.950 . S
C4011 C4010 1.524 . S
C4011 C4012 1.415 . S
C4012 H3988 0.950 . S
C4012 C4007 1.363 . S
C4012 C4011 1.415 . S
C4013 H3989 0.951 . S
C4013 C4014 1.366 . S
C4013 C4015 1.388 . S
C4014 C4013 1.366 . S
C4014 C4018 1.385 . S
C4015 H3990 0.951 . S
C4015 C4013 1.388 . S
C4015 C4016 1.366 . S
C4016 C4015 1.366 . S
C4016 C4017 1.414 . S
C4016 C4019 1.499 . S
C4017 H3991 0.950 . S
C4017 C4016 1.414 . S
C4017 C4018 1.374 . S
C4018 H3992 0.950 . S
C4018 C4014 1.385 . S
C4018 C4017 1.374 . S
C4019 C4016 1.499 . S
C4019 C4020 1.373 . S
C4019 C4021 1.389 . S
C4020 H3993 0.950 . S
C4020 C4006 1.377 . S
C4020 C4019 1.373 . S
C4021 C4005 1.377 . S
C4021 C4019 1.389 . S
C4021 C4022 1.524 . S
C4022 C4021 1.524 . S
C4022 C4023 1.397 . S
C4022 C4027 1.363 . S
C4023 H3994 0.950 . S
C4023 C4022 1.397 . S
C4023 C4024 1.334 . S
C4024 H3995 0.950 . S
C4024 C4023 1.334 . S
C4024 C4025 1.287 . S
C4025 C4024 1.287 . S
C4025 C4026 1.524 . S
C4025 H4028 0.999 . S
C4026 H3996 0.950 . S
C4026 C4025 1.524 . S
C4026 C4027 1.415 . S
C4027 H3997 0.950 . S
C4027 C4022 1.363 . S
C4027 C4026 1.415 . S
H4028 C4025 0.999 . S
H4029 C4010 0.913 . S
H4030 C4048 0.951 . S
H4031 C4050 0.951 . S
H4032 C4052 0.950 . S
H4033 C4053 0.950 . S
H4034 C4055 0.950 . S
H4035 C4058 0.950 . S
H4036 C4059 0.950 . S
H4037 C4061 0.950 . S
H4038 C4062 0.950 . S
H4039 C4063 0.951 . S
H4040 C4065 0.951 . S
H4041 C4067 0.950 . S
H4042 C4068 0.950 . S
H4043 C4070 0.950 . S
H4044 C4073 0.950 . S
H4045 C4074 0.950 . S
H4046 C4076 0.950 . S
H4047 C4077 0.950 . S
C4048 H4030 0.951 . S
C4048 C4049 1.366 . S
C4048 C4050 1.388 . S
C4049 C4048 1.366 . S
C4049 C4053 1.385 . S
C4050 H4031 0.951 . S
C4050 C4048 1.388 . S
C4050 C4051 1.366 . S
C4051 C4050 1.366 . S
C4051 C4052 1.414 . S
C4051 C4054 1.499 . S
C4052 H4032 0.950 . S
C4052 C4051 1.414 . S
C4052 C4053 1.374 . S
C4053 H4033 0.950 . S
C4053 C4049 1.385 . S
C4053 C4052 1.374 . S
C4054 C4051 1.499 . S
C4054 C4055 1.373 . S
C4054 C4056 1.389 . S
C4055 H4034 0.950 . S
C4055 C4054 1.373 . S
C4055 C4071 1.377 . S
C4056 C4054 1.389 . S
C4056 C4057 1.524 . S
C4056 C4070 1.377 . S
C4057 C4056 1.524 . S
C4057 C4058 1.397 . S
C4057 C4062 1.363 . S
C4058 H4035 0.950 . S
C4058 C4057 1.397 . S
C4058 C4059 1.334 . S
C4059 H4036 0.950 . S
C4059 C4058 1.334 . S
C4059 C4060 1.287 . S
C4060 C4059 1.287 . S
C4060 C4061 1.524 . S
C4060 H4079 0.913 . S
C4061 H4037 0.950 . S
C4061 C4060 1.524 . S
C4061 C4062 1.415 . S
C4062 H4038 0.950 . S
C4062 C4057 1.363 . S
C4062 C4061 1.415 . S
C4063 H4039 0.951 . S
C4063 C4064 1.366 . S
C4063 C4065 1.388 . S
C4064 C4063 1.366 . S
C4064 C4068 1.385 . S
C4065 H4040 0.951 . S
C4065 C4063 1.388 . S
C4065 C4066 1.366 . S
C4066 C4065 1.366 . S
C4066 C4067 1.414 . S
C4066 C4069 1.499 . S
C4067 H4041 0.950 . S
C4067 C4066 1.414 . S
C4067 C4068 1.374 . S
C4068 H4042 0.950 . S
C4068 C4064 1.385 . S
C4068 C4067 1.374 . S
C4069 C4066 1.499 . S
C4069 C4070 1.373 . S
C4069 C4071 1.389 . S
C4070 H4043 0.950 . S
C4070 C4056 1.377 . S
C4070 C4069 1.373 . S
C4071 C4055 1.377 . S
C4071 C4069 1.389 . S
C4071 C4072 1.524 . S
C4072 C4071 1.524 . S
C4072 C4073 1.397 . S
C4072 C4077 1.363 . S
C4073 H4044 0.950 . S
C4073 C4072 1.397 . S
C4073 C4074 1.334 . S
C4074 H4045 0.950 . S
C4074 C4073 1.334 . S
C4074 C4075 1.287 . S
C4075 C4074 1.287 . S
C4075 C4076 1.524 . S
C4075 H4078 0.999 . S
C4076 H4046 0.950 . S
C4076 C4075 1.524 . S
C4076 C4077 1.415 . S
C4077 H4047 0.950 . S
C4077 C4072 1.363 . S
C4077 C4076 1.415 . S
H4078 C4075 0.999 . S
H4079 C4060 0.913 . S
H4080 C4098 0.951 . S
H4081 C4100 0.951 . S
H4082 C4102 0.950 . S
H4083 C4103 0.950 . S
H4084 C4105 0.950 . S
H4085 C4108 0.950 . S
H4086 C4109 0.950 . S
H4087 C4111 0.950 . S
H4088 C4112 0.950 . S
H4089 C4113 0.951 . S
H4090 C4115 0.951 . S
H4091 C4117 0.950 . S
H4092 C4118 0.950 . S
H4093 C4120 0.950 . S
H4094 C4123 0.950 . S
H4095 C4124 0.950 . S
H4096 C4126 0.950 . S
H4097 C4127 0.950 . S
C4098 H4080 0.951 . S
C4098 C4099 1.366 . S
C4098 C4100 1.388 . S
C4099 C4098 1.366 . S
C4099 C4103 1.385 . S
C4100 H4081 0.951 . S
C4100 C4098 1.388 . S
C4100 C4101 1.366 . S
C4101 C4100 1.366 . S
C4101 C4102 1.414 . S
C4101 C4104 1.499 . S
C4102 H4082 0.950 . S
C4102 C4101 1.414 . S
C4102 C4103 1.374 . S
C4103 H4083 0.950 . S
C4103 C4099 1.385 . S
C4103 C4102 1.374 . S
C4104 C4101 1.499 . S
C4104 C4105 1.373 . S
C4104 C4106 1.389 . S
C4105 H4084 0.950 . S
C4105 C4104 1.373 . S
C4105 C4121 1.377 . S
C4106 C4104 1.389 . S
C4106 C4107 1.524 . S
C4106 C4120 1.377 . S
C4107 C4106 1.524 . S
C4107 C4108 1.397 . S
C4107 C4112 1.363 . S
C4108 H4085 0.950 . S
C4108 C4107 1.397 . S
C4108 C4109 1.334 . S
C4109 H4086 0.950 . S
C4109 C4108 1.334 . S
C4109 C4110 1.287 . S
C4110 C4109 1.287 . S
C4110 C4111 1.524 . S
C4110 H4129 0.913 . S
C4111 H4087 0.950 . S
C4111 C4110 1.524 . S
C4111 C4112 1.415 . S
C4112 H4088 0.950 . S
C4112 C4107 1.363 . S
C4112 C4111 1.415 . S
C4113 H4089 0.951 . S
C4113 C4114 1.366 . S
C4113 C4115 1.388 . S
C4114 C4113 1.366 . S
C4114 C4118 1.385 . S
C4115 H4090 0.951 . S
C4115 C4113 1.388 . S
C4115 C4116 1.366 . S
C4116 C4115 1.366 . S
C4116 C4117 1.414 . S
C4116 C4119 1.499 . S
C4117 H4091 0.950 . S
C4117 C4116 1.414 . S
C4117 C4118 1.374 . S
C4118 H4092 0.950 . S
C4118 C4114 1.385 . S
C4118 C4117 1.374 . S
C4119 C4116 1.499 . S
C4119 C4120 1.373 . S
C4119 C4121 1.389 . S
C4120 H4093 0.950 . S
C4120 C4106 1.377 . S
C4120 C4119 1.373 . S
C4121 C4105 1.377 . S
C4121 C4119 1.389 . S
C4121 C4122 1.524 . S
C4122 C4121 1.524 . S
C4122 C4123 1.397 . S
C4122 C4127 1.363 . S
C4123 H4094 0.950 . S
C4123 C4122 1.397 . S
C4123 C4124 1.334 . S
C4124 H4095 0.950 . S
C4124 C4123 1.334 . S
C4124 C4125 1.287 . S
C4125 C4124 1.287 . S
C4125 C4126 1.524 . S
C4125 H4128 0.999 . S
C4126 H4096 0.950 . S
C4126 C4125 1.524 . S
C4126 C4127 1.415 . S
C4127 H4097 0.950 . S
C4127 C4122 1.363 . S
C4127 C4126 1.415 . S
H4128 C4125 0.999 . S
H4129 C4110 0.913 . S
H4130 C4148 0.951 . S
H4131 C4150 0.951 . S
H4132 C4152 0.950 . S
H4133 C4153 0.950 . S
H4134 C4155 0.950 . S
H4135 C4158 0.950 . S
H4136 C4159 0.950 . S
H4137 C4161 0.950 . S
H4138 C4162 0.950 . S
H4139 C4163 0.951 . S
H4140 C4165 0.951 . S
H4141 C4167 0.950 . S
H4142 C4168 0.950 . S
H4143 C4170 0.950 . S
H4144 C4173 0.950 . S
H4145 C4174 0.950 . S
H4146 C4176 0.950 . S
H4147 C4177 0.950 . S
C4148 H4130 0.951 . S
C4148 C4149 1.366 . S
C4148 C4150 1.388 . S
C4149 C4148 1.366 . S
C4149 C4153 1.385 . S
C4150 H4131 0.951 . S
C4150 C4148 1.388 . S
C4150 C4151 1.366 . S
C4151 C4150 1.366 . S
C4151 C4152 1.414 . S
C4151 C4154 1.499 . S
C4152 H4132 0.950 . S
C4152 C4151 1.414 . S
C4152 C4153 1.374 . S
C4153 H4133 0.950 . S
C4153 C4149 1.385 . S
C4153 C4152 1.374 . S
C4154 C4151 1.499 . S
C4154 C4155 1.373 . S
C4154 C4156 1.389 . S
C4155 H4134 0.950 . S
C4155 C4154 1.373 . S
C4155 C4171 1.377 . S
C4156 C4154 1.389 . S
C4156 C4157 1.524 . S
C4156 C4170 1.377 . S
C4157 C4156 1.524 . S
C4157 C4158 1.397 . S
C4157 C4162 1.363 . S
C4158 H4135 0.950 . S
C4158 C4157 1.397 . S
C4158 C4159 1.334 . S
C4159 H4136 0.950 . S
C4159 C4158 1.334 . S
C4159 C4160 1.287 . S
C4160 C4159 1.287 . S
C4160 C4161 1.524 . S
C4160 H4179 0.913 . S
C4161 H4137 0.950 . S
C4161 C4160 1.524 . S
C4161 C4162 1.415 . S
C4162 H4138 0.950 . S
C4162 C4157 1.363 . S
C4162 C4161 1.415 . S
C4163 H4139 0.951 . S
C4163 C4164 1.366 . S
C4163 C4165 1.388 . S
C4164 C4163 1.366 . S
C4164 C4168 1.385 . S
C4165 H4140 0.951 . S
C4165 C4163 1.388 . S
C4165 C4166 1.366 . S
C4166 C4165 1.366 . S
C4166 C4167 1.414 . S
C4166 C4169 1.499 . S
C4167 H4141 0.950 . S
C4167 C4166 1.414 . S
C4167 C4168 1.374 . S
C4168 H4142 0.950 . S
C4168 C4164 1.385 . S
C4168 C4167 1.374 . S
C4169 C4166 1.499 . S
C4169 C4170 1.373 . S
C4169 C4171 1.389 . S
C4170 H4143 0.950 . S
C4170 C4156 1.377 . S
C4170 C4169 1.373 . S
C4171 C4155 1.377 . S
C4171 C4169 1.389 . S
C4171 C4172 1.524 . S
C4172 C4171 1.524 . S
C4172 C4173 1.397 . S
C4172 C4177 1.363 . S
C4173 H4144 0.950 . S
C4173 C4172 1.397 . S
C4173 C4174 1.334 . S
C4174 H4145 0.950 . S
C4174 C4173 1.334 . S
C4174 C4175 1.287 . S
C4175 C4174 1.287 . S
C4175 C4176 1.524 . S
C4175 H4178 0.999 . S
C4176 H4146 0.950 . S
C4176 C4175 1.524 . S
C4176 C4177 1.415 . S
C4177 H4147 0.950 . S
C4177 C4172 1.363 . S
C4177 C4176 1.415 . S
H4178 C4175 0.999 . S
H4179 C4160 0.913 . S
H4180 C4198 0.951 . S
H4181 C4200 0.994 . S
H4182 C4202 0.950 . S
H4183 C4203 0.950 . S
H4184 C4205 0.950 . S
H4185 C4208 0.950 . S
H4186 C4209 0.950 . S
H4187 C4211 0.950 . S
H4188 C4212 0.935 1_455 S
H4189 C4213 0.951 . S
H4190 C4215 0.951 1_556 S
H4191 C4217 0.950 . S
H4192 C4218 0.950 . S
H4193 C4220 0.950 . S
H4194 C4223 0.950 . S
H4195 C4224 0.950 . S
H4196 C4226 0.950 . S
H4197 C4227 0.950 . S
C4198 H4180 0.951 . S
C4198 C4199 1.366 . S
C4198 C4200 1.388 . S
C4199 C4198 1.366 . S
C4199 C4203 1.385 . S
C4200 H4181 0.994 . S
C4200 C4198 1.388 . S
C4200 C4201 1.366 . S
C4201 C4200 1.366 . S
C4201 C4202 1.414 . S
C4201 C4204 1.499 . S
C4202 H4182 0.950 . S
C4202 C4201 1.414 . S
C4202 C4203 1.374 . S
C4203 H4183 0.950 . S
C4203 C4199 1.385 . S
C4203 C4202 1.374 . S
C4204 C4201 1.499 . S
C4204 C4205 1.373 . S
C4204 C4206 1.389 . S
C4205 H4184 0.950 . S
C4205 C4204 1.373 . S
C4205 C4221 1.377 . S
C4206 C4204 1.389 . S
C4206 C4207 1.543 . S
C4206 C4220 1.377 1_556 S
C4207 C4206 1.543 . S
C4207 C4208 1.442 1_455 S
C4207 C4212 1.292 1_456 S
C4208 H4185 0.950 . S
C4208 C4207 1.442 1_655 S
C4208 C4209 1.334 . S
C4209 H4186 0.950 . S
C4209 C4208 1.334 . S
C4209 C4210 1.333 . S
C4210 C4209 1.333 . S
C4210 C4211 1.485 1_556 S
C4210 H4229 0.908 . S
C4211 H4187 0.950 . S
C4211 C4210 1.485 1_554 S
C4211 C4212 1.443 . S
C4212 H4188 0.935 1_655 S
C4212 C4207 1.292 1_654 S
C4212 C4211 1.443 . S
C4213 H4189 0.951 . S
C4213 C4214 1.366 . S
C4213 C4215 1.388 . S
C4214 C4213 1.366 . S
C4214 C4218 1.385 . S
C4215 H4190 0.951 1_554 S
C4215 C4213 1.388 . S
C4215 C4216 1.366 . S
C4216 C4215 1.366 . S
C4216 C4217 1.414 . S
C4216 C4219 1.499 . S
C4217 H4191 0.950 . S
C4217 C4216 1.414 . S
C4217 C4218 1.374 . S
C4218 H4192 0.950 . S
C4218 C4214 1.385 . S
C4218 C4217 1.374 . S
C4219 C4216 1.499 . S
C4219 C4220 1.373 . S
C4219 C4221 1.389 1_554 S
C4220 H4193 0.950 . S
C4220 C4206 1.377 1_554 S
C4220 C4219 1.373 . S
C4221 C4205 1.377 . S
C4221 C4219 1.389 1_556 S
C4221 C4222 1.524 . S
C4222 C4221 1.524 . S
C4222 C4223 1.397 1_556 S
C4222 C4227 1.363 . S
C4223 H4194 0.950 . S
C4223 C4222 1.397 1_554 S
C4223 C4224 1.334 . S
C4224 H4195 0.950 . S
C4224 C4223 1.334 . S
C4224 C4225 1.287 1_554 S
C4225 C4224 1.287 1_556 S
C4225 C4226 1.524 . S
C4225 H4228 0.999 . S
C4226 H4196 0.950 . S
C4226 C4225 1.524 . S
C4226 C4227 1.415 . S
C4227 H4197 0.950 . S
C4227 C4222 1.363 . S
C4227 C4226 1.415 . S
H4228 C4225 0.999 . S
H4229 C4210 0.908 . S
H4230 C4248 0.951 . S
H4231 C4250 0.951 . S
H4232 C4252 0.950 . S
H4233 C4253 0.950 . S
H4234 C4255 0.950 . S
H4235 C4258 0.950 . S
H4236 C4259 0.950 . S
H4237 C4261 0.950 . S
H4238 C4262 0.950 1_655 S
H4239 C4263 0.951 . S
H4240 C4265 0.951 . S
H4241 C4267 0.950 . S
H4242 C4268 0.950 . S
H4243 C4270 0.950 . S
H4244 C4273 0.950 . S
H4245 C4274 0.950 . S
H4246 C4276 0.950 . S
H4247 C4277 0.950 . S
C4248 H4230 0.951 . S
C4248 C4249 1.366 . S
C4248 C4250 1.388 . S
C4249 C4248 1.366 . S
C4249 C4253 1.385 . S
C4250 H4231 0.951 . S
C4250 C4248 1.388 . S
C4250 C4251 1.366 1_455 S
C4251 C4250 1.366 1_655 S
C4251 C4252 1.414 . S
C4251 C4254 1.499 . S
C4252 H4232 0.950 . S
C4252 C4251 1.414 . S
C4252 C4253 1.374 1_655 S
C4253 H4233 0.950 . S
C4253 C4249 1.385 . S
C4253 C4252 1.374 1_455 S
C4254 C4251 1.499 . S
C4254 C4255 1.373 . S
C4254 C4256 1.389 . S
C4255 H4234 0.950 . S
C4255 C4254 1.373 . S
C4255 C4271 1.377 . S
C4256 C4254 1.389 . S
C4256 C4257 1.524 . S
C4256 C4270 1.377 . S
C4257 C4256 1.524 . S
C4257 C4258 1.397 . S
C4257 C4262 1.363 1_655 S
C4258 H4235 0.950 . S
C4258 C4257 1.397 . S
C4258 C4259 1.334 1_655 S
C4259 H4236 0.950 . S
C4259 C4258 1.334 1_455 S
C4259 C4260 1.287 . S
C4260 C4259 1.287 . S
C4260 C4261 1.524 . S
C4260 H4279 0.913 . S
C4261 H4237 0.950 . S
C4261 C4260 1.524 . S
C4261 C4262 1.415 . S
C4262 H4238 0.950 1_455 S
C4262 C4257 1.363 1_455 S
C4262 C4261 1.415 . S
C4263 H4239 0.951 . S
C4263 C4264 1.366 . S
C4263 C4265 1.388 . S
C4264 C4263 1.366 . S
C4264 C4268 1.385 . S
C4265 H4240 0.951 . S
C4265 C4263 1.388 . S
C4265 C4266 1.366 . S
C4266 C4265 1.366 . S
C4266 C4267 1.414 . S
C4266 C4269 1.499 . S
C4267 H4241 0.950 . S
C4267 C4266 1.414 . S
C4267 C4268 1.374 . S
C4268 H4242 0.950 . S
C4268 C4264 1.385 . S
C4268 C4267 1.374 . S
C4269 C4266 1.499 . S
C4269 C4270 1.373 . S
C4269 C4271 1.389 . S
C4270 H4243 0.950 . S
C4270 C4256 1.377 . S
C4270 C4269 1.373 . S
C4271 C4255 1.377 . S
C4271 C4269 1.389 . S
C4271 C4272 1.524 . S
C4272 C4271 1.524 . S
C4272 C4273 1.397 . S
C4272 C4277 1.363 . S
C4273 H4244 0.950 . S
C4273 C4272 1.397 . S
C4273 C4274 1.334 . S
C4274 H4245 0.950 . S
C4274 C4273 1.334 . S
C4274 C4275 1.287 . S
C4275 C4274 1.287 . S
C4275 C4276 1.524 . S
C4275 H4278 0.999 . S
C4276 H4246 0.950 . S
C4276 C4275 1.524 . S
C4276 C4277 1.415 . S
C4277 H4247 0.950 . S
C4277 C4272 1.363 . S
C4277 C4276 1.415 . S
H4278 C4275 0.999 . S
H4279 C4260 0.913 . S
H4280 C4298 0.951 . S
H4281 C4300 0.951 . S
H4282 C4302 0.950 . S
H4283 C4303 0.950 . S
H4284 C4305 0.950 . S
H4285 C4308 0.950 . S
H4286 C4309 0.950 . S
H4287 C4311 0.950 . S
H4288 C4312 0.950 . S
H4289 C4313 0.951 . S
H4290 C4315 0.951 . S
H4291 C4317 0.950 . S
H4292 C4318 0.950 . S
H4293 C4320 0.950 . S
H4294 C4323 0.950 . S
H4295 C4324 0.950 . S
H4296 C4326 0.950 . S
H4297 C4327 0.950 . S
C4298 H4280 0.951 . S
C4298 C4299 1.366 . S
C4298 C4300 1.388 . S
C4299 C4298 1.366 . S
C4299 C4303 1.385 . S
C4300 H4281 0.951 . S
C4300 C4298 1.388 . S
C4300 C4301 1.366 . S
C4301 C4300 1.366 . S
C4301 C4302 1.414 . S
C4301 C4304 1.499 . S
C4302 H4282 0.950 . S
C4302 C4301 1.414 . S
C4302 C4303 1.374 . S
C4303 H4283 0.950 . S
C4303 C4299 1.385 . S
C4303 C4302 1.374 . S
C4304 C4301 1.499 . S
C4304 C4305 1.373 . S
C4304 C4306 1.389 . S
C4305 H4284 0.950 . S
C4305 C4304 1.373 . S
C4305 C4321 1.377 . S
C4306 C4304 1.389 . S
C4306 C4307 1.524 . S
C4306 C4320 1.377 . S
C4307 C4306 1.524 . S
C4307 C4308 1.397 . S
C4307 C4312 1.363 . S
C4308 H4285 0.950 . S
C4308 C4307 1.397 . S
C4308 C4309 1.334 . S
C4309 H4286 0.950 . S
C4309 C4308 1.334 . S
C4309 C4310 1.287 . S
C4310 C4309 1.287 . S
C4310 C4311 1.524 . S
C4310 H4329 0.913 . S
C4311 H4287 0.950 . S
C4311 C4310 1.524 . S
C4311 C4312 1.415 . S
C4312 H4288 0.950 . S
C4312 C4307 1.363 . S
C4312 C4311 1.415 . S
C4313 H4289 0.951 . S
C4313 C4314 1.366 . S
C4313 C4315 1.388 . S
C4314 C4313 1.366 . S
C4314 C4318 1.385 . S
C4315 H4290 0.951 . S
C4315 C4313 1.388 . S
C4315 C4316 1.366 . S
C4316 C4315 1.366 . S
C4316 C4317 1.414 . S
C4316 C4319 1.499 . S
C4317 H4291 0.950 . S
C4317 C4316 1.414 . S
C4317 C4318 1.374 . S
C4318 H4292 0.950 . S
C4318 C4314 1.385 . S
C4318 C4317 1.374 . S
C4319 C4316 1.499 . S
C4319 C4320 1.373 . S
C4319 C4321 1.389 . S
C4320 H4293 0.950 . S
C4320 C4306 1.377 . S
C4320 C4319 1.373 . S
C4321 C4305 1.377 . S
C4321 C4319 1.389 . S
C4321 C4322 1.524 . S
C4322 C4321 1.524 . S
C4322 C4323 1.397 . S
C4322 C4327 1.363 . S
C4323 H4294 0.950 . S
C4323 C4322 1.397 . S
C4323 C4324 1.334 . S
C4324 H4295 0.950 . S
C4324 C4323 1.334 . S
C4324 C4325 1.287 . S
C4325 C4324 1.287 . S
C4325 C4326 1.524 . S
C4325 H4328 0.999 . S
C4326 H4296 0.950 . S
C4326 C4325 1.524 . S
C4326 C4327 1.415 . S
C4327 H4297 0.950 . S
C4327 C4322 1.363 . S
C4327 C4326 1.415 . S
H4328 C4325 0.999 . S
H4329 C4310 0.913 . S
H4330 C4348 0.951 . S
H4331 C4350 0.951 . S
H4332 C4352 0.950 . S
H4333 C4353 0.950 . S
H4334 C4355 0.950 . S
H4335 C4358 0.950 . S
H4336 C4359 0.950 . S
H4337 C4361 0.950 . S
H4338 C4362 0.950 1_655 S
H4339 C4363 0.951 . S
H4340 C4365 0.951 . S
H4341 C4367 0.950 . S
H4342 C4368 0.950 . S
H4343 C4370 0.950 . S
H4344 C4373 0.950 . S
H4345 C4374 0.950 . S
H4346 C4376 0.950 . S
H4347 C4377 0.950 . S
C4348 H4330 0.951 . S
C4348 C4349 1.366 . S
C4348 C4350 1.388 . S
C4349 C4348 1.366 . S
C4349 C4353 1.385 . S
C4350 H4331 0.951 . S
C4350 C4348 1.388 . S
C4350 C4351 1.366 . S
C4351 C4350 1.366 . S
C4351 C4352 1.414 . S
C4351 C4354 1.499 . S
C4352 H4332 0.950 . S
C4352 C4351 1.414 . S
C4352 C4353 1.374 . S
C4353 H4333 0.950 . S
C4353 C4349 1.385 . S
C4353 C4352 1.374 . S
C4354 C4351 1.499 . S
C4354 C4355 1.373 1_455 S
C4354 C4356 1.389 . S
C4355 H4334 0.950 . S
C4355 C4354 1.373 1_655 S
C4355 C4371 1.377 . S
C4356 C4354 1.389 . S
C4356 C4357 1.522 . S
C4356 C4370 1.379 1_455 S
C4357 C4356 1.522 . S
C4357 C4358 1.397 . S
C4357 C4362 1.363 . S
C4358 H4335 0.950 . S
C4358 C4357 1.397 . S
C4358 C4359 1.334 . S
C4359 H4336 0.950 . S
C4359 C4358 1.334 . S
C4359 C4360 1.287 . S
C4360 C4359 1.287 . S
C4360 C4361 1.524 . S
C4360 H4379 0.913 . S
C4361 H4337 0.950 . S
C4361 C4360 1.524 . S
C4361 C4362 1.415 . S
C4362 H4338 0.950 1_455 S
C4362 C4357 1.363 . S
C4362 C4361 1.415 . S
C4363 H4339 0.951 . S
C4363 C4364 1.366 . S
C4363 C4365 1.388 . S
C4364 C4363 1.366 . S
C4364 C4368 1.385 . S
C4365 H4340 0.951 . S
C4365 C4363 1.388 . S
C4365 C4366 1.366 . S
C4366 C4365 1.366 . S
C4366 C4367 1.414 . S
C4366 C4369 1.499 . S
C4367 H4341 0.950 . S
C4367 C4366 1.414 . S
C4367 C4368 1.374 . S
C4368 H4342 0.950 . S
C4368 C4364 1.385 . S
C4368 C4367 1.374 . S
C4369 C4366 1.499 . S
C4369 C4370 1.373 . S
C4369 C4371 1.389 . S
C4370 H4343 0.950 . S
C4370 C4356 1.379 1_655 S
C4370 C4369 1.373 . S
C4371 C4355 1.377 . S
C4371 C4369 1.389 . S
C4371 C4372 1.524 . S
C4372 C4371 1.524 . S
C4372 C4373 1.397 . S
C4372 C4377 1.363 . S
C4373 H4344 0.950 . S
C4373 C4372 1.397 . S
C4373 C4374 1.334 . S
C4374 H4345 0.950 . S
C4374 C4373 1.334 . S
C4374 C4375 1.287 . S
C4375 C4374 1.287 . S
C4375 C4376 1.524 . S
C4375 H4378 0.999 . S
C4376 H4346 0.950 . S
C4376 C4375 1.524 . S
C4376 C4377 1.415 . S
C4377 H4347 0.950 . S
C4377 C4372 1.363 . S
C4377 C4376 1.415 . S
H4378 C4375 0.999 . S
H4379 C4360 0.913 . S
H4380 C4398 0.951 . S
H4381 C4400 0.951 . S
H4382 C4402 0.950 . S
H4383 C4403 0.950 . S
H4384 C4405 0.911 1_655 S
H4385 C4408 0.950 . S
H4386 C4409 0.950 . S
H4387 C4411 0.950 . S
H4388 C4412 0.950 . S
H4389 C4413 0.951 . S
H4390 C4415 0.951 . S
H4391 C4417 0.950 . S
H4392 C4418 0.950 . S
H4393 C4420 0.950 . S
H4394 C4423 0.950 . S
H4395 C4424 0.950 . S
H4396 C4426 0.950 . S
H4397 C4427 0.950 . S
C4398 H4380 0.951 . S
C4398 C4399 1.366 1_455 S
C4398 C4400 1.388 . S
C4399 C4398 1.366 1_655 S
C4399 C4403 1.385 . S
C4400 H4381 0.951 . S
C4400 C4398 1.388 . S
C4400 C4401 1.366 . S
C4401 C4400 1.366 . S
C4401 C4402 1.414 1_455 S
C4401 C4404 1.499 . S
C4402 H4382 0.950 . S
C4402 C4401 1.414 1_655 S
C4402 C4403 1.374 . S
C4403 H4383 0.950 . S
C4403 C4399 1.385 . S
C4403 C4402 1.374 . S
C4404 C4401 1.499 . S
C4404 C4405 1.393 . S
C4404 C4406 1.389 . S
C4405 H4384 0.911 1_455 S
C4405 C4404 1.393 . S
C4405 C4421 1.397 . S
C4406 C4404 1.389 . S
C4406 C4407 1.524 . S
C4406 C4420 1.377 . S
C4407 C4406 1.524 . S
C4407 C4408 1.397 . S
C4407 C4412 1.363 . S
C4408 H4385 0.950 . S
C4408 C4407 1.397 . S
C4408 C4409 1.334 . S
C4409 H4386 0.950 . S
C4409 C4408 1.334 . S
C4409 C4410 1.287 . S
C4410 C4409 1.287 . S
C4410 C4411 1.524 . S
C4410 H4429 0.913 . S
C4411 H4387 0.950 . S
C4411 C4410 1.524 . S
C4411 C4412 1.415 . S
C4412 H4388 0.950 . S
C4412 C4407 1.363 . S
C4412 C4411 1.415 . S
C4413 H4389 0.951 . S
C4413 C4414 1.366 . S
C4413 C4415 1.388 . S
C4414 C4413 1.366 . S
C4414 C4418 1.385 . S
C4415 H4390 0.951 . S
C4415 C4413 1.388 . S
C4415 C4416 1.366 . S
C4416 C4415 1.366 . S
C4416 C4417 1.414 . S
C4416 C4419 1.499 . S
C4417 H4391 0.950 . S
C4417 C4416 1.414 . S
C4417 C4418 1.374 . S
C4418 H4392 0.950 . S
C4418 C4414 1.385 . S
C4418 C4417 1.374 . S
C4419 C4416 1.499 . S
C4419 C4420 1.373 . S
C4419 C4421 1.389 . S
C4420 H4393 0.950 . S
C4420 C4406 1.377 . S
C4420 C4419 1.373 . S
C4421 C4405 1.397 . S
C4421 C4419 1.389 . S
C4421 C4422 1.524 1_455 S
C4422 C4421 1.524 1_655 S
C4422 C4423 1.397 . S
C4422 C4427 1.363 . S
C4423 H4394 0.950 . S
C4423 C4422 1.397 . S
C4423 C4424 1.334 . S
C4424 H4395 0.950 . S
C4424 C4423 1.334 . S
C4424 C4425 1.287 . S
C4425 C4424 1.287 . S
C4425 C4426 1.524 . S
C4425 H4428 0.999 . S
C4426 H4396 0.950 . S
C4426 C4425 1.524 . S
C4426 C4427 1.415 . S
C4427 H4397 0.950 . S
C4427 C4422 1.363 . S
C4427 C4426 1.415 . S
H4428 C4425 0.999 . S
H4429 C4410 0.913 . S
H4430 C4448 0.951 . S
H4431 C4450 0.951 . S
H4432 C4452 0.950 . S
H4433 C4453 0.950 . S
H4434 C4455 0.950 . S
H4435 C4458 0.950 . S
H4436 C4459 0.950 . S
H4437 C4461 0.950 . S
H4438 C4462 0.950 . S
H4439 C4463 0.951 . S
H4440 C4465 0.951 . S
H4441 C4467 0.950 . S
H4442 C4468 0.950 . S
H4443 C4470 0.950 . S
H4444 C4473 0.950 . S
H4445 C4474 0.950 . S
H4446 C4476 0.950 . S
H4447 C4477 0.950 . S
C4448 H4430 0.951 . S
C4448 C4449 1.366 . S
C4448 C4450 1.388 . S
C4449 C4448 1.366 . S
C4449 C4453 1.385 . S
C4450 H4431 0.951 . S
C4450 C4448 1.388 . S
C4450 C4451 1.366 . S
C4451 C4450 1.366 . S
C4451 C4452 1.414 . S
C4451 C4454 1.499 . S
C4452 H4432 0.950 . S
C4452 C4451 1.414 . S
C4452 C4453 1.374 . S
C4453 H4433 0.950 . S
C4453 C4449 1.385 . S
C4453 C4452 1.374 . S
C4454 C4451 1.499 . S
C4454 C4455 1.373 . S
C4454 C4456 1.389 . S
C4455 H4434 0.950 . S
C4455 C4454 1.373 . S
C4455 C4471 1.377 . S
C4456 C4454 1.389 . S
C4456 C4457 1.524 . S
C4456 C4470 1.377 . S
C4457 C4456 1.524 . S
C4457 C4458 1.397 . S
C4457 C4462 1.363 . S
C4458 H4435 0.950 . S
C4458 C4457 1.397 . S
C4458 C4459 1.334 . S
C4459 H4436 0.950 . S
C4459 C4458 1.334 . S
C4459 C4460 1.287 . S
C4460 C4459 1.287 . S
C4460 C4461 1.524 . S
C4460 H4479 0.913 . S
C4461 H4437 0.950 . S
C4461 C4460 1.524 . S
C4461 C4462 1.415 . S
C4462 H4438 0.950 . S
C4462 C4457 1.363 . S
C4462 C4461 1.415 . S
C4463 H4439 0.951 . S
C4463 C4464 1.366 . S
C4463 C4465 1.388 . S
C4464 C4463 1.366 . S
C4464 C4468 1.385 . S
C4465 H4440 0.951 . S
C4465 C4463 1.388 . S
C4465 C4466 1.366 . S
C4466 C4465 1.366 . S
C4466 C4467 1.414 . S
C4466 C4469 1.499 . S
C4467 H4441 0.950 . S
C4467 C4466 1.414 . S
C4467 C4468 1.374 . S
C4468 H4442 0.950 . S
C4468 C4464 1.385 . S
C4468 C4467 1.374 . S
C4469 C4466 1.499 . S
C4469 C4470 1.373 . S
C4469 C4471 1.389 . S
C4470 H4443 0.950 . S
C4470 C4456 1.377 . S
C4470 C4469 1.373 . S
C4471 C4455 1.377 . S
C4471 C4469 1.389 . S
C4471 C4472 1.524 . S
C4472 C4471 1.524 . S
C4472 C4473 1.397 . S
C4472 C4477 1.363 . S
C4473 H4444 0.950 . S
C4473 C4472 1.397 . S
C4473 C4474 1.334 . S
C4474 H4445 0.950 . S
C4474 C4473 1.334 . S
C4474 C4475 1.287 . S
C4475 C4474 1.287 . S
C4475 C4476 1.524 . S
C4475 H4478 0.999 . S
C4476 H4446 0.950 . S
C4476 C4475 1.524 . S
C4476 C4477 1.415 . S
C4477 H4447 0.950 . S
C4477 C4472 1.363 . S
C4477 C4476 1.415 . S
H4478 C4475 0.999 . S
H4479 C4460 0.913 . S
H4480 C4498 0.951 . S
H4481 C4500 0.951 . S
H4482 C4502 0.950 . S
H4483 C4503 0.950 . S
H4484 C4505 0.950 . S
H4485 C4508 0.950 . S
H4486 C4509 0.950 . S
H4487 C4511 0.950 . S
H4488 C4512 0.950 . S
H4489 C4513 0.951 . S
H4490 C4515 0.951 . S
H4491 C4517 0.950 . S
H4492 C4518 0.950 . S
H4493 C4520 0.950 . S
H4494 C4523 0.950 . S
H4495 C4524 0.950 . S
H4496 C4526 0.950 . S
H4497 C4527 0.950 . S
C4498 H4480 0.951 . S
C4498 C4499 1.366 . S
C4498 C4500 1.388 . S
C4499 C4498 1.366 . S
C4499 C4503 1.385 . S
C4500 H4481 0.951 . S
C4500 C4498 1.388 . S
C4500 C4501 1.366 . S
C4501 C4500 1.366 . S
C4501 C4502 1.414 . S
C4501 C4504 1.499 . S
C4502 H4482 0.950 . S
C4502 C4501 1.414 . S
C4502 C4503 1.374 . S
C4503 H4483 0.950 . S
C4503 C4499 1.385 . S
C4503 C4502 1.374 . S
C4504 C4501 1.499 . S
C4504 C4505 1.373 . S
C4504 C4506 1.389 . S
C4505 H4484 0.950 . S
C4505 C4504 1.373 . S
C4505 C4521 1.377 . S
C4506 C4504 1.389 . S
C4506 C4507 1.524 . S
C4506 C4520 1.377 . S
C4507 C4506 1.524 . S
C4507 C4508 1.397 . S
C4507 C4512 1.363 . S
C4508 H4485 0.950 . S
C4508 C4507 1.397 . S
C4508 C4509 1.334 . S
C4509 H4486 0.950 . S
C4509 C4508 1.334 . S
C4509 C4510 1.287 . S
C4510 C4509 1.287 . S
C4510 C4511 1.524 . S
C4510 H4529 0.913 . S
C4511 H4487 0.950 . S
C4511 C4510 1.524 . S
C4511 C4512 1.415 . S
C4512 H4488 0.950 . S
C4512 C4507 1.363 . S
C4512 C4511 1.415 . S
C4513 H4489 0.951 . S
C4513 C4514 1.366 . S
C4513 C4515 1.388 . S
C4514 C4513 1.366 . S
C4514 C4518 1.385 . S
C4515 H4490 0.951 . S
C4515 C4513 1.388 . S
C4515 C4516 1.366 . S
C4516 C4515 1.366 . S
C4516 C4517 1.414 . S
C4516 C4519 1.499 . S
C4517 H4491 0.950 . S
C4517 C4516 1.414 . S
C4517 C4518 1.374 . S
C4518 H4492 0.950 . S
C4518 C4514 1.385 . S
C4518 C4517 1.374 . S
C4519 C4516 1.499 . S
C4519 C4520 1.373 . S
C4519 C4521 1.389 . S
C4520 H4493 0.950 . S
C4520 C4506 1.377 . S
C4520 C4519 1.373 . S
C4521 C4505 1.377 . S
C4521 C4519 1.389 . S
C4521 C4522 1.524 . S
C4522 C4521 1.524 . S
C4522 C4523 1.397 . S
C4522 C4527 1.363 . S
C4523 H4494 0.950 . S
C4523 C4522 1.397 . S
C4523 C4524 1.334 . S
C4524 H4495 0.950 . S
C4524 C4523 1.334 . S
C4524 C4525 1.287 . S
C4525 C4524 1.287 . S
C4525 C4526 1.524 . S
C4525 H4528 0.999 . S
C4526 H4496 0.950 . S
C4526 C4525 1.524 . S
C4526 C4527 1.415 . S
C4527 H4497 0.950 . S
C4527 C4522 1.363 . S
C4527 C4526 1.415 . S
H4528 C4525 0.999 . S
H4529 C4510 0.913 . S
H4530 C4548 0.951 . S
H4531 C4550 0.951 . S
H4532 C4552 0.950 . S
H4533 C4553 0.950 . S
H4534 C4555 0.950 . S
H4535 C4558 0.950 . S
H4536 C4559 0.950 . S
H4537 C4561 0.950 . S
H4538 C4562 0.950 . S
H4539 C4563 0.951 . S
H4540 C4565 0.951 . S
H4541 C4567 0.950 . S
H4542 C4568 0.950 . S
H4543 C4570 0.950 . S
H4544 C4573 0.950 . S
H4545 C4574 0.950 . S
H4546 C4576 0.950 . S
H4547 C4577 0.950 . S
C4548 H4530 0.951 . S
C4548 C4549 1.366 . S
C4548 C4550 1.388 . S
C4549 C4548 1.366 . S
C4549 C4553 1.385 . S
C4550 H4531 0.951 . S
C4550 C4548 1.388 . S
C4550 C4551 1.366 . S
C4551 C4550 1.366 . S
C4551 C4552 1.414 . S
C4551 C4554 1.499 . S
C4552 H4532 0.950 . S
C4552 C4551 1.414 . S
C4552 C4553 1.374 . S
C4553 H4533 0.950 . S
C4553 C4549 1.385 . S
C4553 C4552 1.374 . S
C4554 C4551 1.499 . S
C4554 C4555 1.373 . S
C4554 C4556 1.389 . S
C4555 H4534 0.950 . S
C4555 C4554 1.373 . S
C4555 C4571 1.377 . S
C4556 C4554 1.389 . S
C4556 C4557 1.524 . S
C4556 C4570 1.377 . S
C4557 C4556 1.524 . S
C4557 C4558 1.397 . S
C4557 C4562 1.363 . S
C4558 H4535 0.950 . S
C4558 C4557 1.397 . S
C4558 C4559 1.334 . S
C4559 H4536 0.950 . S
C4559 C4558 1.334 . S
C4559 C4560 1.287 . S
C4560 C4559 1.287 . S
C4560 C4561 1.524 . S
C4560 H4579 0.913 . S
C4561 H4537 0.950 . S
C4561 C4560 1.524 . S
C4561 C4562 1.415 . S
C4562 H4538 0.950 . S
C4562 C4557 1.363 . S
C4562 C4561 1.415 . S
C4563 H4539 0.951 . S
C4563 C4564 1.366 . S
C4563 C4565 1.388 . S
C4564 C4563 1.366 . S
C4564 C4568 1.385 . S
C4565 H4540 0.951 . S
C4565 C4563 1.388 . S
C4565 C4566 1.366 . S
C4566 C4565 1.366 . S
C4566 C4567 1.414 . S
C4566 C4569 1.499 . S
C4567 H4541 0.950 . S
C4567 C4566 1.414 . S
C4567 C4568 1.374 . S
C4568 H4542 0.950 . S
C4568 C4564 1.385 . S
C4568 C4567 1.374 . S
C4569 C4566 1.499 . S
C4569 C4570 1.373 . S
C4569 C4571 1.389 . S
C4570 H4543 0.950 . S
C4570 C4556 1.377 . S
C4570 C4569 1.373 . S
C4571 C4555 1.377 . S
C4571 C4569 1.389 . S
C4571 C4572 1.524 . S
C4572 C4571 1.524 . S
C4572 C4573 1.397 . S
C4572 C4577 1.363 . S
C4573 H4544 0.950 . S
C4573 C4572 1.397 . S
C4573 C4574 1.334 . S
C4574 H4545 0.950 . S
C4574 C4573 1.334 . S
C4574 C4575 1.287 . S
C4575 C4574 1.287 . S
C4575 C4576 1.524 . S
C4575 H4578 0.999 . S
C4576 H4546 0.950 . S
C4576 C4575 1.524 . S
C4576 C4577 1.415 . S
C4577 H4547 0.950 . S
C4577 C4572 1.363 . S
C4577 C4576 1.415 . S
H4578 C4575 0.999 . S
H4579 C4560 0.913 . S
H4580 C4598 0.951 . S
H4581 C4600 0.951 . S
H4582 C4602 0.950 . S
H4583 C4603 0.950 . S
H4584 C4605 0.950 . S
H4585 C4608 0.950 . S
H4586 C4609 0.950 . S
H4587 C4611 0.950 . S
H4588 C4612 0.950 . S
H4589 C4613 0.951 . S
H4590 C4615 0.951 . S
H4591 C4617 0.950 . S
H4592 C4618 0.950 . S
H4593 C4620 0.950 . S
H4594 C4623 0.950 . S
H4595 C4624 0.950 . S
H4596 C4626 0.950 . S
H4597 C4627 0.950 . S
C4598 H4580 0.951 . S
C4598 C4599 1.366 . S
C4598 C4600 1.388 . S
C4599 C4598 1.366 . S
C4599 C4603 1.385 . S
C4600 H4581 0.951 . S
C4600 C4598 1.388 . S
C4600 C4601 1.366 . S
C4601 C4600 1.366 . S
C4601 C4602 1.414 . S
C4601 C4604 1.499 . S
C4602 H4582 0.950 . S
C4602 C4601 1.414 . S
C4602 C4603 1.374 . S
C4603 H4583 0.950 . S
C4603 C4599 1.385 . S
C4603 C4602 1.374 . S
C4604 C4601 1.499 . S
C4604 C4605 1.373 . S
C4604 C4606 1.389 . S
C4605 H4584 0.950 . S
C4605 C4604 1.373 . S
C4605 C4621 1.377 . S
C4606 C4604 1.389 . S
C4606 C4607 1.524 . S
C4606 C4620 1.377 . S
C4607 C4606 1.524 . S
C4607 C4608 1.397 . S
C4607 C4612 1.363 . S
C4608 H4585 0.950 . S
C4608 C4607 1.397 . S
C4608 C4609 1.334 . S
C4609 H4586 0.950 . S
C4609 C4608 1.334 . S
C4609 C4610 1.287 . S
C4610 C4609 1.287 . S
C4610 C4611 1.524 . S
C4610 H4629 0.913 . S
C4611 H4587 0.950 . S
C4611 C4610 1.524 . S
C4611 C4612 1.415 . S
C4612 H4588 0.950 . S
C4612 C4607 1.363 . S
C4612 C4611 1.415 . S
C4613 H4589 0.951 . S
C4613 C4614 1.366 . S
C4613 C4615 1.388 . S
C4614 C4613 1.366 . S
C4614 C4618 1.385 . S
C4615 H4590 0.951 . S
C4615 C4613 1.388 . S
C4615 C4616 1.366 . S
C4616 C4615 1.366 . S
C4616 C4617 1.414 . S
C4616 C4619 1.499 . S
C4617 H4591 0.950 . S
C4617 C4616 1.414 . S
C4617 C4618 1.374 . S
C4618 H4592 0.950 . S
C4618 C4614 1.385 . S
C4618 C4617 1.374 . S
C4619 C4616 1.499 . S
C4619 C4620 1.373 . S
C4619 C4621 1.389 . S
C4620 H4593 0.950 . S
C4620 C4606 1.377 . S
C4620 C4619 1.373 . S
C4621 C4605 1.377 . S
C4621 C4619 1.389 . S
C4621 C4622 1.524 . S
C4622 C4621 1.524 . S
C4622 C4623 1.397 . S
C4622 C4627 1.363 . S
C4623 H4594 0.950 . S
C4623 C4622 1.397 . S
C4623 C4624 1.334 . S
C4624 H4595 0.950 . S
C4624 C4623 1.334 . S
C4624 C4625 1.287 . S
C4625 C4624 1.287 . S
C4625 C4626 1.524 . S
C4625 H4628 0.999 . S
C4626 H4596 0.950 . S
C4626 C4625 1.524 . S
C4626 C4627 1.415 . S
C4627 H4597 0.950 . S
C4627 C4622 1.363 . S
C4627 C4626 1.415 . S
H4628 C4625 0.999 . S
H4629 C4610 0.913 . S
H4630 C4648 0.951 . S
H4631 C4650 0.951 . S
H4632 C4652 0.950 . S
H4633 C4653 0.950 . S
H4634 C4655 0.950 . S
H4635 C4658 0.950 . S
H4636 C4659 0.950 . S
H4637 C4661 0.950 . S
H4638 C4662 0.950 . S
H4639 C4663 0.951 . S
H4640 C4665 0.951 . S
H4641 C4667 0.950 . S
H4642 C4668 0.950 . S
H4643 C4670 0.950 . S
H4644 C4673 0.950 . S
H4645 C4674 0.950 . S
H4646 C4676 0.950 . S
H4647 C4677 0.950 . S
C4648 H4630 0.951 . S
C4648 C4649 1.366 . S
C4648 C4650 1.388 . S
C4649 C4648 1.366 . S
C4649 C4653 1.385 . S
C4650 H4631 0.951 . S
C4650 C4648 1.388 . S
C4650 C4651 1.366 . S
C4651 C4650 1.366 . S
C4651 C4652 1.414 . S
C4651 C4654 1.499 . S
C4652 H4632 0.950 . S
C4652 C4651 1.414 . S
C4652 C4653 1.374 . S
C4653 H4633 0.950 . S
C4653 C4649 1.385 . S
C4653 C4652 1.374 . S
C4654 C4651 1.499 . S
C4654 C4655 1.373 . S
C4654 C4656 1.389 . S
C4655 H4634 0.950 . S
C4655 C4654 1.373 . S
C4655 C4671 1.377 . S
C4656 C4654 1.389 . S
C4656 C4657 1.524 . S
C4656 C4670 1.377 . S
C4657 C4656 1.524 . S
C4657 C4658 1.397 . S
C4657 C4662 1.363 . S
C4658 H4635 0.950 . S
C4658 C4657 1.397 . S
C4658 C4659 1.334 . S
C4659 H4636 0.950 . S
C4659 C4658 1.334 . S
C4659 C4660 1.287 . S
C4660 C4659 1.287 . S
C4660 C4661 1.524 . S
C4660 H4679 0.913 . S
C4661 H4637 0.950 . S
C4661 C4660 1.524 . S
C4661 C4662 1.415 . S
C4662 H4638 0.950 . S
C4662 C4657 1.363 . S
C4662 C4661 1.415 . S
C4663 H4639 0.951 . S
C4663 C4664 1.366 . S
C4663 C4665 1.388 . S
C4664 C4663 1.366 . S
C4664 C4668 1.385 . S
C4665 H4640 0.951 . S
C4665 C4663 1.388 . S
C4665 C4666 1.366 . S
C4666 C4665 1.366 . S
C4666 C4667 1.414 . S
C4666 C4669 1.499 . S
C4667 H4641 0.950 . S
C4667 C4666 1.414 . S
C4667 C4668 1.374 . S
C4668 H4642 0.950 . S
C4668 C4664 1.385 . S
C4668 C4667 1.374 . S
C4669 C4666 1.499 . S
C4669 C4670 1.373 . S
C4669 C4671 1.389 . S
C4670 H4643 0.950 . S
C4670 C4656 1.377 . S
C4670 C4669 1.373 . S
C4671 C4655 1.377 . S
C4671 C4669 1.389 . S
C4671 C4672 1.524 . S
C4672 C4671 1.524 . S
C4672 C4673 1.397 . S
C4672 C4677 1.363 . S
C4673 H4644 0.950 . S
C4673 C4672 1.397 . S
C4673 C4674 1.334 . S
C4674 H4645 0.950 . S
C4674 C4673 1.334 . S
C4674 C4675 1.287 . S
C4675 C4674 1.287 . S
C4675 C4676 1.524 . S
C4675 H4678 0.999 . S
C4676 H4646 0.950 . S
C4676 C4675 1.524 . S
C4676 C4677 1.415 . S
C4677 H4647 0.950 . S
C4677 C4672 1.363 . S
C4677 C4676 1.415 . S
H4678 C4675 0.999 . S
H4679 C4660 0.913 . S
H4680 C4698 0.951 . S
H4681 C4700 0.951 . S
H4682 C4702 0.950 . S
H4683 C4703 0.950 . S
H4684 C4705 0.950 . S
H4685 C4708 0.950 . S
H4686 C4709 0.950 . S
H4687 C4711 0.950 . S
H4688 C4712 0.950 . S
H4689 C4713 0.951 . S
H4690 C4715 0.951 . S
H4691 C4717 0.950 . S
H4692 C4718 0.950 . S
H4693 C4720 0.950 . S
H4694 C4723 0.950 . S
H4695 C4724 0.950 . S
H4696 C4726 0.950 . S
H4697 C4727 0.950 . S
C4698 H4680 0.951 . S
C4698 C4699 1.366 . S
C4698 C4700 1.388 . S
C4699 C4698 1.366 . S
C4699 C4703 1.385 . S
C4700 H4681 0.951 . S
C4700 C4698 1.388 . S
C4700 C4701 1.366 . S
C4701 C4700 1.366 . S
C4701 C4702 1.414 . S
C4701 C4704 1.499 . S
C4702 H4682 0.950 . S
C4702 C4701 1.414 . S
C4702 C4703 1.374 . S
C4703 H4683 0.950 . S
C4703 C4699 1.385 . S
C4703 C4702 1.374 . S
C4704 C4701 1.499 . S
C4704 C4705 1.373 . S
C4704 C4706 1.389 . S
C4705 H4684 0.950 . S
C4705 C4704 1.373 . S
C4705 C4721 1.377 . S
C4706 C4704 1.389 . S
C4706 C4707 1.524 . S
C4706 C4720 1.377 . S
C4707 C4706 1.524 . S
C4707 C4708 1.397 . S
C4707 C4712 1.363 . S
C4708 H4685 0.950 . S
C4708 C4707 1.397 . S
C4708 C4709 1.334 . S
C4709 H4686 0.950 . S
C4709 C4708 1.334 . S
C4709 C4710 1.287 . S
C4710 C4709 1.287 . S
C4710 C4711 1.524 . S
C4710 H4729 0.913 . S
C4711 H4687 0.950 . S
C4711 C4710 1.524 . S
C4711 C4712 1.415 . S
C4712 H4688 0.950 . S
C4712 C4707 1.363 . S
C4712 C4711 1.415 . S
C4713 H4689 0.951 . S
C4713 C4714 1.366 . S
C4713 C4715 1.388 . S
C4714 C4713 1.366 . S
C4714 C4718 1.385 . S
C4715 H4690 0.951 . S
C4715 C4713 1.388 . S
C4715 C4716 1.366 . S
C4716 C4715 1.366 . S
C4716 C4717 1.414 . S
C4716 C4719 1.499 . S
C4717 H4691 0.950 . S
C4717 C4716 1.414 . S
C4717 C4718 1.374 . S
C4718 H4692 0.950 . S
C4718 C4714 1.385 . S
C4718 C4717 1.374 . S
C4719 C4716 1.499 . S
C4719 C4720 1.373 . S
C4719 C4721 1.389 . S
C4720 H4693 0.950 . S
C4720 C4706 1.377 . S
C4720 C4719 1.373 . S
C4721 C4705 1.377 . S
C4721 C4719 1.389 . S
C4721 C4722 1.524 . S
C4722 C4721 1.524 . S
C4722 C4723 1.397 . S
C4722 C4727 1.363 . S
C4723 H4694 0.950 . S
C4723 C4722 1.397 . S
C4723 C4724 1.334 . S
C4724 H4695 0.950 . S
C4724 C4723 1.334 . S
C4724 C4725 1.287 . S
C4725 C4724 1.287 . S
C4725 C4726 1.524 . S
C4725 H4728 0.999 . S
C4726 H4696 0.950 . S
C4726 C4725 1.524 . S
C4726 C4727 1.415 . S
C4727 H4697 0.950 . S
C4727 C4722 1.363 . S
C4727 C4726 1.415 . S
H4728 C4725 0.999 . S
H4729 C4710 0.913 . S
H4730 C4748 0.951 . S
H4731 C4750 0.951 . S
H4732 C4752 0.950 . S
H4733 C4753 0.950 . S
H4734 C4755 0.950 . S
H4735 C4758 0.950 . S
H4736 C4759 0.950 . S
H4737 C4761 0.950 . S
H4738 C4762 0.950 . S
H4739 C4763 0.951 . S
H4740 C4765 0.951 . S
H4741 C4767 0.950 . S
H4742 C4768 0.950 . S
H4743 C4770 0.950 . S
H4744 C4773 0.950 . S
H4745 C4774 0.950 . S
H4746 C4776 0.950 . S
H4747 C4777 0.950 . S
C4748 H4730 0.951 . S
C4748 C4749 1.366 . S
C4748 C4750 1.388 . S
C4749 C4748 1.366 . S
C4749 C4753 1.385 . S
C4750 H4731 0.951 . S
C4750 C4748 1.388 . S
C4750 C4751 1.366 . S
C4751 C4750 1.366 . S
C4751 C4752 1.414 . S
C4751 C4754 1.499 . S
C4752 H4732 0.950 . S
C4752 C4751 1.414 . S
C4752 C4753 1.374 . S
C4753 H4733 0.950 . S
C4753 C4749 1.385 . S
C4753 C4752 1.374 . S
C4754 C4751 1.499 . S
C4754 C4755 1.373 . S
C4754 C4756 1.389 . S
C4755 H4734 0.950 . S
C4755 C4754 1.373 . S
C4755 C4771 1.377 . S
C4756 C4754 1.389 . S
C4756 C4757 1.524 . S
C4756 C4770 1.377 . S
C4757 C4756 1.524 . S
C4757 C4758 1.397 . S
C4757 C4762 1.363 . S
C4758 H4735 0.950 . S
C4758 C4757 1.397 . S
C4758 C4759 1.334 . S
C4759 H4736 0.950 . S
C4759 C4758 1.334 . S
C4759 C4760 1.287 . S
C4760 C4759 1.287 . S
C4760 C4761 1.524 . S
C4760 H4779 0.913 . S
C4761 H4737 0.950 . S
C4761 C4760 1.524 . S
C4761 C4762 1.415 . S
C4762 H4738 0.950 . S
C4762 C4757 1.363 . S
C4762 C4761 1.415 . S
C4763 H4739 0.951 . S
C4763 C4764 1.366 . S
C4763 C4765 1.388 . S
C4764 C4763 1.366 . S
C4764 C4768 1.385 . S
C4765 H4740 0.951 . S
C4765 C4763 1.388 . S
C4765 C4766 1.366 . S
C4766 C4765 1.366 . S
C4766 C4767 1.414 . S
C4766 C4769 1.499 . S
C4767 H4741 0.950 . S
C4767 C4766 1.414 . S
C4767 C4768 1.374 . S
C4768 H4742 0.950 . S
C4768 C4764 1.385 . S
C4768 C4767 1.374 . S
C4769 C4766 1.499 . S
C4769 C4770 1.373 . S
C4769 C4771 1.389 . S
C4770 H4743 0.950 . S
C4770 C4756 1.377 . S
C4770 C4769 1.373 . S
C4771 C4755 1.377 . S
C4771 C4769 1.389 . S
C4771 C4772 1.524 . S
C4772 C4771 1.524 . S
C4772 C4773 1.397 . S
C4772 C4777 1.363 . S
C4773 H4744 0.950 . S
C4773 C4772 1.397 . S
C4773 C4774 1.334 . S
C4774 H4745 0.950 . S
C4774 C4773 1.334 . S
C4774 C4775 1.287 . S
C4775 C4774 1.287 . S
C4775 C4776 1.524 . S
C4775 H4778 0.999 . S
C4776 H4746 0.950 . S
C4776 C4775 1.524 . S
C4776 C4777 1.415 . S
C4777 H4747 0.950 . S
C4777 C4772 1.363 . S
C4777 C4776 1.415 . S
H4778 C4775 0.999 . S
H4779 C4760 0.913 . S
H4780 C4798 0.951 . S
H4781 C4800 0.951 . S
H4782 C4802 0.950 . S
H4783 C4803 0.950 . S
H4784 C4805 0.950 . S
H4785 C4808 0.950 . S
H4786 C4809 0.950 . S
H4787 C4811 0.950 . S
H4788 C4812 0.950 . S
H4789 C4813 0.951 . S
H4790 C4815 0.951 . S
H4791 C4817 0.950 . S
H4792 C4818 0.950 . S
H4793 C4820 0.950 . S
H4794 C4823 0.950 . S
H4795 C4824 0.950 . S
H4796 C4826 0.950 . S
H4797 C4827 0.950 . S
C4798 H4780 0.951 . S
C4798 C4799 1.366 . S
C4798 C4800 1.388 . S
C4799 C4798 1.366 . S
C4799 C4803 1.385 . S
C4800 H4781 0.951 . S
C4800 C4798 1.388 . S
C4800 C4801 1.366 . S
C4801 C4800 1.366 . S
C4801 C4802 1.414 . S
C4801 C4804 1.499 . S
C4802 H4782 0.950 . S
C4802 C4801 1.414 . S
C4802 C4803 1.374 . S
C4803 H4783 0.950 . S
C4803 C4799 1.385 . S
C4803 C4802 1.374 . S
C4804 C4801 1.499 . S
C4804 C4805 1.373 . S
C4804 C4806 1.389 . S
C4805 H4784 0.950 . S
C4805 C4804 1.373 . S
C4805 C4821 1.377 . S
C4806 C4804 1.389 . S
C4806 C4807 1.524 . S
C4806 C4820 1.377 . S
C4807 C4806 1.524 . S
C4807 C4808 1.397 . S
C4807 C4812 1.363 . S
C4808 H4785 0.950 . S
C4808 C4807 1.397 . S
C4808 C4809 1.334 . S
C4809 H4786 0.950 . S
C4809 C4808 1.334 . S
C4809 C4810 1.287 . S
C4810 C4809 1.287 . S
C4810 C4811 1.524 . S
C4810 H4829 0.913 . S
C4811 H4787 0.950 . S
C4811 C4810 1.524 . S
C4811 C4812 1.415 . S
C4812 H4788 0.950 . S
C4812 C4807 1.363 . S
C4812 C4811 1.415 . S
C4813 H4789 0.951 . S
C4813 C4814 1.366 . S
C4813 C4815 1.388 . S
C4814 C4813 1.366 . S
C4814 C4818 1.385 . S
C4815 H4790 0.951 . S
C4815 C4813 1.388 . S
C4815 C4816 1.366 . S
C4816 C4815 1.366 . S
C4816 C4817 1.414 . S
C4816 C4819 1.499 . S
C4817 H4791 0.950 . S
C4817 C4816 1.414 . S
C4817 C4818 1.374 . S
C4818 H4792 0.950 . S
C4818 C4814 1.385 . S
C4818 C4817 1.374 . S
C4819 C4816 1.499 . S
C4819 C4820 1.373 . S
C4819 C4821 1.389 . S
C4820 H4793 0.950 . S
C4820 C4806 1.377 . S
C4820 C4819 1.373 . S
C4821 C4805 1.377 . S
C4821 C4819 1.389 . S
C4821 C4822 1.524 . S
C4822 C4821 1.524 . S
C4822 C4823 1.397 . S
C4822 C4827 1.363 . S
C4823 H4794 0.950 . S
C4823 C4822 1.397 . S
C4823 C4824 1.334 . S
C4824 H4795 0.950 . S
C4824 C4823 1.334 . S
C4824 C4825 1.287 . S
C4825 C4824 1.287 . S
C4825 C4826 1.524 . S
C4825 H4828 0.999 . S
C4826 H4796 0.950 . S
C4826 C4825 1.524 . S
C4826 C4827 1.415 . S
C4827 H4797 0.950 . S
C4827 C4822 1.363 . S
C4827 C4826 1.415 . S
H4828 C4825 0.999 . S
H4829 C4810 0.913 . S
H4830 C4848 0.951 . S
H4831 C4850 0.951 . S
H4832 C4852 0.950 . S
H4833 C4853 0.950 . S
H4834 C4855 0.950 . S
H4835 C4858 0.950 . S
H4836 C4859 0.950 . S
H4837 C4861 0.950 . S
H4838 C4862 0.950 . S
H4839 C4863 0.951 . S
H4840 C4865 0.951 . S
H4841 C4867 0.950 . S
H4842 C4868 0.950 . S
H4843 C4870 0.950 . S
H4844 C4873 0.950 . S
H4845 C4874 0.950 . S
H4846 C4876 0.950 . S
H4847 C4877 0.950 . S
C4848 H4830 0.951 . S
C4848 C4849 1.366 . S
C4848 C4850 1.388 . S
C4849 C4848 1.366 . S
C4849 C4853 1.385 . S
C4850 H4831 0.951 . S
C4850 C4848 1.388 . S
C4850 C4851 1.366 . S
C4851 C4850 1.366 . S
C4851 C4852 1.414 . S
C4851 C4854 1.499 . S
C4852 H4832 0.950 . S
C4852 C4851 1.414 . S
C4852 C4853 1.374 . S
C4853 H4833 0.950 . S
C4853 C4849 1.385 . S
C4853 C4852 1.374 . S
C4854 C4851 1.499 . S
C4854 C4855 1.373 . S
C4854 C4856 1.389 . S
C4855 H4834 0.950 . S
C4855 C4854 1.373 . S
C4855 C4871 1.377 . S
C4856 C4854 1.389 . S
C4856 C4857 1.524 . S
C4856 C4870 1.377 . S
C4857 C4856 1.524 . S
C4857 C4858 1.397 . S
C4857 C4862 1.363 . S
C4858 H4835 0.950 . S
C4858 C4857 1.397 . S
C4858 C4859 1.334 . S
C4859 H4836 0.950 . S
C4859 C4858 1.334 . S
C4859 C4860 1.287 . S
C4860 C4859 1.287 . S
C4860 C4861 1.524 . S
C4860 H4879 0.913 . S
C4861 H4837 0.950 . S
C4861 C4860 1.524 . S
C4861 C4862 1.415 . S
C4862 H4838 0.950 . S
C4862 C4857 1.363 . S
C4862 C4861 1.415 . S
C4863 H4839 0.951 . S
C4863 C4864 1.366 . S
C4863 C4865 1.388 . S
C4864 C4863 1.366 . S
C4864 C4868 1.385 . S
C4865 H4840 0.951 . S
C4865 C4863 1.388 . S
C4865 C4866 1.366 . S
C4866 C4865 1.366 . S
C4866 C4867 1.414 . S
C4866 C4869 1.499 . S
C4867 H4841 0.950 . S
C4867 C4866 1.414 . S
C4867 C4868 1.374 . S
C4868 H4842 0.950 . S
C4868 C4864 1.385 . S
C4868 C4867 1.374 . S
C4869 C4866 1.499 . S
C4869 C4870 1.373 . S
C4869 C4871 1.389 . S
C4870 H4843 0.950 . S
C4870 C4856 1.377 . S
C4870 C4869 1.373 . S
C4871 C4855 1.377 . S
C4871 C4869 1.389 . S
C4871 C4872 1.524 . S
C4872 C4871 1.524 . S
C4872 C4873 1.397 . S
C4872 C4877 1.363 . S
C4873 H4844 0.950 . S
C4873 C4872 1.397 . S
C4873 C4874 1.334 . S
C4874 H4845 0.950 . S
C4874 C4873 1.334 . S
C4874 C4875 1.287 . S
C4875 C4874 1.287 . S
C4875 C4876 1.524 . S
C4875 H4878 0.999 . S
C4876 H4846 0.950 . S
C4876 C4875 1.524 . S
C4876 C4877 1.415 . S
C4877 H4847 0.950 . S
C4877 C4872 1.363 . S
C4877 C4876 1.415 . S
H4878 C4875 0.999 . S
H4879 C4860 0.913 . S
H4880 C4898 0.951 . S
H4881 C4900 0.951 . S
H4882 C4902 0.950 . S
H4883 C4903 0.950 . S
H4884 C4905 0.950 . S
H4885 C4908 0.950 . S
H4886 C4909 0.950 . S
H4887 C4911 0.950 . S
H4888 C4912 0.950 . S
H4889 C4913 0.951 . S
H4890 C4915 0.951 . S
H4891 C4917 0.950 . S
H4892 C4918 0.950 . S
H4893 C4920 0.950 . S
H4894 C4923 0.950 . S
H4895 C4924 0.950 . S
H4896 C4926 0.950 . S
H4897 C4927 0.950 . S
C4898 H4880 0.951 . S
C4898 C4899 1.366 . S
C4898 C4900 1.388 . S
C4899 C4898 1.366 . S
C4899 C4903 1.385 . S
C4900 H4881 0.951 . S
C4900 C4898 1.388 . S
C4900 C4901 1.366 . S
C4901 C4900 1.366 . S
C4901 C4902 1.414 . S
C4901 C4904 1.499 . S
C4902 H4882 0.950 . S
C4902 C4901 1.414 . S
C4902 C4903 1.374 . S
C4903 H4883 0.950 . S
C4903 C4899 1.385 . S
C4903 C4902 1.374 . S
C4904 C4901 1.499 . S
C4904 C4905 1.373 . S
C4904 C4906 1.389 . S
C4905 H4884 0.950 . S
C4905 C4904 1.373 . S
C4905 C4921 1.377 . S
C4906 C4904 1.389 . S
C4906 C4907 1.524 . S
C4906 C4920 1.377 . S
C4907 C4906 1.524 . S
C4907 C4908 1.397 . S
C4907 C4912 1.363 . S
C4908 H4885 0.950 . S
C4908 C4907 1.397 . S
C4908 C4909 1.334 . S
C4909 H4886 0.950 . S
C4909 C4908 1.334 . S
C4909 C4910 1.287 . S
C4910 C4909 1.287 . S
C4910 C4911 1.524 . S
C4910 H4929 0.913 . S
C4911 H4887 0.950 . S
C4911 C4910 1.524 . S
C4911 C4912 1.415 . S
C4912 H4888 0.950 . S
C4912 C4907 1.363 . S
C4912 C4911 1.415 . S
C4913 H4889 0.951 . S
C4913 C4914 1.366 . S
C4913 C4915 1.388 . S
C4914 C4913 1.366 . S
C4914 C4918 1.385 . S
C4915 H4890 0.951 . S
C4915 C4913 1.388 . S
C4915 C4916 1.366 . S
C4916 C4915 1.366 . S
C4916 C4917 1.414 . S
C4916 C4919 1.499 . S
C4917 H4891 0.950 . S
C4917 C4916 1.414 . S
C4917 C4918 1.374 . S
C4918 H4892 0.950 . S
C4918 C4914 1.385 . S
C4918 C4917 1.374 . S
C4919 C4916 1.499 . S
C4919 C4920 1.373 . S
C4919 C4921 1.389 . S
C4920 H4893 0.950 . S
C4920 C4906 1.377 . S
C4920 C4919 1.373 . S
C4921 C4905 1.377 . S
C4921 C4919 1.389 . S
C4921 C4922 1.524 . S
C4922 C4921 1.524 . S
C4922 C4923 1.397 . S
C4922 C4927 1.363 . S
C4923 H4894 0.950 . S
C4923 C4922 1.397 . S
C4923 C4924 1.334 . S
C4924 H4895 0.950 . S
C4924 C4923 1.334 . S
C4924 C4925 1.287 . S
C4925 C4924 1.287 . S
C4925 C4926 1.524 . S
C4925 H4928 0.999 . S
C4926 H4896 0.950 . S
C4926 C4925 1.524 . S
C4926 C4927 1.415 . S
C4927 H4897 0.950 . S
C4927 C4922 1.363 . S
C4927 C4926 1.415 . S
H4928 C4925 0.999 . S
H4929 C4910 0.913 . S
H4930 C4948 0.951 . S
H4931 C4950 0.951 . S
H4932 C4952 0.950 . S
H4933 C4953 0.950 . S
H4934 C4955 0.950 . S
H4935 C4958 0.950 . S
H4936 C4959 0.950 . S
H4937 C4961 0.950 . S
H4938 C4962 0.950 . S
H4939 C4963 0.951 . S
H4940 C4965 0.951 . S
H4941 C4967 0.950 . S
H4942 C4968 0.950 . S
H4943 C4970 0.950 . S
H4944 C4973 0.950 . S
H4945 C4974 0.950 . S
H4946 C4976 0.950 . S
H4947 C4977 0.950 . S
C4948 H4930 0.951 . S
C4948 C4949 1.366 . S
C4948 C4950 1.388 . S
C4949 C4948 1.366 . S
C4949 C4953 1.385 . S
C4950 H4931 0.951 . S
C4950 C4948 1.388 . S
C4950 C4951 1.366 . S
C4951 C4950 1.366 . S
C4951 C4952 1.414 . S
C4951 C4954 1.499 . S
C4952 H4932 0.950 . S
C4952 C4951 1.414 . S
C4952 C4953 1.374 . S
C4953 H4933 0.950 . S
C4953 C4949 1.385 . S
C4953 C4952 1.374 . S
C4954 C4951 1.499 . S
C4954 C4955 1.373 . S
C4954 C4956 1.389 . S
C4955 H4934 0.950 . S
C4955 C4954 1.373 . S
C4955 C4971 1.377 . S
C4956 C4954 1.389 . S
C4956 C4957 1.524 . S
C4956 C4970 1.377 . S
C4957 C4956 1.524 . S
C4957 C4958 1.397 . S
C4957 C4962 1.363 . S
C4958 H4935 0.950 . S
C4958 C4957 1.397 . S
C4958 C4959 1.334 . S
C4959 H4936 0.950 . S
C4959 C4958 1.334 . S
C4959 C4960 1.287 . S
C4960 C4959 1.287 . S
C4960 C4961 1.524 . S
C4960 H4979 0.913 . S
C4961 H4937 0.950 . S
C4961 C4960 1.524 . S
C4961 C4962 1.415 . S
C4962 H4938 0.950 . S
C4962 C4957 1.363 . S
C4962 C4961 1.415 . S
C4963 H4939 0.951 . S
C4963 C4964 1.366 . S
C4963 C4965 1.388 . S
C4964 C4963 1.366 . S
C4964 C4968 1.385 . S
C4965 H4940 0.951 . S
C4965 C4963 1.388 . S
C4965 C4966 1.366 . S
C4966 C4965 1.366 . S
C4966 C4967 1.414 . S
C4966 C4969 1.499 . S
C4967 H4941 0.950 . S
C4967 C4966 1.414 . S
C4967 C4968 1.374 . S
C4968 H4942 0.950 . S
C4968 C4964 1.385 . S
C4968 C4967 1.374 . S
C4969 C4966 1.499 . S
C4969 C4970 1.373 . S
C4969 C4971 1.389 . S
C4970 H4943 0.950 . S
C4970 C4956 1.377 . S
C4970 C4969 1.373 . S
C4971 C4955 1.377 . S
C4971 C4969 1.389 . S
C4971 C4972 1.524 . S
C4972 C4971 1.524 . S
C4972 C4973 1.397 . S
C4972 C4977 1.363 . S
C4973 H4944 0.950 . S
C4973 C4972 1.397 . S
C4973 C4974 1.334 . S
C4974 H4945 0.950 . S
C4974 C4973 1.334 . S
C4974 C4975 1.287 . S
C4975 C4974 1.287 . S
C4975 C4976 1.524 . S
C4975 H4978 0.999 . S
C4976 H4946 0.950 . S
C4976 C4975 1.524 . S
C4976 C4977 1.415 . S
C4977 H4947 0.950 . S
C4977 C4972 1.363 . S
C4977 C4976 1.415 . S
H4978 C4975 0.999 . S
H4979 C4960 0.913 . S
H4980 C4998 0.951 . S
H4981 C5000 0.951 . S
H4982 C5002 0.950 . S
H4983 C5003 0.950 . S
H4984 C5005 0.950 . S
H4985 C5008 0.950 . S
H4986 C5009 0.950 . S
H4987 C5011 0.950 . S
H4988 C5012 0.950 . S
H4989 C5013 0.951 . S
H4990 C5015 0.951 . S
H4991 C5017 0.950 . S
H4992 C5018 0.950 . S
H4993 C5020 0.950 . S
H4994 C5023 0.950 . S
H4995 C5024 0.950 . S
H4996 C5026 0.950 . S
H4997 C5027 0.950 . S
C4998 H4980 0.951 . S
C4998 C4999 1.366 . S
C4998 C5000 1.388 . S
C4999 C4998 1.366 . S
C4999 C5003 1.385 . S
C5000 H4981 0.951 . S
C5000 C4998 1.388 . S
C5000 C5001 1.366 . S
C5001 C5000 1.366 . S
C5001 C5002 1.414 . S
C5001 C5004 1.499 . S
C5002 H4982 0.950 . S
C5002 C5001 1.414 . S
C5002 C5003 1.374 . S
C5003 H4983 0.950 . S
C5003 C4999 1.385 . S
C5003 C5002 1.374 . S
C5004 C5001 1.499 . S
C5004 C5005 1.373 . S
C5004 C5006 1.389 . S
C5005 H4984 0.950 . S
C5005 C5004 1.373 . S
C5005 C5021 1.377 . S
C5006 C5004 1.389 . S
C5006 C5007 1.524 . S
C5006 C5020 1.377 . S
C5007 C5006 1.524 . S
C5007 C5008 1.397 . S
C5007 C5012 1.363 . S
C5008 H4985 0.950 . S
C5008 C5007 1.397 . S
C5008 C5009 1.334 . S
C5009 H4986 0.950 . S
C5009 C5008 1.334 . S
C5009 C5010 1.287 . S
C5010 C5009 1.287 . S
C5010 C5011 1.524 . S
C5010 H5029 0.913 . S
C5011 H4987 0.950 . S
C5011 C5010 1.524 . S
C5011 C5012 1.415 . S
C5012 H4988 0.950 . S
C5012 C5007 1.363 . S
C5012 C5011 1.415 . S
C5013 H4989 0.951 . S
C5013 C5014 1.366 . S
C5013 C5015 1.388 . S
C5014 C5013 1.366 . S
C5014 C5018 1.385 . S
C5015 H4990 0.951 . S
C5015 C5013 1.388 . S
C5015 C5016 1.366 . S
C5016 C5015 1.366 . S
C5016 C5017 1.414 . S
C5016 C5019 1.499 . S
C5017 H4991 0.950 . S
C5017 C5016 1.414 . S
C5017 C5018 1.374 . S
C5018 H4992 0.950 . S
C5018 C5014 1.385 . S
C5018 C5017 1.374 . S
C5019 C5016 1.499 . S
C5019 C5020 1.373 . S
C5019 C5021 1.389 . S
C5020 H4993 0.950 . S
C5020 C5006 1.377 . S
C5020 C5019 1.373 . S
C5021 C5005 1.377 . S
C5021 C5019 1.389 . S
C5021 C5022 1.524 . S
C5022 C5021 1.524 . S
C5022 C5023 1.397 . S
C5022 C5027 1.363 . S
C5023 H4994 0.950 . S
C5023 C5022 1.397 . S
C5023 C5024 1.334 . S
C5024 H4995 0.950 . S
C5024 C5023 1.334 . S
C5024 C5025 1.287 . S
C5025 C5024 1.287 . S
C5025 C5026 1.524 . S
C5025 H5028 0.999 . S
C5026 H4996 0.950 . S
C5026 C5025 1.524 . S
C5026 C5027 1.415 . S
C5027 H4997 0.950 . S
C5027 C5022 1.363 . S
C5027 C5026 1.415 . S
H5028 C5025 0.999 . S
H5029 C5010 0.913 . S
H5030 C5048 0.951 . S
H5031 C5050 0.951 . S
H5032 C5052 0.950 . S
H5033 C5053 0.950 . S
H5034 C5055 0.950 . S
H5035 C5058 0.950 . S
H5036 C5059 0.950 . S
H5037 C5061 0.950 1_545 S
H5038 C5062 0.950 1_545 S
H5039 C5063 0.951 . S
H5040 C5065 0.948 1_565 S
H5041 C5067 0.950 . S
H5042 C5068 0.950 . S
H5043 C5070 0.922 1_546 S
H5044 C5073 0.950 . S
H5045 C5074 0.950 . S
H5046 C5076 0.950 . S
H5047 C5077 0.950 . S
C5048 H5030 0.951 . S
C5048 C5049 1.366 . S
C5048 C5050 1.388 . S
C5049 C5048 1.366 . S
C5049 C5053 1.385 . S
C5050 H5031 0.951 . S
C5050 C5048 1.388 . S
C5050 C5051 1.366 . S
C5051 C5050 1.366 . S
C5051 C5052 1.414 . S
C5051 C5054 1.499 . S
C5052 H5032 0.950 . S
C5052 C5051 1.414 . S
C5052 C5053 1.374 . S
C5053 H5033 0.950 . S
C5053 C5049 1.385 . S
C5053 C5052 1.374 . S
C5054 C5051 1.499 . S
C5054 C5055 1.373 . S
C5054 C5056 1.389 . S
C5055 H5034 0.950 . S
C5055 C5054 1.373 . S
C5055 C5071 1.377 . S
C5056 C5054 1.389 . S
C5056 C5057 1.524 1_554 S
C5056 C5070 1.377 . S
C5057 C5056 1.524 1_556 S
C5057 C5058 1.397 . S
C5057 C5062 1.363 . S
C5058 H5035 0.950 . S
C5058 C5057 1.397 . S
C5058 C5059 1.334 . S
C5059 H5036 0.950 . S
C5059 C5058 1.334 . S
C5059 C5060 1.287 . S
C5060 C5059 1.287 . S
C5060 C5061 1.524 . S
C5060 H5079 0.913 . S
C5061 H5037 0.950 1_565 S
C5061 C5060 1.524 . S
C5061 C5062 1.415 . S
C5062 H5038 0.950 1_565 S
C5062 C5057 1.363 . S
C5062 C5061 1.415 . S
C5063 H5039 0.951 . S
C5063 C5064 1.366 . S
C5063 C5065 1.389 . S
C5064 C5063 1.366 . S
C5064 C5068 1.385 . S
C5065 H5040 0.948 1_545 S
C5065 C5063 1.389 . S
C5065 C5066 1.368 . S
C5066 C5065 1.368 . S
C5066 C5067 1.414 . S
C5066 C5069 1.499 1_545 S
C5067 H5041 0.950 . S
C5067 C5066 1.414 . S
C5067 C5068 1.374 . S
C5068 H5042 0.950 . S
C5068 C5064 1.385 . S
C5068 C5067 1.374 . S
C5069 C5066 1.499 1_565 S
C5069 C5070 1.373 . S
C5069 C5071 1.389 . S
C5070 H5043 0.922 1_564 S
C5070 C5056 1.377 . S
C5070 C5069 1.373 . S
C5071 C5055 1.377 . S
C5071 C5069 1.389 . S
C5071 C5072 1.524 . S
C5072 C5071 1.524 . S
C5072 C5073 1.397 1_565 S
C5072 C5077 1.363 . S
C5073 H5044 0.950 . S
C5073 C5072 1.397 1_545 S
C5073 C5074 1.334 . S
C5074 H5045 0.950 . S
C5074 C5073 1.334 . S
C5074 C5075 1.279 1_545 S
C5075 C5074 1.279 1_565 S
C5075 C5076 1.531 . S
C5075 H5078 1.000 1_565 S
C5076 H5046 0.950 . S
C5076 C5075 1.531 . S
C5076 C5077 1.415 . S
C5077 H5047 0.950 . S
C5077 C5072 1.363 . S
C5077 C5076 1.415 . S
H5078 C5075 1.000 1_545 S
H5079 C5060 0.913 . S
H5080 C5098 0.951 . S
H5081 C5100 0.951 . S
H5082 C5102 0.950 . S
H5083 C5103 0.950 . S
H5084 C5105 0.950 . S
H5085 C5108 0.950 . S
H5086 C5109 0.950 . S
H5087 C5111 0.950 . S
H5088 C5112 0.950 . S
H5089 C5113 0.951 . S
H5090 C5115 0.951 . S
H5091 C5117 0.950 . S
H5092 C5118 0.950 . S
H5093 C5120 0.950 . S
H5094 C5123 0.950 . S
H5095 C5124 0.950 . S
H5096 C5126 0.950 . S
H5097 C5127 0.950 . S
C5098 H5080 0.951 . S
C5098 C5099 1.366 . S
C5098 C5100 1.388 . S
C5099 C5098 1.366 . S
C5099 C5103 1.385 . S
C5100 H5081 0.951 . S
C5100 C5098 1.388 . S
C5100 C5101 1.366 . S
C5101 C5100 1.366 . S
C5101 C5102 1.414 . S
C5101 C5104 1.499 . S
C5102 H5082 0.950 . S
C5102 C5101 1.414 . S
C5102 C5103 1.374 . S
C5103 H5083 0.950 . S
C5103 C5099 1.385 . S
C5103 C5102 1.374 . S
C5104 C5101 1.499 . S
C5104 C5105 1.373 . S
C5104 C5106 1.389 . S
C5105 H5084 0.950 . S
C5105 C5104 1.373 . S
C5105 C5121 1.377 . S
C5106 C5104 1.389 . S
C5106 C5107 1.524 . S
C5106 C5120 1.377 . S
C5107 C5106 1.524 . S
C5107 C5108 1.397 . S
C5107 C5112 1.363 . S
C5108 H5085 0.950 . S
C5108 C5107 1.397 . S
C5108 C5109 1.334 . S
C5109 H5086 0.950 . S
C5109 C5108 1.334 . S
C5109 C5110 1.287 . S
C5110 C5109 1.287 . S
C5110 C5111 1.524 . S
C5110 H5129 0.913 . S
C5111 H5087 0.950 . S
C5111 C5110 1.524 . S
C5111 C5112 1.415 . S
C5112 H5088 0.950 . S
C5112 C5107 1.363 . S
C5112 C5111 1.415 . S
C5113 H5089 0.951 . S
C5113 C5114 1.366 . S
C5113 C5115 1.388 . S
C5114 C5113 1.366 . S
C5114 C5118 1.385 . S
C5115 H5090 0.951 . S
C5115 C5113 1.388 . S
C5115 C5116 1.366 . S
C5116 C5115 1.366 . S
C5116 C5117 1.414 . S
C5116 C5119 1.499 . S
C5117 H5091 0.950 . S
C5117 C5116 1.414 . S
C5117 C5118 1.374 . S
C5118 H5092 0.950 . S
C5118 C5114 1.385 . S
C5118 C5117 1.374 . S
C5119 C5116 1.499 . S
C5119 C5120 1.373 . S
C5119 C5121 1.389 . S
C5120 H5093 0.950 . S
C5120 C5106 1.377 . S
C5120 C5119 1.373 . S
C5121 C5105 1.377 . S
C5121 C5119 1.389 . S
C5121 C5122 1.524 . S
C5122 C5121 1.524 . S
C5122 C5123 1.397 . S
C5122 C5127 1.363 . S
C5123 H5094 0.950 . S
C5123 C5122 1.397 . S
C5123 C5124 1.334 . S
C5124 H5095 0.950 . S
C5124 C5123 1.334 . S
C5124 C5125 1.287 . S
C5125 C5124 1.287 . S
C5125 C5126 1.524 . S
C5125 H5128 0.999 . S
C5126 H5096 0.950 . S
C5126 C5125 1.524 . S
C5126 C5127 1.415 . S
C5127 H5097 0.950 . S
C5127 C5122 1.363 . S
C5127 C5126 1.415 . S
H5128 C5125 0.999 . S
H5129 C5110 0.913 . S
H5130 C5148 0.951 . S
H5131 C5150 0.951 . S
H5132 C5152 0.917 1_556 S
H5133 C5153 0.910 1_556 S
H5134 C5155 0.950 1_556 S
H5135 C5158 0.950 . S
H5136 C5159 0.950 . S
H5137 C5161 0.950 . S
H5138 C5162 0.950 . S
H5139 C5163 0.951 . S
H5140 C5165 0.951 . S
H5141 C5167 0.950 . S
H5142 C5168 0.950 . S
H5143 C5170 0.950 . S
H5144 C5173 0.950 1_554 S
H5145 C5174 0.950 . S
H5146 C5176 0.950 . S
H5147 C5177 0.950 . S
C5148 H5130 0.951 . S
C5148 C5149 1.366 . S
C5148 C5150 1.388 . S
C5149 C5148 1.366 . S
C5149 C5153 1.411 . S
C5150 H5131 0.951 . S
C5150 C5148 1.388 . S
C5150 C5151 1.366 . S
C5151 C5150 1.366 . S
C5151 C5152 1.414 . S
C5151 C5154 1.499 . S
C5152 H5132 0.917 1_554 S
C5152 C5151 1.414 . S
C5152 C5153 1.389 . S
C5153 H5133 0.910 1_554 S
C5153 C5149 1.411 . S
C5153 C5152 1.389 . S
C5154 C5151 1.499 . S
C5154 C5155 1.373 . S
C5154 C5156 1.389 . S
C5155 H5134 0.950 1_554 S
C5155 C5154 1.373 . S
C5155 C5171 1.377 . S
C5156 C5154 1.389 . S
C5156 C5157 1.524 . S
C5156 C5170 1.377 . S
C5157 C5156 1.524 . S
C5157 C5158 1.397 . S
C5157 C5162 1.363 . S
C5158 H5135 0.950 . S
C5158 C5157 1.397 . S
C5158 C5159 1.334 . S
C5159 H5136 0.950 . S
C5159 C5158 1.334 . S
C5159 C5160 1.287 . S
C5160 C5159 1.287 . S
C5160 C5161 1.524 . S
C5160 H5179 0.913 . S
C5161 H5137 0.950 . S
C5161 C5160 1.524 . S
C5161 C5162 1.415 . S
C5162 H5138 0.950 . S
C5162 C5157 1.363 . S
C5162 C5161 1.415 . S
C5163 H5139 0.951 . S
C5163 C5164 1.366 . S
C5163 C5165 1.388 . S
C5164 C5163 1.366 . S
C5164 C5168 1.385 . S
C5165 H5140 0.951 . S
C5165 C5163 1.388 . S
C5165 C5166 1.366 . S
C5166 C5165 1.366 . S
C5166 C5167 1.414 . S
C5166 C5169 1.499 . S
C5167 H5141 0.950 . S
C5167 C5166 1.414 . S
C5167 C5168 1.374 . S
C5168 H5142 0.950 . S
C5168 C5164 1.385 . S
C5168 C5167 1.374 . S
C5169 C5166 1.499 . S
C5169 C5170 1.373 . S
C5169 C5171 1.389 . S
C5170 H5143 0.950 . S
C5170 C5156 1.377 . S
C5170 C5169 1.373 . S
C5171 C5155 1.377 . S
C5171 C5169 1.389 . S
C5171 C5172 1.524 1_554 S
C5172 C5171 1.524 1_556 S
C5172 C5173 1.397 . S
C5172 C5177 1.363 . S
C5173 H5144 0.950 1_556 S
C5173 C5172 1.397 . S
C5173 C5174 1.334 . S
C5174 H5145 0.950 . S
C5174 C5173 1.334 . S
C5174 C5175 1.287 . S
C5175 C5174 1.287 . S
C5175 C5176 1.524 . S
C5175 H5178 0.999 . S
C5176 H5146 0.950 . S
C5176 C5175 1.524 . S
C5176 C5177 1.415 . S
C5177 H5147 0.950 . S
C5177 C5172 1.363 . S
C5177 C5176 1.415 . S
H5178 C5175 0.999 . S
H5179 C5160 0.913 . S
H5180 C5198 0.951 . S
H5181 C5200 0.951 . S
H5182 C5202 0.950 . S
H5183 C5203 0.950 . S
H5184 C5205 0.950 . S
H5185 C5208 0.950 . S
H5186 C5209 0.950 . S
H5187 C5211 0.950 . S
H5188 C5212 0.950 . S
H5189 C5213 0.951 . S
H5190 C5215 0.951 . S
H5191 C5217 0.950 . S
H5192 C5218 0.950 . S
H5193 C5220 0.950 . S
H5194 C5223 0.950 . S
H5195 C5224 0.950 . S
H5196 C5226 0.950 . S
H5197 C5227 0.950 . S
C5198 H5180 0.951 . S
C5198 C5199 1.366 . S
C5198 C5200 1.388 . S
C5199 C5198 1.366 . S
C5199 C5203 1.385 . S
C5200 H5181 0.951 . S
C5200 C5198 1.388 . S
C5200 C5201 1.366 . S
C5201 C5200 1.366 . S
C5201 C5202 1.414 . S
C5201 C5204 1.499 . S
C5202 H5182 0.950 . S
C5202 C5201 1.414 . S
C5202 C5203 1.374 . S
C5203 H5183 0.950 . S
C5203 C5199 1.385 . S
C5203 C5202 1.374 . S
C5204 C5201 1.499 . S
C5204 C5205 1.373 . S
C5204 C5206 1.389 . S
C5205 H5184 0.950 . S
C5205 C5204 1.373 . S
C5205 C5221 1.377 . S
C5206 C5204 1.389 . S
C5206 C5207 1.524 . S
C5206 C5220 1.377 . S
C5207 C5206 1.524 . S
C5207 C5208 1.397 . S
C5207 C5212 1.363 . S
C5208 H5185 0.950 . S
C5208 C5207 1.397 . S
C5208 C5209 1.334 . S
C5209 H5186 0.950 . S
C5209 C5208 1.334 . S
C5209 C5210 1.287 . S
C5210 C5209 1.287 . S
C5210 C5211 1.524 . S
C5210 H5229 0.913 . S
C5211 H5187 0.950 . S
C5211 C5210 1.524 . S
C5211 C5212 1.415 . S
C5212 H5188 0.950 . S
C5212 C5207 1.363 . S
C5212 C5211 1.415 . S
C5213 H5189 0.951 . S
C5213 C5214 1.366 . S
C5213 C5215 1.388 . S
C5214 C5213 1.366 . S
C5214 C5218 1.385 . S
C5215 H5190 0.951 . S
C5215 C5213 1.388 . S
C5215 C5216 1.366 . S
C5216 C5215 1.366 . S
C5216 C5217 1.414 . S
C5216 C5219 1.499 . S
C5217 H5191 0.950 . S
C5217 C5216 1.414 . S
C5217 C5218 1.374 . S
C5218 H5192 0.950 . S
C5218 C5214 1.385 . S
C5218 C5217 1.374 . S
C5219 C5216 1.499 . S
C5219 C5220 1.373 . S
C5219 C5221 1.389 . S
C5220 H5193 0.950 . S
C5220 C5206 1.377 . S
C5220 C5219 1.373 . S
C5221 C5205 1.377 . S
C5221 C5219 1.389 . S
C5221 C5222 1.524 . S
C5222 C5221 1.524 . S
C5222 C5223 1.397 . S
C5222 C5227 1.363 . S
C5223 H5194 0.950 . S
C5223 C5222 1.397 . S
C5223 C5224 1.334 . S
C5224 H5195 0.950 . S
C5224 C5223 1.334 . S
C5224 C5225 1.287 . S
C5225 C5224 1.287 . S
C5225 C5226 1.524 . S
C5225 H5228 0.999 . S
C5226 H5196 0.950 . S
C5226 C5225 1.524 . S
C5226 C5227 1.415 . S
C5227 H5197 0.950 . S
C5227 C5222 1.363 . S
C5227 C5226 1.415 . S
H5228 C5225 0.999 . S
H5229 C5210 0.913 . S
H5230 C5248 0.951 . S
H5231 C5250 0.951 . S
H5232 C5252 0.950 . S
H5233 C5253 0.950 . S
H5234 C5255 0.950 . S
H5235 C5258 0.950 . S
H5236 C5259 0.950 . S
H5237 C5261 0.950 . S
H5238 C5262 0.950 . S
H5239 C5263 0.951 . S
H5240 C5265 0.951 . S
H5241 C5267 0.950 . S
H5242 C5268 0.950 . S
H5243 C5270 0.950 . S
H5244 C5273 0.950 . S
H5245 C5274 0.950 . S
H5246 C5276 0.950 . S
H5247 C5277 0.950 . S
C5248 H5230 0.951 . S
C5248 C5249 1.366 . S
C5248 C5250 1.388 . S
C5249 C5248 1.366 . S
C5249 C5253 1.385 . S
C5250 H5231 0.951 . S
C5250 C5248 1.388 . S
C5250 C5251 1.366 . S
C5251 C5250 1.366 . S
C5251 C5252 1.414 . S
C5251 C5254 1.499 . S
C5252 H5232 0.950 . S
C5252 C5251 1.414 . S
C5252 C5253 1.374 . S
C5253 H5233 0.950 . S
C5253 C5249 1.385 . S
C5253 C5252 1.374 . S
C5254 C5251 1.499 . S
C5254 C5255 1.373 . S
C5254 C5256 1.389 . S
C5255 H5234 0.950 . S
C5255 C5254 1.373 . S
C5255 C5271 1.377 . S
C5256 C5254 1.389 . S
C5256 C5257 1.524 . S
C5256 C5270 1.377 . S
C5257 C5256 1.524 . S
C5257 C5258 1.397 . S
C5257 C5262 1.363 . S
C5258 H5235 0.950 . S
C5258 C5257 1.397 . S
C5258 C5259 1.334 . S
C5259 H5236 0.950 . S
C5259 C5258 1.334 . S
C5259 C5260 1.287 . S
C5260 C5259 1.287 . S
C5260 C5261 1.524 . S
C5260 H5279 0.913 . S
C5261 H5237 0.950 . S
C5261 C5260 1.524 . S
C5261 C5262 1.415 . S
C5262 H5238 0.950 . S
C5262 C5257 1.363 . S
C5262 C5261 1.415 . S
C5263 H5239 0.951 . S
C5263 C5264 1.366 . S
C5263 C5265 1.388 . S
C5264 C5263 1.366 . S
C5264 C5268 1.385 . S
C5265 H5240 0.951 . S
C5265 C5263 1.388 . S
C5265 C5266 1.366 . S
C5266 C5265 1.366 . S
C5266 C5267 1.414 . S
C5266 C5269 1.499 . S
C5267 H5241 0.950 . S
C5267 C5266 1.414 . S
C5267 C5268 1.374 . S
C5268 H5242 0.950 . S
C5268 C5264 1.385 . S
C5268 C5267 1.374 . S
C5269 C5266 1.499 . S
C5269 C5270 1.373 . S
C5269 C5271 1.389 . S
C5270 H5243 0.950 . S
C5270 C5256 1.377 . S
C5270 C5269 1.373 . S
C5271 C5255 1.377 . S
C5271 C5269 1.389 . S
C5271 C5272 1.524 . S
C5272 C5271 1.524 . S
C5272 C5273 1.397 . S
C5272 C5277 1.363 . S
C5273 H5244 0.950 . S
C5273 C5272 1.397 . S
C5273 C5274 1.334 . S
C5274 H5245 0.950 . S
C5274 C5273 1.334 . S
C5274 C5275 1.287 . S
C5275 C5274 1.287 . S
C5275 C5276 1.524 . S
C5275 H5278 0.999 . S
C5276 H5246 0.950 . S
C5276 C5275 1.524 . S
C5276 C5277 1.415 . S
C5277 H5247 0.950 . S
C5277 C5272 1.363 . S
C5277 C5276 1.415 . S
H5278 C5275 0.999 . S
H5279 C5260 0.913 . S
H5280 C5298 0.951 . S
H5281 C5300 0.951 . S
H5282 C5302 0.950 . S
H5283 C5303 0.950 . S
H5284 C5305 0.950 . S
H5285 C5308 0.950 . S
H5286 C5309 0.950 . S
H5287 C5311 0.950 . S
H5288 C5312 0.950 . S
H5289 C5313 0.951 . S
H5290 C5315 0.951 . S
H5291 C5317 0.950 . S
H5292 C5318 0.950 . S
H5293 C5320 0.950 . S
H5294 C5323 0.950 . S
H5295 C5324 0.950 . S
H5296 C5326 0.950 . S
H5297 C5327 0.950 . S
C5298 H5280 0.951 . S
C5298 C5299 1.366 . S
C5298 C5300 1.388 . S
C5299 C5298 1.366 . S
C5299 C5303 1.385 . S
C5300 H5281 0.951 . S
C5300 C5298 1.388 . S
C5300 C5301 1.366 . S
C5301 C5300 1.366 . S
C5301 C5302 1.414 . S
C5301 C5304 1.499 . S
C5302 H5282 0.950 . S
C5302 C5301 1.414 . S
C5302 C5303 1.374 . S
C5303 H5283 0.950 . S
C5303 C5299 1.385 . S
C5303 C5302 1.374 . S
C5304 C5301 1.499 . S
C5304 C5305 1.373 . S
C5304 C5306 1.389 . S
C5305 H5284 0.950 . S
C5305 C5304 1.373 . S
C5305 C5321 1.377 . S
C5306 C5304 1.389 . S
C5306 C5307 1.524 . S
C5306 C5320 1.377 . S
C5307 C5306 1.524 . S
C5307 C5308 1.397 . S
C5307 C5312 1.363 . S
C5308 H5285 0.950 . S
C5308 C5307 1.397 . S
C5308 C5309 1.334 . S
C5309 H5286 0.950 . S
C5309 C5308 1.334 . S
C5309 C5310 1.287 . S
C5310 C5309 1.287 . S
C5310 C5311 1.524 . S
C5310 H5329 0.913 . S
C5311 H5287 0.950 . S
C5311 C5310 1.524 . S
C5311 C5312 1.415 . S
C5312 H5288 0.950 . S
C5312 C5307 1.363 . S
C5312 C5311 1.415 . S
C5313 H5289 0.951 . S
C5313 C5314 1.366 . S
C5313 C5315 1.388 . S
C5314 C5313 1.366 . S
C5314 C5318 1.385 . S
C5315 H5290 0.951 . S
C5315 C5313 1.388 . S
C5315 C5316 1.366 . S
C5316 C5315 1.366 . S
C5316 C5317 1.414 . S
C5316 C5319 1.499 . S
C5317 H5291 0.950 . S
C5317 C5316 1.414 . S
C5317 C5318 1.374 . S
C5318 H5292 0.950 . S
C5318 C5314 1.385 . S
C5318 C5317 1.374 . S
C5319 C5316 1.499 . S
C5319 C5320 1.373 . S
C5319 C5321 1.389 . S
C5320 H5293 0.950 . S
C5320 C5306 1.377 . S
C5320 C5319 1.373 . S
C5321 C5305 1.377 . S
C5321 C5319 1.389 . S
C5321 C5322 1.524 . S
C5322 C5321 1.524 . S
C5322 C5323 1.397 . S
C5322 C5327 1.363 . S
C5323 H5294 0.950 . S
C5323 C5322 1.397 . S
C5323 C5324 1.334 . S
C5324 H5295 0.950 . S
C5324 C5323 1.334 . S
C5324 C5325 1.287 . S
C5325 C5324 1.287 . S
C5325 C5326 1.524 . S
C5325 H5328 0.999 . S
C5326 H5296 0.950 . S
C5326 C5325 1.524 . S
C5326 C5327 1.415 . S
C5327 H5297 0.950 . S
C5327 C5322 1.363 . S
C5327 C5326 1.415 . S
H5328 C5325 0.999 . S
H5329 C5310 0.913 . S
H5330 C5348 0.951 . S
H5331 C5350 0.951 . S
H5332 C5352 0.950 . S
H5333 C5353 0.950 . S
H5334 C5355 0.950 . S
H5335 C5358 0.950 . S
H5336 C5359 0.950 . S
H5337 C5361 0.950 . S
H5338 C5362 0.950 . S
H5339 C5363 0.951 . S
H5340 C5365 0.951 . S
H5341 C5367 0.950 . S
H5342 C5368 0.950 . S
H5343 C5370 0.950 . S
H5344 C5373 0.950 . S
H5345 C5374 0.950 . S
H5346 C5376 0.950 . S
H5347 C5377 0.950 . S
C5348 H5330 0.951 . S
C5348 C5349 1.366 . S
C5348 C5350 1.388 . S
C5349 C5348 1.366 . S
C5349 C5353 1.385 . S
C5350 H5331 0.951 . S
C5350 C5348 1.388 . S
C5350 C5351 1.366 . S
C5351 C5350 1.366 . S
C5351 C5352 1.414 . S
C5351 C5354 1.499 . S
C5352 H5332 0.950 . S
C5352 C5351 1.414 . S
C5352 C5353 1.374 . S
C5353 H5333 0.950 . S
C5353 C5349 1.385 . S
C5353 C5352 1.374 . S
C5354 C5351 1.499 . S
C5354 C5355 1.373 . S
C5354 C5356 1.389 . S
C5355 H5334 0.950 . S
C5355 C5354 1.373 . S
C5355 C5371 1.377 . S
C5356 C5354 1.389 . S
C5356 C5357 1.524 . S
C5356 C5370 1.377 . S
C5357 C5356 1.524 . S
C5357 C5358 1.397 . S
C5357 C5362 1.363 . S
C5358 H5335 0.950 . S
C5358 C5357 1.397 . S
C5358 C5359 1.334 . S
C5359 H5336 0.950 . S
C5359 C5358 1.334 . S
C5359 C5360 1.287 . S
C5360 C5359 1.287 . S
C5360 C5361 1.524 . S
C5360 H5379 0.913 . S
C5361 H5337 0.950 . S
C5361 C5360 1.524 . S
C5361 C5362 1.415 . S
C5362 H5338 0.950 . S
C5362 C5357 1.363 . S
C5362 C5361 1.415 . S
C5363 H5339 0.951 . S
C5363 C5364 1.366 . S
C5363 C5365 1.388 . S
C5364 C5363 1.366 . S
C5364 C5368 1.385 . S
C5365 H5340 0.951 . S
C5365 C5363 1.388 . S
C5365 C5366 1.366 . S
C5366 C5365 1.366 . S
C5366 C5367 1.414 . S
C5366 C5369 1.499 . S
C5367 H5341 0.950 . S
C5367 C5366 1.414 . S
C5367 C5368 1.374 . S
C5368 H5342 0.950 . S
C5368 C5364 1.385 . S
C5368 C5367 1.374 . S
C5369 C5366 1.499 . S
C5369 C5370 1.373 . S
C5369 C5371 1.389 . S
C5370 H5343 0.950 . S
C5370 C5356 1.377 . S
C5370 C5369 1.373 . S
C5371 C5355 1.377 . S
C5371 C5369 1.389 . S
C5371 C5372 1.524 . S
C5372 C5371 1.524 . S
C5372 C5373 1.397 . S
C5372 C5377 1.363 . S
C5373 H5344 0.950 . S
C5373 C5372 1.397 . S
C5373 C5374 1.334 . S
C5374 H5345 0.950 . S
C5374 C5373 1.334 . S
C5374 C5375 1.287 . S
C5375 C5374 1.287 . S
C5375 C5376 1.524 . S
C5375 H5378 0.999 . S
C5376 H5346 0.950 . S
C5376 C5375 1.524 . S
C5376 C5377 1.415 . S
C5377 H5347 0.950 . S
C5377 C5372 1.363 . S
C5377 C5376 1.415 . S
H5378 C5375 0.999 . S
H5379 C5360 0.913 . S
H5380 C5398 0.951 . S
H5381 C5400 0.951 . S
H5382 C5402 0.950 . S
H5383 C5403 0.950 . S
H5384 C5405 0.950 . S
H5385 C5408 0.950 . S
H5386 C5409 0.950 . S
H5387 C5411 0.950 . S
H5388 C5412 0.950 . S
H5389 C5413 0.951 . S
H5390 C5415 0.951 . S
H5391 C5417 0.950 . S
H5392 C5418 0.950 . S
H5393 C5420 0.950 . S
H5394 C5423 0.950 . S
H5395 C5424 0.950 . S
H5396 C5426 0.950 1_655 S
H5397 C5427 0.950 . S
C5398 H5380 0.951 . S
C5398 C5399 1.366 . S
C5398 C5400 1.388 . S
C5399 C5398 1.366 . S
C5399 C5403 1.385 . S
C5400 H5381 0.951 . S
C5400 C5398 1.388 . S
C5400 C5401 1.366 . S
C5401 C5400 1.366 . S
C5401 C5402 1.414 . S
C5401 C5404 1.499 . S
C5402 H5382 0.950 . S
C5402 C5401 1.414 . S
C5402 C5403 1.374 . S
C5403 H5383 0.950 . S
C5403 C5399 1.385 . S
C5403 C5402 1.374 . S
C5404 C5401 1.499 . S
C5404 C5405 1.373 . S
C5404 C5406 1.389 . S
C5405 H5384 0.950 . S
C5405 C5404 1.373 . S
C5405 C5421 1.377 . S
C5406 C5404 1.389 . S
C5406 C5407 1.524 . S
C5406 C5420 1.377 . S
C5407 C5406 1.524 . S
C5407 C5408 1.397 . S
C5407 C5412 1.363 . S
C5408 H5385 0.950 . S
C5408 C5407 1.397 . S
C5408 C5409 1.334 . S
C5409 H5386 0.950 . S
C5409 C5408 1.334 . S
C5409 C5410 1.287 . S
C5410 C5409 1.287 . S
C5410 C5411 1.524 . S
C5410 H5429 0.913 . S
C5411 H5387 0.950 . S
C5411 C5410 1.524 . S
C5411 C5412 1.415 . S
C5412 H5388 0.950 . S
C5412 C5407 1.363 . S
C5412 C5411 1.415 . S
C5413 H5389 0.951 . S
C5413 C5414 1.366 . S
C5413 C5415 1.388 . S
C5414 C5413 1.366 . S
C5414 C5418 1.385 . S
C5415 H5390 0.951 . S
C5415 C5413 1.388 . S
C5415 C5416 1.366 . S
C5416 C5415 1.366 . S
C5416 C5417 1.414 . S
C5416 C5419 1.499 . S
C5417 H5391 0.950 . S
C5417 C5416 1.414 . S
C5417 C5418 1.374 . S
C5418 H5392 0.950 . S
C5418 C5414 1.385 . S
C5418 C5417 1.374 . S
C5419 C5416 1.499 . S
C5419 C5420 1.373 . S
C5419 C5421 1.389 . S
C5420 H5393 0.950 . S
C5420 C5406 1.377 . S
C5420 C5419 1.373 . S
C5421 C5405 1.377 . S
C5421 C5419 1.389 . S
C5421 C5422 1.524 . S
C5422 C5421 1.524 . S
C5422 C5423 1.397 . S
C5422 C5427 1.363 . S
C5423 H5394 0.950 . S
C5423 C5422 1.397 . S
C5423 C5424 1.334 . S
C5424 H5395 0.950 . S
C5424 C5423 1.334 . S
C5424 C5425 1.287 1_455 S
C5425 C5424 1.287 1_655 S
C5425 C5426 1.524 1_655 S
C5425 H5428 0.999 . S
C5426 H5396 0.950 1_455 S
C5426 C5425 1.524 1_455 S
C5426 C5427 1.415 . S
C5427 H5397 0.950 . S
C5427 C5422 1.363 . S
C5427 C5426 1.415 . S
H5428 C5425 0.999 . S
H5429 C5410 0.913 . S
H5430 C5448 0.951 . S
H5431 C5450 0.951 . S
H5432 C5452 0.950 . S
H5433 C5453 0.950 . S
H5434 C5455 0.950 . S
H5435 C5458 0.950 . S
H5436 C5459 0.950 . S
H5437 C5461 0.950 . S
H5438 C5462 0.950 . S
H5439 C5463 0.951 . S
H5440 C5465 0.951 . S
H5441 C5467 0.950 . S
H5442 C5468 0.950 . S
H5443 C5470 0.950 . S
H5444 C5473 0.950 . S
H5445 C5474 0.950 . S
H5446 C5476 0.950 . S
H5447 C5477 0.950 . S
C5448 H5430 0.951 . S
C5448 C5449 1.366 . S
C5448 C5450 1.388 . S
C5449 C5448 1.366 . S
C5449 C5453 1.385 . S
C5450 H5431 0.951 . S
C5450 C5448 1.388 . S
C5450 C5451 1.366 . S
C5451 C5450 1.366 . S
C5451 C5452 1.414 . S
C5451 C5454 1.499 . S
C5452 H5432 0.950 . S
C5452 C5451 1.414 . S
C5452 C5453 1.374 . S
C5453 H5433 0.950 . S
C5453 C5449 1.385 . S
C5453 C5452 1.374 . S
C5454 C5451 1.499 . S
C5454 C5455 1.373 . S
C5454 C5456 1.389 . S
C5455 H5434 0.950 . S
C5455 C5454 1.373 . S
C5455 C5471 1.377 . S
C5456 C5454 1.389 . S
C5456 C5457 1.524 . S
C5456 C5470 1.377 . S
C5457 C5456 1.524 . S
C5457 C5458 1.397 . S
C5457 C5462 1.363 . S
C5458 H5435 0.950 . S
C5458 C5457 1.397 . S
C5458 C5459 1.334 . S
C5459 H5436 0.950 . S
C5459 C5458 1.334 . S
C5459 C5460 1.287 . S
C5460 C5459 1.287 . S
C5460 C5461 1.524 . S
C5460 H5479 0.913 . S
C5461 H5437 0.950 . S
C5461 C5460 1.524 . S
C5461 C5462 1.415 . S
C5462 H5438 0.950 . S
C5462 C5457 1.363 . S
C5462 C5461 1.415 . S
C5463 H5439 0.951 . S
C5463 C5464 1.366 . S
C5463 C5465 1.388 . S
C5464 C5463 1.366 . S
C5464 C5468 1.385 . S
C5465 H5440 0.951 . S
C5465 C5463 1.388 . S
C5465 C5466 1.366 . S
C5466 C5465 1.366 . S
C5466 C5467 1.414 . S
C5466 C5469 1.499 . S
C5467 H5441 0.950 . S
C5467 C5466 1.414 . S
C5467 C5468 1.374 . S
C5468 H5442 0.950 . S
C5468 C5464 1.385 . S
C5468 C5467 1.374 . S
C5469 C5466 1.499 . S
C5469 C5470 1.373 . S
C5469 C5471 1.389 . S
C5470 H5443 0.950 . S
C5470 C5456 1.377 . S
C5470 C5469 1.373 . S
C5471 C5455 1.377 . S
C5471 C5469 1.389 . S
C5471 C5472 1.524 . S
C5472 C5471 1.524 . S
C5472 C5473 1.397 . S
C5472 C5477 1.363 . S
C5473 H5444 0.950 . S
C5473 C5472 1.397 . S
C5473 C5474 1.334 . S
C5474 H5445 0.950 . S
C5474 C5473 1.334 . S
C5474 C5475 1.287 . S
C5475 C5474 1.287 . S
C5475 C5476 1.524 . S
C5475 H5478 0.999 . S
C5476 H5446 0.950 . S
C5476 C5475 1.524 . S
C5476 C5477 1.415 . S
C5477 H5447 0.950 . S
C5477 C5472 1.363 . S
C5477 C5476 1.415 . S
H5478 C5475 0.999 . S
H5479 C5460 0.913 . S
H5480 C5498 0.951 . S
H5481 C5500 0.951 . S
H5482 C5502 0.950 . S
H5483 C5503 0.950 . S
H5484 C5505 0.950 . S
H5485 C5508 0.950 . S
H5486 C5509 0.950 . S
H5487 C5511 0.950 . S
H5488 C5512 0.950 . S
H5489 C5513 0.951 . S
H5490 C5515 0.951 . S
H5491 C5517 0.950 . S
H5492 C5518 0.950 1_554 S
H5493 C5520 0.950 . S
H5494 C5523 0.950 . S
H5495 C5524 0.950 . S
H5496 C5526 0.950 . S
H5497 C5527 0.950 . S
C5498 H5480 0.951 . S
C5498 C5499 1.366 . S
C5498 C5500 1.388 . S
C5499 C5498 1.366 . S
C5499 C5503 1.385 . S
C5500 H5481 0.951 . S
C5500 C5498 1.388 . S
C5500 C5501 1.366 . S
C5501 C5500 1.366 . S
C5501 C5502 1.414 . S
C5501 C5504 1.499 . S
C5502 H5482 0.950 . S
C5502 C5501 1.414 . S
C5502 C5503 1.374 . S
C5503 H5483 0.950 . S
C5503 C5499 1.385 . S
C5503 C5502 1.374 . S
C5504 C5501 1.499 . S
C5504 C5505 1.373 . S
C5504 C5506 1.389 . S
C5505 H5484 0.950 . S
C5505 C5504 1.373 . S
C5505 C5521 1.377 . S
C5506 C5504 1.389 . S
C5506 C5507 1.524 . S
C5506 C5520 1.377 . S
C5507 C5506 1.524 . S
C5507 C5508 1.397 . S
C5507 C5512 1.363 . S
C5508 H5485 0.950 . S
C5508 C5507 1.397 . S
C5508 C5509 1.334 . S
C5509 H5486 0.950 . S
C5509 C5508 1.334 . S
C5509 C5510 1.287 . S
C5510 C5509 1.287 . S
C5510 C5511 1.524 1_556 S
C5510 H5529 0.905 1_556 S
C5511 H5487 0.950 . S
C5511 C5510 1.524 1_554 S
C5511 C5512 1.415 1_554 S
C5512 H5488 0.950 . S
C5512 C5507 1.363 . S
C5512 C5511 1.415 1_556 S
C5513 H5489 0.951 . S
C5513 C5514 1.366 . S
C5513 C5515 1.388 . S
C5514 C5513 1.366 . S
C5514 C5518 1.385 . S
C5515 H5490 0.951 . S
C5515 C5513 1.388 . S
C5515 C5516 1.366 . S
C5516 C5515 1.366 . S
C5516 C5517 1.414 . S
C5516 C5519 1.499 . S
C5517 H5491 0.950 . S
C5517 C5516 1.414 . S
C5517 C5518 1.374 . S
C5518 H5492 0.950 1_556 S
C5518 C5514 1.385 . S
C5518 C5517 1.374 . S
C5519 C5516 1.499 . S
C5519 C5520 1.373 . S
C5519 C5521 1.389 . S
C5520 H5493 0.950 . S
C5520 C5506 1.377 . S
C5520 C5519 1.373 . S
C5521 C5505 1.377 . S
C5521 C5519 1.389 . S
C5521 C5522 1.524 . S
C5522 C5521 1.524 . S
C5522 C5523 1.397 . S
C5522 C5527 1.363 . S
C5523 H5494 0.950 . S
C5523 C5522 1.397 . S
C5523 C5524 1.334 . S
C5524 H5495 0.950 . S
C5524 C5523 1.334 . S
C5524 C5525 1.287 . S
C5525 C5524 1.287 . S
C5525 C5526 1.524 . S
C5525 H5528 0.999 . S
C5526 H5496 0.950 . S
C5526 C5525 1.524 . S
C5526 C5527 1.415 . S
C5527 H5497 0.950 . S
C5527 C5522 1.363 . S
C5527 C5526 1.415 . S
H5528 C5525 0.999 . S
H5529 C5510 0.905 1_554 S
H5530 C5548 0.951 . S
H5531 C5550 0.951 . S
H5532 C5552 0.950 . S
H5533 C5553 0.950 . S
H5534 C5555 0.950 . S
H5535 C5558 0.950 . S
H5536 C5559 0.950 . S
H5537 C5561 0.950 . S
H5538 C5562 0.950 . S
H5539 C5563 0.951 . S
H5540 C5565 0.951 . S
H5541 C5567 0.950 . S
H5542 C5568 0.950 . S
H5543 C5570 0.950 . S
H5544 C5573 0.950 . S
H5545 C5574 0.950 . S
H5546 C5576 0.950 . S
H5547 C5577 0.950 . S
C5548 H5530 0.951 . S
C5548 C5549 1.366 . S
C5548 C5550 1.388 . S
C5549 C5548 1.366 . S
C5549 C5553 1.385 . S
C5550 H5531 0.951 . S
C5550 C5548 1.388 . S
C5550 C5551 1.366 . S
C5551 C5550 1.366 . S
C5551 C5552 1.414 . S
C5551 C5554 1.499 . S
C5552 H5532 0.950 . S
C5552 C5551 1.414 . S
C5552 C5553 1.374 . S
C5553 H5533 0.950 . S
C5553 C5549 1.385 . S
C5553 C5552 1.374 . S
C5554 C5551 1.499 . S
C5554 C5555 1.373 . S
C5554 C5556 1.389 . S
C5555 H5534 0.950 . S
C5555 C5554 1.373 . S
C5555 C5571 1.377 . S
C5556 C5554 1.389 . S
C5556 C5557 1.524 . S
C5556 C5570 1.377 . S
C5557 C5556 1.524 . S
C5557 C5558 1.397 . S
C5557 C5562 1.363 . S
C5558 H5535 0.950 . S
C5558 C5557 1.397 . S
C5558 C5559 1.334 . S
C5559 H5536 0.950 . S
C5559 C5558 1.334 . S
C5559 C5560 1.287 . S
C5560 C5559 1.287 . S
C5560 C5561 1.524 . S
C5560 H5579 0.913 . S
C5561 H5537 0.950 . S
C5561 C5560 1.524 . S
C5561 C5562 1.415 . S
C5562 H5538 0.950 . S
C5562 C5557 1.363 . S
C5562 C5561 1.415 . S
C5563 H5539 0.951 . S
C5563 C5564 1.366 . S
C5563 C5565 1.388 . S
C5564 C5563 1.366 . S
C5564 C5568 1.385 . S
C5565 H5540 0.951 . S
C5565 C5563 1.388 . S
C5565 C5566 1.366 . S
C5566 C5565 1.366 . S
C5566 C5567 1.414 . S
C5566 C5569 1.499 . S
C5567 H5541 0.950 . S
C5567 C5566 1.414 . S
C5567 C5568 1.374 . S
C5568 H5542 0.950 . S
C5568 C5564 1.385 . S
C5568 C5567 1.374 . S
C5569 C5566 1.499 . S
C5569 C5570 1.373 . S
C5569 C5571 1.389 . S
C5570 H5543 0.950 . S
C5570 C5556 1.377 . S
C5570 C5569 1.373 . S
C5571 C5555 1.377 . S
C5571 C5569 1.389 . S
C5571 C5572 1.524 . S
C5572 C5571 1.524 . S
C5572 C5573 1.397 . S
C5572 C5577 1.363 . S
C5573 H5544 0.950 . S
C5573 C5572 1.397 . S
C5573 C5574 1.334 . S
C5574 H5545 0.950 . S
C5574 C5573 1.334 . S
C5574 C5575 1.287 . S
C5575 C5574 1.287 . S
C5575 C5576 1.524 . S
C5575 H5578 0.999 . S
C5576 H5546 0.950 . S
C5576 C5575 1.524 . S
C5576 C5577 1.415 . S
C5577 H5547 0.950 . S
C5577 C5572 1.363 . S
C5577 C5576 1.415 . S
H5578 C5575 0.999 . S
H5579 C5560 0.913 . S
H5580 C5598 0.951 . S
H5581 C5600 0.951 . S
H5582 C5602 0.950 . S
H5583 C5603 0.950 . S
H5584 C5605 0.950 . S
H5585 C5608 0.950 . S
H5586 C5609 0.950 . S
H5587 C5611 0.950 . S
H5588 C5612 0.950 . S
H5589 C5613 0.951 . S
H5590 C5615 0.951 . S
H5591 C5617 0.950 . S
H5592 C5618 0.950 . S
H5593 C5620 0.950 . S
H5594 C5623 0.950 . S
H5595 C5624 0.950 . S
H5596 C5626 0.950 . S
H5597 C5627 0.950 . S
C5598 H5580 0.951 . S
C5598 C5599 1.366 . S
C5598 C5600 1.388 . S
C5599 C5598 1.366 . S
C5599 C5603 1.385 . S
C5600 H5581 0.951 . S
C5600 C5598 1.388 . S
C5600 C5601 1.366 . S
C5601 C5600 1.366 . S
C5601 C5602 1.414 . S
C5601 C5604 1.499 . S
C5602 H5582 0.950 . S
C5602 C5601 1.414 . S
C5602 C5603 1.374 . S
C5603 H5583 0.950 . S
C5603 C5599 1.385 . S
C5603 C5602 1.374 . S
C5604 C5601 1.499 . S
C5604 C5605 1.373 . S
C5604 C5606 1.389 . S
C5605 H5584 0.950 . S
C5605 C5604 1.373 . S
C5605 C5621 1.377 . S
C5606 C5604 1.389 . S
C5606 C5607 1.524 . S
C5606 C5620 1.377 . S
C5607 C5606 1.524 . S
C5607 C5608 1.397 . S
C5607 C5612 1.363 . S
C5608 H5585 0.950 . S
C5608 C5607 1.397 . S
C5608 C5609 1.334 . S
C5609 H5586 0.950 . S
C5609 C5608 1.334 . S
C5609 C5610 1.287 . S
C5610 C5609 1.287 . S
C5610 C5611 1.524 . S
C5610 H5629 0.913 . S
C5611 H5587 0.950 . S
C5611 C5610 1.524 . S
C5611 C5612 1.415 . S
C5612 H5588 0.950 . S
C5612 C5607 1.363 . S
C5612 C5611 1.415 . S
C5613 H5589 0.951 . S
C5613 C5614 1.366 . S
C5613 C5615 1.388 . S
C5614 C5613 1.366 . S
C5614 C5618 1.385 . S
C5615 H5590 0.951 . S
C5615 C5613 1.388 . S
C5615 C5616 1.366 . S
C5616 C5615 1.366 . S
C5616 C5617 1.414 . S
C5616 C5619 1.499 . S
C5617 H5591 0.950 . S
C5617 C5616 1.414 . S
C5617 C5618 1.374 . S
C5618 H5592 0.950 . S
C5618 C5614 1.385 . S
C5618 C5617 1.374 . S
C5619 C5616 1.499 . S
C5619 C5620 1.373 . S
C5619 C5621 1.389 . S
C5620 H5593 0.950 . S
C5620 C5606 1.377 . S
C5620 C5619 1.373 . S
C5621 C5605 1.377 . S
C5621 C5619 1.389 . S
C5621 C5622 1.524 . S
C5622 C5621 1.524 . S
C5622 C5623 1.397 . S
C5622 C5627 1.363 . S
C5623 H5594 0.950 . S
C5623 C5622 1.397 . S
C5623 C5624 1.334 . S
C5624 H5595 0.950 . S
C5624 C5623 1.334 . S
C5624 C5625 1.287 . S
C5625 C5624 1.287 . S
C5625 C5626 1.524 . S
C5625 H5628 0.999 . S
C5626 H5596 0.950 . S
C5626 C5625 1.524 . S
C5626 C5627 1.415 . S
C5627 H5597 0.950 . S
C5627 C5622 1.363 . S
C5627 C5626 1.415 . S
H5628 C5625 0.999 . S
H5629 C5610 0.913 . S
H5630 C5648 0.951 . S
H5631 C5650 0.951 . S
H5632 C5652 0.950 . S
H5633 C5653 0.950 . S
H5634 C5655 0.950 . S
H5635 C5658 0.950 . S
H5636 C5659 0.950 . S
H5637 C5661 0.950 . S
H5638 C5662 0.950 . S
H5639 C5663 0.951 . S
H5640 C5665 0.951 . S
H5641 C5667 0.950 . S
H5642 C5668 0.950 . S
H5643 C5670 0.950 . S
H5644 C5673 0.950 . S
H5645 C5674 0.950 . S
H5646 C5676 0.950 . S
H5647 C5677 0.950 . S
C5648 H5630 0.951 . S
C5648 C5649 1.366 . S
C5648 C5650 1.388 . S
C5649 C5648 1.366 . S
C5649 C5653 1.385 . S
C5650 H5631 0.951 . S
C5650 C5648 1.388 . S
C5650 C5651 1.366 . S
C5651 C5650 1.366 . S
C5651 C5652 1.414 . S
C5651 C5654 1.499 . S
C5652 H5632 0.950 . S
C5652 C5651 1.414 . S
C5652 C5653 1.374 . S
C5653 H5633 0.950 . S
C5653 C5649 1.385 . S
C5653 C5652 1.374 . S
C5654 C5651 1.499 . S
C5654 C5655 1.373 . S
C5654 C5656 1.389 . S
C5655 H5634 0.950 . S
C5655 C5654 1.373 . S
C5655 C5671 1.377 . S
C5656 C5654 1.389 . S
C5656 C5657 1.524 . S
C5656 C5670 1.377 . S
C5657 C5656 1.524 . S
C5657 C5658 1.397 . S
C5657 C5662 1.363 . S
C5658 H5635 0.950 . S
C5658 C5657 1.397 . S
C5658 C5659 1.334 . S
C5659 H5636 0.950 . S
C5659 C5658 1.334 . S
C5659 C5660 1.287 . S
C5660 C5659 1.287 . S
C5660 C5661 1.524 . S
C5660 H5679 0.913 . S
C5661 H5637 0.950 . S
C5661 C5660 1.524 . S
C5661 C5662 1.415 . S
C5662 H5638 0.950 . S
C5662 C5657 1.363 . S
C5662 C5661 1.415 . S
C5663 H5639 0.951 . S
C5663 C5664 1.366 . S
C5663 C5665 1.388 . S
C5664 C5663 1.366 . S
C5664 C5668 1.385 . S
C5665 H5640 0.951 . S
C5665 C5663 1.388 . S
C5665 C5666 1.366 . S
C5666 C5665 1.366 . S
C5666 C5667 1.414 . S
C5666 C5669 1.499 . S
C5667 H5641 0.950 . S
C5667 C5666 1.414 . S
C5667 C5668 1.374 . S
C5668 H5642 0.950 . S
C5668 C5664 1.385 . S
C5668 C5667 1.374 . S
C5669 C5666 1.499 . S
C5669 C5670 1.373 . S
C5669 C5671 1.389 . S
C5670 H5643 0.950 . S
C5670 C5656 1.377 . S
C5670 C5669 1.373 . S
C5671 C5655 1.377 . S
C5671 C5669 1.389 . S
C5671 C5672 1.524 . S
C5672 C5671 1.524 . S
C5672 C5673 1.397 . S
C5672 C5677 1.363 . S
C5673 H5644 0.950 . S
C5673 C5672 1.397 . S
C5673 C5674 1.334 . S
C5674 H5645 0.950 . S
C5674 C5673 1.334 . S
C5674 C5675 1.287 . S
C5675 C5674 1.287 . S
C5675 C5676 1.524 . S
C5675 H5678 0.999 . S
C5676 H5646 0.950 . S
C5676 C5675 1.524 . S
C5676 C5677 1.415 . S
C5677 H5647 0.950 . S
C5677 C5672 1.363 . S
C5677 C5676 1.415 . S
H5678 C5675 0.999 . S
H5679 C5660 0.913 . S
H5680 C5698 0.951 . S
H5681 C5700 0.951 . S
H5682 C5702 0.950 . S
H5683 C5703 0.950 . S
H5684 C5705 0.950 . S
H5685 C5708 0.950 . S
H5686 C5709 0.950 . S
H5687 C5711 0.950 . S
H5688 C5712 0.950 . S
H5689 C5713 0.951 . S
H5690 C5715 0.951 . S
H5691 C5717 0.950 . S
H5692 C5718 0.950 . S
H5693 C5720 0.950 . S
H5694 C5723 0.950 . S
H5695 C5724 0.950 . S
H5696 C5726 0.950 . S
H5697 C5727 0.950 . S
C5698 H5680 0.951 . S
C5698 C5699 1.366 . S
C5698 C5700 1.388 . S
C5699 C5698 1.366 . S
C5699 C5703 1.385 . S
C5700 H5681 0.951 . S
C5700 C5698 1.388 . S
C5700 C5701 1.366 . S
C5701 C5700 1.366 . S
C5701 C5702 1.414 . S
C5701 C5704 1.499 . S
C5702 H5682 0.950 . S
C5702 C5701 1.414 . S
C5702 C5703 1.374 . S
C5703 H5683 0.950 . S
C5703 C5699 1.385 . S
C5703 C5702 1.374 . S
C5704 C5701 1.499 . S
C5704 C5705 1.373 . S
C5704 C5706 1.389 . S
C5705 H5684 0.950 . S
C5705 C5704 1.373 . S
C5705 C5721 1.377 . S
C5706 C5704 1.389 . S
C5706 C5707 1.524 . S
C5706 C5720 1.377 . S
C5707 C5706 1.524 . S
C5707 C5708 1.397 . S
C5707 C5712 1.363 . S
C5708 H5685 0.950 . S
C5708 C5707 1.397 . S
C5708 C5709 1.334 . S
C5709 H5686 0.950 . S
C5709 C5708 1.334 . S
C5709 C5710 1.287 . S
C5710 C5709 1.287 . S
C5710 C5711 1.524 . S
C5710 H5729 0.913 . S
C5711 H5687 0.950 . S
C5711 C5710 1.524 . S
C5711 C5712 1.415 . S
C5712 H5688 0.950 . S
C5712 C5707 1.363 . S
C5712 C5711 1.415 . S
C5713 H5689 0.951 . S
C5713 C5714 1.366 . S
C5713 C5715 1.388 . S
C5714 C5713 1.366 . S
C5714 C5718 1.385 . S
C5715 H5690 0.951 . S
C5715 C5713 1.388 . S
C5715 C5716 1.366 . S
C5716 C5715 1.366 . S
C5716 C5717 1.414 . S
C5716 C5719 1.499 . S
C5717 H5691 0.950 . S
C5717 C5716 1.414 . S
C5717 C5718 1.374 . S
C5718 H5692 0.950 . S
C5718 C5714 1.385 . S
C5718 C5717 1.374 . S
C5719 C5716 1.499 . S
C5719 C5720 1.373 . S
C5719 C5721 1.389 . S
C5720 H5693 0.950 . S
C5720 C5706 1.377 . S
C5720 C5719 1.373 . S
C5721 C5705 1.377 . S
C5721 C5719 1.389 . S
C5721 C5722 1.524 . S
C5722 C5721 1.524 . S
C5722 C5723 1.397 . S
C5722 C5727 1.363 . S
C5723 H5694 0.950 . S
C5723 C5722 1.397 . S
C5723 C5724 1.334 . S
C5724 H5695 0.950 . S
C5724 C5723 1.334 . S
C5724 C5725 1.287 . S
C5725 C5724 1.287 . S
C5725 C5726 1.524 . S
C5725 H5728 0.999 . S
C5726 H5696 0.950 . S
C5726 C5725 1.524 . S
C5726 C5727 1.415 . S
C5727 H5697 0.950 . S
C5727 C5722 1.363 . S
C5727 C5726 1.415 . S
H5728 C5725 0.999 . S
H5729 C5710 0.913 . S
H5730 C5748 0.951 . S
H5731 C5750 0.951 . S
H5732 C5752 0.950 . S
H5733 C5753 0.950 . S
H5734 C5755 0.950 . S
H5735 C5758 0.950 . S
H5736 C5759 0.950 . S
H5737 C5761 0.950 . S
H5738 C5762 0.950 . S
H5739 C5763 0.951 . S
H5740 C5765 0.951 . S
H5741 C5767 0.950 . S
H5742 C5768 0.950 . S
H5743 C5770 0.950 . S
H5744 C5773 0.950 . S
H5745 C5774 0.950 . S
H5746 C5776 0.950 . S
H5747 C5777 0.950 . S
C5748 H5730 0.951 . S
C5748 C5749 1.366 . S
C5748 C5750 1.388 . S
C5749 C5748 1.366 . S
C5749 C5753 1.385 . S
C5750 H5731 0.951 . S
C5750 C5748 1.388 . S
C5750 C5751 1.366 . S
C5751 C5750 1.366 . S
C5751 C5752 1.414 . S
C5751 C5754 1.499 . S
C5752 H5732 0.950 . S
C5752 C5751 1.414 . S
C5752 C5753 1.374 . S
C5753 H5733 0.950 . S
C5753 C5749 1.385 . S
C5753 C5752 1.374 . S
C5754 C5751 1.499 . S
C5754 C5755 1.373 . S
C5754 C5756 1.389 . S
C5755 H5734 0.950 . S
C5755 C5754 1.373 . S
C5755 C5771 1.377 . S
C5756 C5754 1.389 . S
C5756 C5757 1.524 . S
C5756 C5770 1.377 . S
C5757 C5756 1.524 . S
C5757 C5758 1.397 . S
C5757 C5762 1.363 . S
C5758 H5735 0.950 . S
C5758 C5757 1.397 . S
C5758 C5759 1.334 . S
C5759 H5736 0.950 . S
C5759 C5758 1.334 . S
C5759 C5760 1.287 . S
C5760 C5759 1.287 . S
C5760 C5761 1.524 . S
C5760 H5779 0.913 . S
C5761 H5737 0.950 . S
C5761 C5760 1.524 . S
C5761 C5762 1.415 . S
C5762 H5738 0.950 . S
C5762 C5757 1.363 . S
C5762 C5761 1.415 . S
C5763 H5739 0.951 . S
C5763 C5764 1.366 . S
C5763 C5765 1.388 . S
C5764 C5763 1.366 . S
C5764 C5768 1.385 . S
C5765 H5740 0.951 . S
C5765 C5763 1.388 . S
C5765 C5766 1.366 . S
C5766 C5765 1.366 . S
C5766 C5767 1.414 . S
C5766 C5769 1.499 . S
C5767 H5741 0.950 . S
C5767 C5766 1.414 . S
C5767 C5768 1.374 . S
C5768 H5742 0.950 . S
C5768 C5764 1.385 . S
C5768 C5767 1.374 . S
C5769 C5766 1.499 . S
C5769 C5770 1.373 . S
C5769 C5771 1.389 . S
C5770 H5743 0.950 . S
C5770 C5756 1.377 . S
C5770 C5769 1.373 . S
C5771 C5755 1.377 . S
C5771 C5769 1.389 . S
C5771 C5772 1.524 . S
C5772 C5771 1.524 . S
C5772 C5773 1.397 . S
C5772 C5777 1.363 . S
C5773 H5744 0.950 . S
C5773 C5772 1.397 . S
C5773 C5774 1.334 . S
C5774 H5745 0.950 . S
C5774 C5773 1.334 . S
C5774 C5775 1.287 . S
C5775 C5774 1.287 . S
C5775 C5776 1.524 . S
C5775 H5778 0.999 . S
C5776 H5746 0.950 . S
C5776 C5775 1.524 . S
C5776 C5777 1.415 . S
C5777 H5747 0.950 . S
C5777 C5772 1.363 . S
C5777 C5776 1.415 . S
H5778 C5775 0.999 . S
H5779 C5760 0.913 . S
H5780 C5798 0.951 . S
H5781 C5800 0.951 . S
H5782 C5802 0.950 . S
H5783 C5803 0.950 . S
H5784 C5805 0.950 . S
H5785 C5808 0.950 . S
H5786 C5809 0.950 . S
H5787 C5811 0.950 . S
H5788 C5812 0.950 . S
H5789 C5813 0.951 . S
H5790 C5815 0.951 . S
H5791 C5817 0.950 1_655 S
H5792 C5818 0.950 1_554 S
H5793 C5820 0.950 . S
H5794 C5823 0.950 . S
H5795 C5824 0.950 . S
H5796 C5826 0.950 . S
H5797 C5827 0.950 . S
C5798 H5780 0.951 . S
C5798 C5799 1.366 . S
C5798 C5800 1.388 . S
C5799 C5798 1.366 . S
C5799 C5803 1.385 . S
C5800 H5781 0.951 . S
C5800 C5798 1.388 . S
C5800 C5801 1.366 . S
C5801 C5800 1.366 . S
C5801 C5802 1.414 . S
C5801 C5804 1.499 . S
C5802 H5782 0.950 . S
C5802 C5801 1.414 . S
C5802 C5803 1.374 . S
C5803 H5783 0.950 . S
C5803 C5799 1.385 . S
C5803 C5802 1.374 . S
C5804 C5801 1.499 . S
C5804 C5805 1.373 . S
C5804 C5806 1.389 . S
C5805 H5784 0.950 . S
C5805 C5804 1.373 . S
C5805 C5821 1.377 . S
C5806 C5804 1.389 . S
C5806 C5807 1.524 . S
C5806 C5820 1.377 . S
C5807 C5806 1.524 . S
C5807 C5808 1.397 . S
C5807 C5812 1.363 . S
C5808 H5785 0.950 . S
C5808 C5807 1.397 . S
C5808 C5809 1.334 . S
C5809 H5786 0.950 . S
C5809 C5808 1.334 . S
C5809 C5810 1.287 . S
C5810 C5809 1.287 . S
C5810 C5811 1.524 . S
C5810 H5829 0.913 . S
C5811 H5787 0.950 . S
C5811 C5810 1.524 . S
C5811 C5812 1.415 . S
C5812 H5788 0.950 . S
C5812 C5807 1.363 . S
C5812 C5811 1.415 . S
C5813 H5789 0.951 . S
C5813 C5814 1.366 . S
C5813 C5815 1.388 . S
C5814 C5813 1.366 . S
C5814 C5818 1.385 . S
C5815 H5790 0.951 . S
C5815 C5813 1.388 . S
C5815 C5816 1.366 . S
C5816 C5815 1.366 . S
C5816 C5817 1.414 . S
C5816 C5819 1.499 1_455 S
C5817 H5791 0.950 1_455 S
C5817 C5816 1.414 . S
C5817 C5818 1.374 . S
C5818 H5792 0.950 1_556 S
C5818 C5814 1.385 . S
C5818 C5817 1.374 . S
C5819 C5816 1.499 1_655 S
C5819 C5820 1.373 . S
C5819 C5821 1.389 . S
C5820 H5793 0.950 . S
C5820 C5806 1.377 . S
C5820 C5819 1.373 . S
C5821 C5805 1.377 . S
C5821 C5819 1.389 . S
C5821 C5822 1.524 . S
C5822 C5821 1.524 . S
C5822 C5823 1.397 . S
C5822 C5827 1.363 1_655 S
C5823 H5794 0.950 . S
C5823 C5822 1.397 . S
C5823 C5824 1.334 . S
C5824 H5795 0.950 . S
C5824 C5823 1.334 . S
C5824 C5825 1.287 1_655 S
C5825 C5824 1.287 1_455 S
C5825 C5826 1.524 . S
C5825 H5828 0.999 . S
C5826 H5796 0.950 . S
C5826 C5825 1.524 . S
C5826 C5827 1.415 . S
C5827 H5797 0.950 . S
C5827 C5822 1.363 1_455 S
C5827 C5826 1.415 . S
H5828 C5825 0.999 . S
H5829 C5810 0.913 . S
H5830 C5848 0.951 . S
H5831 C5850 0.951 . S
H5832 C5852 0.950 . S
H5833 C5853 0.950 . S
H5834 C5855 0.950 . S
H5835 C5858 0.950 . S
H5836 C5859 0.950 . S
H5837 C5861 0.950 . S
H5838 C5862 0.950 . S
H5839 C5863 0.951 . S
H5840 C5865 0.951 . S
H5841 C5867 0.950 . S
H5842 C5868 0.950 . S
H5843 C5870 0.950 . S
H5844 C5873 0.950 . S
H5845 C5874 0.950 . S
H5846 C5876 0.950 . S
H5847 C5877 0.950 . S
C5848 H5830 0.951 . S
C5848 C5849 1.366 . S
C5848 C5850 1.388 . S
C5849 C5848 1.366 . S
C5849 C5853 1.385 . S
C5850 H5831 0.951 . S
C5850 C5848 1.388 . S
C5850 C5851 1.366 . S
C5851 C5850 1.366 . S
C5851 C5852 1.414 . S
C5851 C5854 1.499 . S
C5852 H5832 0.950 . S
C5852 C5851 1.414 . S
C5852 C5853 1.374 . S
C5853 H5833 0.950 . S
C5853 C5849 1.385 . S
C5853 C5852 1.374 . S
C5854 C5851 1.499 . S
C5854 C5855 1.373 . S
C5854 C5856 1.389 . S
C5855 H5834 0.950 . S
C5855 C5854 1.373 . S
C5855 C5871 1.377 . S
C5856 C5854 1.389 . S
C5856 C5857 1.524 . S
C5856 C5870 1.377 . S
C5857 C5856 1.524 . S
C5857 C5858 1.397 . S
C5857 C5862 1.363 . S
C5858 H5835 0.950 . S
C5858 C5857 1.397 . S
C5858 C5859 1.334 . S
C5859 H5836 0.950 . S
C5859 C5858 1.334 . S
C5859 C5860 1.287 . S
C5860 C5859 1.287 . S
C5860 C5861 1.524 . S
C5860 H5879 0.913 . S
C5861 H5837 0.950 . S
C5861 C5860 1.524 . S
C5861 C5862 1.415 . S
C5862 H5838 0.950 . S
C5862 C5857 1.363 . S
C5862 C5861 1.415 . S
C5863 H5839 0.951 . S
C5863 C5864 1.366 . S
C5863 C5865 1.388 . S
C5864 C5863 1.366 . S
C5864 C5868 1.385 . S
C5865 H5840 0.951 . S
C5865 C5863 1.388 . S
C5865 C5866 1.366 . S
C5866 C5865 1.366 . S
C5866 C5867 1.414 . S
C5866 C5869 1.499 . S
C5867 H5841 0.950 . S
C5867 C5866 1.414 . S
C5867 C5868 1.374 . S
C5868 H5842 0.950 . S
C5868 C5864 1.385 . S
C5868 C5867 1.374 . S
C5869 C5866 1.499 . S
C5869 C5870 1.373 . S
C5869 C5871 1.389 . S
C5870 H5843 0.950 . S
C5870 C5856 1.377 . S
C5870 C5869 1.373 . S
C5871 C5855 1.377 . S
C5871 C5869 1.389 . S
C5871 C5872 1.524 . S
C5872 C5871 1.524 . S
C5872 C5873 1.397 . S
C5872 C5877 1.363 . S
C5873 H5844 0.950 . S
C5873 C5872 1.397 . S
C5873 C5874 1.334 . S
C5874 H5845 0.950 . S
C5874 C5873 1.334 . S
C5874 C5875 1.287 . S
C5875 C5874 1.287 . S
C5875 C5876 1.524 . S
C5875 H5878 0.999 . S
C5876 H5846 0.950 . S
C5876 C5875 1.524 . S
C5876 C5877 1.415 . S
C5877 H5847 0.950 . S
C5877 C5872 1.363 . S
C5877 C5876 1.415 . S
H5878 C5875 0.999 . S
H5879 C5860 0.913 . S
H5880 C5898 0.951 . S
H5881 C5900 0.951 . S
H5882 C5902 0.950 . S
H5883 C5903 0.950 . S
H5884 C5905 0.950 . S
H5885 C5908 0.950 . S
H5886 C5909 0.950 . S
H5887 C5911 0.950 . S
H5888 C5912 0.950 . S
H5889 C5913 0.951 . S
H5890 C5915 0.951 . S
H5891 C5917 0.950 . S
H5892 C5918 0.950 . S
H5893 C5920 0.950 . S
H5894 C5923 0.950 . S
H5895 C5924 0.950 . S
H5896 C5926 0.950 . S
H5897 C5927 0.950 . S
C5898 H5880 0.951 . S
C5898 C5899 1.366 . S
C5898 C5900 1.388 . S
C5899 C5898 1.366 . S
C5899 C5903 1.385 . S
C5900 H5881 0.951 . S
C5900 C5898 1.388 . S
C5900 C5901 1.366 . S
C5901 C5900 1.366 . S
C5901 C5902 1.414 . S
C5901 C5904 1.499 . S
C5902 H5882 0.950 . S
C5902 C5901 1.414 . S
C5902 C5903 1.374 . S
C5903 H5883 0.950 . S
C5903 C5899 1.385 . S
C5903 C5902 1.374 . S
C5904 C5901 1.499 . S
C5904 C5905 1.373 . S
C5904 C5906 1.389 . S
C5905 H5884 0.950 . S
C5905 C5904 1.373 . S
C5905 C5921 1.377 . S
C5906 C5904 1.389 . S
C5906 C5907 1.524 . S
C5906 C5920 1.377 . S
C5907 C5906 1.524 . S
C5907 C5908 1.397 . S
C5907 C5912 1.363 . S
C5908 H5885 0.950 . S
C5908 C5907 1.397 . S
C5908 C5909 1.334 . S
C5909 H5886 0.950 . S
C5909 C5908 1.334 . S
C5909 C5910 1.287 . S
C5910 C5909 1.287 . S
C5910 C5911 1.524 . S
C5910 H5929 0.913 . S
C5911 H5887 0.950 . S
C5911 C5910 1.524 . S
C5911 C5912 1.415 . S
C5912 H5888 0.950 . S
C5912 C5907 1.363 . S
C5912 C5911 1.415 . S
C5913 H5889 0.951 . S
C5913 C5914 1.366 . S
C5913 C5915 1.388 . S
C5914 C5913 1.366 . S
C5914 C5918 1.385 . S
C5915 H5890 0.951 . S
C5915 C5913 1.388 . S
C5915 C5916 1.366 . S
C5916 C5915 1.366 . S
C5916 C5917 1.414 . S
C5916 C5919 1.499 . S
C5917 H5891 0.950 . S
C5917 C5916 1.414 . S
C5917 C5918 1.374 . S
C5918 H5892 0.950 . S
C5918 C5914 1.385 . S
C5918 C5917 1.374 . S
C5919 C5916 1.499 . S
C5919 C5920 1.373 . S
C5919 C5921 1.389 . S
C5920 H5893 0.950 . S
C5920 C5906 1.377 . S
C5920 C5919 1.373 . S
C5921 C5905 1.377 . S
C5921 C5919 1.389 . S
C5921 C5922 1.524 . S
C5922 C5921 1.524 . S
C5922 C5923 1.397 . S
C5922 C5927 1.363 . S
C5923 H5894 0.950 . S
C5923 C5922 1.397 . S
C5923 C5924 1.334 . S
C5924 H5895 0.950 . S
C5924 C5923 1.334 . S
C5924 C5925 1.287 . S
C5925 C5924 1.287 . S
C5925 C5926 1.524 . S
C5925 H5928 0.999 . S
C5926 H5896 0.950 . S
C5926 C5925 1.524 . S
C5926 C5927 1.415 . S
C5927 H5897 0.950 . S
C5927 C5922 1.363 . S
C5927 C5926 1.415 . S
H5928 C5925 0.999 . S
H5929 C5910 0.913 . S
H5930 C5948 0.951 . S
H5931 C5950 0.951 . S
H5932 C5952 0.950 . S
H5933 C5953 0.950 . S
H5934 C5955 0.950 . S
H5935 C5958 0.950 . S
H5936 C5959 0.950 . S
H5937 C5961 0.950 . S
H5938 C5962 0.950 . S
H5939 C5963 0.951 . S
H5940 C5965 0.951 . S
H5941 C5967 0.950 . S
H5942 C5968 0.950 . S
H5943 C5970 0.950 . S
H5944 C5973 0.950 . S
H5945 C5974 0.950 . S
H5946 C5976 0.950 . S
H5947 C5977 0.950 . S
C5948 H5930 0.951 . S
C5948 C5949 1.366 . S
C5948 C5950 1.388 . S
C5949 C5948 1.366 . S
C5949 C5953 1.385 . S
C5950 H5931 0.951 . S
C5950 C5948 1.388 . S
C5950 C5951 1.366 . S
C5951 C5950 1.366 . S
C5951 C5952 1.414 . S
C5951 C5954 1.499 . S
C5952 H5932 0.950 . S
C5952 C5951 1.414 . S
C5952 C5953 1.374 . S
C5953 H5933 0.950 . S
C5953 C5949 1.385 . S
C5953 C5952 1.374 . S
C5954 C5951 1.499 . S
C5954 C5955 1.373 . S
C5954 C5956 1.389 . S
C5955 H5934 0.950 . S
C5955 C5954 1.373 . S
C5955 C5971 1.377 . S
C5956 C5954 1.389 . S
C5956 C5957 1.524 . S
C5956 C5970 1.377 . S
C5957 C5956 1.524 . S
C5957 C5958 1.397 . S
C5957 C5962 1.363 . S
C5958 H5935 0.950 . S
C5958 C5957 1.397 . S
C5958 C5959 1.334 . S
C5959 H5936 0.950 . S
C5959 C5958 1.334 . S
C5959 C5960 1.287 . S
C5960 C5959 1.287 . S
C5960 C5961 1.524 . S
C5960 H5979 0.913 . S
C5961 H5937 0.950 . S
C5961 C5960 1.524 . S
C5961 C5962 1.415 . S
C5962 H5938 0.950 . S
C5962 C5957 1.363 . S
C5962 C5961 1.415 . S
C5963 H5939 0.951 . S
C5963 C5964 1.366 . S
C5963 C5965 1.388 . S
C5964 C5963 1.366 . S
C5964 C5968 1.385 . S
C5965 H5940 0.951 . S
C5965 C5963 1.388 . S
C5965 C5966 1.366 . S
C5966 C5965 1.366 . S
C5966 C5967 1.414 . S
C5966 C5969 1.499 . S
C5967 H5941 0.950 . S
C5967 C5966 1.414 . S
C5967 C5968 1.374 . S
C5968 H5942 0.950 . S
C5968 C5964 1.385 . S
C5968 C5967 1.374 . S
C5969 C5966 1.499 . S
C5969 C5970 1.373 . S
C5969 C5971 1.389 . S
C5970 H5943 0.950 . S
C5970 C5956 1.377 . S
C5970 C5969 1.373 . S
C5971 C5955 1.377 . S
C5971 C5969 1.389 . S
C5971 C5972 1.524 . S
C5972 C5971 1.524 . S
C5972 C5973 1.397 . S
C5972 C5977 1.363 . S
C5973 H5944 0.950 . S
C5973 C5972 1.397 . S
C5973 C5974 1.334 . S
C5974 H5945 0.950 . S
C5974 C5973 1.334 . S
C5974 C5975 1.287 . S
C5975 C5974 1.287 . S
C5975 C5976 1.524 . S
C5975 H5978 0.999 . S
C5976 H5946 0.950 . S
C5976 C5975 1.524 . S
C5976 C5977 1.415 . S
C5977 H5947 0.950 . S
C5977 C5972 1.363 . S
C5977 C5976 1.415 . S
H5978 C5975 0.999 . S
H5979 C5960 0.913 . S
H5980 C5998 0.951 . S
H5981 C6000 0.951 . S
H5982 C6002 0.950 . S
H5983 C6003 0.950 . S
H5984 C6005 0.950 . S
H5985 C6008 0.950 . S
H5986 C6009 0.950 . S
H5987 C6011 0.950 . S
H5988 C6012 0.950 . S
H5989 C6013 0.951 . S
H5990 C6015 0.951 . S
H5991 C6017 0.950 . S
H5992 C6018 0.950 . S
H5993 C6020 0.948 1_455 S
H5994 C6023 0.950 . S
H5995 C6024 0.950 . S
H5996 C6026 0.950 . S
H5997 C6027 0.950 . S
C5998 H5980 0.951 . S
C5998 C5999 1.366 . S
C5998 C6000 1.388 . S
C5999 C5998 1.366 . S
C5999 C6003 1.385 . S
C6000 H5981 0.951 . S
C6000 C5998 1.388 . S
C6000 C6001 1.366 . S
C6001 C6000 1.366 . S
C6001 C6002 1.414 . S
C6001 C6004 1.499 . S
C6002 H5982 0.950 . S
C6002 C6001 1.414 . S
C6002 C6003 1.374 . S
C6003 H5983 0.950 . S
C6003 C5999 1.385 . S
C6003 C6002 1.374 . S
C6004 C6001 1.499 . S
C6004 C6005 1.373 . S
C6004 C6006 1.389 . S
C6005 H5984 0.950 . S
C6005 C6004 1.373 . S
C6005 C6021 1.377 . S
C6006 C6004 1.389 . S
C6006 C6007 1.524 . S
C6006 C6020 1.377 . S
C6007 C6006 1.524 . S
C6007 C6008 1.397 . S
C6007 C6012 1.363 1_655 S
C6008 H5985 0.950 . S
C6008 C6007 1.397 . S
C6008 C6009 1.334 . S
C6009 H5986 0.950 . S
C6009 C6008 1.334 . S
C6009 C6010 1.287 1_655 S
C6010 C6009 1.287 1_455 S
C6010 C6011 1.524 . S
C6010 H6029 0.913 . S
C6011 H5987 0.950 . S
C6011 C6010 1.524 . S
C6011 C6012 1.415 . S
C6012 H5988 0.950 . S
C6012 C6007 1.363 1_455 S
C6012 C6011 1.415 . S
C6013 H5989 0.951 . S
C6013 C6014 1.366 1_655 S
C6013 C6015 1.388 . S
C6014 C6013 1.366 1_455 S
C6014 C6018 1.385 . S
C6015 H5990 0.951 . S
C6015 C6013 1.388 . S
C6015 C6016 1.366 . S
C6016 C6015 1.366 . S
C6016 C6017 1.414 1_655 S
C6016 C6019 1.499 . S
C6017 H5991 0.950 . S
C6017 C6016 1.414 1_455 S
C6017 C6018 1.374 . S
C6018 H5992 0.950 . S
C6018 C6014 1.385 . S
C6018 C6017 1.374 . S
C6019 C6016 1.499 . S
C6019 C6020 1.373 . S
C6019 C6021 1.389 . S
C6020 H5993 0.948 1_655 S
C6020 C6006 1.377 . S
C6020 C6019 1.373 . S
C6021 C6005 1.377 . S
C6021 C6019 1.389 . S
C6021 C6022 1.524 . S
C6022 C6021 1.524 . S
C6022 C6023 1.397 . S
C6022 C6027 1.363 . S
C6023 H5994 0.950 . S
C6023 C6022 1.397 . S
C6023 C6024 1.334 . S
C6024 H5995 0.950 . S
C6024 C6023 1.334 . S
C6024 C6025 1.287 . S
C6025 C6024 1.287 . S
C6025 C6026 1.524 . S
C6025 H6028 0.999 . S
C6026 H5996 0.950 . S
C6026 C6025 1.524 . S
C6026 C6027 1.415 . S
C6027 H5997 0.950 . S
C6027 C6022 1.363 . S
C6027 C6026 1.415 . S
H6028 C6025 0.999 . S
H6029 C6010 0.913 . S
H6030 C6048 0.951 . S
H6031 C6050 0.951 . S
H6032 C6052 0.950 . S
H6033 C6053 0.950 . S
H6034 C6055 0.950 . S
H6035 C6058 0.950 . S
H6036 C6059 0.950 . S
H6037 C6061 0.950 . S
H6038 C6062 0.950 . S
H6039 C6063 0.951 . S
H6040 C6065 0.951 . S
H6041 C6067 0.950 . S
H6042 C6068 0.950 . S
H6043 C6070 0.950 . S
H6044 C6073 0.950 . S
H6045 C6074 0.950 . S
H6046 C6076 0.950 . S
H6047 C6077 0.950 . S
C6048 H6030 0.951 . S
C6048 C6049 1.366 . S
C6048 C6050 1.388 . S
C6049 C6048 1.366 . S
C6049 C6053 1.385 . S
C6050 H6031 0.951 . S
C6050 C6048 1.388 . S
C6050 C6051 1.366 . S
C6051 C6050 1.366 . S
C6051 C6052 1.414 . S
C6051 C6054 1.499 . S
C6052 H6032 0.950 . S
C6052 C6051 1.414 . S
C6052 C6053 1.374 . S
C6053 H6033 0.950 . S
C6053 C6049 1.385 . S
C6053 C6052 1.374 . S
C6054 C6051 1.499 . S
C6054 C6055 1.373 . S
C6054 C6056 1.389 . S
C6055 H6034 0.950 . S
C6055 C6054 1.373 . S
C6055 C6071 1.377 . S
C6056 C6054 1.389 . S
C6056 C6057 1.524 . S
C6056 C6070 1.377 . S
C6057 C6056 1.524 . S
C6057 C6058 1.397 . S
C6057 C6062 1.363 . S
C6058 H6035 0.950 . S
C6058 C6057 1.397 . S
C6058 C6059 1.334 . S
C6059 H6036 0.950 . S
C6059 C6058 1.334 . S
C6059 C6060 1.287 . S
C6060 C6059 1.287 . S
C6060 C6061 1.524 . S
C6060 H6079 0.913 . S
C6061 H6037 0.950 . S
C6061 C6060 1.524 . S
C6061 C6062 1.415 . S
C6062 H6038 0.950 . S
C6062 C6057 1.363 . S
C6062 C6061 1.415 . S
C6063 H6039 0.951 . S
C6063 C6064 1.366 . S
C6063 C6065 1.388 . S
C6064 C6063 1.366 . S
C6064 C6068 1.385 . S
C6065 H6040 0.951 . S
C6065 C6063 1.388 . S
C6065 C6066 1.366 . S
C6066 C6065 1.366 . S
C6066 C6067 1.414 . S
C6066 C6069 1.499 . S
C6067 H6041 0.950 . S
C6067 C6066 1.414 . S
C6067 C6068 1.374 . S
C6068 H6042 0.950 . S
C6068 C6064 1.385 . S
C6068 C6067 1.374 . S
C6069 C6066 1.499 . S
C6069 C6070 1.373 . S
C6069 C6071 1.389 . S
C6070 H6043 0.950 . S
C6070 C6056 1.377 . S
C6070 C6069 1.373 . S
C6071 C6055 1.377 . S
C6071 C6069 1.389 . S
C6071 C6072 1.524 . S
C6072 C6071 1.524 . S
C6072 C6073 1.397 . S
C6072 C6077 1.363 . S
C6073 H6044 0.950 . S
C6073 C6072 1.397 . S
C6073 C6074 1.334 . S
C6074 H6045 0.950 . S
C6074 C6073 1.334 . S
C6074 C6075 1.287 . S
C6075 C6074 1.287 . S
C6075 C6076 1.524 . S
C6075 H6078 0.999 . S
C6076 H6046 0.950 . S
C6076 C6075 1.524 . S
C6076 C6077 1.415 . S
C6077 H6047 0.950 . S
C6077 C6072 1.363 . S
C6077 C6076 1.415 . S
H6078 C6075 0.999 . S
H6079 C6060 0.913 . S
H6080 C6098 0.951 . S
H6081 C6100 0.951 . S
H6082 C6102 0.950 . S
H6083 C6103 0.950 . S
H6084 C6105 0.950 . S
H6085 C6108 0.950 . S
H6086 C6109 0.950 . S
H6087 C6111 0.950 . S
H6088 C6112 0.950 . S
H6089 C6113 0.951 . S
H6090 C6115 0.951 . S
H6091 C6117 0.950 . S
H6092 C6118 0.950 . S
H6093 C6120 0.950 . S
H6094 C6123 0.950 . S
H6095 C6124 0.950 . S
H6096 C6126 0.950 . S
H6097 C6127 0.950 . S
C6098 H6080 0.951 . S
C6098 C6099 1.366 . S
C6098 C6100 1.388 . S
C6099 C6098 1.366 . S
C6099 C6103 1.385 . S
C6100 H6081 0.951 . S
C6100 C6098 1.388 . S
C6100 C6101 1.366 . S
C6101 C6100 1.366 . S
C6101 C6102 1.414 . S
C6101 C6104 1.499 . S
C6102 H6082 0.950 . S
C6102 C6101 1.414 . S
C6102 C6103 1.374 . S
C6103 H6083 0.950 . S
C6103 C6099 1.385 . S
C6103 C6102 1.374 . S
C6104 C6101 1.499 . S
C6104 C6105 1.373 . S
C6104 C6106 1.389 . S
C6105 H6084 0.950 . S
C6105 C6104 1.373 . S
C6105 C6121 1.377 . S
C6106 C6104 1.389 . S
C6106 C6107 1.524 . S
C6106 C6120 1.377 . S
C6107 C6106 1.524 . S
C6107 C6108 1.397 . S
C6107 C6112 1.363 . S
C6108 H6085 0.950 . S
C6108 C6107 1.397 . S
C6108 C6109 1.334 . S
C6109 H6086 0.950 . S
C6109 C6108 1.334 . S
C6109 C6110 1.287 . S
C6110 C6109 1.287 . S
C6110 C6111 1.524 . S
C6110 H6129 0.913 . S
C6111 H6087 0.950 . S
C6111 C6110 1.524 . S
C6111 C6112 1.415 . S
C6112 H6088 0.950 . S
C6112 C6107 1.363 . S
C6112 C6111 1.415 . S
C6113 H6089 0.951 . S
C6113 C6114 1.366 . S
C6113 C6115 1.388 . S
C6114 C6113 1.366 . S
C6114 C6118 1.385 . S
C6115 H6090 0.951 . S
C6115 C6113 1.388 . S
C6115 C6116 1.366 . S
C6116 C6115 1.366 . S
C6116 C6117 1.414 . S
C6116 C6119 1.499 . S
C6117 H6091 0.950 . S
C6117 C6116 1.414 . S
C6117 C6118 1.374 . S
C6118 H6092 0.950 . S
C6118 C6114 1.385 . S
C6118 C6117 1.374 . S
C6119 C6116 1.499 . S
C6119 C6120 1.373 . S
C6119 C6121 1.389 . S
C6120 H6093 0.950 . S
C6120 C6106 1.377 . S
C6120 C6119 1.373 . S
C6121 C6105 1.377 . S
C6121 C6119 1.389 . S
C6121 C6122 1.524 . S
C6122 C6121 1.524 . S
C6122 C6123 1.397 . S
C6122 C6127 1.363 . S
C6123 H6094 0.950 . S
C6123 C6122 1.397 . S
C6123 C6124 1.334 . S
C6124 H6095 0.950 . S
C6124 C6123 1.334 . S
C6124 C6125 1.287 . S
C6125 C6124 1.287 . S
C6125 C6126 1.524 . S
C6125 H6128 0.999 . S
C6126 H6096 0.950 . S
C6126 C6125 1.524 . S
C6126 C6127 1.415 . S
C6127 H6097 0.950 . S
C6127 C6122 1.363 . S
C6127 C6126 1.415 . S
H6128 C6125 0.999 . S
H6129 C6110 0.913 . S
H6130 C6148 0.951 . S
H6131 C6150 0.951 . S
H6132 C6152 0.950 . S
H6133 C6153 0.950 . S
H6134 C6155 0.950 . S
H6135 C6158 0.950 . S
H6136 C6159 0.950 . S
H6137 C6161 0.950 . S
H6138 C6162 0.950 . S
H6139 C6163 0.951 . S
H6140 C6165 0.951 . S
H6141 C6167 0.950 . S
H6142 C6168 0.939 1_455 S
H6143 C6170 0.950 . S
H6144 C6173 0.950 . S
H6145 C6174 0.950 . S
H6146 C6176 0.950 . S
H6147 C6177 0.950 . S
C6148 H6130 0.951 . S
C6148 C6149 1.366 . S
C6148 C6150 1.388 . S
C6149 C6148 1.366 . S
C6149 C6153 1.385 . S
C6150 H6131 0.951 . S
C6150 C6148 1.388 . S
C6150 C6151 1.366 . S
C6151 C6150 1.366 . S
C6151 C6152 1.414 . S
C6151 C6154 1.499 . S
C6152 H6132 0.950 . S
C6152 C6151 1.414 . S
C6152 C6153 1.374 . S
C6153 H6133 0.950 . S
C6153 C6149 1.385 . S
C6153 C6152 1.374 . S
C6154 C6151 1.499 . S
C6154 C6155 1.373 . S
C6154 C6156 1.389 . S
C6155 H6134 0.950 . S
C6155 C6154 1.373 . S
C6155 C6171 1.377 . S
C6156 C6154 1.389 . S
C6156 C6157 1.524 . S
C6156 C6170 1.377 . S
C6157 C6156 1.524 . S
C6157 C6158 1.397 . S
C6157 C6162 1.363 . S
C6158 H6135 0.950 . S
C6158 C6157 1.397 . S
C6158 C6159 1.334 . S
C6159 H6136 0.950 . S
C6159 C6158 1.334 . S
C6159 C6160 1.287 . S
C6160 C6159 1.287 . S
C6160 C6161 1.525 1_565 S
C6160 H6179 0.913 1_565 S
C6161 H6137 0.950 . S
C6161 C6160 1.525 1_545 S
C6161 C6162 1.413 1_545 S
C6162 H6138 0.950 . S
C6162 C6157 1.363 . S
C6162 C6161 1.413 1_565 S
C6163 H6139 0.951 . S
C6163 C6164 1.366 1_565 S
C6163 C6165 1.388 . S
C6164 C6163 1.366 1_545 S
C6164 C6168 1.385 . S
C6165 H6140 0.951 . S
C6165 C6163 1.388 . S
C6165 C6166 1.366 . S
C6166 C6165 1.366 . S
C6166 C6167 1.414 . S
C6166 C6169 1.499 . S
C6167 H6141 0.950 . S
C6167 C6166 1.414 . S
C6167 C6168 1.374 1_565 S
C6168 H6142 0.939 1_655 S
C6168 C6164 1.385 . S
C6168 C6167 1.374 1_545 S
C6169 C6166 1.499 . S
C6169 C6170 1.373 . S
C6169 C6171 1.389 . S
C6170 H6143 0.950 . S
C6170 C6156 1.377 . S
C6170 C6169 1.373 . S
C6171 C6155 1.377 . S
C6171 C6169 1.389 . S
C6171 C6172 1.524 . S
C6172 C6171 1.524 . S
C6172 C6173 1.397 . S
C6172 C6177 1.363 . S
C6173 H6144 0.950 . S
C6173 C6172 1.397 . S
C6173 C6174 1.334 . S
C6174 H6145 0.950 . S
C6174 C6173 1.334 . S
C6174 C6175 1.287 . S
C6175 C6174 1.287 . S
C6175 C6176 1.524 . S
C6175 H6178 0.999 . S
C6176 H6146 0.950 . S
C6176 C6175 1.524 . S
C6176 C6177 1.415 . S
C6177 H6147 0.950 . S
C6177 C6172 1.363 . S
C6177 C6176 1.415 . S
H6178 C6175 0.999 . S
H6179 C6160 0.913 1_545 S
H6180 C6198 0.951 . S
H6181 C6200 0.951 . S
H6182 C6202 0.950 . S
H6183 C6203 0.950 . S
H6184 C6205 0.950 . S
H6185 C6208 0.950 . S
H6186 C6209 0.950 . S
H6187 C6211 0.950 . S
H6188 C6212 0.950 . S
H6189 C6213 0.951 . S
H6190 C6215 0.951 . S
H6191 C6217 0.950 . S
H6192 C6218 0.950 . S
H6193 C6220 0.950 . S
H6194 C6223 0.950 . S
H6195 C6224 0.950 . S
H6196 C6226 0.950 . S
H6197 C6227 0.950 . S
C6198 H6180 0.951 . S
C6198 C6199 1.366 . S
C6198 C6200 1.388 . S
C6199 C6198 1.366 . S
C6199 C6203 1.385 . S
C6200 H6181 0.951 . S
C6200 C6198 1.388 . S
C6200 C6201 1.366 . S
C6201 C6200 1.366 . S
C6201 C6202 1.414 . S
C6201 C6204 1.499 . S
C6202 H6182 0.950 . S
C6202 C6201 1.414 . S
C6202 C6203 1.374 . S
C6203 H6183 0.950 . S
C6203 C6199 1.385 . S
C6203 C6202 1.374 . S
C6204 C6201 1.499 . S
C6204 C6205 1.373 . S
C6204 C6206 1.389 . S
C6205 H6184 0.950 . S
C6205 C6204 1.373 . S
C6205 C6221 1.377 . S
C6206 C6204 1.389 . S
C6206 C6207 1.524 . S
C6206 C6220 1.377 . S
C6207 C6206 1.524 . S
C6207 C6208 1.397 . S
C6207 C6212 1.363 . S
C6208 H6185 0.950 . S
C6208 C6207 1.397 . S
C6208 C6209 1.334 . S
C6209 H6186 0.950 . S
C6209 C6208 1.334 . S
C6209 C6210 1.287 . S
C6210 C6209 1.287 . S
C6210 C6211 1.524 . S
C6210 H6229 0.913 . S
C6211 H6187 0.950 . S
C6211 C6210 1.524 . S
C6211 C6212 1.415 . S
C6212 H6188 0.950 . S
C6212 C6207 1.363 . S
C6212 C6211 1.415 . S
C6213 H6189 0.951 . S
C6213 C6214 1.366 . S
C6213 C6215 1.388 . S
C6214 C6213 1.366 . S
C6214 C6218 1.385 . S
C6215 H6190 0.951 . S
C6215 C6213 1.388 . S
C6215 C6216 1.366 . S
C6216 C6215 1.366 . S
C6216 C6217 1.414 . S
C6216 C6219 1.499 . S
C6217 H6191 0.950 . S
C6217 C6216 1.414 . S
C6217 C6218 1.374 . S
C6218 H6192 0.950 . S
C6218 C6214 1.385 . S
C6218 C6217 1.374 . S
C6219 C6216 1.499 . S
C6219 C6220 1.373 . S
C6219 C6221 1.389 . S
C6220 H6193 0.950 . S
C6220 C6206 1.377 . S
C6220 C6219 1.373 . S
C6221 C6205 1.377 . S
C6221 C6219 1.389 . S
C6221 C6222 1.524 . S
C6222 C6221 1.524 . S
C6222 C6223 1.397 . S
C6222 C6227 1.363 . S
C6223 H6194 0.950 . S
C6223 C6222 1.397 . S
C6223 C6224 1.334 . S
C6224 H6195 0.950 . S
C6224 C6223 1.334 . S
C6224 C6225 1.287 . S
C6225 C6224 1.287 . S
C6225 C6226 1.524 . S
C6225 H6228 0.999 . S
C6226 H6196 0.950 . S
C6226 C6225 1.524 . S
C6226 C6227 1.415 . S
C6227 H6197 0.950 . S
C6227 C6222 1.363 . S
C6227 C6226 1.415 . S
H6228 C6225 0.999 . S
H6229 C6210 0.913 . S
H6230 C6248 0.951 . S
H6231 C6250 0.951 . S
H6232 C6252 0.950 . S
H6233 C6253 0.950 . S
H6234 C6255 0.950 . S
H6235 C6258 0.950 . S
H6236 C6259 0.950 . S
H6237 C6261 0.950 . S
H6238 C6262 0.950 . S
H6239 C6263 0.951 . S
H6240 C6265 0.951 . S
H6241 C6267 0.950 . S
H6242 C6268 0.950 . S
H6243 C6270 0.950 . S
H6244 C6273 0.950 . S
H6245 C6274 0.950 . S
H6246 C6276 0.950 . S
H6247 C6277 0.950 . S
C6248 H6230 0.951 . S
C6248 C6249 1.366 . S
C6248 C6250 1.388 . S
C6249 C6248 1.366 . S
C6249 C6253 1.385 . S
C6250 H6231 0.951 . S
C6250 C6248 1.388 . S
C6250 C6251 1.366 . S
C6251 C6250 1.366 . S
C6251 C6252 1.414 . S
C6251 C6254 1.499 . S
C6252 H6232 0.950 . S
C6252 C6251 1.414 . S
C6252 C6253 1.374 . S
C6253 H6233 0.950 . S
C6253 C6249 1.385 . S
C6253 C6252 1.374 . S
C6254 C6251 1.499 . S
C6254 C6255 1.373 . S
C6254 C6256 1.389 . S
C6255 H6234 0.950 . S
C6255 C6254 1.373 . S
C6255 C6271 1.377 . S
C6256 C6254 1.389 . S
C6256 C6257 1.524 . S
C6256 C6270 1.377 . S
C6257 C6256 1.524 . S
C6257 C6258 1.397 1_554 S
C6257 C6262 1.363 . S
C6258 H6235 0.950 . S
C6258 C6257 1.397 1_556 S
C6258 C6259 1.334 . S
C6259 H6236 0.950 . S
C6259 C6258 1.334 . S
C6259 C6260 1.287 . S
C6260 C6259 1.287 . S
C6260 C6261 1.524 1_556 S
C6260 H6279 0.913 . S
C6261 H6237 0.950 . S
C6261 C6260 1.524 1_554 S
C6261 C6262 1.415 . S
C6262 H6238 0.950 . S
C6262 C6257 1.363 . S
C6262 C6261 1.415 . S
C6263 H6239 0.951 . S
C6263 C6264 1.366 . S
C6263 C6265 1.388 . S
C6264 C6263 1.366 . S
C6264 C6268 1.385 . S
C6265 H6240 0.951 . S
C6265 C6263 1.388 . S
C6265 C6266 1.366 . S
C6266 C6265 1.366 . S
C6266 C6267 1.414 . S
C6266 C6269 1.499 . S
C6267 H6241 0.950 . S
C6267 C6266 1.414 . S
C6267 C6268 1.374 . S
C6268 H6242 0.950 . S
C6268 C6264 1.385 . S
C6268 C6267 1.374 . S
C6269 C6266 1.499 . S
C6269 C6270 1.373 . S
C6269 C6271 1.389 . S
C6270 H6243 0.950 . S
C6270 C6256 1.377 . S
C6270 C6269 1.373 . S
C6271 C6255 1.377 . S
C6271 C6269 1.389 . S
C6271 C6272 1.524 . S
C6272 C6271 1.524 . S
C6272 C6273 1.397 . S
C6272 C6277 1.363 . S
C6273 H6244 0.950 . S
C6273 C6272 1.397 . S
C6273 C6274 1.334 . S
C6274 H6245 0.950 . S
C6274 C6273 1.334 . S
C6274 C6275 1.287 . S
C6275 C6274 1.287 . S
C6275 C6276 1.524 . S
C6275 H6278 0.999 . S
C6276 H6246 0.950 . S
C6276 C6275 1.524 . S
C6276 C6277 1.415 . S
C6277 H6247 0.950 . S
C6277 C6272 1.363 . S
C6277 C6276 1.415 . S
H6278 C6275 0.999 . S
H6279 C6260 0.913 . S
H6280 C6298 0.951 . S
H6281 C6300 0.951 . S
H6282 C6302 0.950 . S
H6283 C6303 0.950 . S
H6284 C6305 0.950 . S
H6285 C6308 0.950 . S
H6286 C6309 0.950 . S
H6287 C6311 0.950 . S
H6288 C6312 0.950 . S
H6289 C6313 0.951 . S
H6290 C6315 0.951 . S
H6291 C6317 0.950 . S
H6292 C6318 0.950 . S
H6293 C6320 0.950 . S
H6294 C6323 0.950 . S
H6295 C6324 0.950 . S
H6296 C6326 0.950 . S
H6297 C6327 0.950 . S
C6298 H6280 0.951 . S
C6298 C6299 1.366 . S
C6298 C6300 1.388 . S
C6299 C6298 1.366 . S
C6299 C6303 1.385 . S
C6300 H6281 0.951 . S
C6300 C6298 1.388 . S
C6300 C6301 1.366 . S
C6301 C6300 1.366 . S
C6301 C6302 1.414 . S
C6301 C6304 1.499 . S
C6302 H6282 0.950 . S
C6302 C6301 1.414 . S
C6302 C6303 1.374 . S
C6303 H6283 0.950 . S
C6303 C6299 1.385 . S
C6303 C6302 1.374 . S
C6304 C6301 1.499 . S
C6304 C6305 1.373 . S
C6304 C6306 1.389 . S
C6305 H6284 0.950 . S
C6305 C6304 1.373 . S
C6305 C6321 1.377 . S
C6306 C6304 1.389 . S
C6306 C6307 1.524 . S
C6306 C6320 1.377 . S
C6307 C6306 1.524 . S
C6307 C6308 1.397 . S
C6307 C6312 1.363 . S
C6308 H6285 0.950 . S
C6308 C6307 1.397 . S
C6308 C6309 1.334 . S
C6309 H6286 0.950 . S
C6309 C6308 1.334 . S
C6309 C6310 1.287 . S
C6310 C6309 1.287 . S
C6310 C6311 1.524 . S
C6310 H6329 0.913 . S
C6311 H6287 0.950 . S
C6311 C6310 1.524 . S
C6311 C6312 1.415 . S
C6312 H6288 0.950 . S
C6312 C6307 1.363 . S
C6312 C6311 1.415 . S
C6313 H6289 0.951 . S
C6313 C6314 1.366 . S
C6313 C6315 1.388 . S
C6314 C6313 1.366 . S
C6314 C6318 1.385 . S
C6315 H6290 0.951 . S
C6315 C6313 1.388 . S
C6315 C6316 1.366 . S
C6316 C6315 1.366 . S
C6316 C6317 1.414 . S
C6316 C6319 1.499 . S
C6317 H6291 0.950 . S
C6317 C6316 1.414 . S
C6317 C6318 1.374 . S
C6318 H6292 0.950 . S
C6318 C6314 1.385 . S
C6318 C6317 1.374 . S
C6319 C6316 1.499 . S
C6319 C6320 1.373 . S
C6319 C6321 1.389 . S
C6320 H6293 0.950 . S
C6320 C6306 1.377 . S
C6320 C6319 1.373 . S
C6321 C6305 1.377 . S
C6321 C6319 1.389 . S
C6321 C6322 1.524 . S
C6322 C6321 1.524 . S
C6322 C6323 1.397 . S
C6322 C6327 1.363 . S
C6323 H6294 0.950 . S
C6323 C6322 1.397 . S
C6323 C6324 1.334 . S
C6324 H6295 0.950 . S
C6324 C6323 1.334 . S
C6324 C6325 1.287 . S
C6325 C6324 1.287 . S
C6325 C6326 1.524 . S
C6325 H6328 0.999 . S
C6326 H6296 0.950 . S
C6326 C6325 1.524 . S
C6326 C6327 1.415 . S
C6327 H6297 0.950 . S
C6327 C6322 1.363 . S
C6327 C6326 1.415 . S
H6328 C6325 0.999 . S
H6329 C6310 0.913 . S
H6330 C6348 0.951 . S
H6331 C6350 0.951 . S
H6332 C6352 0.950 . S
H6333 C6353 0.950 . S
H6334 C6355 0.950 . S
H6335 C6358 0.950 . S
H6336 C6359 0.950 . S
H6337 C6361 0.950 . S
H6338 C6362 0.950 . S
H6339 C6363 0.951 . S
H6340 C6365 0.951 . S
H6341 C6367 0.950 . S
H6342 C6368 0.950 . S
H6343 C6370 0.950 . S
H6344 C6373 0.928 1_556 S
H6345 C6374 0.950 . S
H6346 C6376 0.950 . S
H6347 C6377 0.950 . S
C6348 H6330 0.951 . S
C6348 C6349 1.366 . S
C6348 C6350 1.388 . S
C6349 C6348 1.366 . S
C6349 C6353 1.385 . S
C6350 H6331 0.951 . S
C6350 C6348 1.388 . S
C6350 C6351 1.366 . S
C6351 C6350 1.366 . S
C6351 C6352 1.414 . S
C6351 C6354 1.499 . S
C6352 H6332 0.950 . S
C6352 C6351 1.414 . S
C6352 C6353 1.374 . S
C6353 H6333 0.950 . S
C6353 C6349 1.385 . S
C6353 C6352 1.374 . S
C6354 C6351 1.499 . S
C6354 C6355 1.373 . S
C6354 C6356 1.389 . S
C6355 H6334 0.950 . S
C6355 C6354 1.373 . S
C6355 C6371 1.377 . S
C6356 C6354 1.389 . S
C6356 C6357 1.524 . S
C6356 C6370 1.377 . S
C6357 C6356 1.524 . S
C6357 C6358 1.397 . S
C6357 C6362 1.363 . S
C6358 H6335 0.950 . S
C6358 C6357 1.397 . S
C6358 C6359 1.334 . S
C6359 H6336 0.950 . S
C6359 C6358 1.334 . S
C6359 C6360 1.287 . S
C6360 C6359 1.287 . S
C6360 C6361 1.524 . S
C6360 H6379 0.913 . S
C6361 H6337 0.950 . S
C6361 C6360 1.524 . S
C6361 C6362 1.415 . S
C6362 H6338 0.950 . S
C6362 C6357 1.363 . S
C6362 C6361 1.415 . S
C6363 H6339 0.951 . S
C6363 C6364 1.366 . S
C6363 C6365 1.388 . S
C6364 C6363 1.366 . S
C6364 C6368 1.385 . S
C6365 H6340 0.951 . S
C6365 C6363 1.388 . S
C6365 C6366 1.366 . S
C6366 C6365 1.366 . S
C6366 C6367 1.414 . S
C6366 C6369 1.499 . S
C6367 H6341 0.950 . S
C6367 C6366 1.414 . S
C6367 C6368 1.374 . S
C6368 H6342 0.950 . S
C6368 C6364 1.385 . S
C6368 C6367 1.374 . S
C6369 C6366 1.499 . S
C6369 C6370 1.373 . S
C6369 C6371 1.389 . S
C6370 H6343 0.950 . S
C6370 C6356 1.377 . S
C6370 C6369 1.373 . S
C6371 C6355 1.377 . S
C6371 C6369 1.389 . S
C6371 C6372 1.524 . S
C6372 C6371 1.524 . S
C6372 C6373 1.397 . S
C6372 C6377 1.363 . S
C6373 H6344 0.928 1_554 S
C6373 C6372 1.397 . S
C6373 C6374 1.334 1_554 S
C6374 H6345 0.950 . S
C6374 C6373 1.334 1_556 S
C6374 C6375 1.287 . S
C6375 C6374 1.287 . S
C6375 C6376 1.524 1_556 S
C6375 H6378 0.999 . S
C6376 H6346 0.950 . S
C6376 C6375 1.524 1_554 S
C6376 C6377 1.415 . S
C6377 H6347 0.950 . S
C6377 C6372 1.363 . S
C6377 C6376 1.415 . S
H6378 C6375 0.999 . S
H6379 C6360 0.913 . S
H6380 C6398 0.951 . S
H6381 C6400 0.951 . S
H6382 C6402 0.950 . S
H6383 C6403 0.950 1_545 S
H6384 C6405 0.950 . S
H6385 C6408 0.950 . S
H6386 C6409 0.950 . S
H6387 C6411 0.950 . S
H6388 C6412 0.950 . S
H6389 C6413 0.951 . S
H6390 C6415 0.951 . S
H6391 C6417 0.950 . S
H6392 C6418 0.950 . S
H6393 C6420 0.950 . S
H6394 C6423 0.950 . S
H6395 C6424 0.950 . S
H6396 C6426 0.950 . S
H6397 C6427 0.950 . S
C6398 H6380 0.951 . S
C6398 C6399 1.366 1_565 S
C6398 C6400 1.388 . S
C6399 C6398 1.366 1_545 S
C6399 C6403 1.385 1_545 S
C6400 H6381 0.951 . S
C6400 C6398 1.388 . S
C6400 C6401 1.366 . S
C6401 C6400 1.366 . S
C6401 C6402 1.414 . S
C6401 C6404 1.499 . S
C6402 H6382 0.950 . S
C6402 C6401 1.414 . S
C6402 C6403 1.374 . S
C6403 H6383 0.950 1_565 S
C6403 C6399 1.385 1_565 S
C6403 C6402 1.374 . S
C6404 C6401 1.499 . S
C6404 C6405 1.373 . S
C6404 C6406 1.389 . S
C6405 H6384 0.950 . S
C6405 C6404 1.373 . S
C6405 C6421 1.377 . S
C6406 C6404 1.389 . S
C6406 C6407 1.524 . S
C6406 C6420 1.377 . S
C6407 C6406 1.524 . S
C6407 C6408 1.397 . S
C6407 C6412 1.363 . S
C6408 H6385 0.950 . S
C6408 C6407 1.397 . S
C6408 C6409 1.334 . S
C6409 H6386 0.950 . S
C6409 C6408 1.334 . S
C6409 C6410 1.287 . S
C6410 C6409 1.287 . S
C6410 C6411 1.524 . S
C6410 H6429 0.913 . S
C6411 H6387 0.950 . S
C6411 C6410 1.524 . S
C6411 C6412 1.415 . S
C6412 H6388 0.950 . S
C6412 C6407 1.363 . S
C6412 C6411 1.415 . S
C6413 H6389 0.951 . S
C6413 C6414 1.366 . S
C6413 C6415 1.388 . S
C6414 C6413 1.366 . S
C6414 C6418 1.385 . S
C6415 H6390 0.951 . S
C6415 C6413 1.388 . S
C6415 C6416 1.366 . S
C6416 C6415 1.366 . S
C6416 C6417 1.414 . S
C6416 C6419 1.499 . S
C6417 H6391 0.950 . S
C6417 C6416 1.414 . S
C6417 C6418 1.374 . S
C6418 H6392 0.950 . S
C6418 C6414 1.385 . S
C6418 C6417 1.374 . S
C6419 C6416 1.499 . S
C6419 C6420 1.373 . S
C6419 C6421 1.389 . S
C6420 H6393 0.950 . S
C6420 C6406 1.377 . S
C6420 C6419 1.373 . S
C6421 C6405 1.377 . S
C6421 C6419 1.389 . S
C6421 C6422 1.524 . S
C6422 C6421 1.524 . S
C6422 C6423 1.397 . S
C6422 C6427 1.363 . S
C6423 H6394 0.950 . S
C6423 C6422 1.397 . S
C6423 C6424 1.334 . S
C6424 H6395 0.950 . S
C6424 C6423 1.334 . S
C6424 C6425 1.287 . S
C6425 C6424 1.287 . S
C6425 C6426 1.524 . S
C6425 H6428 0.999 . S
C6426 H6396 0.950 . S
C6426 C6425 1.524 . S
C6426 C6427 1.415 . S
C6427 H6397 0.950 . S
C6427 C6422 1.363 . S
C6427 C6426 1.415 . S
H6428 C6425 0.999 . S
H6429 C6410 0.913 . S
H6430 C6448 0.951 . S
H6431 C6450 0.951 . S
H6432 C6452 0.950 . S
H6433 C6453 0.950 . S
H6434 C6455 0.950 . S
H6435 C6458 0.950 . S
H6436 C6459 0.950 . S
H6437 C6461 0.950 . S
H6438 C6462 0.950 . S
H6439 C6463 0.951 . S
H6440 C6465 0.951 . S
H6441 C6467 0.950 . S
H6442 C6468 0.950 . S
H6443 C6470 0.950 . S
H6444 C6473 0.950 . S
H6445 C6474 0.950 . S
H6446 C6476 0.950 . S
H6447 C6477 0.950 . S
C6448 H6430 0.951 . S
C6448 C6449 1.366 . S
C6448 C6450 1.388 . S
C6449 C6448 1.366 . S
C6449 C6453 1.385 . S
C6450 H6431 0.951 . S
C6450 C6448 1.388 . S
C6450 C6451 1.366 . S
C6451 C6450 1.366 . S
C6451 C6452 1.414 . S
C6451 C6454 1.499 . S
C6452 H6432 0.950 . S
C6452 C6451 1.414 . S
C6452 C6453 1.374 . S
C6453 H6433 0.950 . S
C6453 C6449 1.385 . S
C6453 C6452 1.374 . S
C6454 C6451 1.499 . S
C6454 C6455 1.373 . S
C6454 C6456 1.389 . S
C6455 H6434 0.950 . S
C6455 C6454 1.373 . S
C6455 C6471 1.377 . S
C6456 C6454 1.389 . S
C6456 C6457 1.524 . S
C6456 C6470 1.377 . S
C6457 C6456 1.524 . S
C6457 C6458 1.397 . S
C6457 C6462 1.363 . S
C6458 H6435 0.950 . S
C6458 C6457 1.397 . S
C6458 C6459 1.334 . S
C6459 H6436 0.950 . S
C6459 C6458 1.334 . S
C6459 C6460 1.287 . S
C6460 C6459 1.287 . S
C6460 C6461 1.524 . S
C6460 H6479 0.913 . S
C6461 H6437 0.950 . S
C6461 C6460 1.524 . S
C6461 C6462 1.415 . S
C6462 H6438 0.950 . S
C6462 C6457 1.363 . S
C6462 C6461 1.415 . S
C6463 H6439 0.951 . S
C6463 C6464 1.366 . S
C6463 C6465 1.388 . S
C6464 C6463 1.366 . S
C6464 C6468 1.385 . S
C6465 H6440 0.951 . S
C6465 C6463 1.388 . S
C6465 C6466 1.366 . S
C6466 C6465 1.366 . S
C6466 C6467 1.414 . S
C6466 C6469 1.499 . S
C6467 H6441 0.950 . S
C6467 C6466 1.414 . S
C6467 C6468 1.374 . S
C6468 H6442 0.950 . S
C6468 C6464 1.385 . S
C6468 C6467 1.374 . S
C6469 C6466 1.499 . S
C6469 C6470 1.373 . S
C6469 C6471 1.389 . S
C6470 H6443 0.950 . S
C6470 C6456 1.377 . S
C6470 C6469 1.373 . S
C6471 C6455 1.377 . S
C6471 C6469 1.389 . S
C6471 C6472 1.524 . S
C6472 C6471 1.524 . S
C6472 C6473 1.397 . S
C6472 C6477 1.363 . S
C6473 H6444 0.950 . S
C6473 C6472 1.397 . S
C6473 C6474 1.334 . S
C6474 H6445 0.950 . S
C6474 C6473 1.334 . S
C6474 C6475 1.287 . S
C6475 C6474 1.287 . S
C6475 C6476 1.524 . S
C6475 H6478 0.999 . S
C6476 H6446 0.950 . S
C6476 C6475 1.524 . S
C6476 C6477 1.415 . S
C6477 H6447 0.950 . S
C6477 C6472 1.363 . S
C6477 C6476 1.415 . S
H6478 C6475 0.999 . S
H6479 C6460 0.913 . S
C1699 C106 1.936 . S
C1714 C392 1.811 . S
C1749 C65 2.197 . S
C1764 C483 2.120 . S
C1799 C79 1.769 . S
C1814 C560 1.663 1_565 S
C1864 C658 1.337 . S
C1849 C90 1.419 . S
C1899 C21 1.321 . S
C1914 C742 1.300 . S
C1964 C814 0.866 . S
C1949 C35 0.887 . S
C2014 C903 0.641 . S
C1999 C50 0.633 . S
C2049 C6 1.341 . S
C2064 C980 1.239 . S
C2114 C399 2.138 . S
C2099 C232 2.246 . S
C2149 C245 0.610 . S
C2164 C490 0.627 . S
C2214 C567 1.219 . S
C2199 C274 1.274 . S
C2264 C644 1.464 . S
C2249 C175 1.550 . S
C2299 C231 1.752 . S
C2314 C728 1.669 . S
C2364 C830 0.990 . S
C2349 C246 1.063 . S
C2414 C910 0.654 . S
C2399 C273 0.619 . S
C2464 C987 1.451 . S
C2449 C176 1.561 . S
C2514 C406 1.470 . S
C2499 C160 1.525 . S
C2549 C289 1.983 1_554 S
C2564 C1071 1.929 . S
C2614 C1159 2.202 . S
C2599 C328 2.311 . S
C2664 C1232 0.589 . S
C2649 C317 0.530 . S
C2699 C118 0.811 . S
C2714 C994 0.827 . S
C2749 C132 1.409 . S
C2764 C574 1.419 . S
C2799 C331 2.418 . S
C2814 C1323 2.338 . S
C2864 C1400 0.944 . S
C2849 C303 0.987 . S
C2914 C403 1.427 1_565 S
C2899 C63 1.536 . S
C2964 C1418 2.570 . S
C2949 C107 2.576 . S
C2999 C92 1.585 . S
C3014 C571 1.532 . S
C3049 C78 2.084 . S
C3064 C1318 1.906 . S
C3114 C730 1.810 . S
C3099 C8 1.922 . S
C3149 C51 1.203 . S
C3164 C1162 1.110 . S
C3214 C914 1.101 1_565 S
C3199 C37 1.098 . S
C3264 C1495 1.153 . S
C3249 C20 1.246 . S
C3314 C410 2.007 . S
C3299 C147 2.064 . S
C3364 C1402 0.756 . S
C3349 C316 0.757 . S
C3399 C119 1.142 . S
C3414 C578 1.153 . S
C3449 C288 1.740 . S
C3464 C1327 1.653 . S
C3499 C148 2.262 1_545 S
C3514 C739 2.088 . S
C3564 C1155 1.066 . S
C3549 C315 1.111 . S
C3599 C120 0.929 . S
C3614 C898 0.888 . S
C3649 C287 1.462 . S
C3664 C1502 1.391 . S
C3699 C188 1.390 . S
C3714 C394 1.307 . S
C3749 C177 2.355 . S
C3764 C1082 2.297 . S
C3799 C258 2.460 . S
C3814 C812 2.366 . S
C3849 C247 0.531 . S
C3864 C1243 0.599 . S
C3914 C1486 0.589 . S
C3899 C272 0.601 . S
C3949 C216 1.286 . S
C3964 C562 1.214 1_565 S
C4014 C662 2.586 . S
C3999 C261 2.658 . S
C4064 C487 0.876 . S
C4049 C205 0.912 . S
C4099 C76 1.528 . S
C4114 C1568 1.435 . S
C4164 C1407 2.202 . S
C4149 C93 2.283 . S
C4199 C105 1.368 . S
C4214 C1652 1.275 . S
C4249 C62 1.460 . S
C4264 C1330 1.376 . S
C4299 C49 1.296 . S
C4314 C1078 1.275 . S
C4364 C1150 1.213 . S
C4349 C9 1.287 . S
C4414 C1239 0.575 . S
C4399 C22 0.564 . S
C4464 C1484 1.584 . S
C4449 C36 1.754 . S
C4514 C1575 2.045 . S
C4499 C260 2.147 . S
C4549 C189 0.521 . S
C4564 C1414 0.570 . S
C4614 C1659 1.129 . S
C4599 C204 1.177 . S
C4664 C1316 1.301 . S
C4649 C217 1.374 . S
C4714 C1064 1.938 . S
C4699 C259 2.031 . S
C4749 C190 1.161 . S
C4764 C1166 1.086 . S
C4814 C1246 0.733 . S
C4799 C203 0.732 . S
C4849 C218 1.667 . S
C4864 C1491 1.548 . S
C4914 C1582 1.429 . S
C4899 C314 1.472 . S
C4949 C135 2.109 . S
C4964 C735 2.028 . S
C5014 C823 2.077 . S
C4999 C146 2.201 . S
C5064 C896 0.604 . S
C5049 C163 0.560 . S
C5114 C1498 0.826 . S
C5099 C300 0.812 . S
C5149 C286 1.361 . S
C5164 C1666 1.393 . S
C5214 C651 2.239 . S
C5199 C149 2.313 . S
C5264 C476 0.883 . S
C5249 C121 0.919 1_565 S
C5299 C91 1.511 . S
C5314 C1579 1.409 . S
C5364 C494 2.155 . S
C5349 C77 2.101 . S
C5399 C64 1.551 . S
C5414 C1663 1.517 . S
C5449 C104 1.678 . S
C5464 C646 1.586 . S
C5499 C34 1.490 . S
C5514 C1066 1.451 1_556 S
C5564 C826 1.082 . S
C5549 C23 1.189 . S
C5599 C7 0.784 . S
C5614 C1250 0.794 . S
C5649 C48 1.212 . S
C5664 C991 1.130 . S
C5714 C1586 1.985 . S
C5699 C329 2.043 . S
C5749 C162 0.787 . S
C5764 C478 0.778 . S
C5814 C1670 1.154 1_556 S
C5799 C301 1.144 . S
C5849 C134 1.766 . S
C5864 C655 1.683 . S
C5899 C330 2.232 . S
C5914 C1075 2.069 . S
C5964 C819 1.074 . S
C5949 C161 1.115 . S
C5999 C302 0.964 . S
C6014 C1234 0.914 . S
C6064 C998 1.386 . S
C6049 C133 1.460 . S
C6114 C1570 1.514 . S
C6099 C244 1.613 . S
C6164 C746 2.236 1_655 S
C6149 C219 2.282 . S
C6199 C230 2.102 . S
C6214 C1148 2.000 . S
C6264 C907 0.592 . S
C6249 C191 0.513 . S
C6299 C202 0.760 . S
C6314 C982 0.758 . S
C6349 C174 1.527 . S
C6364 C1654 1.480 . S
C6414 C1334 2.552 . S
C6399 C233 2.612 . S
C6464 C1411 0.867 . S
C6449 C275 0.901 . S
