# Generated by pormake.
# Topology zzz, (3,6)-cn, num edge types: 1
# Building blocks:
#     Node 0, Type 0, BuildingBlock: OLANEW_clean_sbu_2, # of connection points: 3
#     Node 1, Type 0, BuildingBlock: OLANEW_clean_sbu_2, # of connection points: 3
#     Node 2, Type 0, BuildingBlock: OLANEW_clean_sbu_2, # of connection points: 3
#     Node 3, Type 0, BuildingBlock: OLANEW_clean_sbu_2, # of connection points: 3
#     Node 4, Type 0, BuildingBlock: OLANEW_clean_sbu_2, # of connection points: 3
#     Node 5, Type 0, BuildingBlock: OLANEW_clean_sbu_2, # of connection points: 3
#     Node 6, Type 0, BuildingBlock: OLANEW_clean_sbu_2, # of connection points: 3
#     Node 7, Type 0, BuildingBlock: OLANEW_clean_sbu_2, # of connection points: 3
#     Node 8, Type 1, BuildingBlock: CIFDUS_clean_sbu_1, # of connection points: 6
#     Node 9, Type 1, BuildingBlock: CIFDUS_clean_sbu_1, # of connection points: 6
#     Node 10, Type 1, BuildingBlock: CIFDUS_clean_sbu_1, # of connection points: 6
#     Node 11, Type 1, BuildingBlock: CIFDUS_clean_sbu_1, # of connection points: 6
#     Edge 12, Type (0, 1), BuildingBlock: MIFKUJ_clean_linker_0, # of connection points: 2
#     Edge 13, Type (0, 1), BuildingBlock: MIFKUJ_clean_linker_0, # of connection points: 2
#     Edge 14, Type (0, 1), BuildingBlock: MIFKUJ_clean_linker_0, # of connection points: 2
#     Edge 15, Type (0, 1), BuildingBlock: MIFKUJ_clean_linker_0, # of connection points: 2
#     Edge 16, Type (0, 1), BuildingBlock: MIFKUJ_clean_linker_0, # of connection points: 2
#     Edge 17, Type (0, 1), BuildingBlock: MIFKUJ_clean_linker_0, # of connection points: 2
#     Edge 18, Type (0, 1), BuildingBlock: MIFKUJ_clean_linker_0, # of connection points: 2
#     Edge 19, Type (0, 1), BuildingBlock: MIFKUJ_clean_linker_0, # of connection points: 2
#     Edge 20, Type (0, 1), BuildingBlock: MIFKUJ_clean_linker_0, # of connection points: 2
#     Edge 21, Type (0, 1), BuildingBlock: MIFKUJ_clean_linker_0, # of connection points: 2
#     Edge 22, Type (0, 1), BuildingBlock: MIFKUJ_clean_linker_0, # of connection points: 2
#     Edge 23, Type (0, 1), BuildingBlock: MIFKUJ_clean_linker_0, # of connection points: 2
#     Edge 24, Type (0, 1), BuildingBlock: MIFKUJ_clean_linker_0, # of connection points: 2
#     Edge 25, Type (0, 1), BuildingBlock: MIFKUJ_clean_linker_0, # of connection points: 2
#     Edge 26, Type (0, 1), BuildingBlock: MIFKUJ_clean_linker_0, # of connection points: 2
#     Edge 27, Type (0, 1), BuildingBlock: MIFKUJ_clean_linker_0, # of connection points: 2
#     Edge 28, Type (0, 1), BuildingBlock: MIFKUJ_clean_linker_0, # of connection points: 2
#     Edge 29, Type (0, 1), BuildingBlock: MIFKUJ_clean_linker_0, # of connection points: 2
#     Edge 30, Type (0, 1), BuildingBlock: MIFKUJ_clean_linker_0, # of connection points: 2
#     Edge 31, Type (0, 1), BuildingBlock: MIFKUJ_clean_linker_0, # of connection points: 2
#     Edge 32, Type (0, 1), BuildingBlock: MIFKUJ_clean_linker_0, # of connection points: 2
#     Edge 33, Type (0, 1), BuildingBlock: MIFKUJ_clean_linker_0, # of connection points: 2
#     Edge 34, Type (0, 1), BuildingBlock: MIFKUJ_clean_linker_0, # of connection points: 2
#     Edge 35, Type (0, 1), BuildingBlock: MIFKUJ_clean_linker_0, # of connection points: 2
# Relax obj value: 0.141
# Max RMSD: 0.189
# Mean RMSD: 0.112
data_MOF--net-zzz--node1-OLANEW_clean_sbu_2--node2-CIFDUS_clean_sbu_1--edge1-MIFKUJ_clean_linker_0
_symmetry_space_group_name_H-M    P1
_symmetry_Int_Tables_number       1
_symmetry_cell_setting            triclinic
loop_
_symmetry_equiv_pos_as_xyz
'x, y, z'
_cell_length_a     67.448893
_cell_length_b     67.411601
_cell_length_c     22.624773
_cell_angle_alpha  89.893932
_cell_angle_beta   90.121669
_cell_angle_gamma 90.059322
loop_
_atom_site_label
_atom_site_type_symbol
_atom_site_fract_x
_atom_site_fract_y
_atom_site_fract_z
_atom_type_partial_charge
O0 O 0.78463 0.58259 0.05877 0.0
Cd1 Cd 0.75454 0.59287 0.10719 0.0
O2 O 0.78086 0.55491 0.10769 0.0
Cd3 Cd 0.78832 0.52627 0.14701 0.0
O4 O 0.81056 0.52147 0.21543 0.0
C5 C 0.81718 0.53771 0.23613 0.0
O6 O 0.80952 0.55445 0.21694 0.0
C7 C 0.79067 0.56522 0.07058 0.0
C8 C 0.72512 0.57073 0.05386 0.0
O9 O 0.73205 0.58649 0.02987 0.0
O10 O 0.73156 0.56563 0.10501 0.0
O11 O 0.93925 0.78169 0.08215 0.0
Cd12 Cd 0.93726 0.75264 0.14512 0.0
O13 O 0.97014 0.77939 0.11077 0.0
Cd14 Cd -0.00176 0.7934 0.13322 0.0
O15 O -0.00097 0.81315 0.20939 0.0
C16 C 0.98924 0.829 0.20148 0.0
O17 O 0.98246 0.8329 0.14836 0.0
C18 C 0.95687 0.78824 0.08077 0.0
C19 C 0.95009 0.72079 0.07845 0.0
O20 O 0.93157 0.72419 0.08589 0.0
O21 O 0.96266 0.73218 0.104 0.0
O22 O 0.73251 0.93598 0.0754 0.0
Cd23 Cd 0.76166 0.9335 0.13758 0.0
O24 O 0.73507 0.96671 0.10459 0.0
Cd25 Cd 0.72111 0.99451 0.12977 0.0
O26 O 0.70081 0.99491 0.20441 0.0
C27 C 0.68628 0.98307 0.1986 0.0
O28 O 0.68389 0.97386 0.14806 0.0
C29 C 0.72597 0.95359 0.07465 0.0
C30 C 0.79291 0.9476 0.07068 0.0
O31 O 0.78274 0.95957 0.1024 0.0
O32 O 0.7886 0.92909 0.07255 0.0
O33 O 0.57823 0.7315 0.07396 0.0
Cd34 Cd 0.58164 0.76022 0.13767 0.0
O35 O 0.54793 0.73495 0.10557 0.0
Cd36 Cd 0.51988 0.72252 0.13459 0.0
O37 O 0.52022 0.70306 0.21108 0.0
C38 C 0.53247 0.68884 0.20683 0.0
O39 O 0.54185 0.68619 0.15676 0.0
C40 C 0.56046 0.72535 0.07499 0.0
C41 C 0.56855 0.7928 0.07445 0.0
O42 O 0.55612 0.78174 0.10179 0.0
O43 O 0.58705 0.7887 0.0786 0.0
O44 O 0.23713 0.46183 0.36837 0.0
Cd45 Cd 0.26452 0.45417 0.3034 0.0
O46 O 0.22563 0.4339 0.3359 0.0
Cd47 Cd 0.20524 0.41192 0.30156 0.0
O48 O 0.18682 0.42258 0.23004 0.0
C49 C 0.18905 0.4408 0.2171 0.0
O50 O 0.20141 0.45183 0.24748 0.0
C51 C 0.22304 0.44944 0.36687 0.0
C52 C 0.29754 0.45939 0.3723 0.0
O53 O 0.28973 0.474 0.34445 0.0
O54 O 0.29027 0.44199 0.36484 0.0
O55 O 0.05174 0.2362 0.37045 0.0
Cd56 Cd 0.06027 0.26338 0.30659 0.0
O57 O 0.07991 0.22399 0.34064 0.0
Cd58 Cd 0.1002 0.20004 0.32012 0.0
O59 O 0.09123 0.18652 0.23751 0.0
C60 C 0.0806 0.17109 0.2419 0.0
O61 O 0.07895 0.1623 0.2935 0.0
C62 C 0.06429 0.22232 0.3715 0.0
C63 C 0.05496 0.29487 0.38053 0.0
O64 O 0.0408 0.28872 0.34738 0.0
O65 O 0.07209 0.28683 0.37547 0.0
O66 O 0.28053 0.06455 0.3867 0.0
Cd67 Cd 0.25198 0.07785 0.33633 0.0
O68 O 0.29519 0.08951 0.34494 0.0
Cd69 Cd 0.31897 0.10472 0.30028 0.0
O70 O 0.33069 0.09161 0.22092 0.0
C71 C 0.33015 0.07278 0.21909 0.0
O72 O 0.32351 0.0628 0.26481 0.0
C73 C 0.29636 0.07404 0.37696 0.0
C74 C 0.22094 0.05994 0.3927 0.0
O75 O 0.22661 0.05331 0.34244 0.0
O76 O 0.22928 0.07547 0.41382 0.0
O77 O 0.46134 0.27986 0.37865 0.0
Cd78 Cd 0.45637 0.25405 0.30601 0.0
O79 O 0.43379 0.29219 0.3455 0.0
Cd80 Cd 0.41359 0.31481 0.31372 0.0
O81 O 0.42217 0.33166 0.23658 0.0
C82 C 0.44073 0.33158 0.22695 0.0
O83 O 0.45249 0.32231 0.26417 0.0
C84 C 0.44878 0.29378 0.37941 0.0
C85 C 0.46173 0.22 0.36989 0.0
O86 O 0.47657 0.22928 0.34787 0.0
O87 O 0.44418 0.22621 0.35846 0.0
O88 O 0.01689 0.0256 0.793 0.0
Mn89 Mn 0.00807 0.00691 0.72609 0.0
O90 O 0.00057 0.05227 0.76197 0.0
Mn91 Mn 0.98248 0.03783 0.7166 0.0
O92 O -0.00016 0.98701 0.65951 0.0
O93 O 0.03682 6e-05 0.71307 0.0
Mn94 Mn 0.03992 0.97454 0.72346 0.0
O95 O 0.00357 0.98372 0.78671 0.0
O96 O 0.02319 0.963 0.66804 0.0
O97 O 0.01413 0.0296 0.66343 0.0
O98 O 0.9848 0.03795 0.6362 0.0
O99 O 0.06463 0.98381 0.7043 0.0
O100 O 0.0332 0.97008 0.80076 0.0
C101 C 0.96059 0.02195 0.75389 0.0
C102 C 0.01341 0.04415 0.79517 0.0
C103 C 0.00715 0.96993 0.64581 0.0
C104 C 0.05558 0.0007 0.70152 0.0
C105 C 0.01501 0.97149 0.81369 0.0
C106 C 0.00296 0.03843 0.6262 0.0
O107 O 0.97806 0.01344 0.74504 0.0
O108 O 0.95793 0.04042 0.73969 0.0
O109 O 0.53182 0.00504 0.78892 0.0
Mn110 Mn 0.50841 0.00617 0.72699 0.0
O111 O 0.5485 0.03334 0.77915 0.0
Mn112 Mn 0.54033 0.0361 0.70295 0.0
O113 O 0.48503 0.00661 0.66573 0.0
O114 O 0.50265 0.97687 0.7504 0.0
Mn115 Mn 0.47715 0.97908 0.76812 0.0
O116 O 0.48972 0.01886 0.79114 0.0
O117 O 0.46254 0.98559 0.70271 0.0
O118 O 0.52746 0.9947 0.66212 0.0
O119 O 0.55083 0.01821 0.65039 0.0
O120 O 0.48108 0.95353 0.78085 0.0
O121 O 0.47334 0.99416 0.83381 0.0
C122 C 0.51604 0.05368 0.68654 0.0
C123 C 0.54547 0.01711 0.80566 0.0
C124 C 0.46817 0.99771 0.66327 0.0
C125 C 0.49898 0.95831 0.76525 0.0
C126 C 0.47834 0.01215 0.83177 0.0
C127 C 0.54359 0.00124 0.63889 0.0
O128 O 0.51424 0.03503 0.70217 0.0
O129 O 0.53382 0.06058 0.67901 0.0
O130 O 0.51269 0.52953 0.78047 0.0
Mn131 Mn 0.51145 0.50656 0.71873 0.0
O132 O 0.49359 0.55269 0.73802 0.0
Mn133 Mn 0.48425 0.53686 0.67809 0.0
O134 O 0.50983 0.48384 0.65541 0.0
O135 O 0.54023 0.50083 0.73803 0.0
Mn136 Mn 0.54383 0.47512 0.7331 0.0
O137 O 0.50237 0.48659 0.78439 0.0
O138 O 0.53877 0.46781 0.65666 0.0
O139 O 0.52285 0.52577 0.65375 0.0
O140 O 0.49706 0.53826 0.60714 0.0
O141 O 0.56806 0.48484 0.75393 0.0
O142 O 0.52754 0.46451 0.79064 0.0
C143 C 0.46275 0.51622 0.6906 0.0
C144 C 0.50507 0.54698 0.77918 0.0
C145 C 0.52195 0.4711 0.63362 0.0
C146 C 0.55871 0.5016 0.75382 0.0
C147 C 0.51072 0.47116 0.80712 0.0
C148 C 0.51536 0.53482 0.60942 0.0
O149 O 0.48146 0.51187 0.70183 0.0
O150 O 0.45825 0.53411 0.67407 0.0
O151 O 0.02728 0.49994 0.79756 0.0
Mn152 Mn 0.00829 0.50907 0.73005 0.0
O153 O 0.04522 0.52574 0.82617 0.0
Mn154 Mn 0.03993 0.53783 0.75538 0.0
O155 O 0.98831 0.51583 0.66218 0.0
O156 O 0.0023 0.47985 0.72155 0.0
Mn157 Mn 0.97668 0.47662 0.73047 0.0
O158 O 0.98558 0.51347 0.79117 0.0
O159 O 0.96595 0.49078 0.66722 0.0
O160 O 0.03113 0.50511 0.66824 0.0
O161 O 0.0535 0.52824 0.69204 0.0
O162 O 0.98626 0.45175 0.71826 0.0
O163 O 0.96999 0.48468 0.80491 0.0
C164 C 0.01775 0.55822 0.74828 0.0
C165 C 0.03958 0.50805 0.83292 0.0
C166 C 0.97266 0.50672 0.64365 0.0
C167 C 0.00285 0.46104 0.71005 0.0
C168 C 0.97311 0.50256 0.81889 0.0
C169 C 0.04781 0.51391 0.66011 0.0
O170 O 0.01406 0.53916 0.74121 0.0
O171 O 0.03598 0.56376 0.75666 0.0
H172 H 0.2189 0.05574 0.51112 0.0
H173 H 0.19033 0.04441 0.56852 0.0
H174 H 0.15883 0.03148 0.40692 0.0
H175 H 0.18768 0.0423 0.34915 0.0
H176 H 0.14228 0.06145 0.48377 0.0
H177 H 0.16585 0.99511 0.48655 0.0
H178 H 0.19041 0.96854 0.50138 0.0
H179 H 0.19374 0.98252 0.68618 0.0
H180 H 0.16938 0.00944 0.67232 0.0
H181 H 0.05307 0.019 0.59545 0.0
H182 H 0.08222 0.03275 0.54635 0.0
H183 H 0.11357 0.03337 0.71284 0.0
H184 H 0.08451 0.0192 0.76143 0.0
H185 H 0.13155 0.0097 0.63623 0.0
H186 H 0.10643 0.07697 0.62788 0.0
H187 H 0.08388 0.10471 0.60426 0.0
H188 H 0.08368 0.08773 0.42142 0.0
H189 H 0.10611 0.05992 0.44385 0.0
C190 C 0.20601 0.05004 0.48802 0.0
C191 C 0.20516 0.05018 0.42604 0.0
C192 C 0.18985 0.04343 0.52074 0.0
C193 C 0.17258 0.03723 0.49172 0.0
C194 C 0.17216 0.03617 0.42977 0.0
C195 C 0.18853 0.04237 0.39698 0.0
C196 C 0.15409 0.03535 0.52546 0.0
C197 C 0.13969 0.04994 0.5165 0.0
C198 C 0.15135 0.02075 0.56939 0.0
C199 C 0.16592 0.00448 0.57825 0.0
C200 C 0.17195 0.99268 0.53028 0.0
C201 C 0.18581 0.97751 0.53853 0.0
C202 C 0.19368 0.97388 0.59466 0.0
C203 C 0.18765 0.98537 0.6427 0.0
C204 C 0.17379 0.00058 0.63468 0.0
C205 C 0.06571 0.02334 0.6221 0.0
C206 C 0.06662 0.01817 0.68208 0.0
C207 C 0.0825 0.031 0.59394 0.0
C208 C 0.10022 0.03378 0.62582 0.0
C209 C 0.10014 0.03116 0.68733 0.0
C210 C 0.08342 0.0234 0.71527 0.0
C211 C 0.11931 0.0358 0.59405 0.0
C212 C 0.13403 0.02127 0.60369 0.0
C213 C 0.1223 0.05034 0.54995 0.0
C214 C 0.1078 0.06628 0.53765 0.0
C215 C 0.10133 0.07899 0.58283 0.0
C216 C 0.08863 0.09477 0.56956 0.0
C217 C 0.08235 0.09788 0.51133 0.0
C218 C 0.08857 0.08523 0.46642 0.0
C219 C 0.10127 0.06951 0.47937 0.0
H220 H 0.07281 0.11015 0.50039 0.0
H221 H 0.20441 0.96213 0.60096 0.0
H222 H 0.49313 0.21447 0.44271 0.0
H223 H 0.49796 0.18774 0.51424 0.0
H224 H 0.44243 0.1614 0.46013 0.0
H225 H 0.43701 0.18885 0.3909 0.0
H226 H 0.44664 0.15836 0.57589 0.0
H227 H 0.48914 0.14609 0.40535 0.0
H228 H 0.51521 0.15599 0.33484 0.0
H229 H 0.55673 0.16242 0.47766 0.0
H230 H 0.53082 0.15281 0.54912 0.0
H231 H 0.48811 0.05425 0.60082 0.0
H232 H 0.47232 0.08451 0.56386 0.0
H233 H 0.49661 0.11694 0.71115 0.0
H234 H 0.51057 0.08635 0.75078 0.0
H235 H 0.50808 0.11841 0.55825 0.0
H236 H 0.46591 0.13335 0.72881 0.0
H237 H 0.44013 0.12445 0.8012 0.0
H238 H 0.39872 0.11414 0.66009 0.0
H239 H 0.42451 0.12247 0.58677 0.0
C240 C 0.48201 0.20292 0.44602 0.0
C241 C 0.46487 0.20342 0.4108 0.0
C242 C 0.48475 0.18771 0.48694 0.0
C243 C 0.47074 0.17237 0.49162 0.0
C244 C 0.45343 0.17308 0.45712 0.0
C245 C 0.45042 0.18861 0.41731 0.0
C246 C 0.47452 0.15509 0.53032 0.0
C247 C 0.46004 0.14958 0.57181 0.0
C248 C 0.49222 0.1439 0.52591 0.0
C249 C 0.50801 0.14882 0.4826 0.0
C250 C 0.50383 0.14962 0.4217 0.0
C251 C 0.51857 0.15521 0.38158 0.0
C252 C 0.5376 0.15986 0.40176 0.0
C253 C 0.54197 0.15882 0.46209 0.0
C254 C 0.52728 0.15327 0.50242 0.0
C255 C 0.48823 0.06732 0.62823 0.0
C256 C 0.49968 0.06774 0.67988 0.0
C257 C 0.47971 0.08478 0.60642 0.0
C258 C 0.48306 0.10288 0.63535 0.0
C259 C 0.49324 0.10305 0.6893 0.0
C260 C 0.50115 0.08552 0.71198 0.0
C261 C 0.48008 0.1216 0.60285 0.0
C262 C 0.49476 0.12731 0.56244 0.0
C263 C 0.46274 0.13306 0.60866 0.0
C264 C 0.44726 0.12802 0.65237 0.0
C265 C 0.45144 0.12878 0.7132 0.0
C266 C 0.4368 0.12394 0.7544 0.0
C267 C 0.41783 0.11859 0.73525 0.0
C268 C 0.41345 0.11817 0.67485 0.0
C269 C 0.42809 0.12291 0.63346 0.0
H270 H 0.40649 0.11488 0.76722 0.0
H271 H 0.54897 0.16424 0.37066 0.0
H272 H 0.30706 0.49393 0.42666 0.0
H273 H 0.33355 0.49959 0.49828 0.0
H274 H 0.35116 0.43823 0.48438 0.0
H275 H 0.32404 0.43226 0.41438 0.0
H276 H 0.35318 0.45126 0.59798 0.0
H277 H 0.37472 0.47479 0.40506 0.0
H278 H 0.36965 0.4947 0.31471 0.0
H279 H 0.36834 0.54798 0.41831 0.0
H280 H 0.37312 0.52834 0.50942 0.0
H281 H 0.46139 0.47851 0.64595 0.0
H282 H 0.43076 0.4636 0.60674 0.0
H283 H 0.39636 0.50863 0.69429 0.0
H284 H 0.42657 0.52298 0.73464 0.0
H285 H 0.40275 0.50288 0.54623 0.0
H286 H 0.37711 0.48085 0.73679 0.0
H287 H 0.37949 0.46222 0.83034 0.0
H288 H 0.38652 0.40789 0.73379 0.0
H289 H 0.38463 0.42636 0.63954 0.0
C290 C 0.31661 0.48166 0.43879 0.0
C291 C 0.31378 0.46274 0.41436 0.0
C292 C 0.33167 0.48489 0.47983 0.0
C293 C 0.34451 0.4694 0.49574 0.0
C294 C 0.34141 0.45037 0.47251 0.0
C295 C 0.32606 0.44703 0.43227 0.0
C296 C 0.36186 0.47334 0.53394 0.0
C297 C 0.36414 0.46238 0.58633 0.0
C298 C 0.3759 0.48815 0.5192 0.0
C299 C 0.37425 0.50008 0.46409 0.0
C300 C 0.3734 0.49075 0.40856 0.0
C301 C 0.37052 0.50198 0.35723 0.0
C302 C 0.36867 0.52259 0.36078 0.0
C303 C 0.3698 0.53201 0.41564 0.0
C304 C 0.37264 0.52085 0.46713 0.0
C305 C 0.44723 0.48438 0.65969 0.0
C306 C 0.4463 0.50194 0.69263 0.0
C307 C 0.42976 0.47602 0.63689 0.0
C308 C 0.41139 0.48514 0.64757 0.0
C309 C 0.41036 0.50125 0.6862 0.0
C310 C 0.42766 0.50936 0.70943 0.0
C311 C 0.39412 0.48066 0.60983 0.0
C312 C 0.39186 0.49163 0.55748 0.0
C313 C 0.37999 0.46612 0.62498 0.0
C314 C 0.3812 0.45502 0.68128 0.0
C315 C 0.37954 0.46499 0.73553 0.0
C316 C 0.3807 0.45445 0.78867 0.0
C317 C 0.38329 0.43389 0.78803 0.0
C318 C 0.38462 0.42383 0.73422 0.0
C319 C 0.38353 0.43433 0.68094 0.0
H320 H 0.38416 0.42575 0.82922 0.0
H321 H 0.36636 0.53125 0.32102 0.0
H322 H 0.08206 0.31221 0.45402 0.0
H323 H 0.07644 0.34013 0.52091 0.0
H324 H 0.01444 0.34032 0.47371 0.0
H325 H 0.01986 0.31255 0.40676 0.0
H326 H 0.03555 0.37499 0.44775 0.0
H327 H 0.02516 0.32963 0.60769 0.0
H328 H 0.03433 0.30147 0.67175 0.0
H329 H 0.08584 0.33311 0.73161 0.0
H330 H 0.07713 0.3614 0.66722 0.0
H331 H 0.99439 0.45232 0.60118 0.0
H332 H 0.00497 0.42252 0.55547 0.0
H333 H 0.0554 0.41934 0.6735 0.0
H334 H 0.04088 0.44677 0.73102 0.0
H335 H 0.04476 0.38561 0.66282 0.0
H336 H 0.05253 0.43241 0.49605 0.0
H337 H 0.03979 0.45921 0.43185 0.0
H338 H 0.99032 0.42271 0.38173 0.0
H339 H 0.00269 0.3958 0.44561 0.0
C340 C 0.06719 0.31806 0.45847 0.0
C341 C 0.05148 0.31059 0.42414 0.0
C342 C 0.06399 0.3338 0.49719 0.0
C343 C 0.04506 0.34215 0.502 0.0
C344 C 0.02915 0.33396 0.47041 0.0
C345 C 0.03232 0.31826 0.43179 0.0
C346 C 0.04249 0.36143 0.53115 0.0
C347 C 0.03748 0.37741 0.49486 0.0
C348 C 0.04562 0.36438 0.59212 0.0
C349 C 0.0506 0.34759 0.63213 0.0
C350 C 0.03853 0.33055 0.63418 0.0
C351 C 0.04362 0.31456 0.67062 0.0
C352 C 0.06069 0.31547 0.7056 0.0
C353 C 0.07263 0.33242 0.70444 0.0
C354 C 0.06761 0.34845 0.66804 0.0
C355 C 0.00819 0.44576 0.61629 0.0
C356 C 0.01684 0.45186 0.66936 0.0
C357 C 0.01459 0.42867 0.58887 0.0
C358 C 0.03184 0.41887 0.60777 0.0
C359 C 0.04212 0.42655 0.65723 0.0
C360 C 0.03426 0.44261 0.68915 0.0
C361 C 0.03753 0.3997 0.57933 0.0
C362 C 0.04325 0.38357 0.61551 0.0
C363 C 0.03496 0.39642 0.5176 0.0
C364 C 0.02863 0.41208 0.47539 0.0
C365 C 0.03907 0.43006 0.47081 0.0
C366 C 0.03185 0.44529 0.43467 0.0
C367 C 0.01428 0.44266 0.40269 0.0
C368 C 0.00397 0.42471 0.40627 0.0
C369 C 0.01114 0.40943 0.44214 0.0
H370 H 0.00863 0.45453 0.37518 0.0
H371 H 0.06464 0.30307 0.73369 0.0
H372 H 0.81775 0.92531 0.00379 0.0
H373 H 0.84517 0.93673 0.94241 0.0
H374 H 0.83226 0.99734 0.98873 0.0
H375 H 0.80447 0.98608 0.05035 0.0
H376 H 0.84253 0.98438 0.85383 0.0
H377 H 0.87608 0.99235 0.05748 0.0
H378 H 0.87681 0.97919 0.1595 0.0
H379 H 0.8825 0.91992 0.09228 0.0
H380 H 0.88132 0.93278 0.99012 0.0
H381 H 0.92602 0.03877 0.78713 0.0
H382 H 0.89827 0.02388 0.83703 0.0
H383 H 0.9288 0.96775 0.84224 0.0
H384 H 0.95752 0.98287 0.79234 0.0
H385 H 0.90896 0.97539 0.94559 0.0
H386 H 0.89113 0.9762 0.73895 0.0
H387 H 0.88771 0.99167 0.64056 0.0
H388 H 0.84811 0.03524 0.71215 0.0
H389 H 0.85142 0.02013 0.81107 0.0
C390 C 0.8206 0.9411 0.00072 0.0
C391 C 0.8091 0.95478 0.03245 0.0
C392 C 0.8362 0.94757 0.96542 0.0
C393 C 0.84063 0.9678 0.96132 0.0
C394 C 0.82891 0.98164 0.9914 0.0
C395 C 0.8132 0.97517 0.02685 0.0
C396 C 0.85868 0.97412 0.92994 0.0
C397 C 0.85708 0.9825 0.87359 0.0
C398 C 0.8775 0.97128 0.95567 0.0
C399 C 0.8793 0.96354 0.01654 0.0
C400 C 0.87778 0.97655 0.06469 0.0
C401 C 0.87809 0.96914 0.12245 0.0
C402 C 0.8799 0.94874 0.13238 0.0
C403 C 0.88131 0.93572 0.08457 0.0
C404 C 0.88089 0.94307 0.02676 0.0
C405 C 0.92701 0.02316 0.79816 0.0
C406 C 0.94396 0.01188 0.78431 0.0
C407 C 0.91095 0.01466 0.82676 0.0
C408 C 0.91107 0.99451 0.84138 0.0
C409 C 0.92819 0.98322 0.8299 0.0
C410 C 0.94457 0.99184 0.80133 0.0
C411 C 0.89307 0.98572 0.86852 0.0
C412 C 0.89456 0.97697 0.92472 0.0
C413 C 0.87407 0.98827 0.84228 0.0
C414 C 0.87157 0.99704 0.78244 0.0
C415 C 0.88172 0.98909 0.73371 0.0
C416 C 0.8798 0.9978 0.67786 0.0
C417 C 0.86771 0.01444 0.67012 0.0
C418 C 0.85744 0.02234 0.71819 0.0
C419 C 0.85929 0.01367 0.77412 0.0
H420 H 0.86629 0.02119 0.62688 0.0
H421 H 0.88009 0.94302 0.17711 0.0
H422 H 0.59033 0.82452 0.03942 0.0
H423 H 0.5799 0.85185 0.97558 0.0
H424 H 0.52156 0.82607 0.96078 0.0
H425 H 0.5318 0.79869 0.02595 0.0
H426 H 0.54172 0.83959 0.84823 0.0
H427 H 0.52031 0.86201 0.03775 0.0
H428 H 0.52455 0.86702 0.14497 0.0
H429 H 0.57422 0.90541 0.11259 0.0
H430 H 0.57039 0.90043 0.00505 0.0
H431 H 0.49254 0.92178 0.72629 0.0
H432 H 0.50627 0.89265 0.77111 0.0
H433 H 0.55305 0.92793 0.84906 0.0
H434 H 0.53699 0.95805 0.8106 0.0
H435 H 0.53884 0.90788 0.92924 0.0
H436 H 0.55716 0.88541 0.73102 0.0
H437 H 0.54958 0.87933 0.62579 0.0
H438 H 0.50248 0.83975 0.67499 0.0
H439 H 0.50969 0.84566 0.78037 0.0
C440 C 0.57527 0.82467 0.02273 0.0
C441 C 0.56186 0.80956 0.03769 0.0
C442 C 0.56936 0.84025 0.98627 0.0
C443 C 0.55004 0.84084 0.96352 0.0
C444 C 0.53657 0.82573 0.97788 0.0
C445 C 0.54239 0.81026 0.01535 0.0
C446 C 0.54405 0.85771 0.92596 0.0
C447 C 0.54093 0.85457 0.86557 0.0
C448 C 0.54323 0.87709 0.94904 0.0
C449 C 0.54515 0.88076 0.01344 0.0
C450 C 0.53218 0.87147 0.05352 0.0
C451 C 0.5345 0.8743 0.11433 0.0
C452 C 0.54967 0.8865 0.13558 0.0
C453 C 0.56247 0.89597 0.09603 0.0
C454 C 0.56021 0.89318 0.03514 0.0
C455 C 0.50624 0.9233 0.75104 0.0
C456 C 0.51357 0.94217 0.76564 0.0
C457 C 0.51432 0.9064 0.77643 0.0
C458 C 0.53104 0.90769 0.81318 0.0
C459 C 0.54006 0.92644 0.82118 0.0
C460 C 0.53121 0.94366 0.79814 0.0
C461 C 0.53703 0.8902 0.84966 0.0
C462 C 0.53999 0.8931 0.91069 0.0
C463 C 0.53741 0.87051 0.82696 0.0
C464 C 0.53399 0.866 0.76357 0.0
C465 C 0.54526 0.87534 0.71934 0.0
C466 C 0.54099 0.87195 0.65969 0.0
C467 C 0.52556 0.85917 0.64373 0.0
C468 C 0.51446 0.8496 0.68739 0.0
C469 C 0.51869 0.8529 0.74707 0.0
H470 H 0.5222 0.85668 0.59753 0.0
H471 H 0.55149 0.88864 0.18269 0.0
H472 H 0.72235 0.56386 0.93648 0.0
H473 H 0.69383 0.55033 0.88328 0.0
H474 H 0.66422 0.53937 0.04916 0.0
H475 H 0.69335 0.55181 0.10264 0.0
H476 H 0.65321 0.51262 0.96829 0.0
H477 H 0.65986 0.58464 0.97275 0.0
H478 H 0.67815 0.61574 0.95414 0.0
H479 H 0.68085 0.60207 0.76901 0.0
H480 H 0.66283 0.57075 0.78671 0.0
H481 H 0.55592 0.51405 0.86612 0.0
H482 H 0.58456 0.52714 0.92003 0.0
H483 H 0.61455 0.53771 0.75467 0.0
H484 H 0.58582 0.52487 0.70107 0.0
H485 H 0.62564 0.56422 0.83453 0.0
H486 H 0.61843 0.49359 0.82555 0.0
H487 H 0.60287 0.46085 0.84038 0.0
H488 H 0.60315 0.46986 0.02819 0.0
H489 H 0.61837 0.50283 0.01446 0.0
C490 C 0.70991 0.55813 0.96149 0.0
C491 C 0.70968 0.55931 0.02337 0.0
C492 C 0.69365 0.55044 0.93115 0.0
C493 C 0.6766 0.54464 0.96223 0.0
C494 C 0.67711 0.54408 0.02431 0.0
C495 C 0.69368 0.55124 0.0548 0.0
C496 C 0.65762 0.54158 0.93049 0.0
C497 C 0.64702 0.52397 0.93964 0.0
C498 C 0.64983 0.55623 0.8919 0.0
C499 C 0.66009 0.57535 0.8811 0.0
C500 C 0.66438 0.58828 0.92811 0.0
C501 C 0.67473 0.60592 0.91773 0.0
C502 C 0.68067 0.61087 0.86044 0.0
C503 C 0.67624 0.59822 0.81336 0.0
C504 C 0.66595 0.58053 0.82352 0.0
C505 C 0.56811 0.52042 0.84133 0.0
C506 C 0.56865 0.51875 0.77955 0.0
C507 C 0.58464 0.52744 0.87215 0.0
C508 C 0.60191 0.53271 0.84133 0.0
C509 C 0.60144 0.53351 0.77934 0.0
C510 C 0.58489 0.52651 0.74863 0.0
C511 C 0.62099 0.53535 0.87289 0.0
C512 C 0.63169 0.55287 0.86349 0.0
C513 C 0.62892 0.52049 0.91069 0.0
C514 C 0.61926 0.50085 0.91888 0.0
C515 C 0.61493 0.48872 0.86997 0.0
C516 C 0.60622 0.47009 0.87819 0.0
C517 C 0.60195 0.46331 0.93517 0.0
C518 C 0.60639 0.47515 0.98406 0.0
C519 C 0.61504 0.49383 0.97607 0.0
H520 H 0.59527 0.44886 0.94145 0.0
H521 H 0.6887 0.62453 0.8525 0.0
H522 H 0.92987 0.68708 0.05295 0.0
H523 H 0.94016 0.66006 0.9879 0.0
H524 H 0.99492 0.6907 0.95108 0.0
H525 H 0.98493 0.71768 0.01772 0.0
H526 H 0.97039 0.6741 0.84697 0.0
H527 H 0.00381 0.65659 0.026 0.0
H528 H 0.00568 0.65277 0.13427 0.0
H529 H 0.95931 0.60912 0.12853 0.0
H530 H 0.95701 0.61287 0.02011 0.0
H531 H 0.02016 0.59528 0.708 0.0
H532 H 0.00719 0.62365 0.75919 0.0
H533 H 0.96775 0.58558 0.85828 0.0
H534 H 0.98325 0.55653 0.81216 0.0
H535 H 0.98489 0.60758 0.93089 0.0
H536 H 0.95346 0.62554 0.74362 0.0
H537 H 0.95434 0.63058 0.63558 0.0
H538 H -0.00037 0.67487 0.65619 0.0
H539 H -0.00091 0.67001 0.76425 0.0
C540 C 0.94412 0.68804 0.03113 0.0
C541 C 0.95664 0.70438 0.04041 0.0
C542 C 0.94994 0.67265 0.99402 0.0
C543 C 0.96821 0.67351 0.96474 0.0
C544 C 0.98073 0.68989 0.9733 0.0
C545 C 0.97508 0.70514 0.01157 0.0
C546 C 0.97414 0.65691 0.92629 0.0
C547 C 0.97375 0.65954 0.86496 0.0
C548 C 0.97831 0.63804 0.95023 0.0
C549 C 0.98015 0.63509 0.01503 0.0
C550 C 0.99396 0.64623 0.04786 0.0
C551 C 0.99511 0.64407 0.10923 0.0
C552 C 0.9826 0.63073 0.13828 0.0
C553 C 0.969 0.61944 0.10594 0.0
C554 C 0.96779 0.62154 0.0445 0.0
C555 C 0.00809 0.59296 0.73883 0.0
C556 C 0.00262 0.57368 0.75583 0.0
C557 C 0.00052 0.60937 0.76817 0.0
C558 C 0.98611 0.60708 0.81233 0.0
C559 C 0.97887 0.58785 0.82444 0.0
C560 C 0.98726 0.57121 0.79686 0.0
C561 C 0.98062 0.62434 0.85023 0.0
C562 C 0.98125 0.62194 0.91208 0.0
C563 C 0.9769 0.64354 0.82651 0.0
C564 C 0.97622 0.64739 0.76197 0.0
C565 C 0.96352 0.63642 0.72508 0.0
C566 C 0.964 0.63921 0.66385 0.0
C567 C 0.97704 0.65303 0.63905 0.0
C568 C 0.9895 0.66421 0.67546 0.0
C569 C 0.98905 0.6615 0.73672 0.0
H570 H 0.97748 0.65506 0.5916 0.0
H571 H 0.98346 0.62912 0.18583 0.0
H572 H 0.0621 0.21591 0.48963 0.0
H573 H 0.05029 0.18576 0.53933 0.0
H574 H 0.04269 0.15755 0.36932 0.0
H575 H 0.05274 0.18838 0.32048 0.0
H576 H 0.01331 0.14888 0.42931 0.0
H577 H 0.08322 0.14874 0.47619 0.0
H578 H 0.11533 0.15906 0.51834 0.0
H579 H 0.08967 0.16067 0.69178 0.0
H580 H 0.05732 0.1506 0.65056 0.0
H581 H 0.02256 0.04561 0.52126 0.0
H582 H 0.03112 0.07872 0.48102 0.0
H583 H 0.00705 0.10634 0.63692 0.0
H584 H 0.99775 0.07402 0.67516 0.0
H585 H 0.04896 0.1169 0.5958 0.0
H586 H 0.98034 0.11647 0.54887 0.0
H587 H 0.94907 0.10269 0.50996 0.0
H588 H 0.97445 0.09936 0.33636 0.0
H589 H 0.006 0.11294 0.37451 0.0
C590 C 0.05813 0.20308 0.46336 0.0
C591 C 0.05921 0.20382 0.40154 0.0
C592 C 0.05149 0.18585 0.49162 0.0
C593 C 0.04609 0.16909 0.45827 0.0
C594 C 0.04698 0.17012 0.39625 0.0
C595 C 0.05316 0.18748 0.36823 0.0
C596 C 0.03882 0.15068 0.48715 0.0
C597 C 0.02149 0.14174 0.46477 0.0
C598 C 0.04868 0.1418 0.53591 0.0
C599 C 0.06774 0.1493 0.56006 0.0
C600 C 0.08432 0.15168 0.52314 0.0
C601 C 0.1026 0.15736 0.54693 0.0
C602 C 0.10452 0.16062 0.60765 0.0
C603 C 0.08815 0.15824 0.64471 0.0
C604 C 0.06983 0.15256 0.62115 0.0
C605 C 0.01928 0.0588 0.54667 0.0
C606 C 0.00994 0.05733 0.60174 0.0
C607 C 0.02397 0.07758 0.52373 0.0
C608 C 0.01953 0.0948 0.55621 0.0
C609 C 0.01054 0.0932 0.61142 0.0
C610 C 0.00551 0.07468 0.63351 0.0
C611 C 0.02492 0.11457 0.53407 0.0
C612 C 0.04123 0.12408 0.55951 0.0
C613 C 0.01439 0.1238 0.48784 0.0
C614 C 0.99561 0.11541 0.4647 0.0
C615 C 0.97934 0.11254 0.50256 0.0
C616 C 0.96154 0.10486 0.48061 0.0
C617 C 0.9598 0.10007 0.42077 0.0
C618 C 0.97585 0.10303 0.38274 0.0
C619 C 0.99368 0.11074 0.40448 0.0
H620 H 0.946 0.09412 0.40383 0.0
H621 H 0.11871 0.16491 0.62601 0.0
H622 H 0.33241 0.09309 0.38854 0.0
H623 H 0.3635 0.07901 0.42508 0.0
H624 H 0.33427 0.02309 0.45612 0.0
H625 H 0.30339 0.03666 0.41697 0.0
H626 H 0.35572 0.04078 0.5564 0.0
H627 H 0.37706 0.01247 0.35262 0.0
H628 H 0.38594 0.01468 0.24706 0.0
H629 H 0.40973 0.07305 0.27509 0.0
H630 H 0.40135 0.07091 0.3807 0.0
H631 H 0.43323 0.97894 0.64039 0.0
H632 H 0.40547 0.99186 0.58378 0.0
H633 H 0.4412 0.04148 0.52726 0.0
H634 H 0.46948 0.02807 0.58256 0.0
H635 H 0.41694 0.02838 0.44084 0.0
H636 H 0.40937 0.04932 0.64086 0.0
H637 H 0.40939 0.04459 0.7488 0.0
H638 H 0.36233 0.00194 0.73333 0.0
H639 H 0.36202 0.00649 0.62486 0.0
C640 C 0.33272 0.07762 0.40095 0.0
C641 C 0.31549 0.06589 0.39822 0.0
C642 C 0.35048 0.06963 0.4223 0.0
C643 C 0.35118 0.04995 0.44231 0.0
C644 C 0.33403 0.03826 0.44017 0.0
C645 C 0.31639 0.0461 0.41804 0.0
C646 C 0.3693 0.04204 0.47023 0.0
C647 C 0.36905 0.03791 0.53106 0.0
C648 C 0.38683 0.03879 0.43785 0.0
C649 C 0.3881 0.04177 0.37369 0.0
C650 C 0.38369 0.02596 0.33563 0.0
C651 C 0.3889 0.02709 0.27602 0.0
C652 C 0.39826 0.04408 0.25407 0.0
C653 C 0.40228 0.06001 0.29167 0.0
C654 C 0.39734 0.05884 0.35143 0.0
C655 C 0.43537 0.99246 0.61527 0.0
C656 C 0.45337 0.00304 0.61786 0.0
C657 C 0.4194 -0.00013 0.58329 0.0
C658 C 0.4211 0.01801 0.55355 0.0
C659 C 0.43953 0.02765 0.55123 0.0
C660 C 0.45564 0.02009 0.58294 0.0
C661 C 0.40339 0.0271 0.52664 0.0
C662 C 0.40365 0.03136 0.4663 0.0
C663 C 0.38603 0.03076 0.55985 0.0
C664 C 0.38571 0.02821 0.6249 0.0
C665 C 0.39904 0.03892 0.66049 0.0
C666 C 0.3991 0.03628 0.72171 0.0
C667 C 0.38588 0.02297 0.74789 0.0
C668 C 0.37253 0.01228 0.71291 0.0
C669 C 0.37234 0.01495 0.65156 0.0
H670 H 0.38596 0.02104 0.79527 0.0
H671 H 0.40253 0.0448 0.20811 0.0
H672 H 0.48346 0.30276 0.43487 0.0
H673 H 0.49309 0.33401 0.48041 0.0
H674 H 0.43512 0.35802 0.44434 0.0
H675 H 0.42485 0.32632 0.40196 0.0
H676 H 0.46907 0.38059 0.39823 0.0
H677 H 0.44477 0.35131 0.57768 0.0
H678 H 0.44128 0.32669 0.6577 0.0
H679 H 0.50328 0.33199 0.69799 0.0
H680 H 0.50724 0.35642 0.61759 0.0
H681 H 0.48574 0.46947 0.57765 0.0
H682 H 0.4715 0.44002 0.53014 0.0
H683 H 0.52784 0.41023 0.54392 0.0
H684 H 0.54223 0.43937 0.5902 0.0
H685 H 0.49218 0.39169 0.60389 0.0
H686 H 0.51831 0.41557 0.41979 0.0
H687 H 0.52389 0.44176 0.34542 0.0
H688 H 0.4611 0.44669 0.31748 0.0
H689 H 0.45515 0.42063 0.39234 0.0
C690 C 0.47258 0.31454 0.43711 0.0
C691 C 0.45356 0.31223 0.41215 0.0
C692 C 0.47815 0.33239 0.46337 0.0
C693 C 0.46488 0.34832 0.46494 0.0
C694 C 0.44563 0.34589 0.44265 0.0
C695 C 0.43989 0.32785 0.41742 0.0
C696 C 0.47178 0.36789 0.48554 0.0
C697 C 0.47374 0.38314 0.44351 0.0
C698 C 0.4785 0.37089 0.54413 0.0
C699 C 0.47634 0.35555 0.59097 0.0
C700 C 0.45773 0.34701 0.60294 0.0
C701 C 0.45565 0.33315 0.64858 0.0
C702 C 0.47206 0.32774 0.6828 0.0
C703 C 0.49059 0.33616 0.67138 0.0
C704 C 0.49276 0.35002 0.62577 0.0
C705 C 0.49517 0.45682 0.56941 0.0
C706 C 0.51488 0.45654 0.58962 0.0
C707 C 0.48703 0.44004 0.54237 0.0
C708 C 0.49859 0.42294 0.53521 0.0
C709 C 0.51869 0.42326 0.55019 0.0
C710 C 0.52686 0.44002 0.57637 0.0
C711 C 0.48944 0.40415 0.51664 0.0
C712 C 0.48722 0.3891 0.5589 0.0
C713 C 0.48282 0.40117 0.4583 0.0
C714 C 0.48628 0.41629 0.41186 0.0
C715 C 0.50569 0.42231 0.39794 0.0
C716 C 0.50893 0.43711 0.3557 0.0
C717 C 0.49286 0.44591 0.32679 0.0
C718 C 0.47353 0.43985 0.33991 0.0
C719 C 0.47021 0.42504 0.38216 0.0
H720 H 0.49538 0.4574 0.29416 0.0
H721 H 0.47039 0.31707 0.71828 0.0
H722 H 0.18681 0.42953 0.36331 0.0
H723 H 0.15554 0.44004 0.40579 0.0
H724 H 0.18409 0.49149 0.48011 0.0
H725 H 0.21545 0.48151 0.43589 0.0
H726 H 0.16111 0.4704 0.56122 0.0
H727 H 0.15559 0.50232 0.3811 0.0
H728 H 0.15192 0.51364 0.27818 0.0
H729 H 0.10384 0.47276 0.25231 0.0
H730 H 0.1075 0.46086 0.35487 0.0
H731 H 0.08107 0.5328 0.62404 0.0
H732 H 0.10913 0.51858 0.57295 0.0
H733 H 0.07655 0.46426 0.54613 0.0
H734 H 0.04811 0.47821 0.60008 0.0
H735 H 0.10051 0.48457 0.44392 0.0
H736 H 0.10643 0.45981 0.645 0.0
H737 H 0.10637 0.46415 0.75306 0.0
H738 H 0.15419 0.50601 0.73962 0.0
H739 H 0.15439 0.50206 0.63115 0.0
C740 C 0.18663 0.44316 0.38769 0.0
C741 C 0.20383 0.45472 0.39496 0.0
C742 C 0.16859 0.44919 0.41209 0.0
C743 C 0.1675 0.46665 0.44538 0.0
C744 C 0.18464 0.47802 0.45413 0.0
C745 C 0.20256 0.47221 0.42882 0.0
C746 C 0.14865 0.47247 0.47356 0.0
C747 C 0.14787 0.47345 0.53548 0.0
C748 C 0.13145 0.47669 0.43999 0.0
C749 C 0.13204 0.48046 0.37549 0.0
C750 C 0.1447 0.49523 0.35294 0.0
C751 C 0.14245 0.50195 0.29487 0.0
C752 C 0.12752 0.4941 0.25904 0.0
C753 C 0.11531 0.47894 0.28034 0.0
C754 C 0.11756 0.4721 0.33829 0.0
C755 C 0.07963 0.51785 0.60705 0.0
C756 C 0.06244 0.50646 0.61722 0.0
C757 C 0.09578 0.50977 0.57805 0.0
C758 C 0.09499 0.49028 0.55759 0.0
C759 C 0.07739 0.47927 0.56295 0.0
C760 C 0.06116 0.48729 0.59315 0.0
C761 C 0.11289 0.48178 0.53079 0.0
C762 C 0.11361 0.48062 0.46928 0.0
C763 C 0.13024 0.47846 0.56456 0.0
C764 C 0.13037 0.48067 0.62987 0.0
C765 C 0.11685 0.47003 0.665 0.0
C766 C 0.11681 0.47241 0.72635 0.0
C767 C 0.13026 0.48535 0.75318 0.0
C768 C 0.1438 0.49596 0.71873 0.0
C769 C 0.14392 0.49361 0.6573 0.0
H770 H 0.13024 0.48709 0.80066 0.0
H771 H 0.12545 0.49976 0.21466 0.0
H772 H 0.98416 0.79307 0.99457 0.0
H773 H 0.99172 0.8234 0.93971 0.0
H774 H 0.94887 0.85526 0.04507 0.0
H775 H 0.93958 0.82426 0.09395 0.0
H776 H 0.94646 0.86965 0.94745 0.0
H777 H 0.00764 0.85328 0.06069 0.0
H778 H 0.03689 0.83298 0.08646 0.0
H779 H 0.05486 0.83257 0.90446 0.0
H780 H 0.02566 0.85266 0.87764 0.0
H781 H 0.98903 0.96735 0.90716 0.0
H782 H 0.97654 0.93561 0.94734 0.0
H783 H 0.00795 0.90386 0.81102 0.0
H784 H 0.02065 0.93502 0.77239 0.0
H785 H 0.01649 0.88976 0.91882 0.0
H786 H 0.95611 0.9 0.80156 0.0
H787 H 0.92843 0.9208 0.76562 0.0
H788 H 0.91231 0.93417 0.94452 0.0
H789 H 0.93938 0.91289 0.98147 0.0
C790 C 0.97635 0.80661 0.00543 0.0
C791 C 0.96152 0.80657 0.0487 0.0
C792 C 0.98085 0.82404 0.97476 0.0
C793 C 0.9715 0.84201 0.9896 0.0
C794 C 0.95641 0.84173 0.03253 0.0
C795 C 0.95114 0.82407 0.06078 0.0
C796 C 0.9771 0.86108 0.96057 0.0
C797 C 0.96184 0.87404 0.94239 0.0
C798 C 0.99713 0.86678 0.9508 0.0
C799 C 0.01436 0.85427 0.96717 0.0
C800 C 0.01775 0.84871 0.0262 0.0
C801 C 0.03434 0.83727 0.04095 0.0
C802 C 0.04769 0.83145 0.99711 0.0
C803 C 0.0445 0.83704 0.93838 0.0
C804 C 0.02794 0.84845 0.9234 0.0
C805 C 0.99311 0.95353 0.88611 0.0
C806 C 0.00617 0.95342 0.83807 0.0
C807 C 0.9859 0.93551 0.90852 0.0
C808 C 0.99145 0.91744 0.88211 0.0
C809 C 0.00371 0.91759 0.83239 0.0
C810 C 0.01102 0.93538 0.81068 0.0
C811 C 0.98594 0.89817 0.90837 0.0
C812 C 0.00118 0.88523 0.92507 0.0
C813 C 0.96608 0.89237 0.91598 0.0
C814 C 0.94959 0.90481 0.89417 0.0
C815 C 0.9465 0.90726 0.83314 0.0
C816 C 0.93084 0.919 0.81264 0.0
C817 C 0.91834 0.92848 0.85284 0.0
C818 C 0.92162 0.9264 0.91354 0.0
C819 C 0.93704 0.91443 0.93429 0.0
H820 H 0.90626 0.93763 0.83699 0.0
H821 H 0.06054 0.82264 0.00866 0.0
H822 H 0.69307 0.93036 0.06645 0.0
H823 H 0.66084 0.93953 0.02512 0.0
H824 H 0.68491 0.99604 0.97012 0.0
H825 H 0.71672 0.98734 0.01512 0.0
H826 H 0.65262 0.00308 0.01623 0.0
H827 H 0.67185 0.9556 0.87198 0.0
H828 H 0.68294 0.92384 0.82949 0.0
H829 H 0.63165 0.89464 0.90076 0.0
H830 H 0.62039 0.92616 0.94441 0.0
H831 H 0.58216 0.03286 0.81364 0.0
H832 H 0.61062 0.01953 0.86332 0.0
H833 H 0.57476 0.97294 0.93893 0.0
H834 H 0.54562 0.98568 0.88476 0.0
H835 H 0.61033 0.95976 0.89147 0.0
H836 H 0.59126 0.01313 0.02535 0.0
H837 H 0.58033 0.04774 0.03905 0.0
H838 H 0.63399 0.06879 0.95859 0.0
H839 H 0.64518 0.03433 0.94408 0.0
C840 C 0.69145 0.94465 0.04503 0.0
C841 C 0.70719 0.95829 0.0446 0.0
C842 C 0.67307 0.94985 0.02103 0.0
C843 C 0.67037 0.96846 0.99407 0.0
C844 C 0.68648 0.98169 0.99127 0.0
C845 C 0.70466 0.97673 0.01684 0.0
C846 C 0.65052 0.97471 0.97228 0.0
C847 C 0.64352 0.99355 0.98868 0.0
C848 C 0.63835 0.96232 0.93684 0.0
C849 C 0.64543 0.9432 0.91227 0.0
C850 C 0.66307 0.94235 0.87928 0.0
C851 C 0.66935 0.9244 0.85481 0.0
C852 C 0.65805 0.90722 0.86263 0.0
C853 C 0.64043 0.90795 0.8949 0.0
C854 C 0.63409 0.92585 0.91953 0.0
C855 C 0.57995 0.01999 0.8416 0.0
C856 C 0.56142 0.01045 0.8457 0.0
C857 C 0.59641 0.01239 0.87019 0.0
C858 C 0.59473 0.9956 0.90611 0.0
C859 C 0.57625 0.9861 0.91173 0.0
C860 C 0.55964 0.99344 0.88132 0.0
C861 C 0.61276 0.98791 0.93534 0.0
C862 C 0.61941 0.96891 0.92023 0.0
C863 C 0.62498 0.00043 0.96994 0.0
C864 C 0.61911 0.02113 0.98403 0.0
C865 C 0.60081 0.02515 0.01114 0.0
C866 C 0.59453 0.04474 0.0188 0.0
C867 C 0.60647 0.06045 -0.00022 0.0
C868 C 0.6248 0.05661 0.97356 0.0
C869 C 0.63116 0.03705 0.96589 0.0
H870 H 0.6015 0.0756 0.00529 0.0
H871 H 0.66292 0.89335 0.84352 0.0
H872 H 0.52479 0.71498 0.02703 0.0
H873 H 0.5155 0.68304 0.98409 0.0
H874 H 0.57459 0.66098 0.01661 0.0
H875 H 0.58407 0.69313 0.05805 0.0
H876 H 0.56302 0.65022 0.91158 0.0
H877 H 0.53033 0.64292 0.10944 0.0
H878 H 0.5071 0.65186 0.18974 0.0
H879 H 0.46044 0.66013 0.06303 0.0
H880 H 0.48312 0.6506 0.98245 0.0
H881 H 0.53911 0.5501 0.84519 0.0
H882 H 0.54924 0.57882 0.90483 0.0
H883 H 0.49262 0.60644 0.87097 0.0
H884 H 0.4824 0.57788 0.81318 0.0
H885 H 0.50389 0.61306 0.98061 0.0
H886 H 0.53176 0.61844 0.78679 0.0
H887 H 0.55081 0.60624 0.70132 0.0
H888 H 0.6033 0.60292 0.80862 0.0
H889 H 0.58448 0.61496 0.89494 0.0
C890 C 0.53572 0.70324 0.02545 0.0
C891 C 0.55504 0.70638 0.04676 0.0
C892 C 0.53038 0.68495 0.00122 0.0
C893 C 0.54418 0.66937 -0.00134 0.0
C894 C 0.56363 0.6727 0.01858 0.0
C895 C 0.56906 0.69108 0.04207 0.0
C896 C 0.53862 0.64985 0.97328 0.0
C897 C 0.55029 0.64194 0.9275 0.0
C898 C 0.5216 0.6393 0.99222 0.0
C899 C 0.50848 0.64639 0.04006 0.0
C900 C 0.51518 0.6469 0.09881 0.0
C901 C 0.50211 0.65194 0.14433 0.0
C902 C 0.48244 0.65682 0.13141 0.0
C903 C 0.47571 0.65647 0.07298 0.0
C904 C 0.48862 0.65113 0.02746 0.0
C905 C 0.52871 0.56205 0.85205 0.0
C906 C 0.5101 0.56185 0.8243 0.0
C907 C 0.53454 0.57852 0.88546 0.0
C908 C 0.52177 0.59487 0.89133 0.0
C909 C 0.50272 0.59402 0.86684 0.0
C910 C 0.49694 0.5777 0.83367 0.0
C911 C 0.52837 0.61344 0.9198 0.0
C912 C 0.51682 0.62121 0.96555 0.0
C913 C 0.54513 0.62407 0.89966 0.0
C914 C 0.55668 0.61745 0.84746 0.0
C915 C 0.54735 0.61506 0.7922 0.0
C916 C 0.5581 0.60818 0.7436 0.0
C917 C 0.57825 0.60378 0.74956 0.0
C918 C 0.58769 0.60634 0.80408 0.0
C919 C 0.577 0.61323 0.85285 0.0
H920 H 0.58654 0.59841 0.71192 0.0
H921 H 0.47238 0.66073 0.16671 0.0
H922 H 0.81752 0.53775 0.11214 0.0
H923 H 0.84807 0.52709 0.06616 0.0
H924 H 0.83698 0.56646 0.91935 0.0
H925 H 0.80567 0.57664 0.96458 0.0
H926 H 0.85225 0.5308 0.88284 0.0
H927 H 0.86822 0.58089 0.02538 0.0
H928 H 0.86949 0.59783 0.12184 0.0
H929 H 0.89773 0.54699 0.19949 0.0
H930 H 0.89647 0.52967 0.10357 0.0
H931 H 0.95395 0.53646 0.7928 0.0
H932 H 0.92206 0.54697 0.83328 0.0
H933 H 0.92437 0.49915 0.96005 0.0
H934 H 0.95622 0.48835 0.91901 0.0
H935 H 0.91353 0.53961 0.00196 0.0
H936 H 0.89833 0.49003 0.85567 0.0
H937 H 0.89923 0.47487 0.75669 0.0
H938 H 0.87087 0.52625 0.68288 0.0
H939 H 0.87013 0.54192 0.78138 0.0
C940 C 0.8211 0.54373 0.06957 0.0
C941 C 0.80894 0.55788 0.04208 0.0
C942 C 0.83881 0.53782 0.04352 0.0
C943 C 0.84487 0.54617 0.98974 0.0
C944 C 0.83255 0.55988 0.96101 0.0
C945 C 0.81477 0.56576 0.98713 0.0
C946 C 0.8645 0.54123 0.9653 0.0
C947 C 0.86569 0.53295 0.90848 0.0
C948 C 0.88196 0.54383 -0.00077 0.0
C949 C 0.882 0.5539 0.05749 0.0
C950 C 0.87446 0.57323 0.0632 0.0
C951 C 0.87525 0.58293 0.11773 0.0
C952 C 0.88362 0.57347 0.16681 0.0
C953 C 0.89121 0.55428 0.16147 0.0
C954 C 0.89047 0.54453 0.10705 0.0
C955 C 0.94807 0.52874 0.83097 0.0
C956 C 0.95767 0.51195 0.85409 0.0
C957 C 0.9297 0.53446 0.85299 0.0
C958 C 0.92092 0.52356 0.89868 0.0
C959 C 0.93102 0.50756 0.92435 0.0
C960 C 0.94923 0.5016 0.90162 0.0
C961 C 0.90122 0.52901 0.92028 0.0
C962 C 0.90006 0.53746 0.97642 0.0
C963 C 0.88394 0.52668 0.88543 0.0
C964 C 0.88446 0.51731 0.82595 0.0
C965 C 0.89254 0.49824 0.81828 0.0
C966 C 0.89295 0.48951 0.76225 0.0
C967 C 0.88519 0.49962 0.71348 0.0
C968 C 0.87693 0.51846 0.72069 0.0
C969 C 0.87651 0.52727 0.77664 0.0
H970 H 0.8855 0.49284 0.67015 0.0
H971 H 0.88426 0.58102 0.20895 0.0
H972 H 0.04611 0.15039 0.24538 0.0
H973 H 0.02919 0.13454 0.16243 0.0
H974 H 0.07132 0.16046 0.04163 0.0
H975 H 0.08794 0.17701 0.12444 0.0
H976 H 0.03145 0.15087 0.99043 0.0
H977 H 0.08654 0.12123 0.10506 0.0
H978 H 0.10064 0.11409 0.20354 0.0
H979 H 0.04911 0.07972 0.24785 0.0
H980 H 0.03455 0.08702 0.14993 0.0
H981 H 0.03654 0.07628 0.77599 0.0
H982 H 0.04725 0.10054 0.85005 0.0
H983 H 0.02026 0.06494 0.98713 0.0
H984 H 0.01104 0.04001 0.91351 0.0
H985 H 0.05058 0.08091 0.03026 0.0
H986 H 0.99645 0.10586 0.91436 0.0
H987 H 0.97979 0.11413 0.82038 0.0
H988 H 0.02482 0.1573 0.78201 0.0
H989 H 0.04196 0.14905 0.87536 0.0
C990 C 0.05151 0.15304 0.20099 0.0
C991 C 0.06885 0.16411 0.19125 0.0
C992 C 0.04161 0.14431 0.15363 0.0
C993 C 0.04933 0.146 0.09631 0.0
C994 C 0.06523 0.15894 0.08569 0.0
C995 C 0.07491 0.16807 0.13305 0.0
C996 C 0.04467 0.13053 0.05243 0.0
C997 C 0.03564 0.13558 -0.00134 0.0
C998 C 0.04993 0.1106 0.06396 0.0
C999 C 0.0595 0.10464 0.12032 0.0
C1000 C 0.0783 0.11204 0.13571 0.0
C1001 C 0.08632 0.10806 0.1915 0.0
C1002 C 0.07578 0.09645 0.23192 0.0
C1003 C 0.05726 0.08869 0.21646 0.0
C1004 C 0.04913 0.09272 0.16081 0.0
C1005 C 0.03348 0.07349 0.82228 0.0
C1006 C 0.02305 0.05647 0.83968 0.0
C1007 C 0.03933 0.08741 0.86438 0.0
C1008 C 0.0339 0.08493 0.92388 0.0
C1009 C 0.02447 0.06728 0.94146 0.0
C1010 C 0.01925 0.05303 0.8996 0.0
C1011 C 0.03718 0.101 0.96744 0.0
C1012 C 0.04614 0.0961 0.02149 0.0
C1013 C 0.03143 0.12094 0.95628 0.0
C1014 C 0.02057 0.12673 0.90171 0.0
C1015 C 0.00281 0.11712 0.88589 0.0
C1016 C 0.9933 0.12177 0.83267 0.0
C1017 C 0.00127 0.1362 0.79519 0.0
C1018 C 0.01868 0.14612 0.81108 0.0
C1019 C 0.02829 0.14147 0.86419 0.0
H1020 H 0.99394 0.13972 0.75388 0.0
H1021 H 0.08196 0.09347 0.27522 0.0
H1022 H 0.35285 0.03982 0.22565 0.0
H1023 H 0.37553 0.02788 0.14851 0.0
H1024 H 0.34984 0.06903 0.02444 0.0
H1025 H 0.32822 0.08206 0.10238 0.0
H1026 H 0.37039 0.01838 0.00761 0.0
H1027 H 0.37556 0.09237 0.04253 0.0
H1028 H 0.37643 0.12026 0.11254 0.0
H1029 H 0.42598 0.09382 0.20204 0.0
H1030 H 0.42418 0.06485 0.13577 0.0
H1031 H 0.44585 0.03051 0.79223 0.0
H1032 H 0.41758 0.03977 0.85422 0.0
H1033 H 0.45326 0.03099 0.01036 0.0
H1034 H 0.48135 0.02086 0.94844 0.0
H1035 H 0.42746 0.06498 0.01174 0.0
H1036 H 0.42845 0.99606 0.97017 0.0
H1037 H 0.42866 0.96528 0.912 0.0
H1038 H 0.37113 0.97923 0.842 0.0
H1039 H 0.37082 0.01047 0.89823 0.0
C1040 C 0.35195 0.04609 0.18165 0.0
C1041 C 0.33959 0.06234 0.17006 0.0
C1042 C 0.36478 0.03927 0.13792 0.0
C1043 C 0.36488 0.04836 0.08227 0.0
C1044 C 0.35039 0.06246 0.06814 0.0
C1045 C 0.33812 0.06986 0.11241 0.0
C1046 C 0.38199 0.04555 0.04312 0.0
C1047 C 0.38273 0.02872 0.00713 0.0
C1048 C 0.39835 0.05868 0.04542 0.0
C1049 C 0.39907 0.07595 0.08593 0.0
C1050 C 0.38604 0.09204 0.07873 0.0
C1051 C 0.38674 0.10809 0.11769 0.0
C1052 C 0.40099 0.10863 0.16252 0.0
C1053 C 0.41464 0.09317 0.16817 0.0
C1054 C 0.41362 0.07682 0.13037 0.0
C1055 C 0.4479 0.03151 0.83968 0.0
C1056 C 0.4658 0.02546 0.8659 0.0
C1057 C 0.43169 0.0364 0.87486 0.0
C1058 C 0.43335 0.03564 0.93649 0.0
C1059 C 0.45177 0.0315 0.96269 0.0
C1060 C 0.46786 0.02607 0.9275 0.0
C1061 C 0.41564 0.03824 0.97363 0.0
C1062 C 0.41496 0.05484 0.0105 0.0
C1063 C 0.39948 0.02472 0.97234 0.0
C1064 C 0.39988 0.00603 0.93732 0.0
C1065 C 0.41604 0.99289 0.94132 0.0
C1066 C 0.41612 0.97525 0.9089 0.0
C1067 C 0.39998 0.97036 0.87298 0.0
C1068 C 0.38368 0.98307 0.86961 0.0
C1069 C 0.38356 0.00077 0.90173 0.0
H1070 H 0.40005 0.95667 0.84806 0.0
H1071 H 0.40166 0.12116 0.19231 0.0
H1072 H 0.4213 0.34484 0.12881 0.0
H1073 H 0.43456 0.36619 0.05083 0.0
H1074 H 0.49225 0.36438 0.13333 0.0
H1075 H 0.47916 0.34286 0.21119 0.0
H1076 H 0.47733 0.40199 0.12046 0.0
H1077 H 0.48907 0.34589 6e-05 0.0
H1078 H 0.48222 0.31424 0.94946 0.0
H1079 H 0.43512 0.3417 0.85114 0.0
H1080 H 0.4416 0.37351 0.9015 0.0
H1081 H 0.52854 0.45764 0.90528 0.0
H1082 H 0.51568 0.43356 0.97566 0.0
H1083 H 0.45887 0.43478 0.88754 0.0
H1084 H 0.47194 0.45908 0.81586 0.0
H1085 H 0.47363 0.39681 0.90207 0.0
H1086 H 0.46373 0.45386 0.02715 0.0
H1087 H 0.47283 0.48463 0.07953 0.0
H1088 H 0.51939 0.45382 0.17107 0.0
H1089 H 0.51073 0.42293 0.11874 0.0
C1090 C 0.43687 0.34876 0.12981 0.0
C1091 C 0.44912 0.34252 0.17652 0.0
C1092 C 0.44447 0.36076 0.08495 0.0
C1093 C 0.46435 0.36682 0.0865 0.0
C1094 C 0.47686 0.35978 0.13145 0.0
C1095 C 0.46934 0.34757 0.17591 0.0
C1096 C 0.47112 0.3828 0.04675 0.0
C1097 C 0.47686 0.40077 0.07265 0.0
C1098 C 0.46997 0.38123 0.9846 0.0
C1099 C 0.46569 0.36205 0.95504 0.0
C1100 C 0.47711 0.34514 0.96812 0.0
C1101 C 0.47334 0.32718 0.93932 0.0
C1102 C 0.4582 0.32595 0.89723 0.0
C1103 C 0.44683 0.34268 0.8838 0.0
C1104 C 0.45057 0.36069 0.91238 0.0
C1105 C 0.51315 0.45314 0.90176 0.0
C1106 C 0.50117 0.46018 0.85545 0.0
C1107 C 0.50581 0.43941 0.94206 0.0
C1108 C 0.48631 0.43244 0.93698 0.0
C1109 C 0.47396 0.44006 0.89218 0.0
C1110 C 0.48132 0.45403 0.85177 0.0
C1111 C 0.47963 0.41611 0.97589 0.0
C1112 C 0.47399 0.39804 0.94986 0.0
C1113 C 0.48115 0.41745 0.03813 0.0
C1114 C 0.48668 0.43613 0.06861 0.0
C1115 C 0.47604 0.4537 0.05798 0.0
C1116 C 0.48109 0.47115 0.08779 0.0
C1117 C 0.49671 0.47119 0.12848 0.0
C1118 C 0.50732 0.45378 0.13948 0.0
C1119 C 0.50233 0.43629 0.10982 0.0
H1120 H 0.50057 0.48471 0.15157 0.0
H1121 H 0.45532 0.31205 0.87494 0.0
H1122 H 0.15342 0.45675 0.23799 0.0
H1123 H 0.12959 0.46854 0.16374 0.0
H1124 H 0.172 0.45769 0.02559 0.0
H1125 H 0.19586 0.44539 0.09982 0.0
H1126 H 0.14661 0.49409 0.01232 0.0
H1127 H 0.14208 0.42315 0.04619 0.0
H1128 H 0.14168 0.3946 0.11449 0.0
H1129 H 0.08891 0.41704 0.19642 0.0
H1130 H 0.08921 0.44591 0.12922 0.0
H1131 H 0.07155 0.48911 0.79421 0.0
H1132 H 0.09868 0.47628 0.85538 0.0
H1133 H 0.06397 0.48664 0.01216 0.0
H1134 H 0.03694 0.50021 0.95092 0.0
H1135 H 0.0876 0.44986 0.00864 0.0
H1136 H 0.09095 0.52001 0.97634 0.0
H1137 H 0.09194 0.55072 0.9175 0.0
H1138 H 0.14712 0.5327 0.84027 0.0
H1139 H 0.14618 0.50153 0.89742 0.0
C1140 C 0.15771 0.4573 0.19187 0.0
C1141 C 0.17611 0.45006 0.17374 0.0
C1142 C 0.14431 0.46426 0.15 0.0
C1143 C 0.14919 0.4641 0.08986 0.0
C1144 C 0.16812 0.45804 0.07201 0.0
C1145 C 0.18156 0.4509 0.11403 0.0
C1146 C 0.13334 0.46738 0.04627 0.0
C1147 C 0.13388 0.48427 0.01022 0.0
C1148 C 0.11665 0.45468 0.04517 0.0
C1149 C 0.11564 0.43664 0.08265 0.0
C1150 C 0.13036 0.42195 0.07867 0.0
C1151 C 0.13019 0.40575 0.1173 0.0
C1152 C 0.11527 0.40399 0.15973 0.0
C1153 C 0.10043 0.41839 0.16343 0.0
C1154 C 0.10056 0.43465 0.125 0.0
C1155 C 0.06953 0.48801 0.84165 0.0
C1156 C 0.05236 0.49545 0.86848 0.0
C1157 C 0.08501 0.48086 0.87625 0.0
C1158 C 0.0833 0.48089 0.93783 0.0
C1159 C 0.06543 0.48666 0.96448 0.0
C1160 C 0.05005 0.49426 0.92981 0.0
C1161 C 0.10075 0.47662 0.97445 0.0
C1162 C 0.10048 0.45951 0.00943 0.0
C1163 C 0.11759 0.48925 0.97453 0.0
C1164 C 0.11821 0.50809 0.94014 0.0
C1165 C 0.1031 0.52235 0.94597 0.0
C1166 C 0.1037 0.53991 0.91308 0.0
C1167 C 0.11952 0.54361 0.87487 0.0
C1168 C 0.13482 0.52977 0.86968 0.0
C1169 C 0.13424 0.51213 0.90229 0.0
H1170 H 0.11997 0.55724 0.84955 0.0
H1171 H 0.1152 0.39148 0.18976 0.0
H1172 H 0.96585 0.86183 0.19809 0.0
H1173 H 0.95885 0.88491 0.27815 0.0
H1174 H 0.99374 0.84929 0.39779 0.0
H1175 H 0.00073 0.82584 0.3177 0.0
H1176 H 0.95836 0.86859 0.45086 0.0
H1177 H 0.01762 0.883 0.33703 0.0
H1178 H 0.03433 0.88614 0.24062 0.0
H1179 H 0.99465 0.93319 0.19165 0.0
H1180 H 0.97747 0.93005 0.28756 0.0
H1181 H 0.00669 0.93006 0.65011 0.0
H1182 H 0.99426 0.90714 0.57669 0.0
H1183 H 0.97092 0.95603 0.47471 0.0
H1184 H 0.98404 0.9795 0.5487 0.0
H1185 H 0.99333 0.93191 0.40839 0.0
H1186 H 0.93947 0.92156 0.5407 0.0
H1187 H 0.92449 0.91658 0.63894 0.0
H1188 H 0.95504 0.86107 0.65706 0.0
H1189 H 0.97043 0.86581 0.55929 0.0
C1190 C 0.97191 0.85873 0.24152 0.0
C1191 C 0.98427 0.84226 0.25125 0.0
C1192 C 0.96766 0.87183 0.28738 0.0
C1193 C 0.97582 0.86882 0.34371 0.0
C1194 C 0.98719 0.85177 0.35464 0.0
C1195 C 0.99142 0.83857 0.30866 0.0
C1196 C 0.97545 0.88512 0.38739 0.0
C1197 C 0.96593 0.88247 0.44188 0.0
C1198 C 0.98506 0.90329 0.37491 0.0
C1199 C 0.99623 0.90625 0.31922 0.0
C1200 C 0.01249 0.89404 0.3057 0.0
C1201 C 0.02201 0.89577 0.25112 0.0
C1202 C 0.01554 0.90984 0.20999 0.0
C1203 C -0.00036 0.9223 0.22357 0.0
C1204 C 0.99002 0.92057 0.27806 0.0
C1205 C -0.00128 0.93603 0.61242 0.0
C1206 C 0.99659 0.95661 0.60461 0.0
C1207 C 0.99136 0.92282 0.57076 0.0
C1208 C 0.98142 0.92979 0.52045 0.0
C1209 C 0.97845 0.95034 0.51351 0.0
C1210 C 0.98586 0.96371 0.55571 0.0
C1211 C 0.97638 0.91551 0.47286 0.0
C1212 C 0.98511 0.91839 0.41726 0.0
C1213 C 0.96617 0.89753 0.48488 0.0
C1214 C 0.95614 0.89407 0.5425 0.0
C1215 C 0.943 0.90828 0.56559 0.0
C1216 C 0.93445 0.90551 0.62126 0.0
C1217 C 0.93882 0.88853 0.65423 0.0
C1218 C 0.95164 0.8742 0.63142 0.0
C1219 C 0.96024 0.8769 0.57576 0.0
H1220 H 0.93226 0.88646 0.69744 0.0
H1221 H 0.02286 0.91111 0.16763 0.0
H1222 H 0.69076 0.99294 0.31542 0.0
H1223 H 0.66706 0.98694 0.39576 0.0
H1224 H 0.62757 0.95782 0.27353 0.0
H1225 H 0.65113 0.9634 0.19342 0.0
H1226 H 0.6169 0.99745 0.34297 0.0
H1227 H 0.63977 0.92909 0.35688 0.0
H1228 H 0.66427 0.90261 0.37447 0.0
H1229 H 0.67582 0.92558 0.54805 0.0
H1230 H 0.65161 0.95239 0.53115 0.0
H1231 H 0.53445 0.98875 0.52739 0.0
H1232 H 0.5588 0.9782 0.45307 0.0
H1233 H 0.60448 0.9777 0.58702 0.0
H1234 H 0.58019 0.98781 0.6608 0.0
H1235 H 0.61254 0.95028 0.51085 0.0
H1236 H 0.59559 0.01871 0.50252 0.0
H1237 H 0.57595 0.04931 0.49122 0.0
H1238 H 0.55875 0.03157 0.31627 0.0
H1239 H 0.57802 0.00069 0.32692 0.0
C1240 C 0.67713 0.98505 0.30588 0.0
C1241 C 0.67264 0.97891 0.248 0.0
C1242 C 0.66379 0.98139 0.35189 0.0
C1243 C 0.6458 0.97166 0.34045 0.0
C1244 C 0.64158 0.96502 0.28319 0.0
C1245 C 0.65496 0.96843 0.23744 0.0
C1246 C 0.62984 0.97192 0.38474 0.0
C1247 C 0.61564 0.9869 0.37911 0.0
C1248 C 0.629 0.95868 0.43311 0.0
C1249 C 0.64406 0.94294 0.44236 0.0
C1250 C 0.64776 0.92871 0.39841 0.0
C1251 C 0.66154 0.91357 0.40839 0.0
C1252 C 0.67165 0.91245 0.46226 0.0
C1253 C 0.66802 0.92648 0.50628 0.0
C1254 C 0.65427 0.94165 0.49652 0.0
C1255 C 0.54949 0.98545 0.54112 0.0
C1256 C 0.55552 0.98884 0.59954 0.0
C1257 C 0.56345 0.97973 0.49868 0.0
C1258 C 0.58356 0.97757 0.51429 0.0
C1259 C 0.58911 0.97928 0.57382 0.0
C1260 C 0.57522 0.98496 0.616 0.0
C1261 C 0.59915 0.97564 0.46845 0.0
C1262 C 0.61348 0.9606 0.47413 0.0
C1263 C 0.60062 0.98929 0.42095 0.0
C1264 C 0.58793 0.00719 0.416 0.0
C1265 C 0.58732 0.02115 0.46208 0.0
C1266 C 0.57633 0.0386 0.45567 0.0
C1267 C 0.56603 0.04234 0.40317 0.0
C1268 C 0.56665 0.02861 0.35702 0.0
C1269 C 0.57757 0.01112 0.36327 0.0
H1270 H 0.55763 0.05591 0.39816 0.0
H1271 H 0.68226 0.90068 0.46996 0.0
H1272 H 0.54894 0.65215 0.20267 0.0
H1273 H 0.55263 0.62857 0.28393 0.0
H1274 H 0.52984 0.67194 0.40588 0.0
H1275 H 0.52516 0.69546 0.32401 0.0
H1276 H 0.56988 0.63685 0.42666 0.0
H1277 H 0.49786 0.6528 0.41241 0.0
H1278 H 0.46945 0.6621 0.34933 0.0
H1279 H 0.4785 0.61011 0.24342 0.0
H1280 H 0.50731 0.60079 0.30516 0.0
H1281 H 0.53847 0.56499 0.64497 0.0
H1282 H 0.54716 0.5936 0.58405 0.0
H1283 H 0.52779 0.56202 0.42824 0.0
H1284 H 0.51778 0.53397 0.49014 0.0
H1285 H 0.50926 0.59512 0.43466 0.0
H1286 H 0.57872 0.57687 0.45986 0.0
H1287 H 0.60766 0.56827 0.52164 0.0
H1288 H 0.60381 0.62459 0.60923 0.0
H1289 H 0.57474 0.63345 0.54831 0.0
C1290 C 0.54487 0.65677 0.24683 0.0
C1291 C 0.5363 0.67543 0.25694 0.0
C1292 C 0.54722 0.64337 0.2932 0.0
C1293 C 0.54153 0.64862 0.35054 0.0
C1294 C 0.5343 0.66773 0.36169 0.0
C1295 C 0.53144 0.68101 0.31494 0.0
C1296 C 0.53996 0.63293 0.39548 0.0
C1297 C 0.55657 0.62785 0.42957 0.0
C1298 C 0.52266 0.62123 0.39824 0.0
C1299 C 0.50482 0.62623 0.36291 0.0
C1300 C 0.49385 0.64343 0.37543 0.0
C1301 C 0.4777 0.64871 0.33993 0.0
C1302 C 0.4722 0.63672 0.29231 0.0
C1303 C 0.48281 0.61939 0.28026 0.0
C1304 C 0.49905 0.61412 0.31545 0.0
C1305 C 0.53699 0.56386 0.59736 0.0
C1306 C 0.52775 0.5473 0.57178 0.0
C1307 C 0.54185 0.58027 0.56254 0.0
C1308 C 0.5381 0.58002 0.50144 0.0
C1309 C 0.53068 0.56261 0.47534 0.0
C1310 C 0.52527 0.54646 0.51039 0.0
C1311 C 0.5394 0.59846 0.46583 0.0
C1312 C 0.5226 0.6041 0.433 0.0
C1313 C 0.55648 0.61073 0.46515 0.0
C1314 C 0.57451 0.60577 0.49973 0.0
C1315 C 0.58405 0.58742 0.4923 0.0
C1316 C 0.60047 0.58249 0.52719 0.0
C1317 C 0.60755 0.59587 0.56938 0.0
C1318 C 0.59832 0.61425 0.57649 0.0
C1319 C 0.5819 0.61925 0.5417 0.0
H1320 H 0.62021 0.592 0.59652 0.0
H1321 H 0.45971 0.64083 0.26483 0.0
H1322 H 0.835 0.50616 0.2907 0.0
H1323 H 0.8627 0.50707 0.36048 0.0
H1324 H 0.86488 0.57087 0.34658 0.0
H1325 H 0.83729 0.57011 0.27638 0.0
H1326 H 0.90172 0.55469 0.34263 0.0
H1327 H 0.84547 0.55066 0.46734 0.0
H1328 H 0.81334 0.53806 0.50314 0.0
H1329 H 0.83945 0.48113 0.5375 0.0
H1330 H 0.87167 0.49326 0.50097 0.0
H1331 H 0.96526 0.54573 0.6147 0.0
H1332 H 0.94073 0.55766 0.54174 0.0
H1333 H 0.92983 0.49736 0.48727 0.0
H1334 H 0.95397 0.48548 0.55926 0.0
H1335 H 0.89616 0.52008 0.53553 0.0
H1336 H 0.95097 0.5239 0.39452 0.0
H1337 H 0.98225 0.5369 0.35349 0.0
H1338 H 0.95801 0.59577 0.35126 0.0
H1339 H 0.92666 0.58314 0.39301 0.0
C1340 C 0.84133 0.52038 0.30261 0.0
C1341 C 0.83383 0.53807 0.27856 0.0
C1342 C 0.8571 0.5209 0.3426 0.0
C1343 C 0.86562 0.53907 0.35936 0.0
C1344 C 0.85843 0.55671 0.33452 0.0
C1345 C 0.8426 0.55623 0.29466 0.0
C1346 C 0.88212 0.53944 0.40259 0.0
C1347 C 0.90044 0.54749 0.38539 0.0
C1348 C 0.88035 0.53019 0.45846 0.0
C1349 C 0.861 0.52286 0.48102 0.0
C1350 C 0.84435 0.53541 0.48213 0.0
C1351 C 0.82611 0.52835 0.50261 0.0
C1352 C 0.82434 0.5088 0.52249 0.0
C1353 C 0.84083 0.49627 0.52207 0.0
C1354 C 0.8591 0.50324 0.50155 0.0
C1355 C 0.958 0.53516 0.58588 0.0
C1356 C 0.96127 0.51469 0.59308 0.0
C1357 C 0.94402 0.54196 0.54441 0.0
C1358 C 0.93342 0.52833 0.50961 0.0
C1359 C 0.93779 0.50807 0.51402 0.0
C1360 C 0.95154 0.50132 0.55527 0.0
C1361 C 0.91597 0.53434 0.47418 0.0
C1362 C 0.89734 0.52766 0.49332 0.0
C1363 C 0.91748 0.54498 0.42049 0.0
C1364 C 0.93663 0.55263 0.39802 0.0
C1365 C 0.95244 0.53967 0.38632 0.0
C1366 C 0.97014 0.54695 0.3626 0.0
C1367 C 0.97216 0.56716 0.35008 0.0
C1368 C 0.95647 0.58013 0.36122 0.0
C1369 C 0.93874 0.57292 0.38493 0.0
H1370 H 0.98585 0.57275 0.33151 0.0
H1371 H 0.81021 0.50336 0.5383 0.0
loop_
_geom_bond_atom_site_label_1
_geom_bond_atom_site_label_2
_geom_bond_distance
_geom_bond_site_symmetry_2
_ccdc_geom_bond_type
O0 Cd1 2.300 . S
O0 C7 1.275 . S
Cd1 O0 2.300 . S
Cd1 O9 2.381 . S
Cd1 O10 2.378 . S
O2 Cd3 2.385 . S
O2 C7 1.255 . S
Cd3 O2 2.385 . S
Cd3 O4 2.317 . S
O4 Cd3 2.317 . S
O4 C5 1.232 . S
C5 O4 1.232 . S
C5 O6 1.218 . S
O6 C5 1.218 . S
C7 O0 1.275 . S
C7 O2 1.255 . S
C8 O9 1.258 . S
C8 O10 1.256 . S
O9 Cd1 2.381 . S
O9 C8 1.258 . S
O10 Cd1 2.378 . S
O10 C8 1.256 . S
O11 Cd12 2.300 . S
O11 C18 1.275 . S
Cd12 O11 2.300 . S
Cd12 O20 2.381 . S
Cd12 O21 2.378 . S
O13 Cd14 2.385 1_655 S
O13 C18 1.255 . S
Cd14 O13 2.385 1_455 S
Cd14 O15 2.317 1_455 S
O15 Cd14 2.317 1_655 S
O15 C16 1.232 . S
C16 O15 1.232 . S
C16 O17 1.218 . S
O17 C16 1.218 . S
C18 O11 1.275 . S
C18 O13 1.255 . S
C19 O20 1.258 . S
C19 O21 1.256 . S
O20 Cd12 2.381 . S
O20 C19 1.258 . S
O21 Cd12 2.378 . S
O21 C19 1.256 . S
O22 Cd23 2.300 . S
O22 C29 1.275 . S
Cd23 O22 2.300 . S
Cd23 O31 2.381 . S
Cd23 O32 2.378 . S
O24 Cd25 2.385 1_565 S
O24 C29 1.255 . S
Cd25 O24 2.385 1_545 S
Cd25 O26 2.317 1_545 S
O26 Cd25 2.317 1_565 S
O26 C27 1.232 . S
C27 O26 1.232 . S
C27 O28 1.218 . S
O28 C27 1.218 . S
C29 O22 1.275 . S
C29 O24 1.255 . S
C30 O31 1.258 . S
C30 O32 1.256 . S
O31 Cd23 2.381 . S
O31 C30 1.258 . S
O32 Cd23 2.378 . S
O32 C30 1.256 . S
O33 Cd34 2.300 . S
O33 C40 1.275 . S
Cd34 O33 2.300 . S
Cd34 O42 2.381 . S
Cd34 O43 2.378 . S
O35 Cd36 2.385 . S
O35 C40 1.255 . S
Cd36 O35 2.385 . S
Cd36 O37 2.317 . S
O37 Cd36 2.317 . S
O37 C38 1.232 . S
C38 O37 1.232 . S
C38 O39 1.218 . S
O39 C38 1.218 . S
C40 O33 1.275 . S
C40 O35 1.255 . S
C41 O42 1.258 . S
C41 O43 1.256 . S
O42 Cd34 2.381 . S
O42 C41 1.258 . S
O43 Cd34 2.378 . S
O43 C41 1.256 . S
O44 Cd45 2.300 . S
O44 C51 1.275 . S
Cd45 O44 2.300 . S
Cd45 O53 2.381 . S
Cd45 O54 2.378 . S
O46 Cd47 2.385 . S
O46 C51 1.255 . S
Cd47 O46 2.385 . S
Cd47 O48 2.317 . S
O48 Cd47 2.317 . S
O48 C49 1.232 . S
C49 O48 1.232 . S
C49 O50 1.218 . S
O50 C49 1.218 . S
C51 O44 1.275 . S
C51 O46 1.255 . S
C52 O53 1.258 . S
C52 O54 1.256 . S
O53 Cd45 2.381 . S
O53 C52 1.258 . S
O54 Cd45 2.378 . S
O54 C52 1.256 . S
O55 Cd56 2.300 . S
O55 C62 1.275 . S
Cd56 O55 2.300 . S
Cd56 O64 2.381 . S
Cd56 O65 2.378 . S
O57 Cd58 2.385 . S
O57 C62 1.255 . S
Cd58 O57 2.385 . S
Cd58 O59 2.317 . S
O59 Cd58 2.317 . S
O59 C60 1.232 . S
C60 O59 1.232 . S
C60 O61 1.218 . S
O61 C60 1.218 . S
C62 O55 1.275 . S
C62 O57 1.255 . S
C63 O64 1.258 . S
C63 O65 1.256 . S
O64 Cd56 2.381 . S
O64 C63 1.258 . S
O65 Cd56 2.378 . S
O65 C63 1.256 . S
O66 Cd67 2.300 . S
O66 C73 1.275 . S
Cd67 O66 2.300 . S
Cd67 O75 2.381 . S
Cd67 O76 2.378 . S
O68 Cd69 2.385 . S
O68 C73 1.255 . S
Cd69 O68 2.385 . S
Cd69 O70 2.317 . S
O70 Cd69 2.317 . S
O70 C71 1.232 . S
C71 O70 1.232 . S
C71 O72 1.218 . S
O72 C71 1.218 . S
C73 O66 1.275 . S
C73 O68 1.255 . S
C74 O75 1.258 . S
C74 O76 1.256 . S
O75 Cd67 2.381 . S
O75 C74 1.258 . S
O76 Cd67 2.378 . S
O76 C74 1.256 . S
O77 Cd78 2.300 . S
O77 C84 1.275 . S
Cd78 O77 2.300 . S
Cd78 O86 2.381 . S
Cd78 O87 2.378 . S
O79 Cd80 2.385 . S
O79 C84 1.255 . S
Cd80 O79 2.385 . S
Cd80 O81 2.317 . S
O81 Cd80 2.317 . S
O81 C82 1.232 . S
C82 O81 1.232 . S
C82 O83 1.218 . S
O83 C82 1.218 . S
C84 O77 1.275 . S
C84 O79 1.255 . S
C85 O86 1.258 . S
C85 O87 1.256 . S
O86 Cd78 2.381 . S
O86 C85 1.258 . S
O87 Cd78 2.378 . S
O87 C85 1.256 . S
O88 Mn89 2.163 . S
O88 C102 1.244 . S
Mn89 O88 2.163 . S
Mn89 O92 2.142 1_445 S
Mn89 O93 2.221 . S
Mn89 O95 2.163 1_545 S
Mn89 O97 2.160 . S
Mn89 O107 2.221 1_455 S
O90 Mn91 2.075 1_455 S
O90 C102 1.271 . S
Mn91 O90 2.075 1_655 S
Mn91 O98 2.089 . S
Mn91 O107 2.290 . S
Mn91 O108 2.251 . S
O92 Mn89 2.142 1_665 S
O92 C103 1.231 1_655 S
O93 Mn89 2.221 . S
O93 Mn94 2.290 1_545 S
O93 C104 1.278 . S
Mn94 O93 2.290 1_565 S
Mn94 O96 2.089 . S
Mn94 O99 2.251 . S
Mn94 O100 2.087 . S
O95 Mn89 2.163 1_565 S
O95 C105 1.244 . S
O96 Mn94 2.089 . S
O96 C103 1.256 . S
O97 Mn89 2.160 . S
O97 C106 1.239 . S
O98 Mn91 2.089 . S
O98 C106 1.256 1_655 S
O99 Mn94 2.251 . S
O99 C104 1.241 1_565 S
O100 Mn94 2.087 . S
O100 C105 1.256 . S
C101 O107 1.278 . S
C101 O108 1.241 . S
C102 O88 1.244 . S
C102 O90 1.271 . S
C103 O92 1.231 1_455 S
C103 O96 1.256 . S
C104 O93 1.278 . S
C104 O99 1.241 1_545 S
C105 O95 1.244 . S
C105 O100 1.256 . S
C106 O97 1.239 . S
C106 O98 1.256 1_455 S
O107 Mn89 2.221 1_655 S
O107 Mn91 2.290 . S
O107 C101 1.278 . S
O108 Mn91 2.251 . S
O108 C101 1.241 . S
O109 Mn110 2.163 . S
O109 C123 1.244 . S
Mn110 O109 2.163 . S
Mn110 O113 2.160 . S
Mn110 O114 2.221 1_545 S
Mn110 O116 2.163 . S
Mn110 O118 2.160 1_545 S
Mn110 O128 2.221 . S
O111 Mn112 2.087 . S
O111 C123 1.256 . S
Mn112 O111 2.087 . S
Mn112 O119 2.089 . S
Mn112 O128 2.290 . S
Mn112 O129 2.251 . S
O113 Mn110 2.160 . S
O113 C124 1.239 . S
O114 Mn110 2.221 1_565 S
O114 Mn115 2.290 . S
O114 C125 1.278 . S
Mn115 O114 2.290 . S
Mn115 O117 2.089 . S
Mn115 O120 2.251 . S
Mn115 O121 2.104 . S
O116 Mn110 2.163 . S
O116 C126 1.244 . S
O117 Mn115 2.089 . S
O117 C124 1.256 1_565 S
O118 Mn110 2.160 1_565 S
O118 C127 1.239 1_565 S
O119 Mn112 2.089 . S
O119 C127 1.256 . S
O120 Mn115 2.251 . S
O120 C125 1.241 . S
O121 Mn115 2.104 . S
O121 C126 1.235 1_565 S
C122 O128 1.278 . S
C122 O129 1.241 . S
C123 O109 1.244 . S
C123 O111 1.256 . S
C124 O113 1.239 . S
C124 O117 1.256 1_545 S
C125 O114 1.278 . S
C125 O120 1.241 . S
C126 O116 1.244 . S
C126 O121 1.235 1_545 S
C127 O118 1.239 1_545 S
C127 O119 1.256 . S
O128 Mn110 2.221 . S
O128 Mn112 2.290 . S
O128 C122 1.278 . S
O129 Mn112 2.251 . S
O129 C122 1.241 . S
O130 Mn131 2.163 . S
O130 C144 1.244 . S
Mn131 O130 2.163 . S
Mn131 O134 2.160 . S
Mn131 O135 2.221 . S
Mn131 O137 2.163 . S
Mn131 O139 2.160 . S
Mn131 O149 2.221 . S
O132 Mn133 2.087 . S
O132 C144 1.256 . S
Mn133 O132 2.087 . S
Mn133 O140 2.089 . S
Mn133 O149 2.290 . S
Mn133 O150 2.251 . S
O134 Mn131 2.160 . S
O134 C145 1.239 . S
O135 Mn131 2.221 . S
O135 Mn136 2.290 . S
O135 C146 1.278 . S
Mn136 O135 2.290 . S
Mn136 O138 2.089 . S
Mn136 O141 2.251 . S
Mn136 O142 2.087 . S
O137 Mn131 2.163 . S
O137 C147 1.244 . S
O138 Mn136 2.089 . S
O138 C145 1.256 . S
O139 Mn131 2.160 . S
O139 C148 1.239 . S
O140 Mn133 2.089 . S
O140 C148 1.256 . S
O141 Mn136 2.251 . S
O141 C146 1.241 . S
O142 Mn136 2.087 . S
O142 C147 1.256 . S
C143 O149 1.278 . S
C143 O150 1.241 . S
C144 O130 1.244 . S
C144 O132 1.256 . S
C145 O134 1.239 . S
C145 O138 1.256 . S
C146 O135 1.278 . S
C146 O141 1.241 . S
C147 O137 1.244 . S
C147 O142 1.256 . S
C148 O139 1.239 . S
C148 O140 1.256 . S
O149 Mn131 2.221 . S
O149 Mn133 2.290 . S
O149 C143 1.278 . S
O150 Mn133 2.251 . S
O150 C143 1.241 . S
O151 Mn152 2.163 . S
O151 C165 1.244 . S
Mn152 O151 2.163 . S
Mn152 O155 2.160 1_455 S
Mn152 O156 2.221 . S
Mn152 O158 2.163 1_455 S
Mn152 O160 2.160 . S
Mn152 O170 2.221 . S
O153 Mn154 2.087 . S
O153 C165 1.256 . S
Mn154 O153 2.087 . S
Mn154 O161 2.089 . S
Mn154 O170 2.290 . S
Mn154 O171 2.251 . S
O155 Mn152 2.160 1_655 S
O155 C166 1.239 . S
O156 Mn152 2.221 . S
O156 Mn157 2.290 1_455 S
O156 C167 1.278 . S
Mn157 O156 2.290 1_655 S
Mn157 O159 2.089 . S
Mn157 O162 2.251 . S
Mn157 O163 2.087 . S
O158 Mn152 2.163 1_655 S
O158 C168 1.244 . S
O159 Mn157 2.089 . S
O159 C166 1.256 . S
O160 Mn152 2.160 . S
O160 C169 1.239 . S
O161 Mn154 2.089 . S
O161 C169 1.256 . S
O162 Mn157 2.251 . S
O162 C167 1.241 1_655 S
O163 Mn157 2.087 . S
O163 C168 1.256 . S
C164 O170 1.278 . S
C164 O171 1.241 . S
C165 O151 1.244 . S
C165 O153 1.256 . S
C166 O155 1.239 . S
C166 O159 1.256 . S
C167 O156 1.278 . S
C167 O162 1.241 1_455 S
C168 O158 1.244 . S
C168 O163 1.256 . S
C169 O160 1.239 . S
C169 O161 1.256 . S
O170 Mn152 2.221 . S
O170 Mn154 2.290 . S
O170 C164 1.278 . S
O171 Mn154 2.251 . S
O171 C164 1.241 . S
H172 C190 0.951 . S
H173 C192 0.951 . S
H174 C194 0.950 . S
H175 C195 0.950 . S
H176 C197 0.950 . S
H177 C200 0.962 . S
H178 C201 0.950 . S
H179 C203 0.950 . S
H180 C204 0.950 1_545 S
H181 C205 0.951 . S
H182 C207 0.951 . S
H183 C209 0.950 . S
H184 C210 0.950 . S
H185 C212 0.950 . S
H186 C215 0.950 . S
H187 C216 0.950 . S
H188 C218 0.950 . S
H189 C219 0.950 . S
C190 H172 0.951 . S
C190 C191 1.366 . S
C190 C192 1.388 . S
C191 C190 1.366 . S
C191 C195 1.385 . S
C192 H173 0.951 . S
C192 C190 1.388 . S
C192 C193 1.366 . S
C193 C192 1.366 . S
C193 C194 1.414 . S
C193 C196 1.499 . S
C194 H174 0.950 . S
C194 C193 1.414 . S
C194 C195 1.374 . S
C195 H175 0.950 . S
C195 C191 1.385 . S
C195 C194 1.374 . S
C196 C193 1.499 . S
C196 C197 1.373 . S
C196 C198 1.389 . S
C197 H176 0.950 . S
C197 C196 1.373 . S
C197 C213 1.377 . S
C198 C196 1.389 . S
C198 C199 1.524 . S
C198 C212 1.377 . S
C199 C198 1.524 . S
C199 C200 1.397 1_545 S
C199 C204 1.363 1_545 S
C200 H177 0.962 . S
C200 C199 1.397 1_565 S
C200 C201 1.334 . S
C201 H178 0.950 . S
C201 C200 1.334 . S
C201 C202 1.287 . S
C202 C201 1.287 . S
C202 C203 1.524 . S
C202 H221 0.913 . S
C203 H179 0.950 . S
C203 C202 1.524 . S
C203 C204 1.415 . S
C204 H180 0.950 1_565 S
C204 C199 1.363 1_565 S
C204 C203 1.415 . S
C205 H181 0.951 . S
C205 C206 1.366 . S
C205 C207 1.388 . S
C206 C205 1.366 . S
C206 C210 1.385 . S
C207 H182 0.951 . S
C207 C205 1.388 . S
C207 C208 1.366 . S
C208 C207 1.366 . S
C208 C209 1.414 . S
C208 C211 1.499 . S
C209 H183 0.950 . S
C209 C208 1.414 . S
C209 C210 1.374 . S
C210 H184 0.950 . S
C210 C206 1.385 . S
C210 C209 1.374 . S
C211 C208 1.499 . S
C211 C212 1.373 . S
C211 C213 1.389 . S
C212 H185 0.950 . S
C212 C198 1.377 . S
C212 C211 1.373 . S
C213 C197 1.377 . S
C213 C211 1.389 . S
C213 C214 1.524 . S
C214 C213 1.524 . S
C214 C215 1.397 . S
C214 C219 1.363 . S
C215 H186 0.950 . S
C215 C214 1.397 . S
C215 C216 1.334 . S
C216 H187 0.950 . S
C216 C215 1.334 . S
C216 C217 1.287 . S
C217 C216 1.287 . S
C217 C218 1.524 . S
C217 H220 0.999 . S
C218 H188 0.950 . S
C218 C217 1.524 . S
C218 C219 1.415 . S
C219 H189 0.950 . S
C219 C214 1.363 . S
C219 C218 1.415 . S
H220 C217 0.999 . S
H221 C202 0.913 . S
H222 C240 0.951 . S
H223 C242 0.951 . S
H224 C244 0.950 . S
H225 C245 0.950 . S
H226 C247 0.950 . S
H227 C250 0.950 . S
H228 C251 0.950 . S
H229 C253 0.950 . S
H230 C254 0.950 . S
H231 C255 0.951 . S
H232 C257 0.951 . S
H233 C259 0.950 . S
H234 C260 0.950 . S
H235 C262 0.950 . S
H236 C265 0.950 . S
H237 C266 0.950 . S
H238 C268 0.950 . S
H239 C269 0.950 . S
C240 H222 0.951 . S
C240 C241 1.366 . S
C240 C242 1.388 . S
C241 C240 1.366 . S
C241 C245 1.385 . S
C242 H223 0.951 . S
C242 C240 1.388 . S
C242 C243 1.366 . S
C243 C242 1.366 . S
C243 C244 1.414 . S
C243 C246 1.499 . S
C244 H224 0.950 . S
C244 C243 1.414 . S
C244 C245 1.374 . S
C245 H225 0.950 . S
C245 C241 1.385 . S
C245 C244 1.374 . S
C246 C243 1.499 . S
C246 C247 1.373 . S
C246 C248 1.389 . S
C247 H226 0.950 . S
C247 C246 1.373 . S
C247 C263 1.377 . S
C248 C246 1.389 . S
C248 C249 1.524 . S
C248 C262 1.377 . S
C249 C248 1.524 . S
C249 C250 1.397 . S
C249 C254 1.363 . S
C250 H227 0.950 . S
C250 C249 1.397 . S
C250 C251 1.334 . S
C251 H228 0.950 . S
C251 C250 1.334 . S
C251 C252 1.287 . S
C252 C251 1.287 . S
C252 C253 1.524 . S
C252 H271 0.913 . S
C253 H229 0.950 . S
C253 C252 1.524 . S
C253 C254 1.415 . S
C254 H230 0.950 . S
C254 C249 1.363 . S
C254 C253 1.415 . S
C255 H231 0.951 . S
C255 C256 1.366 . S
C255 C257 1.388 . S
C256 C255 1.366 . S
C256 C260 1.385 . S
C257 H232 0.951 . S
C257 C255 1.388 . S
C257 C258 1.366 . S
C258 C257 1.366 . S
C258 C259 1.414 . S
C258 C261 1.499 . S
C259 H233 0.950 . S
C259 C258 1.414 . S
C259 C260 1.374 . S
C260 H234 0.950 . S
C260 C256 1.385 . S
C260 C259 1.374 . S
C261 C258 1.499 . S
C261 C262 1.373 . S
C261 C263 1.389 . S
C262 H235 0.950 . S
C262 C248 1.377 . S
C262 C261 1.373 . S
C263 C247 1.377 . S
C263 C261 1.389 . S
C263 C264 1.524 . S
C264 C263 1.524 . S
C264 C265 1.397 . S
C264 C269 1.363 . S
C265 H236 0.950 . S
C265 C264 1.397 . S
C265 C266 1.334 . S
C266 H237 0.950 . S
C266 C265 1.334 . S
C266 C267 1.287 . S
C267 C266 1.287 . S
C267 C268 1.524 . S
C267 H270 0.999 . S
C268 H238 0.950 . S
C268 C267 1.524 . S
C268 C269 1.415 . S
C269 H239 0.950 . S
C269 C264 1.363 . S
C269 C268 1.415 . S
H270 C267 0.999 . S
H271 C252 0.913 . S
H272 C290 0.951 . S
H273 C292 0.951 . S
H274 C294 0.950 . S
H275 C295 0.950 . S
H276 C297 0.950 . S
H277 C300 0.950 . S
H278 C301 0.950 . S
H279 C303 0.950 . S
H280 C304 0.950 . S
H281 C305 0.951 . S
H282 C307 0.951 . S
H283 C309 0.950 . S
H284 C310 0.950 . S
H285 C312 0.950 . S
H286 C315 0.950 . S
H287 C316 0.950 . S
H288 C318 0.950 . S
H289 C319 0.950 . S
C290 H272 0.951 . S
C290 C291 1.366 . S
C290 C292 1.388 . S
C291 C290 1.366 . S
C291 C295 1.385 . S
C292 H273 0.951 . S
C292 C290 1.388 . S
C292 C293 1.366 . S
C293 C292 1.366 . S
C293 C294 1.414 . S
C293 C296 1.499 . S
C294 H274 0.950 . S
C294 C293 1.414 . S
C294 C295 1.374 . S
C295 H275 0.950 . S
C295 C291 1.385 . S
C295 C294 1.374 . S
C296 C293 1.499 . S
C296 C297 1.373 . S
C296 C298 1.389 . S
C297 H276 0.950 . S
C297 C296 1.373 . S
C297 C313 1.377 . S
C298 C296 1.389 . S
C298 C299 1.524 . S
C298 C312 1.377 . S
C299 C298 1.524 . S
C299 C300 1.397 . S
C299 C304 1.363 . S
C300 H277 0.950 . S
C300 C299 1.397 . S
C300 C301 1.334 . S
C301 H278 0.950 . S
C301 C300 1.334 . S
C301 C302 1.287 . S
C302 C301 1.287 . S
C302 C303 1.524 . S
C302 H321 0.913 . S
C303 H279 0.950 . S
C303 C302 1.524 . S
C303 C304 1.415 . S
C304 H280 0.950 . S
C304 C299 1.363 . S
C304 C303 1.415 . S
C305 H281 0.951 . S
C305 C306 1.366 . S
C305 C307 1.388 . S
C306 C305 1.366 . S
C306 C310 1.385 . S
C307 H282 0.951 . S
C307 C305 1.388 . S
C307 C308 1.366 . S
C308 C307 1.366 . S
C308 C309 1.414 . S
C308 C311 1.499 . S
C309 H283 0.950 . S
C309 C308 1.414 . S
C309 C310 1.374 . S
C310 H284 0.950 . S
C310 C306 1.385 . S
C310 C309 1.374 . S
C311 C308 1.499 . S
C311 C312 1.373 . S
C311 C313 1.389 . S
C312 H285 0.950 . S
C312 C298 1.377 . S
C312 C311 1.373 . S
C313 C297 1.377 . S
C313 C311 1.389 . S
C313 C314 1.524 . S
C314 C313 1.524 . S
C314 C315 1.397 . S
C314 C319 1.363 . S
C315 H286 0.950 . S
C315 C314 1.397 . S
C315 C316 1.334 . S
C316 H287 0.950 . S
C316 C315 1.334 . S
C316 C317 1.287 . S
C317 C316 1.287 . S
C317 C318 1.524 . S
C317 H320 0.999 . S
C318 H288 0.950 . S
C318 C317 1.524 . S
C318 C319 1.415 . S
C319 H289 0.950 . S
C319 C314 1.363 . S
C319 C318 1.415 . S
H320 C317 0.999 . S
H321 C302 0.913 . S
H322 C340 0.951 . S
H323 C342 0.951 . S
H324 C344 0.950 . S
H325 C345 0.950 . S
H326 C347 0.950 . S
H327 C350 0.950 . S
H328 C351 0.950 . S
H329 C353 0.950 . S
H330 C354 0.950 . S
H331 C355 0.951 1_655 S
H332 C357 0.951 1_655 S
H333 C359 0.950 . S
H334 C360 0.950 . S
H335 C362 0.950 . S
H336 C365 0.950 . S
H337 C366 0.950 . S
H338 C368 0.950 . S
H339 C369 0.938 1_655 S
C340 H322 0.951 . S
C340 C341 1.366 . S
C340 C342 1.388 . S
C341 C340 1.366 . S
C341 C345 1.385 . S
C342 H323 0.951 . S
C342 C340 1.388 . S
C342 C343 1.366 . S
C343 C342 1.366 . S
C343 C344 1.414 . S
C343 C346 1.499 . S
C344 H324 0.950 . S
C344 C343 1.414 . S
C344 C345 1.374 . S
C345 H325 0.950 . S
C345 C341 1.385 . S
C345 C344 1.374 . S
C346 C343 1.499 . S
C346 C347 1.373 . S
C346 C348 1.389 . S
C347 H326 0.950 . S
C347 C346 1.373 . S
C347 C363 1.377 . S
C348 C346 1.389 . S
C348 C349 1.524 . S
C348 C362 1.377 . S
C349 C348 1.524 . S
C349 C350 1.397 . S
C349 C354 1.363 . S
C350 H327 0.950 . S
C350 C349 1.397 . S
C350 C351 1.334 . S
C351 H328 0.950 . S
C351 C350 1.334 . S
C351 C352 1.287 . S
C352 C351 1.287 . S
C352 C353 1.524 . S
C352 H371 0.913 . S
C353 H329 0.950 . S
C353 C352 1.524 . S
C353 C354 1.415 . S
C354 H330 0.950 . S
C354 C349 1.363 . S
C354 C353 1.415 . S
C355 H331 0.951 1_455 S
C355 C356 1.366 . S
C355 C357 1.388 . S
C356 C355 1.366 . S
C356 C360 1.385 . S
C357 H332 0.951 1_455 S
C357 C355 1.388 . S
C357 C358 1.366 . S
C358 C357 1.366 . S
C358 C359 1.414 . S
C358 C361 1.499 . S
C359 H333 0.950 . S
C359 C358 1.414 . S
C359 C360 1.374 . S
C360 H334 0.950 . S
C360 C356 1.385 . S
C360 C359 1.374 . S
C361 C358 1.499 . S
C361 C362 1.373 . S
C361 C363 1.389 . S
C362 H335 0.950 . S
C362 C348 1.377 . S
C362 C361 1.373 . S
C363 C347 1.377 . S
C363 C361 1.389 . S
C363 C364 1.524 . S
C364 C363 1.524 . S
C364 C365 1.397 . S
C364 C369 1.384 . S
C365 H336 0.950 . S
C365 C364 1.397 . S
C365 C366 1.334 . S
C366 H337 0.950 . S
C366 C365 1.334 . S
C366 C367 1.287 . S
C367 C366 1.287 . S
C367 C368 1.524 1_455 S
C367 H370 0.999 . S
C368 H338 0.950 . S
C368 C367 1.524 1_655 S
C368 C369 1.406 1_655 S
C369 H339 0.938 1_455 S
C369 C364 1.384 . S
C369 C368 1.406 1_455 S
H370 C367 0.999 . S
H371 C352 0.913 . S
H372 C390 0.951 . S
H373 C392 0.951 . S
H374 C394 0.950 1_545 S
H375 C395 0.973 . S
H376 C397 0.950 . S
H377 C400 0.950 . S
H378 C401 0.950 . S
H379 C403 0.950 . S
H380 C404 0.950 1_556 S
H381 C405 0.951 . S
H382 C407 0.951 . S
H383 C409 0.950 . S
H384 C410 0.950 . S
H385 C412 0.950 . S
H386 C415 0.950 . S
H387 C416 0.950 1_565 S
H388 C418 0.950 . S
H389 C419 0.950 . S
C390 H372 0.951 . S
C390 C391 1.366 . S
C390 C392 1.388 1_554 S
C391 C390 1.366 . S
C391 C395 1.385 . S
C392 H373 0.951 . S
C392 C390 1.388 1_556 S
C392 C393 1.366 . S
C393 C392 1.366 . S
C393 C394 1.414 . S
C393 C396 1.499 . S
C394 H374 0.950 1_565 S
C394 C393 1.414 . S
C394 C395 1.374 1_556 S
C395 H375 0.973 . S
C395 C391 1.385 . S
C395 C394 1.374 1_554 S
C396 C393 1.499 . S
C396 C397 1.373 . S
C396 C398 1.389 . S
C397 H376 0.950 . S
C397 C396 1.373 . S
C397 C413 1.377 . S
C398 C396 1.389 . S
C398 C399 1.524 1_556 S
C398 C412 1.377 . S
C399 C398 1.524 1_554 S
C399 C400 1.397 . S
C399 C404 1.363 . S
C400 H377 0.950 . S
C400 C399 1.397 . S
C400 C401 1.334 . S
C401 H378 0.950 . S
C401 C400 1.334 . S
C401 C402 1.287 . S
C402 C401 1.287 . S
C402 C403 1.524 . S
C402 H421 0.913 . S
C403 H379 0.950 . S
C403 C402 1.524 . S
C403 C404 1.415 . S
C404 H380 0.950 1_554 S
C404 C399 1.363 . S
C404 C403 1.415 . S
C405 H381 0.951 . S
C405 C406 1.366 . S
C405 C407 1.388 . S
C406 C405 1.366 . S
C406 C410 1.385 1_545 S
C407 H382 0.951 . S
C407 C405 1.388 . S
C407 C408 1.366 1_545 S
C408 C407 1.366 1_565 S
C408 C409 1.414 . S
C408 C411 1.499 . S
C409 H383 0.950 . S
C409 C408 1.414 . S
C409 C410 1.374 . S
C410 H384 0.950 . S
C410 C406 1.385 1_565 S
C410 C409 1.374 . S
C411 C408 1.499 . S
C411 C412 1.373 . S
C411 C413 1.389 . S
C412 H385 0.950 . S
C412 C398 1.377 . S
C412 C411 1.373 . S
C413 C397 1.377 . S
C413 C411 1.389 . S
C413 C414 1.524 1_565 S
C414 C413 1.524 1_545 S
C414 C415 1.397 1_545 S
C414 C419 1.363 . S
C415 H386 0.950 . S
C415 C414 1.397 1_565 S
C415 C416 1.334 1_565 S
C416 H387 0.950 1_545 S
C416 C415 1.334 1_545 S
C416 C417 1.287 . S
C417 C416 1.287 . S
C417 C418 1.524 . S
C417 H420 0.999 . S
C418 H388 0.950 . S
C418 C417 1.524 . S
C418 C419 1.415 . S
C419 H389 0.950 . S
C419 C414 1.363 . S
C419 C418 1.415 . S
H420 C417 0.999 . S
H421 C402 0.913 . S
H422 C440 0.951 . S
H423 C442 0.951 . S
H424 C444 0.950 . S
H425 C445 0.950 . S
H426 C447 0.950 . S
H427 C450 0.950 . S
H428 C451 0.950 . S
H429 C453 0.950 . S
H430 C454 0.950 . S
H431 C455 0.951 . S
H432 C457 0.951 . S
H433 C459 0.950 . S
H434 C460 0.950 . S
H435 C462 0.950 . S
H436 C465 0.950 . S
H437 C466 0.950 . S
H438 C468 0.950 . S
H439 C469 0.950 . S
C440 H422 0.951 . S
C440 C441 1.366 . S
C440 C442 1.388 1_554 S
C441 C440 1.366 . S
C441 C445 1.385 1_554 S
C442 H423 0.951 . S
C442 C440 1.388 1_556 S
C442 C443 1.366 . S
C443 C442 1.366 . S
C443 C444 1.414 . S
C443 C446 1.499 . S
C444 H424 0.950 . S
C444 C443 1.414 . S
C444 C445 1.374 . S
C445 H425 0.950 . S
C445 C441 1.385 1_556 S
C445 C444 1.374 . S
C446 C443 1.499 . S
C446 C447 1.373 . S
C446 C448 1.389 . S
C447 H426 0.950 . S
C447 C446 1.373 . S
C447 C463 1.377 . S
C448 C446 1.389 . S
C448 C449 1.524 1_556 S
C448 C462 1.377 . S
C449 C448 1.524 1_554 S
C449 C450 1.397 . S
C449 C454 1.363 . S
C450 H427 0.950 . S
C450 C449 1.397 . S
C450 C451 1.334 . S
C451 H428 0.950 . S
C451 C450 1.334 . S
C451 C452 1.287 . S
C452 C451 1.287 . S
C452 C453 1.524 . S
C452 H471 0.913 . S
C453 H429 0.950 . S
C453 C452 1.524 . S
C453 C454 1.415 . S
C454 H430 0.950 . S
C454 C449 1.363 . S
C454 C453 1.415 . S
C455 H431 0.951 . S
C455 C456 1.366 . S
C455 C457 1.388 . S
C456 C455 1.366 . S
C456 C460 1.385 . S
C457 H432 0.951 . S
C457 C455 1.388 . S
C457 C458 1.366 . S
C458 C457 1.366 . S
C458 C459 1.414 . S
C458 C461 1.499 . S
C459 H433 0.950 . S
C459 C458 1.414 . S
C459 C460 1.374 . S
C460 H434 0.950 . S
C460 C456 1.385 . S
C460 C459 1.374 . S
C461 C458 1.499 . S
C461 C462 1.373 . S
C461 C463 1.389 . S
C462 H435 0.950 . S
C462 C448 1.377 . S
C462 C461 1.373 . S
C463 C447 1.377 . S
C463 C461 1.389 . S
C463 C464 1.524 . S
C464 C463 1.524 . S
C464 C465 1.397 . S
C464 C469 1.363 . S
C465 H436 0.950 . S
C465 C464 1.397 . S
C465 C466 1.334 . S
C466 H437 0.950 . S
C466 C465 1.334 . S
C466 C467 1.287 . S
C467 C466 1.287 . S
C467 C468 1.524 . S
C467 H470 0.999 . S
C468 H438 0.950 . S
C468 C467 1.524 . S
C468 C469 1.415 . S
C469 H439 0.950 . S
C469 C464 1.363 . S
C469 C468 1.415 . S
H470 C467 0.999 . S
H471 C452 0.913 . S
H472 C490 0.951 . S
H473 C492 0.951 . S
H474 C494 0.950 . S
H475 C495 0.950 . S
H476 C497 0.950 . S
H477 C500 0.950 . S
H478 C501 0.950 . S
H479 C503 0.950 . S
H480 C504 0.950 . S
H481 C505 0.951 . S
H482 C507 0.951 . S
H483 C509 0.950 . S
H484 C510 0.950 . S
H485 C512 0.950 . S
H486 C515 0.950 . S
H487 C516 0.950 . S
H488 C518 0.950 . S
H489 C519 0.950 1_554 S
C490 H472 0.951 . S
C490 C491 1.366 1_556 S
C490 C492 1.388 . S
C491 C490 1.366 1_554 S
C491 C495 1.385 . S
C492 H473 0.951 . S
C492 C490 1.388 . S
C492 C493 1.366 . S
C493 C492 1.366 . S
C493 C494 1.414 1_556 S
C493 C496 1.499 . S
C494 H474 0.950 . S
C494 C493 1.414 1_554 S
C494 C495 1.374 . S
C495 H475 0.950 . S
C495 C491 1.385 . S
C495 C494 1.374 . S
C496 C493 1.499 . S
C496 C497 1.373 . S
C496 C498 1.389 . S
C497 H476 0.950 . S
C497 C496 1.373 . S
C497 C513 1.377 . S
C498 C496 1.389 . S
C498 C499 1.524 . S
C498 C512 1.377 . S
C499 C498 1.524 . S
C499 C500 1.397 . S
C499 C504 1.363 . S
C500 H477 0.950 . S
C500 C499 1.397 . S
C500 C501 1.334 . S
C501 H478 0.950 . S
C501 C500 1.334 . S
C501 C502 1.287 . S
C502 C501 1.287 . S
C502 C503 1.524 . S
C502 H521 0.913 . S
C503 H479 0.950 . S
C503 C502 1.524 . S
C503 C504 1.415 . S
C504 H480 0.950 . S
C504 C499 1.363 . S
C504 C503 1.415 . S
C505 H481 0.951 . S
C505 C506 1.366 . S
C505 C507 1.388 . S
C506 C505 1.366 . S
C506 C510 1.385 . S
C507 H482 0.951 . S
C507 C505 1.388 . S
C507 C508 1.366 . S
C508 C507 1.366 . S
C508 C509 1.414 . S
C508 C511 1.499 . S
C509 H483 0.950 . S
C509 C508 1.414 . S
C509 C510 1.374 . S
C510 H484 0.950 . S
C510 C506 1.385 . S
C510 C509 1.374 . S
C511 C508 1.499 . S
C511 C512 1.373 . S
C511 C513 1.389 . S
C512 H485 0.950 . S
C512 C498 1.377 . S
C512 C511 1.373 . S
C513 C497 1.377 . S
C513 C511 1.389 . S
C513 C514 1.524 . S
C514 C513 1.524 . S
C514 C515 1.397 . S
C514 C519 1.363 . S
C515 H486 0.950 . S
C515 C514 1.397 . S
C515 C516 1.334 . S
C516 H487 0.950 . S
C516 C515 1.334 . S
C516 C517 1.287 . S
C517 C516 1.287 . S
C517 C518 1.524 1_556 S
C517 H520 0.999 . S
C518 H488 0.950 . S
C518 C517 1.524 1_554 S
C518 C519 1.415 1_554 S
C519 H489 0.950 1_556 S
C519 C514 1.363 . S
C519 C518 1.415 1_556 S
H520 C517 0.999 . S
H521 C502 0.913 . S
H522 C540 0.951 . S
H523 C542 0.954 . S
H524 C544 0.950 1_455 S
H525 C545 0.950 . S
H526 C547 0.950 . S
H527 C550 0.950 1_455 S
H528 C551 0.950 1_455 S
H529 C553 0.950 . S
H530 C554 0.950 . S
H531 C555 0.951 . S
H532 C557 0.951 . S
H533 C559 0.950 . S
H534 C560 0.950 . S
H535 C562 0.950 . S
H536 C565 0.950 . S
H537 C566 0.950 . S
H538 C568 0.950 . S
H539 C569 0.950 . S
C540 H522 0.951 . S
C540 C541 1.366 . S
C540 C542 1.396 . S
C541 C540 1.366 . S
C541 C545 1.385 1_554 S
C542 H523 0.954 . S
C542 C540 1.396 . S
C542 C543 1.354 1_554 S
C543 C542 1.354 1_556 S
C543 C544 1.414 . S
C543 C546 1.499 . S
C544 H524 0.950 1_655 S
C544 C543 1.414 . S
C544 C545 1.374 . S
C545 H525 0.950 . S
C545 C541 1.385 1_556 S
C545 C544 1.374 . S
C546 C543 1.499 . S
C546 C547 1.373 . S
C546 C548 1.389 . S
C547 H526 0.950 . S
C547 C546 1.373 . S
C547 C563 1.377 . S
C548 C546 1.389 . S
C548 C549 1.524 1_556 S
C548 C562 1.377 . S
C549 C548 1.524 1_554 S
C549 C550 1.397 . S
C549 C554 1.363 . S
C550 H527 0.950 1_655 S
C550 C549 1.397 . S
C550 C551 1.334 . S
C551 H528 0.950 1_655 S
C551 C550 1.334 . S
C551 C552 1.287 . S
C552 C551 1.287 . S
C552 C553 1.524 . S
C552 H571 0.913 . S
C553 H529 0.950 . S
C553 C552 1.524 . S
C553 C554 1.415 . S
C554 H530 0.950 . S
C554 C549 1.363 . S
C554 C553 1.415 . S
C555 H531 0.951 . S
C555 C556 1.366 . S
C555 C557 1.388 . S
C556 C555 1.366 . S
C556 C560 1.385 1_455 S
C557 H532 0.951 . S
C557 C555 1.388 . S
C557 C558 1.366 1_455 S
C558 C557 1.366 1_655 S
C558 C559 1.414 . S
C558 C561 1.499 . S
C559 H533 0.950 . S
C559 C558 1.414 . S
C559 C560 1.374 . S
C560 H534 0.950 . S
C560 C556 1.385 1_655 S
C560 C559 1.374 . S
C561 C558 1.499 . S
C561 C562 1.373 . S
C561 C563 1.389 . S
C562 H535 0.950 . S
C562 C548 1.377 . S
C562 C561 1.373 . S
C563 C547 1.377 . S
C563 C561 1.389 . S
C563 C564 1.524 . S
C564 C563 1.524 . S
C564 C565 1.397 . S
C564 C569 1.363 1_655 S
C565 H536 0.950 . S
C565 C564 1.397 . S
C565 C566 1.334 . S
C566 H537 0.950 . S
C566 C565 1.334 . S
C566 C567 1.287 . S
C567 C566 1.287 . S
C567 C568 1.524 1_655 S
C567 H570 0.999 . S
C568 H538 0.950 . S
C568 C567 1.524 1_455 S
C568 C569 1.415 . S
C569 H539 0.950 . S
C569 C564 1.363 1_455 S
C569 C568 1.415 . S
H570 C567 0.999 . S
H571 C552 0.913 . S
H572 C590 0.951 . S
H573 C592 0.951 . S
H574 C594 0.950 . S
H575 C595 0.950 . S
H576 C597 0.950 . S
H577 C600 0.950 . S
H578 C601 0.950 . S
H579 C603 0.950 . S
H580 C604 0.950 . S
H581 C605 0.951 . S
H582 C607 0.951 . S
H583 C609 0.950 . S
H584 C610 0.950 . S
H585 C612 0.950 . S
H586 C615 0.950 . S
H587 C616 0.950 . S
H588 C618 0.950 . S
H589 C619 0.950 1_455 S
C590 H572 0.951 . S
C590 C591 1.366 . S
C590 C592 1.388 . S
C591 C590 1.366 . S
C591 C595 1.385 . S
C592 H573 0.951 . S
C592 C590 1.388 . S
C592 C593 1.366 . S
C593 C592 1.366 . S
C593 C594 1.414 . S
C593 C596 1.499 . S
C594 H574 0.950 . S
C594 C593 1.414 . S
C594 C595 1.374 . S
C595 H575 0.950 . S
C595 C591 1.385 . S
C595 C594 1.374 . S
C596 C593 1.499 . S
C596 C597 1.373 . S
C596 C598 1.389 . S
C597 H576 0.950 . S
C597 C596 1.373 . S
C597 C613 1.377 . S
C598 C596 1.389 . S
C598 C599 1.524 . S
C598 C612 1.377 . S
C599 C598 1.524 . S
C599 C600 1.397 . S
C599 C604 1.363 . S
C600 H577 0.950 . S
C600 C599 1.397 . S
C600 C601 1.334 . S
C601 H578 0.950 . S
C601 C600 1.334 . S
C601 C602 1.287 . S
C602 C601 1.287 . S
C602 C603 1.524 . S
C602 H621 0.913 . S
C603 H579 0.950 . S
C603 C602 1.524 . S
C603 C604 1.415 . S
C604 H580 0.950 . S
C604 C599 1.363 . S
C604 C603 1.415 . S
C605 H581 0.951 . S
C605 C606 1.366 . S
C605 C607 1.388 . S
C606 C605 1.366 . S
C606 C610 1.385 . S
C607 H582 0.951 . S
C607 C605 1.388 . S
C607 C608 1.366 . S
C608 C607 1.366 . S
C608 C609 1.414 . S
C608 C611 1.499 . S
C609 H583 0.950 . S
C609 C608 1.414 . S
C609 C610 1.374 . S
C610 H584 0.950 . S
C610 C606 1.385 . S
C610 C609 1.374 . S
C611 C608 1.499 . S
C611 C612 1.373 . S
C611 C613 1.389 . S
C612 H585 0.950 . S
C612 C598 1.377 . S
C612 C611 1.373 . S
C613 C597 1.377 . S
C613 C611 1.389 . S
C613 C614 1.524 1_455 S
C614 C613 1.524 1_655 S
C614 C615 1.397 . S
C614 C619 1.363 . S
C615 H586 0.950 . S
C615 C614 1.397 . S
C615 C616 1.334 . S
C616 H587 0.950 . S
C616 C615 1.334 . S
C616 C617 1.287 . S
C617 C616 1.287 . S
C617 C618 1.524 . S
C617 H620 0.999 . S
C618 H588 0.950 . S
C618 C617 1.524 . S
C618 C619 1.415 . S
C619 H589 0.950 1_655 S
C619 C614 1.363 . S
C619 C618 1.415 . S
H620 C617 0.999 . S
H621 C602 0.913 . S
H622 C640 0.951 . S
H623 C642 0.951 . S
H624 C644 0.950 . S
H625 C645 0.950 . S
H626 C647 0.950 . S
H627 C650 0.950 . S
H628 C651 0.950 . S
H629 C653 0.950 . S
H630 C654 0.950 . S
H631 C655 0.951 . S
H632 C657 0.941 1_565 S
H633 C659 0.950 . S
H634 C660 0.950 . S
H635 C662 0.950 . S
H636 C665 0.950 . S
H637 C666 0.950 . S
H638 C668 0.950 1_565 S
H639 C669 0.953 . S
C640 H622 0.951 . S
C640 C641 1.366 . S
C640 C642 1.388 . S
C641 C640 1.366 . S
C641 C645 1.385 . S
C642 H623 0.951 . S
C642 C640 1.388 . S
C642 C643 1.366 . S
C643 C642 1.366 . S
C643 C644 1.414 . S
C643 C646 1.499 . S
C644 H624 0.950 . S
C644 C643 1.414 . S
C644 C645 1.374 . S
C645 H625 0.950 . S
C645 C641 1.385 . S
C645 C644 1.374 . S
C646 C643 1.499 . S
C646 C647 1.373 . S
C646 C648 1.389 . S
C647 H626 0.950 . S
C647 C646 1.373 . S
C647 C663 1.377 . S
C648 C646 1.389 . S
C648 C649 1.524 . S
C648 C662 1.377 . S
C649 C648 1.524 . S
C649 C650 1.397 . S
C649 C654 1.363 . S
C650 H627 0.950 . S
C650 C649 1.397 . S
C650 C651 1.334 . S
C651 H628 0.950 . S
C651 C650 1.334 . S
C651 C652 1.287 . S
C652 C651 1.287 . S
C652 C653 1.524 . S
C652 H671 0.913 . S
C653 H629 0.950 . S
C653 C652 1.524 . S
C653 C654 1.415 . S
C654 H630 0.950 . S
C654 C649 1.363 . S
C654 C653 1.415 . S
C655 H631 0.951 . S
C655 C656 1.366 1_565 S
C655 C657 1.383 1_565 S
C656 C655 1.366 1_545 S
C656 C660 1.385 . S
C657 H632 0.941 1_545 S
C657 C655 1.383 1_545 S
C657 C658 1.380 . S
C658 C657 1.380 . S
C658 C659 1.414 . S
C658 C661 1.499 . S
C659 H633 0.950 . S
C659 C658 1.414 . S
C659 C660 1.374 . S
C660 H634 0.950 . S
C660 C656 1.385 . S
C660 C659 1.374 . S
C661 C658 1.499 . S
C661 C662 1.373 . S
C661 C663 1.389 . S
C662 H635 0.950 . S
C662 C648 1.377 . S
C662 C661 1.373 . S
C663 C647 1.377 . S
C663 C661 1.389 . S
C663 C664 1.524 . S
C664 C663 1.524 . S
C664 C665 1.397 . S
C664 C669 1.363 . S
C665 H636 0.950 . S
C665 C664 1.397 . S
C665 C666 1.334 . S
C666 H637 0.950 . S
C666 C665 1.334 . S
C666 C667 1.287 . S
C667 C666 1.287 . S
C667 C668 1.524 . S
C667 H670 0.999 . S
C668 H638 0.950 1_545 S
C668 C667 1.524 . S
C668 C669 1.415 . S
C669 H639 0.953 . S
C669 C664 1.363 . S
C669 C668 1.415 . S
H670 C667 0.999 . S
H671 C652 0.913 . S
H672 C690 0.951 . S
H673 C692 0.951 . S
H674 C694 0.950 . S
H675 C695 0.950 . S
H676 C697 0.950 . S
H677 C700 0.950 . S
H678 C701 0.950 . S
H679 C703 0.950 . S
H680 C704 0.950 . S
H681 C705 0.951 . S
H682 C707 0.951 . S
H683 C709 0.950 . S
H684 C710 0.950 . S
H685 C712 0.950 . S
H686 C715 0.950 . S
H687 C716 0.950 . S
H688 C718 0.950 . S
H689 C719 0.950 . S
C690 H672 0.951 . S
C690 C691 1.366 . S
C690 C692 1.388 . S
C691 C690 1.366 . S
C691 C695 1.385 . S
C692 H673 0.951 . S
C692 C690 1.388 . S
C692 C693 1.366 . S
C693 C692 1.366 . S
C693 C694 1.414 . S
C693 C696 1.499 . S
C694 H674 0.950 . S
C694 C693 1.414 . S
C694 C695 1.374 . S
C695 H675 0.950 . S
C695 C691 1.385 . S
C695 C694 1.374 . S
C696 C693 1.499 . S
C696 C697 1.373 . S
C696 C698 1.389 . S
C697 H676 0.950 . S
C697 C696 1.373 . S
C697 C713 1.377 . S
C698 C696 1.389 . S
C698 C699 1.524 . S
C698 C712 1.377 . S
C699 C698 1.524 . S
C699 C700 1.397 . S
C699 C704 1.363 . S
C700 H677 0.950 . S
C700 C699 1.397 . S
C700 C701 1.334 . S
C701 H678 0.950 . S
C701 C700 1.334 . S
C701 C702 1.287 . S
C702 C701 1.287 . S
C702 C703 1.524 . S
C702 H721 0.913 . S
C703 H679 0.950 . S
C703 C702 1.524 . S
C703 C704 1.415 . S
C704 H680 0.950 . S
C704 C699 1.363 . S
C704 C703 1.415 . S
C705 H681 0.951 . S
C705 C706 1.366 . S
C705 C707 1.388 . S
C706 C705 1.366 . S
C706 C710 1.385 . S
C707 H682 0.951 . S
C707 C705 1.388 . S
C707 C708 1.366 . S
C708 C707 1.366 . S
C708 C709 1.414 . S
C708 C711 1.499 . S
C709 H683 0.950 . S
C709 C708 1.414 . S
C709 C710 1.374 . S
C710 H684 0.950 . S
C710 C706 1.385 . S
C710 C709 1.374 . S
C711 C708 1.499 . S
C711 C712 1.373 . S
C711 C713 1.389 . S
C712 H685 0.950 . S
C712 C698 1.377 . S
C712 C711 1.373 . S
C713 C697 1.377 . S
C713 C711 1.389 . S
C713 C714 1.524 . S
C714 C713 1.524 . S
C714 C715 1.397 . S
C714 C719 1.363 . S
C715 H686 0.950 . S
C715 C714 1.397 . S
C715 C716 1.334 . S
C716 H687 0.950 . S
C716 C715 1.334 . S
C716 C717 1.287 . S
C717 C716 1.287 . S
C717 C718 1.524 . S
C717 H720 0.999 . S
C718 H688 0.950 . S
C718 C717 1.524 . S
C718 C719 1.415 . S
C719 H689 0.950 . S
C719 C714 1.363 . S
C719 C718 1.415 . S
H720 C717 0.999 . S
H721 C702 0.913 . S
H722 C740 0.951 . S
H723 C742 0.951 . S
H724 C744 0.950 . S
H725 C745 0.950 . S
H726 C747 0.950 . S
H727 C750 0.950 . S
H728 C751 0.950 . S
H729 C753 0.950 . S
H730 C754 0.950 . S
H731 C755 0.951 . S
H732 C757 0.951 . S
H733 C759 0.950 . S
H734 C760 0.950 . S
H735 C762 0.950 . S
H736 C765 0.950 . S
H737 C766 0.950 . S
H738 C768 0.950 . S
H739 C769 0.950 . S
C740 H722 0.951 . S
C740 C741 1.366 . S
C740 C742 1.388 . S
C741 C740 1.366 . S
C741 C745 1.385 . S
C742 H723 0.951 . S
C742 C740 1.388 . S
C742 C743 1.366 . S
C743 C742 1.366 . S
C743 C744 1.414 . S
C743 C746 1.499 . S
C744 H724 0.950 . S
C744 C743 1.414 . S
C744 C745 1.374 . S
C745 H725 0.950 . S
C745 C741 1.385 . S
C745 C744 1.374 . S
C746 C743 1.499 . S
C746 C747 1.373 . S
C746 C748 1.389 . S
C747 H726 0.950 . S
C747 C746 1.373 . S
C747 C763 1.377 . S
C748 C746 1.389 . S
C748 C749 1.524 . S
C748 C762 1.377 . S
C749 C748 1.524 . S
C749 C750 1.397 . S
C749 C754 1.363 . S
C750 H727 0.950 . S
C750 C749 1.397 . S
C750 C751 1.334 . S
C751 H728 0.950 . S
C751 C750 1.334 . S
C751 C752 1.287 . S
C752 C751 1.287 . S
C752 C753 1.524 . S
C752 H771 0.913 . S
C753 H729 0.950 . S
C753 C752 1.524 . S
C753 C754 1.415 . S
C754 H730 0.950 . S
C754 C749 1.363 . S
C754 C753 1.415 . S
C755 H731 0.951 . S
C755 C756 1.366 . S
C755 C757 1.388 . S
C756 C755 1.366 . S
C756 C760 1.385 . S
C757 H732 0.951 . S
C757 C755 1.388 . S
C757 C758 1.366 . S
C758 C757 1.366 . S
C758 C759 1.414 . S
C758 C761 1.499 . S
C759 H733 0.950 . S
C759 C758 1.414 . S
C759 C760 1.374 . S
C760 H734 0.950 . S
C760 C756 1.385 . S
C760 C759 1.374 . S
C761 C758 1.499 . S
C761 C762 1.373 . S
C761 C763 1.389 . S
C762 H735 0.950 . S
C762 C748 1.377 . S
C762 C761 1.373 . S
C763 C747 1.377 . S
C763 C761 1.389 . S
C763 C764 1.524 . S
C764 C763 1.524 . S
C764 C765 1.397 . S
C764 C769 1.363 . S
C765 H736 0.950 . S
C765 C764 1.397 . S
C765 C766 1.334 . S
C766 H737 0.950 . S
C766 C765 1.334 . S
C766 C767 1.287 . S
C767 C766 1.287 . S
C767 C768 1.524 . S
C767 H770 0.999 . S
C768 H738 0.950 . S
C768 C767 1.524 . S
C768 C769 1.415 . S
C769 H739 0.950 . S
C769 C764 1.363 . S
C769 C768 1.415 . S
H770 C767 0.999 . S
H771 C752 0.913 . S
H772 C790 0.951 . S
H773 C792 0.951 . S
H774 C794 0.950 . S
H775 C795 0.950 . S
H776 C797 0.950 . S
H777 C800 0.950 1_554 S
H778 C801 0.950 . S
H779 C803 0.950 . S
H780 C804 0.950 . S
H781 C805 0.951 1_655 S
H782 C807 0.951 . S
H783 C809 0.950 . S
H784 C810 0.950 . S
H785 C812 0.950 . S
H786 C815 0.950 . S
H787 C816 0.950 . S
H788 C818 0.950 . S
H789 C819 0.950 . S
C790 H772 0.951 . S
C790 C791 1.366 1_556 S
C790 C792 1.388 . S
C791 C790 1.366 1_554 S
C791 C795 1.385 . S
C792 H773 0.951 . S
C792 C790 1.388 . S
C792 C793 1.366 . S
C793 C792 1.366 . S
C793 C794 1.414 1_556 S
C793 C796 1.499 . S
C794 H774 0.950 . S
C794 C793 1.414 1_554 S
C794 C795 1.374 . S
C795 H775 0.950 . S
C795 C791 1.385 . S
C795 C794 1.374 . S
C796 C793 1.499 . S
C796 C797 1.373 . S
C796 C798 1.389 1_655 S
C797 H776 0.950 . S
C797 C796 1.373 . S
C797 C813 1.377 . S
C798 C796 1.389 1_455 S
C798 C799 1.524 . S
C798 C812 1.377 . S
C799 C798 1.524 . S
C799 C800 1.397 . S
C799 C804 1.363 . S
C800 H777 0.950 1_556 S
C800 C799 1.397 . S
C800 C801 1.334 1_556 S
C801 H778 0.950 . S
C801 C800 1.334 1_554 S
C801 C802 1.287 1_554 S
C802 C801 1.287 1_556 S
C802 C803 1.524 . S
C802 H821 0.913 . S
C803 H779 0.950 . S
C803 C802 1.524 . S
C803 C804 1.415 . S
C804 H780 0.950 . S
C804 C799 1.363 . S
C804 C803 1.415 . S
C805 H781 0.951 1_455 S
C805 C806 1.366 . S
C805 C807 1.388 1_455 S
C806 C805 1.366 . S
C806 C810 1.385 . S
C807 H782 0.951 . S
C807 C805 1.388 1_655 S
C807 C808 1.366 . S
C808 C807 1.366 . S
C808 C809 1.414 1_655 S
C808 C811 1.499 . S
C809 H783 0.950 . S
C809 C808 1.414 1_455 S
C809 C810 1.374 . S
C810 H784 0.950 . S
C810 C806 1.385 . S
C810 C809 1.374 . S
C811 C808 1.499 . S
C811 C812 1.373 1_655 S
C811 C813 1.389 . S
C812 H785 0.950 . S
C812 C798 1.377 . S
C812 C811 1.373 1_455 S
C813 C797 1.377 . S
C813 C811 1.389 . S
C813 C814 1.524 . S
C814 C813 1.524 . S
C814 C815 1.397 . S
C814 C819 1.363 . S
C815 H786 0.950 . S
C815 C814 1.397 . S
C815 C816 1.334 . S
C816 H787 0.950 . S
C816 C815 1.334 . S
C816 C817 1.287 . S
C817 C816 1.287 . S
C817 C818 1.524 . S
C817 H820 0.999 . S
C818 H788 0.950 . S
C818 C817 1.524 . S
C818 C819 1.415 . S
C819 H789 0.950 . S
C819 C814 1.363 . S
C819 C818 1.415 . S
H820 C817 0.999 . S
H821 C802 0.913 . S
H822 C840 0.951 . S
H823 C842 0.951 . S
H824 C844 0.937 1_545 S
H825 C845 0.950 . S
H826 C847 0.950 . S
H827 C850 0.950 . S
H828 C851 0.950 . S
H829 C853 0.950 . S
H830 C854 0.950 . S
H831 C855 0.951 . S
H832 C857 0.951 . S
H833 C859 0.950 . S
H834 C860 0.950 . S
H835 C862 0.950 . S
H836 C865 0.950 . S
H837 C866 0.950 . S
H838 C868 0.950 . S
H839 C869 0.950 . S
C840 H822 0.951 . S
C840 C841 1.366 . S
C840 C842 1.388 . S
C841 C840 1.366 . S
C841 C845 1.385 1_554 S
C842 H823 0.951 . S
C842 C840 1.388 . S
C842 C843 1.366 1_554 S
C843 C842 1.366 1_556 S
C843 C844 1.414 . S
C843 C846 1.499 . S
C844 H824 0.937 1_565 S
C844 C843 1.414 . S
C844 C845 1.374 . S
C845 H825 0.950 . S
C845 C841 1.385 1_556 S
C845 C844 1.374 . S
C846 C843 1.499 . S
C846 C847 1.373 1_565 S
C846 C848 1.389 . S
C847 H826 0.950 . S
C847 C846 1.373 1_545 S
C847 C863 1.377 . S
C848 C846 1.389 . S
C848 C849 1.524 . S
C848 C862 1.377 . S
C849 C848 1.524 . S
C849 C850 1.397 . S
C849 C854 1.363 . S
C850 H827 0.950 . S
C850 C849 1.397 . S
C850 C851 1.334 . S
C851 H828 0.950 . S
C851 C850 1.334 . S
C851 C852 1.287 . S
C852 C851 1.287 . S
C852 C853 1.524 . S
C852 H871 0.913 . S
C853 H829 0.950 . S
C853 C852 1.524 . S
C853 C854 1.415 . S
C854 H830 0.950 . S
C854 C849 1.363 . S
C854 C853 1.415 . S
C855 H831 0.951 . S
C855 C856 1.366 . S
C855 C857 1.388 . S
C856 C855 1.366 . S
C856 C860 1.385 1_545 S
C857 H832 0.951 . S
C857 C855 1.388 . S
C857 C858 1.388 . S
C858 C857 1.388 . S
C858 C859 1.399 1_545 S
C858 C861 1.491 1_545 S
C859 H833 0.950 . S
C859 C858 1.399 1_565 S
C859 C860 1.374 . S
C860 H834 0.950 . S
C860 C856 1.385 1_565 S
C860 C859 1.374 . S
C861 C858 1.491 1_565 S
C861 C862 1.373 . S
C861 C863 1.389 1_565 S
C862 H835 0.950 . S
C862 C848 1.377 . S
C862 C861 1.373 . S
C863 C847 1.377 . S
C863 C861 1.389 1_545 S
C863 C864 1.524 . S
C864 C863 1.524 . S
C864 C865 1.397 . S
C864 C869 1.363 . S
C865 H836 0.950 . S
C865 C864 1.397 . S
C865 C866 1.334 . S
C866 H837 0.950 . S
C866 C865 1.334 . S
C866 C867 1.287 . S
C867 C866 1.287 . S
C867 C868 1.524 . S
C867 H870 0.999 . S
C868 H838 0.950 . S
C868 C867 1.524 . S
C868 C869 1.415 . S
C869 H839 0.950 . S
C869 C864 1.363 . S
C869 C868 1.415 . S
H870 C867 0.999 . S
H871 C852 0.913 . S
H872 C890 0.951 . S
H873 C892 0.951 . S
H874 C894 0.950 . S
H875 C895 0.950 . S
H876 C897 0.950 . S
H877 C900 0.950 . S
H878 C901 0.950 . S
H879 C903 0.950 . S
H880 C904 0.938 1_556 S
H881 C905 0.951 . S
H882 C907 0.951 . S
H883 C909 0.950 . S
H884 C910 0.950 . S
H885 C912 0.950 . S
H886 C915 0.950 . S
H887 C916 0.950 . S
H888 C918 0.950 . S
H889 C919 0.950 . S
C890 H872 0.951 . S
C890 C891 1.366 . S
C890 C892 1.388 1_554 S
C891 C890 1.366 . S
C891 C895 1.385 . S
C892 H873 0.951 . S
C892 C890 1.388 1_556 S
C892 C893 1.366 . S
C893 C892 1.366 . S
C893 C894 1.414 . S
C893 C896 1.499 . S
C894 H874 0.950 . S
C894 C893 1.414 . S
C894 C895 1.374 1_556 S
C895 H875 0.950 . S
C895 C891 1.385 . S
C895 C894 1.374 1_554 S
C896 C893 1.499 . S
C896 C897 1.373 . S
C896 C898 1.389 . S
C897 H876 0.950 . S
C897 C896 1.373 . S
C897 C913 1.377 . S
C898 C896 1.389 . S
C898 C899 1.524 1_556 S
C898 C912 1.377 . S
C899 C898 1.524 1_554 S
C899 C900 1.397 . S
C899 C904 1.365 . S
C900 H877 0.950 . S
C900 C899 1.397 . S
C900 C901 1.334 . S
C901 H878 0.950 . S
C901 C900 1.334 . S
C901 C902 1.287 . S
C902 C901 1.287 . S
C902 C903 1.524 . S
C902 H921 0.913 . S
C903 H879 0.950 . S
C903 C902 1.524 . S
C903 C904 1.425 . S
C904 H880 0.938 1_554 S
C904 C899 1.365 . S
C904 C903 1.425 . S
C905 H881 0.951 . S
C905 C906 1.366 . S
C905 C907 1.388 . S
C906 C905 1.366 . S
C906 C910 1.385 . S
C907 H882 0.951 . S
C907 C905 1.388 . S
C907 C908 1.366 . S
C908 C907 1.366 . S
C908 C909 1.414 . S
C908 C911 1.499 . S
C909 H883 0.950 . S
C909 C908 1.414 . S
C909 C910 1.374 . S
C910 H884 0.950 . S
C910 C906 1.385 . S
C910 C909 1.374 . S
C911 C908 1.499 . S
C911 C912 1.373 . S
C911 C913 1.389 . S
C912 H885 0.950 . S
C912 C898 1.377 . S
C912 C911 1.373 . S
C913 C897 1.377 . S
C913 C911 1.389 . S
C913 C914 1.524 . S
C914 C913 1.524 . S
C914 C915 1.397 . S
C914 C919 1.363 . S
C915 H886 0.950 . S
C915 C914 1.397 . S
C915 C916 1.334 . S
C916 H887 0.950 . S
C916 C915 1.334 . S
C916 C917 1.287 . S
C917 C916 1.287 . S
C917 C918 1.524 . S
C917 H920 0.999 . S
C918 H888 0.950 . S
C918 C917 1.524 . S
C918 C919 1.415 . S
C919 H889 0.950 . S
C919 C914 1.363 . S
C919 C918 1.415 . S
H920 C917 0.999 . S
H921 C902 0.913 . S
H922 C940 0.951 . S
H923 C942 0.951 . S
H924 C944 0.950 . S
H925 C945 0.950 . S
H926 C947 0.950 . S
H927 C950 0.950 . S
H928 C951 0.950 . S
H929 C953 0.950 . S
H930 C954 0.950 . S
H931 C955 0.951 . S
H932 C957 0.951 . S
H933 C959 0.950 . S
H934 C960 0.950 . S
H935 C962 0.950 . S
H936 C965 0.950 . S
H937 C966 0.950 . S
H938 C968 0.950 . S
H939 C969 0.950 . S
C940 H922 0.951 . S
C940 C941 1.366 . S
C940 C942 1.388 . S
C941 C940 1.366 . S
C941 C945 1.385 1_554 S
C942 H923 0.951 . S
C942 C940 1.388 . S
C942 C943 1.366 1_554 S
C943 C942 1.366 1_556 S
C943 C944 1.414 . S
C943 C946 1.499 . S
C944 H924 0.950 . S
C944 C943 1.414 . S
C944 C945 1.374 . S
C945 H925 0.950 . S
C945 C941 1.385 1_556 S
C945 C944 1.374 . S
C946 C943 1.499 . S
C946 C947 1.373 . S
C946 C948 1.389 . S
C947 H926 0.950 . S
C947 C946 1.373 . S
C947 C963 1.377 . S
C948 C946 1.389 . S
C948 C949 1.524 1_556 S
C948 C962 1.377 . S
C949 C948 1.524 1_554 S
C949 C950 1.397 . S
C949 C954 1.363 . S
C950 H927 0.950 . S
C950 C949 1.397 . S
C950 C951 1.334 . S
C951 H928 0.950 . S
C951 C950 1.334 . S
C951 C952 1.287 . S
C952 C951 1.287 . S
C952 C953 1.524 . S
C952 H971 0.913 . S
C953 H929 0.950 . S
C953 C952 1.524 . S
C953 C954 1.415 . S
C954 H930 0.950 . S
C954 C949 1.363 . S
C954 C953 1.415 . S
C955 H931 0.951 . S
C955 C956 1.366 . S
C955 C957 1.388 . S
C956 C955 1.366 . S
C956 C960 1.385 . S
C957 H932 0.951 . S
C957 C955 1.388 . S
C957 C958 1.366 . S
C958 C957 1.366 . S
C958 C959 1.414 . S
C958 C961 1.499 . S
C959 H933 0.950 . S
C959 C958 1.414 . S
C959 C960 1.374 . S
C960 H934 0.950 . S
C960 C956 1.385 . S
C960 C959 1.374 . S
C961 C958 1.499 . S
C961 C962 1.373 . S
C961 C963 1.389 . S
C962 H935 0.950 . S
C962 C948 1.377 . S
C962 C961 1.373 . S
C963 C947 1.377 . S
C963 C961 1.389 . S
C963 C964 1.524 . S
C964 C963 1.524 . S
C964 C965 1.397 . S
C964 C969 1.363 . S
C965 H936 0.950 . S
C965 C964 1.397 . S
C965 C966 1.334 . S
C966 H937 0.950 . S
C966 C965 1.334 . S
C966 C967 1.287 . S
C967 C966 1.287 . S
C967 C968 1.524 . S
C967 H970 0.999 . S
C968 H938 0.950 . S
C968 C967 1.524 . S
C968 C969 1.415 . S
C969 H939 0.950 . S
C969 C964 1.363 . S
C969 C968 1.415 . S
H970 C967 0.999 . S
H971 C952 0.913 . S
H972 C990 0.951 . S
H973 C992 0.951 . S
H974 C994 0.950 . S
H975 C995 0.950 . S
H976 C997 0.950 1_556 S
H977 C1000 0.950 . S
H978 C1001 0.950 . S
H979 C1003 0.950 . S
H980 C1004 0.950 . S
H981 C1005 0.951 . S
H982 C1007 0.951 . S
H983 C1009 0.950 . S
H984 C1010 0.950 . S
H985 C1012 0.950 . S
H986 C1015 0.950 1_655 S
H987 C1016 0.950 . S
H988 C1018 0.950 . S
H989 C1019 0.950 . S
C990 H972 0.951 . S
C990 C991 1.366 . S
C990 C992 1.388 . S
C991 C990 1.366 . S
C991 C995 1.385 . S
C992 H973 0.951 . S
C992 C990 1.388 . S
C992 C993 1.366 . S
C993 C992 1.366 . S
C993 C994 1.414 . S
C993 C996 1.499 . S
C994 H974 0.950 . S
C994 C993 1.414 . S
C994 C995 1.374 . S
C995 H975 0.950 . S
C995 C991 1.385 . S
C995 C994 1.374 . S
C996 C993 1.499 . S
C996 C997 1.373 . S
C996 C998 1.389 . S
C997 H976 0.950 1_554 S
C997 C996 1.373 . S
C997 C1013 1.377 1_554 S
C998 C996 1.389 . S
C998 C999 1.524 . S
C998 C1012 1.377 . S
C999 C998 1.524 . S
C999 C1000 1.397 . S
C999 C1004 1.363 . S
C1000 H977 0.950 . S
C1000 C999 1.397 . S
C1000 C1001 1.334 . S
C1001 H978 0.950 . S
C1001 C1000 1.334 . S
C1001 C1002 1.287 . S
C1002 C1001 1.287 . S
C1002 C1003 1.524 . S
C1002 H1021 0.913 . S
C1003 H979 0.950 . S
C1003 C1002 1.524 . S
C1003 C1004 1.415 . S
C1004 H980 0.950 . S
C1004 C999 1.363 . S
C1004 C1003 1.415 . S
C1005 H981 0.951 . S
C1005 C1006 1.366 . S
C1005 C1007 1.388 . S
C1006 C1005 1.366 . S
C1006 C1010 1.385 . S
C1007 H982 0.951 . S
C1007 C1005 1.388 . S
C1007 C1008 1.366 . S
C1008 C1007 1.366 . S
C1008 C1009 1.414 . S
C1008 C1011 1.499 . S
C1009 H983 0.950 . S
C1009 C1008 1.414 . S
C1009 C1010 1.374 . S
C1010 H984 0.950 . S
C1010 C1006 1.385 . S
C1010 C1009 1.374 . S
C1011 C1008 1.499 . S
C1011 C1012 1.373 1_556 S
C1011 C1013 1.389 . S
C1012 H985 0.950 . S
C1012 C998 1.377 . S
C1012 C1011 1.373 1_554 S
C1013 C997 1.377 1_556 S
C1013 C1011 1.389 . S
C1013 C1014 1.524 . S
C1014 C1013 1.524 . S
C1014 C1015 1.397 . S
C1014 C1019 1.363 . S
C1015 H986 0.950 1_455 S
C1015 C1014 1.397 . S
C1015 C1016 1.334 1_455 S
C1016 H987 0.950 . S
C1016 C1015 1.334 1_655 S
C1016 C1017 1.287 1_655 S
C1017 C1016 1.287 1_455 S
C1017 C1018 1.524 . S
C1017 H1020 0.999 1_455 S
C1018 H988 0.950 . S
C1018 C1017 1.524 . S
C1018 C1019 1.415 . S
C1019 H989 0.950 . S
C1019 C1014 1.363 . S
C1019 C1018 1.415 . S
H1020 C1017 0.999 1_655 S
H1021 C1002 0.913 . S
H1022 C1040 0.951 . S
H1023 C1042 0.951 . S
H1024 C1044 0.950 . S
H1025 C1045 0.950 . S
H1026 C1047 0.950 . S
H1027 C1050 0.950 . S
H1028 C1051 0.950 . S
H1029 C1053 0.950 . S
H1030 C1054 0.950 . S
H1031 C1055 0.951 . S
H1032 C1057 0.951 . S
H1033 C1059 0.939 1_554 S
H1034 C1060 0.950 . S
H1035 C1062 0.950 . S
H1036 C1065 0.950 . S
H1037 C1066 0.950 . S
H1038 C1068 0.950 . S
H1039 C1069 0.950 . S
C1040 H1022 0.951 . S
C1040 C1041 1.366 . S
C1040 C1042 1.388 . S
C1041 C1040 1.366 . S
C1041 C1045 1.385 . S
C1042 H1023 0.951 . S
C1042 C1040 1.388 . S
C1042 C1043 1.366 . S
C1043 C1042 1.366 . S
C1043 C1044 1.414 . S
C1043 C1046 1.499 . S
C1044 H1024 0.950 . S
C1044 C1043 1.414 . S
C1044 C1045 1.374 . S
C1045 H1025 0.950 . S
C1045 C1041 1.385 . S
C1045 C1044 1.374 . S
C1046 C1043 1.499 . S
C1046 C1047 1.373 . S
C1046 C1048 1.389 . S
C1047 H1026 0.950 . S
C1047 C1046 1.373 . S
C1047 C1063 1.377 1_554 S
C1048 C1046 1.389 . S
C1048 C1049 1.524 . S
C1048 C1062 1.377 . S
C1049 C1048 1.524 . S
C1049 C1050 1.397 . S
C1049 C1054 1.363 . S
C1050 H1027 0.950 . S
C1050 C1049 1.397 . S
C1050 C1051 1.334 . S
C1051 H1028 0.950 . S
C1051 C1050 1.334 . S
C1051 C1052 1.287 . S
C1052 C1051 1.287 . S
C1052 C1053 1.524 . S
C1052 H1071 0.913 . S
C1053 H1029 0.950 . S
C1053 C1052 1.524 . S
C1053 C1054 1.415 . S
C1054 H1030 0.950 . S
C1054 C1049 1.363 . S
C1054 C1053 1.415 . S
C1055 H1031 0.951 . S
C1055 C1056 1.366 . S
C1055 C1057 1.388 . S
C1056 C1055 1.366 . S
C1056 C1060 1.385 . S
C1057 H1032 0.951 . S
C1057 C1055 1.388 . S
C1057 C1058 1.366 . S
C1058 C1057 1.366 . S
C1058 C1059 1.414 . S
C1058 C1061 1.499 . S
C1059 H1033 0.939 1_556 S
C1059 C1058 1.414 . S
C1059 C1060 1.374 . S
C1060 H1034 0.950 . S
C1060 C1056 1.385 . S
C1060 C1059 1.374 . S
C1061 C1058 1.499 . S
C1061 C1062 1.373 1_556 S
C1061 C1063 1.389 . S
C1062 H1035 0.950 . S
C1062 C1048 1.377 . S
C1062 C1061 1.373 1_554 S
C1063 C1047 1.377 1_556 S
C1063 C1061 1.389 . S
C1063 C1064 1.524 . S
C1064 C1063 1.524 . S
C1064 C1065 1.397 1_545 S
C1064 C1069 1.363 . S
C1065 H1036 0.950 . S
C1065 C1064 1.397 1_565 S
C1065 C1066 1.334 . S
C1066 H1037 0.950 . S
C1066 C1065 1.334 . S
C1066 C1067 1.287 . S
C1067 C1066 1.287 . S
C1067 C1068 1.524 . S
C1067 H1070 0.999 . S
C1068 H1038 0.950 . S
C1068 C1067 1.524 . S
C1068 C1069 1.415 1_565 S
C1069 H1039 0.950 . S
C1069 C1064 1.363 . S
C1069 C1068 1.415 1_545 S
H1070 C1067 0.999 . S
H1071 C1052 0.913 . S
H1072 C1090 0.951 . S
H1073 C1092 0.951 . S
H1074 C1094 0.950 . S
H1075 C1095 0.950 . S
H1076 C1097 0.950 . S
H1077 C1100 0.960 . S
H1078 C1101 0.950 . S
H1079 C1103 0.950 . S
H1080 C1104 0.950 . S
H1081 C1105 0.951 . S
H1082 C1107 0.951 . S
H1083 C1109 0.950 . S
H1084 C1110 0.950 . S
H1085 C1112 0.950 . S
H1086 C1115 0.950 . S
H1087 C1116 0.950 . S
H1088 C1118 0.950 . S
H1089 C1119 0.950 . S
C1090 H1072 0.951 . S
C1090 C1091 1.366 . S
C1090 C1092 1.388 . S
C1091 C1090 1.366 . S
C1091 C1095 1.385 . S
C1092 H1073 0.951 . S
C1092 C1090 1.388 . S
C1092 C1093 1.366 . S
C1093 C1092 1.366 . S
C1093 C1094 1.414 . S
C1093 C1096 1.499 . S
C1094 H1074 0.950 . S
C1094 C1093 1.414 . S
C1094 C1095 1.374 . S
C1095 H1075 0.950 . S
C1095 C1091 1.385 . S
C1095 C1094 1.374 . S
C1096 C1093 1.499 . S
C1096 C1097 1.373 . S
C1096 C1098 1.389 1_554 S
C1097 H1076 0.950 . S
C1097 C1096 1.373 . S
C1097 C1113 1.377 . S
C1098 C1096 1.389 1_556 S
C1098 C1099 1.524 . S
C1098 C1112 1.377 . S
C1099 C1098 1.524 . S
C1099 C1100 1.397 . S
C1099 C1104 1.363 . S
C1100 H1077 0.960 . S
C1100 C1099 1.397 . S
C1100 C1101 1.334 . S
C1101 H1078 0.950 . S
C1101 C1100 1.334 . S
C1101 C1102 1.287 . S
C1102 C1101 1.287 . S
C1102 C1103 1.524 . S
C1102 H1121 0.913 . S
C1103 H1079 0.950 . S
C1103 C1102 1.524 . S
C1103 C1104 1.415 . S
C1104 H1080 0.950 . S
C1104 C1099 1.363 . S
C1104 C1103 1.415 . S
C1105 H1081 0.951 . S
C1105 C1106 1.366 . S
C1105 C1107 1.388 . S
C1106 C1105 1.366 . S
C1106 C1110 1.385 . S
C1107 H1082 0.951 . S
C1107 C1105 1.388 . S
C1107 C1108 1.366 . S
C1108 C1107 1.366 . S
C1108 C1109 1.414 . S
C1108 C1111 1.499 . S
C1109 H1083 0.950 . S
C1109 C1108 1.414 . S
C1109 C1110 1.374 . S
C1110 H1084 0.950 . S
C1110 C1106 1.385 . S
C1110 C1109 1.374 . S
C1111 C1108 1.499 . S
C1111 C1112 1.373 . S
C1111 C1113 1.389 1_556 S
C1112 H1085 0.950 . S
C1112 C1098 1.377 . S
C1112 C1111 1.373 . S
C1113 C1097 1.377 . S
C1113 C1111 1.389 1_554 S
C1113 C1114 1.524 . S
C1114 C1113 1.524 . S
C1114 C1115 1.397 . S
C1114 C1119 1.363 . S
C1115 H1086 0.950 . S
C1115 C1114 1.397 . S
C1115 C1116 1.334 . S
C1116 H1087 0.950 . S
C1116 C1115 1.334 . S
C1116 C1117 1.287 . S
C1117 C1116 1.287 . S
C1117 C1118 1.524 . S
C1117 H1120 0.999 . S
C1118 H1088 0.950 . S
C1118 C1117 1.524 . S
C1118 C1119 1.415 . S
C1119 H1089 0.950 . S
C1119 C1114 1.363 . S
C1119 C1118 1.415 . S
H1120 C1117 0.999 . S
H1121 C1102 0.913 . S
H1122 C1140 0.951 . S
H1123 C1142 0.951 . S
H1124 C1144 0.950 . S
H1125 C1145 0.950 . S
H1126 C1147 0.950 . S
H1127 C1150 0.950 . S
H1128 C1151 0.950 . S
H1129 C1153 0.950 . S
H1130 C1154 0.950 . S
H1131 C1155 0.951 . S
H1132 C1157 0.951 . S
H1133 C1159 0.947 1_554 S
H1134 C1160 0.950 . S
H1135 C1162 0.950 . S
H1136 C1165 0.950 . S
H1137 C1166 0.950 . S
H1138 C1168 0.950 . S
H1139 C1169 0.950 . S
C1140 H1122 0.951 . S
C1140 C1141 1.366 . S
C1140 C1142 1.388 . S
C1141 C1140 1.366 . S
C1141 C1145 1.385 . S
C1142 H1123 0.951 . S
C1142 C1140 1.388 . S
C1142 C1143 1.366 . S
C1143 C1142 1.366 . S
C1143 C1144 1.414 . S
C1143 C1146 1.499 . S
C1144 H1124 0.950 . S
C1144 C1143 1.414 . S
C1144 C1145 1.374 . S
C1145 H1125 0.950 . S
C1145 C1141 1.385 . S
C1145 C1144 1.374 . S
C1146 C1143 1.499 . S
C1146 C1147 1.373 . S
C1146 C1148 1.389 . S
C1147 H1126 0.950 . S
C1147 C1146 1.373 . S
C1147 C1163 1.377 1_554 S
C1148 C1146 1.389 . S
C1148 C1149 1.524 . S
C1148 C1162 1.377 . S
C1149 C1148 1.524 . S
C1149 C1150 1.397 . S
C1149 C1154 1.363 . S
C1150 H1127 0.950 . S
C1150 C1149 1.397 . S
C1150 C1151 1.334 . S
C1151 H1128 0.950 . S
C1151 C1150 1.334 . S
C1151 C1152 1.287 . S
C1152 C1151 1.287 . S
C1152 C1153 1.524 . S
C1152 H1171 0.913 . S
C1153 H1129 0.950 . S
C1153 C1152 1.524 . S
C1153 C1154 1.415 . S
C1154 H1130 0.950 . S
C1154 C1149 1.363 . S
C1154 C1153 1.415 . S
C1155 H1131 0.951 . S
C1155 C1156 1.366 . S
C1155 C1157 1.388 . S
C1156 C1155 1.366 . S
C1156 C1160 1.385 . S
C1157 H1132 0.951 . S
C1157 C1155 1.388 . S
C1157 C1158 1.366 . S
C1158 C1157 1.366 . S
C1158 C1159 1.414 . S
C1158 C1161 1.499 . S
C1159 H1133 0.947 1_556 S
C1159 C1158 1.414 . S
C1159 C1160 1.374 . S
C1160 H1134 0.950 . S
C1160 C1156 1.385 . S
C1160 C1159 1.374 . S
C1161 C1158 1.499 . S
C1161 C1162 1.373 1_556 S
C1161 C1163 1.389 . S
C1162 H1135 0.950 . S
C1162 C1148 1.377 . S
C1162 C1161 1.373 1_554 S
C1163 C1147 1.377 1_556 S
C1163 C1161 1.389 . S
C1163 C1164 1.524 . S
C1164 C1163 1.524 . S
C1164 C1165 1.397 . S
C1164 C1169 1.363 . S
C1165 H1136 0.950 . S
C1165 C1164 1.397 . S
C1165 C1166 1.334 . S
C1166 H1137 0.950 . S
C1166 C1165 1.334 . S
C1166 C1167 1.287 . S
C1167 C1166 1.287 . S
C1167 C1168 1.524 . S
C1167 H1170 0.999 . S
C1168 H1138 0.950 . S
C1168 C1167 1.524 . S
C1168 C1169 1.415 . S
C1169 H1139 0.950 . S
C1169 C1164 1.363 . S
C1169 C1168 1.415 . S
H1170 C1167 0.999 . S
H1171 C1152 0.913 . S
H1172 C1190 0.951 . S
H1173 C1192 0.951 . S
H1174 C1194 0.950 . S
H1175 C1195 0.950 . S
H1176 C1197 0.950 . S
H1177 C1200 0.950 . S
H1178 C1201 0.950 . S
H1179 C1203 0.950 . S
H1180 C1204 0.950 . S
H1181 C1205 0.951 1_455 S
H1182 C1207 0.968 . S
H1183 C1209 0.950 . S
H1184 C1210 0.950 . S
H1185 C1212 0.950 . S
H1186 C1215 0.950 . S
H1187 C1216 0.950 . S
H1188 C1218 0.950 . S
H1189 C1219 0.950 . S
C1190 H1172 0.951 . S
C1190 C1191 1.366 . S
C1190 C1192 1.388 . S
C1191 C1190 1.366 . S
C1191 C1195 1.385 . S
C1192 H1173 0.951 . S
C1192 C1190 1.388 . S
C1192 C1193 1.366 . S
C1193 C1192 1.366 . S
C1193 C1194 1.414 . S
C1193 C1196 1.499 . S
C1194 H1174 0.950 . S
C1194 C1193 1.414 . S
C1194 C1195 1.374 . S
C1195 H1175 0.950 . S
C1195 C1191 1.385 . S
C1195 C1194 1.374 . S
C1196 C1193 1.499 . S
C1196 C1197 1.373 . S
C1196 C1198 1.389 . S
C1197 H1176 0.950 . S
C1197 C1196 1.373 . S
C1197 C1213 1.377 . S
C1198 C1196 1.389 . S
C1198 C1199 1.524 . S
C1198 C1212 1.377 . S
C1199 C1198 1.524 . S
C1199 C1200 1.397 1_655 S
C1199 C1204 1.363 . S
C1200 H1177 0.950 . S
C1200 C1199 1.397 1_455 S
C1200 C1201 1.334 . S
C1201 H1178 0.950 . S
C1201 C1200 1.334 . S
C1201 C1202 1.287 . S
C1202 C1201 1.287 . S
C1202 C1203 1.524 . S
C1202 H1221 0.913 . S
C1203 H1179 0.950 . S
C1203 C1202 1.524 . S
C1203 C1204 1.415 1_455 S
C1204 H1180 0.950 . S
C1204 C1199 1.363 . S
C1204 C1203 1.415 1_655 S
C1205 H1181 0.951 1_655 S
C1205 C1206 1.366 . S
C1205 C1207 1.388 . S
C1206 C1205 1.366 . S
C1206 C1210 1.385 . S
C1207 H1182 0.968 . S
C1207 C1205 1.388 . S
C1207 C1208 1.366 . S
C1208 C1207 1.366 . S
C1208 C1209 1.414 . S
C1208 C1211 1.499 . S
C1209 H1183 0.950 . S
C1209 C1208 1.414 . S
C1209 C1210 1.374 . S
C1210 H1184 0.950 . S
C1210 C1206 1.385 . S
C1210 C1209 1.374 . S
C1211 C1208 1.499 . S
C1211 C1212 1.373 . S
C1211 C1213 1.389 . S
C1212 H1185 0.950 . S
C1212 C1198 1.377 . S
C1212 C1211 1.373 . S
C1213 C1197 1.377 . S
C1213 C1211 1.389 . S
C1213 C1214 1.524 . S
C1214 C1213 1.524 . S
C1214 C1215 1.397 . S
C1214 C1219 1.363 . S
C1215 H1186 0.950 . S
C1215 C1214 1.397 . S
C1215 C1216 1.334 . S
C1216 H1187 0.950 . S
C1216 C1215 1.334 . S
C1216 C1217 1.287 . S
C1217 C1216 1.287 . S
C1217 C1218 1.524 . S
C1217 H1220 0.999 . S
C1218 H1188 0.950 . S
C1218 C1217 1.524 . S
C1218 C1219 1.415 . S
C1219 H1189 0.950 . S
C1219 C1214 1.363 . S
C1219 C1218 1.415 . S
H1220 C1217 0.999 . S
H1221 C1202 0.913 . S
H1222 C1240 0.951 . S
H1223 C1242 0.951 . S
H1224 C1244 0.950 . S
H1225 C1245 0.950 . S
H1226 C1247 0.970 . S
H1227 C1250 0.950 . S
H1228 C1251 0.950 . S
H1229 C1253 0.950 . S
H1230 C1254 0.950 . S
H1231 C1255 0.951 . S
H1232 C1257 0.951 . S
H1233 C1259 0.950 . S
H1234 C1260 0.950 . S
H1235 C1262 0.950 . S
H1236 C1265 0.950 . S
H1237 C1266 0.950 . S
H1238 C1268 0.950 . S
H1239 C1269 0.950 . S
C1240 H1222 0.951 . S
C1240 C1241 1.366 . S
C1240 C1242 1.388 . S
C1241 C1240 1.366 . S
C1241 C1245 1.385 . S
C1242 H1223 0.951 . S
C1242 C1240 1.388 . S
C1242 C1243 1.366 . S
C1243 C1242 1.366 . S
C1243 C1244 1.414 . S
C1243 C1246 1.499 . S
C1244 H1224 0.950 . S
C1244 C1243 1.414 . S
C1244 C1245 1.374 . S
C1245 H1225 0.950 . S
C1245 C1241 1.385 . S
C1245 C1244 1.374 . S
C1246 C1243 1.499 . S
C1246 C1247 1.373 . S
C1246 C1248 1.389 . S
C1247 H1226 0.970 . S
C1247 C1246 1.373 . S
C1247 C1263 1.377 . S
C1248 C1246 1.389 . S
C1248 C1249 1.524 . S
C1248 C1262 1.377 . S
C1249 C1248 1.524 . S
C1249 C1250 1.397 . S
C1249 C1254 1.363 . S
C1250 H1227 0.950 . S
C1250 C1249 1.397 . S
C1250 C1251 1.334 . S
C1251 H1228 0.950 . S
C1251 C1250 1.334 . S
C1251 C1252 1.287 . S
C1252 C1251 1.287 . S
C1252 C1253 1.524 . S
C1252 H1271 0.913 . S
C1253 H1229 0.950 . S
C1253 C1252 1.524 . S
C1253 C1254 1.415 . S
C1254 H1230 0.950 . S
C1254 C1249 1.363 . S
C1254 C1253 1.415 . S
C1255 H1231 0.951 . S
C1255 C1256 1.366 . S
C1255 C1257 1.388 . S
C1256 C1255 1.366 . S
C1256 C1260 1.385 . S
C1257 H1232 0.951 . S
C1257 C1255 1.388 . S
C1257 C1258 1.366 . S
C1258 C1257 1.366 . S
C1258 C1259 1.414 . S
C1258 C1261 1.499 . S
C1259 H1233 0.950 . S
C1259 C1258 1.414 . S
C1259 C1260 1.374 . S
C1260 H1234 0.950 . S
C1260 C1256 1.385 . S
C1260 C1259 1.374 . S
C1261 C1258 1.499 . S
C1261 C1262 1.373 . S
C1261 C1263 1.389 . S
C1262 H1235 0.950 . S
C1262 C1248 1.377 . S
C1262 C1261 1.373 . S
C1263 C1247 1.377 . S
C1263 C1261 1.389 . S
C1263 C1264 1.524 1_565 S
C1264 C1263 1.524 1_545 S
C1264 C1265 1.397 . S
C1264 C1269 1.363 . S
C1265 H1236 0.950 . S
C1265 C1264 1.397 . S
C1265 C1266 1.334 . S
C1266 H1237 0.950 . S
C1266 C1265 1.334 . S
C1266 C1267 1.287 . S
C1267 C1266 1.287 . S
C1267 C1268 1.524 . S
C1267 H1270 0.999 . S
C1268 H1238 0.950 . S
C1268 C1267 1.524 . S
C1268 C1269 1.415 . S
C1269 H1239 0.950 . S
C1269 C1264 1.363 . S
C1269 C1268 1.415 . S
H1270 C1267 0.999 . S
H1271 C1252 0.913 . S
H1272 C1290 0.951 . S
H1273 C1292 0.951 . S
H1274 C1294 0.950 . S
H1275 C1295 0.950 . S
H1276 C1297 0.950 . S
H1277 C1300 0.950 . S
H1278 C1301 0.950 . S
H1279 C1303 0.950 . S
H1280 C1304 0.950 . S
H1281 C1305 0.951 . S
H1282 C1307 0.951 . S
H1283 C1309 0.950 . S
H1284 C1310 0.950 . S
H1285 C1312 0.950 . S
H1286 C1315 0.950 . S
H1287 C1316 0.950 . S
H1288 C1318 0.950 . S
H1289 C1319 0.950 . S
C1290 H1272 0.951 . S
C1290 C1291 1.366 . S
C1290 C1292 1.388 . S
C1291 C1290 1.366 . S
C1291 C1295 1.385 . S
C1292 H1273 0.951 . S
C1292 C1290 1.388 . S
C1292 C1293 1.366 . S
C1293 C1292 1.366 . S
C1293 C1294 1.414 . S
C1293 C1296 1.499 . S
C1294 H1274 0.950 . S
C1294 C1293 1.414 . S
C1294 C1295 1.374 . S
C1295 H1275 0.950 . S
C1295 C1291 1.385 . S
C1295 C1294 1.374 . S
C1296 C1293 1.499 . S
C1296 C1297 1.373 . S
C1296 C1298 1.389 . S
C1297 H1276 0.950 . S
C1297 C1296 1.373 . S
C1297 C1313 1.377 . S
C1298 C1296 1.389 . S
C1298 C1299 1.524 . S
C1298 C1312 1.377 . S
C1299 C1298 1.524 . S
C1299 C1300 1.397 . S
C1299 C1304 1.363 . S
C1300 H1277 0.950 . S
C1300 C1299 1.397 . S
C1300 C1301 1.334 . S
C1301 H1278 0.950 . S
C1301 C1300 1.334 . S
C1301 C1302 1.287 . S
C1302 C1301 1.287 . S
C1302 C1303 1.524 . S
C1302 H1321 0.913 . S
C1303 H1279 0.950 . S
C1303 C1302 1.524 . S
C1303 C1304 1.415 . S
C1304 H1280 0.950 . S
C1304 C1299 1.363 . S
C1304 C1303 1.415 . S
C1305 H1281 0.951 . S
C1305 C1306 1.366 . S
C1305 C1307 1.388 . S
C1306 C1305 1.366 . S
C1306 C1310 1.385 . S
C1307 H1282 0.951 . S
C1307 C1305 1.388 . S
C1307 C1308 1.366 . S
C1308 C1307 1.366 . S
C1308 C1309 1.414 . S
C1308 C1311 1.499 . S
C1309 H1283 0.950 . S
C1309 C1308 1.414 . S
C1309 C1310 1.374 . S
C1310 H1284 0.950 . S
C1310 C1306 1.385 . S
C1310 C1309 1.374 . S
C1311 C1308 1.499 . S
C1311 C1312 1.373 . S
C1311 C1313 1.389 . S
C1312 H1285 0.950 . S
C1312 C1298 1.377 . S
C1312 C1311 1.373 . S
C1313 C1297 1.377 . S
C1313 C1311 1.389 . S
C1313 C1314 1.524 . S
C1314 C1313 1.524 . S
C1314 C1315 1.397 . S
C1314 C1319 1.363 . S
C1315 H1286 0.950 . S
C1315 C1314 1.397 . S
C1315 C1316 1.334 . S
C1316 H1287 0.950 . S
C1316 C1315 1.334 . S
C1316 C1317 1.287 . S
C1317 C1316 1.287 . S
C1317 C1318 1.524 . S
C1317 H1320 0.999 . S
C1318 H1288 0.950 . S
C1318 C1317 1.524 . S
C1318 C1319 1.415 . S
C1319 H1289 0.950 . S
C1319 C1314 1.363 . S
C1319 C1318 1.415 . S
H1320 C1317 0.999 . S
H1321 C1302 0.913 . S
H1322 C1340 0.951 . S
H1323 C1342 0.951 . S
H1324 C1344 0.950 . S
H1325 C1345 0.950 . S
H1326 C1347 0.950 . S
H1327 C1350 0.950 . S
H1328 C1351 0.950 . S
H1329 C1353 0.950 . S
H1330 C1354 0.950 . S
H1331 C1355 0.951 . S
H1332 C1357 0.951 . S
H1333 C1359 0.950 . S
H1334 C1360 0.950 . S
H1335 C1362 0.950 . S
H1336 C1365 0.950 . S
H1337 C1366 0.950 . S
H1338 C1368 0.950 . S
H1339 C1369 0.950 . S
C1340 H1322 0.951 . S
C1340 C1341 1.366 . S
C1340 C1342 1.388 . S
C1341 C1340 1.366 . S
C1341 C1345 1.385 . S
C1342 H1323 0.951 . S
C1342 C1340 1.388 . S
C1342 C1343 1.366 . S
C1343 C1342 1.366 . S
C1343 C1344 1.414 . S
C1343 C1346 1.499 . S
C1344 H1324 0.950 . S
C1344 C1343 1.414 . S
C1344 C1345 1.374 . S
C1345 H1325 0.950 . S
C1345 C1341 1.385 . S
C1345 C1344 1.374 . S
C1346 C1343 1.499 . S
C1346 C1347 1.373 . S
C1346 C1348 1.389 . S
C1347 H1326 0.950 . S
C1347 C1346 1.373 . S
C1347 C1363 1.377 . S
C1348 C1346 1.389 . S
C1348 C1349 1.524 . S
C1348 C1362 1.377 . S
C1349 C1348 1.524 . S
C1349 C1350 1.397 . S
C1349 C1354 1.363 . S
C1350 H1327 0.950 . S
C1350 C1349 1.397 . S
C1350 C1351 1.334 . S
C1351 H1328 0.950 . S
C1351 C1350 1.334 . S
C1351 C1352 1.287 . S
C1352 C1351 1.287 . S
C1352 C1353 1.524 . S
C1352 H1371 0.913 . S
C1353 H1329 0.950 . S
C1353 C1352 1.524 . S
C1353 C1354 1.415 . S
C1354 H1330 0.950 . S
C1354 C1349 1.363 . S
C1354 C1353 1.415 . S
C1355 H1331 0.951 . S
C1355 C1356 1.366 . S
C1355 C1357 1.388 . S
C1356 C1355 1.366 . S
C1356 C1360 1.385 . S
C1357 H1332 0.951 . S
C1357 C1355 1.388 . S
C1357 C1358 1.366 . S
C1358 C1357 1.366 . S
C1358 C1359 1.414 . S
C1358 C1361 1.499 . S
C1359 H1333 0.950 . S
C1359 C1358 1.414 . S
C1359 C1360 1.374 . S
C1360 H1334 0.950 . S
C1360 C1356 1.385 . S
C1360 C1359 1.374 . S
C1361 C1358 1.499 . S
C1361 C1362 1.373 . S
C1361 C1363 1.389 . S
C1362 H1335 0.950 . S
C1362 C1348 1.377 . S
C1362 C1361 1.373 . S
C1363 C1347 1.377 . S
C1363 C1361 1.389 . S
C1363 C1364 1.524 . S
C1364 C1363 1.524 . S
C1364 C1365 1.397 . S
C1364 C1369 1.363 . S
C1365 H1336 0.950 . S
C1365 C1364 1.397 . S
C1365 C1366 1.334 . S
C1366 H1337 0.950 . S
C1366 C1365 1.334 . S
C1366 C1367 1.287 . S
C1367 C1366 1.287 . S
C1367 C1368 1.524 . S
C1367 H1370 0.999 . S
C1368 H1338 0.950 . S
C1368 C1367 1.524 . S
C1368 C1369 1.415 . S
C1369 H1339 0.950 . S
C1369 C1364 1.363 . S
C1369 C1368 1.415 . S
H1370 C1367 0.999 . S
H1371 C1352 0.913 . S
C191 C74 1.557 . S
C206 C104 1.388 . S
C256 C122 1.388 . S
C241 C85 1.556 . S
C306 C143 1.388 . S
C291 C52 1.556 . S
C356 C167 1.389 . S
C341 C63 1.556 . S
C406 C101 1.314 . S
C391 C30 1.442 . S
C441 C41 1.442 . S
C456 C125 1.313 . S
C491 C8 1.442 . S
C506 C146 1.315 . S
C541 C19 1.442 . S
C556 C164 1.313 . S
C606 C106 0.423 . S
C591 C62 0.336 . S
C656 C124 0.426 . S
C641 C73 0.335 . S
C706 C145 0.422 . S
C691 C84 0.336 . S
C741 C51 0.335 . S
C756 C169 0.426 . S
C791 C18 0.549 . S
C806 C105 0.500 . S
C856 C123 0.501 . S
C841 C29 0.547 . S
C906 C144 0.501 . S
C891 C40 0.548 . S
C941 C7 0.547 . S
C956 C168 0.502 . S
C991 C60 1.434 . S
C1006 C102 1.572 . S
C1041 C71 1.434 . S
C1056 C126 1.572 . S
C1106 C147 1.572 . S
C1091 C82 1.433 . S
C1156 C165 1.572 . S
C1141 C49 1.434 . S
C1191 C16 1.189 . S
C1206 C103 1.416 1_655 S
C1256 C127 1.416 1_565 S
C1241 C27 1.186 . S
C1306 C148 1.415 . S
C1291 C38 1.189 . S
C1341 C5 1.187 . S
C1356 C166 1.415 . S
