# Generated by pormake.
# Topology gar, (4,6)-cn, num edge types: 1
# Building blocks:
#     Node 0, Type 0, BuildingBlock: GALJAG_clean_sbu_0, # of connection points: 4
#     Node 1, Type 0, BuildingBlock: GALJAG_clean_sbu_0, # of connection points: 4
#     Node 2, Type 0, BuildingBlock: GALJAG_clean_sbu_0, # of connection points: 4
#     Node 3, Type 0, BuildingBlock: GALJAG_clean_sbu_0, # of connection points: 4
#     Node 4, Type 0, BuildingBlock: GALJAG_clean_sbu_0, # of connection points: 4
#     Node 5, Type 0, BuildingBlock: GALJAG_clean_sbu_0, # of connection points: 4
#     Node 6, Type 0, BuildingBlock: GALJAG_clean_sbu_0, # of connection points: 4
#     Node 7, Type 0, BuildingBlock: GALJAG_clean_sbu_0, # of connection points: 4
#     Node 8, Type 0, BuildingBlock: GALJAG_clean_sbu_0, # of connection points: 4
#     Node 9, Type 0, BuildingBlock: GALJAG_clean_sbu_0, # of connection points: 4
#     Node 10, Type 0, BuildingBlock: GALJAG_clean_sbu_0, # of connection points: 4
#     Node 11, Type 0, BuildingBlock: GALJAG_clean_sbu_0, # of connection points: 4
#     Node 12, Type 0, BuildingBlock: GALJAG_clean_sbu_0, # of connection points: 4
#     Node 13, Type 0, BuildingBlock: GALJAG_clean_sbu_0, # of connection points: 4
#     Node 14, Type 0, BuildingBlock: GALJAG_clean_sbu_0, # of connection points: 4
#     Node 15, Type 0, BuildingBlock: GALJAG_clean_sbu_0, # of connection points: 4
#     Node 16, Type 0, BuildingBlock: GALJAG_clean_sbu_0, # of connection points: 4
#     Node 17, Type 0, BuildingBlock: GALJAG_clean_sbu_0, # of connection points: 4
#     Node 18, Type 0, BuildingBlock: GALJAG_clean_sbu_0, # of connection points: 4
#     Node 19, Type 0, BuildingBlock: GALJAG_clean_sbu_0, # of connection points: 4
#     Node 20, Type 0, BuildingBlock: GALJAG_clean_sbu_0, # of connection points: 4
#     Node 21, Type 0, BuildingBlock: GALJAG_clean_sbu_0, # of connection points: 4
#     Node 22, Type 0, BuildingBlock: GALJAG_clean_sbu_0, # of connection points: 4
#     Node 23, Type 0, BuildingBlock: GALJAG_clean_sbu_0, # of connection points: 4
#     Node 24, Type 1, BuildingBlock: CUKXOW_clean_sbu_0, # of connection points: 6
#     Node 25, Type 1, BuildingBlock: CUKXOW_clean_sbu_0, # of connection points: 6
#     Node 26, Type 1, BuildingBlock: CUKXOW_clean_sbu_0, # of connection points: 6
#     Node 27, Type 1, BuildingBlock: CUKXOW_clean_sbu_0, # of connection points: 6
#     Node 28, Type 1, BuildingBlock: CUKXOW_clean_sbu_0, # of connection points: 6
#     Node 29, Type 1, BuildingBlock: CUKXOW_clean_sbu_0, # of connection points: 6
#     Node 30, Type 1, BuildingBlock: CUKXOW_clean_sbu_0, # of connection points: 6
#     Node 31, Type 1, BuildingBlock: CUKXOW_clean_sbu_0, # of connection points: 6
#     Node 32, Type 1, BuildingBlock: CUKXOW_clean_sbu_0, # of connection points: 6
#     Node 33, Type 1, BuildingBlock: CUKXOW_clean_sbu_0, # of connection points: 6
#     Node 34, Type 1, BuildingBlock: CUKXOW_clean_sbu_0, # of connection points: 6
#     Node 35, Type 1, BuildingBlock: CUKXOW_clean_sbu_0, # of connection points: 6
#     Node 36, Type 1, BuildingBlock: CUKXOW_clean_sbu_0, # of connection points: 6
#     Node 37, Type 1, BuildingBlock: CUKXOW_clean_sbu_0, # of connection points: 6
#     Node 38, Type 1, BuildingBlock: CUKXOW_clean_sbu_0, # of connection points: 6
#     Node 39, Type 1, BuildingBlock: CUKXOW_clean_sbu_0, # of connection points: 6
#     Edge 40, Type (0, 1), BuildingBlock: ZUJKAS_clean_linker_0, # of connection points: 2
#     Edge 41, Type (0, 1), BuildingBlock: ZUJKAS_clean_linker_0, # of connection points: 2
#     Edge 42, Type (0, 1), BuildingBlock: ZUJKAS_clean_linker_0, # of connection points: 2
#     Edge 43, Type (0, 1), BuildingBlock: ZUJKAS_clean_linker_0, # of connection points: 2
#     Edge 44, Type (0, 1), BuildingBlock: ZUJKAS_clean_linker_0, # of connection points: 2
#     Edge 45, Type (0, 1), BuildingBlock: ZUJKAS_clean_linker_0, # of connection points: 2
#     Edge 46, Type (0, 1), BuildingBlock: ZUJKAS_clean_linker_0, # of connection points: 2
#     Edge 47, Type (0, 1), BuildingBlock: ZUJKAS_clean_linker_0, # of connection points: 2
#     Edge 48, Type (0, 1), BuildingBlock: ZUJKAS_clean_linker_0, # of connection points: 2
#     Edge 49, Type (0, 1), BuildingBlock: ZUJKAS_clean_linker_0, # of connection points: 2
#     Edge 50, Type (0, 1), BuildingBlock: ZUJKAS_clean_linker_0, # of connection points: 2
#     Edge 51, Type (0, 1), BuildingBlock: ZUJKAS_clean_linker_0, # of connection points: 2
#     Edge 52, Type (0, 1), BuildingBlock: ZUJKAS_clean_linker_0, # of connection points: 2
#     Edge 53, Type (0, 1), BuildingBlock: ZUJKAS_clean_linker_0, # of connection points: 2
#     Edge 54, Type (0, 1), BuildingBlock: ZUJKAS_clean_linker_0, # of connection points: 2
#     Edge 55, Type (0, 1), BuildingBlock: ZUJKAS_clean_linker_0, # of connection points: 2
#     Edge 56, Type (0, 1), BuildingBlock: ZUJKAS_clean_linker_0, # of connection points: 2
#     Edge 57, Type (0, 1), BuildingBlock: ZUJKAS_clean_linker_0, # of connection points: 2
#     Edge 58, Type (0, 1), BuildingBlock: ZUJKAS_clean_linker_0, # of connection points: 2
#     Edge 59, Type (0, 1), BuildingBlock: ZUJKAS_clean_linker_0, # of connection points: 2
#     Edge 60, Type (0, 1), BuildingBlock: ZUJKAS_clean_linker_0, # of connection points: 2
#     Edge 61, Type (0, 1), BuildingBlock: ZUJKAS_clean_linker_0, # of connection points: 2
#     Edge 62, Type (0, 1), BuildingBlock: ZUJKAS_clean_linker_0, # of connection points: 2
#     Edge 63, Type (0, 1), BuildingBlock: ZUJKAS_clean_linker_0, # of connection points: 2
#     Edge 64, Type (0, 1), BuildingBlock: ZUJKAS_clean_linker_0, # of connection points: 2
#     Edge 65, Type (0, 1), BuildingBlock: ZUJKAS_clean_linker_0, # of connection points: 2
#     Edge 66, Type (0, 1), BuildingBlock: ZUJKAS_clean_linker_0, # of connection points: 2
#     Edge 67, Type (0, 1), BuildingBlock: ZUJKAS_clean_linker_0, # of connection points: 2
#     Edge 68, Type (0, 1), BuildingBlock: ZUJKAS_clean_linker_0, # of connection points: 2
#     Edge 69, Type (0, 1), BuildingBlock: ZUJKAS_clean_linker_0, # of connection points: 2
#     Edge 70, Type (0, 1), BuildingBlock: ZUJKAS_clean_linker_0, # of connection points: 2
#     Edge 71, Type (0, 1), BuildingBlock: ZUJKAS_clean_linker_0, # of connection points: 2
#     Edge 72, Type (0, 1), BuildingBlock: ZUJKAS_clean_linker_0, # of connection points: 2
#     Edge 73, Type (0, 1), BuildingBlock: ZUJKAS_clean_linker_0, # of connection points: 2
#     Edge 74, Type (0, 1), BuildingBlock: ZUJKAS_clean_linker_0, # of connection points: 2
#     Edge 75, Type (0, 1), BuildingBlock: ZUJKAS_clean_linker_0, # of connection points: 2
#     Edge 76, Type (0, 1), BuildingBlock: ZUJKAS_clean_linker_0, # of connection points: 2
#     Edge 77, Type (0, 1), BuildingBlock: ZUJKAS_clean_linker_0, # of connection points: 2
#     Edge 78, Type (0, 1), BuildingBlock: ZUJKAS_clean_linker_0, # of connection points: 2
#     Edge 79, Type (0, 1), BuildingBlock: ZUJKAS_clean_linker_0, # of connection points: 2
#     Edge 80, Type (0, 1), BuildingBlock: ZUJKAS_clean_linker_0, # of connection points: 2
#     Edge 81, Type (0, 1), BuildingBlock: ZUJKAS_clean_linker_0, # of connection points: 2
#     Edge 82, Type (0, 1), BuildingBlock: ZUJKAS_clean_linker_0, # of connection points: 2
#     Edge 83, Type (0, 1), BuildingBlock: ZUJKAS_clean_linker_0, # of connection points: 2
#     Edge 84, Type (0, 1), BuildingBlock: ZUJKAS_clean_linker_0, # of connection points: 2
#     Edge 85, Type (0, 1), BuildingBlock: ZUJKAS_clean_linker_0, # of connection points: 2
#     Edge 86, Type (0, 1), BuildingBlock: ZUJKAS_clean_linker_0, # of connection points: 2
#     Edge 87, Type (0, 1), BuildingBlock: ZUJKAS_clean_linker_0, # of connection points: 2
#     Edge 88, Type (0, 1), BuildingBlock: ZUJKAS_clean_linker_0, # of connection points: 2
#     Edge 89, Type (0, 1), BuildingBlock: ZUJKAS_clean_linker_0, # of connection points: 2
#     Edge 90, Type (0, 1), BuildingBlock: ZUJKAS_clean_linker_0, # of connection points: 2
#     Edge 91, Type (0, 1), BuildingBlock: ZUJKAS_clean_linker_0, # of connection points: 2
#     Edge 92, Type (0, 1), BuildingBlock: ZUJKAS_clean_linker_0, # of connection points: 2
#     Edge 93, Type (0, 1), BuildingBlock: ZUJKAS_clean_linker_0, # of connection points: 2
#     Edge 94, Type (0, 1), BuildingBlock: ZUJKAS_clean_linker_0, # of connection points: 2
#     Edge 95, Type (0, 1), BuildingBlock: ZUJKAS_clean_linker_0, # of connection points: 2
#     Edge 96, Type (0, 1), BuildingBlock: ZUJKAS_clean_linker_0, # of connection points: 2
#     Edge 97, Type (0, 1), BuildingBlock: ZUJKAS_clean_linker_0, # of connection points: 2
#     Edge 98, Type (0, 1), BuildingBlock: ZUJKAS_clean_linker_0, # of connection points: 2
#     Edge 99, Type (0, 1), BuildingBlock: ZUJKAS_clean_linker_0, # of connection points: 2
#     Edge 100, Type (0, 1), BuildingBlock: ZUJKAS_clean_linker_0, # of connection points: 2
#     Edge 101, Type (0, 1), BuildingBlock: ZUJKAS_clean_linker_0, # of connection points: 2
#     Edge 102, Type (0, 1), BuildingBlock: ZUJKAS_clean_linker_0, # of connection points: 2
#     Edge 103, Type (0, 1), BuildingBlock: ZUJKAS_clean_linker_0, # of connection points: 2
#     Edge 104, Type (0, 1), BuildingBlock: ZUJKAS_clean_linker_0, # of connection points: 2
#     Edge 105, Type (0, 1), BuildingBlock: ZUJKAS_clean_linker_0, # of connection points: 2
#     Edge 106, Type (0, 1), BuildingBlock: ZUJKAS_clean_linker_0, # of connection points: 2
#     Edge 107, Type (0, 1), BuildingBlock: ZUJKAS_clean_linker_0, # of connection points: 2
#     Edge 108, Type (0, 1), BuildingBlock: ZUJKAS_clean_linker_0, # of connection points: 2
#     Edge 109, Type (0, 1), BuildingBlock: ZUJKAS_clean_linker_0, # of connection points: 2
#     Edge 110, Type (0, 1), BuildingBlock: ZUJKAS_clean_linker_0, # of connection points: 2
#     Edge 111, Type (0, 1), BuildingBlock: ZUJKAS_clean_linker_0, # of connection points: 2
#     Edge 112, Type (0, 1), BuildingBlock: ZUJKAS_clean_linker_0, # of connection points: 2
#     Edge 113, Type (0, 1), BuildingBlock: ZUJKAS_clean_linker_0, # of connection points: 2
#     Edge 114, Type (0, 1), BuildingBlock: ZUJKAS_clean_linker_0, # of connection points: 2
#     Edge 115, Type (0, 1), BuildingBlock: ZUJKAS_clean_linker_0, # of connection points: 2
#     Edge 116, Type (0, 1), BuildingBlock: ZUJKAS_clean_linker_0, # of connection points: 2
#     Edge 117, Type (0, 1), BuildingBlock: ZUJKAS_clean_linker_0, # of connection points: 2
#     Edge 118, Type (0, 1), BuildingBlock: ZUJKAS_clean_linker_0, # of connection points: 2
#     Edge 119, Type (0, 1), BuildingBlock: ZUJKAS_clean_linker_0, # of connection points: 2
#     Edge 120, Type (0, 1), BuildingBlock: ZUJKAS_clean_linker_0, # of connection points: 2
#     Edge 121, Type (0, 1), BuildingBlock: ZUJKAS_clean_linker_0, # of connection points: 2
#     Edge 122, Type (0, 1), BuildingBlock: ZUJKAS_clean_linker_0, # of connection points: 2
#     Edge 123, Type (0, 1), BuildingBlock: ZUJKAS_clean_linker_0, # of connection points: 2
#     Edge 124, Type (0, 1), BuildingBlock: ZUJKAS_clean_linker_0, # of connection points: 2
#     Edge 125, Type (0, 1), BuildingBlock: ZUJKAS_clean_linker_0, # of connection points: 2
#     Edge 126, Type (0, 1), BuildingBlock: ZUJKAS_clean_linker_0, # of connection points: 2
#     Edge 127, Type (0, 1), BuildingBlock: ZUJKAS_clean_linker_0, # of connection points: 2
#     Edge 128, Type (0, 1), BuildingBlock: ZUJKAS_clean_linker_0, # of connection points: 2
#     Edge 129, Type (0, 1), BuildingBlock: ZUJKAS_clean_linker_0, # of connection points: 2
#     Edge 130, Type (0, 1), BuildingBlock: ZUJKAS_clean_linker_0, # of connection points: 2
#     Edge 131, Type (0, 1), BuildingBlock: ZUJKAS_clean_linker_0, # of connection points: 2
#     Edge 132, Type (0, 1), BuildingBlock: ZUJKAS_clean_linker_0, # of connection points: 2
#     Edge 133, Type (0, 1), BuildingBlock: ZUJKAS_clean_linker_0, # of connection points: 2
#     Edge 134, Type (0, 1), BuildingBlock: ZUJKAS_clean_linker_0, # of connection points: 2
#     Edge 135, Type (0, 1), BuildingBlock: ZUJKAS_clean_linker_0, # of connection points: 2
# Relax obj value: 0.121
# Max RMSD: 0.218
# Mean RMSD: 0.144
data_MOF--net-gar--node1-GALJAG_clean_sbu_0--node2-CUKXOW_clean_sbu_0--edge1-ZUJKAS_clean_linker_0
_symmetry_space_group_name_H-M    P1
_symmetry_Int_Tables_number       1
_symmetry_cell_setting            triclinic
loop_
_symmetry_equiv_pos_as_xyz
'x, y, z'
_cell_length_a     71.284303
_cell_length_b     69.653378
_cell_length_c     69.974583
_cell_angle_alpha  93.485833
_cell_angle_beta   95.397623
_cell_angle_gamma 99.026938
loop_
_atom_site_label
_atom_site_type_symbol
_atom_site_fract_x
_atom_site_fract_y
_atom_site_fract_z
_atom_type_partial_charge
In0 In 0.03003 0.2717 0.42405 0.0
O1 O 0.03782 0.2702 0.3933 0.0
O2 O 0.06045 0.27267 0.41572 0.0
C3 C 0.99538 0.26896 0.40423 0.0
C4 C 0.029 0.23976 0.44403 0.0
C5 C 0.03784 0.30512 0.44714 0.0
O6 O 0.00533 0.25551 0.40339 0.0
O7 O 0.00279 0.2837 0.41535 0.0
O8 O 0.03403 0.28862 0.45362 0.0
O9 O 0.03794 0.30472 0.42912 0.0
C10 C 0.05546 0.27113 0.39784 0.0
O11 O 0.04391 0.24771 0.43742 0.0
O12 O 0.01468 0.24812 0.44086 0.0
In13 In 1.00007 0.77996 0.62096 0.0
O14 O 0.01362 0.79903 0.59905 0.0
O15 O 0.99103 0.80853 0.61295 0.0
C16 C 0.99362 0.7468 0.59761 0.0
C17 C 0.03401 0.78754 0.64257 0.0
C18 C 0.97127 0.77521 0.64347 0.0
O19 O 0.99037 0.76287 0.59186 0.0
O20 O 0.99992 0.74745 0.61512 0.0
O21 O 0.98817 0.77372 0.64942 0.0
O22 O 0.96881 0.77886 0.62607 0.0
C23 C 0.00315 0.81189 0.60103 0.0
O24 O 0.02125 0.79803 0.64409 0.0
O25 O 0.02968 0.77328 0.63009 0.0
In26 In 0.53089 0.7703 0.9235 0.0
O27 O 0.53766 0.77257 0.89256 0.0
O28 O 0.56084 0.7723 0.91389 0.0
C29 C 0.49486 0.76333 0.90628 0.0
C30 C 0.53175 0.73884 0.94395 0.0
C31 C 0.53975 0.80496 0.94448 0.0
O32 O 0.50704 0.75261 0.90279 0.0
O33 O 0.50075 0.77735 0.91878 0.0
O34 O 0.5421 0.78915 0.95149 0.0
O35 O 0.53314 0.80323 0.92702 0.0
C36 C 0.55536 0.77304 0.89631 0.0
O37 O 0.54334 0.74347 0.93181 0.0
O38 O 0.51989 0.75027 0.94604 0.0
In39 In 0.49677 0.28221 0.12072 0.0
O40 O 0.48698 0.2634 0.09253 0.0
O41 O 0.4951 0.2493 0.11731 0.0
C42 C 0.50036 0.31316 0.09933 0.0
C43 C 0.46825 0.28042 0.14358 0.0
C44 C 0.53103 0.28901 0.14184 0.0
O45 O 0.51075 0.30013 0.09813 0.0
O46 O 0.48805 0.31042 0.11111 0.0
O47 O 0.51878 0.30012 0.14328 0.0
O48 O 0.52603 0.27456 0.12966 0.0
C49 C 0.4893 0.24762 0.09962 0.0
O50 O 0.48525 0.27966 0.14986 0.0
O51 O 0.46554 0.28177 0.12567 0.0
In52 In 0.9987 0.76598 0.15585 0.0
O53 O 0.99961 0.7478 0.12779 0.0
O54 O 0.99206 0.73251 0.15194 0.0
C55 C 0.99947 0.79741 0.13473 0.0
C56 C 0.96743 0.76479 0.17568 0.0
C57 C 0.03399 0.77036 0.17567 0.0
O58 O 0.98924 0.78115 0.12945 0.0
O59 O 0.00932 0.79794 0.15079 0.0
O60 O 0.0205 0.7778 0.18197 0.0
O61 O 0.02969 0.76095 0.15948 0.0
C62 C 0.99506 0.73151 0.13445 0.0
O63 O 0.98196 0.75775 0.18164 0.0
O64 O 0.96872 0.77241 0.15991 0.0
In65 In 0.53019 0.7895 0.37784 0.0
O66 O 0.54707 0.79056 0.35118 0.0
O67 O 0.5622 0.78868 0.37823 0.0
C68 C 0.49714 0.78516 0.35407 0.0
C69 C 0.52845 0.75961 0.40096 0.0
C70 C 0.52897 0.82267 0.39958 0.0
O71 O 0.50521 0.77097 0.35863 0.0
O72 O 0.50597 0.80157 0.36107 0.0
O73 O 0.51983 0.80632 0.40267 0.0
O74 O 0.53873 0.82236 0.38544 0.0
C75 C 0.56289 0.78956 0.36042 0.0
O76 O 0.5372 0.77651 0.4064 0.0
O77 O 0.52058 0.75778 0.38388 0.0
In78 In 0.49907 0.26999 0.65997 0.0
O79 O 0.50088 0.25443 0.63067 0.0
O80 O 0.49416 0.23684 0.65361 0.0
C81 C 0.49948 0.30024 0.63726 0.0
C82 C 0.4683 0.26869 0.68037 0.0
C83 C 0.5322 0.27327 0.68354 0.0
O84 O 0.51402 0.29253 0.64157 0.0
O85 O 0.4847 0.29271 0.64438 0.0
O86 O 0.52363 0.28752 0.68068 0.0
O87 O 0.52381 0.25735 0.67501 0.0
C88 C 0.49716 0.23745 0.63614 0.0
O89 O 0.48455 0.27807 0.68663 0.0
O90 O 0.46766 0.25979 0.66403 0.0
In91 In 0.03002 0.28684 0.87576 0.0
O92 O 0.04334 0.27156 0.90051 0.0
O93 O 0.01991 0.25538 0.88256 0.0
C94 C 0.0299 0.32079 0.89665 0.0
C95 C 0.06138 0.28883 0.85606 0.0
C96 C 0.99505 0.28327 0.85553 0.0
O97 O 0.03007 0.30477 0.90413 0.0
O98 O 0.03008 0.31978 0.87857 0.0
O99 O 0.01008 0.28297 0.84738 0.0
O100 O 0.99771 0.28538 0.87365 0.0
C101 C 0.03209 0.25563 0.89686 0.0
O102 O 0.04698 0.27565 0.85224 0.0
O103 O 0.05983 0.30117 0.8695 0.0
In104 In 0.40316 0.06482 0.25437 0.0
O105 O 0.42685 0.07588 0.23533 0.0
O106 O 0.40749 0.05025 0.22532 0.0
C107 C 0.42268 0.06828 0.29009 0.0
C108 C 0.38315 0.09464 0.24903 0.0
C109 C 0.38183 0.02974 0.25771 0.0
O110 O 0.43077 0.06664 0.2749 0.0
O111 O 0.40505 0.06875 0.28719 0.0
O112 O 0.37465 0.04511 0.25631 0.0
O113 O 0.39971 0.03207 0.25734 0.0
C114 C 0.4218 0.06227 0.22222 0.0
O115 O 0.37782 0.07773 0.24095 0.0
O116 O 0.39885 0.09672 0.2595 0.0
In117 In 0.27622 0.15278 0.50293 0.0
O118 O 0.29474 0.17801 0.52165 0.0
O119 O 0.2714 0.16176 0.53349 0.0
C120 C 0.27792 0.1773 0.47473 0.0
C121 C 0.30037 0.12721 0.50913 0.0
C122 C 0.24105 0.13214 0.49294 0.0
O123 O 0.26819 0.17918 0.48867 0.0
O124 O 0.28674 0.16295 0.47494 0.0
O125 O 0.25535 0.12881 0.48473 0.0
O126 O 0.24453 0.14588 0.50599 0.0
C127 C 0.28522 0.17568 0.53588 0.0
O128 O 0.28559 0.12714 0.5177 0.0
O129 O 0.30294 0.14014 0.49734 0.0
In130 In 0.15066 0.0054 0.79299 0.0
O131 O 0.12433 0.00836 0.77292 0.0
O132 O 0.14399 0.99161 0.76211 0.0
C133 C 0.12924 0.00255 0.82306 0.0
C134 C 0.17352 0.9777 0.79388 0.0
C135 C 0.16907 0.04261 0.79264 0.0
O136 O 0.12446 0.99261 0.80721 0.0
O137 O 0.14504 0.01385 0.82394 0.0
O138 O 0.17533 0.03057 0.80336 0.0
O139 O 0.15365 0.03593 0.78246 0.0
C140 C 0.12867 0.99833 0.75888 0.0
O141 O 0.17711 0.99299 0.78521 0.0
O142 O 0.15867 0.97658 0.8025 0.0
In143 In 0.23032 0.89682 0.03272 0.0
O144 O 0.22938 0.86839 0.04822 0.0
O145 O 0.23202 0.89487 0.06546 0.0
C146 C 0.22819 0.87944 0.99632 0.0
C147 C 0.20063 0.9172 0.03477 0.0
C148 C 0.26669 0.91601 0.03476 0.0
O149 O 0.22097 0.87071 0.00987 0.0
O150 O 0.23572 0.8969 1.00098 0.0
O151 O 0.25233 0.92408 0.03058 0.0
O152 O 0.26272 0.89832 0.03814 0.0
C153 C 0.23112 0.87664 0.06501 0.0
O154 O 0.21766 0.92406 0.04098 0.0
O155 O 0.19835 0.89989 0.02738 0.0
In156 In 0.25648 0.41219 0.0388 0.0
O157 O 0.2643 0.38772 0.05612 0.0
O158 O 0.24127 0.40129 0.06441 0.0
C159 C 0.25622 0.38517 0.00972 0.0
C160 C 0.22836 0.43277 0.02969 0.0
C161 C 0.28921 0.43818 0.04508 0.0
O162 O 0.24189 0.38613 0.01882 0.0
O163 O 0.27067 0.39789 0.01528 0.0
O164 O 0.27869 0.43587 0.02936 0.0
O165 O 0.28301 0.42774 0.05793 0.0
C166 C 0.25143 0.3882 0.06722 0.0
O167 O 0.23623 0.43324 0.04669 0.0
O168 O 0.2347 0.42203 0.01757 0.0
In169 In 0.80269 0.16927 0.0116 0.0
O170 O 0.81601 0.14139 0.00983 0.0
O171 O 0.83504 0.16828 0.01319 0.0
C172 C 0.76888 0.14505 0.0118 0.0
C173 C 0.80249 0.19209 0.04482 0.0
C174 C 0.8026 0.18767 0.97818 0.0
O175 O 0.78278 0.14527 0.02442 0.0
O176 O 0.77215 0.15673 0.999 0.0
O177 O 0.80494 0.19688 0.99457 0.0
O178 O 0.80104 0.16944 0.97873 0.0
C179 C 0.83313 0.14988 0.01152 0.0
O180 O 0.81543 0.18207 0.04215 0.0
O181 O 0.79015 0.19124 0.03053 0.0
In182 In 0.12026 0.48858 0.27848 0.0
O183 O 0.1466 0.47421 0.27549 0.0
O184 O 0.12187 0.45623 0.2827 0.0
C185 C 0.14252 0.52381 0.27826 0.0
C186 C 0.0991 0.48573 0.24371 0.0
C187 C 0.10284 0.49151 0.31132 0.0
O188 O 0.14732 0.51058 0.2883 0.0
O189 O 0.12648 0.51933 0.26844 0.0
O190 O 0.09513 0.48064 0.29668 0.0
O191 O 0.1192 0.50055 0.30942 0.0
C192 C 0.13907 0.45747 0.27925 0.0
O193 O 0.09325 0.49182 0.25908 0.0
O194 O 0.11532 0.48061 0.24598 0.0
In195 In 0.76099 0.91693 0.54121 0.0
O196 O 0.76658 0.89328 0.56091 0.0
O197 O 0.74156 0.90581 0.5637 0.0
C198 C 0.76371 0.89167 0.5113 0.0
C199 C 0.73461 0.9394 0.53185 0.0
C200 C 0.79406 0.94188 0.54987 0.0
O201 O 0.74869 0.89131 0.51953 0.0
O202 O 0.77737 0.90472 0.51819 0.0
O203 O 0.78365 0.94139 0.5342 0.0
O204 O 0.78756 0.93004 0.56152 0.0
C205 C 0.75162 0.8934 0.56917 0.0
O206 O 0.74424 0.94142 0.54815 0.0
O207 O 0.73828 0.92608 0.52047 0.0
In208 In 0.87528 0.05676 0.24343 0.0
O209 O 0.90156 0.06946 0.22927 0.0
O210 O 0.87855 0.05232 0.2113 0.0
C211 C 0.89711 0.05485 0.27677 0.0
C212 C 0.85711 0.08818 0.24414 0.0
C213 C 0.8543 0.02059 0.24239 0.0
O214 O 0.90306 0.05246 0.26053 0.0
O215 O 0.88021 0.0582 0.27619 0.0
O216 O 0.84924 0.03544 0.25028 0.0
O217 O 0.86963 0.02405 0.23468 0.0
C218 C 0.89522 0.06198 0.21259 0.0
O219 O 0.85044 0.07265 0.23386 0.0
O220 O 0.87297 0.08793 0.25362 0.0
In221 In 0.30038 0.66634 0.51543 0.0
O222 O 0.31391 0.63852 0.51514 0.0
O223 O 0.33284 0.66531 0.51669 0.0
C224 C 0.26392 0.64701 0.51194 0.0
C225 C 0.30324 0.68386 0.55187 0.0
C226 C 0.29826 0.68533 0.48234 0.0
O227 O 0.2781 0.63841 0.51048 0.0
O228 O 0.26812 0.66529 0.51493 0.0
O229 O 0.29847 0.69375 0.49885 0.0
O230 O 0.29972 0.66754 0.48252 0.0
C231 C 0.33099 0.64693 0.51599 0.0
O232 O 0.31014 0.6925 0.53812 0.0
O233 O 0.29565 0.66638 0.54739 0.0
In234 In 0.37683 0.55682 0.74761 0.0
O235 O 0.34884 0.56942 0.74346 0.0
O236 O 0.37457 0.58911 0.75136 0.0
C237 C 0.35582 0.52084 0.74822 0.0
C238 C 0.39698 0.56178 0.71682 0.0
C239 C 0.40067 0.55666 0.77996 0.0
O240 O 0.35678 0.53405 0.76159 0.0
O241 O 0.36506 0.5259 0.73434 0.0
O242 O 0.40191 0.54661 0.76465 0.0
O243 O 0.38742 0.56672 0.77895 0.0
C244 C 0.35671 0.58688 0.74764 0.0
O245 O 0.40398 0.56741 0.73383 0.0
O246 O 0.37968 0.55382 0.71523 0.0
In247 In 0.62413 0.99088 0.78065 0.0
O248 O 0.65014 0.9756 0.78035 0.0
O249 O 0.62327 0.95751 0.77975 0.0
C250 C 0.64476 0.02725 0.78443 0.0
C251 C 0.6071 0.98945 0.74398 0.0
C252 C 0.60644 0.99228 0.81352 0.0
O253 O 0.652 0.01227 0.78789 0.0
O254 O 0.62704 0.02395 0.77924 0.0
O255 O 0.59743 0.99076 0.79695 0.0
O256 O 0.62416 0.99264 0.81348 0.0
C257 C 0.64111 0.9585 0.77985 0.0
O258 O 0.59778 0.98512 0.75803 0.0
O259 O 0.62486 0.99407 0.74839 0.0
In260 In 0.77956 0.66165 0.00374 0.0
O261 O 0.79467 0.64472 0.02558 0.0
O262 O 0.80252 0.64357 0.99709 0.0
C263 C 0.74577 0.63776 0.00277 0.0
C264 C 0.78037 0.69322 0.02807 0.0
C265 C 0.78604 0.67944 0.97135 0.0
O266 O 0.75672 0.63675 0.98972 0.0
O267 O 0.75194 0.65066 0.01626 0.0
O268 O 0.79789 0.68224 0.9862 0.0
O269 O 0.77108 0.6675 0.97279 0.0
C270 C 0.80506 0.63833 0.01393 0.0
O271 O 0.76694 0.68772 0.01485 0.0
O272 O 0.79343 0.68289 0.02884 0.0
In273 In 0.90301 0.56855 0.75367 0.0
O274 O 0.87534 0.58071 0.74794 0.0
O275 O 0.90088 0.60126 0.75387 0.0
C276 C 0.88017 0.53382 0.75523 0.0
C277 C 0.92191 0.56896 0.72166 0.0
C278 C 0.9247 0.56979 0.78803 0.0
O279 O 0.87925 0.54863 0.76615 0.0
O280 O 0.89251 0.53653 0.74349 0.0
O281 O 0.92625 0.55841 0.77375 0.0
O282 O 0.91274 0.58106 0.78479 0.0
C283 C 0.88292 0.59841 0.75007 0.0
O284 O 0.93047 0.57274 0.73842 0.0
O285 O 0.90396 0.56563 0.72107 0.0
In286 In 0.727 0.39426 0.52954 0.0
O287 O 0.7338 0.36714 0.54446 0.0
O288 O 0.72043 0.38707 0.56018 0.0
C289 C 0.72695 0.37592 0.49385 0.0
C290 C 0.69675 0.41407 0.53023 0.0
C291 C 0.76184 0.41734 0.53406 0.0
O292 O 0.71694 0.36841 0.50633 0.0
O293 O 0.73639 0.39248 0.49929 0.0
O294 O 0.74772 0.42153 0.52385 0.0
O295 O 0.75826 0.40187 0.54244 0.0
C296 C 0.72757 0.37161 0.56015 0.0
O297 O 0.71289 0.42011 0.53942 0.0
O298 O 0.69568 0.39788 0.52068 0.0
In299 In 0.65228 0.5079 0.29321 0.0
O300 O 0.6768 0.49414 0.28226 0.0
O301 O 0.66087 0.47921 0.30245 0.0
C302 C 0.67044 0.54533 0.29625 0.0
C303 C 0.63179 0.50054 0.25827 0.0
C304 C 0.63124 0.50748 0.32353 0.0
O305 O 0.67893 0.53137 0.30076 0.0
O306 O 0.65285 0.54041 0.29091 0.0
O307 O 0.62392 0.50556 0.30626 0.0
O308 O 0.64926 0.50974 0.32558 0.0
C309 C 0.67421 0.47939 0.29184 0.0
O310 O 0.6286 0.48986 0.27192 0.0
O311 O 0.6452 0.5147 0.26229 0.0
Tb312 Tb 0.0224 0.0503 0.01666 0.0
C313 C 0.01942 0.01763 0.98188 0.0
Tb314 Tb 0.00671 0.00708 0.02274 0.0
O315 O 0.04855 0.04852 0.03589 0.0
O316 O 0.03323 0.02416 0.0202 0.0
O317 O 0.02141 0.03653 0.98757 0.0
C318 C 0.0064 0.97091 0.03315 0.0
O319 O 0.01443 0.00346 0.99333 0.0
C320 C 0.98055 0.02956 0.01735 0.0
C321 C 0.00799 0.04006 0.05611 0.0
O322 O 0.99483 0.9758 0.01936 0.0
O323 O 0.01802 0.98629 0.04072 0.0
O324 O 0.97798 0.01355 0.02608 0.0
O325 O 0.99626 0.0308 0.0102 0.0
O326 O 0.01001 0.02172 0.05171 0.0
O327 O 0.01036 0.05368 0.04375 0.0
C328 C 0.02786 0.08602 0.00412 0.0
O329 O 0.03998 0.07392 0.00398 0.0
O330 O 0.01279 0.0781 0.01156 0.0
C331 C 0.04706 0.0297 0.03274 0.0
Tb332 Tb 0.26835 0.79923 0.27631 0.0
C333 C 0.30271 0.7743 0.27525 0.0
Tb334 Tb 0.2593 0.75342 0.26697 0.0
O335 O 0.26004 0.79585 0.30561 0.0
O336 O 0.27014 0.77363 0.29084 0.0
O337 O 0.29713 0.79172 0.27645 0.0
C338 C 0.24833 0.71619 0.27303 0.0
O339 O 0.29051 0.75749 0.27268 0.0
C340 C 0.2586 0.77271 0.23536 0.0
C341 C 0.22575 0.77888 0.2652 0.0
O342 O 0.25896 0.72232 0.25978 0.0
O343 O 0.24405 0.73103 0.2829 0.0
O344 O 0.25601 0.75376 0.23504 0.0
O345 O 0.26154 0.77878 0.25278 0.0
O346 O 0.23098 0.76175 0.26861 0.0
O347 O 0.23827 0.79521 0.2652 0.0
C348 C 0.28178 0.83682 0.2734 0.0
O349 O 0.27147 0.83011 0.28663 0.0
O350 O 0.28444 0.82241 0.26191 0.0
C351 C 0.26281 0.77782 0.30589 0.0
Tb352 Tb 0.5354 0.0338 0.51234 0.0
C353 C 0.52659 0.0191 0.55356 0.0
Tb354 Tb 0.49489 0.02865 0.52354 0.0
O355 O 0.53663 0.06547 0.51353 0.0
O356 O 0.52032 0.04845 0.53155 0.0
O357 O 0.53782 0.01921 0.53938 0.0
C358 C 0.46136 0.0368 0.53243 0.0
O359 O 0.50965 0.0248 0.55133 0.0
C360 C 0.50554 0.99689 0.5094 0.0
C361 C 0.50348 0.04248 0.48165 0.0
O362 O 0.46483 0.01946 0.52785 0.0
O363 O 0.47669 0.04942 0.53195 0.0
O364 O 0.49293 0.99686 0.52169 0.0
O365 O 0.50994 0.01393 0.5044 0.0
O366 O 0.4914 0.04048 0.49511 0.0
O367 O 0.5213 0.03902 0.48464 0.0
C368 C 0.56993 0.0279 0.50429 0.0
O369 O 0.5665 0.04216 0.51551 0.0
O370 O 0.55393 0.01706 0.49754 0.0
C371 C 0.52441 0.0654 0.52621 0.0
Tb372 Tb 0.26859 0.28478 0.79189 0.0
C373 C 0.27692 0.32028 0.76686 0.0
Tb374 Tb 0.26399 0.2762 0.74866 0.0
O375 O 0.29964 0.29139 0.79195 0.0
O376 O 0.28327 0.27077 0.7716 0.0
O377 O 0.2727 0.3148 0.78402 0.0
C378 C 0.27268 0.27291 0.71256 0.0
O379 O 0.27538 0.30759 0.75156 0.0
C380 C 0.23259 0.28101 0.76358 0.0
C381 C 0.25502 0.24101 0.77392 0.0
O382 O 0.28475 0.27866 0.72757 0.0
O383 O 0.2556 0.26898 0.71782 0.0
O384 O 0.23282 0.27031 0.74776 0.0
O385 O 0.24919 0.29002 0.76887 0.0
O386 O 0.26041 0.24627 0.75706 0.0
O387 O 0.2557 0.25389 0.78888 0.0
C388 C 0.2622 0.28844 0.82869 0.0
O389 O 0.24944 0.28771 0.8141 0.0
O390 O 0.27862 0.28724 0.82259 0.0
C391 C 0.29984 0.28 0.7766 0.0
Tb392 Tb 0.01166 0.02186 0.49237 0.0
C393 C 0.9852 0.01306 0.52476 0.0
Tb394 Tb 0.0305 0.02023 0.53351 0.0
O395 O 1.00005 0.99077 0.49112 0.0
O396 O 0.02581 0.00212 0.50766 0.0
O397 O 0.98659 0.02056 0.50786 0.0
C398 C 0.04188 0.01111 0.56873 0.0
O399 O 1.00029 0.00939 0.53575 0.0
C400 C 0.02859 0.05507 0.52254 0.0
C401 C 0.05707 0.02944 0.5012 0.0
O402 O 0.03272 0.0253 0.56481 0.0
O403 O 0.04473 0.00201 0.55278 0.0
O404 O 0.04192 0.05137 0.53507 0.0
O405 O 0.01636 0.03997 0.51825 0.0
O406 O 0.05581 0.02245 0.51836 0.0
O407 O 0.04188 0.03213 0.48974 0.0
C408 C 0.99951 0.031 0.45738 0.0
O409 O 0.00639 0.01534 0.4612 0.0
O410 O 0.99948 0.0416 0.47328 0.0
C411 C 0.01357 0.98704 0.5034 0.0
Tb412 Tb 0.28681 0.78271 0.78213 0.0
C413 C 0.25736 0.79231 0.81052 0.0
Tb414 Tb 0.24545 0.78266 0.76521 0.0
O415 O 0.29048 0.81393 0.79051 0.0
O416 O 0.2717 0.8017 0.76671 0.0
O417 O 0.27388 0.78606 0.80893 0.0
C418 C 0.21166 0.79193 0.75347 0.0
O419 O 0.24498 0.79346 0.79532 0.0
C420 C 0.25478 0.7482 0.76967 0.0
C421 C 0.27494 0.77315 0.73678 0.0
O422 O 0.21425 0.77683 0.76275 0.0
O423 O 0.22808 0.80175 0.75072 0.0
O424 O 0.2416 0.7515 0.75675 0.0
O425 O 0.26054 0.76358 0.78048 0.0
O426 O 0.25836 0.77931 0.73838 0.0
O427 O 0.28738 0.77209 0.75198 0.0
C428 C 0.3202 0.77297 0.79466 0.0
O429 O 0.30357 0.76327 0.79675 0.0
O430 O 0.3181 0.78827 0.78546 0.0
C431 C 0.27739 0.81712 0.77742 0.0
Tb432 Tb 0.49736 0.01821 0.0183 0.0
C433 C 0.52817 0.99123 0.0231 0.0
Tb434 Tb 0.53942 0.03731 0.02308 0.0
O435 O 0.5006 0.00312 0.99084 0.0
O436 O 0.51765 0.02995 0.99981 0.0
O437 O 0.51025 0.99303 0.02543 0.0
C438 C 0.5765 0.04927 0.02002 0.0
O439 O 0.54128 0.00623 0.02012 0.0
C440 C 0.5216 0.03973 0.0541 0.0
C441 C 0.50856 0.06428 0.01803 0.0
O442 O 0.56954 0.04165 0.03484 0.0
O443 O 0.56258 0.05008 0.0069 0.0
O444 O 0.53597 0.05242 0.05054 0.0
O445 O 0.51915 0.02557 0.04148 0.0
O446 O 0.52656 0.06256 0.01599 0.0
O447 O 0.49539 0.04925 0.02079 0.0
C448 C 0.46048 0.00614 0.0222 0.0
O449 O 0.46711 0.01275 0.0068 0.0
O450 O 0.47459 0.0064 0.03538 0.0
C451 C 0.51501 0.01574 0.9872 0.0
Tb452 Tb 0.23343 0.26075 0.26301 0.0
C453 C 0.26116 0.27098 0.30226 0.0
Tb454 Tb 0.27515 0.27924 0.26251 0.0
O455 O 0.23874 0.23349 0.24864 0.0
O456 O 0.26022 0.25145 0.26678 0.0
O457 O 0.24341 0.26808 0.29362 0.0
C458 C 0.31158 0.28492 0.25533 0.0
O459 O 0.27637 0.27376 0.29261 0.0
C460 C 0.25194 0.30358 0.27049 0.0
C461 C 0.24721 0.27014 0.22334 0.0
O462 O 0.30253 0.2692 0.26133 0.0
O463 O 0.30016 0.29765 0.25358 0.0
O464 O 0.27001 0.30656 0.27683 0.0
O465 O 0.24841 0.28859 0.25891 0.0
O466 O 0.265 0.27267 0.23187 0.0
O467 O 0.23206 0.26691 0.23304 0.0
C468 C 0.1971 0.25467 0.27062 0.0
O469 O 0.20893 0.24241 0.27298 0.0
O470 O 0.20566 0.2701 0.26367 0.0
C471 C 0.25674 0.23646 0.25521 0.0
Tb472 Tb 0.5123 0.5254 0.99618 0.0
C473 C 0.48263 0.51269 0.02507 0.0
Tb474 Tb 0.52743 0.52106 0.03821 0.0
O475 O 0.50239 0.49393 0.99186 0.0
O476 O 0.52621 0.50536 0.01124 0.0
O477 O 0.48537 0.52091 0.0087 0.0
C478 C 0.53683 0.50889 0.07272 0.0
O479 O 0.49694 0.50962 0.03753 0.0
C480 C 0.52486 0.55653 0.02945 0.0
C481 C 0.55695 0.53497 0.00984 0.0
O482 O 0.53067 0.5251 0.06964 0.0
O483 O 0.53773 0.49948 0.05634 0.0
O484 O 0.53742 0.55251 0.04264 0.0
O485 O 0.5137 0.54118 0.02313 0.0
O486 O 0.55428 0.52573 0.02566 0.0
O487 O 0.54256 0.53827 0.99758 0.0
C488 C 0.5028 0.53681 0.96137 0.0
O489 O 0.51189 0.52245 0.96485 0.0
O490 O 0.49912 0.54483 0.97752 0.0
C491 C 0.51509 0.49 0.00494 0.0
Tb492 Tb 0.78579 0.28328 0.27801 0.0
C493 C 0.75644 0.29204 0.30686 0.0
Tb494 Tb 0.7442 0.28266 0.2616 0.0
O495 O 0.78903 0.31443 0.28656 0.0
O496 O 0.77022 0.30207 0.26282 0.0
O497 O 0.77304 0.28603 0.30502 0.0
C498 C 0.71005 0.29135 0.25025 0.0
O499 O 0.74392 0.29325 0.29179 0.0
C500 C 0.7542 0.24845 0.26593 0.0
C501 C 0.77345 0.2738 0.23276 0.0
O502 O 0.71301 0.27609 0.2591 0.0
O503 O 0.72629 0.30165 0.24773 0.0
O504 O 0.74092 0.25152 0.253 0.0
O505 O 0.75977 0.26386 0.27671 0.0
O506 O 0.757 0.28013 0.23463 0.0
O507 O 0.78591 0.27237 0.24783 0.0
C508 C 0.81996 0.27495 0.28993 0.0
O509 O 0.81701 0.28976 0.28034 0.0
O510 O 0.8037 0.26487 0.29274 0.0
C511 C 0.7758 0.31748 0.27357 0.0
Tb512 Tb 0.99176 0.51959 0.51339 0.0
C513 C 0.02122 0.4903 0.52308 0.0
Tb514 Tb 0.03443 0.53537 0.52192 0.0
O515 O 0.99267 0.5228 0.4825 0.0
O516 O 0.01665 0.51776 0.4995 0.0
O517 O 0.00315 0.49325 0.52114 0.0
C518 C 0.07071 0.55128 0.51903 0.0
O519 O 0.0359 0.50443 0.52212 0.0
C520 C 0.0151 0.53249 0.55213 0.0
C521 C 0.0052 0.56447 0.5121 0.0
O522 O 0.05833 0.54353 0.5048 0.0
O523 O 0.06267 0.55006 0.53489 0.0
O524 O 0.03308 0.531 0.55256 0.0
O525 O 0.00947 0.5372 0.53574 0.0
O526 O 0.0231 0.56115 0.5124 0.0
O527 O 0.99085 0.55066 0.51493 0.0
C528 C 0.95573 0.50405 0.51765 0.0
O529 O 0.96153 0.51149 0.50225 0.0
O530 O 0.97024 0.50525 0.53059 0.0
C531 C 0.01079 0.522 0.483 0.0
Tb532 Tb 0.77231 0.78529 0.29081 0.0
C533 C 0.77616 0.82116 0.26475 0.0
Tb534 Tb 0.76213 0.77739 0.2474 0.0
O535 O 0.7968 0.76969 0.28963 0.0
O536 O 0.78744 0.784 0.26632 0.0
O537 O 0.77641 0.81526 0.2825 0.0
C538 C 0.7641 0.77331 0.20973 0.0
O539 O 0.77167 0.8089 0.24906 0.0
C540 C 0.73284 0.77734 0.26744 0.0
C541 C 0.75775 0.74236 0.2737 0.0
O542 O 0.75241 0.78289 0.21796 0.0
O543 O 0.77442 0.76584 0.22268 0.0
O544 O 0.73208 0.76734 0.25102 0.0
O545 O 0.74892 0.78806 0.2708 0.0
O546 O 0.76177 0.74783 0.25649 0.0
O547 O 0.75836 0.75508 0.28869 0.0
C548 C 0.7724 0.79561 0.32797 0.0
O549 O 0.75802 0.78567 0.31701 0.0
O550 O 0.7868 0.79978 0.31802 0.0
C551 C 0.79884 0.77293 0.2718 0.0
Tb552 Tb 0.76994 0.30326 0.77242 0.0
C553 C 0.80157 0.27592 0.77288 0.0
Tb554 Tb 0.75765 0.25727 0.76656 0.0
O555 O 0.78088 0.30141 0.80239 0.0
O556 O 0.75933 0.27984 0.78891 0.0
O557 O 0.79713 0.29336 0.76954 0.0
C558 C 0.74465 0.22013 0.7719 0.0
O559 O 0.78857 0.26009 0.77371 0.0
C560 C 0.76147 0.27393 0.73349 0.0
C561 C 0.72625 0.28474 0.76491 0.0
O562 O 0.7602 0.23035 0.78083 0.0
O563 O 0.73674 0.23076 0.75998 0.0
O564 O 0.75683 0.25523 0.73452 0.0
O565 O 0.76471 0.28097 0.75057 0.0
O566 O 0.73068 0.26769 0.76977 0.0
O567 O 0.73938 0.30023 0.76328 0.0
C568 C 0.77968 0.34091 0.7673 0.0
O569 O 0.76861 0.33403 0.77992 0.0
O570 O 0.78504 0.32661 0.75761 0.0
C571 C 0.77095 0.28436 0.80388 0.0
Tb572 Tb 0.73459 0.76502 0.76447 0.0
C573 C 0.76751 0.76957 0.7982 0.0
Tb574 Tb 0.77524 0.77966 0.75566 0.0
O575 O 0.74102 0.7354 0.76687 0.0
O576 O 0.75517 0.75402 0.74881 0.0
O577 O 0.74899 0.76956 0.79361 0.0
C578 C 0.81177 0.78132 0.74959 0.0
O579 O 0.78013 0.77214 0.7854 0.0
C580 C 0.75512 0.80691 0.76404 0.0
C581 C 0.74239 0.77545 0.72206 0.0
O582 O 0.80128 0.76677 0.7561 0.0
O583 O 0.80176 0.79509 0.74668 0.0
O584 O 0.76906 0.80933 0.75329 0.0
O585 O 0.75465 0.79075 0.77125 0.0
O586 O 0.7608 0.77487 0.72659 0.0
O587 O 0.72975 0.77311 0.73486 0.0
C588 C 0.69809 0.76295 0.77094 0.0
O589 O 0.70864 0.77795 0.76523 0.0
O590 O 0.70803 0.74897 0.77277 0.0
C591 C 0.75479 0.73783 0.75593 0.0
Tb592 Tb 0.51937 0.55276 0.51633 0.0
C593 C 0.52258 0.51985 0.48493 0.0
Tb594 Tb 0.50929 0.50999 0.52589 0.0
O595 O 0.54911 0.54923 0.51393 0.0
O596 O 0.53291 0.53266 0.53215 0.0
O597 O 0.51944 0.53799 0.48813 0.0
C598 C 0.51008 0.47373 0.53597 0.0
O599 O 0.52102 0.5069 0.49815 0.0
C600 C 0.47994 0.52778 0.51711 0.0
C601 C 0.50564 0.54307 0.55714 0.0
O602 O 0.52199 0.48914 0.54288 0.0
O603 O 0.49771 0.47867 0.52309 0.0
O604 O 0.47943 0.51333 0.52804 0.0
O605 O 0.49578 0.53007 0.51015 0.0
O606 O 0.50846 0.52479 0.55397 0.0
O607 O 0.50776 0.55606 0.54402 0.0
C608 C 0.5187 0.58905 0.50629 0.0
O609 O 0.53121 0.58405 0.51898 0.0
O610 O 0.50664 0.57371 0.49955 0.0
C611 C 0.54866 0.53491 0.52502 0.0
Tb612 Tb 0.02951 0.5248 0.01098 0.0
C613 C 0.02031 0.51418 0.05255 0.0
Tb614 Tb 0.98886 0.52465 0.02092 0.0
O615 O 0.03941 0.55109 0.03029 0.0
O616 O 0.01186 0.546 0.01595 0.0
O617 O 0.03198 0.51272 0.03897 0.0
C618 C 0.95817 0.53413 0.03579 0.0
O619 O 0.00328 0.51955 0.04893 0.0
C620 C 0.99525 0.49215 0.00388 0.0
C621 C 0.99823 0.5353 0.97949 0.0
O622 O 0.97559 0.54278 0.04051 0.0
O623 O 0.95805 0.51998 0.02281 0.0
O624 O 0.97869 0.49778 0.00243 0.0
O625 O 0.00647 0.50348 0.01605 0.0
O626 O 0.98713 0.53775 0.99338 0.0
O627 O 0.01477 0.52887 0.98281 0.0
C628 C 0.06104 0.51626 0.9971 0.0
O629 O 0.04465 0.50489 0.99546 0.0
O630 O 0.0596 0.53259 0.00634 0.0
C631 C 0.02301 0.55702 0.02844 0.0
H632 H 0.05713 0.25277 0.92826 0.0
H633 H 0.05832 0.22466 0.94752 0.0
H634 H 0.00991 0.19239 0.91136 0.0
H635 H 0.00879 0.22028 0.89191 0.0
H636 H 0.03056 0.20564 0.9683 0.0
H637 H 0.04889 0.1552 0.91118 0.0
H638 H 0.05089 0.18113 0.90909 0.0
H639 H 0.02802 0.16564 0.90428 0.0
C640 C 0.04681 0.23964 0.92436 0.0
C641 C 0.03294 0.23868 0.9085 0.0
C642 C 0.04748 0.22362 0.9354 0.0
C643 C 0.03438 0.20634 0.9307 0.0
C644 C 0.02041 0.20543 0.91499 0.0
H645 H 0.00181 0.11065 1.00046 0.0
H646 H 0.00446 0.1407 0.98375 0.0
C647 C 0.01973 0.22142 0.90395 0.0
C648 C 0.03506 0.18936 0.94244 0.0
H649 H 0.03914 0.14112 0.93957 0.0
C650 C 0.03256 0.19155 0.96207 0.0
C651 C 0.03795 0.17108 0.93434 0.0
C652 C 0.04178 0.16811 0.91361 0.0
C653 C 0.03235 0.17579 0.97371 0.0
C654 C 0.03439 0.15729 0.9654 0.0
C655 C 0.0374 0.15526 0.94589 0.0
C656 C 0.0332 0.13975 0.97656 0.0
C657 C 0.03012 0.17915 0.99482 0.0
C658 C 0.04836 0.12906 0.97785 0.0
C659 C 0.04681 0.11182 0.98725 0.0
C660 C 0.03005 0.10493 0.99546 0.0
C661 C 0.01497 0.11574 0.9944 0.0
C662 C 0.0165 0.13296 0.98494 0.0
H663 H 0.03431 0.19478 0.99997 0.0
H664 H 0.01492 0.17466 0.99714 0.0
H665 H 0.03886 0.17043 0.00368 0.0
H666 H 0.06133 0.13397 0.97139 0.0
H667 H 0.05861 0.10371 0.98781 0.0
H668 H 0.06418 0.75409 0.16511 0.0
H669 H 0.09598 0.75687 0.1825 0.0
H670 H 0.07959 0.79411 0.22737 0.0
H671 H 0.04752 0.79108 0.21015 0.0
H672 H 0.12291 0.78907 0.19264 0.0
H673 H 0.10167 0.75346 0.25793 0.0
H674 H 0.08558 0.7522 0.23622 0.0
H675 H 0.08994 0.77378 0.25248 0.0
C676 C 0.0673 0.76283 0.17872 0.0
C677 C 0.05329 0.77231 0.1863 0.0
C678 C 0.0855 0.76442 0.18864 0.0
C679 C 0.09014 0.77548 0.20639 0.0
C680 C 0.07624 0.78515 0.21391 0.0
H681 H 0.20893 0.81061 0.25662 0.0
H682 H 0.17589 0.81078 0.24367 0.0
C683 C 0.05796 0.78351 0.204 0.0
C684 C 0.10966 0.77711 0.21665 0.0
H685 H 0.13426 0.7673 0.25831 0.0
C686 C 0.12539 0.78436 0.20703 0.0
C687 C 0.1129 0.77074 0.23534 0.0
C688 C 0.09667 0.76194 0.24607 0.0
C689 C 0.14423 0.78539 0.2155 0.0
C690 C 0.14748 0.77936 0.23433 0.0
C691 C 0.13176 0.77211 0.24398 0.0
C692 C 0.16711 0.77962 0.24382 0.0
C693 C 0.16048 0.79233 0.20393 0.0
C694 C 0.17298 0.76218 0.24907 0.0
C695 C 0.19183 0.76203 0.25668 0.0
C696 C 0.20524 0.77937 0.25925 0.0
C697 C 0.19908 0.79695 0.25473 0.0
C698 C 0.1802 0.79708 0.24718 0.0
H699 H 0.15567 0.7917 0.1883 0.0
H700 H 0.16651 0.80771 0.20879 0.0
H701 H 0.17206 0.78345 0.206 0.0
H702 H 0.16312 0.74854 0.24672 0.0
H703 H 0.196 0.74821 0.26002 0.0
H704 H 0.54481 0.86002 0.39397 0.0
H705 H 0.54261 0.88992 0.41344 0.0
H706 H 0.50873 0.85605 0.4513 0.0
H707 H 0.51087 0.82614 0.43197 0.0
H708 H 0.50781 0.90359 0.42159 0.0
H709 H 0.55167 0.89072 0.48807 0.0
H710 H 0.55273 0.87794 0.46504 0.0
H711 H 0.53315 0.87085 0.47888 0.0
C712 C 0.53699 0.85894 0.40651 0.0
C713 C 0.52804 0.84074 0.41147 0.0
C714 C 0.53574 0.87602 0.4176 0.0
C715 C 0.52572 0.87515 0.43394 0.0
C716 C 0.51681 0.857 0.43894 0.0
H717 H 0.49604 0.95912 0.51783 0.0
H718 H 0.50142 0.92975 0.49937 0.0
C719 C 0.51796 0.83994 0.42781 0.0
C720 C 0.52388 0.89329 0.44532 0.0
H721 H 0.53461 0.91729 0.48999 0.0
C722 C 0.51378 0.90668 0.4365 0.0
C723 C 0.53158 0.89717 0.4648 0.0
C724 C 0.54304 0.88352 0.47477 0.0
C725 C 0.51078 0.9237 0.44678 0.0
C726 C 0.51852 0.92764 0.46627 0.0
C727 C 0.52871 0.91426 0.47506 0.0
C728 C 0.51599 0.94546 0.47783 0.0
C729 C 0.49886 0.93698 0.4368 0.0
C730 C 0.52273 0.96403 0.47208 0.0
C731 C 0.51953 0.98077 0.48249 0.0
C732 C 0.50981 0.97925 0.49903 0.0
C733 C 0.50355 0.9607 0.50511 0.0
C734 C 0.50665 0.94393 0.49461 0.0
H735 H 0.48979 0.92934 0.42396 0.0
H736 H 0.4895 0.94287 0.44672 0.0
H737 H 0.50845 0.94943 0.4319 0.0
H738 H 0.5303 0.96558 0.4594 0.0
H739 H 0.52434 0.99487 0.47735 0.0
H740 H 0.43249 0.24805 0.67035 0.0
H741 H 0.40385 0.24932 0.68689 0.0
H742 H 0.43665 0.29077 0.73051 0.0
H743 H 0.46538 0.28958 0.71405 0.0
H744 H 0.39779 0.24161 0.72644 0.0
H745 H 0.39109 0.3175 0.71016 0.0
H746 H 0.40544 0.30307 0.69722 0.0
H747 H 0.41416 0.31413 0.7209 0.0
C748 C 0.43363 0.25739 0.6835 0.0
C749 C 0.45119 0.26878 0.69086 0.0
C750 C 0.41725 0.25809 0.69293 0.0
C751 C 0.41807 0.27032 0.70978 0.0
C752 C 0.43565 0.28144 0.71736 0.0
H753 H 0.33534 0.30151 0.78433 0.0
H754 H 0.36385 0.2983 0.76821 0.0
C755 C 0.45207 0.28068 0.708 0.0
C756 C 0.40053 0.27149 0.71938 0.0
H757 H 0.37002 0.30252 0.73105 0.0
C758 C 0.39165 0.25489 0.72742 0.0
C759 C 0.39258 0.28883 0.72061 0.0
C760 C 0.40117 0.30689 0.71165 0.0
C761 C 0.37526 0.25531 0.73708 0.0
C762 C 0.36728 0.27268 0.73832 0.0
C763 C 0.37613 0.28923 0.73014 0.0
C764 C 0.34995 0.27416 0.74828 0.0
C765 C 0.36701 0.2373 0.74633 0.0
C766 C 0.33258 0.26173 0.74241 0.0
C767 C 0.31633 0.2634 0.75179 0.0
C768 C 0.31704 0.2778 0.76692 0.0
C769 C 0.33438 0.29028 0.77271 0.0
C770 C 0.35065 0.28849 0.76346 0.0
H771 H 0.37765 0.2274 0.74879 0.0
H772 H 0.36186 0.24118 0.76032 0.0
H773 H 0.35473 0.22917 0.73667 0.0
H774 H 0.33152 0.25085 0.73046 0.0
H775 H 0.30318 0.2535 0.7471 0.0
H776 H 0.02853 0.82244 0.57521 0.0
H777 H 0.03217 0.85232 0.55824 0.0
H778 H 0.98582 0.87103 0.58588 0.0
H779 H 0.98222 0.84134 0.60306 0.0
H780 H 0.00501 0.86581 0.53305 0.0
H781 H 0.02929 0.91785 0.59708 0.0
H782 H 0.02917 0.89194 0.59763 0.0
H783 H 0.00741 0.90171 0.59908 0.0
C784 C 0.01914 0.83295 0.57769 0.0
C785 C 0.00514 0.82964 0.5905 0.0
C786 C 0.02125 0.84997 0.568 0.0
C787 C 0.00946 0.86395 0.57107 0.0
C788 C 0.9953 0.86056 0.58365 0.0
H789 H 0.98412 0.95702 0.50262 0.0
H790 H 0.98411 0.92659 0.51843 0.0
C791 C 0.99319 0.84356 0.59334 0.0
C792 C 0.01164 0.8819 0.56077 0.0
H793 H 0.02059 0.93151 0.56779 0.0
C794 C 0.00854 0.88019 0.5406 0.0
C795 C 0.01651 0.90057 0.57071 0.0
C796 C 0.02098 0.9032 0.59231 0.0
C797 C 0.00964 0.89675 0.53008 0.0
C798 C 0.01367 0.91543 0.54008 0.0
C799 C 0.01732 0.91713 0.56021 0.0
C800 C 0.01386 0.93343 0.52997 0.0
C801 C 0.00659 0.89413 0.50839 0.0
C802 C 0.0305 0.9474 0.5315 0.0
C803 C 0.03049 0.96477 0.52256 0.0
C804 C 0.0138 0.96845 0.51215 0.0
C805 C 0.99719 0.95442 0.5105 0.0
C806 C 0.9972 0.93705 0.51944 0.0
H807 H 0.00887 0.87945 0.50293 0.0
H808 H 0.99168 0.89571 0.50351 0.0
H809 H 0.01636 0.90533 0.50187 0.0
H810 H 0.04348 0.94485 0.5396 0.0
H811 H 0.04354 0.97528 0.52375 0.0
H812 H 0.46748 0.78627 0.90925 0.0
H813 H 0.43698 0.78334 0.88932 0.0
H814 H 0.44853 0.73134 0.85907 0.0
H815 H 0.47928 0.73436 0.87875 0.0
H816 H 0.43755 0.75789 0.83473 0.0
H817 H 0.38741 0.7457 0.89027 0.0
H818 H 0.40533 0.76687 0.89638 0.0
H819 H 0.41224 0.74311 0.89451 0.0
C820 C 0.46341 0.77406 0.89854 0.0
C821 C 0.47571 0.76052 0.89556 0.0
C822 C 0.44594 0.77235 0.88724 0.0
C823 C 0.44041 0.75697 0.87292 0.0
C824 C 0.45253 0.74324 0.87013 0.0
H825 H 0.3258 0.74035 0.81219 0.0
H826 H 0.35549 0.73393 0.82929 0.0
C827 C 0.47004 0.74497 0.8814 0.0
C828 C 0.42255 0.75602 0.86007 0.0
H829 H 0.37473 0.75584 0.86027 0.0
C830 C 0.42376 0.75718 0.84025 0.0
C831 C 0.40458 0.75482 0.86729 0.0
C832 C 0.40224 0.75235 0.88825 0.0
C833 C 0.40753 0.75799 0.82754 0.0
C834 C 0.38975 0.758 0.83495 0.0
C835 C 0.38843 0.75602 0.85464 0.0
C836 C 0.37245 0.76086 0.82277 0.0
C837 C 0.40959 0.75887 0.80633 0.0
C838 C 0.37224 0.77802 0.81326 0.0
C839 C 0.35535 0.78165 0.8034 0.0
C840 C 0.33841 0.76828 0.80314 0.0
C841 C 0.33872 0.75089 0.81223 0.0
C842 C 0.35562 0.74722 0.82198 0.0
H843 H 0.42221 0.75259 0.80234 0.0
H844 H 0.39666 0.75094 0.79743 0.0
H845 H 0.41164 0.77433 0.80281 0.0
H846 H 0.38496 0.78894 0.81406 0.0
H847 H 0.35541 0.79521 0.79659 0.0
H848 H 0.47525 0.23983 0.06171 0.0
H849 H 0.47231 0.20878 0.04226 0.0
H850 H 0.4949 0.1824 0.09176 0.0
H851 H 0.49736 0.21305 0.11128 0.0
H852 H 0.49993 0.189 0.03343 0.0
H853 H 0.44938 0.14209 0.07253 0.0
H854 H 0.4533 0.16834 0.07636 0.0
H855 H 0.46911 0.15431 0.08885 0.0
C856 C 0.47931 0.2273 0.06847 0.0
C857 C 0.48644 0.2288 0.08802 0.0
C858 C 0.47764 0.20961 0.05736 0.0
C859 C 0.48303 0.19317 0.06565 0.0
C860 C 0.49011 0.1947 0.08518 0.0
H861 H 0.53251 0.09911 0.02499 0.0
H862 H 0.52376 0.13094 0.03234 0.0
C863 C 0.49165 0.21229 0.0963 0.0
C864 C 0.48264 0.17475 0.05377 0.0
H865 H 0.47028 0.12553 0.05433 0.0
C866 C 0.49312 0.17512 0.03774 0.0
C867 C 0.47336 0.15668 0.05905 0.0
C868 C 0.46048 0.15535 0.07501 0.0
C869 C 0.49571 0.15781 0.02774 0.0
C870 C 0.48806 0.1397 0.0343 0.0
C871 C 0.47643 0.13939 0.04944 0.0
C872 C 0.49324 0.12099 0.02699 0.0
C873 C 0.50685 0.15917 0.01044 0.0
C874 C 0.47903 0.10469 0.02163 0.0
C875 C 0.48401 0.08633 0.01781 0.0
C876 C 0.50331 0.08398 0.01917 0.0
C877 C 0.51752 0.10046 0.0236 0.0
C878 C 0.51252 0.11875 0.02768 0.0
H879 H 0.50509 0.17253 0.00301 0.0
H880 H 0.52228 0.16013 0.01525 0.0
H881 H 0.50233 0.14628 0.99997 0.0
H882 H 0.46406 0.10605 0.02108 0.0
H883 H 0.47273 0.07391 0.01438 0.0
H884 H 0.09368 0.27005 0.40398 0.0
H885 H 0.11566 0.26651 0.37961 0.0
H886 H 0.0697 0.26553 0.33463 0.0
H887 H 0.04759 0.26876 0.35887 0.0
H888 H 0.09141 0.23618 0.32883 0.0
H889 H 0.13731 0.30843 0.34548 0.0
H890 H 0.13476 0.29431 0.36598 0.0
H891 H 0.11425 0.30254 0.35427 0.0
C892 C 0.0883 0.26921 0.3889 0.0
C893 C 0.06897 0.26978 0.3833 0.0
C894 C 0.10087 0.26725 0.37501 0.0
C895 C 0.09432 0.26601 0.35535 0.0
C896 C 0.07502 0.26653 0.34974 0.0
H897 H 0.17213 0.28022 0.26731 0.0
H898 H 0.14463 0.28166 0.28548 0.0
C899 C 0.06244 0.26843 0.3636 0.0
C900 C 0.10754 0.26383 0.3406 0.0
H901 H 0.1487 0.2857 0.32458 0.0
C902 C 0.10388 0.24704 0.32778 0.0
C903 C 0.1236 0.27818 0.33912 0.0
C904 C 0.12766 0.29697 0.35181 0.0
C905 C 0.11621 0.24399 0.3138 0.0
C906 C 0.1327 0.25797 0.31286 0.0
C907 C 0.13607 0.27496 0.32538 0.0
C908 C 0.14708 0.25516 0.29948 0.0
C909 C 0.11141 0.22592 0.3001 0.0
C910 C 0.15721 0.23949 0.30095 0.0
C911 C 0.17283 0.23856 0.29046 0.0
C912 C 0.17862 0.25342 0.27856 0.0
C913 C 0.16789 0.26855 0.27636 0.0
C914 C 0.15225 0.26942 0.28676 0.0
H915 H 0.09593 0.21986 0.2989 0.0
H916 H 0.11548 0.229 0.28553 0.0
H917 H 0.11942 0.21459 0.30556 0.0
H918 H 0.15371 0.22854 0.31096 0.0
H919 H 0.18098 0.22683 0.2925 0.0
H920 H 0.88651 0.0431 0.17672 0.0
H921 H 0.90748 0.04221 0.15102 0.0
H922 H 0.95149 0.0825 0.18576 0.0
H923 H 0.93077 0.08311 0.2117 0.0
H924 H 0.92519 0.07023 0.12997 0.0
H925 H 0.97895 0.03709 0.17373 0.0
H926 H 0.95571 0.0389 0.18119 0.0
H927 H 0.97438 0.05979 0.18435 0.0
C928 C 0.90061 0.05188 0.17883 0.0
C929 C 0.90706 0.06305 0.19629 0.0
C930 C 0.91257 0.05136 0.16413 0.0
C931 C 0.9312 0.06197 0.16662 0.0
C932 C 0.93735 0.07382 0.18371 0.0
H933 H 0.00166 0.07569 0.07059 0.0
H934 H 0.98442 0.08239 0.09819 0.0
C935 C 0.92544 0.07426 0.19846 0.0
C936 C 0.94425 0.06024 0.15148 0.0
H937 H 0.9866 0.04593 0.14295 0.0
C938 C 0.93865 0.06497 0.1328 0.0
C939 C 0.96168 0.05312 0.15515 0.0
C940 C 0.968 0.04675 0.17463 0.0
C941 C 0.94997 0.06274 0.11769 0.0
C942 C 0.9676 0.056 0.12146 0.0
C943 C 0.97321 0.05132 0.14014 0.0
C944 C 0.97983 0.05254 0.10597 0.0
C945 C 0.94262 0.06701 0.09769 0.0
C946 C 0.98393 0.03376 0.10182 0.0
C947 C 0.99406 0.02993 0.08625 0.0
C948 C 1.00028 0.04481 0.07447 0.0
C949 C 0.99701 0.06384 0.07928 0.0
C950 C 0.98697 0.06768 0.09495 0.0
H951 H 0.927 0.06724 0.09635 0.0
H952 H 0.94989 0.08155 0.09446 0.0
H953 H 0.94559 0.05602 0.08669 0.0
H954 H 0.97869 0.02188 0.11023 0.0
H955 H 0.99629 0.0151 0.08301 0.0
H956 H 0.29985 0.67078 0.44537 0.0
H957 H 0.2938 0.68645 0.4155 0.0
H958 H 0.28308 0.73729 0.44834 0.0
H959 H 0.28968 0.72193 0.47824 0.0
H960 H 0.2623 0.69827 0.40001 0.0
H961 H 0.31957 0.76258 0.41369 0.0
H962 H 0.31855 0.74207 0.42832 0.0
H963 H 0.30401 0.76056 0.43242 0.0
C964 C 0.29644 0.6854 0.44624 0.0
C965 C 0.29543 0.69516 0.46423 0.0
C966 C 0.2929 0.69433 0.42912 0.0
C967 C 0.28827 0.71324 0.42955 0.0
C968 C 0.28714 0.72295 0.44753 0.0
H969 H 0.25455 0.78894 0.34191 0.0
H970 H 0.25982 0.7727 0.37166 0.0
C971 C 0.29082 0.71409 0.46466 0.0
C972 C 0.284 0.72247 0.41121 0.0
H973 H 0.29607 0.76334 0.38731 0.0
C974 C 0.26979 0.71245 0.39722 0.0
C975 C 0.29374 0.74099 0.40743 0.0
C976 C 0.30994 0.75209 0.42117 0.0
C977 C 0.26487 0.72053 0.37983 0.0
C978 C 0.27443 0.73912 0.37621 0.0
C979 C 0.28863 0.74915 0.39015 0.0
C980 C 0.27018 0.74833 0.35793 0.0
C981 C 0.24921 0.70927 0.36558 0.0
C982 C 0.27419 0.74003 0.34027 0.0
C983 C 0.27128 0.74934 0.32328 0.0
C984 C 0.26422 0.76711 0.32356 0.0
C985 C 0.25989 0.77521 0.34119 0.0
C986 C 0.26295 0.76598 0.35821 0.0
H987 H 0.24042 0.69737 0.37222 0.0
H988 H 0.23972 0.71908 0.35947 0.0
H989 H 0.25569 0.70263 0.35352 0.0
H990 H 0.28006 0.7266 0.3397 0.0
H991 H 0.27502 0.74284 0.31 0.0
H992 H 0.62457 1.00055 0.71242 0.0
H993 H 0.60958 0.00358 0.68002 0.0
H994 H 0.55423 0.98311 0.69795 0.0
H995 H 0.5691 0.98012 0.73056 0.0
H996 H 0.56998 0.96633 0.6573 0.0
H997 H 0.56784 0.04556 0.67123 0.0
H998 H 0.58852 0.03584 0.68072 0.0
H999 H 0.56614 0.02908 0.6902 0.0
C1000 C 0.60921 0.99654 0.70947 0.0
C1001 C 0.59802 0.99011 0.72409 0.0
C1002 C 0.60069 0.99829 0.69095 0.0
C1003 C 0.58083 0.99359 0.68664 0.0
C1004 C 0.5696 0.98678 0.70103 0.0
H1005 H 0.50991 0.02132 0.58719 0.0
H1006 H 0.52239 0.01393 0.61918 0.0
C1007 C 0.57811 0.98509 0.71963 0.0
C1008 C 0.57184 0.99646 0.66725 0.0
H1009 H 0.55767 0.03153 0.63976 0.0
C1010 C 0.56722 0.98054 0.65343 0.0
C1011 C 0.56821 0.015 0.66234 0.0
C1012 C 0.57283 0.03244 0.67683 0.0
C1013 C 0.55921 0.98277 0.63468 0.0
C1014 C 0.55591 0.00143 0.62963 0.0
C1015 C 0.56026 0.01726 0.64361 0.0
C1016 C 0.54799 0.00492 0.60993 0.0
C1017 C 0.55415 0.96512 0.62047 0.0
C1018 C 0.55824 0.00234 0.59404 0.0
C1019 C 0.55118 0.00662 0.57568 0.0
C1020 C 0.53369 0.01358 0.57282 0.0
C1021 C 0.52337 0.01593 0.58877 0.0
C1022 C 0.5305 0.01174 0.60712 0.0
H1023 H 0.5533 0.95132 0.62776 0.0
H1024 H 0.54028 0.96527 0.61185 0.0
H1025 H 0.56531 0.9653 0.61042 0.0
H1026 H 0.57192 0.9974 0.5959 0.0
H1027 H 0.55955 0.00469 0.56378 0.0
H1028 H 0.22712 0.35598 0.99579 0.0
H1029 H 0.22565 0.33394 0.96679 0.0
H1030 H 0.2827 0.36014 0.95765 0.0
H1031 H 0.28439 0.38216 0.98658 0.0
H1032 H 0.24679 0.35866 0.92629 0.0
H1033 H 0.26187 0.28888 0.95459 0.0
H1034 H 0.24713 0.30341 0.96684 0.0
H1035 H 0.27215 0.31216 0.96711 0.0
C1036 C 0.23944 0.35686 0.98773 0.0
C1037 C 0.25583 0.37083 0.99332 0.0
C1038 C 0.23858 0.34424 0.97127 0.0
C1039 C 0.25411 0.34546 0.9603 0.0
C1040 C 0.27067 0.35899 0.96613 0.0
H1041 H 0.28849 0.29302 0.86001 0.0
H1042 H 0.28395 0.30407 0.8929 0.0
C1043 C 0.27157 0.37155 0.98258 0.0
C1044 C 0.25249 0.33406 0.9417 0.0
H1045 H 0.25786 0.29002 0.9208 0.0
C1046 C 0.24897 0.34358 0.92501 0.0
C1047 C 0.25544 0.3145 0.94034 0.0
C1048 C 0.2594 0.30399 0.95811 0.0
C1049 C 0.24881 0.33413 0.90677 0.0
C1050 C 0.25203 0.3146 0.90532 0.0
C1051 C 0.25521 0.30494 0.92206 0.0
C1052 C 0.25378 0.30474 0.88651 0.0
C1053 C 0.24601 0.34538 0.88922 0.0
C1054 C 0.23813 0.30086 0.87233 0.0
C1055 C 0.24071 0.2947 0.85355 0.0
C1056 C 0.25895 0.29225 0.84884 0.0
C1057 C 0.27432 0.29492 0.86333 0.0
C1058 C 0.27174 0.30113 0.88208 0.0
H1059 H 0.24713 0.36127 0.89303 0.0
H1060 H 0.25673 0.34316 0.87912 0.0
H1061 H 0.23161 0.34003 0.88157 0.0
H1062 H 0.22413 0.30341 0.87561 0.0
H1063 H 0.22862 0.29258 0.8426 0.0
H1064 H 0.93405 0.04846 0.28161 0.0
H1065 H 0.95314 0.0455 0.312 0.0
H1066 H 0.90596 0.05566 0.34341 0.0
H1067 H 0.88675 0.05855 0.31315 0.0
H1068 H 0.96269 0.07328 0.34575 0.0
H1069 H 0.91991 0.00291 0.36049 0.0
H1070 H 0.91896 0.01222 0.33695 0.0
H1071 H 0.90636 0.02202 0.35531 0.0
C1072 C 0.92776 0.05009 0.295 0.0
C1073 C 0.90888 0.05361 0.29503 0.0
C1074 C 0.93869 0.04845 0.31231 0.0
C1075 C 0.93085 0.05017 0.32986 0.0
C1076 C 0.91214 0.05404 0.32996 0.0
H1077 H 0.98393 0.06287 0.44762 0.0
H1078 H 0.9686 0.06839 0.41598 0.0
C1079 C 0.90123 0.05573 0.31268 0.0
C1080 C 0.94211 0.0476 0.34809 0.0
H1081 H 0.94323 0.01828 0.38535 0.0
C1082 C 0.95852 0.06125 0.35442 0.0
C1083 C 0.93668 0.03175 0.35918 0.0
C1084 C 0.91961 0.01626 0.35262 0.0
C1085 C 0.96947 0.05964 0.37184 0.0
C1086 C 0.96372 0.04408 0.38318 0.0
C1087 C 0.94751 0.03027 0.37665 0.0
C1088 C 0.97431 0.0417 0.40186 0.0
C1089 C 0.98719 0.07443 0.37789 0.0
C1090 C 0.9825 0.02486 0.40436 0.0
C1091 C 0.99117 0.02168 0.42235 0.0
C1092 C 0.99165 0.03522 0.43817 0.0
C1093 C 0.98377 0.05225 0.43561 0.0
C1094 C 0.97512 0.05546 0.41756 0.0
H1095 H 0.99203 0.0827 0.36567 0.0
H1096 H 0.9841 0.08499 0.38922 0.0
H1097 H 0.99902 0.06724 0.38397 0.0
H1098 H 0.98193 0.01405 0.39242 0.0
H1099 H 0.99714 0.00842 0.42397 0.0
H1100 H 0.31991 0.72095 0.56597 0.0
H1101 H 0.31761 0.73721 0.59759 0.0
H1102 H 0.28229 0.68545 0.61284 0.0
H1103 H 0.28503 0.66902 0.58165 0.0
H1104 H 0.28763 0.74662 0.61362 0.0
H1105 H 0.3198 0.69628 0.65985 0.0
H1106 H 0.32115 0.69542 0.63421 0.0
H1107 H 0.30008 0.68362 0.64378 0.0
C1108 C 0.31188 0.71296 0.57618 0.0
C1109 C 0.30281 0.69361 0.57133 0.0
C1110 C 0.31051 0.7223 0.59425 0.0
C1111 C 0.30005 0.7125 0.60786 0.0
C1112 C 0.29092 0.69321 0.60293 0.0
H1113 H 0.25087 0.76556 0.70322 0.0
H1114 H 0.2576 0.75185 0.67211 0.0
C1115 C 0.2924 0.68384 0.58498 0.0
C1116 C 0.29797 0.72263 0.62685 0.0
H1117 H 0.30189 0.71785 0.67537 0.0
C1118 C 0.29092 0.74039 0.62713 0.0
C1119 C 0.30253 0.71479 0.64461 0.0
C1120 C 0.3115 0.69659 0.64565 0.0
C1121 C 0.28781 0.75017 0.64449 0.0
C1122 C 0.29133 0.74174 0.66214 0.0
C1123 C 0.2989 0.72427 0.66191 0.0
C1124 C 0.28731 0.7507 0.68102 0.0
C1125 C 0.28106 0.76961 0.64368 0.0
C1126 C 0.30154 0.75423 0.69672 0.0
C1127 C 0.29764 0.76182 0.71468 0.0
C1128 C 0.27939 0.76615 0.7174 0.0
C1129 C 0.26517 0.76271 0.70164 0.0
C1130 C 0.26904 0.75494 0.68373 0.0
H1131 H 0.28504 0.77683 0.63057 0.0
H1132 H 0.26526 0.76732 0.64315 0.0
H1133 H 0.28714 0.77956 0.65652 0.0
H1134 H 0.31573 0.75103 0.69512 0.0
H1135 H 0.30894 0.76416 0.72646 0.0
H1136 H 0.6237 0.99785 0.85041 0.0
H1137 H 0.60883 0.0023 0.88012 0.0
H1138 H 0.55357 0.99568 0.84733 0.0
H1139 H 0.56844 0.99158 0.81745 0.0
H1140 H 0.55922 0.02659 0.87463 0.0
H1141 H 0.57787 0.96082 0.90771 0.0
H1142 H 0.59816 0.97672 0.90108 0.0
H1143 H 0.58006 0.96471 0.8827 0.0
C1144 C 0.60835 0.99721 0.84951 0.0
C1145 C 0.59723 0.99423 0.83156 0.0
C1146 C 0.59986 0.99967 0.86655 0.0
C1147 C 0.58002 0.99902 0.86604 0.0
C1148 C 0.56889 0.99615 0.84812 0.0
H1149 H 0.51178 0.98426 0.96167 0.0
H1150 H 0.5278 0.98111 0.93255 0.0
C1151 C 0.57739 0.99374 0.83105 0.0
C1152 C 0.57096 0.00173 0.88416 0.0
H1153 H 0.56512 0.98318 0.92774 0.0
C1154 C 0.56047 0.01708 0.88623 0.0
C1155 C 0.57242 0.98921 0.89925 0.0
C1156 C 0.58257 0.97182 0.89756 0.0
C1157 C 0.55155 0.02032 0.90298 0.0
C1158 C 0.55344 0.00811 0.91828 0.0
C1159 C 0.56383 0.9927 0.91614 0.0
C1160 C 0.54393 0.01036 0.93619 0.0
C1161 C 0.53975 0.03648 0.90389 0.0
C1162 C 0.54776 0.0278 0.94816 0.0
C1163 C 0.53845 0.02968 0.96482 0.0
C1164 C 0.52534 0.01407 0.96992 0.0
C1165 C 0.52177 0.99658 0.9581 0.0
C1166 C 0.53097 0.99473 0.94146 0.0
H1167 H 0.5357 0.04109 0.88935 0.0
H1168 H 0.52652 0.0319 0.91077 0.0
H1169 H 0.5482 0.04933 0.9126 0.0
H1170 H 0.55796 0.03996 0.94464 0.0
H1171 H 0.54134 0.04339 0.97355 0.0
H1172 H 0.22633 0.38726 0.09458 0.0
H1173 H 0.22153 0.36345 0.11888 0.0
H1174 H 0.26426 0.33327 0.09676 0.0
H1175 H 0.26919 0.3569 0.07257 0.0
H1176 H 0.22751 0.30884 0.10509 0.0
H1177 H 0.26463 0.36198 0.16474 0.0
H1178 H 0.24599 0.36955 0.14923 0.0
H1179 H 0.26769 0.36546 0.1398 0.0
C1180 C 0.23466 0.37553 0.09491 0.0
C1181 C 0.24825 0.37401 0.08183 0.0
C1182 C 0.23187 0.36195 0.10871 0.0
C1183 C 0.24257 0.3467 0.10952 0.0
C1184 C 0.25584 0.34494 0.09625 0.0
H1185 H 0.27449 0.27709 0.19857 0.0
H1186 H 0.27131 0.2928 0.16849 0.0
C1187 C 0.25872 0.35852 0.08256 0.0
C1188 C 0.24085 0.33312 0.12485 0.0
H1189 H 0.25349 0.33019 0.17264 0.0
C1190 C 0.23301 0.31347 0.11991 0.0
C1191 C 0.24824 0.33931 0.14404 0.0
C1192 C 0.25723 0.36018 0.14989 0.0
C1193 C 0.23248 0.29974 0.13382 0.0
C1194 C 0.2401 0.30593 0.15292 0.0
C1195 C 0.2477 0.3256 0.15787 0.0
C1196 C 0.24089 0.29232 0.16816 0.0
C1197 C 0.22429 0.27867 0.12807 0.0
C1198 C 0.22464 0.28618 0.17739 0.0
C1199 C 0.22638 0.27723 0.19467 0.0
C1200 C 0.24445 0.2745 0.20296 0.0
C1201 C 0.26039 0.27914 0.1927 0.0
C1202 C 0.25863 0.28809 0.17549 0.0
H1203 H 0.22016 0.27596 0.11231 0.0
H1204 H 0.23487 0.26924 0.1325 0.0
H1205 H 0.21147 0.27437 0.13567 0.0
H1206 H 0.21086 0.28949 0.17194 0.0
H1207 H 0.21379 0.27379 0.20216 0.0
H1208 H 0.16284 0.90668 0.02069 0.0
H1209 H 0.13715 0.92623 0.02258 0.0
H1210 H 0.17689 0.97298 0.05428 0.0
H1211 H 0.2026 0.95375 0.0521 0.0
H1212 H 0.12219 0.94181 0.05374 0.0
H1213 H 0.15375 0.00139 0.01166 0.0
H1214 H 0.16255 0.97851 0.0125 0.0
H1215 H 0.16935 0.99706 0.03203 0.0
C1216 C 0.1661 0.92116 0.028 0.0
C1217 C 0.18482 0.9287 0.0361 0.0
C1218 C 0.1514 0.93232 0.0291 0.0
C1219 C 0.15511 0.95127 0.03827 0.0
C1220 C 0.17371 0.95863 0.0467 0.0
H1221 H 0.08216 0.04096 0.05383 0.0
H1222 H 0.10853 0.02198 0.05723 0.0
C1223 C 0.1884 0.94754 0.04554 0.0
C1224 C 0.13952 0.96325 0.03918 0.0
H1225 H 0.12644 0.00647 0.02691 0.0
C1226 C 0.12313 0.95593 0.04784 0.0
C1227 C 0.1407 0.98175 0.03156 0.0
C1228 C 0.15744 0.9901 0.02125 0.0
C1229 C 0.10801 0.9666 0.04917 0.0
C1230 C 0.10914 0.98502 0.04143 0.0
C1231 C 0.12562 0.99245 0.03299 0.0
C1232 C 0.09289 0.99618 0.0407 0.0
C1233 C 0.091 0.95811 0.05902 0.0
C1234 C 0.07537 0.98807 0.03027 0.0
C1235 C 0.06043 0.99885 0.02828 0.0
C1236 C 0.06257 0.01805 0.03669 0.0
C1237 C 0.08001 0.02615 0.04736 0.0
C1238 C 0.09508 0.01533 0.04925 0.0
H1239 H 0.09466 0.94713 0.06901 0.0
H1240 H 0.08531 0.96967 0.06722 0.0
H1241 H 0.07951 0.95071 0.04799 0.0
H1242 H 0.07342 0.97355 0.02312 0.0
H1243 H 0.04736 0.99228 0.0196 0.0
H1244 H 0.72076 0.63699 0.02986 0.0
H1245 H 0.68906 0.6173 0.02844 0.0
H1246 H 0.69628 0.5911 0.97271 0.0
H1247 H 0.72823 0.6106 0.97415 0.0
H1248 H 0.65847 0.6177 1.0009 0.0
H1249 H 0.67872 0.54389 0.00286 0.0
H1250 H 0.69573 0.56594 0.0093 0.0
H1251 H 0.68817 0.55827 0.98442 0.0
C1252 C 0.71567 0.62693 0.01736 0.0
C1253 C 0.72696 0.62528 0.00212 0.0
C1254 C 0.69757 0.61571 0.01657 0.0
C1255 C 0.69043 0.60263 1.00056 0.0
C1256 C 0.70169 0.60087 0.98534 0.0
H1257 H 0.56873 0.55463 0.97921 0.0
H1258 H 0.60117 0.57 0.97494 0.0
C1259 C 0.71987 0.61207 0.98614 0.0
C1260 C 0.6709 0.59147 0.99964 0.0
H1261 H 0.6457 0.54546 0.99873 0.0
C1262 C 0.65563 0.6019 1.00033 0.0
C1263 C 0.66735 0.57089 0.99905 0.0
C1264 C 0.68334 0.55903 0.99903 0.0
C1265 C 0.63688 0.59231 1.00071 0.0
C1266 C 0.63329 0.57171 0.99998 0.0
C1267 C 0.64853 0.56125 0.99909 0.0
C1268 C 0.61398 0.56089 0.00145 0.0
C1269 C 0.62118 0.60435 0.00259 0.0
C1270 C 0.61061 0.55006 0.01737 0.0
C1271 C 0.59214 0.54113 0.0198 0.0
C1272 C 0.5767 0.54287 0.0063 0.0
C1273 C 0.58026 0.55312 0.98995 0.0
C1274 C 0.59877 0.56198 0.98752 0.0
H1275 H 0.62695 0.61985 0.00728 0.0
H1276 H 0.61266 0.60391 0.98841 0.0
H1277 H 0.61143 0.59842 0.01307 0.0
H1278 H 0.6222 0.54901 0.02825 0.0
H1279 H 0.58995 0.5333 0.03252 0.0
H1280 H 0.6709 0.44617 0.31094 0.0
H1281 H 0.68861 0.41898 0.30726 0.0
H1282 H 0.71982 0.4486 0.26476 0.0
H1283 H 0.70237 0.47595 0.26856 0.0
H1284 H 0.69041 0.39501 0.27428 0.0
H1285 H 0.76223 0.43499 0.30252 0.0
H1286 H 0.74057 0.44456 0.3059 0.0
H1287 H 0.75052 0.44608 0.28327 0.0
C1288 C 0.68164 0.44696 0.30092 0.0
C1289 C 0.68534 0.46325 0.29013 0.0
C1290 C 0.6917 0.43139 0.29879 0.0
C1291 C 0.70568 0.43186 0.2859 0.0
C1292 C 0.70934 0.44808 0.27505 0.0
H1293 H 0.75435 0.33106 0.24456 0.0
H1294 H 0.73686 0.35868 0.24686 0.0
C1295 C 0.69932 0.46367 0.27719 0.0
C1296 C 0.71619 0.41522 0.2836 0.0
H1297 H 0.76082 0.40295 0.28834 0.0
C1298 C 0.7058 0.39671 0.27737 0.0
C1299 C 0.73625 0.41746 0.28782 0.0
C1300 C 0.74807 0.43679 0.29542 0.0
C1301 C 0.71495 0.38037 0.27513 0.0
C1302 C 0.73507 0.38271 0.27894 0.0
C1303 C 0.74543 0.40122 0.28527 0.0
C1304 C 0.74564 0.36605 0.27725 0.0
C1305 C 0.70295 0.36071 0.2691 0.0
C1306 C 0.75679 0.36137 0.29338 0.0
C1307 C 0.76683 0.34575 0.29203 0.0
C1308 C 0.76583 0.33446 0.27454 0.0
C1309 C 0.75498 0.33932 0.25829 0.0
C1310 C 0.74499 0.35504 0.25961 0.0
H1311 H 0.68778 0.36049 0.2717 0.0
H1312 H 0.70336 0.35734 0.25346 0.0
H1313 H 0.7085 0.34903 0.27692 0.0
H1314 H 0.75756 0.36969 0.30711 0.0
H1315 H 0.77507 0.34227 0.3048 0.0
H1316 H 0.79363 0.41272 0.55716 0.0
H1317 H 0.82643 0.42929 0.55627 0.0
H1318 H 0.80716 0.46298 0.51082 0.0
H1319 H 0.77428 0.4469 0.51206 0.0
H1320 H 0.84784 0.42825 0.52714 0.0
H1321 H 0.84088 0.50511 0.54543 0.0
H1322 H 0.82246 0.48503 0.54874 0.0
H1323 H 0.82441 0.49413 0.52535 0.0
C1324 C 0.79635 0.42391 0.54722 0.0
C1325 C 0.78136 0.42858 0.53475 0.0
C1326 C 0.81511 0.43334 0.54668 0.0
C1327 C 0.81929 0.4476 0.53366 0.0
C1328 C 0.80428 0.45243 0.52135 0.0
H1329 H 0.92385 0.50392 0.49279 0.0
H1330 H 0.89075 0.4903 0.49715 0.0
C1331 C 0.78549 0.44314 0.522 0.0
C1332 C 0.83946 0.4564 0.53208 0.0
H1333 H 0.86962 0.49978 0.53234 0.0
C1334 C 0.85261 0.44389 0.52847 0.0
C1335 C 0.84574 0.47682 0.53378 0.0
C1336 C 0.83268 0.49105 0.53873 0.0
C1337 C 0.87171 0.45123 0.52616 0.0
C1338 C 0.87783 0.4716 0.52752 0.0
C1339 C 0.8648 0.48415 0.53121 0.0
C1340 C 0.89779 0.48009 0.52509 0.0
C1341 C 0.88517 0.43721 0.52193 0.0
C1342 C 0.91263 0.47897 0.53944 0.0
C1343 C 0.93149 0.48682 0.53704 0.0
C1344 C 0.93581 0.49582 0.5202 0.0
C1345 C 0.92092 0.49699 0.50588 0.0
C1346 C 0.90203 0.48928 0.50836 0.0
H1347 H 0.87758 0.42201 0.51859 0.0
H1348 H 0.89313 0.44171 0.50959 0.0
H1349 H 0.89579 0.43745 0.53464 0.0
H1350 H 0.90959 0.47204 0.55251 0.0
H1351 H 0.9427 0.48578 0.54833 0.0
H1352 H 0.34959 0.09353 0.22636 0.0
H1353 H 0.32898 0.1185 0.22496 0.0
H1354 H 0.36886 0.15576 0.26684 0.0
H1355 H 0.38974 0.131 0.26799 0.0
H1356 H 0.31131 0.13275 0.25389 0.0
H1357 H 0.35901 0.1935 0.22688 0.0
H1358 H 0.36399 0.16885 0.22602 0.0
H1359 H 0.36956 0.18432 0.24802 0.0
C1360 C 0.35411 0.10715 0.23507 0.0
C1361 C 0.37134 0.11031 0.24723 0.0
C1362 C 0.34229 0.12141 0.23428 0.0
C1363 C 0.34745 0.13916 0.24559 0.0
C1364 C 0.36476 0.14241 0.25762 0.0
H1365 H 0.29097 0.23614 0.27605 0.0
H1366 H 0.31284 0.21267 0.27247 0.0
C1367 C 0.37664 0.12818 0.25836 0.0
C1368 C 0.33416 0.15367 0.24568 0.0
H1369 H 0.33093 0.20141 0.23943 0.0
C1370 C 0.31556 0.14771 0.25054 0.0
C1371 C 0.33968 0.17323 0.24135 0.0
C1372 C 0.35908 0.18034 0.23509 0.0
C1373 C 0.30252 0.16083 0.25165 0.0
C1374 C 0.30813 0.18042 0.24756 0.0
C1375 C 0.32666 0.18638 0.24256 0.0
C1376 C 0.29512 0.19506 0.24898 0.0
C1377 C 0.28303 0.15377 0.25775 0.0
C1378 C 0.27801 0.19314 0.23677 0.0
C1379 C 0.26556 0.20668 0.23866 0.0
C1380 C 0.27007 0.22242 0.25274 0.0
C1381 C 0.28728 0.2244 0.26481 0.0
C1382 C 0.29975 0.21093 0.26286 0.0
H1383 H 0.2824 0.1396 0.26434 0.0
H1384 H 0.27899 0.16462 0.26824 0.0
H1385 H 0.27228 0.15179 0.24495 0.0
H1386 H 0.27427 0.18113 0.22579 0.0
H1387 H 0.2524 0.20482 0.22915 0.0
H1388 H 0.33257 0.1243 0.49188 0.0
H1389 H 0.35573 0.1027 0.49921 0.0
H1390 H 0.32197 0.07782 0.54236 0.0
H1391 H 0.29873 0.09955 0.5352 0.0
H1392 H 0.36066 0.08921 0.55524 0.0
H1393 H 0.35125 0.04385 0.48627 0.0
H1394 H 0.35467 0.06943 0.48281 0.0
H1395 H 0.33382 0.05845 0.49324 0.0
C1396 C 0.32998 0.11411 0.5028 0.0
C1397 C 0.31386 0.11356 0.51295 0.0
C1398 C 0.34314 0.1017 0.50688 0.0
C1399 C 0.34035 0.08847 0.52109 0.0
C1400 C 0.32424 0.08783 0.53122 0.0
H1401 H 0.42717 0.01237 0.52958 0.0
H1402 H 0.3955 0.02178 0.53072 0.0
C1403 C 0.31102 0.10023 0.52712 0.0
C1404 C 0.35501 0.0763 0.52607 0.0
H1405 H 0.38137 0.0454 0.50567 0.0
C1406 C 0.36498 0.0793 0.54455 0.0
C1407 C 0.36032 0.0631 0.51224 0.0
C1408 C 0.34931 0.05834 0.49259 0.0
C1409 C 0.38108 0.07054 0.54909 0.0
C1410 C 0.38743 0.05877 0.53467 0.0
C1411 C 0.37659 0.0546 0.51667 0.0
C1412 C 0.40635 0.05255 0.53702 0.0
C1413 C 0.39143 0.07442 0.5691 0.0
C1414 C 0.42286 0.06671 0.5404 0.0
C1415 C 0.44084 0.06139 0.53975 0.0
C1416 C 0.44258 0.04184 0.53554 0.0
C1417 C 0.42614 0.02754 0.53288 0.0
C1418 C 0.4081 0.03289 0.53353 0.0
H1419 H 0.38151 0.0774 0.57984 0.0
H1420 H 0.39839 0.06192 0.57338 0.0
H1421 H 0.4026 0.08752 0.56951 0.0
H1422 H 0.42182 0.08202 0.54263 0.0
H1423 H 0.45333 0.07269 0.54181 0.0
H1424 H 0.65537 0.57615 0.28299 0.0
H1425 H 0.67197 0.60901 0.27972 0.0
H1426 H 0.72446 0.59351 0.3053 0.0
H1427 H 0.70796 0.56029 0.3081 0.0
H1428 H 0.69004 0.63697 0.30569 0.0
H1429 H 0.74136 0.61584 0.25663 0.0
H1430 H 0.72117 0.59891 0.26236 0.0
H1431 H 0.74245 0.60453 0.27899 0.0
C1432 C 0.67044 0.57972 0.28797 0.0
C1433 C 0.68038 0.56559 0.29572 0.0
C1434 C 0.67993 0.59853 0.28608 0.0
C1435 C 0.69956 0.60367 0.29192 0.0
C1436 C 0.70942 0.58976 0.30022 0.0
H1437 H 0.75557 0.72494 0.30749 0.0
H1438 H 0.74259 0.69117 0.31203 0.0
C1439 C 0.69995 0.57083 0.30198 0.0
C1440 C 0.70945 0.62368 0.28944 0.0
H1441 H 0.74581 0.64917 0.26815 0.0
C1442 C 0.70224 0.63962 0.29749 0.0
C1443 C 0.72519 0.62717 0.27845 0.0
C1444 C 0.73291 0.61073 0.26844 0.0
C1445 C 0.71032 0.65889 0.29494 0.0
C1446 C 0.72644 0.6624 0.2845 0.0
C1447 C 0.7336 0.64648 0.27633 0.0
C1448 C 0.7358 0.68249 0.28163 0.0
C1449 C 0.70113 0.67529 0.30303 0.0
C1450 C 0.73722 0.68865 0.26299 0.0
C1451 C 0.74495 0.70796 0.26032 0.0
C1452 C 0.75133 0.72145 0.27626 0.0
C1453 C 0.75054 0.71501 0.29488 0.0
C1454 C 0.74302 0.69571 0.29753 0.0
H1455 H 0.68608 0.67015 0.30561 0.0
H1456 H 0.7091 0.68133 0.31704 0.0
H1457 H 0.70135 0.68722 0.29319 0.0
H1458 H 0.73187 0.67866 0.2505 0.0
H1459 H 0.74535 0.71243 0.24579 0.0
H1460 H 0.85325 0.52435 0.77994 0.0
H1461 H 0.83426 0.49225 0.78258 0.0
H1462 H 0.86064 0.46827 0.73564 0.0
H1463 H 0.8798 0.50018 0.73305 0.0
H1464 H 0.80827 0.46754 0.75476 0.0
H1465 H 0.87044 0.43306 0.77935 0.0
H1466 H 0.87172 0.45915 0.7794 0.0
H1467 H 0.87297 0.44486 0.75741 0.0
C1468 C 0.85498 0.51223 0.77018 0.0
C1469 C 0.86811 0.51472 0.75639 0.0
C1470 C 0.8441 0.49394 0.77168 0.0
C1471 C 0.84628 0.47786 0.7595 0.0
C1472 C 0.85903 0.48043 0.74541 0.0
H1473 H 0.80242 0.35579 0.74108 0.0
H1474 H 0.81696 0.38975 0.73942 0.0
C1475 C 0.8699 0.49868 0.7439 0.0
C1476 C 0.83539 0.4583 0.76158 0.0
H1477 H 0.84104 0.41177 0.77029 0.0
C1478 C 0.81537 0.45535 0.75831 0.0
C1479 C 0.84475 0.4425 0.76634 0.0
C1480 C 0.86614 0.44503 0.77102 0.0
C1481 C 0.80449 0.43678 0.75895 0.0
C1482 C 0.81391 0.42091 0.76321 0.0
C1483 C 0.83388 0.42398 0.76691 0.0
C1484 C 0.80351 0.40078 0.76331 0.0
C1485 C 0.78308 0.43413 0.75449 0.0
C1486 C 0.79095 0.39577 0.77719 0.0
C1487 C 0.78258 0.37631 0.77815 0.0
C1488 C 0.78678 0.36166 0.76532 0.0
C1489 C 0.79895 0.3668 0.75116 0.0
C1490 C 0.80728 0.38618 0.7502 0.0
H1491 H 0.77841 0.4469 0.74782 0.0
H1492 H 0.77783 0.42087 0.74464 0.0
H1493 H 0.7763 0.43223 0.76804 0.0
H1494 H 0.78809 0.40679 0.78762 0.0
H1495 H 0.7733 0.37267 0.78926 0.0
H1496 H 0.97746 0.80021 0.10122 0.0
H1497 H 0.97837 0.82816 0.0815 0.0
H1498 H 0.02325 0.86087 0.12172 0.0
H1499 H 0.02244 0.83298 0.14154 0.0
H1500 H 0.97301 0.86726 0.09331 0.0
H1501 H 0.04435 0.86493 0.06836 0.0
H1502 H 0.03083 0.84445 0.07831 0.0
H1503 H 0.04361 0.86463 0.09395 0.0
C1504 C 0.98756 0.81334 0.10585 0.0
C1505 C 0.99993 0.81438 0.12291 0.0
C1506 C 0.98804 0.82929 0.09457 0.0
C1507 C 1.00104 0.84648 0.10002 0.0
C1508 C 0.01332 0.84762 0.1171 0.0
H1509 H 0.03027 0.96064 0.06174 0.0
H1510 H 0.02815 0.92951 0.07628 0.0
C1511 C 0.01277 0.83172 0.12846 0.0
C1512 C 0.00149 0.8634 0.08807 0.0
H1513 H 0.03031 0.89288 0.06182 0.0
C1514 C 0.98545 0.87279 0.08626 0.0
C1515 C 0.01773 0.87052 0.07889 0.0
C1516 C 0.03508 0.86055 0.07978 0.0
C1517 C 0.98549 0.88962 0.07613 0.0
C1518 C 0.00187 0.89695 0.06717 0.0
C1519 C 0.01775 0.88725 0.06864 0.0
C1520 C 0.00339 0.91542 0.0574 0.0
C1521 C 0.96832 0.89985 0.07582 0.0
C1522 C 0.99043 0.91778 0.0416 0.0
C1523 C 0.99156 0.93569 0.03328 0.0
C1524 C 0.00576 0.95143 0.04056 0.0
C1525 C 0.0191 0.94879 0.05589 0.0
C1526 C 0.01792 0.93099 0.0642 0.0
H1527 H 0.95896 0.89505 0.08705 0.0
H1528 H 0.97276 0.9159 0.07804 0.0
H1529 H 0.95975 0.89648 0.0616 0.0
H1530 H 0.97936 0.90583 0.03581 0.0
H1531 H 0.98117 0.93732 0.02141 0.0
H1532 H 0.98388 0.27068 0.81766 0.0
H1533 H 0.95159 0.26666 0.80076 0.0
H1534 H 0.93063 0.28794 0.85254 0.0
H1535 H 0.96257 0.29117 0.86961 0.0
H1536 H 0.90701 0.25739 0.83656 0.0
H1537 H 0.92397 0.30769 0.77984 0.0
H1538 H 0.93748 0.28804 0.78008 0.0
H1539 H 0.94081 0.30593 0.80029 0.0
C1540 C 0.97236 0.27456 0.82538 0.0
C1541 C 0.97576 0.2813 0.84494 0.0
C1542 C 0.95393 0.27238 0.81568 0.0
C1543 C 0.93865 0.27732 0.82525 0.0
C1544 C 0.94212 0.28404 0.8448 0.0
H1545 H 0.83144 0.30602 0.78043 0.0
H1546 H 0.86445 0.30445 0.79169 0.0
C1547 C 0.96042 0.28593 0.85454 0.0
C1548 C 0.91895 0.27525 0.81522 0.0
H1549 H 0.89255 0.29009 0.77722 0.0
C1550 C 0.90386 0.26452 0.82356 0.0
C1551 C 0.91477 0.28467 0.79832 0.0
C1552 C 0.93007 0.29739 0.78919 0.0
C1553 C 0.88475 0.26329 0.81579 0.0
C1554 C 0.88059 0.27248 0.79874 0.0
C1555 C 0.89572 0.28287 0.79017 0.0
C1556 C 0.86061 0.27293 0.7905 0.0
C1557 C 0.86921 0.25293 0.8265 0.0
C1558 C 0.84741 0.25572 0.78554 0.0
C1559 C 0.82829 0.25656 0.77929 0.0
C1560 C 0.82211 0.27465 0.77749 0.0
C1561 C 0.83561 0.2918 0.78157 0.0
C1562 C 0.85458 0.29094 0.78804 0.0
H1563 H 0.87446 0.25125 0.84167 0.0
H1564 H 0.85691 0.26093 0.82652 0.0
H1565 H 0.86408 0.23814 0.81935 0.0
H1566 H 0.8518 0.24162 0.78677 0.0
H1567 H 0.81834 0.24306 0.77614 0.0
H1568 H 0.48955 0.19939 0.64466 0.0
H1569 H 0.49193 0.17029 0.62406 0.0
H1570 H 0.50741 0.2064 0.57827 0.0
H1571 H 0.50515 0.23555 0.59875 0.0
H1572 H 0.47296 0.15639 0.58567 0.0
H1573 H 0.55196 0.17483 0.58782 0.0
H1574 H 0.53861 0.18605 0.60478 0.0
H1575 H 0.53881 0.1937 0.58075 0.0
C1576 C 0.49334 0.20112 0.63016 0.0
C1577 C 0.49729 0.21976 0.62336 0.0
C1578 C 0.49466 0.18449 0.61842 0.0
C1579 C 0.50008 0.18624 0.59975 0.0
C1580 C 0.50347 0.20478 0.59273 0.0
H1581 H 0.53057 0.10253 0.51519 0.0
H1582 H 0.52301 0.13193 0.53186 0.0
C1583 C 0.50211 0.2214 0.60443 0.0
C1584 C 0.50278 0.16874 0.58785 0.0
H1585 H 0.53689 0.14715 0.56792 0.0
C1586 C 0.48691 0.15433 0.58176 0.0
C1587 C 0.52101 0.16616 0.58276 0.0
C1588 C 0.53864 0.1809 0.58946 0.0
C1589 C 0.48876 0.13744 0.57051 0.0
C1590 C 0.50706 0.13475 0.56561 0.0
C1591 C 0.52288 0.14926 0.57161 0.0
C1592 C 0.51032 0.11677 0.5548 0.0
C1593 C 0.47108 0.12282 0.56371 0.0
C1594 C 0.50576 0.09851 0.56217 0.0
C1595 C 0.51002 0.08175 0.55266 0.0
C1596 C 0.51907 0.08297 0.53568 0.0
C1597 C 0.52356 0.1012 0.52824 0.0
C1598 C 0.51923 0.11797 0.53773 0.0
H1599 H 0.45797 0.12961 0.56354 0.0
H1600 H 0.4719 0.11615 0.54905 0.0
H1601 H 0.46967 0.11102 0.5737 0.0
H1602 H 0.49936 0.09727 0.57557 0.0
H1603 H 0.50663 0.06791 0.55885 0.0
H1604 H 0.59796 0.78642 0.37795 0.0
H1605 H 0.62748 0.78521 0.36303 0.0
H1606 H 0.59786 0.79018 0.30737 0.0
H1607 H 0.56824 0.79157 0.32225 0.0
H1608 H 0.63437 0.75803 0.33467 0.0
H1609 H 0.64515 0.83289 0.31009 0.0
H1610 H 0.62886 0.82545 0.32754 0.0
H1611 H 0.62204 0.81883 0.30233 0.0
C1612 C 0.59773 0.78737 0.36254 0.0
C1613 C 0.58077 0.78916 0.35128 0.0
C1614 C 0.61462 0.78665 0.35404 0.0
C1615 C 0.61495 0.78784 0.33413 0.0
C1616 C 0.59803 0.78959 0.32281 0.0
H1617 H 0.69818 0.75404 0.2618 0.0
H1618 H 0.67012 0.75651 0.27888 0.0
C1619 C 0.58109 0.79028 0.33131 0.0
C1620 C 0.63288 0.78665 0.3252 0.0
H1621 H 0.66544 0.81155 0.299 0.0
C1622 C 0.6412 0.76975 0.32692 0.0
C1623 C 0.64193 0.80207 0.31533 0.0
C1624 C 0.63418 0.82092 0.31382 0.0
C1625 C 0.65807 0.76769 0.31868 0.0
C1626 C 0.66675 0.78283 0.30825 0.0
C1627 C 0.65869 0.7999 0.30689 0.0
C1628 C 0.68399 0.78106 0.29831 0.0
C1629 C 0.66657 0.74939 0.32136 0.0
C1630 C 0.70105 0.79421 0.30338 0.0
C1631 C 0.71711 0.79285 0.29358 0.0
C1632 C 0.71629 0.77841 0.27846 0.0
C1633 C 0.69923 0.76527 0.27345 0.0
C1634 C 0.68322 0.7666 0.28326 0.0
H1635 H 0.66123 0.74169 0.33372 0.0
H1636 H 0.66255 0.73932 0.3082 0.0
H1637 H 0.68241 0.75275 0.32372 0.0
H1638 H 0.70193 0.80554 0.31489 0.0
H1639 H 0.73004 0.80328 0.29763 0.0
H1640 H 0.05846 0.22064 0.45444 0.0
H1641 H 0.05666 0.18937 0.46901 0.0
H1642 H 0.9959 0.18639 0.47 0.0
H1643 H 0.99754 0.21774 0.45553 0.0
H1644 H 0.0329 0.17918 0.50734 0.0
H1645 H 0.01271 0.13473 0.43727 0.0
H1646 H 0.02759 0.1584 0.43866 0.0
H1647 H 0.00279 0.15664 0.44195 0.0
C1648 C 0.04474 0.2134 0.45789 0.0
C1649 C 0.02813 0.22157 0.45385 0.0
C1650 C 0.04375 0.1956 0.46619 0.0
C1651 C 0.02615 0.18571 0.47044 0.0
C1652 C 0.00959 0.19393 0.46675 0.0
H1653 H 0.99783 0.06706 0.50366 0.0
H1654 H 0.99634 0.09916 0.49156 0.0
C1655 C 0.01057 0.21179 0.45854 0.0
C1656 C 0.02508 0.16652 0.47833 0.0
H1657 H 0.017 0.1178 0.46501 0.0
C1658 C 0.02936 0.16571 0.49817 0.0
C1659 C 0.0203 0.14914 0.46623 0.0
C1660 C 0.01557 0.14956 0.4448 0.0
C1661 C 0.02913 0.14778 0.5063 0.0
C1662 C 0.02494 0.13034 0.49412 0.0
C1663 C 0.02028 0.13121 0.47428 0.0
C1664 C 0.02578 0.11106 0.50158 0.0
C1665 C 0.03315 0.14767 0.52785 0.0
C1666 C 0.04288 0.10709 0.51092 0.0
C1667 C 0.04374 0.08883 0.51781 0.0
C1668 C 0.02758 0.07421 0.5152 0.0
C1669 C 0.01053 0.07808 0.50565 0.0
C1670 C 0.00964 0.09639 0.49883 0.0
H1671 H 0.03039 0.1613 0.53539 0.0
H1672 H 0.02431 0.13505 0.53337 0.0
H1673 H 0.04842 0.14659 0.53152 0.0
H1674 H 0.05562 0.11805 0.51273 0.0
H1675 H 0.05709 0.0861 0.525 0.0
H1676 H 0.55841 0.26582 0.14259 0.0
H1677 H 0.58873 0.27074 0.16307 0.0
H1678 H 0.57606 0.32471 0.18825 0.0
H1679 H 0.54545 0.31971 0.168 0.0
H1680 H 0.61896 0.3014 0.16519 0.0
H1681 H 0.58851 0.29486 0.2353 0.0
H1682 H 0.57435 0.28755 0.21252 0.0
H1683 H 0.58051 0.31292 0.22065 0.0
C1684 C 0.56206 0.27873 0.15249 0.0
C1685 C 0.54956 0.29234 0.15379 0.0
C1686 C 0.57938 0.28153 0.16416 0.0
C1687 C 0.58448 0.29795 0.17732 0.0
C1688 C 0.57219 0.31176 0.17843 0.0
H1689 H 0.70221 0.32353 0.23293 0.0
H1690 H 0.67141 0.32834 0.21679 0.0
C1691 C 0.55479 0.30893 0.16679 0.0
C1692 C 0.60281 0.30052 0.18969 0.0
H1693 H 0.62209 0.30124 0.23631 0.0
C1694 C 0.6197 0.30153 0.18076 0.0
C1695 C 0.60361 0.30055 0.20996 0.0
C1696 C 0.5858 0.29876 0.22024 0.0
C1697 C 0.6374 0.30206 0.19151 0.0
C1698 C 0.63822 0.30202 0.21179 0.0
C1699 C 0.62138 0.30147 0.22078 0.0
C1700 C 0.65616 0.30065 0.22366 0.0
C1701 C 0.65491 0.30174 0.18099 0.0
C1702 C 0.65748 0.28396 0.23365 0.0
C1703 C 0.67493 0.28132 0.24303 0.0
C1704 C 0.69129 0.29529 0.24248 0.0
C1705 C 0.68978 0.31246 0.23335 0.0
C1706 C 0.67227 0.31518 0.22409 0.0
H1707 H 0.65116 0.29766 0.16534 0.0
H1708 H 0.66375 0.31646 0.18268 0.0
H1709 H 0.66372 0.2913 0.18702 0.0
H1710 H 0.64517 0.27262 0.23354 0.0
H1711 H 0.67575 0.268 0.25007 0.0
H1712 H 0.53229 0.8397 0.9328 0.0
H1713 H 0.53683 0.87083 0.95183 0.0
H1714 H 0.56066 0.84459 1.00082 0.0
H1715 H 0.55563 0.81303 0.98187 0.0
H1716 H 0.53473 0.86602 0.01086 0.0
H1717 H 0.58411 0.90981 0.96813 0.0
H1718 H 0.56347 0.89793 0.95284 0.0
H1719 H 0.57917 0.88352 0.96493 0.0
C1720 C 0.5387 0.84057 0.94756 0.0
C1721 C 0.54366 0.82396 0.95585 0.0
C1722 C 0.54144 0.85843 0.95839 0.0
C1723 C 0.5495 0.86016 0.97762 0.0
C1724 C 0.5546 0.84361 0.98594 0.0
H1725 H 0.56394 0.98133 0.02517 0.0
H1726 H 0.57212 0.94886 0.01902 0.0
C1727 C 0.55173 0.82563 0.97511 0.0
C1728 C 0.55116 0.87898 0.98922 0.0
H1729 H 0.56448 0.92785 0.9867 0.0
C1730 C 0.5416 0.87953 0.00584 0.0
C1731 C 0.56055 0.89658 0.98302 0.0
C1732 C 0.57258 0.8969 0.96637 0.0
C1733 C 0.53989 0.89732 0.01551 0.0
C1734 C 0.54747 0.91497 0.008 0.0
C1735 C 0.55834 0.91435 0.99231 0.0
C1736 C 0.5428 0.93407 0.01482 0.0
C1737 C 0.52966 0.89695 0.03343 0.0
C1738 C 0.52362 0.93655 0.01482 0.0
C1739 C 0.51893 0.95502 0.01858 0.0
C1740 C 0.53331 0.97148 0.02198 0.0
C1741 C 0.55253 0.96894 0.02255 0.0
C1742 C 0.55723 0.95039 0.01905 0.0
H1743 H 0.53168 0.88393 0.04131 0.0
H1744 H 0.53477 0.91022 0.0433 0.0
H1745 H 0.51411 0.89604 0.02931 0.0
H1746 H 0.51219 0.92435 0.011 0.0
H1747 H 0.50397 0.95648 0.01781 0.0
H1748 H 0.9343 0.77967 0.63424 0.0
H1749 H 0.90917 0.77915 0.6558 0.0
H1750 H 0.94808 0.76671 0.70271 0.0
H1751 H 0.97341 0.76747 0.68129 0.0
H1752 H 0.89362 0.74928 0.6777 0.0
H1753 H 0.92853 0.81561 0.72366 0.0
H1754 H 0.93606 0.80915 0.70054 0.0
H1755 H 0.94271 0.7966 0.72117 0.0
C1756 C 0.93748 0.77676 0.64913 0.0
C1757 C 0.95582 0.77373 0.65614 0.0
C1758 C 0.92313 0.77646 0.6614 0.0
C1759 C 0.9269 0.77317 0.68087 0.0
C1760 C 0.94503 0.76962 0.6878 0.0
H1761 H 0.83275 0.75205 0.75288 0.0
H1762 H 0.86249 0.74945 0.73869 0.0
C1763 C 0.95942 0.76995 0.67553 0.0
C1764 C 0.91176 0.77365 0.69383 0.0
H1765 H 0.89918 0.79957 0.7322 0.0
C1766 C 0.89485 0.76016 0.68972 0.0
C1767 C 0.91346 0.788 0.70936 0.0
C1768 C 0.93108 0.80329 0.71393 0.0
C1769 C 0.87937 0.76085 0.70054 0.0
C1770 C 0.88105 0.7752 0.71608 0.0
C1771 C 0.89808 0.78849 0.72039 0.0
C1772 C 0.86467 0.77765 0.72691 0.0
C1773 C 0.86108 0.74672 0.69474 0.0
C1774 C 0.85666 0.79475 0.72576 0.0
C1775 C 0.83985 0.79635 0.734 0.0
C1776 C 0.83085 0.78086 0.7435 0.0
C1777 C 0.83942 0.76417 0.74555 0.0
C1778 C 0.8563 0.76261 0.73737 0.0
H1779 H 0.86087 0.73942 0.68013 0.0
H1780 H 0.85965 0.73528 0.70511 0.0
H1781 H 0.84849 0.75428 0.69496 0.0
H1782 H 0.86299 0.80653 0.7178 0.0
H1783 H 0.8335 0.80937 0.73227 0.0
H1784 H 0.13561 0.02362 0.85801 0.0
H1785 H 0.11453 0.02253 0.88376 0.0
H1786 H 0.07408 0.97785 0.84994 0.0
H1787 H 0.09495 0.97907 0.82404 0.0
H1788 H 0.05699 0.00709 0.86518 0.0
H1789 H 0.10441 0.98111 0.92186 0.0
H1790 H 0.11557 0.0025 0.91171 0.0
H1791 H 0.10872 0.98004 0.89683 0.0
C1792 C 0.1223 0.01346 0.85613 0.0
C1793 C 0.11697 0.00139 0.83903 0.0
C1794 C 0.11031 0.01277 0.8709 0.0
C1795 C 0.09285 0.99989 0.8689 0.0
C1796 C 0.08752 0.98782 0.85184 0.0
H1797 H 0.02656 0.98221 0.96755 0.0
H1798 H 0.04195 0.97566 0.93852 0.0
C1799 C 0.09948 0.98852 0.83707 0.0
C1800 C 0.0798 0.9996 0.88427 0.0
H1801 H 0.07753 0.99397 0.93217 0.0
C1802 C 0.06141 0.00403 0.87979 0.0
C1803 C 0.08543 0.99527 0.90325 0.0
C1804 C 0.10453 0.98927 0.9087 0.0
C1805 C 0.04879 0.00502 0.89396 0.0
C1806 C 0.05483 0.00177 0.91316 0.0
C1807 C 0.07293 0.99658 0.91747 0.0
C1808 C 0.04318 0.00487 0.92926 0.0
C1809 C 0.02913 0.00957 0.88821 0.0
C1810 C 0.03842 0.02334 0.9335 0.0
C1811 C 0.02958 0.02711 0.94999 0.0
C1812 C 0.02542 0.01251 0.96273 0.0
C1813 C 0.02943 0.99375 0.95802 0.0
C1814 C 0.03833 0.99001 0.94148 0.0
H1815 H 0.02459 0.00545 0.87268 0.0
H1816 H 0.01837 0.00186 0.89679 0.0
H1817 H 0.02934 0.02549 0.89075 0.0
H1818 H 0.04234 0.03515 0.92451 0.0
H1819 H 0.02675 0.04174 0.95315 0.0
H1820 H 0.71314 0.37705 0.59465 0.0
H1821 H 0.71896 0.36046 0.62406 0.0
H1822 H 0.75341 0.32504 0.59471 0.0
H1823 H 0.74756 0.34145 0.56521 0.0
H1824 H 0.71184 0.31825 0.62976 0.0
H1825 H 0.78835 0.35196 0.64401 0.0
H1826 H 0.77141 0.36199 0.62828 0.0
H1827 H 0.7807 0.34079 0.6201 0.0
C1828 C 0.72184 0.36562 0.5944 0.0
C1829 C 0.7299 0.3606 0.57756 0.0
C1830 C 0.72516 0.35616 0.61124 0.0
C1831 C 0.73681 0.34166 0.61168 0.0
C1832 C 0.74456 0.33634 0.59479 0.0
H1833 H 0.75657 0.25853 0.69635 0.0
H1834 H 0.75055 0.27518 0.66701 0.0
C1835 C 0.74111 0.34566 0.5779 0.0
C1836 C 0.741 0.33224 0.62984 0.0
H1837 H 0.77704 0.32778 0.66441 0.0
C1838 C 0.72609 0.32034 0.63734 0.0
C1839 C 0.75956 0.33512 0.63985 0.0
C1840 C 0.77596 0.34826 0.63281 0.0
C1841 C 0.72934 0.31095 0.65432 0.0
C1842 C 0.74796 0.31354 0.66411 0.0
C1843 C 0.7628 0.32572 0.65683 0.0
C1844 C 0.75223 0.30362 0.68189 0.0
C1845 C 0.71286 0.29836 0.66184 0.0
C1846 C 0.75537 0.31411 0.7 0.0
C1847 C 0.7587 0.30458 0.71681 0.0
C1848 C 0.75929 0.28447 0.71579 0.0
C1849 C 0.75638 0.27408 0.6976 0.0
C1850 C 0.75289 0.28355 0.68083 0.0
H1851 H 0.69889 0.29991 0.65413 0.0
H1852 H 0.71471 0.28284 0.66004 0.0
H1853 H 0.71263 0.30215 0.67745 0.0
H1854 H 0.75479 0.32958 0.70117 0.0
H1855 H 0.76018 0.31284 0.73058 0.0
H1856 H 0.46031 0.06584 0.3003 0.0
H1857 H 0.47586 0.06364 0.33272 0.0
H1858 H 0.42293 0.06803 0.35655 0.0
H1859 H 0.40742 0.07055 0.32432 0.0
H1860 H 0.45417 0.09072 0.37798 0.0
H1861 H 0.46797 0.01525 0.36293 0.0
H1862 H 0.47769 0.03244 0.34689 0.0
H1863 H 0.45224 0.02642 0.34696 0.0
C1864 C 0.45203 0.06647 0.31247 0.0
C1865 C 0.43261 0.06828 0.30972 0.0
C1866 C 0.4609 0.06506 0.33098 0.0
C1867 C 0.45048 0.0653 0.34706 0.0
C1868 C 0.43124 0.06771 0.34437 0.0
H1869 H 0.46798 0.05049 0.46941 0.0
H1870 H 0.45595 0.05705 0.43699 0.0
C1871 C 0.42239 0.06914 0.32592 0.0
C1872 C 0.45944 0.06284 0.36668 0.0
H1873 H 0.4802 0.03086 0.39348 0.0
C1874 C 0.45988 0.07764 0.38137 0.0
C1875 C 0.46687 0.04576 0.37113 0.0
C1876 C 0.46606 0.02896 0.35622 0.0
C1877 C 0.46765 0.07588 0.4003 0.0
C1878 C 0.47491 0.05872 0.40477 0.0
C1879 C 0.47467 0.04402 0.39005 0.0
C1880 C 0.48247 0.05549 0.4247 0.0
C1881 C 0.46825 0.09254 0.41529 0.0
C1882 C 0.5013 0.05211 0.42859 0.0
C1883 C 0.50823 0.04826 0.44712 0.0
C1884 C 0.49641 0.04753 0.46219 0.0
C1885 C 0.47755 0.05102 0.45824 0.0
C1886 C 0.47065 0.0549 0.4397 0.0
H1887 H 0.46715 0.10644 0.4086 0.0
H1888 H 0.45601 0.08929 0.42392 0.0
H1889 H 0.48163 0.09456 0.42521 0.0
H1890 H 0.51065 0.05239 0.41723 0.0
H1891 H 0.5228 0.04559 0.44955 0.0
H1892 H 0.75355 0.71711 0.02982 0.0
H1893 H 0.75057 0.74042 0.05657 0.0
H1894 H 0.80279 0.72814 0.08609 0.0
H1895 H 0.80607 0.70529 0.05934 0.0
H1896 H 0.74559 0.72906 0.09159 0.0
H1897 H 0.80936 0.78608 0.09777 0.0
H1898 H 0.80192 0.77006 0.0762 0.0
H1899 H 0.81617 0.76239 0.09611 0.0
C1900 C 0.76464 0.71979 0.04181 0.0
C1901 C 0.77997 0.70932 0.0426 0.0
C1902 C 0.76294 0.73313 0.05704 0.0
C1903 C 0.77658 0.73622 0.07321 0.0
C1904 C 0.79237 0.72642 0.07355 0.0
H1905 H 0.78966 0.75565 0.19189 0.0
H1906 H 0.7915 0.75078 0.15726 0.0
C1907 C 0.79412 0.71318 0.05832 0.0
C1908 C 0.77296 0.74711 0.09093 0.0
H1909 H 0.79537 0.77934 0.12778 0.0
C1910 C 0.75621 0.74048 0.09927 0.0
C1911 C 0.78682 0.76201 0.1009 0.0
C1912 C 0.80447 0.77067 0.09214 0.0
C1913 C 0.75366 0.74719 0.11797 0.0
C1914 C 0.76818 0.76101 0.12846 0.0
C1915 C 0.78434 0.76863 0.11968 0.0
C1916 C 0.76789 0.76578 0.14923 0.0
C1917 C 0.73611 0.73843 0.12689 0.0
C1918 C 0.75416 0.77606 0.15608 0.0
C1919 C 0.75303 0.77879 0.17587 0.0
C1920 C 0.76562 0.77124 0.18895 0.0
C1921 C 0.77969 0.76146 0.18206 0.0
C1922 C 0.78083 0.75879 0.16233 0.0
H1923 H 0.72732 0.72619 0.11756 0.0
H1924 H 0.74026 0.73303 0.14104 0.0
H1925 H 0.72714 0.74981 0.12941 0.0
H1926 H 0.74415 0.78166 0.14612 0.0
H1927 H 0.74215 0.78651 0.1809 0.0
H1928 H 0.09737 0.01457 0.7479 0.0
H1929 H 0.08078 0.01328 0.71549 0.0
H1930 H 0.11816 0.97575 0.69431 0.0
H1931 H 0.13489 0.97696 0.72672 0.0
H1932 H 0.10134 0.02586 0.68306 0.0
H1933 H 0.06282 0.94947 0.67129 0.0
H1934 H 0.07048 0.96134 0.69506 0.0
H1935 H 0.08758 0.95286 0.68077 0.0
C1936 C 0.10188 0.00579 0.73641 0.0
C1937 C 0.11746 0.9959 0.73981 0.0
C1938 C 0.09239 0.00508 0.71793 0.0
C1939 C 0.09817 0.9943 0.70261 0.0
C1940 C 0.11333 0.98391 0.70604 0.0
H1941 H 0.06484 0.98466 0.57887 0.0
H1942 H 0.07836 0.9798 0.61148 0.0
C1943 C 0.12291 0.9847 0.72452 0.0
C1944 C 0.08949 0.99545 0.68277 0.0
H1945 H 0.0618 0.96894 0.64475 0.0
C1946 C 0.09263 0.01345 0.67468 0.0
C1947 C 0.07838 0.97915 0.67189 0.0
C1948 C 0.07444 0.95959 0.68015 0.0
C1949 C 0.08501 0.01561 0.65589 0.0
C1950 C 0.0735 0.99943 0.64511 0.0
C1951 C 0.07054 0.98133 0.65311 0.0
C1952 C 0.06427 0.00122 0.62558 0.0
C1953 C 0.08966 0.03513 0.64766 0.0
C1954 C 0.05148 0.01443 0.62282 0.0
C1955 C 0.04393 0.01734 0.60429 0.0
C1956 C 0.04884 0.00688 0.58825 0.0
C1957 C 0.06094 0.99298 0.59104 0.0
C1958 C 0.06862 0.99017 0.60961 0.0
H1959 H 0.10277 0.04403 0.65543 0.0
H1960 H 0.09172 0.03333 0.63216 0.0
H1961 H 0.07768 0.04335 0.64911 0.0
H1962 H 0.04758 0.02275 0.63499 0.0
H1963 H 0.03445 0.02798 0.60253 0.0
H1964 H 0.70725 0.34065 0.4773 0.0
H1965 H 0.71037 0.32486 0.44564 0.0
H1966 H 0.75322 0.37315 0.43562 0.0
H1967 H 0.74982 0.38911 0.46681 0.0
H1968 H 0.72848 0.36304 0.40431 0.0
H1969 H 0.75269 0.29654 0.43063 0.0
H1970 H 0.73006 0.30047 0.438 0.0
H1971 H 0.75128 0.3175 0.44656 0.0
C1972 C 0.71731 0.34788 0.46831 0.0
C1973 C 0.7283 0.36613 0.47462 0.0
C1974 C 0.71921 0.33876 0.45027 0.0
C1975 C 0.73229 0.34762 0.43827 0.0
C1976 C 0.74307 0.36594 0.44454 0.0
H1977 H 0.77982 0.29662 0.34095 0.0
H1978 H 0.77316 0.30956 0.37246 0.0
C1979 C 0.74111 0.37506 0.46244 0.0
C1980 C 0.7347 0.33817 0.41907 0.0
H1981 H 0.74701 0.2975 0.39682 0.0
C1982 C 0.73249 0.34868 0.4027 0.0
C1983 C 0.74022 0.31954 0.4169 0.0
C1984 C 0.74389 0.3079 0.43396 0.0
C1985 C 0.73565 0.34118 0.38435 0.0
C1986 C 0.74072 0.32236 0.3821 0.0
C1987 C 0.74295 0.31183 0.39846 0.0
C1988 C 0.74436 0.31364 0.36301 0.0
C1989 C 0.73414 0.35383 0.36768 0.0
C1990 C 0.73029 0.31116 0.34718 0.0
C1991 C 0.7341 0.30388 0.32908 0.0
C1992 C 0.75201 0.2986 0.32639 0.0
C1993 C 0.76587 0.30049 0.34242 0.0
C1994 C 0.76207 0.3079 0.3605 0.0
H1995 H 0.7355 0.36948 0.37267 0.0
H1996 H 0.74531 0.35219 0.35794 0.0
H1997 H 0.71995 0.34942 0.35929 0.0
H1998 H 0.71634 0.31498 0.34878 0.0
H1999 H 0.72301 0.30252 0.31717 0.0
H2000 H 0.45134 0.08754 0.21046 0.0
H2001 H 0.4675 0.08376 0.18131 0.0
H2002 H 0.4314 0.02825 0.16569 0.0
H2003 H 0.41495 0.03217 0.1944 0.0
H2004 H 0.48793 0.05626 0.17009 0.0
H2005 H 0.4254 0.0541 0.11616 0.0
H2006 H 0.42497 0.06151 0.14126 0.0
H2007 H 0.42151 0.03604 0.1332 0.0
C2008 C 0.44678 0.0746 0.20072 0.0
C2009 C 0.43177 0.06023 0.20467 0.0
C2010 C 0.45603 0.07244 0.18408 0.0
C2011 C 0.45044 0.05589 0.17104 0.0
C2012 C 0.43564 0.04141 0.17517 0.0
H2013 H 0.49588 0.01178 0.06809 0.0
H2014 H 0.47825 0.01549 0.0963 0.0
C2015 C 0.42633 0.04361 0.1917 0.0
C2016 C 0.46048 0.05342 0.1535 0.0
H2017 H 0.45333 0.04496 0.10445 0.0
C2018 C 0.48036 0.05393 0.15574 0.0
C2019 C 0.45064 0.05031 0.13472 0.0
C2020 C 0.42949 0.05064 0.13113 0.0
C2021 C 0.49056 0.05113 0.13983 0.0
C2022 C 0.48069 0.04788 0.12111 0.0
C2023 C 0.46084 0.04732 0.11882 0.0
C2024 C 0.49087 0.04567 0.10372 0.0
C2025 C 0.51182 0.0514 0.14314 0.0
C2026 C 0.50355 0.06145 0.09836 0.0
C2027 C 0.51337 0.05943 0.08216 0.0
C2028 C 0.5107 0.04158 0.07095 0.0
C2029 C 0.49792 0.02579 0.07623 0.0
C2030 C 0.48797 0.02786 0.09241 0.0
H2031 H 0.51657 0.04978 0.15846 0.0
H2032 H 0.51612 0.03955 0.13404 0.0
H2033 H 0.5194 0.0655 0.13912 0.0
H2034 H 0.50582 0.07538 0.10671 0.0
H2035 H 0.52307 0.07188 0.0784 0.0
H2036 H 0.76405 0.67326 0.93695 0.0
H2037 H 0.76768 0.69189 0.90867 0.0
H2038 H 0.81794 0.72811 0.93817 0.0
H2039 H 0.81444 0.70946 0.96663 0.0
H2040 H 0.7892 0.74858 0.92075 0.0
H2041 H 0.80875 0.69243 0.87014 0.0
H2042 H 0.78838 0.68381 0.88238 0.0
H2043 H 0.81136 0.69114 0.89595 0.0
C2044 C 0.77599 0.68505 0.93735 0.0
C2045 C 0.78898 0.68991 0.95394 0.0
C2046 C 0.7781 0.69561 0.92118 0.0
C2047 C 0.7932 0.71118 0.92133 0.0
C2048 C 0.80629 0.71602 0.9378 0.0
H2049 H 0.80341 0.76456 0.81217 0.0
H2050 H 0.81324 0.75393 0.84368 0.0
C2051 C 0.80427 0.70536 0.95398 0.0
C2052 C 0.79447 0.723 0.90457 0.0
H2053 H 0.79645 0.71908 0.85607 0.0
C2054 C 0.79114 0.7423 0.90665 0.0
C2055 C 0.79727 0.71481 0.88631 0.0
C2056 C 0.80183 0.69446 0.88353 0.0
C2057 C 0.78933 0.75326 0.89061 0.0
C2058 C 0.7907 0.74454 0.87213 0.0
C2059 C 0.79526 0.72568 0.87026 0.0
C2060 C 0.78574 0.75387 0.85436 0.0
C2061 C 0.78551 0.77387 0.89351 0.0
C2062 C 0.76708 0.75759 0.85009 0.0
C2063 C 0.76138 0.76361 0.83211 0.0
C2064 C 0.77423 0.76592 0.81805 0.0
C2065 C 0.79316 0.76297 0.82268 0.0
C2066 C 0.79882 0.75689 0.84066 0.0
H2067 H 0.79085 0.78034 0.9083 0.0
H2068 H 0.79228 0.78328 0.88297 0.0
H2069 H 0.76987 0.77381 0.89147 0.0
H2070 H 0.75665 0.75494 0.86033 0.0
H2071 H 0.7467 0.76573 0.82902 0.0
H2072 H 0.87148 0.16458 0.01754 0.0
H2073 H 0.89833 0.14635 0.01793 0.0
H2074 H 0.85876 0.09246 0.00642 0.0
H2075 H 0.83194 0.11052 0.00597 0.0
H2076 H 0.90663 0.11646 0.04185 0.0
H2077 H 0.89566 0.0896 0.96474 0.0
H2078 H 0.8848 0.10946 0.9741 0.0
H2079 H 0.87466 0.08466 0.97712 0.0
C2080 C 0.86851 0.14885 0.01501 0.0
C2081 C 0.84955 0.13902 0.01164 0.0
C2082 C 0.88387 0.13844 0.01527 0.0
C2083 C 0.88061 0.11803 0.01193 0.0
C2084 C 0.86169 0.10821 0.00868 0.0
H2085 H 0.95169 0.03187 0.03959 0.0
H2086 H 0.92889 0.05469 0.03845 0.0
C2087 C 0.84634 0.11857 0.00852 0.0
C2088 C 0.89689 0.10688 0.01225 0.0
H2089 H 0.91712 0.07483 0.98503 0.0
C2090 C 0.90902 0.10748 0.02938 0.0
C2091 C 0.90021 0.09534 0.99593 0.0
C2092 C 0.88827 0.09481 0.97686 0.0
C2093 C 0.92391 0.09635 0.03082 0.0
C2094 C 0.92667 0.08411 0.01473 0.0
C2095 C 0.91496 0.08407 0.99741 0.0
C2096 C 0.94109 0.07069 0.01578 0.0
C2097 C 0.93655 0.0978 0.04957 0.0
C2098 C 0.9554 0.07174 0.00315 0.0
C2099 C 0.96844 0.05855 0.00371 0.0
C2100 C 0.96729 0.04399 0.01679 0.0
C2101 C 0.95295 0.04295 0.02936 0.0
C2102 C 0.94 0.05612 0.02884 0.0
H2103 H 0.93645 0.11172 0.05818 0.0
H2104 H 0.93117 0.08568 0.05823 0.0
H2105 H 0.95151 0.0967 0.04708 0.0
H2106 H 0.95646 0.08273 0.99283 0.0
H2107 H 0.97916 0.05951 0.99368 0.0
H2108 H 0.31688 0.44108 0.07537 0.0
H2109 H 0.35003 0.45758 0.0767 0.0
H2110 H 0.3377 0.47878 0.02101 0.0
H2111 H 0.30463 0.4625 0.01963 0.0
H2112 H 0.37387 0.44805 0.04928 0.0
H2113 H 0.36936 0.52685 0.05185 0.0
H2114 H 0.35034 0.50875 0.05816 0.0
H2115 H 0.35305 0.51255 0.03331 0.0
C2116 C 0.32114 0.44965 0.06364 0.0
C2117 C 0.30822 0.45047 0.04737 0.0
C2118 C 0.34006 0.45903 0.06441 0.0
C2119 C 0.34623 0.46954 0.04904 0.0
C2120 C 0.33313 0.47107 0.03318 0.0
H2121 H 0.4494 0.51508 0.003 0.0
H2122 H 0.41676 0.505 0.01069 0.0
C2123 C 0.31426 0.46166 0.03237 0.0
C2124 C 0.36675 0.47693 0.04841 0.0
H2125 H 0.39824 0.51766 0.04198 0.0
C2126 C 0.37931 0.46332 0.04801 0.0
C2127 C 0.37368 0.49681 0.04661 0.0
C2128 C 0.36094 0.51213 0.04768 0.0
C2129 C 0.3985 0.46893 0.04502 0.0
C2130 C 0.40534 0.48876 0.04275 0.0
C2131 C 0.3929 0.50246 0.04368 0.0
C2132 C 0.42516 0.49538 0.03858 0.0
C2133 C 0.41106 0.45347 0.04346 0.0
C2134 C 0.44065 0.49349 0.05183 0.0
C2135 C 0.45934 0.49912 0.04746 0.0
C2136 C 0.46284 0.5069 0.02979 0.0
C2137 C 0.44724 0.5091 0.01671 0.0
C2138 C 0.42857 0.50341 0.02109 0.0
H2139 H 0.40258 0.43856 0.04118 0.0
H2140 H 0.42005 0.45584 0.03141 0.0
H2141 H 0.4207 0.45424 0.05699 0.0
H2142 H 0.43829 0.48763 0.06555 0.0
H2143 H 0.47101 0.49736 0.05793 0.0
H2144 H 0.31804 0.58587 0.74126 0.0
H2145 H 0.30047 0.61326 0.74479 0.0
H2146 H 0.35353 0.6523 0.76124 0.0
H2147 H 0.37115 0.62515 0.75749 0.0
H2148 H 0.29953 0.63783 0.77751 0.0
H2149 H 0.32794 0.67996 0.71877 0.0
H2150 H 0.33055 0.65481 0.72108 0.0
H2151 H 0.34614 0.67397 0.73584 0.0
C2152 C 0.32596 0.60033 0.74546 0.0
C2153 C 0.34598 0.60338 0.74898 0.0
C2154 C 0.31591 0.61594 0.74752 0.0
C2155 C 0.32571 0.63487 0.75303 0.0
C2156 C 0.3457 0.63791 0.75659 0.0
H2157 H 0.27664 0.73388 0.79803 0.0
H2158 H 0.29429 0.70646 0.79455 0.0
C2159 C 0.35574 0.62235 0.75452 0.0
C2160 C 0.31505 0.65136 0.75558 0.0
H2161 H 0.31019 0.69601 0.73996 0.0
C2162 C 0.3018 0.65053 0.76926 0.0
C2163 C 0.31792 0.66785 0.74469 0.0
C2164 C 0.33127 0.66919 0.72914 0.0
C2165 C 0.29148 0.66583 0.7725 0.0
C2166 C 0.29474 0.68254 0.76198 0.0
C2167 C 0.30786 0.68328 0.74816 0.0
C2168 C 0.28413 0.6991 0.76443 0.0
C2169 C 0.2769 0.66378 0.78686 0.0
C2170 C 0.2729 0.70429 0.74862 0.0
C2171 C 0.26316 0.72007 0.75053 0.0
C2172 C 0.26459 0.7311 0.76825 0.0
C2173 C 0.27565 0.72583 0.78414 0.0
C2174 C 0.28549 0.71002 0.78222 0.0
H2175 H 0.27276 0.64835 0.79007 0.0
H2176 H 0.28307 0.67231 0.80053 0.0
H2177 H 0.26385 0.66948 0.78148 0.0
H2178 H 0.27168 0.69611 0.73476 0.0
H2179 H 0.25476 0.72386 0.73801 0.0
H2180 H 0.25104 0.60799 0.50366 0.0
H2181 H 0.2182 0.59075 0.5028 0.0
H2182 H 0.19926 0.64503 0.5178 0.0
H2183 H 0.23189 0.66237 0.51822 0.0
H2184 H 0.19516 0.58714 0.53124 0.0
H2185 H 0.16124 0.62355 0.47225 0.0
H2186 H 0.18682 0.62578 0.47725 0.0
H2187 H 0.17372 0.64058 0.49122 0.0
C2188 C 0.23983 0.61626 0.50659 0.0
C2189 C 0.24403 0.63655 0.51088 0.0
C2190 C 0.22108 0.60639 0.50612 0.0
C2191 C 0.20617 0.61661 0.50991 0.0
C2192 C 0.21039 0.63687 0.51432 0.0
H2193 H 0.09693 0.56995 0.54769 0.0
H2194 H 0.1299 0.58507 0.54502 0.0
C2195 C 0.2291 0.64675 0.51468 0.0
C2196 C 0.18636 0.60602 0.51007 0.0
H2197 H 0.14012 0.60509 0.49148 0.0
C2198 C 0.18314 0.59097 0.52244 0.0
C2199 C 0.17069 0.61079 0.49837 0.0
C2200 C 0.17328 0.62592 0.48388 0.0
C2201 C 0.16467 0.58094 0.52382 0.0
C2202 C 0.14889 0.58639 0.51285 0.0
C2203 C 0.15216 0.60106 0.50008 0.0
C2204 C 0.12887 0.57716 0.51449 0.0
C2205 C 0.16229 0.56444 0.53685 0.0
C2206 C 0.1171 0.56817 0.49812 0.0
C2207 C 0.09818 0.55973 0.49959 0.0
C2208 C 0.09068 0.56016 0.51744 0.0
C2209 C 0.1024 0.56927 0.53377 0.0
C2210 C 0.12128 0.5778 0.53229 0.0
H2211 H 0.17571 0.55833 0.53951 0.0
H2212 H 0.15852 0.56998 0.55095 0.0
H2213 H 0.15073 0.5525 0.53064 0.0
H2214 H 0.1226 0.5676 0.48421 0.0
H2215 H 0.08943 0.55283 0.48676 0.0
H2216 H 0.67936 0.95821 0.78162 0.0
H2217 H 0.69583 0.93002 0.78023 0.0
H2218 H 0.64176 0.89145 0.77572 0.0
H2219 H 0.62507 0.91974 0.77699 0.0
H2220 H 0.69509 0.89922 0.80491 0.0
H2221 H 0.6679 0.87268 0.72924 0.0
H2222 H 0.66628 0.89685 0.73911 0.0
H2223 H 0.65019 0.87618 0.74523 0.0
C2224 C 0.67093 0.94374 0.78032 0.0
C2225 C 0.65089 0.94121 0.77932 0.0
C2226 C 0.68039 0.92764 0.77957 0.0
C2227 C 0.67004 0.90863 0.77769 0.0
C2228 C 0.65002 0.906 0.77691 0.0
H2229 H 0.72912 0.807 0.79053 0.0
H2230 H 0.70677 0.83012 0.79444 0.0
C2231 C 0.64051 0.92216 0.77771 0.0
C2232 C 0.68044 0.89176 0.77649 0.0
H2233 H 0.68878 0.85473 0.74574 0.0
C2234 C 0.69359 0.88936 0.79205 0.0
C2235 C 0.67856 0.87902 0.75963 0.0
C2236 C 0.66509 0.88129 0.74225 0.0
C2237 C 0.70518 0.87482 0.79109 0.0
C2238 C 0.70342 0.86219 0.77417 0.0
C2239 C 0.69001 0.86435 0.75874 0.0
C2240 C 0.71637 0.84765 0.77163 0.0
C2241 C 0.71974 0.87359 0.80789 0.0
C2242 C 0.72888 0.84957 0.75728 0.0
C2243 C 0.7415 0.83634 0.75494 0.0
C2244 C 0.74176 0.82083 0.76683 0.0
C2245 C 0.72915 0.81879 0.78112 0.0
C2246 C 0.71648 0.83205 0.78345 0.0
H2247 H 0.72184 0.88672 0.81819 0.0
H2248 H 0.71482 0.86067 0.81573 0.0
H2249 H 0.73372 0.87184 0.80282 0.0
H2250 H 0.72903 0.86147 0.74799 0.0
H2251 H 0.75101 0.83823 0.74376 0.0
H2252 H 0.72451 0.96948 0.55337 0.0
H2253 H 0.69835 0.98757 0.54506 0.0
H2254 H 0.68515 0.95398 0.4903 0.0
H2255 H 0.71122 0.93589 0.49838 0.0
H2256 H 0.68977 0.00796 0.50579 0.0
H2257 H 0.63644 0.94613 0.52411 0.0
H2258 H 0.66106 0.95 0.53441 0.0
H2259 H 0.65493 0.9407 0.50979 0.0
C2260 C 0.71614 0.96609 0.53949 0.0
C2261 C 0.71977 0.95121 0.52657 0.0
C2262 C 0.70131 0.97647 0.53476 0.0
C2263 C 0.68994 0.97201 0.51712 0.0
C2264 C 0.69386 0.95756 0.50397 0.0
H2265 H 0.57847 0.99891 0.48061 0.0
H2266 H 0.60906 0.98711 0.48083 0.0
C2267 C 0.7087 0.94725 0.50864 0.0
C2268 C 0.67306 0.98139 0.51298 0.0
H2269 H 0.62466 0.97329 0.51249 0.0
C2270 C 0.67549 1.00046 0.50719 0.0
C2271 C 0.65458 0.9714 0.51476 0.0
C2272 C 0.65144 0.95095 0.52119 0.0
C2273 C 0.6597 0.00985 0.50302 0.0
C2274 C 0.64119 0.99995 0.50511 0.0
C2275 C 0.63886 0.9808 0.51078 0.0
C2276 C 0.62396 0.00925 0.50242 0.0
C2277 C 0.66296 0.03011 0.49618 0.0
C2278 C 0.62237 0.02589 0.51412 0.0
C2279 C 0.60497 0.03275 0.51387 0.0
C2280 C 0.58889 0.02285 0.50213 0.0
C2281 C 0.5907 0.00677 0.48979 0.0
C2282 C 0.60813 1.00003 0.48991 0.0
H2283 H 0.67663 0.03308 0.48964 0.0
H2284 H 0.65113 0.03231 0.48546 0.0
H2285 H 0.66371 0.04092 0.50866 0.0
H2286 H 0.63426 0.03296 0.5242 0.0
H2287 H 0.60386 0.04512 0.5236 0.0
H2288 H 0.33783 0.50577 0.77813 0.0
H2289 H 0.32326 0.47189 0.78075 0.0
H2290 H 0.3361 0.45664 0.72331 0.0
H2291 H 0.35101 0.49039 0.72074 0.0
H2292 H 0.2932 0.44771 0.75923 0.0
H2293 H 0.36063 0.41811 0.7546 0.0
H2294 H 0.36013 0.44387 0.7584 0.0
H2295 H 0.35451 0.43174 0.73464 0.0
C2296 C 0.33748 0.49521 0.76603 0.0
C2297 C 0.3457 0.50072 0.74928 0.0
C2298 C 0.32915 0.47586 0.76755 0.0
C2299 C 0.32892 0.46164 0.75238 0.0
C2300 C 0.33652 0.46726 0.73538 0.0
H2301 H 0.28919 0.33692 0.73482 0.0
H2302 H 0.30081 0.37132 0.73134 0.0
C2303 C 0.34492 0.48658 0.73388 0.0
C2304 C 0.32091 0.44092 0.75443 0.0
H2305 H 0.33224 0.39501 0.75358 0.0
C2306 C 0.30175 0.43619 0.75807 0.0
C2307 C 0.3321 0.4259 0.75298 0.0
C2308 C 0.35303 0.43012 0.75012 0.0
C2309 C 0.29338 0.41681 0.75992 0.0
C2310 C 0.30454 0.4018 0.75832 0.0
C2311 C 0.32369 0.40653 0.75472 0.0
C2312 C 0.29669 0.38107 0.76036 0.0
C2313 C 0.27257 0.41248 0.7632 0.0
C2314 C 0.2906 0.3751 0.77788 0.0
C2315 C 0.28397 0.3554 0.77996 0.0
C2316 C 0.28333 0.34127 0.76455 0.0
C2317 C 0.28938 0.34736 0.74698 0.0
C2318 C 0.29606 0.36704 0.74496 0.0
H2319 H 0.26494 0.42473 0.75956 0.0
H2320 H 0.26531 0.39906 0.75448 0.0
H2321 H 0.27143 0.41007 0.7786 0.0
H2322 H 0.29129 0.38563 0.79007 0.0
H2323 H 0.27951 0.35126 0.79371 0.0
H2324 H 0.13768 0.55209 0.25387 0.0
H2325 H 0.15768 0.58394 0.25342 0.0
H2326 H 0.19424 0.57114 0.30211 0.0
H2327 H 0.17462 0.53898 0.3022 0.0
H2328 H 0.16477 0.61369 0.27989 0.0
H2329 H 0.23318 0.58962 0.26649 0.0
H2330 H 0.2108 0.57303 0.26405 0.0
H2331 H 0.22365 0.5801 0.28745 0.0
C2332 C 0.15006 0.55601 0.26439 0.0
C2333 C 0.15465 0.54303 0.27801 0.0
C2334 C 0.16148 0.57421 0.26413 0.0
C2335 C 0.17766 0.57983 0.27753 0.0
C2336 C 0.18214 0.56695 0.29129 0.0
H2337 H 0.22988 0.7017 0.30264 0.0
H2338 H 0.21385 0.66825 0.30474 0.0
C2339 C 0.17084 0.54863 0.29143 0.0
C2340 C 0.18929 0.59949 0.27751 0.0
H2341 H 0.23455 0.62347 0.27508 0.0
C2342 C 0.18002 0.61581 0.27878 0.0
C2343 C 0.20915 0.60226 0.27581 0.0
C2344 C 0.21976 0.58532 0.27317 0.0
C2345 C 0.19003 0.63479 0.2785 0.0
C2346 C 0.21001 0.63761 0.27753 0.0
C2347 C 0.21928 0.6213 0.2761 0.0
C2348 C 0.22138 0.65736 0.27731 0.0
C2349 C 0.17894 0.65157 0.27869 0.0
C2350 C 0.23185 0.6621 0.26174 0.0
C2351 C 0.24134 0.68112 0.26071 0.0
C2352 C 0.24039 0.69569 0.27519 0.0
C2353 C 0.23063 0.69076 0.29117 0.0
C2354 C 0.22136 0.6717 0.29231 0.0
H2355 H 0.16354 0.64663 0.27392 0.0
H2356 H 0.18012 0.65842 0.29359 0.0
H2357 H 0.18464 0.66284 0.26922 0.0
H2358 H 0.23218 0.65124 0.25007 0.0
H2359 H 0.2488 0.68457 0.24825 0.0
H2360 H 0.50783 0.72307 0.39338 0.0
H2361 H 0.50659 0.69585 0.41396 0.0
H2362 H 0.54627 0.73166 0.45714 0.0
H2363 H 0.54721 0.75912 0.43679 0.0
H2364 H 0.53556 0.67742 0.42699 0.0
H2365 H 0.50456 0.70946 0.48898 0.0
H2366 H 0.50472 0.72009 0.46609 0.0
H2367 H 0.52596 0.72393 0.48281 0.0
C2368 C 0.51619 0.72519 0.40731 0.0
C2369 C 0.52756 0.74324 0.41351 0.0
C2370 C 0.51547 0.70963 0.41906 0.0
C2371 C 0.52611 0.71179 0.43722 0.0
C2372 C 0.53758 0.72978 0.4434 0.0
H2373 H 0.54511 0.62201 0.51632 0.0
H2374 H 0.54745 0.65296 0.5008 0.0
C2375 C 0.53821 0.74541 0.4317 0.0
C2376 C 0.52573 0.69492 0.44923 0.0
H2377 H 0.51463 0.67886 0.49266 0.0
C2378 C 0.53098 0.67776 0.44134 0.0
C2379 C 0.51981 0.6954 0.468 0.0
C2380 C 0.51327 0.71313 0.47694 0.0
C2381 C 0.53036 0.66106 0.45164 0.0
C2382 C 0.52428 0.6615 0.47027 0.0
C2383 C 0.51936 0.67869 0.47837 0.0
C2384 C 0.52201 0.64378 0.48098 0.0
C2385 C 0.53609 0.64296 0.44252 0.0
C2386 C 0.50669 0.6287 0.47522 0.0
C2387 C 0.50529 0.61117 0.48404 0.0
C2388 C 0.51923 0.60841 0.49874 0.0
C2389 C 0.53419 0.6238 0.50501 0.0
C2390 C 0.53555 0.64142 0.49619 0.0
H2391 H 0.54343 0.64593 0.42944 0.0
H2392 H 0.54567 0.63662 0.45295 0.0
H2393 H 0.52313 0.63187 0.43837 0.0
H2394 H 0.49608 0.63034 0.46355 0.0
H2395 H 0.49357 0.59957 0.47897 0.0
H2396 H 0.55484 0.24536 0.68781 0.0
H2397 H 0.58725 0.24917 0.70416 0.0
H2398 H 0.58513 0.30935 0.72073 0.0
H2399 H 0.55266 0.3057 0.70429 0.0
H2400 H 0.61915 0.27824 0.69495 0.0
H2401 H 0.60421 0.28506 0.77152 0.0
H2402 H 0.58627 0.27384 0.75244 0.0
H2403 H 0.59297 0.29985 0.75515 0.0
C2404 C 0.56117 0.25936 0.69512 0.0
C2405 C 0.55118 0.27523 0.69478 0.0
C2406 C 0.5797 0.26151 0.70441 0.0
C2407 C 0.58853 0.27949 0.71375 0.0
C2408 C 0.57848 0.29529 0.71379 0.0
H2409 H 0.71112 0.31379 0.74726 0.0
H2410 H 0.67762 0.31388 0.73574 0.0
C2411 C 0.55996 0.29319 0.70436 0.0
C2412 C 0.60861 0.28189 0.72253 0.0
H2413 H 0.63663 0.28865 0.76558 0.0
C2414 C 0.62301 0.2806 0.71038 0.0
C2415 C 0.61352 0.28486 0.74267 0.0
C2416 C 0.59849 0.28588 0.75631 0.0
C2417 C 0.64223 0.28219 0.71782 0.0
C2418 C 0.64718 0.28523 0.73796 0.0
C2419 C 0.63278 0.28648 0.75014 0.0
C2420 C 0.66717 0.28621 0.74655 0.0
C2421 C 0.65709 0.28016 0.70415 0.0
C2422 C 0.67229 0.27089 0.75694 0.0
C2423 C 0.69142 0.27075 0.76352 0.0
C2424 C 0.70579 0.28605 0.75998 0.0
C2425 C 0.70046 0.3018 0.75029 0.0
C2426 C 0.68132 0.30185 0.7436 0.0
H2427 H 0.65055 0.27456 0.68943 0.0
H2428 H 0.66589 0.29463 0.7032 0.0
H2429 H 0.66677 0.27018 0.70952 0.0
H2430 H 0.66156 0.25871 0.7594 0.0
H2431 H 0.69496 0.25842 0.77098 0.0
H2432 H 0.02859 0.32597 0.93544 0.0
H2433 H 0.02444 0.3556 0.95411 0.0
H2434 H 0.02397 0.38643 0.90251 0.0
H2435 H 0.02829 0.35685 0.88373 0.0
H2436 H 0.04633 0.40784 0.93541 0.0
H2437 H 0.97328 0.37662 0.95111 0.0
H2438 H 0.99138 0.36223 0.95764 0.0
H2439 H 0.98531 0.36573 0.93272 0.0
C2440 C 0.02771 0.33908 0.92807 0.0
C2441 C 0.02863 0.33904 0.90809 0.0
C2442 C 0.02527 0.35597 0.93875 0.0
C2443 C 0.02361 0.37312 0.92964 0.0
C2444 C 0.02514 0.37332 0.9098 0.0
H2445 H 0.97495 0.47153 0.9724 0.0
H2446 H 0.98274 0.44312 0.95433 0.0
C2447 C 0.02758 0.35641 0.89909 0.0
C2448 C 0.01976 0.39067 0.94072 0.0
H2449 H 0.98663 0.40749 0.96665 0.0
C2450 C 0.03329 0.40782 0.94224 0.0
C2451 C 0.00263 0.39062 0.94943 0.0
C2452 C 0.98721 0.37289 0.94755 0.0
C2453 C 0.03022 0.42489 0.95243 0.0
C2454 C 0.01325 0.4247 0.96149 0.0
C2455 C 0.99968 0.40758 0.95981 0.0
C2456 C 0.00895 0.44221 0.97234 0.0
C2457 C 0.04501 0.44304 0.95309 0.0
C2458 C 0.02097 0.45102 0.98862 0.0
C2459 C 0.01652 0.46726 0.99895 0.0
C2460 C 0.99996 0.47491 0.99321 0.0
C2461 C 0.98782 0.46594 0.97711 0.0
C2462 C 0.99228 0.44974 0.96677 0.0
H2463 H 0.05439 0.44231 0.94134 0.0
H2464 H 0.03818 0.45626 0.95198 0.0
H2465 H 0.05417 0.4446 0.96701 0.0
H2466 H 0.03366 0.44519 0.99347 0.0
H2467 H 0.02594 0.47371 0.01153 0.0
H2468 H 0.9354 0.78036 0.16581 0.0
H2469 H 0.90692 0.77938 0.18289 0.0
H2470 H 0.93163 0.74628 0.22591 0.0
H2471 H 0.96039 0.74752 0.20904 0.0
H2472 H 0.88151 0.74786 0.19145 0.0
H2473 H 0.91636 0.79038 0.25866 0.0
H2474 H 0.92804 0.78934 0.23692 0.0
H2475 H 0.92675 0.76937 0.25211 0.0
C2476 C 0.93483 0.77294 0.17896 0.0
C2477 C 0.95021 0.76412 0.18614 0.0
C2478 C 0.91851 0.77236 0.18869 0.0
C2479 C 0.91721 0.76299 0.20583 0.0
C2480 C 0.93246 0.75395 0.21293 0.0
H2481 H 0.82665 0.75181 0.28314 0.0
H2482 H 0.85501 0.74751 0.26695 0.0
C2483 C 0.94884 0.75459 0.20322 0.0
C2484 C 0.89974 0.76253 0.21602 0.0
H2485 H 0.88372 0.77703 0.25824 0.0
C2486 C 0.88201 0.75422 0.20606 0.0
C2487 C 0.90037 0.77078 0.23512 0.0
C2488 C 0.91886 0.78063 0.24631 0.0
C2489 C 0.86492 0.75396 0.21465 0.0
C2490 C 0.86553 0.76248 0.23362 0.0
C2491 C 0.88328 0.77045 0.24372 0.0
C2492 C 0.84788 0.76413 0.24293 0.0
C2493 C 0.84637 0.74445 0.20335 0.0
C2494 C 0.83451 0.77495 0.23486 0.0
C2495 C 0.81839 0.77744 0.24407 0.0
C2496 C 0.81532 0.76919 0.26158 0.0
C2497 C 0.82862 0.75825 0.26961 0.0
C2498 C 0.84481 0.75581 0.2604 0.0
H2499 H 0.84876 0.73389 0.19164 0.0
H2500 H 0.83654 0.73673 0.21284 0.0
H2501 H 0.83926 0.75583 0.19666 0.0
H2502 H 0.83678 0.7819 0.22164 0.0
H2503 H 0.80858 0.78625 0.23771 0.0
H2504 H 0.52662 0.32282 0.07407 0.0
H2505 H 0.53146 0.35259 0.05695 0.0
H2506 H 0.48447 0.37238 0.08256 0.0
H2507 H 0.47967 0.34284 0.09985 0.0
H2508 H 0.50578 0.36718 0.03077 0.0
H2509 H 0.52879 0.41812 0.09577 0.0
H2510 H 0.52793 0.39209 0.09612 0.0
H2511 H 0.50643 0.40247 0.09692 0.0
C2512 C 0.51732 0.33353 0.07602 0.0
C2513 C 0.50284 0.3306 0.08835 0.0
C2514 C 0.5201 0.35048 0.06626 0.0
C2515 C 0.50852 0.36477 0.06878 0.0
C2516 C 0.4938 0.36168 0.08075 0.0
H2517 H 0.48622 0.45913 1.0013 0.0
H2518 H 0.48607 0.42798 0.0158 0.0
C2519 C 0.49101 0.34476 0.09052 0.0
C2520 C 0.51163 0.38285 0.05873 0.0
H2521 H 0.52106 0.43238 0.06654 0.0
C2522 C 0.50927 0.38145 0.03854 0.0
C2523 C 0.5165 0.40137 0.06897 0.0
C2524 C 0.52026 0.40367 0.09064 0.0
C2525 C 0.511 0.3982 0.02828 0.0
C2526 C 0.51488 0.41674 0.03855 0.0
C2527 C 0.5179 0.41811 0.05872 0.0
C2528 C 0.51537 0.43497 0.02874 0.0
C2529 C 0.5087 0.3959 0.00657 0.0
C2530 C 0.53181 0.44925 0.03143 0.0
C2531 C 0.53186 0.46704 0.02327 0.0
C2532 C 0.51542 0.47085 0.01249 0.0
C2533 C 0.4991 0.45644 0.0095 0.0
C2534 C 0.49903 0.43866 0.01768 0.0
H2535 H 0.51139 0.38137 1.0011 0.0
H2536 H 0.49385 0.39725 1.00122 0.0
H2537 H 0.51857 0.40735 1.00049 0.0
H2538 H 0.54454 0.44668 0.03997 0.0
H2539 H 0.5447 0.47787 0.02549 0.0
H2540 H 0.97731 0.23913 0.37874 0.0
H2541 H 0.94753 0.23808 0.35791 0.0
H2542 H 0.9424 0.29535 0.3818 0.0
H2543 H 0.97205 0.29645 0.40283 0.0
H2544 H 0.90855 0.26821 0.37921 0.0
H2545 H 0.94136 0.26936 0.31022 0.0
H2546 H 0.9468 0.25048 0.32521 0.0
H2547 H 0.95525 0.27558 0.33332 0.0
C2548 C 0.9698 0.25147 0.37959 0.0
C2549 C 0.977 0.26791 0.39234 0.0
C2550 C 0.95288 0.25089 0.3676 0.0
C2551 C 0.94299 0.26677 0.36812 0.0
C2552 C 0.94993 0.28301 0.38113 0.0
H2553 H 0.85437 0.29824 0.28989 0.0
H2554 H 0.88458 0.29471 0.30807 0.0
C2555 C 0.96684 0.28361 0.39312 0.0
C2556 C 0.92525 0.26641 0.35528 0.0
H2557 H 0.90757 0.26507 0.30807 0.0
C2558 C 0.9083 0.26747 0.36366 0.0
C2559 C 0.9251 0.26567 0.33502 0.0
C2560 C 0.94311 0.26538 0.32535 0.0
C2561 C 0.8911 0.26779 0.35228 0.0
C2562 C 0.89086 0.26667 0.332 0.0
C2563 C 0.90782 0.26568 0.32362 0.0
C2564 C 0.87325 0.26752 0.31937 0.0
C2565 C 0.87347 0.26986 0.36209 0.0
C2566 C 0.85715 0.25304 0.31921 0.0
C2567 C 0.83991 0.25507 0.30892 0.0
C2568 C 0.83863 0.27154 0.29856 0.0
C2569 C 0.85502 0.28545 0.29783 0.0
C2570 C 0.87224 0.28345 0.30819 0.0
H2571 H 0.87702 0.27497 0.37755 0.0
H2572 H 0.86533 0.28026 0.35492 0.0
H2573 H 0.86405 0.25548 0.36118 0.0
H2574 H 0.85779 0.24046 0.32746 0.0
H2575 H 0.82747 0.24406 0.30953 0.0
H2576 H 0.98028 0.74173 0.55939 0.0
H2577 H 0.97692 0.71182 0.53807 0.0
H2578 H 0.99815 0.6817 0.58552 0.0
H2579 H 0.00121 0.71128 0.60687 0.0
H2580 H 0.00479 0.69085 0.52861 0.0
H2581 H 0.95007 0.64471 0.5639 0.0
H2582 H 0.95519 0.67088 0.56863 0.0
H2583 H 0.96977 0.65561 0.58098 0.0
C2584 C 0.98403 0.72865 0.56528 0.0
C2585 C 0.99091 0.72877 0.5848 0.0
C2586 C 0.98213 0.71162 0.5531 0.0
C2587 C 0.98696 0.69448 0.56031 0.0
C2588 C 0.99388 0.69464 0.57978 0.0
H2589 H 0.03122 0.59792 0.51934 0.0
H2590 H 0.02442 0.63071 0.5259 0.0
C2591 C 0.99573 0.71158 0.59194 0.0
C2592 C 0.98578 0.67656 0.54749 0.0
H2593 H 0.97001 0.62766 0.54515 0.0
C2594 C 0.99688 0.67706 0.53193 0.0
C2595 C 0.97508 0.65869 0.55153 0.0
C2596 C 0.96169 0.65746 0.56704 0.0
C2597 C 0.9987 0.65986 0.52122 0.0
C2598 C 0.98951 0.64176 0.52655 0.0
C2599 C 0.97728 0.64149 0.54117 0.0
C2600 C 0.99382 0.62284 0.51877 0.0
C2601 C 0.01074 0.66128 0.5046 0.0
C2602 C 0.97892 0.60745 0.5124 0.0
C2603 C 0.98275 0.58855 0.50903 0.0
C2604 C 0.00156 0.58474 0.51188 0.0
C2605 C 0.01658 0.60039 0.5169 0.0
C2606 C 0.01272 0.61923 0.52052 0.0
H2607 H 0.01027 0.67522 0.49778 0.0
H2608 H 0.02583 0.66104 0.51001 0.0
H2609 H 0.00594 0.64899 0.49347 0.0
H2610 H 0.96423 0.60989 0.51098 0.0
H2611 H 0.97088 0.57681 0.50503 0.0
H2612 H 0.59351 0.77155 0.90049 0.0
H2613 H 0.61482 0.77137 0.87508 0.0
H2614 H 0.56808 0.77597 0.83264 0.0
H2615 H 0.54659 0.7758 0.85794 0.0
H2616 H 0.58864 0.74762 0.82194 0.0
H2617 H 0.63696 0.81689 0.84581 0.0
H2618 H 0.63463 0.80054 0.86462 0.0
H2619 H 0.61412 0.81029 0.8549 0.0
C2620 C 0.58782 0.77268 0.88577 0.0
C2621 C 0.56844 0.77377 0.88118 0.0
C2622 C 0.60002 0.77268 0.87129 0.0
C2623 C 0.59307 0.77397 0.85204 0.0
C2624 C 0.57372 0.77507 0.84743 0.0
H2625 H 0.67702 0.79223 0.76929 0.0
H2626 H 0.64843 0.79483 0.78547 0.0
C2627 C 0.56149 0.77501 0.86189 0.0
C2628 C 0.60589 0.7734 0.83668 0.0
H2629 H 0.64847 0.79515 0.82353 0.0
C2630 C 0.60161 0.75815 0.8221 0.0
C2631 C 0.62257 0.78737 0.83672 0.0
C2632 C 0.62726 0.80481 0.85124 0.0
C2633 C 0.61409 0.75595 0.80807 0.0
C2634 C 0.63143 0.76915 0.80893 0.0
C2635 C 0.63523 0.78493 0.82297 0.0
C2636 C 0.6465 0.76624 0.79641 0.0
C2637 C 0.60863 0.73946 0.79257 0.0
C2638 C 0.65461 0.74914 0.79683 0.0
C2639 C 0.67081 0.74756 0.78746 0.0
C2640 C 0.67927 0.76318 0.77778 0.0
C2641 C 0.67069 0.77995 0.77663 0.0
C2642 C 0.65442 0.78147 0.78589 0.0
H2643 H 0.59287 0.73521 0.78988 0.0
H2644 H 0.61431 0.74345 0.77885 0.0
H2645 H 0.61459 0.72654 0.79732 0.0
H2646 H 0.64905 0.73741 0.80525 0.0
H2647 H 0.67726 0.73455 0.78867 0.0
H2648 H 0.43244 0.58299 0.71605 0.0
H2649 H 0.45223 0.58457 0.68928 0.0
H2650 H 0.40775 0.54537 0.65391 0.0
H2651 H 0.38765 0.54433 0.68041 0.0
H2652 H 0.46671 0.55664 0.67239 0.0
H2653 H 0.42073 0.58574 0.61701 0.0
H2654 H 0.41599 0.58582 0.64189 0.0
H2655 H 0.4083 0.56422 0.62583 0.0
C2656 C 0.42678 0.57494 0.70247 0.0
C2657 C 0.40847 0.5636 0.70029 0.0
C2658 C 0.43811 0.57583 0.68718 0.0
C2659 C 0.43141 0.56534 0.66943 0.0
C2660 C 0.41306 0.55406 0.66723 0.0
H2661 H 0.49686 0.51984 0.58622 0.0
H2662 H 0.48042 0.52729 0.61399 0.0
C2663 C 0.40162 0.55335 0.68245 0.0
C2664 C 0.44409 0.5651 0.65373 0.0
H2665 H 0.44567 0.56991 0.6056 0.0
C2666 C 0.46218 0.55979 0.65784 0.0
C2667 C 0.43842 0.56957 0.63479 0.0
C2668 C 0.41988 0.57687 0.62967 0.0
C2669 C 0.47438 0.55807 0.64344 0.0
C2670 C 0.46813 0.56117 0.62424 0.0
C2671 C 0.45039 0.56727 0.62026 0.0
C2672 C 0.47928 0.55722 0.60793 0.0
C2673 C 0.49389 0.55301 0.64901 0.0
C2674 C 0.48388 0.57145 0.59499 0.0
C2675 C 0.49314 0.56715 0.57885 0.0
C2676 C 0.49793 0.5485 0.57533 0.0
C2677 C 0.49361 0.53443 0.58854 0.0
C2678 C 0.48427 0.5387 0.60455 0.0
H2679 H 0.49895 0.55786 0.6643 0.0
H2680 H 0.49308 0.53695 0.64734 0.0
H2681 H 0.50459 0.55976 0.63982 0.0
H2682 H 0.48005 0.58581 0.59721 0.0
H2683 H 0.49607 0.5783 0.56891 0.0
H2684 H 0.799 0.17048 0.94156 0.0
H2685 H 0.7934 0.18544 0.91122 0.0
H2686 H 0.79526 0.24105 0.94254 0.0
H2687 H 0.80082 0.22614 0.97304 0.0
H2688 H 0.76345 0.23058 0.91358 0.0
H2689 H 0.83208 0.22272 0.88477 0.0
H2690 H 0.81911 0.20074 0.89239 0.0
H2691 H 0.82863 0.22069 0.90985 0.0
C2692 C 0.79841 0.18594 0.94202 0.0
C2693 C 0.80048 0.19714 0.95976 0.0
C2694 C 0.79524 0.19449 0.92462 0.0
C2695 C 0.79407 0.21442 0.92453 0.0
C2696 C 0.79616 0.22565 0.94222 0.0
H2697 H 0.79955 0.29148 0.83292 0.0
H2698 H 0.80418 0.27332 0.86128 0.0
C2699 C 0.79943 0.21713 0.95965 0.0
C2700 C 0.79025 0.22343 0.90604 0.0
H2701 H 0.80888 0.2341 0.8639 0.0
C2702 C 0.77335 0.23131 0.90269 0.0
C2703 C 0.8032 0.22447 0.89185 0.0
C2704 C 0.82186 0.21687 0.89487 0.0
C2705 C 0.76909 0.24018 0.88559 0.0
C2706 C 0.78199 0.24109 0.87134 0.0
C2707 C 0.79888 0.2332 0.8747 0.0
C2708 C 0.77901 0.25154 0.85358 0.0
C2709 C 0.75108 0.24901 0.88312 0.0
C2710 C 0.76341 0.24523 0.83953 0.0
C2711 C 0.76072 0.25565 0.82315 0.0
C2712 C 0.7736 0.27254 0.82059 0.0
C2713 C 0.78931 0.27859 0.83452 0.0
C2714 C 0.79202 0.26818 0.85074 0.0
H2715 H 0.74452 0.25032 0.89683 0.0
H2716 H 0.75406 0.26368 0.87762 0.0
H2717 H 0.74054 0.23962 0.87244 0.0
H2718 H 0.75332 0.23226 0.84124 0.0
H2719 H 0.7485 0.25065 0.81266 0.0
H2720 H 0.11046 0.47593 0.20874 0.0
H2721 H 0.09462 0.47932 0.17684 0.0
H2722 H 0.0482 0.49961 0.20303 0.0
H2723 H 0.06417 0.49661 0.23504 0.0
H2724 H 0.05941 0.46283 0.15828 0.0
H2725 H 0.06458 0.54323 0.16905 0.0
H2726 H 0.07746 0.52947 0.18522 0.0
H2727 H 0.05249 0.52993 0.18674 0.0
C2728 C 0.09683 0.48102 0.20772 0.0
C2729 C 0.08863 0.48613 0.22443 0.0
C2730 C 0.08779 0.48295 0.18947 0.0
C2731 C 0.07039 0.49008 0.18752 0.0
C2732 C 0.06183 0.49452 0.20416 0.0
H2733 H 0.00233 0.51822 0.08525 0.0
H2734 H 0.01325 0.5113 0.11799 0.0
C2735 C 0.0709 0.49265 0.22245 0.0
C2736 C 0.06147 0.49307 0.16805 0.0
H2737 H 0.04788 0.528 0.13992 0.0
C2738 C 0.05687 0.47708 0.15428 0.0
C2739 C 0.05815 0.51168 0.16281 0.0
C2740 C 0.06357 0.52961 0.17665 0.0
C2741 C 0.04902 0.47916 0.13546 0.0
C2742 C 0.04592 0.49779 0.13018 0.0
C2743 C 0.05022 0.51372 0.14401 0.0
C2744 C 0.0389 0.50122 0.11018 0.0
C2745 C 0.04397 0.46136 0.12143 0.0
C2746 C 0.04975 0.49799 0.09492 0.0
C2747 C 0.04359 0.50196 0.07621 0.0
C2748 C 0.02643 0.5093 0.07233 0.0
C2749 C 0.01555 0.51247 0.08766 0.0
C2750 C 0.02178 0.50856 0.1064 0.0
H2751 H 0.04228 0.44769 0.12896 0.0
H2752 H 0.03054 0.4618 0.11216 0.0
H2753 H 0.05559 0.46091 0.11201 0.0
H2754 H 0.0632 0.49271 0.09754 0.0
H2755 H 0.05241 0.49942 0.06483 0.0
H2756 H 0.79385 0.89129 0.49015 0.0
H2757 H 0.79488 0.87114 0.46049 0.0
H2758 H 0.73753 0.84205 0.46472 0.0
H2759 H 0.73627 0.86233 0.49425 0.0
H2760 H 0.78912 0.82978 0.45243 0.0
H2761 H 0.73461 0.86494 0.41172 0.0
H2762 H 0.74659 0.87508 0.43484 0.0
H2763 H 0.72756 0.85465 0.43339 0.0
C2764 C 0.78151 0.88051 0.48482 0.0
C2765 C 0.76491 0.87849 0.49435 0.0
C2766 C 0.78214 0.869 0.46794 0.0
C2767 C 0.76618 0.85536 0.46034 0.0
C2768 C 0.74986 0.85276 0.47024 0.0
H2769 H 0.74274 0.78813 0.34954 0.0
H2770 H 0.74135 0.8004 0.38283 0.0
C2771 C 0.7492 0.86429 0.4871 0.0
C2772 C 0.76639 0.84451 0.44162 0.0
H2773 H 0.74614 0.83956 0.39509 0.0
C2774 C 0.7797 0.83182 0.43988 0.0
C2775 C 0.75406 0.8473 0.42535 0.0
C2776 C 0.73999 0.86134 0.42627 0.0
C2777 C 0.781 0.82178 0.42219 0.0
C2778 C 0.76887 0.82481 0.40587 0.0
C2779 C 0.75536 0.83725 0.4077 0.0
C2780 C 0.7704 0.81591 0.3865 0.0
C2781 C 0.79524 0.80794 0.42114 0.0
C2782 C 0.7872 0.82059 0.37763 0.0
C2783 C 0.78803 0.8136 0.35865 0.0
C2784 C 0.77201 0.80197 0.34829 0.0
C2785 C 0.7553 0.79705 0.35728 0.0
C2786 C 0.75449 0.80402 0.37624 0.0
H2787 H 0.79945 0.80311 0.43554 0.0
H2788 H 0.78937 0.79489 0.41121 0.0
H2789 H 0.80831 0.81547 0.41561 0.0
H2790 H 0.79948 0.83012 0.38517 0.0
H2791 H 0.80103 0.81765 0.35197 0.0
H2792 H 0.40106 0.57781 0.81414 0.0
H2793 H 0.42141 0.57648 0.84404 0.0
H2794 H 0.44944 0.53372 0.81603 0.0
H2795 H 0.42904 0.53487 0.78606 0.0
H2796 H 0.43618 0.52339 0.85132 0.0
H2797 H 0.47859 0.59794 0.8583 0.0
H2798 H 0.45319 0.5971 0.85434 0.0
H2799 H 0.46551 0.58701 0.8359 0.0
C2800 C 0.41167 0.56825 0.8143 0.0
C2801 C 0.41347 0.55643 0.79778 0.0
C2802 C 0.42337 0.56761 0.83135 0.0
C2803 C 0.43711 0.55522 0.83214 0.0
C2804 C 0.43901 0.54349 0.81564 0.0
H2805 H 0.50916 0.5202 0.92693 0.0
H2806 H 0.4947 0.5256 0.89497 0.0
C2807 C 0.42735 0.54415 0.79856 0.0
C2808 C 0.44857 0.55353 0.85054 0.0
H2809 H 0.48084 0.57936 0.88565 0.0
C2810 C 0.44609 0.53556 0.85876 0.0
C2811 C 0.46135 0.5695 0.86022 0.0
C2812 C 0.46499 0.58895 0.8517 0.0
C2813 C 0.45571 0.53322 0.87666 0.0
C2814 C 0.46848 0.54919 0.88639 0.0
C2815 C 0.47107 0.56715 0.87812 0.0
C2816 C 0.47892 0.54752 0.90538 0.0
C2817 C 0.45165 0.51383 0.88527 0.0
C2818 C 0.47556 0.55876 0.92167 0.0
C2819 C 0.48396 0.55583 0.93991 0.0
C2820 C 0.49582 0.54164 0.94207 0.0
C2821 C 0.49992 0.53111 0.92565 0.0
C2822 C 0.4916 0.5341 0.90743 0.0
H2823 H 0.43815 0.50487 0.8784 0.0
H2824 H 0.46346 0.50554 0.88307 0.0
H2825 H 0.45067 0.51587 0.90099 0.0
H2826 H 0.46592 0.5693 0.92035 0.0
H2827 H 0.48068 0.56421 0.95236 0.0
H2828 H 0.82629 0.19434 0.07834 0.0
H2829 H 0.82211 0.20941 0.10994 0.0
H2830 H 0.77119 0.2288 0.08548 0.0
H2831 H 0.77514 0.21359 0.05395 0.0
H2832 H 0.81988 0.24779 0.12272 0.0
H2833 H 0.75215 0.19865 0.13001 0.0
H2834 H 0.76766 0.19384 0.11196 0.0
H2835 H 0.75181 0.21131 0.10841 0.0
C2836 C 0.81426 0.20192 0.07966 0.0
C2837 C 0.80099 0.20266 0.06362 0.0
C2838 C 0.81188 0.21052 0.09776 0.0
C2839 C 0.79613 0.21994 0.10023 0.0
C2840 C 0.78322 0.22125 0.08408 0.0
H2841 H 0.75237 0.2752 0.19805 0.0
H2842 H 0.7586 0.26293 0.16615 0.0
C2843 C 0.78558 0.21266 0.066 0.0
C2844 C 0.79307 0.22819 0.11969 0.0
H2845 H 0.76134 0.22519 0.1536 0.0
C2846 C 0.80711 0.24279 0.1295 0.0
C2847 C 0.77642 0.22168 0.12861 0.0
C2848 C 0.76121 0.20539 0.11932 0.0
C2849 C 0.80479 0.25133 0.14773 0.0
C2850 C 0.7881 0.24487 0.15661 0.0
C2851 C 0.77409 0.23023 0.14681 0.0
C2852 C 0.78485 0.25302 0.17605 0.0
C2853 C 0.82002 0.26754 0.15712 0.0
C2854 C 0.79746 0.25147 0.19237 0.0
C2855 C 0.79396 0.25853 0.21069 0.0
C2856 C 0.77769 0.2672 0.21316 0.0
C2857 C 0.76509 0.26872 0.19677 0.0
C2858 C 0.76861 0.26166 0.17847 0.0
H2859 H 0.82913 0.27429 0.14648 0.0
H2860 H 0.8136 0.27906 0.16454 0.0
H2861 H 0.82937 0.26151 0.16801 0.0
H2862 H 0.80985 0.24447 0.19101 0.0
H2863 H 0.80388 0.25686 0.22294 0.0
H2864 H 0.11715 0.5146 0.3439 0.0
H2865 H 0.10171 0.51946 0.37315 0.0
H2866 H 0.05179 0.47937 0.3484 0.0
H2867 H 0.06729 0.47425 0.31906 0.0
H2868 H 0.06797 0.53375 0.37708 0.0
H2869 H 0.06345 0.45883 0.4012 0.0
H2870 H 0.07842 0.46746 0.38306 0.0
H2871 H 0.05316 0.46005 0.37695 0.0
C2872 C 0.10293 0.5067 0.3447 0.0
C2873 C 0.09347 0.49396 0.32918 0.0
C2874 C 0.09411 0.50954 0.36144 0.0
C2875 C 0.07568 0.49963 0.36309 0.0
C2876 C 0.06616 0.4869 0.34761 0.0
H2877 H 0.99908 0.52913 0.4463 0.0
H2878 H 0.01506 0.52423 0.41729 0.0
C2879 C 0.07499 0.48406 0.33081 0.0
C2880 C 0.06634 0.5031 0.38085 0.0
H2881 H 0.04755 0.48064 0.41849 0.0
C2882 C 0.06351 0.52214 0.38614 0.0
C2883 C 0.06076 0.488 0.39281 0.0
C2884 C 0.06423 0.46746 0.38837 0.0
C2885 C 0.05505 0.52643 0.40291 0.0
C2886 C 0.04901 0.51124 0.41459 0.0
C2887 C 0.05206 0.49225 0.40945 0.0
C2888 C 0.03955 0.51474 0.43226 0.0
C2889 C 0.05295 0.54727 0.40816 0.0
C2890 C 0.04786 0.51081 0.4503 0.0
C2891 C 0.03872 0.51354 0.46689 0.0
C2892 C 0.02103 0.52016 0.4657 0.0
C2893 C 0.01276 0.52414 0.44765 0.0
C2894 C 0.02191 0.52143 0.43108 0.0
H2895 H 0.06254 0.55772 0.40061 0.0
H2896 H 0.03802 0.54923 0.40392 0.0
H2897 H 0.05612 0.55092 0.42392 0.0
H2898 H 0.06141 0.50555 0.45155 0.0
H2899 H 0.04534 0.51013 0.48056 0.0
H2900 H 0.71858 0.88849 0.58652 0.0
H2901 H 0.70909 0.86452 0.60954 0.0
H2902 H 0.76243 0.84306 0.60691 0.0
H2903 H 0.77185 0.86665 0.58373 0.0
H2904 H 0.73007 0.81338 0.60436 0.0
H2905 H 0.73169 0.86834 0.66607 0.0
H2906 H 0.71681 0.87117 0.64456 0.0
H2907 H 0.74227 0.87445 0.64434 0.0
C2908 C 0.72829 0.87869 0.59093 0.0
C2909 C 0.74601 0.8795 0.58347 0.0
C2910 C 0.72286 0.86505 0.60406 0.0
C2911 C 0.73514 0.85216 0.60999 0.0
C2912 C 0.75275 0.85287 0.60245 0.0
H2913 H 0.76238 0.77604 0.69067 0.0
H2914 H 0.75537 0.79137 0.66105 0.0
C2915 C 0.75815 0.86642 0.5893 0.0
C2916 C 0.73006 0.83813 0.62441 0.0
H2917 H 0.72565 0.83544 0.67228 0.0
C2918 C 0.72882 0.81815 0.61917 0.0
C2919 C 0.72829 0.84442 0.64364 0.0
C2920 C 0.72994 0.86575 0.65013 0.0
C2921 C 0.72669 0.80433 0.6329 0.0
C2922 C 0.72602 0.81075 0.65233 0.0
C2923 C 0.72611 0.83059 0.65733 0.0
C2924 C 0.72798 0.79782 0.66812 0.0
C2925 C 0.72567 0.78307 0.62659 0.0
C2926 C 0.71474 0.79604 0.68178 0.0
C2927 C 0.71876 0.78732 0.69883 0.0
C2928 C 0.73621 0.78052 0.70255 0.0
C2929 C 0.74885 0.78119 0.68827 0.0
C2930 C 0.74478 0.78981 0.67122 0.0
H2931 H 0.71975 0.77988 0.61126 0.0
H2932 H 0.74029 0.77936 0.62801 0.0
H2933 H 0.71675 0.77357 0.63559 0.0
H2934 H 0.70177 0.80228 0.67968 0.0
H2935 H 0.70875 0.78708 0.70957 0.0
H2936 H 0.69479 0.44667 0.55325 0.0
H2937 H 0.66873 0.46567 0.55348 0.0
H2938 H 0.63644 0.42658 0.50759 0.0
H2939 H 0.66228 0.40713 0.50776 0.0
H2940 H 0.65455 0.48591 0.52713 0.0
H2941 H 0.59601 0.42901 0.54317 0.0
H2942 H 0.62064 0.42549 0.54524 0.0
H2943 H 0.60668 0.42221 0.5221 0.0
C2944 C 0.68206 0.44199 0.54332 0.0
C2945 C 0.68061 0.4253 0.53055 0.0
C2946 C 0.66714 0.4529 0.54345 0.0
C2947 C 0.65035 0.44749 0.53078 0.0
C2948 C 0.64892 0.43085 0.51791 0.0
H2949 H 0.57338 0.52882 0.49891 0.0
H2950 H 0.59738 0.50729 0.50034 0.0
C2951 C 0.6638 0.41979 0.51791 0.0
C2952 C 0.63489 0.45982 0.53049 0.0
H2953 H 0.58693 0.4586 0.53283 0.0
C2954 C 0.63979 0.4799 0.52847 0.0
C2955 C 0.61559 0.45218 0.53255 0.0
C2956 C 0.60942 0.43109 0.53609 0.0
C2957 C 0.62606 0.49239 0.52815 0.0
C2958 C 0.60662 0.4846 0.5293 0.0
C2959 C 0.60174 0.4646 0.53169 0.0
C2960 C 0.59124 0.497 0.52803 0.0
C2961 C 0.63268 0.51393 0.52702 0.0
C2962 C 0.57907 0.49787 0.54268 0.0
C2963 C 0.56508 0.51004 0.54173 0.0
C2964 C 0.56297 0.52154 0.5261 0.0
C2965 C 0.57486 0.52036 0.51129 0.0
C2966 C 0.58867 0.50809 0.51214 0.0
H2967 H 0.64805 0.51822 0.53235 0.0
H2968 H 0.63087 0.51747 0.51178 0.0
H2969 H 0.62429 0.5228 0.53552 0.0
H2970 H 0.58064 0.48942 0.55506 0.0
H2971 H 0.55623 0.51078 0.55343 0.0
H2972 H 0.22994 0.10131 0.46598 0.0
H2973 H 0.19818 0.08122 0.45955 0.0
H2974 H 0.17752 0.1164 0.50329 0.0
H2975 H 0.20893 0.13662 0.50954 0.0
H2976 H 0.1788 0.05928 0.48475 0.0
H2977 H 0.13637 0.11412 0.45878 0.0
H2978 H 0.16213 0.11795 0.46017 0.0
H2979 H 0.15031 0.12277 0.48119 0.0
C2980 C 0.21853 0.10487 0.47403 0.0
C2981 C 0.22185 0.12054 0.48822 0.0
C2982 C 0.20044 0.09341 0.47034 0.0
C2983 C 0.18544 0.09756 0.4807 0.0
C2984 C 0.18876 0.11327 0.49478 0.0
H2985 H 0.09158 0.0323 0.52264 0.0
H2986 H 0.1228 0.04596 0.51368 0.0
C2987 C 0.20676 0.12471 0.49844 0.0
C2988 C 0.16662 0.08479 0.47798 0.0
H2989 H 0.11895 0.0866 0.4727 0.0
C2990 C 0.16569 0.06512 0.4817 0.0
C2991 C 0.14955 0.0923 0.47359 0.0
C2992 C 0.14964 0.1129 0.46799 0.0
C2993 C 0.14809 0.05313 0.48258 0.0
C2994 C 0.1311 0.06121 0.48008 0.0
C2995 C 0.13199 0.08047 0.47491 0.0
C2996 C 0.11249 0.05072 0.48452 0.0
C2997 C 0.14793 0.03208 0.4866 0.0
C2998 C 0.09623 0.04905 0.47119 0.0
C2999 C 0.07825 0.04151 0.47638 0.0
C3000 C 0.07622 0.03553 0.49503 0.0
C3001 C 0.09263 0.03663 0.50813 0.0
C3002 C 0.11055 0.0443 0.50296 0.0
H3003 H 0.16034 0.02651 0.48109 0.0
H3004 H 0.14903 0.03086 0.50239 0.0
H3005 H 0.13459 0.02267 0.47996 0.0
H3006 H 0.0974 0.05406 0.45692 0.0
H3007 H 0.06591 0.04081 0.46592 0.0
H3008 H 0.1687 0.94371 0.81173 0.0
H3009 H 0.18695 0.91684 0.80903 0.0
H3010 H 0.22213 0.94857 0.77073 0.0
H3011 H 0.2042 0.97562 0.77365 0.0
H3012 H 0.19139 0.89414 0.77676 0.0
H3013 H 0.26173 0.93334 0.81007 0.0
H3014 H 0.23986 0.943 0.81192 0.0
H3015 H 0.25168 0.9451 0.79036 0.0
C3016 C 0.18046 0.94505 0.8029 0.0
C3017 C 0.1851 0.96184 0.79301 0.0
C3018 C 0.19082 0.92965 0.80131 0.0
C3019 C 0.20606 0.93077 0.78986 0.0
C3020 C 0.2107 0.94753 0.77996 0.0
H3021 H 0.25654 0.83134 0.74838 0.0
H3022 H 0.23884 0.85877 0.75089 0.0
C3023 C 0.20039 0.96296 0.78159 0.0
C3024 C 0.21675 0.9142 0.7879 0.0
H3025 H 0.26133 0.90197 0.79455 0.0
C3026 C 0.20667 0.89582 0.7807 0.0
C3027 C 0.23665 0.91637 0.79323 0.0
C3028 C 0.24811 0.93546 0.802 0.0
C3029 C 0.21599 0.87959 0.77852 0.0
C3030 C 0.236 0.8819 0.78333 0.0
C3031 C 0.24602 0.90025 0.79069 0.0
C3032 C 0.24677 0.86537 0.78151 0.0
C3033 C 0.20422 0.86007 0.77145 0.0
C3034 C 0.25759 0.86034 0.79771 0.0
C3035 C 0.26782 0.84486 0.79623 0.0
C3036 C 0.26733 0.83404 0.77854 0.0
C3037 C 0.25681 0.83925 0.76225 0.0
C3038 C 0.24667 0.85485 0.76369 0.0
H3039 H 0.18893 0.85959 0.77367 0.0
H3040 H 0.20508 0.85745 0.75578 0.0
H3041 H 0.20959 0.84804 0.77886 0.0
H3042 H 0.25795 0.86826 0.81159 0.0
H3043 H 0.27578 0.8411 0.80905 0.0
H3044 H 0.27854 0.95381 0.02734 0.0
H3045 H 0.31133 0.9701 0.02567 0.0
H3046 H 0.33246 0.91767 0.04062 0.0
H3047 H 0.29971 0.90122 0.04215 0.0
H3048 H 0.34322 0.97669 0.05374 0.0
H3049 H 0.35566 0.93032 0.99029 0.0
H3050 H 0.33213 0.93104 0.99757 0.0
H3051 H 0.34779 0.91698 0.01005 0.0
C3052 C 0.29017 0.94577 0.03033 0.0
C3053 C 0.28654 0.9262 0.03477 0.0
C3054 C 0.30889 0.9551 0.02938 0.0
C3055 C 0.3243 0.945 0.03273 0.0
C3056 C 0.32075 0.92562 0.03763 0.0
H3057 H 0.44542 0.9917 0.05377 0.0
H3058 H 0.41211 0.97777 0.05652 0.0
C3059 C 0.30204 0.91628 0.0386 0.0
C3060 C 0.34407 0.95472 0.03097 0.0
H3061 H 0.38253 0.95192 0.0059 0.0
C3062 C 0.35182 0.97132 0.04326 0.0
C3063 C 0.35515 0.94785 0.01709 0.0
C3064 C 0.34725 0.93068 0.00286 0.0
C3065 C 0.37051 0.98102 0.04229 0.0
C3066 C 0.3818 0.97376 0.02883 0.0
C3067 C 0.37391 0.95738 0.01631 0.0
C3068 C 0.40185 0.9829 0.02746 0.0
C3069 C 0.37791 0.9991 0.05549 0.0
C3070 C 0.40722 0.99014 0.01013 0.0
C3071 C 0.42625 0.998 0.00851 0.0
C3072 C 0.44026 0.99863 0.02415 0.0
C3073 C 0.43488 0.99147 0.04151 0.0
C3074 C 0.41584 0.98362 0.04314 0.0
H3075 H 0.36608 0.00562 0.06116 0.0
H3076 H 0.38703 0.99523 0.06794 0.0
H3077 H 0.3867 0.01025 0.04795 0.0
H3078 H 0.39667 0.98964 0.99783 0.0
H3079 H 0.43003 0.00338 0.99494 0.0
H3080 H 0.84433 0.59493 0.7424 0.0
H3081 H 0.82495 0.62086 0.74145 0.0
H3082 H 0.87583 0.66398 0.7538 0.0
H3083 H 0.8954 0.63793 0.75506 0.0
H3084 H 0.84768 0.67078 0.7763 0.0
H3085 H 0.81756 0.65805 0.69997 0.0
H3086 H 0.81387 0.63632 0.71256 0.0
H3087 H 0.83779 0.64755 0.7094 0.0
C3088 C 0.85145 0.60993 0.74476 0.0
C3089 C 0.87143 0.61437 0.74874 0.0
C3090 C 0.84034 0.62476 0.74408 0.0
C3091 C 0.84893 0.64441 0.7472 0.0
C3092 C 0.86889 0.64893 0.75119 0.0
H3093 H 0.78094 0.73819 0.72968 0.0
H3094 H 0.80539 0.71715 0.72747 0.0
C3095 C 0.88006 0.63405 0.75189 0.0
C3096 C 0.83689 0.66003 0.7472 0.0
H3097 H 0.8012 0.6771 0.72057 0.0
C3098 C 0.83767 0.67231 0.76404 0.0
C3099 C 0.82404 0.6623 0.7311 0.0
C3100 C 0.82338 0.65049 0.71217 0.0
C3101 C 0.82537 0.68614 0.7655 0.0
C3102 C 0.81167 0.68748 0.74984 0.0
C3103 C 0.81149 0.67586 0.73269 0.0
C3104 C 0.79699 0.70037 0.7512 0.0
C3105 C 0.82716 0.69918 0.78382 0.0
C3106 C 0.78394 0.69772 0.76503 0.0
C3107 C 0.77007 0.70975 0.76636 0.0
C3108 C 0.76894 0.72463 0.75384 0.0
C3109 C 0.78167 0.72698 0.73967 0.0
C3110 C 0.79559 0.71495 0.73837 0.0
H3111 H 0.84156 0.70044 0.79186 0.0
H3112 H 0.82443 0.71402 0.78078 0.0
H3113 H 0.81651 0.69288 0.79327 0.0
H3114 H 0.78443 0.68626 0.77477 0.0
H3115 H 0.76037 0.70753 0.77734 0.0
H3116 H 0.82807 0.62204 0.99101 0.0
H3117 H 0.85303 0.60318 1.0008 0.0
H3118 H 0.84008 0.6089 0.05967 0.0
H3119 H 0.81482 0.62755 0.04992 0.0
H3120 H 0.88481 0.61646 0.02731 0.0
H3121 H 0.84082 0.55015 0.04998 0.0
H3122 H 0.8307 0.56732 0.03548 0.0
H3123 H 0.83703 0.57309 0.06085 0.0
C3124 C 0.83041 0.61913 0.00601 0.0
C3125 C 0.81951 0.62623 0.01971 0.0
C3126 C 0.84467 0.60839 0.01158 0.0
C3127 C 0.84825 0.60453 0.03091 0.0
C3128 C 0.83729 0.61145 0.04463 0.0
H3129 H 0.95682 0.56427 0.06197 0.0
H3130 H 0.92954 0.58116 0.06574 0.0
C3131 C 0.82296 0.62216 0.03905 0.0
C3132 C 0.8641 0.59404 0.03665 0.0
H3133 H 0.87423 0.55136 0.05325 0.0
C3134 C 0.88257 0.6023 0.03315 0.0
C3135 C 0.86101 0.57559 0.04423 0.0
C3136 C 0.84132 0.56587 0.04776 0.0
C3137 C 0.89802 0.5923 0.03636 0.0
C3138 C 0.89493 0.57371 0.04372 0.0
C3139 C 0.87654 0.5657 0.04781 0.0
C3140 C 0.91012 0.56149 0.04496 0.0
C3141 C 0.91726 0.60132 0.03084 0.0
C3142 C 0.9078 0.54413 0.03309 0.0
C3143 C 0.92323 0.53433 0.03118 0.0
C3144 C 0.94118 0.54184 0.04104 0.0
C3145 C 0.94311 0.55833 0.0541 0.0
C3146 C 0.92761 0.56802 0.05617 0.0
H3147 H 0.91622 0.61374 0.02178 0.0
H3148 H 0.92689 0.60688 0.04407 0.0
H3149 H 0.92391 0.59036 0.02284 0.0
H3150 H 0.89439 0.53881 0.0244 0.0
H3151 H 0.92138 0.52159 0.02108 0.0
H3152 H 0.20286 0.06074 0.81258 0.0
H3153 H 0.21888 0.09437 0.81057 0.0
H3154 H 0.17377 0.1035 0.76824 0.0
H3155 H 0.15766 0.07018 0.77031 0.0
H3156 H 0.23209 0.11289 0.77841 0.0
H3157 H 0.17633 0.14908 0.80875 0.0
H3158 H 0.17745 0.12357 0.81082 0.0
H3159 H 0.16725 0.1316 0.78882 0.0
C3160 C 0.19634 0.06997 0.80292 0.0
C3161 C 0.17893 0.06286 0.79171 0.0
C3162 C 0.20552 0.08914 0.80175 0.0
C3163 C 0.19737 0.10152 0.78946 0.0
C3164 C 0.18013 0.09434 0.7781 0.0
H3165 H 0.24879 0.21004 0.74654 0.0
H3166 H 0.23592 0.176 0.75067 0.0
C3167 C 0.17098 0.07525 0.77925 0.0
C3168 C 0.20689 0.12192 0.78828 0.0
H3169 H 0.19989 0.16924 0.79377 0.0
C3170 C 0.22513 0.12524 0.78188 0.0
C3171 C 0.19787 0.13802 0.79302 0.0
C3172 C 0.17872 0.13546 0.80091 0.0
C3173 C 0.23439 0.14422 0.77965 0.0
C3174 C 0.22504 0.16027 0.78368 0.0
C3175 C 0.20699 0.15694 0.7905 0.0
C3176 C 0.23372 0.1807 0.78119 0.0
C3177 C 0.2542 0.14694 0.77325 0.0
C3178 C 0.23649 0.19474 0.79687 0.0
C3179 C 0.24367 0.21421 0.79453 0.0
C3180 C 0.24821 0.22012 0.77641 0.0
C3181 C 0.24558 0.20599 0.76073 0.0
C3182 C 0.23832 0.18649 0.76309 0.0
H3183 H 0.2613 0.13409 0.77584 0.0
H3184 H 0.25322 0.14881 0.75758 0.0
H3185 H 0.26328 0.16011 0.78085 0.0
H3186 H 0.23297 0.19065 0.81096 0.0
H3187 H 0.24548 0.22464 0.80696 0.0
H3188 H 0.3944 0.99495 0.26078 0.0
H3189 H 0.37537 0.96308 0.26386 0.0
H3190 H 0.32431 0.9892 0.26254 0.0
H3191 H 0.34325 0.02115 0.25921 0.0
H3192 H 0.35214 0.95154 0.29258 0.0
H3193 H 0.31051 0.94401 0.2205 0.0
H3194 H 0.33179 0.96189 0.22668 0.0
H3195 H 0.30955 0.96598 0.23497 0.0
C3196 C 0.37911 0.99391 0.26108 0.0
C3197 C 0.3703 0.01052 0.25965 0.0
C3198 C 0.36827 0.9757 0.26288 0.0
C3199 C 0.34841 0.97375 0.2632 0.0
C3200 C 0.33957 0.99034 0.26198 0.0
H3201 H 0.27876 0.86842 0.29738 0.0
H3202 H 0.29377 0.90238 0.2954 0.0
C3203 C 0.35042 0.00858 0.26017 0.0
C3204 C 0.33708 0.95432 0.26501 0.0
H3205 H 0.30236 0.91929 0.24136 0.0
C3206 C 0.34119 0.9445 0.28144 0.0
C3207 C 0.32294 0.94513 0.25034 0.0
C3208 C 0.31849 0.95467 0.23203 0.0
C3209 C 0.33162 0.92566 0.28356 0.0
C3210 C 0.31736 0.91654 0.26897 0.0
C3211 C 0.31317 0.92641 0.25259 0.0
C3212 C 0.30747 0.8963 0.26989 0.0
C3213 C 0.33728 0.91543 0.30108 0.0
C3214 C 0.30976 0.88178 0.25591 0.0
C3215 C 0.30116 0.86249 0.25696 0.0
C3216 C 0.29004 0.85739 0.27197 0.0
C3217 C 0.28735 0.87198 0.28572 0.0
C3218 C 0.29598 0.89133 0.28466 0.0
H3219 H 0.35117 0.92268 0.30875 0.0
H3220 H 0.32623 0.91557 0.31123 0.0
H3221 H 0.3383 0.89999 0.29704 0.0
H3222 H 0.31852 0.88532 0.24436 0.0
H3223 H 0.3034 0.85152 0.24613 0.0
H3224 H 0.47043 0.32035 0.62766 0.0
H3225 H 0.47125 0.34825 0.60789 0.0
H3226 H 0.52998 0.34558 0.59953 0.0
H3227 H 0.52925 0.31763 0.61919 0.0
H3228 H 0.49586 0.3842 0.61524 0.0
H3229 H 0.5046 0.3481 0.54444 0.0
H3230 H 0.49659 0.33463 0.56424 0.0
H3231 H 0.52152 0.34394 0.56382 0.0
C3232 C 0.48347 0.32562 0.6215 0.0
C3233 C 0.49978 0.31679 0.62496 0.0
C3234 C 0.48391 0.34154 0.61021 0.0
C3235 C 0.50058 0.3488 0.60203 0.0
C3236 C 0.51685 0.33997 0.60539 0.0
H3237 H 0.53489 0.46306 0.5636 0.0
H3238 H 0.53225 0.4321 0.57869 0.0
C3239 C 0.51645 0.32409 0.61674 0.0
C3240 C 0.50128 0.36628 0.59086 0.0
H3241 H 0.50913 0.38285 0.54684 0.0
C3242 C 0.49865 0.38388 0.60026 0.0
C3243 C 0.50474 0.36577 0.57126 0.0
C3244 C 0.50686 0.34707 0.56025 0.0
C3245 C 0.49986 0.40111 0.59073 0.0
C3246 C 0.50401 0.40076 0.57135 0.0
C3247 C 0.50614 0.38308 0.56176 0.0
C3248 C 0.50642 0.41878 0.56101 0.0
C3249 C 0.49666 0.41959 0.60146 0.0
C3250 C 0.49312 0.42126 0.5456 0.0
C3251 C 0.49461 0.43896 0.53692 0.0
C3252 C 0.50948 0.45433 0.54348 0.0
C3253 C 0.52322 0.45148 0.55834 0.0
C3254 C 0.5217 0.43385 0.56701 0.0
H3255 H 0.48938 0.41653 0.61456 0.0
H3256 H 0.51066 0.42893 0.60598 0.0
H3257 H 0.48798 0.42792 0.59208 0.0
H3258 H 0.48128 0.40973 0.54072 0.0
H3259 H 0.48385 0.4408 0.52548 0.0
H3260 H 0.47688 0.81358 0.34312 0.0
H3261 H 0.44458 0.80932 0.32639 0.0
H3262 H 0.44235 0.74697 0.32227 0.0
H3263 H 0.47461 0.7511 0.33916 0.0
H3264 H 0.42904 0.79041 0.28964 0.0
H3265 H 0.39511 0.75492 0.34973 0.0
H3266 H 0.41928 0.76799 0.35264 0.0
H3267 H 0.41403 0.74386 0.3408 0.0
C3268 C 0.46957 0.79896 0.33854 0.0
C3269 C 0.47825 0.78267 0.34256 0.0
C3270 C 0.45112 0.79656 0.32897 0.0
C3271 C 0.44095 0.77782 0.32334 0.0
C3272 C 0.44981 0.76154 0.32678 0.0
H3273 H 0.32057 0.74224 0.27878 0.0
H3274 H 0.35448 0.74189 0.28816 0.0
C3275 C 0.46828 0.76394 0.33634 0.0
C3276 C 0.42091 0.77539 0.31433 0.0
H3277 H 0.37486 0.75812 0.32193 0.0
C3278 C 0.41719 0.78328 0.29665 0.0
C3279 C 0.40547 0.76603 0.32346 0.0
C3280 C 0.40855 0.75783 0.34278 0.0
C3281 C 0.39843 0.78212 0.28788 0.0
C3282 C 0.38295 0.77319 0.29724 0.0
C3283 C 0.38672 0.76492 0.31472 0.0
C3284 C 0.3627 0.77325 0.28983 0.0
C3285 C 0.39539 0.79037 0.26859 0.0
C3286 C 0.35602 0.79097 0.28756 0.0
C3287 C 0.33669 0.79123 0.28216 0.0
C3288 C 0.32349 0.77375 0.27906 0.0
C3289 C 0.33028 0.75597 0.28097 0.0
C3290 C 0.34968 0.75574 0.28638 0.0
H3291 H 0.40825 0.79085 0.26069 0.0
H3292 H 0.383 0.78167 0.25949 0.0
H3293 H 0.39258 0.80553 0.27085 0.0
H3294 H 0.36567 0.80469 0.29057 0.0
H3295 H 0.33205 0.80522 0.28091 0.0
H3296 H 0.99079 0.6947 0.14685 0.0
H3297 H 0.9932 0.66433 0.12827 0.0
H3298 H 1.00029 0.6958 0.07754 0.0
H3299 H 0.99832 0.7262 0.09607 0.0
H3300 H 0.97282 0.64421 0.09506 0.0
H3301 H 0.04814 0.67055 0.08331 0.0
H3302 H 0.03573 0.68294 0.1003 0.0
H3303 H 0.03186 0.68621 0.07501 0.0
C3304 C 0.99272 0.6951 0.1317 0.0
C3305 C 0.99459 0.71286 0.12296 0.0
C3306 C 0.99407 0.67775 0.1211 0.0
C3307 C 0.99729 0.67787 0.10162 0.0
C3308 C 0.99823 0.69544 0.09266 0.0
H3309 H 0.99233 0.57553 0.02097 0.0
H3310 H 0.98505 0.60439 0.03879 0.0
C3311 C 0.99702 0.71279 0.10325 0.0
C3312 C 1.00049 0.65982 0.09087 0.0
H3313 H 0.03344 0.64064 0.06659 0.0
C3314 C 0.98607 0.64337 0.08884 0.0
C3315 C 0.0179 0.65869 0.08301 0.0
C3316 C 0.03438 0.67546 0.08564 0.0
C3317 C 0.98853 0.62587 0.07899 0.0
C3318 C 0.00577 0.62494 0.07069 0.0
C3319 C 0.02019 0.64137 0.07284 0.0
C3320 C 0.00954 0.60697 0.06017 0.0
C3321 C 0.97285 0.60844 0.07802 0.0
C3322 C 0.02595 0.59906 0.06593 0.0
C3323 C 0.03027 0.58281 0.05559 0.0
C3324 C 0.01823 0.57409 0.03934 0.0
C3325 C 0.00176 0.5819 0.03358 0.0
C3326 C 0.99751 0.59829 0.04384 0.0
H3327 H 0.96313 0.60989 0.08934 0.0
H3328 H 0.96418 0.60714 0.06383 0.0
H3329 H 0.97887 0.59478 0.07962 0.0
H3330 H 0.03548 0.60554 0.07842 0.0
H3331 H 0.04304 0.57705 0.06035 0.0
H3332 H 0.06806 0.26362 0.82689 0.0
H3333 H 0.09758 0.26377 0.81152 0.0
H3334 H 0.12383 0.31534 0.84732 0.0
H3335 H 0.09443 0.31518 0.86288 0.0
H3336 H 0.11734 0.29295 0.7913 0.0
H3337 H 0.1623 0.27783 0.85614 0.0
H3338 H 0.13655 0.27434 0.8547 0.0
H3339 H 0.15024 0.29841 0.85927 0.0
C3340 C 0.08011 0.275 0.83148 0.0
C3341 C 0.07894 0.28934 0.84616 0.0
C3342 C 0.09697 0.27507 0.82268 0.0
C3343 C 0.11303 0.28938 0.82848 0.0
C3344 C 0.11177 0.30392 0.84288 0.0
H3345 H 0.22825 0.30846 0.79187 0.0
H3346 H 0.19931 0.3113 0.80759 0.0
C3347 C 0.09491 0.30388 0.85167 0.0
C3348 C 0.13098 0.28917 0.81927 0.0
H3349 H 0.17797 0.28456 0.82838 0.0
C3350 C 0.13059 0.29108 0.79939 0.0
C3351 C 0.14829 0.28685 0.82988 0.0
C3352 C 0.14944 0.28407 0.85115 0.0
C3353 C 0.14705 0.29086 0.78984 0.0
C3354 C 0.1643 0.28823 0.80038 0.0
C3355 C 0.16475 0.28657 0.82031 0.0
C3356 C 0.18186 0.28658 0.79089 0.0
C3357 C 0.14588 0.29374 0.76859 0.0
C3358 C 0.18177 0.2716 0.7765 0.0
C3359 C 0.19826 0.26992 0.7676 0.0
C3360 C 0.21524 0.28307 0.77305 0.0
C3361 C 0.2154 0.298 0.78753 0.0
C3362 C 0.19888 0.29967 0.79646 0.0
H3363 H 0.13367 0.30113 0.76397 0.0
H3364 H 0.15924 0.30247 0.76479 0.0
H3365 H 0.14374 0.2793 0.76035 0.0
H3366 H 0.16895 0.26106 0.77226 0.0
H3367 H 0.19776 0.25819 0.75657 0.0
H3368 H 0.5069 0.72475 0.9691 0.0
H3369 H 0.50562 0.69406 0.98463 0.0
H3370 H 0.55476 0.6819 0.9574 0.0
H3371 H 0.556 0.7124 0.94164 0.0
H3372 H 0.5244 0.65074 0.95345 0.0
H3373 H 0.54164 0.68094 0.02953 0.0
H3374 H 0.5222 0.68984 0.01658 0.0
H3375 H 0.54588 0.69556 0.00944 0.0
C3376 C 0.51753 0.71561 0.96658 0.0
C3377 C 0.53158 0.72096 0.95422 0.0
C3378 C 0.51683 0.69815 0.9755 0.0
C3379 C 0.53023 0.68586 0.9723 0.0
C3380 C 0.54434 0.69124 0.96008 0.0
H3381 H 0.55408 0.58703 0.0337 0.0
H3382 H 0.55497 0.61844 0.01954 0.0
C3383 C 0.54504 0.70867 0.95113 0.0
C3384 C 0.52916 0.66703 0.98112 0.0
H3385 H 0.53183 0.64672 0.02424 0.0
C3386 C 0.52604 0.64983 0.96893 0.0
C3387 C 0.53148 0.66597 1.00129 0.0
C3388 C 0.53566 0.68405 0.01501 0.0
C3389 C 0.52506 0.63151 0.97639 0.0
C3390 C 0.52697 0.63044 0.99658 0.0
C3391 C 0.53022 0.64764 0.00877 0.0
C3392 C 0.52615 0.6116 0.00534 0.0
C3393 C 0.52239 0.61351 0.96262 0.0
C3394 C 0.50954 0.59755 0.00227 0.0
C3395 C 0.50903 0.57963 0.0103 0.0
C3396 C 0.52508 0.5756 0.02157 0.0
C3397 C 0.54153 0.58984 0.02503 0.0
C3398 C 0.54206 0.60772 0.01695 0.0
H3399 H 0.52589 0.6171 0.94797 0.0
H3400 H 0.53146 0.60294 0.96788 0.0
H3401 H 0.50725 0.6063 0.96143 0.0
H3402 H 0.49698 0.60046 0.99371 0.0
H3403 H 0.49606 0.569 0.00782 0.0
H3404 H 0.06209 0.76519 0.64388 0.0
H3405 H 0.09219 0.77093 0.66476 0.0
H3406 H 0.07784 0.82442 0.68927 0.0
H3407 H 0.04744 0.81854 0.66868 0.0
H3408 H 0.12181 0.80181 0.66714 0.0
H3409 H 0.09038 0.79557 0.73675 0.0
H3410 H 0.07654 0.78798 0.71385 0.0
H3411 H 0.08237 0.81341 0.72184 0.0
C3412 C 0.06533 0.77816 0.65373 0.0
C3413 C 0.05241 0.79137 0.65475 0.0
C3414 C 0.08252 0.78143 0.66562 0.0
C3415 C 0.08709 0.79796 0.67871 0.0
C3416 C 0.07438 0.81138 0.67953 0.0
H3417 H 0.20446 0.82402 0.73556 0.0
H3418 H 0.17391 0.82906 0.71904 0.0
C3419 C 0.0571 0.80806 0.66769 0.0
C3420 C 0.10528 0.80099 0.69135 0.0
H3421 H 0.12396 0.80239 0.73824 0.0
C3422 C 0.12234 0.80212 0.6827 0.0
C3423 C 0.1058 0.80125 0.71162 0.0
C3424 C 0.08782 0.79933 0.72163 0.0
C3425 C 0.13993 0.80289 0.69372 0.0
C3426 C 0.14047 0.80303 0.714 0.0
C3427 C 0.12346 0.80247 0.72271 0.0
C3428 C 0.15824 0.80167 0.72616 0.0
C3429 C 0.15761 0.80254 0.68348 0.0
C3430 C 0.15924 0.78513 0.73646 0.0
C3431 C 0.17653 0.78238 0.7461 0.0
C3432 C 0.19307 0.79609 0.74547 0.0
C3433 C 0.19189 0.81315 0.73604 0.0
C3434 C 0.17452 0.81599 0.72655 0.0
H3435 H 0.15407 0.79828 0.66784 0.0
H3436 H 0.16637 0.8173 0.6851 0.0
H3437 H 0.16641 0.79222 0.68978 0.0
H3438 H 0.1468 0.77395 0.73639 0.0
H3439 H 0.1771 0.76915 0.75336 0.0
H3440 H 0.03905 0.34176 0.43554 0.0
H3441 H 0.04115 0.37197 0.45564 0.0
H3442 H 0.04565 0.34048 0.50668 0.0
H3443 H 0.04276 0.30991 0.48648 0.0
H3444 H 0.02084 0.36388 0.50986 0.0
H3445 H 0.08484 0.40657 0.48588 0.0
H3446 H 0.06821 0.39764 0.4653 0.0
H3447 H 0.07843 0.38065 0.47993 0.0
C3448 C 0.04075 0.34129 0.45104 0.0
C3449 C 0.04079 0.32351 0.45945 0.0
C3450 C 0.04213 0.35862 0.46254 0.0
C3451 C 0.04403 0.35861 0.4827 0.0
C3452 C 0.04437 0.34087 0.49116 0.0
H3453 H 0.05488 0.47796 0.53429 0.0
H3454 H 0.06202 0.44482 0.53014 0.0
C3455 C 0.04273 0.32344 0.47962 0.0
C3456 C 0.04399 0.37692 0.49468 0.0
H3457 H 0.06181 0.42548 0.49801 0.0
C3458 C 0.03009 0.37729 0.5076 0.0
C3459 C 0.0564 0.39435 0.49227 0.0
C3460 C 0.07294 0.39471 0.48025 0.0
C3461 C 0.02728 0.39486 0.51694 0.0
C3462 C 0.03821 0.41258 0.51271 0.0
C3463 C 0.05312 0.41199 0.50102 0.0
C3464 C 0.03327 0.43189 0.5185 0.0
C3465 C 0.01243 0.39419 0.53099 0.0
C3466 C 0.01467 0.43563 0.51376 0.0
C3467 C 0.01049 0.45445 0.51644 0.0
C3468 C 0.02497 0.47005 0.52343 0.0
C3469 C 0.04345 0.46624 0.52881 0.0
C3470 C 0.04754 0.4473 0.52644 0.0
H3471 H 0.01144 0.38053 0.53851 0.0
H3472 H 0.01564 0.4068 0.54194 0.0
H3473 H 0.99824 0.39432 0.52301 0.0
H3474 H 0.00353 0.4242 0.50701 0.0
H3475 H 0.99616 0.45692 0.51195 0.0
H3476 H 0.43106 0.28368 0.13354 0.0
H3477 H 0.40605 0.2853 0.15499 0.0
H3478 H 0.4458 0.27889 0.20369 0.0
H3479 H 0.47097 0.27753 0.18238 0.0
H3480 H 0.39161 0.25777 0.17935 0.0
H3481 H 0.4241 0.32786 0.22019 0.0
H3482 H 0.43198 0.31977 0.19774 0.0
H3483 H 0.4394 0.30969 0.2197 0.0
C3484 C 0.43446 0.28261 0.14881 0.0
C3485 C 0.45295 0.28056 0.15632 0.0
C3486 C 0.42019 0.28356 0.16103 0.0
C3487 C 0.4242 0.28254 0.18092 0.0
C3488 C 0.44256 0.28012 0.18842 0.0
H3489 H 0.33594 0.25869 0.25794 0.0
H3490 H 0.36483 0.2586 0.24162 0.0
C3491 C 0.45685 0.2792 0.17622 0.0
C3492 C 0.40901 0.2836 0.19373 0.0
H3493 H 0.39632 0.31062 0.23131 0.0
C3494 C 0.39262 0.2693 0.19073 0.0
C3495 C 0.41037 0.2988 0.2084 0.0
C3496 C 0.42732 0.31502 0.21165 0.0
C3497 C 0.37749 0.26973 0.20207 0.0
C3498 C 0.37901 0.28469 0.21702 0.0
C3499 C 0.39536 0.29906 0.21997 0.0
C3500 C 0.36331 0.28605 0.22912 0.0
C3501 C 0.35981 0.25447 0.1976 0.0
C3502 C 0.35356 0.30204 0.22831 0.0
C3503 C 0.3372 0.30224 0.2378 0.0
C3504 C 0.33043 0.28644 0.24818 0.0
C3505 C 0.34085 0.27101 0.24992 0.0
C3506 C 0.35725 0.27087 0.24053 0.0
H3507 H 0.3591 0.24703 0.18298 0.0
H3508 H 0.35998 0.24326 0.20818 0.0
H3509 H 0.34668 0.26104 0.19861 0.0
H3510 H 0.35812 0.31394 0.21964 0.0
H3511 H 0.32939 0.3143 0.23626 0.0
H3512 H 0.5924 0.50288 0.32224 0.0
H3513 H 0.5731 0.50284 0.34938 0.0
H3514 H 0.62427 0.51069 0.38906 0.0
H3515 H 0.64371 0.51099 0.36196 0.0
H3516 H 0.57039 0.4785 0.38003 0.0
H3517 H 0.59726 0.55578 0.40597 0.0
H3518 H 0.60109 0.5457 0.38255 0.0
H3519 H 0.61555 0.541 0.40366 0.0
C3520 C 0.59955 0.50462 0.33675 0.0
C3521 C 0.61959 0.50709 0.33997 0.0
C3522 C 0.5885 0.50453 0.35223 0.0
C3523 C 0.59725 0.507 0.37123 0.0
C3524 C 0.61723 0.5091 0.37451 0.0
H3525 H 0.54225 0.49005 0.47677 0.0
H3526 H 0.55943 0.48544 0.44858 0.0
C3527 C 0.62832 0.5092 0.35902 0.0
C3528 C 0.58544 0.50767 0.38756 0.0
H3529 H 0.57701 0.53729 0.4254 0.0
C3530 C 0.57181 0.49134 0.38997 0.0
C3531 C 0.58718 0.52452 0.40036 0.0
C3532 C 0.60093 0.54283 0.39797 0.0
C3533 C 0.55996 0.49137 0.40495 0.0
C3534 C 0.56197 0.5081 0.41795 0.0
C3535 C 0.57555 0.52444 0.41546 0.0
C3536 C 0.54993 0.50931 0.43405 0.0
C3537 C 0.54512 0.47368 0.40647 0.0
C3538 C 0.53879 0.52417 0.43523 0.0
C3539 C 0.52906 0.52691 0.45133 0.0
C3540 C 0.53026 0.51483 0.46664 0.0
C3541 C 0.54079 0.49943 0.46511 0.0
C3542 C 0.55064 0.49677 0.44899 0.0
H3543 H 0.54221 0.4642 0.39282 0.0
H3544 H 0.55037 0.46498 0.41799 0.0
H3545 H 0.53152 0.47802 0.41027 0.0
H3546 H 0.53804 0.53401 0.42387 0.0
H3547 H 0.52107 0.53889 0.45203 0.0
H3548 H 0.23195 0.83767 0.0678 0.0
H3549 H 0.23639 0.82067 0.09718 0.0
H3550 H 0.23935 0.87471 0.13166 0.0
H3551 H 0.23475 0.89173 0.10241 0.0
H3552 H 0.2674 0.82795 0.12589 0.0
H3553 H 0.20021 0.83757 0.15667 0.0
H3554 H 0.20375 0.84142 0.13189 0.0
H3555 H 0.21411 0.85978 0.15071 0.0
C3556 C 0.23335 0.84589 0.08164 0.0
C3557 C 0.23289 0.86604 0.08275 0.0
C3558 C 0.23594 0.83617 0.09843 0.0
C3559 C 0.23796 0.84633 0.11668 0.0
C3560 C 0.23744 0.86645 0.1178 0.0
H3561 H 0.25672 0.81177 0.23448 0.0
H3562 H 0.25282 0.8302 0.20594 0.0
C3563 C 0.2349 0.87618 0.10104 0.0
C3564 C 0.24134 0.83607 0.13448 0.0
H3565 H 0.22314 0.82463 0.17665 0.0
C3566 C 0.25768 0.82716 0.13694 0.0
C3567 C 0.22875 0.83515 0.14901 0.0
C3568 C 0.21063 0.84383 0.14694 0.0
C3569 C 0.26187 0.81756 0.15357 0.0
C3570 C 0.24917 0.81646 0.16803 0.0
C3571 C 0.2329 0.8255 0.16563 0.0
C3572 C 0.25221 0.80549 0.18543 0.0
C3573 C 0.28008 0.80902 0.15566 0.0
C3574 C 0.25302 0.78546 0.18348 0.0
C3575 C 0.25542 0.775 0.19976 0.0
C3576 C 0.25699 0.7843 0.21837 0.0
C3577 C 0.25603 0.80431 0.22036 0.0
C3578 C 0.25362 0.81481 0.20404 0.0
H3579 H 0.29073 0.81597 0.14651 0.0
H3580 H 0.28657 0.81073 0.17085 0.0
H3581 H 0.27683 0.79323 0.15103 0.0
H3582 H 0.25149 0.7778 0.16934 0.0
H3583 H 0.25586 0.75954 0.19776 0.0
H3584 H 0.9191 0.5884 0.82204 0.0
H3585 H 0.93343 0.58405 0.85441 0.0
H3586 H 0.96707 0.54423 0.83026 0.0
H3587 H 0.95271 0.54837 0.79784 0.0
H3588 H 0.93149 0.54507 0.87018 0.0
H3589 H 0.00562 0.58421 0.86893 0.0
H3590 H 0.98574 0.58927 0.8531 0.0
H3591 H 0.99573 0.56758 0.84847 0.0
C3592 C 0.92975 0.57893 0.82359 0.0
C3593 C 0.93479 0.56875 0.80737 0.0
C3594 C 0.93788 0.57643 0.84209 0.0
C3595 C 0.9514 0.56393 0.84472 0.0
C3596 C 0.95684 0.55413 0.82853 0.0
H3597 H 0.01296 0.5265 0.94578 0.0
H3598 H 0.00161 0.5334 0.91318 0.0
C3599 C 0.94858 0.55648 0.81003 0.0
C3600 C 0.95885 0.56016 0.86444 0.0
H3601 H 0.99914 0.56697 0.89626 0.0
C3602 C 0.94626 0.54992 0.87595 0.0
C3603 C 0.97816 0.5663 0.87179 0.0
C3604 C 0.99216 0.57757 0.86005 0.0
C3605 C 0.95249 0.54545 0.89456 0.0
C3606 C 0.97176 0.55191 0.90213 0.0
C3607 C 0.98438 0.56208 0.89053 0.0
C3608 C 0.97902 0.54828 0.92204 0.0
C3609 C 0.93846 0.53335 0.90569 0.0
C3610 C 0.97041 0.55469 0.93797 0.0
C3611 C 0.97674 0.55061 0.95659 0.0
C3612 C 0.99208 0.54031 0.95978 0.0
C3613 C 1.00112 0.53446 0.94388 0.0
C3614 C 0.99464 0.53839 0.92521 0.0
H3615 H 0.92647 0.52471 0.89596 0.0
H3616 H 0.94551 0.52318 0.9144 0.0
H3617 H 0.93229 0.54316 0.91556 0.0
H3618 H 0.95871 0.56283 0.936 0.0
H3619 H 0.96958 0.55555 0.9685 0.0
H3620 H 0.26862 0.17108 0.56897 0.0
H3621 H 0.27374 0.19341 0.59791 0.0
H3622 H 0.31597 0.23193 0.5721 0.0
H3623 H 0.31093 0.20953 0.54288 0.0
H3624 H 0.31071 0.20869 0.62172 0.0
H3625 H 0.27343 0.26482 0.58797 0.0
H3626 H 0.26959 0.23988 0.57782 0.0
H3627 H 0.29178 0.25545 0.57599 0.0
C3628 C 0.27909 0.18423 0.56946 0.0
C3629 C 0.28933 0.18864 0.55368 0.0
C3630 C 0.28202 0.19692 0.586 0.0
C3631 C 0.29512 0.21428 0.58699 0.0
C3632 C 0.30571 0.21861 0.57146 0.0
H3633 H 0.30832 0.27869 0.70092 0.0
H3634 H 0.31747 0.26871 0.66935 0.0
C3635 C 0.30285 0.20581 0.55487 0.0
C3636 C 0.29699 0.22789 0.60426 0.0
H3637 H 0.28026 0.26805 0.6216 0.0
C3638 C 0.30451 0.22195 0.62174 0.0
C3639 C 0.28876 0.24505 0.60403 0.0
C3640 C 0.28035 0.25179 0.58551 0.0
C3641 C 0.30296 0.23213 0.63926 0.0
C3642 C 0.29382 0.24875 0.63913 0.0
C3643 C 0.28731 0.25533 0.62155 0.0
C3644 C 0.28851 0.25766 0.65707 0.0
C3645 C 0.30988 0.22422 0.6578 0.0
C3646 C 0.26916 0.25546 0.66023 0.0
C3647 C 0.26391 0.26121 0.67813 0.0
C3648 C 0.27795 0.26924 0.69307 0.0
C3649 C 0.29725 0.27242 0.68959 0.0
C3650 C 0.3025 0.2667 0.67165 0.0
H3651 H 0.31412 0.20966 0.65536 0.0
H3652 H 0.32247 0.23437 0.66497 0.0
H3653 H 0.29858 0.22303 0.66777 0.0
H3654 H 0.25818 0.24849 0.64911 0.0
H3655 H 0.24894 0.25869 0.68048 0.0
H3656 H 0.63524 0.52329 0.22824 0.0
H3657 H 0.61659 0.51845 0.19679 0.0
H3658 H 0.5848 0.46515 0.21324 0.0
H3659 H 0.60327 0.47014 0.24509 0.0
H3660 H 0.61295 0.48796 0.16892 0.0
H3661 H 0.54276 0.4956 0.1947 0.0
H3662 H 0.56499 0.50242 0.20991 0.0
H3663 H 0.55472 0.47717 0.20496 0.0
C3664 C 0.62427 0.51053 0.22521 0.0
C3665 C 0.62064 0.49713 0.23915 0.0
C3666 C 0.61366 0.50777 0.20721 0.0
C3667 C 0.59919 0.49155 0.20275 0.0
C3668 C 0.59568 0.47794 0.21652 0.0
H3669 H 0.5494 0.47499 0.08125 0.0
H3670 H 0.56267 0.46681 0.11284 0.0
C3671 C 0.60629 0.48075 0.23464 0.0
C3672 C 0.58793 0.48925 0.18361 0.0
H3673 H 0.54369 0.49129 0.16125 0.0
C3674 C 0.59775 0.48842 0.16719 0.0
C3675 C 0.56813 0.48997 0.18148 0.0
C3676 C 0.55698 0.49148 0.19865 0.0
C3677 C 0.5885 0.48915 0.14871 0.0
C3678 C 0.56878 0.49028 0.14659 0.0
C3679 C 0.55878 0.49029 0.16294 0.0
C3680 C 0.55886 0.49381 0.12787 0.0
C3681 C 0.60018 0.48985 0.13177 0.0
C3682 C 0.55158 0.51127 0.12605 0.0
C3683 C 0.54386 0.51584 0.10816 0.0
C3684 C 0.54331 0.50305 0.09177 0.0
C3685 C 0.54985 0.48518 0.09368 0.0
C3686 C 0.55749 0.48054 0.11166 0.0
H3687 H 0.61578 0.4927 0.13637 0.0
H3688 H 0.59682 0.47564 0.1231 0.0
H3689 H 0.59671 0.50136 0.12236 0.0
H3690 H 0.55246 0.52169 0.13838 0.0
H3691 H 0.53883 0.52967 0.10708 0.0
H3692 H 0.21116 0.84269 0.98141 0.0
H3693 H 0.21415 0.82674 0.94984 0.0
H3694 H 0.25087 0.8783 0.93615 0.0
H3695 H 0.2474 0.89445 0.96727 0.0
H3696 H 0.22666 0.86446 0.90594 0.0
H3697 H 0.25878 0.80316 0.9345 0.0
H3698 H 0.23573 0.80455 0.94229 0.0
H3699 H 0.25542 0.8239 0.94974 0.0
C3700 C 0.21979 0.85063 0.97161 0.0
C3701 C 0.22907 0.86983 0.97691 0.0
C3702 C 0.22165 0.84144 0.95361 0.0
C3703 C 0.23309 0.85111 0.94066 0.0
C3704 C 0.24202 0.87042 0.94583 0.0
H3705 H 0.2814 0.79952 0.84411 0.0
H3706 H 0.27482 0.81344 0.87522 0.0
C3707 C 0.24002 0.87967 0.96369 0.0
C3708 C 0.23579 0.84135 0.92167 0.0
H3709 H 0.25091 0.80162 0.90069 0.0
C3710 C 0.23196 0.85071 0.90483 0.0
C3711 C 0.24301 0.82354 0.92012 0.0
C3712 C 0.24866 0.81328 0.93763 0.0
C3713 C 0.2351 0.84284 0.88661 0.0
C3714 C 0.24175 0.82472 0.88499 0.0
C3715 C 0.24562 0.81537 0.90183 0.0
C3716 C 0.2454 0.81556 0.86608 0.0
C3717 C 0.23188 0.85442 0.86939 0.0
C3718 C 0.231 0.81166 0.85054 0.0
C3719 C 0.23478 0.80385 0.83263 0.0
C3720 C 0.25298 0.79939 0.82988 0.0
C3721 C 0.2672 0.80269 0.84565 0.0
C3722 C 0.26346 0.81069 0.8635 0.0
H3723 H 0.23236 0.87011 0.87373 0.0
H3724 H 0.24273 0.85312 0.8592 0.0
H3725 H 0.21754 0.8488 0.86172 0.0
H3726 H 0.21679 0.81472 0.85222 0.0
H3727 H 0.22342 0.8014 0.8209 0.0
H3728 H 0.96007 0.56869 0.71961 0.0
H3729 H 0.97602 0.56286 0.6907 0.0
H3730 H 0.92242 0.55882 0.6554 0.0
H3731 H 0.90637 0.56448 0.68417 0.0
H3732 H 0.9643 0.52796 0.66251 0.0
H3733 H 0.96192 0.59863 0.63014 0.0
H3734 H 0.96019 0.59588 0.65546 0.0
H3735 H 0.94006 0.58681 0.63816 0.0
C3736 C 0.95173 0.56679 0.70567 0.0
C3737 C 0.93196 0.5671 0.70418 0.0
C3738 C 0.96085 0.5634 0.68918 0.0
C3739 C 0.95042 0.56054 0.6709 0.0
C3740 C 0.93077 0.5612 0.66934 0.0
H3741 H 0.97889 0.54035 0.55386 0.0
H3742 H 0.96289 0.5459 0.5827 0.0
C3743 C 0.92162 0.56441 0.68581 0.0
C3744 C 0.95988 0.55603 0.65352 0.0
H3745 H 0.97267 0.57398 0.61142 0.0
C3746 C 0.96624 0.53803 0.65136 0.0
C3747 C 0.96218 0.56912 0.63893 0.0
C3748 C 0.95587 0.58878 0.64073 0.0
C3749 C 0.97458 0.53261 0.63484 0.0
C3750 C 0.97713 0.54581 0.6203 0.0
C3751 C 0.97074 0.56384 0.62251 0.0
C3752 C 0.98652 0.54134 0.60277 0.0
C3753 C 0.98005 0.51257 0.63291 0.0
C3754 C 0.00514 0.53688 0.60436 0.0
C3755 C 0.0142 0.53343 0.58787 0.0
C3756 C 0.00495 0.53468 0.56946 0.0
C3757 C 0.98632 0.53912 0.56785 0.0
C3758 C 0.9772 0.5424 0.58434 0.0
H3759 H 0.97191 0.50235 0.64192 0.0
H3760 H 0.97753 0.50635 0.61772 0.0
H3761 H 0.99545 0.51359 0.63785 0.0
H3762 H 0.01286 0.53647 0.61837 0.0
H3763 H 0.02862 0.53023 0.58957 0.0
H3764 H 0.29695 0.17553 0.44284 0.0
H3765 H 0.29631 0.19653 0.41607 0.0
H3766 H 0.25948 0.22987 0.44459 0.0
H3767 H 0.26016 0.20905 0.4715 0.0
H3768 H 0.26227 0.20027 0.39389 0.0
H3769 H 0.3006 0.27201 0.42691 0.0
H3770 H 0.3028 0.24933 0.43749 0.0
H3771 H 0.28196 0.26041 0.43995 0.0
C3772 C 0.28891 0.18748 0.44351 0.0
C3773 C 0.27854 0.19063 0.45918 0.0
C3774 C 0.2886 0.19947 0.42826 0.0
C3775 C 0.27804 0.21484 0.42852 0.0
C3776 C 0.26801 0.2183 0.44434 0.0
H3777 H 0.23374 0.26429 0.32698 0.0
H3778 H 0.23799 0.25354 0.35945 0.0
C3779 C 0.26829 0.2063 0.45959 0.0
C3780 C 0.27603 0.22601 0.41141 0.0
H3781 H 0.28476 0.27156 0.39534 0.0
C3782 C 0.26722 0.21584 0.39418 0.0
C3783 C 0.28257 0.2463 0.41194 0.0
C3784 C 0.29266 0.25769 0.43 0.0
C3785 C 0.26465 0.22545 0.3774 0.0
C3786 C 0.27084 0.24579 0.37797 0.0
C3787 C 0.27983 0.25599 0.39513 0.0
C3788 C 0.26871 0.25629 0.36046 0.0
C3789 C 0.25558 0.21372 0.35907 0.0
C3790 C 0.28471 0.26229 0.35082 0.0
C3791 C 0.28238 0.26844 0.33226 0.0
C3792 C 0.26396 0.2686 0.3231 0.0
C3793 C 0.2481 0.26412 0.33351 0.0
C3794 C 0.25047 0.258 0.35207 0.0
H3795 H 0.25485 0.19779 0.36025 0.0
H3796 H 0.24082 0.21669 0.35581 0.0
H3797 H 0.26368 0.21796 0.34676 0.0
H3798 H 0.2989 0.26107 0.35717 0.0
H3799 H 0.29492 0.27194 0.32472 0.0
H3800 H 0.36939 0.66148 0.51809 0.0
H3801 H 0.39602 0.64301 0.51733 0.0
H3802 H 0.35621 0.58915 0.51316 0.0
H3803 H 0.32964 0.60744 0.51373 0.0
H3804 H 0.40777 0.6161 0.54193 0.0
H3805 H 0.38734 0.58114 0.46811 0.0
H3806 H 0.37718 0.6016 0.47719 0.0
H3807 H 0.36842 0.57735 0.48336 0.0
C3808 C 0.36632 0.6457 0.51696 0.0
C3809 C 0.34734 0.63596 0.51586 0.0
C3810 C 0.38156 0.63515 0.51655 0.0
C3811 C 0.37816 0.61464 0.51485 0.0
C3812 C 0.35924 0.60493 0.51404 0.0
H3813 H 0.45437 0.5326 0.54272 0.0
H3814 H 0.43084 0.55467 0.54197 0.0
C3815 C 0.34403 0.61544 0.51449 0.0
C3816 C 0.39431 0.60332 0.51427 0.0
H3817 H 0.41093 0.56808 0.48747 0.0
C3818 C 0.40853 0.60571 0.52996 0.0
C3819 C 0.39556 0.58994 0.49853 0.0
C3820 C 0.38143 0.58746 0.48075 0.0
C3821 C 0.4235 0.59464 0.53063 0.0
C3822 C 0.4242 0.58057 0.51531 0.0
C3823 C 0.41036 0.57868 0.49932 0.0
C3824 C 0.43881 0.56731 0.5158 0.0
C3825 C 0.43851 0.59825 0.54773 0.0
C3826 C 0.45086 0.56652 0.50104 0.0
C3827 C 0.46425 0.5537 0.50136 0.0
C3828 C 0.46582 0.54138 0.51639 0.0
C3829 C 0.45358 0.54198 0.53097 0.0
C3830 C 0.44023 0.55476 0.53067 0.0
H3831 H 0.43937 0.61305 0.55496 0.0
H3832 H 0.43475 0.58749 0.55838 0.0
H3833 H 0.45281 0.59663 0.54341 0.0
H3834 H 0.44991 0.57584 0.48927 0.0
H3835 H 0.47313 0.55318 0.48967 0.0
H3836 H 0.81055 0.96783 0.52647 0.0
H3837 H 0.84394 0.98337 0.52912 0.0
H3838 H 0.85444 0.95842 0.58326 0.0
H3839 H 0.82097 0.94252 0.58058 0.0
H3840 H 0.86861 0.0089 0.55749 0.0
H3841 H 0.89005 0.93561 0.54796 0.0
H3842 H 0.86555 0.93924 0.54358 0.0
H3843 H 0.87649 0.93959 0.56781 0.0
C3844 C 0.81987 0.96589 0.5391 0.0
C3845 C 0.81325 0.95376 0.55319 0.0
C3846 C 0.83893 0.97482 0.54061 0.0
C3847 C 0.85167 0.97175 0.55621 0.0
C3848 C 0.84484 0.96068 0.57096 0.0
H3849 H 0.97612 0.99623 0.55776 0.0
H3850 H 0.9444 0.98802 0.56856 0.0
C3851 C 0.82574 0.9517 0.56945 0.0
C3852 C 0.87229 0.97877 0.55594 0.0
H3853 H 0.9141 0.96279 0.54865 0.0
C3854 C 0.87864 0.99887 0.55582 0.0
C3855 C 0.88529 0.96559 0.55373 0.0
C3856 C 0.87908 0.94379 0.55313 0.0
C3857 C 0.89761 0.00613 0.55305 0.0
C3858 C 0.91037 0.99289 0.55001 0.0
C3859 C 0.90423 0.97287 0.55098 0.0
C3860 C 0.92968 0.99925 0.54431 0.0
C3861 C 0.90375 0.02787 0.55314 0.0
C3862 C 0.93183 0.00812 0.527 0.0
C3863 C 0.94989 0.01278 0.52074 0.0
C3864 C 0.96613 0.00854 0.53163 0.0
C3865 C 0.96392 0.99974 0.54903 0.0
C3866 C 0.94583 0.99507 0.55527 0.0
H3867 H 0.89452 0.03598 0.5614 0.0
H3868 H 0.91882 0.03232 0.55941 0.0
H3869 H 0.90253 0.03217 0.53812 0.0
H3870 H 0.91947 0.01101 0.51809 0.0
H3871 H 0.95105 0.01949 0.50725 0.0
H3872 H 0.86758 0.12132 0.26798 0.0
H3873 H 0.84984 0.14831 0.2723 0.0
H3874 H 0.80595 0.12037 0.2283 0.0
H3875 H 0.82343 0.09303 0.22423 0.0
H3876 H 0.83882 0.17403 0.24775 0.0
H3877 H 0.77503 0.13016 0.27247 0.0
H3878 H 0.79702 0.1208 0.27044 0.0
H3879 H 0.78056 0.12125 0.24941 0.0
C3880 C 0.85415 0.12091 0.2592 0.0
C3881 C 0.84683 0.10498 0.24584 0.0
C3882 C 0.84403 0.13636 0.26169 0.0
C3883 C 0.82638 0.1362 0.2509 0.0
C3884 C 0.8193 0.12057 0.23714 0.0
H3885 H 0.75397 0.22327 0.23475 0.0
H3886 H 0.77179 0.19606 0.23195 0.0
C3887 C 0.82937 0.10503 0.23472 0.0
C3888 C 0.81551 0.15246 0.25403 0.0
H3889 H 0.77249 0.16284 0.26572 0.0
C3890 C 0.82437 0.17158 0.25178 0.0
C3891 C 0.7967 0.14929 0.2595 0.0
C3892 C 0.78682 0.1293 0.26329 0.0
C3893 C 0.81473 0.1875 0.25442 0.0
C3894 C 0.79582 0.1842 0.25935 0.0
C3895 C 0.78701 0.16521 0.26185 0.0
C3896 C 0.78478 0.20033 0.2614 0.0
C3897 C 0.82464 0.20779 0.25172 0.0
C3898 C 0.78607 0.21151 0.27899 0.0
C3899 C 0.7758 0.22699 0.28066 0.0
C3900 C 0.76427 0.23153 0.26474 0.0
C3901 C 0.76275 0.22006 0.24727 0.0
C3902 C 0.77295 0.20458 0.24561 0.0
H3903 H 0.83937 0.20793 0.24771 0.0
H3904 H 0.81628 0.21425 0.2403 0.0
H3905 H 0.82532 0.2172 0.26524 0.0
H3906 H 0.79507 0.2083 0.29135 0.0
H3907 H 0.77681 0.23535 0.29439 0.0
H3908 H 0.73745 0.14212 0.98571 0.0
H3909 H 0.70564 0.12351 0.98749 0.0
H3910 H 0.7257 0.10174 0.04075 0.0
H3911 H 0.75758 0.12047 0.03915 0.0
H3912 H 0.69385 0.08271 0.98982 0.0
H3913 H 0.67917 0.12656 0.05418 0.0
H3914 H 0.69836 0.13468 0.03999 0.0
H3915 H 0.70088 0.11644 0.0567 0.0
C3916 C 0.73512 0.13331 0.99777 0.0
C3917 C 0.74999 0.13284 0.01236 0.0
C3918 C 0.71694 0.12267 0.99875 0.0
C3919 C 0.71324 0.11146 0.01438 0.0
C3920 C 0.72817 0.11056 0.02872 0.0
H3921 H 0.60666 0.04815 0.04669 0.0
H3922 H 0.6403 0.06171 0.04504 0.0
C3923 C 0.7464 0.12118 0.02774 0.0
C3924 C 0.69366 0.10099 0.01571 0.0
H3925 H 0.6557 0.09972 0.04223 0.0
C3926 C 0.6855 0.08638 1.00129 0.0
C3927 C 0.68282 0.10581 0.0307 0.0
C3928 C 0.69063 0.12182 0.04622 0.0
C3929 C 0.66681 0.07638 0.00151 0.0
C3930 C 0.65584 0.08142 0.01633 0.0
C3931 C 0.66411 0.09586 0.03088 0.0
C3932 C 0.63561 0.07229 0.01681 0.0
C3933 C 0.65909 0.06032 0.98601 0.0
C3934 C 0.62177 0.07377 0.00153 0.0
C3935 C 0.60258 0.06596 0.00242 0.0
C3936 C 0.59687 0.05671 0.0187 0.0
C3937 C 0.6107 0.05517 0.03396 0.0
C3938 C 0.6299 0.06293 0.03303 0.0
H3939 H 0.67078 0.0544 0.97943 0.0
H3940 H 0.64981 0.04818 0.99181 0.0
H3941 H 0.65044 0.06624 0.97445 0.0
H3942 H 0.62574 0.08133 0.98907 0.0
H3943 H 0.59218 0.06745 0.99051 0.0
H3944 H 0.12592 0.41945 0.2857 0.0
H3945 H 0.14368 0.39198 0.28514 0.0
H3946 H 0.19387 0.43041 0.27264 0.0
H3947 H 0.17621 0.45775 0.2729 0.0
H3948 H 0.18641 0.39658 0.24895 0.0
H3949 H 0.18479 0.38011 0.32551 0.0
H3950 H 0.16179 0.38029 0.31265 0.0
H3951 H 0.17876 0.40248 0.3168 0.0
C3952 C 0.14077 0.42203 0.28293 0.0
C3953 C 0.14967 0.44078 0.27938 0.0
C3954 C 0.15093 0.40635 0.28272 0.0
C3955 C 0.1702 0.40917 0.27909 0.0
C3956 C 0.17905 0.42788 0.27553 0.0
H3957 H 0.25719 0.33589 0.29565 0.0
H3958 H 0.23651 0.36081 0.29786 0.0
C3959 C 0.16893 0.44351 0.27571 0.0
C3960 C 0.1811 0.39264 0.27835 0.0
H3961 H 0.19807 0.35848 0.30526 0.0
C3962 C 0.18892 0.38822 0.26125 0.0
C3963 C 0.18454 0.38187 0.29448 0.0
C3964 C 0.17719 0.38648 0.31347 0.0
C3965 C 0.20009 0.37337 0.25982 0.0
C3966 C 0.20327 0.36238 0.27584 0.0
C3967 C 0.19548 0.3668 0.29296 0.0
C3968 C 0.21516 0.34667 0.27521 0.0
C3969 C 0.2088 0.36994 0.24133 0.0
C3970 C 0.20986 0.33027 0.26201 0.0
C3971 C 0.22169 0.31611 0.26067 0.0
C3972 C 0.23894 0.31797 0.27266 0.0
C3973 C 0.24399 0.33411 0.28622 0.0
C3974 C 0.23216 0.34831 0.28753 0.0
H3975 H 0.20892 0.38255 0.23231 0.0
H3976 H 0.22368 0.36715 0.24429 0.0
H3977 H 0.20029 0.35696 0.23287 0.0
H3978 H 0.19668 0.32855 0.25256 0.0
H3979 H 0.21753 0.30396 0.24992 0.0
H3980 H 0.21062 0.45538 0.05318 0.0
H3981 H 0.18313 0.4713 0.04396 0.0
H3982 H 0.18299 0.44978 0.98483 0.0
H3983 H 0.21048 0.43402 0.99384 0.0
H3984 H 0.17776 0.4896 0.98993 0.0
H3985 H 0.12898 0.43941 0.02895 0.0
H3986 H 0.1502 0.45169 0.04327 0.0
H3987 H 0.15214 0.43448 0.02365 0.0
C3988 C 0.20479 0.45417 0.03821 0.0
C3989 C 0.21256 0.44335 0.02425 0.0
C3990 C 0.1891 0.46319 0.03298 0.0
C3991 C 0.18096 0.46146 0.01377 0.0
C3992 C 0.18908 0.45121 0.99973 0.0
H3993 H 0.06579 0.48112 0.981 0.0
H3994 H 0.09577 0.46811 0.98122 0.0
C3995 C 0.20473 0.44218 0.00493 0.0
C3996 C 0.16352 0.46968 0.00835 0.0
H3997 H 0.11657 0.46587 0.01577 0.0
C3998 C 0.16433 0.48442 0.9955 0.0
C3999 C 0.14602 0.46256 0.01538 0.0
C4000 C 0.14414 0.44604 0.02844 0.0
C4001 C 0.1481 0.49263 0.98987 0.0
C4002 C 0.13077 0.48598 0.99747 0.0
C4003 C 0.1299 0.47093 0.00997 0.0
C4004 C 0.11347 0.49494 0.99355 0.0
C4005 C 0.14959 0.50822 0.97579 0.0
C4006 C 0.11363 0.51449 0.99981 0.0
C4007 C 0.09655 0.52195 0.99961 0.0
C4008 C 0.07911 0.50988 0.99332 0.0
C4009 C 0.07909 0.4907 0.9859 0.0
C4010 C 0.09617 0.48326 0.98606 0.0
H4011 H 0.16182 0.50758 0.96716 0.0
H4012 H 0.13628 0.50684 0.96583 0.0
H4013 H 0.15188 0.52275 0.98385 0.0
H4014 H 0.12677 0.52363 0.00598 0.0
H4015 H 0.09689 0.53677 0.00548 0.0
H4016 H 0.86032 0.98732 0.22302 0.0
H4017 H 0.84459 0.95393 0.22582 0.0
H4018 H 0.80959 0.97511 0.2668 0.0
H4019 H 0.82495 0.00861 0.26367 0.0
H4020 H 0.84493 0.93413 0.2578 0.0
H4021 H 0.77005 0.93845 0.23102 0.0
H4022 H 0.78981 0.95711 0.22758 0.0
H4023 H 0.78 0.95634 0.25033 0.0
C4024 C 0.84909 0.98489 0.23243 0.0
C4025 C 0.84381 1.00059 0.24308 0.0
C4026 C 0.84013 0.9658 0.23404 0.0
C4027 C 0.82574 0.962 0.24635 0.0
C4028 C 0.82032 0.97769 0.25687 0.0
H4029 H 0.79025 0.85051 0.29272 0.0
H4030 H 0.80153 0.88482 0.28837 0.0
C4031 C 0.82918 0.99683 0.25514 0.0
C4032 C 0.81735 0.94154 0.24901 0.0
H4033 H 0.77535 0.90955 0.24576 0.0
C4034 C 0.82972 0.92877 0.25512 0.0
C4035 C 0.7975 0.93449 0.24538 0.0
C4036 C 0.78357 0.94725 0.23804 0.0
C4037 C 0.8228 0.90924 0.25787 0.0
C4038 C 0.80295 0.90234 0.25467 0.0
C4039 C 0.79055 0.91498 0.24837 0.0
C4040 C 0.79495 0.88186 0.25742 0.0
C4041 C 0.83679 0.89601 0.26388 0.0
C4042 C 0.78712 0.86896 0.24149 0.0
C4043 C 0.78069 0.84931 0.24389 0.0
C4044 C 0.78185 0.84223 0.26232 0.0
C4045 C 0.78918 0.8554 0.27832 0.0
C4046 C 0.79569 0.87502 0.27587 0.0
H4047 H 0.85175 0.90255 0.26225 0.0
H4048 H 0.83584 0.89319 0.27922 0.0
H4049 H 0.83329 0.88177 0.25523 0.0
H4050 H 0.7864 0.874 0.22714 0.0
H4051 H 0.77507 0.83964 0.23125 0.0
H4052 H 0.63316 0.0609 0.77367 0.0
H4053 H 0.65263 0.0932 0.77431 0.0
H4054 H 0.70163 0.07062 0.79914 0.0
H4055 H 0.68235 0.03815 0.79808 0.0
H4056 H 0.67238 0.11732 0.8042 0.0
H4057 H 0.72223 0.09619 0.75325 0.0
H4058 H 0.70036 0.08051 0.75675 0.0
H4059 H 0.72102 0.08229 0.774 0.0
C4060 C 0.64808 0.06282 0.77927 0.0
C4061 C 0.65627 0.04697 0.78569 0.0
C4062 C 0.65918 0.08128 0.77964 0.0
C4063 C 0.67867 0.08426 0.78646 0.0
C4064 C 0.68675 0.06857 0.79338 0.0
H4065 H 0.75979 0.19501 0.79539 0.0
H4066 H 0.74508 0.16159 0.80081 0.0
C4067 C 0.67568 0.05006 0.79289 0.0
C4068 C 0.6904 0.10384 0.78628 0.0
H4069 H 0.72849 0.12869 0.76698 0.0
C4070 C 0.6847 0.11977 0.79615 0.0
C4071 C 0.70651 0.10703 0.77577 0.0
C4072 C 0.71284 0.09065 0.76419 0.0
C4073 C 0.69449 0.1388 0.79552 0.0
C4074 C 0.71034 0.14198 0.78477 0.0
C4075 C 0.71641 0.12608 0.77534 0.0
C4076 C 0.71953 0.16191 0.7816 0.0
C4077 C 0.68766 0.15551 0.80606 0.0
C4078 C 0.71009 0.17288 0.76888 0.0
C4079 C 0.71846 0.19172 0.76566 0.0
C4080 C 0.73641 0.19997 0.77518 0.0
C4081 C 0.74595 0.18895 0.78788 0.0
C4082 C 0.73759 0.16994 0.79098 0.0
H4083 H 0.67748 0.15038 0.81646 0.0
H4084 H 0.69996 0.16562 0.81389 0.0
H4085 H 0.68036 0.16384 0.79547 0.0
H4086 H 0.6962 0.16684 0.76143 0.0
H4087 H 0.71077 0.19989 0.75581 0.0
loop_
_geom_bond_atom_site_label_1
_geom_bond_atom_site_label_2
_geom_bond_distance
_geom_bond_site_symmetry_2
_ccdc_geom_bond_type
In0 O1 2.294 . S
In0 O2 2.326 . S
In0 O6 2.247 1_455 S
In0 O7 2.326 1_455 S
In0 O8 2.266 . S
In0 O9 2.326 . S
In0 O11 2.294 . S
In0 O12 2.326 . S
O1 In0 2.294 . S
O1 C10 1.240 . S
O2 In0 2.326 . S
O2 C10 1.252 . S
C3 O6 1.277 . S
C3 O7 1.260 . S
C4 O11 1.240 . S
C4 O12 1.252 . S
C5 O8 1.252 . S
C5 O9 1.260 . S
O6 In0 2.247 1_655 S
O6 C3 1.277 . S
O7 In0 2.326 1_655 S
O7 C3 1.260 . S
O8 In0 2.266 . S
O8 C5 1.252 . S
O9 In0 2.326 . S
O9 C5 1.260 . S
C10 O1 1.240 . S
C10 O2 1.252 . S
O11 In0 2.294 . S
O11 C4 1.240 . S
O12 In0 2.326 . S
O12 C4 1.252 . S
In13 O14 2.294 . S
In13 O15 2.326 . S
In13 O19 2.266 1_455 S
In13 O20 2.326 . S
In13 O21 2.266 1_455 S
In13 O22 2.326 1_455 S
In13 O24 2.294 . S
In13 O25 2.326 . S
O14 In13 2.294 . S
O14 C23 1.240 . S
O15 In13 2.326 . S
O15 C23 1.252 . S
C16 O19 1.252 . S
C16 O20 1.260 1_655 S
C17 O24 1.240 . S
C17 O25 1.252 . S
C18 O21 1.252 . S
C18 O22 1.260 . S
O19 In13 2.266 1_655 S
O19 C16 1.252 . S
O20 In13 2.326 . S
O20 C16 1.260 1_455 S
O21 In13 2.266 1_655 S
O21 C18 1.252 . S
O22 In13 2.326 1_655 S
O22 C18 1.260 . S
C23 O14 1.240 . S
C23 O15 1.252 . S
O24 In13 2.294 . S
O24 C17 1.240 . S
O25 In13 2.326 . S
O25 C17 1.252 . S
In26 O27 2.294 . S
In26 O28 2.326 . S
In26 O32 2.266 . S
In26 O33 2.326 . S
In26 O34 2.266 . S
In26 O35 2.326 . S
In26 O37 2.294 . S
In26 O38 2.326 . S
O27 In26 2.294 . S
O27 C36 1.240 . S
O28 In26 2.326 . S
O28 C36 1.252 . S
C29 O32 1.252 . S
C29 O33 1.260 . S
C30 O37 1.240 . S
C30 O38 1.252 . S
C31 O34 1.252 . S
C31 O35 1.260 . S
O32 In26 2.266 . S
O32 C29 1.252 . S
O33 In26 2.326 . S
O33 C29 1.260 . S
O34 In26 2.266 . S
O34 C31 1.252 . S
O35 In26 2.326 . S
O35 C31 1.260 . S
C36 O27 1.240 . S
C36 O28 1.252 . S
O37 In26 2.294 . S
O37 C30 1.240 . S
O38 In26 2.326 . S
O38 C30 1.252 . S
In39 O40 2.294 . S
In39 O41 2.326 . S
In39 O45 2.266 . S
In39 O46 2.326 . S
In39 O47 2.266 . S
In39 O48 2.326 . S
In39 O50 2.294 . S
In39 O51 2.326 . S
O40 In39 2.294 . S
O40 C49 1.240 . S
O41 In39 2.326 . S
O41 C49 1.252 . S
C42 O45 1.252 . S
C42 O46 1.260 . S
C43 O50 1.240 . S
C43 O51 1.252 . S
C44 O47 1.252 . S
C44 O48 1.260 . S
O45 In39 2.266 . S
O45 C42 1.252 . S
O46 In39 2.326 . S
O46 C42 1.260 . S
O47 In39 2.266 . S
O47 C44 1.252 . S
O48 In39 2.326 . S
O48 C44 1.260 . S
C49 O40 1.240 . S
C49 O41 1.252 . S
O50 In39 2.294 . S
O50 C43 1.240 . S
O51 In39 2.326 . S
O51 C43 1.252 . S
In52 O53 2.294 . S
In52 O54 2.326 . S
In52 O58 2.266 . S
In52 O59 2.326 . S
In52 O60 2.266 . S
In52 O61 2.326 . S
In52 O63 2.294 1_455 S
In52 O64 2.326 1_455 S
O53 In52 2.294 . S
O53 C62 1.240 . S
O54 In52 2.326 . S
O54 C62 1.252 . S
C55 O58 1.252 . S
C55 O59 1.260 . S
C56 O63 1.240 . S
C56 O64 1.252 . S
C57 O60 1.252 . S
C57 O61 1.260 . S
O58 In52 2.266 . S
O58 C55 1.252 . S
O59 In52 2.326 . S
O59 C55 1.260 . S
O60 In52 2.266 . S
O60 C57 1.252 . S
O61 In52 2.326 . S
O61 C57 1.260 . S
C62 O53 1.240 . S
C62 O54 1.252 . S
O63 In52 2.294 1_655 S
O63 C56 1.240 . S
O64 In52 2.326 1_655 S
O64 C56 1.252 . S
In65 O66 2.294 . S
In65 O67 2.326 . S
In65 O71 2.266 . S
In65 O72 2.326 . S
In65 O73 2.266 . S
In65 O74 2.326 . S
In65 O76 2.294 . S
In65 O77 2.326 . S
O66 In65 2.294 . S
O66 C75 1.240 . S
O67 In65 2.326 . S
O67 C75 1.252 . S
C68 O71 1.252 . S
C68 O72 1.260 . S
C69 O76 1.240 . S
C69 O77 1.252 . S
C70 O73 1.252 . S
C70 O74 1.260 . S
O71 In65 2.266 . S
O71 C68 1.252 . S
O72 In65 2.326 . S
O72 C68 1.260 . S
O73 In65 2.266 . S
O73 C70 1.252 . S
O74 In65 2.326 . S
O74 C70 1.260 . S
C75 O66 1.240 . S
C75 O67 1.252 . S
O76 In65 2.294 . S
O76 C69 1.240 . S
O77 In65 2.326 . S
O77 C69 1.252 . S
In78 O79 2.294 . S
In78 O80 2.326 . S
In78 O84 2.266 . S
In78 O85 2.326 . S
In78 O86 2.266 . S
In78 O87 2.326 . S
In78 O89 2.294 . S
In78 O90 2.326 . S
O79 In78 2.294 . S
O79 C88 1.240 . S
O80 In78 2.326 . S
O80 C88 1.252 . S
C81 O84 1.252 . S
C81 O85 1.260 . S
C82 O89 1.240 . S
C82 O90 1.252 . S
C83 O86 1.252 . S
C83 O87 1.260 . S
O84 In78 2.266 . S
O84 C81 1.252 . S
O85 In78 2.326 . S
O85 C81 1.260 . S
O86 In78 2.266 . S
O86 C83 1.252 . S
O87 In78 2.326 . S
O87 C83 1.260 . S
C88 O79 1.240 . S
C88 O80 1.252 . S
O89 In78 2.294 . S
O89 C82 1.240 . S
O90 In78 2.326 . S
O90 C82 1.252 . S
In91 O92 2.294 . S
In91 O93 2.326 . S
In91 O97 2.266 . S
In91 O98 2.326 . S
In91 O99 2.266 1_455 S
In91 O100 2.326 1_455 S
In91 O102 2.294 . S
In91 O103 2.326 . S
O92 In91 2.294 . S
O92 C101 1.240 . S
O93 In91 2.326 . S
O93 C101 1.252 . S
C94 O97 1.252 . S
C94 O98 1.260 . S
C95 O102 1.240 . S
C95 O103 1.252 . S
C96 O99 1.252 . S
C96 O100 1.260 . S
O97 In91 2.266 . S
O97 C94 1.252 . S
O98 In91 2.326 . S
O98 C94 1.260 . S
O99 In91 2.266 1_655 S
O99 C96 1.252 . S
O100 In91 2.326 1_655 S
O100 C96 1.260 . S
C101 O92 1.240 . S
C101 O93 1.252 . S
O102 In91 2.294 . S
O102 C95 1.240 . S
O103 In91 2.326 . S
O103 C95 1.252 . S
In104 O105 2.294 . S
In104 O106 2.326 . S
In104 O110 2.266 . S
In104 O111 2.326 . S
In104 O112 2.266 . S
In104 O113 2.326 . S
In104 O115 2.294 . S
In104 O116 2.326 . S
O105 In104 2.294 . S
O105 C114 1.240 . S
O106 In104 2.326 . S
O106 C114 1.252 . S
C107 O110 1.252 . S
C107 O111 1.260 . S
C108 O115 1.240 . S
C108 O116 1.252 . S
C109 O112 1.252 . S
C109 O113 1.260 . S
O110 In104 2.266 . S
O110 C107 1.252 . S
O111 In104 2.326 . S
O111 C107 1.260 . S
O112 In104 2.266 . S
O112 C109 1.252 . S
O113 In104 2.326 . S
O113 C109 1.260 . S
C114 O105 1.240 . S
C114 O106 1.252 . S
O115 In104 2.294 . S
O115 C108 1.240 . S
O116 In104 2.326 . S
O116 C108 1.252 . S
In117 O118 2.294 . S
In117 O119 2.326 . S
In117 O123 2.266 . S
In117 O124 2.326 . S
In117 O125 2.266 . S
In117 O126 2.326 . S
In117 O128 2.294 . S
In117 O129 2.326 . S
O118 In117 2.294 . S
O118 C127 1.240 . S
O119 In117 2.326 . S
O119 C127 1.252 . S
C120 O123 1.252 . S
C120 O124 1.260 . S
C121 O128 1.240 . S
C121 O129 1.252 . S
C122 O125 1.252 . S
C122 O126 1.260 . S
O123 In117 2.266 . S
O123 C120 1.252 . S
O124 In117 2.326 . S
O124 C120 1.260 . S
O125 In117 2.266 . S
O125 C122 1.252 . S
O126 In117 2.326 . S
O126 C122 1.260 . S
C127 O118 1.240 . S
C127 O119 1.252 . S
O128 In117 2.294 . S
O128 C121 1.240 . S
O129 In117 2.326 . S
O129 C121 1.252 . S
In130 O131 2.294 1_545 S
In130 O132 2.326 1_545 S
In130 O136 2.266 . S
In130 O137 2.325 . S
In130 O138 2.264 . S
In130 O139 2.322 . S
In130 O141 2.296 1_545 S
In130 O142 2.330 1_545 S
O131 In130 2.294 1_565 S
O131 C140 1.240 . S
O132 In130 2.326 1_565 S
O132 C140 1.252 . S
C133 O136 1.252 . S
C133 O137 1.260 . S
C134 O141 1.240 . S
C134 O142 1.252 . S
C135 O138 1.252 . S
C135 O139 1.260 . S
O136 In130 2.266 . S
O136 C133 1.252 . S
O137 In130 2.325 . S
O137 C133 1.260 . S
O138 In130 2.264 . S
O138 C135 1.252 . S
O139 In130 2.322 . S
O139 C135 1.260 . S
C140 O131 1.240 . S
C140 O132 1.252 . S
O141 In130 2.296 1_565 S
O141 C134 1.240 . S
O142 In130 2.330 1_565 S
O142 C134 1.252 . S
In143 O144 2.294 . S
In143 O145 2.326 . S
In143 O149 2.266 . S
In143 O150 2.286 1_554 S
In143 O151 2.266 . S
In143 O152 2.326 . S
In143 O154 2.294 . S
In143 O155 2.326 . S
O144 In143 2.294 . S
O144 C153 1.240 . S
O145 In143 2.326 . S
O145 C153 1.252 . S
C146 O149 1.252 1_556 S
C146 O150 1.265 . S
C147 O154 1.240 . S
C147 O155 1.252 . S
C148 O151 1.252 . S
C148 O152 1.260 . S
O149 In143 2.266 . S
O149 C146 1.252 1_554 S
O150 In143 2.286 1_556 S
O150 C146 1.265 . S
O151 In143 2.266 . S
O151 C148 1.252 . S
O152 In143 2.326 . S
O152 C148 1.260 . S
C153 O144 1.240 . S
C153 O145 1.252 . S
O154 In143 2.294 . S
O154 C147 1.240 . S
O155 In143 2.326 . S
O155 C147 1.252 . S
In156 O157 2.294 . S
In156 O158 2.326 . S
In156 O162 2.266 . S
In156 O163 2.326 1_554 S
In156 O164 2.266 . S
In156 O165 2.326 . S
In156 O167 2.294 . S
In156 O168 2.326 . S
O157 In156 2.294 . S
O157 C166 1.240 . S
O158 In156 2.326 . S
O158 C166 1.252 . S
C159 O162 1.252 1_556 S
C159 O163 1.260 . S
C160 O167 1.240 . S
C160 O168 1.252 . S
C161 O164 1.252 . S
C161 O165 1.260 . S
O162 In156 2.266 . S
O162 C159 1.252 1_554 S
O163 In156 2.326 1_556 S
O163 C159 1.260 . S
O164 In156 2.266 . S
O164 C161 1.252 . S
O165 In156 2.326 . S
O165 C161 1.260 . S
C166 O157 1.240 . S
C166 O158 1.252 . S
O167 In156 2.294 . S
O167 C160 1.240 . S
O168 In156 2.326 . S
O168 C160 1.252 . S
In169 O170 2.294 . S
In169 O171 2.326 . S
In169 O175 2.266 1_554 S
In169 O176 2.327 . S
In169 O177 2.266 1_554 S
In169 O178 2.326 1_554 S
In169 O180 2.294 . S
In169 O181 2.326 . S
O170 In169 2.294 . S
O170 C179 1.240 . S
O171 In169 2.326 . S
O171 C179 1.252 . S
C172 O175 1.252 . S
C172 O176 1.257 1_556 S
C173 O180 1.240 . S
C173 O181 1.252 . S
C174 O177 1.252 . S
C174 O178 1.260 . S
O175 In169 2.266 1_556 S
O175 C172 1.252 . S
O176 In169 2.327 . S
O176 C172 1.257 1_554 S
O177 In169 2.266 1_556 S
O177 C174 1.252 . S
O178 In169 2.326 1_556 S
O178 C174 1.260 . S
C179 O170 1.240 . S
C179 O171 1.252 . S
O180 In169 2.294 . S
O180 C173 1.240 . S
O181 In169 2.326 . S
O181 C173 1.252 . S
In182 O183 2.294 . S
In182 O184 2.326 . S
In182 O188 2.266 . S
In182 O189 2.326 . S
In182 O190 2.266 . S
In182 O191 2.326 . S
In182 O193 2.294 . S
In182 O194 2.326 . S
O183 In182 2.294 . S
O183 C192 1.240 . S
O184 In182 2.326 . S
O184 C192 1.252 . S
C185 O188 1.252 . S
C185 O189 1.260 . S
C186 O193 1.240 . S
C186 O194 1.252 . S
C187 O190 1.252 . S
C187 O191 1.260 . S
O188 In182 2.266 . S
O188 C185 1.252 . S
O189 In182 2.326 . S
O189 C185 1.260 . S
O190 In182 2.266 . S
O190 C187 1.252 . S
O191 In182 2.326 . S
O191 C187 1.260 . S
C192 O183 1.240 . S
C192 O184 1.252 . S
O193 In182 2.294 . S
O193 C186 1.240 . S
O194 In182 2.326 . S
O194 C186 1.252 . S
In195 O196 2.294 . S
In195 O197 2.326 . S
In195 O201 2.266 . S
In195 O202 2.326 . S
In195 O203 2.266 . S
In195 O204 2.326 . S
In195 O206 2.294 . S
In195 O207 2.326 . S
O196 In195 2.294 . S
O196 C205 1.240 . S
O197 In195 2.326 . S
O197 C205 1.252 . S
C198 O201 1.252 . S
C198 O202 1.260 . S
C199 O206 1.240 . S
C199 O207 1.252 . S
C200 O203 1.252 . S
C200 O204 1.260 . S
O201 In195 2.266 . S
O201 C198 1.252 . S
O202 In195 2.326 . S
O202 C198 1.260 . S
O203 In195 2.266 . S
O203 C200 1.252 . S
O204 In195 2.326 . S
O204 C200 1.260 . S
C205 O196 1.240 . S
C205 O197 1.252 . S
O206 In195 2.294 . S
O206 C199 1.240 . S
O207 In195 2.326 . S
O207 C199 1.252 . S
In208 O209 2.294 . S
In208 O210 2.326 . S
In208 O214 2.266 . S
In208 O215 2.326 . S
In208 O216 2.266 . S
In208 O217 2.326 . S
In208 O219 2.294 . S
In208 O220 2.326 . S
O209 In208 2.294 . S
O209 C218 1.240 . S
O210 In208 2.326 . S
O210 C218 1.252 . S
C211 O214 1.252 . S
C211 O215 1.260 . S
C212 O219 1.240 . S
C212 O220 1.252 . S
C213 O216 1.252 . S
C213 O217 1.260 . S
O214 In208 2.266 . S
O214 C211 1.252 . S
O215 In208 2.326 . S
O215 C211 1.260 . S
O216 In208 2.266 . S
O216 C213 1.252 . S
O217 In208 2.326 . S
O217 C213 1.260 . S
C218 O209 1.240 . S
C218 O210 1.252 . S
O219 In208 2.294 . S
O219 C212 1.240 . S
O220 In208 2.326 . S
O220 C212 1.252 . S
In221 O222 2.294 . S
In221 O223 2.326 . S
In221 O227 2.266 . S
In221 O228 2.326 . S
In221 O229 2.266 . S
In221 O230 2.326 . S
In221 O232 2.294 . S
In221 O233 2.326 . S
O222 In221 2.294 . S
O222 C231 1.240 . S
O223 In221 2.326 . S
O223 C231 1.252 . S
C224 O227 1.252 . S
C224 O228 1.260 . S
C225 O232 1.240 . S
C225 O233 1.252 . S
C226 O229 1.252 . S
C226 O230 1.260 . S
O227 In221 2.266 . S
O227 C224 1.252 . S
O228 In221 2.326 . S
O228 C224 1.260 . S
O229 In221 2.266 . S
O229 C226 1.252 . S
O230 In221 2.326 . S
O230 C226 1.260 . S
C231 O222 1.240 . S
C231 O223 1.252 . S
O232 In221 2.294 . S
O232 C225 1.240 . S
O233 In221 2.326 . S
O233 C225 1.252 . S
In234 O235 2.294 . S
In234 O236 2.326 . S
In234 O240 2.266 . S
In234 O241 2.326 . S
In234 O242 2.266 . S
In234 O243 2.326 . S
In234 O245 2.294 . S
In234 O246 2.326 . S
O235 In234 2.294 . S
O235 C244 1.240 . S
O236 In234 2.326 . S
O236 C244 1.252 . S
C237 O240 1.252 . S
C237 O241 1.260 . S
C238 O245 1.240 . S
C238 O246 1.252 . S
C239 O242 1.252 . S
C239 O243 1.260 . S
O240 In234 2.266 . S
O240 C237 1.252 . S
O241 In234 2.326 . S
O241 C237 1.260 . S
O242 In234 2.266 . S
O242 C239 1.252 . S
O243 In234 2.326 . S
O243 C239 1.260 . S
C244 O235 1.240 . S
C244 O236 1.252 . S
O245 In234 2.294 . S
O245 C238 1.240 . S
O246 In234 2.326 . S
O246 C238 1.252 . S
In247 O248 2.294 1_545 S
In247 O249 2.326 1_545 S
In247 O253 2.266 . S
In247 O254 2.326 . S
In247 O255 2.266 . S
In247 O256 2.326 . S
In247 O258 2.294 . S
In247 O259 2.326 . S
O248 In247 2.294 1_565 S
O248 C257 1.240 . S
O249 In247 2.326 1_565 S
O249 C257 1.252 . S
C250 O253 1.252 . S
C250 O254 1.260 . S
C251 O258 1.240 . S
C251 O259 1.252 . S
C252 O255 1.252 . S
C252 O256 1.260 . S
O253 In247 2.266 . S
O253 C250 1.252 . S
O254 In247 2.326 . S
O254 C250 1.260 . S
O255 In247 2.266 . S
O255 C252 1.252 . S
O256 In247 2.326 . S
O256 C252 1.260 . S
C257 O248 1.240 . S
C257 O249 1.252 . S
O258 In247 2.294 . S
O258 C251 1.240 . S
O259 In247 2.326 . S
O259 C251 1.252 . S
In260 O261 2.294 . S
In260 O262 2.326 . S
In260 O266 2.266 . S
In260 O267 2.326 . S
In260 O268 2.266 1_554 S
In260 O269 2.326 1_554 S
In260 O271 2.294 . S
In260 O272 2.326 . S
O261 In260 2.294 . S
O261 C270 1.240 . S
O262 In260 2.326 . S
O262 C270 1.252 . S
C263 O266 1.252 . S
C263 O267 1.260 . S
C264 O271 1.240 . S
C264 O272 1.252 . S
C265 O268 1.252 . S
C265 O269 1.260 . S
O266 In260 2.266 . S
O266 C263 1.252 . S
O267 In260 2.326 . S
O267 C263 1.260 . S
O268 In260 2.266 1_556 S
O268 C265 1.252 . S
O269 In260 2.326 1_556 S
O269 C265 1.260 . S
C270 O261 1.240 . S
C270 O262 1.252 . S
O271 In260 2.294 . S
O271 C264 1.240 . S
O272 In260 2.326 . S
O272 C264 1.252 . S
In273 O274 2.294 . S
In273 O275 2.326 . S
In273 O279 2.266 . S
In273 O280 2.326 . S
In273 O281 2.266 . S
In273 O282 2.326 . S
In273 O284 2.294 . S
In273 O285 2.326 . S
O274 In273 2.294 . S
O274 C283 1.240 . S
O275 In273 2.326 . S
O275 C283 1.252 . S
C276 O279 1.252 . S
C276 O280 1.260 . S
C277 O284 1.240 . S
C277 O285 1.252 . S
C278 O281 1.252 . S
C278 O282 1.260 . S
O279 In273 2.266 . S
O279 C276 1.252 . S
O280 In273 2.326 . S
O280 C276 1.260 . S
O281 In273 2.266 . S
O281 C278 1.252 . S
O282 In273 2.326 . S
O282 C278 1.260 . S
C283 O274 1.240 . S
C283 O275 1.252 . S
O284 In273 2.294 . S
O284 C277 1.240 . S
O285 In273 2.326 . S
O285 C277 1.252 . S
In286 O287 2.294 . S
In286 O288 2.326 . S
In286 O292 2.266 . S
In286 O293 2.326 . S
In286 O294 2.266 . S
In286 O295 2.326 . S
In286 O297 2.294 . S
In286 O298 2.326 . S
O287 In286 2.294 . S
O287 C296 1.240 . S
O288 In286 2.326 . S
O288 C296 1.252 . S
C289 O292 1.252 . S
C289 O293 1.260 . S
C290 O297 1.240 . S
C290 O298 1.252 . S
C291 O294 1.252 . S
C291 O295 1.260 . S
O292 In286 2.266 . S
O292 C289 1.252 . S
O293 In286 2.326 . S
O293 C289 1.260 . S
O294 In286 2.266 . S
O294 C291 1.252 . S
O295 In286 2.326 . S
O295 C291 1.260 . S
C296 O287 1.240 . S
C296 O288 1.252 . S
O297 In286 2.294 . S
O297 C290 1.240 . S
O298 In286 2.326 . S
O298 C290 1.252 . S
In299 O300 2.294 . S
In299 O301 2.326 . S
In299 O305 2.266 . S
In299 O306 2.326 . S
In299 O307 2.266 . S
In299 O308 2.326 . S
In299 O310 2.294 . S
In299 O311 2.326 . S
O300 In299 2.294 . S
O300 C309 1.240 . S
O301 In299 2.326 . S
O301 C309 1.252 . S
C302 O305 1.252 . S
C302 O306 1.260 . S
C303 O310 1.240 . S
C303 O311 1.252 . S
C304 O307 1.252 . S
C304 O308 1.260 . S
O305 In299 2.266 . S
O305 C302 1.252 . S
O306 In299 2.326 . S
O306 C302 1.260 . S
O307 In299 2.266 . S
O307 C304 1.252 . S
O308 In299 2.326 . S
O308 C304 1.260 . S
C309 O300 1.240 . S
C309 O301 1.252 . S
O310 In299 2.294 . S
O310 C303 1.240 . S
O311 In299 2.326 . S
O311 C303 1.252 . S
Tb312 O315 2.453 . S
Tb312 O316 2.596 . S
Tb312 O317 2.374 . S
Tb312 O325 2.343 . S
Tb312 O327 2.353 . S
Tb312 O329 2.427 . S
Tb312 O330 2.513 . S
C313 O317 1.251 1_556 S
C313 O319 1.245 1_556 S
Tb314 O316 2.343 . S
Tb314 O319 2.398 . S
Tb314 O322 2.427 1_545 S
Tb314 O323 2.513 1_545 S
Tb314 O324 2.453 1_455 S
Tb314 O325 2.596 . S
Tb314 O326 2.374 . S
O315 Tb312 2.453 . S
O315 C331 1.245 . S
O316 Tb312 2.596 . S
O316 Tb314 2.343 . S
O316 C331 1.259 . S
O317 Tb312 2.374 . S
O317 C313 1.251 1_554 S
C318 O322 1.275 . S
C318 O323 1.246 . S
O319 C313 1.245 1_554 S
O319 Tb314 2.398 . S
C320 O324 1.245 . S
C320 O325 1.259 1_655 S
C321 O326 1.250 . S
C321 O327 1.263 . S
O322 Tb314 2.427 1_565 S
O322 C318 1.275 . S
O323 Tb314 2.513 1_565 S
O323 C318 1.246 . S
O324 Tb314 2.453 1_655 S
O324 C320 1.245 . S
O325 Tb312 2.343 . S
O325 Tb314 2.596 . S
O325 C320 1.259 1_455 S
O326 Tb314 2.374 . S
O326 C321 1.250 . S
O327 Tb312 2.353 . S
O327 C321 1.263 . S
C328 O329 1.275 . S
C328 O330 1.246 . S
O329 Tb312 2.427 . S
O329 C328 1.275 . S
O330 Tb312 2.513 . S
O330 C328 1.246 . S
C331 O315 1.245 . S
C331 O316 1.259 . S
Tb332 O335 2.453 . S
Tb332 O336 2.596 . S
Tb332 O337 2.374 . S
Tb332 O345 2.343 . S
Tb332 O347 2.353 . S
Tb332 O349 2.427 . S
Tb332 O350 2.513 . S
C333 O337 1.251 . S
C333 O339 1.263 . S
Tb334 O336 2.343 . S
Tb334 O339 2.353 . S
Tb334 O342 2.427 . S
Tb334 O343 2.513 . S
Tb334 O344 2.453 . S
Tb334 O345 2.596 . S
Tb334 O346 2.374 . S
O335 Tb332 2.453 . S
O335 C351 1.245 . S
O336 Tb332 2.596 . S
O336 Tb334 2.343 . S
O336 C351 1.259 . S
O337 Tb332 2.374 . S
O337 C333 1.251 . S
C338 O342 1.275 . S
C338 O343 1.246 . S
O339 C333 1.263 . S
O339 Tb334 2.353 . S
C340 O344 1.245 . S
C340 O345 1.259 . S
C341 O346 1.250 . S
C341 O347 1.263 . S
O342 Tb334 2.427 . S
O342 C338 1.275 . S
O343 Tb334 2.513 . S
O343 C338 1.246 . S
O344 Tb334 2.453 . S
O344 C340 1.245 . S
O345 Tb332 2.343 . S
O345 Tb334 2.596 . S
O345 C340 1.259 . S
O346 Tb334 2.374 . S
O346 C341 1.250 . S
O347 Tb332 2.353 . S
O347 C341 1.263 . S
C348 O349 1.275 . S
C348 O350 1.246 . S
O349 Tb332 2.427 . S
O349 C348 1.275 . S
O350 Tb332 2.513 . S
O350 C348 1.246 . S
C351 O335 1.245 . S
C351 O336 1.259 . S
Tb352 O355 2.453 . S
Tb352 O356 2.596 . S
Tb352 O357 2.374 . S
Tb352 O365 2.343 1_545 S
Tb352 O367 2.353 . S
Tb352 O369 2.427 . S
Tb352 O370 2.513 1_545 S
C353 O357 1.251 . S
C353 O359 1.263 . S
Tb354 O356 2.343 . S
Tb354 O359 2.353 . S
Tb354 O362 2.427 . S
Tb354 O363 2.513 . S
Tb354 O364 2.453 1_545 S
Tb354 O365 2.596 1_545 S
Tb354 O366 2.374 . S
O355 Tb352 2.453 . S
O355 C371 1.245 . S
O356 Tb352 2.596 . S
O356 Tb354 2.343 . S
O356 C371 1.259 . S
O357 Tb352 2.374 . S
O357 C353 1.251 . S
C358 O362 1.275 . S
C358 O363 1.246 . S
O359 C353 1.263 . S
O359 Tb354 2.353 . S
C360 O364 1.245 . S
C360 O365 1.259 . S
C361 O366 1.250 . S
C361 O367 1.263 . S
O362 Tb354 2.427 . S
O362 C358 1.275 . S
O363 Tb354 2.513 . S
O363 C358 1.246 . S
O364 Tb354 2.453 1_565 S
O364 C360 1.245 . S
O365 Tb352 2.343 1_565 S
O365 Tb354 2.596 1_565 S
O365 C360 1.259 . S
O366 Tb354 2.374 . S
O366 C361 1.250 . S
O367 Tb352 2.353 . S
O367 C361 1.263 . S
C368 O369 1.275 1_565 S
C368 O370 1.246 . S
O369 Tb352 2.427 . S
O369 C368 1.275 1_545 S
O370 Tb352 2.513 1_565 S
O370 C368 1.246 . S
C371 O355 1.245 . S
C371 O356 1.259 . S
Tb372 O375 2.453 . S
Tb372 O376 2.596 . S
Tb372 O377 2.374 . S
Tb372 O385 2.343 . S
Tb372 O387 2.353 . S
Tb372 O389 2.427 . S
Tb372 O390 2.513 . S
C373 O377 1.251 . S
C373 O379 1.263 . S
Tb374 O376 2.343 . S
Tb374 O379 2.353 . S
Tb374 O382 2.427 . S
Tb374 O383 2.513 . S
Tb374 O384 2.453 . S
Tb374 O385 2.596 . S
Tb374 O386 2.374 . S
O375 Tb372 2.453 . S
O375 C391 1.245 . S
O376 Tb372 2.596 . S
O376 Tb374 2.343 . S
O376 C391 1.259 . S
O377 Tb372 2.374 . S
O377 C373 1.251 . S
C378 O382 1.275 . S
C378 O383 1.246 . S
O379 C373 1.263 . S
O379 Tb374 2.353 . S
C380 O384 1.245 . S
C380 O385 1.259 . S
C381 O386 1.250 . S
C381 O387 1.263 . S
O382 Tb374 2.427 . S
O382 C378 1.275 . S
O383 Tb374 2.513 . S
O383 C378 1.246 . S
O384 Tb374 2.453 . S
O384 C380 1.245 . S
O385 Tb372 2.343 . S
O385 Tb374 2.596 . S
O385 C380 1.259 . S
O386 Tb374 2.374 . S
O386 C381 1.250 . S
O387 Tb372 2.353 . S
O387 C381 1.263 . S
C388 O389 1.275 . S
C388 O390 1.246 . S
O389 Tb372 2.427 . S
O389 C388 1.275 . S
O390 Tb372 2.513 . S
O390 C388 1.246 . S
C391 O375 1.245 . S
C391 O376 1.259 . S
Tb392 O395 2.453 1_545 S
Tb392 O396 2.596 . S
Tb392 O397 2.374 1_445 S
Tb392 O405 2.343 . S
Tb392 O407 2.353 . S
Tb392 O409 2.427 . S
Tb392 O410 2.513 1_455 S
C393 O397 1.251 1_545 S
C393 O399 1.263 . S
Tb394 O396 2.343 . S
Tb394 O399 2.353 1_455 S
Tb394 O402 2.427 . S
Tb394 O403 2.513 . S
Tb394 O404 2.453 . S
Tb394 O405 2.596 . S
Tb394 O406 2.374 . S
O395 Tb392 2.453 1_565 S
O395 C411 1.245 . S
O396 Tb392 2.596 . S
O396 Tb394 2.343 . S
O396 C411 1.259 1_545 S
O397 Tb392 2.374 1_665 S
O397 C393 1.251 1_565 S
C398 O402 1.275 . S
C398 O403 1.246 . S
O399 C393 1.263 . S
O399 Tb394 2.353 1_655 S
C400 O404 1.245 . S
C400 O405 1.259 . S
C401 O406 1.250 . S
C401 O407 1.263 . S
O402 Tb394 2.427 . S
O402 C398 1.275 . S
O403 Tb394 2.513 . S
O403 C398 1.246 . S
O404 Tb394 2.453 . S
O404 C400 1.245 . S
O405 Tb392 2.343 . S
O405 Tb394 2.596 . S
O405 C400 1.259 . S
O406 Tb394 2.374 . S
O406 C401 1.250 . S
O407 Tb392 2.353 . S
O407 C401 1.263 . S
C408 O409 1.275 . S
C408 O410 1.246 1_455 S
O409 Tb392 2.427 . S
O409 C408 1.275 . S
O410 Tb392 2.513 1_655 S
O410 C408 1.246 1_655 S
C411 O395 1.245 . S
C411 O396 1.259 1_565 S
Tb412 O415 2.453 . S
Tb412 O416 2.596 . S
Tb412 O417 2.374 . S
Tb412 O425 2.343 . S
Tb412 O427 2.353 . S
Tb412 O429 2.427 . S
Tb412 O430 2.513 . S
C413 O417 1.251 . S
C413 O419 1.263 . S
Tb414 O416 2.343 . S
Tb414 O419 2.353 . S
Tb414 O422 2.427 . S
Tb414 O423 2.513 . S
Tb414 O424 2.453 . S
Tb414 O425 2.596 . S
Tb414 O426 2.374 . S
O415 Tb412 2.453 . S
O415 C431 1.245 . S
O416 Tb412 2.596 . S
O416 Tb414 2.343 . S
O416 C431 1.259 . S
O417 Tb412 2.374 . S
O417 C413 1.251 . S
C418 O422 1.275 . S
C418 O423 1.246 . S
O419 C413 1.263 . S
O419 Tb414 2.353 . S
C420 O424 1.245 . S
C420 O425 1.259 . S
C421 O426 1.250 . S
C421 O427 1.263 . S
O422 Tb414 2.427 . S
O422 C418 1.275 . S
O423 Tb414 2.513 . S
O423 C418 1.246 . S
O424 Tb414 2.453 . S
O424 C420 1.245 . S
O425 Tb412 2.343 . S
O425 Tb414 2.596 . S
O425 C420 1.259 . S
O426 Tb414 2.374 . S
O426 C421 1.250 . S
O427 Tb412 2.353 . S
O427 C421 1.263 . S
C428 O429 1.275 . S
C428 O430 1.246 . S
O429 Tb412 2.427 . S
O429 C428 1.275 . S
O430 Tb412 2.513 . S
O430 C428 1.246 . S
C431 O415 1.245 . S
C431 O416 1.259 . S
Tb432 O435 2.453 . S
Tb432 O436 2.596 . S
Tb432 O437 2.374 . S
Tb432 O445 2.343 1_556 S
Tb432 O447 2.353 1_556 S
Tb432 O449 2.427 1_556 S
Tb432 O450 2.513 1_556 S
C433 O437 1.251 1_565 S
C433 O439 1.263 1_566 S
Tb434 O436 2.343 1_554 S
Tb434 O439 2.353 . S
Tb434 O442 2.427 . S
Tb434 O443 2.513 . S
Tb434 O444 2.453 . S
Tb434 O445 2.596 . S
Tb434 O446 2.374 . S
O435 Tb432 2.453 . S
O435 C451 1.245 . S
O436 Tb432 2.596 . S
O436 Tb434 2.343 1_556 S
O436 C451 1.259 . S
O437 Tb432 2.374 . S
O437 C433 1.251 1_545 S
C438 O442 1.275 . S
C438 O443 1.246 . S
O439 C433 1.263 1_544 S
O439 Tb434 2.353 . S
C440 O444 1.245 . S
C440 O445 1.259 . S
C441 O446 1.250 . S
C441 O447 1.263 . S
O442 Tb434 2.427 . S
O442 C438 1.275 . S
O443 Tb434 2.513 . S
O443 C438 1.246 . S
O444 Tb434 2.453 . S
O444 C440 1.245 . S
O445 Tb432 2.343 1_554 S
O445 Tb434 2.596 . S
O445 C440 1.259 . S
O446 Tb434 2.374 . S
O446 C441 1.250 . S
O447 Tb432 2.353 1_554 S
O447 C441 1.263 . S
C448 O449 1.275 . S
C448 O450 1.246 . S
O449 Tb432 2.427 1_554 S
O449 C448 1.275 . S
O450 Tb432 2.513 1_554 S
O450 C448 1.246 . S
C451 O435 1.245 . S
C451 O436 1.259 . S
Tb452 O455 2.453 . S
Tb452 O456 2.596 . S
Tb452 O457 2.374 . S
Tb452 O465 2.343 . S
Tb452 O467 2.353 . S
Tb452 O469 2.427 . S
Tb452 O470 2.513 . S
C453 O457 1.251 . S
C453 O459 1.263 . S
Tb454 O456 2.343 . S
Tb454 O459 2.353 . S
Tb454 O462 2.427 . S
Tb454 O463 2.513 . S
Tb454 O464 2.453 . S
Tb454 O465 2.596 . S
Tb454 O466 2.374 . S
O455 Tb452 2.453 . S
O455 C471 1.245 . S
O456 Tb452 2.596 . S
O456 Tb454 2.343 . S
O456 C471 1.259 . S
O457 Tb452 2.374 . S
O457 C453 1.251 . S
C458 O462 1.275 . S
C458 O463 1.246 . S
O459 C453 1.263 . S
O459 Tb454 2.353 . S
C460 O464 1.245 . S
C460 O465 1.259 . S
C461 O466 1.250 . S
C461 O467 1.263 . S
O462 Tb454 2.427 . S
O462 C458 1.275 . S
O463 Tb454 2.513 . S
O463 C458 1.246 . S
O464 Tb454 2.453 . S
O464 C460 1.245 . S
O465 Tb452 2.343 . S
O465 Tb454 2.596 . S
O465 C460 1.259 . S
O466 Tb454 2.374 . S
O466 C461 1.250 . S
O467 Tb452 2.353 . S
O467 C461 1.263 . S
C468 O469 1.275 . S
C468 O470 1.246 . S
O469 Tb452 2.427 . S
O469 C468 1.275 . S
O470 Tb452 2.513 . S
O470 C468 1.246 . S
C471 O455 1.245 . S
C471 O456 1.259 . S
Tb472 O475 2.453 1_556 S
Tb472 O476 2.596 1_556 S
Tb472 O477 2.374 . S
Tb472 O485 2.343 . S
Tb472 O487 2.353 . S
Tb472 O489 2.427 . S
Tb472 O490 2.513 . S
C473 O477 1.251 1_554 S
C473 O479 1.263 . S
Tb474 O476 2.343 . S
Tb474 O479 2.353 . S
Tb474 O482 2.427 . S
Tb474 O483 2.513 . S
Tb474 O484 2.453 . S
Tb474 O485 2.596 1_554 S
Tb474 O486 2.374 . S
O475 Tb472 2.453 1_554 S
O475 C491 1.245 . S
O476 Tb472 2.596 1_554 S
O476 Tb474 2.343 . S
O476 C491 1.259 . S
O477 Tb472 2.374 . S
O477 C473 1.251 1_556 S
C478 O482 1.275 . S
C478 O483 1.246 . S
O479 C473 1.263 . S
O479 Tb474 2.353 . S
C480 O484 1.245 1_556 S
C480 O485 1.259 . S
C481 O486 1.250 . S
C481 O487 1.263 1_554 S
O482 Tb474 2.427 . S
O482 C478 1.275 . S
O483 Tb474 2.513 . S
O483 C478 1.246 . S
O484 Tb474 2.453 . S
O484 C480 1.245 1_554 S
O485 Tb472 2.343 . S
O485 Tb474 2.596 1_556 S
O485 C480 1.259 . S
O486 Tb474 2.374 . S
O486 C481 1.250 . S
O487 Tb472 2.353 . S
O487 C481 1.263 1_556 S
C488 O489 1.275 . S
C488 O490 1.246 . S
O489 Tb472 2.427 . S
O489 C488 1.275 . S
O490 Tb472 2.513 . S
O490 C488 1.246 . S
C491 O475 1.245 . S
C491 O476 1.259 . S
Tb492 O495 2.453 . S
Tb492 O496 2.596 . S
Tb492 O497 2.374 . S
Tb492 O505 2.343 . S
Tb492 O507 2.353 . S
Tb492 O509 2.427 . S
Tb492 O510 2.513 . S
C493 O497 1.251 . S
C493 O499 1.263 . S
Tb494 O496 2.343 . S
Tb494 O499 2.353 . S
Tb494 O502 2.427 . S
Tb494 O503 2.513 . S
Tb494 O504 2.453 . S
Tb494 O505 2.596 . S
Tb494 O506 2.374 . S
O495 Tb492 2.453 . S
O495 C511 1.245 . S
O496 Tb492 2.596 . S
O496 Tb494 2.343 . S
O496 C511 1.259 . S
O497 Tb492 2.374 . S
O497 C493 1.251 . S
C498 O502 1.275 . S
C498 O503 1.246 . S
O499 C493 1.263 . S
O499 Tb494 2.353 . S
C500 O504 1.245 . S
C500 O505 1.259 . S
C501 O506 1.250 . S
C501 O507 1.263 . S
O502 Tb494 2.427 . S
O502 C498 1.275 . S
O503 Tb494 2.513 . S
O503 C498 1.246 . S
O504 Tb494 2.453 . S
O504 C500 1.245 . S
O505 Tb492 2.343 . S
O505 Tb494 2.596 . S
O505 C500 1.259 . S
O506 Tb494 2.374 . S
O506 C501 1.250 . S
O507 Tb492 2.353 . S
O507 C501 1.263 . S
C508 O509 1.275 . S
C508 O510 1.246 . S
O509 Tb492 2.427 . S
O509 C508 1.275 . S
O510 Tb492 2.513 . S
O510 C508 1.246 . S
C511 O495 1.245 . S
C511 O496 1.259 . S
Tb512 O515 2.453 . S
Tb512 O516 2.596 1_655 S
Tb512 O517 2.374 . S
Tb512 O525 2.343 . S
Tb512 O527 2.353 . S
Tb512 O529 2.427 . S
Tb512 O530 2.513 . S
C513 O517 1.251 1_455 S
C513 O519 1.263 . S
Tb514 O516 2.343 . S
Tb514 O519 2.353 . S
Tb514 O522 2.427 . S
Tb514 O523 2.513 . S
Tb514 O524 2.453 . S
Tb514 O525 2.596 1_455 S
Tb514 O526 2.374 . S
O515 Tb512 2.453 . S
O515 C531 1.245 1_655 S
O516 Tb512 2.596 1_455 S
O516 Tb514 2.343 . S
O516 C531 1.259 . S
O517 Tb512 2.374 . S
O517 C513 1.251 1_655 S
C518 O522 1.275 . S
C518 O523 1.246 . S
O519 C513 1.263 . S
O519 Tb514 2.353 . S
C520 O524 1.245 1_655 S
C520 O525 1.259 . S
C521 O526 1.240 1_655 S
C521 O527 1.269 . S
O522 Tb514 2.427 . S
O522 C518 1.275 . S
O523 Tb514 2.513 . S
O523 C518 1.246 . S
O524 Tb514 2.453 . S
O524 C520 1.245 1_455 S
O525 Tb512 2.343 . S
O525 Tb514 2.596 1_655 S
O525 C520 1.259 . S
O526 Tb514 2.374 . S
O526 C521 1.240 1_455 S
O527 Tb512 2.353 . S
O527 C521 1.269 . S
C528 O529 1.275 . S
C528 O530 1.246 . S
O529 Tb512 2.427 . S
O529 C528 1.275 . S
O530 Tb512 2.513 . S
O530 C528 1.246 . S
C531 O515 1.245 1_455 S
C531 O516 1.259 . S
Tb532 O535 2.453 . S
Tb532 O536 2.596 . S
Tb532 O537 2.374 . S
Tb532 O545 2.343 . S
Tb532 O547 2.353 . S
Tb532 O549 2.427 . S
Tb532 O550 2.513 . S
C533 O537 1.251 . S
C533 O539 1.263 . S
Tb534 O536 2.343 . S
Tb534 O539 2.353 . S
Tb534 O542 2.427 . S
Tb534 O543 2.513 . S
Tb534 O544 2.453 . S
Tb534 O545 2.596 . S
Tb534 O546 2.374 . S
O535 Tb532 2.453 . S
O535 C551 1.245 . S
O536 Tb532 2.596 . S
O536 Tb534 2.343 . S
O536 C551 1.259 . S
O537 Tb532 2.374 . S
O537 C533 1.251 . S
C538 O542 1.275 . S
C538 O543 1.246 . S
O539 C533 1.263 . S
O539 Tb534 2.353 . S
C540 O544 1.245 . S
C540 O545 1.259 . S
C541 O546 1.250 . S
C541 O547 1.263 . S
O542 Tb534 2.427 . S
O542 C538 1.275 . S
O543 Tb534 2.513 . S
O543 C538 1.246 . S
O544 Tb534 2.453 . S
O544 C540 1.245 . S
O545 Tb532 2.343 . S
O545 Tb534 2.596 . S
O545 C540 1.259 . S
O546 Tb534 2.374 . S
O546 C541 1.250 . S
O547 Tb532 2.353 . S
O547 C541 1.263 . S
C548 O549 1.275 . S
C548 O550 1.246 . S
O549 Tb532 2.427 . S
O549 C548 1.275 . S
O550 Tb532 2.513 . S
O550 C548 1.246 . S
C551 O535 1.245 . S
C551 O536 1.259 . S
Tb552 O555 2.453 . S
Tb552 O556 2.596 . S
Tb552 O557 2.374 . S
Tb552 O565 2.343 . S
Tb552 O567 2.353 . S
Tb552 O569 2.427 . S
Tb552 O570 2.513 . S
C553 O557 1.251 . S
C553 O559 1.263 . S
Tb554 O556 2.343 . S
Tb554 O559 2.353 . S
Tb554 O562 2.427 . S
Tb554 O563 2.513 . S
Tb554 O564 2.453 . S
Tb554 O565 2.596 . S
Tb554 O566 2.374 . S
O555 Tb552 2.453 . S
O555 C571 1.245 . S
O556 Tb552 2.596 . S
O556 Tb554 2.343 . S
O556 C571 1.259 . S
O557 Tb552 2.374 . S
O557 C553 1.251 . S
C558 O562 1.275 . S
C558 O563 1.246 . S
O559 C553 1.263 . S
O559 Tb554 2.353 . S
C560 O564 1.245 . S
C560 O565 1.259 . S
C561 O566 1.250 . S
C561 O567 1.263 . S
O562 Tb554 2.427 . S
O562 C558 1.275 . S
O563 Tb554 2.513 . S
O563 C558 1.246 . S
O564 Tb554 2.453 . S
O564 C560 1.245 . S
O565 Tb552 2.343 . S
O565 Tb554 2.596 . S
O565 C560 1.259 . S
O566 Tb554 2.374 . S
O566 C561 1.250 . S
O567 Tb552 2.353 . S
O567 C561 1.263 . S
C568 O569 1.275 . S
C568 O570 1.246 . S
O569 Tb552 2.427 . S
O569 C568 1.275 . S
O570 Tb552 2.513 . S
O570 C568 1.246 . S
C571 O555 1.245 . S
C571 O556 1.259 . S
Tb572 O575 2.453 . S
Tb572 O576 2.596 . S
Tb572 O577 2.374 . S
Tb572 O585 2.343 . S
Tb572 O587 2.353 . S
Tb572 O589 2.427 . S
Tb572 O590 2.513 . S
C573 O577 1.251 . S
C573 O579 1.263 . S
Tb574 O576 2.343 . S
Tb574 O579 2.353 . S
Tb574 O582 2.427 . S
Tb574 O583 2.513 . S
Tb574 O584 2.453 . S
Tb574 O585 2.596 . S
Tb574 O586 2.374 . S
O575 Tb572 2.453 . S
O575 C591 1.245 . S
O576 Tb572 2.596 . S
O576 Tb574 2.343 . S
O576 C591 1.259 . S
O577 Tb572 2.374 . S
O577 C573 1.251 . S
C578 O582 1.275 . S
C578 O583 1.246 . S
O579 C573 1.263 . S
O579 Tb574 2.353 . S
C580 O584 1.245 . S
C580 O585 1.259 . S
C581 O586 1.250 . S
C581 O587 1.263 . S
O582 Tb574 2.427 . S
O582 C578 1.275 . S
O583 Tb574 2.513 . S
O583 C578 1.246 . S
O584 Tb574 2.453 . S
O584 C580 1.245 . S
O585 Tb572 2.343 . S
O585 Tb574 2.596 . S
O585 C580 1.259 . S
O586 Tb574 2.374 . S
O586 C581 1.250 . S
O587 Tb572 2.353 . S
O587 C581 1.263 . S
C588 O589 1.275 . S
C588 O590 1.246 . S
O589 Tb572 2.427 . S
O589 C588 1.275 . S
O590 Tb572 2.513 . S
O590 C588 1.246 . S
C591 O575 1.245 . S
C591 O576 1.259 . S
Tb592 O595 2.453 . S
Tb592 O596 2.596 . S
Tb592 O597 2.374 . S
Tb592 O605 2.343 . S
Tb592 O607 2.353 . S
Tb592 O609 2.427 . S
Tb592 O610 2.513 . S
C593 O597 1.251 . S
C593 O599 1.263 . S
Tb594 O596 2.343 . S
Tb594 O599 2.353 . S
Tb594 O602 2.427 . S
Tb594 O603 2.513 . S
Tb594 O604 2.453 . S
Tb594 O605 2.596 . S
Tb594 O606 2.374 . S
O595 Tb592 2.453 . S
O595 C611 1.245 . S
O596 Tb592 2.596 . S
O596 Tb594 2.343 . S
O596 C611 1.259 . S
O597 Tb592 2.374 . S
O597 C593 1.251 . S
C598 O602 1.275 . S
C598 O603 1.246 . S
O599 C593 1.263 . S
O599 Tb594 2.353 . S
C600 O604 1.245 . S
C600 O605 1.259 . S
C601 O606 1.250 . S
C601 O607 1.263 . S
O602 Tb594 2.427 . S
O602 C598 1.275 . S
O603 Tb594 2.513 . S
O603 C598 1.246 . S
O604 Tb594 2.453 . S
O604 C600 1.245 . S
O605 Tb592 2.343 . S
O605 Tb594 2.596 . S
O605 C600 1.259 . S
O606 Tb594 2.374 . S
O606 C601 1.250 . S
O607 Tb592 2.353 . S
O607 C601 1.263 . S
C608 O609 1.275 . S
C608 O610 1.246 . S
O609 Tb592 2.427 . S
O609 C608 1.275 . S
O610 Tb592 2.513 . S
O610 C608 1.246 . S
C611 O595 1.245 . S
C611 O596 1.259 . S
Tb612 O615 2.453 . S
Tb612 O616 2.596 1_455 S
Tb612 O617 2.374 . S
Tb612 O625 2.343 . S
Tb612 O627 2.353 1_554 S
Tb612 O629 2.440 . S
Tb612 O630 2.513 . S
C613 O617 1.251 . S
C613 O619 1.263 1_455 S
Tb614 O616 2.343 . S
Tb614 O619 2.353 . S
Tb614 O622 2.427 . S
Tb614 O623 2.513 . S
Tb614 O624 2.453 . S
Tb614 O625 2.596 1_655 S
Tb614 O626 2.374 1_554 S
O615 Tb612 2.453 . S
O615 C631 1.245 . S
O616 Tb612 2.596 1_655 S
O616 Tb614 2.343 . S
O616 C631 1.259 1_655 S
O617 Tb612 2.374 . S
O617 C613 1.251 . S
C618 O622 1.275 . S
C618 O623 1.246 . S
O619 C613 1.263 1_655 S
O619 Tb614 2.353 . S
C620 O624 1.245 . S
C620 O625 1.259 1_655 S
C621 O626 1.250 . S
C621 O627 1.263 1_655 S
O622 Tb614 2.427 . S
O622 C618 1.275 . S
O623 Tb614 2.513 . S
O623 C618 1.246 . S
O624 Tb614 2.453 . S
O624 C620 1.245 . S
O625 Tb612 2.343 . S
O625 Tb614 2.596 1_455 S
O625 C620 1.259 1_455 S
O626 Tb614 2.374 1_556 S
O626 C621 1.250 . S
O627 Tb612 2.353 1_556 S
O627 C621 1.263 1_455 S
C628 O629 1.288 . S
C628 O630 1.246 . S
O629 Tb612 2.440 . S
O629 C628 1.288 . S
O630 Tb612 2.513 . S
O630 C628 1.246 . S
C631 O615 1.245 . S
C631 O616 1.259 1_455 S
H632 C640 0.929 . S
H633 C642 0.930 . S
H634 C644 0.930 1_655 S
H635 C647 0.929 1_655 S
H636 C650 0.930 . S
H637 C652 0.960 . S
H638 C652 0.960 . S
H639 C652 0.960 1_655 S
C640 H632 0.929 . S
C640 C641 1.377 . S
C640 C642 1.384 . S
C641 C640 1.377 . S
C641 C647 1.390 . S
C642 H633 0.930 . S
C642 C640 1.384 . S
C642 C643 1.372 . S
C643 C642 1.372 . S
C643 C644 1.400 . S
C643 C648 1.490 . S
C644 H634 0.930 1_455 S
C644 C643 1.400 . S
C644 C647 1.386 . S
H645 C661 0.903 1_655 S
H646 C662 0.931 1_655 S
C647 H635 0.929 1_455 S
C647 C641 1.390 . S
C647 C644 1.386 . S
C648 C643 1.490 . S
C648 C650 1.395 . S
C648 C651 1.403 . S
H649 C655 0.930 . S
C650 H636 0.930 . S
C650 C648 1.395 . S
C650 C653 1.403 . S
C651 C648 1.403 . S
C651 C652 1.524 . S
C651 C655 1.400 . S
C652 H637 0.960 . S
C652 H638 0.960 . S
C652 H639 0.960 1_455 S
C652 C651 1.524 . S
C653 C650 1.403 . S
C653 C654 1.392 . S
C653 C657 1.495 1_556 S
C654 C653 1.392 . S
C654 C655 1.385 . S
C654 C656 1.478 . S
C655 H649 0.930 . S
C655 C651 1.400 . S
C655 C654 1.385 . S
C656 C654 1.478 . S
C656 C658 1.385 . S
C656 C662 1.383 . S
C657 C653 1.495 1_554 S
C657 H663 0.959 . S
C657 H664 0.961 . S
C657 H665 0.960 . S
C658 C656 1.385 . S
C658 C659 1.387 1_556 S
C658 H666 0.934 . S
C659 C658 1.387 1_554 S
C659 C660 1.383 . S
C659 H667 0.929 . S
C660 C659 1.383 . S
C660 C661 1.377 . S
C661 H645 0.903 1_455 S
C661 C660 1.377 . S
C661 C662 1.379 1_554 S
C662 H646 0.931 1_455 S
C662 C656 1.383 . S
C662 C661 1.379 1_556 S
H663 C657 0.959 . S
H664 C657 0.961 . S
H665 C657 0.960 . S
H666 C658 0.934 . S
H667 C659 0.929 . S
H668 C676 0.929 . S
H669 C678 0.930 . S
H670 C680 0.930 . S
H671 C683 0.929 . S
H672 C686 0.930 . S
H673 C688 0.960 . S
H674 C688 0.960 . S
H675 C688 0.960 . S
C676 H668 0.929 . S
C676 C677 1.377 . S
C676 C678 1.384 . S
C677 C676 1.377 . S
C677 C683 1.390 . S
C678 H669 0.930 . S
C678 C676 1.384 . S
C678 C679 1.372 . S
C679 C678 1.372 . S
C679 C680 1.400 . S
C679 C684 1.490 . S
C680 H670 0.930 . S
C680 C679 1.400 . S
C680 C683 1.386 . S
H681 C697 0.930 . S
H682 C698 0.931 . S
C683 H671 0.929 . S
C683 C677 1.390 . S
C683 C680 1.386 . S
C684 C679 1.490 . S
C684 C686 1.395 . S
C684 C687 1.403 . S
H685 C691 0.930 . S
C686 H672 0.930 . S
C686 C684 1.395 . S
C686 C689 1.403 . S
C687 C684 1.403 . S
C687 C688 1.524 . S
C687 C691 1.400 . S
C688 H673 0.960 . S
C688 H674 0.960 . S
C688 H675 0.960 . S
C688 C687 1.524 . S
C689 C686 1.403 . S
C689 C690 1.392 . S
C689 C693 1.495 . S
C690 C689 1.392 . S
C690 C691 1.385 . S
C690 C692 1.478 . S
C691 H685 0.930 . S
C691 C687 1.400 . S
C691 C690 1.385 . S
C692 C690 1.478 . S
C692 C694 1.381 . S
C692 C698 1.383 . S
C693 C689 1.495 . S
C693 H699 0.959 . S
C693 H700 0.961 . S
C693 H701 0.960 . S
C694 C692 1.381 . S
C694 C695 1.394 . S
C694 H702 0.930 . S
C695 C694 1.394 . S
C695 C696 1.383 . S
C695 H703 0.929 . S
C696 C695 1.383 . S
C696 C697 1.377 . S
C697 H681 0.930 . S
C697 C696 1.377 . S
C697 C698 1.379 . S
C698 H682 0.931 . S
C698 C692 1.383 . S
C698 C697 1.379 . S
H699 C693 0.959 . S
H700 C693 0.961 . S
H701 C693 0.960 . S
H702 C694 0.930 . S
H703 C695 0.929 . S
H704 C712 0.929 . S
H705 C714 0.930 . S
H706 C716 0.930 . S
H707 C719 0.929 . S
H708 C722 0.930 . S
H709 C724 0.960 . S
H710 C724 0.960 . S
H711 C724 0.960 . S
C712 H704 0.929 . S
C712 C713 1.377 . S
C712 C714 1.384 . S
C713 C712 1.377 . S
C713 C719 1.390 . S
C714 H705 0.930 . S
C714 C712 1.384 . S
C714 C715 1.372 . S
C715 C714 1.372 . S
C715 C716 1.400 . S
C715 C720 1.490 . S
C716 H706 0.930 . S
C716 C715 1.400 . S
C716 C719 1.386 . S
H717 C733 0.930 . S
H718 C734 0.931 . S
C719 H707 0.929 . S
C719 C713 1.390 . S
C719 C716 1.386 . S
C720 C715 1.490 . S
C720 C722 1.395 . S
C720 C723 1.403 . S
H721 C727 0.930 . S
C722 H708 0.930 . S
C722 C720 1.395 . S
C722 C725 1.403 . S
C723 C720 1.403 . S
C723 C724 1.524 . S
C723 C727 1.400 . S
C724 H709 0.960 . S
C724 H710 0.960 . S
C724 H711 0.960 . S
C724 C723 1.524 . S
C725 C722 1.403 . S
C725 C726 1.392 . S
C725 C729 1.495 . S
C726 C725 1.392 . S
C726 C727 1.385 . S
C726 C728 1.478 . S
C727 H721 0.930 . S
C727 C723 1.400 . S
C727 C726 1.385 . S
C728 C726 1.478 . S
C728 C730 1.381 . S
C728 C734 1.383 . S
C729 C725 1.495 . S
C729 H735 0.959 . S
C729 H736 0.961 . S
C729 H737 0.960 . S
C730 C728 1.381 . S
C730 C731 1.394 . S
C730 H738 0.930 . S
C731 C730 1.394 . S
C731 C732 1.383 . S
C731 H739 0.929 . S
C732 C731 1.383 . S
C732 C733 1.377 . S
C733 H717 0.930 . S
C733 C732 1.377 . S
C733 C734 1.379 . S
C734 H718 0.931 . S
C734 C728 1.383 . S
C734 C733 1.379 . S
H735 C729 0.959 . S
H736 C729 0.961 . S
H737 C729 0.960 . S
H738 C730 0.930 . S
H739 C731 0.929 . S
H740 C748 0.929 . S
H741 C750 0.930 . S
H742 C752 0.930 . S
H743 C755 0.929 . S
H744 C758 0.930 . S
H745 C760 0.960 . S
H746 C760 0.960 . S
H747 C760 0.960 . S
C748 H740 0.929 . S
C748 C749 1.377 . S
C748 C750 1.384 . S
C749 C748 1.377 . S
C749 C755 1.390 . S
C750 H741 0.930 . S
C750 C748 1.384 . S
C750 C751 1.372 . S
C751 C750 1.372 . S
C751 C752 1.400 . S
C751 C756 1.490 . S
C752 H742 0.930 . S
C752 C751 1.400 . S
C752 C755 1.386 . S
H753 C769 0.930 . S
H754 C770 0.931 . S
C755 H743 0.929 . S
C755 C749 1.390 . S
C755 C752 1.386 . S
C756 C751 1.490 . S
C756 C758 1.395 . S
C756 C759 1.403 . S
H757 C763 0.930 . S
C758 H744 0.930 . S
C758 C756 1.395 . S
C758 C761 1.403 . S
C759 C756 1.403 . S
C759 C760 1.524 . S
C759 C763 1.400 . S
C760 H745 0.960 . S
C760 H746 0.960 . S
C760 H747 0.960 . S
C760 C759 1.524 . S
C761 C758 1.403 . S
C761 C762 1.392 . S
C761 C765 1.495 . S
C762 C761 1.392 . S
C762 C763 1.385 . S
C762 C764 1.478 . S
C763 H757 0.930 . S
C763 C759 1.400 . S
C763 C762 1.385 . S
C764 C762 1.478 . S
C764 C766 1.381 . S
C764 C770 1.383 . S
C765 C761 1.495 . S
C765 H771 0.959 . S
C765 H772 0.961 . S
C765 H773 0.960 . S
C766 C764 1.381 . S
C766 C767 1.394 . S
C766 H774 0.930 . S
C767 C766 1.394 . S
C767 C768 1.383 . S
C767 H775 0.929 . S
C768 C767 1.383 . S
C768 C769 1.377 . S
C769 H753 0.930 . S
C769 C768 1.377 . S
C769 C770 1.379 . S
C770 H754 0.931 . S
C770 C764 1.383 . S
C770 C769 1.379 . S
H771 C765 0.959 . S
H772 C765 0.961 . S
H773 C765 0.960 . S
H774 C766 0.930 . S
H775 C767 0.929 . S
H776 C784 0.929 . S
H777 C786 0.930 . S
H778 C788 0.930 . S
H779 C791 0.929 . S
H780 C794 0.930 . S
H781 C796 0.960 1_655 S
H782 C796 0.960 . S
H783 C796 0.960 1_655 S
C784 H776 0.929 . S
C784 C785 1.377 . S
C784 C786 1.384 . S
C785 C784 1.377 . S
C785 C791 1.390 1_455 S
C786 H777 0.930 . S
C786 C784 1.384 . S
C786 C787 1.372 . S
C787 C786 1.372 . S
C787 C788 1.400 1_455 S
C787 C792 1.490 . S
C788 H778 0.930 . S
C788 C787 1.400 1_655 S
C788 C791 1.386 . S
H789 C805 0.930 1_655 S
H790 C806 0.931 1_655 S
C791 H779 0.929 . S
C791 C785 1.390 1_655 S
C791 C788 1.386 . S
C792 C787 1.490 . S
C792 C794 1.395 . S
C792 C795 1.403 . S
H793 C799 0.930 . S
C794 H780 0.930 . S
C794 C792 1.395 . S
C794 C797 1.403 . S
C795 C792 1.403 . S
C795 C796 1.524 . S
C795 C799 1.400 . S
C796 H781 0.960 1_455 S
C796 H782 0.960 . S
C796 H783 0.960 1_455 S
C796 C795 1.524 . S
C797 C794 1.403 . S
C797 C798 1.392 . S
C797 C801 1.495 . S
C798 C797 1.392 . S
C798 C799 1.385 . S
C798 C800 1.478 . S
C799 H793 0.930 . S
C799 C795 1.400 . S
C799 C798 1.385 . S
C800 C798 1.478 . S
C800 C802 1.381 . S
C800 C806 1.383 . S
C801 C797 1.495 . S
C801 H807 0.959 . S
C801 H808 0.961 . S
C801 H809 0.960 . S
C802 C800 1.381 . S
C802 C803 1.394 . S
C802 H810 0.930 . S
C803 C802 1.394 . S
C803 C804 1.383 . S
C803 H811 0.929 . S
C804 C803 1.383 . S
C804 C805 1.377 . S
C805 H789 0.930 1_455 S
C805 C804 1.377 . S
C805 C806 1.379 . S
C806 H790 0.931 1_455 S
C806 C800 1.383 . S
C806 C805 1.379 . S
H807 C801 0.959 . S
H808 C801 0.961 . S
H809 C801 0.960 . S
H810 C802 0.930 . S
H811 C803 0.929 . S
H812 C820 0.929 . S
H813 C822 0.930 . S
H814 C824 0.930 . S
H815 C827 0.929 . S
H816 C830 0.930 . S
H817 C832 0.960 . S
H818 C832 0.960 . S
H819 C832 0.960 . S
C820 H812 0.929 . S
C820 C821 1.377 . S
C820 C822 1.384 . S
C821 C820 1.377 . S
C821 C827 1.390 . S
C822 H813 0.930 . S
C822 C820 1.384 . S
C822 C823 1.372 . S
C823 C822 1.372 . S
C823 C824 1.400 . S
C823 C828 1.490 . S
C824 H814 0.930 . S
C824 C823 1.400 . S
C824 C827 1.386 . S
H825 C841 0.930 . S
H826 C842 0.931 . S
C827 H815 0.929 . S
C827 C821 1.390 . S
C827 C824 1.386 . S
C828 C823 1.490 . S
C828 C830 1.395 . S
C828 C831 1.403 . S
H829 C835 0.930 . S
C830 H816 0.930 . S
C830 C828 1.395 . S
C830 C833 1.403 . S
C831 C828 1.403 . S
C831 C832 1.524 . S
C831 C835 1.400 . S
C832 H817 0.960 . S
C832 H818 0.960 . S
C832 H819 0.960 . S
C832 C831 1.524 . S
C833 C830 1.403 . S
C833 C834 1.392 . S
C833 C837 1.495 . S
C834 C833 1.392 . S
C834 C835 1.385 . S
C834 C836 1.478 . S
C835 H829 0.930 . S
C835 C831 1.400 . S
C835 C834 1.385 . S
C836 C834 1.478 . S
C836 C838 1.381 . S
C836 C842 1.383 . S
C837 C833 1.495 . S
C837 H843 0.959 . S
C837 H844 0.961 . S
C837 H845 0.960 . S
C838 C836 1.381 . S
C838 C839 1.394 . S
C838 H846 0.930 . S
C839 C838 1.394 . S
C839 C840 1.383 . S
C839 H847 0.929 . S
C840 C839 1.383 . S
C840 C841 1.377 . S
C841 H825 0.930 . S
C841 C840 1.377 . S
C841 C842 1.379 . S
C842 H826 0.931 . S
C842 C836 1.383 . S
C842 C841 1.379 . S
H843 C837 0.959 . S
H844 C837 0.961 . S
H845 C837 0.960 . S
H846 C838 0.930 . S
H847 C839 0.929 . S
H848 C856 0.929 . S
H849 C858 0.930 . S
H850 C860 0.930 . S
H851 C863 0.929 . S
H852 C866 0.930 . S
H853 C868 0.960 . S
H854 C868 0.960 . S
H855 C868 0.960 . S
C856 H848 0.929 . S
C856 C857 1.377 . S
C856 C858 1.384 . S
C857 C856 1.377 . S
C857 C863 1.390 . S
C858 H849 0.930 . S
C858 C856 1.384 . S
C858 C859 1.372 . S
C859 C858 1.372 . S
C859 C860 1.400 . S
C859 C864 1.490 . S
C860 H850 0.930 . S
C860 C859 1.400 . S
C860 C863 1.386 . S
H861 C877 0.930 . S
H862 C878 0.931 . S
C863 H851 0.929 . S
C863 C857 1.390 . S
C863 C860 1.386 . S
C864 C859 1.490 . S
C864 C866 1.395 . S
C864 C867 1.403 . S
H865 C871 0.930 . S
C866 H852 0.930 . S
C866 C864 1.395 . S
C866 C869 1.403 . S
C867 C864 1.403 . S
C867 C868 1.524 . S
C867 C871 1.400 . S
C868 H853 0.960 . S
C868 H854 0.960 . S
C868 H855 0.960 . S
C868 C867 1.524 . S
C869 C866 1.403 . S
C869 C870 1.392 . S
C869 C873 1.495 . S
C870 C869 1.392 . S
C870 C871 1.385 . S
C870 C872 1.478 . S
C871 H865 0.930 . S
C871 C867 1.400 . S
C871 C870 1.385 . S
C872 C870 1.478 . S
C872 C874 1.381 . S
C872 C878 1.383 . S
C873 C869 1.495 . S
C873 H879 0.959 . S
C873 H880 0.961 . S
C873 H881 0.960 . S
C874 C872 1.381 . S
C874 C875 1.394 . S
C874 H882 0.930 . S
C875 C874 1.394 . S
C875 C876 1.383 . S
C875 H883 0.929 . S
C876 C875 1.383 . S
C876 C877 1.377 . S
C877 H861 0.930 . S
C877 C876 1.377 . S
C877 C878 1.379 . S
C878 H862 0.931 . S
C878 C872 1.383 . S
C878 C877 1.379 . S
H879 C873 0.959 . S
H880 C873 0.961 . S
H881 C873 0.960 . S
H882 C874 0.930 . S
H883 C875 0.929 . S
H884 C892 0.929 . S
H885 C894 0.930 . S
H886 C896 0.930 . S
H887 C899 0.929 . S
H888 C902 0.930 . S
H889 C904 0.960 . S
H890 C904 0.960 . S
H891 C904 0.960 . S
C892 H884 0.929 . S
C892 C893 1.377 . S
C892 C894 1.384 . S
C893 C892 1.377 . S
C893 C899 1.390 . S
C894 H885 0.930 . S
C894 C892 1.384 . S
C894 C895 1.372 . S
C895 C894 1.372 . S
C895 C896 1.400 . S
C895 C900 1.490 . S
C896 H886 0.930 . S
C896 C895 1.400 . S
C896 C899 1.386 . S
H897 C913 0.930 . S
H898 C914 0.931 . S
C899 H887 0.929 . S
C899 C893 1.390 . S
C899 C896 1.386 . S
C900 C895 1.490 . S
C900 C902 1.395 . S
C900 C903 1.403 . S
H901 C907 0.930 . S
C902 H888 0.930 . S
C902 C900 1.395 . S
C902 C905 1.403 . S
C903 C900 1.403 . S
C903 C904 1.524 . S
C903 C907 1.400 . S
C904 H889 0.960 . S
C904 H890 0.960 . S
C904 H891 0.960 . S
C904 C903 1.524 . S
C905 C902 1.403 . S
C905 C906 1.392 . S
C905 C909 1.495 . S
C906 C905 1.392 . S
C906 C907 1.385 . S
C906 C908 1.478 . S
C907 H901 0.930 . S
C907 C903 1.400 . S
C907 C906 1.385 . S
C908 C906 1.478 . S
C908 C910 1.381 . S
C908 C914 1.383 . S
C909 C905 1.495 . S
C909 H915 0.959 . S
C909 H916 0.961 . S
C909 H917 0.960 . S
C910 C908 1.381 . S
C910 C911 1.394 . S
C910 H918 0.930 . S
C911 C910 1.394 . S
C911 C912 1.383 . S
C911 H919 0.929 . S
C912 C911 1.383 . S
C912 C913 1.377 . S
C913 H897 0.930 . S
C913 C912 1.377 . S
C913 C914 1.379 . S
C914 H898 0.931 . S
C914 C908 1.383 . S
C914 C913 1.379 . S
H915 C909 0.959 . S
H916 C909 0.961 . S
H917 C909 0.960 . S
H918 C910 0.930 . S
H919 C911 0.929 . S
H920 C928 0.929 . S
H921 C930 0.930 . S
H922 C932 0.930 . S
H923 C935 0.929 . S
H924 C938 0.930 . S
H925 C940 0.960 . S
H926 C940 0.960 . S
H927 C940 0.960 . S
C928 H920 0.929 . S
C928 C929 1.377 . S
C928 C930 1.384 . S
C929 C928 1.377 . S
C929 C935 1.390 . S
C930 H921 0.930 . S
C930 C928 1.384 . S
C930 C931 1.372 . S
C931 C930 1.372 . S
C931 C932 1.400 . S
C931 C936 1.490 . S
C932 H922 0.930 . S
C932 C931 1.400 . S
C932 C935 1.386 . S
H933 C949 0.930 . S
H934 C950 0.931 . S
C935 H923 0.929 . S
C935 C929 1.390 . S
C935 C932 1.386 . S
C936 C931 1.490 . S
C936 C938 1.395 . S
C936 C939 1.403 . S
H937 C943 0.930 . S
C938 H924 0.930 . S
C938 C936 1.395 . S
C938 C941 1.403 . S
C939 C936 1.403 . S
C939 C940 1.524 . S
C939 C943 1.400 . S
C940 H925 0.960 . S
C940 H926 0.960 . S
C940 H927 0.960 . S
C940 C939 1.524 . S
C941 C938 1.403 . S
C941 C942 1.392 . S
C941 C945 1.495 . S
C942 C941 1.392 . S
C942 C943 1.385 . S
C942 C944 1.478 . S
C943 H937 0.930 . S
C943 C939 1.400 . S
C943 C942 1.385 . S
C944 C942 1.478 . S
C944 C946 1.381 . S
C944 C950 1.383 1_655 S
C945 C941 1.495 . S
C945 H951 0.959 . S
C945 H952 0.961 . S
C945 H953 0.960 . S
C946 C944 1.381 . S
C946 C947 1.394 . S
C946 H954 0.930 . S
C947 C946 1.394 . S
C947 C948 1.383 1_655 S
C947 H955 0.929 . S
C948 C947 1.383 1_455 S
C948 C949 1.377 . S
C949 H933 0.930 . S
C949 C948 1.377 . S
C949 C950 1.379 . S
C950 H934 0.931 . S
C950 C944 1.383 1_455 S
C950 C949 1.379 . S
H951 C945 0.959 . S
H952 C945 0.961 . S
H953 C945 0.960 . S
H954 C946 0.930 . S
H955 C947 0.929 . S
H956 C964 0.929 . S
H957 C966 0.930 . S
H958 C968 0.930 . S
H959 C971 0.929 . S
H960 C974 0.930 . S
H961 C976 0.960 . S
H962 C976 0.960 . S
H963 C976 0.960 . S
C964 H956 0.929 . S
C964 C965 1.377 . S
C964 C966 1.384 . S
C965 C964 1.377 . S
C965 C971 1.390 . S
C966 H957 0.930 . S
C966 C964 1.384 . S
C966 C967 1.372 . S
C967 C966 1.372 . S
C967 C968 1.400 . S
C967 C972 1.490 . S
C968 H958 0.930 . S
C968 C967 1.400 . S
C968 C971 1.386 . S
H969 C985 0.930 . S
H970 C986 0.931 . S
C971 H959 0.929 . S
C971 C965 1.390 . S
C971 C968 1.386 . S
C972 C967 1.490 . S
C972 C974 1.395 . S
C972 C975 1.403 . S
H973 C979 0.930 . S
C974 H960 0.930 . S
C974 C972 1.395 . S
C974 C977 1.403 . S
C975 C972 1.403 . S
C975 C976 1.524 . S
C975 C979 1.400 . S
C976 H961 0.960 . S
C976 H962 0.960 . S
C976 H963 0.960 . S
C976 C975 1.524 . S
C977 C974 1.403 . S
C977 C978 1.392 . S
C977 C981 1.495 . S
C978 C977 1.392 . S
C978 C979 1.385 . S
C978 C980 1.478 . S
C979 H973 0.930 . S
C979 C975 1.400 . S
C979 C978 1.385 . S
C980 C978 1.478 . S
C980 C982 1.381 . S
C980 C986 1.383 . S
C981 C977 1.495 . S
C981 H987 0.959 . S
C981 H988 0.961 . S
C981 H989 0.960 . S
C982 C980 1.381 . S
C982 C983 1.394 . S
C982 H990 0.930 . S
C983 C982 1.394 . S
C983 C984 1.383 . S
C983 H991 0.929 . S
C984 C983 1.383 . S
C984 C985 1.377 . S
C985 H969 0.930 . S
C985 C984 1.377 . S
C985 C986 1.379 . S
C986 H970 0.931 . S
C986 C980 1.383 . S
C986 C985 1.379 . S
H987 C981 0.959 . S
H988 C981 0.961 . S
H989 C981 0.960 . S
H990 C982 0.930 . S
H991 C983 0.929 . S
H992 C1000 0.929 . S
H993 C1002 0.930 . S
H994 C1004 0.930 . S
H995 C1007 0.929 . S
H996 C1010 0.930 . S
H997 C1012 0.960 . S
H998 C1012 0.960 . S
H999 C1012 0.960 . S
C1000 H992 0.929 . S
C1000 C1001 1.377 1_565 S
C1000 C1002 1.384 . S
C1001 C1000 1.377 1_545 S
C1001 C1007 1.390 . S
C1002 H993 0.930 . S
C1002 C1000 1.384 . S
C1002 C1003 1.372 1_565 S
C1003 C1002 1.372 1_545 S
C1003 C1004 1.400 . S
C1003 C1008 1.490 . S
C1004 H994 0.930 . S
C1004 C1003 1.400 . S
C1004 C1007 1.386 . S
H1005 C1021 0.930 . S
H1006 C1022 0.931 . S
C1007 H995 0.929 . S
C1007 C1001 1.390 . S
C1007 C1004 1.386 . S
C1008 C1003 1.490 . S
C1008 C1010 1.395 1_545 S
C1008 C1011 1.403 . S
H1009 C1015 0.930 . S
C1010 H996 0.930 . S
C1010 C1008 1.395 1_565 S
C1010 C1013 1.403 . S
C1011 C1008 1.403 . S
C1011 C1012 1.524 . S
C1011 C1015 1.400 . S
C1012 H997 0.960 . S
C1012 H998 0.960 . S
C1012 H999 0.960 . S
C1012 C1011 1.524 . S
C1013 C1010 1.403 . S
C1013 C1014 1.392 1_565 S
C1013 C1017 1.495 . S
C1014 C1013 1.392 1_545 S
C1014 C1015 1.385 . S
C1014 C1016 1.478 . S
C1015 H1009 0.930 . S
C1015 C1011 1.400 . S
C1015 C1014 1.385 . S
C1016 C1014 1.478 . S
C1016 C1018 1.381 1_545 S
C1016 C1022 1.383 . S
C1017 C1013 1.495 . S
C1017 H1023 0.959 . S
C1017 H1024 0.961 . S
C1017 H1025 0.960 . S
C1018 C1016 1.381 1_565 S
C1018 C1019 1.381 1_565 S
C1018 H1026 0.930 . S
C1019 C1018 1.381 1_545 S
C1019 C1020 1.425 . S
C1019 H1027 0.904 1_545 S
C1020 C1019 1.425 . S
C1020 C1021 1.377 . S
C1021 H1005 0.930 . S
C1021 C1020 1.377 . S
C1021 C1022 1.379 . S
C1022 H1006 0.931 . S
C1022 C1016 1.383 . S
C1022 C1021 1.379 . S
H1023 C1017 0.959 . S
H1024 C1017 0.961 . S
H1025 C1017 0.960 . S
H1026 C1018 0.930 . S
H1027 C1019 0.904 1_565 S
H1028 C1036 0.929 . S
H1029 C1038 0.930 . S
H1030 C1040 0.930 . S
H1031 C1043 0.929 . S
H1032 C1046 0.930 . S
H1033 C1048 0.960 . S
H1034 C1048 0.960 . S
H1035 C1048 0.960 . S
C1036 H1028 0.929 . S
C1036 C1037 1.377 . S
C1036 C1038 1.384 . S
C1037 C1036 1.377 . S
C1037 C1043 1.390 . S
C1038 H1029 0.930 . S
C1038 C1036 1.384 . S
C1038 C1039 1.372 . S
C1039 C1038 1.372 . S
C1039 C1040 1.400 . S
C1039 C1044 1.490 . S
C1040 H1030 0.930 . S
C1040 C1039 1.400 . S
C1040 C1043 1.386 . S
H1041 C1057 0.930 . S
H1042 C1058 0.931 . S
C1043 H1031 0.929 . S
C1043 C1037 1.390 . S
C1043 C1040 1.386 . S
C1044 C1039 1.490 . S
C1044 C1046 1.395 . S
C1044 C1047 1.403 . S
H1045 C1051 0.930 . S
C1046 H1032 0.930 . S
C1046 C1044 1.395 . S
C1046 C1049 1.403 . S
C1047 C1044 1.403 . S
C1047 C1048 1.524 . S
C1047 C1051 1.400 . S
C1048 H1033 0.960 . S
C1048 H1034 0.960 . S
C1048 H1035 0.960 . S
C1048 C1047 1.524 . S
C1049 C1046 1.403 . S
C1049 C1050 1.392 . S
C1049 C1053 1.495 . S
C1050 C1049 1.392 . S
C1050 C1051 1.385 . S
C1050 C1052 1.478 . S
C1051 H1045 0.930 . S
C1051 C1047 1.400 . S
C1051 C1050 1.385 . S
C1052 C1050 1.478 . S
C1052 C1054 1.381 . S
C1052 C1058 1.383 . S
C1053 C1049 1.495 . S
C1053 H1059 0.959 . S
C1053 H1060 0.961 . S
C1053 H1061 0.960 . S
C1054 C1052 1.381 . S
C1054 C1055 1.394 . S
C1054 H1062 0.930 . S
C1055 C1054 1.394 . S
C1055 C1056 1.383 . S
C1055 H1063 0.929 . S
C1056 C1055 1.383 . S
C1056 C1057 1.377 . S
C1057 H1041 0.930 . S
C1057 C1056 1.377 . S
C1057 C1058 1.379 . S
C1058 H1042 0.931 . S
C1058 C1052 1.383 . S
C1058 C1057 1.379 . S
H1059 C1053 0.959 . S
H1060 C1053 0.961 . S
H1061 C1053 0.960 . S
H1062 C1054 0.930 . S
H1063 C1055 0.929 . S
H1064 C1072 0.929 . S
H1065 C1074 0.930 . S
H1066 C1076 0.930 . S
H1067 C1079 0.929 . S
H1068 C1082 0.930 . S
H1069 C1084 0.960 . S
H1070 C1084 0.960 . S
H1071 C1084 0.960 . S
C1072 H1064 0.929 . S
C1072 C1073 1.377 . S
C1072 C1074 1.384 . S
C1073 C1072 1.377 . S
C1073 C1079 1.390 . S
C1074 H1065 0.930 . S
C1074 C1072 1.384 . S
C1074 C1075 1.372 . S
C1075 C1074 1.372 . S
C1075 C1076 1.400 . S
C1075 C1080 1.490 . S
C1076 H1066 0.930 . S
C1076 C1075 1.400 . S
C1076 C1079 1.386 . S
H1077 C1093 0.930 . S
H1078 C1094 0.931 . S
C1079 H1067 0.929 . S
C1079 C1073 1.390 . S
C1079 C1076 1.386 . S
C1080 C1075 1.490 . S
C1080 C1082 1.395 . S
C1080 C1083 1.403 . S
H1081 C1087 0.930 . S
C1082 H1068 0.930 . S
C1082 C1080 1.395 . S
C1082 C1085 1.403 . S
C1083 C1080 1.403 . S
C1083 C1084 1.524 . S
C1083 C1087 1.400 . S
C1084 H1069 0.960 . S
C1084 H1070 0.960 . S
C1084 H1071 0.960 . S
C1084 C1083 1.524 . S
C1085 C1082 1.403 . S
C1085 C1086 1.392 . S
C1085 C1089 1.495 1_655 S
C1086 C1085 1.392 . S
C1086 C1087 1.385 . S
C1086 C1088 1.478 . S
C1087 H1081 0.930 . S
C1087 C1083 1.400 . S
C1087 C1086 1.385 . S
C1088 C1086 1.478 . S
C1088 C1090 1.381 . S
C1088 C1094 1.383 . S
C1089 C1085 1.495 1_455 S
C1089 H1095 0.959 . S
C1089 H1096 0.961 . S
C1089 H1097 0.960 . S
C1090 C1088 1.381 . S
C1090 C1091 1.394 1_655 S
C1090 H1098 0.930 . S
C1091 C1090 1.394 1_455 S
C1091 C1092 1.383 . S
C1091 H1099 0.929 . S
C1092 C1091 1.383 . S
C1092 C1093 1.377 1_455 S
C1093 H1077 0.930 . S
C1093 C1092 1.377 1_655 S
C1093 C1094 1.379 . S
C1094 H1078 0.931 . S
C1094 C1088 1.383 . S
C1094 C1093 1.379 . S
H1095 C1089 0.959 . S
H1096 C1089 0.961 . S
H1097 C1089 0.960 . S
H1098 C1090 0.930 . S
H1099 C1091 0.929 . S
H1100 C1108 0.929 . S
H1101 C1110 0.930 . S
H1102 C1112 0.930 . S
H1103 C1115 0.929 . S
H1104 C1118 0.930 . S
H1105 C1120 0.960 . S
H1106 C1120 0.960 . S
H1107 C1120 0.960 . S
C1108 H1100 0.929 . S
C1108 C1109 1.377 . S
C1108 C1110 1.384 . S
C1109 C1108 1.377 . S
C1109 C1115 1.390 . S
C1110 H1101 0.930 . S
C1110 C1108 1.384 . S
C1110 C1111 1.372 . S
C1111 C1110 1.372 . S
C1111 C1112 1.400 . S
C1111 C1116 1.490 . S
C1112 H1102 0.930 . S
C1112 C1111 1.400 . S
C1112 C1115 1.386 . S
H1113 C1129 0.930 . S
H1114 C1130 0.931 . S
C1115 H1103 0.929 . S
C1115 C1109 1.390 . S
C1115 C1112 1.386 . S
C1116 C1111 1.490 . S
C1116 C1118 1.395 . S
C1116 C1119 1.403 . S
H1117 C1123 0.930 . S
C1118 H1104 0.930 . S
C1118 C1116 1.395 . S
C1118 C1121 1.403 . S
C1119 C1116 1.403 . S
C1119 C1120 1.524 . S
C1119 C1123 1.400 . S
C1120 H1105 0.960 . S
C1120 H1106 0.960 . S
C1120 H1107 0.960 . S
C1120 C1119 1.524 . S
C1121 C1118 1.403 . S
C1121 C1122 1.392 . S
C1121 C1125 1.495 . S
C1122 C1121 1.392 . S
C1122 C1123 1.385 . S
C1122 C1124 1.478 . S
C1123 H1117 0.930 . S
C1123 C1119 1.400 . S
C1123 C1122 1.385 . S
C1124 C1122 1.478 . S
C1124 C1126 1.381 . S
C1124 C1130 1.383 . S
C1125 C1121 1.495 . S
C1125 H1131 0.959 . S
C1125 H1132 0.961 . S
C1125 H1133 0.960 . S
C1126 C1124 1.381 . S
C1126 C1127 1.394 . S
C1126 H1134 0.930 . S
C1127 C1126 1.394 . S
C1127 C1128 1.383 . S
C1127 H1135 0.929 . S
C1128 C1127 1.383 . S
C1128 C1129 1.377 . S
C1129 H1113 0.930 . S
C1129 C1128 1.377 . S
C1129 C1130 1.379 . S
C1130 H1114 0.931 . S
C1130 C1124 1.383 . S
C1130 C1129 1.379 . S
H1131 C1125 0.959 . S
H1132 C1125 0.961 . S
H1133 C1125 0.960 . S
H1134 C1126 0.930 . S
H1135 C1127 0.929 . S
H1136 C1144 0.929 1_565 S
H1137 C1146 0.930 . S
H1138 C1148 0.930 . S
H1139 C1151 0.929 . S
H1140 C1154 0.930 . S
H1141 C1156 0.960 . S
H1142 C1156 0.960 . S
H1143 C1156 0.960 . S
C1144 H1136 0.929 1_545 S
C1144 C1145 1.377 . S
C1144 C1146 1.384 . S
C1145 C1144 1.377 . S
C1145 C1151 1.390 . S
C1146 H1137 0.930 . S
C1146 C1144 1.384 . S
C1146 C1147 1.372 . S
C1147 C1146 1.372 . S
C1147 C1148 1.400 . S
C1147 C1152 1.490 . S
C1148 H1138 0.930 . S
C1148 C1147 1.400 . S
C1148 C1151 1.386 . S
H1149 C1165 0.930 . S
H1150 C1166 0.931 . S
C1151 H1139 0.929 . S
C1151 C1145 1.390 . S
C1151 C1148 1.386 . S
C1152 C1147 1.490 . S
C1152 C1154 1.395 . S
C1152 C1155 1.403 . S
H1153 C1159 0.930 . S
C1154 H1140 0.930 . S
C1154 C1152 1.395 . S
C1154 C1157 1.403 . S
C1155 C1152 1.403 . S
C1155 C1156 1.524 . S
C1155 C1159 1.400 . S
C1156 H1141 0.960 . S
C1156 H1142 0.960 . S
C1156 H1143 0.960 . S
C1156 C1155 1.524 . S
C1157 C1154 1.403 . S
C1157 C1158 1.392 . S
C1157 C1161 1.495 . S
C1158 C1157 1.392 . S
C1158 C1159 1.385 . S
C1158 C1160 1.478 . S
C1159 H1153 0.930 . S
C1159 C1155 1.400 . S
C1159 C1158 1.385 . S
C1160 C1158 1.478 . S
C1160 C1162 1.381 . S
C1160 C1166 1.383 . S
C1161 C1157 1.495 . S
C1161 H1167 0.959 . S
C1161 H1168 0.961 . S
C1161 H1169 0.960 . S
C1162 C1160 1.381 . S
C1162 C1163 1.394 . S
C1162 H1170 0.930 . S
C1163 C1162 1.394 . S
C1163 C1164 1.383 . S
C1163 H1171 0.929 . S
C1164 C1163 1.383 . S
C1164 C1165 1.377 . S
C1165 H1149 0.930 . S
C1165 C1164 1.377 . S
C1165 C1166 1.379 . S
C1166 H1150 0.931 . S
C1166 C1160 1.383 . S
C1166 C1165 1.379 . S
H1167 C1161 0.959 . S
H1168 C1161 0.961 . S
H1169 C1161 0.960 . S
H1170 C1162 0.930 . S
H1171 C1163 0.929 . S
H1172 C1180 0.929 . S
H1173 C1182 0.930 . S
H1174 C1184 0.930 . S
H1175 C1187 0.929 . S
H1176 C1190 0.930 . S
H1177 C1192 0.960 . S
H1178 C1192 0.960 . S
H1179 C1192 0.960 . S
C1180 H1172 0.929 . S
C1180 C1181 1.377 . S
C1180 C1182 1.384 . S
C1181 C1180 1.377 . S
C1181 C1187 1.390 . S
C1182 H1173 0.930 . S
C1182 C1180 1.384 . S
C1182 C1183 1.372 . S
C1183 C1182 1.372 . S
C1183 C1184 1.400 . S
C1183 C1188 1.490 . S
C1184 H1174 0.930 . S
C1184 C1183 1.400 . S
C1184 C1187 1.386 . S
H1185 C1201 0.930 . S
H1186 C1202 0.931 . S
C1187 H1175 0.929 . S
C1187 C1181 1.390 . S
C1187 C1184 1.386 . S
C1188 C1183 1.490 . S
C1188 C1190 1.395 . S
C1188 C1191 1.403 . S
H1189 C1195 0.930 . S
C1190 H1176 0.930 . S
C1190 C1188 1.395 . S
C1190 C1193 1.403 . S
C1191 C1188 1.403 . S
C1191 C1192 1.524 . S
C1191 C1195 1.400 . S
C1192 H1177 0.960 . S
C1192 H1178 0.960 . S
C1192 H1179 0.960 . S
C1192 C1191 1.524 . S
C1193 C1190 1.403 . S
C1193 C1194 1.392 . S
C1193 C1197 1.495 . S
C1194 C1193 1.392 . S
C1194 C1195 1.385 . S
C1194 C1196 1.478 . S
C1195 H1189 0.930 . S
C1195 C1191 1.400 . S
C1195 C1194 1.385 . S
C1196 C1194 1.478 . S
C1196 C1198 1.381 . S
C1196 C1202 1.383 . S
C1197 C1193 1.495 . S
C1197 H1203 0.959 . S
C1197 H1204 0.961 . S
C1197 H1205 0.960 . S
C1198 C1196 1.381 . S
C1198 C1199 1.394 . S
C1198 H1206 0.930 . S
C1199 C1198 1.394 . S
C1199 C1200 1.383 . S
C1199 H1207 0.929 . S
C1200 C1199 1.383 . S
C1200 C1201 1.377 . S
C1201 H1185 0.930 . S
C1201 C1200 1.377 . S
C1201 C1202 1.379 . S
C1202 H1186 0.931 . S
C1202 C1196 1.383 . S
C1202 C1201 1.379 . S
H1203 C1197 0.959 . S
H1204 C1197 0.961 . S
H1205 C1197 0.960 . S
H1206 C1198 0.930 . S
H1207 C1199 0.929 . S
H1208 C1216 0.929 . S
H1209 C1218 0.930 . S
H1210 C1220 0.930 . S
H1211 C1223 0.929 . S
H1212 C1226 0.930 . S
H1213 C1228 0.960 1_545 S
H1214 C1228 0.960 . S
H1215 C1228 0.960 . S
C1216 H1208 0.929 . S
C1216 C1217 1.377 . S
C1216 C1218 1.384 . S
C1217 C1216 1.377 . S
C1217 C1223 1.390 . S
C1218 H1209 0.930 . S
C1218 C1216 1.384 . S
C1218 C1219 1.372 . S
C1219 C1218 1.372 . S
C1219 C1220 1.400 . S
C1219 C1224 1.490 . S
C1220 H1210 0.930 . S
C1220 C1219 1.400 . S
C1220 C1223 1.386 . S
H1221 C1237 0.930 . S
H1222 C1238 0.931 1_565 S
C1223 H1211 0.929 . S
C1223 C1217 1.390 . S
C1223 C1220 1.386 . S
C1224 C1219 1.490 . S
C1224 C1226 1.395 . S
C1224 C1227 1.403 . S
H1225 C1231 0.930 1_545 S
C1226 H1212 0.930 . S
C1226 C1224 1.395 . S
C1226 C1229 1.403 . S
C1227 C1224 1.403 . S
C1227 C1228 1.524 . S
C1227 C1231 1.400 . S
C1228 H1213 0.960 1_565 S
C1228 H1214 0.960 . S
C1228 H1215 0.960 . S
C1228 C1227 1.524 . S
C1229 C1226 1.403 . S
C1229 C1230 1.392 . S
C1229 C1233 1.495 . S
C1230 C1229 1.392 . S
C1230 C1231 1.385 . S
C1230 C1232 1.478 . S
C1231 H1225 0.930 1_565 S
C1231 C1227 1.400 . S
C1231 C1230 1.385 . S
C1232 C1230 1.478 . S
C1232 C1234 1.381 . S
C1232 C1238 1.383 1_565 S
C1233 C1229 1.495 . S
C1233 H1239 0.959 . S
C1233 H1240 0.961 . S
C1233 H1241 0.960 . S
C1234 C1232 1.381 . S
C1234 C1235 1.394 1_565 S
C1234 H1242 0.930 . S
C1235 C1234 1.394 1_545 S
C1235 C1236 1.383 . S
C1235 H1243 0.929 . S
C1236 C1235 1.383 . S
C1236 C1237 1.377 . S
C1237 H1221 0.930 . S
C1237 C1236 1.377 . S
C1237 C1238 1.379 . S
C1238 H1222 0.931 1_545 S
C1238 C1232 1.383 1_545 S
C1238 C1237 1.379 . S
H1239 C1233 0.959 . S
H1240 C1233 0.961 . S
H1241 C1233 0.960 . S
H1242 C1234 0.930 . S
H1243 C1235 0.929 . S
H1244 C1252 0.929 . S
H1245 C1254 0.930 . S
H1246 C1256 0.930 . S
H1247 C1259 0.929 . S
H1248 C1262 0.930 . S
H1249 C1264 0.960 . S
H1250 C1264 0.960 . S
H1251 C1264 0.960 . S
C1252 H1244 0.929 . S
C1252 C1253 1.377 1_554 S
C1252 C1254 1.384 . S
C1253 C1252 1.377 1_556 S
C1253 C1259 1.390 . S
C1254 H1245 0.930 . S
C1254 C1252 1.384 . S
C1254 C1255 1.407 . S
C1255 C1254 1.407 . S
C1255 C1256 1.358 1_554 S
C1255 C1260 1.497 . S
C1256 H1246 0.930 . S
C1256 C1255 1.358 1_556 S
C1256 C1259 1.386 . S
H1257 C1273 0.930 . S
H1258 C1274 0.931 . S
C1259 H1247 0.929 . S
C1259 C1253 1.390 . S
C1259 C1256 1.386 . S
C1260 C1255 1.497 . S
C1260 C1262 1.395 . S
C1260 C1263 1.403 1_554 S
H1261 C1267 0.930 . S
C1262 H1248 0.930 . S
C1262 C1260 1.395 . S
C1262 C1265 1.403 . S
C1263 C1260 1.403 1_556 S
C1263 C1264 1.524 . S
C1263 C1267 1.400 . S
C1264 H1249 0.960 . S
C1264 H1250 0.960 . S
C1264 H1251 0.960 . S
C1264 C1263 1.524 . S
C1265 C1262 1.403 . S
C1265 C1266 1.392 . S
C1265 C1269 1.495 . S
C1266 C1265 1.392 . S
C1266 C1267 1.385 1_554 S
C1266 C1268 1.478 . S
C1267 H1261 0.930 . S
C1267 C1263 1.400 . S
C1267 C1266 1.385 1_556 S
C1268 C1266 1.478 . S
C1268 C1270 1.381 . S
C1268 C1274 1.383 1_554 S
C1269 C1265 1.495 . S
C1269 H1275 0.959 . S
C1269 H1276 0.961 . S
C1269 H1277 0.960 . S
C1270 C1268 1.381 . S
C1270 C1271 1.394 . S
C1270 H1278 0.930 . S
C1271 C1270 1.394 . S
C1271 C1272 1.400 . S
C1271 H1279 0.929 . S
C1272 C1271 1.400 . S
C1272 C1273 1.359 1_554 S
C1273 H1257 0.930 . S
C1273 C1272 1.359 1_556 S
C1273 C1274 1.379 . S
C1274 H1258 0.931 . S
C1274 C1268 1.383 1_556 S
C1274 C1273 1.379 . S
H1275 C1269 0.959 . S
H1276 C1269 0.961 . S
H1277 C1269 0.960 . S
H1278 C1270 0.930 . S
H1279 C1271 0.929 . S
H1280 C1288 0.929 . S
H1281 C1290 0.930 . S
H1282 C1292 0.930 . S
H1283 C1295 0.929 . S
H1284 C1298 0.930 . S
H1285 C1300 0.960 . S
H1286 C1300 0.960 . S
H1287 C1300 0.960 . S
C1288 H1280 0.929 . S
C1288 C1289 1.377 . S
C1288 C1290 1.384 . S
C1289 C1288 1.377 . S
C1289 C1295 1.390 . S
C1290 H1281 0.930 . S
C1290 C1288 1.384 . S
C1290 C1291 1.372 . S
C1291 C1290 1.372 . S
C1291 C1292 1.400 . S
C1291 C1296 1.490 . S
C1292 H1282 0.930 . S
C1292 C1291 1.400 . S
C1292 C1295 1.386 . S
H1293 C1309 0.930 . S
H1294 C1310 0.931 . S
C1295 H1283 0.929 . S
C1295 C1289 1.390 . S
C1295 C1292 1.386 . S
C1296 C1291 1.490 . S
C1296 C1298 1.395 . S
C1296 C1299 1.403 . S
H1297 C1303 0.930 . S
C1298 H1284 0.930 . S
C1298 C1296 1.395 . S
C1298 C1301 1.403 . S
C1299 C1296 1.403 . S
C1299 C1300 1.524 . S
C1299 C1303 1.400 . S
C1300 H1285 0.960 . S
C1300 H1286 0.960 . S
C1300 H1287 0.960 . S
C1300 C1299 1.524 . S
C1301 C1298 1.403 . S
C1301 C1302 1.392 . S
C1301 C1305 1.495 . S
C1302 C1301 1.392 . S
C1302 C1303 1.385 . S
C1302 C1304 1.478 . S
C1303 H1297 0.930 . S
C1303 C1299 1.400 . S
C1303 C1302 1.385 . S
C1304 C1302 1.478 . S
C1304 C1306 1.381 . S
C1304 C1310 1.383 . S
C1305 C1301 1.495 . S
C1305 H1311 0.959 . S
C1305 H1312 0.961 . S
C1305 H1313 0.960 . S
C1306 C1304 1.381 . S
C1306 C1307 1.394 . S
C1306 H1314 0.930 . S
C1307 C1306 1.394 . S
C1307 C1308 1.383 . S
C1307 H1315 0.929 . S
C1308 C1307 1.383 . S
C1308 C1309 1.377 . S
C1309 H1293 0.930 . S
C1309 C1308 1.377 . S
C1309 C1310 1.379 . S
C1310 H1294 0.931 . S
C1310 C1304 1.383 . S
C1310 C1309 1.379 . S
H1311 C1305 0.959 . S
H1312 C1305 0.961 . S
H1313 C1305 0.960 . S
H1314 C1306 0.930 . S
H1315 C1307 0.929 . S
H1316 C1324 0.929 . S
H1317 C1326 0.930 . S
H1318 C1328 0.930 . S
H1319 C1331 0.929 . S
H1320 C1334 0.930 . S
H1321 C1336 0.960 . S
H1322 C1336 0.960 . S
H1323 C1336 0.960 . S
C1324 H1316 0.929 . S
C1324 C1325 1.377 . S
C1324 C1326 1.384 . S
C1325 C1324 1.377 . S
C1325 C1331 1.390 . S
C1326 H1317 0.930 . S
C1326 C1324 1.384 . S
C1326 C1327 1.372 . S
C1327 C1326 1.372 . S
C1327 C1328 1.400 . S
C1327 C1332 1.490 . S
C1328 H1318 0.930 . S
C1328 C1327 1.400 . S
C1328 C1331 1.386 . S
H1329 C1345 0.930 . S
H1330 C1346 0.931 . S
C1331 H1319 0.929 . S
C1331 C1325 1.390 . S
C1331 C1328 1.386 . S
C1332 C1327 1.490 . S
C1332 C1334 1.395 . S
C1332 C1335 1.403 . S
H1333 C1339 0.930 . S
C1334 H1320 0.930 . S
C1334 C1332 1.395 . S
C1334 C1337 1.403 . S
C1335 C1332 1.403 . S
C1335 C1336 1.524 . S
C1335 C1339 1.400 . S
C1336 H1321 0.960 . S
C1336 H1322 0.960 . S
C1336 H1323 0.960 . S
C1336 C1335 1.524 . S
C1337 C1334 1.403 . S
C1337 C1338 1.392 . S
C1337 C1341 1.495 . S
C1338 C1337 1.392 . S
C1338 C1339 1.385 . S
C1338 C1340 1.478 . S
C1339 H1333 0.930 . S
C1339 C1335 1.400 . S
C1339 C1338 1.385 . S
C1340 C1338 1.478 . S
C1340 C1342 1.381 . S
C1340 C1346 1.383 . S
C1341 C1337 1.495 . S
C1341 H1347 0.959 . S
C1341 H1348 0.961 . S
C1341 H1349 0.960 . S
C1342 C1340 1.381 . S
C1342 C1343 1.394 . S
C1342 H1350 0.930 . S
C1343 C1342 1.394 . S
C1343 C1344 1.383 . S
C1343 H1351 0.929 . S
C1344 C1343 1.383 . S
C1344 C1345 1.377 . S
C1345 H1329 0.930 . S
C1345 C1344 1.377 . S
C1345 C1346 1.379 . S
C1346 H1330 0.931 . S
C1346 C1340 1.383 . S
C1346 C1345 1.379 . S
H1347 C1341 0.959 . S
H1348 C1341 0.961 . S
H1349 C1341 0.960 . S
H1350 C1342 0.930 . S
H1351 C1343 0.929 . S
H1352 C1360 0.929 . S
H1353 C1362 0.930 . S
H1354 C1364 0.930 . S
H1355 C1367 0.929 . S
H1356 C1370 0.930 . S
H1357 C1372 0.960 . S
H1358 C1372 0.960 . S
H1359 C1372 0.960 . S
C1360 H1352 0.929 . S
C1360 C1361 1.377 . S
C1360 C1362 1.384 . S
C1361 C1360 1.377 . S
C1361 C1367 1.390 . S
C1362 H1353 0.930 . S
C1362 C1360 1.384 . S
C1362 C1363 1.372 . S
C1363 C1362 1.372 . S
C1363 C1364 1.400 . S
C1363 C1368 1.490 . S
C1364 H1354 0.930 . S
C1364 C1363 1.400 . S
C1364 C1367 1.386 . S
H1365 C1381 0.930 . S
H1366 C1382 0.931 . S
C1367 H1355 0.929 . S
C1367 C1361 1.390 . S
C1367 C1364 1.386 . S
C1368 C1363 1.490 . S
C1368 C1370 1.395 . S
C1368 C1371 1.403 . S
H1369 C1375 0.930 . S
C1370 H1356 0.930 . S
C1370 C1368 1.395 . S
C1370 C1373 1.403 . S
C1371 C1368 1.403 . S
C1371 C1372 1.524 . S
C1371 C1375 1.400 . S
C1372 H1357 0.960 . S
C1372 H1358 0.960 . S
C1372 H1359 0.960 . S
C1372 C1371 1.524 . S
C1373 C1370 1.403 . S
C1373 C1374 1.392 . S
C1373 C1377 1.495 . S
C1374 C1373 1.392 . S
C1374 C1375 1.385 . S
C1374 C1376 1.478 . S
C1375 H1369 0.930 . S
C1375 C1371 1.400 . S
C1375 C1374 1.385 . S
C1376 C1374 1.478 . S
C1376 C1378 1.381 . S
C1376 C1382 1.383 . S
C1377 C1373 1.495 . S
C1377 H1383 0.959 . S
C1377 H1384 0.961 . S
C1377 H1385 0.960 . S
C1378 C1376 1.381 . S
C1378 C1379 1.394 . S
C1378 H1386 0.930 . S
C1379 C1378 1.394 . S
C1379 C1380 1.383 . S
C1379 H1387 0.929 . S
C1380 C1379 1.383 . S
C1380 C1381 1.377 . S
C1381 H1365 0.930 . S
C1381 C1380 1.377 . S
C1381 C1382 1.379 . S
C1382 H1366 0.931 . S
C1382 C1376 1.383 . S
C1382 C1381 1.379 . S
H1383 C1377 0.959 . S
H1384 C1377 0.961 . S
H1385 C1377 0.960 . S
H1386 C1378 0.930 . S
H1387 C1379 0.929 . S
H1388 C1396 0.929 . S
H1389 C1398 0.930 . S
H1390 C1400 0.930 . S
H1391 C1403 0.929 . S
H1392 C1406 0.930 . S
H1393 C1408 0.960 . S
H1394 C1408 0.960 . S
H1395 C1408 0.960 . S
C1396 H1388 0.929 . S
C1396 C1397 1.377 . S
C1396 C1398 1.384 . S
C1397 C1396 1.377 . S
C1397 C1403 1.390 . S
C1398 H1389 0.930 . S
C1398 C1396 1.384 . S
C1398 C1399 1.372 . S
C1399 C1398 1.372 . S
C1399 C1400 1.400 . S
C1399 C1404 1.490 . S
C1400 H1390 0.930 . S
C1400 C1399 1.400 . S
C1400 C1403 1.386 . S
H1401 C1417 0.930 . S
H1402 C1418 0.931 . S
C1403 H1391 0.929 . S
C1403 C1397 1.390 . S
C1403 C1400 1.386 . S
C1404 C1399 1.490 . S
C1404 C1406 1.395 . S
C1404 C1407 1.403 . S
H1405 C1411 0.930 . S
C1406 H1392 0.930 . S
C1406 C1404 1.395 . S
C1406 C1409 1.403 . S
C1407 C1404 1.403 . S
C1407 C1408 1.524 . S
C1407 C1411 1.400 . S
C1408 H1393 0.960 . S
C1408 H1394 0.960 . S
C1408 H1395 0.960 . S
C1408 C1407 1.524 . S
C1409 C1406 1.403 . S
C1409 C1410 1.392 . S
C1409 C1413 1.495 . S
C1410 C1409 1.392 . S
C1410 C1411 1.385 . S
C1410 C1412 1.478 . S
C1411 H1405 0.930 . S
C1411 C1407 1.400 . S
C1411 C1410 1.385 . S
C1412 C1410 1.478 . S
C1412 C1414 1.381 . S
C1412 C1418 1.383 . S
C1413 C1409 1.495 . S
C1413 H1419 0.959 . S
C1413 H1420 0.961 . S
C1413 H1421 0.960 . S
C1414 C1412 1.381 . S
C1414 C1415 1.394 . S
C1414 H1422 0.930 . S
C1415 C1414 1.394 . S
C1415 C1416 1.383 . S
C1415 H1423 0.929 . S
C1416 C1415 1.383 . S
C1416 C1417 1.377 . S
C1417 H1401 0.930 . S
C1417 C1416 1.377 . S
C1417 C1418 1.379 . S
C1418 H1402 0.931 . S
C1418 C1412 1.383 . S
C1418 C1417 1.379 . S
H1419 C1413 0.959 . S
H1420 C1413 0.961 . S
H1421 C1413 0.960 . S
H1422 C1414 0.930 . S
H1423 C1415 0.929 . S
H1424 C1432 0.929 . S
H1425 C1434 0.930 . S
H1426 C1436 0.930 . S
H1427 C1439 0.929 . S
H1428 C1442 0.930 . S
H1429 C1444 0.960 . S
H1430 C1444 0.960 . S
H1431 C1444 0.960 . S
C1432 H1424 0.929 . S
C1432 C1433 1.377 . S
C1432 C1434 1.384 . S
C1433 C1432 1.377 . S
C1433 C1439 1.390 . S
C1434 H1425 0.930 . S
C1434 C1432 1.384 . S
C1434 C1435 1.372 . S
C1435 C1434 1.372 . S
C1435 C1436 1.400 . S
C1435 C1440 1.490 . S
C1436 H1426 0.930 . S
C1436 C1435 1.400 . S
C1436 C1439 1.386 . S
H1437 C1453 0.930 . S
H1438 C1454 0.931 . S
C1439 H1427 0.929 . S
C1439 C1433 1.390 . S
C1439 C1436 1.386 . S
C1440 C1435 1.490 . S
C1440 C1442 1.395 . S
C1440 C1443 1.403 . S
H1441 C1447 0.930 . S
C1442 H1428 0.930 . S
C1442 C1440 1.395 . S
C1442 C1445 1.403 . S
C1443 C1440 1.403 . S
C1443 C1444 1.524 . S
C1443 C1447 1.400 . S
C1444 H1429 0.960 . S
C1444 H1430 0.960 . S
C1444 H1431 0.960 . S
C1444 C1443 1.524 . S
C1445 C1442 1.403 . S
C1445 C1446 1.392 . S
C1445 C1449 1.495 . S
C1446 C1445 1.392 . S
C1446 C1447 1.385 . S
C1446 C1448 1.478 . S
C1447 H1441 0.930 . S
C1447 C1443 1.400 . S
C1447 C1446 1.385 . S
C1448 C1446 1.478 . S
C1448 C1450 1.381 . S
C1448 C1454 1.383 . S
C1449 C1445 1.495 . S
C1449 H1455 0.959 . S
C1449 H1456 0.961 . S
C1449 H1457 0.960 . S
C1450 C1448 1.381 . S
C1450 C1451 1.394 . S
C1450 H1458 0.930 . S
C1451 C1450 1.394 . S
C1451 C1452 1.383 . S
C1451 H1459 0.929 . S
C1452 C1451 1.383 . S
C1452 C1453 1.377 . S
C1453 H1437 0.930 . S
C1453 C1452 1.377 . S
C1453 C1454 1.379 . S
C1454 H1438 0.931 . S
C1454 C1448 1.383 . S
C1454 C1453 1.379 . S
H1455 C1449 0.959 . S
H1456 C1449 0.961 . S
H1457 C1449 0.960 . S
H1458 C1450 0.930 . S
H1459 C1451 0.929 . S
H1460 C1468 0.929 . S
H1461 C1470 0.930 . S
H1462 C1472 0.930 . S
H1463 C1475 0.929 . S
H1464 C1478 0.930 . S
H1465 C1480 0.960 . S
H1466 C1480 0.960 . S
H1467 C1480 0.960 . S
C1468 H1460 0.929 . S
C1468 C1469 1.377 . S
C1468 C1470 1.384 . S
C1469 C1468 1.377 . S
C1469 C1475 1.390 . S
C1470 H1461 0.930 . S
C1470 C1468 1.384 . S
C1470 C1471 1.372 . S
C1471 C1470 1.372 . S
C1471 C1472 1.400 . S
C1471 C1476 1.490 . S
C1472 H1462 0.930 . S
C1472 C1471 1.400 . S
C1472 C1475 1.386 . S
H1473 C1489 0.930 . S
H1474 C1490 0.931 . S
C1475 H1463 0.929 . S
C1475 C1469 1.390 . S
C1475 C1472 1.386 . S
C1476 C1471 1.490 . S
C1476 C1478 1.395 . S
C1476 C1479 1.403 . S
H1477 C1483 0.930 . S
C1478 H1464 0.930 . S
C1478 C1476 1.395 . S
C1478 C1481 1.403 . S
C1479 C1476 1.403 . S
C1479 C1480 1.524 . S
C1479 C1483 1.400 . S
C1480 H1465 0.960 . S
C1480 H1466 0.960 . S
C1480 H1467 0.960 . S
C1480 C1479 1.524 . S
C1481 C1478 1.403 . S
C1481 C1482 1.392 . S
C1481 C1485 1.495 . S
C1482 C1481 1.392 . S
C1482 C1483 1.385 . S
C1482 C1484 1.478 . S
C1483 H1477 0.930 . S
C1483 C1479 1.400 . S
C1483 C1482 1.385 . S
C1484 C1482 1.478 . S
C1484 C1486 1.381 . S
C1484 C1490 1.383 . S
C1485 C1481 1.495 . S
C1485 H1491 0.959 . S
C1485 H1492 0.961 . S
C1485 H1493 0.960 . S
C1486 C1484 1.381 . S
C1486 C1487 1.394 . S
C1486 H1494 0.930 . S
C1487 C1486 1.394 . S
C1487 C1488 1.383 . S
C1487 H1495 0.929 . S
C1488 C1487 1.383 . S
C1488 C1489 1.377 . S
C1489 H1473 0.930 . S
C1489 C1488 1.377 . S
C1489 C1490 1.379 . S
C1490 H1474 0.931 . S
C1490 C1484 1.383 . S
C1490 C1489 1.379 . S
H1491 C1485 0.959 . S
H1492 C1485 0.961 . S
H1493 C1485 0.960 . S
H1494 C1486 0.930 . S
H1495 C1487 0.929 . S
H1496 C1504 0.929 . S
H1497 C1506 0.930 . S
H1498 C1508 0.930 . S
H1499 C1511 0.929 . S
H1500 C1514 0.930 1_655 S
H1501 C1516 0.960 . S
H1502 C1516 0.960 . S
H1503 C1516 0.960 . S
C1504 H1496 0.929 . S
C1504 C1505 1.377 . S
C1504 C1506 1.384 . S
C1505 C1504 1.377 . S
C1505 C1511 1.390 . S
C1506 H1497 0.930 . S
C1506 C1504 1.384 . S
C1506 C1507 1.372 . S
C1507 C1506 1.372 . S
C1507 C1508 1.400 . S
C1507 C1512 1.490 . S
C1508 H1498 0.930 . S
C1508 C1507 1.400 . S
C1508 C1511 1.386 . S
H1509 C1525 0.930 . S
H1510 C1526 0.931 . S
C1511 H1499 0.929 . S
C1511 C1505 1.390 . S
C1511 C1508 1.386 . S
C1512 C1507 1.490 . S
C1512 C1514 1.395 . S
C1512 C1515 1.403 . S
H1513 C1519 0.930 . S
C1514 H1500 0.930 1_455 S
C1514 C1512 1.395 . S
C1514 C1517 1.403 . S
C1515 C1512 1.403 . S
C1515 C1516 1.524 . S
C1515 C1519 1.400 . S
C1516 H1501 0.960 . S
C1516 H1502 0.960 . S
C1516 H1503 0.960 . S
C1516 C1515 1.524 . S
C1517 C1514 1.403 . S
C1517 C1518 1.392 . S
C1517 C1521 1.495 1_455 S
C1518 C1517 1.392 . S
C1518 C1519 1.385 . S
C1518 C1520 1.478 . S
C1519 H1513 0.930 . S
C1519 C1515 1.400 . S
C1519 C1518 1.385 . S
C1520 C1518 1.478 . S
C1520 C1522 1.381 . S
C1520 C1526 1.383 . S
C1521 C1517 1.495 1_655 S
C1521 H1527 0.959 . S
C1521 H1528 0.961 . S
C1521 H1529 0.960 . S
C1522 C1520 1.381 . S
C1522 C1523 1.394 . S
C1522 H1530 0.930 . S
C1523 C1522 1.394 . S
C1523 C1524 1.383 . S
C1523 H1531 0.929 . S
C1524 C1523 1.383 . S
C1524 C1525 1.377 . S
C1525 H1509 0.930 . S
C1525 C1524 1.377 . S
C1525 C1526 1.379 . S
C1526 H1510 0.931 . S
C1526 C1520 1.383 . S
C1526 C1525 1.379 . S
H1527 C1521 0.959 . S
H1528 C1521 0.961 . S
H1529 C1521 0.960 . S
H1530 C1522 0.930 . S
H1531 C1523 0.929 . S
H1532 C1540 0.929 . S
H1533 C1542 0.930 . S
H1534 C1544 0.930 . S
H1535 C1547 0.929 . S
H1536 C1550 0.930 . S
H1537 C1552 0.960 . S
H1538 C1552 0.960 . S
H1539 C1552 0.960 . S
C1540 H1532 0.929 . S
C1540 C1541 1.377 . S
C1540 C1542 1.384 . S
C1541 C1540 1.377 . S
C1541 C1547 1.390 . S
C1542 H1533 0.930 . S
C1542 C1540 1.384 . S
C1542 C1543 1.372 . S
C1543 C1542 1.372 . S
C1543 C1544 1.400 . S
C1543 C1548 1.490 . S
C1544 H1534 0.930 . S
C1544 C1543 1.400 . S
C1544 C1547 1.386 . S
H1545 C1561 0.930 . S
H1546 C1562 0.931 . S
C1547 H1535 0.929 . S
C1547 C1541 1.390 . S
C1547 C1544 1.386 . S
C1548 C1543 1.490 . S
C1548 C1550 1.395 . S
C1548 C1551 1.403 . S
H1549 C1555 0.930 . S
C1550 H1536 0.930 . S
C1550 C1548 1.395 . S
C1550 C1553 1.403 . S
C1551 C1548 1.403 . S
C1551 C1552 1.524 . S
C1551 C1555 1.400 . S
C1552 H1537 0.960 . S
C1552 H1538 0.960 . S
C1552 H1539 0.960 . S
C1552 C1551 1.524 . S
C1553 C1550 1.403 . S
C1553 C1554 1.392 . S
C1553 C1557 1.495 . S
C1554 C1553 1.392 . S
C1554 C1555 1.385 . S
C1554 C1556 1.478 . S
C1555 H1549 0.930 . S
C1555 C1551 1.400 . S
C1555 C1554 1.385 . S
C1556 C1554 1.478 . S
C1556 C1558 1.381 . S
C1556 C1562 1.383 . S
C1557 C1553 1.495 . S
C1557 H1563 0.959 . S
C1557 H1564 0.961 . S
C1557 H1565 0.960 . S
C1558 C1556 1.381 . S
C1558 C1559 1.394 . S
C1558 H1566 0.930 . S
C1559 C1558 1.394 . S
C1559 C1560 1.383 . S
C1559 H1567 0.929 . S
C1560 C1559 1.383 . S
C1560 C1561 1.377 . S
C1561 H1545 0.930 . S
C1561 C1560 1.377 . S
C1561 C1562 1.379 . S
C1562 H1546 0.931 . S
C1562 C1556 1.383 . S
C1562 C1561 1.379 . S
H1563 C1557 0.959 . S
H1564 C1557 0.961 . S
H1565 C1557 0.960 . S
H1566 C1558 0.930 . S
H1567 C1559 0.929 . S
H1568 C1576 0.929 . S
H1569 C1578 0.930 . S
H1570 C1580 0.930 . S
H1571 C1583 0.929 . S
H1572 C1586 0.930 . S
H1573 C1588 0.960 . S
H1574 C1588 0.960 . S
H1575 C1588 0.960 . S
C1576 H1568 0.929 . S
C1576 C1577 1.377 . S
C1576 C1578 1.384 . S
C1577 C1576 1.377 . S
C1577 C1583 1.390 . S
C1578 H1569 0.930 . S
C1578 C1576 1.384 . S
C1578 C1579 1.372 . S
C1579 C1578 1.372 . S
C1579 C1580 1.400 . S
C1579 C1584 1.490 . S
C1580 H1570 0.930 . S
C1580 C1579 1.400 . S
C1580 C1583 1.386 . S
H1581 C1597 0.930 . S
H1582 C1598 0.931 . S
C1583 H1571 0.929 . S
C1583 C1577 1.390 . S
C1583 C1580 1.386 . S
C1584 C1579 1.490 . S
C1584 C1586 1.395 . S
C1584 C1587 1.403 . S
H1585 C1591 0.930 . S
C1586 H1572 0.930 . S
C1586 C1584 1.395 . S
C1586 C1589 1.403 . S
C1587 C1584 1.403 . S
C1587 C1588 1.524 . S
C1587 C1591 1.400 . S
C1588 H1573 0.960 . S
C1588 H1574 0.960 . S
C1588 H1575 0.960 . S
C1588 C1587 1.524 . S
C1589 C1586 1.403 . S
C1589 C1590 1.392 . S
C1589 C1593 1.495 . S
C1590 C1589 1.392 . S
C1590 C1591 1.385 . S
C1590 C1592 1.478 . S
C1591 H1585 0.930 . S
C1591 C1587 1.400 . S
C1591 C1590 1.385 . S
C1592 C1590 1.478 . S
C1592 C1594 1.381 . S
C1592 C1598 1.383 . S
C1593 C1589 1.495 . S
C1593 H1599 0.959 . S
C1593 H1600 0.961 . S
C1593 H1601 0.960 . S
C1594 C1592 1.381 . S
C1594 C1595 1.394 . S
C1594 H1602 0.930 . S
C1595 C1594 1.394 . S
C1595 C1596 1.383 . S
C1595 H1603 0.929 . S
C1596 C1595 1.383 . S
C1596 C1597 1.377 . S
C1597 H1581 0.930 . S
C1597 C1596 1.377 . S
C1597 C1598 1.379 . S
C1598 H1582 0.931 . S
C1598 C1592 1.383 . S
C1598 C1597 1.379 . S
H1599 C1593 0.959 . S
H1600 C1593 0.961 . S
H1601 C1593 0.960 . S
H1602 C1594 0.930 . S
H1603 C1595 0.929 . S
H1604 C1612 0.929 . S
H1605 C1614 0.930 . S
H1606 C1616 0.930 . S
H1607 C1619 0.929 . S
H1608 C1622 0.930 . S
H1609 C1624 0.960 . S
H1610 C1624 0.960 . S
H1611 C1624 0.960 . S
C1612 H1604 0.929 . S
C1612 C1613 1.377 . S
C1612 C1614 1.384 . S
C1613 C1612 1.377 . S
C1613 C1619 1.390 . S
C1614 H1605 0.930 . S
C1614 C1612 1.384 . S
C1614 C1615 1.372 . S
C1615 C1614 1.372 . S
C1615 C1616 1.400 . S
C1615 C1620 1.490 . S
C1616 H1606 0.930 . S
C1616 C1615 1.400 . S
C1616 C1619 1.386 . S
H1617 C1633 0.930 . S
H1618 C1634 0.931 . S
C1619 H1607 0.929 . S
C1619 C1613 1.390 . S
C1619 C1616 1.386 . S
C1620 C1615 1.490 . S
C1620 C1622 1.395 . S
C1620 C1623 1.403 . S
H1621 C1627 0.930 . S
C1622 H1608 0.930 . S
C1622 C1620 1.395 . S
C1622 C1625 1.403 . S
C1623 C1620 1.403 . S
C1623 C1624 1.524 . S
C1623 C1627 1.400 . S
C1624 H1609 0.960 . S
C1624 H1610 0.960 . S
C1624 H1611 0.960 . S
C1624 C1623 1.524 . S
C1625 C1622 1.403 . S
C1625 C1626 1.392 . S
C1625 C1629 1.495 . S
C1626 C1625 1.392 . S
C1626 C1627 1.385 . S
C1626 C1628 1.478 . S
C1627 H1621 0.930 . S
C1627 C1623 1.400 . S
C1627 C1626 1.385 . S
C1628 C1626 1.478 . S
C1628 C1630 1.381 . S
C1628 C1634 1.383 . S
C1629 C1625 1.495 . S
C1629 H1635 0.959 . S
C1629 H1636 0.961 . S
C1629 H1637 0.960 . S
C1630 C1628 1.381 . S
C1630 C1631 1.394 . S
C1630 H1638 0.930 . S
C1631 C1630 1.394 . S
C1631 C1632 1.383 . S
C1631 H1639 0.929 . S
C1632 C1631 1.383 . S
C1632 C1633 1.377 . S
C1633 H1617 0.930 . S
C1633 C1632 1.377 . S
C1633 C1634 1.379 . S
C1634 H1618 0.931 . S
C1634 C1628 1.383 . S
C1634 C1633 1.379 . S
H1635 C1629 0.959 . S
H1636 C1629 0.961 . S
H1637 C1629 0.960 . S
H1638 C1630 0.930 . S
H1639 C1631 0.929 . S
H1640 C1648 0.929 . S
H1641 C1650 0.930 . S
H1642 C1652 0.930 1_655 S
H1643 C1655 0.929 1_655 S
H1644 C1658 0.930 . S
H1645 C1660 0.960 . S
H1646 C1660 0.960 . S
H1647 C1660 0.960 1_655 S
C1648 H1640 0.929 . S
C1648 C1649 1.377 . S
C1648 C1650 1.384 . S
C1649 C1648 1.377 . S
C1649 C1655 1.390 . S
C1650 H1641 0.930 . S
C1650 C1648 1.384 . S
C1650 C1651 1.372 . S
C1651 C1650 1.372 . S
C1651 C1652 1.400 . S
C1651 C1656 1.490 . S
C1652 H1642 0.930 1_455 S
C1652 C1651 1.400 . S
C1652 C1655 1.386 . S
H1653 C1669 0.930 1_655 S
H1654 C1670 0.931 1_655 S
C1655 H1643 0.929 1_455 S
C1655 C1649 1.390 . S
C1655 C1652 1.386 . S
C1656 C1651 1.490 . S
C1656 C1658 1.395 . S
C1656 C1659 1.403 . S
H1657 C1663 0.930 . S
C1658 H1644 0.930 . S
C1658 C1656 1.395 . S
C1658 C1661 1.403 . S
C1659 C1656 1.403 . S
C1659 C1660 1.524 . S
C1659 C1663 1.400 . S
C1660 H1645 0.960 . S
C1660 H1646 0.960 . S
C1660 H1647 0.960 1_455 S
C1660 C1659 1.524 . S
C1661 C1658 1.403 . S
C1661 C1662 1.392 . S
C1661 C1665 1.495 . S
C1662 C1661 1.392 . S
C1662 C1663 1.385 . S
C1662 C1664 1.478 . S
C1663 H1657 0.930 . S
C1663 C1659 1.400 . S
C1663 C1662 1.385 . S
C1664 C1662 1.478 . S
C1664 C1666 1.381 . S
C1664 C1670 1.383 . S
C1665 C1661 1.495 . S
C1665 H1671 0.959 . S
C1665 H1672 0.961 . S
C1665 H1673 0.960 . S
C1666 C1664 1.381 . S
C1666 C1667 1.394 . S
C1666 H1674 0.930 . S
C1667 C1666 1.394 . S
C1667 C1668 1.383 . S
C1667 H1675 0.929 . S
C1668 C1667 1.383 . S
C1668 C1669 1.377 . S
C1669 H1653 0.930 1_455 S
C1669 C1668 1.377 . S
C1669 C1670 1.379 . S
C1670 H1654 0.931 1_455 S
C1670 C1664 1.383 . S
C1670 C1669 1.379 . S
H1671 C1665 0.959 . S
H1672 C1665 0.961 . S
H1673 C1665 0.960 . S
H1674 C1666 0.930 . S
H1675 C1667 0.929 . S
H1676 C1684 0.929 . S
H1677 C1686 0.930 . S
H1678 C1688 0.930 . S
H1679 C1691 0.929 . S
H1680 C1694 0.930 . S
H1681 C1696 0.960 . S
H1682 C1696 0.960 . S
H1683 C1696 0.960 . S
C1684 H1676 0.929 . S
C1684 C1685 1.377 . S
C1684 C1686 1.384 . S
C1685 C1684 1.377 . S
C1685 C1691 1.390 . S
C1686 H1677 0.930 . S
C1686 C1684 1.384 . S
C1686 C1687 1.372 . S
C1687 C1686 1.372 . S
C1687 C1688 1.400 . S
C1687 C1692 1.490 . S
C1688 H1678 0.930 . S
C1688 C1687 1.400 . S
C1688 C1691 1.386 . S
H1689 C1705 0.930 . S
H1690 C1706 0.931 . S
C1691 H1679 0.929 . S
C1691 C1685 1.390 . S
C1691 C1688 1.386 . S
C1692 C1687 1.490 . S
C1692 C1694 1.395 . S
C1692 C1695 1.403 . S
H1693 C1699 0.930 . S
C1694 H1680 0.930 . S
C1694 C1692 1.395 . S
C1694 C1697 1.403 . S
C1695 C1692 1.403 . S
C1695 C1696 1.524 . S
C1695 C1699 1.400 . S
C1696 H1681 0.960 . S
C1696 H1682 0.960 . S
C1696 H1683 0.960 . S
C1696 C1695 1.524 . S
C1697 C1694 1.403 . S
C1697 C1698 1.392 . S
C1697 C1701 1.495 . S
C1698 C1697 1.392 . S
C1698 C1699 1.385 . S
C1698 C1700 1.478 . S
C1699 H1693 0.930 . S
C1699 C1695 1.400 . S
C1699 C1698 1.385 . S
C1700 C1698 1.478 . S
C1700 C1702 1.381 . S
C1700 C1706 1.383 . S
C1701 C1697 1.495 . S
C1701 H1707 0.959 . S
C1701 H1708 0.961 . S
C1701 H1709 0.960 . S
C1702 C1700 1.381 . S
C1702 C1703 1.394 . S
C1702 H1710 0.930 . S
C1703 C1702 1.394 . S
C1703 C1704 1.383 . S
C1703 H1711 0.929 . S
C1704 C1703 1.383 . S
C1704 C1705 1.377 . S
C1705 H1689 0.930 . S
C1705 C1704 1.377 . S
C1705 C1706 1.379 . S
C1706 H1690 0.931 . S
C1706 C1700 1.383 . S
C1706 C1705 1.379 . S
H1707 C1701 0.959 . S
H1708 C1701 0.961 . S
H1709 C1701 0.960 . S
H1710 C1702 0.930 . S
H1711 C1703 0.929 . S
H1712 C1720 0.929 . S
H1713 C1722 0.930 . S
H1714 C1724 0.930 . S
H1715 C1727 0.929 . S
H1716 C1730 0.930 . S
H1717 C1732 0.960 . S
H1718 C1732 0.960 . S
H1719 C1732 0.960 . S
C1720 H1712 0.929 . S
C1720 C1721 1.377 . S
C1720 C1722 1.384 . S
C1721 C1720 1.377 . S
C1721 C1727 1.390 . S
C1722 H1713 0.930 . S
C1722 C1720 1.384 . S
C1722 C1723 1.372 . S
C1723 C1722 1.372 . S
C1723 C1724 1.400 . S
C1723 C1728 1.490 . S
C1724 H1714 0.930 . S
C1724 C1723 1.400 . S
C1724 C1727 1.386 . S
H1725 C1741 0.930 1_554 S
H1726 C1742 0.931 . S
C1727 H1715 0.929 . S
C1727 C1721 1.390 . S
C1727 C1724 1.386 . S
C1728 C1723 1.490 . S
C1728 C1730 1.395 . S
C1728 C1731 1.403 . S
H1729 C1735 0.930 . S
C1730 H1716 0.930 . S
C1730 C1728 1.395 . S
C1730 C1733 1.403 . S
C1731 C1728 1.403 . S
C1731 C1732 1.524 . S
C1731 C1735 1.400 . S
C1732 H1717 0.960 . S
C1732 H1718 0.960 . S
C1732 H1719 0.960 . S
C1732 C1731 1.524 . S
C1733 C1730 1.403 . S
C1733 C1734 1.392 . S
C1733 C1737 1.495 . S
C1734 C1733 1.392 . S
C1734 C1735 1.385 . S
C1734 C1736 1.478 . S
C1735 H1729 0.930 . S
C1735 C1731 1.400 . S
C1735 C1734 1.385 . S
C1736 C1734 1.478 . S
C1736 C1738 1.381 . S
C1736 C1742 1.383 . S
C1737 C1733 1.495 . S
C1737 H1743 0.959 . S
C1737 H1744 0.961 . S
C1737 H1745 0.960 . S
C1738 C1736 1.381 . S
C1738 C1739 1.394 . S
C1738 H1746 0.930 . S
C1739 C1738 1.394 . S
C1739 C1740 1.383 . S
C1739 H1747 0.929 . S
C1740 C1739 1.383 . S
C1740 C1741 1.377 . S
C1741 H1725 0.930 1_556 S
C1741 C1740 1.377 . S
C1741 C1742 1.379 . S
C1742 H1726 0.931 . S
C1742 C1736 1.383 . S
C1742 C1741 1.379 . S
H1743 C1737 0.959 . S
H1744 C1737 0.961 . S
H1745 C1737 0.960 . S
H1746 C1738 0.930 . S
H1747 C1739 0.929 . S
H1748 C1756 0.929 . S
H1749 C1758 0.930 . S
H1750 C1760 0.930 . S
H1751 C1763 0.929 . S
H1752 C1766 0.930 . S
H1753 C1768 0.960 . S
H1754 C1768 0.960 . S
H1755 C1768 0.960 . S
C1756 H1748 0.929 . S
C1756 C1757 1.377 . S
C1756 C1758 1.384 . S
C1757 C1756 1.377 . S
C1757 C1763 1.390 . S
C1758 H1749 0.930 . S
C1758 C1756 1.384 . S
C1758 C1759 1.372 . S
C1759 C1758 1.372 . S
C1759 C1760 1.400 . S
C1759 C1764 1.490 . S
C1760 H1750 0.930 . S
C1760 C1759 1.400 . S
C1760 C1763 1.386 . S
H1761 C1777 0.930 . S
H1762 C1778 0.931 . S
C1763 H1751 0.929 . S
C1763 C1757 1.390 . S
C1763 C1760 1.386 . S
C1764 C1759 1.490 . S
C1764 C1766 1.395 . S
C1764 C1767 1.403 . S
H1765 C1771 0.930 . S
C1766 H1752 0.930 . S
C1766 C1764 1.395 . S
C1766 C1769 1.403 . S
C1767 C1764 1.403 . S
C1767 C1768 1.524 . S
C1767 C1771 1.400 . S
C1768 H1753 0.960 . S
C1768 H1754 0.960 . S
C1768 H1755 0.960 . S
C1768 C1767 1.524 . S
C1769 C1766 1.403 . S
C1769 C1770 1.392 . S
C1769 C1773 1.495 . S
C1770 C1769 1.392 . S
C1770 C1771 1.385 . S
C1770 C1772 1.478 . S
C1771 H1765 0.930 . S
C1771 C1767 1.400 . S
C1771 C1770 1.385 . S
C1772 C1770 1.478 . S
C1772 C1774 1.381 . S
C1772 C1778 1.383 . S
C1773 C1769 1.495 . S
C1773 H1779 0.959 . S
C1773 H1780 0.961 . S
C1773 H1781 0.960 . S
C1774 C1772 1.381 . S
C1774 C1775 1.394 . S
C1774 H1782 0.930 . S
C1775 C1774 1.394 . S
C1775 C1776 1.383 . S
C1775 H1783 0.929 . S
C1776 C1775 1.383 . S
C1776 C1777 1.377 . S
C1777 H1761 0.930 . S
C1777 C1776 1.377 . S
C1777 C1778 1.379 . S
C1778 H1762 0.931 . S
C1778 C1772 1.383 . S
C1778 C1777 1.379 . S
H1779 C1773 0.959 . S
H1780 C1773 0.961 . S
H1781 C1773 0.960 . S
H1782 C1774 0.930 . S
H1783 C1775 0.929 . S
H1784 C1792 0.929 . S
H1785 C1794 0.930 . S
H1786 C1796 0.936 . S
H1787 C1799 0.929 1_565 S
H1788 C1802 0.930 . S
H1789 C1804 0.960 . S
H1790 C1804 0.960 . S
H1791 C1804 0.960 . S
C1792 H1784 0.929 . S
C1792 C1793 1.377 . S
C1792 C1794 1.384 . S
C1793 C1792 1.377 . S
C1793 C1799 1.390 . S
C1794 H1785 0.930 . S
C1794 C1792 1.384 . S
C1794 C1795 1.372 . S
C1795 C1794 1.372 . S
C1795 C1796 1.400 . S
C1795 C1800 1.490 . S
C1796 H1786 0.936 . S
C1796 C1795 1.400 . S
C1796 C1799 1.386 . S
H1797 C1813 0.930 . S
H1798 C1814 0.931 . S
C1799 H1787 0.929 1_545 S
C1799 C1793 1.390 . S
C1799 C1796 1.386 . S
C1800 C1795 1.490 . S
C1800 C1802 1.395 . S
C1800 C1803 1.398 1_545 S
H1801 C1807 0.930 1_565 S
C1802 H1788 0.930 . S
C1802 C1800 1.395 . S
C1802 C1805 1.403 . S
C1803 C1800 1.398 1_565 S
C1803 C1804 1.530 . S
C1803 C1807 1.398 1_565 S
C1804 H1789 0.960 . S
C1804 H1790 0.960 . S
C1804 H1791 0.960 . S
C1804 C1803 1.530 . S
C1805 C1802 1.403 . S
C1805 C1806 1.392 . S
C1805 C1809 1.495 . S
C1806 C1805 1.392 . S
C1806 C1807 1.385 . S
C1806 C1808 1.478 . S
C1807 H1801 0.930 1_545 S
C1807 C1803 1.398 1_545 S
C1807 C1806 1.385 . S
C1808 C1806 1.478 . S
C1808 C1810 1.381 . S
C1808 C1814 1.383 . S
C1809 C1805 1.495 . S
C1809 H1815 0.959 . S
C1809 H1816 0.961 . S
C1809 H1817 0.960 . S
C1810 C1808 1.381 . S
C1810 C1811 1.394 . S
C1810 H1818 0.930 . S
C1811 C1810 1.394 . S
C1811 C1812 1.383 . S
C1811 H1819 0.929 . S
C1812 C1811 1.383 . S
C1812 C1813 1.377 . S
C1813 H1797 0.930 . S
C1813 C1812 1.377 . S
C1813 C1814 1.379 . S
C1814 H1798 0.931 . S
C1814 C1808 1.383 . S
C1814 C1813 1.379 . S
H1815 C1809 0.959 . S
H1816 C1809 0.961 . S
H1817 C1809 0.960 . S
H1818 C1810 0.930 . S
H1819 C1811 0.929 . S
H1820 C1828 0.929 . S
H1821 C1830 0.930 . S
H1822 C1832 0.930 . S
H1823 C1835 0.929 . S
H1824 C1838 0.930 . S
H1825 C1840 0.960 . S
H1826 C1840 0.960 . S
H1827 C1840 0.960 . S
C1828 H1820 0.929 . S
C1828 C1829 1.377 . S
C1828 C1830 1.384 . S
C1829 C1828 1.377 . S
C1829 C1835 1.390 . S
C1830 H1821 0.930 . S
C1830 C1828 1.384 . S
C1830 C1831 1.372 . S
C1831 C1830 1.372 . S
C1831 C1832 1.400 . S
C1831 C1836 1.490 . S
C1832 H1822 0.930 . S
C1832 C1831 1.400 . S
C1832 C1835 1.386 . S
H1833 C1849 0.930 . S
H1834 C1850 0.931 . S
C1835 H1823 0.929 . S
C1835 C1829 1.390 . S
C1835 C1832 1.386 . S
C1836 C1831 1.490 . S
C1836 C1838 1.395 . S
C1836 C1839 1.403 . S
H1837 C1843 0.930 . S
C1838 H1824 0.930 . S
C1838 C1836 1.395 . S
C1838 C1841 1.403 . S
C1839 C1836 1.403 . S
C1839 C1840 1.524 . S
C1839 C1843 1.400 . S
C1840 H1825 0.960 . S
C1840 H1826 0.960 . S
C1840 H1827 0.960 . S
C1840 C1839 1.524 . S
C1841 C1838 1.403 . S
C1841 C1842 1.392 . S
C1841 C1845 1.495 . S
C1842 C1841 1.392 . S
C1842 C1843 1.385 . S
C1842 C1844 1.478 . S
C1843 H1837 0.930 . S
C1843 C1839 1.400 . S
C1843 C1842 1.385 . S
C1844 C1842 1.478 . S
C1844 C1846 1.381 . S
C1844 C1850 1.383 . S
C1845 C1841 1.495 . S
C1845 H1851 0.959 . S
C1845 H1852 0.961 . S
C1845 H1853 0.960 . S
C1846 C1844 1.381 . S
C1846 C1847 1.394 . S
C1846 H1854 0.930 . S
C1847 C1846 1.394 . S
C1847 C1848 1.383 . S
C1847 H1855 0.929 . S
C1848 C1847 1.383 . S
C1848 C1849 1.377 . S
C1849 H1833 0.930 . S
C1849 C1848 1.377 . S
C1849 C1850 1.379 . S
C1850 H1834 0.931 . S
C1850 C1844 1.383 . S
C1850 C1849 1.379 . S
H1851 C1845 0.959 . S
H1852 C1845 0.961 . S
H1853 C1845 0.960 . S
H1854 C1846 0.930 . S
H1855 C1847 0.929 . S
H1856 C1864 0.929 . S
H1857 C1866 0.930 . S
H1858 C1868 0.930 . S
H1859 C1871 0.929 . S
H1860 C1874 0.930 . S
H1861 C1876 0.960 . S
H1862 C1876 0.960 . S
H1863 C1876 0.960 . S
C1864 H1856 0.929 . S
C1864 C1865 1.377 . S
C1864 C1866 1.384 . S
C1865 C1864 1.377 . S
C1865 C1871 1.390 . S
C1866 H1857 0.930 . S
C1866 C1864 1.384 . S
C1866 C1867 1.372 . S
C1867 C1866 1.372 . S
C1867 C1868 1.400 . S
C1867 C1872 1.490 . S
C1868 H1858 0.930 . S
C1868 C1867 1.400 . S
C1868 C1871 1.386 . S
H1869 C1885 0.930 1_565 S
H1870 C1886 0.931 1_565 S
C1871 H1859 0.929 . S
C1871 C1865 1.390 . S
C1871 C1868 1.386 . S
C1872 C1867 1.490 . S
C1872 C1874 1.395 . S
C1872 C1875 1.403 . S
H1873 C1879 0.930 . S
C1874 H1860 0.930 . S
C1874 C1872 1.395 . S
C1874 C1877 1.403 . S
C1875 C1872 1.403 . S
C1875 C1876 1.524 . S
C1875 C1879 1.400 . S
C1876 H1861 0.960 . S
C1876 H1862 0.960 . S
C1876 H1863 0.960 . S
C1876 C1875 1.524 . S
C1877 C1874 1.403 . S
C1877 C1878 1.392 . S
C1877 C1881 1.495 . S
C1878 C1877 1.392 . S
C1878 C1879 1.385 . S
C1878 C1880 1.478 . S
C1879 H1873 0.930 . S
C1879 C1875 1.400 . S
C1879 C1878 1.385 . S
C1880 C1878 1.478 . S
C1880 C1882 1.381 . S
C1880 C1886 1.383 . S
C1881 C1877 1.495 . S
C1881 H1887 0.959 . S
C1881 H1888 0.961 . S
C1881 H1889 0.960 . S
C1882 C1880 1.381 . S
C1882 C1883 1.394 . S
C1882 H1890 0.930 . S
C1883 C1882 1.394 . S
C1883 C1884 1.383 . S
C1883 H1891 0.929 . S
C1884 C1883 1.383 . S
C1884 C1885 1.377 . S
C1885 H1869 0.930 1_545 S
C1885 C1884 1.377 . S
C1885 C1886 1.379 . S
C1886 H1870 0.931 1_545 S
C1886 C1880 1.383 . S
C1886 C1885 1.379 . S
H1887 C1881 0.959 . S
H1888 C1881 0.961 . S
H1889 C1881 0.960 . S
H1890 C1882 0.930 . S
H1891 C1883 0.929 . S
H1892 C1900 0.929 . S
H1893 C1902 0.930 . S
H1894 C1904 0.930 . S
H1895 C1907 0.929 . S
H1896 C1910 0.930 . S
H1897 C1912 0.960 . S
H1898 C1912 0.960 . S
H1899 C1912 0.960 . S
C1900 H1892 0.929 . S
C1900 C1901 1.377 . S
C1900 C1902 1.384 . S
C1901 C1900 1.377 . S
C1901 C1907 1.390 . S
C1902 H1893 0.930 . S
C1902 C1900 1.384 . S
C1902 C1903 1.372 . S
C1903 C1902 1.372 . S
C1903 C1904 1.400 . S
C1903 C1908 1.490 . S
C1904 H1894 0.930 . S
C1904 C1903 1.400 . S
C1904 C1907 1.386 . S
H1905 C1921 0.930 . S
H1906 C1922 0.931 . S
C1907 H1895 0.929 . S
C1907 C1901 1.390 . S
C1907 C1904 1.386 . S
C1908 C1903 1.490 . S
C1908 C1910 1.395 . S
C1908 C1911 1.403 . S
H1909 C1915 0.930 . S
C1910 H1896 0.930 . S
C1910 C1908 1.395 . S
C1910 C1913 1.403 . S
C1911 C1908 1.403 . S
C1911 C1912 1.524 . S
C1911 C1915 1.400 . S
C1912 H1897 0.960 . S
C1912 H1898 0.960 . S
C1912 H1899 0.960 . S
C1912 C1911 1.524 . S
C1913 C1910 1.403 . S
C1913 C1914 1.392 . S
C1913 C1917 1.495 . S
C1914 C1913 1.392 . S
C1914 C1915 1.385 . S
C1914 C1916 1.478 . S
C1915 H1909 0.930 . S
C1915 C1911 1.400 . S
C1915 C1914 1.385 . S
C1916 C1914 1.478 . S
C1916 C1918 1.381 . S
C1916 C1922 1.383 . S
C1917 C1913 1.495 . S
C1917 H1923 0.959 . S
C1917 H1924 0.961 . S
C1917 H1925 0.960 . S
C1918 C1916 1.381 . S
C1918 C1919 1.394 . S
C1918 H1926 0.930 . S
C1919 C1918 1.394 . S
C1919 C1920 1.383 . S
C1919 H1927 0.929 . S
C1920 C1919 1.383 . S
C1920 C1921 1.377 . S
C1921 H1905 0.930 . S
C1921 C1920 1.377 . S
C1921 C1922 1.379 . S
C1922 H1906 0.931 . S
C1922 C1916 1.383 . S
C1922 C1921 1.379 . S
H1923 C1917 0.959 . S
H1924 C1917 0.961 . S
H1925 C1917 0.960 . S
H1926 C1918 0.930 . S
H1927 C1919 0.929 . S
H1928 C1936 0.929 . S
H1929 C1938 0.930 . S
H1930 C1940 0.937 . S
H1931 C1943 0.929 1_545 S
H1932 C1946 0.930 . S
H1933 C1948 0.960 . S
H1934 C1948 0.960 . S
H1935 C1948 0.960 . S
C1936 H1928 0.929 . S
C1936 C1937 1.377 . S
C1936 C1938 1.384 . S
C1937 C1936 1.377 . S
C1937 C1943 1.390 . S
C1938 H1929 0.930 . S
C1938 C1936 1.384 . S
C1938 C1939 1.372 . S
C1939 C1938 1.372 . S
C1939 C1940 1.399 1_565 S
C1939 C1944 1.490 . S
C1940 H1930 0.937 . S
C1940 C1939 1.399 1_545 S
C1940 C1943 1.380 1_545 S
H1941 C1957 0.930 . S
H1942 C1958 0.931 . S
C1943 H1931 0.929 1_565 S
C1943 C1937 1.390 . S
C1943 C1940 1.380 1_565 S
C1944 C1939 1.490 . S
C1944 C1946 1.395 1_565 S
C1944 C1947 1.403 . S
H1945 C1951 0.930 . S
C1946 H1932 0.930 . S
C1946 C1944 1.395 1_545 S
C1946 C1949 1.403 . S
C1947 C1944 1.403 . S
C1947 C1948 1.524 . S
C1947 C1951 1.400 . S
C1948 H1933 0.960 . S
C1948 H1934 0.960 . S
C1948 H1935 0.960 . S
C1948 C1947 1.524 . S
C1949 C1946 1.403 . S
C1949 C1950 1.392 . S
C1949 C1953 1.495 . S
C1950 C1949 1.392 . S
C1950 C1951 1.385 1_545 S
C1950 C1952 1.478 . S
C1951 H1945 0.930 . S
C1951 C1947 1.400 . S
C1951 C1950 1.385 1_565 S
C1952 C1950 1.478 . S
C1952 C1954 1.381 . S
C1952 C1958 1.383 . S
C1953 C1949 1.495 . S
C1953 H1959 0.959 . S
C1953 H1960 0.961 . S
C1953 H1961 0.960 . S
C1954 C1952 1.381 . S
C1954 C1955 1.394 . S
C1954 H1962 0.930 1_545 S
C1955 C1954 1.394 . S
C1955 C1956 1.383 . S
C1955 H1963 0.929 1_545 S
C1956 C1955 1.383 . S
C1956 C1957 1.377 . S
C1957 H1941 0.930 . S
C1957 C1956 1.377 . S
C1957 C1958 1.379 . S
C1958 H1942 0.931 . S
C1958 C1952 1.383 . S
C1958 C1957 1.379 . S
H1959 C1953 0.959 . S
H1960 C1953 0.961 . S
H1961 C1953 0.960 . S
H1962 C1954 0.930 1_565 S
H1963 C1955 0.929 1_565 S
H1964 C1972 0.929 . S
H1965 C1974 0.930 . S
H1966 C1976 0.930 . S
H1967 C1979 0.929 . S
H1968 C1982 0.930 . S
H1969 C1984 0.960 . S
H1970 C1984 0.960 . S
H1971 C1984 0.960 . S
C1972 H1964 0.929 . S
C1972 C1973 1.377 . S
C1972 C1974 1.384 . S
C1973 C1972 1.377 . S
C1973 C1979 1.390 . S
C1974 H1965 0.930 . S
C1974 C1972 1.384 . S
C1974 C1975 1.372 . S
C1975 C1974 1.372 . S
C1975 C1976 1.400 . S
C1975 C1980 1.490 . S
C1976 H1966 0.930 . S
C1976 C1975 1.400 . S
C1976 C1979 1.386 . S
H1977 C1993 0.930 . S
H1978 C1994 0.931 . S
C1979 H1967 0.929 . S
C1979 C1973 1.390 . S
C1979 C1976 1.386 . S
C1980 C1975 1.490 . S
C1980 C1982 1.395 . S
C1980 C1983 1.403 . S
H1981 C1987 0.930 . S
C1982 H1968 0.930 . S
C1982 C1980 1.395 . S
C1982 C1985 1.403 . S
C1983 C1980 1.403 . S
C1983 C1984 1.524 . S
C1983 C1987 1.400 . S
C1984 H1969 0.960 . S
C1984 H1970 0.960 . S
C1984 H1971 0.960 . S
C1984 C1983 1.524 . S
C1985 C1982 1.403 . S
C1985 C1986 1.392 . S
C1985 C1989 1.495 . S
C1986 C1985 1.392 . S
C1986 C1987 1.385 . S
C1986 C1988 1.478 . S
C1987 H1981 0.930 . S
C1987 C1983 1.400 . S
C1987 C1986 1.385 . S
C1988 C1986 1.478 . S
C1988 C1990 1.381 . S
C1988 C1994 1.383 . S
C1989 C1985 1.495 . S
C1989 H1995 0.959 . S
C1989 H1996 0.961 . S
C1989 H1997 0.960 . S
C1990 C1988 1.381 . S
C1990 C1991 1.394 . S
C1990 H1998 0.930 . S
C1991 C1990 1.394 . S
C1991 C1992 1.383 . S
C1991 H1999 0.929 . S
C1992 C1991 1.383 . S
C1992 C1993 1.377 . S
C1993 H1977 0.930 . S
C1993 C1992 1.377 . S
C1993 C1994 1.379 . S
C1994 H1978 0.931 . S
C1994 C1988 1.383 . S
C1994 C1993 1.379 . S
H1995 C1989 0.959 . S
H1996 C1989 0.961 . S
H1997 C1989 0.960 . S
H1998 C1990 0.930 . S
H1999 C1991 0.929 . S
H2000 C2008 0.929 . S
H2001 C2010 0.930 . S
H2002 C2012 0.930 . S
H2003 C2015 0.929 . S
H2004 C2018 0.930 . S
H2005 C2020 0.960 . S
H2006 C2020 0.960 . S
H2007 C2020 0.960 . S
C2008 H2000 0.929 . S
C2008 C2009 1.377 . S
C2008 C2010 1.384 . S
C2009 C2008 1.377 . S
C2009 C2015 1.390 . S
C2010 H2001 0.930 . S
C2010 C2008 1.384 . S
C2010 C2011 1.372 . S
C2011 C2010 1.372 . S
C2011 C2012 1.400 . S
C2011 C2016 1.490 . S
C2012 H2002 0.930 . S
C2012 C2011 1.400 . S
C2012 C2015 1.386 . S
H2013 C2029 0.930 . S
H2014 C2030 0.931 . S
C2015 H2003 0.929 . S
C2015 C2009 1.390 . S
C2015 C2012 1.386 . S
C2016 C2011 1.490 . S
C2016 C2018 1.395 . S
C2016 C2019 1.403 . S
H2017 C2023 0.930 . S
C2018 H2004 0.930 . S
C2018 C2016 1.395 . S
C2018 C2021 1.403 . S
C2019 C2016 1.403 . S
C2019 C2020 1.524 . S
C2019 C2023 1.400 . S
C2020 H2005 0.960 . S
C2020 H2006 0.960 . S
C2020 H2007 0.960 . S
C2020 C2019 1.524 . S
C2021 C2018 1.403 . S
C2021 C2022 1.392 . S
C2021 C2025 1.495 . S
C2022 C2021 1.392 . S
C2022 C2023 1.385 . S
C2022 C2024 1.478 . S
C2023 H2017 0.930 . S
C2023 C2019 1.400 . S
C2023 C2022 1.385 . S
C2024 C2022 1.478 . S
C2024 C2026 1.381 . S
C2024 C2030 1.383 . S
C2025 C2021 1.495 . S
C2025 H2031 0.959 . S
C2025 H2032 0.961 . S
C2025 H2033 0.960 . S
C2026 C2024 1.381 . S
C2026 C2027 1.394 . S
C2026 H2034 0.930 . S
C2027 C2026 1.394 . S
C2027 C2028 1.383 . S
C2027 H2035 0.929 . S
C2028 C2027 1.383 . S
C2028 C2029 1.377 . S
C2029 H2013 0.930 . S
C2029 C2028 1.377 . S
C2029 C2030 1.379 . S
C2030 H2014 0.931 . S
C2030 C2024 1.383 . S
C2030 C2029 1.379 . S
H2031 C2025 0.959 . S
H2032 C2025 0.961 . S
H2033 C2025 0.960 . S
H2034 C2026 0.930 . S
H2035 C2027 0.929 . S
H2036 C2044 0.929 . S
H2037 C2046 0.930 . S
H2038 C2048 0.930 . S
H2039 C2051 0.929 . S
H2040 C2054 0.930 . S
H2041 C2056 0.960 . S
H2042 C2056 0.960 . S
H2043 C2056 0.960 . S
C2044 H2036 0.929 . S
C2044 C2045 1.377 . S
C2044 C2046 1.384 . S
C2045 C2044 1.377 . S
C2045 C2051 1.390 . S
C2046 H2037 0.930 . S
C2046 C2044 1.384 . S
C2046 C2047 1.372 . S
C2047 C2046 1.372 . S
C2047 C2048 1.400 . S
C2047 C2052 1.490 . S
C2048 H2038 0.930 . S
C2048 C2047 1.400 . S
C2048 C2051 1.386 . S
H2049 C2065 0.930 . S
H2050 C2066 0.931 . S
C2051 H2039 0.929 . S
C2051 C2045 1.390 . S
C2051 C2048 1.386 . S
C2052 C2047 1.490 . S
C2052 C2054 1.395 . S
C2052 C2055 1.403 . S
H2053 C2059 0.930 . S
C2054 H2040 0.930 . S
C2054 C2052 1.395 . S
C2054 C2057 1.403 . S
C2055 C2052 1.403 . S
C2055 C2056 1.524 . S
C2055 C2059 1.400 . S
C2056 H2041 0.960 . S
C2056 H2042 0.960 . S
C2056 H2043 0.960 . S
C2056 C2055 1.524 . S
C2057 C2054 1.403 . S
C2057 C2058 1.392 . S
C2057 C2061 1.495 . S
C2058 C2057 1.392 . S
C2058 C2059 1.385 . S
C2058 C2060 1.478 . S
C2059 H2053 0.930 . S
C2059 C2055 1.400 . S
C2059 C2058 1.385 . S
C2060 C2058 1.478 . S
C2060 C2062 1.381 . S
C2060 C2066 1.383 . S
C2061 C2057 1.495 . S
C2061 H2067 0.959 . S
C2061 H2068 0.961 . S
C2061 H2069 0.960 . S
C2062 C2060 1.381 . S
C2062 C2063 1.394 . S
C2062 H2070 0.930 . S
C2063 C2062 1.394 . S
C2063 C2064 1.383 . S
C2063 H2071 0.929 . S
C2064 C2063 1.383 . S
C2064 C2065 1.377 . S
C2065 H2049 0.930 . S
C2065 C2064 1.377 . S
C2065 C2066 1.379 . S
C2066 H2050 0.931 . S
C2066 C2060 1.383 . S
C2066 C2065 1.379 . S
H2067 C2061 0.959 . S
H2068 C2061 0.961 . S
H2069 C2061 0.960 . S
H2070 C2062 0.930 . S
H2071 C2063 0.929 . S
H2072 C2080 0.929 . S
H2073 C2082 0.930 . S
H2074 C2084 0.930 . S
H2075 C2087 0.929 . S
H2076 C2090 0.930 . S
H2077 C2092 0.960 . S
H2078 C2092 0.960 . S
H2079 C2092 0.960 . S
C2080 H2072 0.929 . S
C2080 C2081 1.377 1_556 S
C2080 C2082 1.384 . S
C2081 C2080 1.377 1_554 S
C2081 C2087 1.390 . S
C2082 H2073 0.930 . S
C2082 C2080 1.384 . S
C2082 C2083 1.372 1_556 S
C2083 C2082 1.372 1_554 S
C2083 C2084 1.400 . S
C2083 C2088 1.490 . S
C2084 H2074 0.930 . S
C2084 C2083 1.400 . S
C2084 C2087 1.386 . S
H2085 C2101 0.930 . S
H2086 C2102 0.931 . S
C2087 H2075 0.929 . S
C2087 C2081 1.390 . S
C2087 C2084 1.386 . S
C2088 C2083 1.490 . S
C2088 C2090 1.395 . S
C2088 C2091 1.403 . S
H2089 C2095 0.930 . S
C2090 H2076 0.930 . S
C2090 C2088 1.395 . S
C2090 C2093 1.403 . S
C2091 C2088 1.403 . S
C2091 C2092 1.524 . S
C2091 C2095 1.400 . S
C2092 H2077 0.960 . S
C2092 H2078 0.960 . S
C2092 H2079 0.960 . S
C2092 C2091 1.524 . S
C2093 C2090 1.403 . S
C2093 C2094 1.392 . S
C2093 C2097 1.495 . S
C2094 C2093 1.392 . S
C2094 C2095 1.385 . S
C2094 C2096 1.478 . S
C2095 H2089 0.930 . S
C2095 C2091 1.400 . S
C2095 C2094 1.385 . S
C2096 C2094 1.478 . S
C2096 C2098 1.381 . S
C2096 C2102 1.383 . S
C2097 C2093 1.495 . S
C2097 H2103 0.959 . S
C2097 H2104 0.961 . S
C2097 H2105 0.960 . S
C2098 C2096 1.381 . S
C2098 C2099 1.394 . S
C2098 H2106 0.930 1_554 S
C2099 C2098 1.394 . S
C2099 C2100 1.383 . S
C2099 H2107 0.929 1_554 S
C2100 C2099 1.383 . S
C2100 C2101 1.377 . S
C2101 H2085 0.930 . S
C2101 C2100 1.377 . S
C2101 C2102 1.379 . S
C2102 H2086 0.931 . S
C2102 C2096 1.383 . S
C2102 C2101 1.379 . S
H2103 C2097 0.959 . S
H2104 C2097 0.961 . S
H2105 C2097 0.960 . S
H2106 C2098 0.930 1_556 S
H2107 C2099 0.929 1_556 S
H2108 C2116 0.929 . S
H2109 C2118 0.930 . S
H2110 C2120 0.930 . S
H2111 C2123 0.929 . S
H2112 C2126 0.930 . S
H2113 C2128 0.960 . S
H2114 C2128 0.960 . S
H2115 C2128 0.960 . S
C2116 H2108 0.929 . S
C2116 C2117 1.377 . S
C2116 C2118 1.384 . S
C2117 C2116 1.377 . S
C2117 C2123 1.390 . S
C2118 H2109 0.930 . S
C2118 C2116 1.384 . S
C2118 C2119 1.372 . S
C2119 C2118 1.372 . S
C2119 C2120 1.400 . S
C2119 C2124 1.490 . S
C2120 H2110 0.930 . S
C2120 C2119 1.400 . S
C2120 C2123 1.386 . S
H2121 C2137 0.930 1_556 S
H2122 C2138 0.931 1_556 S
C2123 H2111 0.929 . S
C2123 C2117 1.390 . S
C2123 C2120 1.386 . S
C2124 C2119 1.490 . S
C2124 C2126 1.395 . S
C2124 C2127 1.403 . S
H2125 C2131 0.930 . S
C2126 H2112 0.930 . S
C2126 C2124 1.395 . S
C2126 C2129 1.403 . S
C2127 C2124 1.403 . S
C2127 C2128 1.524 . S
C2127 C2131 1.400 . S
C2128 H2113 0.960 . S
C2128 H2114 0.960 . S
C2128 H2115 0.960 . S
C2128 C2127 1.524 . S
C2129 C2126 1.403 . S
C2129 C2130 1.392 . S
C2129 C2133 1.495 . S
C2130 C2129 1.392 . S
C2130 C2131 1.385 . S
C2130 C2132 1.478 . S
C2131 H2125 0.930 . S
C2131 C2127 1.400 . S
C2131 C2130 1.385 . S
C2132 C2130 1.478 . S
C2132 C2134 1.381 . S
C2132 C2138 1.383 . S
C2133 C2129 1.495 . S
C2133 H2139 0.959 1_554 S
C2133 H2140 0.961 1_554 S
C2133 H2141 0.960 . S
C2134 C2132 1.381 . S
C2134 C2135 1.394 . S
C2134 H2142 0.930 . S
C2135 C2134 1.394 . S
C2135 C2136 1.383 . S
C2135 H2143 0.929 . S
C2136 C2135 1.383 . S
C2136 C2137 1.377 . S
C2137 H2121 0.930 1_554 S
C2137 C2136 1.377 . S
C2137 C2138 1.379 . S
C2138 H2122 0.931 1_554 S
C2138 C2132 1.383 . S
C2138 C2137 1.379 . S
H2139 C2133 0.959 1_556 S
H2140 C2133 0.961 1_556 S
H2141 C2133 0.960 . S
H2142 C2134 0.930 . S
H2143 C2135 0.929 . S
H2144 C2152 0.929 . S
H2145 C2154 0.930 . S
H2146 C2156 0.930 . S
H2147 C2159 0.929 . S
H2148 C2162 0.930 . S
H2149 C2164 0.960 . S
H2150 C2164 0.960 . S
H2151 C2164 0.960 . S
C2152 H2144 0.929 . S
C2152 C2153 1.377 . S
C2152 C2154 1.384 . S
C2153 C2152 1.377 . S
C2153 C2159 1.390 . S
C2154 H2145 0.930 . S
C2154 C2152 1.384 . S
C2154 C2155 1.372 . S
C2155 C2154 1.372 . S
C2155 C2156 1.400 . S
C2155 C2160 1.490 . S
C2156 H2146 0.930 . S
C2156 C2155 1.400 . S
C2156 C2159 1.386 . S
H2157 C2173 0.930 . S
H2158 C2174 0.931 . S
C2159 H2147 0.929 . S
C2159 C2153 1.390 . S
C2159 C2156 1.386 . S
C2160 C2155 1.490 . S
C2160 C2162 1.395 . S
C2160 C2163 1.403 . S
H2161 C2167 0.930 . S
C2162 H2148 0.930 . S
C2162 C2160 1.395 . S
C2162 C2165 1.403 . S
C2163 C2160 1.403 . S
C2163 C2164 1.524 . S
C2163 C2167 1.400 . S
C2164 H2149 0.960 . S
C2164 H2150 0.960 . S
C2164 H2151 0.960 . S
C2164 C2163 1.524 . S
C2165 C2162 1.403 . S
C2165 C2166 1.392 . S
C2165 C2169 1.495 . S
C2166 C2165 1.392 . S
C2166 C2167 1.385 . S
C2166 C2168 1.478 . S
C2167 H2161 0.930 . S
C2167 C2163 1.400 . S
C2167 C2166 1.385 . S
C2168 C2166 1.478 . S
C2168 C2170 1.381 . S
C2168 C2174 1.383 . S
C2169 C2165 1.495 . S
C2169 H2175 0.959 . S
C2169 H2176 0.961 . S
C2169 H2177 0.960 . S
C2170 C2168 1.381 . S
C2170 C2171 1.394 . S
C2170 H2178 0.930 . S
C2171 C2170 1.394 . S
C2171 C2172 1.383 . S
C2171 H2179 0.929 . S
C2172 C2171 1.383 . S
C2172 C2173 1.377 . S
C2173 H2157 0.930 . S
C2173 C2172 1.377 . S
C2173 C2174 1.379 . S
C2174 H2158 0.931 . S
C2174 C2168 1.383 . S
C2174 C2173 1.379 . S
H2175 C2169 0.959 . S
H2176 C2169 0.961 . S
H2177 C2169 0.960 . S
H2178 C2170 0.930 . S
H2179 C2171 0.929 . S
H2180 C2188 0.929 . S
H2181 C2190 0.930 . S
H2182 C2192 0.930 . S
H2183 C2195 0.929 . S
H2184 C2198 0.930 . S
H2185 C2200 0.960 . S
H2186 C2200 0.960 . S
H2187 C2200 0.960 . S
C2188 H2180 0.929 . S
C2188 C2189 1.377 . S
C2188 C2190 1.384 . S
C2189 C2188 1.377 . S
C2189 C2195 1.390 . S
C2190 H2181 0.930 . S
C2190 C2188 1.384 . S
C2190 C2191 1.372 . S
C2191 C2190 1.372 . S
C2191 C2192 1.400 . S
C2191 C2196 1.490 . S
C2192 H2182 0.930 . S
C2192 C2191 1.400 . S
C2192 C2195 1.386 . S
H2193 C2209 0.930 . S
H2194 C2210 0.931 . S
C2195 H2183 0.929 . S
C2195 C2189 1.390 . S
C2195 C2192 1.386 . S
C2196 C2191 1.490 . S
C2196 C2198 1.395 . S
C2196 C2199 1.403 . S
H2197 C2203 0.930 . S
C2198 H2184 0.930 . S
C2198 C2196 1.395 . S
C2198 C2201 1.403 . S
C2199 C2196 1.403 . S
C2199 C2200 1.524 . S
C2199 C2203 1.400 . S
C2200 H2185 0.960 . S
C2200 H2186 0.960 . S
C2200 H2187 0.960 . S
C2200 C2199 1.524 . S
C2201 C2198 1.403 . S
C2201 C2202 1.392 . S
C2201 C2205 1.495 . S
C2202 C2201 1.392 . S
C2202 C2203 1.385 . S
C2202 C2204 1.478 . S
C2203 H2197 0.930 . S
C2203 C2199 1.400 . S
C2203 C2202 1.385 . S
C2204 C2202 1.478 . S
C2204 C2206 1.381 . S
C2204 C2210 1.383 . S
C2205 C2201 1.495 . S
C2205 H2211 0.959 . S
C2205 H2212 0.961 . S
C2205 H2213 0.960 . S
C2206 C2204 1.381 . S
C2206 C2207 1.394 . S
C2206 H2214 0.930 . S
C2207 C2206 1.394 . S
C2207 C2208 1.383 . S
C2207 H2215 0.929 . S
C2208 C2207 1.383 . S
C2208 C2209 1.377 . S
C2209 H2193 0.930 . S
C2209 C2208 1.377 . S
C2209 C2210 1.379 . S
C2210 H2194 0.931 . S
C2210 C2204 1.383 . S
C2210 C2209 1.379 . S
H2211 C2205 0.959 . S
H2212 C2205 0.961 . S
H2213 C2205 0.960 . S
H2214 C2206 0.930 . S
H2215 C2207 0.929 . S
H2216 C2224 0.929 . S
H2217 C2226 0.930 . S
H2218 C2228 0.930 . S
H2219 C2231 0.929 . S
H2220 C2234 0.930 . S
H2221 C2236 0.960 . S
H2222 C2236 0.960 . S
H2223 C2236 0.960 . S
C2224 H2216 0.929 . S
C2224 C2225 1.377 . S
C2224 C2226 1.384 . S
C2225 C2224 1.377 . S
C2225 C2231 1.390 . S
C2226 H2217 0.930 . S
C2226 C2224 1.384 . S
C2226 C2227 1.372 . S
C2227 C2226 1.372 . S
C2227 C2228 1.400 . S
C2227 C2232 1.490 . S
C2228 H2218 0.930 . S
C2228 C2227 1.400 . S
C2228 C2231 1.386 . S
H2229 C2245 0.930 . S
H2230 C2246 0.931 . S
C2231 H2219 0.929 . S
C2231 C2225 1.390 . S
C2231 C2228 1.386 . S
C2232 C2227 1.490 . S
C2232 C2234 1.395 . S
C2232 C2235 1.403 . S
H2233 C2239 0.930 . S
C2234 H2220 0.930 . S
C2234 C2232 1.395 . S
C2234 C2237 1.403 . S
C2235 C2232 1.403 . S
C2235 C2236 1.524 . S
C2235 C2239 1.400 . S
C2236 H2221 0.960 . S
C2236 H2222 0.960 . S
C2236 H2223 0.960 . S
C2236 C2235 1.524 . S
C2237 C2234 1.403 . S
C2237 C2238 1.392 . S
C2237 C2241 1.495 . S
C2238 C2237 1.392 . S
C2238 C2239 1.385 . S
C2238 C2240 1.478 . S
C2239 H2233 0.930 . S
C2239 C2235 1.400 . S
C2239 C2238 1.385 . S
C2240 C2238 1.478 . S
C2240 C2242 1.381 . S
C2240 C2246 1.383 . S
C2241 C2237 1.495 . S
C2241 H2247 0.959 . S
C2241 H2248 0.961 . S
C2241 H2249 0.960 . S
C2242 C2240 1.381 . S
C2242 C2243 1.394 . S
C2242 H2250 0.930 . S
C2243 C2242 1.394 . S
C2243 C2244 1.383 . S
C2243 H2251 0.929 . S
C2244 C2243 1.383 . S
C2244 C2245 1.377 . S
C2245 H2229 0.930 . S
C2245 C2244 1.377 . S
C2245 C2246 1.379 . S
C2246 H2230 0.931 . S
C2246 C2240 1.383 . S
C2246 C2245 1.379 . S
H2247 C2241 0.959 . S
H2248 C2241 0.961 . S
H2249 C2241 0.960 . S
H2250 C2242 0.930 . S
H2251 C2243 0.929 . S
H2252 C2260 0.929 . S
H2253 C2262 0.930 . S
H2254 C2264 0.930 . S
H2255 C2267 0.929 . S
H2256 C2270 0.930 . S
H2257 C2272 0.960 . S
H2258 C2272 0.960 . S
H2259 C2272 0.960 . S
C2260 H2252 0.929 . S
C2260 C2261 1.377 . S
C2260 C2262 1.384 . S
C2261 C2260 1.377 . S
C2261 C2267 1.390 . S
C2262 H2253 0.930 . S
C2262 C2260 1.384 . S
C2262 C2263 1.372 . S
C2263 C2262 1.372 . S
C2263 C2264 1.400 . S
C2263 C2268 1.490 . S
C2264 H2254 0.930 . S
C2264 C2263 1.400 . S
C2264 C2267 1.386 . S
H2265 C2281 0.930 . S
H2266 C2282 0.931 . S
C2267 H2255 0.929 . S
C2267 C2261 1.390 . S
C2267 C2264 1.386 . S
C2268 C2263 1.490 . S
C2268 C2270 1.395 . S
C2268 C2271 1.403 . S
H2269 C2275 0.930 . S
C2270 H2256 0.930 . S
C2270 C2268 1.395 . S
C2270 C2273 1.403 . S
C2271 C2268 1.403 . S
C2271 C2272 1.524 . S
C2271 C2275 1.400 . S
C2272 H2257 0.960 . S
C2272 H2258 0.960 . S
C2272 H2259 0.960 . S
C2272 C2271 1.524 . S
C2273 C2270 1.403 . S
C2273 C2274 1.392 . S
C2273 C2277 1.495 . S
C2274 C2273 1.392 . S
C2274 C2275 1.385 . S
C2274 C2276 1.478 . S
C2275 H2269 0.930 . S
C2275 C2271 1.400 . S
C2275 C2274 1.385 . S
C2276 C2274 1.478 . S
C2276 C2278 1.381 . S
C2276 C2282 1.383 . S
C2277 C2273 1.495 . S
C2277 H2283 0.959 . S
C2277 H2284 0.961 . S
C2277 H2285 0.960 . S
C2278 C2276 1.381 . S
C2278 C2279 1.394 . S
C2278 H2286 0.930 . S
C2279 C2278 1.394 . S
C2279 C2280 1.383 . S
C2279 H2287 0.899 1_565 S
C2280 C2279 1.383 . S
C2280 C2281 1.377 . S
C2281 H2265 0.930 . S
C2281 C2280 1.377 . S
C2281 C2282 1.379 . S
C2282 H2266 0.931 . S
C2282 C2276 1.383 . S
C2282 C2281 1.379 . S
H2283 C2277 0.959 . S
H2284 C2277 0.961 . S
H2285 C2277 0.960 . S
H2286 C2278 0.930 . S
H2287 C2279 0.899 1_545 S
H2288 C2296 0.929 . S
H2289 C2298 0.930 . S
H2290 C2300 0.930 . S
H2291 C2303 0.929 . S
H2292 C2306 0.930 . S
H2293 C2308 0.960 . S
H2294 C2308 0.960 . S
H2295 C2308 0.960 . S
C2296 H2288 0.929 . S
C2296 C2297 1.377 . S
C2296 C2298 1.384 . S
C2297 C2296 1.377 . S
C2297 C2303 1.390 . S
C2298 H2289 0.930 . S
C2298 C2296 1.384 . S
C2298 C2299 1.372 . S
C2299 C2298 1.372 . S
C2299 C2300 1.400 . S
C2299 C2304 1.490 . S
C2300 H2290 0.930 . S
C2300 C2299 1.400 . S
C2300 C2303 1.386 . S
H2301 C2317 0.930 . S
H2302 C2318 0.931 . S
C2303 H2291 0.929 . S
C2303 C2297 1.390 . S
C2303 C2300 1.386 . S
C2304 C2299 1.490 . S
C2304 C2306 1.395 . S
C2304 C2307 1.403 . S
H2305 C2311 0.930 . S
C2306 H2292 0.930 . S
C2306 C2304 1.395 . S
C2306 C2309 1.403 . S
C2307 C2304 1.403 . S
C2307 C2308 1.524 . S
C2307 C2311 1.400 . S
C2308 H2293 0.960 . S
C2308 H2294 0.960 . S
C2308 H2295 0.960 . S
C2308 C2307 1.524 . S
C2309 C2306 1.403 . S
C2309 C2310 1.392 . S
C2309 C2313 1.495 . S
C2310 C2309 1.392 . S
C2310 C2311 1.385 . S
C2310 C2312 1.478 . S
C2311 H2305 0.930 . S
C2311 C2307 1.400 . S
C2311 C2310 1.385 . S
C2312 C2310 1.478 . S
C2312 C2314 1.381 . S
C2312 C2318 1.383 . S
C2313 C2309 1.495 . S
C2313 H2319 0.959 . S
C2313 H2320 0.961 . S
C2313 H2321 0.960 . S
C2314 C2312 1.381 . S
C2314 C2315 1.394 . S
C2314 H2322 0.930 . S
C2315 C2314 1.394 . S
C2315 C2316 1.383 . S
C2315 H2323 0.929 . S
C2316 C2315 1.383 . S
C2316 C2317 1.377 . S
C2317 H2301 0.930 . S
C2317 C2316 1.377 . S
C2317 C2318 1.379 . S
C2318 H2302 0.931 . S
C2318 C2312 1.383 . S
C2318 C2317 1.379 . S
H2319 C2313 0.959 . S
H2320 C2313 0.961 . S
H2321 C2313 0.960 . S
H2322 C2314 0.930 . S
H2323 C2315 0.929 . S
H2324 C2332 0.929 . S
H2325 C2334 0.930 . S
H2326 C2336 0.930 . S
H2327 C2339 0.929 . S
H2328 C2342 0.930 . S
H2329 C2344 0.960 . S
H2330 C2344 0.960 . S
H2331 C2344 0.960 . S
C2332 H2324 0.929 . S
C2332 C2333 1.377 . S
C2332 C2334 1.384 . S
C2333 C2332 1.377 . S
C2333 C2339 1.390 . S
C2334 H2325 0.930 . S
C2334 C2332 1.384 . S
C2334 C2335 1.372 . S
C2335 C2334 1.372 . S
C2335 C2336 1.400 . S
C2335 C2340 1.490 . S
C2336 H2326 0.930 . S
C2336 C2335 1.400 . S
C2336 C2339 1.386 . S
H2337 C2353 0.930 . S
H2338 C2354 0.931 . S
C2339 H2327 0.929 . S
C2339 C2333 1.390 . S
C2339 C2336 1.386 . S
C2340 C2335 1.490 . S
C2340 C2342 1.395 . S
C2340 C2343 1.403 . S
H2341 C2347 0.930 . S
C2342 H2328 0.930 . S
C2342 C2340 1.395 . S
C2342 C2345 1.403 . S
C2343 C2340 1.403 . S
C2343 C2344 1.524 . S
C2343 C2347 1.400 . S
C2344 H2329 0.960 . S
C2344 H2330 0.960 . S
C2344 H2331 0.960 . S
C2344 C2343 1.524 . S
C2345 C2342 1.403 . S
C2345 C2346 1.392 . S
C2345 C2349 1.495 . S
C2346 C2345 1.392 . S
C2346 C2347 1.385 . S
C2346 C2348 1.478 . S
C2347 H2341 0.930 . S
C2347 C2343 1.400 . S
C2347 C2346 1.385 . S
C2348 C2346 1.478 . S
C2348 C2350 1.381 . S
C2348 C2354 1.383 . S
C2349 C2345 1.495 . S
C2349 H2355 0.959 . S
C2349 H2356 0.961 . S
C2349 H2357 0.960 . S
C2350 C2348 1.381 . S
C2350 C2351 1.394 . S
C2350 H2358 0.930 . S
C2351 C2350 1.394 . S
C2351 C2352 1.383 . S
C2351 H2359 0.929 . S
C2352 C2351 1.383 . S
C2352 C2353 1.377 . S
C2353 H2337 0.930 . S
C2353 C2352 1.377 . S
C2353 C2354 1.379 . S
C2354 H2338 0.931 . S
C2354 C2348 1.383 . S
C2354 C2353 1.379 . S
H2355 C2349 0.959 . S
H2356 C2349 0.961 . S
H2357 C2349 0.960 . S
H2358 C2350 0.930 . S
H2359 C2351 0.929 . S
H2360 C2368 0.929 . S
H2361 C2370 0.930 . S
H2362 C2372 0.930 . S
H2363 C2375 0.929 . S
H2364 C2378 0.930 . S
H2365 C2380 0.960 . S
H2366 C2380 0.960 . S
H2367 C2380 0.960 . S
C2368 H2360 0.929 . S
C2368 C2369 1.377 . S
C2368 C2370 1.384 . S
C2369 C2368 1.377 . S
C2369 C2375 1.390 . S
C2370 H2361 0.930 . S
C2370 C2368 1.384 . S
C2370 C2371 1.372 . S
C2371 C2370 1.372 . S
C2371 C2372 1.400 . S
C2371 C2376 1.490 . S
C2372 H2362 0.930 . S
C2372 C2371 1.400 . S
C2372 C2375 1.386 . S
H2373 C2389 0.930 . S
H2374 C2390 0.931 . S
C2375 H2363 0.929 . S
C2375 C2369 1.390 . S
C2375 C2372 1.386 . S
C2376 C2371 1.490 . S
C2376 C2378 1.395 . S
C2376 C2379 1.403 . S
H2377 C2383 0.930 . S
C2378 H2364 0.930 . S
C2378 C2376 1.395 . S
C2378 C2381 1.403 . S
C2379 C2376 1.403 . S
C2379 C2380 1.524 . S
C2379 C2383 1.400 . S
C2380 H2365 0.960 . S
C2380 H2366 0.960 . S
C2380 H2367 0.960 . S
C2380 C2379 1.524 . S
C2381 C2378 1.403 . S
C2381 C2382 1.392 . S
C2381 C2385 1.495 . S
C2382 C2381 1.392 . S
C2382 C2383 1.385 . S
C2382 C2384 1.478 . S
C2383 H2377 0.930 . S
C2383 C2379 1.400 . S
C2383 C2382 1.385 . S
C2384 C2382 1.478 . S
C2384 C2386 1.381 . S
C2384 C2390 1.383 . S
C2385 C2381 1.495 . S
C2385 H2391 0.959 . S
C2385 H2392 0.961 . S
C2385 H2393 0.960 . S
C2386 C2384 1.381 . S
C2386 C2387 1.394 . S
C2386 H2394 0.930 . S
C2387 C2386 1.394 . S
C2387 C2388 1.383 . S
C2387 H2395 0.929 . S
C2388 C2387 1.383 . S
C2388 C2389 1.377 . S
C2389 H2373 0.930 . S
C2389 C2388 1.377 . S
C2389 C2390 1.379 . S
C2390 H2374 0.931 . S
C2390 C2384 1.383 . S
C2390 C2389 1.379 . S
H2391 C2385 0.959 . S
H2392 C2385 0.961 . S
H2393 C2385 0.960 . S
H2394 C2386 0.930 . S
H2395 C2387 0.929 . S
H2396 C2404 0.929 . S
H2397 C2406 0.930 . S
H2398 C2408 0.930 . S
H2399 C2411 0.929 . S
H2400 C2414 0.930 . S
H2401 C2416 0.960 . S
H2402 C2416 0.960 . S
H2403 C2416 0.960 . S
C2404 H2396 0.929 . S
C2404 C2405 1.377 . S
C2404 C2406 1.384 . S
C2405 C2404 1.377 . S
C2405 C2411 1.390 . S
C2406 H2397 0.930 . S
C2406 C2404 1.384 . S
C2406 C2407 1.372 . S
C2407 C2406 1.372 . S
C2407 C2408 1.400 . S
C2407 C2412 1.490 . S
C2408 H2398 0.930 . S
C2408 C2407 1.400 . S
C2408 C2411 1.386 . S
H2409 C2425 0.930 . S
H2410 C2426 0.931 . S
C2411 H2399 0.929 . S
C2411 C2405 1.390 . S
C2411 C2408 1.386 . S
C2412 C2407 1.490 . S
C2412 C2414 1.395 . S
C2412 C2415 1.403 . S
H2413 C2419 0.930 . S
C2414 H2400 0.930 . S
C2414 C2412 1.395 . S
C2414 C2417 1.403 . S
C2415 C2412 1.403 . S
C2415 C2416 1.524 . S
C2415 C2419 1.400 . S
C2416 H2401 0.960 . S
C2416 H2402 0.960 . S
C2416 H2403 0.960 . S
C2416 C2415 1.524 . S
C2417 C2414 1.403 . S
C2417 C2418 1.392 . S
C2417 C2421 1.495 . S
C2418 C2417 1.392 . S
C2418 C2419 1.385 . S
C2418 C2420 1.478 . S
C2419 H2413 0.930 . S
C2419 C2415 1.400 . S
C2419 C2418 1.385 . S
C2420 C2418 1.478 . S
C2420 C2422 1.381 . S
C2420 C2426 1.383 . S
C2421 C2417 1.495 . S
C2421 H2427 0.959 . S
C2421 H2428 0.961 . S
C2421 H2429 0.960 . S
C2422 C2420 1.381 . S
C2422 C2423 1.394 . S
C2422 H2430 0.930 . S
C2423 C2422 1.394 . S
C2423 C2424 1.383 . S
C2423 H2431 0.929 . S
C2424 C2423 1.383 . S
C2424 C2425 1.377 . S
C2425 H2409 0.930 . S
C2425 C2424 1.377 . S
C2425 C2426 1.379 . S
C2426 H2410 0.931 . S
C2426 C2420 1.383 . S
C2426 C2425 1.379 . S
H2427 C2421 0.959 . S
H2428 C2421 0.961 . S
H2429 C2421 0.960 . S
H2430 C2422 0.930 . S
H2431 C2423 0.929 . S
H2432 C2440 0.929 . S
H2433 C2442 0.930 . S
H2434 C2444 0.930 . S
H2435 C2447 0.929 . S
H2436 C2450 0.930 . S
H2437 C2452 0.960 . S
H2438 C2452 0.960 1_455 S
H2439 C2452 0.960 . S
C2440 H2432 0.929 . S
C2440 C2441 1.377 . S
C2440 C2442 1.384 . S
C2441 C2440 1.377 . S
C2441 C2447 1.390 1_455 S
C2442 H2433 0.930 . S
C2442 C2440 1.384 . S
C2442 C2443 1.372 . S
C2443 C2442 1.372 . S
C2443 C2444 1.400 1_455 S
C2443 C2448 1.490 . S
C2444 H2434 0.930 . S
C2444 C2443 1.400 1_655 S
C2444 C2447 1.386 . S
H2445 C2461 0.930 . S
H2446 C2462 0.931 . S
C2447 H2435 0.929 . S
C2447 C2441 1.390 1_655 S
C2447 C2444 1.386 . S
C2448 C2443 1.490 . S
C2448 C2450 1.395 . S
C2448 C2451 1.403 . S
H2449 C2455 0.931 . S
C2450 H2436 0.930 . S
C2450 C2448 1.395 . S
C2450 C2453 1.403 . S
C2451 C2448 1.403 . S
C2451 C2452 1.524 1_455 S
C2451 C2455 1.399 1_455 S
C2452 H2437 0.960 . S
C2452 H2438 0.960 1_655 S
C2452 H2439 0.960 . S
C2452 C2451 1.524 1_655 S
C2453 C2450 1.403 . S
C2453 C2454 1.392 . S
C2453 C2457 1.495 . S
C2454 C2453 1.392 . S
C2454 C2455 1.385 1_455 S
C2454 C2456 1.478 . S
C2455 H2449 0.931 . S
C2455 C2451 1.399 1_655 S
C2455 C2454 1.385 1_655 S
C2456 C2454 1.478 . S
C2456 C2458 1.381 . S
C2456 C2462 1.383 1_455 S
C2457 C2453 1.495 . S
C2457 H2463 0.959 . S
C2457 H2464 0.961 . S
C2457 H2465 0.960 . S
C2458 C2456 1.381 . S
C2458 C2459 1.394 1_556 S
C2458 H2466 0.930 . S
C2459 C2458 1.394 1_554 S
C2459 C2460 1.363 1_455 S
C2459 H2467 0.929 . S
C2460 C2459 1.363 1_655 S
C2460 C2461 1.390 1_554 S
C2461 H2445 0.930 . S
C2461 C2460 1.390 1_556 S
C2461 C2462 1.379 . S
C2462 H2446 0.931 . S
C2462 C2456 1.383 1_655 S
C2462 C2461 1.379 . S
H2463 C2457 0.959 . S
H2464 C2457 0.961 . S
H2465 C2457 0.960 . S
H2466 C2458 0.930 . S
H2467 C2459 0.929 . S
H2468 C2476 0.929 . S
H2469 C2478 0.930 . S
H2470 C2480 0.930 . S
H2471 C2483 0.929 . S
H2472 C2486 0.930 . S
H2473 C2488 0.960 . S
H2474 C2488 0.960 . S
H2475 C2488 0.960 . S
C2476 H2468 0.929 . S
C2476 C2477 1.377 . S
C2476 C2478 1.384 . S
C2477 C2476 1.377 . S
C2477 C2483 1.390 . S
C2478 H2469 0.930 . S
C2478 C2476 1.384 . S
C2478 C2479 1.372 . S
C2479 C2478 1.372 . S
C2479 C2480 1.400 . S
C2479 C2484 1.490 . S
C2480 H2470 0.930 . S
C2480 C2479 1.400 . S
C2480 C2483 1.386 . S
H2481 C2497 0.930 . S
H2482 C2498 0.931 . S
C2483 H2471 0.929 . S
C2483 C2477 1.390 . S
C2483 C2480 1.386 . S
C2484 C2479 1.490 . S
C2484 C2486 1.395 . S
C2484 C2487 1.403 . S
H2485 C2491 0.930 . S
C2486 H2472 0.930 . S
C2486 C2484 1.395 . S
C2486 C2489 1.403 . S
C2487 C2484 1.403 . S
C2487 C2488 1.524 . S
C2487 C2491 1.400 . S
C2488 H2473 0.960 . S
C2488 H2474 0.960 . S
C2488 H2475 0.960 . S
C2488 C2487 1.524 . S
C2489 C2486 1.403 . S
C2489 C2490 1.392 . S
C2489 C2493 1.495 . S
C2490 C2489 1.392 . S
C2490 C2491 1.385 . S
C2490 C2492 1.478 . S
C2491 H2485 0.930 . S
C2491 C2487 1.400 . S
C2491 C2490 1.385 . S
C2492 C2490 1.478 . S
C2492 C2494 1.381 . S
C2492 C2498 1.383 . S
C2493 C2489 1.495 . S
C2493 H2499 0.959 . S
C2493 H2500 0.961 . S
C2493 H2501 0.960 . S
C2494 C2492 1.381 . S
C2494 C2495 1.394 . S
C2494 H2502 0.930 . S
C2495 C2494 1.394 . S
C2495 C2496 1.383 . S
C2495 H2503 0.929 . S
C2496 C2495 1.383 . S
C2496 C2497 1.377 . S
C2497 H2481 0.930 . S
C2497 C2496 1.377 . S
C2497 C2498 1.379 . S
C2498 H2482 0.931 . S
C2498 C2492 1.383 . S
C2498 C2497 1.379 . S
H2499 C2493 0.959 . S
H2500 C2493 0.961 . S
H2501 C2493 0.960 . S
H2502 C2494 0.930 . S
H2503 C2495 0.929 . S
H2504 C2512 0.929 . S
H2505 C2514 0.930 . S
H2506 C2516 0.930 . S
H2507 C2519 0.929 . S
H2508 C2522 0.930 . S
H2509 C2524 0.960 . S
H2510 C2524 0.960 . S
H2511 C2524 0.960 . S
C2512 H2504 0.929 . S
C2512 C2513 1.377 . S
C2512 C2514 1.384 . S
C2513 C2512 1.377 . S
C2513 C2519 1.390 . S
C2514 H2505 0.930 . S
C2514 C2512 1.384 . S
C2514 C2515 1.372 . S
C2515 C2514 1.372 . S
C2515 C2516 1.400 . S
C2515 C2520 1.490 . S
C2516 H2506 0.930 . S
C2516 C2515 1.400 . S
C2516 C2519 1.386 . S
H2517 C2533 0.930 . S
H2518 C2534 0.931 . S
C2519 H2507 0.929 . S
C2519 C2513 1.390 . S
C2519 C2516 1.386 . S
C2520 C2515 1.490 . S
C2520 C2522 1.395 . S
C2520 C2523 1.403 . S
H2521 C2527 0.930 . S
C2522 H2508 0.930 . S
C2522 C2520 1.395 . S
C2522 C2525 1.403 . S
C2523 C2520 1.403 . S
C2523 C2524 1.524 . S
C2523 C2527 1.400 . S
C2524 H2509 0.960 . S
C2524 H2510 0.960 . S
C2524 H2511 0.960 . S
C2524 C2523 1.524 . S
C2525 C2522 1.403 . S
C2525 C2526 1.392 . S
C2525 C2529 1.495 . S
C2526 C2525 1.392 . S
C2526 C2527 1.385 . S
C2526 C2528 1.478 . S
C2527 H2521 0.930 . S
C2527 C2523 1.400 . S
C2527 C2526 1.385 . S
C2528 C2526 1.478 . S
C2528 C2530 1.381 . S
C2528 C2534 1.383 . S
C2529 C2525 1.495 . S
C2529 H2535 0.959 . S
C2529 H2536 0.961 . S
C2529 H2537 0.960 . S
C2530 C2528 1.381 . S
C2530 C2531 1.394 . S
C2530 H2538 0.930 . S
C2531 C2530 1.394 . S
C2531 C2532 1.383 . S
C2531 H2539 0.929 . S
C2532 C2531 1.383 . S
C2532 C2533 1.377 . S
C2533 H2517 0.930 . S
C2533 C2532 1.377 . S
C2533 C2534 1.379 . S
C2534 H2518 0.931 . S
C2534 C2528 1.383 . S
C2534 C2533 1.379 . S
H2535 C2529 0.959 . S
H2536 C2529 0.961 . S
H2537 C2529 0.960 . S
H2538 C2530 0.930 . S
H2539 C2531 0.929 . S
H2540 C2548 0.929 . S
H2541 C2550 0.930 . S
H2542 C2552 0.930 . S
H2543 C2555 0.929 . S
H2544 C2558 0.930 . S
H2545 C2560 0.960 . S
H2546 C2560 0.960 . S
H2547 C2560 0.960 . S
C2548 H2540 0.929 . S
C2548 C2549 1.377 . S
C2548 C2550 1.384 . S
C2549 C2548 1.377 . S
C2549 C2555 1.390 . S
C2550 H2541 0.930 . S
C2550 C2548 1.384 . S
C2550 C2551 1.372 . S
C2551 C2550 1.372 . S
C2551 C2552 1.400 . S
C2551 C2556 1.490 . S
C2552 H2542 0.930 . S
C2552 C2551 1.400 . S
C2552 C2555 1.386 . S
H2553 C2569 0.930 . S
H2554 C2570 0.931 . S
C2555 H2543 0.929 . S
C2555 C2549 1.390 . S
C2555 C2552 1.386 . S
C2556 C2551 1.490 . S
C2556 C2558 1.395 . S
C2556 C2559 1.403 . S
H2557 C2563 0.930 . S
C2558 H2544 0.930 . S
C2558 C2556 1.395 . S
C2558 C2561 1.403 . S
C2559 C2556 1.403 . S
C2559 C2560 1.524 . S
C2559 C2563 1.400 . S
C2560 H2545 0.960 . S
C2560 H2546 0.960 . S
C2560 H2547 0.960 . S
C2560 C2559 1.524 . S
C2561 C2558 1.403 . S
C2561 C2562 1.392 . S
C2561 C2565 1.495 . S
C2562 C2561 1.392 . S
C2562 C2563 1.385 . S
C2562 C2564 1.478 . S
C2563 H2557 0.930 . S
C2563 C2559 1.400 . S
C2563 C2562 1.385 . S
C2564 C2562 1.478 . S
C2564 C2566 1.381 . S
C2564 C2570 1.383 . S
C2565 C2561 1.495 . S
C2565 H2571 0.959 . S
C2565 H2572 0.961 . S
C2565 H2573 0.960 . S
C2566 C2564 1.381 . S
C2566 C2567 1.394 . S
C2566 H2574 0.930 . S
C2567 C2566 1.394 . S
C2567 C2568 1.383 . S
C2567 H2575 0.929 . S
C2568 C2567 1.383 . S
C2568 C2569 1.377 . S
C2569 H2553 0.930 . S
C2569 C2568 1.377 . S
C2569 C2570 1.379 . S
C2570 H2554 0.931 . S
C2570 C2564 1.383 . S
C2570 C2569 1.379 . S
H2571 C2565 0.959 . S
H2572 C2565 0.961 . S
H2573 C2565 0.960 . S
H2574 C2566 0.930 . S
H2575 C2567 0.929 . S
H2576 C2584 0.929 . S
H2577 C2586 0.930 . S
H2578 C2588 0.924 1_455 S
H2579 C2591 0.929 1_455 S
H2580 C2594 0.930 . S
H2581 C2596 0.960 . S
H2582 C2596 0.960 . S
H2583 C2596 0.960 . S
C2584 H2576 0.929 . S
C2584 C2585 1.377 . S
C2584 C2586 1.384 . S
C2585 C2584 1.377 . S
C2585 C2591 1.392 . S
C2586 H2577 0.930 . S
C2586 C2584 1.384 . S
C2586 C2587 1.372 . S
C2587 C2586 1.372 . S
C2587 C2588 1.401 . S
C2587 C2592 1.490 . S
C2588 H2578 0.924 1_655 S
C2588 C2587 1.401 . S
C2588 C2591 1.388 . S
H2589 C2605 0.930 . S
H2590 C2606 0.931 . S
C2591 H2579 0.929 1_655 S
C2591 C2585 1.392 . S
C2591 C2588 1.388 . S
C2592 C2587 1.490 . S
C2592 C2594 1.395 1_655 S
C2592 C2595 1.403 . S
H2593 C2599 0.930 . S
C2594 H2580 0.930 . S
C2594 C2592 1.395 1_455 S
C2594 C2597 1.403 . S
C2595 C2592 1.403 . S
C2595 C2596 1.524 . S
C2595 C2599 1.400 . S
C2596 H2581 0.960 . S
C2596 H2582 0.960 . S
C2596 H2583 0.960 . S
C2596 C2595 1.524 . S
C2597 C2594 1.403 . S
C2597 C2598 1.374 1_455 S
C2597 C2601 1.495 . S
C2598 C2597 1.374 1_655 S
C2598 C2599 1.413 . S
C2598 C2600 1.472 . S
C2599 H2593 0.930 . S
C2599 C2595 1.400 . S
C2599 C2598 1.413 . S
C2600 C2598 1.472 . S
C2600 C2602 1.382 . S
C2600 C2606 1.380 1_655 S
C2601 C2597 1.495 . S
C2601 H2607 0.959 . S
C2601 H2608 0.961 . S
C2601 H2609 0.960 . S
C2602 C2600 1.382 . S
C2602 C2603 1.394 . S
C2602 H2610 0.930 . S
C2603 C2602 1.394 . S
C2603 C2604 1.383 . S
C2603 H2611 0.929 . S
C2604 C2603 1.383 . S
C2604 C2605 1.377 1_655 S
C2605 H2589 0.930 . S
C2605 C2604 1.377 1_455 S
C2605 C2606 1.379 . S
C2606 H2590 0.931 . S
C2606 C2600 1.380 1_455 S
C2606 C2605 1.379 . S
H2607 C2601 0.959 . S
H2608 C2601 0.961 . S
H2609 C2601 0.960 . S
H2610 C2602 0.930 . S
H2611 C2603 0.929 . S
H2612 C2620 0.929 . S
H2613 C2622 0.930 . S
H2614 C2624 0.930 . S
H2615 C2627 0.929 . S
H2616 C2630 0.930 . S
H2617 C2632 0.960 . S
H2618 C2632 0.960 . S
H2619 C2632 0.960 . S
C2620 H2612 0.929 . S
C2620 C2621 1.377 . S
C2620 C2622 1.384 . S
C2621 C2620 1.377 . S
C2621 C2627 1.390 . S
C2622 H2613 0.930 . S
C2622 C2620 1.384 . S
C2622 C2623 1.372 . S
C2623 C2622 1.372 . S
C2623 C2624 1.400 . S
C2623 C2628 1.490 . S
C2624 H2614 0.930 . S
C2624 C2623 1.400 . S
C2624 C2627 1.386 . S
H2625 C2641 0.930 . S
H2626 C2642 0.931 . S
C2627 H2615 0.929 . S
C2627 C2621 1.390 . S
C2627 C2624 1.386 . S
C2628 C2623 1.490 . S
C2628 C2630 1.395 . S
C2628 C2631 1.403 . S
H2629 C2635 0.930 . S
C2630 H2616 0.930 . S
C2630 C2628 1.395 . S
C2630 C2633 1.403 . S
C2631 C2628 1.403 . S
C2631 C2632 1.524 . S
C2631 C2635 1.400 . S
C2632 H2617 0.960 . S
C2632 H2618 0.960 . S
C2632 H2619 0.960 . S
C2632 C2631 1.524 . S
C2633 C2630 1.403 . S
C2633 C2634 1.392 . S
C2633 C2637 1.495 . S
C2634 C2633 1.392 . S
C2634 C2635 1.385 . S
C2634 C2636 1.478 . S
C2635 H2629 0.930 . S
C2635 C2631 1.400 . S
C2635 C2634 1.385 . S
C2636 C2634 1.478 . S
C2636 C2638 1.381 . S
C2636 C2642 1.383 . S
C2637 C2633 1.495 . S
C2637 H2643 0.959 . S
C2637 H2644 0.961 . S
C2637 H2645 0.960 . S
C2638 C2636 1.381 . S
C2638 C2639 1.394 . S
C2638 H2646 0.930 . S
C2639 C2638 1.394 . S
C2639 C2640 1.383 . S
C2639 H2647 0.929 . S
C2640 C2639 1.383 . S
C2640 C2641 1.377 . S
C2641 H2625 0.930 . S
C2641 C2640 1.377 . S
C2641 C2642 1.379 . S
C2642 H2626 0.931 . S
C2642 C2636 1.383 . S
C2642 C2641 1.379 . S
H2643 C2637 0.959 . S
H2644 C2637 0.961 . S
H2645 C2637 0.960 . S
H2646 C2638 0.930 . S
H2647 C2639 0.929 . S
H2648 C2656 0.929 . S
H2649 C2658 0.930 . S
H2650 C2660 0.930 . S
H2651 C2663 0.929 . S
H2652 C2666 0.930 . S
H2653 C2668 0.960 . S
H2654 C2668 0.960 . S
H2655 C2668 0.960 . S
C2656 H2648 0.929 . S
C2656 C2657 1.377 . S
C2656 C2658 1.384 . S
C2657 C2656 1.377 . S
C2657 C2663 1.390 . S
C2658 H2649 0.930 . S
C2658 C2656 1.384 . S
C2658 C2659 1.372 . S
C2659 C2658 1.372 . S
C2659 C2660 1.400 . S
C2659 C2664 1.490 . S
C2660 H2650 0.930 . S
C2660 C2659 1.400 . S
C2660 C2663 1.386 . S
H2661 C2677 0.930 . S
H2662 C2678 0.931 . S
C2663 H2651 0.929 . S
C2663 C2657 1.390 . S
C2663 C2660 1.386 . S
C2664 C2659 1.490 . S
C2664 C2666 1.395 . S
C2664 C2667 1.403 . S
H2665 C2671 0.930 . S
C2666 H2652 0.930 . S
C2666 C2664 1.395 . S
C2666 C2669 1.403 . S
C2667 C2664 1.403 . S
C2667 C2668 1.524 . S
C2667 C2671 1.400 . S
C2668 H2653 0.960 . S
C2668 H2654 0.960 . S
C2668 H2655 0.960 . S
C2668 C2667 1.524 . S
C2669 C2666 1.403 . S
C2669 C2670 1.392 . S
C2669 C2673 1.495 . S
C2670 C2669 1.392 . S
C2670 C2671 1.385 . S
C2670 C2672 1.478 . S
C2671 H2665 0.930 . S
C2671 C2667 1.400 . S
C2671 C2670 1.385 . S
C2672 C2670 1.478 . S
C2672 C2674 1.381 . S
C2672 C2678 1.383 . S
C2673 C2669 1.495 . S
C2673 H2679 0.959 . S
C2673 H2680 0.961 . S
C2673 H2681 0.960 . S
C2674 C2672 1.381 . S
C2674 C2675 1.394 . S
C2674 H2682 0.930 . S
C2675 C2674 1.394 . S
C2675 C2676 1.383 . S
C2675 H2683 0.929 . S
C2676 C2675 1.383 . S
C2676 C2677 1.377 . S
C2677 H2661 0.930 . S
C2677 C2676 1.377 . S
C2677 C2678 1.379 . S
C2678 H2662 0.931 . S
C2678 C2672 1.383 . S
C2678 C2677 1.379 . S
H2679 C2673 0.959 . S
H2680 C2673 0.961 . S
H2681 C2673 0.960 . S
H2682 C2674 0.930 . S
H2683 C2675 0.929 . S
H2684 C2692 0.929 . S
H2685 C2694 0.930 . S
H2686 C2696 0.930 . S
H2687 C2699 0.929 . S
H2688 C2702 0.930 . S
H2689 C2704 0.960 . S
H2690 C2704 0.960 . S
H2691 C2704 0.960 . S
C2692 H2684 0.929 . S
C2692 C2693 1.377 . S
C2692 C2694 1.384 . S
C2693 C2692 1.377 . S
C2693 C2699 1.390 . S
C2694 H2685 0.930 . S
C2694 C2692 1.384 . S
C2694 C2695 1.372 . S
C2695 C2694 1.372 . S
C2695 C2696 1.400 . S
C2695 C2700 1.490 . S
C2696 H2686 0.930 . S
C2696 C2695 1.400 . S
C2696 C2699 1.386 . S
H2697 C2713 0.930 . S
H2698 C2714 0.931 . S
C2699 H2687 0.929 . S
C2699 C2693 1.390 . S
C2699 C2696 1.386 . S
C2700 C2695 1.490 . S
C2700 C2702 1.395 . S
C2700 C2703 1.403 . S
H2701 C2707 0.930 . S
C2702 H2688 0.930 . S
C2702 C2700 1.395 . S
C2702 C2705 1.403 . S
C2703 C2700 1.403 . S
C2703 C2704 1.524 . S
C2703 C2707 1.400 . S
C2704 H2689 0.960 . S
C2704 H2690 0.960 . S
C2704 H2691 0.960 . S
C2704 C2703 1.524 . S
C2705 C2702 1.403 . S
C2705 C2706 1.392 . S
C2705 C2709 1.495 . S
C2706 C2705 1.392 . S
C2706 C2707 1.385 . S
C2706 C2708 1.478 . S
C2707 H2701 0.930 . S
C2707 C2703 1.400 . S
C2707 C2706 1.385 . S
C2708 C2706 1.478 . S
C2708 C2710 1.381 . S
C2708 C2714 1.383 . S
C2709 C2705 1.495 . S
C2709 H2715 0.959 . S
C2709 H2716 0.961 . S
C2709 H2717 0.960 . S
C2710 C2708 1.381 . S
C2710 C2711 1.394 . S
C2710 H2718 0.930 . S
C2711 C2710 1.394 . S
C2711 C2712 1.383 . S
C2711 H2719 0.929 . S
C2712 C2711 1.383 . S
C2712 C2713 1.377 . S
C2713 H2697 0.930 . S
C2713 C2712 1.377 . S
C2713 C2714 1.379 . S
C2714 H2698 0.931 . S
C2714 C2708 1.383 . S
C2714 C2713 1.379 . S
H2715 C2709 0.959 . S
H2716 C2709 0.961 . S
H2717 C2709 0.960 . S
H2718 C2710 0.930 . S
H2719 C2711 0.929 . S
H2720 C2728 0.929 . S
H2721 C2730 0.930 . S
H2722 C2732 0.930 . S
H2723 C2735 0.929 . S
H2724 C2738 0.930 . S
H2725 C2740 0.960 . S
H2726 C2740 0.960 . S
H2727 C2740 0.960 . S
C2728 H2720 0.929 . S
C2728 C2729 1.377 . S
C2728 C2730 1.384 . S
C2729 C2728 1.377 . S
C2729 C2735 1.390 . S
C2730 H2721 0.930 . S
C2730 C2728 1.384 . S
C2730 C2731 1.372 . S
C2731 C2730 1.372 . S
C2731 C2732 1.400 . S
C2731 C2736 1.490 . S
C2732 H2722 0.930 . S
C2732 C2731 1.400 . S
C2732 C2735 1.386 . S
H2733 C2749 0.930 1_655 S
H2734 C2750 0.931 . S
C2735 H2723 0.929 . S
C2735 C2729 1.390 . S
C2735 C2732 1.386 . S
C2736 C2731 1.490 . S
C2736 C2738 1.395 . S
C2736 C2739 1.403 . S
H2737 C2743 0.930 . S
C2738 H2724 0.930 . S
C2738 C2736 1.395 . S
C2738 C2741 1.403 . S
C2739 C2736 1.403 . S
C2739 C2740 1.524 . S
C2739 C2743 1.400 . S
C2740 H2725 0.960 . S
C2740 H2726 0.960 . S
C2740 H2727 0.960 . S
C2740 C2739 1.524 . S
C2741 C2738 1.403 . S
C2741 C2742 1.392 . S
C2741 C2745 1.495 . S
C2742 C2741 1.392 . S
C2742 C2743 1.385 . S
C2742 C2744 1.478 . S
C2743 H2737 0.930 . S
C2743 C2739 1.400 . S
C2743 C2742 1.385 . S
C2744 C2742 1.478 . S
C2744 C2746 1.381 . S
C2744 C2750 1.383 . S
C2745 C2741 1.495 . S
C2745 H2751 0.959 . S
C2745 H2752 0.961 . S
C2745 H2753 0.960 . S
C2746 C2744 1.381 . S
C2746 C2747 1.394 . S
C2746 H2754 0.930 . S
C2747 C2746 1.394 . S
C2747 C2748 1.383 . S
C2747 H2755 0.929 . S
C2748 C2747 1.383 . S
C2748 C2749 1.377 . S
C2749 H2733 0.930 1_455 S
C2749 C2748 1.377 . S
C2749 C2750 1.379 . S
C2750 H2734 0.931 . S
C2750 C2744 1.383 . S
C2750 C2749 1.379 . S
H2751 C2745 0.959 . S
H2752 C2745 0.961 . S
H2753 C2745 0.960 . S
H2754 C2746 0.930 . S
H2755 C2747 0.929 . S
H2756 C2764 0.929 . S
H2757 C2766 0.930 . S
H2758 C2768 0.930 . S
H2759 C2771 0.929 . S
H2760 C2774 0.930 . S
H2761 C2776 0.960 . S
H2762 C2776 0.960 . S
H2763 C2776 0.960 . S
C2764 H2756 0.929 . S
C2764 C2765 1.377 . S
C2764 C2766 1.384 . S
C2765 C2764 1.377 . S
C2765 C2771 1.390 . S
C2766 H2757 0.930 . S
C2766 C2764 1.384 . S
C2766 C2767 1.372 . S
C2767 C2766 1.372 . S
C2767 C2768 1.400 . S
C2767 C2772 1.490 . S
C2768 H2758 0.930 . S
C2768 C2767 1.400 . S
C2768 C2771 1.386 . S
H2769 C2785 0.930 . S
H2770 C2786 0.931 . S
C2771 H2759 0.929 . S
C2771 C2765 1.390 . S
C2771 C2768 1.386 . S
C2772 C2767 1.490 . S
C2772 C2774 1.395 . S
C2772 C2775 1.403 . S
H2773 C2779 0.930 . S
C2774 H2760 0.930 . S
C2774 C2772 1.395 . S
C2774 C2777 1.403 . S
C2775 C2772 1.403 . S
C2775 C2776 1.524 . S
C2775 C2779 1.400 . S
C2776 H2761 0.960 . S
C2776 H2762 0.960 . S
C2776 H2763 0.960 . S
C2776 C2775 1.524 . S
C2777 C2774 1.403 . S
C2777 C2778 1.392 . S
C2777 C2781 1.495 . S
C2778 C2777 1.392 . S
C2778 C2779 1.385 . S
C2778 C2780 1.478 . S
C2779 H2773 0.930 . S
C2779 C2775 1.400 . S
C2779 C2778 1.385 . S
C2780 C2778 1.478 . S
C2780 C2782 1.381 . S
C2780 C2786 1.383 . S
C2781 C2777 1.495 . S
C2781 H2787 0.959 . S
C2781 H2788 0.961 . S
C2781 H2789 0.960 . S
C2782 C2780 1.381 . S
C2782 C2783 1.394 . S
C2782 H2790 0.930 . S
C2783 C2782 1.394 . S
C2783 C2784 1.383 . S
C2783 H2791 0.929 . S
C2784 C2783 1.383 . S
C2784 C2785 1.377 . S
C2785 H2769 0.930 . S
C2785 C2784 1.377 . S
C2785 C2786 1.379 . S
C2786 H2770 0.931 . S
C2786 C2780 1.383 . S
C2786 C2785 1.379 . S
H2787 C2781 0.959 . S
H2788 C2781 0.961 . S
H2789 C2781 0.960 . S
H2790 C2782 0.930 . S
H2791 C2783 0.929 . S
H2792 C2800 0.929 . S
H2793 C2802 0.930 . S
H2794 C2804 0.930 . S
H2795 C2807 0.929 . S
H2796 C2810 0.930 . S
H2797 C2812 0.960 . S
H2798 C2812 0.960 . S
H2799 C2812 0.960 . S
C2800 H2792 0.929 . S
C2800 C2801 1.377 . S
C2800 C2802 1.384 . S
C2801 C2800 1.377 . S
C2801 C2807 1.390 . S
C2802 H2793 0.930 . S
C2802 C2800 1.384 . S
C2802 C2803 1.372 . S
C2803 C2802 1.372 . S
C2803 C2804 1.400 . S
C2803 C2808 1.490 . S
C2804 H2794 0.930 . S
C2804 C2803 1.400 . S
C2804 C2807 1.386 . S
H2805 C2821 0.930 . S
H2806 C2822 0.931 . S
C2807 H2795 0.929 . S
C2807 C2801 1.390 . S
C2807 C2804 1.386 . S
C2808 C2803 1.490 . S
C2808 C2810 1.395 . S
C2808 C2811 1.403 . S
H2809 C2815 0.930 . S
C2810 H2796 0.930 . S
C2810 C2808 1.395 . S
C2810 C2813 1.403 . S
C2811 C2808 1.403 . S
C2811 C2812 1.524 . S
C2811 C2815 1.400 . S
C2812 H2797 0.960 . S
C2812 H2798 0.960 . S
C2812 H2799 0.960 . S
C2812 C2811 1.524 . S
C2813 C2810 1.403 . S
C2813 C2814 1.392 . S
C2813 C2817 1.495 . S
C2814 C2813 1.392 . S
C2814 C2815 1.385 . S
C2814 C2816 1.478 . S
C2815 H2809 0.930 . S
C2815 C2811 1.400 . S
C2815 C2814 1.385 . S
C2816 C2814 1.478 . S
C2816 C2818 1.381 . S
C2816 C2822 1.383 . S
C2817 C2813 1.495 . S
C2817 H2823 0.959 . S
C2817 H2824 0.961 . S
C2817 H2825 0.960 . S
C2818 C2816 1.381 . S
C2818 C2819 1.394 . S
C2818 H2826 0.930 . S
C2819 C2818 1.394 . S
C2819 C2820 1.383 . S
C2819 H2827 0.929 . S
C2820 C2819 1.383 . S
C2820 C2821 1.377 . S
C2821 H2805 0.930 . S
C2821 C2820 1.377 . S
C2821 C2822 1.379 . S
C2822 H2806 0.931 . S
C2822 C2816 1.383 . S
C2822 C2821 1.379 . S
H2823 C2817 0.959 . S
H2824 C2817 0.961 . S
H2825 C2817 0.960 . S
H2826 C2818 0.930 . S
H2827 C2819 0.929 . S
H2828 C2836 0.929 . S
H2829 C2838 0.930 . S
H2830 C2840 0.930 . S
H2831 C2843 0.929 . S
H2832 C2846 0.930 . S
H2833 C2848 0.960 . S
H2834 C2848 0.960 . S
H2835 C2848 0.960 . S
C2836 H2828 0.929 . S
C2836 C2837 1.377 . S
C2836 C2838 1.384 . S
C2837 C2836 1.377 . S
C2837 C2843 1.390 . S
C2838 H2829 0.930 . S
C2838 C2836 1.384 . S
C2838 C2839 1.372 . S
C2839 C2838 1.372 . S
C2839 C2840 1.400 . S
C2839 C2844 1.490 . S
C2840 H2830 0.930 . S
C2840 C2839 1.400 . S
C2840 C2843 1.386 . S
H2841 C2857 0.930 . S
H2842 C2858 0.931 . S
C2843 H2831 0.929 . S
C2843 C2837 1.390 . S
C2843 C2840 1.386 . S
C2844 C2839 1.490 . S
C2844 C2846 1.395 . S
C2844 C2847 1.403 . S
H2845 C2851 0.930 . S
C2846 H2832 0.930 . S
C2846 C2844 1.395 . S
C2846 C2849 1.403 . S
C2847 C2844 1.403 . S
C2847 C2848 1.524 . S
C2847 C2851 1.400 . S
C2848 H2833 0.960 . S
C2848 H2834 0.960 . S
C2848 H2835 0.960 . S
C2848 C2847 1.524 . S
C2849 C2846 1.403 . S
C2849 C2850 1.392 . S
C2849 C2853 1.495 . S
C2850 C2849 1.392 . S
C2850 C2851 1.385 . S
C2850 C2852 1.478 . S
C2851 H2845 0.930 . S
C2851 C2847 1.400 . S
C2851 C2850 1.385 . S
C2852 C2850 1.478 . S
C2852 C2854 1.381 . S
C2852 C2858 1.383 . S
C2853 C2849 1.495 . S
C2853 H2859 0.959 . S
C2853 H2860 0.961 . S
C2853 H2861 0.960 . S
C2854 C2852 1.381 . S
C2854 C2855 1.394 . S
C2854 H2862 0.930 . S
C2855 C2854 1.394 . S
C2855 C2856 1.383 . S
C2855 H2863 0.929 . S
C2856 C2855 1.383 . S
C2856 C2857 1.377 . S
C2857 H2841 0.930 . S
C2857 C2856 1.377 . S
C2857 C2858 1.379 . S
C2858 H2842 0.931 . S
C2858 C2852 1.383 . S
C2858 C2857 1.379 . S
H2859 C2853 0.959 . S
H2860 C2853 0.961 . S
H2861 C2853 0.960 . S
H2862 C2854 0.930 . S
H2863 C2855 0.929 . S
H2864 C2872 0.929 . S
H2865 C2874 0.930 . S
H2866 C2876 0.930 . S
H2867 C2879 0.929 . S
H2868 C2882 0.930 . S
H2869 C2884 0.960 . S
H2870 C2884 0.960 . S
H2871 C2884 0.960 . S
C2872 H2864 0.929 . S
C2872 C2873 1.377 . S
C2872 C2874 1.384 . S
C2873 C2872 1.377 . S
C2873 C2879 1.390 . S
C2874 H2865 0.930 . S
C2874 C2872 1.384 . S
C2874 C2875 1.372 . S
C2875 C2874 1.372 . S
C2875 C2876 1.400 . S
C2875 C2880 1.490 . S
C2876 H2866 0.930 . S
C2876 C2875 1.400 . S
C2876 C2879 1.386 . S
H2877 C2893 0.930 . S
H2878 C2894 0.931 . S
C2879 H2867 0.929 . S
C2879 C2873 1.390 . S
C2879 C2876 1.386 . S
C2880 C2875 1.490 . S
C2880 C2882 1.395 . S
C2880 C2883 1.403 . S
H2881 C2887 0.930 . S
C2882 H2868 0.930 . S
C2882 C2880 1.395 . S
C2882 C2885 1.403 . S
C2883 C2880 1.403 . S
C2883 C2884 1.524 . S
C2883 C2887 1.400 . S
C2884 H2869 0.960 . S
C2884 H2870 0.960 . S
C2884 H2871 0.960 . S
C2884 C2883 1.524 . S
C2885 C2882 1.403 . S
C2885 C2886 1.392 . S
C2885 C2889 1.495 . S
C2886 C2885 1.392 . S
C2886 C2887 1.385 . S
C2886 C2888 1.478 . S
C2887 H2881 0.930 . S
C2887 C2883 1.400 . S
C2887 C2886 1.385 . S
C2888 C2886 1.478 . S
C2888 C2890 1.381 . S
C2888 C2894 1.383 . S
C2889 C2885 1.495 . S
C2889 H2895 0.959 . S
C2889 H2896 0.961 . S
C2889 H2897 0.960 . S
C2890 C2888 1.381 . S
C2890 C2891 1.394 . S
C2890 H2898 0.930 . S
C2891 C2890 1.394 . S
C2891 C2892 1.383 . S
C2891 H2899 0.929 . S
C2892 C2891 1.383 . S
C2892 C2893 1.377 . S
C2893 H2877 0.930 . S
C2893 C2892 1.377 . S
C2893 C2894 1.379 . S
C2894 H2878 0.931 . S
C2894 C2888 1.383 . S
C2894 C2893 1.379 . S
H2895 C2889 0.959 . S
H2896 C2889 0.961 . S
H2897 C2889 0.960 . S
H2898 C2890 0.930 . S
H2899 C2891 0.929 . S
H2900 C2908 0.929 . S
H2901 C2910 0.930 . S
H2902 C2912 0.930 . S
H2903 C2915 0.929 . S
H2904 C2918 0.930 . S
H2905 C2920 0.960 . S
H2906 C2920 0.960 . S
H2907 C2920 0.960 . S
C2908 H2900 0.929 . S
C2908 C2909 1.377 . S
C2908 C2910 1.384 . S
C2909 C2908 1.377 . S
C2909 C2915 1.390 . S
C2910 H2901 0.930 . S
C2910 C2908 1.384 . S
C2910 C2911 1.372 . S
C2911 C2910 1.372 . S
C2911 C2912 1.400 . S
C2911 C2916 1.490 . S
C2912 H2902 0.930 . S
C2912 C2911 1.400 . S
C2912 C2915 1.386 . S
H2913 C2929 0.930 . S
H2914 C2930 0.931 . S
C2915 H2903 0.929 . S
C2915 C2909 1.390 . S
C2915 C2912 1.386 . S
C2916 C2911 1.490 . S
C2916 C2918 1.395 . S
C2916 C2919 1.403 . S
H2917 C2923 0.930 . S
C2918 H2904 0.930 . S
C2918 C2916 1.395 . S
C2918 C2921 1.403 . S
C2919 C2916 1.403 . S
C2919 C2920 1.524 . S
C2919 C2923 1.400 . S
C2920 H2905 0.960 . S
C2920 H2906 0.960 . S
C2920 H2907 0.960 . S
C2920 C2919 1.524 . S
C2921 C2918 1.403 . S
C2921 C2922 1.392 . S
C2921 C2925 1.495 . S
C2922 C2921 1.392 . S
C2922 C2923 1.385 . S
C2922 C2924 1.478 . S
C2923 H2917 0.930 . S
C2923 C2919 1.400 . S
C2923 C2922 1.385 . S
C2924 C2922 1.478 . S
C2924 C2926 1.381 . S
C2924 C2930 1.383 . S
C2925 C2921 1.495 . S
C2925 H2931 0.959 . S
C2925 H2932 0.961 . S
C2925 H2933 0.960 . S
C2926 C2924 1.381 . S
C2926 C2927 1.394 . S
C2926 H2934 0.930 . S
C2927 C2926 1.394 . S
C2927 C2928 1.383 . S
C2927 H2935 0.929 . S
C2928 C2927 1.383 . S
C2928 C2929 1.377 . S
C2929 H2913 0.930 . S
C2929 C2928 1.377 . S
C2929 C2930 1.379 . S
C2930 H2914 0.931 . S
C2930 C2924 1.383 . S
C2930 C2929 1.379 . S
H2931 C2925 0.959 . S
H2932 C2925 0.961 . S
H2933 C2925 0.960 . S
H2934 C2926 0.930 . S
H2935 C2927 0.929 . S
H2936 C2944 0.929 . S
H2937 C2946 0.930 . S
H2938 C2948 0.930 . S
H2939 C2951 0.929 . S
H2940 C2954 0.930 . S
H2941 C2956 0.960 . S
H2942 C2956 0.960 . S
H2943 C2956 0.960 . S
C2944 H2936 0.929 . S
C2944 C2945 1.377 . S
C2944 C2946 1.384 . S
C2945 C2944 1.377 . S
C2945 C2951 1.390 . S
C2946 H2937 0.930 . S
C2946 C2944 1.384 . S
C2946 C2947 1.372 . S
C2947 C2946 1.372 . S
C2947 C2948 1.400 . S
C2947 C2952 1.490 . S
C2948 H2938 0.930 . S
C2948 C2947 1.400 . S
C2948 C2951 1.386 . S
H2949 C2965 0.930 . S
H2950 C2966 0.931 . S
C2951 H2939 0.929 . S
C2951 C2945 1.390 . S
C2951 C2948 1.386 . S
C2952 C2947 1.490 . S
C2952 C2954 1.395 . S
C2952 C2955 1.403 . S
H2953 C2959 0.930 . S
C2954 H2940 0.930 . S
C2954 C2952 1.395 . S
C2954 C2957 1.403 . S
C2955 C2952 1.403 . S
C2955 C2956 1.524 . S
C2955 C2959 1.400 . S
C2956 H2941 0.960 . S
C2956 H2942 0.960 . S
C2956 H2943 0.960 . S
C2956 C2955 1.524 . S
C2957 C2954 1.403 . S
C2957 C2958 1.392 . S
C2957 C2961 1.495 . S
C2958 C2957 1.392 . S
C2958 C2959 1.385 . S
C2958 C2960 1.478 . S
C2959 H2953 0.930 . S
C2959 C2955 1.400 . S
C2959 C2958 1.385 . S
C2960 C2958 1.478 . S
C2960 C2962 1.381 . S
C2960 C2966 1.383 . S
C2961 C2957 1.495 . S
C2961 H2967 0.959 . S
C2961 H2968 0.961 . S
C2961 H2969 0.960 . S
C2962 C2960 1.381 . S
C2962 C2963 1.394 . S
C2962 H2970 0.930 . S
C2963 C2962 1.394 . S
C2963 C2964 1.383 . S
C2963 H2971 0.929 . S
C2964 C2963 1.383 . S
C2964 C2965 1.377 . S
C2965 H2949 0.930 . S
C2965 C2964 1.377 . S
C2965 C2966 1.379 . S
C2966 H2950 0.931 . S
C2966 C2960 1.383 . S
C2966 C2965 1.379 . S
H2967 C2961 0.959 . S
H2968 C2961 0.961 . S
H2969 C2961 0.960 . S
H2970 C2962 0.930 . S
H2971 C2963 0.929 . S
H2972 C2980 0.929 . S
H2973 C2982 0.930 . S
H2974 C2984 0.930 . S
H2975 C2987 0.929 . S
H2976 C2990 0.930 . S
H2977 C2992 0.960 . S
H2978 C2992 0.960 . S
H2979 C2992 0.960 . S
C2980 H2972 0.929 . S
C2980 C2981 1.377 . S
C2980 C2982 1.384 . S
C2981 C2980 1.377 . S
C2981 C2987 1.390 . S
C2982 H2973 0.930 . S
C2982 C2980 1.384 . S
C2982 C2983 1.372 . S
C2983 C2982 1.372 . S
C2983 C2984 1.400 . S
C2983 C2988 1.490 . S
C2984 H2974 0.930 . S
C2984 C2983 1.400 . S
C2984 C2987 1.386 . S
H2985 C3001 0.930 . S
H2986 C3002 0.931 . S
C2987 H2975 0.929 . S
C2987 C2981 1.390 . S
C2987 C2984 1.386 . S
C2988 C2983 1.490 . S
C2988 C2990 1.395 . S
C2988 C2991 1.403 . S
H2989 C2995 0.930 . S
C2990 H2976 0.930 . S
C2990 C2988 1.395 . S
C2990 C2993 1.403 . S
C2991 C2988 1.403 . S
C2991 C2992 1.524 . S
C2991 C2995 1.400 . S
C2992 H2977 0.960 . S
C2992 H2978 0.960 . S
C2992 H2979 0.960 . S
C2992 C2991 1.524 . S
C2993 C2990 1.403 . S
C2993 C2994 1.392 . S
C2993 C2997 1.495 . S
C2994 C2993 1.392 . S
C2994 C2995 1.385 . S
C2994 C2996 1.478 . S
C2995 H2989 0.930 . S
C2995 C2991 1.400 . S
C2995 C2994 1.385 . S
C2996 C2994 1.478 . S
C2996 C2998 1.381 . S
C2996 C3002 1.383 . S
C2997 C2993 1.495 . S
C2997 H3003 0.959 . S
C2997 H3004 0.961 . S
C2997 H3005 0.960 . S
C2998 C2996 1.381 . S
C2998 C2999 1.394 . S
C2998 H3006 0.930 . S
C2999 C2998 1.394 . S
C2999 C3000 1.383 . S
C2999 H3007 0.929 . S
C3000 C2999 1.383 . S
C3000 C3001 1.377 . S
C3001 H2985 0.930 . S
C3001 C3000 1.377 . S
C3001 C3002 1.379 . S
C3002 H2986 0.931 . S
C3002 C2996 1.383 . S
C3002 C3001 1.379 . S
H3003 C2997 0.959 . S
H3004 C2997 0.961 . S
H3005 C2997 0.960 . S
H3006 C2998 0.930 . S
H3007 C2999 0.929 . S
H3008 C3016 0.929 . S
H3009 C3018 0.930 . S
H3010 C3020 0.930 . S
H3011 C3023 0.929 . S
H3012 C3026 0.930 . S
H3013 C3028 0.960 . S
H3014 C3028 0.960 . S
H3015 C3028 0.960 . S
C3016 H3008 0.929 . S
C3016 C3017 1.377 . S
C3016 C3018 1.384 . S
C3017 C3016 1.377 . S
C3017 C3023 1.390 . S
C3018 H3009 0.930 . S
C3018 C3016 1.384 . S
C3018 C3019 1.372 . S
C3019 C3018 1.372 . S
C3019 C3020 1.400 . S
C3019 C3024 1.490 . S
C3020 H3010 0.930 . S
C3020 C3019 1.400 . S
C3020 C3023 1.386 . S
H3021 C3037 0.930 . S
H3022 C3038 0.931 . S
C3023 H3011 0.929 . S
C3023 C3017 1.390 . S
C3023 C3020 1.386 . S
C3024 C3019 1.490 . S
C3024 C3026 1.395 . S
C3024 C3027 1.403 . S
H3025 C3031 0.930 . S
C3026 H3012 0.930 . S
C3026 C3024 1.395 . S
C3026 C3029 1.403 . S
C3027 C3024 1.403 . S
C3027 C3028 1.524 . S
C3027 C3031 1.400 . S
C3028 H3013 0.960 . S
C3028 H3014 0.960 . S
C3028 H3015 0.960 . S
C3028 C3027 1.524 . S
C3029 C3026 1.403 . S
C3029 C3030 1.392 . S
C3029 C3033 1.495 . S
C3030 C3029 1.392 . S
C3030 C3031 1.385 . S
C3030 C3032 1.478 . S
C3031 H3025 0.930 . S
C3031 C3027 1.400 . S
C3031 C3030 1.385 . S
C3032 C3030 1.478 . S
C3032 C3034 1.381 . S
C3032 C3038 1.383 . S
C3033 C3029 1.495 . S
C3033 H3039 0.959 . S
C3033 H3040 0.961 . S
C3033 H3041 0.960 . S
C3034 C3032 1.381 . S
C3034 C3035 1.394 . S
C3034 H3042 0.930 . S
C3035 C3034 1.394 . S
C3035 C3036 1.383 . S
C3035 H3043 0.929 . S
C3036 C3035 1.383 . S
C3036 C3037 1.377 . S
C3037 H3021 0.930 . S
C3037 C3036 1.377 . S
C3037 C3038 1.379 . S
C3038 H3022 0.931 . S
C3038 C3032 1.383 . S
C3038 C3037 1.379 . S
H3039 C3033 0.959 . S
H3040 C3033 0.961 . S
H3041 C3033 0.960 . S
H3042 C3034 0.930 . S
H3043 C3035 0.929 . S
H3044 C3052 0.929 . S
H3045 C3054 0.930 1_556 S
H3046 C3056 0.930 . S
H3047 C3059 0.929 . S
H3048 C3062 0.930 . S
H3049 C3064 0.960 . S
H3050 C3064 0.960 . S
H3051 C3064 0.960 . S
C3052 H3044 0.929 . S
C3052 C3053 1.377 . S
C3052 C3054 1.384 . S
C3053 C3052 1.377 . S
C3053 C3059 1.390 . S
C3054 H3045 0.930 1_554 S
C3054 C3052 1.384 . S
C3054 C3055 1.372 . S
C3055 C3054 1.372 . S
C3055 C3056 1.400 . S
C3055 C3060 1.490 . S
C3056 H3046 0.930 . S
C3056 C3055 1.400 . S
C3056 C3059 1.386 . S
H3057 C3073 0.930 . S
H3058 C3074 0.931 1_565 S
C3059 H3047 0.929 . S
C3059 C3053 1.390 . S
C3059 C3056 1.386 . S
C3060 C3055 1.490 . S
C3060 C3062 1.395 . S
C3060 C3063 1.403 . S
H3061 C3067 0.930 . S
C3062 H3048 0.930 . S
C3062 C3060 1.395 . S
C3062 C3065 1.403 . S
C3063 C3060 1.403 . S
C3063 C3064 1.524 . S
C3063 C3067 1.400 . S
C3064 H3049 0.960 . S
C3064 H3050 0.960 . S
C3064 H3051 0.960 . S
C3064 C3063 1.524 . S
C3065 C3062 1.403 . S
C3065 C3066 1.392 . S
C3065 C3069 1.495 1_565 S
C3066 C3065 1.392 . S
C3066 C3067 1.385 . S
C3066 C3068 1.478 . S
C3067 H3061 0.930 . S
C3067 C3063 1.400 . S
C3067 C3066 1.385 . S
C3068 C3066 1.478 . S
C3068 C3070 1.373 1_564 S
C3068 C3074 1.383 1_565 S
C3069 C3065 1.495 1_545 S
C3069 H3075 0.959 . S
C3069 H3076 0.961 . S
C3069 H3077 0.960 1_554 S
C3070 C3068 1.373 1_546 S
C3070 C3071 1.407 . S
C3070 H3078 0.927 1_545 S
C3071 C3070 1.407 . S
C3071 C3072 1.383 1_556 S
C3071 H3079 0.929 . S
C3072 C3071 1.383 1_554 S
C3072 C3073 1.377 . S
C3073 H3057 0.930 . S
C3073 C3072 1.377 . S
C3073 C3074 1.379 . S
C3074 H3058 0.931 1_545 S
C3074 C3068 1.383 1_545 S
C3074 C3073 1.379 . S
H3075 C3069 0.959 . S
H3076 C3069 0.961 . S
H3077 C3069 0.960 1_556 S
H3078 C3070 0.927 1_565 S
H3079 C3071 0.929 . S
H3080 C3088 0.929 . S
H3081 C3090 0.930 . S
H3082 C3092 0.930 . S
H3083 C3095 0.929 . S
H3084 C3098 0.930 . S
H3085 C3100 0.960 . S
H3086 C3100 0.960 . S
H3087 C3100 0.960 . S
C3088 H3080 0.929 . S
C3088 C3089 1.377 . S
C3088 C3090 1.384 . S
C3089 C3088 1.377 . S
C3089 C3095 1.390 . S
C3090 H3081 0.930 . S
C3090 C3088 1.384 . S
C3090 C3091 1.372 . S
C3091 C3090 1.372 . S
C3091 C3092 1.400 . S
C3091 C3096 1.490 . S
C3092 H3082 0.930 . S
C3092 C3091 1.400 . S
C3092 C3095 1.386 . S
H3093 C3109 0.930 . S
H3094 C3110 0.931 . S
C3095 H3083 0.929 . S
C3095 C3089 1.390 . S
C3095 C3092 1.386 . S
C3096 C3091 1.490 . S
C3096 C3098 1.395 . S
C3096 C3099 1.403 . S
H3097 C3103 0.930 . S
C3098 H3084 0.930 . S
C3098 C3096 1.395 . S
C3098 C3101 1.403 . S
C3099 C3096 1.403 . S
C3099 C3100 1.524 . S
C3099 C3103 1.400 . S
C3100 H3085 0.960 . S
C3100 H3086 0.960 . S
C3100 H3087 0.960 . S
C3100 C3099 1.524 . S
C3101 C3098 1.403 . S
C3101 C3102 1.392 . S
C3101 C3105 1.495 . S
C3102 C3101 1.392 . S
C3102 C3103 1.385 . S
C3102 C3104 1.478 . S
C3103 H3097 0.930 . S
C3103 C3099 1.400 . S
C3103 C3102 1.385 . S
C3104 C3102 1.478 . S
C3104 C3106 1.381 . S
C3104 C3110 1.383 . S
C3105 C3101 1.495 . S
C3105 H3111 0.959 . S
C3105 H3112 0.961 . S
C3105 H3113 0.960 . S
C3106 C3104 1.381 . S
C3106 C3107 1.394 . S
C3106 H3114 0.930 . S
C3107 C3106 1.394 . S
C3107 C3108 1.383 . S
C3107 H3115 0.929 . S
C3108 C3107 1.383 . S
C3108 C3109 1.377 . S
C3109 H3093 0.930 . S
C3109 C3108 1.377 . S
C3109 C3110 1.379 . S
C3110 H3094 0.931 . S
C3110 C3104 1.383 . S
C3110 C3109 1.379 . S
H3111 C3105 0.959 . S
H3112 C3105 0.961 . S
H3113 C3105 0.960 . S
H3114 C3106 0.930 . S
H3115 C3107 0.929 . S
H3116 C3124 0.893 1_556 S
H3117 C3126 0.930 1_556 S
H3118 C3128 0.930 . S
H3119 C3131 0.929 . S
H3120 C3134 0.930 . S
H3121 C3136 0.960 . S
H3122 C3136 0.960 . S
H3123 C3136 0.960 . S
C3124 H3116 0.893 1_554 S
C3124 C3125 1.408 . S
C3124 C3126 1.389 . S
C3125 C3124 1.408 . S
C3125 C3131 1.390 . S
C3126 H3117 0.930 1_554 S
C3126 C3124 1.389 . S
C3126 C3127 1.372 . S
C3127 C3126 1.372 . S
C3127 C3128 1.400 . S
C3127 C3132 1.490 . S
C3128 H3118 0.930 . S
C3128 C3127 1.400 . S
C3128 C3131 1.386 . S
H3129 C3145 0.930 . S
H3130 C3146 0.931 . S
C3131 H3119 0.929 . S
C3131 C3125 1.390 . S
C3131 C3128 1.386 . S
C3132 C3127 1.490 . S
C3132 C3134 1.395 . S
C3132 C3135 1.403 . S
H3133 C3139 0.930 . S
C3134 H3120 0.930 . S
C3134 C3132 1.395 . S
C3134 C3137 1.403 . S
C3135 C3132 1.403 . S
C3135 C3136 1.524 . S
C3135 C3139 1.400 . S
C3136 H3121 0.960 . S
C3136 H3122 0.960 . S
C3136 H3123 0.960 . S
C3136 C3135 1.524 . S
C3137 C3134 1.403 . S
C3137 C3138 1.392 . S
C3137 C3141 1.495 . S
C3138 C3137 1.392 . S
C3138 C3139 1.385 . S
C3138 C3140 1.478 . S
C3139 H3133 0.930 . S
C3139 C3135 1.400 . S
C3139 C3138 1.385 . S
C3140 C3138 1.478 . S
C3140 C3142 1.381 . S
C3140 C3146 1.383 . S
C3141 C3137 1.495 . S
C3141 H3147 0.959 . S
C3141 H3148 0.961 . S
C3141 H3149 0.960 . S
C3142 C3140 1.381 . S
C3142 C3143 1.394 . S
C3142 H3150 0.930 . S
C3143 C3142 1.394 . S
C3143 C3144 1.383 . S
C3143 H3151 0.929 . S
C3144 C3143 1.383 . S
C3144 C3145 1.377 . S
C3145 H3129 0.930 . S
C3145 C3144 1.377 . S
C3145 C3146 1.379 . S
C3146 H3130 0.931 . S
C3146 C3140 1.383 . S
C3146 C3145 1.379 . S
H3147 C3141 0.959 . S
H3148 C3141 0.961 . S
H3149 C3141 0.960 . S
H3150 C3142 0.930 . S
H3151 C3143 0.929 . S
H3152 C3160 0.929 . S
H3153 C3162 0.930 . S
H3154 C3164 0.930 . S
H3155 C3167 0.929 . S
H3156 C3170 0.930 . S
H3157 C3172 0.960 . S
H3158 C3172 0.960 . S
H3159 C3172 0.960 . S
C3160 H3152 0.929 . S
C3160 C3161 1.377 . S
C3160 C3162 1.384 . S
C3161 C3160 1.377 . S
C3161 C3167 1.390 . S
C3162 H3153 0.930 . S
C3162 C3160 1.384 . S
C3162 C3163 1.372 . S
C3163 C3162 1.372 . S
C3163 C3164 1.400 . S
C3163 C3168 1.490 . S
C3164 H3154 0.930 . S
C3164 C3163 1.400 . S
C3164 C3167 1.386 . S
H3165 C3181 0.930 . S
H3166 C3182 0.931 . S
C3167 H3155 0.929 . S
C3167 C3161 1.390 . S
C3167 C3164 1.386 . S
C3168 C3163 1.490 . S
C3168 C3170 1.395 . S
C3168 C3171 1.403 . S
H3169 C3175 0.930 . S
C3170 H3156 0.930 . S
C3170 C3168 1.395 . S
C3170 C3173 1.403 . S
C3171 C3168 1.403 . S
C3171 C3172 1.524 . S
C3171 C3175 1.400 . S
C3172 H3157 0.960 . S
C3172 H3158 0.960 . S
C3172 H3159 0.960 . S
C3172 C3171 1.524 . S
C3173 C3170 1.403 . S
C3173 C3174 1.392 . S
C3173 C3177 1.495 . S
C3174 C3173 1.392 . S
C3174 C3175 1.385 . S
C3174 C3176 1.478 . S
C3175 H3169 0.930 . S
C3175 C3171 1.400 . S
C3175 C3174 1.385 . S
C3176 C3174 1.478 . S
C3176 C3178 1.381 . S
C3176 C3182 1.383 . S
C3177 C3173 1.495 . S
C3177 H3183 0.959 . S
C3177 H3184 0.961 . S
C3177 H3185 0.960 . S
C3178 C3176 1.381 . S
C3178 C3179 1.394 . S
C3178 H3186 0.930 . S
C3179 C3178 1.394 . S
C3179 C3180 1.383 . S
C3179 H3187 0.929 . S
C3180 C3179 1.383 . S
C3180 C3181 1.377 . S
C3181 H3165 0.930 . S
C3181 C3180 1.377 . S
C3181 C3182 1.379 . S
C3182 H3166 0.931 . S
C3182 C3176 1.383 . S
C3182 C3181 1.379 . S
H3183 C3177 0.959 . S
H3184 C3177 0.961 . S
H3185 C3177 0.960 . S
H3186 C3178 0.930 . S
H3187 C3179 0.929 . S
H3188 C3196 0.929 . S
H3189 C3198 0.930 . S
H3190 C3200 0.930 . S
H3191 C3203 0.929 1_545 S
H3192 C3206 0.930 . S
H3193 C3208 0.960 . S
H3194 C3208 0.960 . S
H3195 C3208 0.960 . S
C3196 H3188 0.929 . S
C3196 C3197 1.377 . S
C3196 C3198 1.384 . S
C3197 C3196 1.377 . S
C3197 C3203 1.390 . S
C3198 H3189 0.930 . S
C3198 C3196 1.384 . S
C3198 C3199 1.372 . S
C3199 C3198 1.372 . S
C3199 C3200 1.400 . S
C3199 C3204 1.490 . S
C3200 H3190 0.930 . S
C3200 C3199 1.400 . S
C3200 C3203 1.386 . S
H3201 C3217 0.930 . S
H3202 C3218 0.931 . S
C3203 H3191 0.929 1_565 S
C3203 C3197 1.390 . S
C3203 C3200 1.386 . S
C3204 C3199 1.490 . S
C3204 C3206 1.395 . S
C3204 C3207 1.403 . S
H3205 C3211 0.930 . S
C3206 H3192 0.930 . S
C3206 C3204 1.395 . S
C3206 C3209 1.403 . S
C3207 C3204 1.403 . S
C3207 C3208 1.524 . S
C3207 C3211 1.400 . S
C3208 H3193 0.960 . S
C3208 H3194 0.960 . S
C3208 H3195 0.960 . S
C3208 C3207 1.524 . S
C3209 C3206 1.403 . S
C3209 C3210 1.392 . S
C3209 C3213 1.495 . S
C3210 C3209 1.392 . S
C3210 C3211 1.385 . S
C3210 C3212 1.478 . S
C3211 H3205 0.930 . S
C3211 C3207 1.400 . S
C3211 C3210 1.385 . S
C3212 C3210 1.478 . S
C3212 C3214 1.381 . S
C3212 C3218 1.383 . S
C3213 C3209 1.495 . S
C3213 H3219 0.959 . S
C3213 H3220 0.961 . S
C3213 H3221 0.960 . S
C3214 C3212 1.381 . S
C3214 C3215 1.394 . S
C3214 H3222 0.930 . S
C3215 C3214 1.394 . S
C3215 C3216 1.383 . S
C3215 H3223 0.929 . S
C3216 C3215 1.383 . S
C3216 C3217 1.377 . S
C3217 H3201 0.930 . S
C3217 C3216 1.377 . S
C3217 C3218 1.379 . S
C3218 H3202 0.931 . S
C3218 C3212 1.383 . S
C3218 C3217 1.379 . S
H3219 C3213 0.959 . S
H3220 C3213 0.961 . S
H3221 C3213 0.960 . S
H3222 C3214 0.930 . S
H3223 C3215 0.929 . S
H3224 C3232 0.929 . S
H3225 C3234 0.930 . S
H3226 C3236 0.930 . S
H3227 C3239 0.929 . S
H3228 C3242 0.930 . S
H3229 C3244 0.960 . S
H3230 C3244 0.960 . S
H3231 C3244 0.960 . S
C3232 H3224 0.929 . S
C3232 C3233 1.377 . S
C3232 C3234 1.384 . S
C3233 C3232 1.377 . S
C3233 C3239 1.390 . S
C3234 H3225 0.930 . S
C3234 C3232 1.384 . S
C3234 C3235 1.372 . S
C3235 C3234 1.372 . S
C3235 C3236 1.400 . S
C3235 C3240 1.490 . S
C3236 H3226 0.930 . S
C3236 C3235 1.400 . S
C3236 C3239 1.386 . S
H3237 C3253 0.930 . S
H3238 C3254 0.931 . S
C3239 H3227 0.929 . S
C3239 C3233 1.390 . S
C3239 C3236 1.386 . S
C3240 C3235 1.490 . S
C3240 C3242 1.395 . S
C3240 C3243 1.403 . S
H3241 C3247 0.930 . S
C3242 H3228 0.930 . S
C3242 C3240 1.395 . S
C3242 C3245 1.403 . S
C3243 C3240 1.403 . S
C3243 C3244 1.524 . S
C3243 C3247 1.400 . S
C3244 H3229 0.960 . S
C3244 H3230 0.960 . S
C3244 H3231 0.960 . S
C3244 C3243 1.524 . S
C3245 C3242 1.403 . S
C3245 C3246 1.392 . S
C3245 C3249 1.495 . S
C3246 C3245 1.392 . S
C3246 C3247 1.385 . S
C3246 C3248 1.478 . S
C3247 H3241 0.930 . S
C3247 C3243 1.400 . S
C3247 C3246 1.385 . S
C3248 C3246 1.478 . S
C3248 C3250 1.381 . S
C3248 C3254 1.383 . S
C3249 C3245 1.495 . S
C3249 H3255 0.959 . S
C3249 H3256 0.961 . S
C3249 H3257 0.960 . S
C3250 C3248 1.381 . S
C3250 C3251 1.394 . S
C3250 H3258 0.930 . S
C3251 C3250 1.394 . S
C3251 C3252 1.383 . S
C3251 H3259 0.929 . S
C3252 C3251 1.383 . S
C3252 C3253 1.377 . S
C3253 H3237 0.930 . S
C3253 C3252 1.377 . S
C3253 C3254 1.379 . S
C3254 H3238 0.931 . S
C3254 C3248 1.383 . S
C3254 C3253 1.379 . S
H3255 C3249 0.959 . S
H3256 C3249 0.961 . S
H3257 C3249 0.960 . S
H3258 C3250 0.930 . S
H3259 C3251 0.929 . S
H3260 C3268 0.929 . S
H3261 C3270 0.930 . S
H3262 C3272 0.930 . S
H3263 C3275 0.929 . S
H3264 C3278 0.930 . S
H3265 C3280 0.960 . S
H3266 C3280 0.960 . S
H3267 C3280 0.960 . S
C3268 H3260 0.929 . S
C3268 C3269 1.377 . S
C3268 C3270 1.384 . S
C3269 C3268 1.377 . S
C3269 C3275 1.390 . S
C3270 H3261 0.930 . S
C3270 C3268 1.384 . S
C3270 C3271 1.372 . S
C3271 C3270 1.372 . S
C3271 C3272 1.400 . S
C3271 C3276 1.490 . S
C3272 H3262 0.930 . S
C3272 C3271 1.400 . S
C3272 C3275 1.386 . S
H3273 C3289 0.930 . S
H3274 C3290 0.931 . S
C3275 H3263 0.929 . S
C3275 C3269 1.390 . S
C3275 C3272 1.386 . S
C3276 C3271 1.490 . S
C3276 C3278 1.395 . S
C3276 C3279 1.403 . S
H3277 C3283 0.930 . S
C3278 H3264 0.930 . S
C3278 C3276 1.395 . S
C3278 C3281 1.403 . S
C3279 C3276 1.403 . S
C3279 C3280 1.524 . S
C3279 C3283 1.400 . S
C3280 H3265 0.960 . S
C3280 H3266 0.960 . S
C3280 H3267 0.960 . S
C3280 C3279 1.524 . S
C3281 C3278 1.403 . S
C3281 C3282 1.392 . S
C3281 C3285 1.495 . S
C3282 C3281 1.392 . S
C3282 C3283 1.385 . S
C3282 C3284 1.478 . S
C3283 H3277 0.930 . S
C3283 C3279 1.400 . S
C3283 C3282 1.385 . S
C3284 C3282 1.478 . S
C3284 C3286 1.381 . S
C3284 C3290 1.383 . S
C3285 C3281 1.495 . S
C3285 H3291 0.959 . S
C3285 H3292 0.961 . S
C3285 H3293 0.960 . S
C3286 C3284 1.381 . S
C3286 C3287 1.394 . S
C3286 H3294 0.930 . S
C3287 C3286 1.394 . S
C3287 C3288 1.383 . S
C3287 H3295 0.929 . S
C3288 C3287 1.383 . S
C3288 C3289 1.377 . S
C3289 H3273 0.930 . S
C3289 C3288 1.377 . S
C3289 C3290 1.379 . S
C3290 H3274 0.931 . S
C3290 C3284 1.383 . S
C3290 C3289 1.379 . S
H3291 C3285 0.959 . S
H3292 C3285 0.961 . S
H3293 C3285 0.960 . S
H3294 C3286 0.930 . S
H3295 C3287 0.929 . S
H3296 C3304 0.929 . S
H3297 C3306 0.930 . S
H3298 C3308 0.930 . S
H3299 C3311 0.929 . S
H3300 C3314 0.930 . S
H3301 C3316 0.960 . S
H3302 C3316 0.960 . S
H3303 C3316 0.960 . S
C3304 H3296 0.929 . S
C3304 C3305 1.377 1_655 S
C3304 C3306 1.384 . S
C3305 C3304 1.377 1_455 S
C3305 C3311 1.390 . S
C3306 H3297 0.930 . S
C3306 C3304 1.384 . S
C3306 C3307 1.372 1_655 S
C3307 C3306 1.372 1_455 S
C3307 C3308 1.400 . S
C3307 C3312 1.490 . S
C3308 H3298 0.930 . S
C3308 C3307 1.400 . S
C3308 C3311 1.386 . S
H3309 C3325 0.930 . S
H3310 C3326 0.931 . S
C3311 H3299 0.929 . S
C3311 C3305 1.390 . S
C3311 C3308 1.386 . S
C3312 C3307 1.490 . S
C3312 C3314 1.395 1_455 S
C3312 C3315 1.403 . S
H3313 C3319 0.930 . S
C3314 H3300 0.930 . S
C3314 C3312 1.395 1_655 S
C3314 C3317 1.403 . S
C3315 C3312 1.403 . S
C3315 C3316 1.524 . S
C3315 C3319 1.400 . S
C3316 H3301 0.960 . S
C3316 H3302 0.960 . S
C3316 H3303 0.960 . S
C3316 C3315 1.524 . S
C3317 C3314 1.403 . S
C3317 C3318 1.429 . S
C3317 C3321 1.495 . S
C3318 C3317 1.429 . S
C3318 C3319 1.355 1_655 S
C3318 C3320 1.476 . S
C3319 H3313 0.930 . S
C3319 C3315 1.400 . S
C3319 C3318 1.355 1_455 S
C3320 C3318 1.476 . S
C3320 C3322 1.397 . S
C3320 C3326 1.358 1_655 S
C3321 C3317 1.495 . S
C3321 H3327 0.959 . S
C3321 H3328 0.961 . S
C3321 H3329 0.960 . S
C3322 C3320 1.397 . S
C3322 C3323 1.394 . S
C3322 H3330 0.930 . S
C3323 C3322 1.394 . S
C3323 C3324 1.383 1_655 S
C3323 H3331 0.929 . S
C3324 C3323 1.383 1_455 S
C3324 C3325 1.377 . S
C3325 H3309 0.930 . S
C3325 C3324 1.377 . S
C3325 C3326 1.379 . S
C3326 H3310 0.931 . S
C3326 C3320 1.358 1_455 S
C3326 C3325 1.379 . S
H3327 C3321 0.959 . S
H3328 C3321 0.961 . S
H3329 C3321 0.960 . S
H3330 C3322 0.930 . S
H3331 C3323 0.929 . S
H3332 C3340 0.929 . S
H3333 C3342 0.930 . S
H3334 C3344 0.930 . S
H3335 C3347 0.929 . S
H3336 C3350 0.930 . S
H3337 C3352 0.960 . S
H3338 C3352 0.960 . S
H3339 C3352 0.960 . S
C3340 H3332 0.929 . S
C3340 C3341 1.377 . S
C3340 C3342 1.384 . S
C3341 C3340 1.377 . S
C3341 C3347 1.390 . S
C3342 H3333 0.930 . S
C3342 C3340 1.384 . S
C3342 C3343 1.372 . S
C3343 C3342 1.372 . S
C3343 C3344 1.400 . S
C3343 C3348 1.490 . S
C3344 H3334 0.930 . S
C3344 C3343 1.400 . S
C3344 C3347 1.386 . S
H3345 C3361 0.930 . S
H3346 C3362 0.931 . S
C3347 H3335 0.929 . S
C3347 C3341 1.390 . S
C3347 C3344 1.386 . S
C3348 C3343 1.490 . S
C3348 C3350 1.395 . S
C3348 C3351 1.403 . S
H3349 C3355 0.930 . S
C3350 H3336 0.930 . S
C3350 C3348 1.395 . S
C3350 C3353 1.403 . S
C3351 C3348 1.403 . S
C3351 C3352 1.524 . S
C3351 C3355 1.400 . S
C3352 H3337 0.960 . S
C3352 H3338 0.960 . S
C3352 H3339 0.960 . S
C3352 C3351 1.524 . S
C3353 C3350 1.403 . S
C3353 C3354 1.392 . S
C3353 C3357 1.495 . S
C3354 C3353 1.392 . S
C3354 C3355 1.385 . S
C3354 C3356 1.478 . S
C3355 H3349 0.930 . S
C3355 C3351 1.400 . S
C3355 C3354 1.385 . S
C3356 C3354 1.478 . S
C3356 C3358 1.381 . S
C3356 C3362 1.383 . S
C3357 C3353 1.495 . S
C3357 H3363 0.959 . S
C3357 H3364 0.961 . S
C3357 H3365 0.960 . S
C3358 C3356 1.381 . S
C3358 C3359 1.394 . S
C3358 H3366 0.930 . S
C3359 C3358 1.394 . S
C3359 C3360 1.383 . S
C3359 H3367 0.929 . S
C3360 C3359 1.383 . S
C3360 C3361 1.377 . S
C3361 H3345 0.930 . S
C3361 C3360 1.377 . S
C3361 C3362 1.379 . S
C3362 H3346 0.931 . S
C3362 C3356 1.383 . S
C3362 C3361 1.379 . S
H3363 C3357 0.959 . S
H3364 C3357 0.961 . S
H3365 C3357 0.960 . S
H3366 C3358 0.930 . S
H3367 C3359 0.929 . S
H3368 C3376 0.929 . S
H3369 C3378 0.930 . S
H3370 C3380 0.930 . S
H3371 C3383 0.929 . S
H3372 C3386 0.930 . S
H3373 C3388 0.960 . S
H3374 C3388 0.960 . S
H3375 C3388 0.960 . S
C3376 H3368 0.929 . S
C3376 C3377 1.377 . S
C3376 C3378 1.384 . S
C3377 C3376 1.377 . S
C3377 C3383 1.390 . S
C3378 H3369 0.930 . S
C3378 C3376 1.384 . S
C3378 C3379 1.372 . S
C3379 C3378 1.372 . S
C3379 C3380 1.400 . S
C3379 C3384 1.490 . S
C3380 H3370 0.930 . S
C3380 C3379 1.400 . S
C3380 C3383 1.386 . S
H3381 C3397 0.930 . S
H3382 C3398 0.931 . S
C3383 H3371 0.929 . S
C3383 C3377 1.390 . S
C3383 C3380 1.386 . S
C3384 C3379 1.490 . S
C3384 C3386 1.395 . S
C3384 C3387 1.403 . S
H3385 C3391 0.930 . S
C3386 H3372 0.930 . S
C3386 C3384 1.395 . S
C3386 C3389 1.403 . S
C3387 C3384 1.403 . S
C3387 C3388 1.524 . S
C3387 C3391 1.400 . S
C3388 H3373 0.960 . S
C3388 H3374 0.960 . S
C3388 H3375 0.960 . S
C3388 C3387 1.524 . S
C3389 C3386 1.403 . S
C3389 C3390 1.392 . S
C3389 C3393 1.495 . S
C3390 C3389 1.392 . S
C3390 C3391 1.385 . S
C3390 C3392 1.478 . S
C3391 H3385 0.930 . S
C3391 C3387 1.400 . S
C3391 C3390 1.385 . S
C3392 C3390 1.478 . S
C3392 C3394 1.381 . S
C3392 C3398 1.383 . S
C3393 C3389 1.495 . S
C3393 H3399 0.959 . S
C3393 H3400 0.961 . S
C3393 H3401 0.960 . S
C3394 C3392 1.381 . S
C3394 C3395 1.394 . S
C3394 H3402 0.930 . S
C3395 C3394 1.394 . S
C3395 C3396 1.383 . S
C3395 H3403 0.929 . S
C3396 C3395 1.383 . S
C3396 C3397 1.377 . S
C3397 H3381 0.930 . S
C3397 C3396 1.377 . S
C3397 C3398 1.379 . S
C3398 H3382 0.931 . S
C3398 C3392 1.383 . S
C3398 C3397 1.379 . S
H3399 C3393 0.959 . S
H3400 C3393 0.961 . S
H3401 C3393 0.960 . S
H3402 C3394 0.930 . S
H3403 C3395 0.929 . S
H3404 C3412 0.929 . S
H3405 C3414 0.930 . S
H3406 C3416 0.930 . S
H3407 C3419 0.929 . S
H3408 C3422 0.930 . S
H3409 C3424 0.960 . S
H3410 C3424 0.960 . S
H3411 C3424 0.960 . S
C3412 H3404 0.929 . S
C3412 C3413 1.377 . S
C3412 C3414 1.384 . S
C3413 C3412 1.377 . S
C3413 C3419 1.390 . S
C3414 H3405 0.930 . S
C3414 C3412 1.384 . S
C3414 C3415 1.372 . S
C3415 C3414 1.372 . S
C3415 C3416 1.400 . S
C3415 C3420 1.490 . S
C3416 H3406 0.930 . S
C3416 C3415 1.400 . S
C3416 C3419 1.386 . S
H3417 C3433 0.930 . S
H3418 C3434 0.931 . S
C3419 H3407 0.929 . S
C3419 C3413 1.390 . S
C3419 C3416 1.386 . S
C3420 C3415 1.490 . S
C3420 C3422 1.395 . S
C3420 C3423 1.403 . S
H3421 C3427 0.930 . S
C3422 H3408 0.930 . S
C3422 C3420 1.395 . S
C3422 C3425 1.403 . S
C3423 C3420 1.403 . S
C3423 C3424 1.524 . S
C3423 C3427 1.400 . S
C3424 H3409 0.960 . S
C3424 H3410 0.960 . S
C3424 H3411 0.960 . S
C3424 C3423 1.524 . S
C3425 C3422 1.403 . S
C3425 C3426 1.392 . S
C3425 C3429 1.495 . S
C3426 C3425 1.392 . S
C3426 C3427 1.385 . S
C3426 C3428 1.478 . S
C3427 H3421 0.930 . S
C3427 C3423 1.400 . S
C3427 C3426 1.385 . S
C3428 C3426 1.478 . S
C3428 C3430 1.381 . S
C3428 C3434 1.383 . S
C3429 C3425 1.495 . S
C3429 H3435 0.959 . S
C3429 H3436 0.961 . S
C3429 H3437 0.960 . S
C3430 C3428 1.381 . S
C3430 C3431 1.394 . S
C3430 H3438 0.930 . S
C3431 C3430 1.394 . S
C3431 C3432 1.383 . S
C3431 H3439 0.929 . S
C3432 C3431 1.383 . S
C3432 C3433 1.377 . S
C3433 H3417 0.930 . S
C3433 C3432 1.377 . S
C3433 C3434 1.379 . S
C3434 H3418 0.931 . S
C3434 C3428 1.383 . S
C3434 C3433 1.379 . S
H3435 C3429 0.959 . S
H3436 C3429 0.961 . S
H3437 C3429 0.960 . S
H3438 C3430 0.930 . S
H3439 C3431 0.929 . S
H3440 C3448 0.929 1_655 S
H3441 C3450 0.930 1_655 S
H3442 C3452 0.930 . S
H3443 C3455 0.929 . S
H3444 C3458 0.941 . S
H3445 C3460 0.960 . S
H3446 C3460 0.960 . S
H3447 C3460 0.960 . S
C3448 H3440 0.929 1_455 S
C3448 C3449 1.377 . S
C3448 C3450 1.384 . S
C3449 C3448 1.377 . S
C3449 C3455 1.390 . S
C3450 H3441 0.930 1_455 S
C3450 C3448 1.384 . S
C3450 C3451 1.372 . S
C3451 C3450 1.372 . S
C3451 C3452 1.400 . S
C3451 C3456 1.490 . S
C3452 H3442 0.930 . S
C3452 C3451 1.400 . S
C3452 C3455 1.386 . S
H3453 C3469 0.930 . S
H3454 C3470 0.931 . S
C3455 H3443 0.929 . S
C3455 C3449 1.390 . S
C3455 C3452 1.386 . S
C3456 C3451 1.490 . S
C3456 C3458 1.377 1_455 S
C3456 C3459 1.403 . S
H3457 C3463 0.930 . S
C3458 H3444 0.941 . S
C3458 C3456 1.377 1_655 S
C3458 C3461 1.410 . S
C3459 C3456 1.403 . S
C3459 C3460 1.524 . S
C3459 C3463 1.400 . S
C3460 H3445 0.960 . S
C3460 H3446 0.960 . S
C3460 H3447 0.960 . S
C3460 C3459 1.524 . S
C3461 C3458 1.410 . S
C3461 C3462 1.392 1_655 S
C3461 C3465 1.495 . S
C3462 C3461 1.392 1_455 S
C3462 C3463 1.385 . S
C3462 C3464 1.478 . S
C3463 H3457 0.930 . S
C3463 C3459 1.400 . S
C3463 C3462 1.385 . S
C3464 C3462 1.478 . S
C3464 C3466 1.381 1_455 S
C3464 C3470 1.383 . S
C3465 C3461 1.495 . S
C3465 H3471 0.959 . S
C3465 H3472 0.961 . S
C3465 H3473 0.960 . S
C3466 C3464 1.381 1_655 S
C3466 C3467 1.394 . S
C3466 H3474 0.930 . S
C3467 C3466 1.394 . S
C3467 C3468 1.383 1_655 S
C3467 H3475 0.929 . S
C3468 C3467 1.383 1_455 S
C3468 C3469 1.377 . S
C3469 H3453 0.930 . S
C3469 C3468 1.377 . S
C3469 C3470 1.379 . S
C3470 H3454 0.931 . S
C3470 C3464 1.383 . S
C3470 C3469 1.379 . S
H3471 C3465 0.959 . S
H3472 C3465 0.961 . S
H3473 C3465 0.960 . S
H3474 C3466 0.930 . S
H3475 C3467 0.929 . S
H3476 C3484 0.929 . S
H3477 C3486 0.930 . S
H3478 C3488 0.930 . S
H3479 C3491 0.929 . S
H3480 C3494 0.930 . S
H3481 C3496 0.960 . S
H3482 C3496 0.960 . S
H3483 C3496 0.960 . S
C3484 H3476 0.929 . S
C3484 C3485 1.377 . S
C3484 C3486 1.384 . S
C3485 C3484 1.377 . S
C3485 C3491 1.390 . S
C3486 H3477 0.930 . S
C3486 C3484 1.384 . S
C3486 C3487 1.372 . S
C3487 C3486 1.372 . S
C3487 C3488 1.400 . S
C3487 C3492 1.490 . S
C3488 H3478 0.930 . S
C3488 C3487 1.400 . S
C3488 C3491 1.386 . S
H3489 C3505 0.930 . S
H3490 C3506 0.931 . S
C3491 H3479 0.929 . S
C3491 C3485 1.390 . S
C3491 C3488 1.386 . S
C3492 C3487 1.490 . S
C3492 C3494 1.395 . S
C3492 C3495 1.403 . S
H3493 C3499 0.930 . S
C3494 H3480 0.930 . S
C3494 C3492 1.395 . S
C3494 C3497 1.403 . S
C3495 C3492 1.403 . S
C3495 C3496 1.524 . S
C3495 C3499 1.400 . S
C3496 H3481 0.960 . S
C3496 H3482 0.960 . S
C3496 H3483 0.960 . S
C3496 C3495 1.524 . S
C3497 C3494 1.403 . S
C3497 C3498 1.392 . S
C3497 C3501 1.495 . S
C3498 C3497 1.392 . S
C3498 C3499 1.385 . S
C3498 C3500 1.478 . S
C3499 H3493 0.930 . S
C3499 C3495 1.400 . S
C3499 C3498 1.385 . S
C3500 C3498 1.478 . S
C3500 C3502 1.381 . S
C3500 C3506 1.383 . S
C3501 C3497 1.495 . S
C3501 H3507 0.959 . S
C3501 H3508 0.961 . S
C3501 H3509 0.960 . S
C3502 C3500 1.381 . S
C3502 C3503 1.394 . S
C3502 H3510 0.930 . S
C3503 C3502 1.394 . S
C3503 C3504 1.383 . S
C3503 H3511 0.929 . S
C3504 C3503 1.383 . S
C3504 C3505 1.377 . S
C3505 H3489 0.930 . S
C3505 C3504 1.377 . S
C3505 C3506 1.379 . S
C3506 H3490 0.931 . S
C3506 C3500 1.383 . S
C3506 C3505 1.379 . S
H3507 C3501 0.959 . S
H3508 C3501 0.961 . S
H3509 C3501 0.960 . S
H3510 C3502 0.930 . S
H3511 C3503 0.929 . S
H3512 C3520 0.929 . S
H3513 C3522 0.930 . S
H3514 C3524 0.930 . S
H3515 C3527 0.929 . S
H3516 C3530 0.930 . S
H3517 C3532 0.960 . S
H3518 C3532 0.960 . S
H3519 C3532 0.960 . S
C3520 H3512 0.929 . S
C3520 C3521 1.377 . S
C3520 C3522 1.384 . S
C3521 C3520 1.377 . S
C3521 C3527 1.390 . S
C3522 H3513 0.930 . S
C3522 C3520 1.384 . S
C3522 C3523 1.372 . S
C3523 C3522 1.372 . S
C3523 C3524 1.400 . S
C3523 C3528 1.490 . S
C3524 H3514 0.930 . S
C3524 C3523 1.400 . S
C3524 C3527 1.386 . S
H3525 C3541 0.930 . S
H3526 C3542 0.931 . S
C3527 H3515 0.929 . S
C3527 C3521 1.390 . S
C3527 C3524 1.386 . S
C3528 C3523 1.490 . S
C3528 C3530 1.395 . S
C3528 C3531 1.403 . S
H3529 C3535 0.930 . S
C3530 H3516 0.930 . S
C3530 C3528 1.395 . S
C3530 C3533 1.403 . S
C3531 C3528 1.403 . S
C3531 C3532 1.524 . S
C3531 C3535 1.400 . S
C3532 H3517 0.960 . S
C3532 H3518 0.960 . S
C3532 H3519 0.960 . S
C3532 C3531 1.524 . S
C3533 C3530 1.403 . S
C3533 C3534 1.392 . S
C3533 C3537 1.495 . S
C3534 C3533 1.392 . S
C3534 C3535 1.385 . S
C3534 C3536 1.478 . S
C3535 H3529 0.930 . S
C3535 C3531 1.400 . S
C3535 C3534 1.385 . S
C3536 C3534 1.478 . S
C3536 C3538 1.381 . S
C3536 C3542 1.383 . S
C3537 C3533 1.495 . S
C3537 H3543 0.959 . S
C3537 H3544 0.961 . S
C3537 H3545 0.960 . S
C3538 C3536 1.381 . S
C3538 C3539 1.394 . S
C3538 H3546 0.930 . S
C3539 C3538 1.394 . S
C3539 C3540 1.383 . S
C3539 H3547 0.929 . S
C3540 C3539 1.383 . S
C3540 C3541 1.377 . S
C3541 H3525 0.930 . S
C3541 C3540 1.377 . S
C3541 C3542 1.379 . S
C3542 H3526 0.931 . S
C3542 C3536 1.383 . S
C3542 C3541 1.379 . S
H3543 C3537 0.959 . S
H3544 C3537 0.961 . S
H3545 C3537 0.960 . S
H3546 C3538 0.930 . S
H3547 C3539 0.929 . S
H3548 C3556 0.929 . S
H3549 C3558 0.930 . S
H3550 C3560 0.930 . S
H3551 C3563 0.929 . S
H3552 C3566 0.930 . S
H3553 C3568 0.960 . S
H3554 C3568 0.960 . S
H3555 C3568 0.960 . S
C3556 H3548 0.929 . S
C3556 C3557 1.377 . S
C3556 C3558 1.384 . S
C3557 C3556 1.377 . S
C3557 C3563 1.390 . S
C3558 H3549 0.930 . S
C3558 C3556 1.384 . S
C3558 C3559 1.372 . S
C3559 C3558 1.372 . S
C3559 C3560 1.400 . S
C3559 C3564 1.490 . S
C3560 H3550 0.930 . S
C3560 C3559 1.400 . S
C3560 C3563 1.386 . S
H3561 C3577 0.930 . S
H3562 C3578 0.931 . S
C3563 H3551 0.929 . S
C3563 C3557 1.390 . S
C3563 C3560 1.386 . S
C3564 C3559 1.490 . S
C3564 C3566 1.395 . S
C3564 C3567 1.403 . S
H3565 C3571 0.930 . S
C3566 H3552 0.930 . S
C3566 C3564 1.395 . S
C3566 C3569 1.403 . S
C3567 C3564 1.403 . S
C3567 C3568 1.524 . S
C3567 C3571 1.400 . S
C3568 H3553 0.960 . S
C3568 H3554 0.960 . S
C3568 H3555 0.960 . S
C3568 C3567 1.524 . S
C3569 C3566 1.403 . S
C3569 C3570 1.392 . S
C3569 C3573 1.495 . S
C3570 C3569 1.392 . S
C3570 C3571 1.385 . S
C3570 C3572 1.478 . S
C3571 H3565 0.930 . S
C3571 C3567 1.400 . S
C3571 C3570 1.385 . S
C3572 C3570 1.478 . S
C3572 C3574 1.381 . S
C3572 C3578 1.383 . S
C3573 C3569 1.495 . S
C3573 H3579 0.959 . S
C3573 H3580 0.961 . S
C3573 H3581 0.960 . S
C3574 C3572 1.381 . S
C3574 C3575 1.394 . S
C3574 H3582 0.930 . S
C3575 C3574 1.394 . S
C3575 C3576 1.383 . S
C3575 H3583 0.929 . S
C3576 C3575 1.383 . S
C3576 C3577 1.377 . S
C3577 H3561 0.930 . S
C3577 C3576 1.377 . S
C3577 C3578 1.379 . S
C3578 H3562 0.931 . S
C3578 C3572 1.383 . S
C3578 C3577 1.379 . S
H3579 C3573 0.959 . S
H3580 C3573 0.961 . S
H3581 C3573 0.960 . S
H3582 C3574 0.930 . S
H3583 C3575 0.929 . S
H3584 C3592 0.929 . S
H3585 C3594 0.930 . S
H3586 C3596 0.930 . S
H3587 C3599 0.929 . S
H3588 C3602 0.930 . S
H3589 C3604 0.960 . S
H3590 C3604 0.960 . S
H3591 C3604 0.960 . S
C3592 H3584 0.929 . S
C3592 C3593 1.377 . S
C3592 C3594 1.384 . S
C3593 C3592 1.377 . S
C3593 C3599 1.390 . S
C3594 H3585 0.930 . S
C3594 C3592 1.384 . S
C3594 C3595 1.372 . S
C3595 C3594 1.372 . S
C3595 C3596 1.400 . S
C3595 C3600 1.490 . S
C3596 H3586 0.930 . S
C3596 C3595 1.400 . S
C3596 C3599 1.386 . S
H3597 C3613 0.916 1_455 S
H3598 C3614 0.931 . S
C3599 H3587 0.929 . S
C3599 C3593 1.390 . S
C3599 C3596 1.386 . S
C3600 C3595 1.490 . S
C3600 C3602 1.395 . S
C3600 C3603 1.403 . S
H3601 C3607 0.930 . S
C3602 H3588 0.930 . S
C3602 C3600 1.395 . S
C3602 C3605 1.403 . S
C3603 C3600 1.403 . S
C3603 C3604 1.524 . S
C3603 C3607 1.400 . S
C3604 H3589 0.960 . S
C3604 H3590 0.960 . S
C3604 H3591 0.960 . S
C3604 C3603 1.524 . S
C3605 C3602 1.403 . S
C3605 C3606 1.392 . S
C3605 C3609 1.495 . S
C3606 C3605 1.392 . S
C3606 C3607 1.385 . S
C3606 C3608 1.478 . S
C3607 H3601 0.930 . S
C3607 C3603 1.400 . S
C3607 C3606 1.385 . S
C3608 C3606 1.478 . S
C3608 C3610 1.381 . S
C3608 C3614 1.383 . S
C3609 C3605 1.495 . S
C3609 H3615 0.959 . S
C3609 H3616 0.961 . S
C3609 H3617 0.960 . S
C3610 C3608 1.381 . S
C3610 C3611 1.394 . S
C3610 H3618 0.930 . S
C3611 C3610 1.394 . S
C3611 C3612 1.383 . S
C3611 H3619 0.929 . S
C3612 C3611 1.383 . S
C3612 C3613 1.377 . S
C3613 H3597 0.916 1_655 S
C3613 C3612 1.377 . S
C3613 C3614 1.379 . S
C3614 H3598 0.931 . S
C3614 C3608 1.383 . S
C3614 C3613 1.379 . S
H3615 C3609 0.959 . S
H3616 C3609 0.961 . S
H3617 C3609 0.960 . S
H3618 C3610 0.930 . S
H3619 C3611 0.929 . S
H3620 C3628 0.929 . S
H3621 C3630 0.930 . S
H3622 C3632 0.930 . S
H3623 C3635 0.929 . S
H3624 C3638 0.930 . S
H3625 C3640 0.960 . S
H3626 C3640 0.960 . S
H3627 C3640 0.960 . S
C3628 H3620 0.929 . S
C3628 C3629 1.377 . S
C3628 C3630 1.384 . S
C3629 C3628 1.377 . S
C3629 C3635 1.390 . S
C3630 H3621 0.930 . S
C3630 C3628 1.384 . S
C3630 C3631 1.372 . S
C3631 C3630 1.372 . S
C3631 C3632 1.400 . S
C3631 C3636 1.490 . S
C3632 H3622 0.930 . S
C3632 C3631 1.400 . S
C3632 C3635 1.386 . S
H3633 C3649 0.930 . S
H3634 C3650 0.931 . S
C3635 H3623 0.929 . S
C3635 C3629 1.390 . S
C3635 C3632 1.386 . S
C3636 C3631 1.490 . S
C3636 C3638 1.395 . S
C3636 C3639 1.403 . S
H3637 C3643 0.930 . S
C3638 H3624 0.930 . S
C3638 C3636 1.395 . S
C3638 C3641 1.403 . S
C3639 C3636 1.403 . S
C3639 C3640 1.524 . S
C3639 C3643 1.400 . S
C3640 H3625 0.960 . S
C3640 H3626 0.960 . S
C3640 H3627 0.960 . S
C3640 C3639 1.524 . S
C3641 C3638 1.403 . S
C3641 C3642 1.392 . S
C3641 C3645 1.495 . S
C3642 C3641 1.392 . S
C3642 C3643 1.385 . S
C3642 C3644 1.478 . S
C3643 H3637 0.930 . S
C3643 C3639 1.400 . S
C3643 C3642 1.385 . S
C3644 C3642 1.478 . S
C3644 C3646 1.381 . S
C3644 C3650 1.383 . S
C3645 C3641 1.495 . S
C3645 H3651 0.959 . S
C3645 H3652 0.961 . S
C3645 H3653 0.960 . S
C3646 C3644 1.381 . S
C3646 C3647 1.394 . S
C3646 H3654 0.930 . S
C3647 C3646 1.394 . S
C3647 C3648 1.383 . S
C3647 H3655 0.929 . S
C3648 C3647 1.383 . S
C3648 C3649 1.377 . S
C3649 H3633 0.930 . S
C3649 C3648 1.377 . S
C3649 C3650 1.379 . S
C3650 H3634 0.931 . S
C3650 C3644 1.383 . S
C3650 C3649 1.379 . S
H3651 C3645 0.959 . S
H3652 C3645 0.961 . S
H3653 C3645 0.960 . S
H3654 C3646 0.930 . S
H3655 C3647 0.929 . S
H3656 C3664 0.929 . S
H3657 C3666 0.930 . S
H3658 C3668 0.930 . S
H3659 C3671 0.929 . S
H3660 C3674 0.930 . S
H3661 C3676 0.960 . S
H3662 C3676 0.960 . S
H3663 C3676 0.960 . S
C3664 H3656 0.929 . S
C3664 C3665 1.377 . S
C3664 C3666 1.384 . S
C3665 C3664 1.377 . S
C3665 C3671 1.390 . S
C3666 H3657 0.930 . S
C3666 C3664 1.384 . S
C3666 C3667 1.372 . S
C3667 C3666 1.372 . S
C3667 C3668 1.400 . S
C3667 C3672 1.490 . S
C3668 H3658 0.930 . S
C3668 C3667 1.400 . S
C3668 C3671 1.386 . S
H3669 C3685 0.930 . S
H3670 C3686 0.931 . S
C3671 H3659 0.929 . S
C3671 C3665 1.390 . S
C3671 C3668 1.386 . S
C3672 C3667 1.490 . S
C3672 C3674 1.395 . S
C3672 C3675 1.403 . S
H3673 C3679 0.930 . S
C3674 H3660 0.930 . S
C3674 C3672 1.395 . S
C3674 C3677 1.403 . S
C3675 C3672 1.403 . S
C3675 C3676 1.524 . S
C3675 C3679 1.400 . S
C3676 H3661 0.960 . S
C3676 H3662 0.960 . S
C3676 H3663 0.960 . S
C3676 C3675 1.524 . S
C3677 C3674 1.403 . S
C3677 C3678 1.392 . S
C3677 C3681 1.495 . S
C3678 C3677 1.392 . S
C3678 C3679 1.385 . S
C3678 C3680 1.478 . S
C3679 H3673 0.930 . S
C3679 C3675 1.400 . S
C3679 C3678 1.385 . S
C3680 C3678 1.478 . S
C3680 C3682 1.381 . S
C3680 C3686 1.383 . S
C3681 C3677 1.495 . S
C3681 H3687 0.959 . S
C3681 H3688 0.961 . S
C3681 H3689 0.960 . S
C3682 C3680 1.381 . S
C3682 C3683 1.394 . S
C3682 H3690 0.930 . S
C3683 C3682 1.394 . S
C3683 C3684 1.383 . S
C3683 H3691 0.929 . S
C3684 C3683 1.383 . S
C3684 C3685 1.377 . S
C3685 H3669 0.930 . S
C3685 C3684 1.377 . S
C3685 C3686 1.379 . S
C3686 H3670 0.931 . S
C3686 C3680 1.383 . S
C3686 C3685 1.379 . S
H3687 C3681 0.959 . S
H3688 C3681 0.961 . S
H3689 C3681 0.960 . S
H3690 C3682 0.930 . S
H3691 C3683 0.929 . S
H3692 C3700 0.929 . S
H3693 C3702 0.930 . S
H3694 C3704 0.930 . S
H3695 C3707 0.929 . S
H3696 C3710 0.930 . S
H3697 C3712 0.960 . S
H3698 C3712 0.960 . S
H3699 C3712 0.960 . S
C3700 H3692 0.929 . S
C3700 C3701 1.377 . S
C3700 C3702 1.384 . S
C3701 C3700 1.377 . S
C3701 C3707 1.390 . S
C3702 H3693 0.930 . S
C3702 C3700 1.384 . S
C3702 C3703 1.372 . S
C3703 C3702 1.372 . S
C3703 C3704 1.400 . S
C3703 C3708 1.490 . S
C3704 H3694 0.930 . S
C3704 C3703 1.400 . S
C3704 C3707 1.386 . S
H3705 C3721 0.930 . S
H3706 C3722 0.931 . S
C3707 H3695 0.929 . S
C3707 C3701 1.390 . S
C3707 C3704 1.386 . S
C3708 C3703 1.490 . S
C3708 C3710 1.395 . S
C3708 C3711 1.403 . S
H3709 C3715 0.930 . S
C3710 H3696 0.930 . S
C3710 C3708 1.395 . S
C3710 C3713 1.403 . S
C3711 C3708 1.403 . S
C3711 C3712 1.524 . S
C3711 C3715 1.400 . S
C3712 H3697 0.960 . S
C3712 H3698 0.960 . S
C3712 H3699 0.960 . S
C3712 C3711 1.524 . S
C3713 C3710 1.403 . S
C3713 C3714 1.392 . S
C3713 C3717 1.495 . S
C3714 C3713 1.392 . S
C3714 C3715 1.385 . S
C3714 C3716 1.478 . S
C3715 H3709 0.930 . S
C3715 C3711 1.400 . S
C3715 C3714 1.385 . S
C3716 C3714 1.478 . S
C3716 C3718 1.381 . S
C3716 C3722 1.383 . S
C3717 C3713 1.495 . S
C3717 H3723 0.959 . S
C3717 H3724 0.961 . S
C3717 H3725 0.960 . S
C3718 C3716 1.381 . S
C3718 C3719 1.394 . S
C3718 H3726 0.930 . S
C3719 C3718 1.394 . S
C3719 C3720 1.383 . S
C3719 H3727 0.929 . S
C3720 C3719 1.383 . S
C3720 C3721 1.377 . S
C3721 H3705 0.930 . S
C3721 C3720 1.377 . S
C3721 C3722 1.379 . S
C3722 H3706 0.931 . S
C3722 C3716 1.383 . S
C3722 C3721 1.379 . S
H3723 C3717 0.959 . S
H3724 C3717 0.961 . S
H3725 C3717 0.960 . S
H3726 C3718 0.930 . S
H3727 C3719 0.929 . S
H3728 C3736 0.929 . S
H3729 C3738 0.930 . S
H3730 C3740 0.930 . S
H3731 C3743 0.929 . S
H3732 C3746 0.930 . S
H3733 C3748 0.960 . S
H3734 C3748 0.960 . S
H3735 C3748 0.960 . S
C3736 H3728 0.929 . S
C3736 C3737 1.377 . S
C3736 C3738 1.384 . S
C3737 C3736 1.377 . S
C3737 C3743 1.390 . S
C3738 H3729 0.930 . S
C3738 C3736 1.384 . S
C3738 C3739 1.372 . S
C3739 C3738 1.372 . S
C3739 C3740 1.400 . S
C3739 C3744 1.490 . S
C3740 H3730 0.930 . S
C3740 C3739 1.400 . S
C3740 C3743 1.386 . S
H3741 C3757 0.930 . S
H3742 C3758 0.931 . S
C3743 H3731 0.929 . S
C3743 C3737 1.390 . S
C3743 C3740 1.386 . S
C3744 C3739 1.490 . S
C3744 C3746 1.395 . S
C3744 C3747 1.403 . S
H3745 C3751 0.930 . S
C3746 H3732 0.930 . S
C3746 C3744 1.395 . S
C3746 C3749 1.403 . S
C3747 C3744 1.403 . S
C3747 C3748 1.524 . S
C3747 C3751 1.400 . S
C3748 H3733 0.960 . S
C3748 H3734 0.960 . S
C3748 H3735 0.960 . S
C3748 C3747 1.524 . S
C3749 C3746 1.403 . S
C3749 C3750 1.392 . S
C3749 C3753 1.495 . S
C3750 C3749 1.392 . S
C3750 C3751 1.385 . S
C3750 C3752 1.478 . S
C3751 H3745 0.930 . S
C3751 C3747 1.400 . S
C3751 C3750 1.385 . S
C3752 C3750 1.478 . S
C3752 C3754 1.381 . S
C3752 C3758 1.383 . S
C3753 C3749 1.495 . S
C3753 H3759 0.959 . S
C3753 H3760 0.961 . S
C3753 H3761 0.960 . S
C3754 C3752 1.381 . S
C3754 C3755 1.394 . S
C3754 H3762 0.930 . S
C3755 C3754 1.394 . S
C3755 C3756 1.383 . S
C3755 H3763 0.929 1_655 S
C3756 C3755 1.383 . S
C3756 C3757 1.377 . S
C3757 H3741 0.930 . S
C3757 C3756 1.377 . S
C3757 C3758 1.379 . S
C3758 H3742 0.931 . S
C3758 C3752 1.383 . S
C3758 C3757 1.379 . S
H3759 C3753 0.959 . S
H3760 C3753 0.961 . S
H3761 C3753 0.960 . S
H3762 C3754 0.930 . S
H3763 C3755 0.929 1_455 S
H3764 C3772 0.929 . S
H3765 C3774 0.930 . S
H3766 C3776 0.930 . S
H3767 C3779 0.929 . S
H3768 C3782 0.930 . S
H3769 C3784 0.960 . S
H3770 C3784 0.960 . S
H3771 C3784 0.960 . S
C3772 H3764 0.929 . S
C3772 C3773 1.377 . S
C3772 C3774 1.384 . S
C3773 C3772 1.377 . S
C3773 C3779 1.390 . S
C3774 H3765 0.930 . S
C3774 C3772 1.384 . S
C3774 C3775 1.372 . S
C3775 C3774 1.372 . S
C3775 C3776 1.400 . S
C3775 C3780 1.490 . S
C3776 H3766 0.930 . S
C3776 C3775 1.400 . S
C3776 C3779 1.386 . S
H3777 C3793 0.930 . S
H3778 C3794 0.931 . S
C3779 H3767 0.929 . S
C3779 C3773 1.390 . S
C3779 C3776 1.386 . S
C3780 C3775 1.490 . S
C3780 C3782 1.395 . S
C3780 C3783 1.403 . S
H3781 C3787 0.930 . S
C3782 H3768 0.930 . S
C3782 C3780 1.395 . S
C3782 C3785 1.403 . S
C3783 C3780 1.403 . S
C3783 C3784 1.524 . S
C3783 C3787 1.400 . S
C3784 H3769 0.960 . S
C3784 H3770 0.960 . S
C3784 H3771 0.960 . S
C3784 C3783 1.524 . S
C3785 C3782 1.403 . S
C3785 C3786 1.392 . S
C3785 C3789 1.495 . S
C3786 C3785 1.392 . S
C3786 C3787 1.385 . S
C3786 C3788 1.478 . S
C3787 H3781 0.930 . S
C3787 C3783 1.400 . S
C3787 C3786 1.385 . S
C3788 C3786 1.478 . S
C3788 C3790 1.381 . S
C3788 C3794 1.383 . S
C3789 C3785 1.495 . S
C3789 H3795 0.959 . S
C3789 H3796 0.961 . S
C3789 H3797 0.960 . S
C3790 C3788 1.381 . S
C3790 C3791 1.394 . S
C3790 H3798 0.930 . S
C3791 C3790 1.394 . S
C3791 C3792 1.383 . S
C3791 H3799 0.929 . S
C3792 C3791 1.383 . S
C3792 C3793 1.377 . S
C3793 H3777 0.930 . S
C3793 C3792 1.377 . S
C3793 C3794 1.379 . S
C3794 H3778 0.931 . S
C3794 C3788 1.383 . S
C3794 C3793 1.379 . S
H3795 C3789 0.959 . S
H3796 C3789 0.961 . S
H3797 C3789 0.960 . S
H3798 C3790 0.930 . S
H3799 C3791 0.929 . S
H3800 C3808 0.929 . S
H3801 C3810 0.930 . S
H3802 C3812 0.930 . S
H3803 C3815 0.929 . S
H3804 C3818 0.930 . S
H3805 C3820 0.960 . S
H3806 C3820 0.960 . S
H3807 C3820 0.960 . S
C3808 H3800 0.929 . S
C3808 C3809 1.377 . S
C3808 C3810 1.384 . S
C3809 C3808 1.377 . S
C3809 C3815 1.390 . S
C3810 H3801 0.930 . S
C3810 C3808 1.384 . S
C3810 C3811 1.372 . S
C3811 C3810 1.372 . S
C3811 C3812 1.400 . S
C3811 C3816 1.490 . S
C3812 H3802 0.930 . S
C3812 C3811 1.400 . S
C3812 C3815 1.386 . S
H3813 C3829 0.930 . S
H3814 C3830 0.931 . S
C3815 H3803 0.929 . S
C3815 C3809 1.390 . S
C3815 C3812 1.386 . S
C3816 C3811 1.490 . S
C3816 C3818 1.395 . S
C3816 C3819 1.403 . S
H3817 C3823 0.930 . S
C3818 H3804 0.930 . S
C3818 C3816 1.395 . S
C3818 C3821 1.403 . S
C3819 C3816 1.403 . S
C3819 C3820 1.524 . S
C3819 C3823 1.400 . S
C3820 H3805 0.960 . S
C3820 H3806 0.960 . S
C3820 H3807 0.960 . S
C3820 C3819 1.524 . S
C3821 C3818 1.403 . S
C3821 C3822 1.392 . S
C3821 C3825 1.495 . S
C3822 C3821 1.392 . S
C3822 C3823 1.385 . S
C3822 C3824 1.478 . S
C3823 H3817 0.930 . S
C3823 C3819 1.400 . S
C3823 C3822 1.385 . S
C3824 C3822 1.478 . S
C3824 C3826 1.381 . S
C3824 C3830 1.383 . S
C3825 C3821 1.495 . S
C3825 H3831 0.959 . S
C3825 H3832 0.961 . S
C3825 H3833 0.960 . S
C3826 C3824 1.381 . S
C3826 C3827 1.394 . S
C3826 H3834 0.930 . S
C3827 C3826 1.394 . S
C3827 C3828 1.383 . S
C3827 H3835 0.929 . S
C3828 C3827 1.383 . S
C3828 C3829 1.377 . S
C3829 H3813 0.930 . S
C3829 C3828 1.377 . S
C3829 C3830 1.379 . S
C3830 H3814 0.931 . S
C3830 C3824 1.383 . S
C3830 C3829 1.379 . S
H3831 C3825 0.959 . S
H3832 C3825 0.961 . S
H3833 C3825 0.960 . S
H3834 C3826 0.930 . S
H3835 C3827 0.929 . S
H3836 C3844 0.929 . S
H3837 C3846 0.930 . S
H3838 C3848 0.930 . S
H3839 C3851 0.929 . S
H3840 C3854 0.930 . S
H3841 C3856 0.960 . S
H3842 C3856 0.960 . S
H3843 C3856 0.960 . S
C3844 H3836 0.929 . S
C3844 C3845 1.377 . S
C3844 C3846 1.384 . S
C3845 C3844 1.377 . S
C3845 C3851 1.390 . S
C3846 H3837 0.930 . S
C3846 C3844 1.384 . S
C3846 C3847 1.372 . S
C3847 C3846 1.372 . S
C3847 C3848 1.400 . S
C3847 C3852 1.490 . S
C3848 H3838 0.930 . S
C3848 C3847 1.400 . S
C3848 C3851 1.386 . S
H3849 C3865 0.930 . S
H3850 C3866 0.931 . S
C3851 H3839 0.929 . S
C3851 C3845 1.390 . S
C3851 C3848 1.386 . S
C3852 C3847 1.490 . S
C3852 C3854 1.395 . S
C3852 C3855 1.403 . S
H3853 C3859 0.930 . S
C3854 H3840 0.930 . S
C3854 C3852 1.395 . S
C3854 C3857 1.403 . S
C3855 C3852 1.403 . S
C3855 C3856 1.524 . S
C3855 C3859 1.400 . S
C3856 H3841 0.960 . S
C3856 H3842 0.960 . S
C3856 H3843 0.960 . S
C3856 C3855 1.524 . S
C3857 C3854 1.403 . S
C3857 C3858 1.392 . S
C3857 C3861 1.495 . S
C3858 C3857 1.392 . S
C3858 C3859 1.385 . S
C3858 C3860 1.478 . S
C3859 H3853 0.930 . S
C3859 C3855 1.400 . S
C3859 C3858 1.385 . S
C3860 C3858 1.478 . S
C3860 C3862 1.381 . S
C3860 C3866 1.383 . S
C3861 C3857 1.495 . S
C3861 H3867 0.959 . S
C3861 H3868 0.961 . S
C3861 H3869 0.960 1_565 S
C3862 C3860 1.381 . S
C3862 C3863 1.394 . S
C3862 H3870 0.930 . S
C3863 C3862 1.394 . S
C3863 C3864 1.383 . S
C3863 H3871 0.929 1_565 S
C3864 C3863 1.383 . S
C3864 C3865 1.377 . S
C3865 H3849 0.930 . S
C3865 C3864 1.377 . S
C3865 C3866 1.379 . S
C3866 H3850 0.931 . S
C3866 C3860 1.383 . S
C3866 C3865 1.379 . S
H3867 C3861 0.959 . S
H3868 C3861 0.961 . S
H3869 C3861 0.960 1_545 S
H3870 C3862 0.930 . S
H3871 C3863 0.929 1_545 S
H3872 C3880 0.929 . S
H3873 C3882 0.930 . S
H3874 C3884 0.930 . S
H3875 C3887 0.929 . S
H3876 C3890 0.930 . S
H3877 C3892 0.960 . S
H3878 C3892 0.960 . S
H3879 C3892 0.960 . S
C3880 H3872 0.929 . S
C3880 C3881 1.377 . S
C3880 C3882 1.384 . S
C3881 C3880 1.377 . S
C3881 C3887 1.390 . S
C3882 H3873 0.930 . S
C3882 C3880 1.384 . S
C3882 C3883 1.372 . S
C3883 C3882 1.372 . S
C3883 C3884 1.400 . S
C3883 C3888 1.490 . S
C3884 H3874 0.930 . S
C3884 C3883 1.400 . S
C3884 C3887 1.386 . S
H3885 C3901 0.930 . S
H3886 C3902 0.931 . S
C3887 H3875 0.929 . S
C3887 C3881 1.390 . S
C3887 C3884 1.386 . S
C3888 C3883 1.490 . S
C3888 C3890 1.395 . S
C3888 C3891 1.403 . S
H3889 C3895 0.930 . S
C3890 H3876 0.930 . S
C3890 C3888 1.395 . S
C3890 C3893 1.403 . S
C3891 C3888 1.403 . S
C3891 C3892 1.524 . S
C3891 C3895 1.400 . S
C3892 H3877 0.960 . S
C3892 H3878 0.960 . S
C3892 H3879 0.960 . S
C3892 C3891 1.524 . S
C3893 C3890 1.403 . S
C3893 C3894 1.392 . S
C3893 C3897 1.495 . S
C3894 C3893 1.392 . S
C3894 C3895 1.385 . S
C3894 C3896 1.478 . S
C3895 H3889 0.930 . S
C3895 C3891 1.400 . S
C3895 C3894 1.385 . S
C3896 C3894 1.478 . S
C3896 C3898 1.381 . S
C3896 C3902 1.383 . S
C3897 C3893 1.495 . S
C3897 H3903 0.959 . S
C3897 H3904 0.961 . S
C3897 H3905 0.960 . S
C3898 C3896 1.381 . S
C3898 C3899 1.394 . S
C3898 H3906 0.930 . S
C3899 C3898 1.394 . S
C3899 C3900 1.383 . S
C3899 H3907 0.929 . S
C3900 C3899 1.383 . S
C3900 C3901 1.377 . S
C3901 H3885 0.930 . S
C3901 C3900 1.377 . S
C3901 C3902 1.379 . S
C3902 H3886 0.931 . S
C3902 C3896 1.383 . S
C3902 C3901 1.379 . S
H3903 C3897 0.959 . S
H3904 C3897 0.961 . S
H3905 C3897 0.960 . S
H3906 C3898 0.930 . S
H3907 C3899 0.929 . S
H3908 C3916 0.929 . S
H3909 C3918 0.930 . S
H3910 C3920 0.930 . S
H3911 C3923 0.929 . S
H3912 C3926 0.930 . S
H3913 C3928 0.960 . S
H3914 C3928 0.960 . S
H3915 C3928 0.960 . S
C3916 H3908 0.929 . S
C3916 C3917 1.377 . S
C3916 C3918 1.384 . S
C3917 C3916 1.377 . S
C3917 C3923 1.390 1_556 S
C3918 H3909 0.930 . S
C3918 C3916 1.384 . S
C3918 C3919 1.372 . S
C3919 C3918 1.372 . S
C3919 C3920 1.400 1_556 S
C3919 C3924 1.490 . S
C3920 H3910 0.930 . S
C3920 C3919 1.400 1_554 S
C3920 C3923 1.386 . S
H3921 C3937 0.930 . S
H3922 C3938 0.931 . S
C3923 H3911 0.929 . S
C3923 C3917 1.390 1_554 S
C3923 C3920 1.386 . S
C3924 C3919 1.490 . S
C3924 C3926 1.395 . S
C3924 C3927 1.403 1_556 S
H3925 C3931 0.930 . S
C3926 H3912 0.930 . S
C3926 C3924 1.395 . S
C3926 C3929 1.403 . S
C3927 C3924 1.403 1_554 S
C3927 C3928 1.524 . S
C3927 C3931 1.400 . S
C3928 H3913 0.960 . S
C3928 H3914 0.960 . S
C3928 H3915 0.960 . S
C3928 C3927 1.524 . S
C3929 C3926 1.403 . S
C3929 C3930 1.392 . S
C3929 C3933 1.495 . S
C3930 C3929 1.392 . S
C3930 C3931 1.385 1_556 S
C3930 C3932 1.478 . S
C3931 H3925 0.930 . S
C3931 C3927 1.400 . S
C3931 C3930 1.385 1_554 S
C3932 C3930 1.478 . S
C3932 C3934 1.381 . S
C3932 C3938 1.383 1_556 S
C3933 C3929 1.495 . S
C3933 H3939 0.959 . S
C3933 H3940 0.961 . S
C3933 H3941 0.960 . S
C3934 C3932 1.381 . S
C3934 C3935 1.394 . S
C3934 H3942 0.930 . S
C3935 C3934 1.394 . S
C3935 C3936 1.416 . S
C3935 H3943 0.929 . S
C3936 C3935 1.416 . S
C3936 C3937 1.351 1_556 S
C3937 H3921 0.930 . S
C3937 C3936 1.351 1_554 S
C3937 C3938 1.379 . S
C3938 H3922 0.931 . S
C3938 C3932 1.383 1_554 S
C3938 C3937 1.379 . S
H3939 C3933 0.959 . S
H3940 C3933 0.961 . S
H3941 C3933 0.960 . S
H3942 C3934 0.930 . S
H3943 C3935 0.929 . S
H3944 C3952 0.929 . S
H3945 C3954 0.930 . S
H3946 C3956 0.930 . S
H3947 C3959 0.929 . S
H3948 C3962 0.930 . S
H3949 C3964 0.960 . S
H3950 C3964 0.960 . S
H3951 C3964 0.960 . S
C3952 H3944 0.929 . S
C3952 C3953 1.377 . S
C3952 C3954 1.384 . S
C3953 C3952 1.377 . S
C3953 C3959 1.390 . S
C3954 H3945 0.930 . S
C3954 C3952 1.384 . S
C3954 C3955 1.372 . S
C3955 C3954 1.372 . S
C3955 C3956 1.400 . S
C3955 C3960 1.490 . S
C3956 H3946 0.930 . S
C3956 C3955 1.400 . S
C3956 C3959 1.386 . S
H3957 C3973 0.930 . S
H3958 C3974 0.931 . S
C3959 H3947 0.929 . S
C3959 C3953 1.390 . S
C3959 C3956 1.386 . S
C3960 C3955 1.490 . S
C3960 C3962 1.395 . S
C3960 C3963 1.403 . S
H3961 C3967 0.930 . S
C3962 H3948 0.930 . S
C3962 C3960 1.395 . S
C3962 C3965 1.403 . S
C3963 C3960 1.403 . S
C3963 C3964 1.524 . S
C3963 C3967 1.400 . S
C3964 H3949 0.960 . S
C3964 H3950 0.960 . S
C3964 H3951 0.960 . S
C3964 C3963 1.524 . S
C3965 C3962 1.403 . S
C3965 C3966 1.392 . S
C3965 C3969 1.495 . S
C3966 C3965 1.392 . S
C3966 C3967 1.385 . S
C3966 C3968 1.478 . S
C3967 H3961 0.930 . S
C3967 C3963 1.400 . S
C3967 C3966 1.385 . S
C3968 C3966 1.478 . S
C3968 C3970 1.381 . S
C3968 C3974 1.383 . S
C3969 C3965 1.495 . S
C3969 H3975 0.959 . S
C3969 H3976 0.961 . S
C3969 H3977 0.960 . S
C3970 C3968 1.381 . S
C3970 C3971 1.394 . S
C3970 H3978 0.930 . S
C3971 C3970 1.394 . S
C3971 C3972 1.383 . S
C3971 H3979 0.929 . S
C3972 C3971 1.383 . S
C3972 C3973 1.377 . S
C3973 H3957 0.930 . S
C3973 C3972 1.377 . S
C3973 C3974 1.379 . S
C3974 H3958 0.931 . S
C3974 C3968 1.383 . S
C3974 C3973 1.379 . S
H3975 C3969 0.959 . S
H3976 C3969 0.961 . S
H3977 C3969 0.960 . S
H3978 C3970 0.930 . S
H3979 C3971 0.929 . S
H3980 C3988 0.929 . S
H3981 C3990 0.930 . S
H3982 C3992 0.930 . S
H3983 C3995 0.929 . S
H3984 C3998 0.930 . S
H3985 C4000 0.960 . S
H3986 C4000 0.960 . S
H3987 C4000 0.960 . S
C3988 H3980 0.929 . S
C3988 C3989 1.377 . S
C3988 C3990 1.384 . S
C3989 C3988 1.377 . S
C3989 C3995 1.390 . S
C3990 H3981 0.930 . S
C3990 C3988 1.384 . S
C3990 C3991 1.372 . S
C3991 C3990 1.372 . S
C3991 C3992 1.400 . S
C3991 C3996 1.490 . S
C3992 H3982 0.930 . S
C3992 C3991 1.400 . S
C3992 C3995 1.386 . S
H3993 C4009 0.954 . S
H3994 C4010 0.908 1_556 S
C3995 H3983 0.929 . S
C3995 C3989 1.390 . S
C3995 C3992 1.386 . S
C3996 C3991 1.490 . S
C3996 C3998 1.395 . S
C3996 C3999 1.403 . S
H3997 C4003 0.930 . S
C3998 H3984 0.930 . S
C3998 C3996 1.395 . S
C3998 C4001 1.403 . S
C3999 C3996 1.403 . S
C3999 C4000 1.524 . S
C3999 C4003 1.400 . S
C4000 H3985 0.960 . S
C4000 H3986 0.960 . S
C4000 H3987 0.960 . S
C4000 C3999 1.524 . S
C4001 C3998 1.403 . S
C4001 C4002 1.392 . S
C4001 C4005 1.503 . S
C4002 C4001 1.392 . S
C4002 C4003 1.385 . S
C4002 C4004 1.478 . S
C4003 H3997 0.930 . S
C4003 C3999 1.400 . S
C4003 C4002 1.385 . S
C4004 C4002 1.478 . S
C4004 C4006 1.381 . S
C4004 C4010 1.408 . S
C4005 C4001 1.503 . S
C4005 H4011 0.955 1_554 S
C4005 H4012 0.950 1_554 S
C4005 H4013 0.968 . S
C4006 C4004 1.381 . S
C4006 C4007 1.394 . S
C4006 H4014 0.930 . S
C4007 C4006 1.394 . S
C4007 C4008 1.383 . S
C4007 H4015 0.929 . S
C4008 C4007 1.383 . S
C4008 C4009 1.355 1_554 S
C4009 H3993 0.954 . S
C4009 C4008 1.355 1_556 S
C4009 C4010 1.381 1_556 S
C4010 H3994 0.908 1_554 S
C4010 C4004 1.408 . S
C4010 C4009 1.381 1_554 S
H4011 C4005 0.955 1_556 S
H4012 C4005 0.950 1_556 S
H4013 C4005 0.968 . S
H4014 C4006 0.930 . S
H4015 C4007 0.929 . S
H4016 C4024 0.929 . S
H4017 C4026 0.930 . S
H4018 C4028 0.930 . S
H4019 C4031 0.929 . S
H4020 C4034 0.930 . S
H4021 C4036 0.960 . S
H4022 C4036 0.960 . S
H4023 C4036 0.960 . S
C4024 H4016 0.929 . S
C4024 C4025 1.377 . S
C4024 C4026 1.384 . S
C4025 C4024 1.377 . S
C4025 C4031 1.390 . S
C4026 H4017 0.930 . S
C4026 C4024 1.384 . S
C4026 C4027 1.372 . S
C4027 C4026 1.372 . S
C4027 C4028 1.400 . S
C4027 C4032 1.490 . S
C4028 H4018 0.930 . S
C4028 C4027 1.400 . S
C4028 C4031 1.386 . S
H4029 C4045 0.930 . S
H4030 C4046 0.931 . S
C4031 H4019 0.929 . S
C4031 C4025 1.390 . S
C4031 C4028 1.386 . S
C4032 C4027 1.490 . S
C4032 C4034 1.395 . S
C4032 C4035 1.403 . S
H4033 C4039 0.930 . S
C4034 H4020 0.930 . S
C4034 C4032 1.395 . S
C4034 C4037 1.403 . S
C4035 C4032 1.403 . S
C4035 C4036 1.524 . S
C4035 C4039 1.400 . S
C4036 H4021 0.960 . S
C4036 H4022 0.960 . S
C4036 H4023 0.960 . S
C4036 C4035 1.524 . S
C4037 C4034 1.403 . S
C4037 C4038 1.392 . S
C4037 C4041 1.495 . S
C4038 C4037 1.392 . S
C4038 C4039 1.385 . S
C4038 C4040 1.478 . S
C4039 H4033 0.930 . S
C4039 C4035 1.400 . S
C4039 C4038 1.385 . S
C4040 C4038 1.478 . S
C4040 C4042 1.381 . S
C4040 C4046 1.383 . S
C4041 C4037 1.495 . S
C4041 H4047 0.959 . S
C4041 H4048 0.961 . S
C4041 H4049 0.960 . S
C4042 C4040 1.381 . S
C4042 C4043 1.394 . S
C4042 H4050 0.930 . S
C4043 C4042 1.394 . S
C4043 C4044 1.383 . S
C4043 H4051 0.929 . S
C4044 C4043 1.383 . S
C4044 C4045 1.377 . S
C4045 H4029 0.930 . S
C4045 C4044 1.377 . S
C4045 C4046 1.379 . S
C4046 H4030 0.931 . S
C4046 C4040 1.383 . S
C4046 C4045 1.379 . S
H4047 C4041 0.959 . S
H4048 C4041 0.961 . S
H4049 C4041 0.960 . S
H4050 C4042 0.930 . S
H4051 C4043 0.929 . S
H4052 C4060 0.929 . S
H4053 C4062 0.930 . S
H4054 C4064 0.930 . S
H4055 C4067 0.929 . S
H4056 C4070 0.930 . S
H4057 C4072 0.960 . S
H4058 C4072 0.960 . S
H4059 C4072 0.960 . S
C4060 H4052 0.929 . S
C4060 C4061 1.377 . S
C4060 C4062 1.384 . S
C4061 C4060 1.377 . S
C4061 C4067 1.390 . S
C4062 H4053 0.930 . S
C4062 C4060 1.384 . S
C4062 C4063 1.372 . S
C4063 C4062 1.372 . S
C4063 C4064 1.400 . S
C4063 C4068 1.490 . S
C4064 H4054 0.930 . S
C4064 C4063 1.400 . S
C4064 C4067 1.386 . S
H4065 C4081 0.930 . S
H4066 C4082 0.931 . S
C4067 H4055 0.929 . S
C4067 C4061 1.390 . S
C4067 C4064 1.386 . S
C4068 C4063 1.490 . S
C4068 C4070 1.395 . S
C4068 C4071 1.403 . S
H4069 C4075 0.930 . S
C4070 H4056 0.930 . S
C4070 C4068 1.395 . S
C4070 C4073 1.403 . S
C4071 C4068 1.403 . S
C4071 C4072 1.524 . S
C4071 C4075 1.400 . S
C4072 H4057 0.960 . S
C4072 H4058 0.960 . S
C4072 H4059 0.960 . S
C4072 C4071 1.524 . S
C4073 C4070 1.403 . S
C4073 C4074 1.392 . S
C4073 C4077 1.495 . S
C4074 C4073 1.392 . S
C4074 C4075 1.385 . S
C4074 C4076 1.478 . S
C4075 H4069 0.930 . S
C4075 C4071 1.400 . S
C4075 C4074 1.385 . S
C4076 C4074 1.478 . S
C4076 C4078 1.381 . S
C4076 C4082 1.383 . S
C4077 C4073 1.495 . S
C4077 H4083 0.959 . S
C4077 H4084 0.961 . S
C4077 H4085 0.960 . S
C4078 C4076 1.381 . S
C4078 C4079 1.394 . S
C4078 H4086 0.930 . S
C4079 C4078 1.394 . S
C4079 C4080 1.383 . S
C4079 H4087 0.929 . S
C4080 C4079 1.383 . S
C4080 C4081 1.377 . S
C4081 H4065 0.930 . S
C4081 C4080 1.377 . S
C4081 C4082 1.379 . S
C4082 H4066 0.931 . S
C4082 C4076 1.383 . S
C4082 C4081 1.379 . S
H4083 C4077 0.959 . S
H4084 C4077 0.961 . S
H4085 C4077 0.960 . S
H4086 C4078 0.930 . S
H4087 C4079 0.929 . S
C641 C101 1.080 . S
C660 C328 1.073 . S
C677 C57 1.165 . S
C696 C341 1.166 . S
C713 C70 1.083 . S
C732 C360 1.061 . S
C768 C391 1.930 . S
C749 C82 1.945 . S
C785 C23 1.756 . S
C804 C411 1.727 . S
C840 C428 0.583 . S
C821 C29 0.575 . S
C876 C441 1.439 . S
C857 C49 1.445 . S
C893 C10 0.835 . S
C912 C468 0.826 . S
C948 C321 1.052 . S
C929 C218 1.052 . S
C965 C226 1.293 . S
C984 C351 1.298 . S
C1020 C353 1.587 . S
C1001 C251 1.644 . S
C1056 C388 0.631 . S
C1037 C159 0.598 . S
C1073 C211 0.913 . S
C1092 C408 0.934 . S
C1128 C421 1.744 . S
C1109 C225 1.749 . S
C1164 C451 1.109 . S
C1145 C252 1.098 . S
C1200 C461 1.080 . S
C1181 C166 1.085 . S
C1236 C331 1.502 . S
C1217 C147 1.498 . S
C1253 C263 1.785 1_556 S
C1272 C481 1.771 . S
C1308 C511 1.574 . S
C1289 C309 1.558 . S
C1344 C528 0.928 . S
C1325 C291 0.974 . S
C1361 C108 1.947 . S
C1380 C471 1.926 . S
C1397 C121 1.186 . S
C1416 C358 1.182 . S
C1433 C302 1.832 . S
C1452 C541 1.831 . S
C1488 C568 0.748 . S
C1469 C276 0.699 . S
C1524 C318 1.318 . S
C1505 C55 1.391 . S
C1560 C553 1.402 . S
C1541 C96 1.407 . S
C1577 C88 1.472 . S
C1596 C371 1.452 . S
C1613 C75 2.247 . S
C1632 C540 2.173 . S
C1668 C400 1.954 . S
C1649 C4 2.021 . S
C1685 C44 0.949 . S
C1704 C498 0.914 . S
C1740 C433 1.623 . S
C1721 C31 1.645 . S
C1776 C578 1.095 . S
C1757 C18 1.137 . S
C1812 C313 1.322 . S
C1793 C133 1.356 . S
C1848 C560 1.567 . S
C1829 C296 1.633 . S
C1865 C107 1.932 . S
C1884 C361 1.866 . S
C1901 C264 1.022 . S
C1920 C538 0.985 . S
C1937 C140 1.290 . S
C1956 C398 1.260 . S
C1992 C493 1.969 . S
C1973 C289 1.971 . S
C2009 C114 1.437 . S
C2028 C440 1.365 . S
C2045 C265 1.379 . S
C2064 C573 1.332 . S
C2081 C179 1.843 . S
C2100 C320 1.805 . S
C2117 C161 2.033 . S
C2136 C473 2.007 . S
C2153 C244 1.863 . S
C2172 C420 1.805 . S
C2189 C224 1.355 . S
C2208 C518 1.327 . S
C2244 C580 2.159 . S
C2225 C257 2.219 . S
C2261 C199 1.392 . S
C2280 C368 1.343 . S
C2316 C373 2.057 . S
C2297 C237 2.089 . S
C2352 C338 1.006 . S
C2333 C185 1.053 . S
C2369 C69 1.078 . S
C2388 C608 1.023 . S
C2424 C561 1.147 . S
C2405 C83 1.163 . S
C2441 C94 1.082 . S
C2460 C620 1.096 . S
C2477 C56 1.945 . S
C2496 C551 1.932 . S
C2513 C42 1.767 . S
C2532 C491 1.737 . S
C2568 C508 0.561 . S
C2549 C3 0.572 . S
C2604 C521 1.443 . S
C2585 C16 1.454 . S
C2640 C588 0.798 . S
C2621 C36 0.836 . S
C2676 C601 1.041 . S
C2657 C238 1.056 . S
C2693 C174 1.293 . S
C2712 C571 1.263 . S
C2748 C613 1.574 . S
C2729 C186 1.644 . S
C2784 C548 0.628 . S
C2765 C198 0.599 . S
C2820 C488 0.891 . S
C2801 C239 0.919 . S
C2837 C173 1.749 . S
C2856 C501 1.745 . S
C2892 C531 1.084 . S
C2873 C187 1.101 . S
C2909 C205 1.085 . S
C2928 C581 1.082 . S
C2964 C611 1.468 . S
C2945 C290 1.498 . S
C2981 C122 1.789 . S
C3000 C401 1.769 . S
C3036 C431 1.580 . S
C3017 C134 1.570 . S
C3072 C448 0.974 . S
C3053 C148 0.974 . S
C3108 C591 1.922 . S
C3089 C283 1.941 . S
C3125 C270 1.182 . S
C3144 C618 1.170 . S
C3180 C381 1.812 . S
C3161 C135 1.827 . S
C3216 C348 0.651 . S
C3197 C109 0.703 1_565 S
C3233 C81 1.391 . S
C3252 C598 1.350 . S
C3288 C333 1.369 . S
C3269 C68 1.406 . S
C3305 C62 1.472 . S
C3324 C631 1.449 . S
C3341 C95 2.247 . S
C3360 C380 2.168 . S
C3377 C30 2.020 . S
C3396 C480 1.986 . S
C3432 C418 0.922 . S
C3413 C17 0.939 . S
C3449 C5 1.645 . S
C3468 C513 1.623 . S
C3485 C43 1.129 . S
C3504 C458 1.106 . S
C3540 C593 1.341 . S
C3521 C304 1.354 . S
C3557 C153 1.631 . S
C3576 C340 1.575 . S
C3612 C621 1.881 . S
C3593 C278 1.933 . S
C3629 C127 1.018 . S
C3648 C378 1.011 . S
C3665 C303 1.281 . S
C3684 C478 1.252 . S
C3720 C413 1.966 . S
C3701 C146 1.969 . S
C3737 C277 1.432 . S
C3756 C520 1.375 . S
C3792 C453 1.334 . S
C3773 C120 1.376 . S
C3828 C600 1.805 . S
C3809 C231 1.843 . S
C3864 C393 2.006 1_565 S
C3845 C200 2.032 . S
C3881 C212 1.862 . S
C3900 C500 1.843 . S
C3936 C438 1.329 1_556 S
C3917 C172 1.354 . S
C3953 C192 2.218 . S
C3972 C460 2.159 . S
C3989 C160 1.392 . S
C4008 C628 1.348 . S
C4044 C533 2.075 . S
C4025 C213 2.092 1_565 S
C4080 C558 1.042 . S
C4061 C250 1.055 . S
