# Generated by pormake.
# Topology zzz, (3,6)-cn, num edge types: 1
# Building blocks:
#     Node 0, Type 0, BuildingBlock: OLANEW_clean_sbu_2, # of connection points: 3
#     Node 1, Type 0, BuildingBlock: OLANEW_clean_sbu_2, # of connection points: 3
#     Node 2, Type 0, BuildingBlock: OLANEW_clean_sbu_2, # of connection points: 3
#     Node 3, Type 0, BuildingBlock: OLANEW_clean_sbu_2, # of connection points: 3
#     Node 4, Type 0, BuildingBlock: OLANEW_clean_sbu_2, # of connection points: 3
#     Node 5, Type 0, BuildingBlock: OLANEW_clean_sbu_2, # of connection points: 3
#     Node 6, Type 0, BuildingBlock: OLANEW_clean_sbu_2, # of connection points: 3
#     Node 7, Type 0, BuildingBlock: OLANEW_clean_sbu_2, # of connection points: 3
#     Node 8, Type 1, BuildingBlock: BETFEN_clean_sbu_0, # of connection points: 6
#     Node 9, Type 1, BuildingBlock: BETFEN_clean_sbu_0, # of connection points: 6
#     Node 10, Type 1, BuildingBlock: BETFEN_clean_sbu_0, # of connection points: 6
#     Node 11, Type 1, BuildingBlock: BETFEN_clean_sbu_0, # of connection points: 6
#     Edge 12, Type (0, 1), BuildingBlock: AJUNOK_clean_linker_0, # of connection points: 2
#     Edge 13, Type (0, 1), BuildingBlock: AJUNOK_clean_linker_0, # of connection points: 2
#     Edge 14, Type (0, 1), BuildingBlock: AJUNOK_clean_linker_0, # of connection points: 2
#     Edge 15, Type (0, 1), BuildingBlock: AJUNOK_clean_linker_0, # of connection points: 2
#     Edge 16, Type (0, 1), BuildingBlock: AJUNOK_clean_linker_0, # of connection points: 2
#     Edge 17, Type (0, 1), BuildingBlock: AJUNOK_clean_linker_0, # of connection points: 2
#     Edge 18, Type (0, 1), BuildingBlock: AJUNOK_clean_linker_0, # of connection points: 2
#     Edge 19, Type (0, 1), BuildingBlock: AJUNOK_clean_linker_0, # of connection points: 2
#     Edge 20, Type (0, 1), BuildingBlock: AJUNOK_clean_linker_0, # of connection points: 2
#     Edge 21, Type (0, 1), BuildingBlock: AJUNOK_clean_linker_0, # of connection points: 2
#     Edge 22, Type (0, 1), BuildingBlock: AJUNOK_clean_linker_0, # of connection points: 2
#     Edge 23, Type (0, 1), BuildingBlock: AJUNOK_clean_linker_0, # of connection points: 2
#     Edge 24, Type (0, 1), BuildingBlock: AJUNOK_clean_linker_0, # of connection points: 2
#     Edge 25, Type (0, 1), BuildingBlock: AJUNOK_clean_linker_0, # of connection points: 2
#     Edge 26, Type (0, 1), BuildingBlock: AJUNOK_clean_linker_0, # of connection points: 2
#     Edge 27, Type (0, 1), BuildingBlock: AJUNOK_clean_linker_0, # of connection points: 2
#     Edge 28, Type (0, 1), BuildingBlock: AJUNOK_clean_linker_0, # of connection points: 2
#     Edge 29, Type (0, 1), BuildingBlock: AJUNOK_clean_linker_0, # of connection points: 2
#     Edge 30, Type (0, 1), BuildingBlock: AJUNOK_clean_linker_0, # of connection points: 2
#     Edge 31, Type (0, 1), BuildingBlock: AJUNOK_clean_linker_0, # of connection points: 2
#     Edge 32, Type (0, 1), BuildingBlock: AJUNOK_clean_linker_0, # of connection points: 2
#     Edge 33, Type (0, 1), BuildingBlock: AJUNOK_clean_linker_0, # of connection points: 2
#     Edge 34, Type (0, 1), BuildingBlock: AJUNOK_clean_linker_0, # of connection points: 2
#     Edge 35, Type (0, 1), BuildingBlock: AJUNOK_clean_linker_0, # of connection points: 2
# Relax obj value: 0.309
# Max RMSD: 0.210
# Mean RMSD: 0.173
data_MOF--net-zzz--node1-OLANEW_clean_sbu_2--node2-BETFEN_clean_sbu_0--edge1-AJUNOK_clean_linker_0
_symmetry_space_group_name_H-M    P1
_symmetry_Int_Tables_number       1
_symmetry_cell_setting            triclinic
loop_
_symmetry_equiv_pos_as_xyz
'x, y, z'
_cell_length_a     43.097026
_cell_length_b     43.128801
_cell_length_c     11.697875
_cell_angle_alpha  89.549271
_cell_angle_beta   89.779689
_cell_angle_gamma 89.990059
loop_
_atom_site_label
_atom_site_type_symbol
_atom_site_fract_x
_atom_site_fract_y
_atom_site_fract_z
_atom_type_partial_charge
O0 O 0.71748 0.55926 0.30995 0.0
Cd1 Cd 0.66337 0.57231 0.3463 0.0
O2 O 0.71257 0.51938 0.42667 0.0
Cd3 Cd 0.73694 0.48279 0.51893 0.0
O4 O 0.78431 0.47423 0.57375 0.0
C5 C 0.79679 0.49682 0.62522 0.0
O6 O 0.78018 0.52179 0.64457 0.0
C7 C 0.72898 0.53535 0.35744 0.0
C8 C 0.62743 0.54893 0.16934 0.0
O9 O 0.63938 0.57611 0.16326 0.0
O10 O 0.63203 0.53298 0.26059 0.0
O11 O 0.91028 0.7231 0.25299 0.0
Cd12 Cd 0.89505 0.6704 0.30596 0.0
O13 O 0.95757 0.71114 0.30646 0.0
Cd14 Cd 0.00375 0.72763 0.35012 0.0
O15 O 0.01581 0.77367 0.40894 0.0
C16 C 0.99539 0.7852 0.4747 0.0
O17 O 0.97153 0.76799 0.50481 0.0
C18 C 0.93847 0.73083 0.26597 0.0
C19 C 0.92516 0.6279 0.16553 0.0
O20 O 0.89898 0.63978 0.13749 0.0
O21 O 0.93699 0.63589 0.26122 0.0
O22 O 0.77464 0.90996 0.16721 0.0
Cd23 Cd 0.82632 0.88702 0.17958 0.0
O24 O 0.77607 0.92196 0.34959 0.0
Cd25 Cd 0.74783 0.93926 0.48937 0.0
O26 O 0.70029 0.94724 0.54401 0.0
C27 C 0.69217 0.9492 0.648 0.0
O28 O 0.71343 0.94747 0.72801 0.0
C29 C 0.76204 0.92205 0.25439 0.0
C30 C 0.8653 0.91305 0.01395 0.0
O31 O 0.84911 0.88888 0.99268 0.0
O32 O 0.86328 0.92463 0.11431 0.0
O33 O 0.44314 0.78209 0.34799 0.0
Cd34 Cd 0.44888 0.83375 0.42703 0.0
O35 O 0.49371 0.78082 0.3634 0.0
Cd36 Cd 0.53677 0.75454 0.37197 0.0
O37 O 0.54739 0.70799 0.43086 0.0
C38 C 0.53472 0.70102 0.52583 0.0
O39 O 0.51904 0.72254 0.58009 0.0
C40 C 0.4685 0.76752 0.33547 0.0
C41 C 0.46243 0.87506 0.25096 0.0
O42 O 0.48383 0.85853 0.29653 0.0
O43 O 0.43475 0.87252 0.29029 0.0
O44 O 0.2622 0.54006 0.19517 0.0
Cd45 Cd 0.31447 0.5369 0.11658 0.0
O46 O 0.26325 0.4894 0.18261 0.0
Cd47 Cd 0.23716 0.44623 0.17924 0.0
O48 O 0.18899 0.44025 0.1318 0.0
C49 C 0.18085 0.45829 0.05098 0.0
O50 O 0.20207 0.47585 0.00205 0.0
C51 C 0.24892 0.51408 0.20992 0.0
C52 C 0.3575 0.53153 0.29196 0.0
O53 O 0.3515 0.55789 0.24581 0.0
O54 O 0.3432 0.50762 0.25476 0.0
O55 O 0.05602 0.25788 0.30305 0.0
Cd56 Cd 0.0723 0.31203 0.29042 0.0
O57 O 0.06541 0.25253 0.11981 0.0
Cd58 Cd 0.06356 0.22506 0.9643 0.0
O59 O 0.05381 0.18386 0.86481 0.0
C60 C 0.02965 0.16891 0.89434 0.0
O61 O 0.01196 0.1801 0.97595 0.0
C62 C 0.05661 0.2409 0.21485 0.0
C63 C 0.04627 0.34748 0.46487 0.0
O64 O 0.03286 0.34503 0.36771 0.0
O65 O 0.07205 0.33318 0.47911 0.0
O66 O 0.23833 0.03596 0.16827 0.0
Cd67 Cd 0.18511 0.05111 0.12555 0.0
O68 O 0.24876 0.08565 0.18029 0.0
Cd69 Cd 0.28535 0.12015 0.19269 0.0
O70 O 0.33258 0.11454 0.13102 0.0
C71 C 0.33469 0.10135 0.03449 0.0
O72 O 0.30905 0.09499 0.97901 0.0
C73 C 0.25757 0.05756 0.18702 0.0
C74 C 0.1458 0.03132 0.30117 0.0
O75 O 0.15075 0.01455 0.21294 0.0
O76 O 0.15921 0.05779 0.30557 0.0
O77 O 0.54221 0.23009 0.21081 0.0
Cd78 Cd 0.53922 0.17511 0.16969 0.0
O79 O 0.49634 0.23368 0.13193 0.0
Cd80 Cd 0.45898 0.26142 0.05959 0.0
O81 O 0.44938 0.30777 0.99675 0.0
C82 C 0.46806 0.31717 0.9199 0.0
O83 O 0.48898 0.29774 0.88073 0.0
C84 C 0.51902 0.24651 0.1825 0.0
C85 C 0.53888 0.1417 0.37354 0.0
O86 O 0.56419 0.14641 0.31824 0.0
O87 O 0.51367 0.15265 0.33172 0.0
Pr88 Pr 0.01275 0.96926 0.79565 0.0
Pr89 Pr 0.99702 0.98868 0.54195 0.0
C90 C 0.01381 0.94191 0.00333 0.0
C91 C 0.00389 0.91138 0.04729 0.0
C92 C 0.00441 0.88538 0.97597 0.0
C93 C 0.99362 0.85675 0.0158 0.0
C94 C 0.98185 0.85351 0.12755 0.0
C95 C 0.98143 0.87962 0.19897 0.0
C96 C 0.99236 0.90833 0.1591 0.0
C97 C 0.06298 0.98463 0.6558 0.0
C98 C 0.00063 0.91537 0.59475 0.0
C99 C 0.996 0.01724 0.33714 0.0
C100 C 0.00599 0.04842 0.29847 0.0
C101 C 0.98395 0.06932 0.25501 0.0
C102 C 0.99197 0.10023 0.23348 0.0
C103 C 0.0223 0.11074 0.25389 0.0
C104 C 0.0448 0.08942 0.29113 0.0
C105 C 0.03669 0.05863 0.3143 0.0
C106 C 0.94668 0.97161 0.67812 0.0
C107 C 0.01043 0.04256 0.74258 0.0
O108 O 0.99145 0.96038 0.97022 0.0
O109 O 0.03768 0.94212 0.93365 0.0
O110 O 0.03986 0.9687 0.62803 0.0
O111 O 0.06177 0.9923 0.7632 0.0
O112 O 0.00494 0.93614 0.51273 0.0
O113 O 0.99827 0.92314 0.70363 0.0
O114 O 0.01786 0.99771 0.36714 0.0
O115 O 0.97196 0.01654 0.40594 0.0
O116 O 0.96929 0.98806 0.70879 0.0
O117 O 0.94839 0.96509 0.56978 0.0
O118 O 0.00591 0.02178 0.82418 0.0
O119 O 0.01226 0.03481 0.63352 0.0
H120 H 0.01296 0.88721 0.889 0.0
H121 H 0.99412 0.83719 0.9584 0.0
H122 H 0.97288 0.87786 0.28591 0.0
H123 H 0.99165 0.92818 0.21526 0.0
H124 H 0.9602 0.06201 0.2416 0.0
H125 H 0.97433 0.11607 0.20265 0.0
H126 H 0.06836 0.09691 0.30735 0.0
H127 H 0.05426 0.04318 0.3483 0.0
Pr128 Pr 0.52092 0.02117 0.94873 0.0
Pr129 Pr 0.49546 0.00506 0.70766 0.0
C130 C 0.54932 0.01589 0.15204 0.0
C131 C 0.57854 0.00023 0.1832 0.0
C132 C 0.59795 0.01261 0.26703 0.0
C133 C 0.6273 -0.00033 0.28694 0.0
C134 C 0.63802 0.97459 0.2209 0.0
C135 C 0.61792 0.96172 0.13965 0.0
C136 C 0.58844 0.97413 0.12212 0.0
C137 C 0.53071 0.06572 0.78102 0.0
C138 C 0.56528 0.98212 0.76098 0.0
C139 C 0.46985 0.00593 0.49764 0.0
C140 C 0.44026 0.01433 0.44141 0.0
C141 C 0.42215 0.99118 0.3906 0.0
C142 C 0.39368 0.99854 0.34017 0.0
C143 C 0.3829 0.02932 0.33814 0.0
C144 C 0.40147 0.05259 0.38628 0.0
C145 C 0.4298 0.04521 0.43752 0.0
C146 C 0.48633 0.96037 0.87659 0.0
C147 C 0.45197 0.04643 0.89467 0.0
O148 O 0.52658 0.99771 0.1208 0.0
O149 O 0.55227 0.04045 0.08635 0.0
O150 O 0.53399 0.03699 0.76889 0.0
O151 O 0.5226 0.07309 0.88473 0.0
O152 O 0.54649 0.99013 0.67724 0.0
O153 O 0.5582 0.98761 0.86889 0.0
O154 O 0.4868 0.02858 0.53765 0.0
O155 O 0.46969 0.98133 0.56402 0.0
O156 O 0.48246 0.98904 0.88791 0.0
O157 O 0.49442 0.95324 0.77279 0.0
O158 O 0.47126 0.03943 0.97821 0.0
O159 O 0.4578 0.03882 0.78695 0.0
H160 H 0.59055 0.03255 0.31557 0.0
H161 H 0.64152 0.00937 0.3538 0.0
H162 H 0.62522 0.94249 0.08699 0.0
H163 H 0.57373 0.96372 0.05834 0.0
H164 H 0.42977 0.96723 0.39172 0.0
H165 H 0.37969 0.97996 0.30599 0.0
H166 H 0.39392 0.07655 0.38536 0.0
H167 H 0.44326 0.06369 0.4751 0.0
Pr168 Pr 0.48776 0.51964 0.84238 0.0
Pr169 Pr 0.51406 0.49884 0.60861 0.0
C170 C 0.47871 0.5472 0.04546 0.0
C171 C 0.47616 0.57934 0.08819 0.0
C172 C 0.4493 0.59719 0.06926 0.0
C173 C 0.44744 0.62763 0.10902 0.0
C174 C 0.47235 0.6408 0.16857 0.0
C175 C 0.49922 0.62308 0.18691 0.0
C176 C 0.50103 0.59258 0.14796 0.0
C177 C 0.44516 0.51884 0.66424 0.0
C178 C 0.51846 0.57226 0.6604 0.0
C179 C 0.52212 0.47194 0.4041 0.0
C180 C 0.52352 0.4398 0.362 0.0
C181 C 0.54372 0.41786 0.41118 0.0
C182 C 0.54361 0.38715 0.37395 0.0
C183 C 0.5231 0.37779 0.28799 0.0
C184 C 0.5034 0.39978 0.23725 0.0
C185 C 0.50359 0.43055 0.27392 0.0
C186 C 0.55735 0.50325 0.78275 0.0
C187 C 0.48383 0.44632 0.79282 0.0
O188 O 0.50609 0.53853 0.00886 0.0
O189 O 0.45597 0.53676 0.98263 0.0
O190 O 0.47252 0.52871 0.65802 0.0
O191 O 0.43819 0.50939 0.76697 0.0
O192 O 0.51688 0.55192 0.57693 0.0
O193 O 0.51209 0.56438 0.76745 0.0
O194 O 0.49498 0.48121 0.44126 0.0
O195 O 0.54525 0.48151 0.46709 0.0
O196 O 0.53061 0.49165 0.79254 0.0
O197 O 0.56326 0.51164 0.67784 0.0
O198 O 0.48449 0.46686 0.87544 0.0
O199 O 0.49115 0.45362 0.68604 0.0
H200 H 0.4297 0.58775 0.02353 0.0
H201 H 0.42663 0.64097 0.09239 0.0
H202 H 0.51874 0.63272 0.23251 0.0
H203 H 0.52195 0.57937 0.16432 0.0
H204 H 0.55923 0.42425 0.47971 0.0
H205 H 0.5589 0.37048 0.41461 0.0
H206 H 0.48776 0.39301 0.16983 0.0
H207 H 0.48793 0.44707 0.23434 0.0
Pr208 Pr 0.97868 0.47686 0.95445 0.0
Pr209 Pr 0.00077 0.49472 0.70651 0.0
C210 C 0.94872 0.4753 0.15635 0.0
C211 C 0.91677 0.48308 0.19049 0.0
C212 C 0.89198 0.47735 0.11602 0.0
C213 C 0.86183 0.48576 0.1463 0.0
C214 C 0.85586 0.50021 0.25128 0.0
C215 C 0.88076 0.50667 0.3246 0.0
C216 C 0.91102 0.49797 0.29467 0.0
C217 C 0.99278 0.42751 0.81158 0.0
C218 C 0.9269 0.49139 0.74934 0.0
C219 C 0.02816 0.49977 0.49917 0.0
C220 C 0.06001 0.50344 0.45608 0.0
C221 C 0.06598 0.50429 0.3382 0.0
C222 C 0.0965 0.50695 0.29771 0.0
C223 C 0.12145 0.50821 0.37468 0.0
C224 C 0.11517 0.50822 0.49274 0.0
C225 C 0.08472 0.50583 0.53296 0.0
C226 C 0.98598 0.54405 0.84893 0.0
C227 C 0.0528 0.47737 0.91436 0.0
O228 O 0.96588 0.49877 0.12354 0.0
O229 O 0.95208 0.45087 0.09162 0.0
O230 O 0.9781 0.45159 0.78295 0.0
O231 O 0.99918 0.42733 0.92027 0.0
O232 O 0.94833 0.48616 0.67089 0.0
O233 O 0.93391 0.49363 0.85872 0.0
O234 O 0.02186 0.47315 0.54847 0.0
O235 O 0.01673 0.52342 0.5545 0.0
O236 O 0.00109 0.52023 0.87767 0.0
O237 O 0.97917 0.54368 0.74079 0.0
O238 O 0.03103 0.47886 0.9935 0.0
O239 O 0.04677 0.48065 0.80379 0.0
H240 H 0.89591 0.46658 0.03388 0.0
H241 H 0.84317 0.4813 0.08683 0.0
H242 H 0.87676 0.51815 0.40533 0.0
H243 H 0.92992 0.50305 0.35237 0.0
H244 H 0.04712 0.50258 0.27759 0.0
H245 H 0.10066 0.50729 0.20638 0.0
H246 H 0.13381 0.51013 0.55412 0.0
H247 H 0.08041 0.50569 0.62412 0.0
C248 C 0.10761 0.99305 0.37889 0.0
C249 C 0.12527 0.0201 0.39481 0.0
C250 C 0.08798 0.98166 0.46485 0.0
C251 C 0.0854 0.99662 0.57075 0.0
H252 H 0.10867 0.98062 0.29887 0.0
H253 H 0.0746 0.96093 0.44786 0.0
S254 S 0.12632 0.06825 0.65687 0.0
N255 N 0.13868 0.06172 0.52542 0.0
N256 N 0.10184 0.0399 0.68745 0.0
C257 C 0.10297 0.02352 0.58877 0.0
C258 C 0.12284 0.0354 0.5006 0.0
C259 C 0.51355 0.12718 0.5591 0.0
C260 C 0.53853 0.12385 0.482 0.0
C261 C 0.51193 0.10951 0.66014 0.0
C262 C 0.53491 0.08754 0.68564 0.0
H263 H 0.49493 0.14334 0.54084 0.0
H264 H 0.49197 0.11205 0.71585 0.0
S265 S 0.6058 0.07084 0.51714 0.0
N266 N 0.5876 0.0979 0.4425 0.0
N267 N 0.58382 0.06406 0.63045 0.0
C268 C 0.56024 0.08437 0.61112 0.0
C269 C 0.56229 0.10273 0.50971 0.0
C270 C 0.37721 0.50449 0.46714 0.0
C271 C 0.38003 0.52875 0.3864 0.0
C272 C 0.39801 0.50169 0.55867 0.0
C273 C 0.42273 0.52258 0.57055 0.0
H274 H 0.35856 0.48777 0.46046 0.0
H275 H 0.39505 0.48277 0.61924 0.0
S276 S 0.44039 0.59006 0.38326 0.0
N277 N 0.40934 0.57423 0.32566 0.0
N278 N 0.44878 0.56843 0.49578 0.0
C279 C 0.42592 0.54679 0.49034 0.0
C280 C 0.40445 0.55004 0.39871 0.0
C281 C 0.00694 0.38595 0.53236 0.0
C282 C 0.03248 0.36668 0.55684 0.0
C283 C 0.99394 0.40509 0.61605 0.0
C284 C 0.00578 0.40555 0.7278 0.0
H285 H 0.99711 0.38668 0.44731 0.0
H286 H 0.97461 0.41986 0.59258 0.0
S287 S 0.07202 0.35935 0.83757 0.0
N288 N 0.06889 0.34909 0.70241 0.0
N289 N 0.04426 0.38502 0.85949 0.0
C290 C 0.03095 0.38612 0.75439 0.0
C291 C 0.04438 0.36675 0.66892 0.0
C292 C 0.90365 0.95355 0.9534 0.0
C293 C 0.88552 0.92756 0.92543 0.0
C294 C 0.92286 0.96795 0.87209 0.0
C295 C 0.92476 0.95696 0.75954 0.0
H296 H 0.90315 0.96292 0.03904 0.0
H297 H 0.93642 0.98784 0.89787 0.0
S298 S 0.88208 0.88985 0.64107 0.0
N299 N 0.87067 0.89153 0.77579 0.0
N300 N 0.90683 0.9187 0.62332 0.0
C301 C 0.90664 0.9312 0.72964 0.0
C302 C 0.88708 0.91642 0.81255 0.0
C303 C 0.45218 0.924 0.14335 0.0
C304 C 0.46933 0.89644 0.15526 0.0
C305 C 0.45811 0.94467 0.05309 0.0
C306 C 0.48069 0.93802 0.96979 0.0
H307 H 0.43434 0.92983 0.205 0.0
H308 H 0.4446 0.96584 0.04768 0.0
S309 S 0.53198 0.86917 0.96216 0.0
N310 N 0.51025 0.86386 0.07734 0.0
N311 N 0.52055 0.90239 0.90507 0.0
C312 C 0.49787 0.91054 0.98004 0.0
C313 C 0.49242 0.88984 0.07366 0.0
C314 C 0.60948 0.55232 0.96678 0.0
C315 C 0.60948 0.53633 0.07224 0.0
C316 C 0.59318 0.54098 0.87266 0.0
C317 C 0.57586 0.5135 0.88091 0.0
H318 H 0.62228 0.57377 0.95632 0.0
H319 H 0.59362 0.55424 0.7936 0.0
S320 S 0.569 0.46204 0.13436 0.0
N321 N 0.59134 0.49075 0.17726 0.0
N322 N 0.56011 0.47 1.00021 0.0
C323 C 0.57561 0.49715 0.98497 0.0
C324 C 0.5926 0.50841 0.08066 0.0
C325 C 0.93044 0.6025 0.97532 0.0
C326 C 0.94139 0.60622 0.08763 0.0
C327 C 0.94543 0.58279 0.89835 0.0
C328 C 0.97177 0.56574 0.93085 0.0
H329 H 0.91016 0.61503 0.94596 0.0
H330 H 0.93594 0.58056 0.81317 0.0
S331 S 0.00998 0.56683 0.21429 0.0
N332 N 0.98043 0.59097 0.22732 0.0
N333 N 0.00853 0.55387 0.08197 0.0
C334 C 0.98307 0.56911 0.04254 0.0
C335 C 0.9679 0.58935 0.12109 0.0
C336 C 0.0646 0.18486 0.1689 0.0
C337 C 0.04704 0.20802 0.22321 0.0
C338 C 0.05639 0.15344 0.1785 0.0
C339 C 0.03018 0.14412 0.24204 0.0
H340 H 0.08516 0.19099 0.1202 0.0
H341 H 0.07054 0.13634 0.1354 0.0
S342 S 0.97729 0.19562 0.40432 0.0
N343 N 0.0028 0.21944 0.34505 0.0
N344 N 0.98738 0.16047 0.36341 0.0
C345 C 0.01258 0.16705 0.29735 0.0
C346 C 0.02107 0.19896 0.28825 0.0
C347 C 0.30152 0.06285 0.32192 0.0
C348 C 0.28972 0.05031 0.22063 0.0
C349 C 0.33172 0.05618 0.35815 0.0
C350 C 0.35145 0.03694 0.29383 0.0
H351 H 0.28706 0.07757 0.37463 0.0
H352 H 0.33944 0.06576 0.43844 0.0
S353 S 0.33258 0.00139 0.01462 0.0
N354 N 0.30031 0.01933 0.05266 0.0
N355 N 0.35768 0.00758 0.11837 0.0
C356 C 0.34015 0.02495 0.19033 0.0
C357 C 0.30912 0.0314 0.1544 0.0
C358 C 0.54669 0.29732 0.19149 0.0
C359 C 0.51912 0.28019 0.20535 0.0
C360 C 0.54775 0.32907 0.21655 0.0
C361 C 0.52123 0.34475 0.25572 0.0
H362 H 0.56762 0.28608 0.16123 0.0
H363 H 0.56945 0.34143 0.2055 0.0
S364 S 0.44438 0.30998 0.31837 0.0
N365 N 0.46553 0.28079 0.2712 0.0
N366 N 0.46718 0.34072 0.31293 0.0
C367 C 0.49361 0.32793 0.27058 0.0
C368 C 0.49265 0.29555 0.24688 0.0
C369 C 0.19382 0.53244 0.20879 0.0
C370 C 0.2167 0.51255 0.25334 0.0
C371 C 0.16292 0.5306 0.24696 0.0
C372 C 0.15401 0.50917 0.33239 0.0
H373 H 0.19975 0.54921 0.14284 0.0
H374 H 0.14599 0.54636 0.21057 0.0
S375 S 0.20549 0.45241 0.47784 0.0
N376 N 0.22868 0.47147 0.38931 0.0
N377 N 0.17061 0.46737 0.45881 0.0
C378 C 0.17679 0.48924 0.37759 0.0
C379 C 0.20814 0.49113 0.33877 0.0
C380 C 0.97725 0.76635 0.17564 0.0
C381 C 0.94903 0.76243 0.23461 0.0
C382 C 0.98784 0.79587 0.14363 0.0
C383 C 0.97052 0.8227 0.16823 0.0
H384 H 0.9911 0.7464 0.15279 0.0
H385 H 0.00987 0.79765 0.09892 0.0
S386 S 0.89477 0.82486 0.32028 0.0
N387 N 0.9039 0.78767 0.31701 0.0
N388 N 0.92339 0.84325 0.25441 0.0
C389 C 0.94218 0.81909 0.22734 0.0
C390 C 0.93146 0.78893 0.26023 0.0
C391 C 0.7048 0.91668 0.23331 0.0
C392 C 0.73085 0.93574 0.24651 0.0
C393 C 0.67487 0.92939 0.22852 0.0
C394 C 0.66995 0.9617 0.23463 0.0
H395 H 0.70756 0.89176 0.228 0.0
H396 H 0.65543 0.91368 0.22015 0.0
S397 S 0.73148 0.02135 0.26608 0.0
N398 N 0.75043 0.98807 0.26669 0.0
N399 N 0.69447 0.01237 0.25157 0.0
C400 C 0.69613 0.98094 0.24776 0.0
C401 C 0.7265 0.96785 0.25489 0.0
C402 C 0.49311 0.72488 0.22317 0.0
C403 C 0.46868 0.73523 0.29322 0.0
C404 C 0.49421 0.69429 0.18387 0.0
C405 C 0.47051 0.67306 0.21106 0.0
H406 H 0.5114 0.74067 0.19689 0.0
H407 H 0.51351 0.68732 0.13046 0.0
S408 S 0.40125 0.68844 0.39098 0.0
N409 N 0.4202 0.72174 0.38819 0.0
N410 N 0.42189 0.66438 0.31218 0.0
C411 C 0.44566 0.68319 0.27935 0.0
C412 C 0.44473 0.71426 0.32057 0.0
C413 C 0.78548 0.54781 0.33833 0.0
C414 C 0.76124 0.52608 0.33248 0.0
C415 C 0.81626 0.53912 0.31497 0.0
C416 C 0.82363 0.50859 0.28311 0.0
H417 H 0.78063 0.57157 0.36181 0.0
H418 H 0.83431 0.55655 0.31942 0.0
S419 S 0.76835 0.44326 0.25426 0.0
N420 N 0.74645 0.47304 0.29064 0.0
N421 N 0.80425 0.45656 0.24914 0.0
C422 C 0.79953 0.48671 0.27737 0.0
C423 C 0.76833 0.49552 0.30125 0.0
C424 C 0.00668 0.11627 0.91579 0.0
C425 C 0.02362 0.13761 0.84899 0.0
C426 C 0.00246 0.08568 0.88022 0.0
C427 C 0.01445 0.07539 0.77519 0.0
H428 H 0.99723 0.12299 0.99776 0.0
H429 H 0.98967 0.07001 0.93583 0.0
S430 S 0.05906 0.12278 0.56514 0.0
N431 N 0.05165 0.14677 0.67113 0.0
N432 N 0.04315 0.08936 0.60251 0.0
C433 C 0.0307 0.09675 0.70567 0.0
C434 C 0.03545 0.12783 0.74306 0.0
C435 C 0.39026 0.08786 0.06816 0.0
C436 C 0.36497 0.08962 0.99285 0.0
C437 C 0.41834 0.07434 0.03476 0.0
C438 C 0.42246 0.06222 0.92424 0.0
H439 H 0.38817 0.0962 0.15497 0.0
H440 H 0.43684 0.07312 0.09706 0.0
S441 S 0.36369 0.06206 0.69278 0.0
N442 N 0.34602 0.07881 0.80145 0.0
N443 N 0.39888 0.05356 0.73835 0.0
C444 C 0.39757 0.06447 0.84698 0.0
C445 C 0.36883 0.07809 0.88137 0.0
C446 C 0.48677 0.35875 0.78751 0.0
C447 C 0.46875 0.35008 0.8831 0.0
C448 C 0.49059 0.38992 0.75667 0.0
C449 C 0.47692 0.41365 0.82131 0.0
H450 H 0.49855 0.34138 0.73695 0.0
H451 H 0.50528 0.39545 0.68394 0.0
S452 S 0.42486 0.40341 0.07213 0.0
N453 N 0.43499 0.36781 0.03687 0.0
N454 N 0.44268 0.4265 0.97971 0.0
C455 C 0.45792 0.40537 0.91459 0.0
C456 C 0.45364 0.37356 0.94517 0.0
C457 C 0.14064 0.4777 0.91558 0.0
C458 C 0.14798 0.46132 0.01647 0.0
C459 C 0.10982 0.48249 0.88278 0.0
C460 C 0.0851 0.47143 0.9502 0.0
H461 H 0.15882 0.4871 0.86135 0.0
H462 H 0.10539 0.49551 0.8051 0.0
S463 S 0.09162 0.42615 0.22041 0.0
N464 N 0.12787 0.43332 0.18241 0.0
N465 N 0.06988 0.44236 0.12056 0.0
C466 C 0.09202 0.45464 0.05058 0.0
C467 C 0.12347 0.44954 0.08368 0.0
C468 C 0.01524 0.83915 0.44536 0.0
C469 C 0.99689 0.81812 0.50867 0.0
C470 C 0.01595 0.87071 0.47267 0.0
C471 C 0.99866 0.88228 0.56504 0.0
H472 H 0.02876 0.83131 0.3729 0.0
H473 H 0.03038 0.8861 0.42162 0.0
S474 S 0.94665 0.83711 0.75715 0.0
N475 N 0.96073 0.81129 0.66735 0.0
N476 N 0.96241 0.87053 0.71914 0.0
C477 C 0.9803 0.86156 0.62931 0.0
C478 C 0.97929 0.82951 0.60081 0.0
C479 C 0.65163 0.96742 0.78493 0.0
C480 C 0.65927 0.9549 0.6779 0.0
C481 C 0.62096 0.97515 0.81228 0.0
C482 C 0.59671 0.9705 0.73395 0.0
H483 H 0.66956 0.97223 0.84698 0.0
H484 H 0.61651 0.98594 0.89393 0.0
S485 S 0.60367 0.93405 0.44904 0.0
N486 N 0.63959 0.93526 0.49744 0.0
N487 N 0.58191 0.94982 0.54939 0.0
C488 C 0.60378 0.95673 0.62865 0.0
C489 C 0.63505 0.94889 0.60053 0.0
C490 C 0.53994 0.64429 0.48968 0.0
C491 C 0.53381 0.66847 0.56649 0.0
C492 C 0.53556 0.61324 0.52161 0.0
C493 C 0.52532 0.60511 0.63227 0.0
H494 H 0.5472 0.64937 0.4028 0.0
H495 H 0.53975 0.59557 0.45813 0.0
S496 S 0.5088 0.65974 0.86922 0.0
N497 N 0.51888 0.68221 0.76041 0.0
N498 N 0.51101 0.62393 0.82131 0.0
C499 C 0.52046 0.62906 0.7117 0.0
C500 C 0.52461 0.6607 0.67862 0.0
C501 C 0.85104 0.47814 0.59403 0.0
C502 C 0.82981 0.49574 0.6582 0.0
C503 C 0.88267 0.47756 0.62181 0.0
C504 C 0.89398 0.494 0.71623 0.0
H505 H 0.84325 0.4651 0.52071 0.0
H506 H 0.89822 0.46365 0.57035 0.0
S507 S 0.84792 0.54367 0.91148 0.0
N508 N 0.82236 0.53027 0.81941 0.0
N509 N 0.88159 0.52873 0.87292 0.0
C510 C 0.87297 0.51169 0.78102 0.0
C511 C 0.84093 0.51268 0.75163 0.0
loop_
_geom_bond_atom_site_label_1
_geom_bond_atom_site_label_2
_geom_bond_distance
_geom_bond_site_symmetry_2
_ccdc_geom_bond_type
O0 Cd1 2.300 . S
O0 C7 1.275 . S
Cd1 O0 2.300 . S
Cd1 O9 2.381 . S
Cd1 O10 2.378 . S
O2 Cd3 2.385 . S
O2 C7 1.255 . S
Cd3 O2 2.385 . S
Cd3 O4 2.317 . S
O4 Cd3 2.317 . S
O4 C5 1.232 . S
C5 O4 1.232 . S
C5 O6 1.218 . S
O6 C5 1.218 . S
C7 O0 1.275 . S
C7 O2 1.255 . S
C8 O9 1.258 . S
C8 O10 1.256 . S
O9 Cd1 2.381 . S
O9 C8 1.258 . S
O10 Cd1 2.378 . S
O10 C8 1.256 . S
O11 Cd12 2.300 1_655 S
O11 C18 1.275 1_655 S
Cd12 O11 2.300 1_455 S
Cd12 O20 2.381 1_455 S
Cd12 O21 2.378 . S
O13 Cd14 2.385 . S
O13 C18 1.255 . S
Cd14 O13 2.385 . S
Cd14 O15 2.317 . S
O15 Cd14 2.317 . S
O15 C16 1.232 . S
C16 O15 1.232 . S
C16 O17 1.218 . S
O17 C16 1.218 . S
C18 O11 1.275 1_455 S
C18 O13 1.255 . S
C19 O20 1.258 1_455 S
C19 O21 1.256 . S
O20 Cd12 2.381 1_655 S
O20 C19 1.258 1_655 S
O21 Cd12 2.378 . S
O21 C19 1.256 . S
O22 Cd23 2.300 1_565 S
O22 C29 1.275 1_565 S
Cd23 O22 2.300 1_545 S
Cd23 O31 2.381 1_545 S
Cd23 O32 2.378 . S
O24 Cd25 2.385 . S
O24 C29 1.255 . S
Cd25 O24 2.385 . S
Cd25 O26 2.317 . S
O26 Cd25 2.317 . S
O26 C27 1.232 . S
C27 O26 1.232 . S
C27 O28 1.218 . S
O28 C27 1.218 . S
C29 O22 1.275 1_545 S
C29 O24 1.255 . S
C30 O31 1.258 1_545 S
C30 O32 1.256 . S
O31 Cd23 2.381 1_565 S
O31 C30 1.258 1_565 S
O32 Cd23 2.378 . S
O32 C30 1.256 . S
O33 Cd34 2.300 . S
O33 C40 1.275 . S
Cd34 O33 2.300 . S
Cd34 O42 2.381 . S
Cd34 O43 2.378 . S
O35 Cd36 2.385 . S
O35 C40 1.255 . S
Cd36 O35 2.385 . S
Cd36 O37 2.317 . S
O37 Cd36 2.317 . S
O37 C38 1.232 . S
C38 O37 1.232 . S
C38 O39 1.218 . S
O39 C38 1.218 . S
C40 O33 1.275 . S
C40 O35 1.255 . S
C41 O42 1.258 . S
C41 O43 1.256 . S
O42 Cd34 2.381 . S
O42 C41 1.258 . S
O43 Cd34 2.378 . S
O43 C41 1.256 . S
O44 Cd45 2.300 . S
O44 C51 1.275 . S
Cd45 O44 2.300 . S
Cd45 O53 2.381 . S
Cd45 O54 2.378 . S
O46 Cd47 2.385 1_554 S
O46 C51 1.255 . S
Cd47 O46 2.385 1_556 S
Cd47 O48 2.317 . S
O48 Cd47 2.317 . S
O48 C49 1.232 . S
C49 O48 1.232 . S
C49 O50 1.218 . S
O50 C49 1.218 . S
C51 O44 1.275 . S
C51 O46 1.255 . S
C52 O53 1.258 . S
C52 O54 1.256 . S
O53 Cd45 2.381 . S
O53 C52 1.258 . S
O54 Cd45 2.378 . S
O54 C52 1.256 . S
O55 Cd56 2.300 1_655 S
O55 C62 1.275 1_655 S
Cd56 O55 2.300 1_455 S
Cd56 O64 2.381 1_455 S
Cd56 O65 2.378 . S
O57 Cd58 2.385 1_554 S
O57 C62 1.255 . S
Cd58 O57 2.385 1_556 S
Cd58 O59 2.317 . S
O59 Cd58 2.317 . S
O59 C60 1.232 . S
C60 O59 1.232 . S
C60 O61 1.218 . S
O61 C60 1.218 . S
C62 O55 1.275 1_455 S
C62 O57 1.255 . S
C63 O64 1.258 1_455 S
C63 O65 1.256 . S
O64 Cd56 2.381 1_655 S
O64 C63 1.258 1_655 S
O65 Cd56 2.378 . S
O65 C63 1.256 . S
O66 Cd67 2.300 1_565 S
O66 C73 1.275 1_565 S
Cd67 O66 2.300 1_545 S
Cd67 O75 2.381 1_545 S
Cd67 O76 2.378 . S
O68 Cd69 2.385 1_554 S
O68 C73 1.255 . S
Cd69 O68 2.385 1_556 S
Cd69 O70 2.317 . S
O70 Cd69 2.317 . S
O70 C71 1.232 . S
C71 O70 1.232 . S
C71 O72 1.218 . S
O72 C71 1.218 . S
C73 O66 1.275 1_545 S
C73 O68 1.255 . S
C74 O75 1.258 1_545 S
C74 O76 1.256 . S
O75 Cd67 2.381 1_565 S
O75 C74 1.258 1_565 S
O76 Cd67 2.378 . S
O76 C74 1.256 . S
O77 Cd78 2.300 . S
O77 C84 1.275 . S
Cd78 O77 2.300 . S
Cd78 O86 2.381 . S
Cd78 O87 2.378 . S
O79 Cd80 2.385 1_554 S
O79 C84 1.255 . S
Cd80 O79 2.385 1_556 S
Cd80 O81 2.317 . S
O81 Cd80 2.317 . S
O81 C82 1.232 . S
C82 O81 1.232 . S
C82 O83 1.218 . S
O83 C82 1.218 . S
C84 O77 1.275 . S
C84 O79 1.255 . S
C85 O86 1.258 . S
C85 O87 1.256 . S
O86 Cd78 2.381 . S
O86 C85 1.258 . S
O87 Cd78 2.378 . S
O87 C85 1.256 . S
Pr88 C90 2.880 1_556 S
Pr88 O108 2.565 . S
Pr88 O109 2.490 . S
Pr88 O110 2.695 1_565 S
Pr88 O111 2.512 . S
Pr88 O113 2.437 . S
Pr88 O116 2.436 1_455 S
Pr88 O118 2.438 1_565 S
Pr89 C99 2.880 . S
Pr89 O110 2.436 1_655 S
Pr89 O112 2.438 1_545 S
Pr89 O114 2.562 . S
Pr89 O115 2.490 . S
Pr89 O116 2.695 1_545 S
Pr89 O117 2.512 . S
Pr89 O119 2.437 . S
C90 Pr88 2.880 1_554 S
C90 C91 1.491 . S
C90 O108 1.254 1_554 S
C90 O109 1.225 1_554 S
C91 C90 1.491 . S
C91 C92 1.392 . S
C91 C96 1.356 . S
C92 C91 1.392 . S
C92 C93 1.368 . S
C92 H120 0.929 . S
C93 C92 1.368 . S
C93 C94 1.386 . S
C93 H121 0.929 . S
C94 C93 1.386 . S
C94 C95 1.373 . S
C95 C94 1.373 . S
C95 C96 1.409 . S
C95 H122 0.924 1_455 S
C96 C91 1.356 . S
C96 C95 1.409 . S
C96 H123 0.930 1_455 S
C97 O110 1.270 1_565 S
C97 O111 1.248 . S
C98 O112 1.267 . S
C98 O113 1.278 1_655 S
C99 Pr89 2.880 . S
C99 C100 1.491 . S
C99 O114 1.254 . S
C99 O115 1.225 . S
C100 C99 1.491 . S
C100 C101 1.392 . S
C100 C105 1.356 . S
C101 C100 1.392 . S
C101 C102 1.368 . S
C101 H124 0.929 . S
C102 C101 1.368 . S
C102 C103 1.386 . S
C102 H125 0.929 . S
C103 C102 1.386 . S
C103 C104 1.373 . S
C104 C103 1.373 . S
C104 C105 1.409 . S
C104 H126 0.917 1_655 S
C105 C100 1.356 . S
C105 C104 1.409 . S
C105 H127 0.930 1_655 S
C106 O116 1.270 1_545 S
C106 O117 1.248 . S
C107 O118 1.267 . S
C107 O119 1.278 1_455 S
O108 Pr88 2.565 . S
O108 C90 1.254 1_556 S
O109 Pr88 2.490 . S
O109 C90 1.225 1_556 S
O110 Pr88 2.695 1_545 S
O110 Pr89 2.436 1_455 S
O110 C97 1.270 1_545 S
O111 Pr88 2.512 . S
O111 C97 1.248 . S
O112 Pr89 2.438 1_565 S
O112 C98 1.267 . S
O113 Pr88 2.437 . S
O113 C98 1.278 1_455 S
O114 Pr89 2.562 . S
O114 C99 1.254 . S
O115 Pr89 2.490 . S
O115 C99 1.225 . S
O116 Pr88 2.436 1_655 S
O116 Pr89 2.695 1_565 S
O116 C106 1.270 1_565 S
O117 Pr89 2.512 . S
O117 C106 1.248 . S
O118 Pr88 2.438 1_545 S
O118 C107 1.267 . S
O119 Pr89 2.437 . S
O119 C107 1.278 1_655 S
H120 C92 0.929 . S
H121 C93 0.929 . S
H122 C95 0.924 1_655 S
H123 C96 0.930 1_655 S
H124 C101 0.929 . S
H125 C102 0.929 . S
H126 C104 0.917 1_455 S
H127 C105 0.930 1_455 S
Pr128 C130 2.880 1_556 S
Pr128 O148 2.560 1_556 S
Pr128 O149 2.490 . S
Pr128 O150 2.695 . S
Pr128 O151 2.512 . S
Pr128 O153 2.437 . S
Pr128 O156 2.436 1_545 S
Pr128 O158 2.438 . S
Pr129 C139 2.880 . S
Pr129 O150 2.436 1_565 S
Pr129 O152 2.438 . S
Pr129 O154 2.562 . S
Pr129 O155 2.490 . S
Pr129 O156 2.695 . S
Pr129 O157 2.512 . S
Pr129 O159 2.437 . S
C130 Pr128 2.880 1_554 S
C130 C131 1.491 . S
C130 O148 1.254 . S
C130 O149 1.225 1_554 S
C131 C130 1.491 . S
C131 C132 1.392 . S
C131 C136 1.356 . S
C132 C131 1.392 . S
C132 C133 1.368 . S
C132 H160 0.929 . S
C133 C132 1.368 . S
C133 C134 1.386 . S
C133 H161 0.929 . S
C134 C133 1.386 . S
C134 C135 1.373 . S
C135 C134 1.373 . S
C135 C136 1.409 . S
C135 H162 0.931 1_545 S
C136 C131 1.356 . S
C136 C135 1.409 . S
C136 H163 0.930 1_545 S
C137 O150 1.270 . S
C137 O151 1.248 . S
C138 O152 1.267 . S
C138 O153 1.278 1_565 S
C139 Pr129 2.880 . S
C139 C140 1.491 . S
C139 O154 1.254 . S
C139 O155 1.225 . S
C140 C139 1.491 . S
C140 C141 1.392 . S
C140 C145 1.356 . S
C141 C140 1.392 . S
C141 C142 1.368 . S
C141 H164 0.929 . S
C142 C141 1.368 . S
C142 C143 1.386 . S
C142 H165 0.929 . S
C143 C142 1.386 . S
C143 C144 1.373 . S
C144 C143 1.373 . S
C144 C145 1.409 . S
C144 H166 0.931 1_565 S
C145 C140 1.356 . S
C145 C144 1.409 . S
C145 H167 0.930 1_565 S
C146 O156 1.270 . S
C146 O157 1.248 . S
C147 O158 1.267 . S
C147 O159 1.278 1_545 S
O148 Pr128 2.560 1_554 S
O148 C130 1.254 . S
O149 Pr128 2.490 . S
O149 C130 1.225 1_556 S
O150 Pr128 2.695 . S
O150 Pr129 2.436 1_545 S
O150 C137 1.270 . S
O151 Pr128 2.512 . S
O151 C137 1.248 . S
O152 Pr129 2.438 . S
O152 C138 1.267 . S
O153 Pr128 2.437 . S
O153 C138 1.278 1_545 S
O154 Pr129 2.562 . S
O154 C139 1.254 . S
O155 Pr129 2.490 . S
O155 C139 1.225 . S
O156 Pr128 2.436 1_565 S
O156 Pr129 2.695 . S
O156 C146 1.270 . S
O157 Pr129 2.512 . S
O157 C146 1.248 . S
O158 Pr128 2.438 . S
O158 C147 1.267 . S
O159 Pr129 2.437 . S
O159 C147 1.278 1_565 S
H160 C132 0.929 . S
H161 C133 0.929 . S
H162 C135 0.931 1_565 S
H163 C136 0.930 1_565 S
H164 C141 0.929 . S
H165 C142 0.929 . S
H166 C144 0.931 1_545 S
H167 C145 0.930 1_545 S
Pr168 C170 2.880 1_556 S
Pr168 O188 2.562 1_556 S
Pr168 O189 2.490 . S
Pr168 O190 2.695 . S
Pr168 O191 2.512 . S
Pr168 O193 2.437 . S
Pr168 O196 2.436 . S
Pr168 O198 2.438 . S
Pr169 C179 2.880 . S
Pr169 O190 2.436 . S
Pr169 O192 2.438 . S
Pr169 O194 2.562 . S
Pr169 O195 2.490 . S
Pr169 O196 2.695 . S
Pr169 O197 2.512 . S
Pr169 O199 2.437 . S
C170 Pr168 2.880 1_554 S
C170 C171 1.491 . S
C170 O188 1.254 . S
C170 O189 1.225 1_554 S
C171 C170 1.491 . S
C171 C172 1.392 . S
C171 C176 1.356 . S
C172 C171 1.392 . S
C172 C173 1.368 . S
C172 H200 0.929 . S
C173 C172 1.368 . S
C173 C174 1.386 . S
C173 H201 0.929 . S
C174 C173 1.386 . S
C174 C175 1.373 . S
C175 C174 1.373 . S
C175 C176 1.409 . S
C175 H202 0.931 . S
C176 C171 1.356 . S
C176 C175 1.409 . S
C176 H203 0.930 . S
C177 O190 1.270 . S
C177 O191 1.248 . S
C178 O192 1.267 . S
C178 O193 1.278 . S
C179 Pr169 2.880 . S
C179 C180 1.491 . S
C179 O194 1.254 . S
C179 O195 1.225 . S
C180 C179 1.491 . S
C180 C181 1.392 . S
C180 C185 1.356 . S
C181 C180 1.392 . S
C181 C182 1.368 . S
C181 H204 0.929 . S
C182 C181 1.368 . S
C182 C183 1.386 . S
C182 H205 0.929 . S
C183 C182 1.386 . S
C183 C184 1.373 . S
C184 C183 1.373 . S
C184 C185 1.409 . S
C184 H206 0.931 . S
C185 C180 1.356 . S
C185 C184 1.409 . S
C185 H207 0.930 . S
C186 O196 1.270 . S
C186 O197 1.248 . S
C187 O198 1.267 . S
C187 O199 1.278 . S
O188 Pr168 2.562 1_554 S
O188 C170 1.254 . S
O189 Pr168 2.490 . S
O189 C170 1.225 1_556 S
O190 Pr168 2.695 . S
O190 Pr169 2.436 . S
O190 C177 1.270 . S
O191 Pr168 2.512 . S
O191 C177 1.248 . S
O192 Pr169 2.438 . S
O192 C178 1.267 . S
O193 Pr168 2.437 . S
O193 C178 1.278 . S
O194 Pr169 2.562 . S
O194 C179 1.254 . S
O195 Pr169 2.490 . S
O195 C179 1.225 . S
O196 Pr168 2.436 . S
O196 Pr169 2.695 . S
O196 C186 1.270 . S
O197 Pr169 2.512 . S
O197 C186 1.248 . S
O198 Pr168 2.438 . S
O198 C187 1.267 . S
O199 Pr169 2.437 . S
O199 C187 1.278 . S
H200 C172 0.929 . S
H201 C173 0.929 . S
H202 C175 0.931 . S
H203 C176 0.930 . S
H204 C181 0.929 . S
H205 C182 0.929 . S
H206 C184 0.931 . S
H207 C185 0.930 . S
Pr208 C210 2.880 1_556 S
Pr208 O228 2.558 1_556 S
Pr208 O229 2.490 . S
Pr208 O230 2.695 1_655 S
Pr208 O231 2.512 . S
Pr208 O233 2.437 . S
Pr208 O236 2.436 . S
Pr208 O238 2.438 1_655 S
Pr209 C219 2.880 . S
Pr209 O230 2.436 . S
Pr209 O232 2.438 1_455 S
Pr209 O234 2.562 . S
Pr209 O235 2.490 . S
Pr209 O236 2.695 1_455 S
Pr209 O237 2.512 . S
Pr209 O239 2.437 . S
C210 Pr208 2.880 1_554 S
C210 C211 1.491 . S
C210 O228 1.254 . S
C210 O229 1.225 1_554 S
C211 C210 1.491 . S
C211 C212 1.392 . S
C211 C216 1.356 . S
C212 C211 1.392 . S
C212 C213 1.368 . S
C212 H240 0.929 . S
C213 C212 1.368 . S
C213 C214 1.386 . S
C213 H241 0.929 . S
C214 C213 1.386 . S
C214 C215 1.373 . S
C215 C214 1.373 . S
C215 C216 1.409 . S
C215 H242 0.931 . S
C216 C211 1.356 . S
C216 C215 1.409 . S
C216 H243 0.930 . S
C217 O230 1.263 1_655 S
C217 O231 1.261 . S
C218 O232 1.267 . S
C218 O233 1.278 . S
C219 Pr209 2.880 . S
C219 C220 1.491 . S
C219 O234 1.254 . S
C219 O235 1.225 . S
C220 C219 1.491 . S
C220 C221 1.392 . S
C220 C225 1.356 . S
C221 C220 1.392 . S
C221 C222 1.368 . S
C221 H244 0.929 . S
C222 C221 1.368 . S
C222 C223 1.386 . S
C222 H245 0.929 . S
C223 C222 1.386 . S
C223 C224 1.373 . S
C224 C223 1.373 . S
C224 C225 1.409 . S
C224 H246 0.931 . S
C225 C220 1.356 . S
C225 C224 1.409 . S
C225 H247 0.930 . S
C226 O236 1.260 1_455 S
C226 O237 1.265 . S
C227 O238 1.267 . S
C227 O239 1.278 . S
O228 Pr208 2.558 1_554 S
O228 C210 1.254 . S
O229 Pr208 2.490 . S
O229 C210 1.225 1_556 S
O230 Pr208 2.695 1_455 S
O230 Pr209 2.436 . S
O230 C217 1.263 1_455 S
O231 Pr208 2.512 . S
O231 C217 1.261 . S
O232 Pr209 2.438 1_655 S
O232 C218 1.267 . S
O233 Pr208 2.437 . S
O233 C218 1.278 . S
O234 Pr209 2.562 . S
O234 C219 1.254 . S
O235 Pr209 2.490 . S
O235 C219 1.225 . S
O236 Pr208 2.436 . S
O236 Pr209 2.695 1_655 S
O236 C226 1.260 1_655 S
O237 Pr209 2.512 . S
O237 C226 1.265 . S
O238 Pr208 2.438 1_455 S
O238 C227 1.267 . S
O239 Pr209 2.437 . S
O239 C227 1.278 . S
H240 C212 0.929 . S
H241 C213 0.929 . S
H242 C215 0.931 . S
H243 C216 0.930 . S
H244 C221 0.929 . S
H245 C222 0.929 . S
H246 C224 0.931 . S
H247 C225 0.930 . S
C248 C249 1.354 1_565 S
C248 C250 1.419 . S
C248 H252 0.930 . S
C249 C248 1.354 1_545 S
C249 C258 1.444 . S
C250 C248 1.419 . S
C250 C251 1.363 1_565 S
C250 H253 0.929 . S
C251 C250 1.363 1_545 S
C251 C257 1.428 . S
H252 C248 0.930 . S
H253 C250 0.929 . S
S254 N255 1.613 . S
S254 N256 1.610 . S
N255 S254 1.613 . S
N255 C258 1.350 . S
N256 S254 1.610 . S
N256 C257 1.351 . S
C257 C251 1.428 . S
C257 N256 1.351 . S
C257 C258 1.434 . S
C258 C249 1.444 . S
C258 N255 1.350 . S
C258 C257 1.434 . S
C259 C260 1.369 . S
C259 C261 1.419 . S
C259 H263 0.930 . S
C260 C259 1.369 . S
C260 C269 1.429 . S
C261 C259 1.419 . S
C261 C262 1.363 . S
C261 H264 0.929 . S
C262 C261 1.363 . S
C262 C268 1.428 . S
H263 C259 0.930 . S
H264 C261 0.929 . S
S265 N266 1.613 . S
S265 N267 1.610 . S
N266 S265 1.613 . S
N266 C269 1.350 . S
N267 S265 1.610 . S
N267 C268 1.351 . S
C268 C262 1.428 . S
C268 N267 1.351 . S
C268 C269 1.434 . S
C269 C260 1.429 . S
C269 N266 1.350 . S
C269 C268 1.434 . S
C270 C271 1.369 . S
C270 C272 1.419 . S
C270 H274 0.930 . S
C271 C270 1.369 . S
C271 C280 1.429 . S
C272 C270 1.419 . S
C272 C273 1.363 . S
C272 H275 0.929 . S
C273 C272 1.363 . S
C273 C279 1.428 . S
H274 C270 0.930 . S
H275 C272 0.929 . S
S276 N277 1.613 . S
S276 N278 1.610 . S
N277 S276 1.613 . S
N277 C280 1.350 . S
N278 S276 1.610 . S
N278 C279 1.351 . S
C279 C273 1.428 . S
C279 N278 1.351 . S
C279 C280 1.434 . S
C280 C271 1.429 . S
C280 N277 1.350 . S
C280 C279 1.434 . S
C281 C282 1.361 1_655 S
C281 C283 1.419 . S
C281 H285 0.930 . S
C282 C281 1.361 1_455 S
C282 C291 1.438 . S
C283 C281 1.419 . S
C283 C284 1.363 1_655 S
C283 H286 0.929 . S
C284 C283 1.363 1_455 S
C284 C290 1.428 . S
H285 C281 0.930 . S
H286 C283 0.929 . S
S287 N288 1.613 . S
S287 N289 1.610 . S
N288 S287 1.613 . S
N288 C291 1.350 . S
N289 S287 1.610 . S
N289 C290 1.351 . S
C290 C284 1.428 . S
C290 N289 1.351 . S
C290 C291 1.434 . S
C291 C282 1.438 . S
C291 N288 1.350 . S
C291 C290 1.434 . S
C292 C293 1.356 1_545 S
C292 C294 1.419 . S
C292 H296 0.930 . S
C293 C292 1.356 1_565 S
C293 C302 1.443 . S
C294 C292 1.419 . S
C294 C295 1.363 1_545 S
C294 H297 0.929 . S
C295 C294 1.363 1_565 S
C295 C301 1.428 . S
H296 C292 0.930 . S
H297 C294 0.929 . S
S298 N299 1.613 . S
S298 N300 1.610 1_554 S
N299 S298 1.613 . S
N299 C302 1.350 . S
N300 S298 1.610 1_556 S
N300 C301 1.351 1_556 S
C301 C295 1.428 . S
C301 N300 1.351 1_554 S
C301 C302 1.434 . S
C302 C293 1.443 . S
C302 N299 1.350 . S
C302 C301 1.434 . S
C303 C304 1.369 . S
C303 C305 1.419 . S
C303 H307 0.930 . S
C304 C303 1.369 . S
C304 C313 1.429 . S
C305 C303 1.419 . S
C305 C306 1.363 . S
C305 H308 0.929 . S
C306 C305 1.363 . S
C306 C312 1.428 . S
H307 C303 0.930 . S
H308 C305 0.929 . S
S309 N310 1.613 . S
S309 N311 1.610 1_554 S
N310 S309 1.613 . S
N310 C313 1.350 . S
N311 S309 1.610 1_556 S
N311 C312 1.351 1_556 S
C312 C306 1.428 . S
C312 N311 1.351 1_554 S
C312 C313 1.434 . S
C313 C304 1.429 . S
C313 N310 1.350 . S
C313 C312 1.434 . S
C314 C315 1.369 . S
C314 C316 1.419 . S
C314 H318 0.930 . S
C315 C314 1.369 . S
C315 C324 1.429 . S
C316 C314 1.419 . S
C316 C317 1.363 . S
C316 H319 0.929 . S
C317 C316 1.363 . S
C317 C323 1.428 . S
H318 C314 0.930 . S
H319 C316 0.929 . S
S320 N321 1.613 . S
S320 N322 1.610 1_554 S
N321 S320 1.613 . S
N321 C324 1.350 . S
N322 S320 1.610 1_556 S
N322 C323 1.351 1_556 S
C323 C317 1.428 . S
C323 N322 1.351 1_554 S
C323 C324 1.434 . S
C324 C315 1.429 . S
C324 N321 1.350 . S
C324 C323 1.434 . S
C325 C326 1.380 . S
C325 C327 1.419 . S
C325 H329 0.930 . S
C326 C325 1.380 . S
C326 C335 1.418 1_655 S
C327 C325 1.419 . S
C327 C328 1.363 . S
C327 H330 0.929 . S
C328 C327 1.363 . S
C328 C334 1.428 1_655 S
H329 C325 0.930 . S
H330 C327 0.929 . S
S331 N332 1.613 . S
S331 N333 1.610 1_554 S
N332 S331 1.613 . S
N332 C335 1.350 . S
N333 S331 1.610 1_556 S
N333 C334 1.351 1_556 S
C334 C328 1.428 1_455 S
C334 N333 1.351 1_554 S
C334 C335 1.434 . S
C335 C326 1.418 1_455 S
C335 N332 1.350 . S
C335 C334 1.434 . S
C336 C337 1.369 1_455 S
C336 C338 1.419 1_455 S
C336 H340 0.930 . S
C337 C336 1.369 1_655 S
C337 C346 1.429 . S
C338 C336 1.419 1_655 S
C338 C339 1.363 . S
C338 H341 0.929 . S
C339 C338 1.363 . S
C339 C345 1.428 . S
H340 C336 0.930 . S
H341 C338 0.929 . S
S342 N343 1.613 . S
S342 N344 1.610 . S
N343 S342 1.613 . S
N343 C346 1.350 . S
N344 S342 1.610 . S
N344 C345 1.351 . S
C345 C339 1.428 . S
C345 N344 1.351 . S
C345 C346 1.434 . S
C346 C337 1.429 . S
C346 N343 1.350 . S
C346 C345 1.434 . S
C347 C348 1.369 . S
C347 C349 1.419 . S
C347 H351 0.930 1_565 S
C348 C347 1.369 . S
C348 C357 1.429 . S
C349 C347 1.419 . S
C349 C350 1.363 . S
C349 H352 0.929 . S
C350 C349 1.363 . S
C350 C356 1.428 . S
H351 C347 0.930 1_545 S
H352 C349 0.929 . S
S353 N354 1.613 . S
S353 N355 1.610 . S
N354 S353 1.613 . S
N354 C357 1.350 . S
N355 S353 1.610 . S
N355 C356 1.351 . S
C356 C350 1.428 . S
C356 N355 1.351 . S
C356 C357 1.434 . S
C357 C348 1.429 . S
C357 N354 1.350 . S
C357 C356 1.434 . S
C358 C359 1.369 . S
C358 C360 1.419 . S
C358 H362 0.930 . S
C359 C358 1.369 . S
C359 C368 1.429 . S
C360 C358 1.419 . S
C360 C361 1.363 . S
C360 H363 0.929 . S
C361 C360 1.363 . S
C361 C367 1.428 . S
H362 C358 0.930 . S
H363 C360 0.929 . S
S364 N365 1.613 . S
S364 N366 1.610 . S
N365 S364 1.613 . S
N365 C368 1.350 . S
N366 S364 1.610 . S
N366 C367 1.351 . S
C367 C361 1.428 . S
C367 N366 1.351 . S
C367 C368 1.434 . S
C368 C359 1.429 . S
C368 N365 1.350 . S
C368 C367 1.434 . S
C369 C370 1.369 . S
C369 C371 1.419 . S
C369 H373 0.930 . S
C370 C369 1.369 . S
C370 C379 1.429 . S
C371 C369 1.419 . S
C371 C372 1.363 . S
C371 H374 0.929 . S
C372 C371 1.363 . S
C372 C378 1.428 . S
H373 C369 0.930 . S
H374 C371 0.929 . S
S375 N376 1.613 . S
S375 N377 1.610 . S
N376 S375 1.613 . S
N376 C379 1.350 . S
N377 S375 1.610 . S
N377 C378 1.351 . S
C378 C372 1.428 . S
C378 N377 1.351 . S
C378 C379 1.434 . S
C379 C370 1.429 . S
C379 N376 1.350 . S
C379 C378 1.434 . S
C380 C381 1.369 . S
C380 C382 1.419 . S
C380 H384 0.930 . S
C381 C380 1.369 . S
C381 C390 1.429 1_455 S
C382 C380 1.419 . S
C382 C383 1.363 . S
C382 H385 0.929 . S
C383 C382 1.363 . S
C383 C389 1.428 . S
H384 C380 0.930 . S
H385 C382 0.929 . S
S386 N387 1.613 . S
S386 N388 1.631 . S
N387 S386 1.613 . S
N387 C390 1.350 . S
N388 S386 1.631 . S
N388 C389 1.342 1_655 S
C389 C383 1.428 . S
C389 N388 1.342 1_455 S
C389 C390 1.434 1_455 S
C390 C381 1.429 1_655 S
C390 N387 1.350 . S
C390 C389 1.434 1_655 S
C391 C392 1.369 1_565 S
C391 C393 1.419 1_565 S
C391 H395 0.930 . S
C392 C391 1.369 1_545 S
C392 C401 1.429 . S
C393 C391 1.419 1_545 S
C393 C394 1.363 . S
C393 H396 0.929 . S
C394 C393 1.363 . S
C394 C400 1.428 . S
H395 C391 0.930 . S
H396 C393 0.929 . S
S397 N398 1.613 . S
S397 N399 1.610 . S
N398 S397 1.613 . S
N398 C401 1.350 . S
N399 S397 1.610 . S
N399 C400 1.351 . S
C400 C394 1.428 . S
C400 N399 1.351 . S
C400 C401 1.434 . S
C401 C392 1.429 . S
C401 N398 1.350 . S
C401 C400 1.434 . S
C402 C403 1.369 . S
C402 C404 1.419 . S
C402 H406 0.930 . S
C403 C402 1.369 . S
C403 C412 1.429 . S
C404 C402 1.419 . S
C404 C405 1.363 . S
C404 H407 0.929 . S
C405 C404 1.363 . S
C405 C411 1.428 . S
H406 C402 0.930 . S
H407 C404 0.929 . S
S408 N409 1.613 . S
S408 N410 1.610 . S
N409 S408 1.613 . S
N409 C412 1.350 . S
N410 S408 1.610 . S
N410 C411 1.351 . S
C411 C405 1.428 . S
C411 N410 1.351 . S
C411 C412 1.434 . S
C412 C403 1.429 . S
C412 N409 1.350 . S
C412 C411 1.434 . S
C413 C414 1.369 . S
C413 C415 1.419 . S
C413 H417 0.930 . S
C414 C413 1.369 . S
C414 C423 1.429 . S
C415 C413 1.419 . S
C415 C416 1.363 . S
C415 H418 0.929 . S
C416 C415 1.363 . S
C416 C422 1.428 . S
H417 C413 0.930 . S
H418 C415 0.929 . S
S419 N420 1.613 . S
S419 N421 1.610 . S
N420 S419 1.613 . S
N420 C423 1.350 . S
N421 S419 1.610 . S
N421 C422 1.351 . S
C422 C416 1.428 . S
C422 N421 1.351 . S
C422 C423 1.434 . S
C423 C414 1.429 . S
C423 N420 1.350 . S
C423 C422 1.434 . S
C424 C425 1.369 1_655 S
C424 C426 1.419 . S
C424 H428 0.930 . S
C425 C424 1.369 1_455 S
C425 C434 1.429 . S
C426 C424 1.419 . S
C426 C427 1.363 1_655 S
C426 H429 0.929 . S
C427 C426 1.363 1_455 S
C427 C433 1.428 . S
H428 C424 0.930 . S
H429 C426 0.929 . S
S430 N431 1.613 . S
S430 N432 1.610 . S
N431 S430 1.613 . S
N431 C434 1.350 . S
N432 S430 1.610 . S
N432 C433 1.351 . S
C433 C427 1.428 . S
C433 N432 1.351 . S
C433 C434 1.434 . S
C434 C425 1.429 . S
C434 N431 1.350 . S
C434 C433 1.434 . S
C435 C436 1.369 1_565 S
C435 C437 1.419 . S
C435 H439 0.930 . S
C436 C435 1.369 1_545 S
C436 C445 1.429 . S
C437 C435 1.419 . S
C437 C438 1.363 1_565 S
C437 H440 0.929 . S
C438 C437 1.363 1_545 S
C438 C444 1.428 . S
H439 C435 0.930 . S
H440 C437 0.929 . S
S441 N442 1.613 . S
S441 N443 1.610 . S
N442 S441 1.613 . S
N442 C445 1.350 . S
N443 S441 1.610 . S
N443 C444 1.351 . S
C444 C438 1.428 . S
C444 N443 1.351 . S
C444 C445 1.434 . S
C445 C436 1.429 . S
C445 N442 1.350 . S
C445 C444 1.434 . S
C446 C447 1.369 . S
C446 C448 1.419 . S
C446 H450 0.930 . S
C447 C446 1.369 . S
C447 C456 1.429 . S
C448 C446 1.419 . S
C448 C449 1.363 . S
C448 H451 0.929 . S
C449 C448 1.363 . S
C449 C455 1.428 . S
H450 C446 0.930 . S
H451 C448 0.929 . S
S452 N453 1.613 . S
S452 N454 1.610 . S
N453 S452 1.613 . S
N453 C456 1.350 . S
N454 S452 1.610 . S
N454 C455 1.351 . S
C455 C449 1.428 . S
C455 N454 1.351 . S
C455 C456 1.434 . S
C456 C447 1.429 . S
C456 N453 1.350 . S
C456 C455 1.434 . S
C457 C458 1.369 . S
C457 C459 1.419 . S
C457 H461 0.930 . S
C458 C457 1.369 . S
C458 C467 1.429 . S
C459 C457 1.419 . S
C459 C460 1.363 . S
C459 H462 0.929 . S
C460 C459 1.363 . S
C460 C466 1.428 . S
H461 C457 0.930 . S
H462 C459 0.929 . S
S463 N464 1.613 1_554 S
S463 N465 1.610 1_554 S
N464 S463 1.613 1_556 S
N464 C467 1.350 . S
N465 S463 1.610 1_556 S
N465 C466 1.351 . S
C466 C460 1.428 . S
C466 N465 1.351 . S
C466 C467 1.434 . S
C467 C458 1.429 . S
C467 N464 1.350 . S
C467 C466 1.434 . S
C468 C469 1.369 1_455 S
C468 C470 1.419 . S
C468 H472 0.930 . S
C469 C468 1.369 1_655 S
C469 C478 1.429 . S
C470 C468 1.419 . S
C470 C471 1.363 1_455 S
C470 H473 0.929 . S
C471 C470 1.363 1_655 S
C471 C477 1.428 . S
H472 C468 0.930 . S
H473 C470 0.929 . S
S474 N475 1.613 . S
S474 N476 1.610 . S
N475 S474 1.613 . S
N475 C478 1.350 . S
N476 S474 1.610 . S
N476 C477 1.351 . S
C477 C471 1.428 . S
C477 N476 1.351 . S
C477 C478 1.434 . S
C478 C469 1.429 . S
C478 N475 1.350 . S
C478 C477 1.434 . S
C479 C480 1.369 1_545 S
C479 C481 1.419 . S
C479 H483 0.930 . S
C480 C479 1.369 1_565 S
C480 C489 1.429 . S
C481 C479 1.419 . S
C481 C482 1.363 1_545 S
C481 H484 0.929 . S
C482 C481 1.363 1_565 S
C482 C488 1.428 . S
H483 C479 0.930 . S
H484 C481 0.929 . S
S485 N486 1.613 . S
S485 N487 1.610 . S
N486 S485 1.613 . S
N486 C489 1.350 . S
N487 S485 1.610 . S
N487 C488 1.351 . S
C488 C482 1.428 . S
C488 N487 1.351 . S
C488 C489 1.434 . S
C489 C480 1.429 . S
C489 N486 1.350 . S
C489 C488 1.434 . S
C490 C491 1.369 . S
C490 C492 1.419 . S
C490 H494 0.930 . S
C491 C490 1.369 . S
C491 C500 1.429 . S
C492 C490 1.419 . S
C492 C493 1.363 . S
C492 H495 0.929 . S
C493 C492 1.363 . S
C493 C499 1.428 . S
H494 C490 0.930 . S
H495 C492 0.929 . S
S496 N497 1.613 . S
S496 N498 1.610 . S
N497 S496 1.613 . S
N497 C500 1.350 . S
N498 S496 1.610 . S
N498 C499 1.351 . S
C499 C493 1.428 . S
C499 N498 1.351 . S
C499 C500 1.434 . S
C500 C491 1.429 . S
C500 N497 1.350 . S
C500 C499 1.434 . S
C501 C502 1.369 . S
C501 C503 1.419 . S
C501 H505 0.930 . S
C502 C501 1.369 . S
C502 C511 1.429 . S
C503 C501 1.419 . S
C503 C504 1.363 . S
C503 H506 0.929 . S
C504 C503 1.363 . S
C504 C510 1.428 . S
H505 C501 0.930 . S
H506 C503 0.929 . S
S507 N508 1.613 1_554 S
S507 N509 1.610 1_554 S
N508 S507 1.613 1_556 S
N508 C511 1.350 . S
N509 S507 1.610 1_556 S
N509 C510 1.351 . S
C510 C504 1.428 . S
C510 N509 1.351 . S
C510 C511 1.434 . S
C511 C502 1.429 . S
C511 N508 1.350 . S
C511 C510 1.434 . S
C249 C74 1.920 . S
C251 C97 2.122 1_545 S
C262 C137 2.135 . S
C260 C85 1.931 . S
C273 C177 2.143 . S
C271 C52 1.941 . S
C284 C217 2.130 1_455 S
C282 C63 1.928 . S
C295 C106 2.125 1_564 S
C293 C30 1.927 1_565 S
C304 C41 1.944 . S
C306 C146 2.140 1_554 S
C315 C8 1.952 . S
C317 C186 2.143 1_554 S
C326 C19 1.928 1_655 S
C328 C226 2.128 1_654 S
C339 C103 0.882 . S
C337 C62 0.911 1_655 S
C350 C143 0.883 . S
C348 C73 0.914 1_565 S
C361 C183 0.859 . S
C359 C84 0.907 . S
C370 C51 0.909 . S
C372 C223 0.854 . S
C381 C18 0.866 . S
C383 C94 0.870 . S
C394 C134 0.884 . S
C392 C29 0.841 . S
C405 C174 0.871 . S
C403 C40 0.851 . S
C414 C7 0.843 . S
C416 C214 0.876 . S
C425 C60 1.921 . S
C427 C107 2.561 . S
C436 C71 1.892 . S
C438 C147 2.536 . S
C449 C187 2.528 . S
C447 C82 1.853 . S
C460 C227 2.557 . S
C458 C49 1.876 . S
C469 C16 2.052 1_655 S
C471 C98 2.570 . S
C482 C138 2.538 . S
C480 C27 2.020 1_565 S
C493 C178 2.525 . S
C491 C38 2.046 . S
C502 C5 2.072 . S
C504 C218 2.559 . S
