# Generated by pormake.
# Topology tph, (6,8)-cn, num edge types: 1
# Building blocks:
#     Node 0, Type 0, BuildingBlock: MIDCAF_clean_sbu_0, # of connection points: 6
#     Node 1, Type 0, BuildingBlock: MIDCAF_clean_sbu_0, # of connection points: 6
#     Node 2, Type 0, BuildingBlock: MIDCAF_clean_sbu_0, # of connection points: 6
#     Node 3, Type 0, BuildingBlock: MIDCAF_clean_sbu_0, # of connection points: 6
#     Node 4, Type 0, BuildingBlock: MIDCAF_clean_sbu_0, # of connection points: 6
#     Node 5, Type 0, BuildingBlock: MIDCAF_clean_sbu_0, # of connection points: 6
#     Node 6, Type 0, BuildingBlock: MIDCAF_clean_sbu_0, # of connection points: 6
#     Node 7, Type 0, BuildingBlock: MIDCAF_clean_sbu_0, # of connection points: 6
#     Node 8, Type 0, BuildingBlock: MIDCAF_clean_sbu_0, # of connection points: 6
#     Node 9, Type 0, BuildingBlock: MIDCAF_clean_sbu_0, # of connection points: 6
#     Node 10, Type 0, BuildingBlock: MIDCAF_clean_sbu_0, # of connection points: 6
#     Node 11, Type 0, BuildingBlock: MIDCAF_clean_sbu_0, # of connection points: 6
#     Node 12, Type 0, BuildingBlock: MIDCAF_clean_sbu_0, # of connection points: 6
#     Node 13, Type 0, BuildingBlock: MIDCAF_clean_sbu_0, # of connection points: 6
#     Node 14, Type 0, BuildingBlock: MIDCAF_clean_sbu_0, # of connection points: 6
#     Node 15, Type 0, BuildingBlock: MIDCAF_clean_sbu_0, # of connection points: 6
#     Node 16, Type 1, BuildingBlock: TAGTUT_clean_sbu_3, # of connection points: 8
#     Node 17, Type 1, BuildingBlock: TAGTUT_clean_sbu_3, # of connection points: 8
#     Node 18, Type 1, BuildingBlock: TAGTUT_clean_sbu_3, # of connection points: 8
#     Node 19, Type 1, BuildingBlock: TAGTUT_clean_sbu_3, # of connection points: 8
#     Node 20, Type 1, BuildingBlock: TAGTUT_clean_sbu_3, # of connection points: 8
#     Node 21, Type 1, BuildingBlock: TAGTUT_clean_sbu_3, # of connection points: 8
#     Node 22, Type 1, BuildingBlock: TAGTUT_clean_sbu_3, # of connection points: 8
#     Node 23, Type 1, BuildingBlock: TAGTUT_clean_sbu_3, # of connection points: 8
#     Node 24, Type 1, BuildingBlock: TAGTUT_clean_sbu_3, # of connection points: 8
#     Node 25, Type 1, BuildingBlock: TAGTUT_clean_sbu_3, # of connection points: 8
#     Node 26, Type 1, BuildingBlock: TAGTUT_clean_sbu_3, # of connection points: 8
#     Node 27, Type 1, BuildingBlock: TAGTUT_clean_sbu_3, # of connection points: 8
#     Edge 28, Type (0, 1), None
#     Edge 29, Type (0, 1), None
#     Edge 30, Type (0, 1), None
#     Edge 31, Type (0, 1), None
#     Edge 32, Type (0, 1), None
#     Edge 33, Type (0, 1), None
#     Edge 34, Type (0, 1), None
#     Edge 35, Type (0, 1), None
#     Edge 36, Type (0, 1), None
#     Edge 37, Type (0, 1), None
#     Edge 38, Type (0, 1), None
#     Edge 39, Type (0, 1), None
#     Edge 40, Type (0, 1), None
#     Edge 41, Type (0, 1), None
#     Edge 42, Type (0, 1), None
#     Edge 43, Type (0, 1), None
#     Edge 44, Type (0, 1), None
#     Edge 45, Type (0, 1), None
#     Edge 46, Type (0, 1), None
#     Edge 47, Type (0, 1), None
#     Edge 48, Type (0, 1), None
#     Edge 49, Type (0, 1), None
#     Edge 50, Type (0, 1), None
#     Edge 51, Type (0, 1), None
#     Edge 52, Type (0, 1), None
#     Edge 53, Type (0, 1), None
#     Edge 54, Type (0, 1), None
#     Edge 55, Type (0, 1), None
#     Edge 56, Type (0, 1), None
#     Edge 57, Type (0, 1), None
#     Edge 58, Type (0, 1), None
#     Edge 59, Type (0, 1), None
#     Edge 60, Type (0, 1), None
#     Edge 61, Type (0, 1), None
#     Edge 62, Type (0, 1), None
#     Edge 63, Type (0, 1), None
#     Edge 64, Type (0, 1), None
#     Edge 65, Type (0, 1), None
#     Edge 66, Type (0, 1), None
#     Edge 67, Type (0, 1), None
#     Edge 68, Type (0, 1), None
#     Edge 69, Type (0, 1), None
#     Edge 70, Type (0, 1), None
#     Edge 71, Type (0, 1), None
#     Edge 72, Type (0, 1), None
#     Edge 73, Type (0, 1), None
#     Edge 74, Type (0, 1), None
#     Edge 75, Type (0, 1), None
#     Edge 76, Type (0, 1), None
#     Edge 77, Type (0, 1), None
#     Edge 78, Type (0, 1), None
#     Edge 79, Type (0, 1), None
#     Edge 80, Type (0, 1), None
#     Edge 81, Type (0, 1), None
#     Edge 82, Type (0, 1), None
#     Edge 83, Type (0, 1), None
#     Edge 84, Type (0, 1), None
#     Edge 85, Type (0, 1), None
#     Edge 86, Type (0, 1), None
#     Edge 87, Type (0, 1), None
#     Edge 88, Type (0, 1), None
#     Edge 89, Type (0, 1), None
#     Edge 90, Type (0, 1), None
#     Edge 91, Type (0, 1), None
#     Edge 92, Type (0, 1), None
#     Edge 93, Type (0, 1), None
#     Edge 94, Type (0, 1), None
#     Edge 95, Type (0, 1), None
#     Edge 96, Type (0, 1), None
#     Edge 97, Type (0, 1), None
#     Edge 98, Type (0, 1), None
#     Edge 99, Type (0, 1), None
#     Edge 100, Type (0, 1), None
#     Edge 101, Type (0, 1), None
#     Edge 102, Type (0, 1), None
#     Edge 103, Type (0, 1), None
#     Edge 104, Type (0, 1), None
#     Edge 105, Type (0, 1), None
#     Edge 106, Type (0, 1), None
#     Edge 107, Type (0, 1), None
#     Edge 108, Type (0, 1), None
#     Edge 109, Type (0, 1), None
#     Edge 110, Type (0, 1), None
#     Edge 111, Type (0, 1), None
#     Edge 112, Type (0, 1), None
#     Edge 113, Type (0, 1), None
#     Edge 114, Type (0, 1), None
#     Edge 115, Type (0, 1), None
#     Edge 116, Type (0, 1), None
#     Edge 117, Type (0, 1), None
#     Edge 118, Type (0, 1), None
#     Edge 119, Type (0, 1), None
#     Edge 120, Type (0, 1), None
#     Edge 121, Type (0, 1), None
#     Edge 122, Type (0, 1), None
#     Edge 123, Type (0, 1), None
# Relax obj value: 0.170
# Max RMSD: 0.265
# Mean RMSD: 0.168
data_MOF--net-tph--node1-MIDCAF_clean_sbu_0--node2-TAGTUT_clean_sbu_3--edge1-none
_symmetry_space_group_name_H-M    P1
_symmetry_Int_Tables_number       1
_symmetry_cell_setting            triclinic
loop_
_symmetry_equiv_pos_as_xyz
'x, y, z'
_cell_length_a     23.250237
_cell_length_b     23.436307
_cell_length_c     23.207521
_cell_angle_alpha  88.377709
_cell_angle_beta   90.126565
_cell_angle_gamma 89.619969
loop_
_atom_site_label
_atom_site_type_symbol
_atom_site_fract_x
_atom_site_fract_y
_atom_site_fract_z
_atom_type_partial_charge
Zn0 Zn 0.24535 0.24565 0.2293 0.0
Zn1 Zn 0.11442 0.11526 0.12225 0.0
Zn2 Zn 0.17415 0.178 0.18052 0.0
C3 C 0.08427 0.0881 0.23714 0.0
C4 C 0.08301 0.22546 0.08498 0.0
O5 O 0.26305 0.16917 0.14645 0.0
O6 O 0.31159 0.24369 0.17561 0.0
C7 C 0.20809 0.16307 0.31308 0.0
O8 O 0.12798 0.12023 0.24671 0.0
O9 O 0.06714 0.0832 0.18598 0.0
O10 O 0.07958 0.17443 0.06965 0.0
O11 O 0.11361 0.23673 0.12958 0.0
O12 O 0.24602 0.2008 0.30431 0.0
O13 O 0.17318 0.15002 0.27231 0.0
O14 O 0.13877 0.2679 0.17076 0.0
O15 O 0.19875 0.31447 0.22605 0.0
C16 C 0.15401 0.31416 0.1953 0.0
O17 O 0.2332 0.12561 0.12294 0.0
O18 O 0.1726 0.06328 0.08961 0.0
C19 C 0.30857 0.20039 0.14482 0.0
C20 C 0.22354 0.08064 0.0937 0.0
Zn21 Zn 0.3227 0.68307 0.15599 0.0
Zn22 Zn 0.49534 0.50345 0.99162 0.0
Zn23 Zn 0.4416 0.54952 0.06126 0.0
C24 C 0.47795 0.42175 0.08301 0.0
C25 C 0.56895 0.58403 0.01208 0.0
O26 O 0.39668 0.63424 0.05853 0.0
O27 O 0.37845 0.71729 0.09711 0.0
C28 C 0.30675 0.57734 0.12138 0.0
O29 O 0.46884 0.46876 0.1092 0.0
O30 O 0.48071 0.42368 0.02838 0.0
O31 O 0.57361 0.53291 -0.00275 0.0
O32 O 0.52061 0.60118 0.03281 0.0
O33 O 0.27448 0.62092 0.11701 0.0
O34 O 0.35373 0.57722 0.09128 0.0
O35 O 0.41139 0.59556 0.13433 0.0
O36 O 0.38916 0.65196 0.2052 0.0
C37 C 0.42708 0.63058 0.17264 0.0
O38 O 0.39097 0.50324 -0.00298 0.0
O39 O 0.44202 0.55 0.93616 0.0
C40 C 0.37053 0.68311 0.05673 0.0
C41 C 0.39844 0.51968 0.94491 0.0
Zn42 Zn 0.73923 0.24575 0.24503 0.0
Zn43 Zn 0.86968 0.35892 0.12484 0.0
Zn44 Zn 0.80332 0.30245 0.17777 0.0
C45 C 0.89868 0.39175 0.22927 0.0
C46 C 0.89563 0.2536 0.08549 0.0
O47 O 0.71443 0.31189 0.14068 0.0
O48 O 0.67421 0.24114 0.18997 0.0
C49 C 0.77745 0.33199 0.31056 0.0
O50 O 0.85646 0.35724 0.23851 0.0
O51 O 0.91579 0.40021 0.17856 0.0
O52 O 0.91222 0.3044 0.08044 0.0
O53 O 0.85538 0.24176 0.12205 0.0
O54 O 0.73287 0.30163 0.30957 0.0
O55 O 0.81266 0.33069 0.26774 0.0
O56 O 0.83654 0.21353 0.17157 0.0
O57 O 0.79511 0.17845 0.25008 0.0
C58 C 0.83124 0.17299 0.20973 0.0
O59 O 0.74441 0.35937 0.12472 0.0
O60 O 0.81411 0.40782 0.08336 0.0
C61 C 0.67199 0.27765 0.14889 0.0
C62 C 0.76101 0.40082 0.09144 0.0
Zn63 Zn 0.50267 0.96643 0.01045 0.0
Zn64 Zn 0.66929 0.83468 0.21584 0.0
Zn65 Zn 0.55823 0.91772 0.07084 0.0
C66 C 0.56323 0.87681 0.21051 0.0
C67 C 0.68068 0.92609 0.14445 0.0
O68 O 0.60703 0.9521 -0.00477 0.0
O69 O 0.53707 0.91614 0.94794 0.0
C70 C 0.4368 0.88895 0.04197 0.0
O71 O 0.57493 0.90139 0.16195 0.0
O72 O 0.6011 0.8771 0.2499 0.0
O73 O 0.71702 0.8925 0.16852 0.0
O74 O 0.64136 0.90354 0.11353 0.0
O75 O 0.43704 0.93802 0.06243 0.0
O76 O 0.48625 0.86587 0.03521 0.0
O77 O 0.51949 -0.00858 0.11303 0.0
O78 O 0.54621 0.0363 0.03508 0.0
C79 C 0.52694 0.03871 0.08564 0.0
O80 O 0.59844 0.84115 0.11068 0.0
O81 O 0.63784 0.77283 0.16422 0.0
C82 C 0.58563 0.93969 0.94641 0.0
C83 C 0.63153 0.79699 0.11513 0.0
Zn84 Zn 0.11945 0.84557 0.36377 0.0
Zn85 Zn 0.23881 0.72092 0.23557 0.0
Zn86 Zn 0.17522 0.79162 0.29758 0.0
C87 C 0.31123 0.7704 0.31345 0.0
C88 C 0.15213 0.65895 0.2842 0.0
O89 O 0.11614 0.84781 0.24415 0.0
O90 O 0.09448 0.91026 0.30912 0.0
C91 C 0.22894 0.85949 0.40036 0.0
O92 O 0.2668 0.80311 0.3155 0.0
O93 O 0.3094 0.7244 0.28635 0.0
O94 O 0.18441 0.65553 0.2408 0.0
O95 O 0.15019 0.70458 0.31323 0.0
O96 O 0.18081 0.85327 0.42439 0.0
O97 O 0.23444 0.84215 0.34876 0.0
O98 O 0.12205 0.73429 0.3554 0.0
O99 O 0.05848 0.79326 0.39052 0.0
C100 C 0.07679 0.743 0.38578 0.0
O101 O 0.1591 0.82391 0.21156 0.0
O102 O 0.23178 0.77891 0.17153 0.0
C103 C 0.09033 0.89427 0.25764 0.0
C104 C 0.19336 0.81742 0.16929 0.0
Zn105 Zn 0.02443 0.48976 0.97144 0.0
Zn106 Zn 0.15055 0.65341 0.82598 0.0
Zn107 Zn 0.07089 0.55656 0.92614 0.0
C108 C 0.08058 0.6823 0.91769 0.0
C109 C 0.06524 0.58175 0.79368 0.0
O110 O 0.02811 0.48905 0.86854 0.0
O111 O 0.0699 0.42967 0.92753 0.0
C112 C 0.09811 0.51032 0.05383 0.0
O113 O 0.05122 0.64419 0.94491 0.0
O114 O 0.07622 0.68474 0.86384 0.0
O115 O 0.11877 0.58476 0.78639 0.0
O116 O 0.0465 0.54804 0.8344 0.0
O117 O 0.0443 0.50466 0.05278 0.0
O118 O 0.12426 0.51989 0.00481 0.0
O119 O 0.00219 0.60356 0.97205 0.0
O120 O 0.95537 0.53232 0.93724 0.0
C121 C 0.95372 0.57979 0.96155 0.0
O122 O 0.16318 0.54572 0.93579 0.0
O123 O 0.20282 0.61885 0.891 0.0
C124 C 0.03916 0.43646 0.88305 0.0
C125 C 0.19821 0.56557 0.8973 0.0
Zn126 Zn 0.73506 0.73531 0.23327 0.0
Zn127 Zn 0.8592 0.61837 0.36552 0.0
Zn128 Zn 0.7974 0.67773 0.30882 0.0
C129 C 0.89268 0.72879 0.39185 0.0
C130 C 0.75245 0.58742 0.40529 0.0
O131 O 0.8162 0.65341 0.22154 0.0
O132 O 0.73866 0.67524 0.171 0.0
C133 C 0.81822 0.80743 0.28191 0.0
O134 O 0.84458 0.73771 0.36577 0.0
O135 O 0.91363 0.67907 0.39109 0.0
O136 O 0.80356 0.58727 0.42363 0.0
O137 O 0.74047 0.6179 0.3598 0.0
O138 O 0.79237 0.80254 0.23419 0.0
O139 O 0.81569 0.76692 0.32011 0.0
O140 O 0.70847 0.6623 0.3374 0.0
O141 O 0.66866 0.7351 0.2902 0.0
C142 C 0.66595 0.69676 0.32968 0.0
O143 O 0.86196 0.62945 0.25266 0.0
O144 O 0.89078 0.5609 0.31124 0.0
C145 C 0.78576 0.64838 0.17584 0.0
C146 C 0.89138 0.58309 0.26116 0.0
Zn147 Zn 0.98423 0.98625 0.99273 0.0
Zn148 Zn 0.81654 0.81004 0.82922 0.0
Zn149 Zn 0.92958 0.93067 0.93802 0.0
C150 C 0.88401 0.79466 0.92112 0.0
C151 C 0.90538 0.86644 0.803 0.0
O152 O 0.95952 0.006 0.88367 0.0
O153 O 0.97046 0.06156 0.95708 0.0
C154 C 0.89678 0.97505 0.06408 0.0
O155 O 0.90784 0.84376 0.91269 0.0
O156 O 0.87695 0.76351 0.87807 0.0
O157 O 0.8568 0.87283 0.77944 0.0
O158 O 0.91384 0.8901 0.85213 0.0
O159 O 0.9507 0.97621 0.06953 0.0
O160 O 0.87564 0.96231 0.01451 0.0
O161 O 0.00617 0.87932 0.96914 0.0
O162 O 0.06122 0.95368 0.9793 0.0
C163 C 0.05637 0.90035 0.97699 0.0
O164 O 0.84435 0.90058 0.91181 0.0
O165 O 0.76708 0.855 0.88473 0.0
C166 C 0.96933 0.05572 0.90338 0.0
C167 C 0.79481 0.90119 0.88676 0.0
Zn168 Zn 0.31651 0.31 0.3292 0.0
Zn169 Zn 0.4842 0.48621 0.49268 0.0
Zn170 Zn 0.42954 0.43064 0.438 0.0
C171 C 0.55635 0.40033 0.47696 0.0
C172 C 0.39676 0.47498 0.56404 0.0
O173 O 0.3443 0.40055 0.41178 0.0
O174 O 0.26704 0.35495 0.3847 0.0
C175 C 0.40535 0.36642 0.30297 0.0
O176 O 0.50615 0.37929 0.46913 0.0
O177 O 0.5612 0.45366 0.47925 0.0
O178 O 0.45068 0.47613 0.56947 0.0
O179 O 0.37559 0.46225 0.51449 0.0
O180 O 0.35676 0.37281 0.27944 0.0
O181 O 0.41384 0.39006 0.35211 0.0
O182 O 0.40782 0.34373 0.41265 0.0
O183 O 0.37693 0.26348 0.37805 0.0
C184 C 0.384 0.29463 0.42109 0.0
O185 O 0.45948 0.50599 0.38366 0.0
O186 O 0.47042 0.56154 0.45707 0.0
C187 C 0.29476 0.40114 0.38672 0.0
C188 C 0.46929 0.55571 0.40337 0.0
Zn189 Zn 0.36967 0.85891 0.62482 0.0
Zn190 Zn 0.23922 0.74571 0.74503 0.0
Zn191 Zn 0.30332 0.80245 0.67776 0.0
C192 C 0.3312 0.67295 0.70969 0.0
C193 C 0.27747 0.83198 0.81056 0.0
O194 O 0.24441 0.85937 0.62471 0.0
O195 O 0.3141 0.90783 0.58336 0.0
C196 C 0.39561 0.75359 0.58548 0.0
O197 O 0.33652 0.71352 0.67157 0.0
O198 O 0.29507 0.67838 0.75004 0.0
O199 O 0.2329 0.80158 0.80958 0.0
O200 O 0.31267 0.8307 0.76773 0.0
O201 O 0.41218 0.80439 0.58041 0.0
O202 O 0.35537 0.74175 0.62205 0.0
O203 O 0.35646 0.85726 0.73848 0.0
O204 O 0.41581 0.90018 0.67852 0.0
C205 C 0.39869 0.89175 0.72923 0.0
O206 O 0.21444 0.81189 0.64067 0.0
O207 O 0.1742 0.74115 0.68996 0.0
C208 C 0.261 0.90083 0.59144 0.0
C209 C 0.17199 0.77766 0.64888 0.0
Zn210 Zn 0.00269 0.46642 0.51039 0.0
Zn211 Zn 0.1693 0.33466 0.7158 0.0
Zn212 Zn 0.05823 0.41774 0.57081 0.0
C213 C 0.06325 0.37683 0.7105 0.0
C214 C 0.18069 0.4261 0.64443 0.0
O215 O 0.10706 0.45211 0.49521 0.0
O216 O 0.03713 0.4161 0.44792 0.0
C217 C 0.9368 0.38896 0.54193 0.0
O218 O 0.07494 0.4014 0.66192 0.0
O219 O 0.10113 0.3771 0.74987 0.0
O220 O 0.21702 0.3925 0.6685 0.0
O221 O 0.14136 0.40356 0.61352 0.0
O222 O 0.93705 0.43804 0.56237 0.0
O223 O 0.98625 0.36588 0.53518 0.0
O224 O 0.0195 0.49145 0.61298 0.0
O225 O 0.04616 0.53633 0.535 0.0
C226 C 0.02692 0.53873 0.58558 0.0
O227 O 0.09841 0.34116 0.61065 0.0
O228 O 0.13782 0.27283 0.66417 0.0
C229 C 0.08568 0.43967 0.44639 0.0
C230 C 0.13151 0.29701 0.61508 0.0
Zn231 Zn -0.00468 0.00347 0.49164 0.0
Zn232 Zn 0.82281 0.18318 0.656 0.0
Zn233 Zn 0.94158 0.04954 0.56126 0.0
C234 C 0.92711 0.13059 0.67265 0.0
C235 C 0.80675 0.07746 0.62144 0.0
O236 O 0.89094 0.00325 0.49703 0.0
O237 O 0.942 0.05002 0.43618 0.0
C238 C 0.06893 0.08405 0.51208 0.0
O239 O 0.91141 0.09557 0.63436 0.0
O240 O 0.88921 0.15197 0.70523 0.0
O241 O 0.77452 0.12106 0.61708 0.0
O242 O 0.85373 0.07729 0.59133 0.0
O243 O 0.07359 0.03292 0.49727 0.0
O244 O 0.02058 0.1012 0.5328 0.0
O245 O 0.96883 0.96878 0.6092 0.0
O246 O 0.98069 0.9237 0.52838 0.0
C247 C 0.97794 0.92177 0.58301 0.0
O248 O 0.8967 0.13427 0.55852 0.0
O249 O 0.87852 0.21735 0.59704 0.0
C250 C 0.89842 0.01969 0.44493 0.0
C251 C 0.87057 0.18315 0.55669 0.0
Zn252 Zn 0.74534 0.74559 0.72929 0.0
Zn253 Zn 0.61441 0.61525 0.62228 0.0
Zn254 Zn 0.67415 0.67799 0.68053 0.0
C255 C 0.58428 0.58811 0.73718 0.0
C256 C 0.58299 0.72544 0.58499 0.0
O257 O 0.76305 0.66917 0.64644 0.0
O258 O 0.81158 0.7437 0.67559 0.0
C259 C 0.70813 0.66305 0.81308 0.0
O260 O 0.628 0.62023 0.74673 0.0
O261 O 0.56714 0.5832 0.68602 0.0
O262 O 0.57957 0.6744 0.56965 0.0
O263 O 0.6136 0.73671 0.62958 0.0
O264 O 0.74607 0.70076 0.8043 0.0
O265 O 0.6732 0.65002 0.77232 0.0
O266 O 0.63875 0.76787 0.67076 0.0
O267 O 0.69873 0.81439 0.72609 0.0
C268 C 0.65399 0.81412 0.69534 0.0
O269 O 0.7332 0.6256 0.62295 0.0
O270 O 0.6726 0.56326 0.58964 0.0
C271 C 0.80857 0.70039 0.64481 0.0
C272 C 0.72354 0.58062 0.59372 0.0
Zn273 Zn 0.73881 0.2209 0.73556 0.0
Zn274 Zn 0.61948 0.34556 0.8638 0.0
Zn275 Zn 0.67523 0.29161 0.79758 0.0
C276 C 0.5768 0.24299 0.8858 0.0
C277 C 0.72896 0.35947 0.90037 0.0
O278 O 0.6591 0.3239 0.71156 0.0
O279 O 0.73178 0.27889 0.67153 0.0
C280 C 0.65212 0.15895 0.7842 0.0
O281 O 0.62206 0.23429 0.85541 0.0
O282 O 0.5585 0.29325 0.89055 0.0
O283 O 0.68085 0.35324 0.92441 0.0
O284 O 0.73445 0.34214 0.84876 0.0
O285 O 0.68439 0.15553 0.74081 0.0
O286 O 0.65019 0.20458 0.81323 0.0
O287 O 0.76681 0.30309 0.8155 0.0
O288 O 0.80941 0.22439 0.78634 0.0
C289 C 0.81124 0.27039 0.81344 0.0
O290 O 0.61617 0.34781 0.74417 0.0
O291 O 0.59452 0.41026 0.80915 0.0
C292 C 0.69336 0.31741 0.66929 0.0
C293 C 0.59037 0.39428 0.75767 0.0
Zn294 Zn 0.65053 0.15337 0.32599 0.0
Zn295 Zn 0.5244 -0.01024 0.4715 0.0
Zn296 Zn 0.57086 0.05655 0.42618 0.0
C297 C 0.45369 0.0798 0.46158 0.0
C298 C 0.59808 0.01029 0.55389 0.0
O299 O 0.66314 0.04569 0.43582 0.0
O300 O 0.70279 0.11881 0.39102 0.0
C301 C 0.5652 0.08173 0.29371 0.0
O302 O 0.50216 0.10357 0.47208 0.0
O303 O 0.45534 0.03233 0.43729 0.0
O304 O 0.54427 0.00465 0.55287 0.0
O305 O 0.62421 0.01985 0.50485 0.0
O306 O 0.61873 0.08473 0.28642 0.0
O307 O 0.54646 0.04803 0.33444 0.0
O308 O 0.55122 0.14419 0.44494 0.0
O309 O 0.5762 0.18472 0.36386 0.0
C310 C 0.58057 0.18229 0.4177 0.0
O311 O 0.52807 -0.01096 0.36859 0.0
O312 O 0.56984 0.92966 0.4276 0.0
C313 C 0.69818 0.06554 0.39732 0.0
C314 C 0.53913 0.93645 0.38311 0.0
Zn315 Zn 0.35922 0.11835 0.86548 0.0
Zn316 Zn 0.23507 0.23534 0.73327 0.0
Zn317 Zn 0.29741 0.17773 0.8088 0.0
C318 C 0.16596 0.19677 0.82969 0.0
C319 C 0.31824 0.30743 0.78191 0.0
O320 O 0.36198 0.12946 0.75262 0.0
O321 O 0.39079 0.06089 0.81118 0.0
C322 C 0.25247 0.0874 0.90526 0.0
O323 O 0.20848 0.1623 0.83739 0.0
O324 O 0.16868 0.23512 0.79021 0.0
O325 O 0.29238 0.30255 0.7342 0.0
O326 O 0.31571 0.26691 0.82011 0.0
O327 O 0.30358 0.08724 0.92358 0.0
O328 O 0.24048 0.11789 0.85978 0.0
O329 O 0.3446 0.23769 0.86576 0.0
O330 O 0.41365 0.17905 0.89107 0.0
C331 C 0.3927 0.22876 0.89184 0.0
O332 O 0.3162 0.15342 0.72153 0.0
O333 O 0.23865 0.17527 0.67099 0.0
C334 C 0.39139 0.08309 0.7611 0.0
C335 C 0.28575 0.1484 0.67583 0.0
C336 C 0.11388 0.19484 0.8663 0.0
C337 C 0.05829 0.27041 0.04578 0.0
C338 C 0.9088 0.21754 0.03597 0.0
Mg339 Mg 0.04077 0.18711 0.76775 0.0
Mg340 Mg 0.91996 0.26588 0.71931 0.0
O341 O 0.95706 0.21869 0.78162 0.0
Mg342 Mg 0.98423 0.24665 0.86552 0.0
O343 O 0.01697 0.25881 0.94639 0.0
Mg344 Mg 0.02771 0.16743 0.97427 0.0
Mg345 Mg 0.96832 0.31384 0.98709 0.0
C346 C 0.86635 0.29125 0.83397 0.0
O347 O 0.00774 0.34604 0.84767 0.0
O348 O 0.02267 0.14176 0.6851 0.0
O349 O 0.96402 0.38456 0.92281 0.0
O350 O 0.05069 0.27984 0.73027 0.0
O351 O 0.9749 0.21728 0.66332 0.0
O352 O 0.97476 0.33277 0.69953 0.0
O353 O 0.97212 0.15521 0.89265 0.0
O354 O 0.00848 0.10567 0.82005 0.0
C355 C 0.98004 0.10772 0.86753 0.0
C356 C 0.97863 0.16332 0.66246 0.0
O357 O 0.88829 0.26872 0.87965 0.0
O358 O 0.04909 0.25761 0.99319 0.0
O359 O 0.90053 0.31117 0.79629 0.0
O360 O 0.94858 0.17934 0.04094 0.0
O361 O 0.02915 0.31273 0.06319 0.0
O362 O 0.90582 0.24604 0.98901 0.0
O363 O 0.07157 0.22342 0.84683 0.0
O364 O 0.10976 0.1653 0.9135 0.0
C365 C 0.02787 0.32672 0.7106 0.0
C366 C -0.00459 0.3902 0.87766 0.0
C367 C 0.61386 0.69482 0.3663 0.0
C368 C 0.55827 0.77039 0.54578 0.0
C369 C 0.40878 0.71751 0.53597 0.0
Mg370 Mg 0.54075 0.68709 0.26776 0.0
Mg371 Mg 0.41994 0.76587 0.21932 0.0
O372 O 0.45704 0.71868 0.28163 0.0
Mg373 Mg 0.48421 0.74663 0.36553 0.0
O374 O 0.51696 0.75879 0.4464 0.0
Mg375 Mg 0.5277 0.66741 0.47427 0.0
Mg376 Mg 0.4683 0.81381 0.4871 0.0
C377 C 0.36634 0.79126 0.33398 0.0
O378 O 0.50772 0.84603 0.34769 0.0
O379 O 0.52265 0.64173 0.18511 0.0
O380 O 0.46397 0.88453 0.42282 0.0
O381 O 0.55068 0.77982 0.23027 0.0
O382 O 0.47488 0.71726 0.16334 0.0
O383 O 0.47475 0.83275 0.19953 0.0
O384 O 0.4721 0.65519 0.39266 0.0
O385 O 0.50845 0.60565 0.32005 0.0
C386 C 0.48001 0.60771 0.36753 0.0
C387 C 0.47861 0.6633 0.16248 0.0
O388 O 0.38828 0.76872 0.37966 0.0
O389 O 0.54907 0.75759 0.49319 0.0
O390 O 0.40052 0.81116 0.29629 0.0
O391 O 0.44857 0.67931 0.54095 0.0
O392 O 0.52913 0.81271 0.5632 0.0
O393 O 0.40581 0.746 0.48901 0.0
O394 O 0.57156 0.72341 0.34683 0.0
O395 O 0.60974 0.66528 0.4135 0.0
C396 C 0.52785 0.8267 0.2106 0.0
C397 C 0.49538 0.89018 0.37768 0.0
C398 C 0.9858 0.86446 0.61326 0.0
C399 C 0.93364 0.812 0.7895 0.0
C400 C 0.03134 0.63329 0.77507 0.0
Mg401 Mg 0.03313 0.80739 0.50115 0.0
Mg402 Mg 0.9661 0.6664 0.48921 0.0
O403 O 0.0223 0.71677 0.52642 0.0
Mg404 Mg 0.99077 0.72526 0.60645 0.0
O405 O 0.96537 0.73884 0.68624 0.0
Mg406 Mg 0.0372 0.7731 0.71425 0.0
Mg407 Mg 0.92152 0.69033 0.73597 0.0
C408 C 0.99009 0.58839 0.59488 0.0
O409 O 0.89334 0.70701 0.59152 0.0
O410 O 0.05119 0.71448 0.48016 0.0
O411 O 0.88694 0.64557 0.66411 0.0
O412 O 0.95215 0.79869 0.435 0.0
O413 O 0.02336 0.65943 0.41243 0.0
O414 O 0.90588 0.7361 0.48754 0.0
O415 O 0.07935 0.74682 0.63161 0.0
O416 O 0.11469 0.80667 0.56449 0.0
C417 C 0.11982 0.77794 0.61238 0.0
C418 C 0.05637 0.69953 0.4274 0.0
O419 O 0.01097 0.62942 0.62309 0.0
O420 O 0.98826 0.80672 0.79183 0.0
O421 O 0.95469 0.5985 0.55361 0.0
O422 O 0.0571 0.67813 0.75394 0.0
O423 O 0.90133 0.77278 0.76956 0.0
O424 O 0.97721 0.63215 0.7807 0.0
O425 O 0.97841 0.81951 0.58361 0.0
O426 O 0.00766 0.85988 0.66434 0.0
C427 C 0.90984 0.76394 0.4407 0.0
C428 C 0.86244 0.67585 0.62524 0.0
C429 C 0.86322 0.98669 0.11748 0.0
C430 C 0.66412 0.97588 0.1769 0.0
C431 C 0.70981 0.03286 0.34547 0.0
Mg432 Mg 0.97282 0.03334 0.17816 0.0
Mg433 Mg -0.00681 0.96664 0.32188 0.0
O434 O 0.94894 0.01748 0.26929 0.0
Mg435 Mg 0.86717 0.98666 0.25699 0.0
O436 O 0.78303 0.96366 0.23366 0.0
Mg437 Mg 0.76522 0.0459 0.20227 0.0
Mg438 Mg 0.72606 0.92539 0.2835 0.0
C439 C 0.88596 0.98128 0.39766 0.0
O440 O 0.87915 0.8887 0.27256 0.0
O441 O -0.00533 0.05269 0.27029 0.0
O442 O 0.802 0.89289 0.32666 0.0
O443 O 0.04163 0.95572 0.18893 0.0
O444 O 0.06743 0.02885 0.32312 0.0
O445 O -0.00635 0.90737 0.25437 0.0
O446 O 0.84657 0.07733 0.23793 0.0
O447 O 0.91123 0.11428 0.17765 0.0
C448 C 0.86584 0.11945 0.20847 0.0
C449 C 0.04748 0.06188 0.28317 0.0
O450 O 0.85392 0.00063 0.35614 0.0
O451 O 0.68256 0.02256 0.15726 0.0
O452 O 0.92829 0.94807 0.38738 0.0
O453 O 0.72605 0.05902 0.29806 0.0
O454 O 0.66233 0.97033 0.23139 0.0
O455 O 0.70706 0.97901 0.35058 0.0
O456 O 0.89087 0.97876 0.16481 0.0
O457 O 0.81515 0.01466 0.11707 0.0
C458 C 0.03877 0.91325 0.22506 0.0
C459 C 0.83818 0.86335 0.2996 0.0
C460 C 0.19288 0.85585 0.1187 0.0
C461 C 0.27004 0.04384 0.07061 0.0
C462 C 0.21745 0.03732 0.92101 0.0
Mg463 Mg 0.18927 0.76175 0.03628 0.0
Mg464 Mg 0.26497 0.73697 0.9168 0.0
O465 O 0.22973 0.78982 0.96556 0.0
Mg466 Mg 0.24991 0.86834 0.9923 0.0
O467 O 0.25989 0.94638 0.02874 0.0
Mg468 Mg 0.16753 0.96979 0.03735 0.0
Mg469 Mg 0.31359 -0.01004 0.9797 0.0
C470 C 0.29919 0.8484 0.86679 0.0
O471 O 0.34676 0.85012 0.01575 0.0
O472 O 0.15072 0.688 0.99132 0.0
O473 O 0.38111 0.92568 0.96764 0.0
O474 O 0.27588 0.717 0.05263 0.0
O475 O 0.17344 0.7206 0.90322 0.0
O476 O 0.31412 0.68175 0.97264 0.0
O477 O 0.1573 0.89293 0.97846 0.0
O478 O 0.10851 0.81537 0.0065 0.0
C479 C 0.10971 0.86603 0.98415 0.0
C480 C 0.13743 0.69783 0.93892 0.0
O481 O 0.27237 0.88691 0.89461 0.0
O482 O 0.25804 -0.0086 0.0618 0.0
O483 O 0.32136 0.807 0.89503 0.0
O484 O 0.17977 0.04061 0.96113 0.0
O485 O 0.3122 0.06327 0.04119 0.0
O486 O 0.24572 -0.00838 0.9176 0.0
O487 O 0.22391 0.8394 0.07788 0.0
O488 O 0.16464 0.9031 0.11551 0.0
C489 C 0.31588 0.69027 0.02633 0.0
C490 C 0.3894 0.88149 0.00045 0.0
C491 C 0.11894 0.3666 0.19469 0.0
C492 C 0.93499 0.4143 0.27542 0.0
C493 C 0.942 0.56987 0.22492 0.0
Mg494 Mg 0.22205 0.44823 0.20384 0.0
Mg495 Mg 0.24359 0.55485 0.29615 0.0
O496 O 0.19351 0.5174 0.24255 0.0
Mg497 Mg 0.11179 0.48915 0.25467 0.0
O498 O 0.03186 0.45714 0.26132 0.0
Mg499 Mg 0.00913 0.4539 0.17018 0.0
Mg500 Mg 0.98916 0.50462 0.31644 0.0
C501 C 0.12918 0.60734 0.31006 0.0
O502 O 0.1231 0.46148 0.35283 0.0
O503 O 0.30325 0.4955 0.18033 0.0
O504 O 0.04961 0.51126 0.38717 0.0
O505 O 0.25817 0.42278 0.29442 0.0
O506 O 0.2878 0.58067 0.21925 0.0
O507 O 0.28827 0.49453 0.34812 0.0
O508 O 0.09392 0.50772 0.15786 0.0
O509 O 0.17752 0.48299 0.11731 0.0
C510 C 0.12604 0.50306 0.11242 0.0
C511 C 0.30608 0.54967 0.17823 0.0
O512 O 0.09272 0.5809 0.27979 0.0
O513 O 0.98775 0.42471 0.26234 0.0
O514 O 0.16569 0.57882 0.33961 0.0
O515 O 0.93926 0.5311 0.18665 0.0
O516 O 0.91479 0.44371 0.31615 0.0
O517 O 0.98761 0.57287 0.25364 0.0
O518 O 0.13791 0.40514 0.22683 0.0
O519 O 0.07164 0.37321 0.16636 0.0
C520 C 0.28127 0.44193 0.34037 0.0
C521 C 0.0928 0.47803 0.39554 0.0
C522 C 0.62185 0.61933 0.00779 0.0
C523 C 0.68111 0.79311 0.07828 0.0
C524 C 0.83972 0.78714 0.96409 0.0
Mg525 Mg 0.69029 0.51862 0.95218 0.0
Mg526 Mg 0.80843 0.49132 0.011 0.0
O527 O 0.77505 0.54139 0.95787 0.0
Mg528 Mg 0.76451 0.61586 -0.00244 0.0
O529 O 0.7484 0.69174 0.03117 0.0
Mg530 Mg 0.7048 0.72488 0.96428 0.0
Mg531 Mg 0.80236 0.73802 0.07242 0.0
C532 C 0.90129 0.58759 -0.00401 0.0
O533 O 0.78552 0.59271 0.09339 0.0
O534 O 0.7276 0.4542 0.89618 0.0
O535 O 0.84702 0.6625 0.10053 0.0
O536 O 0.69499 0.44508 0.02689 0.0
O537 O 0.78947 0.41387 0.95989 0.0
O538 O 0.74794 0.49588 0.07993 0.0
O539 O 0.73828 0.65165 0.90986 0.0
O540 O 0.68506 0.58272 0.87423 0.0
C541 C 0.70845 0.63171 0.86904 0.0
C542 C 0.75737 0.41173 0.91462 0.0
O543 O 0.86366 0.62568 0.98021 0.0
O544 O 0.67326 0.79245 0.02391 0.0
O545 O 0.88649 0.54084 0.02212 0.0
O546 O 0.79187 0.76689 0.9467 0.0
O547 O 0.7278 0.77737 0.10366 0.0
O548 O 0.85346 0.78713 0.01659 0.0
O549 O 0.66961 0.59247 0.01129 0.0
O550 O 0.62098 0.67178 0.99041 0.0
C551 C 0.72338 0.44914 0.07352 0.0
C552 C 0.81408 0.62653 0.12478 0.0
C553 C 0.12182 0.11935 0.50778 0.0
C554 C 0.1811 0.29314 0.57824 0.0
C555 C 0.3397 0.28713 0.46406 0.0
Mg556 Mg 0.19026 0.01863 0.45217 0.0
Mg557 Mg 0.3084 -0.00866 0.511 0.0
O558 O 0.27503 0.04141 0.45787 0.0
Mg559 Mg 0.26449 0.11588 0.49755 0.0
O560 O 0.24837 0.19176 0.53116 0.0
Mg561 Mg 0.20478 0.22489 0.46426 0.0
Mg562 Mg 0.30233 0.23805 0.5724 0.0
C563 C 0.40127 0.08761 0.49601 0.0
O564 O 0.2855 0.09273 0.59338 0.0
O565 O 0.22758 0.95422 0.39618 0.0
O566 O 0.347 0.16252 0.60051 0.0
O567 O 0.19497 0.94509 0.52689 0.0
O568 O 0.28945 0.91389 0.45989 0.0
O569 O 0.24792 -0.00411 0.57993 0.0
O570 O 0.23825 0.15165 0.40985 0.0
O571 O 0.18502 0.08273 0.37422 0.0
C572 C 0.20842 0.13172 0.36904 0.0
C573 C 0.25735 0.91175 0.41461 0.0
O574 O 0.36363 0.1257 0.48021 0.0
O575 O 0.17325 0.29248 0.52388 0.0
O576 O 0.38646 0.04087 0.52214 0.0
O577 O 0.29186 0.26687 0.44668 0.0
O578 O 0.22778 0.27741 0.60363 0.0
O579 O 0.35344 0.28714 0.51656 0.0
O580 O 0.16958 0.09249 0.51129 0.0
O581 O 0.12096 0.1718 0.4904 0.0
C582 C 0.22336 0.94915 0.57352 0.0
C583 C 0.31406 0.12655 0.62476 0.0
C584 C 0.36582 0.61942 0.70842 0.0
C585 C 0.54749 0.5619 0.78322 0.0
C586 C 0.53882 0.41327 0.72509 0.0
Mg587 Mg 0.26528 0.54591 0.70226 0.0
Mg588 Mg 0.22609 0.42542 0.78348 0.0
O589 O 0.28307 0.46366 0.73363 0.0
Mg590 Mg 0.3672 0.48665 0.75698 0.0
O591 O 0.44895 0.51748 0.76932 0.0
Mg592 Mg 0.47286 0.53336 0.67821 0.0
Mg593 Mg 0.49321 0.46664 0.82189 0.0
C594 C 0.3382 0.36335 0.79962 0.0
O595 O 0.35393 0.50063 0.85612 0.0
O596 O 0.18261 0.52257 0.65725 0.0
O597 O 0.42828 0.44806 0.88737 0.0
O598 O 0.22611 0.55905 0.79804 0.0
O599 O 0.16235 0.47034 0.73137 0.0
O600 O 0.2071 0.47905 0.85056 0.0
O601 O 0.39098 0.47869 0.66476 0.0
O602 O 0.31519 0.51461 0.6171 0.0
C603 C 0.36323 0.4866 0.61748 0.0
C604 C 0.16415 0.4759 0.67688 0.0
O605 O 0.37917 0.3887 0.77258 0.0
O606 O 0.49468 0.55272 0.77035 0.0
O607 O 0.30201 0.39289 0.82667 0.0
O608 O 0.54169 0.45577 0.68899 0.0
O609 O 0.56745 0.52885 0.82314 0.0
O610 O 0.49369 0.40737 0.75439 0.0
O611 O 0.34665 0.57729 0.73792 0.0
O612 O 0.41123 0.61429 0.67762 0.0
C613 C 0.20986 0.5329 0.84544 0.0
C614 C 0.38597 0.48128 0.89764 0.0
C615 C 0.69287 0.35584 0.6187 0.0
C616 C 0.77004 0.54383 0.57062 0.0
C617 C 0.71743 0.53733 0.42103 0.0
Mg618 Mg 0.68927 0.26175 0.53627 0.0
Mg619 Mg 0.76496 0.23697 0.41679 0.0
O620 O 0.72972 0.28982 0.46555 0.0
Mg621 Mg 0.7499 0.36833 0.4923 0.0
O622 O 0.75988 0.44637 0.52875 0.0
Mg623 Mg 0.66752 0.46978 0.53736 0.0
Mg624 Mg 0.81358 0.48995 0.4797 0.0
C625 C 0.79917 0.34841 0.36679 0.0
O626 O 0.84676 0.35011 0.51574 0.0
O627 O 0.65073 0.18799 0.49132 0.0
O628 O 0.8811 0.42567 0.46761 0.0
O629 O 0.77591 0.21703 0.55261 0.0
O630 O 0.67344 0.22058 0.40322 0.0
O631 O 0.81413 0.18176 0.47262 0.0
O632 O 0.65729 0.39292 0.47846 0.0
O633 O 0.6085 0.31536 0.5065 0.0
C634 C 0.6097 0.36601 0.48415 0.0
C635 C 0.63743 0.19782 0.43893 0.0
O636 O 0.77235 0.38692 0.39462 0.0
O637 O 0.75803 0.49138 0.5618 0.0
O638 O 0.82134 0.30701 0.39502 0.0
O639 O 0.67975 0.54061 0.46115 0.0
O640 O 0.8122 0.56326 0.54122 0.0
O641 O 0.74571 0.49163 0.41761 0.0
O642 O 0.72391 0.33939 0.57788 0.0
O643 O 0.66463 0.40308 0.61551 0.0
C644 C 0.81591 0.1903 0.52631 0.0
C645 C 0.88939 0.38148 0.50042 0.0
C646 C 0.62606 0.003 0.61245 0.0
C647 C 0.80605 0.04977 0.67828 0.0
C648 C 0.78132 0.94198 0.84041 0.0
Mg649 Mg 0.50918 0.95392 0.67013 0.0
Mg650 Mg 0.48916 0.00463 0.81641 0.0
O651 O 0.53186 0.95714 0.7613 0.0
Mg652 Mg 0.61181 -0.01086 0.75471 0.0
O653 O 0.69352 0.0174 0.74262 0.0
Mg654 Mg 0.7221 0.94827 0.70387 0.0
Mg655 Mg 0.74357 0.05489 0.79621 0.0
C656 C 0.59276 0.97805 0.89556 0.0
O657 O 0.59271 0.08089 0.77978 0.0
O658 O 0.48775 0.92474 0.76229 0.0
O659 O 0.66565 0.07884 0.83964 0.0
O660 O 0.4393 0.03114 0.68658 0.0
O661 O 0.41479 0.94371 0.81612 0.0
O662 O 0.48763 0.07287 0.75361 0.0
O663 O 0.63802 0.90508 0.7269 0.0
O664 O 0.57167 0.87324 0.6664 0.0
C665 C 0.61896 0.86658 0.69476 0.0
C666 C 0.43499 0.91431 0.77537 0.0
O667 O 0.62308 0.9615 0.85287 0.0
O668 O 0.80327 -0.0044 0.68036 0.0
O669 O 0.54957 0.01127 0.88717 0.0
O670 O 0.75824 0.92284 0.79445 0.0
O671 O 0.78775 0.08075 0.71931 0.0
O672 O 0.78828 -0.00541 0.84819 0.0
O673 O 0.59404 0.00764 0.65795 0.0
O674 O 0.67756 0.98298 0.61729 0.0
C675 C 0.44203 0.06988 0.72487 0.0
C676 C 0.62916 0.10734 0.81006 0.0
C677 C 0.4858 0.36444 0.11326 0.0
C678 C 0.43362 0.31199 0.28946 0.0
C679 C 0.5313 0.13327 0.2751 0.0
Mg680 Mg 0.53313 0.30736 0.00116 0.0
Mg681 Mg 0.46612 0.16636 0.98922 0.0
O682 O 0.52231 0.21674 0.02643 0.0
Mg683 Mg 0.49077 0.22524 0.10646 0.0
O684 O 0.46536 0.23883 0.18624 0.0
Mg685 Mg 0.53719 0.27308 0.21426 0.0
Mg686 Mg 0.4215 0.19032 0.23596 0.0
C687 C 0.49009 0.08836 0.09491 0.0
O688 O 0.39334 0.207 0.09152 0.0
O689 O 0.5512 0.21446 0.98018 0.0
O690 O 0.38694 0.14556 0.1641 0.0
O691 O 0.45215 0.29866 0.93501 0.0
O692 O 0.52338 0.15941 0.91244 0.0
O693 O 0.40589 0.23606 0.98753 0.0
O694 O 0.57936 0.2468 0.13163 0.0
O695 O 0.61469 0.30665 0.06451 0.0
C696 C 0.61983 0.27792 0.1124 0.0
C697 C 0.55638 0.19951 0.92742 0.0
O698 O 0.51097 0.1294 0.12312 0.0
O699 O 0.48823 0.3067 0.29182 0.0
O700 O 0.45471 0.09845 0.05362 0.0
O701 O 0.55707 0.17811 0.25396 0.0
O702 O 0.40131 0.27277 0.26953 0.0
O703 O 0.47718 0.13214 0.28073 0.0
O704 O 0.47841 0.31949 0.08361 0.0
O705 O 0.50767 0.35986 0.16434 0.0
C706 C 0.40985 0.2639 0.9407 0.0
C707 C 0.36244 0.17584 0.12524 0.0
loop_
_geom_bond_atom_site_label_1
_geom_bond_atom_site_label_2
_geom_bond_distance
_geom_bond_site_symmetry_2
_ccdc_geom_bond_type
Zn0 O6 1.920 . S
Zn0 O12 1.898 . S
Zn0 O15 1.905 . S
Zn1 O9 1.905 . S
Zn1 O10 1.898 . S
Zn1 O18 1.920 . S
Zn2 O5 2.080 . S
Zn2 O8 2.114 . S
Zn2 O11 2.120 . S
Zn2 O13 2.120 . S
Zn2 O14 2.114 . S
Zn2 O17 2.080 . S
C3 O8 1.166 . S
C3 O9 1.182 . S
C4 O10 1.167 . S
C4 O11 1.299 . S
O5 Zn2 2.080 . S
O5 C19 1.305 . S
O6 Zn0 1.920 . S
O6 C19 1.234 . S
C7 O12 1.167 . S
C7 O13 1.299 . S
O8 Zn2 2.114 . S
O8 C3 1.166 . S
O9 Zn1 1.905 . S
O9 C3 1.182 . S
O10 Zn1 1.898 . S
O10 C4 1.167 . S
O11 Zn2 2.120 . S
O11 C4 1.299 . S
O12 Zn0 1.898 . S
O12 C7 1.167 . S
O13 Zn2 2.120 . S
O13 C7 1.299 . S
O14 Zn2 2.114 . S
O14 C16 1.166 . S
O15 Zn0 1.905 . S
O15 C16 1.182 . S
C16 O14 1.166 . S
C16 O15 1.182 . S
O17 Zn2 2.080 . S
O17 C20 1.305 . S
O18 Zn1 1.920 . S
O18 C20 1.234 . S
C19 O5 1.305 . S
C19 O6 1.234 . S
C20 O17 1.305 . S
C20 O18 1.234 . S
Zn21 O27 1.920 . S
Zn21 O33 1.898 . S
Zn21 O36 1.905 . S
Zn22 O30 1.905 1_556 S
Zn22 O31 1.898 1_556 S
Zn22 O39 1.920 . S
Zn23 O26 2.080 . S
Zn23 O29 2.114 . S
Zn23 O32 2.120 . S
Zn23 O34 2.120 . S
Zn23 O35 2.114 . S
Zn23 O38 2.080 1_554 S
C24 O29 1.166 . S
C24 O30 1.182 . S
C25 O31 1.167 . S
C25 O32 1.299 . S
O26 Zn23 2.080 . S
O26 C40 1.305 . S
O27 Zn21 1.920 . S
O27 C40 1.234 . S
C28 O33 1.167 . S
C28 O34 1.299 . S
O29 Zn23 2.114 . S
O29 C24 1.166 . S
O30 Zn22 1.905 1_554 S
O30 C24 1.182 . S
O31 Zn22 1.898 1_554 S
O31 C25 1.167 . S
O32 Zn23 2.120 . S
O32 C25 1.299 . S
O33 Zn21 1.898 . S
O33 C28 1.167 . S
O34 Zn23 2.120 . S
O34 C28 1.299 . S
O35 Zn23 2.114 . S
O35 C37 1.166 . S
O36 Zn21 1.905 . S
O36 C37 1.182 . S
C37 O35 1.166 . S
C37 O36 1.182 . S
O38 Zn23 2.080 1_556 S
O38 C41 1.305 . S
O39 Zn22 1.920 . S
O39 C41 1.234 . S
C40 O26 1.305 . S
C40 O27 1.234 . S
C41 O38 1.305 . S
C41 O39 1.234 . S
Zn42 O48 1.920 . S
Zn42 O54 1.898 . S
Zn42 O57 1.905 . S
Zn43 O51 1.905 . S
Zn43 O52 1.898 . S
Zn43 O60 1.920 . S
Zn44 O47 2.080 . S
Zn44 O50 2.114 . S
Zn44 O53 2.120 . S
Zn44 O55 2.120 . S
Zn44 O56 2.114 . S
Zn44 O59 2.080 . S
C45 O50 1.166 . S
C45 O51 1.182 . S
C46 O52 1.167 . S
C46 O53 1.299 . S
O47 Zn44 2.080 . S
O47 C61 1.305 . S
O48 Zn42 1.920 . S
O48 C61 1.234 . S
C49 O54 1.167 . S
C49 O55 1.299 . S
O50 Zn44 2.114 . S
O50 C45 1.166 . S
O51 Zn43 1.905 . S
O51 C45 1.182 . S
O52 Zn43 1.898 . S
O52 C46 1.167 . S
O53 Zn44 2.120 . S
O53 C46 1.299 . S
O54 Zn42 1.898 . S
O54 C49 1.167 . S
O55 Zn44 2.120 . S
O55 C49 1.299 . S
O56 Zn44 2.114 . S
O56 C58 1.166 . S
O57 Zn42 1.905 . S
O57 C58 1.182 . S
C58 O56 1.166 . S
C58 O57 1.182 . S
O59 Zn44 2.080 . S
O59 C62 1.305 . S
O60 Zn43 1.920 . S
O60 C62 1.234 . S
C61 O47 1.305 . S
C61 O48 1.234 . S
C62 O59 1.305 . S
C62 O60 1.234 . S
Zn63 O69 1.920 1_545 S
Zn63 O75 1.898 1_546 S
Zn63 O78 1.905 1_556 S
Zn64 O72 1.905 . S
Zn64 O73 1.898 . S
Zn64 O81 1.920 . S
Zn65 O68 2.088 . S
Zn65 O71 2.114 . S
Zn65 O74 2.120 . S
Zn65 O76 2.120 . S
Zn65 O77 2.114 1_565 S
Zn65 O80 2.080 . S
C66 O71 1.166 . S
C66 O72 1.182 . S
C67 O73 1.167 . S
C67 O74 1.299 . S
O68 Zn65 2.088 . S
O68 C82 1.296 1_554 S
O69 Zn63 1.920 1_565 S
O69 C82 1.234 . S
C70 O75 1.167 . S
C70 O76 1.299 . S
O71 Zn65 2.114 . S
O71 C66 1.166 . S
O72 Zn64 1.905 . S
O72 C66 1.182 . S
O73 Zn64 1.898 . S
O73 C67 1.167 . S
O74 Zn65 2.120 . S
O74 C67 1.299 . S
O75 Zn63 1.898 1_564 S
O75 C70 1.167 . S
O76 Zn65 2.120 . S
O76 C70 1.299 . S
O77 Zn65 2.114 1_545 S
O77 C79 1.166 . S
O78 Zn63 1.905 1_554 S
O78 C79 1.182 . S
C79 O77 1.166 . S
C79 O78 1.182 . S
O80 Zn65 2.080 . S
O80 C83 1.305 . S
O81 Zn64 1.920 . S
O81 C83 1.234 . S
C82 O68 1.296 1_556 S
C82 O69 1.234 . S
C83 O80 1.305 . S
C83 O81 1.234 . S
Zn84 O90 1.920 . S
Zn84 O96 1.898 . S
Zn84 O99 1.905 . S
Zn85 O93 1.905 . S
Zn85 O94 1.898 . S
Zn85 O102 1.920 . S
Zn86 O89 2.080 . S
Zn86 O92 2.114 . S
Zn86 O95 2.120 . S
Zn86 O97 2.120 . S
Zn86 O98 2.114 . S
Zn86 O101 2.080 . S
C87 O92 1.166 . S
C87 O93 1.182 . S
C88 O94 1.167 . S
C88 O95 1.299 . S
O89 Zn86 2.080 . S
O89 C103 1.305 . S
O90 Zn84 1.920 . S
O90 C103 1.234 . S
C91 O96 1.167 . S
C91 O97 1.299 . S
O92 Zn86 2.114 . S
O92 C87 1.166 . S
O93 Zn85 1.905 . S
O93 C87 1.182 . S
O94 Zn85 1.898 . S
O94 C88 1.167 . S
O95 Zn86 2.120 . S
O95 C88 1.299 . S
O96 Zn84 1.898 . S
O96 C91 1.167 . S
O97 Zn86 2.120 . S
O97 C91 1.299 . S
O98 Zn86 2.114 . S
O98 C100 1.166 . S
O99 Zn84 1.905 . S
O99 C100 1.182 . S
C100 O98 1.166 . S
C100 O99 1.182 . S
O101 Zn86 2.080 . S
O101 C104 1.305 . S
O102 Zn85 1.920 . S
O102 C104 1.234 . S
C103 O89 1.305 . S
C103 O90 1.234 . S
C104 O101 1.305 . S
C104 O102 1.234 . S
Zn105 O111 1.920 1_654 S
Zn105 O117 1.898 1_655 S
Zn105 O120 1.905 1_554 S
Zn106 O114 1.905 . S
Zn106 O115 1.898 . S
Zn106 O123 1.920 . S
Zn107 O110 2.080 . S
Zn107 O113 2.114 . S
Zn107 O116 2.120 . S
Zn107 O118 2.120 1_556 S
Zn107 O119 2.114 1_455 S
Zn107 O122 2.080 . S
C108 O113 1.166 . S
C108 O114 1.182 . S
C109 O115 1.167 . S
C109 O116 1.299 . S
O110 Zn107 2.080 . S
O110 C124 1.305 . S
O111 Zn105 1.920 1_456 S
O111 C124 1.234 . S
C112 O117 1.167 . S
C112 O118 1.299 . S
O113 Zn107 2.114 . S
O113 C108 1.166 . S
O114 Zn106 1.905 . S
O114 C108 1.182 . S
O115 Zn106 1.898 . S
O115 C109 1.167 . S
O116 Zn107 2.120 . S
O116 C109 1.299 . S
O117 Zn105 1.898 1_455 S
O117 C112 1.167 . S
O118 Zn107 2.120 1_554 S
O118 C112 1.299 . S
O119 Zn107 2.114 1_655 S
O119 C121 1.166 . S
O120 Zn105 1.905 1_556 S
O120 C121 1.182 . S
C121 O119 1.166 . S
C121 O120 1.182 . S
O122 Zn107 2.080 . S
O122 C125 1.305 . S
O123 Zn106 1.920 . S
O123 C125 1.234 . S
C124 O110 1.305 . S
C124 O111 1.234 . S
C125 O122 1.305 . S
C125 O123 1.234 . S
Zn126 O132 1.920 . S
Zn126 O138 1.898 . S
Zn126 O141 1.905 . S
Zn127 O135 1.905 . S
Zn127 O136 1.898 . S
Zn127 O144 1.920 . S
Zn128 O131 2.080 . S
Zn128 O134 2.114 . S
Zn128 O137 2.120 . S
Zn128 O139 2.120 . S
Zn128 O140 2.114 . S
Zn128 O143 2.080 . S
C129 O134 1.166 . S
C129 O135 1.182 . S
C130 O136 1.167 . S
C130 O137 1.299 . S
O131 Zn128 2.080 . S
O131 C145 1.305 . S
O132 Zn126 1.920 . S
O132 C145 1.234 . S
C133 O138 1.167 . S
C133 O139 1.299 . S
O134 Zn128 2.114 . S
O134 C129 1.166 . S
O135 Zn127 1.905 . S
O135 C129 1.182 . S
O136 Zn127 1.898 . S
O136 C130 1.167 . S
O137 Zn128 2.120 . S
O137 C130 1.299 . S
O138 Zn126 1.898 . S
O138 C133 1.167 . S
O139 Zn128 2.120 . S
O139 C133 1.299 . S
O140 Zn128 2.114 . S
O140 C142 1.166 . S
O141 Zn126 1.905 . S
O141 C142 1.182 . S
C142 O140 1.166 . S
C142 O141 1.182 . S
O143 Zn128 2.080 . S
O143 C146 1.305 . S
O144 Zn127 1.920 . S
O144 C146 1.234 . S
C145 O131 1.305 . S
C145 O132 1.234 . S
C146 O143 1.305 . S
C146 O144 1.234 . S
Zn147 O153 1.920 1_454 S
Zn147 O159 1.898 1_445 S
Zn147 O162 1.905 1_544 S
Zn148 O156 1.905 . S
Zn148 O157 1.898 . S
Zn148 O165 1.920 . S
Zn149 O152 2.080 1_565 S
Zn149 O155 2.114 . S
Zn149 O158 2.120 . S
Zn149 O160 2.120 1_556 S
Zn149 O161 2.114 1_655 S
Zn149 O164 2.080 . S
C150 O155 1.166 . S
C150 O156 1.182 . S
C151 O157 1.167 . S
C151 O158 1.299 . S
O152 Zn149 2.080 1_545 S
O152 C166 1.305 . S
O153 Zn147 1.920 1_656 S
O153 C166 1.234 . S
C154 O159 1.167 . S
C154 O160 1.299 . S
O155 Zn149 2.114 . S
O155 C150 1.166 . S
O156 Zn148 1.905 . S
O156 C150 1.182 . S
O157 Zn148 1.898 . S
O157 C151 1.167 . S
O158 Zn149 2.120 . S
O158 C151 1.299 . S
O159 Zn147 1.898 1_665 S
O159 C154 1.167 . S
O160 Zn149 2.120 1_554 S
O160 C154 1.299 . S
O161 Zn149 2.114 1_455 S
O161 C163 1.166 . S
O162 Zn147 1.905 1_566 S
O162 C163 1.182 . S
C163 O161 1.166 . S
C163 O162 1.182 . S
O164 Zn149 2.080 . S
O164 C167 1.305 . S
O165 Zn148 1.920 . S
O165 C167 1.234 . S
C166 O152 1.305 . S
C166 O153 1.234 . S
C167 O164 1.305 . S
C167 O165 1.234 . S
Zn168 O174 1.920 . S
Zn168 O180 1.898 . S
Zn168 O183 1.905 . S
Zn169 O177 1.905 . S
Zn169 O178 1.898 . S
Zn169 O186 1.920 . S
Zn170 O173 2.080 . S
Zn170 O176 2.114 . S
Zn170 O179 2.120 . S
Zn170 O181 2.120 . S
Zn170 O182 2.114 . S
Zn170 O185 2.080 . S
C171 O176 1.166 . S
C171 O177 1.182 . S
C172 O178 1.167 . S
C172 O179 1.299 . S
O173 Zn170 2.080 . S
O173 C187 1.305 . S
O174 Zn168 1.920 . S
O174 C187 1.234 . S
C175 O180 1.167 . S
C175 O181 1.299 . S
O176 Zn170 2.114 . S
O176 C171 1.166 . S
O177 Zn169 1.905 . S
O177 C171 1.182 . S
O178 Zn169 1.898 . S
O178 C172 1.167 . S
O179 Zn170 2.120 . S
O179 C172 1.299 . S
O180 Zn168 1.898 . S
O180 C175 1.167 . S
O181 Zn170 2.120 . S
O181 C175 1.299 . S
O182 Zn170 2.114 . S
O182 C184 1.166 . S
O183 Zn168 1.905 . S
O183 C184 1.182 . S
C184 O182 1.166 . S
C184 O183 1.182 . S
O185 Zn170 2.080 . S
O185 C188 1.305 . S
O186 Zn169 1.920 . S
O186 C188 1.234 . S
C187 O173 1.305 . S
C187 O174 1.234 . S
C188 O185 1.305 . S
C188 O186 1.234 . S
Zn189 O195 1.920 . S
Zn189 O201 1.898 . S
Zn189 O204 1.905 . S
Zn190 O198 1.905 . S
Zn190 O199 1.898 . S
Zn190 O207 1.920 . S
Zn191 O194 2.080 . S
Zn191 O197 2.114 . S
Zn191 O200 2.120 . S
Zn191 O202 2.120 . S
Zn191 O203 2.114 . S
Zn191 O206 2.080 . S
C192 O197 1.166 . S
C192 O198 1.182 . S
C193 O199 1.167 . S
C193 O200 1.299 . S
O194 Zn191 2.080 . S
O194 C208 1.305 . S
O195 Zn189 1.920 . S
O195 C208 1.234 . S
C196 O201 1.167 . S
C196 O202 1.299 . S
O197 Zn191 2.114 . S
O197 C192 1.166 . S
O198 Zn190 1.905 . S
O198 C192 1.182 . S
O199 Zn190 1.898 . S
O199 C193 1.167 . S
O200 Zn191 2.120 . S
O200 C193 1.299 . S
O201 Zn189 1.898 . S
O201 C196 1.167 . S
O202 Zn191 2.120 . S
O202 C196 1.299 . S
O203 Zn191 2.114 . S
O203 C205 1.166 . S
O204 Zn189 1.905 . S
O204 C205 1.182 . S
C205 O203 1.166 . S
C205 O204 1.182 . S
O206 Zn191 2.080 . S
O206 C209 1.305 . S
O207 Zn190 1.920 . S
O207 C209 1.234 . S
C208 O194 1.305 . S
C208 O195 1.234 . S
C209 O206 1.305 . S
C209 O207 1.234 . S
Zn210 O216 1.920 1_655 S
Zn210 O222 1.898 . S
Zn210 O225 1.905 1_655 S
Zn211 O219 1.905 . S
Zn211 O220 1.898 . S
Zn211 O228 1.920 . S
Zn212 O215 2.080 . S
Zn212 O218 2.114 . S
Zn212 O221 2.120 . S
Zn212 O223 2.120 1_455 S
Zn212 O224 2.114 . S
Zn212 O227 2.080 . S
C213 O218 1.166 . S
C213 O219 1.182 . S
C214 O220 1.167 . S
C214 O221 1.299 . S
O215 Zn212 2.080 . S
O215 C229 1.305 . S
O216 Zn210 1.920 1_455 S
O216 C229 1.234 . S
C217 O222 1.167 . S
C217 O223 1.299 . S
O218 Zn212 2.114 . S
O218 C213 1.166 . S
O219 Zn211 1.905 . S
O219 C213 1.182 . S
O220 Zn211 1.898 . S
O220 C214 1.167 . S
O221 Zn212 2.120 . S
O221 C214 1.299 . S
O222 Zn210 1.898 . S
O222 C217 1.167 . S
O223 Zn212 2.120 1_655 S
O223 C217 1.299 . S
O224 Zn212 2.114 . S
O224 C226 1.166 . S
O225 Zn210 1.905 1_455 S
O225 C226 1.182 . S
C226 O224 1.166 . S
C226 O225 1.182 . S
O227 Zn212 2.080 . S
O227 C230 1.305 . S
O228 Zn211 1.920 . S
O228 C230 1.234 . S
C229 O215 1.305 . S
C229 O216 1.234 . S
C230 O227 1.305 . S
C230 O228 1.234 . S
Zn231 O237 1.920 1_465 S
Zn231 O243 1.898 1_565 S
Zn231 O246 1.905 1_455 S
Zn232 O240 1.905 . S
Zn232 O241 1.898 . S
Zn232 O249 1.920 . S
Zn233 O236 2.080 . S
Zn233 O239 2.114 . S
Zn233 O242 2.120 . S
Zn233 O244 2.120 1_655 S
Zn233 O245 2.114 1_545 S
Zn233 O248 2.080 . S
C234 O239 1.166 . S
C234 O240 1.182 . S
C235 O241 1.167 . S
C235 O242 1.299 . S
O236 Zn233 2.080 . S
O236 C250 1.305 . S
O237 Zn231 1.920 1_645 S
O237 C250 1.234 . S
C238 O243 1.167 . S
C238 O244 1.299 . S
O239 Zn233 2.114 . S
O239 C234 1.166 . S
O240 Zn232 1.905 . S
O240 C234 1.182 . S
O241 Zn232 1.898 . S
O241 C235 1.167 . S
O242 Zn233 2.120 . S
O242 C235 1.299 . S
O243 Zn231 1.898 1_545 S
O243 C238 1.167 . S
O244 Zn233 2.120 1_455 S
O244 C238 1.299 . S
O245 Zn233 2.114 1_565 S
O245 C247 1.166 . S
O246 Zn231 1.905 1_655 S
O246 C247 1.182 . S
C247 O245 1.166 . S
C247 O246 1.182 . S
O248 Zn233 2.080 . S
O248 C251 1.305 . S
O249 Zn232 1.920 . S
O249 C251 1.234 . S
C250 O236 1.305 . S
C250 O237 1.234 . S
C251 O248 1.305 . S
C251 O249 1.234 . S
Zn252 O258 1.920 . S
Zn252 O264 1.898 . S
Zn252 O267 1.905 . S
Zn253 O261 1.905 . S
Zn253 O262 1.898 . S
Zn253 O270 1.920 . S
Zn254 O257 2.080 . S
Zn254 O260 2.114 . S
Zn254 O263 2.120 . S
Zn254 O265 2.120 . S
Zn254 O266 2.114 . S
Zn254 O269 2.080 . S
C255 O260 1.166 . S
C255 O261 1.182 . S
C256 O262 1.167 . S
C256 O263 1.299 . S
O257 Zn254 2.080 . S
O257 C271 1.305 . S
O258 Zn252 1.920 . S
O258 C271 1.234 . S
C259 O264 1.167 . S
C259 O265 1.299 . S
O260 Zn254 2.114 . S
O260 C255 1.166 . S
O261 Zn253 1.905 . S
O261 C255 1.182 . S
O262 Zn253 1.898 . S
O262 C256 1.167 . S
O263 Zn254 2.120 . S
O263 C256 1.299 . S
O264 Zn252 1.898 . S
O264 C259 1.167 . S
O265 Zn254 2.120 . S
O265 C259 1.299 . S
O266 Zn254 2.114 . S
O266 C268 1.166 . S
O267 Zn252 1.905 . S
O267 C268 1.182 . S
C268 O266 1.166 . S
C268 O267 1.182 . S
O269 Zn254 2.080 . S
O269 C272 1.305 . S
O270 Zn253 1.920 . S
O270 C272 1.234 . S
C271 O257 1.305 . S
C271 O258 1.234 . S
C272 O269 1.305 . S
C272 O270 1.234 . S
Zn273 O279 1.920 . S
Zn273 O285 1.898 . S
Zn273 O288 1.905 . S
Zn274 O282 1.905 . S
Zn274 O283 1.898 . S
Zn274 O291 1.920 . S
Zn275 O278 2.080 . S
Zn275 O281 2.114 . S
Zn275 O284 2.120 . S
Zn275 O286 2.120 . S
Zn275 O287 2.114 . S
Zn275 O290 2.080 . S
C276 O281 1.166 . S
C276 O282 1.182 . S
C277 O283 1.167 . S
C277 O284 1.299 . S
O278 Zn275 2.080 . S
O278 C292 1.305 . S
O279 Zn273 1.920 . S
O279 C292 1.234 . S
C280 O285 1.167 . S
C280 O286 1.299 . S
O281 Zn275 2.114 . S
O281 C276 1.166 . S
O282 Zn274 1.905 . S
O282 C276 1.182 . S
O283 Zn274 1.898 . S
O283 C277 1.167 . S
O284 Zn275 2.120 . S
O284 C277 1.299 . S
O285 Zn273 1.898 . S
O285 C280 1.167 . S
O286 Zn275 2.120 . S
O286 C280 1.299 . S
O287 Zn275 2.114 . S
O287 C289 1.166 . S
O288 Zn273 1.905 . S
O288 C289 1.182 . S
C289 O287 1.166 . S
C289 O288 1.182 . S
O290 Zn275 2.080 . S
O290 C293 1.305 . S
O291 Zn274 1.920 . S
O291 C293 1.234 . S
C292 O278 1.305 . S
C292 O279 1.234 . S
C293 O290 1.305 . S
C293 O291 1.234 . S
Zn294 O300 1.920 . S
Zn294 O306 1.898 . S
Zn294 O309 1.905 . S
Zn295 O303 1.905 1_565 S
Zn295 O304 1.898 1_565 S
Zn295 O312 1.920 . S
Zn296 O299 2.080 . S
Zn296 O302 2.114 . S
Zn296 O305 2.120 . S
Zn296 O307 2.120 . S
Zn296 O308 2.114 . S
Zn296 O311 2.080 1_545 S
C297 O302 1.166 . S
C297 O303 1.182 . S
C298 O304 1.167 . S
C298 O305 1.299 . S
O299 Zn296 2.080 . S
O299 C313 1.305 . S
O300 Zn294 1.920 . S
O300 C313 1.234 . S
C301 O306 1.167 . S
C301 O307 1.299 . S
O302 Zn296 2.114 . S
O302 C297 1.166 . S
O303 Zn295 1.905 1_545 S
O303 C297 1.182 . S
O304 Zn295 1.898 1_545 S
O304 C298 1.167 . S
O305 Zn296 2.120 . S
O305 C298 1.299 . S
O306 Zn294 1.898 . S
O306 C301 1.167 . S
O307 Zn296 2.120 . S
O307 C301 1.299 . S
O308 Zn296 2.114 . S
O308 C310 1.166 . S
O309 Zn294 1.905 . S
O309 C310 1.182 . S
C310 O308 1.166 . S
C310 O309 1.182 . S
O311 Zn296 2.080 1_565 S
O311 C314 1.305 . S
O312 Zn295 1.920 . S
O312 C314 1.234 . S
C313 O299 1.305 . S
C313 O300 1.234 . S
C314 O311 1.305 . S
C314 O312 1.234 . S
Zn315 O321 1.920 . S
Zn315 O327 1.898 . S
Zn315 O330 1.905 . S
Zn316 O324 1.905 . S
Zn316 O325 1.898 . S
Zn316 O333 1.920 . S
Zn317 O320 2.080 . S
Zn317 O323 2.114 . S
Zn317 O326 2.120 . S
Zn317 O328 2.120 . S
Zn317 O329 2.114 . S
Zn317 O332 2.080 . S
C318 O323 1.166 . S
C318 O324 1.182 . S
C319 O325 1.167 . S
C319 O326 1.299 . S
O320 Zn317 2.080 . S
O320 C334 1.305 . S
O321 Zn315 1.920 . S
O321 C334 1.234 . S
C322 O327 1.167 . S
C322 O328 1.299 . S
O323 Zn317 2.114 . S
O323 C318 1.166 . S
O324 Zn316 1.905 . S
O324 C318 1.182 . S
O325 Zn316 1.898 . S
O325 C319 1.167 . S
O326 Zn317 2.120 . S
O326 C319 1.299 . S
O327 Zn315 1.898 . S
O327 C322 1.167 . S
O328 Zn317 2.120 . S
O328 C322 1.299 . S
O329 Zn317 2.114 . S
O329 C331 1.166 . S
O330 Zn315 1.905 . S
O330 C331 1.182 . S
C331 O329 1.166 . S
C331 O330 1.182 . S
O332 Zn317 2.080 . S
O332 C335 1.305 . S
O333 Zn316 1.920 . S
O333 C335 1.234 . S
C334 O320 1.305 . S
C334 O321 1.234 . S
C335 O332 1.305 . S
C335 O333 1.234 . S
C336 O363 1.312 . S
C336 O364 1.208 . S
C337 O358 1.331 . S
C337 O361 1.244 . S
C338 O360 1.264 . S
C338 O362 1.273 . S
Mg339 O341 1.936 1_455 S
Mg339 O348 2.081 1_455 S
Mg339 O350 2.023 . S
Mg339 O354 2.031 . S
Mg339 O363 2.291 . S
Mg340 O341 1.963 . S
Mg340 O351 1.942 . S
Mg340 O352 1.955 1_655 S
Mg340 O359 1.986 . S
O341 Mg339 1.936 1_655 S
O341 Mg340 1.963 . S
O341 Mg342 1.915 . S
Mg342 O341 1.915 . S
Mg342 O343 1.915 1_655 S
Mg342 O347 2.013 1_655 S
Mg342 O353 2.114 . S
Mg342 O357 2.013 . S
Mg342 O363 2.114 1_655 S
O343 Mg342 1.915 1_455 S
O343 Mg344 1.936 . S
O343 Mg345 1.963 1_456 S
Mg344 O343 1.936 . S
Mg344 O353 2.291 1_455 S
Mg344 O358 2.081 1_556 S
Mg344 O360 2.023 1_456 S
Mg344 O364 2.031 . S
Mg345 O343 1.963 1_654 S
Mg345 O349 1.986 1_654 S
Mg345 O361 1.942 1_655 S
Mg345 O362 1.955 . S
C346 O357 1.191 . S
C346 O359 1.307 . S
O347 Mg342 2.013 1_455 S
O347 C366 1.191 . S
O348 Mg339 2.081 1_655 S
O348 C356 1.331 . S
O349 Mg345 1.986 1_456 S
O349 C366 1.307 . S
O350 Mg339 2.023 . S
O350 C365 1.264 . S
O351 Mg340 1.942 . S
O351 C356 1.244 . S
O352 Mg340 1.955 1_455 S
O352 C365 1.273 . S
O353 Mg342 2.114 . S
O353 Mg344 2.291 1_655 S
O353 C355 1.312 . S
O354 Mg339 2.031 . S
O354 C355 1.208 1_455 S
C355 O353 1.312 . S
C355 O354 1.208 1_655 S
C356 O348 1.331 . S
C356 O351 1.244 . S
O357 Mg342 2.013 . S
O357 C346 1.191 . S
O358 C337 1.331 . S
O358 Mg344 2.081 1_554 S
O359 Mg340 1.986 . S
O359 C346 1.307 . S
O360 C338 1.264 . S
O360 Mg344 2.023 1_654 S
O361 C337 1.244 . S
O361 Mg345 1.942 1_455 S
O362 C338 1.273 . S
O362 Mg345 1.955 . S
O363 C336 1.312 . S
O363 Mg339 2.291 . S
O363 Mg342 2.114 1_455 S
O364 C336 1.208 . S
O364 Mg344 2.031 . S
C365 O350 1.264 . S
C365 O352 1.273 . S
C366 O347 1.191 . S
C366 O349 1.307 . S
C367 O394 1.312 . S
C367 O395 1.208 . S
C368 O389 1.331 . S
C368 O392 1.244 . S
C369 O391 1.264 . S
C369 O393 1.273 . S
Mg370 O372 1.936 . S
Mg370 O379 2.081 . S
Mg370 O381 2.023 . S
Mg370 O385 2.031 . S
Mg370 O394 2.291 . S
Mg371 O372 1.963 . S
Mg371 O382 1.942 . S
Mg371 O383 1.955 . S
Mg371 O390 1.986 . S
O372 Mg370 1.936 . S
O372 Mg371 1.963 . S
O372 Mg373 1.915 . S
Mg373 O372 1.915 . S
Mg373 O374 1.915 . S
Mg373 O378 2.013 . S
Mg373 O384 2.114 . S
Mg373 O388 2.013 . S
Mg373 O394 2.114 . S
O374 Mg373 1.915 . S
O374 Mg375 1.936 . S
O374 Mg376 1.963 . S
Mg375 O374 1.936 . S
Mg375 O384 2.291 . S
Mg375 O389 2.081 . S
Mg375 O391 2.023 . S
Mg375 O395 2.031 . S
Mg376 O374 1.963 . S
Mg376 O380 1.986 . S
Mg376 O392 1.942 . S
Mg376 O393 1.955 . S
C377 O388 1.191 . S
C377 O390 1.307 . S
O378 Mg373 2.013 . S
O378 C397 1.191 . S
O379 Mg370 2.081 . S
O379 C387 1.331 . S
O380 Mg376 1.986 . S
O380 C397 1.307 . S
O381 Mg370 2.023 . S
O381 C396 1.264 . S
O382 Mg371 1.942 . S
O382 C387 1.244 . S
O383 Mg371 1.955 . S
O383 C396 1.273 . S
O384 Mg373 2.114 . S
O384 Mg375 2.291 . S
O384 C386 1.312 . S
O385 Mg370 2.031 . S
O385 C386 1.208 . S
C386 O384 1.312 . S
C386 O385 1.208 . S
C387 O379 1.331 . S
C387 O382 1.244 . S
O388 Mg373 2.013 . S
O388 C377 1.191 . S
O389 C368 1.331 . S
O389 Mg375 2.081 . S
O390 Mg371 1.986 . S
O390 C377 1.307 . S
O391 C369 1.264 . S
O391 Mg375 2.023 . S
O392 C368 1.244 . S
O392 Mg376 1.942 . S
O393 C369 1.273 . S
O393 Mg376 1.955 . S
O394 C367 1.312 . S
O394 Mg370 2.291 . S
O394 Mg373 2.114 . S
O395 C367 1.208 . S
O395 Mg375 2.031 . S
C396 O381 1.264 . S
C396 O383 1.273 . S
C397 O378 1.191 . S
C397 O380 1.307 . S
C398 O425 1.312 . S
C398 O426 1.208 1_655 S
C399 O420 1.331 . S
C399 O423 1.244 . S
C400 O422 1.264 . S
C400 O424 1.273 . S
Mg401 O403 1.936 . S
Mg401 O410 2.081 . S
Mg401 O412 2.023 1_455 S
Mg401 O416 2.031 . S
Mg401 O425 2.291 1_455 S
Mg402 O403 1.963 1_655 S
Mg402 O413 1.942 1_655 S
Mg402 O414 1.955 . S
Mg402 O421 1.986 1_655 S
O403 Mg401 1.936 . S
O403 Mg402 1.963 1_455 S
O403 Mg404 1.915 1_455 S
Mg404 O403 1.915 1_655 S
Mg404 O405 1.915 . S
Mg404 O409 2.013 . S
Mg404 O415 2.114 1_655 S
Mg404 O419 2.013 1_655 S
Mg404 O425 2.114 . S
O405 Mg404 1.915 . S
O405 Mg406 1.936 1_655 S
O405 Mg407 1.963 . S
Mg406 O405 1.936 1_455 S
Mg406 O415 2.291 . S
Mg406 O420 2.081 1_455 S
Mg406 O422 2.023 . S
Mg406 O426 2.031 . S
Mg407 O405 1.963 . S
Mg407 O411 1.986 . S
Mg407 O423 1.942 . S
Mg407 O424 1.955 1_655 S
C408 O419 1.191 . S
C408 O421 1.307 . S
O409 Mg404 2.013 . S
O409 C428 1.191 . S
O410 Mg401 2.081 . S
O410 C418 1.331 . S
O411 Mg407 1.986 . S
O411 C428 1.307 . S
O412 Mg401 2.023 1_655 S
O412 C427 1.264 . S
O413 Mg402 1.942 1_455 S
O413 C418 1.244 . S
O414 Mg402 1.955 . S
O414 C427 1.273 . S
O415 Mg404 2.114 1_455 S
O415 Mg406 2.291 . S
O415 C417 1.312 . S
O416 Mg401 2.031 . S
O416 C417 1.208 . S
C417 O415 1.312 . S
C417 O416 1.208 . S
C418 O410 1.331 . S
C418 O413 1.244 . S
O419 Mg404 2.013 1_455 S
O419 C408 1.191 . S
O420 C399 1.331 . S
O420 Mg406 2.081 1_655 S
O421 Mg402 1.986 1_455 S
O421 C408 1.307 . S
O422 C400 1.264 . S
O422 Mg406 2.023 . S
O423 C399 1.244 . S
O423 Mg407 1.942 . S
O424 C400 1.273 . S
O424 Mg407 1.955 1_455 S
O425 C398 1.312 . S
O425 Mg401 2.291 1_655 S
O425 Mg404 2.114 . S
O426 C398 1.208 1_455 S
O426 Mg406 2.031 . S
C427 O412 1.264 . S
C427 O414 1.273 . S
C428 O409 1.191 . S
C428 O411 1.307 . S
C429 O456 1.312 . S
C429 O457 1.208 1_565 S
C430 O451 1.331 . S
C430 O454 1.244 . S
C431 O453 1.264 . S
C431 O455 1.273 . S
Mg432 O434 1.936 . S
Mg432 O441 2.081 1_655 S
Mg432 O443 2.023 1_645 S
Mg432 O447 2.031 . S
Mg432 O456 2.291 1_545 S
Mg433 O434 1.963 1_465 S
Mg433 O444 1.942 1_565 S
Mg433 O445 1.955 . S
Mg433 O452 1.986 1_465 S
O434 Mg432 1.936 . S
O434 Mg433 1.963 1_645 S
O434 Mg435 1.915 1_545 S
Mg435 O434 1.915 1_565 S
Mg435 O436 1.915 . S
Mg435 O440 2.013 . S
Mg435 O446 2.114 1_565 S
Mg435 O450 2.013 1_565 S
Mg435 O456 2.114 . S
O436 Mg435 1.915 . S
O436 Mg437 1.936 1_565 S
O436 Mg438 1.963 . S
Mg437 O436 1.936 1_545 S
Mg437 O446 2.291 . S
Mg437 O451 2.081 1_545 S
Mg437 O453 2.023 . S
Mg437 O457 2.031 . S
Mg438 O436 1.963 . S
Mg438 O442 1.986 . S
Mg438 O454 1.942 . S
Mg438 O455 1.955 1_565 S
C439 O450 1.191 . S
C439 O452 1.307 . S
O440 Mg435 2.013 . S
O440 C459 1.191 . S
O441 Mg432 2.081 1_455 S
O441 C449 1.331 . S
O442 Mg438 1.986 . S
O442 C459 1.307 . S
O443 Mg432 2.023 1_465 S
O443 C458 1.264 . S
O444 Mg433 1.942 1_545 S
O444 C449 1.244 . S
O445 Mg433 1.955 . S
O445 C458 1.273 . S
O446 Mg435 2.114 1_545 S
O446 Mg437 2.291 . S
O446 C448 1.312 . S
O447 Mg432 2.031 . S
O447 C448 1.208 . S
C448 O446 1.312 . S
C448 O447 1.208 . S
C449 O441 1.331 . S
C449 O444 1.244 . S
O450 Mg435 2.013 1_545 S
O450 C439 1.191 . S
O451 C430 1.331 . S
O451 Mg437 2.081 1_565 S
O452 Mg433 1.986 1_645 S
O452 C439 1.307 . S
O453 C431 1.264 . S
O453 Mg437 2.023 . S
O454 C430 1.244 . S
O454 Mg438 1.942 . S
O455 C431 1.273 . S
O455 Mg438 1.955 1_545 S
O456 C429 1.312 . S
O456 Mg432 2.291 1_565 S
O456 Mg435 2.114 . S
O457 C429 1.208 1_545 S
O457 Mg437 2.031 . S
C458 O443 1.264 . S
C458 O445 1.273 . S
C459 O440 1.191 . S
C459 O442 1.307 . S
C460 O487 1.312 . S
C460 O488 1.208 . S
C461 O482 1.331 . S
C461 O485 1.244 . S
C462 O484 1.264 . S
C462 O486 1.273 . S
Mg463 O465 1.936 1_554 S
Mg463 O472 2.081 1_554 S
Mg463 O474 2.023 . S
Mg463 O478 2.031 . S
Mg463 O487 2.291 . S
Mg464 O465 1.963 . S
Mg464 O475 1.942 . S
Mg464 O476 1.955 1_556 S
Mg464 O483 1.986 . S
O465 Mg463 1.936 1_556 S
O465 Mg464 1.963 . S
O465 Mg466 1.915 . S
Mg466 O465 1.915 . S
Mg466 O467 1.915 1_556 S
Mg466 O471 2.013 1_556 S
Mg466 O477 2.114 . S
Mg466 O481 2.013 . S
Mg466 O487 2.114 1_556 S
O467 Mg466 1.915 1_554 S
O467 Mg468 1.936 . S
O467 Mg469 1.963 1_564 S
Mg468 O467 1.936 . S
Mg468 O477 2.291 1_554 S
Mg468 O482 2.081 1_565 S
Mg468 O484 2.023 1_564 S
Mg468 O488 2.031 . S
Mg469 O467 1.963 1_546 S
Mg469 O473 1.986 1_546 S
Mg469 O485 1.942 1_556 S
Mg469 O486 1.955 . S
C470 O481 1.191 . S
C470 O483 1.307 . S
O471 Mg466 2.013 1_554 S
O471 C490 1.191 . S
O472 Mg463 2.081 1_556 S
O472 C480 1.331 . S
O473 Mg469 1.986 1_564 S
O473 C490 1.307 . S
O474 Mg463 2.023 . S
O474 C489 1.264 . S
O475 Mg464 1.942 . S
O475 C480 1.244 . S
O476 Mg464 1.955 1_554 S
O476 C489 1.273 . S
O477 Mg466 2.114 . S
O477 Mg468 2.291 1_556 S
O477 C479 1.312 . S
O478 Mg463 2.031 . S
O478 C479 1.208 1_554 S
C479 O477 1.312 . S
C479 O478 1.208 1_556 S
C480 O472 1.331 . S
C480 O475 1.244 . S
O481 Mg466 2.013 . S
O481 C470 1.191 . S
O482 C461 1.331 . S
O482 Mg468 2.081 1_545 S
O483 Mg464 1.986 . S
O483 C470 1.307 . S
O484 C462 1.264 . S
O484 Mg468 2.023 1_546 S
O485 C461 1.244 . S
O485 Mg469 1.942 1_554 S
O486 C462 1.273 . S
O486 Mg469 1.955 . S
O487 C460 1.312 . S
O487 Mg463 2.291 . S
O487 Mg466 2.114 1_554 S
O488 C460 1.208 . S
O488 Mg468 2.031 . S
C489 O474 1.264 . S
C489 O476 1.273 . S
C490 O471 1.191 . S
C490 O473 1.307 . S
C491 O518 1.312 . S
C491 O519 1.208 . S
C492 O513 1.331 . S
C492 O516 1.244 . S
C493 O515 1.264 . S
C493 O517 1.273 . S
Mg494 O496 1.936 . S
Mg494 O503 2.081 . S
Mg494 O505 2.023 . S
Mg494 O509 2.031 . S
Mg494 O518 2.291 . S
Mg495 O496 1.963 . S
Mg495 O506 1.942 . S
Mg495 O507 1.955 . S
Mg495 O514 1.986 . S
O496 Mg494 1.936 . S
O496 Mg495 1.963 . S
O496 Mg497 1.915 . S
Mg497 O496 1.915 . S
Mg497 O498 1.915 . S
Mg497 O502 2.013 . S
Mg497 O508 2.114 . S
Mg497 O512 2.013 . S
Mg497 O518 2.114 . S
O498 Mg497 1.915 . S
O498 Mg499 1.936 . S
O498 Mg500 1.963 1_455 S
Mg499 O498 1.936 . S
Mg499 O508 2.291 . S
Mg499 O513 2.081 1_455 S
Mg499 O515 2.023 1_455 S
Mg499 O519 2.031 . S
Mg500 O498 1.963 1_655 S
Mg500 O504 1.986 1_655 S
Mg500 O516 1.942 . S
Mg500 O517 1.955 . S
C501 O512 1.191 . S
C501 O514 1.307 . S
O502 Mg497 2.013 . S
O502 C521 1.191 . S
O503 Mg494 2.081 . S
O503 C511 1.331 . S
O504 Mg500 1.986 1_455 S
O504 C521 1.307 . S
O505 Mg494 2.023 . S
O505 C520 1.264 . S
O506 Mg495 1.942 . S
O506 C511 1.244 . S
O507 Mg495 1.955 . S
O507 C520 1.273 . S
O508 Mg497 2.114 . S
O508 Mg499 2.291 . S
O508 C510 1.312 . S
O509 Mg494 2.031 . S
O509 C510 1.208 . S
C510 O508 1.312 . S
C510 O509 1.208 . S
C511 O503 1.331 . S
C511 O506 1.244 . S
O512 Mg497 2.013 . S
O512 C501 1.191 . S
O513 C492 1.331 . S
O513 Mg499 2.081 1_655 S
O514 Mg495 1.986 . S
O514 C501 1.307 . S
O515 C493 1.264 . S
O515 Mg499 2.023 1_655 S
O516 C492 1.244 . S
O516 Mg500 1.942 . S
O517 C493 1.273 . S
O517 Mg500 1.955 . S
O518 C491 1.312 . S
O518 Mg494 2.291 . S
O518 Mg497 2.114 . S
O519 C491 1.208 . S
O519 Mg499 2.031 . S
C520 O505 1.264 . S
C520 O507 1.273 . S
C521 O502 1.191 . S
C521 O504 1.307 . S
C522 O549 1.312 . S
C522 O550 1.208 1_554 S
C523 O544 1.331 . S
C523 O547 1.244 . S
C524 O546 1.264 . S
C524 O548 1.273 . S
Mg525 O527 1.936 . S
Mg525 O534 2.081 . S
Mg525 O536 2.023 1_556 S
Mg525 O540 2.031 . S
Mg525 O549 2.291 1_556 S
Mg526 O527 1.963 1_554 S
Mg526 O537 1.942 1_554 S
Mg526 O538 1.955 . S
Mg526 O545 1.986 1_554 S
O527 Mg525 1.936 . S
O527 Mg526 1.963 1_556 S
O527 Mg528 1.915 1_556 S
Mg528 O527 1.915 1_554 S
Mg528 O529 1.915 . S
Mg528 O533 2.013 . S
Mg528 O539 2.114 1_554 S
Mg528 O543 2.013 1_554 S
Mg528 O549 2.114 . S
O529 Mg528 1.915 . S
O529 Mg530 1.936 1_554 S
O529 Mg531 1.963 . S
Mg530 O529 1.936 1_556 S
Mg530 O539 2.291 . S
Mg530 O544 2.081 1_556 S
Mg530 O546 2.023 . S
Mg530 O550 2.031 . S
Mg531 O529 1.963 . S
Mg531 O535 1.986 . S
Mg531 O547 1.942 . S
Mg531 O548 1.955 1_554 S
C532 O543 1.191 . S
C532 O545 1.307 . S
O533 Mg528 2.013 . S
O533 C552 1.191 . S
O534 Mg525 2.081 . S
O534 C542 1.331 . S
O535 Mg531 1.986 . S
O535 C552 1.307 . S
O536 Mg525 2.023 1_554 S
O536 C551 1.264 . S
O537 Mg526 1.942 1_556 S
O537 C542 1.244 . S
O538 Mg526 1.955 . S
O538 C551 1.273 . S
O539 Mg528 2.114 1_556 S
O539 Mg530 2.291 . S
O539 C541 1.312 . S
O540 Mg525 2.031 . S
O540 C541 1.208 . S
C541 O539 1.312 . S
C541 O540 1.208 . S
C542 O534 1.331 . S
C542 O537 1.244 . S
O543 Mg528 2.013 1_556 S
O543 C532 1.191 . S
O544 C523 1.331 . S
O544 Mg530 2.081 1_554 S
O545 Mg526 1.986 1_556 S
O545 C532 1.307 . S
O546 C524 1.264 . S
O546 Mg530 2.023 . S
O547 C523 1.244 . S
O547 Mg531 1.942 . S
O548 C524 1.273 . S
O548 Mg531 1.955 1_556 S
O549 C522 1.312 . S
O549 Mg525 2.291 1_554 S
O549 Mg528 2.114 . S
O550 C522 1.208 1_556 S
O550 Mg530 2.031 . S
C551 O536 1.264 . S
C551 O538 1.273 . S
C552 O533 1.191 . S
C552 O535 1.307 . S
C553 O580 1.312 . S
C553 O581 1.208 . S
C554 O575 1.331 . S
C554 O578 1.244 . S
C555 O577 1.264 . S
C555 O579 1.273 . S
Mg556 O558 1.936 . S
Mg556 O565 2.081 1_545 S
Mg556 O567 2.023 1_545 S
Mg556 O571 2.031 . S
Mg556 O580 2.291 . S
Mg557 O558 1.963 1_565 S
Mg557 O568 1.942 . S
Mg557 O569 1.955 . S
Mg557 O576 1.986 1_565 S
O558 Mg556 1.936 . S
O558 Mg557 1.963 1_545 S
O558 Mg559 1.915 . S
Mg559 O558 1.915 . S
Mg559 O560 1.915 . S
Mg559 O564 2.013 . S
Mg559 O570 2.114 . S
Mg559 O574 2.013 . S
Mg559 O580 2.114 . S
O560 Mg559 1.915 . S
O560 Mg561 1.936 . S
O560 Mg562 1.963 . S
Mg561 O560 1.936 . S
Mg561 O570 2.291 . S
Mg561 O575 2.081 . S
Mg561 O577 2.023 . S
Mg561 O581 2.031 . S
Mg562 O560 1.963 . S
Mg562 O566 1.986 . S
Mg562 O578 1.942 . S
Mg562 O579 1.955 . S
C563 O574 1.191 . S
C563 O576 1.307 . S
O564 Mg559 2.013 . S
O564 C583 1.191 . S
O565 Mg556 2.081 1_565 S
O565 C573 1.331 . S
O566 Mg562 1.986 . S
O566 C583 1.307 . S
O567 Mg556 2.023 1_565 S
O567 C582 1.264 . S
O568 Mg557 1.942 . S
O568 C573 1.244 . S
O569 Mg557 1.955 . S
O569 C582 1.273 . S
O570 Mg559 2.114 . S
O570 Mg561 2.291 . S
O570 C572 1.312 . S
O571 Mg556 2.031 . S
O571 C572 1.208 . S
C572 O570 1.312 . S
C572 O571 1.208 . S
C573 O565 1.331 . S
C573 O568 1.244 . S
O574 Mg559 2.013 . S
O574 C563 1.191 . S
O575 C554 1.331 . S
O575 Mg561 2.081 . S
O576 Mg557 1.986 1_545 S
O576 C563 1.307 . S
O577 C555 1.264 . S
O577 Mg561 2.023 . S
O578 C554 1.244 . S
O578 Mg562 1.942 . S
O579 C555 1.273 . S
O579 Mg562 1.955 . S
O580 C553 1.312 . S
O580 Mg556 2.291 . S
O580 Mg559 2.114 . S
O581 C553 1.208 . S
O581 Mg561 2.031 . S
C582 O567 1.264 . S
C582 O569 1.273 . S
C583 O564 1.191 . S
C583 O566 1.307 . S
C584 O611 1.312 . S
C584 O612 1.208 . S
C585 O606 1.331 . S
C585 O609 1.244 . S
C586 O608 1.264 . S
C586 O610 1.273 . S
Mg587 O589 1.936 . S
Mg587 O596 2.081 . S
Mg587 O598 2.023 . S
Mg587 O602 2.031 . S
Mg587 O611 2.291 . S
Mg588 O589 1.963 . S
Mg588 O599 1.942 . S
Mg588 O600 1.955 . S
Mg588 O607 1.986 . S
O589 Mg587 1.936 . S
O589 Mg588 1.963 . S
O589 Mg590 1.915 . S
Mg590 O589 1.915 . S
Mg590 O591 1.915 . S
Mg590 O595 2.013 . S
Mg590 O601 2.114 . S
Mg590 O605 2.013 . S
Mg590 O611 2.114 . S
O591 Mg590 1.915 . S
O591 Mg592 1.936 . S
O591 Mg593 1.963 . S
Mg592 O591 1.936 . S
Mg592 O601 2.291 . S
Mg592 O606 2.081 . S
Mg592 O608 2.023 . S
Mg592 O612 2.031 . S
Mg593 O591 1.963 . S
Mg593 O597 1.986 . S
Mg593 O609 1.942 . S
Mg593 O610 1.955 . S
C594 O605 1.191 . S
C594 O607 1.307 . S
O595 Mg590 2.013 . S
O595 C614 1.191 . S
O596 Mg587 2.081 . S
O596 C604 1.331 . S
O597 Mg593 1.986 . S
O597 C614 1.307 . S
O598 Mg587 2.023 . S
O598 C613 1.264 . S
O599 Mg588 1.942 . S
O599 C604 1.244 . S
O600 Mg588 1.955 . S
O600 C613 1.273 . S
O601 Mg590 2.114 . S
O601 Mg592 2.291 . S
O601 C603 1.312 . S
O602 Mg587 2.031 . S
O602 C603 1.208 . S
C603 O601 1.312 . S
C603 O602 1.208 . S
C604 O596 1.331 . S
C604 O599 1.244 . S
O605 Mg590 2.013 . S
O605 C594 1.191 . S
O606 C585 1.331 . S
O606 Mg592 2.081 . S
O607 Mg588 1.986 . S
O607 C594 1.307 . S
O608 C586 1.264 . S
O608 Mg592 2.023 . S
O609 C585 1.244 . S
O609 Mg593 1.942 . S
O610 C586 1.273 . S
O610 Mg593 1.955 . S
O611 C584 1.312 . S
O611 Mg587 2.291 . S
O611 Mg590 2.114 . S
O612 C584 1.208 . S
O612 Mg592 2.031 . S
C613 O598 1.264 . S
C613 O600 1.273 . S
C614 O595 1.191 . S
C614 O597 1.307 . S
C615 O642 1.312 . S
C615 O643 1.208 . S
C616 O637 1.331 . S
C616 O640 1.244 . S
C617 O639 1.264 . S
C617 O641 1.273 . S
Mg618 O620 1.936 . S
Mg618 O627 2.081 . S
Mg618 O629 2.023 . S
Mg618 O633 2.031 . S
Mg618 O642 2.291 . S
Mg619 O620 1.963 . S
Mg619 O630 1.942 . S
Mg619 O631 1.955 . S
Mg619 O638 1.986 . S
O620 Mg618 1.936 . S
O620 Mg619 1.963 . S
O620 Mg621 1.915 . S
Mg621 O620 1.915 . S
Mg621 O622 1.915 . S
Mg621 O626 2.013 . S
Mg621 O632 2.114 . S
Mg621 O636 2.013 . S
Mg621 O642 2.114 . S
O622 Mg621 1.915 . S
O622 Mg623 1.936 . S
O622 Mg624 1.963 . S
Mg623 O622 1.936 . S
Mg623 O632 2.291 . S
Mg623 O637 2.081 . S
Mg623 O639 2.023 . S
Mg623 O643 2.031 . S
Mg624 O622 1.963 . S
Mg624 O628 1.986 . S
Mg624 O640 1.942 . S
Mg624 O641 1.955 . S
C625 O636 1.191 . S
C625 O638 1.307 . S
O626 Mg621 2.013 . S
O626 C645 1.191 . S
O627 Mg618 2.081 . S
O627 C635 1.331 . S
O628 Mg624 1.986 . S
O628 C645 1.307 . S
O629 Mg618 2.023 . S
O629 C644 1.264 . S
O630 Mg619 1.942 . S
O630 C635 1.244 . S
O631 Mg619 1.955 . S
O631 C644 1.273 . S
O632 Mg621 2.114 . S
O632 Mg623 2.291 . S
O632 C634 1.312 . S
O633 Mg618 2.031 . S
O633 C634 1.208 . S
C634 O632 1.312 . S
C634 O633 1.208 . S
C635 O627 1.331 . S
C635 O630 1.244 . S
O636 Mg621 2.013 . S
O636 C625 1.191 . S
O637 C616 1.331 . S
O637 Mg623 2.081 . S
O638 Mg619 1.986 . S
O638 C625 1.307 . S
O639 C617 1.264 . S
O639 Mg623 2.023 . S
O640 C616 1.244 . S
O640 Mg624 1.942 . S
O641 C617 1.273 . S
O641 Mg624 1.955 . S
O642 C615 1.312 . S
O642 Mg618 2.291 . S
O642 Mg621 2.114 . S
O643 C615 1.208 . S
O643 Mg623 2.031 . S
C644 O629 1.264 . S
C644 O631 1.273 . S
C645 O626 1.191 . S
C645 O628 1.307 . S
C646 O673 1.312 . S
C646 O674 1.208 1_545 S
C647 O668 1.331 . S
C647 O671 1.244 . S
C648 O670 1.264 . S
C648 O672 1.273 . S
Mg649 O651 1.936 . S
Mg649 O658 2.081 . S
Mg649 O660 2.023 1_565 S
Mg649 O664 2.031 . S
Mg649 O673 2.291 1_565 S
Mg650 O651 1.963 1_545 S
Mg650 O661 1.942 1_545 S
Mg650 O662 1.955 . S
Mg650 O669 1.986 1_545 S
O651 Mg649 1.936 . S
O651 Mg650 1.963 1_565 S
O651 Mg652 1.915 1_565 S
Mg652 O651 1.915 1_545 S
Mg652 O653 1.915 . S
Mg652 O657 2.013 . S
Mg652 O663 2.114 1_545 S
Mg652 O667 2.013 1_545 S
Mg652 O673 2.114 . S
O653 Mg652 1.915 . S
O653 Mg654 1.936 1_545 S
O653 Mg655 1.963 . S
Mg654 O653 1.936 1_565 S
Mg654 O663 2.291 . S
Mg654 O668 2.081 1_565 S
Mg654 O670 2.023 . S
Mg654 O674 2.031 . S
Mg655 O653 1.963 . S
Mg655 O659 1.986 . S
Mg655 O671 1.942 . S
Mg655 O672 1.955 1_545 S
C656 O667 1.191 . S
C656 O669 1.307 . S
O657 Mg652 2.013 . S
O657 C676 1.191 . S
O658 Mg649 2.081 . S
O658 C666 1.331 . S
O659 Mg655 1.986 . S
O659 C676 1.307 . S
O660 Mg649 2.023 1_545 S
O660 C675 1.264 . S
O661 Mg650 1.942 1_565 S
O661 C666 1.244 . S
O662 Mg650 1.955 . S
O662 C675 1.273 . S
O663 Mg652 2.114 1_565 S
O663 Mg654 2.291 . S
O663 C665 1.312 . S
O664 Mg649 2.031 . S
O664 C665 1.208 . S
C665 O663 1.312 . S
C665 O664 1.208 . S
C666 O658 1.331 . S
C666 O661 1.244 . S
O667 Mg652 2.013 1_565 S
O667 C656 1.191 . S
O668 C647 1.331 . S
O668 Mg654 2.081 1_545 S
O669 Mg650 1.986 1_565 S
O669 C656 1.307 . S
O670 C648 1.264 . S
O670 Mg654 2.023 . S
O671 C647 1.244 . S
O671 Mg655 1.942 . S
O672 C648 1.273 . S
O672 Mg655 1.955 1_565 S
O673 C646 1.312 . S
O673 Mg649 2.291 1_545 S
O673 Mg652 2.114 . S
O674 C646 1.208 1_565 S
O674 Mg654 2.031 . S
C675 O660 1.264 . S
C675 O662 1.273 . S
C676 O657 1.191 . S
C676 O659 1.307 . S
C677 O704 1.312 . S
C677 O705 1.208 . S
C678 O699 1.331 . S
C678 O702 1.244 . S
C679 O701 1.264 . S
C679 O703 1.273 . S
Mg680 O682 1.936 . S
Mg680 O689 2.081 1_554 S
Mg680 O691 2.023 1_554 S
Mg680 O695 2.031 . S
Mg680 O704 2.291 . S
Mg681 O682 1.963 1_556 S
Mg681 O692 1.942 . S
Mg681 O693 1.955 . S
Mg681 O700 1.986 1_556 S
O682 Mg680 1.936 . S
O682 Mg681 1.963 1_554 S
O682 Mg683 1.915 . S
Mg683 O682 1.915 . S
Mg683 O684 1.915 . S
Mg683 O688 2.013 . S
Mg683 O694 2.114 . S
Mg683 O698 2.013 . S
Mg683 O704 2.114 . S
O684 Mg683 1.915 . S
O684 Mg685 1.936 . S
O684 Mg686 1.963 . S
Mg685 O684 1.936 . S
Mg685 O694 2.291 . S
Mg685 O699 2.081 . S
Mg685 O701 2.023 . S
Mg685 O705 2.031 . S
Mg686 O684 1.963 . S
Mg686 O690 1.986 . S
Mg686 O702 1.942 . S
Mg686 O703 1.955 . S
C687 O698 1.191 . S
C687 O700 1.307 . S
O688 Mg683 2.013 . S
O688 C707 1.191 . S
O689 Mg680 2.081 1_556 S
O689 C697 1.331 . S
O690 Mg686 1.986 . S
O690 C707 1.307 . S
O691 Mg680 2.023 1_556 S
O691 C706 1.264 . S
O692 Mg681 1.942 . S
O692 C697 1.244 . S
O693 Mg681 1.955 . S
O693 C706 1.273 . S
O694 Mg683 2.114 . S
O694 Mg685 2.291 . S
O694 C696 1.312 . S
O695 Mg680 2.031 . S
O695 C696 1.208 . S
C696 O694 1.312 . S
C696 O695 1.208 . S
C697 O689 1.331 . S
C697 O692 1.244 . S
O698 Mg683 2.013 . S
O698 C687 1.191 . S
O699 C678 1.331 . S
O699 Mg685 2.081 . S
O700 Mg681 1.986 1_554 S
O700 C687 1.307 . S
O701 C679 1.264 . S
O701 Mg685 2.023 . S
O702 C678 1.244 . S
O702 Mg686 1.942 . S
O703 C679 1.273 . S
O703 Mg686 1.955 . S
O704 C677 1.312 . S
O704 Mg680 2.291 . S
O704 Mg683 2.114 . S
O705 C677 1.208 . S
O705 Mg685 2.031 . S
C706 O691 1.264 . S
C706 O693 1.273 . S
C707 O688 1.191 . S
C707 O690 1.307 . S
C365 C213 1.272 . S
C368 C256 1.738 . S
C356 C234 1.189 . S
C196 C369 1.903 . S
C400 C109 1.160 . S
C129 C427 2.109 . S
C399 C151 1.060 . S
C100 C418 1.955 . S
C313 C431 1.159 . S
C322 C462 1.905 . S
C520 C187 1.254 . S
C542 C277 2.025 . S
C430 C67 1.051 . S
C461 C20 1.860 . S
C28 C511 1.160 . S
C62 C551 1.757 . S
C40 C489 1.276 . S
C555 C184 1.205 . S
C293 C586 1.790 . S
C635 C310 1.112 . S
C146 C493 2.028 . S
C554 C230 1.229 . S
C585 C255 1.828 . S
C666 C205 2.111 . S
C66 C396 1.272 . S
C4 C337 1.738 . S
C387 C37 1.189 . S
C46 C338 1.903 . S
C301 C679 1.160 . S
C331 C706 2.109 . S
C678 C175 1.060 . S
C276 C697 1.955 . S
C125 C613 1.159 . S
C617 C130 1.903 . S
C648 C167 1.254 . S
C573 C91 2.025 . S
C604 C214 1.051 . S
C272 C616 1.861 . S
C235 C647 1.160 . S
C582 C208 1.756 . S
C251 C644 1.276 . S
C524 C150 1.205 . S
C103 C458 1.790 . S
C108 C480 1.112 . S
C334 C675 2.027 . S
C83 C523 1.229 . S
C3 C449 1.828 . S
C492 C45 2.110 . S
C336 C318 2.220 . S
C386 C188 1.991 . S
C346 C289 1.875 . S
C397 C314 1.612 . S
C417 C209 2.090 . S
C226 C408 1.648 . S
C271 C428 1.744 . S
C247 C398 2.006 . S
C448 C58 2.181 . S
C490 C70 1.578 . S
C16 C491 2.207 . S
C522 C25 1.936 . S
C133 C459 1.778 . S
C479 C163 2.043 . S
C501 C88 1.803 . S
C121 C532 1.697 . S
C460 C104 2.045 . S
C7 C572 2.121 . S
C41 C614 1.595 . S
C49 C625 1.892 . S
C521 C229 1.677 . S
C583 C335 1.825 . S
C172 C603 1.916 . S
C646 C298 1.991 . S
C367 C142 2.221 . S
C166 C355 1.991 . S
C87 C377 1.875 . S
C124 C366 1.612 . S
C696 C61 2.090 . S
C687 C79 1.648 . S
C19 C707 1.744 . S
C24 C677 2.006 . S
C192 C584 2.181 . S
C645 C217 1.579 . S
C665 C268 2.208 . S
C238 C553 1.936 . S
C594 C319 1.778 . S
C171 C634 2.043 . S
C676 C280 1.802 . S
C297 C563 1.697 . S
C292 C615 2.046 . S
C259 C541 2.121 . S
C439 C250 1.595 . S
C193 C470 1.894 . S
C82 C656 1.677 . S
C145 C552 1.825 . S
C429 C154 1.916 . S
C112 C510 1.992 . S
