# Generated by pormake.
# Topology gar, (4,6)-cn, num edge types: 1
# Building blocks:
#     Node 0, Type 0, BuildingBlock: NAHDIM_clean_sbu_0, # of connection points: 4
#     Node 1, Type 0, BuildingBlock: NAHDIM_clean_sbu_0, # of connection points: 4
#     Node 2, Type 0, BuildingBlock: NAHDIM_clean_sbu_0, # of connection points: 4
#     Node 3, Type 0, BuildingBlock: NAHDIM_clean_sbu_0, # of connection points: 4
#     Node 4, Type 0, BuildingBlock: NAHDIM_clean_sbu_0, # of connection points: 4
#     Node 5, Type 0, BuildingBlock: NAHDIM_clean_sbu_0, # of connection points: 4
#     Node 6, Type 0, BuildingBlock: NAHDIM_clean_sbu_0, # of connection points: 4
#     Node 7, Type 0, BuildingBlock: NAHDIM_clean_sbu_0, # of connection points: 4
#     Node 8, Type 0, BuildingBlock: NAHDIM_clean_sbu_0, # of connection points: 4
#     Node 9, Type 0, BuildingBlock: NAHDIM_clean_sbu_0, # of connection points: 4
#     Node 10, Type 0, BuildingBlock: NAHDIM_clean_sbu_0, # of connection points: 4
#     Node 11, Type 0, BuildingBlock: NAHDIM_clean_sbu_0, # of connection points: 4
#     Node 12, Type 0, BuildingBlock: NAHDIM_clean_sbu_0, # of connection points: 4
#     Node 13, Type 0, BuildingBlock: NAHDIM_clean_sbu_0, # of connection points: 4
#     Node 14, Type 0, BuildingBlock: NAHDIM_clean_sbu_0, # of connection points: 4
#     Node 15, Type 0, BuildingBlock: NAHDIM_clean_sbu_0, # of connection points: 4
#     Node 16, Type 0, BuildingBlock: NAHDIM_clean_sbu_0, # of connection points: 4
#     Node 17, Type 0, BuildingBlock: NAHDIM_clean_sbu_0, # of connection points: 4
#     Node 18, Type 0, BuildingBlock: NAHDIM_clean_sbu_0, # of connection points: 4
#     Node 19, Type 0, BuildingBlock: NAHDIM_clean_sbu_0, # of connection points: 4
#     Node 20, Type 0, BuildingBlock: NAHDIM_clean_sbu_0, # of connection points: 4
#     Node 21, Type 0, BuildingBlock: NAHDIM_clean_sbu_0, # of connection points: 4
#     Node 22, Type 0, BuildingBlock: NAHDIM_clean_sbu_0, # of connection points: 4
#     Node 23, Type 0, BuildingBlock: NAHDIM_clean_sbu_0, # of connection points: 4
#     Node 24, Type 1, BuildingBlock: MIFKUJ_clean_sbu_0, # of connection points: 6
#     Node 25, Type 1, BuildingBlock: MIFKUJ_clean_sbu_0, # of connection points: 6
#     Node 26, Type 1, BuildingBlock: MIFKUJ_clean_sbu_0, # of connection points: 6
#     Node 27, Type 1, BuildingBlock: MIFKUJ_clean_sbu_0, # of connection points: 6
#     Node 28, Type 1, BuildingBlock: MIFKUJ_clean_sbu_0, # of connection points: 6
#     Node 29, Type 1, BuildingBlock: MIFKUJ_clean_sbu_0, # of connection points: 6
#     Node 30, Type 1, BuildingBlock: MIFKUJ_clean_sbu_0, # of connection points: 6
#     Node 31, Type 1, BuildingBlock: MIFKUJ_clean_sbu_0, # of connection points: 6
#     Node 32, Type 1, BuildingBlock: MIFKUJ_clean_sbu_0, # of connection points: 6
#     Node 33, Type 1, BuildingBlock: MIFKUJ_clean_sbu_0, # of connection points: 6
#     Node 34, Type 1, BuildingBlock: MIFKUJ_clean_sbu_0, # of connection points: 6
#     Node 35, Type 1, BuildingBlock: MIFKUJ_clean_sbu_0, # of connection points: 6
#     Node 36, Type 1, BuildingBlock: MIFKUJ_clean_sbu_0, # of connection points: 6
#     Node 37, Type 1, BuildingBlock: MIFKUJ_clean_sbu_0, # of connection points: 6
#     Node 38, Type 1, BuildingBlock: MIFKUJ_clean_sbu_0, # of connection points: 6
#     Node 39, Type 1, BuildingBlock: MIFKUJ_clean_sbu_0, # of connection points: 6
#     Edge 40, Type (0, 1), BuildingBlock: OJICUG_clean_linker_0, # of connection points: 2
#     Edge 41, Type (0, 1), BuildingBlock: OJICUG_clean_linker_0, # of connection points: 2
#     Edge 42, Type (0, 1), BuildingBlock: OJICUG_clean_linker_0, # of connection points: 2
#     Edge 43, Type (0, 1), BuildingBlock: OJICUG_clean_linker_0, # of connection points: 2
#     Edge 44, Type (0, 1), BuildingBlock: OJICUG_clean_linker_0, # of connection points: 2
#     Edge 45, Type (0, 1), BuildingBlock: OJICUG_clean_linker_0, # of connection points: 2
#     Edge 46, Type (0, 1), BuildingBlock: OJICUG_clean_linker_0, # of connection points: 2
#     Edge 47, Type (0, 1), BuildingBlock: OJICUG_clean_linker_0, # of connection points: 2
#     Edge 48, Type (0, 1), BuildingBlock: OJICUG_clean_linker_0, # of connection points: 2
#     Edge 49, Type (0, 1), BuildingBlock: OJICUG_clean_linker_0, # of connection points: 2
#     Edge 50, Type (0, 1), BuildingBlock: OJICUG_clean_linker_0, # of connection points: 2
#     Edge 51, Type (0, 1), BuildingBlock: OJICUG_clean_linker_0, # of connection points: 2
#     Edge 52, Type (0, 1), BuildingBlock: OJICUG_clean_linker_0, # of connection points: 2
#     Edge 53, Type (0, 1), BuildingBlock: OJICUG_clean_linker_0, # of connection points: 2
#     Edge 54, Type (0, 1), BuildingBlock: OJICUG_clean_linker_0, # of connection points: 2
#     Edge 55, Type (0, 1), BuildingBlock: OJICUG_clean_linker_0, # of connection points: 2
#     Edge 56, Type (0, 1), BuildingBlock: OJICUG_clean_linker_0, # of connection points: 2
#     Edge 57, Type (0, 1), BuildingBlock: OJICUG_clean_linker_0, # of connection points: 2
#     Edge 58, Type (0, 1), BuildingBlock: OJICUG_clean_linker_0, # of connection points: 2
#     Edge 59, Type (0, 1), BuildingBlock: OJICUG_clean_linker_0, # of connection points: 2
#     Edge 60, Type (0, 1), BuildingBlock: OJICUG_clean_linker_0, # of connection points: 2
#     Edge 61, Type (0, 1), BuildingBlock: OJICUG_clean_linker_0, # of connection points: 2
#     Edge 62, Type (0, 1), BuildingBlock: OJICUG_clean_linker_0, # of connection points: 2
#     Edge 63, Type (0, 1), BuildingBlock: OJICUG_clean_linker_0, # of connection points: 2
#     Edge 64, Type (0, 1), BuildingBlock: OJICUG_clean_linker_0, # of connection points: 2
#     Edge 65, Type (0, 1), BuildingBlock: OJICUG_clean_linker_0, # of connection points: 2
#     Edge 66, Type (0, 1), BuildingBlock: OJICUG_clean_linker_0, # of connection points: 2
#     Edge 67, Type (0, 1), BuildingBlock: OJICUG_clean_linker_0, # of connection points: 2
#     Edge 68, Type (0, 1), BuildingBlock: OJICUG_clean_linker_0, # of connection points: 2
#     Edge 69, Type (0, 1), BuildingBlock: OJICUG_clean_linker_0, # of connection points: 2
#     Edge 70, Type (0, 1), BuildingBlock: OJICUG_clean_linker_0, # of connection points: 2
#     Edge 71, Type (0, 1), BuildingBlock: OJICUG_clean_linker_0, # of connection points: 2
#     Edge 72, Type (0, 1), BuildingBlock: OJICUG_clean_linker_0, # of connection points: 2
#     Edge 73, Type (0, 1), BuildingBlock: OJICUG_clean_linker_0, # of connection points: 2
#     Edge 74, Type (0, 1), BuildingBlock: OJICUG_clean_linker_0, # of connection points: 2
#     Edge 75, Type (0, 1), BuildingBlock: OJICUG_clean_linker_0, # of connection points: 2
#     Edge 76, Type (0, 1), BuildingBlock: OJICUG_clean_linker_0, # of connection points: 2
#     Edge 77, Type (0, 1), BuildingBlock: OJICUG_clean_linker_0, # of connection points: 2
#     Edge 78, Type (0, 1), BuildingBlock: OJICUG_clean_linker_0, # of connection points: 2
#     Edge 79, Type (0, 1), BuildingBlock: OJICUG_clean_linker_0, # of connection points: 2
#     Edge 80, Type (0, 1), BuildingBlock: OJICUG_clean_linker_0, # of connection points: 2
#     Edge 81, Type (0, 1), BuildingBlock: OJICUG_clean_linker_0, # of connection points: 2
#     Edge 82, Type (0, 1), BuildingBlock: OJICUG_clean_linker_0, # of connection points: 2
#     Edge 83, Type (0, 1), BuildingBlock: OJICUG_clean_linker_0, # of connection points: 2
#     Edge 84, Type (0, 1), BuildingBlock: OJICUG_clean_linker_0, # of connection points: 2
#     Edge 85, Type (0, 1), BuildingBlock: OJICUG_clean_linker_0, # of connection points: 2
#     Edge 86, Type (0, 1), BuildingBlock: OJICUG_clean_linker_0, # of connection points: 2
#     Edge 87, Type (0, 1), BuildingBlock: OJICUG_clean_linker_0, # of connection points: 2
#     Edge 88, Type (0, 1), BuildingBlock: OJICUG_clean_linker_0, # of connection points: 2
#     Edge 89, Type (0, 1), BuildingBlock: OJICUG_clean_linker_0, # of connection points: 2
#     Edge 90, Type (0, 1), BuildingBlock: OJICUG_clean_linker_0, # of connection points: 2
#     Edge 91, Type (0, 1), BuildingBlock: OJICUG_clean_linker_0, # of connection points: 2
#     Edge 92, Type (0, 1), BuildingBlock: OJICUG_clean_linker_0, # of connection points: 2
#     Edge 93, Type (0, 1), BuildingBlock: OJICUG_clean_linker_0, # of connection points: 2
#     Edge 94, Type (0, 1), BuildingBlock: OJICUG_clean_linker_0, # of connection points: 2
#     Edge 95, Type (0, 1), BuildingBlock: OJICUG_clean_linker_0, # of connection points: 2
#     Edge 96, Type (0, 1), BuildingBlock: OJICUG_clean_linker_0, # of connection points: 2
#     Edge 97, Type (0, 1), BuildingBlock: OJICUG_clean_linker_0, # of connection points: 2
#     Edge 98, Type (0, 1), BuildingBlock: OJICUG_clean_linker_0, # of connection points: 2
#     Edge 99, Type (0, 1), BuildingBlock: OJICUG_clean_linker_0, # of connection points: 2
#     Edge 100, Type (0, 1), BuildingBlock: OJICUG_clean_linker_0, # of connection points: 2
#     Edge 101, Type (0, 1), BuildingBlock: OJICUG_clean_linker_0, # of connection points: 2
#     Edge 102, Type (0, 1), BuildingBlock: OJICUG_clean_linker_0, # of connection points: 2
#     Edge 103, Type (0, 1), BuildingBlock: OJICUG_clean_linker_0, # of connection points: 2
#     Edge 104, Type (0, 1), BuildingBlock: OJICUG_clean_linker_0, # of connection points: 2
#     Edge 105, Type (0, 1), BuildingBlock: OJICUG_clean_linker_0, # of connection points: 2
#     Edge 106, Type (0, 1), BuildingBlock: OJICUG_clean_linker_0, # of connection points: 2
#     Edge 107, Type (0, 1), BuildingBlock: OJICUG_clean_linker_0, # of connection points: 2
#     Edge 108, Type (0, 1), BuildingBlock: OJICUG_clean_linker_0, # of connection points: 2
#     Edge 109, Type (0, 1), BuildingBlock: OJICUG_clean_linker_0, # of connection points: 2
#     Edge 110, Type (0, 1), BuildingBlock: OJICUG_clean_linker_0, # of connection points: 2
#     Edge 111, Type (0, 1), BuildingBlock: OJICUG_clean_linker_0, # of connection points: 2
#     Edge 112, Type (0, 1), BuildingBlock: OJICUG_clean_linker_0, # of connection points: 2
#     Edge 113, Type (0, 1), BuildingBlock: OJICUG_clean_linker_0, # of connection points: 2
#     Edge 114, Type (0, 1), BuildingBlock: OJICUG_clean_linker_0, # of connection points: 2
#     Edge 115, Type (0, 1), BuildingBlock: OJICUG_clean_linker_0, # of connection points: 2
#     Edge 116, Type (0, 1), BuildingBlock: OJICUG_clean_linker_0, # of connection points: 2
#     Edge 117, Type (0, 1), BuildingBlock: OJICUG_clean_linker_0, # of connection points: 2
#     Edge 118, Type (0, 1), BuildingBlock: OJICUG_clean_linker_0, # of connection points: 2
#     Edge 119, Type (0, 1), BuildingBlock: OJICUG_clean_linker_0, # of connection points: 2
#     Edge 120, Type (0, 1), BuildingBlock: OJICUG_clean_linker_0, # of connection points: 2
#     Edge 121, Type (0, 1), BuildingBlock: OJICUG_clean_linker_0, # of connection points: 2
#     Edge 122, Type (0, 1), BuildingBlock: OJICUG_clean_linker_0, # of connection points: 2
#     Edge 123, Type (0, 1), BuildingBlock: OJICUG_clean_linker_0, # of connection points: 2
#     Edge 124, Type (0, 1), BuildingBlock: OJICUG_clean_linker_0, # of connection points: 2
#     Edge 125, Type (0, 1), BuildingBlock: OJICUG_clean_linker_0, # of connection points: 2
#     Edge 126, Type (0, 1), BuildingBlock: OJICUG_clean_linker_0, # of connection points: 2
#     Edge 127, Type (0, 1), BuildingBlock: OJICUG_clean_linker_0, # of connection points: 2
#     Edge 128, Type (0, 1), BuildingBlock: OJICUG_clean_linker_0, # of connection points: 2
#     Edge 129, Type (0, 1), BuildingBlock: OJICUG_clean_linker_0, # of connection points: 2
#     Edge 130, Type (0, 1), BuildingBlock: OJICUG_clean_linker_0, # of connection points: 2
#     Edge 131, Type (0, 1), BuildingBlock: OJICUG_clean_linker_0, # of connection points: 2
#     Edge 132, Type (0, 1), BuildingBlock: OJICUG_clean_linker_0, # of connection points: 2
#     Edge 133, Type (0, 1), BuildingBlock: OJICUG_clean_linker_0, # of connection points: 2
#     Edge 134, Type (0, 1), BuildingBlock: OJICUG_clean_linker_0, # of connection points: 2
#     Edge 135, Type (0, 1), BuildingBlock: OJICUG_clean_linker_0, # of connection points: 2
# Relax obj value: 0.121
# Max RMSD: 0.312
# Mean RMSD: 0.163
data_MOF--net-gar--node1-NAHDIM_clean_sbu_0--node2-MIFKUJ_clean_sbu_0--edge1-OJICUG_clean_linker_0
_symmetry_space_group_name_H-M    P1
_symmetry_Int_Tables_number       1
_symmetry_cell_setting            triclinic
loop_
_symmetry_equiv_pos_as_xyz
'x, y, z'
_cell_length_a     42.912668
_cell_length_b     41.975725
_cell_length_c     39.164966
_cell_angle_alpha  95.085473
_cell_angle_beta   95.324037
_cell_angle_gamma 100.39334
loop_
_atom_site_label
_atom_site_type_symbol
_atom_site_fract_x
_atom_site_fract_y
_atom_site_fract_z
_atom_type_partial_charge
C0 C 0.08953 0.29469 0.38924 0.0
O1 O 0.08921 0.31418 0.4173 0.0
O2 O 0.02505 0.23827 0.43743 0.0
Zn3 Zn 0.02644 0.27333 0.40552 0.0
O4 O 0.02732 0.31645 0.43284 0.0
C5 C 0.97456 0.26546 0.34544 0.0
O6 O 0.99539 0.27217 0.32332 0.0
O7 O 0.06424 0.27443 0.37754 0.0
C8 C 0.03574 0.32476 0.46486 0.0
O9 O 0.04732 0.30453 0.48396 0.0
C10 C 0.04969 0.2325 0.45443 0.0
O11 O 0.07769 0.25013 0.45146 0.0
O12 O 0.98402 0.26432 0.37695 0.0
C13 C 0.95148 0.76732 0.67596 0.0
O14 O 0.96306 0.79539 0.66527 0.0
O15 O 0.99231 0.70165 0.60426 0.0
Zn16 Zn 0.99571 0.74458 0.63306 0.0
O17 O 0.99091 0.77938 0.60225 0.0
C18 C 0.05336 0.73901 0.67633 0.0
O19 O 0.03886 0.70906 0.67872 0.0
O20 O 0.96208 0.7421 0.66579 0.0
C21 C 0.01475 0.7939 0.58902 0.0
O22 O 0.04234 0.78477 0.59435 0.0
C23 C 0.01665 0.69591 0.59043 0.0
O24 O 0.04292 0.71809 0.59515 0.0
O25 O 0.03902 0.75756 0.65944 0.0
C26 C 0.58112 0.76067 0.86261 0.0
O27 O 0.56603 0.73116 0.86598 0.0
O28 O 0.54103 0.74502 0.93841 0.0
Zn29 Zn 0.53758 0.78159 0.9093 0.0
O30 O 0.54028 0.82453 0.93767 0.0
C31 C 0.48605 0.76611 0.85064 0.0
O32 O 0.50685 0.75769 0.83072 0.0
O33 O 0.57248 0.7851 0.87799 0.0
C34 C 0.54601 0.83296 0.96996 0.0
O35 O 0.55392 0.8121 0.99072 0.0
C36 C 0.52005 0.73324 0.95708 0.0
O37 O 0.49435 0.74594 0.95892 0.0
O38 O 0.49439 0.77478 0.88255 0.0
C39 C 0.45928 0.24908 0.20946 0.0
O40 O 0.48327 0.24855 0.23268 0.0
O41 O 0.50422 0.20745 0.12793 0.0
Zn42 Zn 0.50302 0.25096 0.153 0.0
O43 O 0.50022 0.28377 0.11903 0.0
C44 C 0.55904 0.24493 0.19753 0.0
O45 O 0.54557 0.21397 0.19426 0.0
O46 O 0.46372 0.24929 0.17781 0.0
C47 C 0.52352 0.29823 0.10493 0.0
O48 O 0.55186 0.29103 0.11159 0.0
C49 C 0.4926 0.19707 0.09706 0.0
O50 O 0.47677 0.21505 0.07894 0.0
O51 O 0.54421 0.26518 0.18402 0.0
C52 C 0.97165 0.77177 0.18049 0.0
O53 O 0.96998 0.76524 0.14686 0.0
O54 O 0.03061 0.73684 0.14518 0.0
Zn55 Zn 0.03545 0.78256 0.16877 0.0
O56 O 0.03218 0.81597 0.13455 0.0
C57 C 0.09891 0.77784 0.18769 0.0
O58 O 0.0935 0.76342 0.15599 0.0
O59 O 0.99889 0.78107 0.19763 0.0
C60 C 0.04781 0.8191 0.10858 0.0
O61 O 0.06884 0.80053 0.10329 0.0
C62 C 0.02406 0.72578 0.11356 0.0
O63 O 0.01813 0.74533 0.09043 0.0
O64 O 0.07749 0.79144 0.19974 0.0
C65 C 0.55577 0.77486 0.35201 0.0
O66 O 0.55129 0.80449 0.36087 0.0
O67 O 0.49686 0.71515 0.41791 0.0
Zn68 Zn 0.50563 0.75618 0.39509 0.0
O69 O 0.52241 0.79583 0.42856 0.0
C70 C 0.45088 0.74374 0.34317 0.0
O71 O 0.46285 0.71851 0.33223 0.0
O72 O 0.53845 0.75085 0.3629 0.0
C73 C 0.50489 0.80988 0.44693 0.0
O74 O 0.47472 0.79648 0.44664 0.0
C75 C 0.51528 0.70783 0.44206 0.0
O76 O 0.54089 0.72903 0.45522 0.0
O77 O 0.46532 0.76281 0.36906 0.0
C78 C 0.46991 0.2641 0.68427 0.0
O79 O 0.46841 0.25699 0.65072 0.0
O80 O 0.52748 0.23129 0.6469 0.0
Zn81 Zn 0.53303 0.27679 0.6714 0.0
O82 O 0.5276 0.31058 0.63831 0.0
C83 C 0.5973 0.27361 0.68813 0.0
O84 O 0.59149 0.25972 0.65623 0.0
O85 O 0.49707 0.2745 0.7013 0.0
C86 C 0.54641 0.32159 0.61702 0.0
O87 O 0.57327 0.31102 0.61516 0.0
C88 C 0.52895 0.22123 0.6156 0.0
O89 O 0.53457 0.2423 0.593 0.0
O90 O 0.57569 0.2861 0.70123 0.0
C91 C 0.05429 0.2744 0.85344 0.0
O92 O 0.04871 0.30368 0.86189 0.0
O93 O 0.99555 0.2113 0.91695 0.0
Zn94 Zn 0.004 0.25343 0.89588 0.0
O95 O 0.01976 0.29237 0.93063 0.0
C96 C 0.95006 0.2408 0.84305 0.0
O97 O 0.96159 0.21491 0.8333 0.0
O98 O 0.03772 0.24998 0.86445 0.0
C99 C 0.00127 0.3085 0.94505 0.0
O100 O 0.97032 0.29776 0.93969 0.0
C101 C 0.00996 0.20547 0.94488 0.0
O102 O 0.0307 0.22892 0.96344 0.0
O103 O 0.96432 0.26017 0.86879 0.0
C104 C 0.34672 0.0557 0.26898 0.0
O105 O 0.35071 0.0407 0.23926 0.0
O106 O 0.42063 0.03062 0.2563 0.0
Zn107 Zn 0.39316 0.02009 0.29378 0.0
O108 O 0.42275 0.02532 0.33744 0.0
C109 C 0.36321 0.95956 0.25405 0.0
O110 O 0.37419 0.97467 0.22842 0.0
O111 O 0.36271 0.05073 0.29632 0.0
C112 C 0.43274 0.00054 0.34719 0.0
O113 O 0.42149 0.97181 0.33 0.0
C114 C 0.44403 0.01651 0.25204 0.0
O115 O 0.44965 0.99416 0.27194 0.0
O116 O 0.36811 0.97433 0.28433 0.0
C117 C 0.31304 0.08497 0.52131 0.0
O118 O 0.29931 0.08657 0.54988 0.0
O119 O 0.27781 0.14982 0.54952 0.0
Zn120 Zn 0.26946 0.12723 0.50098 0.0
O121 O 0.27347 0.16031 0.46538 0.0
C122 C 0.20438 0.10963 0.51366 0.0
O123 O 0.21195 0.13948 0.52908 0.0
O124 O 0.30352 0.09955 0.49628 0.0
C125 C 0.24961 0.16895 0.44956 0.0
O126 O 0.22084 0.1565 0.45647 0.0
C127 C 0.27498 0.17853 0.56025 0.0
O128 O 0.26736 0.19825 0.53796 0.0
O129 O 0.22502 0.09833 0.49729 0.0
C130 C 0.19046 0.97214 0.79728 0.0
O131 O 0.19668 0.99068 0.77249 0.0
O132 O 0.1243 0.00398 0.75997 0.0
Zn133 Zn 0.14461 0.01349 0.80945 0.0
O134 O 0.11096 0.01045 0.84326 0.0
C135 C 0.16442 0.07968 0.79817 0.0
O136 O 0.13505 0.07326 0.78302 0.0
O137 O 0.16989 0.97815 0.81711 0.0
C138 C 0.108 0.03414 0.86454 0.0
O139 O 0.1266 0.06259 0.86411 0.0
C140 C 0.09694 0.0081 0.74782 0.0
O141 O 0.07803 0.01894 0.76873 0.0
O142 O 0.17464 0.05772 0.8139 0.0
C143 C 0.21309 0.91311 -0.00091 0.0
O144 O 0.21358 0.89984 0.96752 0.0
O145 O 0.26993 0.85239 0.04907 0.0
Zn146 Zn 0.26786 0.88293 0.01311 0.0
O147 O 0.25926 0.85518 0.96744 0.0
C148 C 0.32397 0.92306 0.04656 0.0
O149 O 0.30843 0.916 0.07312 0.0
O150 O 0.2339 0.90906 0.02268 0.0
C151 C 0.27573 0.83298 0.96396 0.0
O152 O 0.2972 0.83049 0.98928 0.0
C153 C 0.24671 0.82914 0.04999 0.0
O154 O 0.22108 0.82621 0.02794 0.0
O155 O 0.31066 0.91235 0.01639 0.0
C156 C 0.23282 0.43358 0.03141 0.0
O157 O 0.24271 0.42883 0.00094 0.0
O158 O 0.27266 0.36283 0.09253 0.0
Zn159 Zn 0.27709 0.39082 0.05298 0.0
O160 O 0.26752 0.36245 0.00675 0.0
C161 C 0.33405 0.44589 0.0683 0.0
O162 O 0.31594 0.46361 0.08347 0.0
O163 O 0.24465 0.42064 0.05653 0.0
C164 C 0.28872 0.36349 0.98594 0.0
O165 O 0.31684 0.38198 0.99513 0.0
C166 C 0.27647 0.33345 0.09282 0.0
O167 O 0.28503 0.31847 0.06533 0.0
O168 O 0.32235 0.41666 0.05598 0.0
C169 C 0.8141 0.08101 0.00871 0.0
O170 O 0.79875 0.08197 0.97831 0.0
O171 O 0.78239 0.1562 0.07887 0.0
Zn172 Zn 0.7784 0.13004 0.03291 0.0
O173 O 0.78814 0.16048 -0.00308 0.0
C174 C 0.71134 0.11826 0.036 0.0
O175 O 0.71931 0.14602 0.05582 0.0
O176 O 0.80878 0.09898 0.03458 0.0
C177 C 0.77273 0.18329 0.99268 0.0
O178 O 0.74984 0.18678 0.01191 0.0
C179 C 0.79635 0.18561 0.08722 0.0
O180 O 0.81297 0.20132 0.0653 0.0
O181 O 0.73294 0.10563 0.02295 0.0
C182 C 0.20002 0.46961 0.29524 0.0
O183 O 0.19808 0.48696 0.32431 0.0
O184 O 0.1256 0.50103 0.22344 0.0
Zn185 Zn 0.14894 0.50025 0.27002 0.0
O186 O 0.11778 0.48604 0.30286 0.0
C187 C 0.19009 0.56194 0.26935 0.0
O188 O 0.19691 0.54811 0.24026 0.0
O189 O 0.18135 0.47151 0.26861 0.0
C190 C 0.09652 0.50288 0.30797 0.0
O191 O 0.09541 0.52829 0.29089 0.0
C192 C 0.09776 0.48516 0.21271 0.0
O193 O 0.08298 0.46451 0.23191 0.0
O194 O 0.17061 0.54571 0.28675 0.0
C195 C 0.73151 0.93788 0.53766 0.0
O196 O 0.74306 0.93485 0.50788 0.0
O197 O 0.78004 0.86858 0.59499 0.0
Zn198 Zn 0.77885 0.89931 0.55717 0.0
O199 O 0.77034 0.8754 0.50872 0.0
C200 C 0.84459 0.91936 0.54882 0.0
O201 O 0.83994 0.88805 0.5386 0.0
O202 O 0.74329 0.92503 0.56292 0.0
C203 C 0.7762 0.84806 0.49704 0.0
O204 O 0.78882 0.83007 0.51821 0.0
C205 C 0.76085 0.84169 0.59577 0.0
O206 O 0.7383 0.83145 0.57009 0.0
O207 O 0.82154 0.93099 0.55985 0.0
C208 C 0.85654 0.05376 0.23095 0.0
O209 O 0.86967 0.0478 0.20265 0.0
O210 O 0.92182 0.01243 0.21838 0.0
Zn211 Zn 0.89455 0.00805 0.25823 0.0
O212 O 0.92231 0.02161 0.30327 0.0
C213 C 0.84368 0.94939 0.24629 0.0
O214 O 0.82704 0.96763 0.22952 0.0
O215 O 0.86283 0.03889 0.25691 0.0
C216 C 0.93593 0.00263 0.32041 0.0
O217 O 0.93337 0.97207 0.30787 0.0
C218 C 0.94904 0.00431 0.21816 0.0
O219 O 0.96072 0.99161 0.24482 0.0
O220 O 0.87211 0.96142 0.25922 0.0
C221 C 0.31466 0.58499 0.51196 0.0
O222 O 0.30006 0.58822 0.48182 0.0
O223 O 0.27903 0.65493 0.58598 0.0
Zn224 Zn 0.27785 0.63187 0.53845 0.0
O225 O 0.28946 0.66468 0.50528 0.0
C226 C 0.21626 0.59035 0.54121 0.0
O227 O 0.22851 0.58583 0.57201 0.0
O228 O 0.30844 0.60081 0.53893 0.0
C229 C 0.27145 0.68483 0.4987 0.0
O230 O 0.24569 0.68434 0.51451 0.0
C231 C 0.29632 0.6827 0.59616 0.0
O232 O 0.31511 0.69722 0.57526 0.0
O233 O 0.23322 0.6082 0.52271 0.0
C234 C 0.36003 0.54462 0.73044 0.0
O235 O 0.37221 0.53729 0.70186 0.0
O236 O 0.42475 0.50394 0.71885 0.0
Zn237 Zn 0.39915 0.50135 0.7598 0.0
O238 O 0.42617 0.51594 0.80505 0.0
C239 C 0.34894 0.4436 0.74549 0.0
O240 O 0.33507 0.46148 0.72524 0.0
O241 O 0.36747 0.53148 0.75726 0.0
C242 C 0.44129 0.49825 0.82239 0.0
O243 O 0.44227 0.4686 0.80921 0.0
C244 C 0.4549 0.51218 0.72001 0.0
O245 O 0.47222 0.51963 0.75008 0.0
O246 O 0.37616 0.45548 0.76177 0.0
C247 C 0.69348 0.96046 0.75803 0.0
O248 O 0.69027 0.97244 0.7283 0.0
O249 O 0.62949 0.00125 0.7291 0.0
Zn250 Zn 0.64973 0.00173 0.77713 0.0
O251 O 0.61521 0.99245 0.80707 0.0
C252 C 0.69274 0.06198 0.77421 0.0
O253 O 0.69769 0.04774 0.74449 0.0
O254 O 0.67829 0.96947 0.78223 0.0
C255 C 0.59494 0.01094 0.80937 0.0
O256 O 0.59708 0.03634 0.79178 0.0
C257 C 0.60206 0.98446 0.7184 0.0
O258 O 0.58771 0.96399 0.73807 0.0
O259 O 0.67383 0.04646 0.7927 0.0
C260 C 0.82669 0.61295 0.00285 0.0
O261 O 0.83075 0.64401 -0.00173 0.0
O262 O 0.76715 0.64979 0.05065 0.0
Zn263 Zn 0.76342 0.62454 0.00328 0.0
O264 O 0.76732 0.65282 0.96283 0.0
C265 C 0.69772 0.60833 0.0087 0.0
O266 O 0.70424 0.63988 0.01799 0.0
O267 O 0.79866 0.59775 0.00521 0.0
C268 C 0.76019 0.68083 0.96036 0.0
O269 O 0.74826 0.69499 0.98601 0.0
C270 C 0.77935 0.67889 0.06298 0.0
O271 O 0.79369 0.69924 0.0432 0.0
O272 O 0.71985 0.59462 -0.0015 0.0
C273 C 0.8578 0.55784 0.75669 0.0
O274 O 0.8599 0.542 0.72678 0.0
O275 O 0.92758 0.51803 0.74813 0.0
Zn276 Zn 0.89895 0.51638 0.78543 0.0
O277 O 0.92748 0.52362 0.82958 0.0
C278 C 0.86126 0.45841 0.75088 0.0
O279 O 0.86928 0.47372 0.72425 0.0
O280 O 0.87251 0.55091 0.78389 0.0
C281 C 0.94952 0.50723 0.83314 0.0
O282 O 0.95196 0.48484 0.8084 0.0
C283 C 0.95099 0.54143 0.74862 0.0
O284 O 0.95507 0.56619 0.77264 0.0
O285 O 0.87088 0.47233 0.78108 0.0
C286 C 0.72882 0.43422 0.53607 0.0
O287 O 0.74359 0.42971 0.56564 0.0
O288 O 0.75686 0.36053 0.54799 0.0
Zn289 Zn 0.7656 0.38884 0.51017 0.0
O290 O 0.75981 0.35803 0.46675 0.0
C291 C 0.82371 0.42324 0.54916 0.0
O292 O 0.80788 0.41501 0.57517 0.0
O293 O 0.73446 0.41912 0.50839 0.0
C294 C 0.78365 0.34695 0.4572 0.0
O295 O 0.81199 0.35826 0.474 0.0
C296 C 0.77422 0.33989 0.55484 0.0
O297 O 0.79911 0.33838 0.53809 0.0
O298 O 0.81029 0.41504 0.51857 0.0
C299 C 0.67403 0.45558 0.32256 0.0
O300 O 0.64708 0.44998 0.33637 0.0
O301 O 0.62734 0.50552 0.26371 0.0
Zn302 Zn 0.65261 0.51539 0.31063 0.0
O303 O 0.62225 0.50871 0.34791 0.0
C304 C 0.6884 0.57243 0.28754 0.0
O305 O 0.68148 0.55337 0.25834 0.0
O306 O 0.68237 0.48279 0.31092 0.0
C307 C 0.61027 0.53161 0.36178 0.0
O308 O 0.61799 0.561 0.35231 0.0
C309 C 0.60664 0.52049 0.25077 0.0
O310 O 0.59878 0.54482 0.26938 0.0
O311 O 0.67883 0.56164 0.31491 0.0
Zn312 Zn 0.05612 0.99468 0.04833 0.0
Zn313 Zn 0.98773 0.01834 0.01595 0.0
C314 C 0.04152 0.92582 0.02674 0.0
O315 O 0.06432 0.93245 0.00684 0.0
C316 C 0.99244 0.07279 0.97946 0.0
O317 O 0.97655 0.04929 0.95659 0.0
O318 O 0.10185 0.98623 0.05261 0.0
O319 O 0.05215 0.0233 0.00962 0.0
O320 O 0.0091 0.99388 0.98057 0.0
C321 C 0.11754 0.99016 0.02671 0.0
O322 O 0.10642 0.00492 0.00147 0.0
O323 O 0.02973 0.94914 0.03991 0.0
C324 C 0.92924 0.03126 0.02503 0.0
O325 O 0.94931 0.05004 0.04906 0.0
O326 O 0.93991 0.01187 0.00428 0.0
O327 O 0.99527 0.01449 0.06741 0.0
O328 O 0.04242 0.01094 0.09332 0.0
O329 O 0.00185 0.06571 0.0091 0.0
C330 C 0.03714 0.01006 0.98096 0.0
C331 C 0.01342 0.01342 0.09474 0.0
Zn332 Zn 0.26769 0.76368 0.31258 0.0
Zn333 Zn 0.2749 0.76067 0.23847 0.0
C334 C 0.23506 0.69894 0.31097 0.0
O335 O 0.21934 0.7141 0.33234 0.0
C336 C 0.3092 0.82254 0.23418 0.0
O337 O 0.32292 0.80386 0.21405 0.0
O338 O 0.26756 0.76522 0.36427 0.0
O339 O 0.31304 0.78072 0.30367 0.0
O340 O 0.31103 0.74261 0.26086 0.0
C341 C 0.28898 0.75159 0.37817 0.0
O342 O 0.31003 0.74242 0.35905 0.0
O343 O 0.25812 0.71533 0.29813 0.0
C344 C 0.24976 0.76586 0.17217 0.0
O345 O 0.22911 0.77573 0.19128 0.0
O346 O 0.27315 0.75541 0.18662 0.0
O347 O 0.23055 0.74326 0.24894 0.0
O348 O 0.2309 0.78226 0.28996 0.0
O349 O 0.28629 0.80945 0.24978 0.0
C350 C 0.32674 0.76114 0.28655 0.0
C351 C 0.21598 0.76301 0.26434 0.0
Zn352 Zn 0.48938 0.02082 0.54222 0.0
Zn353 Zn 0.55851 0.00863 0.52631 0.0
C354 C 0.50475 0.08213 0.57727 0.0
O355 O 0.49004 0.06378 0.59861 0.0
C356 C 0.54812 0.94548 0.49566 0.0
O357 O 0.56788 0.96188 0.47692 0.0
O358 O 0.44233 0.02234 0.54397 0.0
O359 O 0.49268 -0.00078 0.49545 0.0
O360 O 0.53904 0.02727 0.48536 0.0
C361 C 0.43024 0.03509 0.51879 0.0
O362 O 0.44793 0.04328 0.49414 0.0
O363 O 0.50942 0.06875 0.54823 0.0
C364 C 0.6179 0.99289 0.54834 0.0
O365 O 0.60051 0.98324 0.57272 0.0
O366 O 0.60575 0.00738 0.52466 0.0
O367 O 0.55401 0.02969 0.57303 0.0
O368 O 0.5084 -0.00018 0.58149 0.0
O369 O 0.53827 0.96078 0.52073 0.0
C370 C 0.51089 0.01218 0.47471 0.0
C371 C 0.53719 0.01264 0.59228 0.0
Zn372 Zn 0.29597 0.24983 0.77114 0.0
Zn373 Zn 0.23244 0.27062 0.78202 0.0
C374 C 0.28261 0.21282 0.7075 0.0
O375 O 0.29392 0.19337 0.7279 0.0
C376 C 0.25312 0.30934 0.84483 0.0
O377 O 0.24523 0.33076 0.82479 0.0
O378 O 0.34197 0.24501 0.76822 0.0
O379 O 0.29959 0.29771 0.78681 0.0
O380 O 0.25666 0.30328 0.75478 0.0
C381 C 0.35337 0.26305 0.7461 0.0
O382 O 0.33587 0.28208 0.732 0.0
O383 O 0.27835 0.24029 0.72068 0.0
C384 C 0.16966 0.25671 0.79711 0.0
O385 O 0.18091 0.23134 0.80646 0.0
O386 O 0.18767 0.2785 0.78367 0.0
O387 O 0.22846 0.22342 0.76488 0.0
O388 O 0.2706 0.21477 0.7963 0.0
O389 O 0.25063 0.27987 0.83231 0.0
C390 C 0.28509 0.31471 0.76789 0.0
C391 C 0.24208 0.20469 0.78232 0.0
Zn392 Zn 0.03121 0.98321 0.53338 0.0
Zn393 Zn 0.0169 0.04976 0.52893 0.0
C394 C 0.06381 0.98881 0.59967 0.0
O395 O 0.0824 0.9753 0.58038 0.0
C396 C 0.98657 0.04399 0.46203 0.0
O397 O 0.97101 0.06301 0.47939 0.0
O398 O 0.03343 0.93572 0.5297 0.0
O399 O 0.98578 0.9838 0.51516 0.0
O400 O 0.97948 0.02498 0.55061 0.0
C401 C 0.01165 0.91966 0.54468 0.0
O402 O 0.99131 0.93509 0.55896 0.0
O403 O 0.03875 0.99627 0.58511 0.0
C404 C 0.03962 0.11225 0.51463 0.0
O405 O 0.06004 0.09521 0.50325 0.0
O406 O 0.01636 0.09801 0.52907 0.0
O407 O 0.06219 0.04866 0.54835 0.0
O408 O 0.06755 0.00837 0.51136 0.0
O409 O 0.00927 0.03357 0.47796 0.0
C410 C 0.96811 0.99723 0.5339 0.0
C411 C 0.07954 0.03536 0.52905 0.0
Zn412 Zn 0.24581 0.78976 0.7646 0.0
Zn413 Zn 0.29348 0.7164 0.78254 0.0
C414 C 0.1861 0.78381 0.72681 0.0
O415 O 0.20253 0.8087 0.71412 0.0
C416 C 0.35399 0.76074 0.80321 0.0
O417 O 0.33694 0.77714 0.82166 0.0
O418 O 0.24842 0.83851 0.77475 0.0
O419 O 0.26002 0.76895 0.8071 0.0
O420 O 0.28198 0.73088 0.82972 0.0
C421 C 0.22748 0.84677 0.7929 0.0
O422 O 0.20744 0.82388 0.80453 0.0
O423 O 0.19988 0.77031 0.75004 0.0
C424 C 0.30791 0.66085 0.7485 0.0
O425 O 0.32163 0.68442 0.73188 0.0
O426 O 0.29181 0.6679 0.77288 0.0
O427 O 0.26461 0.7335 0.74859 0.0
O428 O 0.2689 0.77796 0.7238 0.0
O429 O 0.33997 0.73631 0.78246 0.0
C430 C 0.26895 0.75582 0.83351 0.0
C431 C 0.27422 0.74923 0.72422 0.0
Zn432 Zn 0.51895 0.0204 0.99331 0.0
Zn433 Zn 0.51947 0.01249 0.06607 0.0
C434 C 0.57853 0.06234 -5e-05 0.0
O435 O 0.56013 0.07992 0.98467 0.0
C436 C 0.45852 0.9756 0.06645 0.0
O437 O 0.47577 0.96228 0.08855 0.0
O438 O 0.51609 0.02079 0.94205 0.0
O439 O 0.50539 0.97325 0.00162 0.0
O440 O 0.54087 0.97697 0.04657 0.0
C441 C 0.53091 -0.0001 0.92907 0.0
O442 O 0.54355 0.98134 0.94947 0.0
O443 O 0.5663 0.03423 0.00727 0.0
C444 C 0.50448 0.03389 0.12908 0.0
O445 O 0.49155 0.0513 0.10753 0.0
O446 O 0.52132 0.01421 0.11758 0.0
O447 O 0.53443 0.05895 0.0577 0.0
O448 O 0.49734 0.05534 0.01455 0.0
O449 O 0.47217 -0.00137 0.05088 0.0
C450 C 0.52466 0.96031 0.02001 0.0
C451 C 0.51432 0.07191 0.0407 0.0
Zn452 Zn 0.27051 0.22307 0.26152 0.0
Zn453 Zn 0.26062 0.29415 0.29687 0.0
C454 C 0.32901 0.23578 0.23907 0.0
O455 O 0.30925 0.22035 0.21271 0.0
C456 C 0.21061 0.29442 0.33554 0.0
O457 O 0.23631 0.30845 0.35608 0.0
O458 O 0.2706 0.1752 0.25177 0.0
O459 O 0.24852 0.22756 0.30481 0.0
O460 O 0.28345 0.26933 0.33068 0.0
C461 C 0.28153 0.16325 0.27804 0.0
O462 O 0.28807 0.18163 0.30766 0.0
O463 O 0.31807 0.24181 0.26761 0.0
C464 C 0.2512 0.35447 0.28813 0.0
O465 O 0.23173 0.3341 0.26486 0.0
O466 O 0.26963 0.34319 0.30936 0.0
O467 O 0.26623 0.29075 0.24568 0.0
O468 O 0.25294 0.2408 0.21924 0.0
O469 O 0.21389 0.28293 0.30515 0.0
C470 C 0.26512 0.24217 0.33211 0.0
C471 C 0.25997 0.27137 0.21808 0.0
Zn472 Zn 0.5262 0.48352 0.04085 0.0
Zn473 Zn 0.51253 0.55057 0.03371 0.0
C474 C 0.56171 0.48981 0.10564 0.0
O475 O 0.57801 0.47342 0.08612 0.0
C476 C 0.48019 0.53865 0.96715 0.0
O477 O 0.46355 0.55739 0.98329 0.0
O478 O 0.53022 0.43599 0.0379 0.0
O479 O 0.47911 0.48375 0.02772 0.0
O480 O 0.47769 0.52901 0.05978 0.0
C481 C 0.50779 0.41679 0.04887 0.0
O482 O 0.48302 0.42827 0.05826 0.0
O483 O 0.53701 0.4985 0.09181 0.0
C484 C 0.52949 0.61155 0.0113 0.0
O485 O 0.54919 0.59473 -0.00223 0.0
O486 O 0.50989 0.59784 0.03043 0.0
O487 O 0.5579 0.55129 0.05188 0.0
O488 O 0.56117 0.50906 0.01634 0.0
O489 O 0.50366 0.53033 0.984 0.0
C490 C 0.46395 0.50073 0.04626 0.0
C491 C 0.57397 0.53684 0.03209 0.0
Zn492 Zn 0.75685 0.29389 0.26581 0.0
Zn493 Zn 0.77769 0.22182 0.27613 0.0
C494 C 0.69443 0.283 0.23701 0.0
O495 O 0.70935 0.30617 0.22068 0.0
C496 C 0.83851 0.23848 0.30861 0.0
O497 O 0.82222 0.22124 0.32973 0.0
O498 O 0.75232 0.34172 0.27285 0.0
O499 O 0.78103 0.28654 0.30995 0.0
O500 O 0.7602 0.23659 0.31991 0.0
C501 C 0.73642 0.3457 0.29836 0.0
O502 O 0.72848 0.3209 0.31606 0.0
O503 O 0.71059 0.27037 0.25922 0.0
C504 C 0.79788 0.16706 0.24677 0.0
O505 O 0.80847 0.19022 0.22796 0.0
O506 O 0.78136 0.17374 0.27095 0.0
O507 O 0.75312 0.23171 0.23359 0.0
O508 O 0.7769 0.28019 0.22352 0.0
O509 O 0.82395 0.24434 0.28077 0.0
C510 C 0.7701 0.26659 0.33039 0.0
C511 C 0.76783 0.24993 0.21373 0.0
Zn512 Zn 0.01851 0.51047 0.49231 0.0
Zn513 Zn 0.02057 0.50746 0.5657 0.0
C514 C 0.08278 0.54311 0.49504 0.0
O515 O 0.06893 0.55797 0.4715 0.0
C516 C 0.95837 0.47545 0.57134 0.0
O517 O 0.97523 0.4621 0.59377 0.0
O518 O 0.01774 0.50828 0.44086 0.0
O519 O 0.99991 0.46566 0.50265 0.0
O520 O 0.03717 0.46834 0.54557 0.0
C521 C 0.03265 0.48695 0.42896 0.0
O522 O 0.04344 0.46782 0.45008 0.0
O523 O 0.06589 0.5206 0.50866 0.0
C524 C 0.02564 0.53793 0.63502 0.0
O525 O 0.03016 0.56477 0.61982 0.0
O526 O 0.02531 0.51081 0.61755 0.0
O527 O 0.0373 0.5524 0.55305 0.0
O528 O 0.99919 0.54809 0.5106 0.0
O529 O 0.97266 0.49674 0.55409 0.0
C530 C 0.01875 0.45177 0.52034 0.0
C531 C 0.01825 0.56548 0.53469 0.0
Zn532 Zn 0.80018 0.75457 0.27251 0.0
Zn533 Zn 0.73583 0.77121 0.2855 0.0
C534 C 0.78308 0.71593 0.20898 0.0
O535 O 0.79377 0.69572 0.22885 0.0
C536 C 0.75019 0.80876 0.34982 0.0
O537 O 0.73725 0.8279 0.33033 0.0
O538 O 0.84611 0.75133 0.26725 0.0
O539 O 0.80276 0.80219 0.28878 0.0
O540 O 0.75821 0.80554 0.25841 0.0
C541 C 0.85573 0.76914 0.24417 0.0
O542 O 0.83688 0.78728 0.23073 0.0
O543 O 0.78088 0.74409 0.22238 0.0
C544 C 0.67034 0.75401 0.29542 0.0
O545 O 0.67937 0.72636 0.30047 0.0
O546 O 0.69034 0.77723 0.28667 0.0
O547 O 0.73373 0.72383 0.26892 0.0
O548 O 0.77802 0.71909 0.29937 0.0
O549 O 0.75396 0.7813 0.33599 0.0
C550 C 0.78649 0.81851 0.2709 0.0
C551 C 0.74988 0.70662 0.2857 0.0
Zn552 Zn 0.76971 0.26401 0.80967 0.0
Zn553 Zn 0.77508 0.25904 0.73691 0.0
C554 C 0.73833 0.19935 0.81128 0.0
O555 O 0.72299 0.21496 0.8327 0.0
C556 C 0.80782 0.32171 0.7329 0.0
O557 O 0.82177 0.30382 0.7122 0.0
O558 O 0.77068 0.26688 0.8614 0.0
O559 O 0.81482 0.28077 0.79967 0.0
O560 O 0.81166 0.24108 0.75835 0.0
C561 C 0.79232 0.25327 0.87485 0.0
O562 O 0.8131 0.2442 0.8553 0.0
O563 O 0.76056 0.21545 0.79701 0.0
C564 C 0.75269 0.27006 0.67223 0.0
O565 O 0.73323 0.28102 0.69229 0.0
O566 O 0.77331 0.25502 0.68527 0.0
O567 O 0.73102 0.241 0.74708 0.0
O568 O 0.73184 0.28109 0.78698 0.0
O569 O 0.78563 0.30787 0.74897 0.0
C570 C 0.82803 0.26042 0.78303 0.0
C571 C 0.71656 0.26104 0.76213 0.0
Zn572 Zn 0.77607 0.72498 0.75783 0.0
Zn573 Zn 0.76192 0.78989 0.79044 0.0
C574 C 0.83248 0.74251 0.7306 0.0
O575 O 0.81309 0.72505 0.7051 0.0
C576 C 0.70437 0.78154 0.81459 0.0
O577 O 0.72444 0.80124 0.83795 0.0
O578 O 0.78005 0.67851 0.74435 0.0
O579 O 0.76046 0.72285 0.80529 0.0
O580 O 0.78195 0.77152 0.8316 0.0
C581 C 0.79881 0.67027 0.76766 0.0
O582 O 0.81059 0.69137 0.79459 0.0
O583 O 0.82234 0.74777 0.7597 0.0
C584 C 0.74537 0.84558 0.77178 0.0
O585 O 0.73286 0.82268 0.74676 0.0
O586 O 0.76112 0.83809 0.79813 0.0
O587 O 0.78153 0.78845 0.74527 0.0
O588 O 0.75161 0.7436 0.71947 0.0
O589 O 0.71478 0.76985 0.78771 0.0
C590 C 0.77133 0.74132 0.83295 0.0
C591 C 0.76599 0.77263 0.71798 0.0
Zn592 Zn 0.55999 0.50069 0.54781 0.0
Zn593 Zn 0.48853 0.52118 0.51343 0.0
C594 C 0.52374 0.43424 0.55143 0.0
O595 O 0.50094 0.44837 0.56197 0.0
C596 C 0.49381 0.57575 0.47806 0.0
O597 O 0.47645 0.55268 0.45571 0.0
O598 O 0.6074 0.50422 0.55721 0.0
O599 O 0.55405 0.52517 0.50597 0.0
O600 O 0.50995 0.49596 0.47844 0.0
C601 C 0.6192 0.49467 0.53037 0.0
O602 O 0.60069 0.48765 0.50104 0.0
O603 O 0.54714 0.4513 0.53965 0.0
C604 C 0.42967 0.53397 0.52442 0.0
O605 O 0.44931 0.55017 0.55046 0.0
O606 O 0.44062 0.51652 0.50186 0.0
O607 O 0.49446 0.51627 0.56444 0.0
O608 O 0.54196 0.51523 0.5909 0.0
O609 O 0.50413 0.56832 0.50721 0.0
C610 C 0.53874 0.51006 0.47823 0.0
C611 C 0.51262 0.51607 0.59192 0.0
Zn612 Zn 0.99141 0.52864 0.03545 0.0
Zn613 Zn 0.06156 0.50748 0.02085 0.0
C614 C 0.01045 0.58786 0.07567 0.0
O615 O 0.99599 0.56903 0.09678 0.0
C616 C 0.04996 0.44311 0.99314 0.0
O617 O 0.07258 0.45714 0.97599 0.0
O618 O 0.94479 0.53415 0.03555 0.0
O619 O 0.99498 0.51216 0.98646 0.0
O620 O 0.0461 0.52585 0.97839 0.0
C621 C 0.93949 0.5546 0.01448 0.0
O622 O 0.96238 0.56588 0.9962 0.0
O623 O 0.01419 0.57537 0.04592 0.0
C624 C 0.12077 0.49057 0.04515 0.0
O625 O 0.10339 0.48102 0.06958 0.0
O626 O 0.10871 0.50509 0.02149 0.0
O627 O 0.05488 0.53062 0.06561 0.0
O628 O 0.00773 0.50361 0.07331 0.0
O629 O 0.03896 0.46046 0.01564 0.0
C630 C 0.01673 0.51905 0.96692 0.0
C631 C 0.037 0.51402 0.08429 0.0
C632 C 0.9886 0.14594 0.93068 0.0
C633 C 0.00522 0.17178 0.95451 0.0
H634 H 0.97199 0.09467 0.9197 0.0
C635 C 0.01799 0.16483 0.98679 0.0
H636 H 0.97867 0.15035 0.90547 0.0
C637 C 0.01406 0.13265 0.99504 0.0
C638 C 0.9975 0.10687 0.97105 0.0
H639 H 0.03094 0.18423 0.00568 0.0
H640 H 0.02395 0.12799 0.02017 0.0
C641 C 0.9849 0.11391 0.9388 0.0
C642 C 0.14089 0.79592 0.23887 0.0
C643 C 0.12757 0.77397 0.20973 0.0
H644 H 0.17981 0.80996 0.27939 0.0
C645 C 0.14185 0.74725 0.20122 0.0
H646 H 0.13011 0.81659 0.24616 0.0
C647 C 0.16929 0.74294 0.22055 0.0
C648 C 0.18394 0.76575 0.24847 0.0
H649 H 0.13186 0.72949 0.17938 0.0
H650 H 0.17969 0.72218 0.21261 0.0
C651 C 0.16913 0.79201 0.25799 0.0
C652 C 0.54725 0.8599 0.45718 0.0
C653 C 0.51723 0.84337 0.46362 0.0
H654 H 0.58029 0.90506 0.46222 0.0
C655 C 0.49834 0.86016 0.48345 0.0
H656 H 0.5625 0.84776 0.44214 0.0
C657 C 0.5088 0.89322 0.49532 0.0
C658 C 0.53805 0.90998 0.48707 0.0
H659 H 0.47513 0.84806 0.48893 0.0
H660 H 0.49348 0.90594 0.50964 0.0
C661 C 0.55741 0.89284 0.46854 0.0
C662 C 0.41091 0.25753 0.68047 0.0
C663 C 0.44019 0.26137 0.70105 0.0
H664 H 0.36063 0.25498 0.679 0.0
C665 C 0.44048 0.26312 0.73717 0.0
H666 H 0.40975 0.25596 0.65261 0.0
C667 C 0.41195 0.26187 0.75234 0.0
C668 C 0.38304 0.25951 0.73152 0.0
H669 H 0.46272 0.26584 0.75365 0.0
H670 H 0.41263 0.26414 0.78018 0.0
C671 C 0.38274 0.25694 0.69555 0.0
C672 C 0.03937 0.84119 0.55952 0.0
C673 C 0.01258 0.82365 0.57226 0.0
H674 H 0.06002 0.88552 0.54028 0.0
C675 C 0.98445 0.83635 0.57167 0.0
H676 H 0.06133 0.83191 0.55943 0.0
C677 C 0.98379 0.86696 0.56087 0.0
C678 C 0.01114 0.88538 0.55019 0.0
H679 H 0.96331 0.82334 0.58104 0.0
H680 H 0.96214 0.87671 0.56208 0.0
C681 C 0.03861 0.87181 0.54843 0.0
C682 C 0.43478 0.78541 0.85475 0.0
C683 C 0.45315 0.76687 0.83632 0.0
H684 H 0.3894 0.79877 0.85822 0.0
C685 C 0.43955 0.74889 0.80486 0.0
H686 H 0.44474 0.79993 0.87885 0.0
C687 C 0.40757 0.74808 0.79305 0.0
C688 C 0.38886 0.76564 0.81227 0.0
H689 H 0.45323 0.73455 0.79003 0.0
H690 H 0.39726 0.73292 0.76945 0.0
C691 C 0.40309 0.785 0.84274 0.0
C692 C 0.51991 0.1496 0.09931 0.0
C693 C 0.49823 0.16542 0.08163 0.0
H694 H 0.54231 0.10832 0.10003 0.0
C695 C 0.4825 0.15079 0.04941 0.0
H696 H 0.53265 0.16025 0.12405 0.0
C697 C 0.48791 0.12054 0.03558 0.0
C698 C 0.5094 0.10467 0.05359 0.0
H699 H 0.46573 0.16247 0.03511 0.0
H700 H 0.47513 0.10952 0.011 0.0
C701 C 0.52558 0.11979 0.08539 0.0
C702 C 0.14752 0.31619 0.38931 0.0
C703 C 0.11975 0.29505 0.37362 0.0
H704 H 0.19753 0.33239 0.38964 0.0
C705 C 0.12176 0.27397 0.34419 0.0
H706 H 0.14695 0.33288 0.41188 0.0
C707 C 0.15116 0.27381 0.33114 0.0
C708 C 0.17897 0.29448 0.3476 0.0
H709 H 0.10075 0.2574 0.33149 0.0
H710 H 0.15224 0.25718 0.30869 0.0
C711 C 0.17668 0.31581 0.37658 0.0
C712 C 0.95518 0.02351 0.16003 0.0
C713 C 0.96713 0.00866 0.18781 0.0
H714 H 0.96074 0.03729 0.10964 0.0
C715 C 0.99612 0.99761 0.18592 0.0
H716 H 0.93316 0.03266 0.16067 0.0
C717 C 0.01217 0.00041 0.15634 0.0
C718 C 0.99944 0.01419 0.12806 0.0
H719 H 0.00609 0.98614 0.20696 0.0
H720 H 0.03383 0.99072 0.15513 0.0
C721 C 0.97109 0.0262 0.13063 0.0
C722 C 0.25496 0.72372 0.4586 0.0
C723 C 0.27785 0.70624 0.47115 0.0
H724 H 0.24058 0.75222 0.4193 0.0
C725 C 0.30611 0.70758 0.45547 0.0
H726 H 0.23301 0.72334 0.47029 0.0
C727 C 0.31052 0.72428 0.42654 0.0
C728 C 0.28673 0.73991 0.41252 0.0
H729 H 0.3244 0.69474 0.46476 0.0
H730 H 0.33205 0.72367 0.41428 0.0
C731 C 0.25934 0.7404 0.42948 0.0
C732 C 0.55441 0.97353 0.67376 0.0
C733 C 0.58515 0.99101 0.68599 0.0
H734 H 0.51478 0.96684 0.63447 0.0
C735 C 0.5992 0.01622 0.66786 0.0
H736 H 0.5429 0.95409 0.68734 0.0
C737 C 0.58303 0.02373 0.63811 0.0
C738 C 0.55251 0.00605 0.62551 0.0
H739 H 0.6227 0.0304 0.67672 0.0
H740 H 0.59473 0.04324 0.62473 0.0
C741 C 0.5382 0.981 0.64372 0.0
C742 C 0.25671 0.31961 0.94196 0.0
C743 C 0.28108 0.34723 0.95035 0.0
H744 H 0.22941 0.28501 0.90145 0.0
C745 C 0.2977 0.36037 0.92397 0.0
H746 H 0.24363 0.30895 0.96184 0.0
C747 C 0.28912 0.34723 0.8897 0.0
C748 C 0.2645 0.32005 0.88127 0.0
H749 H 0.31653 0.38169 0.9296 0.0
H750 H 0.30139 0.35864 0.86966 0.0
C751 C 0.24877 0.3058 0.90761 0.0
C752 C 0.96953 0.99502 0.37409 0.0
C753 C 0.95173 0.01425 0.35563 0.0
H754 H 0.99507 0.98961 0.42242 0.0
C755 C 0.9476 0.04418 0.37183 0.0
H756 H 0.97323 0.97189 0.36224 0.0
C757 C 0.9597 0.05402 0.40614 0.0
C758 C 0.97664 0.03443 0.42493 0.0
H759 H 0.93411 0.05964 0.35838 0.0
H760 H 0.95537 0.07685 0.41812 0.0
C761 C 0.98212 0.00518 0.40844 0.0
C762 C 0.27537 0.68254 0.65354 0.0
C763 C 0.29339 0.69934 0.6303 0.0
H764 H 0.25534 0.68524 0.70138 0.0
C765 C 0.30703 0.73247 0.63932 0.0
H766 H 0.26461 0.65702 0.64748 0.0
C767 C 0.30173 0.74871 0.67045 0.0
C768 C 0.28315 0.73195 0.69325 0.0
H769 H 0.32099 0.7461 0.62191 0.0
H770 H 0.31168 0.77443 0.67642 0.0
C771 C 0.27022 0.69869 0.68456 0.0
C772 C 0.56735 0.97649 0.84988 0.0
C773 C 0.57207 0.00594 0.83499 0.0
H774 H 0.54967 0.95135 0.89118 0.0
C775 C 0.55764 0.03144 0.84759 0.0
H776 H 0.57763 0.95618 0.84023 0.0
C777 C 0.54147 0.02863 0.87689 0.0
C778 C 0.53962 0.00027 0.89372 0.0
H779 H 0.5607 0.05432 0.83635 0.0
H780 H 0.53262 0.04945 0.88778 0.0
C781 C 0.55125 0.97369 0.87898 0.0
C782 C 0.26161 0.33289 0.15302 0.0
C783 C 0.27101 0.31646 0.12406 0.0
H784 H 0.2506 0.33151 0.20482 0.0
C785 C 0.27513 0.28403 0.12554 0.0
H786 H 0.25798 0.35775 0.15285 0.0
C787 C 0.27036 0.26864 0.15559 0.0
C788 C 0.26175 0.28555 0.18477 0.0
H789 H 0.28239 0.27066 0.10367 0.0
H790 H 0.27441 0.24397 0.15633 0.0
C791 C 0.25725 0.31773 0.18294 0.0
C792 C 0.18446 0.94296 0.04106 0.0
C793 C 0.18908 0.93323 0.00682 0.0
H794 H 0.15792 0.96858 0.07443 0.0
C795 C 0.17056 0.94301 0.97971 0.0
H796 H 0.19835 0.93571 0.06254 0.0
C797 C 0.14811 0.96225 0.98654 0.0
C798 C 0.14317 0.97175 0.02066 0.0
H799 H 0.17343 0.93592 0.95308 0.0
H800 H 0.13405 0.96902 0.96488 0.0
C801 C 0.16141 0.96178 0.04792 0.0
C802 C 0.65623 0.55623 0.00063 0.0
C803 C 0.66603 0.5893 0.01352 0.0
H804 H 0.61921 0.5135 0.99611 0.0
C805 C 0.64548 0.60441 0.03247 0.0
H806 H 0.67158 0.54387 0.98599 0.0
C807 C 0.61607 0.58707 0.0387 0.0
C808 C 0.60595 0.55413 0.02573 0.0
H809 H 0.65221 0.62974 0.04302 0.0
H810 H 0.60111 0.59979 0.05356 0.0
C811 C 0.62631 0.53884 0.00648 0.0
C812 C 0.71492 0.42961 0.29382 0.0
C813 C 0.6928 0.42937 0.31828 0.0
H814 H 0.74608 0.40319 0.26794 0.0
C815 C 0.68708 0.4026 0.33737 0.0
H816 H 0.71977 0.44991 0.27861 0.0
C817 C 0.70229 0.37625 0.33158 0.0
C818 C 0.72338 0.37567 0.30616 0.0
H819 H 0.67037 0.4017 0.35654 0.0
H820 H 0.69669 0.35586 0.34652 0.0
C821 C 0.72994 0.40286 0.28764 0.0
C822 C 0.87343 0.45313 0.5288 0.0
C823 C 0.85759 0.43924 0.55536 0.0
H824 H 0.91796 0.47613 0.51322 0.0
C825 C 0.87482 0.43935 0.58765 0.0
H826 H 0.86068 0.45353 0.50368 0.0
C827 C 0.90749 0.45177 0.59287 0.0
C828 C 0.92349 0.46489 0.56612 0.0
H829 H 0.86331 0.42891 0.60865 0.0
H830 H 0.92032 0.45081 0.61781 0.0
C831 C 0.90611 0.46616 0.53425 0.0
C832 C 0.31408 0.09173 0.24031 0.0
C833 C 0.32579 0.07995 0.2705 0.0
H834 H 0.2904 0.12744 0.2189 0.0
C835 C 0.31892 0.09301 0.30257 0.0
H836 H 0.31885 0.08199 0.21519 0.0
C837 C 0.3025 0.11873 0.30464 0.0
C838 C 0.2927 0.13204 0.27471 0.0
H839 H 0.32716 0.08409 0.32625 0.0
H840 H 0.29871 0.1291 0.32991 0.0
C841 C 0.29765 0.11763 0.2424 0.0
C842 C 0.35369 0.05575 0.54849 0.0
C843 C 0.34117 0.06899 0.51959 0.0
H844 H 0.39151 0.03441 0.57096 0.0
C845 C 0.35689 0.06843 0.48969 0.0
H846 H 0.34217 0.0557 0.57194 0.0
C847 C 0.3851 0.05621 0.48917 0.0
C848 C 0.39834 0.04418 0.51849 0.0
H849 H 0.34787 0.07821 0.4669 0.0
H850 H 0.39696 0.05697 0.46593 0.0
C851 C 0.38196 0.04345 0.54794 0.0
C852 C 0.70294 0.62191 0.25732 0.0
C853 C 0.70538 0.60647 0.28758 0.0
H854 H 0.71493 0.66567 0.2333 0.0
C855 C 0.72395 0.62386 0.31718 0.0
H856 H 0.68878 0.60923 0.23411 0.0
C857 C 0.73975 0.65615 0.3164 0.0
C858 C 0.73638 0.67172 0.28633 0.0
H859 H 0.72637 0.61248 0.3408 0.0
H860 H 0.75367 0.66923 0.33955 0.0
C861 C 0.71789 0.65425 0.25685 0.0
C862 C 0.83137 0.40892 0.77309 0.0
C863 C 0.84446 0.42419 0.74572 0.0
H864 H 0.8088 0.36414 0.79027 0.0
C865 C 0.84309 0.40593 0.71363 0.0
H866 H 0.83198 0.4225 0.79806 0.0
C867 C 0.83041 0.3727 0.70945 0.0
C868 C 0.81826 0.35723 0.73703 0.0
H869 H 0.85288 0.41701 0.69202 0.0
H870 H 0.83049 0.35897 0.68468 0.0
C871 C 0.81804 0.37566 0.76865 0.0
C872 C 0.05945 0.8468 0.0557 0.0
C873 C 0.04285 0.84393 0.08491 0.0
H874 H 0.07136 0.87438 0.01376 0.0
C875 C 0.02223 0.86564 0.09181 0.0
H876 H 0.07516 0.8302 0.0493 0.0
C877 C 0.01986 0.89091 0.07124 0.0
C878 C 0.03809 0.89507 0.04331 0.0
H879 H 0.00876 0.86388 0.11385 0.0
H880 H 0.00496 0.90814 0.07835 0.0
C881 C 0.05706 0.87203 0.0351 0.0
C882 C 0.9023 0.22445 0.79875 0.0
C883 C 0.92002 0.24684 0.82547 0.0
H884 H 0.85929 0.21129 0.76405 0.0
C885 C 0.90825 0.27481 0.83617 0.0
H886 H 0.91078 0.20271 0.78987 0.0
C887 C 0.87892 0.27974 0.82138 0.0
C888 C 0.86065 0.25684 0.79552 0.0
H889 H 0.92139 0.29268 0.85651 0.0
H890 H 0.87025 0.30119 0.83083 0.0
C891 C 0.87287 0.22943 0.78387 0.0
C892 C 0.51835 0.16392 0.63017 0.0
C893 C 0.52449 0.18574 0.60533 0.0
H894 H 0.50775 0.11441 0.6408 0.0
C895 C 0.52597 0.17318 0.57111 0.0
H896 H 0.51729 0.17264 0.65683 0.0
C897 C 0.52062 0.13941 0.56188 0.0
C898 C 0.51354 0.11774 0.58671 0.0
H899 H 0.53082 0.18937 0.55139 0.0
H900 H 0.52118 0.1303 0.53523 0.0
C901 C 0.51289 0.13041 0.62097 0.0
C902 C 0.58841 0.7378 0.32528 0.0
C903 C 0.58296 0.76954 0.33306 0.0
H904 H 0.62014 0.70805 0.30691 0.0
C905 C 0.605 0.79604 0.3248 0.0
H906 H 0.57178 0.71681 0.33101 0.0
C907 C 0.63274 0.79096 0.31077 0.0
C908 C 0.63899 0.7593 0.3049 0.0
H909 H 0.60144 0.82078 0.33034 0.0
H910 H 0.64993 0.81193 0.30602 0.0
C911 C 0.61614 0.73275 0.31144 0.0
C912 C 0.07457 0.19322 0.48693 0.0
C913 C 0.04707 0.20437 0.47488 0.0
H914 H 0.09355 0.15516 0.50939 0.0
C915 C 0.01701 0.18705 0.48051 0.0
H916 H 0.09805 0.20609 0.48324 0.0
C917 C 0.01448 0.15808 0.49609 0.0
C918 C 0.04194 0.14586 0.50579 0.0
H919 H 0.99538 0.19521 0.47176 0.0
H920 H 0.99104 0.14427 0.49849 0.0
C921 C 0.072 0.1641 0.50198 0.0
C922 C 0.6091 0.28689 0.20784 0.0
C923 C 0.59295 0.25542 0.21167 0.0
H924 H 0.6537 0.31998 0.21271 0.0
C925 C 0.61021 0.23351 0.22633 0.0
H926 H 0.59662 0.30443 0.19675 0.0
C927 C 0.64318 0.24262 0.23583 0.0
C928 C 0.65939 0.27356 0.23027 0.0
H929 H 0.59843 0.20908 0.22966 0.0
H930 H 0.6561 0.22511 0.24627 0.0
C931 C 0.64192 0.29575 0.2168 0.0
C932 C 0.52285 0.88255 0.96277 0.0
C933 C 0.54078 0.86535 0.9837 0.0
H934 H 0.50303 0.92515 0.95807 0.0
C935 C 0.55278 0.87921 0.01743 0.0
H936 H 0.51292 0.87249 0.93679 0.0
C937 C 0.54752 0.91006 0.0296 0.0
C938 C 0.52963 0.9272 0.00844 0.0
H939 H 0.56655 0.86644 0.03421 0.0
H940 H 0.55741 0.92045 0.05548 0.0
C941 C 0.51706 0.91282 0.97508 0.0
C942 C 0.90409 0.78755 0.69595 0.0
C943 C 0.92383 0.76418 0.69611 0.0
H944 H 0.85903 0.79885 0.70735 0.0
C945 C 0.91523 0.73626 0.71303 0.0
H946 H 0.91002 0.80923 0.68299 0.0
C947 C 0.88642 0.73075 0.72744 0.0
C948 C 0.86585 0.75304 0.72518 0.0
H949 H 0.93008 0.71796 0.71377 0.0
H950 H 0.87928 0.70808 0.73841 0.0
C951 C 0.87508 0.78182 0.71009 0.0
C952 C 0.08866 0.05326 0.91968 0.0
C953 C 0.08649 0.02895 0.89203 0.0
H954 H 0.07462 0.06623 0.96924 0.0
C955 C 0.06515 -0.00079 0.89226 0.0
H956 H 0.10462 0.07651 0.92035 0.0
C957 C 0.04747 0.9935 0.9203 0.0
C958 C 0.05127 0.01722 0.94877 0.0
H959 H 0.06274 0.98004 0.87124 0.0
H960 H 0.03211 0.97003 0.92049 0.0
C961 C 0.07147 0.04737 0.94778 0.0
C962 C 0.78871 0.29947 0.59381 0.0
C963 C 0.76706 0.31867 0.58222 0.0
H964 H 0.80095 0.26839 0.63135 0.0
C965 C 0.73882 0.3182 0.59775 0.0
H966 H 0.81058 0.29917 0.58213 0.0
C967 C 0.73315 0.30031 0.62557 0.0
C968 C 0.75569 0.28271 0.63857 0.0
H969 H 0.72145 0.33236 0.58907 0.0
H970 H 0.7117 0.30146 0.63783 0.0
C971 C 0.78309 0.28163 0.62181 0.0
C972 C 0.47257 0.03472 0.39297 0.0
C973 C 0.45665 0.00382 0.37745 0.0
H974 H 0.5037 0.06157 0.43616 0.0
C975 C 0.46315 0.97586 0.39166 0.0
H976 H 0.46828 0.05668 0.38232 0.0
C977 C 0.48331 0.97876 0.42219 0.0
C978 C 0.49781 0.00959 0.43861 0.0
H979 H 0.4515 0.95173 0.38015 0.0
H980 H 0.48634 0.95693 0.43396 0.0
C981 C 0.4932 0.03757 0.42336 0.0
C982 C 0.78483 0.72209 0.11323 0.0
C983 C 0.77809 0.68902 0.09998 0.0
H984 H 0.79088 0.75671 0.15827 0.0
C985 C 0.7705 0.6653 0.12264 0.0
H986 H 0.79055 0.74094 0.0964 0.0
C987 C 0.77094 0.67429 0.15788 0.0
C988 C 0.77837 0.70723 0.17125 0.0
H989 H 0.76511 0.63962 0.11333 0.0
H990 H 0.76602 0.65537 0.17481 0.0
C991 C 0.78469 0.73114 0.14855 0.0
C992 C 0.0595 0.011 0.69519 0.0
C993 C 0.08769 0.00269 0.71003 0.0
H994 H 0.02982 0.01338 0.64859 0.0
C995 C 0.10771 0.98992 0.68826 0.0
H996 H 0.0436 0.02101 0.71124 0.0
C997 C 0.09988 0.98563 0.65257 0.0
C998 C 0.07183 0.99404 0.63762 0.0
H999 H 0.12961 0.98324 0.69874 0.0
H1000 H 0.11595 0.97569 0.6367 0.0
C1001 C 0.05166 0.00675 0.6593 0.0
C1002 C 0.74927 0.30631 0.41193 0.0
C1003 C 0.77977 0.32185 0.42744 0.0
H1004 H 0.7223 0.27483 0.36894 0.0
C1005 C 0.80678 0.31386 0.41364 0.0
H1006 H 0.72801 0.31171 0.42224 0.0
C1007 C 0.8034 0.29281 0.3834 0.0
C1008 C 0.77302 0.27885 0.36686 0.0
H1009 H 0.83059 0.32517 0.42512 0.0
H1010 H 0.82456 0.289 0.37173 0.0
C1011 C 0.74594 0.28479 0.38186 0.0
C1012 C 0.4844 0.00341 0.21359 0.0
C1013 C 0.4631 0.02348 0.22331 0.0
H1014 H 0.51466 0.9911 0.17597 0.0
C1015 C 0.45889 0.0494 0.20418 0.0
H1016 H 0.48829 0.98337 0.22805 0.0
C1017 C 0.47419 0.054 0.17472 0.0
C1018 C 0.49382 0.03263 0.16364 0.0
H1019 H 0.44299 0.06557 0.21134 0.0
H1020 H 0.46949 0.0735 0.15982 0.0
C1021 C 0.49963 0.00791 0.18389 0.0
C1022 C 0.765 0.73062 0.92796 0.0
C1023 C 0.76448 0.69696 0.92829 0.0
H1024 H 0.76828 0.77133 0.89781 0.0
C1025 C 0.76748 0.67864 0.89741 0.0
H1026 H 0.76284 0.74549 0.95135 0.0
C1027 C 0.76999 0.69329 0.86681 0.0
C1028 C 0.7704 0.72687 0.8663 0.0
H1029 H 0.76712 0.65271 0.89664 0.0
H1030 H 0.77146 0.67811 0.8434 0.0
C1031 C 0.76829 0.7455 0.89736 0.0
C1032 C 0.85513 0.06067 0.04559 0.0
C1033 C 0.84006 0.06228 0.01256 0.0
H1034 H 0.895 0.04885 0.07521 0.0
C1035 C 0.85194 0.0484 0.98359 0.0
H1036 H 0.84632 0.07058 0.06848 0.0
C1037 C 0.87988 0.03554 0.98756 0.0
C1038 C 0.89623 0.03659 0.02051 0.0
H1039 H 0.84071 0.04909 0.9578 0.0
H1040 H 0.88981 0.02697 0.96482 0.0
C1041 C 0.88296 0.04809 0.04949 0.0
C1042 C 0.38207 0.49156 0.07858 0.0
C1043 C 0.36744 0.46014 0.06342 0.0
H1044 H 0.42402 0.5291 0.08519 0.0
C1045 C 0.38483 0.44246 0.0426 0.0
H1046 H 0.36938 0.50585 0.09477 0.0
C1047 C 0.41587 0.45584 0.03684 0.0
C1048 C 0.43062 0.48719 0.05201 0.0
H1049 H 0.37439 0.41824 0.03038 0.0
H1050 H 0.42831 0.44146 0.02044 0.0
C1051 C 0.41336 0.50491 0.07301 0.0
C1052 C 0.34009 0.59129 0.70618 0.0
C1053 C 0.34163 0.57123 0.73291 0.0
H1054 H 0.32783 0.63528 0.69017 0.0
C1055 C 0.3279 0.57871 0.76319 0.0
H1056 H 0.35021 0.58615 0.68243 0.0
C1057 C 0.31476 0.60681 0.7675 0.0
C1058 C 0.31545 0.62806 0.74174 0.0
H1059 H 0.32846 0.56357 0.78416 0.0
H1060 H 0.3058 0.61282 0.79175 0.0
C1061 C 0.32729 0.61949 0.71063 0.0
C1062 C 0.16867 0.58516 0.49776 0.0
C1063 C 0.18246 0.57666 0.52881 0.0
H1064 H 0.12649 0.58123 0.46287 0.0
C1065 C 0.16336 0.55597 0.5482 0.0
H1066 H 0.18267 0.60103 0.48217 0.0
C1067 C 0.13104 0.54441 0.53695 0.0
C1068 C 0.1172 0.55359 0.50628 0.0
H1069 H 0.17328 0.54897 0.57223 0.0
H1070 H 0.11676 0.52887 0.55261 0.0
C1071 C 0.13641 0.57387 0.48672 0.0
C1072 C 0.71929 0.92487 0.79527 0.0
C1073 C 0.71165 0.93416 0.7623 0.0
H1074 H 0.73687 0.8895 0.82433 0.0
C1075 C 0.71931 0.91645 0.73323 0.0
H1076 H 0.7139 0.93832 0.81818 0.0
C1077 C 0.73217 0.88858 0.7368 0.0
C1078 C 0.73809 0.87823 0.76953 0.0
H1079 H 0.71384 0.92306 0.70754 0.0
H1080 H 0.73634 0.87436 0.71376 0.0
C1081 C 0.73267 0.89717 0.79889 0.0
C1082 C 0.68953 0.96653 0.51236 0.0
C1083 C 0.70405 0.95463 0.54109 0.0
H1084 H 0.65114 0.9883 0.49211 0.0
C1085 C 0.69135 0.95791 0.57273 0.0
H1086 H 0.69866 0.96442 0.48756 0.0
C1087 C 0.66414 0.97162 0.57529 0.0
C1088 C 0.64903 0.98255 0.54633 0.0
H1089 H 0.702 0.94925 0.59543 0.0
H1090 H 0.65452 0.97303 0.59988 0.0
C1091 C 0.66237 0.98042 0.51497 0.0
C1092 C 0.30217 0.39711 0.7335 0.0
C1093 C 0.33262 0.41044 0.75061 0.0
H1094 H 0.26315 0.35643 0.72558 0.0
C1095 C 0.34719 0.39201 0.77335 0.0
H1096 H 0.29029 0.41066 0.71581 0.0
C1097 C 0.33167 0.36104 0.77896 0.0
C1098 C 0.30116 0.34773 0.76201 0.0
H1099 H 0.37061 0.40154 0.78701 0.0
H1100 H 0.34362 0.34757 0.79669 0.0
C1101 C 0.28658 0.36607 0.73917 0.0
C1102 C 0.19287 0.61186 0.30997 0.0
C1103 C 0.20316 0.59662 0.28082 0.0
H1104 H 0.19491 0.6561 0.34228 0.0
C1105 C 0.22506 0.61509 0.26228 0.0
H1106 H 0.17605 0.59833 0.32488 0.0
C1107 C 0.23603 0.64831 0.27243 0.0
C1108 C 0.22507 0.66362 0.30111 0.0
H1109 H 0.23344 0.60401 0.23971 0.0
H1110 H 0.25255 0.66211 0.25741 0.0
C1111 C 0.20361 0.64502 0.31992 0.0
C1112 C 0.4865 0.65007 0.43264 0.0
C1113 C 0.50935 0.67448 0.45256 0.0
H1114 H 0.46405 0.59995 0.42489 0.0
C1115 C 0.52709 0.66625 0.4814 0.0
H1116 H 0.47252 0.65549 0.41016 0.0
C1117 C 0.52204 0.63417 0.49002 0.0
C1118 C 0.49948 0.60977 0.46968 0.0
H1119 H 0.54489 0.68454 0.49722 0.0
H1120 H 0.53601 0.62842 0.51233 0.0
C1121 C 0.48177 0.61811 0.44098 0.0
C1122 C 0.64238 0.24517 0.69898 0.0
C1123 C 0.62685 0.27051 0.70911 0.0
H1124 H 0.68171 0.22169 0.70835 0.0
C1125 C 0.6397 0.29176 0.73893 0.0
H1126 H 0.63284 0.22798 0.67655 0.0
C1127 C 0.6685 0.28842 0.7573 0.0
C1128 C 0.68438 0.26342 0.74638 0.0
H1129 H 0.62799 0.31138 0.74743 0.0
H1130 H 0.67864 0.30574 0.77943 0.0
C1131 C 0.67044 0.24144 0.7175 0.0
C1132 C 0.04662 0.35518 0.9617 0.0
C1133 C 0.0143 0.34161 0.96241 0.0
H1134 H 0.083 0.39796 0.97084 0.0
C1135 C 0.9943 0.3611 0.97675 0.0
H1136 H 0.06278 0.34088 0.95105 0.0
C1137 C 0.00613 0.39396 0.98854 0.0
C1138 C 0.03795 0.40781 0.98561 0.0
H1139 H 0.9693 0.35132 0.97775 0.0
H1140 H 0.99007 0.40885 -0.00171 0.0
C1141 C 0.05822 0.38795 0.9729 0.0
C1142 C 0.94245 0.76853 0.2334 0.0
C1143 C 0.94209 0.7693 0.19748 0.0
H1144 H 0.91485 0.76702 0.27665 0.0
C1145 C 0.91295 0.76794 0.17741 0.0
H1146 H 0.96459 0.76929 0.24944 0.0
C1147 C 0.88498 0.76712 0.19292 0.0
C1148 C 0.88532 0.76696 0.22876 0.0
H1149 H 0.91179 0.76833 0.14971 0.0
H1150 H 0.86296 0.76684 0.1768 0.0
C1151 C 0.9141 0.76699 0.24893 0.0
C1152 C 0.54558 0.34657 0.07502 0.0
C1153 C 0.51922 0.32579 0.08499 0.0
H1154 H 0.56264 0.39179 0.05526 0.0
C1155 C 0.48872 0.33319 0.07838 0.0
H1156 H 0.56937 0.34144 0.07956 0.0
C1157 C 0.48491 0.3619 0.06453 0.0
C1158 C 0.51147 0.38382 0.05681 0.0
H1159 H 0.46783 0.3175 0.08527 0.0
H1160 H 0.46123 0.36757 0.06122 0.0
C1161 C 0.54172 0.37535 0.06097 0.0
C1162 C 0.91887 0.25878 0.36056 0.0
C1163 C 0.93983 0.26059 0.33495 0.0
H1164 H 0.87065 0.25098 0.37213 0.0
C1165 C 0.92711 0.2576 0.30013 0.0
H1166 H 0.92773 0.26151 0.38768 0.0
C1167 C 0.89397 0.25182 0.29121 0.0
C1168 C 0.87325 0.24881 0.31702 0.0
H1169 H 0.94266 0.259 0.27983 0.0
H1170 H 0.88457 0.24848 0.26423 0.0
C1171 C 0.88606 0.25287 0.3517 0.0
C1172 C 0.98788 0.64196 0.56026 0.0
C1173 C 0.01661 0.66362 0.5722 0.0
H1174 H 0.96592 0.59364 0.53782 0.0
C1175 C 0.04568 0.65358 0.56821 0.0
H1176 H 0.96515 0.64917 0.56288 0.0
C1177 C 0.04604 0.62191 0.55446 0.0
C1178 C 0.0174 0.59996 0.54364 0.0
H1179 H 0.0682 0.66971 0.57711 0.0
H1180 H 0.06875 0.61426 0.5531 0.0
C1181 C 0.98829 0.61038 0.54569 0.0
C1182 C 0.62259 0.73895 0.83064 0.0
C1183 C 0.61022 0.76557 0.84458 0.0
H1184 H 0.66246 0.72316 0.80931 0.0
C1185 C 0.62738 0.79726 0.8437 0.0
H1186 H 0.60987 0.71423 0.8308 0.0
C1187 C 0.65723 0.80218 0.8317 0.0
C1188 C 0.67041 0.77562 0.81974 0.0
H1189 H 0.61848 0.81834 0.85382 0.0
H1190 H 0.67066 0.82683 0.83304 0.0
C1191 C 0.65251 0.74398 0.81812 0.0
C1192 C 0.45113 0.50836 0.65561 0.0
C1193 C 0.47011 0.51355 0.68753 0.0
H1194 H 0.44955 0.5051 0.60082 0.0
C1195 C 0.50351 0.51995 0.68791 0.0
H1196 H 0.42536 0.50338 0.65428 0.0
C1197 C 0.51755 0.52088 0.65697 0.0
C1198 C 0.49846 0.51574 0.62508 0.0
H1199 H 0.51882 0.52407 0.71209 0.0
H1200 H 0.5433 0.52571 0.65805 0.0
C1201 C 0.46509 0.50951 0.62486 0.0
C1202 C 0.7582 0.22454 0.95475 0.0
C1203 C 0.77969 0.20482 0.96548 0.0
H1204 H 0.74542 0.2558 0.91758 0.0
C1205 C 0.8073 0.20476 0.94894 0.0
H1206 H 0.73681 0.22525 0.96722 0.0
C1207 C 0.81245 0.22256 0.92094 0.0
C1208 C 0.78991 0.24053 0.90863 0.0
H1209 H 0.82456 0.19022 0.95699 0.0
H1210 H 0.83343 0.22098 0.90797 0.0
C1211 C 0.76321 0.24218 0.92645 0.0
C1212 C 0.05071 0.47517 0.16702 0.0
C1213 C 0.08154 0.49204 0.17996 0.0
H1214 H 0.01208 0.46897 0.12646 0.0
C1215 C 0.09673 0.51661 0.1618 0.0
H1216 H 0.03832 0.4562 0.18057 0.0
C1217 C 0.08173 0.52401 0.13131 0.0
C1218 C 0.05116 0.50694 0.11796 0.0
H1219 H 0.12033 0.53033 0.17112 0.0
H1220 H 0.09436 0.54306 0.11803 0.0
C1221 C 0.0356 0.4826 0.13622 0.0
C1222 C 0.77538 0.80722 0.44545 0.0
C1223 C 0.77004 0.8376 0.4594 0.0
H1224 H 0.77345 0.77417 0.39982 0.0
C1225 C 0.75904 0.85844 0.43688 0.0
H1226 H 0.78396 0.79062 0.46206 0.0
C1227 C 0.75323 0.84914 0.40143 0.0
C1228 C 0.75815 0.81867 0.38741 0.0
H1229 H 0.75483 0.8821 0.4466 0.0
H1230 H 0.74458 0.86588 0.38505 0.0
C1231 C 0.76947 0.79783 0.40978 0.0
C1232 C 0.47275 0.49215 0.87818 0.0
C1233 C 0.45374 0.50962 0.85878 0.0
H1234 H 0.49644 0.48783 0.92789 0.0
C1235 C 0.44479 0.53723 0.8751 0.0
H1236 H 0.48004 0.47079 0.8663 0.0
C1237 C 0.45366 0.54655 0.91019 0.0
C1238 C 0.47211 0.52883 0.92978 0.0
H1239 H 0.43013 0.55125 0.86102 0.0
H1240 H 0.44589 0.56767 0.922 0.0
C1241 C 0.48211 0.50187 0.91337 0.0
C1242 C 0.80389 0.23565 0.12999 0.0
C1243 C 0.79021 0.20271 0.1198 0.0
H1244 H 0.80747 0.27682 0.16791 0.0
C1245 C 0.76882 0.18618 0.14022 0.0
H1246 H 0.82033 0.24906 0.11461 0.0
C1247 C 0.76111 0.20207 0.16996 0.0
C1248 C 0.77495 0.23482 0.18058 0.0
H1249 H 0.75764 0.16089 0.13314 0.0
H1250 H 0.74447 0.18834 0.18492 0.0
C1251 C 0.79635 0.25161 0.16026 0.0
C1252 C 0.0563 0.51789 0.3457 0.0
C1253 C 0.07577 0.49602 0.33544 0.0
H1254 H 0.0269 0.53202 0.38341 0.0
C1255 C 0.07716 0.46878 0.3535 0.0
H1256 H 0.05454 0.53897 0.33209 0.0
C1257 C 0.06123 0.46472 0.38268 0.0
C1258 C 0.04366 0.48786 0.39446 0.0
H1259 H 0.09162 0.45125 0.34596 0.0
H1260 H 0.06395 0.44422 0.3969 0.0
C1261 C 0.04037 0.51385 0.37502 0.0
C1262 C 0.74355 0.79203 0.62652 0.0
C1263 C 0.76305 0.82286 0.62616 0.0
H1264 H 0.72925 0.75168 0.65554 0.0
C1265 C 0.78419 0.83603 0.65562 0.0
H1266 H 0.72702 0.78109 0.60423 0.0
C1267 C 0.78535 0.81928 0.68486 0.0
C1268 C 0.76553 0.78873 0.68557 0.0
H1269 H 0.79956 0.85964 0.65639 0.0
H1270 H 0.80168 0.83062 0.70718 0.0
C1271 C 0.74486 0.77509 0.65587 0.0
C1272 C 0.6894 0.46043 0.50343 0.0
C1273 C 0.70386 0.45429 0.53518 0.0
H1274 H 0.65173 0.47886 0.47716 0.0
C1275 C 0.69285 0.46574 0.56582 0.0
H1276 H 0.69762 0.45237 0.47938 0.0
C1277 C 0.66644 0.48104 0.56457 0.0
C1278 C 0.6507 0.48511 0.53264 0.0
H1279 H 0.70369 0.4616 0.59073 0.0
H1280 H 0.65739 0.48803 0.58847 0.0
C1281 C 0.66315 0.47573 0.50218 0.0
C1282 C 0.16185 0.05871 0.49876 0.0
C1283 C 0.1728 0.08964 0.51724 0.0
H1284 H 0.12366 0.01707 0.48789 0.0
C1285 C 0.15331 0.10171 0.54019 0.0
H1286 H 0.17634 0.04868 0.48097 0.0
C1287 C 0.12363 0.08361 0.54446 0.0
C1288 C 0.11223 0.05296 0.52564 0.0
H1289 H 0.16096 0.12529 0.55509 0.0
H1290 H 0.10938 0.09402 0.56229 0.0
C1291 C 0.13174 0.04057 0.50282 0.0
C1292 C 0.1943 0.92041 0.82327 0.0
C1293 C 0.20397 0.94215 0.79928 0.0
H1294 H 0.19449 0.87339 0.84019 0.0
C1295 C 0.2246 0.93363 0.77557 0.0
H1296 H 0.17867 0.92627 0.8421 0.0
C1297 C 0.23388 0.90326 0.77464 0.0
C1298 C 0.22248 0.88079 0.79724 0.0
H1299 H 0.23264 0.9499 0.75686 0.0
H1300 H 0.24864 0.89679 0.75514 0.0
C1301 C 0.20336 0.89005 0.82216 0.0
C1302 C 0.37538 0.9401 0.0842 0.0
C1303 C 0.35777 0.93938 0.052 0.0
H1304 H 0.42118 0.95183 0.11368 0.0
C1305 C 0.37328 0.95247 0.02483 0.0
H1306 H 0.36416 0.93021 0.10563 0.0
C1307 C 0.40601 0.9654 0.02967 0.0
C1308 C 0.42372 0.96466 0.06148 0.0
H1309 H 0.36022 0.95231 -0.00024 0.0
H1310 H 0.41763 0.97489 0.00829 0.0
C1311 C 0.40807 0.95228 0.08876 0.0
C1312 C 0.82534 0.59499 0.72923 0.0
C1313 C 0.83969 0.58459 0.75897 0.0
H1314 H 0.8006 0.63043 0.70857 0.0
C1315 C 0.83764 0.60081 0.79138 0.0
H1316 H 0.82641 0.58285 0.7039 0.0
C1317 C 0.82297 0.62774 0.79396 0.0
C1318 C 0.80986 0.63905 0.76426 0.0
H1319 H 0.84808 0.59324 0.81486 0.0
H1320 H 0.82261 0.64021 0.81932 0.0
C1321 C 0.81042 0.62204 0.73186 0.0
C1322 C 0.88302 0.61137 0.99348 0.0
C1323 C 0.85466 0.59661 0.00538 0.0
H1324 H 0.9314 0.60968 0.98688 0.0
C1325 C 0.85401 0.5672 0.02035 0.0
H1326 H 0.88442 0.63394 0.98175 0.0
C1327 C 0.88149 0.55325 0.0238 0.0
C1328 C 0.90981 0.56822 0.01173 0.0
H1329 H 0.8325 0.55531 0.02992 0.0
H1330 H 0.88053 0.5308 0.03566 0.0
C1331 C 0.91004 0.59731 0.99637 0.0
C1332 C 0.21626 0.12062 0.81218 0.0
C1333 C 0.18524 0.11132 0.7948 0.0
H1334 H 0.2589 0.15757 0.82202 0.0
C1335 C 0.17392 0.13247 0.77295 0.0
H1336 H 0.22573 0.10476 0.8291 0.0
C1337 C 0.1928 0.16216 0.76868 0.0
C1338 C 0.22361 0.17194 0.78631 0.0
H1339 H 0.15033 0.12612 0.75886 0.0
H1340 H 0.1829 0.1776 0.75157 0.0
C1341 C 0.23529 0.15076 0.80804 0.0
C1342 C 0.35084 0.90595 0.21797 0.0
C1343 C 0.34742 0.925 0.24819 0.0
H1344 H 0.34153 0.85849 0.19008 0.0
C1345 C 0.32991 0.9104 0.27322 0.0
H1346 H 0.36421 0.91649 0.19823 0.0
C1347 C 0.31651 0.87717 0.26832 0.0
C1348 C 0.32096 0.85798 0.23861 0.0
H1349 H 0.32679 0.92458 0.29672 0.0
H1350 H 0.30352 0.86635 0.28817 0.0
C1351 C 0.33797 0.87271 0.21337 0.0
C1352 C 0.56106 0.36299 0.57573 0.0
C1353 C 0.5388 0.34758 0.59609 0.0
H1354 H 0.57357 0.40211 0.545 0.0
C1355 C 0.5097 0.35833 0.59759 0.0
H1356 H 0.5836 0.35517 0.57374 0.0
C1357 C 0.50383 0.38512 0.5809 0.0
C1358 C 0.52694 0.40189 0.56239 0.0
H1359 H 0.49181 0.34676 0.61264 0.0
H1360 H 0.48175 0.39359 0.58394 0.0
C1361 C 0.55521 0.38984 0.55906 0.0
C1362 C 0.40304 0.72791 0.2989 0.0
C1363 C 0.42008 0.74924 0.32686 0.0
H1364 H 0.36018 0.71506 0.26394 0.0
C1365 C 0.40693 0.7755 0.33997 0.0
H1366 H 0.41256 0.70749 0.28816 0.0
C1367 C 0.37705 0.77982 0.32614 0.0
C1368 C 0.35958 0.75803 0.29881 0.0
H1369 H 0.41945 0.79247 0.36141 0.0
H1370 H 0.36739 0.79996 0.33736 0.0
C1371 C 0.37308 0.73231 0.28496 0.0
C1372 C 0.02022 0.6783 0.06852 0.0
C1373 C 0.02278 0.69076 0.1034 0.0
H1374 H 0.01498 0.63573 0.03227 0.0
C1375 C 0.02382 0.6693 0.1289 0.0
H1376 H 0.01961 0.69427 0.0483 0.0
C1377 C 0.02106 0.63598 0.11974 0.0
C1378 C 0.01766 0.6234 0.08493 0.0
H1379 H 0.02595 0.67808 0.15602 0.0
H1380 H 0.02099 0.61996 0.13997 0.0
C1381 C 0.01789 0.64488 0.05935 0.0
C1382 C 0.10281 0.2968 0.82551 0.0
C1383 C 0.08174 0.26991 0.83455 0.0
H1384 H 0.14728 0.31371 0.80603 0.0
C1385 C 0.08832 0.23853 0.82751 0.0
H1386 H 0.09834 0.32128 0.83049 0.0
C1387 C 0.11625 0.23428 0.81372 0.0
C1388 C 0.13811 0.26124 0.80636 0.0
H1389 H 0.07246 0.21724 0.83381 0.0
H1390 H 0.12118 0.20987 0.80979 0.0
C1391 C 0.13075 0.29248 0.81138 0.0
C1392 C 0.55023 0.68926 0.96981 0.0
C1393 C 0.52363 0.7038 0.97416 0.0
H1394 H 0.57299 0.64901 0.97842 0.0
C1395 C 0.49998 0.68899 0.99337 0.0
H1396 H 0.569 0.70006 0.95535 0.0
C1397 C 0.50236 0.65956 0.0068 0.0
C1398 C 0.52834 0.64441 0.00108 0.0
H1399 H 0.47924 0.69966 -0.0027 0.0
H1400 H 0.48334 0.64816 0.02059 0.0
C1401 C 0.55252 0.65992 0.98305 0.0
C1402 C 0.10347 0.78076 0.6828 0.0
C1403 C 0.08703 0.75058 0.69046 0.0
H1404 H 0.14757 0.81473 0.6881 0.0
C1405 C 0.10339 0.73143 0.7106 0.0
H1406 H 0.09163 0.7961 0.66725 0.0
C1407 C 0.1356 0.74229 0.72276 0.0
C1408 C 0.15203 0.7723 0.71465 0.0
H1409 H 0.09138 0.70804 0.71686 0.0
H1410 H 0.1477 0.72701 0.73812 0.0
C1411 C 0.13562 0.79142 0.69463 0.0
C1412 C 0.04616 0.37049 0.51302 0.0
C1413 C 0.03095 0.35665 0.48034 0.0
H1414 H 0.05441 0.41178 0.5515 0.0
C1415 C 0.01066 0.37355 0.4621 0.0
H1416 H 0.06184 0.3579 0.5277 0.0
C1417 C 0.00595 0.40377 0.47589 0.0
C1418 C 0.0219 0.41828 0.50802 0.0
H1419 H 0.9983 0.36344 0.43703 0.0
H1420 H 0.99034 0.41611 0.46077 0.0
C1421 C 0.04187 0.40124 0.52665 0.0
C1422 C 0.40277 0.25397 0.19441 0.0
C1423 C 0.42674 0.24919 0.21933 0.0
H1424 H 0.35336 0.25412 0.18164 0.0
C1425 C 0.41883 0.24363 0.2527 0.0
H1426 H 0.408 0.25888 0.16864 0.0
C1427 C 0.38716 0.24126 0.26029 0.0
C1428 C 0.36312 0.24426 0.23453 0.0
H1429 H 0.43681 0.24001 0.27252 0.0
H1430 H 0.38123 0.23541 0.28558 0.0
C1431 C 0.37141 0.25142 0.20188 0.0
C1432 C 0.57469 0.49399 0.39507 0.0
C1433 C 0.58917 0.52575 0.38956 0.0
H1434 H 0.54628 0.46411 0.42708 0.0
C1435 C 0.58407 0.55216 0.41163 0.0
H1436 H 0.57799 0.47314 0.3784 0.0
C1437 C 0.56638 0.54691 0.43953 0.0
C1438 C 0.55263 0.51521 0.44554 0.0
H1439 H 0.59476 0.57692 0.40817 0.0
H1440 H 0.56404 0.56767 0.45695 0.0
C1441 C 0.55628 0.4888 0.42265 0.0
C1442 C 0.27705 0.8048 0.09502 0.0
C1443 C 0.2477 0.80752 0.07748 0.0
H1444 H 0.30074 0.7881 0.13862 0.0
C1445 C 0.21928 0.79153 0.08828 0.0
H1446 H 0.29932 0.81666 0.08694 0.0
C1447 C 0.22013 0.77551 0.11796 0.0
C1448 C 0.24939 0.77461 0.13675 0.0
H1449 H 0.19636 0.79316 0.07516 0.0
H1450 H 0.19785 0.76533 0.12728 0.0
C1451 C 0.2779 0.78815 0.1243 0.0
C1452 C 0.98922 0.48903 0.87436 0.0
C1453 C 0.97124 0.51254 0.86538 0.0
H1454 H 0.0185 0.47302 0.91443 0.0
C1455 C 0.97286 0.54058 0.88838 0.0
H1456 H 0.98846 0.46723 0.85706 0.0
C1457 C 0.99039 0.54402 0.92067 0.0
C1458 C 0.00653 0.51954 0.93044 0.0
H1459 H 0.95968 0.55935 0.88193 0.0
H1460 H 0.99008 0.56507 0.93865 0.0
C1461 C 0.00663 0.49243 0.9069 0.0
C1462 C 0.27267 0.21896 0.61104 0.0
C1463 C 0.27687 0.18793 0.59784 0.0
H1464 H 0.2709 0.25125 0.65622 0.0
C1465 C 0.28181 0.16511 0.62098 0.0
H1466 H 0.26868 0.23705 0.59388 0.0
C1467 C 0.28278 0.1731 0.6564 0.0
C1468 C 0.27891 0.20415 0.66972 0.0
H1469 H 0.2849 0.14089 0.61178 0.0
H1470 H 0.28687 0.1549 0.67337 0.0
C1471 C 0.27369 0.22701 0.6467 0.0
C1472 C 0.57012 0.5272 0.1988 0.0
C1473 C 0.59372 0.51197 0.21403 0.0
H1474 H 0.54123 0.53205 0.15245 0.0
C1475 C 0.60593 0.48901 0.19345 0.0
H1476 H 0.56022 0.54498 0.21397 0.0
C1477 C 0.59533 0.4819 0.15841 0.0
C1478 C 0.57204 0.49731 0.14302 0.0
H1479 H 0.62412 0.47678 0.20425 0.0
H1480 H 0.60551 0.46425 0.14337 0.0
C1481 C 0.55925 0.51981 0.16361 0.0
C1482 C 0.29126 0.78756 0.92753 0.0
C1483 C 0.27169 0.81084 0.93168 0.0
H1484 H 0.3055 0.75155 0.89321 0.0
C1485 C 0.24888 0.81324 0.90439 0.0
H1486 H 0.30889 0.78487 0.94818 0.0
C1487 C 0.24682 0.7939 0.87306 0.0
C1488 C 0.26751 0.77191 0.86828 0.0
H1489 H 0.23309 0.83053 0.90692 0.0
H1490 H 0.22942 0.79657 0.85233 0.0
C1491 C 0.28916 0.76824 0.89613 0.0
C1492 C 0.99275 0.56894 0.71487 0.0
C1493 C 0.97342 0.54033 0.72249 0.0
H1494 H 0.02495 0.59059 0.68109 0.0
C1495 C 0.97494 0.51044 0.70417 0.0
H1496 H 0.99222 0.59226 0.72884 0.0
C1497 C 0.99416 0.50936 0.67747 0.0
C1498 C 0.01175 0.53823 0.6681 0.0
H1499 H 0.96069 0.48791 0.70992 0.0
H1500 H 0.99375 0.48605 0.66299 0.0
C1501 C 0.01159 0.56794 0.68769 0.0
C1502 C 0.22727 0.19352 0.39905 0.0
C1503 C 0.25379 0.19076 0.42172 0.0
H1504 H 0.21028 0.21205 0.35312 0.0
C1505 C 0.28408 0.20787 0.41645 0.0
H1506 H 0.20358 0.18088 0.40233 0.0
C1507 C 0.28779 0.22643 0.38842 0.0
C1508 C 0.26137 0.2276 0.36488 0.0
H1509 H 0.30498 0.20641 0.43356 0.0
H1510 H 0.31144 0.23847 0.38421 0.0
C1511 C 0.23107 0.21142 0.37082 0.0
C1512 C 0.35294 0.55425 0.48473 0.0
C1513 C 0.34077 0.56627 0.51444 0.0
H1514 H 0.39086 0.53392 0.46449 0.0
C1515 C 0.35557 0.56267 0.547 0.0
H1516 H 0.34193 0.55649 0.45925 0.0
C1517 C 0.3833 0.54979 0.54989 0.0
C1518 C 0.39681 0.54002 0.52034 0.0
H1519 H 0.34658 0.57116 0.57041 0.0
H1520 H 0.39503 0.54889 0.57543 0.0
C1521 C 0.38079 0.54113 0.48767 0.0
C1522 C 0.89693 0.92793 0.52499 0.0
C1523 C 0.87566 0.94042 0.54523 0.0
H1524 H 0.94177 0.936 0.505 0.0
C1525 C 0.88452 0.97264 0.56122 0.0
H1526 H 0.89091 0.90338 0.51202 0.0
C1527 C 0.91439 0.99161 0.55751 0.0
C1528 C 0.93567 0.97879 0.53733 0.0
H1529 H 0.8686 0.98301 0.57694 0.0
H1530 H 0.92087 0.01611 0.57054 0.0
C1531 C 0.92624 0.94684 0.52086 0.0
C1532 C 0.83489 0.09962 0.20669 0.0
C1533 C 0.83768 0.08016 0.2338 0.0
H1534 H 0.81986 0.14195 0.18952 0.0
C1535 C 0.82416 0.08768 0.26425 0.0
H1536 H 0.84479 0.09451 0.18279 0.0
C1537 C 0.80953 0.11496 0.26803 0.0
C1538 C 0.80841 0.13536 0.24154 0.0
H1539 H 0.82574 0.07311 0.2856 0.0
H1540 H 0.80045 0.12088 0.29223 0.0
C1541 C 0.82058 0.1269 0.21057 0.0
C1542 C 0.66774 0.06962 0.01839 0.0
C1543 C 0.67744 0.10335 0.02738 0.0
H1544 H 0.62829 0.02991 0.00338 0.0
C1545 C 0.65439 0.12318 0.02788 0.0
H1546 H 0.68512 0.05384 0.01799 0.0
C1547 C 0.62224 0.1097 0.01882 0.0
C1548 C 0.61248 0.07603 0.00996 0.0
H1549 H 0.66124 0.14928 0.03463 0.0
H1550 H 0.60498 0.12562 0.01902 0.0
C1551 C 0.63537 0.05597 0.01023 0.0
C1552 C 0.2253 0.42971 0.2623 0.0
C1553 C 0.22051 0.44489 0.29425 0.0
H1554 H 0.23997 0.3893 0.23565 0.0
C1555 C 0.23245 0.43367 0.32475 0.0
H1556 H 0.21698 0.43816 0.23838 0.0
C1557 C 0.24592 0.4056 0.32314 0.0
C1558 C 0.24756 0.38868 0.29103 0.0
H1559 H 0.2293 0.44509 0.34977 0.0
H1560 H 0.2524 0.39567 0.34682 0.0
C1561 C 0.23867 0.40187 0.26073 0.0
C1562 C 0.19347 0.45372 0.06758 0.0
C1563 C 0.20623 0.45141 0.03584 0.0
H1564 H 0.15677 0.46816 0.09545 0.0
C1565 C 0.19217 0.46478 0.00793 0.0
H1566 H 0.20374 0.44387 0.08969 0.0
C1567 C 0.1653 0.479 0.01134 0.0
C1568 C 0.15174 0.47994 0.04266 0.0
H1569 H 0.20139 0.46353 0.98313 0.0
H1570 H 0.15441 0.48804 0.98903 0.0
C1571 C 0.16651 0.46769 0.0709 0.0
C1572 C 0.79758 0.90191 0.23792 0.0
C1573 C 0.82907 0.91564 0.25175 0.0
H1574 H 0.75935 0.86054 0.23314 0.0
C1575 C 0.84633 0.89708 0.27172 0.0
H1576 H 0.78361 0.91551 0.2224 0.0
C1577 C 0.83242 0.86569 0.27794 0.0
C1578 C 0.80087 0.85199 0.26435 0.0
H1579 H 0.87062 0.90685 0.28281 0.0
H1580 H 0.84649 0.85217 0.29349 0.0
C1581 C 0.78364 0.87041 0.24414 0.0
C1582 C 0.72754 0.1145 0.76491 0.0
C1583 C 0.70658 0.09661 0.78486 0.0
H1584 H 0.75428 0.16126 0.75778 0.0
C1585 C 0.69758 0.1125 0.81444 0.0
H1586 H 0.73494 0.1029 0.74202 0.0
C1587 C 0.70842 0.14578 0.82327 0.0
C1588 C 0.72869 0.16385 0.80288 0.0
H1589 H 0.68154 0.0994 0.83045 0.0
H1590 H 0.7006 0.1574 0.8459 0.0
C1591 C 0.73863 0.14787 0.77395 0.0
loop_
_geom_bond_atom_site_label_1
_geom_bond_atom_site_label_2
_geom_bond_distance
_geom_bond_site_symmetry_2
_ccdc_geom_bond_type
C0 O1 1.160 . S
C0 O7 1.185 . S
O1 C0 1.160 . S
O2 Zn3 1.899 . S
O2 C10 1.284 . S
Zn3 O2 1.899 . S
Zn3 O4 2.032 . S
Zn3 O7 2.086 . S
Zn3 O12 1.977 1_455 S
O4 Zn3 2.032 . S
O4 C8 1.278 . S
C5 O6 1.203 . S
C5 O12 1.267 . S
O6 C5 1.203 . S
O7 C0 1.185 . S
O7 Zn3 2.086 . S
C8 O4 1.278 . S
C8 O9 1.211 . S
O9 C8 1.211 . S
C10 O2 1.284 . S
C10 O11 1.273 . S
O11 C10 1.273 . S
O12 Zn3 1.977 1_655 S
O12 C5 1.267 . S
C13 O14 1.160 . S
C13 O20 1.185 . S
O14 C13 1.160 . S
O15 Zn16 1.899 . S
O15 C23 1.284 . S
Zn16 O15 1.899 . S
Zn16 O17 2.032 1_455 S
Zn16 O20 2.086 1_455 S
Zn16 O25 1.977 . S
O17 Zn16 2.032 1_655 S
O17 C21 1.278 1_655 S
C18 O19 1.203 . S
C18 O25 1.267 . S
O19 C18 1.203 . S
O20 C13 1.185 . S
O20 Zn16 2.086 1_655 S
C21 O17 1.278 1_455 S
C21 O22 1.211 . S
O22 C21 1.211 . S
C23 O15 1.284 . S
C23 O24 1.273 . S
O24 C23 1.273 . S
O25 Zn16 1.977 . S
O25 C18 1.267 . S
C26 O27 1.160 . S
C26 O33 1.185 . S
O27 C26 1.160 . S
O28 Zn29 1.899 . S
O28 C36 1.284 . S
Zn29 O28 1.899 . S
Zn29 O30 2.032 . S
Zn29 O33 2.086 . S
Zn29 O38 1.977 . S
O30 Zn29 2.032 . S
O30 C34 1.278 . S
C31 O32 1.203 . S
C31 O38 1.267 . S
O32 C31 1.203 . S
O33 C26 1.185 . S
O33 Zn29 2.086 . S
C34 O30 1.278 . S
C34 O35 1.211 . S
O35 C34 1.211 . S
C36 O28 1.284 . S
C36 O37 1.273 . S
O37 C36 1.273 . S
O38 Zn29 1.977 . S
O38 C31 1.267 . S
C39 O40 1.160 . S
C39 O46 1.185 . S
O40 C39 1.160 . S
O41 Zn42 1.899 . S
O41 C49 1.284 . S
Zn42 O41 1.899 . S
Zn42 O43 2.032 . S
Zn42 O46 2.086 . S
Zn42 O51 1.977 . S
O43 Zn42 2.032 . S
O43 C47 1.278 . S
C44 O45 1.203 . S
C44 O51 1.267 . S
O45 C44 1.203 . S
O46 C39 1.185 . S
O46 Zn42 2.086 . S
C47 O43 1.278 . S
C47 O48 1.211 . S
O48 C47 1.211 . S
C49 O41 1.284 . S
C49 O50 1.273 . S
O50 C49 1.273 . S
O51 Zn42 1.977 . S
O51 C44 1.267 . S
C52 O53 1.160 . S
C52 O59 1.185 1_655 S
O53 C52 1.160 . S
O54 Zn55 1.899 . S
O54 C62 1.284 . S
Zn55 O54 1.899 . S
Zn55 O56 2.032 . S
Zn55 O59 2.086 . S
Zn55 O64 1.977 . S
O56 Zn55 2.032 . S
O56 C60 1.278 . S
C57 O58 1.203 . S
C57 O64 1.267 . S
O58 C57 1.203 . S
O59 C52 1.185 1_455 S
O59 Zn55 2.086 . S
C60 O56 1.278 . S
C60 O61 1.211 . S
O61 C60 1.211 . S
C62 O54 1.284 . S
C62 O63 1.273 . S
O63 C62 1.273 . S
O64 Zn55 1.977 . S
O64 C57 1.267 . S
C65 O66 1.160 . S
C65 O72 1.185 . S
O66 C65 1.160 . S
O67 Zn68 1.899 . S
O67 C75 1.284 . S
Zn68 O67 1.899 . S
Zn68 O69 2.032 . S
Zn68 O72 2.086 . S
Zn68 O77 1.977 . S
O69 Zn68 2.032 . S
O69 C73 1.278 . S
C70 O71 1.203 . S
C70 O77 1.267 . S
O71 C70 1.203 . S
O72 C65 1.185 . S
O72 Zn68 2.086 . S
C73 O69 1.278 . S
C73 O74 1.211 . S
O74 C73 1.211 . S
C75 O67 1.284 . S
C75 O76 1.273 . S
O76 C75 1.273 . S
O77 Zn68 1.977 . S
O77 C70 1.267 . S
C78 O79 1.160 . S
C78 O85 1.185 . S
O79 C78 1.160 . S
O80 Zn81 1.899 . S
O80 C88 1.284 . S
Zn81 O80 1.899 . S
Zn81 O82 2.032 . S
Zn81 O85 2.086 . S
Zn81 O90 1.977 . S
O82 Zn81 2.032 . S
O82 C86 1.278 . S
C83 O84 1.203 . S
C83 O90 1.267 . S
O84 C83 1.203 . S
O85 C78 1.185 . S
O85 Zn81 2.086 . S
C86 O82 1.278 . S
C86 O87 1.211 . S
O87 C86 1.211 . S
C88 O80 1.284 . S
C88 O89 1.273 . S
O89 C88 1.273 . S
O90 Zn81 1.977 . S
O90 C83 1.267 . S
C91 O92 1.160 . S
C91 O98 1.185 . S
O92 C91 1.160 . S
O93 Zn94 1.898 . S
O93 C101 1.282 1_455 S
Zn94 O93 1.898 . S
Zn94 O95 2.032 . S
Zn94 O98 2.086 . S
Zn94 O103 1.977 1_455 S
O95 Zn94 2.032 . S
O95 C99 1.278 . S
C96 O97 1.203 . S
C96 O103 1.267 . S
O97 C96 1.203 . S
O98 C91 1.185 . S
O98 Zn94 2.086 . S
C99 O95 1.278 . S
C99 O100 1.211 1_455 S
O100 C99 1.211 1_655 S
C101 O93 1.282 1_655 S
C101 O102 1.273 . S
O102 C101 1.273 . S
O103 Zn94 1.977 1_655 S
O103 C96 1.267 . S
C104 O105 1.160 . S
C104 O111 1.185 . S
O105 C104 1.160 . S
O106 Zn107 1.899 . S
O106 C114 1.284 . S
Zn107 O106 1.899 . S
Zn107 O108 2.032 . S
Zn107 O111 2.086 . S
Zn107 O116 1.977 1_545 S
O108 Zn107 2.032 . S
O108 C112 1.278 . S
C109 O110 1.203 . S
C109 O116 1.267 . S
O110 C109 1.203 . S
O111 C104 1.185 . S
O111 Zn107 2.086 . S
C112 O108 1.278 . S
C112 O113 1.211 1_545 S
O113 C112 1.211 1_565 S
C114 O106 1.284 . S
C114 O115 1.273 . S
O115 C114 1.273 . S
O116 Zn107 1.977 1_565 S
O116 C109 1.267 . S
C117 O118 1.160 . S
C117 O124 1.185 . S
O118 C117 1.160 . S
O119 Zn120 1.899 . S
O119 C127 1.284 . S
Zn120 O119 1.899 . S
Zn120 O121 2.032 . S
Zn120 O124 2.086 . S
Zn120 O129 1.977 . S
O121 Zn120 2.032 . S
O121 C125 1.278 . S
C122 O123 1.203 . S
C122 O129 1.267 . S
O123 C122 1.203 . S
O124 C117 1.185 . S
O124 Zn120 2.086 . S
C125 O121 1.278 . S
C125 O126 1.211 . S
O126 C125 1.211 . S
C127 O119 1.284 . S
C127 O128 1.273 . S
O128 C127 1.273 . S
O129 Zn120 1.977 . S
O129 C122 1.267 . S
C130 O131 1.160 . S
C130 O137 1.185 . S
O131 C130 1.160 . S
O132 Zn133 1.899 . S
O132 C140 1.284 . S
Zn133 O132 1.899 . S
Zn133 O134 2.032 . S
Zn133 O137 2.086 1_545 S
Zn133 O142 1.977 . S
O134 Zn133 2.032 . S
O134 C138 1.278 . S
C135 O136 1.203 . S
C135 O142 1.267 . S
O136 C135 1.203 . S
O137 C130 1.185 . S
O137 Zn133 2.086 1_565 S
C138 O134 1.278 . S
C138 O139 1.211 . S
O139 C138 1.211 . S
C140 O132 1.284 . S
C140 O141 1.273 . S
O141 C140 1.273 . S
O142 Zn133 1.977 . S
O142 C135 1.267 . S
C143 O144 1.160 . S
C143 O150 1.185 . S
O144 C143 1.160 . S
O145 Zn146 1.899 . S
O145 C153 1.284 . S
Zn146 O145 1.899 . S
Zn146 O147 2.032 1_554 S
Zn146 O150 2.086 . S
Zn146 O155 1.977 . S
O147 Zn146 2.032 1_556 S
O147 C151 1.278 . S
C148 O149 1.203 . S
C148 O155 1.267 . S
O149 C148 1.203 . S
O150 C143 1.185 . S
O150 Zn146 2.086 . S
C151 O147 1.278 . S
C151 O152 1.211 . S
O152 C151 1.211 . S
C153 O145 1.284 . S
C153 O154 1.273 . S
O154 C153 1.273 . S
O155 Zn146 1.977 . S
O155 C148 1.267 . S
C156 O157 1.160 . S
C156 O163 1.185 . S
O157 C156 1.160 . S
O158 Zn159 1.899 . S
O158 C166 1.284 . S
Zn159 O158 1.899 . S
Zn159 O160 2.032 . S
Zn159 O163 2.086 . S
Zn159 O168 1.977 . S
O160 Zn159 2.032 . S
O160 C164 1.278 . S
C161 O162 1.203 . S
C161 O168 1.267 . S
O162 C161 1.203 . S
O163 C156 1.185 . S
O163 Zn159 2.086 . S
C164 O160 1.278 . S
C164 O165 1.211 . S
O165 C164 1.211 . S
C166 O158 1.284 . S
C166 O167 1.273 . S
O167 C166 1.273 . S
O168 Zn159 1.977 . S
O168 C161 1.267 . S
C169 O170 1.160 . S
C169 O176 1.185 . S
O170 C169 1.160 . S
O171 Zn172 1.899 . S
O171 C179 1.284 . S
Zn172 O171 1.899 . S
Zn172 O173 2.032 . S
Zn172 O176 2.086 . S
Zn172 O181 1.977 . S
O173 Zn172 2.032 . S
O173 C177 1.278 1_554 S
C174 O175 1.203 . S
C174 O181 1.267 . S
O175 C174 1.203 . S
O176 C169 1.185 . S
O176 Zn172 2.086 . S
C177 O173 1.278 1_556 S
C177 O178 1.211 . S
O178 C177 1.211 . S
C179 O171 1.284 . S
C179 O180 1.273 . S
O180 C179 1.273 . S
O181 Zn172 1.977 . S
O181 C174 1.267 . S
C182 O183 1.160 . S
C182 O189 1.185 . S
O183 C182 1.160 . S
O184 Zn185 1.899 . S
O184 C192 1.284 . S
Zn185 O184 1.899 . S
Zn185 O186 2.032 . S
Zn185 O189 2.086 . S
Zn185 O194 1.977 . S
O186 Zn185 2.032 . S
O186 C190 1.278 . S
C187 O188 1.203 . S
C187 O194 1.267 . S
O188 C187 1.203 . S
O189 C182 1.185 . S
O189 Zn185 2.086 . S
C190 O186 1.278 . S
C190 O191 1.211 . S
O191 C190 1.211 . S
C192 O184 1.284 . S
C192 O193 1.273 . S
O193 C192 1.273 . S
O194 Zn185 1.977 . S
O194 C187 1.267 . S
C195 O196 1.160 . S
C195 O202 1.185 . S
O196 C195 1.160 . S
O197 Zn198 1.899 . S
O197 C205 1.284 . S
Zn198 O197 1.899 . S
Zn198 O199 2.032 . S
Zn198 O202 2.086 . S
Zn198 O207 1.977 . S
O199 Zn198 2.032 . S
O199 C203 1.278 . S
C200 O201 1.203 . S
C200 O207 1.267 . S
O201 C200 1.203 . S
O202 C195 1.185 . S
O202 Zn198 2.086 . S
C203 O199 1.278 . S
C203 O204 1.211 . S
O204 C203 1.211 . S
C205 O197 1.284 . S
C205 O206 1.273 . S
O206 C205 1.273 . S
O207 Zn198 1.977 . S
O207 C200 1.267 . S
C208 O209 1.160 . S
C208 O215 1.185 . S
O209 C208 1.160 . S
O210 Zn211 1.899 . S
O210 C218 1.284 . S
Zn211 O210 1.899 . S
Zn211 O212 2.032 . S
Zn211 O215 2.086 . S
Zn211 O220 1.977 1_545 S
O212 Zn211 2.032 . S
O212 C216 1.278 . S
C213 O214 1.203 . S
C213 O220 1.267 . S
O214 C213 1.203 . S
O215 C208 1.185 . S
O215 Zn211 2.086 . S
C216 O212 1.278 . S
C216 O217 1.211 1_545 S
O217 C216 1.211 1_565 S
C218 O210 1.284 . S
C218 O219 1.273 1_545 S
O219 C218 1.273 1_565 S
O220 Zn211 1.977 1_565 S
O220 C213 1.267 . S
C221 O222 1.160 . S
C221 O228 1.185 . S
O222 C221 1.160 . S
O223 Zn224 1.899 . S
O223 C231 1.284 . S
Zn224 O223 1.899 . S
Zn224 O225 2.032 . S
Zn224 O228 2.086 . S
Zn224 O233 1.977 . S
O225 Zn224 2.032 . S
O225 C229 1.278 . S
C226 O227 1.203 . S
C226 O233 1.267 . S
O227 C226 1.203 . S
O228 C221 1.185 . S
O228 Zn224 2.086 . S
C229 O225 1.278 . S
C229 O230 1.211 . S
O230 C229 1.211 . S
C231 O223 1.284 . S
C231 O232 1.273 . S
O232 C231 1.273 . S
O233 Zn224 1.977 . S
O233 C226 1.267 . S
C234 O235 1.160 . S
C234 O241 1.185 . S
O235 C234 1.160 . S
O236 Zn237 1.899 . S
O236 C244 1.284 . S
Zn237 O236 1.899 . S
Zn237 O238 2.032 . S
Zn237 O241 2.086 . S
Zn237 O246 1.977 . S
O238 Zn237 2.032 . S
O238 C242 1.278 . S
C239 O240 1.203 . S
C239 O246 1.267 . S
O240 C239 1.203 . S
O241 C234 1.185 . S
O241 Zn237 2.086 . S
C242 O238 1.278 . S
C242 O243 1.211 . S
O243 C242 1.211 . S
C244 O236 1.284 . S
C244 O245 1.273 . S
O245 C244 1.273 . S
O246 Zn237 1.977 . S
O246 C239 1.267 . S
C247 O248 1.160 . S
C247 O254 1.185 . S
O248 C247 1.160 . S
O249 Zn250 1.899 . S
O249 C257 1.284 . S
Zn250 O249 1.899 . S
Zn250 O251 2.032 . S
Zn250 O254 2.086 . S
Zn250 O259 1.977 1_565 S
O251 Zn250 2.032 . S
O251 C255 1.278 1_565 S
C252 O253 1.203 . S
C252 O259 1.267 . S
O253 C252 1.203 . S
O254 C247 1.185 . S
O254 Zn250 2.086 . S
C255 O251 1.278 1_545 S
C255 O256 1.211 . S
O256 C255 1.211 . S
C257 O249 1.284 . S
C257 O258 1.273 1_565 S
O258 C257 1.273 1_545 S
O259 Zn250 1.977 1_545 S
O259 C252 1.267 . S
C260 O261 1.160 . S
C260 O267 1.185 1_554 S
O261 C260 1.160 . S
O262 Zn263 1.899 . S
O262 C270 1.284 . S
Zn263 O262 1.899 . S
Zn263 O264 2.032 1_554 S
Zn263 O267 2.086 1_554 S
Zn263 O272 1.977 1_554 S
O264 Zn263 2.032 1_556 S
O264 C268 1.278 . S
C265 O266 1.203 1_556 S
C265 O272 1.267 . S
O266 C265 1.203 1_554 S
O267 C260 1.185 1_556 S
O267 Zn263 2.086 1_556 S
C268 O264 1.278 . S
C268 O269 1.211 . S
O269 C268 1.211 . S
C270 O262 1.284 . S
C270 O271 1.273 . S
O271 C270 1.273 . S
O272 Zn263 1.977 1_556 S
O272 C265 1.267 . S
C273 O274 1.160 . S
C273 O280 1.185 . S
O274 C273 1.160 . S
O275 Zn276 1.899 . S
O275 C283 1.284 . S
Zn276 O275 1.899 . S
Zn276 O277 2.032 . S
Zn276 O280 2.086 . S
Zn276 O285 1.977 . S
O277 Zn276 2.032 . S
O277 C281 1.278 . S
C278 O279 1.203 . S
C278 O285 1.267 . S
O279 C278 1.203 . S
O280 C273 1.185 . S
O280 Zn276 2.086 . S
C281 O277 1.278 . S
C281 O282 1.211 . S
O282 C281 1.211 . S
C283 O275 1.284 . S
C283 O284 1.273 . S
O284 C283 1.273 . S
O285 Zn276 1.977 . S
O285 C278 1.267 . S
C286 O287 1.160 . S
C286 O293 1.185 . S
O287 C286 1.160 . S
O288 Zn289 1.899 . S
O288 C296 1.284 . S
Zn289 O288 1.899 . S
Zn289 O290 2.032 . S
Zn289 O293 2.086 . S
Zn289 O298 1.977 . S
O290 Zn289 2.032 . S
O290 C294 1.278 . S
C291 O292 1.203 . S
C291 O298 1.267 . S
O292 C291 1.203 . S
O293 C286 1.185 . S
O293 Zn289 2.086 . S
C294 O290 1.278 . S
C294 O295 1.211 . S
O295 C294 1.211 . S
C296 O288 1.284 . S
C296 O297 1.273 . S
O297 C296 1.273 . S
O298 Zn289 1.977 . S
O298 C291 1.267 . S
C299 O300 1.160 . S
C299 O306 1.185 . S
O300 C299 1.160 . S
O301 Zn302 1.899 . S
O301 C309 1.284 . S
Zn302 O301 1.899 . S
Zn302 O303 2.032 . S
Zn302 O306 2.086 . S
Zn302 O311 1.977 . S
O303 Zn302 2.032 . S
O303 C307 1.278 . S
C304 O305 1.203 . S
C304 O311 1.267 . S
O305 C304 1.203 . S
O306 C299 1.185 . S
O306 Zn302 2.086 . S
C307 O303 1.278 . S
C307 O308 1.211 . S
O308 C307 1.211 . S
C309 O301 1.284 . S
C309 O310 1.273 . S
O310 C309 1.273 . S
O311 Zn302 1.977 . S
O311 C304 1.267 . S
Zn312 O318 1.969 . S
Zn312 O319 1.965 1_565 S
Zn312 O323 2.024 . S
Zn312 O328 1.969 . S
Zn313 O320 1.969 1_654 S
Zn313 O326 1.969 1_554 S
Zn313 O327 1.965 . S
Zn313 O329 2.024 1_655 S
C314 O315 1.229 . S
C314 O323 1.058 . S
O315 C314 1.229 . S
C316 O317 1.229 1_454 S
C316 O329 1.058 . S
O317 C316 1.229 1_656 S
O318 Zn312 1.969 . S
O318 C321 1.267 . S
O319 Zn312 1.965 1_545 S
O319 C330 1.260 1_554 S
O320 Zn313 1.969 1_456 S
O320 C330 1.258 . S
C321 O318 1.267 . S
C321 O322 1.228 . S
O322 C321 1.228 . S
O323 Zn312 2.024 . S
O323 C314 1.058 . S
C324 O325 1.245 . S
C324 O326 1.256 1_554 S
O325 C324 1.245 . S
O326 Zn313 1.969 1_556 S
O326 C324 1.256 1_556 S
O327 Zn313 1.965 . S
O327 C331 1.260 1_655 S
O328 Zn312 1.969 . S
O328 C331 1.258 1_565 S
O329 Zn313 2.024 1_455 S
O329 C316 1.058 . S
C330 O319 1.260 1_556 S
C330 O320 1.258 . S
C331 O327 1.260 1_455 S
C331 O328 1.258 1_545 S
Zn332 O338 1.969 . S
Zn332 O339 1.965 . S
Zn332 O343 2.024 . S
Zn332 O348 1.969 . S
Zn333 O340 1.969 . S
Zn333 O346 1.969 . S
Zn333 O347 1.965 . S
Zn333 O349 2.024 . S
C334 O335 1.229 . S
C334 O343 1.058 . S
O335 C334 1.229 . S
C336 O337 1.229 . S
C336 O349 1.058 . S
O337 C336 1.229 . S
O338 Zn332 1.969 . S
O338 C341 1.267 . S
O339 Zn332 1.965 . S
O339 C350 1.260 . S
O340 Zn333 1.969 . S
O340 C350 1.258 . S
C341 O338 1.267 . S
C341 O342 1.228 . S
O342 C341 1.228 . S
O343 Zn332 2.024 . S
O343 C334 1.058 . S
C344 O345 1.228 . S
C344 O346 1.267 . S
O345 C344 1.228 . S
O346 Zn333 1.969 . S
O346 C344 1.267 . S
O347 Zn333 1.965 . S
O347 C351 1.260 . S
O348 Zn332 1.969 . S
O348 C351 1.258 . S
O349 Zn333 2.024 . S
O349 C336 1.058 . S
C350 O339 1.260 . S
C350 O340 1.258 . S
C351 O347 1.260 . S
C351 O348 1.258 . S
Zn352 O358 1.969 . S
Zn352 O359 1.965 . S
Zn352 O363 2.024 . S
Zn352 O368 1.969 . S
Zn353 O360 1.969 . S
Zn353 O366 1.969 . S
Zn353 O367 1.965 1_565 S
Zn353 O369 2.024 . S
C354 O355 1.229 . S
C354 O363 1.058 . S
O355 C354 1.229 . S
C356 O357 1.229 . S
C356 O369 1.058 . S
O357 C356 1.229 . S
O358 Zn352 1.969 . S
O358 C361 1.267 . S
O359 Zn352 1.965 . S
O359 C370 1.260 . S
O360 Zn353 1.969 . S
O360 C370 1.258 1_565 S
C361 O358 1.267 . S
C361 O362 1.228 . S
O362 C361 1.228 . S
O363 Zn352 2.024 . S
O363 C354 1.058 . S
C364 O365 1.228 . S
C364 O366 1.267 . S
O365 C364 1.228 . S
O366 Zn353 1.969 . S
O366 C364 1.267 . S
O367 Zn353 1.965 1_545 S
O367 C371 1.260 . S
O368 Zn352 1.969 . S
O368 C371 1.258 . S
O369 Zn353 2.024 . S
O369 C356 1.058 . S
C370 O359 1.260 . S
C370 O360 1.258 1_545 S
C371 O367 1.260 . S
C371 O368 1.258 . S
Zn372 O378 1.969 . S
Zn372 O379 1.965 . S
Zn372 O383 2.024 . S
Zn372 O388 1.969 . S
Zn373 O380 1.969 . S
Zn373 O386 1.969 . S
Zn373 O387 1.965 . S
Zn373 O389 2.024 . S
C374 O375 1.229 . S
C374 O383 1.058 . S
O375 C374 1.229 . S
C376 O377 1.229 . S
C376 O389 1.058 . S
O377 C376 1.229 . S
O378 Zn372 1.969 . S
O378 C381 1.267 . S
O379 Zn372 1.965 . S
O379 C390 1.260 . S
O380 Zn373 1.969 . S
O380 C390 1.258 . S
C381 O378 1.267 . S
C381 O382 1.228 . S
O382 C381 1.228 . S
O383 Zn372 2.024 . S
O383 C374 1.058 . S
C384 O385 1.228 . S
C384 O386 1.267 . S
O385 C384 1.228 . S
O386 Zn373 1.969 . S
O386 C384 1.267 . S
O387 Zn373 1.965 . S
O387 C391 1.260 . S
O388 Zn372 1.969 . S
O388 C391 1.258 . S
O389 Zn373 2.024 . S
O389 C376 1.058 . S
C390 O379 1.260 . S
C390 O380 1.258 . S
C391 O387 1.260 . S
C391 O388 1.258 . S
Zn392 O398 1.969 . S
Zn392 O399 1.965 1_455 S
Zn392 O403 2.024 1_565 S
Zn392 O408 1.969 1_565 S
Zn393 O400 1.969 1_455 S
Zn393 O406 1.969 1_455 S
Zn393 O407 1.965 . S
Zn393 O409 2.024 . S
C394 O395 1.229 1_545 S
C394 O403 1.058 . S
O395 C394 1.229 1_565 S
C396 O397 1.229 . S
C396 O409 1.058 1_655 S
O397 C396 1.229 . S
O398 Zn392 1.969 . S
O398 C401 1.267 . S
O399 Zn392 1.965 1_655 S
O399 C410 1.260 . S
O400 Zn393 1.969 1_655 S
O400 C410 1.258 1_545 S
C401 O398 1.267 . S
C401 O402 1.228 . S
O402 C401 1.228 . S
O403 Zn392 2.024 1_545 S
O403 C394 1.058 . S
C404 O405 1.228 . S
C404 O406 1.267 1_455 S
O405 C404 1.228 . S
O406 Zn393 1.969 1_655 S
O406 C404 1.267 1_655 S
O407 Zn393 1.965 . S
O407 C411 1.260 . S
O408 Zn392 1.969 1_545 S
O408 C411 1.258 . S
O409 Zn393 2.024 . S
O409 C396 1.058 1_455 S
C410 O399 1.260 . S
C410 O400 1.258 1_565 S
C411 O407 1.260 . S
C411 O408 1.258 . S
Zn412 O418 1.969 . S
Zn412 O419 1.965 . S
Zn412 O423 2.024 . S
Zn412 O428 1.969 . S
Zn413 O420 1.969 . S
Zn413 O426 1.969 . S
Zn413 O427 1.965 . S
Zn413 O429 2.024 . S
C414 O415 1.229 . S
C414 O423 1.058 . S
O415 C414 1.229 . S
C416 O417 1.229 . S
C416 O429 1.058 . S
O417 C416 1.229 . S
O418 Zn412 1.969 . S
O418 C421 1.267 . S
O419 Zn412 1.965 . S
O419 C430 1.260 . S
O420 Zn413 1.969 . S
O420 C430 1.258 . S
C421 O418 1.267 . S
C421 O422 1.228 . S
O422 C421 1.228 . S
O423 Zn412 2.024 . S
O423 C414 1.058 . S
C424 O425 1.228 . S
C424 O426 1.267 . S
O425 C424 1.228 . S
O426 Zn413 1.969 . S
O426 C424 1.267 . S
O427 Zn413 1.965 . S
O427 C431 1.260 . S
O428 Zn412 1.969 . S
O428 C431 1.258 . S
O429 Zn413 2.024 . S
O429 C416 1.058 . S
C430 O419 1.260 . S
C430 O420 1.258 . S
C431 O427 1.260 . S
C431 O428 1.258 . S
Zn432 O438 1.969 1_554 S
Zn432 O439 1.965 1_545 S
Zn432 O443 2.024 . S
Zn432 O448 1.969 . S
Zn433 O440 1.969 . S
Zn433 O446 1.969 . S
Zn433 O447 1.965 1_565 S
Zn433 O449 2.024 . S
C434 O435 1.229 . S
C434 O443 1.058 . S
O435 C434 1.229 . S
C436 O437 1.229 . S
C436 O449 1.058 . S
O437 C436 1.229 . S
O438 Zn432 1.969 1_556 S
O438 C441 1.267 . S
O439 Zn432 1.965 1_565 S
O439 C450 1.260 . S
O440 Zn433 1.969 . S
O440 C450 1.258 . S
C441 O438 1.267 . S
C441 O442 1.228 . S
O442 C441 1.228 . S
O443 Zn432 2.024 . S
O443 C434 1.058 . S
C444 O445 1.228 1_565 S
C444 O446 1.267 . S
O445 C444 1.228 1_545 S
O446 Zn433 1.969 . S
O446 C444 1.267 . S
O447 Zn433 1.965 1_545 S
O447 C451 1.260 . S
O448 Zn432 1.969 . S
O448 C451 1.258 . S
O449 Zn433 2.024 . S
O449 C436 1.058 . S
C450 O439 1.260 . S
C450 O440 1.258 . S
C451 O447 1.260 . S
C451 O448 1.258 . S
Zn452 O458 1.969 . S
Zn452 O459 1.965 . S
Zn452 O463 2.024 . S
Zn452 O468 1.969 . S
Zn453 O460 1.969 . S
Zn453 O466 1.969 . S
Zn453 O467 1.965 . S
Zn453 O469 2.024 . S
C454 O455 1.229 . S
C454 O463 1.058 . S
O455 C454 1.229 . S
C456 O457 1.229 . S
C456 O469 1.058 . S
O457 C456 1.229 . S
O458 Zn452 1.969 . S
O458 C461 1.267 . S
O459 Zn452 1.965 . S
O459 C470 1.260 . S
O460 Zn453 1.969 . S
O460 C470 1.258 . S
C461 O458 1.267 . S
C461 O462 1.228 . S
O462 C461 1.228 . S
O463 Zn452 2.024 . S
O463 C454 1.058 . S
C464 O465 1.228 . S
C464 O466 1.267 . S
O465 C464 1.228 . S
O466 Zn453 1.969 . S
O466 C464 1.267 . S
O467 Zn453 1.965 . S
O467 C471 1.260 . S
O468 Zn452 1.969 . S
O468 C471 1.258 . S
O469 Zn453 2.024 . S
O469 C456 1.058 . S
C470 O459 1.260 . S
C470 O460 1.258 . S
C471 O467 1.260 . S
C471 O468 1.258 . S
Zn472 O478 1.969 . S
Zn472 O479 1.965 . S
Zn472 O483 2.024 . S
Zn472 O488 1.969 . S
Zn473 O480 1.969 1_556 S
Zn473 O486 1.969 1_556 S
Zn473 O487 1.965 1_556 S
Zn473 O489 2.024 . S
C474 O475 1.229 . S
C474 O483 1.058 . S
O475 C474 1.229 . S
C476 O477 1.229 . S
C476 O489 1.058 . S
O477 C476 1.229 . S
O478 Zn472 1.969 . S
O478 C481 1.267 . S
O479 Zn472 1.965 . S
O479 C490 1.260 . S
O480 Zn473 1.969 1_554 S
O480 C490 1.258 . S
C481 O478 1.267 . S
C481 O482 1.228 . S
O482 C481 1.228 . S
O483 Zn472 2.024 . S
O483 C474 1.058 . S
C484 O485 1.228 . S
C484 O486 1.267 1_556 S
O485 C484 1.228 . S
O486 Zn473 1.969 1_554 S
O486 C484 1.267 1_554 S
O487 Zn473 1.965 1_554 S
O487 C491 1.260 . S
O488 Zn472 1.969 . S
O488 C491 1.258 . S
O489 Zn473 2.024 . S
O489 C476 1.058 . S
C490 O479 1.260 . S
C490 O480 1.258 . S
C491 O487 1.260 . S
C491 O488 1.258 . S
Zn492 O498 1.969 . S
Zn492 O499 1.965 . S
Zn492 O503 2.024 . S
Zn492 O508 1.969 . S
Zn493 O500 1.969 . S
Zn493 O506 1.969 . S
Zn493 O507 1.965 . S
Zn493 O509 2.024 . S
C494 O495 1.229 . S
C494 O503 1.058 . S
O495 C494 1.229 . S
C496 O497 1.229 . S
C496 O509 1.058 . S
O497 C496 1.229 . S
O498 Zn492 1.969 . S
O498 C501 1.267 . S
O499 Zn492 1.965 . S
O499 C510 1.260 . S
O500 Zn493 1.969 . S
O500 C510 1.258 . S
C501 O498 1.267 . S
C501 O502 1.228 . S
O502 C501 1.228 . S
O503 Zn492 2.024 . S
O503 C494 1.058 . S
C504 O505 1.228 . S
C504 O506 1.267 . S
O505 C504 1.228 . S
O506 Zn493 1.969 . S
O506 C504 1.267 . S
O507 Zn493 1.965 . S
O507 C511 1.260 . S
O508 Zn492 1.969 . S
O508 C511 1.258 . S
O509 Zn493 2.024 . S
O509 C496 1.058 . S
C510 O499 1.260 . S
C510 O500 1.258 . S
C511 O507 1.260 . S
C511 O508 1.258 . S
Zn512 O518 1.969 . S
Zn512 O519 1.965 . S
Zn512 O523 2.024 . S
Zn512 O528 1.969 . S
Zn513 O520 1.969 1_655 S
Zn513 O526 1.969 . S
Zn513 O527 1.965 1_655 S
Zn513 O529 2.024 . S
C514 O515 1.229 . S
C514 O523 1.058 . S
O515 C514 1.229 . S
C516 O517 1.229 . S
C516 O529 1.058 . S
O517 C516 1.229 . S
O518 Zn512 1.969 . S
O518 C521 1.267 . S
O519 Zn512 1.965 . S
O519 C530 1.260 . S
O520 Zn513 1.969 1_455 S
O520 C530 1.258 . S
C521 O518 1.267 . S
C521 O522 1.228 . S
O522 C521 1.228 . S
O523 Zn512 2.024 . S
O523 C514 1.058 . S
C524 O525 1.228 . S
C524 O526 1.267 . S
O525 C524 1.228 . S
O526 Zn513 1.969 . S
O526 C524 1.267 . S
O527 Zn513 1.965 1_455 S
O527 C531 1.260 . S
O528 Zn512 1.969 . S
O528 C531 1.258 . S
O529 Zn513 2.024 . S
O529 C516 1.058 . S
C530 O519 1.260 . S
C530 O520 1.258 . S
C531 O527 1.260 . S
C531 O528 1.258 . S
Zn532 O538 1.969 . S
Zn532 O539 1.965 . S
Zn532 O543 2.024 . S
Zn532 O548 1.969 . S
Zn533 O540 1.969 . S
Zn533 O546 1.969 . S
Zn533 O547 1.965 . S
Zn533 O549 2.024 . S
C534 O535 1.229 . S
C534 O543 1.058 . S
O535 C534 1.229 . S
C536 O537 1.229 . S
C536 O549 1.058 . S
O537 C536 1.229 . S
O538 Zn532 1.969 . S
O538 C541 1.267 . S
O539 Zn532 1.965 . S
O539 C550 1.260 . S
O540 Zn533 1.969 . S
O540 C550 1.258 . S
C541 O538 1.267 . S
C541 O542 1.228 . S
O542 C541 1.228 . S
O543 Zn532 2.024 . S
O543 C534 1.058 . S
C544 O545 1.228 . S
C544 O546 1.267 . S
O545 C544 1.228 . S
O546 Zn533 1.969 . S
O546 C544 1.267 . S
O547 Zn533 1.965 . S
O547 C551 1.260 . S
O548 Zn532 1.969 . S
O548 C551 1.258 . S
O549 Zn533 2.024 . S
O549 C536 1.058 . S
C550 O539 1.260 . S
C550 O540 1.258 . S
C551 O547 1.260 . S
C551 O548 1.258 . S
Zn552 O558 1.969 . S
Zn552 O559 1.965 . S
Zn552 O563 2.024 . S
Zn552 O568 1.969 . S
Zn553 O560 1.969 . S
Zn553 O566 1.969 . S
Zn553 O567 1.965 . S
Zn553 O569 2.024 . S
C554 O555 1.229 . S
C554 O563 1.058 . S
O555 C554 1.229 . S
C556 O557 1.229 . S
C556 O569 1.058 . S
O557 C556 1.229 . S
O558 Zn552 1.969 . S
O558 C561 1.267 . S
O559 Zn552 1.965 . S
O559 C570 1.260 . S
O560 Zn553 1.969 . S
O560 C570 1.258 . S
C561 O558 1.267 . S
C561 O562 1.228 . S
O562 C561 1.228 . S
O563 Zn552 2.024 . S
O563 C554 1.058 . S
C564 O565 1.228 . S
C564 O566 1.267 . S
O565 C564 1.228 . S
O566 Zn553 1.969 . S
O566 C564 1.267 . S
O567 Zn553 1.965 . S
O567 C571 1.260 . S
O568 Zn552 1.969 . S
O568 C571 1.258 . S
O569 Zn553 2.024 . S
O569 C556 1.058 . S
C570 O559 1.260 . S
C570 O560 1.258 . S
C571 O567 1.260 . S
C571 O568 1.258 . S
Zn572 O578 1.969 . S
Zn572 O579 1.965 . S
Zn572 O583 2.024 . S
Zn572 O588 1.969 . S
Zn573 O580 1.969 . S
Zn573 O586 1.969 . S
Zn573 O587 1.965 . S
Zn573 O589 2.024 . S
C574 O575 1.229 . S
C574 O583 1.058 . S
O575 C574 1.229 . S
C576 O577 1.229 . S
C576 O589 1.058 . S
O577 C576 1.229 . S
O578 Zn572 1.969 . S
O578 C581 1.267 . S
O579 Zn572 1.965 . S
O579 C590 1.260 . S
O580 Zn573 1.969 . S
O580 C590 1.258 . S
C581 O578 1.267 . S
C581 O582 1.228 . S
O582 C581 1.228 . S
O583 Zn572 2.024 . S
O583 C574 1.058 . S
C584 O585 1.228 . S
C584 O586 1.267 . S
O585 C584 1.228 . S
O586 Zn573 1.969 . S
O586 C584 1.267 . S
O587 Zn573 1.965 . S
O587 C591 1.260 . S
O588 Zn572 1.969 . S
O588 C591 1.258 . S
O589 Zn573 2.024 . S
O589 C576 1.058 . S
C590 O579 1.260 . S
C590 O580 1.258 . S
C591 O587 1.260 . S
C591 O588 1.258 . S
Zn592 O598 1.969 . S
Zn592 O599 1.965 . S
Zn592 O603 2.024 . S
Zn592 O608 1.969 . S
Zn593 O600 1.969 . S
Zn593 O606 1.969 . S
Zn593 O607 1.965 . S
Zn593 O609 2.024 . S
C594 O595 1.229 . S
C594 O603 1.058 . S
O595 C594 1.229 . S
C596 O597 1.229 . S
C596 O609 1.058 . S
O597 C596 1.229 . S
O598 Zn592 1.969 . S
O598 C601 1.267 . S
O599 Zn592 1.965 . S
O599 C610 1.260 . S
O600 Zn593 1.969 . S
O600 C610 1.258 . S
C601 O598 1.267 . S
C601 O602 1.228 . S
O602 C601 1.228 . S
O603 Zn592 2.024 . S
O603 C594 1.058 . S
C604 O605 1.228 . S
C604 O606 1.267 . S
O605 C604 1.228 . S
O606 Zn593 1.969 . S
O606 C604 1.267 . S
O607 Zn593 1.965 . S
O607 C611 1.260 . S
O608 Zn592 1.969 . S
O608 C611 1.258 . S
O609 Zn593 2.024 . S
O609 C596 1.058 . S
C610 O599 1.260 . S
C610 O600 1.258 . S
C611 O607 1.260 . S
C611 O608 1.258 . S
Zn612 O618 1.969 . S
Zn612 O619 1.988 . S
Zn612 O623 2.024 1_655 S
Zn612 O628 1.969 1_655 S
Zn613 O620 1.969 1_554 S
Zn613 O626 1.969 1_554 S
Zn613 O627 1.965 . S
Zn613 O629 2.024 . S
C614 O615 1.229 . S
C614 O623 1.058 . S
O615 C614 1.229 . S
C616 O617 1.229 . S
C616 O629 1.058 1_556 S
O617 C616 1.229 . S
O618 Zn612 1.969 . S
O618 C621 1.267 . S
O619 Zn612 1.988 . S
O619 C630 1.234 1_654 S
O620 Zn613 1.969 1_556 S
O620 C630 1.258 . S
C621 O618 1.267 . S
C621 O622 1.228 . S
O622 C621 1.228 . S
O623 Zn612 2.024 1_455 S
O623 C614 1.058 . S
C624 O625 1.228 . S
C624 O626 1.267 1_554 S
O625 C624 1.228 . S
O626 Zn613 1.969 1_556 S
O626 C624 1.267 1_556 S
O627 Zn613 1.965 . S
O627 C631 1.260 . S
O628 Zn612 1.969 1_455 S
O628 C631 1.258 . S
O629 Zn613 2.024 . S
O629 C616 1.058 1_554 S
C630 O619 1.234 1_456 S
C630 O620 1.258 . S
C631 O627 1.260 . S
C631 O628 1.258 . S
C632 C633 1.387 1_455 S
C632 H636 0.950 . S
C632 C641 1.390 . S
C633 C632 1.387 1_655 S
C633 C635 1.387 . S
H634 C641 0.950 . S
C635 C633 1.387 . S
C635 C637 1.390 1_656 S
C635 H639 0.948 . S
H636 C632 0.950 . S
C637 C635 1.390 1_454 S
C637 C638 1.387 1_554 S
C637 H640 0.950 . S
C638 C637 1.387 1_556 S
C638 C641 1.387 . S
H639 C635 0.948 . S
H640 C637 0.950 . S
C641 C632 1.390 . S
C641 H634 0.950 . S
C641 C638 1.387 . S
C642 C643 1.387 . S
C642 H646 0.950 . S
C642 C651 1.390 . S
C643 C642 1.387 . S
C643 C645 1.387 . S
H644 C651 0.950 . S
C645 C643 1.387 . S
C645 C647 1.390 . S
C645 H649 0.950 . S
H646 C642 0.950 . S
C647 C645 1.390 . S
C647 C648 1.387 . S
C647 H650 0.950 . S
C648 C647 1.387 . S
C648 C651 1.387 . S
H649 C645 0.950 . S
H650 C647 0.950 . S
C651 C642 1.390 . S
C651 H644 0.950 . S
C651 C648 1.387 . S
C652 C653 1.387 . S
C652 H656 0.950 . S
C652 C661 1.390 . S
C653 C652 1.387 . S
C653 C655 1.387 . S
H654 C661 0.950 . S
C655 C653 1.387 . S
C655 C657 1.390 . S
C655 H659 0.950 . S
H656 C652 0.950 . S
C657 C655 1.390 . S
C657 C658 1.387 . S
C657 H660 0.950 . S
C658 C657 1.387 . S
C658 C661 1.387 . S
H659 C655 0.950 . S
H660 C657 0.950 . S
C661 C652 1.390 . S
C661 H654 0.950 . S
C661 C658 1.387 . S
C662 C663 1.387 . S
C662 H666 0.950 . S
C662 C671 1.390 . S
C663 C662 1.387 . S
C663 C665 1.387 . S
H664 C671 0.950 . S
C665 C663 1.387 . S
C665 C667 1.390 . S
C665 H669 0.950 . S
H666 C662 0.950 . S
C667 C665 1.390 . S
C667 C668 1.387 . S
C667 H670 0.950 . S
C668 C667 1.387 . S
C668 C671 1.387 . S
H669 C665 0.950 . S
H670 C667 0.950 . S
C671 C662 1.390 . S
C671 H664 0.950 . S
C671 C668 1.387 . S
C672 C673 1.387 . S
C672 H676 0.950 . S
C672 C681 1.390 . S
C673 C672 1.387 . S
C673 C675 1.387 1_455 S
H674 C681 0.950 . S
C675 C673 1.387 1_655 S
C675 C677 1.390 . S
C675 H679 0.950 . S
H676 C672 0.950 . S
C677 C675 1.390 . S
C677 C678 1.387 1_655 S
C677 H680 0.950 . S
C678 C677 1.387 1_455 S
C678 C681 1.387 . S
H679 C675 0.950 . S
H680 C677 0.950 . S
C681 C672 1.390 . S
C681 H674 0.950 . S
C681 C678 1.387 . S
C682 C683 1.387 . S
C682 H686 0.950 . S
C682 C691 1.390 . S
C683 C682 1.387 . S
C683 C685 1.387 . S
H684 C691 0.950 . S
C685 C683 1.387 . S
C685 C687 1.390 . S
C685 H689 0.950 . S
H686 C682 0.950 . S
C687 C685 1.390 . S
C687 C688 1.387 . S
C687 H690 0.950 . S
C688 C687 1.387 . S
C688 C691 1.387 . S
H689 C685 0.950 . S
H690 C687 0.950 . S
C691 C682 1.390 . S
C691 H684 0.950 . S
C691 C688 1.387 . S
C692 C693 1.387 . S
C692 H696 0.950 . S
C692 C701 1.390 . S
C693 C692 1.387 . S
C693 C695 1.387 . S
H694 C701 0.950 . S
C695 C693 1.387 . S
C695 C697 1.390 . S
C695 H699 0.950 . S
H696 C692 0.950 . S
C697 C695 1.390 . S
C697 C698 1.387 . S
C697 H700 0.950 . S
C698 C697 1.387 . S
C698 C701 1.387 . S
H699 C695 0.950 . S
H700 C697 0.950 . S
C701 C692 1.390 . S
C701 H694 0.950 . S
C701 C698 1.387 . S
C702 C703 1.387 . S
C702 H706 0.950 . S
C702 C711 1.390 . S
C703 C702 1.387 . S
C703 C705 1.387 . S
H704 C711 0.950 . S
C705 C703 1.387 . S
C705 C707 1.390 . S
C705 H709 0.950 . S
H706 C702 0.950 . S
C707 C705 1.390 . S
C707 C708 1.387 . S
C707 H710 0.950 . S
C708 C707 1.387 . S
C708 C711 1.387 . S
H709 C705 0.950 . S
H710 C707 0.950 . S
C711 C702 1.390 . S
C711 H704 0.950 . S
C711 C708 1.387 . S
C712 C713 1.387 . S
C712 H716 0.950 . S
C712 C721 1.390 . S
C713 C712 1.387 . S
C713 C715 1.387 1_545 S
H714 C721 0.950 . S
C715 C713 1.387 1_565 S
C715 C717 1.390 . S
C715 H719 0.950 . S
H716 C712 0.950 . S
C717 C715 1.390 . S
C717 C718 1.387 1_565 S
C717 H720 0.950 . S
C718 C717 1.387 1_545 S
C718 C721 1.387 . S
H719 C715 0.950 . S
H720 C717 0.950 . S
C721 C712 1.390 . S
C721 H714 0.950 . S
C721 C718 1.387 . S
C722 C723 1.387 . S
C722 H726 0.950 . S
C722 C731 1.390 . S
C723 C722 1.387 . S
C723 C725 1.387 . S
H724 C731 0.950 . S
C725 C723 1.387 . S
C725 C727 1.390 . S
C725 H729 0.950 . S
H726 C722 0.950 . S
C727 C725 1.390 . S
C727 C728 1.387 . S
C727 H730 0.950 . S
C728 C727 1.387 . S
C728 C731 1.387 . S
H729 C725 0.950 . S
H730 C727 0.950 . S
C731 C722 1.390 . S
C731 H724 0.950 . S
C731 C728 1.387 . S
C732 C733 1.387 . S
C732 H736 0.950 . S
C732 C741 1.390 . S
C733 C732 1.387 . S
C733 C735 1.387 1_565 S
H734 C741 0.950 . S
C735 C733 1.387 1_545 S
C735 C737 1.390 . S
C735 H739 0.950 . S
H736 C732 0.950 . S
C737 C735 1.390 . S
C737 C738 1.387 . S
C737 H740 0.950 . S
C738 C737 1.387 . S
C738 C741 1.387 1_545 S
H739 C735 0.950 . S
H740 C737 0.950 . S
C741 C732 1.390 . S
C741 H734 0.950 . S
C741 C738 1.387 1_565 S
C742 C743 1.387 . S
C742 H746 0.950 . S
C742 C751 1.390 . S
C743 C742 1.387 . S
C743 C745 1.387 . S
H744 C751 0.950 . S
C745 C743 1.387 . S
C745 C747 1.390 . S
C745 H749 0.950 . S
H746 C742 0.950 . S
C747 C745 1.390 . S
C747 C748 1.387 . S
C747 H750 0.950 . S
C748 C747 1.387 . S
C748 C751 1.387 . S
H749 C745 0.950 . S
H750 C747 0.950 . S
C751 C742 1.390 . S
C751 H744 0.950 . S
C751 C748 1.387 . S
C752 C753 1.387 1_565 S
C752 H756 0.950 . S
C752 C761 1.390 . S
C753 C752 1.387 1_545 S
C753 C755 1.387 . S
H754 C761 0.950 . S
C755 C753 1.387 . S
C755 C757 1.390 . S
C755 H759 0.950 . S
H756 C752 0.950 . S
C757 C755 1.390 . S
C757 C758 1.387 . S
C757 H760 0.950 . S
C758 C757 1.387 . S
C758 C761 1.387 1_545 S
H759 C755 0.950 . S
H760 C757 0.950 . S
C761 C752 1.390 . S
C761 H754 0.950 . S
C761 C758 1.387 1_565 S
C762 C763 1.387 . S
C762 H766 0.950 . S
C762 C771 1.390 . S
C763 C762 1.387 . S
C763 C765 1.387 . S
H764 C771 0.950 . S
C765 C763 1.387 . S
C765 C767 1.390 . S
C765 H769 0.950 . S
H766 C762 0.950 . S
C767 C765 1.390 . S
C767 C768 1.387 . S
C767 H770 0.950 . S
C768 C767 1.387 . S
C768 C771 1.387 . S
H769 C765 0.950 . S
H770 C767 0.950 . S
C771 C762 1.390 . S
C771 H764 0.950 . S
C771 C768 1.387 . S
C772 C773 1.387 1_565 S
C772 H776 0.950 . S
C772 C781 1.390 . S
C773 C772 1.387 1_545 S
C773 C775 1.387 . S
H774 C781 0.950 . S
C775 C773 1.387 . S
C775 C777 1.390 . S
C775 H779 0.950 . S
H776 C772 0.950 . S
C777 C775 1.390 . S
C777 C778 1.387 . S
C777 H780 0.950 . S
C778 C777 1.387 . S
C778 C781 1.387 1_545 S
H779 C775 0.950 . S
H780 C777 0.950 . S
C781 C772 1.390 . S
C781 H774 0.950 . S
C781 C778 1.387 1_565 S
C782 C783 1.387 . S
C782 H786 0.950 . S
C782 C791 1.390 . S
C783 C782 1.387 . S
C783 C785 1.387 . S
H784 C791 0.950 . S
C785 C783 1.387 . S
C785 C787 1.390 . S
C785 H789 0.950 . S
H786 C782 0.950 . S
C787 C785 1.390 . S
C787 C788 1.387 . S
C787 H790 0.950 . S
C788 C787 1.387 . S
C788 C791 1.387 . S
H789 C785 0.950 . S
H790 C787 0.950 . S
C791 C782 1.390 . S
C791 H784 0.950 . S
C791 C788 1.387 . S
C792 C793 1.387 . S
C792 H796 0.950 . S
C792 C801 1.390 . S
C793 C792 1.387 . S
C793 C795 1.387 . S
H794 C801 0.950 . S
C795 C793 1.387 . S
C795 C797 1.390 . S
C795 H799 0.950 1_554 S
H796 C792 0.950 . S
C797 C795 1.390 . S
C797 C798 1.387 . S
C797 H800 0.950 . S
C798 C797 1.387 . S
C798 C801 1.387 . S
H799 C795 0.950 1_556 S
H800 C797 0.950 . S
C801 C792 1.390 . S
C801 H794 0.950 . S
C801 C798 1.387 . S
C802 C803 1.404 . S
C802 H806 0.950 . S
C802 C811 1.390 . S
C803 C802 1.404 . S
C803 C805 1.362 1_556 S
H804 C811 0.950 . S
C805 C803 1.362 1_554 S
C805 C807 1.390 . S
C805 H809 0.950 . S
H806 C802 0.950 . S
C807 C805 1.390 . S
C807 C808 1.387 . S
C807 H810 0.950 . S
C808 C807 1.387 . S
C808 C811 1.387 1_554 S
H809 C805 0.950 . S
H810 C807 0.950 . S
C811 C802 1.390 . S
C811 H804 0.950 . S
C811 C808 1.387 1_556 S
C812 C813 1.387 . S
C812 H816 0.950 . S
C812 C821 1.390 . S
C813 C812 1.387 . S
C813 C815 1.387 . S
H814 C821 0.950 . S
C815 C813 1.387 . S
C815 C817 1.390 . S
C815 H819 0.950 . S
H816 C812 0.950 . S
C817 C815 1.390 . S
C817 C818 1.387 . S
C817 H820 0.950 . S
C818 C817 1.387 . S
C818 C821 1.387 . S
H819 C815 0.950 . S
H820 C817 0.950 . S
C821 C812 1.390 . S
C821 H814 0.950 . S
C821 C818 1.387 . S
C822 C823 1.387 . S
C822 H826 0.950 . S
C822 C831 1.390 . S
C823 C822 1.387 . S
C823 C825 1.387 . S
H824 C831 0.950 . S
C825 C823 1.387 . S
C825 C827 1.390 . S
C825 H829 0.950 . S
H826 C822 0.950 . S
C827 C825 1.390 . S
C827 C828 1.387 . S
C827 H830 0.950 . S
C828 C827 1.387 . S
C828 C831 1.387 . S
H829 C825 0.950 . S
H830 C827 0.950 . S
C831 C822 1.390 . S
C831 H824 0.950 . S
C831 C828 1.387 . S
C832 C833 1.387 . S
C832 H836 0.950 . S
C832 C841 1.390 . S
C833 C832 1.387 . S
C833 C835 1.387 . S
H834 C841 0.950 . S
C835 C833 1.387 . S
C835 C837 1.390 . S
C835 H839 0.950 . S
H836 C832 0.950 . S
C837 C835 1.390 . S
C837 C838 1.387 . S
C837 H840 0.950 . S
C838 C837 1.387 . S
C838 C841 1.387 . S
H839 C835 0.950 . S
H840 C837 0.950 . S
C841 C832 1.390 . S
C841 H834 0.950 . S
C841 C838 1.387 . S
C842 C843 1.387 . S
C842 H846 0.950 . S
C842 C851 1.390 . S
C843 C842 1.387 . S
C843 C845 1.387 . S
H844 C851 0.950 . S
C845 C843 1.387 . S
C845 C847 1.390 . S
C845 H849 0.950 . S
H846 C842 0.950 . S
C847 C845 1.390 . S
C847 C848 1.387 . S
C847 H850 0.950 . S
C848 C847 1.387 . S
C848 C851 1.387 . S
H849 C845 0.950 . S
H850 C847 0.950 . S
C851 C842 1.390 . S
C851 H844 0.950 . S
C851 C848 1.387 . S
C852 C853 1.387 . S
C852 H856 0.950 . S
C852 C861 1.390 . S
C853 C852 1.387 . S
C853 C855 1.387 . S
H854 C861 0.950 . S
C855 C853 1.387 . S
C855 C857 1.390 . S
C855 H859 0.950 . S
H856 C852 0.950 . S
C857 C855 1.390 . S
C857 C858 1.387 . S
C857 H860 0.950 . S
C858 C857 1.387 . S
C858 C861 1.387 . S
H859 C855 0.950 . S
H860 C857 0.950 . S
C861 C852 1.390 . S
C861 H854 0.950 . S
C861 C858 1.387 . S
C862 C863 1.387 . S
C862 H866 0.950 . S
C862 C871 1.390 . S
C863 C862 1.387 . S
C863 C865 1.387 . S
H864 C871 0.950 . S
C865 C863 1.387 . S
C865 C867 1.390 . S
C865 H869 0.950 . S
H866 C862 0.950 . S
C867 C865 1.390 . S
C867 C868 1.387 . S
C867 H870 0.950 . S
C868 C867 1.387 . S
C868 C871 1.387 . S
H869 C865 0.950 . S
H870 C867 0.950 . S
C871 C862 1.390 . S
C871 H864 0.950 . S
C871 C868 1.387 . S
C872 C873 1.387 . S
C872 H876 0.950 . S
C872 C881 1.390 . S
C873 C872 1.387 . S
C873 C875 1.387 . S
H874 C881 0.955 . S
C875 C873 1.387 . S
C875 C877 1.390 . S
C875 H879 0.950 . S
H876 C872 0.950 . S
C877 C875 1.390 . S
C877 C878 1.387 . S
C877 H880 0.950 . S
C878 C877 1.387 . S
C878 C881 1.387 . S
H879 C875 0.950 . S
H880 C877 0.950 . S
C881 C872 1.390 . S
C881 H874 0.955 . S
C881 C878 1.387 . S
C882 C883 1.387 . S
C882 H886 0.950 . S
C882 C891 1.390 . S
C883 C882 1.387 . S
C883 C885 1.387 . S
H884 C891 0.950 . S
C885 C883 1.387 . S
C885 C887 1.390 . S
C885 H889 0.950 . S
H886 C882 0.950 . S
C887 C885 1.390 . S
C887 C888 1.387 . S
C887 H890 0.950 . S
C888 C887 1.387 . S
C888 C891 1.387 . S
H889 C885 0.950 . S
H890 C887 0.950 . S
C891 C882 1.390 . S
C891 H884 0.950 . S
C891 C888 1.387 . S
C892 C893 1.387 . S
C892 H896 0.950 . S
C892 C901 1.390 . S
C893 C892 1.387 . S
C893 C895 1.387 . S
H894 C901 0.950 . S
C895 C893 1.387 . S
C895 C897 1.390 . S
C895 H899 0.950 . S
H896 C892 0.950 . S
C897 C895 1.390 . S
C897 C898 1.387 . S
C897 H900 0.950 . S
C898 C897 1.387 . S
C898 C901 1.387 . S
H899 C895 0.950 . S
H900 C897 0.950 . S
C901 C892 1.390 . S
C901 H894 0.950 . S
C901 C898 1.387 . S
C902 C903 1.387 . S
C902 H906 0.950 . S
C902 C911 1.390 . S
C903 C902 1.387 . S
C903 C905 1.387 . S
H904 C911 0.950 . S
C905 C903 1.387 . S
C905 C907 1.390 . S
C905 H909 0.950 . S
H906 C902 0.950 . S
C907 C905 1.390 . S
C907 C908 1.387 . S
C907 H910 0.950 . S
C908 C907 1.387 . S
C908 C911 1.387 . S
H909 C905 0.950 . S
H910 C907 0.950 . S
C911 C902 1.390 . S
C911 H904 0.950 . S
C911 C908 1.387 . S
C912 C913 1.387 . S
C912 H916 0.950 . S
C912 C921 1.390 . S
C913 C912 1.387 . S
C913 C915 1.387 1_455 S
H914 C921 0.950 . S
C915 C913 1.387 1_655 S
C915 C917 1.390 . S
C915 H919 0.950 . S
H916 C912 0.950 . S
C917 C915 1.390 . S
C917 C918 1.387 1_655 S
C917 H920 0.950 . S
C918 C917 1.387 1_455 S
C918 C921 1.387 . S
H919 C915 0.950 . S
H920 C917 0.950 . S
C921 C912 1.390 . S
C921 H914 0.950 . S
C921 C918 1.387 . S
C922 C923 1.387 . S
C922 H926 0.950 . S
C922 C931 1.390 . S
C923 C922 1.387 . S
C923 C925 1.387 . S
H924 C931 0.950 . S
C925 C923 1.387 . S
C925 C927 1.390 . S
C925 H929 0.950 . S
H926 C922 0.950 . S
C927 C925 1.390 . S
C927 C928 1.387 . S
C927 H930 0.950 . S
C928 C927 1.387 . S
C928 C931 1.387 . S
H929 C925 0.950 . S
H930 C927 0.950 . S
C931 C922 1.390 . S
C931 H924 0.950 . S
C931 C928 1.387 . S
C932 C933 1.387 . S
C932 H936 0.950 . S
C932 C941 1.390 . S
C933 C932 1.387 . S
C933 C935 1.387 1_556 S
H934 C941 0.950 . S
C935 C933 1.387 1_554 S
C935 C937 1.390 . S
C935 H939 0.950 . S
H936 C932 0.950 . S
C937 C935 1.390 . S
C937 C938 1.387 . S
C937 H940 0.950 . S
C938 C937 1.387 . S
C938 C941 1.387 1_554 S
H939 C935 0.950 . S
H940 C937 0.950 . S
C941 C932 1.390 . S
C941 H934 0.950 . S
C941 C938 1.387 1_556 S
C942 C943 1.387 . S
C942 H946 0.950 . S
C942 C951 1.390 . S
C943 C942 1.387 . S
C943 C945 1.387 . S
H944 C951 0.950 . S
C945 C943 1.387 . S
C945 C947 1.390 . S
C945 H949 0.950 . S
H946 C942 0.950 . S
C947 C945 1.390 . S
C947 C948 1.387 . S
C947 H950 0.950 . S
C948 C947 1.387 . S
C948 C951 1.387 . S
H949 C945 0.950 . S
H950 C947 0.950 . S
C951 C942 1.390 . S
C951 H944 0.950 . S
C951 C948 1.387 . S
C952 C953 1.387 . S
C952 H956 0.950 . S
C952 C961 1.390 . S
C953 C952 1.387 . S
C953 C955 1.387 1_545 S
H954 C961 0.950 . S
C955 C953 1.387 1_565 S
C955 C957 1.390 . S
C955 H959 0.950 . S
H956 C952 0.950 . S
C957 C955 1.390 . S
C957 C958 1.391 . S
C957 H960 0.950 . S
C958 C957 1.391 . S
C958 C961 1.384 1_565 S
H959 C955 0.950 . S
H960 C957 0.950 . S
C961 C952 1.390 . S
C961 H954 0.950 . S
C961 C958 1.384 1_545 S
C962 C963 1.387 . S
C962 H966 0.950 . S
C962 C971 1.390 . S
C963 C962 1.387 . S
C963 C965 1.387 . S
H964 C971 0.950 . S
C965 C963 1.387 . S
C965 C967 1.390 . S
C965 H969 0.950 . S
H966 C962 0.950 . S
C967 C965 1.390 . S
C967 C968 1.387 . S
C967 H970 0.950 . S
C968 C967 1.387 . S
C968 C971 1.387 . S
H969 C965 0.950 . S
H970 C967 0.950 . S
C971 C962 1.390 . S
C971 H964 0.950 . S
C971 C968 1.387 . S
C972 C973 1.387 . S
C972 H976 0.950 . S
C972 C981 1.390 . S
C973 C972 1.387 . S
C973 C975 1.387 . S
H974 C981 0.950 . S
C975 C973 1.387 . S
C975 C977 1.398 . S
C975 H979 0.950 1_545 S
H976 C972 0.950 . S
C977 C975 1.398 . S
C977 C978 1.405 . S
C977 H980 0.924 1_545 S
C978 C977 1.405 . S
C978 C981 1.387 . S
H979 C975 0.950 1_565 S
H980 C977 0.924 1_565 S
C981 C972 1.390 . S
C981 H974 0.950 . S
C981 C978 1.387 . S
C982 C983 1.387 . S
C982 H986 0.950 . S
C982 C991 1.390 . S
C983 C982 1.387 . S
C983 C985 1.387 . S
H984 C991 0.950 . S
C985 C983 1.387 . S
C985 C987 1.390 . S
C985 H989 0.950 . S
H986 C982 0.950 . S
C987 C985 1.390 . S
C987 C988 1.387 . S
C987 H990 0.950 . S
C988 C987 1.387 . S
C988 C991 1.387 . S
H989 C985 0.950 . S
H990 C987 0.950 . S
C991 C982 1.390 . S
C991 H984 0.950 . S
C991 C988 1.387 . S
C992 C993 1.387 . S
C992 H996 0.950 . S
C992 C1001 1.390 . S
C993 C992 1.387 . S
C993 C995 1.387 1_545 S
H994 C1001 0.950 . S
C995 C993 1.387 1_565 S
C995 C997 1.390 . S
C995 H999 0.950 . S
H996 C992 0.950 . S
C997 C995 1.390 . S
C997 C998 1.387 1_565 S
C997 H1000 0.950 . S
C998 C997 1.387 1_545 S
C998 C1001 1.387 . S
H999 C995 0.950 . S
H1000 C997 0.950 . S
C1001 C992 1.390 . S
C1001 H994 0.950 . S
C1001 C998 1.387 . S
C1002 C1003 1.387 . S
C1002 H1006 0.950 . S
C1002 C1011 1.390 . S
C1003 C1002 1.387 . S
C1003 C1005 1.387 . S
H1004 C1011 0.950 . S
C1005 C1003 1.387 . S
C1005 C1007 1.390 . S
C1005 H1009 0.950 . S
H1006 C1002 0.950 . S
C1007 C1005 1.390 . S
C1007 C1008 1.387 . S
C1007 H1010 0.950 . S
C1008 C1007 1.387 . S
C1008 C1011 1.387 . S
H1009 C1005 0.950 . S
H1010 C1007 0.950 . S
C1011 C1002 1.390 . S
C1011 H1004 0.950 . S
C1011 C1008 1.387 . S
C1012 C1013 1.387 1_565 S
C1012 H1016 0.950 . S
C1012 C1021 1.390 . S
C1013 C1012 1.387 1_545 S
C1013 C1015 1.387 . S
H1014 C1021 0.950 . S
C1015 C1013 1.387 . S
C1015 C1017 1.390 . S
C1015 H1019 0.950 . S
H1016 C1012 0.950 . S
C1017 C1015 1.390 . S
C1017 C1018 1.387 1_545 S
C1017 H1020 0.950 . S
C1018 C1017 1.387 1_565 S
C1018 C1021 1.387 . S
H1019 C1015 0.950 . S
H1020 C1017 0.950 . S
C1021 C1012 1.390 . S
C1021 H1014 0.950 . S
C1021 C1018 1.387 . S
C1022 C1023 1.387 . S
C1022 H1026 0.950 . S
C1022 C1031 1.390 . S
C1023 C1022 1.387 . S
C1023 C1025 1.387 . S
H1024 C1031 0.950 . S
C1025 C1023 1.387 . S
C1025 C1027 1.390 . S
C1025 H1029 0.950 . S
H1026 C1022 0.950 . S
C1027 C1025 1.390 . S
C1027 C1028 1.387 . S
C1027 H1030 0.950 . S
C1028 C1027 1.387 . S
C1028 C1031 1.387 . S
H1029 C1025 0.950 . S
H1030 C1027 0.950 . S
C1031 C1022 1.390 . S
C1031 H1024 0.950 . S
C1031 C1028 1.387 . S
C1032 C1033 1.387 . S
C1032 H1036 0.950 . S
C1032 C1041 1.390 . S
C1033 C1032 1.387 . S
C1033 C1035 1.387 1_554 S
H1034 C1041 0.950 . S
C1035 C1033 1.387 1_556 S
C1035 C1037 1.390 . S
C1035 H1039 0.950 . S
H1036 C1032 0.950 . S
C1037 C1035 1.390 . S
C1037 C1038 1.387 1_556 S
C1037 H1040 0.950 . S
C1038 C1037 1.387 1_554 S
C1038 C1041 1.387 . S
H1039 C1035 0.950 . S
H1040 C1037 0.950 . S
C1041 C1032 1.390 . S
C1041 H1034 0.950 . S
C1041 C1038 1.387 . S
C1042 C1043 1.387 . S
C1042 H1046 0.950 . S
C1042 C1051 1.390 . S
C1043 C1042 1.387 . S
C1043 C1045 1.387 . S
H1044 C1051 0.950 . S
C1045 C1043 1.387 . S
C1045 C1047 1.390 . S
C1045 H1049 0.950 . S
H1046 C1042 0.950 . S
C1047 C1045 1.390 . S
C1047 C1048 1.387 . S
C1047 H1050 0.950 . S
C1048 C1047 1.387 . S
C1048 C1051 1.387 . S
H1049 C1045 0.950 . S
H1050 C1047 0.950 . S
C1051 C1042 1.390 . S
C1051 H1044 0.950 . S
C1051 C1048 1.387 . S
C1052 C1053 1.387 . S
C1052 H1056 0.950 . S
C1052 C1061 1.390 . S
C1053 C1052 1.387 . S
C1053 C1055 1.387 . S
H1054 C1061 0.950 . S
C1055 C1053 1.387 . S
C1055 C1057 1.390 . S
C1055 H1059 0.950 . S
H1056 C1052 0.950 . S
C1057 C1055 1.390 . S
C1057 C1058 1.387 . S
C1057 H1060 0.950 . S
C1058 C1057 1.387 . S
C1058 C1061 1.387 . S
H1059 C1055 0.950 . S
H1060 C1057 0.950 . S
C1061 C1052 1.390 . S
C1061 H1054 0.950 . S
C1061 C1058 1.387 . S
C1062 C1063 1.387 . S
C1062 H1066 0.950 . S
C1062 C1071 1.390 . S
C1063 C1062 1.387 . S
C1063 C1065 1.387 . S
H1064 C1071 0.950 . S
C1065 C1063 1.387 . S
C1065 C1067 1.390 . S
C1065 H1069 0.950 . S
H1066 C1062 0.950 . S
C1067 C1065 1.390 . S
C1067 C1068 1.387 . S
C1067 H1070 0.950 . S
C1068 C1067 1.387 . S
C1068 C1071 1.387 . S
H1069 C1065 0.950 . S
H1070 C1067 0.950 . S
C1071 C1062 1.390 . S
C1071 H1064 0.950 . S
C1071 C1068 1.387 . S
C1072 C1073 1.387 . S
C1072 H1076 0.950 . S
C1072 C1081 1.390 . S
C1073 C1072 1.387 . S
C1073 C1075 1.387 . S
H1074 C1081 0.950 . S
C1075 C1073 1.387 . S
C1075 C1077 1.390 . S
C1075 H1079 0.950 . S
H1076 C1072 0.950 . S
C1077 C1075 1.390 . S
C1077 C1078 1.387 . S
C1077 H1080 0.950 . S
C1078 C1077 1.387 . S
C1078 C1081 1.387 . S
H1079 C1075 0.950 . S
H1080 C1077 0.950 . S
C1081 C1072 1.390 . S
C1081 H1074 0.950 . S
C1081 C1078 1.387 . S
C1082 C1083 1.387 . S
C1082 H1086 0.950 . S
C1082 C1091 1.390 . S
C1083 C1082 1.387 . S
C1083 C1085 1.387 . S
H1084 C1091 0.950 . S
C1085 C1083 1.387 . S
C1085 C1087 1.390 . S
C1085 H1089 0.950 . S
H1086 C1082 0.950 . S
C1087 C1085 1.390 . S
C1087 C1088 1.387 . S
C1087 H1090 0.950 1_565 S
C1088 C1087 1.387 . S
C1088 C1091 1.387 . S
H1089 C1085 0.950 . S
H1090 C1087 0.950 1_545 S
C1091 C1082 1.390 . S
C1091 H1084 0.950 . S
C1091 C1088 1.387 . S
C1092 C1093 1.387 . S
C1092 H1096 0.950 . S
C1092 C1101 1.390 . S
C1093 C1092 1.387 . S
C1093 C1095 1.387 . S
H1094 C1101 0.950 . S
C1095 C1093 1.387 . S
C1095 C1097 1.390 . S
C1095 H1099 0.950 . S
H1096 C1092 0.950 . S
C1097 C1095 1.390 . S
C1097 C1098 1.387 . S
C1097 H1100 0.950 . S
C1098 C1097 1.387 . S
C1098 C1101 1.387 . S
H1099 C1095 0.950 . S
H1100 C1097 0.950 . S
C1101 C1092 1.390 . S
C1101 H1094 0.950 . S
C1101 C1098 1.387 . S
C1102 C1103 1.387 . S
C1102 H1106 0.950 . S
C1102 C1111 1.390 . S
C1103 C1102 1.387 . S
C1103 C1105 1.387 . S
H1104 C1111 0.950 . S
C1105 C1103 1.387 . S
C1105 C1107 1.390 . S
C1105 H1109 0.950 . S
H1106 C1102 0.950 . S
C1107 C1105 1.390 . S
C1107 C1108 1.387 . S
C1107 H1110 0.950 . S
C1108 C1107 1.387 . S
C1108 C1111 1.387 . S
H1109 C1105 0.950 . S
H1110 C1107 0.950 . S
C1111 C1102 1.390 . S
C1111 H1104 0.950 . S
C1111 C1108 1.387 . S
C1112 C1113 1.387 . S
C1112 H1116 0.950 . S
C1112 C1121 1.390 . S
C1113 C1112 1.387 . S
C1113 C1115 1.387 . S
H1114 C1121 0.950 . S
C1115 C1113 1.387 . S
C1115 C1117 1.390 . S
C1115 H1119 0.950 . S
H1116 C1112 0.950 . S
C1117 C1115 1.390 . S
C1117 C1118 1.387 . S
C1117 H1120 0.950 . S
C1118 C1117 1.387 . S
C1118 C1121 1.387 . S
H1119 C1115 0.950 . S
H1120 C1117 0.950 . S
C1121 C1112 1.390 . S
C1121 H1114 0.950 . S
C1121 C1118 1.387 . S
C1122 C1123 1.387 . S
C1122 H1126 0.950 . S
C1122 C1131 1.390 . S
C1123 C1122 1.387 . S
C1123 C1125 1.387 . S
H1124 C1131 0.950 . S
C1125 C1123 1.387 . S
C1125 C1127 1.390 . S
C1125 H1129 0.950 . S
H1126 C1122 0.950 . S
C1127 C1125 1.390 . S
C1127 C1128 1.387 . S
C1127 H1130 0.950 . S
C1128 C1127 1.387 . S
C1128 C1131 1.387 . S
H1129 C1125 0.950 . S
H1130 C1127 0.950 . S
C1131 C1122 1.390 . S
C1131 H1124 0.950 . S
C1131 C1128 1.387 . S
C1132 C1133 1.387 . S
C1132 H1136 0.950 . S
C1132 C1141 1.383 1_556 S
C1133 C1132 1.387 . S
C1133 C1135 1.387 1_455 S
H1134 C1141 0.967 . S
C1135 C1133 1.387 1_655 S
C1135 C1137 1.390 . S
C1135 H1139 0.950 . S
H1136 C1132 0.950 . S
C1137 C1135 1.390 . S
C1137 C1138 1.387 1_655 S
C1137 H1140 0.950 . S
C1138 C1137 1.387 1_455 S
C1138 C1141 1.378 1_556 S
H1139 C1135 0.950 . S
H1140 C1137 0.950 . S
C1141 C1132 1.383 1_554 S
C1141 H1134 0.967 . S
C1141 C1138 1.378 1_554 S
C1142 C1143 1.387 . S
C1142 H1146 0.950 . S
C1142 C1151 1.390 . S
C1143 C1142 1.387 . S
C1143 C1145 1.387 . S
H1144 C1151 0.950 . S
C1145 C1143 1.387 . S
C1145 C1147 1.390 . S
C1145 H1149 0.950 . S
H1146 C1142 0.950 . S
C1147 C1145 1.390 . S
C1147 C1148 1.387 . S
C1147 H1150 0.950 . S
C1148 C1147 1.387 . S
C1148 C1151 1.387 . S
H1149 C1145 0.950 . S
H1150 C1147 0.950 . S
C1151 C1142 1.390 . S
C1151 H1144 0.950 . S
C1151 C1148 1.387 . S
C1152 C1153 1.387 . S
C1152 H1156 0.950 . S
C1152 C1161 1.390 . S
C1153 C1152 1.387 . S
C1153 C1155 1.387 . S
H1154 C1161 0.950 . S
C1155 C1153 1.387 . S
C1155 C1157 1.390 . S
C1155 H1159 0.950 . S
H1156 C1152 0.950 . S
C1157 C1155 1.390 . S
C1157 C1158 1.387 . S
C1157 H1160 0.950 . S
C1158 C1157 1.387 . S
C1158 C1161 1.387 . S
H1159 C1155 0.950 . S
H1160 C1157 0.950 . S
C1161 C1152 1.390 . S
C1161 H1154 0.950 . S
C1161 C1158 1.387 . S
C1162 C1163 1.387 . S
C1162 H1166 0.950 . S
C1162 C1171 1.390 . S
C1163 C1162 1.387 . S
C1163 C1165 1.387 . S
H1164 C1171 0.950 . S
C1165 C1163 1.387 . S
C1165 C1167 1.390 . S
C1165 H1169 0.950 . S
H1166 C1162 0.950 . S
C1167 C1165 1.390 . S
C1167 C1168 1.387 . S
C1167 H1170 0.950 . S
C1168 C1167 1.387 . S
C1168 C1171 1.387 . S
H1169 C1165 0.950 . S
H1170 C1167 0.950 . S
C1171 C1162 1.390 . S
C1171 H1164 0.950 . S
C1171 C1168 1.387 . S
C1172 C1173 1.387 1_655 S
C1172 H1176 0.950 . S
C1172 C1181 1.390 . S
C1173 C1172 1.387 1_455 S
C1173 C1175 1.387 . S
H1174 C1181 0.950 . S
C1175 C1173 1.387 . S
C1175 C1177 1.390 . S
C1175 H1179 0.950 . S
H1176 C1172 0.950 . S
C1177 C1175 1.390 . S
C1177 C1178 1.387 . S
C1177 H1180 0.950 . S
C1178 C1177 1.387 . S
C1178 C1181 1.387 1_455 S
H1179 C1175 0.950 . S
H1180 C1177 0.950 . S
C1181 C1172 1.390 . S
C1181 H1174 0.950 . S
C1181 C1178 1.387 1_655 S
C1182 C1183 1.387 . S
C1182 H1186 0.950 . S
C1182 C1191 1.390 . S
C1183 C1182 1.387 . S
C1183 C1185 1.387 . S
H1184 C1191 0.950 . S
C1185 C1183 1.387 . S
C1185 C1187 1.390 . S
C1185 H1189 0.950 . S
H1186 C1182 0.950 . S
C1187 C1185 1.390 . S
C1187 C1188 1.387 . S
C1187 H1190 0.950 . S
C1188 C1187 1.387 . S
C1188 C1191 1.387 . S
H1189 C1185 0.950 . S
H1190 C1187 0.950 . S
C1191 C1182 1.390 . S
C1191 H1184 0.950 . S
C1191 C1188 1.387 . S
C1192 C1193 1.387 . S
C1192 H1196 0.950 . S
C1192 C1201 1.390 . S
C1193 C1192 1.387 . S
C1193 C1195 1.387 . S
H1194 C1201 0.950 . S
C1195 C1193 1.387 . S
C1195 C1197 1.390 . S
C1195 H1199 0.950 . S
H1196 C1192 0.950 . S
C1197 C1195 1.390 . S
C1197 C1198 1.387 . S
C1197 H1200 0.950 . S
C1198 C1197 1.387 . S
C1198 C1201 1.387 . S
H1199 C1195 0.950 . S
H1200 C1197 0.950 . S
C1201 C1192 1.390 . S
C1201 H1194 0.950 . S
C1201 C1198 1.387 . S
C1202 C1203 1.387 . S
C1202 H1206 0.950 . S
C1202 C1211 1.390 . S
C1203 C1202 1.387 . S
C1203 C1205 1.387 . S
H1204 C1211 0.950 . S
C1205 C1203 1.387 . S
C1205 C1207 1.390 . S
C1205 H1209 0.950 . S
H1206 C1202 0.950 . S
C1207 C1205 1.390 . S
C1207 C1208 1.387 . S
C1207 H1210 0.950 . S
C1208 C1207 1.387 . S
C1208 C1211 1.387 . S
H1209 C1205 0.950 . S
H1210 C1207 0.950 . S
C1211 C1202 1.390 . S
C1211 H1204 0.950 . S
C1211 C1208 1.387 . S
C1212 C1213 1.387 . S
C1212 H1216 0.950 . S
C1212 C1221 1.390 . S
C1213 C1212 1.387 . S
C1213 C1215 1.387 . S
H1214 C1221 0.950 . S
C1215 C1213 1.387 . S
C1215 C1217 1.390 . S
C1215 H1219 0.950 . S
H1216 C1212 0.950 . S
C1217 C1215 1.390 . S
C1217 C1218 1.387 . S
C1217 H1220 0.950 . S
C1218 C1217 1.387 . S
C1218 C1221 1.387 . S
H1219 C1215 0.950 . S
H1220 C1217 0.950 . S
C1221 C1212 1.390 . S
C1221 H1214 0.950 . S
C1221 C1218 1.387 . S
C1222 C1223 1.387 . S
C1222 H1226 0.950 . S
C1222 C1231 1.390 . S
C1223 C1222 1.387 . S
C1223 C1225 1.387 . S
H1224 C1231 0.950 . S
C1225 C1223 1.387 . S
C1225 C1227 1.390 . S
C1225 H1229 0.950 . S
H1226 C1222 0.950 . S
C1227 C1225 1.390 . S
C1227 C1228 1.387 . S
C1227 H1230 0.950 . S
C1228 C1227 1.387 . S
C1228 C1231 1.387 . S
H1229 C1225 0.950 . S
H1230 C1227 0.950 . S
C1231 C1222 1.390 . S
C1231 H1224 0.950 . S
C1231 C1228 1.387 . S
C1232 C1233 1.387 . S
C1232 H1236 0.950 . S
C1232 C1241 1.390 . S
C1233 C1232 1.387 . S
C1233 C1235 1.387 . S
H1234 C1241 0.950 . S
C1235 C1233 1.387 . S
C1235 C1237 1.390 . S
C1235 H1239 0.950 . S
H1236 C1232 0.950 . S
C1237 C1235 1.390 . S
C1237 C1238 1.387 . S
C1237 H1240 0.950 . S
C1238 C1237 1.387 . S
C1238 C1241 1.387 . S
H1239 C1235 0.950 . S
H1240 C1237 0.950 . S
C1241 C1232 1.390 . S
C1241 H1234 0.950 . S
C1241 C1238 1.387 . S
C1242 C1243 1.387 . S
C1242 H1246 0.950 . S
C1242 C1251 1.390 . S
C1243 C1242 1.387 . S
C1243 C1245 1.387 . S
H1244 C1251 0.950 . S
C1245 C1243 1.387 . S
C1245 C1247 1.390 . S
C1245 H1249 0.950 . S
H1246 C1242 0.950 . S
C1247 C1245 1.390 . S
C1247 C1248 1.387 . S
C1247 H1250 0.950 . S
C1248 C1247 1.387 . S
C1248 C1251 1.387 . S
H1249 C1245 0.950 . S
H1250 C1247 0.950 . S
C1251 C1242 1.390 . S
C1251 H1244 0.950 . S
C1251 C1248 1.387 . S
C1252 C1253 1.387 . S
C1252 H1256 0.950 . S
C1252 C1261 1.390 . S
C1253 C1252 1.387 . S
C1253 C1255 1.387 . S
H1254 C1261 0.950 . S
C1255 C1253 1.387 . S
C1255 C1257 1.390 . S
C1255 H1259 0.950 . S
H1256 C1252 0.950 . S
C1257 C1255 1.390 . S
C1257 C1258 1.387 . S
C1257 H1260 0.950 . S
C1258 C1257 1.387 . S
C1258 C1261 1.387 . S
H1259 C1255 0.950 . S
H1260 C1257 0.950 . S
C1261 C1252 1.390 . S
C1261 H1254 0.950 . S
C1261 C1258 1.387 . S
C1262 C1263 1.387 . S
C1262 H1266 0.950 . S
C1262 C1271 1.390 . S
C1263 C1262 1.387 . S
C1263 C1265 1.387 . S
H1264 C1271 0.950 . S
C1265 C1263 1.387 . S
C1265 C1267 1.390 . S
C1265 H1269 0.950 . S
H1266 C1262 0.950 . S
C1267 C1265 1.390 . S
C1267 C1268 1.387 . S
C1267 H1270 0.950 . S
C1268 C1267 1.387 . S
C1268 C1271 1.387 . S
H1269 C1265 0.950 . S
H1270 C1267 0.950 . S
C1271 C1262 1.390 . S
C1271 H1264 0.950 . S
C1271 C1268 1.387 . S
C1272 C1273 1.387 . S
C1272 H1276 0.950 . S
C1272 C1281 1.390 . S
C1273 C1272 1.387 . S
C1273 C1275 1.387 . S
H1274 C1281 0.950 . S
C1275 C1273 1.387 . S
C1275 C1277 1.390 . S
C1275 H1279 0.950 . S
H1276 C1272 0.950 . S
C1277 C1275 1.390 . S
C1277 C1278 1.387 . S
C1277 H1280 0.950 . S
C1278 C1277 1.387 . S
C1278 C1281 1.387 . S
H1279 C1275 0.950 . S
H1280 C1277 0.950 . S
C1281 C1272 1.390 . S
C1281 H1274 0.950 . S
C1281 C1278 1.387 . S
C1282 C1283 1.387 . S
C1282 H1286 0.950 . S
C1282 C1291 1.390 . S
C1283 C1282 1.387 . S
C1283 C1285 1.387 . S
H1284 C1291 0.950 . S
C1285 C1283 1.387 . S
C1285 C1287 1.390 . S
C1285 H1289 0.950 . S
H1286 C1282 0.950 . S
C1287 C1285 1.390 . S
C1287 C1288 1.387 . S
C1287 H1290 0.950 . S
C1288 C1287 1.387 . S
C1288 C1291 1.387 . S
H1289 C1285 0.950 . S
H1290 C1287 0.950 . S
C1291 C1282 1.390 . S
C1291 H1284 0.950 . S
C1291 C1288 1.387 . S
C1292 C1293 1.387 . S
C1292 H1296 0.950 . S
C1292 C1301 1.390 . S
C1293 C1292 1.387 . S
C1293 C1295 1.387 . S
H1294 C1301 0.950 . S
C1295 C1293 1.387 . S
C1295 C1297 1.390 . S
C1295 H1299 0.950 . S
H1296 C1292 0.950 . S
C1297 C1295 1.390 . S
C1297 C1298 1.387 . S
C1297 H1300 0.950 . S
C1298 C1297 1.387 . S
C1298 C1301 1.387 . S
H1299 C1295 0.950 . S
H1300 C1297 0.950 . S
C1301 C1292 1.390 . S
C1301 H1294 0.950 . S
C1301 C1298 1.387 . S
C1302 C1303 1.387 . S
C1302 H1306 0.950 . S
C1302 C1311 1.390 . S
C1303 C1302 1.387 . S
C1303 C1305 1.387 1_554 S
H1304 C1311 0.950 . S
C1305 C1303 1.387 1_556 S
C1305 C1307 1.390 . S
C1305 H1309 0.950 . S
H1306 C1302 0.950 . S
C1307 C1305 1.390 . S
C1307 C1308 1.387 1_556 S
C1307 H1310 0.950 . S
C1308 C1307 1.387 1_554 S
C1308 C1311 1.387 . S
H1309 C1305 0.950 . S
H1310 C1307 0.950 . S
C1311 C1302 1.390 . S
C1311 H1304 0.950 . S
C1311 C1308 1.387 . S
C1312 C1313 1.387 . S
C1312 H1316 0.950 . S
C1312 C1321 1.390 . S
C1313 C1312 1.387 . S
C1313 C1315 1.387 . S
H1314 C1321 0.950 . S
C1315 C1313 1.387 . S
C1315 C1317 1.390 . S
C1315 H1319 0.950 . S
H1316 C1312 0.950 . S
C1317 C1315 1.390 . S
C1317 C1318 1.387 . S
C1317 H1320 0.950 . S
C1318 C1317 1.387 . S
C1318 C1321 1.387 . S
H1319 C1315 0.950 . S
H1320 C1317 0.950 . S
C1321 C1312 1.390 . S
C1321 H1314 0.950 . S
C1321 C1318 1.387 . S
C1322 C1323 1.387 . S
C1322 H1326 0.950 1_554 S
C1322 C1331 1.390 . S
C1323 C1322 1.387 . S
C1323 C1325 1.387 . S
H1324 C1331 0.950 . S
C1325 C1323 1.387 . S
C1325 C1327 1.390 . S
C1325 H1329 0.950 . S
H1326 C1322 0.950 1_556 S
C1327 C1325 1.390 . S
C1327 C1328 1.387 . S
C1327 H1330 0.950 . S
C1328 C1327 1.387 . S
C1328 C1331 1.387 . S
H1329 C1325 0.950 . S
H1330 C1327 0.950 . S
C1331 C1322 1.390 . S
C1331 H1324 0.950 . S
C1331 C1328 1.387 . S
C1332 C1333 1.387 . S
C1332 H1336 0.950 . S
C1332 C1341 1.390 . S
C1333 C1332 1.387 . S
C1333 C1335 1.387 . S
H1334 C1341 0.950 . S
C1335 C1333 1.387 . S
C1335 C1337 1.390 . S
C1335 H1339 0.950 . S
H1336 C1332 0.950 . S
C1337 C1335 1.390 . S
C1337 C1338 1.387 . S
C1337 H1340 0.950 . S
C1338 C1337 1.387 . S
C1338 C1341 1.387 . S
H1339 C1335 0.950 . S
H1340 C1337 0.950 . S
C1341 C1332 1.390 . S
C1341 H1334 0.950 . S
C1341 C1338 1.387 . S
C1342 C1343 1.387 . S
C1342 H1346 0.950 . S
C1342 C1351 1.390 . S
C1343 C1342 1.387 . S
C1343 C1345 1.387 . S
H1344 C1351 0.950 . S
C1345 C1343 1.387 . S
C1345 C1347 1.390 . S
C1345 H1349 0.950 . S
H1346 C1342 0.950 . S
C1347 C1345 1.390 . S
C1347 C1348 1.387 . S
C1347 H1350 0.950 . S
C1348 C1347 1.387 . S
C1348 C1351 1.387 . S
H1349 C1345 0.950 . S
H1350 C1347 0.950 . S
C1351 C1342 1.390 . S
C1351 H1344 0.950 . S
C1351 C1348 1.387 . S
C1352 C1353 1.387 . S
C1352 H1356 0.950 . S
C1352 C1361 1.390 . S
C1353 C1352 1.387 . S
C1353 C1355 1.387 . S
H1354 C1361 0.950 . S
C1355 C1353 1.387 . S
C1355 C1357 1.390 . S
C1355 H1359 0.950 . S
H1356 C1352 0.950 . S
C1357 C1355 1.390 . S
C1357 C1358 1.387 . S
C1357 H1360 0.950 . S
C1358 C1357 1.387 . S
C1358 C1361 1.387 . S
H1359 C1355 0.950 . S
H1360 C1357 0.950 . S
C1361 C1352 1.390 . S
C1361 H1354 0.950 . S
C1361 C1358 1.387 . S
C1362 C1363 1.387 . S
C1362 H1366 0.950 . S
C1362 C1371 1.390 . S
C1363 C1362 1.387 . S
C1363 C1365 1.387 . S
H1364 C1371 0.950 . S
C1365 C1363 1.387 . S
C1365 C1367 1.390 . S
C1365 H1369 0.950 . S
H1366 C1362 0.950 . S
C1367 C1365 1.390 . S
C1367 C1368 1.387 . S
C1367 H1370 0.950 . S
C1368 C1367 1.387 . S
C1368 C1371 1.387 . S
H1369 C1365 0.950 . S
H1370 C1367 0.950 . S
C1371 C1362 1.390 . S
C1371 H1364 0.950 . S
C1371 C1368 1.387 . S
C1372 C1373 1.387 . S
C1372 H1376 0.950 . S
C1372 C1381 1.390 . S
C1373 C1372 1.387 . S
C1373 C1375 1.387 . S
H1374 C1381 0.950 . S
C1375 C1373 1.387 . S
C1375 C1377 1.390 . S
C1375 H1379 0.950 . S
H1376 C1372 0.950 . S
C1377 C1375 1.390 . S
C1377 C1378 1.387 . S
C1377 H1380 0.950 . S
C1378 C1377 1.387 . S
C1378 C1381 1.387 . S
H1379 C1375 0.950 . S
H1380 C1377 0.950 . S
C1381 C1372 1.390 . S
C1381 H1374 0.950 . S
C1381 C1378 1.387 . S
C1382 C1383 1.387 . S
C1382 H1386 0.950 . S
C1382 C1391 1.390 . S
C1383 C1382 1.387 . S
C1383 C1385 1.387 . S
H1384 C1391 0.950 . S
C1385 C1383 1.387 . S
C1385 C1387 1.390 . S
C1385 H1389 0.950 . S
H1386 C1382 0.950 . S
C1387 C1385 1.390 . S
C1387 C1388 1.387 . S
C1387 H1390 0.950 . S
C1388 C1387 1.387 . S
C1388 C1391 1.387 . S
H1389 C1385 0.950 . S
H1390 C1387 0.950 . S
C1391 C1382 1.390 . S
C1391 H1384 0.950 . S
C1391 C1388 1.387 . S
C1392 C1393 1.387 . S
C1392 H1396 0.950 . S
C1392 C1401 1.390 . S
C1393 C1392 1.387 . S
C1393 C1395 1.387 . S
H1394 C1401 0.950 . S
C1395 C1393 1.387 . S
C1395 C1397 1.390 1_556 S
C1395 H1399 0.950 1_556 S
H1396 C1392 0.950 . S
C1397 C1395 1.390 1_554 S
C1397 C1398 1.387 1_554 S
C1397 H1400 0.950 . S
C1398 C1397 1.387 1_556 S
C1398 C1401 1.387 . S
H1399 C1395 0.950 1_554 S
H1400 C1397 0.950 . S
C1401 C1392 1.390 . S
C1401 H1394 0.950 . S
C1401 C1398 1.387 . S
C1402 C1403 1.387 . S
C1402 H1406 0.950 . S
C1402 C1411 1.390 . S
C1403 C1402 1.387 . S
C1403 C1405 1.387 . S
H1404 C1411 0.950 . S
C1405 C1403 1.387 . S
C1405 C1407 1.390 . S
C1405 H1409 0.950 . S
H1406 C1402 0.950 . S
C1407 C1405 1.390 . S
C1407 C1408 1.387 . S
C1407 H1410 0.950 . S
C1408 C1407 1.387 . S
C1408 C1411 1.387 . S
H1409 C1405 0.950 . S
H1410 C1407 0.950 . S
C1411 C1402 1.390 . S
C1411 H1404 0.950 . S
C1411 C1408 1.387 . S
C1412 C1413 1.387 . S
C1412 H1416 0.950 . S
C1412 C1421 1.390 . S
C1413 C1412 1.387 . S
C1413 C1415 1.387 . S
H1414 C1421 0.950 . S
C1415 C1413 1.387 . S
C1415 C1417 1.390 . S
C1415 H1419 0.950 . S
H1416 C1412 0.950 . S
C1417 C1415 1.390 . S
C1417 C1418 1.387 . S
C1417 H1420 0.950 . S
C1418 C1417 1.387 . S
C1418 C1421 1.387 . S
H1419 C1415 0.950 . S
H1420 C1417 0.950 . S
C1421 C1412 1.390 . S
C1421 H1414 0.950 . S
C1421 C1418 1.387 . S
C1422 C1423 1.387 . S
C1422 H1426 0.950 . S
C1422 C1431 1.390 . S
C1423 C1422 1.387 . S
C1423 C1425 1.387 . S
H1424 C1431 0.950 . S
C1425 C1423 1.387 . S
C1425 C1427 1.390 . S
C1425 H1429 0.950 . S
H1426 C1422 0.950 . S
C1427 C1425 1.390 . S
C1427 C1428 1.387 . S
C1427 H1430 0.950 . S
C1428 C1427 1.387 . S
C1428 C1431 1.387 . S
H1429 C1425 0.950 . S
H1430 C1427 0.950 . S
C1431 C1422 1.390 . S
C1431 H1424 0.950 . S
C1431 C1428 1.387 . S
C1432 C1433 1.387 . S
C1432 H1436 0.950 . S
C1432 C1441 1.390 . S
C1433 C1432 1.387 . S
C1433 C1435 1.387 . S
H1434 C1441 0.950 . S
C1435 C1433 1.387 . S
C1435 C1437 1.390 . S
C1435 H1439 0.950 . S
H1436 C1432 0.950 . S
C1437 C1435 1.390 . S
C1437 C1438 1.387 . S
C1437 H1440 0.950 . S
C1438 C1437 1.387 . S
C1438 C1441 1.387 . S
H1439 C1435 0.950 . S
H1440 C1437 0.950 . S
C1441 C1432 1.390 . S
C1441 H1434 0.950 . S
C1441 C1438 1.387 . S
C1442 C1443 1.387 . S
C1442 H1446 0.950 . S
C1442 C1451 1.390 . S
C1443 C1442 1.387 . S
C1443 C1445 1.387 . S
H1444 C1451 0.950 . S
C1445 C1443 1.387 . S
C1445 C1447 1.390 . S
C1445 H1449 0.950 . S
H1446 C1442 0.950 . S
C1447 C1445 1.390 . S
C1447 C1448 1.387 . S
C1447 H1450 0.950 . S
C1448 C1447 1.387 . S
C1448 C1451 1.387 . S
H1449 C1445 0.950 . S
H1450 C1447 0.950 . S
C1451 C1442 1.390 . S
C1451 H1444 0.950 . S
C1451 C1448 1.387 . S
C1452 C1453 1.387 . S
C1452 H1456 0.950 . S
C1452 C1461 1.390 . S
C1453 C1452 1.387 . S
C1453 C1455 1.387 . S
H1454 C1461 0.950 . S
C1455 C1453 1.387 . S
C1455 C1457 1.390 . S
C1455 H1459 0.950 . S
H1456 C1452 0.950 . S
C1457 C1455 1.390 . S
C1457 C1458 1.387 . S
C1457 H1460 0.950 1_655 S
C1458 C1457 1.387 . S
C1458 C1461 1.387 . S
H1459 C1455 0.950 . S
H1460 C1457 0.950 1_455 S
C1461 C1452 1.390 . S
C1461 H1454 0.950 . S
C1461 C1458 1.387 . S
C1462 C1463 1.387 . S
C1462 H1466 0.950 . S
C1462 C1471 1.390 . S
C1463 C1462 1.387 . S
C1463 C1465 1.387 . S
H1464 C1471 0.950 . S
C1465 C1463 1.387 . S
C1465 C1467 1.390 . S
C1465 H1469 0.950 . S
H1466 C1462 0.950 . S
C1467 C1465 1.390 . S
C1467 C1468 1.387 . S
C1467 H1470 0.950 . S
C1468 C1467 1.387 . S
C1468 C1471 1.387 . S
H1469 C1465 0.950 . S
H1470 C1467 0.950 . S
C1471 C1462 1.390 . S
C1471 H1464 0.950 . S
C1471 C1468 1.387 . S
C1472 C1473 1.387 . S
C1472 H1476 0.950 . S
C1472 C1481 1.390 . S
C1473 C1472 1.387 . S
C1473 C1475 1.387 . S
H1474 C1481 0.950 . S
C1475 C1473 1.387 . S
C1475 C1477 1.390 . S
C1475 H1479 0.950 . S
H1476 C1472 0.950 . S
C1477 C1475 1.390 . S
C1477 C1478 1.387 . S
C1477 H1480 0.950 . S
C1478 C1477 1.387 . S
C1478 C1481 1.387 . S
H1479 C1475 0.950 . S
H1480 C1477 0.950 . S
C1481 C1472 1.390 . S
C1481 H1474 0.950 . S
C1481 C1478 1.387 . S
C1482 C1483 1.387 . S
C1482 H1486 0.950 . S
C1482 C1491 1.390 . S
C1483 C1482 1.387 . S
C1483 C1485 1.387 . S
H1484 C1491 0.950 . S
C1485 C1483 1.387 . S
C1485 C1487 1.390 . S
C1485 H1489 0.950 . S
H1486 C1482 0.950 . S
C1487 C1485 1.390 . S
C1487 C1488 1.387 . S
C1487 H1490 0.950 . S
C1488 C1487 1.387 . S
C1488 C1491 1.387 . S
H1489 C1485 0.950 . S
H1490 C1487 0.950 . S
C1491 C1482 1.390 . S
C1491 H1484 0.950 . S
C1491 C1488 1.387 . S
C1492 C1493 1.387 . S
C1492 H1496 0.950 . S
C1492 C1501 1.390 . S
C1493 C1492 1.387 . S
C1493 C1495 1.387 . S
H1494 C1501 0.959 . S
C1495 C1493 1.387 . S
C1495 C1497 1.390 . S
C1495 H1499 0.950 . S
H1496 C1492 0.950 . S
C1497 C1495 1.390 . S
C1497 C1498 1.387 . S
C1497 H1500 0.950 . S
C1498 C1497 1.387 . S
C1498 C1501 1.387 . S
H1499 C1495 0.950 . S
H1500 C1497 0.950 . S
C1501 C1492 1.390 . S
C1501 H1494 0.959 . S
C1501 C1498 1.387 . S
C1502 C1503 1.387 . S
C1502 H1506 0.950 . S
C1502 C1511 1.390 . S
C1503 C1502 1.387 . S
C1503 C1505 1.387 . S
H1504 C1511 0.950 . S
C1505 C1503 1.387 . S
C1505 C1507 1.390 . S
C1505 H1509 0.950 . S
H1506 C1502 0.950 . S
C1507 C1505 1.390 . S
C1507 C1508 1.387 . S
C1507 H1510 0.950 . S
C1508 C1507 1.387 . S
C1508 C1511 1.387 . S
H1509 C1505 0.950 . S
H1510 C1507 0.950 . S
C1511 C1502 1.390 . S
C1511 H1504 0.950 . S
C1511 C1508 1.387 . S
C1512 C1513 1.387 . S
C1512 H1516 0.950 . S
C1512 C1521 1.390 . S
C1513 C1512 1.387 . S
C1513 C1515 1.387 . S
H1514 C1521 0.950 . S
C1515 C1513 1.387 . S
C1515 C1517 1.390 . S
C1515 H1519 0.950 . S
H1516 C1512 0.950 . S
C1517 C1515 1.390 . S
C1517 C1518 1.387 . S
C1517 H1520 0.950 . S
C1518 C1517 1.387 . S
C1518 C1521 1.387 . S
H1519 C1515 0.950 . S
H1520 C1517 0.950 . S
C1521 C1512 1.390 . S
C1521 H1514 0.950 . S
C1521 C1518 1.387 . S
C1522 C1523 1.387 . S
C1522 H1526 0.950 . S
C1522 C1531 1.390 . S
C1523 C1522 1.387 . S
C1523 C1525 1.387 . S
H1524 C1531 0.950 . S
C1525 C1523 1.387 . S
C1525 C1527 1.390 . S
C1525 H1529 0.950 . S
H1526 C1522 0.950 . S
C1527 C1525 1.390 . S
C1527 C1528 1.387 . S
C1527 H1530 0.950 1_565 S
C1528 C1527 1.387 . S
C1528 C1531 1.387 . S
H1529 C1525 0.950 . S
H1530 C1527 0.950 1_545 S
C1531 C1522 1.390 . S
C1531 H1524 0.950 . S
C1531 C1528 1.387 . S
C1532 C1533 1.387 . S
C1532 H1536 0.950 . S
C1532 C1541 1.390 . S
C1533 C1532 1.387 . S
C1533 C1535 1.387 . S
H1534 C1541 0.950 . S
C1535 C1533 1.387 . S
C1535 C1537 1.390 . S
C1535 H1539 0.950 . S
H1536 C1532 0.950 . S
C1537 C1535 1.390 . S
C1537 C1538 1.387 . S
C1537 H1540 0.950 . S
C1538 C1537 1.387 . S
C1538 C1541 1.387 . S
H1539 C1535 0.950 . S
H1540 C1537 0.950 . S
C1541 C1532 1.390 . S
C1541 H1534 0.950 . S
C1541 C1538 1.387 . S
C1542 C1543 1.387 . S
C1542 H1546 0.950 . S
C1542 C1551 1.390 . S
C1543 C1542 1.387 . S
C1543 C1545 1.387 . S
H1544 C1551 0.950 . S
C1545 C1543 1.387 . S
C1545 C1547 1.390 . S
C1545 H1549 0.950 . S
H1546 C1542 0.950 . S
C1547 C1545 1.390 . S
C1547 C1548 1.387 . S
C1547 H1550 0.950 . S
C1548 C1547 1.387 . S
C1548 C1551 1.387 . S
H1549 C1545 0.950 . S
H1550 C1547 0.950 . S
C1551 C1542 1.390 . S
C1551 H1544 0.950 . S
C1551 C1548 1.387 . S
C1552 C1553 1.387 . S
C1552 H1556 0.950 . S
C1552 C1561 1.390 . S
C1553 C1552 1.387 . S
C1553 C1555 1.387 . S
H1554 C1561 0.950 . S
C1555 C1553 1.387 . S
C1555 C1557 1.390 . S
C1555 H1559 0.950 . S
H1556 C1552 0.950 . S
C1557 C1555 1.390 . S
C1557 C1558 1.387 . S
C1557 H1560 0.950 . S
C1558 C1557 1.387 . S
C1558 C1561 1.387 . S
H1559 C1555 0.950 . S
H1560 C1557 0.950 . S
C1561 C1552 1.390 . S
C1561 H1554 0.950 . S
C1561 C1558 1.387 . S
C1562 C1563 1.387 . S
C1562 H1566 0.950 . S
C1562 C1571 1.390 . S
C1563 C1562 1.387 . S
C1563 C1565 1.387 . S
H1564 C1571 0.950 . S
C1565 C1563 1.387 . S
C1565 C1567 1.383 1_554 S
C1565 H1569 0.950 1_554 S
H1566 C1562 0.950 . S
C1567 C1565 1.383 1_556 S
C1567 C1568 1.375 1_556 S
C1567 H1570 0.969 . S
C1568 C1567 1.375 1_554 S
C1568 C1571 1.387 . S
H1569 C1565 0.950 1_556 S
H1570 C1567 0.969 . S
C1571 C1562 1.390 . S
C1571 H1564 0.950 . S
C1571 C1568 1.387 . S
C1572 C1573 1.387 . S
C1572 H1576 0.950 . S
C1572 C1581 1.390 . S
C1573 C1572 1.387 . S
C1573 C1575 1.387 . S
H1574 C1581 0.950 . S
C1575 C1573 1.387 . S
C1575 C1577 1.390 . S
C1575 H1579 0.950 . S
H1576 C1572 0.950 . S
C1577 C1575 1.390 . S
C1577 C1578 1.387 . S
C1577 H1580 0.950 . S
C1578 C1577 1.387 . S
C1578 C1581 1.387 . S
H1579 C1575 0.950 . S
H1580 C1577 0.950 . S
C1581 C1572 1.390 . S
C1581 H1574 0.950 . S
C1581 C1578 1.387 . S
C1582 C1583 1.387 . S
C1582 H1586 0.950 . S
C1582 C1591 1.390 . S
C1583 C1582 1.387 . S
C1583 C1585 1.387 . S
H1584 C1591 0.950 . S
C1585 C1583 1.387 . S
C1585 C1587 1.390 . S
C1585 H1589 0.950 . S
H1586 C1582 0.950 . S
C1587 C1585 1.390 . S
C1587 C1588 1.387 . S
C1587 H1590 0.950 . S
C1588 C1587 1.387 . S
C1588 C1591 1.387 . S
H1589 C1585 0.950 . S
H1590 C1587 0.950 . S
C1591 C1582 1.390 . S
C1591 H1584 0.950 . S
C1591 C1588 1.387 . S
C633 C101 1.522 . S
C638 C316 1.314 1_556 S
C643 C57 1.517 . S
C648 C351 1.554 . S
C653 C73 1.218 . S
C658 C356 1.161 . S
C668 C381 1.396 . S
C663 C78 1.390 . S
C673 C21 1.478 . S
C678 C401 1.491 . S
C688 C416 1.111 . S
C683 C31 1.200 . S
C698 C451 1.589 . S
C693 C49 1.610 . S
C703 C0 1.416 . S
C708 C456 1.240 . S
C718 C331 1.607 1_655 S
C713 C218 1.683 . S
C723 C229 1.088 . S
C728 C341 1.100 . S
C738 C371 1.440 . S
C733 C257 1.461 . S
C748 C376 1.221 . S
C743 C164 1.263 1_556 S
C753 C216 1.255 . S
C758 C396 1.215 . S
C768 C431 1.447 . S
C763 C231 1.468 . S
C778 C441 1.109 . S
C773 C255 1.101 . S
C788 C471 1.593 . S
C783 C166 1.669 . S
C798 C321 1.344 . S
C793 C143 1.455 . S
C803 C265 1.732 . S
C808 C491 1.786 . S
C818 C501 1.448 . S
C813 C299 1.477 . S
C828 C516 1.073 . S
C823 C291 1.143 . S
C833 C104 1.418 . S
C838 C461 1.292 . S
C843 C117 1.508 . S
C848 C361 1.493 . S
C853 C304 1.673 . S
C858 C551 1.720 . S
C868 C556 1.033 . S
C863 C278 1.110 . S
C878 C314 1.302 . S
C873 C60 1.592 . S
C888 C570 1.490 . S
C883 C96 1.493 . S
C893 C88 1.210 . S
C898 C354 1.104 . S
C903 C65 1.371 . S
C908 C544 1.333 . S
C918 C404 1.420 . S
C913 C10 1.479 . S
C923 C44 1.172 . S
C928 C494 1.075 . S
C938 C450 1.528 . S
C933 C34 1.481 . S
C948 C574 1.222 . S
C943 C13 1.531 . S
C958 C330 1.574 1_565 S
C953 C138 1.683 . S
C968 C564 1.028 . S
C963 C296 1.084 . S
C973 C112 1.357 . S
C978 C370 1.389 . S
C983 C270 1.267 . S
C988 C534 1.168 . S
C993 C140 1.248 . S
C998 C394 1.154 . S
C1008 C510 1.394 . S
C1003 C294 1.363 . S
C1013 C114 1.105 . S
C1018 C444 1.046 . S
C1023 C268 1.674 . S
C1028 C590 1.570 . S
C1033 C169 1.591 . S
C1038 C324 1.330 . S
C1043 C161 1.721 . S
C1048 C490 1.735 . S
C1053 C234 1.560 . S
C1058 C424 1.401 . S
C1063 C226 1.106 . S
C1068 C514 1.031 . S
C1078 C584 1.273 . S
C1073 C247 1.555 . S
C1083 C195 1.581 . S
C1088 C364 1.435 . S
C1098 C390 1.663 . S
C1093 C239 1.662 . S
C1108 C334 0.998 . S
C1103 C187 1.078 . S
C1113 C75 1.521 . S
C1118 C596 1.312 . S
C1128 C571 1.554 . S
C1123 C83 1.517 . S
C1133 C99 1.215 . S
C1138 C616 1.157 . S
C1143 C52 1.387 . S
C1148 C541 1.393 . S
C1153 C47 1.478 . S
C1158 C481 1.491 . S
C1168 C496 1.112 . S
C1163 C5 1.200 . S
C1178 C531 1.588 . S
C1173 C23 1.610 . S
C1188 C576 1.243 . S
C1183 C26 1.415 . S
C1198 C611 1.607 . S
C1193 C244 1.682 . S
C1203 C177 1.088 . S
C1208 C561 1.101 . S
C1218 C631 1.440 . S
C1213 C192 1.462 . S
C1228 C536 1.221 . S
C1223 C203 1.263 . S
C1238 C476 1.212 . S
C1233 C242 1.253 . S
C1243 C179 1.469 . S
C1248 C511 1.446 . S
C1258 C521 1.109 . S
C1253 C190 1.096 . S
C1263 C205 1.668 . S
C1268 C591 1.590 . S
C1278 C601 1.341 . S
C1273 C286 1.456 . S
C1283 C122 1.728 . S
C1288 C411 1.787 . S
C1298 C421 1.446 . S
C1293 C130 1.479 . S
C1308 C436 1.069 . S
C1303 C148 1.145 . S
C1318 C581 1.292 . S
C1313 C273 1.416 . S
C1323 C260 1.510 . S
C1328 C621 1.491 . S
C1338 C391 1.720 . S
C1333 C135 1.671 . S
C1348 C336 1.031 . S
C1343 C109 1.112 . S
C1353 C86 1.592 . S
C1358 C594 1.300 . S
C1368 C350 1.490 . S
C1363 C70 1.493 . S
C1373 C62 1.211 . S
C1378 C614 1.110 . S
C1383 C91 1.374 . S
C1388 C384 1.329 . S
C1393 C36 1.479 . S
C1398 C484 1.418 . S
C1408 C414 1.074 . S
C1403 C18 1.171 . S
C1413 C8 1.479 . S
C1418 C530 1.529 . S
C1423 C39 1.531 . S
C1428 C454 1.222 . S
C1438 C610 1.573 . S
C1433 C307 1.683 . S
C1443 C153 1.083 . S
C1448 C344 1.027 . S
C1458 C630 1.390 1_655 S
C1453 C281 1.356 . S
C1463 C127 1.267 . S
C1468 C374 1.172 . S
C1473 C309 1.248 . S
C1478 C474 1.154 . S
C1488 C430 1.396 . S
C1483 C151 1.360 . S
C1493 C283 1.106 . S
C1498 C524 1.049 . S
C1508 C470 1.566 . S
C1503 C125 1.674 . S
C1518 C604 1.323 . S
C1513 C221 1.590 . S
C1528 C410 1.734 . S
C1523 C200 1.720 . S
C1533 C208 1.560 . S
C1538 C504 1.402 . S
C1548 C434 1.031 . S
C1543 C174 1.109 . S
C1553 C182 1.554 . S
C1558 C464 1.277 . S
C1563 C156 1.580 . S
C1568 C624 1.440 . S
C1578 C550 1.663 . S
C1573 C213 1.662 . S
C1588 C554 0.994 . S
C1583 C252 1.079 . S
