# Generated by pormake.
# Topology llk, (3,12)-cn, num edge types: 1
# Building blocks:
#     Node 0, Type 0, BuildingBlock: OLANEW_clean_sbu_2, # of connection points: 3
#     Node 1, Type 0, BuildingBlock: OLANEW_clean_sbu_2, # of connection points: 3
#     Node 2, Type 0, BuildingBlock: OLANEW_clean_sbu_2, # of connection points: 3
#     Node 3, Type 0, BuildingBlock: OLANEW_clean_sbu_2, # of connection points: 3
#     Node 4, Type 0, BuildingBlock: OLANEW_clean_sbu_2, # of connection points: 3
#     Node 5, Type 0, BuildingBlock: OLANEW_clean_sbu_2, # of connection points: 3
#     Node 6, Type 0, BuildingBlock: OLANEW_clean_sbu_2, # of connection points: 3
#     Node 7, Type 0, BuildingBlock: OLANEW_clean_sbu_2, # of connection points: 3
#     Node 8, Type 0, BuildingBlock: OLANEW_clean_sbu_2, # of connection points: 3
#     Node 9, Type 0, BuildingBlock: OLANEW_clean_sbu_2, # of connection points: 3
#     Node 10, Type 0, BuildingBlock: OLANEW_clean_sbu_2, # of connection points: 3
#     Node 11, Type 0, BuildingBlock: OLANEW_clean_sbu_2, # of connection points: 3
#     Node 12, Type 0, BuildingBlock: OLANEW_clean_sbu_2, # of connection points: 3
#     Node 13, Type 0, BuildingBlock: OLANEW_clean_sbu_2, # of connection points: 3
#     Node 14, Type 0, BuildingBlock: OLANEW_clean_sbu_2, # of connection points: 3
#     Node 15, Type 0, BuildingBlock: OLANEW_clean_sbu_2, # of connection points: 3
#     Node 16, Type 0, BuildingBlock: OLANEW_clean_sbu_2, # of connection points: 3
#     Node 17, Type 0, BuildingBlock: OLANEW_clean_sbu_2, # of connection points: 3
#     Node 18, Type 0, BuildingBlock: OLANEW_clean_sbu_2, # of connection points: 3
#     Node 19, Type 0, BuildingBlock: OLANEW_clean_sbu_2, # of connection points: 3
#     Node 20, Type 0, BuildingBlock: OLANEW_clean_sbu_2, # of connection points: 3
#     Node 21, Type 0, BuildingBlock: OLANEW_clean_sbu_2, # of connection points: 3
#     Node 22, Type 0, BuildingBlock: OLANEW_clean_sbu_2, # of connection points: 3
#     Node 23, Type 0, BuildingBlock: OLANEW_clean_sbu_2, # of connection points: 3
#     Node 24, Type 1, BuildingBlock: QEWDON_clean_sbu_0, # of connection points: 12
#     Node 25, Type 1, BuildingBlock: QEWDON_clean_sbu_0, # of connection points: 12
#     Node 26, Type 1, BuildingBlock: QEWDON_clean_sbu_0, # of connection points: 12
#     Node 27, Type 1, BuildingBlock: QEWDON_clean_sbu_0, # of connection points: 12
#     Node 28, Type 1, BuildingBlock: QEWDON_clean_sbu_0, # of connection points: 12
#     Node 29, Type 1, BuildingBlock: QEWDON_clean_sbu_0, # of connection points: 12
#     Edge 30, Type (0, 1), BuildingBlock: AJUNOK_clean_linker_0, # of connection points: 2
#     Edge 31, Type (0, 1), BuildingBlock: AJUNOK_clean_linker_0, # of connection points: 2
#     Edge 32, Type (0, 1), BuildingBlock: AJUNOK_clean_linker_0, # of connection points: 2
#     Edge 33, Type (0, 1), BuildingBlock: AJUNOK_clean_linker_0, # of connection points: 2
#     Edge 34, Type (0, 1), BuildingBlock: AJUNOK_clean_linker_0, # of connection points: 2
#     Edge 35, Type (0, 1), BuildingBlock: AJUNOK_clean_linker_0, # of connection points: 2
#     Edge 36, Type (0, 1), BuildingBlock: AJUNOK_clean_linker_0, # of connection points: 2
#     Edge 37, Type (0, 1), BuildingBlock: AJUNOK_clean_linker_0, # of connection points: 2
#     Edge 38, Type (0, 1), BuildingBlock: AJUNOK_clean_linker_0, # of connection points: 2
#     Edge 39, Type (0, 1), BuildingBlock: AJUNOK_clean_linker_0, # of connection points: 2
#     Edge 40, Type (0, 1), BuildingBlock: AJUNOK_clean_linker_0, # of connection points: 2
#     Edge 41, Type (0, 1), BuildingBlock: AJUNOK_clean_linker_0, # of connection points: 2
#     Edge 42, Type (0, 1), BuildingBlock: AJUNOK_clean_linker_0, # of connection points: 2
#     Edge 43, Type (0, 1), BuildingBlock: AJUNOK_clean_linker_0, # of connection points: 2
#     Edge 44, Type (0, 1), BuildingBlock: AJUNOK_clean_linker_0, # of connection points: 2
#     Edge 45, Type (0, 1), BuildingBlock: AJUNOK_clean_linker_0, # of connection points: 2
#     Edge 46, Type (0, 1), BuildingBlock: AJUNOK_clean_linker_0, # of connection points: 2
#     Edge 47, Type (0, 1), BuildingBlock: AJUNOK_clean_linker_0, # of connection points: 2
#     Edge 48, Type (0, 1), BuildingBlock: AJUNOK_clean_linker_0, # of connection points: 2
#     Edge 49, Type (0, 1), BuildingBlock: AJUNOK_clean_linker_0, # of connection points: 2
#     Edge 50, Type (0, 1), BuildingBlock: AJUNOK_clean_linker_0, # of connection points: 2
#     Edge 51, Type (0, 1), BuildingBlock: AJUNOK_clean_linker_0, # of connection points: 2
#     Edge 52, Type (0, 1), BuildingBlock: AJUNOK_clean_linker_0, # of connection points: 2
#     Edge 53, Type (0, 1), BuildingBlock: AJUNOK_clean_linker_0, # of connection points: 2
#     Edge 54, Type (0, 1), BuildingBlock: AJUNOK_clean_linker_0, # of connection points: 2
#     Edge 55, Type (0, 1), BuildingBlock: AJUNOK_clean_linker_0, # of connection points: 2
#     Edge 56, Type (0, 1), BuildingBlock: AJUNOK_clean_linker_0, # of connection points: 2
#     Edge 57, Type (0, 1), BuildingBlock: AJUNOK_clean_linker_0, # of connection points: 2
#     Edge 58, Type (0, 1), BuildingBlock: AJUNOK_clean_linker_0, # of connection points: 2
#     Edge 59, Type (0, 1), BuildingBlock: AJUNOK_clean_linker_0, # of connection points: 2
#     Edge 60, Type (0, 1), BuildingBlock: AJUNOK_clean_linker_0, # of connection points: 2
#     Edge 61, Type (0, 1), BuildingBlock: AJUNOK_clean_linker_0, # of connection points: 2
#     Edge 62, Type (0, 1), BuildingBlock: AJUNOK_clean_linker_0, # of connection points: 2
#     Edge 63, Type (0, 1), BuildingBlock: AJUNOK_clean_linker_0, # of connection points: 2
#     Edge 64, Type (0, 1), BuildingBlock: AJUNOK_clean_linker_0, # of connection points: 2
#     Edge 65, Type (0, 1), BuildingBlock: AJUNOK_clean_linker_0, # of connection points: 2
#     Edge 66, Type (0, 1), BuildingBlock: AJUNOK_clean_linker_0, # of connection points: 2
#     Edge 67, Type (0, 1), BuildingBlock: AJUNOK_clean_linker_0, # of connection points: 2
#     Edge 68, Type (0, 1), BuildingBlock: AJUNOK_clean_linker_0, # of connection points: 2
#     Edge 69, Type (0, 1), BuildingBlock: AJUNOK_clean_linker_0, # of connection points: 2
#     Edge 70, Type (0, 1), BuildingBlock: AJUNOK_clean_linker_0, # of connection points: 2
#     Edge 71, Type (0, 1), BuildingBlock: AJUNOK_clean_linker_0, # of connection points: 2
#     Edge 72, Type (0, 1), BuildingBlock: AJUNOK_clean_linker_0, # of connection points: 2
#     Edge 73, Type (0, 1), BuildingBlock: AJUNOK_clean_linker_0, # of connection points: 2
#     Edge 74, Type (0, 1), BuildingBlock: AJUNOK_clean_linker_0, # of connection points: 2
#     Edge 75, Type (0, 1), BuildingBlock: AJUNOK_clean_linker_0, # of connection points: 2
#     Edge 76, Type (0, 1), BuildingBlock: AJUNOK_clean_linker_0, # of connection points: 2
#     Edge 77, Type (0, 1), BuildingBlock: AJUNOK_clean_linker_0, # of connection points: 2
#     Edge 78, Type (0, 1), BuildingBlock: AJUNOK_clean_linker_0, # of connection points: 2
#     Edge 79, Type (0, 1), BuildingBlock: AJUNOK_clean_linker_0, # of connection points: 2
#     Edge 80, Type (0, 1), BuildingBlock: AJUNOK_clean_linker_0, # of connection points: 2
#     Edge 81, Type (0, 1), BuildingBlock: AJUNOK_clean_linker_0, # of connection points: 2
#     Edge 82, Type (0, 1), BuildingBlock: AJUNOK_clean_linker_0, # of connection points: 2
#     Edge 83, Type (0, 1), BuildingBlock: AJUNOK_clean_linker_0, # of connection points: 2
#     Edge 84, Type (0, 1), BuildingBlock: AJUNOK_clean_linker_0, # of connection points: 2
#     Edge 85, Type (0, 1), BuildingBlock: AJUNOK_clean_linker_0, # of connection points: 2
#     Edge 86, Type (0, 1), BuildingBlock: AJUNOK_clean_linker_0, # of connection points: 2
#     Edge 87, Type (0, 1), BuildingBlock: AJUNOK_clean_linker_0, # of connection points: 2
#     Edge 88, Type (0, 1), BuildingBlock: AJUNOK_clean_linker_0, # of connection points: 2
#     Edge 89, Type (0, 1), BuildingBlock: AJUNOK_clean_linker_0, # of connection points: 2
#     Edge 90, Type (0, 1), BuildingBlock: AJUNOK_clean_linker_0, # of connection points: 2
#     Edge 91, Type (0, 1), BuildingBlock: AJUNOK_clean_linker_0, # of connection points: 2
#     Edge 92, Type (0, 1), BuildingBlock: AJUNOK_clean_linker_0, # of connection points: 2
#     Edge 93, Type (0, 1), BuildingBlock: AJUNOK_clean_linker_0, # of connection points: 2
#     Edge 94, Type (0, 1), BuildingBlock: AJUNOK_clean_linker_0, # of connection points: 2
#     Edge 95, Type (0, 1), BuildingBlock: AJUNOK_clean_linker_0, # of connection points: 2
#     Edge 96, Type (0, 1), BuildingBlock: AJUNOK_clean_linker_0, # of connection points: 2
#     Edge 97, Type (0, 1), BuildingBlock: AJUNOK_clean_linker_0, # of connection points: 2
#     Edge 98, Type (0, 1), BuildingBlock: AJUNOK_clean_linker_0, # of connection points: 2
#     Edge 99, Type (0, 1), BuildingBlock: AJUNOK_clean_linker_0, # of connection points: 2
#     Edge 100, Type (0, 1), BuildingBlock: AJUNOK_clean_linker_0, # of connection points: 2
#     Edge 101, Type (0, 1), BuildingBlock: AJUNOK_clean_linker_0, # of connection points: 2
# Relax obj value: 0.073
# Max RMSD: 0.125
# Mean RMSD: 0.077
data_MOF--net-llk--node1-OLANEW_clean_sbu_2--node2-QEWDON_clean_sbu_0--edge1-AJUNOK_clean_linker_0
_symmetry_space_group_name_H-M    P1
_symmetry_Int_Tables_number       1
_symmetry_cell_setting            triclinic
loop_
_symmetry_equiv_pos_as_xyz
'x, y, z'
_cell_length_a     40.006628
_cell_length_b     40.335837
_cell_length_c     39.939748
_cell_angle_alpha  90.007888
_cell_angle_beta   90.070105
_cell_angle_gamma 89.394782
loop_
_atom_site_label
_atom_site_type_symbol
_atom_site_fract_x
_atom_site_fract_y
_atom_site_fract_z
_atom_type_partial_charge
O0 O 0.03563 0.31556 0.32392 0.0
Cd1 Cd 0.04429 0.26426 0.29257 0.0
O2 O -0.00793 0.33124 0.29375 0.0
Cd3 Cd -0.00131 0.30037 0.24931 0.0
O4 O -0.00351 0.31634 0.19694 0.0
C5 C 0.0235 0.32596 0.18355 0.0
O6 O 0.05145 0.32239 0.20053 0.0
C7 C 0.01099 0.33515 0.31903 0.0
C8 C 0.02326 0.21348 0.33483 0.0
O9 O 0.05442 0.22012 0.33245 0.0
O10 O 0.00269 0.22966 0.31625 0.0
O11 O 0.67304 0.04256 0.26497 0.0
Cd12 Cd 0.71745 0.04884 0.22407 0.0
O13 O 0.66293 0.09589 0.26898 0.0
Cd14 Cd 0.71518 0.10348 0.25648 0.0
O15 O 0.75993 0.09393 0.28647 0.0
C16 C 0.76229 0.06533 0.29974 0.0
O17 O 0.73938 0.04328 0.29289 0.0
C18 C 0.65417 0.06621 0.27454 0.0
C19 C 0.68356 0.03917 0.16451 0.0
O20 O 0.69396 0.01465 0.18216 0.0
O21 O 0.69086 0.06861 0.17384 0.0
O22 O 0.00946 0.73555 0.32649 0.0
Cd23 Cd 0.02716 0.77824 0.28711 0.0
O24 O 0.01436 0.69446 0.29047 0.0
Cd25 Cd 0.01532 0.72368 0.24457 0.0
O26 O 0.00114 0.70821 0.19414 0.0
C27 C -0.02352 0.68859 0.19245 0.0
O28 O 0.95972 0.68238 0.21997 0.0
C29 C 0.00947 0.70469 0.32015 0.0
C30 C 0.01484 0.84063 0.31451 0.0
O31 O -0.0043 0.82892 0.29177 0.0
O32 O 0.04 0.82321 0.3241 0.0
O33 O 0.26153 0.01899 0.28642 0.0
Cd34 Cd 0.23451 0.01763 0.23149 0.0
O35 O 0.25523 0.966 0.29662 0.0
Cd36 Cd 0.2155 0.96519 0.25923 0.0
O37 O 0.16366 0.98065 0.26652 0.0
C38 C 0.15894 0.01005 0.27717 0.0
O39 O 0.18469 0.02991 0.27871 0.0
C40 C 0.26738 0.99386 0.30476 0.0
C41 C 0.28309 0.01194 0.18191 0.0
O42 O 0.27683 0.03961 0.1964 0.0
O43 O 0.26606 0.98654 0.19026 0.0
O44 O 0.91835 0.72709 0.6594 0.0
Cd45 Cd 0.91583 0.77125 0.70069 0.0
O46 O 0.93617 0.69012 0.69607 0.0
Cd47 Cd 0.93585 0.7198 0.74168 0.0
O48 O 0.94796 0.70532 0.79294 0.0
C49 C -0.02846 0.68405 0.79543 0.0
O50 O -0.01182 0.67589 0.76827 0.0
C51 C 0.92826 0.69787 0.66625 0.0
C52 C 0.93983 0.82734 0.66882 0.0
O53 O 0.95979 0.80573 0.68155 0.0
O54 O 0.90831 0.82321 0.67226 0.0
O55 O 0.29559 0.97086 0.7264 0.0
Cd56 Cd 0.25871 0.97979 0.77388 0.0
O57 O 0.30828 0.02354 0.7308 0.0
Cd58 Cd 0.25726 0.03571 0.74562 0.0
O59 O 0.21207 0.04159 0.71533 0.0
C60 C 0.21148 0.0234 0.68933 0.0
O61 O 0.23633 1.00244 0.68424 0.0
C62 C 0.31499 0.99471 0.71962 0.0
C63 C 0.30293 0.99064 0.82636 0.0
O64 O 0.28893 0.9624 0.82319 0.0
O65 O 0.29477 0.01388 0.80603 0.0
O66 O 0.9576 0.31585 0.6642 0.0
Cd67 Cd 0.93888 0.27273 0.70267 0.0
O68 O 0.00973 0.31658 0.68177 0.0
Cd69 Cd -0.00089 0.2936 0.72996 0.0
O70 O -0.004 0.31809 0.77876 0.0
C71 C -0.00547 0.34948 0.77592 0.0
O72 O -0.00477 0.36239 0.74574 0.0
C73 C -0.01253 0.32581 0.6609 0.0
C74 C 0.94883 0.21098 0.67232 0.0
O75 O 0.92195 0.22772 0.66702 0.0
O76 O -0.02949 0.22322 0.69235 0.0
O77 O 0.67922 0.12328 0.71888 0.0
Cd78 Cd 0.68998 0.13595 0.77773 0.0
O79 O 0.71454 0.08259 0.72695 0.0
Cd80 Cd 0.74605 0.03841 0.72123 0.0
O81 O 0.7848 0.00581 0.74798 0.0
C82 C 0.81615 0.00582 0.74148 0.0
O83 O 0.78448 0.00494 0.74913 0.0
C84 C 0.69435 0.0978 0.70755 0.0
C85 C 0.64585 0.10179 0.81918 0.0
O86 O 0.64083 0.13248 0.81235 0.0
O87 O 0.67173 0.08743 0.80678 0.0
O88 O 0.25746 0.32424 -0.01185 0.0
Cd89 Cd 0.2234 0.27498 -0.01265 0.0
O90 O 0.26847 0.31407 0.04101 0.0
Cd91 Cd 0.2178 0.29491 0.04597 0.0
O92 O 0.16988 0.31879 0.0342 0.0
C93 C 0.17354 0.34973 0.02969 0.0
O94 O 0.20342 0.36228 0.03402 0.0
C95 C 0.27587 0.32854 0.01374 0.0
C96 C 0.27263 0.22599 -0.00772 0.0
O97 O 0.26177 0.23561 0.96364 0.0
O98 O 0.25842 0.23788 0.01845 0.0
O99 O 0.24786 0.74376 0.03998 0.0
Cd100 Cd 0.21128 0.79281 0.04213 0.0
O101 O 0.23493 0.73804 -0.01303 0.0
Cd102 Cd 0.18669 0.76256 -0.0057 0.0
O103 O 0.14077 0.73507 0.00217 0.0
C104 C 0.14468 0.70931 0.02018 0.0
O105 O 0.1737 0.70448 0.03491 0.0
C106 C 0.25336 0.73023 0.01174 0.0
C107 C 0.25086 0.8474 0.02641 0.0
O108 O 0.24548 0.83887 0.05684 0.0
O109 O 0.23641 0.8308 0.00329 0.0
O110 O 0.72349 0.31464 0.0049 0.0
Cd111 Cd 0.75895 0.265 -0.0009 0.0
O112 O 0.72761 0.32769 0.95175 0.0
Cd113 Cd 0.77292 0.29751 0.94885 0.0
O114 O 0.81711 0.31229 0.9766 0.0
C115 C 0.84305 0.32313 0.96217 0.0
O116 O 0.845 0.32152 0.92938 0.0
C117 C 0.7143 0.33253 0.98028 0.0
C118 C 0.71699 0.21005 -0.00034 0.0
O119 O 0.72977 0.22154 0.02664 0.0
O120 O 0.72504 0.22391 0.97199 0.0
O121 O 0.69538 0.72582 0.95394 0.0
Cd122 Cd 0.73446 0.77094 0.94708 0.0
O123 O 0.6977 0.73436 0.00802 0.0
Cd124 Cd 0.75028 0.74582 0.00074 0.0
O125 O 0.78943 0.70898 -0.00893 0.0
C126 C 0.81894 0.71294 0.98018 0.0
O127 O 0.82956 0.74294 0.97359 0.0
C128 C 0.68277 0.72208 0.9829 0.0
C129 C 0.69229 0.82553 0.95491 0.0
O130 O 0.69969 0.8145 0.92573 0.0
O131 O 0.70662 0.81204 0.98027 0.0
O132 O 0.52124 0.83016 0.80018 0.0
Cd133 Cd 0.52747 0.78181 0.76374 0.0
O134 O 0.46883 0.8383 0.78535 0.0
Cd135 Cd 0.47306 0.80921 0.73953 0.0
O136 O 0.48056 0.82475 0.68788 0.0
C137 C 0.51043 0.82972 0.67861 0.0
O138 O 0.53482 0.82107 0.69898 0.0
C139 C 0.49343 0.84516 0.80424 0.0
C140 C 0.51245 0.72653 0.80285 0.0
O141 O 0.54258 0.73663 0.80011 0.0
O142 O 0.48975 0.74189 0.78609 0.0
O143 O 0.20011 0.54373 0.77064 0.0
Cd144 Cd 0.24728 0.55458 0.73357 0.0
O145 O 0.19588 0.59635 0.78384 0.0
Cd146 Cd 0.24906 0.60226 0.77347 0.0
O147 O 0.2971 0.59284 0.79805 0.0
C148 C 0.30637 0.5629 0.80238 0.0
O149 O 0.28833 0.53925 0.78909 0.0
C150 C 0.18348 0.56745 0.78369 0.0
C151 C 0.21743 0.55743 0.67082 0.0
O152 O 0.23082 0.53051 0.6817 0.0
O153 O 0.22014 0.58357 0.68883 0.0
O154 O 0.41978 0.22257 0.82565 0.0
Cd155 Cd 0.4101 0.26944 0.78792 0.0
O156 O 0.45519 0.1994 0.79053 0.0
Cd157 Cd 0.44584 0.22887 0.74565 0.0
O158 O 0.45576 0.21175 0.69472 0.0
C159 C 0.43937 0.18649 0.68554 0.0
O160 O 0.4158 0.17551 0.70542 0.0
C161 C 0.44108 0.19993 0.819 0.0
C162 C 0.433 0.32624 0.82048 0.0
O163 O 0.40251 0.31717 0.82295 0.0
O164 O 0.45244 0.30896 0.8017 0.0
O165 O 0.7412 0.53889 0.80917 0.0
Cd166 Cd 0.71843 0.5462 0.75326 0.0
O167 O 0.75162 0.48731 0.79471 0.0
Cd168 Cd 0.7064 0.48682 0.7643 0.0
O169 O 0.65817 0.49248 0.78883 0.0
C170 C 0.65661 0.47719 0.8166 0.0
O171 O 0.68181 0.4578 0.82517 0.0
C172 C 0.75683 0.51174 0.81413 0.0
C173 C 0.77384 0.53949 0.71103 0.0
O174 O 0.76415 0.56807 0.72143 0.0
O175 O 0.75644 0.51435 0.71942 0.0
O176 O 0.43994 0.25508 0.18142 0.0
Cd177 Cd 0.4299 0.30375 0.21673 0.0
O178 O 0.44766 0.21621 0.21972 0.0
Cd179 Cd 0.44401 0.24266 0.26725 0.0
O180 O 0.45091 0.21917 0.31627 0.0
C181 C 0.46983 0.19363 0.3153 0.0
O182 O 0.4847 0.18629 0.2869 0.0
C183 C 0.44561 0.22497 0.18922 0.0
C184 C 0.44673 0.35934 0.17862 0.0
O185 O 0.46789 0.34554 0.19846 0.0
O186 O 0.41715 0.3475 0.17763 0.0
O187 O 0.76747 0.49812 0.22751 0.0
Cd188 Cd 0.72158 0.49338 0.26745 0.0
O189 O 0.75203 0.54826 0.21261 0.0
Cd190 Cd 0.70055 0.53717 0.2265 0.0
O191 O 0.65408 0.52411 0.20106 0.0
C192 C 0.65599 0.50203 0.17835 0.0
O193 O 0.68454 0.48618 0.17424 0.0
C194 C 0.77388 0.52518 0.21264 0.0
C195 C 0.75285 0.50099 0.3293 0.0
O196 O 0.74821 0.47219 0.31669 0.0
O197 O 0.74086 0.52609 0.31349 0.0
O198 O 0.53399 0.80418 0.17923 0.0
Cd199 Cd 0.55258 0.7557 0.21134 0.0
O200 O 0.55807 0.84388 0.20803 0.0
Cd201 Cd 0.57205 0.81418 0.25168 0.0
O202 O 0.561 0.82939 0.30307 0.0
C203 C 0.55979 0.86078 0.30578 0.0
O204 O 0.56762 0.87872 0.27951 0.0
C205 C 0.54096 0.83465 0.18295 0.0
C206 C 0.5323 0.69974 0.17546 0.0
O207 O 0.51402 0.71235 0.19862 0.0
O208 O 0.56079 0.71293 0.17005 0.0
O209 O 0.22158 0.57637 0.18836 0.0
Cd210 Cd 0.24491 0.57824 0.24426 0.0
O211 O 0.22598 0.52213 0.18927 0.0
Cd212 Cd 0.26969 0.52605 0.22176 0.0
O213 O 0.31897 0.53578 0.20111 0.0
C214 C 0.3203 0.56073 0.18173 0.0
O215 O 0.29445 0.58102 0.18045 0.0
C216 C 0.21374 0.54837 0.1763 0.0
C217 C 0.18963 0.566 0.28464 0.0
O218 O 0.1986 0.59571 0.27809 0.0
O219 O 0.20788 0.54216 0.2735 0.0
O220 O 0.78883 0.81884 0.45555 0.0
Cd221 Cd 0.7576 0.76741 0.45115 0.0
O222 O 0.77599 0.82299 0.50894 0.0
Cd223 Cd 0.72901 0.79641 0.50382 0.0
O224 O 0.67818 0.81692 0.49997 0.0
C225 C 0.67193 0.83294 0.47325 0.0
O226 O 0.69484 0.83335 0.44972 0.0
C227 C 0.79343 0.8321 0.48404 0.0
C228 C 0.8008 0.71484 0.46768 0.0
O229 O 0.79673 0.72376 0.43714 0.0
O230 O 0.78397 0.73036 0.49015 0.0
O231 O 0.80677 0.23693 0.4628 0.0
Cd232 Cd 0.76496 0.27831 0.44649 0.0
O233 O 0.77478 0.19404 0.45297 0.0
Cd234 Cd 0.728 0.2221 0.45203 0.0
O235 O 0.67751 0.21106 0.46898 0.0
C236 C 0.67544 0.19174 0.49406 0.0
O237 O 0.70315 0.18228 0.50915 0.0
C238 C 0.80313 0.20579 0.46047 0.0
C239 C 0.78897 0.33963 0.46638 0.0
O240 O 0.7673 0.32435 0.48405 0.0
O241 O 0.79854 0.32639 0.43881 0.0
O242 O 0.1566 0.81997 0.53618 0.0
Cd243 Cd 0.18948 0.76887 0.53855 0.0
O244 O 0.16962 0.82426 0.48285 0.0
Cd245 Cd 0.22052 0.80475 0.48863 0.0
O246 O 0.26573 0.83498 0.48479 0.0
C247 C 0.29505 0.82815 0.49514 0.0
O248 O 0.30083 0.79931 0.50943 0.0
C249 C 0.15106 0.83237 0.50742 0.0
C250 C 0.14428 0.71772 0.52694 0.0
O251 O 0.15455 0.72359 0.55672 0.0
O252 O 0.1562 0.73495 0.50292 0.0
O253 O 0.15251 0.22766 0.532 0.0
Cd254 Cd 0.19314 0.27192 0.52739 0.0
O255 O 0.18894 0.18664 0.52689 0.0
Cd256 Cd 0.23523 0.21289 0.51765 0.0
O257 O 0.27812 0.18252 0.50266 0.0
C258 C 0.30875 0.19028 0.50376 0.0
O259 O 0.31694 0.22016 0.51375 0.0
C260 C 0.15914 0.1968 0.53136 0.0
C261 C 0.15877 0.33047 0.51171 0.0
O262 O 0.16906 0.31068 0.48874 0.0
O263 O 0.16533 0.32285 0.54218 0.0
Zn264 Zn 0.92301 0.9958 0.42463 0.0
Zn265 Zn 0.91616 0.07211 0.44653 0.0
O266 O 0.9472 0.03309 0.44734 0.0
H267 H -0.03606 0.02952 0.46438 0.0
C268 C 0.86316 0.9559 0.50029 0.0
O269 O 0.87321 0.97347 0.47457 0.0
Zn270 Zn 0.0432 0.06247 0.55966 0.0
Zn271 Zn 0.04271 0.98381 0.5678 0.0
O272 O 0.01295 0.02353 0.55855 0.0
H273 H -0.00828 0.0226 0.5471 0.0
Zn274 Zn 0.87372 0.01721 0.54208 0.0
O275 O 0.9218 0.03049 0.53632 0.0
Zn276 Zn 0.92253 0.07028 0.56609 0.0
H277 H 0.9373 0.02388 0.519 0.0
Zn278 Zn 0.02707 0.98823 0.433 0.0
O279 O 0.02845 0.02659 0.46575 0.0
H280 H 0.01987 0.02527 0.48829 0.0
Zn281 Zn 0.03312 0.0676 0.43807 0.0
C282 C 0.05856 0.94061 0.47948 0.0
O283 O 0.05569 0.96572 0.50024 0.0
O284 O 0.88166 0.0114 0.3982 0.0
O285 O 0.87541 0.06279 0.41757 0.0
O286 O 0.08669 0.99601 0.59113 0.0
O287 O 0.08604 0.05083 0.58504 0.0
O288 O 0.85724 0.02898 0.58934 0.0
O289 O 0.89856 0.05954 0.60968 0.0
C290 C -0.0299 0.11084 0.42116 0.0
O291 O 0.04532 1.00154 0.38686 0.0
O292 O 0.05457 0.05543 0.39324 0.0
O293 O 0.01997 0.94127 0.5846 0.0
C294 C 0.86578 0.03892 0.39901 0.0
O295 O 0.95072 0.95648 0.40571 0.0
C296 C -0.01068 0.10042 0.58934 0.0
O297 O 0.8615 0.96929 0.52901 0.0
C298 C 0.09968 0.02426 0.59617 0.0
O299 O 0.04708 0.94365 0.44994 0.0
C300 C 0.89519 0.10718 0.51111 0.0
O301 O 0.93863 0.11057 0.42483 0.0
O302 O -0.01338 0.08614 0.43244 0.0
C303 C 0.8712 0.04391 0.61366 0.0
O304 O 0.02089 0.09841 0.58649 0.0
O305 O -0.02859 0.08084 0.5722 0.0
C306 C 0.06376 0.09897 0.49529 0.0
O307 O 0.89782 0.10753 0.5428 0.0
O308 O 0.90806 0.08298 0.49515 0.0
C309 C 0.05655 0.02889 0.37584 0.0
O310 O 0.06085 0.10059 0.46359 0.0
O311 O 0.04926 0.07585 0.51103 0.0
C312 C -0.00689 0.94287 0.60144 0.0
O313 O -0.02065 0.97205 0.60711 0.0
C314 C -0.03272 0.96048 0.37892 0.0
O315 O -0.03287 0.98981 0.36462 0.0
Zn316 Zn 0.41854 0.07733 0.03958 0.0
Zn317 Zn 0.42862 0.08386 0.95983 0.0
O318 O 0.43492 0.0528 -0.00134 0.0
H319 H 0.44895 0.03316 -0.00084 0.0
C320 C 0.48944 0.12901 0.08979 0.0
O321 O 0.4854 0.09687 0.0929 0.0
Zn322 Zn 0.53371 0.96985 0.942 0.0
Zn323 Zn 0.54705 0.96742 0.02126 0.0
O324 O 0.52775 0.99599 0.98404 0.0
H325 H 0.51016 0.01225 -0.01292 0.0
Zn326 Zn 0.53833 0.10773 0.03876 0.0
O327 O 0.51741 0.08257 0.00097 0.0
Zn328 Zn 0.54694 0.08791 0.96096 0.0
H329 H 0.49882 0.06773 0.00321 0.0
Zn330 Zn 0.42971 0.9502 0.0395 0.0
O331 O 0.45327 0.96025 -0.00397 0.0
H332 H 0.4768 0.9557 -0.00704 0.0
Zn333 Zn 0.41836 0.96341 0.96016 0.0
C334 C 0.47978 0.9301 0.09101 0.0
O335 O 0.48879 0.96127 0.08907 0.0
O336 O 0.3902 0.11833 0.02745 0.0
O337 O 0.39774 0.12224 0.97249 0.0
O338 O 0.5775 0.9298 0.00418 0.0
O339 O 0.56811 0.93325 0.9495 0.0
O340 O 0.58536 0.12323 0.02749 0.0
O341 O 0.59193 0.1092 0.974 0.0
C342 C 0.40049 0.02839 0.92469 0.0
O343 O 0.38092 0.93674 0.03177 0.0
O344 O 0.37487 0.94226 0.97661 0.0
O345 O 0.56864 0.99128 0.06113 0.0
C346 C 0.38429 0.13255 -0.00041 0.0
O347 O 0.39912 0.05054 0.07901 0.0
C348 C 0.56105 0.02948 0.91206 0.0
O349 O 0.50971 0.1396 0.06792 0.0
C350 C 0.58353 0.92043 0.97436 0.0
O351 O 0.45581 0.92011 0.07285 0.0
C352 C 0.49089 0.11563 0.92563 0.0
O353 O 0.4052 0.05945 0.9229 0.0
O354 O 0.41379 0.01214 0.94861 0.0
C355 C 0.60304 0.12218 0.00103 0.0
O356 O 0.55464 0.99908 0.90692 0.0
O357 O 0.55069 0.04244 0.93932 0.0
C358 C 0.4663 0.93772 0.91215 0.0
O359 O 0.52254 0.11665 0.92777 0.0
O360 O 0.47505 0.09868 0.94712 0.0
C361 C 0.36348 0.93375 0.00523 0.0
O362 O 0.43539 0.93864 0.91966 0.0
O363 O 0.48666 0.95403 0.93019 0.0
C364 C 0.59396 0.00902 0.05499 0.0
O365 O 0.60282 0.01355 0.02368 0.0
C366 C 0.37632 0.02935 0.07418 0.0
O367 O 0.36726 0.0226 0.04331 0.0
Zn368 Zn 0.93015 0.47973 0.93166 0.0
Zn369 Zn 0.91425 0.55832 0.94453 0.0
O370 O 0.95003 0.52314 0.94633 0.0
H371 H -0.03154 0.52405 0.96187 0.0
C372 C 0.92206 0.42324 0.02827 0.0
O373 O 0.94878 0.43591 0.01436 0.0
Zn374 Zn 0.04365 0.56292 0.04957 0.0
Zn375 Zn 0.05719 0.48495 0.05013 0.0
O376 O 0.01927 0.51964 0.05044 0.0
H377 H -0.00342 0.51611 0.04307 0.0
Zn378 Zn 0.92272 0.48419 0.0709 0.0
O379 O 0.92518 0.52138 0.03678 0.0
Zn380 Zn 0.92345 0.56262 0.06464 0.0
H381 H 0.93636 0.5189 0.0155 0.0
Zn382 Zn 0.05137 0.4912 0.92578 0.0
O383 O 0.03339 0.52722 0.95603 0.0
H384 H 0.02537 0.52342 0.97849 0.0
Zn385 Zn 0.0303 0.56909 0.92926 0.0
C386 C 0.07093 0.43564 0.97207 0.0
O387 O 0.03936 0.43557 0.98107 0.0
O388 O 0.88178 0.48638 0.91692 0.0
O389 O 0.87189 0.54045 0.92291 0.0
O390 O 0.10074 0.50312 0.07051 0.0
O391 O 0.08877 0.55686 0.07074 0.0
O392 O 0.89644 0.49922 0.11257 0.0
O393 O 0.89587 0.55398 0.10658 0.0
C394 C -0.03925 0.59859 0.90952 0.0
O395 O 0.07209 0.51076 0.8829 0.0
O396 O 0.05733 0.56402 0.88643 0.0
O397 O 0.04872 0.43783 0.06883 0.0
C398 C 0.863 0.51172 0.91302 0.0
O399 O 0.95342 0.45323 0.89377 0.0
C400 C -0.01023 0.59728 0.08417 0.0
O401 O 0.90806 0.43866 0.05229 0.0
C402 C 0.1083 0.53279 0.07794 0.0
O403 O 0.08063 0.45587 0.94979 0.0
C404 C 0.898 0.59825 0.00755 0.0
O405 O 0.92977 0.59592 0.91559 0.0
O406 O -0.01903 0.57885 0.92414 0.0
C407 C 0.88714 0.52793 0.12235 0.0
O408 O 0.02085 0.5971 0.07809 0.0
O409 O -0.02816 0.57502 0.07082 0.0
C410 C 0.05573 0.60401 -0.0136 0.0
O411 O 0.90085 0.59959 0.03916 0.0
O412 O 0.90887 0.57275 -0.00768 0.0
C413 C 0.07246 0.54025 0.87144 0.0
O414 O 0.05136 0.60617 0.95501 0.0
O415 O 0.04517 0.5785 0.0016 0.0
C416 C 0.02148 0.42723 0.08085 0.0
O417 O -0.00542 0.44612 0.07902 0.0
C418 C -0.02311 0.43183 0.89437 0.0
O419 O -0.00843 0.42454 0.9229 0.0
Zn420 Zn 0.42022 0.47131 0.95724 0.0
Zn421 Zn 0.43151 0.47175 0.03716 0.0
O422 O 0.43524 0.50022 -0.00406 0.0
H423 H 0.44802 0.52029 -0.00623 0.0
C424 C 0.48953 0.4239 0.91085 0.0
O425 O 0.47224 0.43437 0.93676 0.0
Zn426 Zn 0.5333 0.58231 0.03808 0.0
Zn427 Zn 0.53412 0.57672 0.95804 0.0
O428 O 0.52416 0.55117 0.00033 0.0
H429 H 0.50853 0.53316 0.00165 0.0
Zn430 Zn 0.54479 0.45328 0.9493 0.0
O431 O 0.5183 0.46528 -0.0091 0.0
Zn432 Zn 0.54964 0.46407 0.03028 0.0
H433 H 0.49615 0.47495 -0.00966 0.0
Zn434 Zn 0.42094 0.60998 0.95537 0.0
O435 O 0.44968 0.59761 -0.00483 0.0
H436 H 0.47152 0.58753 -0.00715 0.0
Zn437 Zn 0.41903 0.59505 0.03509 0.0
C438 C 0.47301 0.63453 0.90735 0.0
O439 O 0.49466 0.62131 0.92828 0.0
O440 O 0.39202 0.43243 0.97335 0.0
O441 O 0.40006 0.43285 0.02838 0.0
O442 O 0.56205 0.61821 0.9671 0.0
O443 O 0.56242 0.62025 0.02263 0.0
O444 O 0.5898 0.43233 0.96198 0.0
O445 O 0.59257 0.43886 0.01731 0.0
C446 C 0.40621 0.53038 0.07207 0.0
O447 O 0.37726 0.63179 0.97054 0.0
O448 O 0.3758 0.62141 0.02519 0.0
O449 O 0.54989 0.54991 0.91683 0.0
C450 C 0.38634 0.42065 0.00231 0.0
O451 O 0.40269 0.49224 0.91301 0.0
C452 C 0.56414 0.52698 0.07196 0.0
O453 O 0.52069 0.42959 0.90993 0.0
C454 C 0.57156 0.63159 -0.00567 0.0
O455 O 0.44201 0.6323 0.91366 0.0
C456 C 0.49608 0.44272 0.07238 0.0
O457 O 0.41106 0.49922 0.07386 0.0
O458 O 0.4149 0.54587 0.04573 0.0
C459 C 0.60482 0.42799 -0.01022 0.0
O460 O 0.55773 0.55781 0.07436 0.0
O461 O 0.55477 0.51167 0.04571 0.0
C462 C 0.47289 0.61344 0.07693 0.0
O463 O 0.52756 0.44078 0.06843 0.0
O464 O 0.47888 0.45757 0.04992 0.0
C465 C 0.36307 0.63463 -0.00109 0.0
O466 O 0.44134 0.61633 0.07473 0.0
O467 O 0.48794 0.59762 0.05382 0.0
C468 C 0.56947 0.52546 0.92193 0.0
O469 O 0.57686 0.51738 0.95297 0.0
C470 C 0.3971 0.52304 0.90898 0.0
O471 O 0.40451 0.54353 0.93337 0.0
Zn472 Zn 0.92726 0.48763 0.44509 0.0
Zn473 Zn 0.9158 0.56726 0.44639 0.0
O474 O 0.94976 0.53129 0.45494 0.0
H475 H -0.03159 0.53341 0.47016 0.0
C476 C 0.85674 0.4515 0.52553 0.0
O477 O 0.84122 0.47841 0.53602 0.0
Zn478 Zn 0.04316 0.57209 0.54969 0.0
Zn479 Zn 0.05792 0.49398 0.5533 0.0
O480 O 0.02059 0.52806 0.54831 0.0
H481 H -0.00072 0.52362 0.5379 0.0
Zn482 Zn 0.90954 0.48678 0.55694 0.0
O483 O 0.91676 0.5271 0.52822 0.0
Zn484 Zn 0.9198 0.565 0.56035 0.0
H485 H 0.90812 0.52757 0.50566 0.0
Zn486 Zn 0.05088 0.49443 0.42579 0.0
O487 O 0.03992 0.53139 0.45853 0.0
H488 H 0.03042 0.52795 0.48045 0.0
Zn489 Zn 0.03545 0.57199 0.4299 0.0
C490 C 0.08505 0.44979 0.47286 0.0
O491 O 0.0867 0.47728 0.49039 0.0
O492 O 0.87805 0.49354 0.43133 0.0
O493 O 0.87329 0.5482 0.42574 0.0
O494 O 0.1022 0.51431 0.56913 0.0
O495 O 0.08855 0.56776 0.57256 0.0
O496 O 0.8864 0.49926 0.60124 0.0
O497 O 0.89569 0.55343 0.60376 0.0
C498 C -0.03232 0.60258 0.41172 0.0
O499 O 0.07524 0.51225 0.38446 0.0
O500 O 0.06272 0.566 0.3872 0.0
O501 O 0.04573 0.45009 0.57699 0.0
C502 C 0.8612 0.51912 0.42279 0.0
O503 O 0.95134 0.45524 0.41273 0.0
C504 C -0.01772 0.60068 0.57694 0.0
O505 O 0.88783 0.44817 0.53127 0.0
C506 C 0.10947 0.544 0.57691 0.0
O507 O 0.07024 0.45038 0.44469 0.0
C508 C 0.89142 0.60842 0.51045 0.0
O509 O 0.93631 0.60195 0.41648 0.0
O510 O -0.01421 0.57981 0.42449 0.0
C511 C 0.88306 0.5271 0.61599 0.0
O512 O 0.01366 0.60476 0.57435 0.0
O513 O -0.03098 0.57503 0.56449 0.0
C514 C 0.05851 0.61139 0.48518 0.0
O515 O 0.89523 0.60497 0.54182 0.0
O516 O 0.90549 0.58695 0.49171 0.0
C517 C 0.07751 0.54158 0.37296 0.0
O518 O 0.05531 0.61107 0.45357 0.0
O519 O 0.04777 0.58672 0.50166 0.0
C520 C 0.02011 0.43321 0.5697 0.0
O521 O 0.00032 0.44351 0.54549 0.0
C522 C -0.02485 0.43499 0.41858 0.0
O523 O -0.01194 0.43351 0.44882 0.0
Zn524 Zn 0.43195 0.97358 0.43258 0.0
Zn525 Zn 0.41303 0.05055 0.44927 0.0
O526 O 0.45051 0.01788 0.44495 0.0
H527 H 0.47286 0.02016 0.45361 0.0
C528 C 0.39166 0.93373 0.51034 0.0
O529 O 0.38004 0.96432 0.51037 0.0
Zn530 Zn 0.5588 0.06831 0.5577 0.0
Zn531 Zn 0.58071 0.9922 0.56804 0.0
O532 O 0.54079 0.02249 0.55929 0.0
H533 H 0.51876 0.01572 0.55236 0.0
Zn534 Zn 0.44256 0.96559 0.55094 0.0
O535 O 0.45156 0.01119 0.53055 0.0
Zn536 Zn 0.44183 0.04558 0.56592 0.0
H537 H 0.46692 0.01465 0.51231 0.0
Zn538 Zn 0.53546 0.9929 0.43086 0.0
O539 O 0.53437 0.02935 0.46638 0.0
H540 H 0.52876 0.02588 0.48961 0.0
Zn541 Zn 0.52702 0.07116 0.43972 0.0
C542 C 0.56702 0.93371 0.46739 0.0
O543 O 0.55404 0.94523 0.49532 0.0
O544 O 0.38489 0.97958 0.41277 0.0
O545 O 0.37185 0.03187 0.42579 0.0
O546 O 0.6192 0.01726 0.59147 0.0
O547 O 0.60488 0.06938 0.57963 0.0
O548 O 0.4216 0.96878 0.5976 0.0
O549 O 0.42164 0.02313 0.60667 0.0
C550 C 0.45642 0.09878 0.42239 0.0
O551 O 0.55018 0.01126 0.38531 0.0
O552 O 0.54737 0.06551 0.39399 0.0
O553 O 0.56979 0.9455 0.58662 0.0
C554 C 0.36475 0.00428 0.41179 0.0
O555 O 0.46481 0.94635 0.40351 0.0
C556 C 0.4987 0.09458 0.5898 0.0
O557 O 0.4199 0.92789 0.52383 0.0
C558 C 0.62485 0.04829 0.59307 0.0
O559 O 0.56162 0.94916 0.44018 0.0
C560 C 0.40034 0.08094 0.51808 0.0
O561 O 0.42552 0.09284 0.42566 0.0
O562 O 0.47727 0.07968 0.43701 0.0
C563 C 0.41464 0.99373 0.61582 0.0
O564 O 0.5299 0.09847 0.58569 0.0
O565 O 0.48531 0.06954 0.57577 0.0
C566 C 0.56227 0.10773 0.49108 0.0
O567 O 0.40905 0.07985 0.54857 0.0
O568 O 0.41059 0.05809 0.49871 0.0
C569 C 0.55495 0.04083 0.37548 0.0
O570 O 0.55183 0.10862 0.46105 0.0
O571 O 0.55415 0.08332 0.50942 0.0
C572 C 0.54119 0.9325 0.58294 0.0
O573 O 0.51834 0.9484 0.56537 0.0
C574 C 0.48519 0.92392 0.41314 0.0
O575 O 0.48586 0.9151 0.44479 0.0
C576 C 0.1007 0.18153 0.51673 0.0
C577 C 0.13185 0.17238 0.53051 0.0
C578 C 0.07749 0.15744 0.50747 0.0
C579 C 0.08433 0.12359 0.51245 0.0
H580 H 0.09522 0.20719 0.51064 0.0
H581 H 0.05479 0.16522 0.49473 0.0
S582 S 0.16024 0.08689 0.55116 0.0
N583 N 0.16674 0.12725 0.55181 0.0
N584 N 0.12307 0.08211 0.53389 0.0
C585 C 0.11412 0.11423 0.52846 0.0
C586 C 0.1379 0.13866 0.53772 0.0
C587 C 0.83081 0.15016 0.45689 0.0
C588 C 0.83076 0.18279 0.46941 0.0
C589 C 0.85339 0.12623 0.46898 0.0
C590 C 0.87657 0.13401 0.49408 0.0
H591 H 0.81236 0.14267 0.43858 0.0
H592 H 0.85099 0.10097 0.46042 0.0
S593 S 0.8883 0.21615 0.53384 0.0
N594 N 0.8573 0.22204 0.50708 0.0
N595 N 0.89955 0.17685 0.52984 0.0
C596 C 0.87786 0.16683 0.50575 0.0
C597 C 0.85509 0.19132 0.49328 0.0
C598 C 0.82302 0.88098 0.45998 0.0
C599 C 0.81616 0.8606 0.4877 0.0
C600 C 0.83978 0.91112 0.46391 0.0
C601 C 0.85031 0.92188 0.49569 0.0
H602 H 0.81387 0.87451 0.43531 0.0
H603 H 0.84304 0.92676 0.44213 0.0
S604 S 0.84426 0.87443 0.57514 0.0
N605 N 0.82525 0.8511 0.54716 0.0
N606 N 0.85692 0.90748 0.55456 0.0
C607 C 0.84587 0.90048 0.52316 0.0
C608 C 0.82874 0.86992 0.51916 0.0
C609 C 0.11109 0.86244 0.47007 0.0
C610 C 0.12442 0.85759 0.50232 0.0
C611 C 0.08859 0.88839 0.46338 0.0
C612 C 0.07888 0.91094 0.48856 0.0
H613 H 0.1186 0.84642 0.44958 0.0
H614 H 0.07975 0.89143 0.43791 0.0
S615 S 0.10513 0.90788 0.57779 0.0
N616 N 0.12484 0.87621 0.56022 0.0
N617 N 0.0831 0.92552 0.54756 0.0
C618 C 0.09108 0.90563 0.52125 0.0
C619 C 0.11367 0.87882 0.52816 0.0
C620 C 0.46436 0.21022 0.13127 0.0
C621 C 0.45235 0.20007 0.16267 0.0
C622 C 0.47509 0.18699 0.10738 0.0
C623 C 0.47385 0.15266 0.11375 0.0
H624 H 0.4669 0.23633 0.12558 0.0
H625 H 0.48527 0.19611 0.08405 0.0
S626 S 0.44074 0.11323 0.1907 0.0
N627 N 0.43715 0.15339 0.19783 0.0
N628 N 0.45693 0.10972 0.15286 0.0
C629 C 0.46001 0.14216 0.1443 0.0
C630 C 0.44942 0.16585 0.16877 0.0
C631 C 0.82671 0.5008 0.18959 0.0
C632 C 0.80549 0.52857 0.19348 0.0
C633 C 0.85435 0.5016 0.1682 0.0
C634 C 0.86213 0.53025 0.14977 0.0
H635 H 0.82125 0.47765 0.20209 0.0
H636 H 0.86891 0.47901 0.1651 0.0
S637 S 0.81759 0.6114 0.15488 0.0
N638 N 0.7964 0.58686 0.18 0.0
N639 N 0.84842 0.58839 0.13977 0.0
C640 C 0.84261 0.55902 0.15528 0.0
C641 C 0.81426 0.55816 0.17706 0.0
C642 C 0.50534 0.84947 0.13346 0.0
C643 C 0.52743 0.85958 0.15887 0.0
C644 C 0.49041 0.87241 0.11165 0.0
C645 C 0.49699 0.90655 0.11406 0.0
H646 H 0.49899 0.82358 0.13061 0.0
H647 H 0.47338 0.86318 0.0928 0.0
S648 S 0.55367 0.94619 0.17558 0.0
N649 N 0.55567 0.90632 0.18472 0.0
N650 N 0.52771 0.94937 0.14355 0.0
C651 C 0.51951 0.91707 0.13891 0.0
C652 C 0.53466 0.89366 0.16132 0.0
C653 C 0.18557 0.51643 0.13077 0.0
C654 C 0.18918 0.54625 0.14863 0.0
C655 C 0.16048 0.51286 0.10657 0.0
C656 C 0.1379 0.53892 0.09939 0.0
H657 H 0.20179 0.49539 0.13598 0.0
H658 H 0.15817 0.4891 0.09419 0.0
S659 S 0.13764 0.62271 0.13829 0.0
N660 N 0.16896 0.60283 0.15651 0.0
N661 N 0.12174 0.59616 0.11139 0.0
C662 C 0.14209 0.56934 0.11621 0.0
C663 C 0.16772 0.57299 0.14073 0.0
C664 C 0.46188 0.89269 0.8295 0.0
C665 C 0.48928 0.87055 0.83084 0.0
C666 C 0.45582 0.9155 0.85524 0.0
C667 C 0.47693 0.91724 0.88334 0.0
H668 H 0.44456 0.8921 0.80865 0.0
H669 H 0.43389 0.93142 0.8535 0.0
S670 S 0.55126 0.86414 0.89978 0.0
N671 N 0.53771 0.85179 0.86283 0.0
N672 N 0.52567 0.89435 0.91151 0.0
C673 C 0.50474 0.89579 0.88481 0.0
C674 C 0.51106 0.87252 0.85848 0.0
C675 C 0.13618 0.58649 0.82017 0.0
C676 C 0.15136 0.56112 0.80111 0.0
C677 C 0.10879 0.58008 0.8409 0.0
C678 C 0.09558 0.54799 0.84358 0.0
H679 H 0.14644 0.61123 0.82038 0.0
H680 H 0.09931 0.60005 0.85648 0.0
S681 S 0.12154 0.47448 0.79374 0.0
N682 N 0.14769 0.50379 0.78236 0.0
N683 N 0.09636 0.49178 0.82157 0.0
C684 C 0.10861 0.52307 0.82253 0.0
C685 C 0.13646 0.52962 0.80126 0.0
C686 C 0.43533 0.17484 0.8765 0.0
C687 C 0.45106 0.17515 0.84486 0.0
C688 C 0.44679 0.15387 0.90233 0.0
C689 C 0.47448 0.1328 0.89739 0.0
H690 H 0.41469 0.19163 0.88176 0.0
H691 H 0.43511 0.15552 0.92672 0.0
S692 S 0.52235 0.12106 0.81875 0.0
N693 N 0.49422 0.14991 0.80968 0.0
N694 N 0.51554 0.11113 0.85819 0.0
C695 C 0.48929 0.13156 0.86557 0.0
C696 C 0.47764 0.15256 0.8393 0.0
C697 C 0.78252 0.53292 0.8671 0.0
C698 C 0.78209 0.50927 0.84114 0.0
C699 C 0.80786 0.53268 0.89141 0.0
C700 C 0.83356 0.50866 0.89076 0.0
H701 H 0.76351 0.5522 0.86831 0.0
H702 H 0.80777 0.55193 0.91034 0.0
S703 S 0.84437 0.44176 0.82739 0.0
N704 N 0.80979 0.46139 0.81609 0.0
N705 N 0.85718 0.46074 0.86158 0.0
C706 C 0.83294 0.48436 0.86533 0.0
C707 C 0.80727 0.48472 0.84058 0.0
C708 C 0.63581 0.6899 0.95854 0.0
C709 C 0.65204 0.70228 -0.01292 0.0
C710 C 0.60876 0.66848 0.9613 0.0
C711 C 0.59669 0.65837 -0.00728 0.0
H712 H 0.64456 0.69601 0.93366 0.0
H713 H 0.59806 0.65886 0.93844 0.0
S714 S 0.62794 0.68673 0.07547 0.0
N715 N 0.65227 0.7052 0.04801 0.0
N716 N 0.60134 0.66478 0.05321 0.0
C717 C 0.61148 0.672 0.02159 0.0
C718 C 0.63916 0.69395 0.01877 0.0
C719 C 0.29642 0.69154 0.03627 0.0
C720 C 0.28048 0.70506 0.00784 0.0
C721 C 0.32224 0.66791 0.03325 0.0
C722 C 0.33319 0.65675 0.00167 0.0
H723 H 0.28909 0.69941 0.06115 0.0
H724 H 0.33425 0.65904 0.0559 0.0
S725 S 0.29931 0.68397 0.91923 0.0
N726 N 0.2774 0.70527 0.94697 0.0
N727 N 0.32537 0.6607 0.94127 0.0
C728 C 0.31702 0.66967 0.97302 0.0
C729 C 0.29084 0.69381 0.9761 0.0
C730 C 0.31095 0.36833 0.98182 0.0
C731 C 0.30533 0.35045 0.01147 0.0
C732 C 0.3378 0.39 0.97895 0.0
C733 C 0.3603 0.3949 0.0056 0.0
H734 H 0.29418 0.36607 0.96065 0.0
H735 H 0.34023 0.40376 0.95582 0.0
S736 S 0.35843 0.35183 0.0877 0.0
N737 N 0.32571 0.33744 0.06741 0.0
N738 N 0.37626 0.37842 0.06204 0.0
C739 C 0.35559 0.37648 0.03512 0.0
C740 C 0.32815 0.35423 0.03803 0.0
C741 C 0.6789 0.37864 0.95714 0.0
C742 C 0.68818 0.35869 0.98459 0.0
C743 C 0.65306 0.40215 0.95967 0.0
C744 C 0.63536 0.40684 -0.01023 0.0
H745 H 0.6912 0.37568 0.93316 0.0
H746 H 0.64636 0.41619 0.93748 0.0
S747 S 0.65096 0.36252 0.06979 0.0
N748 N 0.67865 0.34655 0.04358 0.0
N749 N 0.62979 0.39053 0.04809 0.0
C750 C 0.64517 0.38807 0.01785 0.0
C751 C 0.67157 0.36403 0.0153 0.0
C752 C 0.93214 0.63952 0.6463 0.0
C753 C 0.93488 0.6736 0.63939 0.0
C754 C 0.94532 0.61568 0.62437 0.0
C755 C -0.03787 0.62525 0.59519 0.0
H756 H 0.92121 0.63127 0.66964 0.0
H757 H 0.94455 0.5898 0.63153 0.0
S758 S -0.02669 0.71078 0.56388 0.0
N759 N 0.95301 0.71544 0.59961 0.0
N760 N -0.02138 0.67041 0.5589 0.0
C761 C -0.03664 0.65898 0.58693 0.0
C762 C 0.94937 0.68327 0.60889 0.0
C763 C 0.36917 0.01374 0.69611 0.0
C764 C 0.34345 0.99021 0.69646 0.0
C765 C 0.39371 0.01326 0.6712 0.0
C766 C 0.39336 0.98934 0.64564 0.0
H767 H 0.36973 0.03342 0.71457 0.0
H768 H 0.41237 0.03252 0.67124 0.0
S769 S 0.33256 0.92101 0.63632 0.0
N770 N 0.32022 0.94113 0.67018 0.0
N771 N 0.36623 0.94036 0.62317 0.0
C772 C 0.36895 0.96447 0.64679 0.0
C773 C 0.34397 0.96491 0.67224 0.0
C774 C 0.02773 0.36522 0.63494 0.0
C775 C -0.00403 0.35052 0.6347 0.0
C776 C 0.03548 0.39121 0.61318 0.0
C777 C 0.01189 0.40361 0.59006 0.0
H778 H 0.04662 0.35734 0.65277 0.0
H779 H 0.06006 0.40207 0.61504 0.0
S780 S 0.92596 0.37203 0.57713 0.0
N781 N 0.94135 0.34897 0.60774 0.0
N782 N 0.95599 0.39783 0.56681 0.0
C783 C -0.01951 0.38824 0.58846 0.0
C784 C -0.02748 0.36175 0.61077 0.0
C785 C 0.68194 0.05072 0.66882 0.0
C786 C 0.68548 0.08497 0.674 0.0
C787 C 0.66497 0.03864 0.64059 0.0
C788 C 0.651 0.06041 0.61655 0.0
H789 H 0.68979 0.03328 0.68796 0.0
H790 H 0.66059 0.01223 0.63909 0.0
S791 S 0.66127 0.15179 0.6147 0.0
N792 N 0.67925 0.14002 0.65005 0.0
N793 N 0.64776 0.11749 0.59693 0.0
C794 C 0.65792 0.09443 0.61967 0.0
C795 C 0.67498 0.10667 0.64846 0.0
C796 C 0.01787 0.36185 0.37543 0.0
C797 C 0.00351 0.36221 0.34322 0.0
C798 C 0.00931 0.38596 0.39938 0.0
C799 C -0.01389 0.41144 0.39204 0.0
H800 H 0.03526 0.34232 0.38256 0.0
H801 H 0.02047 0.38412 0.42404 0.0
S802 S 0.94406 0.42562 0.31009 0.0
N803 N -0.03316 0.39177 0.30445 0.0
N804 N 0.95085 0.43692 0.34917 0.0
C805 C -0.02739 0.41285 0.35943 0.0
C806 C -0.01875 0.38829 0.33514 0.0
C807 C 0.60756 0.08543 0.31154 0.0
C808 C 0.62431 0.05925 0.29518 0.0
C809 C 0.58321 0.07926 0.33578 0.0
C810 C 0.57453 0.04665 0.34457 0.0
H811 H 0.61448 0.11092 0.30696 0.0
H812 H 0.57242 0.10029 0.34891 0.0
S813 S 0.60653 0.96944 0.30453 0.0
N814 N 0.62721 0.99953 0.28609 0.0
N815 N 0.58133 0.98794 0.33152 0.0
C816 C 0.58891 0.02031 0.32622 0.0
C817 C 0.61385 0.0266 0.3016 0.0
C818 C 0.01423 0.64746 0.34359 0.0
C819 C 0.00212 0.68024 0.34668 0.0
C820 C 0.00447 0.62268 0.36602 0.0
C821 C -0.01795 0.62976 0.39207 0.0
H822 H 0.03064 0.64064 0.32309 0.0
H823 H 0.01287 0.59747 0.36167 0.0
S824 S 0.9442 0.71162 0.41222 0.0
N825 N -0.03235 0.71864 0.379 0.0
N826 N 0.94897 0.6718 0.42079 0.0
C827 C -0.02941 0.66254 0.39619 0.0
C828 C -0.01917 0.6879 0.37366 0.0
C829 C 0.30331 0.96857 0.34951 0.0
C830 C 0.28883 0.997 0.33491 0.0
C831 C 0.32625 0.97109 0.37589 0.0
C832 C 0.33542 1.00213 0.38905 0.0
H833 H 0.29799 0.94417 0.33964 0.0
H834 H 0.33786 0.94849 0.38513 0.0
S835 S 0.30133 0.08401 0.36235 0.0
N836 N 0.28274 0.05705 0.33766 0.0
N837 N 0.32594 0.06183 0.38705 0.0
C838 C 0.3195 0.03066 0.37603 0.0
C839 C 0.29627 0.02809 0.34899 0.0
C840 C 0.03026 0.16041 0.36722 0.0
C841 C 0.011 0.18868 0.35905 0.0
C842 C 0.0177 0.13583 0.38866 0.0
C843 C -0.01441 0.13882 0.40279 0.0
H844 H 0.05471 0.15671 0.35611 0.0
H845 H 0.0328 0.11401 0.39328 0.0
S846 S 0.92808 0.21139 0.39418 0.0
N847 N 0.96016 0.22028 0.36998 0.0
N848 N 0.93683 0.17476 0.41053 0.0
C849 C -0.03285 0.16817 0.3965 0.0
C850 C -0.02025 0.19287 0.37451 0.0
C851 C 0.80404 0.08382 0.34228 0.0
C852 C 0.78857 0.05785 0.32484 0.0
C853 C 0.82801 0.07738 0.36711 0.0
C854 C 0.83785 0.0447 0.37516 0.0
H855 H 0.79738 0.10939 0.33696 0.0
H856 H 0.83941 0.09831 0.37952 0.0
S857 S 0.80472 0.96781 0.33684 0.0
N858 N 0.78451 0.99815 0.31753 0.0
N859 N 0.82977 0.986 0.36391 0.0
C860 C 0.82241 0.01846 0.35802 0.0
C861 C 0.79775 0.02504 0.33295 0.0
C862 C 0.00109 0.8733 0.36545 0.0
C863 C 0.00672 0.87238 0.33079 0.0
C864 C -0.01065 0.90229 0.38102 0.0
C865 C -0.0165 0.93154 0.36254 0.0
H866 H 0.00442 0.85107 0.38039 0.0
H867 H -0.01584 0.90155 0.40763 0.0
S868 S -0.00088 0.94266 0.27159 0.0
N869 N 0.00842 0.9033 0.27878 0.0
N870 N -0.01245 0.95834 0.30803 0.0
C871 C -0.00885 0.93134 0.32811 0.0
C872 C 0.00236 0.90156 0.3122 0.0
C873 C 0.10423 0.99378 0.30207 0.0
C874 C 0.1277 0.01865 0.29539 0.0
C875 C 0.07927 0.99843 0.32619 0.0
C876 C 0.07673 0.02815 0.34462 0.0
H877 H 0.10643 0.96965 0.29032 0.0
H878 H 0.06323 0.97769 0.33184 0.0
S879 S 0.12677 0.10393 0.33055 0.0
N880 N 0.14288 0.07625 0.30456 0.0
N881 N 0.096 0.08499 0.34998 0.0
C882 C 0.09754 0.05456 0.33538 0.0
C883 C 0.12304 0.04979 0.31077 0.0
C884 C 0.93674 0.88703 0.6525 0.0
C885 C 0.95291 0.85603 0.65031 0.0
C886 C 0.94964 0.91486 0.63617 0.0
C887 C -0.02114 0.91257 0.6166 0.0
H888 H 0.91444 0.88999 0.66763 0.0
H889 H 0.93675 0.93841 0.6393 0.0
S890 S 0.02794 0.83562 0.5996 0.0
N891 N -0.00202 0.82381 0.62521 0.0
N892 N 0.02192 0.87576 0.59385 0.0
C893 C -0.00561 0.88123 0.6131 0.0
C894 C -0.01848 0.85306 0.63016 0.0
C895 C 0.17773 0.99817 0.64354 0.0
C896 C 0.18348 0.02518 0.66502 0.0
C897 C 0.15114 0.99851 0.62072 0.0
C898 C 0.12958 0.02613 0.61796 0.0
H899 H 0.19346 0.97618 0.64482 0.0
H900 H 0.14728 0.97677 0.6053 0.0
S901 S 0.13476 0.10399 0.66721 0.0
N902 N 0.166 0.08083 0.68136 0.0
N903 N 0.11629 0.0817 0.63801 0.0
C904 C 0.1356 0.05377 0.63856 0.0
C905 C 0.16241 0.05321 0.66225 0.0
C906 C 0.93873 0.17255 0.624 0.0
C907 C 0.9558 0.17965 0.65405 0.0
C908 C 0.94828 0.14554 0.60381 0.0
C909 C -0.02493 0.12475 0.61306 0.0
H910 H 0.91899 0.18891 0.61511 0.0
H911 H 0.93604 0.14217 0.57996 0.0
S912 S 0.02432 0.12917 0.69163 0.0
N913 N -0.00176 0.1611 0.69376 0.0
N914 N 0.01601 0.11057 0.65581 0.0
C915 C -0.00915 0.13026 0.64398 0.0
C916 C -0.01877 0.15763 0.6645 0.0
C917 C 0.80907 0.02084 0.68083 0.0
C918 C 0.82867 0.02036 0.71007 0.0
C919 C 0.82268 0.03043 0.65012 0.0
C920 C 0.85639 0.03984 0.64737 0.0
H921 H 0.78362 0.01204 0.68118 0.0
H922 H 0.8069 0.02922 0.62809 0.0
S923 S 0.91755 0.04434 0.7171 0.0
N924 N 0.88284 0.03122 0.73487 0.0
N925 N 0.90853 0.04959 0.67707 0.0
C926 C 0.87582 0.04084 0.67672 0.0
C927 C 0.86195 0.03079 0.70801 0.0
C928 C 0.30094 1.00039 0.1232 0.0
C929 C 0.30908 0.01 0.15596 0.0
C930 C 0.32385 0.00452 0.09695 0.0
C931 C 0.35563 0.01822 0.10279 0.0
H932 H 0.2761 0.99155 0.11749 0.0
H933 H 0.31583 0.99867 0.07174 0.0
S934 S 0.39105 0.03964 0.18591 0.0
N935 N 0.35222 0.02873 0.19393 0.0
N936 N 0.39575 0.03575 0.14502 0.0
C937 C 0.36496 0.02483 0.13612 0.0
C938 C 0.34149 0.02101 0.16262 0.0
C939 C -0.00755 0.36157 0.14215 0.0
C940 C 0.02267 0.34672 0.1528 0.0
C941 C -0.008 0.38626 0.11737 0.0
C942 C 0.02173 0.39697 0.10215 0.0
H943 H -0.03089 0.35547 0.15427 0.0
H944 H -0.03168 0.39804 0.11124 0.0
S945 S 0.10679 0.36194 0.1172 0.0
N946 N 0.08249 0.34151 0.1432 0.0
N947 N 0.08181 0.3878 0.09687 0.0
C948 C 0.05177 0.38041 0.11073 0.0
C949 C 0.05219 0.35535 0.13599 0.0
C950 C 0.63281 0.01338 0.14126 0.0
C951 C 0.66077 0.03349 0.13631 0.0
C952 C 0.61057 0.00694 0.11512 0.0
C953 C 0.61587 0.01976 0.08279 0.0
H954 H 0.62805 1.00256 0.16562 0.0
H955 H 0.5896 0.99095 0.12018 0.0
S956 S 0.68629 0.0734 0.05709 0.0
N957 N 0.69276 0.06656 0.09736 0.0
N958 N 0.65154 0.05375 0.04752 0.0
C959 C 0.64372 0.0403 0.07766 0.0
C960 C 0.66604 0.04736 0.10462 0.0
C961 C -0.01341 0.6774 0.13171 0.0
C962 C -0.02847 0.66804 0.16203 0.0
C963 C -0.01089 0.65516 0.10486 0.0
C964 C -0.02333 0.62275 0.10729 0.0
H965 H -0.00168 0.70137 0.12936 0.0
H966 H 0.00298 0.6626 0.08286 0.0
S967 S 0.93297 0.58662 0.1801 0.0
N968 N 0.94127 0.62494 0.19168 0.0
N969 N 0.94765 0.58287 0.14167 0.0
C970 C 0.95952 0.61384 0.13644 0.0
C971 C 0.95651 0.6366 0.16371 0.0
C972 C 0.35916 0.01095 0.84198 0.0
C973 C 0.32902 0.99616 0.85165 0.0
C974 C 0.38348 0.01913 0.86575 0.0
C975 C 0.37838 0.01288 0.89995 0.0
H976 H 0.36366 0.01685 0.81591 0.0
H977 H 0.40588 0.03158 0.8575 0.0
S978 S 0.30214 0.97792 0.93823 0.0
N979 N 0.2948 0.97665 0.89754 0.0
N980 N 0.33997 0.99344 0.94248 0.0
C981 C 0.34843 0.99794 0.9099 0.0
C982 C 0.32384 0.98917 0.88562 0.0
C983 C 0.00214 0.3603 0.83739 0.0
C984 C -0.00862 0.37129 0.80567 0.0
C985 C -0.00109 0.38063 0.8658 0.0
C986 C -0.01586 0.4124 0.86364 0.0
H987 H 0.01313 0.33581 0.84031 0.0
H988 H 0.00714 0.37093 0.88975 0.0
S989 S 0.95285 0.45325 0.78618 0.0
N990 N -0.03363 0.41651 0.77365 0.0
N991 N 0.9599 0.45435 0.82686 0.0
C992 C -0.02608 0.42389 0.83192 0.0
C993 C -0.0224 0.40343 0.80301 0.0
C994 C 0.60816 0.09947 0.86895 0.0
C995 C 0.62282 0.08355 0.84128 0.0
C996 C 0.588 0.08203 0.89148 0.0
C997 C 0.58071 0.04829 0.88673 0.0
H998 H 0.61325 0.12534 0.87393 0.0
H999 H 0.57873 0.09513 0.91301 0.0
S1000 S 0.6117 0.99584 0.81632 0.0
N1001 N 0.62824 0.03253 0.80947 0.0
N1002 N 0.58937 0.99997 0.85081 0.0
C1003 C 0.59458 0.03239 0.85833 0.0
C1004 C 0.6158 0.04997 0.83588 0.0
C1005 C -0.03918 0.67569 0.85658 0.0
C1006 C -0.02433 0.66445 0.82665 0.0
C1007 C 0.95861 0.65495 0.88464 0.0
C1008 C -0.02861 0.62238 0.88387 0.0
H1009 H 0.94933 0.70009 0.85783 0.0
H1010 H 0.94524 0.66385 0.90652 0.0
S1011 S 0.01277 0.58085 0.81212 0.0
N1012 N 0.00458 0.61876 0.79865 0.0
N1013 N -0.00092 0.57971 0.85106 0.0
C1014 C -0.01238 0.61131 0.85482 0.0
C1015 C -0.00984 0.63243 0.82628 0.0
C1016 C 0.15435 0.40126 0.00114 0.0
C1017 C 0.14614 0.37113 0.01666 0.0
C1018 C 0.12978 0.42179 -0.01292 0.0
C1019 C 0.09579 0.41341 -0.01168 0.0
H1020 H 0.18015 0.40892 -0.00083 0.0
H1021 H 0.13763 0.44453 0.97512 0.0
S1022 S 0.06062 0.33798 0.02744 0.0
N1023 N 0.1014 0.33415 0.03313 0.0
N1024 N 0.05489 0.37338 0.00733 0.0
C1025 C 0.08696 0.38377 0.00451 0.0
C1026 C 0.1122 0.36244 0.01842 0.0
C1027 C 0.08714 0.68906 0.00728 0.0
C1028 C 0.11978 0.68235 0.01884 0.0
C1029 C 0.0652 0.66328 -0.0005 0.0
C1030 C 0.07504 0.62995 0.00323 0.0
H1031 H 0.07904 0.71435 0.00261 0.0
H1032 H 0.04101 0.66941 -0.01121 0.0
S1033 S 0.15762 0.59885 0.03192 0.0
N1034 N 0.16035 0.63957 0.03444 0.0
N1035 N 0.11939 0.59147 0.01844 0.0
C1036 C 0.10694 0.62283 0.01599 0.0
C1037 C 0.12923 0.64899 0.02426 0.0
C1038 C 0.31478 0.18792 0.96585 0.0
C1039 C 0.30169 0.20295 -0.00511 0.0
C1040 C 0.34242 0.16635 0.96741 0.0
C1041 C 0.35809 0.15883 -0.0019 0.0
H1042 H 0.30339 0.19251 0.94165 0.0
H1043 H 0.35088 0.15474 0.94442 0.0
S1044 S 0.33579 0.19427 0.08107 0.0
N1045 N 0.30811 0.21061 0.05503 0.0
N1046 N 0.35998 0.17009 0.05794 0.0
C1047 C 0.346 0.17457 0.02721 0.0
C1048 C 0.31782 0.19655 0.02562 0.0
C1049 C 0.85579 0.35894 0.01134 0.0
C1050 C 0.86653 0.34407 0.98131 0.0
C1051 C 0.87476 0.38335 0.02709 0.0
C1052 C 0.9054 0.39384 0.01362 0.0
H1053 H 0.83169 0.35301 0.02199 0.0
H1054 H 0.86452 0.39496 0.04933 0.0
S1055 S 0.94758 0.35784 0.93903 0.0
N1056 N 0.91164 0.33825 0.94106 0.0
N1057 N 0.94775 0.38391 0.97092 0.0
C1058 C 0.91767 0.3773 0.98501 0.0
C1059 C 0.89811 0.35252 0.96879 0.0
C1060 C 0.64938 0.85387 -0.00953 0.0
C1061 C 0.66584 0.85108 0.95946 0.0
C1062 C 0.62247 0.87594 -0.00513 0.0
C1063 C 0.61098 0.89616 0.96847 0.0
H1064 H 0.65685 0.83841 0.01141 0.0
H1065 H 0.61049 0.87698 0.01917 0.0
S1066 S 0.64748 0.90045 0.8831 0.0
N1067 N 0.66984 0.87159 0.90238 0.0
N1068 N 0.61971 0.91353 0.91076 0.0
C1069 C 0.62772 0.89416 0.93751 0.0
C1070 C 0.65503 0.87153 0.93299 0.0
C1071 C 0.8279 0.65175 0.97658 0.0
C1072 C 0.84167 0.68372 0.97873 0.0
C1073 C 0.84753 0.62331 0.98212 0.0
C1074 C 0.88149 0.62594 -0.0098 0.0
H1075 H 0.80134 0.64871 0.97242 0.0
H1076 H 0.83549 0.59937 0.98278 0.0
S1077 S 0.93084 0.70294 -0.00565 0.0
N1078 N 0.89247 0.71578 0.98551 0.0
N1079 N 0.92906 0.66211 -0.00325 0.0
C1080 C 0.8962 0.65734 -0.01018 0.0
C1081 C 0.87636 0.68635 0.98375 0.0
C1082 C 0.28836 0.89309 0.04473 0.0
C1083 C 0.27536 0.87373 0.01857 0.0
C1084 C 0.31547 0.91413 0.03954 0.0
C1085 C 0.33088 0.91666 0.00798 0.0
H1086 H 0.27842 0.89106 0.06986 0.0
H1087 H 0.32527 0.9275 0.06088 0.0
S1088 S 0.30404 0.87416 0.93013 0.0
N1089 N 0.27788 0.86096 0.95903 0.0
N1090 N 0.32933 0.9 0.94944 0.0
C1091 C 0.31677 0.89915 0.98103 0.0
C1092 C 0.28891 0.87781 0.98629 0.0
C1093 C 0.6778 0.17113 0.97065 0.0
C1094 C 0.69153 0.18346 0.00063 0.0
C1095 C 0.65045 0.14958 0.97092 0.0
C1096 C 0.63552 0.13979 0.00119 0.0
H1097 H 0.68744 0.1791 0.94666 0.0
H1098 H 0.63995 0.14193 0.94716 0.0
S1099 S 0.66456 0.16173 0.0868 0.0
N1100 N 0.69017 0.18144 0.06153 0.0
N1101 N 0.63861 0.14169 0.0621 0.0
C1102 C 0.65026 0.15043 0.03139 0.0
C1103 C 0.67828 0.17202 0.0311 0.0
C1104 C 0.46961 0.69412 0.83391 0.0
C1105 C 0.50348 0.69981 0.82671 0.0
C1106 C 0.46015 0.67213 0.85919 0.0
C1107 C 0.48412 0.65477 0.87841 0.0
H1108 H 0.45009 0.70761 0.82073 0.0
H1109 H 0.43372 0.66957 0.86428 0.0
S1110 S 0.5761 0.65712 0.86633 0.0
N1111 N 0.56109 0.68372 0.83859 0.0
N1112 N 0.54329 0.64222 0.88609 0.0
C1113 C 0.51808 0.65876 0.87025 0.0
C1114 C 0.52775 0.6813 0.84444 0.0
C1115 C 0.34265 0.52082 0.83115 0.0
C1116 C 0.33365 0.55431 0.82626 0.0
C1117 C 0.36446 0.5112 0.85691 0.0
C1118 C 0.37809 0.53461 0.87909 0.0
H1119 H 0.33188 0.50161 0.8157 0.0
H1120 H 0.36954 0.48496 0.86018 0.0
S1121 S 0.36622 0.62591 0.87431 0.0
N1122 N 0.34299 0.61133 0.84361 0.0
N1123 N 0.38359 0.59316 0.89229 0.0
C1124 C 0.37092 0.56837 0.87326 0.0
C1125 C 0.34886 0.57823 0.8468 0.0
C1126 C 0.48073 0.36016 0.84148 0.0
C1127 C 0.44612 0.35425 0.84063 0.0
C1128 C 0.49437 0.3837 0.86326 0.0
C1129 C 0.47398 0.40227 0.8852 0.0
H1130 H 0.49769 0.34574 0.82602 0.0
H1131 H 0.52127 0.38642 0.86368 0.0
S1132 S 0.38134 0.39973 0.88948 0.0
N1133 N 0.39139 0.37143 0.86129 0.0
N1134 N 0.41704 0.41558 0.90217 0.0
C1135 C 0.43917 0.39795 0.8833 0.0
C1136 C 0.42524 0.374 0.86105 0.0
C1137 C 0.6347 0.4752 0.875 0.0
C1138 C 0.63047 0.4856 0.8416 0.0
C1139 C 0.61385 0.48706 0.9005 0.0
C1140 C 0.58764 0.50959 0.8937 0.0
H1141 H 0.65531 0.45897 0.88196 0.0
H1142 H 0.61943 0.47961 0.92595 0.0
S1143 S 0.56264 0.54062 0.80965 0.0
N1144 N 0.5958 0.51698 0.80251 0.0
N1145 N 0.55627 0.53901 0.85045 0.0
C1146 C 0.58162 0.51841 0.86008 0.0
C1147 C 0.60307 0.50647 0.83405 0.0
C1148 C 0.43702 0.39359 0.12709 0.0
C1149 C 0.4571 0.3858 0.15506 0.0
C1150 C 0.44883 0.41379 0.10112 0.0
C1151 C 0.48108 0.42706 0.10229 0.0
H1152 H 0.41264 0.38266 0.12443 0.0
H1153 H 0.43338 0.41744 0.07926 0.0
S1154 S 0.54064 0.42067 0.17348 0.0
N1155 N 0.50881 0.39747 0.18474 0.0
N1156 N 0.53078 0.43566 0.13628 0.0
C1157 C 0.5002 0.42199 0.13153 0.0
C1158 C 0.48828 0.40134 0.15784 0.0
C1159 C 0.59791 0.51499 0.15879 0.0
C1160 C 0.62909 0.49967 0.15278 0.0
C1161 C 0.57509 0.52054 0.13271 0.0
C1162 C 0.58248 0.51086 0.09968 0.0
H1163 H 0.59193 0.52473 0.18337 0.0
H1164 H 0.55249 0.53463 0.138 0.0
S1165 S 0.65887 0.46673 0.07109 0.0
N1166 N 0.66449 0.47167 0.11173 0.0
N1167 N 0.62183 0.48318 0.06276 0.0
C1168 C 0.61215 0.49302 0.0938 0.0
C1169 C 0.63541 0.48713 0.12039 0.0
C1170 C 0.53643 0.6651 0.12346 0.0
C1171 C 0.51961 0.6729 0.15348 0.0
C1172 C 0.52223 0.64396 0.09954 0.0
C1173 C 0.49068 0.62995 0.10471 0.0
H1174 H 0.55998 0.67669 0.11753 0.0
H1175 H 0.53509 0.64027 0.07608 0.0
S1176 S 0.43907 0.63733 0.18153 0.0
N1177 N 0.47162 0.66111 0.18884 0.0
N1178 N 0.44506 0.6216 0.14383 0.0
C1179 C 0.47477 0.63549 0.13562 0.0
C1180 C 0.4892 0.65689 0.16002 0.0
C1181 C 0.37698 0.54566 0.16009 0.0
C1182 C 0.3458 0.56126 0.15495 0.0
C1183 C 0.39829 0.53862 0.13312 0.0
C1184 C 0.38911 0.54692 0.10014 0.0
H1185 H 0.38409 0.5371 0.18483 0.0
H1186 H 0.42111 0.52466 0.13782 0.0
S1187 S 0.31038 0.58798 0.07324 0.0
N1188 N 0.3075 0.58601 0.1144 0.0
N1189 N 0.34712 0.5715 0.06384 0.0
C1190 C 0.35897 0.56413 0.09486 0.0
C1191 C 0.33739 0.57166 0.1223 0.0
C1192 C 0.8187 0.56397 0.6753 0.0
C1193 C 0.80404 0.53579 0.68967 0.0
C1194 C 0.84578 0.56109 0.65319 0.0
C1195 C 0.85933 0.52987 0.64451 0.0
H1196 H 0.80854 0.58848 0.68024 0.0
H1197 H 0.85508 0.58349 0.64168 0.0
S1198 S 0.83356 0.44874 0.67954 0.0
N1199 N 0.80763 0.47592 0.6967 0.0
N1200 N 0.85845 0.47047 0.65522 0.0
C1201 C 0.84627 0.50165 0.6604 0.0
C1202 C 0.81864 0.50459 0.68289 0.0
C1203 C 0.55075 0.85992 0.64239 0.0
C1204 C 0.51752 0.8511 0.64922 0.0
C1205 C 0.55819 0.885 0.61946 0.0
C1206 C 0.53273 0.90228 0.60225 0.0
H1207 H 0.57128 0.84854 0.65604 0.0
H1208 H 0.58413 0.89177 0.61631 0.0
S1209 S 0.44179 0.88501 0.6068 0.0
N1210 N 0.45902 0.85889 0.63373 0.0
N1211 N 0.47305 0.90595 0.59051 0.0
C1212 C 0.49952 0.89189 0.60671 0.0
C1213 C 0.4919 0.86633 0.63022 0.0
C1214 C 0.17103 0.58248 0.63715 0.0
C1215 C 0.19519 0.55715 0.64115 0.0
C1216 C 0.14454 0.57911 0.61446 0.0
C1217 C 0.14123 0.55027 0.59493 0.0
H1218 H 0.1712 0.60412 0.6532 0.0
H1219 H 0.12546 0.59835 0.61385 0.0
S1220 S 0.20244 0.48057 0.59008 0.0
N1221 N 0.21737 0.50503 0.61954 0.0
N1222 N 0.16778 0.49878 0.57668 0.0
C1223 C 0.16713 0.52638 0.59621 0.0
C1224 C 0.19406 0.52979 0.61938 0.0
C1225 C 0.4828 0.17128 0.64301 0.0
C1226 C 0.45106 0.16594 0.6569 0.0
C1227 C 0.49698 0.1487 0.62033 0.0
C1228 C 0.48017 0.11966 0.61043 0.0
H1229 H 0.49759 0.19226 0.65081 0.0
H1230 H 0.52197 0.15369 0.61137 0.0
S1231 S 0.394 0.09721 0.63555 0.0
N1232 N 0.40132 0.13192 0.65594 0.0
N1233 N 0.42838 0.08916 0.6141 0.0
C1234 C 0.44752 0.11529 0.62252 0.0
C1235 C 0.4329 0.13847 0.64551 0.0
C1236 C 0.78701 0.53738 0.36635 0.0
C1237 C 0.77513 0.50554 0.35866 0.0
C1238 C 0.81337 0.54181 0.38899 0.0
C1239 C 0.8289 0.51459 0.40493 0.0
H1240 H 0.77728 0.55899 0.35334 0.0
H1241 H 0.82277 0.56663 0.39249 0.0
S1242 S 0.80242 0.42669 0.39876 0.0
N1243 N 0.77753 0.44683 0.37258 0.0
N1244 N 0.82679 0.45508 0.41536 0.0
C1245 C 0.81513 0.48292 0.39986 0.0
C1246 C 0.78835 0.47841 0.37667 0.0
C1247 C 0.53134 0.90939 0.33186 0.0
C1248 C 0.54445 0.87709 0.33535 0.0
C1249 C 0.5131 0.92447 0.35757 0.0
C1250 C 0.50751 0.90811 0.38812 0.0
H1251 H 0.53402 0.92287 0.30858 0.0
H1252 H 0.50281 0.94904 0.35314 0.0
S1253 S 0.54104 0.82532 0.41204 0.0
N1254 N 0.55354 0.83044 0.37299 0.0
N1255 N 0.51972 0.85923 0.42186 0.0
C1256 C 0.52228 0.87665 0.39288 0.0
C1257 C 0.54053 0.86098 0.36634 0.0
C1258 C 0.1437 0.58559 0.32247 0.0
C1259 C 0.15905 0.55958 0.30449 0.0
C1260 C 0.11587 0.57997 0.3429 0.0
C1261 C 0.10228 0.54808 0.3462 0.0
H1262 H 0.15383 0.61037 0.32163 0.0
H1263 H 0.106 0.60055 0.35738 0.0
S1264 S 0.1298 0.47258 0.30023 0.0
N1265 N 0.15618 0.50148 0.28833 0.0
N1266 N 0.10392 0.49093 0.3267 0.0
C1267 C 0.11612 0.52226 0.32676 0.0
C1268 C 0.1445 0.52798 0.30598 0.0
C1269 C 0.46025 0.18008 0.37592 0.0
C1270 C 0.47157 0.17021 0.34401 0.0
C1271 C 0.45764 0.15714 0.40224 0.0
C1272 C 0.46662 0.12369 0.39766 0.0
H1273 H 0.45222 0.20544 0.38031 0.0
H1274 H 0.44726 0.16533 0.42593 0.0
S1275 S 0.49572 0.08453 0.31895 0.0
N1276 N 0.4914 0.12418 0.30956 0.0
N1277 N 0.48564 0.08139 0.35888 0.0
C1278 C 0.47857 0.11359 0.36629 0.0
C1279 C 0.48136 0.13681 0.33951 0.0
C1280 C 0.62463 0.86501 0.49962 0.0
C1281 C 0.64197 0.85491 0.47062 0.0
C1282 C 0.59954 0.88961 0.49824 0.0
C1283 C 0.5907 0.90499 0.46778 0.0
H1284 H 0.63144 0.85492 0.52385 0.0
H1285 H 0.58781 0.89734 0.52143 0.0
S1286 S 0.62575 0.88441 0.38399 0.0
N1287 N 0.6463 0.85993 0.41012 0.0
N1288 N 0.59949 0.90604 0.4074 0.0
C1289 C 0.60658 0.89371 0.43832 0.0
C1290 C 0.6321 0.86873 0.43978 0.0
C1291 C 0.64474 0.14302 0.51663 0.0
C1292 C 0.64373 0.17446 0.50126 0.0
C1293 C 0.61671 0.12246 0.51658 0.0
C1294 C 0.58659 0.13283 0.5017 0.0
H1295 H 0.66805 0.13298 0.52629 0.0
H1296 H 0.61975 0.09716 0.52509 0.0
S1297 S 0.56886 0.21522 0.46416 0.0
N1298 N 0.60863 0.21674 0.47513 0.0
N1299 N 0.55588 0.17814 0.47545 0.0
C1300 C 0.58428 0.16538 0.48928 0.0
C1301 C 0.61286 0.18622 0.48901 0.0
C1302 C 0.8337 0.68379 0.51087 0.0
C1303 C 0.82459 0.68786 0.47712 0.0
C1304 C 0.85581 0.65856 0.52089 0.0
C1305 C 0.86966 0.6359 0.49772 0.0
H1306 H 0.82376 0.70029 0.5299 0.0
H1307 H 0.86177 0.65673 0.5473 0.0
S1308 S 0.85401 0.63593 0.40606 0.0
N1309 N 0.83158 0.66751 0.4202 0.0
N1310 N 0.87244 0.61954 0.43924 0.0
C1311 C 0.86093 0.63983 0.46379 0.0
C1312 C 0.8386 0.66589 0.45346 0.0
C1313 C 0.35196 0.84862 0.51116 0.0
C1314 C 0.32139 0.85401 0.4944 0.0
C1315 C 0.37548 0.87399 0.51447 0.0
C1316 C 0.36937 0.90587 0.50127 0.0
H1317 H 0.35732 0.825 0.523 0.0
H1318 H 0.39789 0.86894 0.52893 0.0
S1319 S 0.29556 0.93167 0.45089 0.0
N1320 N 0.28809 0.89282 0.46116 0.0
N1321 N 0.33215 0.94037 0.46766 0.0
C1322 C 0.33991 0.91103 0.48266 0.0
C1323 C 0.31599 0.88517 0.47916 0.0
C1324 C 0.12662 0.36482 0.47046 0.0
C1325 C 0.13945 0.36091 0.50306 0.0
C1326 C 0.10842 0.39324 0.46127 0.0
C1327 C 0.10267 0.41922 0.48415 0.0
H1328 H 0.13056 0.34573 0.45176 0.0
H1329 H 0.09932 0.39502 0.43577 0.0
S1330 S 0.12988 0.42085 0.57306 0.0
N1331 N 0.14412 0.38503 0.55871 0.0
N1332 N 0.11061 0.4388 0.5412 0.0
C1333 C 0.11506 0.41554 0.51696 0.0
C1334 C 0.13324 0.38633 0.52647 0.0
C1335 C 0.3664 0.16817 0.51436 0.0
C1336 C 0.33459 0.16384 0.50007 0.0
C1337 C 0.38872 0.14141 0.51782 0.0
C1338 C 0.38041 0.10956 0.50641 0.0
H1339 H 0.37332 0.19181 0.52505 0.0
H1340 H 0.41202 0.1453 0.53107 0.0
S1341 S 0.30217 0.08567 0.46371 0.0
N1342 N 0.29729 0.12563 0.47155 0.0
N1343 N 0.33965 0.07554 0.47801 0.0
C1344 C 0.34997 0.10536 0.48969 0.0
C1345 C 0.32695 0.13248 0.48652 0.0
C1346 C 0.83859 0.37591 0.47243 0.0
C1347 C 0.80458 0.37022 0.47884 0.0
C1348 C 0.85519 0.40256 0.48729 0.0
C1349 C 0.83816 0.42489 0.50847 0.0
H1350 H 0.85285 0.35891 0.45688 0.0
H1351 H 0.88162 0.4055 0.48239 0.0
S1352 S 0.74811 0.42256 0.53056 0.0
N1353 N 0.75394 0.38998 0.50613 0.0
N1354 N 0.78482 0.44069 0.53338 0.0
C1355 C 0.80374 0.42036 0.51376 0.0
C1356 C 0.78703 0.39283 0.49915 0.0
C1357 C 0.12277 0.66008 0.53407 0.0
C1358 C 0.11926 0.69193 0.52012 0.0
C1359 C 0.10163 0.63421 0.52418 0.0
C1360 C 0.07576 0.63964 0.5009 0.0
H1361 H 0.1432 0.65462 0.5511 0.0
H1362 H 0.1072 0.60947 0.53286 0.0
S1363 S 0.05338 0.71979 0.46081 0.0
N1364 N 0.08638 0.72822 0.48409 0.0
N1365 N 0.046 0.67999 0.46656 0.0
C1366 C 0.07082 0.67192 0.48846 0.0
C1367 C 0.09269 0.69799 0.49789 0.0
loop_
_geom_bond_atom_site_label_1
_geom_bond_atom_site_label_2
_geom_bond_distance
_geom_bond_site_symmetry_2
_ccdc_geom_bond_type
O0 Cd1 2.300 . S
O0 C7 1.275 . S
Cd1 O0 2.300 . S
Cd1 O9 2.381 . S
Cd1 O10 2.378 . S
O2 Cd3 2.385 1_455 S
O2 C7 1.255 . S
Cd3 O2 2.385 1_655 S
Cd3 O4 2.317 1_655 S
O4 Cd3 2.317 1_455 S
O4 C5 1.232 . S
C5 O4 1.232 . S
C5 O6 1.218 . S
O6 C5 1.218 . S
C7 O0 1.275 . S
C7 O2 1.255 . S
C8 O9 1.258 . S
C8 O10 1.256 . S
O9 Cd1 2.381 . S
O9 C8 1.258 . S
O10 Cd1 2.378 . S
O10 C8 1.256 . S
O11 Cd12 2.300 . S
O11 C18 1.275 . S
Cd12 O11 2.300 . S
Cd12 O20 2.381 . S
Cd12 O21 2.378 . S
O13 Cd14 2.385 . S
O13 C18 1.255 . S
Cd14 O13 2.385 . S
Cd14 O15 2.317 . S
O15 Cd14 2.317 . S
O15 C16 1.232 . S
C16 O15 1.232 . S
C16 O17 1.218 . S
O17 C16 1.218 . S
C18 O11 1.275 . S
C18 O13 1.255 . S
C19 O20 1.258 . S
C19 O21 1.256 . S
O20 Cd12 2.381 . S
O20 C19 1.258 . S
O21 Cd12 2.378 . S
O21 C19 1.256 . S
O22 Cd23 2.300 . S
O22 C29 1.275 . S
Cd23 O22 2.300 . S
Cd23 O31 2.381 . S
Cd23 O32 2.378 . S
O24 Cd25 2.385 . S
O24 C29 1.255 . S
Cd25 O24 2.385 . S
Cd25 O26 2.317 . S
O26 Cd25 2.317 . S
O26 C27 1.232 . S
C27 O26 1.232 . S
C27 O28 1.218 . S
O28 C27 1.218 . S
C29 O22 1.275 . S
C29 O24 1.255 . S
C30 O31 1.258 . S
C30 O32 1.256 . S
O31 Cd23 2.381 . S
O31 C30 1.258 . S
O32 Cd23 2.378 . S
O32 C30 1.256 . S
O33 Cd34 2.300 1_545 S
O33 C40 1.264 1_545 S
Cd34 O33 2.300 1_565 S
Cd34 O42 2.381 1_565 S
Cd34 O43 2.378 . S
O35 Cd36 2.385 . S
O35 C40 1.276 . S
Cd36 O35 2.385 . S
Cd36 O37 2.317 . S
O37 Cd36 2.317 . S
O37 C38 1.232 . S
C38 O37 1.232 . S
C38 O39 1.218 . S
O39 C38 1.218 . S
C40 O33 1.264 1_565 S
C40 O35 1.276 . S
C41 O42 1.258 . S
C41 O43 1.256 1_545 S
O42 Cd34 2.381 1_545 S
O42 C41 1.258 . S
O43 Cd34 2.378 . S
O43 C41 1.256 1_565 S
O44 Cd45 2.300 1_455 S
O44 C51 1.275 1_455 S
Cd45 O44 2.300 1_655 S
Cd45 O53 2.381 1_655 S
Cd45 O54 2.378 . S
O46 Cd47 2.385 . S
O46 C51 1.255 . S
Cd47 O46 2.385 . S
Cd47 O48 2.317 . S
O48 Cd47 2.317 . S
O48 C49 1.232 . S
C49 O48 1.232 . S
C49 O50 1.218 . S
O50 C49 1.218 . S
C51 O44 1.275 1_655 S
C51 O46 1.255 . S
C52 O53 1.258 1_655 S
C52 O54 1.256 . S
O53 Cd45 2.381 1_455 S
O53 C52 1.258 1_455 S
O54 Cd45 2.378 . S
O54 C52 1.256 . S
O55 Cd56 2.300 . S
O55 C62 1.275 . S
Cd56 O55 2.300 . S
Cd56 O64 2.381 1_545 S
Cd56 O65 2.378 . S
O57 Cd58 2.385 . S
O57 C62 1.255 . S
Cd58 O57 2.385 . S
Cd58 O59 2.317 . S
O59 Cd58 2.317 . S
O59 C60 1.232 . S
C60 O59 1.232 . S
C60 O61 1.218 . S
O61 C60 1.218 . S
C62 O55 1.275 . S
C62 O57 1.255 . S
C63 O64 1.258 1_545 S
C63 O65 1.256 . S
O64 Cd56 2.381 1_565 S
O64 C63 1.258 1_565 S
O65 Cd56 2.378 . S
O65 C63 1.256 . S
O66 Cd67 2.300 . S
O66 C73 1.275 . S
Cd67 O66 2.300 . S
Cd67 O75 2.381 . S
Cd67 O76 2.378 . S
O68 Cd69 2.385 . S
O68 C73 1.255 . S
Cd69 O68 2.385 . S
Cd69 O70 2.317 . S
O70 Cd69 2.317 . S
O70 C71 1.232 . S
C71 O70 1.232 . S
C71 O72 1.218 . S
O72 C71 1.218 . S
C73 O66 1.275 . S
C73 O68 1.255 . S
C74 O75 1.258 . S
C74 O76 1.256 . S
O75 Cd67 2.381 . S
O75 C74 1.258 . S
O76 Cd67 2.378 . S
O76 C74 1.256 . S
O77 Cd78 2.300 . S
O77 C84 1.275 . S
Cd78 O77 2.300 . S
Cd78 O86 2.381 . S
Cd78 O87 2.378 . S
O79 Cd80 2.385 1_545 S
O79 C84 1.255 . S
Cd80 O79 2.385 1_565 S
Cd80 O81 2.317 1_565 S
O81 Cd80 2.317 1_545 S
O81 C82 1.232 . S
C82 O81 1.232 . S
C82 O83 1.218 . S
O83 C82 1.218 . S
C84 O77 1.275 . S
C84 O79 1.255 . S
C85 O86 1.258 . S
C85 O87 1.256 . S
O86 Cd78 2.381 . S
O86 C85 1.258 . S
O87 Cd78 2.378 . S
O87 C85 1.256 . S
O88 Cd89 2.300 . S
O88 C95 1.275 . S
Cd89 O88 2.300 . S
Cd89 O97 2.381 . S
Cd89 O98 2.378 . S
O90 Cd91 2.385 . S
O90 C95 1.255 . S
Cd91 O90 2.385 . S
Cd91 O92 2.317 . S
O92 Cd91 2.317 . S
O92 C93 1.232 . S
C93 O92 1.232 . S
C93 O94 1.218 . S
O94 C93 1.218 . S
C95 O88 1.275 . S
C95 O90 1.255 . S
C96 O97 1.258 . S
C96 O98 1.256 . S
O97 Cd89 2.381 . S
O97 C96 1.258 . S
O98 Cd89 2.378 . S
O98 C96 1.256 . S
O99 Cd100 2.300 1_554 S
O99 C106 1.275 . S
Cd100 O99 2.300 1_556 S
Cd100 O108 2.381 1_556 S
Cd100 O109 2.378 . S
O101 Cd102 2.385 . S
O101 C106 1.255 1_556 S
Cd102 O101 2.385 . S
Cd102 O103 2.317 . S
O103 Cd102 2.317 . S
O103 C104 1.232 . S
C104 O103 1.232 . S
C104 O105 1.218 . S
O105 C104 1.218 . S
C106 O99 1.275 . S
C106 O101 1.255 1_554 S
C107 O108 1.258 . S
C107 O109 1.256 1_554 S
O108 Cd100 2.381 1_554 S
O108 C107 1.258 . S
O109 Cd100 2.378 . S
O109 C107 1.256 1_556 S
O110 Cd111 2.300 1_554 S
O110 C117 1.275 1_554 S
Cd111 O110 2.300 1_556 S
Cd111 O119 2.381 1_556 S
Cd111 O120 2.378 . S
O112 Cd113 2.385 . S
O112 C117 1.255 . S
Cd113 O112 2.385 . S
Cd113 O114 2.317 . S
O114 Cd113 2.317 . S
O114 C115 1.232 . S
C115 O114 1.232 . S
C115 O116 1.218 . S
O116 C115 1.218 . S
C117 O110 1.275 1_556 S
C117 O112 1.255 . S
C118 O119 1.258 1_556 S
C118 O120 1.256 . S
O119 Cd111 2.381 1_554 S
O119 C118 1.258 1_554 S
O120 Cd111 2.378 . S
O120 C118 1.256 . S
O121 Cd122 2.300 1_556 S
O121 C128 1.275 1_556 S
Cd122 O121 2.300 1_554 S
Cd122 O130 2.381 1_554 S
Cd122 O131 2.378 . S
O123 Cd124 2.385 . S
O123 C128 1.255 . S
Cd124 O123 2.385 . S
Cd124 O125 2.317 . S
O125 Cd124 2.317 . S
O125 C126 1.232 . S
C126 O125 1.232 . S
C126 O127 1.218 . S
O127 C126 1.218 . S
C128 O121 1.275 1_554 S
C128 O123 1.255 . S
C129 O130 1.258 1_554 S
C129 O131 1.256 . S
O130 Cd122 2.381 1_556 S
O130 C129 1.258 1_556 S
O131 Cd122 2.378 . S
O131 C129 1.256 . S
O132 Cd133 2.300 . S
O132 C139 1.275 . S
Cd133 O132 2.300 . S
Cd133 O141 2.381 . S
Cd133 O142 2.378 . S
O134 Cd135 2.385 . S
O134 C139 1.255 . S
Cd135 O134 2.385 . S
Cd135 O136 2.317 . S
O136 Cd135 2.317 . S
O136 C137 1.232 . S
C137 O136 1.232 . S
C137 O138 1.218 . S
O138 C137 1.218 . S
C139 O132 1.275 . S
C139 O134 1.255 . S
C140 O141 1.258 . S
C140 O142 1.256 . S
O141 Cd133 2.381 . S
O141 C140 1.258 . S
O142 Cd133 2.378 . S
O142 C140 1.256 . S
O143 Cd144 2.300 . S
O143 C150 1.275 . S
Cd144 O143 2.300 . S
Cd144 O152 2.381 . S
Cd144 O153 2.378 . S
O145 Cd146 2.385 . S
O145 C150 1.255 . S
Cd146 O145 2.385 . S
Cd146 O147 2.317 . S
O147 Cd146 2.317 . S
O147 C148 1.232 . S
C148 O147 1.232 . S
C148 O149 1.218 . S
O149 C148 1.218 . S
C150 O143 1.275 . S
C150 O145 1.255 . S
C151 O152 1.258 . S
C151 O153 1.256 . S
O152 Cd144 2.381 . S
O152 C151 1.258 . S
O153 Cd144 2.378 . S
O153 C151 1.256 . S
O154 Cd155 2.300 . S
O154 C161 1.275 . S
Cd155 O154 2.300 . S
Cd155 O163 2.381 . S
Cd155 O164 2.378 . S
O156 Cd157 2.385 . S
O156 C161 1.255 . S
Cd157 O156 2.385 . S
Cd157 O158 2.317 . S
O158 Cd157 2.317 . S
O158 C159 1.232 . S
C159 O158 1.232 . S
C159 O160 1.218 . S
O160 C159 1.218 . S
C161 O154 1.275 . S
C161 O156 1.255 . S
C162 O163 1.258 . S
C162 O164 1.256 . S
O163 Cd155 2.381 . S
O163 C162 1.258 . S
O164 Cd155 2.378 . S
O164 C162 1.256 . S
O165 Cd166 2.300 . S
O165 C172 1.275 . S
Cd166 O165 2.300 . S
Cd166 O174 2.381 . S
Cd166 O175 2.378 . S
O167 Cd168 2.385 . S
O167 C172 1.255 . S
Cd168 O167 2.385 . S
Cd168 O169 2.317 . S
O169 Cd168 2.317 . S
O169 C170 1.232 . S
C170 O169 1.232 . S
C170 O171 1.218 . S
O171 C170 1.218 . S
C172 O165 1.275 . S
C172 O167 1.255 . S
C173 O174 1.258 . S
C173 O175 1.256 . S
O174 Cd166 2.381 . S
O174 C173 1.258 . S
O175 Cd166 2.378 . S
O175 C173 1.256 . S
O176 Cd177 2.300 . S
O176 C183 1.275 . S
Cd177 O176 2.300 . S
Cd177 O185 2.381 . S
Cd177 O186 2.378 . S
O178 Cd179 2.385 . S
O178 C183 1.255 . S
Cd179 O178 2.385 . S
Cd179 O180 2.317 . S
O180 Cd179 2.317 . S
O180 C181 1.232 . S
C181 O180 1.232 . S
C181 O182 1.218 . S
O182 C181 1.218 . S
C183 O176 1.275 . S
C183 O178 1.255 . S
C184 O185 1.258 . S
C184 O186 1.256 . S
O185 Cd177 2.381 . S
O185 C184 1.258 . S
O186 Cd177 2.378 . S
O186 C184 1.256 . S
O187 Cd188 2.300 . S
O187 C194 1.275 . S
Cd188 O187 2.300 . S
Cd188 O196 2.381 . S
Cd188 O197 2.378 . S
O189 Cd190 2.385 . S
O189 C194 1.255 . S
Cd190 O189 2.385 . S
Cd190 O191 2.317 . S
O191 Cd190 2.317 . S
O191 C192 1.232 . S
C192 O191 1.232 . S
C192 O193 1.218 . S
O193 C192 1.218 . S
C194 O187 1.275 . S
C194 O189 1.255 . S
C195 O196 1.258 . S
C195 O197 1.256 . S
O196 Cd188 2.381 . S
O196 C195 1.258 . S
O197 Cd188 2.378 . S
O197 C195 1.256 . S
O198 Cd199 2.300 . S
O198 C205 1.275 . S
Cd199 O198 2.300 . S
Cd199 O207 2.381 . S
Cd199 O208 2.378 . S
O200 Cd201 2.385 . S
O200 C205 1.255 . S
Cd201 O200 2.385 . S
Cd201 O202 2.317 . S
O202 Cd201 2.317 . S
O202 C203 1.232 . S
C203 O202 1.232 . S
C203 O204 1.218 . S
O204 C203 1.218 . S
C205 O198 1.275 . S
C205 O200 1.255 . S
C206 O207 1.258 . S
C206 O208 1.256 . S
O207 Cd199 2.381 . S
O207 C206 1.258 . S
O208 Cd199 2.378 . S
O208 C206 1.256 . S
O209 Cd210 2.300 . S
O209 C216 1.275 . S
Cd210 O209 2.300 . S
Cd210 O218 2.381 . S
Cd210 O219 2.378 . S
O211 Cd212 2.385 . S
O211 C216 1.255 . S
Cd212 O211 2.385 . S
Cd212 O213 2.317 . S
O213 Cd212 2.317 . S
O213 C214 1.232 . S
C214 O213 1.232 . S
C214 O215 1.218 . S
O215 C214 1.218 . S
C216 O209 1.275 . S
C216 O211 1.255 . S
C217 O218 1.258 . S
C217 O219 1.256 . S
O218 Cd210 2.381 . S
O218 C217 1.258 . S
O219 Cd210 2.378 . S
O219 C217 1.256 . S
O220 Cd221 2.300 . S
O220 C227 1.275 . S
Cd221 O220 2.300 . S
Cd221 O229 2.381 . S
Cd221 O230 2.378 . S
O222 Cd223 2.385 . S
O222 C227 1.255 . S
Cd223 O222 2.385 . S
Cd223 O224 2.317 . S
O224 Cd223 2.317 . S
O224 C225 1.232 . S
C225 O224 1.232 . S
C225 O226 1.218 . S
O226 C225 1.218 . S
C227 O220 1.275 . S
C227 O222 1.255 . S
C228 O229 1.258 . S
C228 O230 1.256 . S
O229 Cd221 2.381 . S
O229 C228 1.258 . S
O230 Cd221 2.378 . S
O230 C228 1.256 . S
O231 Cd232 2.300 . S
O231 C238 1.275 . S
Cd232 O231 2.300 . S
Cd232 O240 2.381 . S
Cd232 O241 2.378 . S
O233 Cd234 2.385 . S
O233 C238 1.255 . S
Cd234 O233 2.385 . S
Cd234 O235 2.317 . S
O235 Cd234 2.317 . S
O235 C236 1.232 . S
C236 O235 1.232 . S
C236 O237 1.218 . S
O237 C236 1.218 . S
C238 O231 1.275 . S
C238 O233 1.255 . S
C239 O240 1.258 . S
C239 O241 1.256 . S
O240 Cd232 2.381 . S
O240 C239 1.258 . S
O241 Cd232 2.378 . S
O241 C239 1.256 . S
O242 Cd243 2.300 . S
O242 C249 1.275 . S
Cd243 O242 2.300 . S
Cd243 O251 2.381 . S
Cd243 O252 2.378 . S
O244 Cd245 2.385 . S
O244 C249 1.255 . S
Cd245 O244 2.385 . S
Cd245 O246 2.317 . S
O246 Cd245 2.317 . S
O246 C247 1.232 . S
C247 O246 1.232 . S
C247 O248 1.218 . S
O248 C247 1.218 . S
C249 O242 1.275 . S
C249 O244 1.255 . S
C250 O251 1.258 . S
C250 O252 1.256 . S
O251 Cd243 2.381 . S
O251 C250 1.258 . S
O252 Cd243 2.378 . S
O252 C250 1.256 . S
O253 Cd254 2.300 . S
O253 C260 1.275 . S
Cd254 O253 2.300 . S
Cd254 O262 2.381 . S
Cd254 O263 2.378 . S
O255 Cd256 2.385 . S
O255 C260 1.255 . S
Cd256 O255 2.385 . S
Cd256 O257 2.317 . S
O257 Cd256 2.317 . S
O257 C258 1.232 . S
C258 O257 1.232 . S
C258 O259 1.218 . S
O259 C258 1.218 . S
C260 O253 1.275 . S
C260 O255 1.255 . S
C261 O262 1.258 . S
C261 O263 1.256 . S
O262 Cd254 2.381 . S
O262 C261 1.258 . S
O263 Cd254 2.378 . S
O263 C261 1.256 . S
Zn264 O266 1.933 1_565 S
Zn264 O284 1.985 . S
Zn264 O295 1.955 . S
Zn265 O266 1.911 . S
Zn265 O285 1.970 . S
Zn265 O301 1.945 . S
Zn265 O308 1.981 . S
O266 Zn264 1.933 1_545 S
O266 Zn265 1.911 . S
O266 H267 0.841 1_655 S
H267 O266 0.841 1_455 S
C268 O269 1.246 . S
C268 O297 1.276 . S
O269 C268 1.246 . S
Zn270 O272 1.911 . S
Zn270 O287 1.970 . S
Zn270 O304 1.945 . S
Zn270 O311 1.981 . S
Zn271 O272 1.933 1_565 S
Zn271 O286 1.985 . S
Zn271 O293 1.955 . S
O272 Zn270 1.911 . S
O272 Zn271 1.933 1_545 S
O272 H273 0.841 . S
H273 O272 0.841 . S
Zn274 O275 1.933 1_565 S
Zn274 O288 1.985 . S
Zn274 O297 1.955 . S
O275 Zn274 1.933 1_545 S
O275 Zn276 1.911 . S
O275 H277 0.841 . S
Zn276 O275 1.911 . S
Zn276 O289 1.970 . S
Zn276 O305 1.981 1_655 S
Zn276 O307 1.945 . S
H277 O275 0.841 . S
Zn278 O279 1.933 1_565 S
Zn278 O291 1.985 . S
Zn278 O299 1.955 . S
O279 Zn278 1.933 1_545 S
O279 H280 0.841 . S
O279 Zn281 1.911 . S
H280 O279 0.841 . S
Zn281 O279 1.911 . S
Zn281 O292 1.970 . S
Zn281 O302 1.981 . S
Zn281 O310 1.945 . S
C282 O283 1.246 . S
C282 O299 1.276 . S
O283 C282 1.246 . S
O284 Zn264 1.985 . S
O284 C294 1.245 1_565 S
O285 Zn265 1.970 . S
O285 C294 1.263 . S
O286 Zn271 1.985 . S
O286 C298 1.245 1_565 S
O287 Zn270 1.970 . S
O287 C298 1.263 . S
O288 Zn274 1.985 . S
O288 C303 1.245 1_565 S
O289 Zn276 1.970 . S
O289 C303 1.263 . S
C290 O301 1.262 1_455 S
C290 O302 1.245 . S
O291 Zn278 1.985 . S
O291 C309 1.245 1_565 S
O292 Zn281 1.970 . S
O292 C309 1.263 . S
O293 Zn271 1.955 . S
O293 C312 1.276 . S
C294 O284 1.245 1_545 S
C294 O285 1.263 . S
O295 Zn264 1.955 . S
O295 C314 1.276 1_655 S
C296 O304 1.262 . S
C296 O305 1.245 . S
O297 C268 1.276 . S
O297 Zn274 1.955 . S
C298 O286 1.245 1_545 S
C298 O287 1.263 . S
O299 Zn278 1.955 . S
O299 C282 1.276 . S
C300 O307 1.262 . S
C300 O308 1.245 . S
O301 Zn265 1.945 . S
O301 C290 1.262 1_655 S
O302 Zn281 1.981 . S
O302 C290 1.245 . S
C303 O288 1.245 1_545 S
C303 O289 1.263 . S
O304 Zn270 1.945 . S
O304 C296 1.262 . S
O305 Zn276 1.981 1_455 S
O305 C296 1.245 . S
C306 O310 1.262 . S
C306 O311 1.245 . S
O307 Zn276 1.945 . S
O307 C300 1.262 . S
O308 Zn265 1.981 . S
O308 C300 1.245 . S
C309 O291 1.245 1_545 S
C309 O292 1.263 . S
O310 Zn281 1.945 . S
O310 C306 1.262 . S
O311 Zn270 1.981 . S
O311 C306 1.245 . S
C312 O293 1.276 . S
C312 O313 1.241 1_455 S
O313 C312 1.241 1_655 S
C314 O295 1.276 1_455 S
C314 O315 1.246 . S
O315 C314 1.246 . S
Zn316 O318 1.933 . S
Zn316 O336 1.985 . S
Zn316 O347 1.955 . S
Zn317 O318 1.911 1_556 S
Zn317 O337 1.970 . S
Zn317 O353 1.945 . S
Zn317 O360 1.981 . S
O318 Zn316 1.933 . S
O318 Zn317 1.911 1_554 S
O318 H319 0.841 . S
H319 O318 0.841 . S
C320 O321 1.246 . S
C320 O349 1.276 . S
O321 C320 1.246 . S
Zn322 O324 1.911 1_556 S
Zn322 O339 1.970 . S
Zn322 O356 1.945 . S
Zn322 O363 1.981 . S
Zn323 O324 1.933 . S
Zn323 O338 1.985 . S
Zn323 O345 1.955 . S
O324 Zn322 1.911 1_554 S
O324 Zn323 1.933 . S
O324 H325 0.841 1_565 S
H325 O324 0.841 1_545 S
Zn326 O327 1.933 . S
Zn326 O340 1.985 . S
Zn326 O349 1.955 . S
O327 Zn326 1.933 . S
O327 Zn328 1.911 1_554 S
O327 H329 0.841 . S
Zn328 O327 1.911 1_556 S
Zn328 O341 1.970 . S
Zn328 O357 1.981 . S
Zn328 O359 1.945 . S
H329 O327 0.841 . S
Zn330 O331 1.933 . S
Zn330 O343 1.985 . S
Zn330 O351 1.955 . S
O331 Zn330 1.933 . S
O331 H332 0.841 . S
O331 Zn333 1.911 1_554 S
H332 O331 0.841 . S
Zn333 O331 1.911 1_556 S
Zn333 O344 1.970 . S
Zn333 O354 1.981 1_565 S
Zn333 O362 1.945 . S
C334 O335 1.246 . S
C334 O351 1.276 . S
O335 C334 1.246 . S
O336 Zn316 1.985 . S
O336 C346 1.245 . S
O337 Zn317 1.970 . S
O337 C346 1.263 1_556 S
O338 Zn323 1.985 . S
O338 C350 1.245 . S
O339 Zn322 1.970 . S
O339 C350 1.263 1_556 S
O340 Zn326 1.985 . S
O340 C355 1.245 . S
O341 Zn328 1.970 . S
O341 C355 1.263 1_556 S
C342 O353 1.262 . S
C342 O354 1.245 . S
O343 Zn330 1.985 . S
O343 C361 1.245 . S
O344 Zn333 1.970 . S
O344 C361 1.263 1_556 S
O345 Zn323 1.955 . S
O345 C364 1.276 1_565 S
C346 O336 1.245 . S
C346 O337 1.263 1_554 S
O347 Zn316 1.955 . S
O347 C366 1.276 . S
C348 O356 1.262 1_545 S
C348 O357 1.245 . S
O349 C320 1.276 . S
O349 Zn326 1.955 . S
C350 O338 1.245 . S
C350 O339 1.263 1_554 S
O351 Zn330 1.955 . S
O351 C334 1.276 . S
C352 O359 1.262 . S
C352 O360 1.245 . S
O353 Zn317 1.945 . S
O353 C342 1.262 . S
O354 Zn333 1.981 1_545 S
O354 C342 1.245 . S
C355 O340 1.245 . S
C355 O341 1.263 1_554 S
O356 Zn322 1.945 . S
O356 C348 1.262 1_565 S
O357 Zn328 1.981 . S
O357 C348 1.245 . S
C358 O362 1.262 . S
C358 O363 1.245 . S
O359 Zn328 1.945 . S
O359 C352 1.262 . S
O360 Zn317 1.981 . S
O360 C352 1.245 . S
C361 O343 1.245 . S
C361 O344 1.263 1_554 S
O362 Zn333 1.945 . S
O362 C358 1.262 . S
O363 Zn322 1.981 . S
O363 C358 1.245 . S
C364 O345 1.276 1_545 S
C364 O365 1.246 . S
O365 C364 1.246 . S
C366 O347 1.276 . S
C366 O367 1.246 . S
O367 C366 1.246 . S
Zn368 O370 1.933 . S
Zn368 O388 1.985 . S
Zn368 O399 1.955 . S
Zn369 O370 1.911 . S
Zn369 O389 1.970 . S
Zn369 O405 1.945 . S
Zn369 O412 1.981 . S
O370 Zn368 1.933 . S
O370 Zn369 1.911 . S
O370 H371 0.841 1_655 S
H371 O370 0.841 1_455 S
C372 O373 1.246 1_554 S
C372 O401 1.276 . S
O373 C372 1.246 1_556 S
Zn374 O376 1.911 . S
Zn374 O391 1.970 . S
Zn374 O408 1.945 . S
Zn374 O415 1.981 . S
Zn375 O376 1.933 . S
Zn375 O390 1.985 . S
Zn375 O397 1.955 . S
O376 Zn374 1.911 . S
O376 Zn375 1.933 . S
O376 H377 0.841 . S
H377 O376 0.841 . S
Zn378 O379 1.933 . S
Zn378 O392 1.985 . S
Zn378 O401 1.955 . S
O379 Zn378 1.933 . S
O379 Zn380 1.911 . S
O379 H381 0.841 . S
Zn380 O379 1.911 . S
Zn380 O393 1.970 . S
Zn380 O409 1.981 1_655 S
Zn380 O411 1.945 . S
H381 O379 0.841 . S
Zn382 O383 1.933 . S
Zn382 O395 1.985 . S
Zn382 O403 1.955 . S
O383 Zn382 1.933 . S
O383 H384 0.817 1_556 S
O383 Zn385 1.911 . S
H384 O383 0.817 1_554 S
Zn385 O383 1.911 . S
Zn385 O396 1.970 . S
Zn385 O406 1.981 . S
Zn385 O414 1.945 . S
C386 O387 1.246 . S
C386 O403 1.276 1_554 S
O387 C386 1.246 . S
O388 Zn368 1.985 . S
O388 C398 1.245 . S
O389 Zn369 1.970 . S
O389 C398 1.263 . S
O390 Zn375 1.985 . S
O390 C402 1.245 . S
O391 Zn374 1.970 . S
O391 C402 1.263 . S
O392 Zn378 1.985 . S
O392 C407 1.245 . S
O393 Zn380 1.970 . S
O393 C407 1.263 . S
C394 O405 1.262 1_455 S
C394 O406 1.245 . S
O395 Zn382 1.985 . S
O395 C413 1.245 . S
O396 Zn385 1.970 . S
O396 C413 1.263 . S
O397 Zn375 1.955 . S
O397 C416 1.276 . S
C398 O388 1.245 . S
C398 O389 1.263 . S
O399 Zn368 1.955 . S
O399 C418 1.276 1_655 S
C400 O408 1.262 . S
C400 O409 1.245 . S
O401 C372 1.276 . S
O401 Zn378 1.955 . S
C402 O390 1.245 . S
C402 O391 1.263 . S
O403 Zn382 1.955 . S
O403 C386 1.276 1_556 S
C404 O411 1.262 . S
C404 O412 1.245 1_554 S
O405 Zn369 1.945 . S
O405 C394 1.262 1_655 S
O406 Zn385 1.981 . S
O406 C394 1.245 . S
C407 O392 1.245 . S
C407 O393 1.263 . S
O408 Zn374 1.945 . S
O408 C400 1.262 . S
O409 Zn380 1.981 1_455 S
O409 C400 1.245 . S
C410 O414 1.262 1_554 S
C410 O415 1.245 . S
O411 Zn380 1.945 . S
O411 C404 1.262 . S
O412 Zn369 1.981 . S
O412 C404 1.245 1_556 S
C413 O395 1.245 . S
C413 O396 1.263 . S
O414 Zn385 1.945 . S
O414 C410 1.262 1_556 S
O415 Zn374 1.981 . S
O415 C410 1.245 . S
C416 O397 1.276 . S
C416 O417 1.246 . S
O417 C416 1.246 . S
C418 O399 1.276 1_455 S
C418 O419 1.246 . S
O419 C418 1.246 . S
Zn420 O422 1.933 1_556 S
Zn420 O440 1.985 . S
Zn420 O451 1.955 . S
Zn421 O422 1.911 . S
Zn421 O441 1.970 . S
Zn421 O457 1.945 . S
Zn421 O464 1.981 . S
O422 Zn420 1.933 1_554 S
O422 Zn421 1.911 . S
O422 H423 0.841 . S
H423 O422 0.841 . S
C424 O425 1.246 . S
C424 O453 1.276 . S
O425 C424 1.246 . S
Zn426 O428 1.911 . S
Zn426 O443 1.970 . S
Zn426 O460 1.945 . S
Zn426 O467 1.981 . S
Zn427 O428 1.933 1_556 S
Zn427 O442 1.985 . S
Zn427 O449 1.955 . S
O428 Zn426 1.911 . S
O428 Zn427 1.933 1_554 S
O428 H429 0.841 . S
H429 O428 0.841 . S
Zn430 O431 1.933 1_556 S
Zn430 O444 1.985 . S
Zn430 O453 1.955 . S
O431 Zn430 1.933 1_554 S
O431 Zn432 1.911 . S
O431 H433 0.841 . S
Zn432 O431 1.911 . S
Zn432 O445 1.970 . S
Zn432 O461 1.981 . S
Zn432 O463 1.945 . S
H433 O431 0.841 . S
Zn434 O435 1.933 1_556 S
Zn434 O447 1.985 . S
Zn434 O455 1.955 . S
O435 Zn434 1.933 1_554 S
O435 H436 0.841 . S
O435 Zn437 1.911 . S
H436 O435 0.841 . S
Zn437 O435 1.911 . S
Zn437 O448 1.970 . S
Zn437 O458 1.981 . S
Zn437 O466 1.945 . S
C438 O439 1.246 . S
C438 O455 1.276 . S
O439 C438 1.246 . S
O440 Zn420 1.985 . S
O440 C450 1.245 1_556 S
O441 Zn421 1.970 . S
O441 C450 1.263 . S
O442 Zn427 1.985 . S
O442 C454 1.245 1_556 S
O443 Zn426 1.970 . S
O443 C454 1.263 . S
O444 Zn430 1.985 . S
O444 C459 1.245 1_556 S
O445 Zn432 1.970 . S
O445 C459 1.263 . S
C446 O457 1.262 . S
C446 O458 1.245 . S
O447 Zn434 1.985 . S
O447 C465 1.245 1_556 S
O448 Zn437 1.970 . S
O448 C465 1.263 . S
O449 Zn427 1.955 . S
O449 C468 1.276 . S
C450 O440 1.245 1_554 S
C450 O441 1.263 . S
O451 Zn420 1.955 . S
O451 C470 1.276 . S
C452 O460 1.262 . S
C452 O461 1.245 . S
O453 C424 1.276 . S
O453 Zn430 1.955 . S
C454 O442 1.245 1_554 S
C454 O443 1.263 . S
O455 Zn434 1.955 . S
O455 C438 1.276 . S
C456 O463 1.262 . S
C456 O464 1.245 . S
O457 Zn421 1.945 . S
O457 C446 1.262 . S
O458 Zn437 1.981 . S
O458 C446 1.245 . S
C459 O444 1.245 1_554 S
C459 O445 1.263 . S
O460 Zn426 1.945 . S
O460 C452 1.262 . S
O461 Zn432 1.981 . S
O461 C452 1.245 . S
C462 O466 1.262 . S
C462 O467 1.245 . S
O463 Zn432 1.945 . S
O463 C456 1.262 . S
O464 Zn421 1.981 . S
O464 C456 1.245 . S
C465 O447 1.245 1_554 S
C465 O448 1.263 . S
O466 Zn437 1.945 . S
O466 C462 1.262 . S
O467 Zn426 1.981 . S
O467 C462 1.245 . S
C468 O449 1.276 . S
C468 O469 1.246 . S
O469 C468 1.246 . S
C470 O451 1.276 . S
C470 O471 1.246 . S
O471 C470 1.246 . S
Zn472 O474 1.933 . S
Zn472 O492 1.985 . S
Zn472 O503 1.955 . S
Zn473 O474 1.911 . S
Zn473 O493 1.970 . S
Zn473 O509 1.945 . S
Zn473 O516 1.981 . S
O474 Zn472 1.933 . S
O474 Zn473 1.911 . S
O474 H475 0.841 1_655 S
H475 O474 0.841 1_455 S
C476 O477 1.246 . S
C476 O505 1.276 . S
O477 C476 1.246 . S
Zn478 O480 1.911 . S
Zn478 O495 1.970 . S
Zn478 O512 1.945 . S
Zn478 O519 1.981 . S
Zn479 O480 1.933 . S
Zn479 O494 1.985 . S
Zn479 O501 1.955 . S
O480 Zn478 1.911 . S
O480 Zn479 1.933 . S
O480 H481 0.841 . S
H481 O480 0.841 . S
Zn482 O483 1.933 . S
Zn482 O496 1.985 . S
Zn482 O505 1.955 . S
O483 Zn482 1.933 . S
O483 Zn484 1.911 . S
O483 H485 0.841 . S
Zn484 O483 1.911 . S
Zn484 O497 1.970 . S
Zn484 O513 1.981 1_655 S
Zn484 O515 1.945 . S
H485 O483 0.841 . S
Zn486 O487 1.933 . S
Zn486 O499 1.985 . S
Zn486 O507 1.955 . S
O487 Zn486 1.933 . S
O487 H488 0.841 . S
O487 Zn489 1.911 . S
H488 O487 0.841 . S
Zn489 O487 1.911 . S
Zn489 O500 1.970 . S
Zn489 O510 1.981 . S
Zn489 O518 1.945 . S
C490 O491 1.246 . S
C490 O507 1.276 . S
O491 C490 1.246 . S
O492 Zn472 1.985 . S
O492 C502 1.245 . S
O493 Zn473 1.970 . S
O493 C502 1.263 . S
O494 Zn479 1.985 . S
O494 C506 1.245 . S
O495 Zn478 1.970 . S
O495 C506 1.263 . S
O496 Zn482 1.985 . S
O496 C511 1.245 . S
O497 Zn484 1.970 . S
O497 C511 1.263 . S
C498 O509 1.262 1_455 S
C498 O510 1.245 . S
O499 Zn486 1.985 . S
O499 C517 1.245 . S
O500 Zn489 1.970 . S
O500 C517 1.263 . S
O501 Zn479 1.955 . S
O501 C520 1.276 . S
C502 O492 1.245 . S
C502 O493 1.263 . S
O503 Zn472 1.955 . S
O503 C522 1.276 1_655 S
C504 O512 1.262 . S
C504 O513 1.245 . S
O505 C476 1.276 . S
O505 Zn482 1.955 . S
C506 O494 1.245 . S
C506 O495 1.263 . S
O507 Zn486 1.955 . S
O507 C490 1.276 . S
C508 O515 1.262 . S
C508 O516 1.245 . S
O509 Zn473 1.945 . S
O509 C498 1.262 1_655 S
O510 Zn489 1.981 . S
O510 C498 1.245 . S
C511 O496 1.245 . S
C511 O497 1.263 . S
O512 Zn478 1.945 . S
O512 C504 1.262 . S
O513 Zn484 1.981 1_455 S
O513 C504 1.245 . S
C514 O518 1.262 . S
C514 O519 1.245 . S
O515 Zn484 1.945 . S
O515 C508 1.262 . S
O516 Zn473 1.981 . S
O516 C508 1.245 . S
C517 O499 1.245 . S
C517 O500 1.263 . S
O518 Zn489 1.945 . S
O518 C514 1.262 . S
O519 Zn478 1.981 . S
O519 C514 1.245 . S
C520 O501 1.276 . S
C520 O521 1.246 . S
O521 C520 1.246 . S
C522 O503 1.276 1_455 S
C522 O523 1.246 . S
O523 C522 1.246 . S
Zn524 O526 1.933 1_565 S
Zn524 O544 1.985 . S
Zn524 O555 1.955 . S
Zn525 O526 1.911 . S
Zn525 O545 1.970 . S
Zn525 O561 1.945 . S
Zn525 O568 1.981 . S
O526 Zn524 1.933 1_545 S
O526 Zn525 1.911 . S
O526 H527 0.841 . S
H527 O526 0.841 . S
C528 O529 1.246 . S
C528 O557 1.276 . S
O529 C528 1.246 . S
Zn530 O532 1.911 . S
Zn530 O547 1.970 . S
Zn530 O564 1.945 . S
Zn530 O571 1.981 . S
Zn531 O532 1.933 1_565 S
Zn531 O546 1.985 . S
Zn531 O553 1.955 . S
O532 Zn530 1.911 . S
O532 Zn531 1.933 1_545 S
O532 H533 0.841 . S
H533 O532 0.841 . S
Zn534 O535 1.933 1_565 S
Zn534 O548 1.985 . S
Zn534 O557 1.955 . S
O535 Zn534 1.933 1_545 S
O535 Zn536 1.911 . S
O535 H537 0.841 . S
Zn536 O535 1.911 . S
Zn536 O549 1.970 . S
Zn536 O565 1.981 . S
Zn536 O567 1.945 . S
H537 O535 0.841 . S
Zn538 O539 1.933 1_565 S
Zn538 O551 1.985 . S
Zn538 O559 1.955 . S
O539 Zn538 1.933 1_545 S
O539 H540 0.841 . S
O539 Zn541 1.911 . S
H540 O539 0.841 . S
Zn541 O539 1.911 . S
Zn541 O552 1.970 . S
Zn541 O562 1.981 . S
Zn541 O570 1.945 . S
C542 O543 1.246 . S
C542 O559 1.276 . S
O543 C542 1.246 . S
O544 Zn524 1.985 . S
O544 C554 1.245 1_565 S
O545 Zn525 1.970 . S
O545 C554 1.263 . S
O546 Zn531 1.985 . S
O546 C558 1.245 1_565 S
O547 Zn530 1.970 . S
O547 C558 1.263 . S
O548 Zn534 1.985 . S
O548 C563 1.245 1_565 S
O549 Zn536 1.970 . S
O549 C563 1.263 . S
C550 O561 1.262 . S
C550 O562 1.245 . S
O551 Zn538 1.985 . S
O551 C569 1.245 1_565 S
O552 Zn541 1.970 . S
O552 C569 1.263 . S
O553 Zn531 1.955 . S
O553 C572 1.276 . S
C554 O544 1.245 1_545 S
C554 O545 1.263 . S
O555 Zn524 1.955 . S
O555 C574 1.276 . S
C556 O564 1.262 . S
C556 O565 1.245 . S
O557 C528 1.276 . S
O557 Zn534 1.955 . S
C558 O546 1.245 1_545 S
C558 O547 1.263 . S
O559 Zn538 1.955 . S
O559 C542 1.276 . S
C560 O567 1.262 . S
C560 O568 1.245 . S
O561 Zn525 1.945 . S
O561 C550 1.262 . S
O562 Zn541 1.981 . S
O562 C550 1.245 . S
C563 O548 1.245 1_545 S
C563 O549 1.263 . S
O564 Zn530 1.945 . S
O564 C556 1.262 . S
O565 Zn536 1.981 . S
O565 C556 1.245 . S
C566 O570 1.262 . S
C566 O571 1.245 . S
O567 Zn536 1.945 . S
O567 C560 1.262 . S
O568 Zn525 1.981 . S
O568 C560 1.245 . S
C569 O551 1.245 1_545 S
C569 O552 1.263 . S
O570 Zn541 1.945 . S
O570 C566 1.262 . S
O571 Zn530 1.981 . S
O571 C566 1.245 . S
C572 O553 1.276 . S
C572 O573 1.246 . S
O573 C572 1.246 . S
C574 O555 1.276 . S
C574 O575 1.246 . S
O575 C574 1.246 . S
C576 C577 1.369 . S
C576 C578 1.419 . S
C576 H580 0.930 . S
C577 C576 1.369 . S
C577 C586 1.429 . S
C578 C576 1.419 . S
C578 C579 1.363 . S
C578 H581 0.929 . S
C579 C578 1.363 . S
C579 C585 1.428 . S
H580 C576 0.930 . S
H581 C578 0.929 . S
S582 N583 1.613 . S
S582 N584 1.610 . S
N583 S582 1.613 . S
N583 C586 1.350 . S
N584 S582 1.610 . S
N584 C585 1.351 . S
C585 C579 1.428 . S
C585 N584 1.351 . S
C585 C586 1.434 . S
C586 C577 1.429 . S
C586 N583 1.350 . S
C586 C585 1.434 . S
C587 C588 1.369 . S
C587 C589 1.419 . S
C587 H591 0.930 . S
C588 C587 1.369 . S
C588 C597 1.429 . S
C589 C587 1.419 . S
C589 C590 1.363 . S
C589 H592 0.929 . S
C590 C589 1.363 . S
C590 C596 1.428 . S
H591 C587 0.930 . S
H592 C589 0.929 . S
S593 N594 1.613 . S
S593 N595 1.610 . S
N594 S593 1.613 . S
N594 C597 1.350 . S
N595 S593 1.610 . S
N595 C596 1.351 . S
C596 C590 1.428 . S
C596 N595 1.351 . S
C596 C597 1.434 . S
C597 C588 1.429 . S
C597 N594 1.350 . S
C597 C596 1.434 . S
C598 C599 1.369 . S
C598 C600 1.419 . S
C598 H602 0.930 . S
C599 C598 1.369 . S
C599 C608 1.429 . S
C600 C598 1.419 . S
C600 C601 1.363 . S
C600 H603 0.929 . S
C601 C600 1.363 . S
C601 C607 1.428 . S
H602 C598 0.930 . S
H603 C600 0.929 . S
S604 N605 1.613 . S
S604 N606 1.610 . S
N605 S604 1.613 . S
N605 C608 1.350 . S
N606 S604 1.610 . S
N606 C607 1.351 . S
C607 C601 1.428 . S
C607 N606 1.351 . S
C607 C608 1.434 . S
C608 C599 1.429 . S
C608 N605 1.350 . S
C608 C607 1.434 . S
C609 C610 1.369 . S
C609 C611 1.419 . S
C609 H613 0.930 . S
C610 C609 1.369 . S
C610 C619 1.429 . S
C611 C609 1.419 . S
C611 C612 1.363 . S
C611 H614 0.929 . S
C612 C611 1.363 . S
C612 C618 1.428 . S
H613 C609 0.930 . S
H614 C611 0.929 . S
S615 N616 1.613 . S
S615 N617 1.610 . S
N616 S615 1.613 . S
N616 C619 1.350 . S
N617 S615 1.610 . S
N617 C618 1.351 . S
C618 C612 1.428 . S
C618 N617 1.351 . S
C618 C619 1.434 . S
C619 C610 1.429 . S
C619 N616 1.350 . S
C619 C618 1.434 . S
C620 C621 1.369 . S
C620 C622 1.419 . S
C620 H624 0.930 . S
C621 C620 1.369 . S
C621 C630 1.429 . S
C622 C620 1.419 . S
C622 C623 1.363 . S
C622 H625 0.929 . S
C623 C622 1.363 . S
C623 C629 1.428 . S
H624 C620 0.930 . S
H625 C622 0.929 . S
S626 N627 1.613 . S
S626 N628 1.610 . S
N627 S626 1.613 . S
N627 C630 1.350 . S
N628 S626 1.610 . S
N628 C629 1.351 . S
C629 C623 1.428 . S
C629 N628 1.351 . S
C629 C630 1.434 . S
C630 C621 1.429 . S
C630 N627 1.350 . S
C630 C629 1.434 . S
C631 C632 1.369 . S
C631 C633 1.419 . S
C631 H635 0.930 . S
C632 C631 1.369 . S
C632 C641 1.429 . S
C633 C631 1.419 . S
C633 C634 1.363 . S
C633 H636 0.929 . S
C634 C633 1.363 . S
C634 C640 1.428 . S
H635 C631 0.930 . S
H636 C633 0.929 . S
S637 N638 1.613 . S
S637 N639 1.610 . S
N638 S637 1.613 . S
N638 C641 1.350 . S
N639 S637 1.610 . S
N639 C640 1.351 . S
C640 C634 1.428 . S
C640 N639 1.351 . S
C640 C641 1.434 . S
C641 C632 1.429 . S
C641 N638 1.350 . S
C641 C640 1.434 . S
C642 C643 1.369 . S
C642 C644 1.419 . S
C642 H646 0.930 . S
C643 C642 1.369 . S
C643 C652 1.429 . S
C644 C642 1.419 . S
C644 C645 1.363 . S
C644 H647 0.929 . S
C645 C644 1.363 . S
C645 C651 1.428 . S
H646 C642 0.930 . S
H647 C644 0.929 . S
S648 N649 1.613 . S
S648 N650 1.610 . S
N649 S648 1.613 . S
N649 C652 1.350 . S
N650 S648 1.610 . S
N650 C651 1.351 . S
C651 C645 1.428 . S
C651 N650 1.351 . S
C651 C652 1.434 . S
C652 C643 1.429 . S
C652 N649 1.350 . S
C652 C651 1.434 . S
C653 C654 1.369 . S
C653 C655 1.419 . S
C653 H657 0.930 . S
C654 C653 1.369 . S
C654 C663 1.429 . S
C655 C653 1.419 . S
C655 C656 1.363 . S
C655 H658 0.929 . S
C656 C655 1.363 . S
C656 C662 1.428 . S
H657 C653 0.930 . S
H658 C655 0.929 . S
S659 N660 1.613 . S
S659 N661 1.610 . S
N660 S659 1.613 . S
N660 C663 1.350 . S
N661 S659 1.610 . S
N661 C662 1.351 . S
C662 C656 1.428 . S
C662 N661 1.351 . S
C662 C663 1.434 . S
C663 C654 1.429 . S
C663 N660 1.350 . S
C663 C662 1.434 . S
C664 C665 1.369 . S
C664 C666 1.419 . S
C664 H668 0.930 . S
C665 C664 1.369 . S
C665 C674 1.429 . S
C666 C664 1.419 . S
C666 C667 1.363 . S
C666 H669 0.929 . S
C667 C666 1.363 . S
C667 C673 1.428 . S
H668 C664 0.930 . S
H669 C666 0.929 . S
S670 N671 1.613 . S
S670 N672 1.610 . S
N671 S670 1.613 . S
N671 C674 1.350 . S
N672 S670 1.610 . S
N672 C673 1.351 . S
C673 C667 1.428 . S
C673 N672 1.351 . S
C673 C674 1.434 . S
C674 C665 1.429 . S
C674 N671 1.350 . S
C674 C673 1.434 . S
C675 C676 1.369 . S
C675 C677 1.419 . S
C675 H679 0.930 . S
C676 C675 1.369 . S
C676 C685 1.429 . S
C677 C675 1.419 . S
C677 C678 1.363 . S
C677 H680 0.929 . S
C678 C677 1.363 . S
C678 C684 1.428 . S
H679 C675 0.930 . S
H680 C677 0.929 . S
S681 N682 1.613 . S
S681 N683 1.610 . S
N682 S681 1.613 . S
N682 C685 1.350 . S
N683 S681 1.610 . S
N683 C684 1.351 . S
C684 C678 1.428 . S
C684 N683 1.351 . S
C684 C685 1.434 . S
C685 C676 1.429 . S
C685 N682 1.350 . S
C685 C684 1.434 . S
C686 C687 1.369 . S
C686 C688 1.419 . S
C686 H690 0.930 . S
C687 C686 1.369 . S
C687 C696 1.429 . S
C688 C686 1.419 . S
C688 C689 1.363 . S
C688 H691 0.929 . S
C689 C688 1.363 . S
C689 C695 1.428 . S
H690 C686 0.930 . S
H691 C688 0.929 . S
S692 N693 1.613 . S
S692 N694 1.610 . S
N693 S692 1.613 . S
N693 C696 1.350 . S
N694 S692 1.610 . S
N694 C695 1.351 . S
C695 C689 1.428 . S
C695 N694 1.351 . S
C695 C696 1.434 . S
C696 C687 1.429 . S
C696 N693 1.350 . S
C696 C695 1.434 . S
C697 C698 1.369 . S
C697 C699 1.419 . S
C697 H701 0.930 . S
C698 C697 1.369 . S
C698 C707 1.429 . S
C699 C697 1.419 . S
C699 C700 1.363 . S
C699 H702 0.929 . S
C700 C699 1.363 . S
C700 C706 1.428 . S
H701 C697 0.930 . S
H702 C699 0.929 . S
S703 N704 1.613 . S
S703 N705 1.610 . S
N704 S703 1.613 . S
N704 C707 1.350 . S
N705 S703 1.610 . S
N705 C706 1.351 . S
C706 C700 1.428 . S
C706 N705 1.351 . S
C706 C707 1.434 . S
C707 C698 1.429 . S
C707 N704 1.350 . S
C707 C706 1.434 . S
C708 C709 1.369 1_556 S
C708 C710 1.419 . S
C708 H712 0.930 . S
C709 C708 1.369 1_554 S
C709 C718 1.429 . S
C710 C708 1.419 . S
C710 C711 1.363 1_556 S
C710 H713 0.929 . S
C711 C710 1.363 1_554 S
C711 C717 1.428 . S
H712 C708 0.930 . S
H713 C710 0.929 . S
S714 N715 1.613 . S
S714 N716 1.610 . S
N715 S714 1.613 . S
N715 C718 1.350 . S
N716 S714 1.610 . S
N716 C717 1.351 . S
C717 C711 1.428 . S
C717 N716 1.351 . S
C717 C718 1.434 . S
C718 C709 1.429 . S
C718 N715 1.350 . S
C718 C717 1.434 . S
C719 C720 1.369 . S
C719 C721 1.419 . S
C719 H723 0.930 . S
C720 C719 1.369 . S
C720 C729 1.429 1_554 S
C721 C719 1.419 . S
C721 C722 1.363 . S
C721 H724 0.929 . S
C722 C721 1.363 . S
C722 C728 1.428 1_554 S
H723 C719 0.930 . S
H724 C721 0.929 . S
S725 N726 1.613 . S
S725 N727 1.610 . S
N726 S725 1.613 . S
N726 C729 1.350 . S
N727 S725 1.610 . S
N727 C728 1.351 . S
C728 C722 1.428 1_556 S
C728 N727 1.351 . S
C728 C729 1.434 . S
C729 C720 1.429 1_556 S
C729 N726 1.350 . S
C729 C728 1.434 . S
C730 C731 1.369 1_556 S
C730 C732 1.419 . S
C730 H734 0.930 . S
C731 C730 1.369 1_554 S
C731 C740 1.429 . S
C732 C730 1.419 . S
C732 C733 1.363 1_556 S
C732 H735 0.929 . S
C733 C732 1.363 1_554 S
C733 C739 1.428 . S
H734 C730 0.930 . S
H735 C732 0.929 . S
S736 N737 1.613 . S
S736 N738 1.610 . S
N737 S736 1.613 . S
N737 C740 1.350 . S
N738 S736 1.610 . S
N738 C739 1.351 . S
C739 C733 1.428 . S
C739 N738 1.351 . S
C739 C740 1.434 . S
C740 C731 1.429 . S
C740 N737 1.350 . S
C740 C739 1.434 . S
C741 C742 1.369 1_556 S
C741 C743 1.419 . S
C741 H745 0.930 . S
C742 C741 1.369 1_554 S
C742 C751 1.429 . S
C743 C741 1.419 . S
C743 C744 1.363 1_556 S
C743 H746 0.929 . S
C744 C743 1.363 1_554 S
C744 C750 1.428 . S
H745 C741 0.930 . S
H746 C743 0.929 . S
S747 N748 1.613 . S
S747 N749 1.610 . S
N748 S747 1.613 . S
N748 C751 1.350 . S
N749 S747 1.610 . S
N749 C750 1.351 . S
C750 C744 1.428 . S
C750 N749 1.351 . S
C750 C751 1.434 . S
C751 C742 1.429 . S
C751 N748 1.350 . S
C751 C750 1.434 . S
C752 C753 1.369 . S
C752 C754 1.419 . S
C752 H756 0.930 . S
C753 C752 1.369 . S
C753 C762 1.429 1_455 S
C754 C752 1.419 . S
C754 C755 1.363 . S
C754 H757 0.929 . S
C755 C754 1.363 . S
C755 C761 1.424 1_455 S
H756 C752 0.930 . S
H757 C754 0.929 . S
S758 N759 1.613 . S
S758 N760 1.610 . S
N759 S758 1.613 . S
N759 C762 1.350 . S
N760 S758 1.610 . S
N760 C761 1.356 . S
C761 C755 1.424 1_655 S
C761 N760 1.356 . S
C761 C762 1.436 . S
C762 C753 1.429 1_655 S
C762 N759 1.350 . S
C762 C761 1.436 . S
C763 C764 1.369 . S
C763 C765 1.419 . S
C763 H767 0.930 . S
C764 C763 1.369 . S
C764 C773 1.429 . S
C765 C763 1.419 . S
C765 C766 1.363 . S
C765 H768 0.929 . S
C766 C765 1.363 . S
C766 C772 1.428 . S
H767 C763 0.930 . S
H768 C765 0.929 . S
S769 N770 1.613 . S
S769 N771 1.617 . S
N770 S769 1.613 . S
N770 C773 1.350 1_565 S
N771 S769 1.617 . S
N771 C772 1.346 1_565 S
C772 C766 1.428 . S
C772 N771 1.346 1_545 S
C772 C773 1.434 . S
C773 C764 1.429 . S
C773 N770 1.350 1_545 S
C773 C772 1.434 . S
C774 C775 1.369 . S
C774 C776 1.419 . S
C774 H778 0.930 . S
C775 C774 1.369 . S
C775 C784 1.429 1_455 S
C776 C774 1.419 . S
C776 C777 1.363 . S
C776 H779 0.929 . S
C777 C776 1.363 . S
C777 C783 1.428 1_455 S
H778 C774 0.930 . S
H779 C776 0.929 . S
S780 N781 1.613 . S
S780 N782 1.610 . S
N781 S780 1.613 . S
N781 C784 1.350 . S
N782 S780 1.610 . S
N782 C783 1.351 . S
C783 C777 1.428 1_655 S
C783 N782 1.351 . S
C783 C784 1.434 . S
C784 C775 1.429 1_655 S
C784 N781 1.350 . S
C784 C783 1.434 . S
C785 C786 1.369 . S
C785 C787 1.419 . S
C785 H789 0.942 . S
C786 C785 1.369 . S
C786 C795 1.429 . S
C787 C785 1.419 . S
C787 C788 1.363 . S
C787 H790 0.929 1_545 S
C788 C787 1.363 . S
C788 C794 1.428 . S
H789 C785 0.942 . S
H790 C787 0.929 1_565 S
S791 N792 1.613 . S
S791 N793 1.610 . S
N792 S791 1.613 . S
N792 C795 1.350 . S
N793 S791 1.610 . S
N793 C794 1.351 . S
C794 C788 1.428 . S
C794 N793 1.351 . S
C794 C795 1.434 . S
C795 C786 1.429 . S
C795 N792 1.350 . S
C795 C794 1.434 . S
C796 C797 1.369 . S
C796 C798 1.419 . S
C796 H800 0.930 . S
C797 C796 1.369 . S
C797 C806 1.429 . S
C798 C796 1.419 . S
C798 C799 1.363 . S
C798 H801 0.929 . S
C799 C798 1.363 . S
C799 C805 1.428 . S
H800 C796 0.930 . S
H801 C798 0.929 . S
S802 N803 1.613 . S
S802 N804 1.610 . S
N803 S802 1.613 . S
N803 C806 1.350 1_655 S
N804 S802 1.610 . S
N804 C805 1.351 1_655 S
C805 C799 1.428 . S
C805 N804 1.351 1_455 S
C805 C806 1.434 . S
C806 C797 1.429 . S
C806 N803 1.350 1_455 S
C806 C805 1.434 . S
C807 C808 1.369 . S
C807 C809 1.419 . S
C807 H811 0.930 . S
C808 C807 1.369 . S
C808 C817 1.429 . S
C809 C807 1.419 . S
C809 C810 1.363 . S
C809 H812 0.929 . S
C810 C809 1.363 . S
C810 C816 1.428 . S
H811 C807 0.930 . S
H812 C809 0.929 . S
S813 N814 1.613 . S
S813 N815 1.610 . S
N814 S813 1.613 . S
N814 C817 1.350 . S
N815 S813 1.610 . S
N815 C816 1.351 . S
C816 C810 1.428 . S
C816 N815 1.351 . S
C816 C817 1.434 . S
C817 C808 1.429 . S
C817 N814 1.350 . S
C817 C816 1.434 . S
C818 C819 1.369 . S
C818 C820 1.419 . S
C818 H822 0.930 . S
C819 C818 1.369 . S
C819 C828 1.429 1_455 S
C820 C818 1.419 . S
C820 C821 1.363 . S
C820 H823 0.929 . S
C821 C820 1.363 . S
C821 C827 1.428 1_455 S
H822 C818 0.930 . S
H823 C820 0.929 . S
S824 N825 1.613 . S
S824 N826 1.610 . S
N825 S824 1.613 . S
N825 C828 1.350 . S
N826 S824 1.610 . S
N826 C827 1.351 . S
C827 C821 1.428 1_655 S
C827 N826 1.351 . S
C827 C828 1.434 . S
C828 C819 1.429 1_655 S
C828 N825 1.350 . S
C828 C827 1.434 . S
C829 C830 1.369 1_565 S
C829 C831 1.419 . S
C829 H833 0.930 . S
C830 C829 1.369 1_545 S
C830 C839 1.429 . S
C831 C829 1.419 . S
C831 C832 1.363 1_565 S
C831 H834 0.929 . S
C832 C831 1.363 1_545 S
C832 C838 1.428 . S
H833 C829 0.930 . S
H834 C831 0.929 . S
S835 N836 1.613 . S
S835 N837 1.610 . S
N836 S835 1.613 . S
N836 C839 1.350 . S
N837 S835 1.610 . S
N837 C838 1.351 . S
C838 C832 1.428 . S
C838 N837 1.351 . S
C838 C839 1.434 . S
C839 C830 1.429 . S
C839 N836 1.350 . S
C839 C838 1.434 . S
C840 C841 1.369 . S
C840 C842 1.419 . S
C840 H844 0.930 . S
C841 C840 1.369 . S
C841 C850 1.429 . S
C842 C840 1.419 . S
C842 C843 1.363 . S
C842 H845 0.929 . S
C843 C842 1.363 . S
C843 C849 1.428 . S
H844 C840 0.930 . S
H845 C842 0.929 . S
S846 N847 1.613 1_655 S
S846 N848 1.610 1_655 S
N847 S846 1.613 1_455 S
N847 C850 1.350 . S
N848 S846 1.610 1_455 S
N848 C849 1.351 . S
C849 C843 1.428 . S
C849 N848 1.351 . S
C849 C850 1.434 . S
C850 C841 1.429 . S
C850 N847 1.350 . S
C850 C849 1.434 . S
C851 C852 1.369 . S
C851 C853 1.419 . S
C851 H855 0.930 . S
C852 C851 1.369 . S
C852 C861 1.429 . S
C853 C851 1.419 . S
C853 C854 1.363 . S
C853 H856 0.929 . S
C854 C853 1.363 . S
C854 C860 1.428 . S
H855 C851 0.930 . S
H856 C853 0.929 . S
S857 N858 1.613 . S
S857 N859 1.610 . S
N858 S857 1.613 . S
N858 C861 1.350 1_565 S
N859 S857 1.610 . S
N859 C860 1.351 1_565 S
C860 C854 1.428 . S
C860 N859 1.351 1_545 S
C860 C861 1.434 . S
C861 C852 1.429 . S
C861 N858 1.350 1_545 S
C861 C860 1.434 . S
C862 C863 1.369 . S
C862 C864 1.419 . S
C862 H866 0.930 . S
C863 C862 1.369 . S
C863 C872 1.429 . S
C864 C862 1.419 . S
C864 C865 1.363 . S
C864 H867 0.929 . S
C865 C864 1.363 . S
C865 C871 1.428 . S
H866 C862 0.930 . S
H867 C864 0.929 . S
S868 N869 1.613 . S
S868 N870 1.610 . S
N869 S868 1.613 . S
N869 C872 1.350 . S
N870 S868 1.610 . S
N870 C871 1.351 . S
C871 C865 1.428 . S
C871 N870 1.351 . S
C871 C872 1.434 . S
C872 C863 1.429 . S
C872 N869 1.350 . S
C872 C871 1.434 . S
C873 C874 1.369 1_565 S
C873 C875 1.419 . S
C873 H877 0.930 . S
C874 C873 1.369 1_545 S
C874 C883 1.429 . S
C875 C873 1.419 . S
C875 C876 1.363 1_565 S
C875 H878 0.929 . S
C876 C875 1.363 1_545 S
C876 C882 1.428 . S
H877 C873 0.930 . S
H878 C875 0.929 . S
S879 N880 1.613 . S
S879 N881 1.610 . S
N880 S879 1.613 . S
N880 C883 1.350 . S
N881 S879 1.610 . S
N881 C882 1.351 . S
C882 C876 1.428 . S
C882 N881 1.351 . S
C882 C883 1.434 . S
C883 C874 1.429 . S
C883 N880 1.350 . S
C883 C882 1.434 . S
C884 C885 1.369 . S
C884 C886 1.419 . S
C884 H888 0.930 . S
C885 C884 1.369 . S
C885 C894 1.429 . S
C886 C884 1.419 . S
C886 C887 1.363 . S
C886 H889 0.929 . S
C887 C886 1.363 . S
C887 C893 1.428 . S
H888 C884 0.930 . S
H889 C886 0.929 . S
S890 N891 1.613 . S
S890 N892 1.610 1_655 S
N891 S890 1.613 . S
N891 C894 1.350 1_655 S
N892 S890 1.610 1_455 S
N892 C893 1.351 . S
C893 C887 1.428 . S
C893 N892 1.351 . S
C893 C894 1.434 . S
C894 C885 1.429 . S
C894 N891 1.350 1_455 S
C894 C893 1.434 . S
C895 C896 1.369 1_565 S
C895 C897 1.419 . S
C895 H899 0.930 . S
C896 C895 1.369 1_545 S
C896 C905 1.429 . S
C897 C895 1.419 . S
C897 C898 1.363 1_565 S
C897 H900 0.929 . S
C898 C897 1.363 1_545 S
C898 C904 1.428 . S
H899 C895 0.930 . S
H900 C897 0.929 . S
S901 N902 1.613 . S
S901 N903 1.610 . S
N902 S901 1.613 . S
N902 C905 1.350 . S
N903 S901 1.610 . S
N903 C904 1.351 . S
C904 C898 1.428 . S
C904 N903 1.351 . S
C904 C905 1.434 . S
C905 C896 1.429 . S
C905 N902 1.350 . S
C905 C904 1.434 . S
C906 C907 1.369 . S
C906 C908 1.419 . S
C906 H910 0.930 . S
C907 C906 1.369 . S
C907 C916 1.429 . S
C908 C906 1.419 . S
C908 C909 1.363 . S
C908 H911 0.929 . S
C909 C908 1.363 . S
C909 C915 1.428 . S
H910 C906 0.930 . S
H911 C908 0.929 . S
S912 N913 1.613 . S
S912 N914 1.610 . S
N913 S912 1.613 . S
N913 C916 1.350 . S
N914 S912 1.610 . S
N914 C915 1.351 . S
C915 C909 1.428 . S
C915 N914 1.351 . S
C915 C916 1.434 . S
C916 C907 1.429 . S
C916 N913 1.350 . S
C916 C915 1.434 . S
C917 C918 1.369 . S
C917 C919 1.419 . S
C917 H921 0.930 . S
C918 C917 1.369 . S
C918 C927 1.429 . S
C919 C917 1.419 . S
C919 C920 1.363 . S
C919 H922 0.929 1_545 S
C920 C919 1.363 . S
C920 C926 1.428 . S
H921 C917 0.930 . S
H922 C919 0.929 1_565 S
S923 N924 1.613 . S
S923 N925 1.610 . S
N924 S923 1.613 . S
N924 C927 1.350 . S
N925 S923 1.610 . S
N925 C926 1.351 . S
C926 C920 1.428 . S
C926 N925 1.351 . S
C926 C927 1.434 . S
C927 C918 1.429 . S
C927 N924 1.350 . S
C927 C926 1.434 . S
C928 C929 1.369 . S
C928 C930 1.419 . S
C928 H932 0.930 1_545 S
C929 C928 1.369 . S
C929 C938 1.429 . S
C930 C928 1.419 . S
C930 C931 1.363 . S
C930 H933 0.929 1_545 S
C931 C930 1.363 . S
C931 C937 1.428 . S
H932 C928 0.930 1_565 S
H933 C930 0.929 1_565 S
S934 N935 1.613 . S
S934 N936 1.610 . S
N935 S934 1.613 . S
N935 C938 1.350 . S
N936 S934 1.610 . S
N936 C937 1.351 . S
C937 C931 1.428 . S
C937 N936 1.351 . S
C937 C938 1.434 . S
C938 C929 1.429 . S
C938 N935 1.350 . S
C938 C937 1.434 . S
C939 C940 1.369 . S
C939 C941 1.419 1_455 S
C939 H943 0.930 1_455 S
C940 C939 1.369 . S
C940 C949 1.429 . S
C941 C939 1.419 1_655 S
C941 C942 1.363 1_655 S
C941 H944 0.929 . S
C942 C941 1.363 1_455 S
C942 C948 1.428 . S
H943 C939 0.930 1_655 S
H944 C941 0.929 . S
S945 N946 1.613 . S
S945 N947 1.610 . S
N946 S945 1.613 . S
N946 C949 1.350 . S
N947 S945 1.610 . S
N947 C948 1.351 . S
C948 C942 1.428 . S
C948 N947 1.351 . S
C948 C949 1.434 . S
C949 C940 1.429 . S
C949 N946 1.350 . S
C949 C948 1.434 . S
C950 C951 1.369 . S
C950 C952 1.419 . S
C950 H954 0.930 . S
C951 C950 1.369 . S
C951 C960 1.429 . S
C952 C950 1.419 . S
C952 C953 1.363 . S
C952 H955 0.929 . S
C953 C952 1.363 . S
C953 C959 1.428 . S
H954 C950 0.930 . S
H955 C952 0.929 . S
S956 N957 1.613 . S
S956 N958 1.610 . S
N957 S956 1.613 . S
N957 C960 1.350 . S
N958 S956 1.610 . S
N958 C959 1.351 . S
C959 C953 1.428 . S
C959 N958 1.351 . S
C959 C960 1.434 . S
C960 C951 1.429 . S
C960 N957 1.350 . S
C960 C959 1.434 . S
C961 C962 1.369 . S
C961 C963 1.419 . S
C961 H965 0.930 . S
C962 C961 1.369 . S
C962 C971 1.429 1_455 S
C963 C961 1.419 . S
C963 C964 1.363 . S
C963 H966 0.929 . S
C964 C963 1.363 . S
C964 C970 1.428 1_455 S
H965 C961 0.930 . S
H966 C963 0.929 . S
S967 N968 1.613 . S
S967 N969 1.610 . S
N968 S967 1.613 . S
N968 C971 1.350 . S
N969 S967 1.610 . S
N969 C970 1.351 . S
C970 C964 1.428 1_655 S
C970 N969 1.351 . S
C970 C971 1.434 . S
C971 C962 1.429 1_655 S
C971 N968 1.350 . S
C971 C970 1.434 . S
C972 C973 1.369 . S
C972 C974 1.419 . S
C972 H976 0.930 . S
C973 C972 1.369 . S
C973 C982 1.429 . S
C974 C972 1.419 . S
C974 C975 1.363 . S
C974 H977 0.929 . S
C975 C974 1.363 . S
C975 C981 1.428 . S
H976 C972 0.930 . S
H977 C974 0.929 . S
S978 N979 1.612 1_565 S
S978 N980 1.607 1_565 S
N979 S978 1.612 1_545 S
N979 C982 1.354 . S
N980 S978 1.607 1_545 S
N980 C981 1.351 . S
C981 C975 1.428 . S
C981 N980 1.351 . S
C981 C982 1.434 . S
C982 C973 1.429 . S
C982 N979 1.354 . S
C982 C981 1.434 . S
C983 C984 1.369 . S
C983 C985 1.419 . S
C983 H987 0.930 . S
C984 C983 1.369 . S
C984 C993 1.429 . S
C985 C983 1.419 . S
C985 C986 1.363 . S
C985 H988 0.929 . S
C986 C985 1.363 . S
C986 C992 1.428 . S
H987 C983 0.930 . S
H988 C985 0.929 . S
S989 N990 1.613 . S
S989 N991 1.610 1_655 S
N990 S989 1.613 . S
N990 C993 1.350 1_655 S
N991 S989 1.610 1_455 S
N991 C992 1.351 . S
C992 C986 1.428 . S
C992 N991 1.351 . S
C992 C993 1.434 . S
C993 C984 1.429 . S
C993 N990 1.350 1_455 S
C993 C992 1.434 . S
C994 C995 1.369 . S
C994 C996 1.419 . S
C994 H998 0.930 . S
C995 C994 1.369 . S
C995 C1004 1.429 . S
C996 C994 1.419 . S
C996 C997 1.363 . S
C996 H999 0.929 . S
C997 C996 1.363 . S
C997 C1003 1.428 . S
H998 C994 0.930 . S
H999 C996 0.929 . S
S1000 N1001 1.613 . S
S1000 N1002 1.610 . S
N1001 S1000 1.613 . S
N1001 C1004 1.350 1_565 S
N1002 S1000 1.610 . S
N1002 C1003 1.351 1_565 S
C1003 C997 1.428 . S
C1003 N1002 1.351 1_545 S
C1003 C1004 1.434 . S
C1004 C995 1.429 . S
C1004 N1001 1.350 1_545 S
C1004 C1003 1.434 . S
C1005 C1006 1.369 . S
C1005 C1007 1.419 . S
C1005 H1009 0.930 . S
C1006 C1005 1.369 . S
C1006 C1015 1.429 1_455 S
C1007 C1005 1.419 . S
C1007 C1008 1.363 . S
C1007 H1010 0.929 . S
C1008 C1007 1.363 . S
C1008 C1014 1.428 . S
H1009 C1005 0.930 . S
H1010 C1007 0.929 . S
S1011 N1012 1.613 . S
S1011 N1013 1.610 . S
N1012 S1011 1.613 . S
N1012 C1015 1.350 . S
N1013 S1011 1.610 . S
N1013 C1014 1.351 1_655 S
C1014 C1008 1.428 . S
C1014 N1013 1.351 1_455 S
C1014 C1015 1.434 1_455 S
C1015 C1006 1.429 1_655 S
C1015 N1012 1.350 . S
C1015 C1014 1.434 1_655 S
C1016 C1017 1.369 1_556 S
C1016 C1018 1.419 . S
C1016 H1020 0.930 . S
C1017 C1016 1.369 1_554 S
C1017 C1026 1.429 . S
C1018 C1016 1.419 . S
C1018 C1019 1.345 1_556 S
C1018 H1021 0.949 . S
C1019 C1018 1.345 1_554 S
C1019 C1025 1.428 . S
H1020 C1016 0.930 . S
H1021 C1018 0.949 . S
S1022 N1023 1.613 . S
S1022 N1024 1.610 . S
N1023 S1022 1.613 . S
N1023 C1026 1.350 . S
N1024 S1022 1.610 . S
N1024 C1025 1.351 . S
C1025 C1019 1.428 . S
C1025 N1024 1.351 . S
C1025 C1026 1.434 . S
C1026 C1017 1.429 . S
C1026 N1023 1.350 . S
C1026 C1025 1.434 . S
C1027 C1028 1.369 . S
C1027 C1029 1.419 . S
C1027 H1031 0.930 1_554 S
C1028 C1027 1.369 . S
C1028 C1037 1.429 . S
C1029 C1027 1.419 . S
C1029 C1030 1.363 . S
C1029 H1032 0.929 1_554 S
C1030 C1029 1.363 . S
C1030 C1036 1.428 . S
H1031 C1027 0.930 1_556 S
H1032 C1029 0.929 1_556 S
S1033 N1034 1.613 . S
S1033 N1035 1.610 . S
N1034 S1033 1.613 . S
N1034 C1037 1.350 . S
N1035 S1033 1.610 . S
N1035 C1036 1.351 . S
C1036 C1030 1.428 . S
C1036 N1035 1.351 . S
C1036 C1037 1.434 . S
C1037 C1028 1.429 . S
C1037 N1034 1.350 . S
C1037 C1036 1.434 . S
C1038 C1039 1.369 1_556 S
C1038 C1040 1.419 . S
C1038 H1042 0.930 . S
C1039 C1038 1.369 1_554 S
C1039 C1048 1.429 . S
C1040 C1038 1.419 . S
C1040 C1041 1.363 1_556 S
C1040 H1043 0.929 . S
C1041 C1040 1.363 1_554 S
C1041 C1047 1.428 . S
H1042 C1038 0.930 . S
H1043 C1040 0.929 . S
S1044 N1045 1.613 . S
S1044 N1046 1.610 . S
N1045 S1044 1.613 . S
N1045 C1048 1.350 . S
N1046 S1044 1.610 . S
N1046 C1047 1.351 . S
C1047 C1041 1.428 . S
C1047 N1046 1.351 . S
C1047 C1048 1.434 . S
C1048 C1039 1.429 . S
C1048 N1045 1.350 . S
C1048 C1047 1.434 . S
C1049 C1050 1.369 . S
C1049 C1051 1.419 . S
C1049 H1053 0.930 . S
C1050 C1049 1.369 . S
C1050 C1059 1.429 1_554 S
C1051 C1049 1.419 . S
C1051 C1052 1.363 1_554 S
C1051 H1054 0.929 . S
C1052 C1051 1.363 1_556 S
C1052 C1058 1.428 . S
H1053 C1049 0.930 . S
H1054 C1051 0.929 . S
S1055 N1056 1.613 . S
S1055 N1057 1.610 . S
N1056 S1055 1.613 . S
N1056 C1059 1.350 . S
N1057 S1055 1.610 . S
N1057 C1058 1.351 . S
C1058 C1052 1.428 . S
C1058 N1057 1.351 . S
C1058 C1059 1.434 . S
C1059 C1050 1.429 1_556 S
C1059 N1056 1.350 . S
C1059 C1058 1.434 . S
C1060 C1061 1.369 . S
C1060 C1062 1.419 . S
C1060 H1064 0.930 . S
C1061 C1060 1.369 . S
C1061 C1070 1.429 1_554 S
C1062 C1060 1.419 . S
C1062 C1063 1.363 . S
C1062 H1065 0.929 . S
C1063 C1062 1.363 . S
C1063 C1069 1.428 1_554 S
H1064 C1060 0.930 . S
H1065 C1062 0.929 . S
S1066 N1067 1.613 . S
S1066 N1068 1.610 . S
N1067 S1066 1.613 . S
N1067 C1070 1.350 . S
N1068 S1066 1.610 . S
N1068 C1069 1.351 . S
C1069 C1063 1.428 1_556 S
C1069 N1068 1.351 . S
C1069 C1070 1.434 . S
C1070 C1061 1.429 1_556 S
C1070 N1067 1.350 . S
C1070 C1069 1.434 . S
C1071 C1072 1.369 . S
C1071 C1073 1.419 . S
C1071 H1075 0.930 . S
C1072 C1071 1.369 . S
C1072 C1081 1.429 1_554 S
C1073 C1071 1.419 . S
C1073 C1074 1.363 . S
C1073 H1076 0.929 . S
C1074 C1073 1.363 . S
C1074 C1080 1.428 1_554 S
H1075 C1071 0.930 . S
H1076 C1073 0.929 . S
S1077 N1078 1.613 . S
S1077 N1079 1.610 . S
N1078 S1077 1.613 . S
N1078 C1081 1.350 . S
N1079 S1077 1.610 . S
N1079 C1080 1.351 . S
C1080 C1074 1.428 1_556 S
C1080 N1079 1.351 . S
C1080 C1081 1.434 . S
C1081 C1072 1.429 1_556 S
C1081 N1078 1.350 . S
C1081 C1080 1.434 . S
C1082 C1083 1.369 . S
C1082 C1084 1.419 . S
C1082 H1086 0.930 . S
C1083 C1082 1.369 . S
C1083 C1092 1.429 1_554 S
C1084 C1082 1.419 . S
C1084 C1085 1.363 . S
C1084 H1087 0.929 . S
C1085 C1084 1.363 . S
C1085 C1091 1.428 1_554 S
H1086 C1082 0.930 . S
H1087 C1084 0.929 . S
S1088 N1089 1.613 . S
S1088 N1090 1.610 . S
N1089 S1088 1.613 . S
N1089 C1092 1.350 . S
N1090 S1088 1.610 . S
N1090 C1091 1.351 . S
C1091 C1085 1.428 1_556 S
C1091 N1090 1.351 . S
C1091 C1092 1.434 . S
C1092 C1083 1.429 1_556 S
C1092 N1089 1.350 . S
C1092 C1091 1.434 . S
C1093 C1094 1.369 1_556 S
C1093 C1095 1.419 . S
C1093 H1097 0.930 . S
C1094 C1093 1.369 1_554 S
C1094 C1103 1.429 . S
C1095 C1093 1.419 . S
C1095 C1096 1.363 1_556 S
C1095 H1098 0.929 . S
C1096 C1095 1.363 1_554 S
C1096 C1102 1.428 . S
H1097 C1093 0.930 . S
H1098 C1095 0.929 . S
S1099 N1100 1.613 . S
S1099 N1101 1.610 . S
N1100 S1099 1.613 . S
N1100 C1103 1.350 . S
N1101 S1099 1.610 . S
N1101 C1102 1.351 . S
C1102 C1096 1.428 . S
C1102 N1101 1.351 . S
C1102 C1103 1.434 . S
C1103 C1094 1.429 . S
C1103 N1100 1.350 . S
C1103 C1102 1.434 . S
C1104 C1105 1.369 . S
C1104 C1106 1.419 . S
C1104 H1108 0.930 . S
C1105 C1104 1.369 . S
C1105 C1114 1.429 . S
C1106 C1104 1.419 . S
C1106 C1107 1.363 . S
C1106 H1109 0.929 . S
C1107 C1106 1.363 . S
C1107 C1113 1.428 . S
H1108 C1104 0.930 . S
H1109 C1106 0.929 . S
S1110 N1111 1.613 . S
S1110 N1112 1.610 . S
N1111 S1110 1.613 . S
N1111 C1114 1.350 . S
N1112 S1110 1.610 . S
N1112 C1113 1.351 . S
C1113 C1107 1.428 . S
C1113 N1112 1.351 . S
C1113 C1114 1.434 . S
C1114 C1105 1.429 . S
C1114 N1111 1.350 . S
C1114 C1113 1.434 . S
C1115 C1116 1.369 . S
C1115 C1117 1.419 . S
C1115 H1119 0.930 . S
C1116 C1115 1.369 . S
C1116 C1125 1.429 . S
C1117 C1115 1.419 . S
C1117 C1118 1.363 . S
C1117 H1120 0.929 . S
C1118 C1117 1.363 . S
C1118 C1124 1.428 . S
H1119 C1115 0.930 . S
H1120 C1117 0.929 . S
S1121 N1122 1.613 . S
S1121 N1123 1.610 . S
N1122 S1121 1.613 . S
N1122 C1125 1.350 . S
N1123 S1121 1.610 . S
N1123 C1124 1.351 . S
C1124 C1118 1.428 . S
C1124 N1123 1.351 . S
C1124 C1125 1.434 . S
C1125 C1116 1.429 . S
C1125 N1122 1.350 . S
C1125 C1124 1.434 . S
C1126 C1127 1.369 . S
C1126 C1128 1.419 . S
C1126 H1130 0.930 . S
C1127 C1126 1.369 . S
C1127 C1136 1.429 . S
C1128 C1126 1.419 . S
C1128 C1129 1.363 . S
C1128 H1131 0.929 . S
C1129 C1128 1.363 . S
C1129 C1135 1.428 . S
H1130 C1126 0.930 . S
H1131 C1128 0.929 . S
S1132 N1133 1.613 . S
S1132 N1134 1.610 . S
N1133 S1132 1.613 . S
N1133 C1136 1.350 . S
N1134 S1132 1.610 . S
N1134 C1135 1.351 . S
C1135 C1129 1.428 . S
C1135 N1134 1.351 . S
C1135 C1136 1.434 . S
C1136 C1127 1.429 . S
C1136 N1133 1.350 . S
C1136 C1135 1.434 . S
C1137 C1138 1.369 . S
C1137 C1139 1.419 . S
C1137 H1141 0.930 . S
C1138 C1137 1.369 . S
C1138 C1147 1.429 . S
C1139 C1137 1.419 . S
C1139 C1140 1.363 . S
C1139 H1142 0.929 . S
C1140 C1139 1.363 . S
C1140 C1146 1.428 . S
H1141 C1137 0.930 . S
H1142 C1139 0.929 . S
S1143 N1144 1.613 . S
S1143 N1145 1.610 . S
N1144 S1143 1.613 . S
N1144 C1147 1.350 . S
N1145 S1143 1.610 . S
N1145 C1146 1.351 . S
C1146 C1140 1.428 . S
C1146 N1145 1.351 . S
C1146 C1147 1.434 . S
C1147 C1138 1.429 . S
C1147 N1144 1.350 . S
C1147 C1146 1.434 . S
C1148 C1149 1.369 . S
C1148 C1150 1.419 . S
C1148 H1152 0.930 . S
C1149 C1148 1.369 . S
C1149 C1158 1.429 . S
C1150 C1148 1.419 . S
C1150 C1151 1.363 . S
C1150 H1153 0.929 . S
C1151 C1150 1.363 . S
C1151 C1157 1.428 . S
H1152 C1148 0.930 . S
H1153 C1150 0.929 . S
S1154 N1155 1.613 . S
S1154 N1156 1.610 . S
N1155 S1154 1.613 . S
N1155 C1158 1.350 . S
N1156 S1154 1.610 . S
N1156 C1157 1.351 . S
C1157 C1151 1.428 . S
C1157 N1156 1.351 . S
C1157 C1158 1.434 . S
C1158 C1149 1.429 . S
C1158 N1155 1.350 . S
C1158 C1157 1.434 . S
C1159 C1160 1.369 . S
C1159 C1161 1.419 . S
C1159 H1163 0.930 . S
C1160 C1159 1.369 . S
C1160 C1169 1.429 . S
C1161 C1159 1.419 . S
C1161 C1162 1.363 . S
C1161 H1164 0.929 . S
C1162 C1161 1.363 . S
C1162 C1168 1.428 . S
H1163 C1159 0.930 . S
H1164 C1161 0.929 . S
S1165 N1166 1.613 . S
S1165 N1167 1.610 . S
N1166 S1165 1.613 . S
N1166 C1169 1.350 . S
N1167 S1165 1.610 . S
N1167 C1168 1.351 . S
C1168 C1162 1.428 . S
C1168 N1167 1.351 . S
C1168 C1169 1.434 . S
C1169 C1160 1.429 . S
C1169 N1166 1.350 . S
C1169 C1168 1.434 . S
C1170 C1171 1.369 . S
C1170 C1172 1.419 . S
C1170 H1174 0.930 . S
C1171 C1170 1.369 . S
C1171 C1180 1.429 . S
C1172 C1170 1.419 . S
C1172 C1173 1.363 . S
C1172 H1175 0.929 . S
C1173 C1172 1.363 . S
C1173 C1179 1.428 . S
H1174 C1170 0.930 . S
H1175 C1172 0.929 . S
S1176 N1177 1.613 . S
S1176 N1178 1.610 . S
N1177 S1176 1.613 . S
N1177 C1180 1.350 . S
N1178 S1176 1.610 . S
N1178 C1179 1.351 . S
C1179 C1173 1.428 . S
C1179 N1178 1.351 . S
C1179 C1180 1.434 . S
C1180 C1171 1.429 . S
C1180 N1177 1.350 . S
C1180 C1179 1.434 . S
C1181 C1182 1.369 . S
C1181 C1183 1.419 . S
C1181 H1185 0.930 . S
C1182 C1181 1.369 . S
C1182 C1191 1.429 . S
C1183 C1181 1.419 . S
C1183 C1184 1.363 . S
C1183 H1186 0.929 . S
C1184 C1183 1.363 . S
C1184 C1190 1.428 . S
H1185 C1181 0.930 . S
H1186 C1183 0.929 . S
S1187 N1188 1.613 . S
S1187 N1189 1.610 . S
N1188 S1187 1.613 . S
N1188 C1191 1.350 . S
N1189 S1187 1.610 . S
N1189 C1190 1.351 . S
C1190 C1184 1.428 . S
C1190 N1189 1.351 . S
C1190 C1191 1.434 . S
C1191 C1182 1.429 . S
C1191 N1188 1.350 . S
C1191 C1190 1.434 . S
C1192 C1193 1.369 . S
C1192 C1194 1.419 . S
C1192 H1196 0.930 . S
C1193 C1192 1.369 . S
C1193 C1202 1.429 . S
C1194 C1192 1.419 . S
C1194 C1195 1.363 . S
C1194 H1197 0.929 . S
C1195 C1194 1.363 . S
C1195 C1201 1.428 . S
H1196 C1192 0.930 . S
H1197 C1194 0.929 . S
S1198 N1199 1.613 . S
S1198 N1200 1.610 . S
N1199 S1198 1.613 . S
N1199 C1202 1.350 . S
N1200 S1198 1.610 . S
N1200 C1201 1.351 . S
C1201 C1195 1.428 . S
C1201 N1200 1.351 . S
C1201 C1202 1.434 . S
C1202 C1193 1.429 . S
C1202 N1199 1.350 . S
C1202 C1201 1.434 . S
C1203 C1204 1.369 . S
C1203 C1205 1.419 . S
C1203 H1207 0.930 . S
C1204 C1203 1.369 . S
C1204 C1213 1.429 . S
C1205 C1203 1.419 . S
C1205 C1206 1.363 . S
C1205 H1208 0.929 . S
C1206 C1205 1.363 . S
C1206 C1212 1.428 . S
H1207 C1203 0.930 . S
H1208 C1205 0.929 . S
S1209 N1210 1.613 . S
S1209 N1211 1.610 . S
N1210 S1209 1.613 . S
N1210 C1213 1.350 . S
N1211 S1209 1.610 . S
N1211 C1212 1.351 . S
C1212 C1206 1.428 . S
C1212 N1211 1.351 . S
C1212 C1213 1.434 . S
C1213 C1204 1.429 . S
C1213 N1210 1.350 . S
C1213 C1212 1.434 . S
C1214 C1215 1.369 . S
C1214 C1216 1.419 . S
C1214 H1218 0.930 . S
C1215 C1214 1.369 . S
C1215 C1224 1.429 . S
C1216 C1214 1.419 . S
C1216 C1217 1.363 . S
C1216 H1219 0.929 . S
C1217 C1216 1.363 . S
C1217 C1223 1.428 . S
H1218 C1214 0.930 . S
H1219 C1216 0.929 . S
S1220 N1221 1.613 . S
S1220 N1222 1.610 . S
N1221 S1220 1.613 . S
N1221 C1224 1.350 . S
N1222 S1220 1.610 . S
N1222 C1223 1.351 . S
C1223 C1217 1.428 . S
C1223 N1222 1.351 . S
C1223 C1224 1.434 . S
C1224 C1215 1.429 . S
C1224 N1221 1.350 . S
C1224 C1223 1.434 . S
C1225 C1226 1.369 . S
C1225 C1227 1.419 . S
C1225 H1229 0.930 . S
C1226 C1225 1.369 . S
C1226 C1235 1.429 . S
C1227 C1225 1.419 . S
C1227 C1228 1.363 . S
C1227 H1230 0.929 . S
C1228 C1227 1.363 . S
C1228 C1234 1.428 . S
H1229 C1225 0.930 . S
H1230 C1227 0.929 . S
S1231 N1232 1.613 . S
S1231 N1233 1.610 . S
N1232 S1231 1.613 . S
N1232 C1235 1.350 . S
N1233 S1231 1.610 . S
N1233 C1234 1.351 . S
C1234 C1228 1.428 . S
C1234 N1233 1.351 . S
C1234 C1235 1.434 . S
C1235 C1226 1.429 . S
C1235 N1232 1.350 . S
C1235 C1234 1.434 . S
C1236 C1237 1.369 . S
C1236 C1238 1.419 . S
C1236 H1240 0.930 . S
C1237 C1236 1.369 . S
C1237 C1246 1.429 . S
C1238 C1236 1.419 . S
C1238 C1239 1.363 . S
C1238 H1241 0.929 . S
C1239 C1238 1.363 . S
C1239 C1245 1.428 . S
H1240 C1236 0.930 . S
H1241 C1238 0.929 . S
S1242 N1243 1.613 . S
S1242 N1244 1.610 . S
N1243 S1242 1.613 . S
N1243 C1246 1.350 . S
N1244 S1242 1.610 . S
N1244 C1245 1.351 . S
C1245 C1239 1.428 . S
C1245 N1244 1.351 . S
C1245 C1246 1.434 . S
C1246 C1237 1.429 . S
C1246 N1243 1.350 . S
C1246 C1245 1.434 . S
C1247 C1248 1.369 . S
C1247 C1249 1.419 . S
C1247 H1251 0.930 . S
C1248 C1247 1.369 . S
C1248 C1257 1.429 . S
C1249 C1247 1.419 . S
C1249 C1250 1.363 . S
C1249 H1252 0.929 . S
C1250 C1249 1.363 . S
C1250 C1256 1.428 . S
H1251 C1247 0.930 . S
H1252 C1249 0.929 . S
S1253 N1254 1.613 . S
S1253 N1255 1.610 . S
N1254 S1253 1.613 . S
N1254 C1257 1.350 . S
N1255 S1253 1.610 . S
N1255 C1256 1.351 . S
C1256 C1250 1.428 . S
C1256 N1255 1.351 . S
C1256 C1257 1.434 . S
C1257 C1248 1.429 . S
C1257 N1254 1.350 . S
C1257 C1256 1.434 . S
C1258 C1259 1.369 . S
C1258 C1260 1.419 . S
C1258 H1262 0.930 . S
C1259 C1258 1.369 . S
C1259 C1268 1.429 . S
C1260 C1258 1.419 . S
C1260 C1261 1.363 . S
C1260 H1263 0.929 . S
C1261 C1260 1.363 . S
C1261 C1267 1.428 . S
H1262 C1258 0.930 . S
H1263 C1260 0.929 . S
S1264 N1265 1.613 . S
S1264 N1266 1.610 . S
N1265 S1264 1.613 . S
N1265 C1268 1.350 . S
N1266 S1264 1.610 . S
N1266 C1267 1.351 . S
C1267 C1261 1.428 . S
C1267 N1266 1.351 . S
C1267 C1268 1.434 . S
C1268 C1259 1.429 . S
C1268 N1265 1.350 . S
C1268 C1267 1.434 . S
C1269 C1270 1.369 . S
C1269 C1271 1.419 . S
C1269 H1273 0.930 . S
C1270 C1269 1.369 . S
C1270 C1279 1.429 . S
C1271 C1269 1.419 . S
C1271 C1272 1.363 . S
C1271 H1274 0.929 . S
C1272 C1271 1.363 . S
C1272 C1278 1.428 . S
H1273 C1269 0.930 . S
H1274 C1271 0.929 . S
S1275 N1276 1.613 . S
S1275 N1277 1.610 . S
N1276 S1275 1.613 . S
N1276 C1279 1.350 . S
N1277 S1275 1.610 . S
N1277 C1278 1.351 . S
C1278 C1272 1.428 . S
C1278 N1277 1.351 . S
C1278 C1279 1.434 . S
C1279 C1270 1.429 . S
C1279 N1276 1.350 . S
C1279 C1278 1.434 . S
C1280 C1281 1.369 . S
C1280 C1282 1.419 . S
C1280 H1284 0.930 . S
C1281 C1280 1.369 . S
C1281 C1290 1.429 . S
C1282 C1280 1.419 . S
C1282 C1283 1.363 . S
C1282 H1285 0.929 . S
C1283 C1282 1.363 . S
C1283 C1289 1.428 . S
H1284 C1280 0.930 . S
H1285 C1282 0.929 . S
S1286 N1287 1.613 . S
S1286 N1288 1.610 . S
N1287 S1286 1.613 . S
N1287 C1290 1.350 . S
N1288 S1286 1.610 . S
N1288 C1289 1.351 . S
C1289 C1283 1.428 . S
C1289 N1288 1.351 . S
C1289 C1290 1.434 . S
C1290 C1281 1.429 . S
C1290 N1287 1.350 . S
C1290 C1289 1.434 . S
C1291 C1292 1.369 . S
C1291 C1293 1.419 . S
C1291 H1295 0.930 . S
C1292 C1291 1.369 . S
C1292 C1301 1.429 . S
C1293 C1291 1.419 . S
C1293 C1294 1.363 . S
C1293 H1296 0.929 . S
C1294 C1293 1.363 . S
C1294 C1300 1.428 . S
H1295 C1291 0.930 . S
H1296 C1293 0.929 . S
S1297 N1298 1.613 . S
S1297 N1299 1.610 . S
N1298 S1297 1.613 . S
N1298 C1301 1.350 . S
N1299 S1297 1.610 . S
N1299 C1300 1.351 . S
C1300 C1294 1.428 . S
C1300 N1299 1.351 . S
C1300 C1301 1.434 . S
C1301 C1292 1.429 . S
C1301 N1298 1.350 . S
C1301 C1300 1.434 . S
C1302 C1303 1.369 . S
C1302 C1304 1.419 . S
C1302 H1306 0.930 . S
C1303 C1302 1.369 . S
C1303 C1312 1.429 . S
C1304 C1302 1.419 . S
C1304 C1305 1.363 . S
C1304 H1307 0.929 . S
C1305 C1304 1.363 . S
C1305 C1311 1.428 . S
H1306 C1302 0.930 . S
H1307 C1304 0.929 . S
S1308 N1309 1.613 . S
S1308 N1310 1.610 . S
N1309 S1308 1.613 . S
N1309 C1312 1.350 . S
N1310 S1308 1.610 . S
N1310 C1311 1.351 . S
C1311 C1305 1.428 . S
C1311 N1310 1.351 . S
C1311 C1312 1.434 . S
C1312 C1303 1.429 . S
C1312 N1309 1.350 . S
C1312 C1311 1.434 . S
C1313 C1314 1.369 . S
C1313 C1315 1.419 . S
C1313 H1317 0.930 . S
C1314 C1313 1.369 . S
C1314 C1323 1.429 . S
C1315 C1313 1.419 . S
C1315 C1316 1.363 . S
C1315 H1318 0.929 . S
C1316 C1315 1.363 . S
C1316 C1322 1.428 . S
H1317 C1313 0.930 . S
H1318 C1315 0.929 . S
S1319 N1320 1.613 . S
S1319 N1321 1.610 . S
N1320 S1319 1.613 . S
N1320 C1323 1.350 . S
N1321 S1319 1.610 . S
N1321 C1322 1.351 . S
C1322 C1316 1.428 . S
C1322 N1321 1.351 . S
C1322 C1323 1.434 . S
C1323 C1314 1.429 . S
C1323 N1320 1.350 . S
C1323 C1322 1.434 . S
C1324 C1325 1.369 . S
C1324 C1326 1.419 . S
C1324 H1328 0.930 . S
C1325 C1324 1.369 . S
C1325 C1334 1.429 . S
C1326 C1324 1.419 . S
C1326 C1327 1.363 . S
C1326 H1329 0.929 . S
C1327 C1326 1.363 . S
C1327 C1333 1.428 . S
H1328 C1324 0.930 . S
H1329 C1326 0.929 . S
S1330 N1331 1.613 . S
S1330 N1332 1.610 . S
N1331 S1330 1.613 . S
N1331 C1334 1.350 . S
N1332 S1330 1.610 . S
N1332 C1333 1.351 . S
C1333 C1327 1.428 . S
C1333 N1332 1.351 . S
C1333 C1334 1.434 . S
C1334 C1325 1.429 . S
C1334 N1331 1.350 . S
C1334 C1333 1.434 . S
C1335 C1336 1.369 . S
C1335 C1337 1.419 . S
C1335 H1339 0.930 . S
C1336 C1335 1.369 . S
C1336 C1345 1.429 . S
C1337 C1335 1.419 . S
C1337 C1338 1.363 . S
C1337 H1340 0.929 . S
C1338 C1337 1.363 . S
C1338 C1344 1.428 . S
H1339 C1335 0.930 . S
H1340 C1337 0.929 . S
S1341 N1342 1.613 . S
S1341 N1343 1.610 . S
N1342 S1341 1.613 . S
N1342 C1345 1.350 . S
N1343 S1341 1.610 . S
N1343 C1344 1.351 . S
C1344 C1338 1.428 . S
C1344 N1343 1.351 . S
C1344 C1345 1.434 . S
C1345 C1336 1.429 . S
C1345 N1342 1.350 . S
C1345 C1344 1.434 . S
C1346 C1347 1.369 . S
C1346 C1348 1.419 . S
C1346 H1350 0.930 . S
C1347 C1346 1.369 . S
C1347 C1356 1.429 . S
C1348 C1346 1.419 . S
C1348 C1349 1.363 . S
C1348 H1351 0.929 . S
C1349 C1348 1.363 . S
C1349 C1355 1.428 . S
H1350 C1346 0.930 . S
H1351 C1348 0.929 . S
S1352 N1353 1.613 . S
S1352 N1354 1.610 . S
N1353 S1352 1.613 . S
N1353 C1356 1.350 . S
N1354 S1352 1.610 . S
N1354 C1355 1.351 . S
C1355 C1349 1.428 . S
C1355 N1354 1.351 . S
C1355 C1356 1.434 . S
C1356 C1347 1.429 . S
C1356 N1353 1.350 . S
C1356 C1355 1.434 . S
C1357 C1358 1.369 . S
C1357 C1359 1.419 . S
C1357 H1361 0.930 . S
C1358 C1357 1.369 . S
C1358 C1367 1.429 . S
C1359 C1357 1.419 . S
C1359 C1360 1.363 . S
C1359 H1362 0.929 . S
C1360 C1359 1.363 . S
C1360 C1366 1.428 . S
H1361 C1357 0.930 . S
H1362 C1359 0.929 . S
S1363 N1364 1.613 . S
S1363 N1365 1.610 . S
N1364 S1363 1.613 . S
N1364 C1367 1.350 . S
N1365 S1363 1.610 . S
N1365 C1366 1.351 . S
C1366 C1360 1.428 . S
C1366 N1365 1.351 . S
C1366 C1367 1.434 . S
C1367 C1358 1.429 . S
C1367 N1364 1.350 . S
C1367 C1366 1.434 . S
C579 C306 1.573 . S
C577 C260 1.586 . S
C588 C238 1.599 . S
C590 C300 1.573 . S
C601 C268 1.678 . S
C599 C227 1.720 . S
C610 C249 1.737 . S
C612 C282 1.688 . S
C623 C320 2.060 . S
C621 C183 2.101 . S
C634 C407 1.595 . S
C632 C194 1.550 . S
C643 C205 2.145 . S
C645 C334 2.115 . S
C656 C402 1.308 . S
C654 C216 1.267 . S
C665 C139 2.120 . S
C667 C358 2.110 . S
C678 C413 1.646 . S
C676 C150 1.610 . S
C687 C161 2.062 . S
C689 C352 2.080 . S
C698 C172 1.330 . S
C700 C398 1.355 . S
C711 C454 1.397 . S
C709 C128 1.351 . S
C720 C106 1.633 . S
C722 C465 1.680 . S
C731 C95 1.409 . S
C733 C450 1.449 . S
C744 C459 1.729 . S
C742 C117 1.694 1_554 S
C753 C51 1.723 1_455 S
C755 C504 1.714 . S
C764 C62 0.998 . S
C766 C563 1.011 . S
C775 C73 1.849 . S
C777 C520 1.796 . S
C786 C84 1.304 . S
C788 C558 1.302 . S
C799 C522 1.818 . S
C797 C7 1.854 . S
C810 C569 0.974 . S
C808 C18 0.978 . S
C819 C29 1.700 . S
C821 C498 1.685 . S
C832 C554 1.269 . S
C830 C40 1.293 1_545 S
C843 C290 1.557 . S
C841 C8 1.556 . S
C852 C16 1.097 . S
C854 C294 1.229 . S
C863 C30 1.604 . S
C865 C314 1.557 . S
C874 C38 0.925 1_545 S
C876 C309 1.027 . S
C885 C52 1.613 1_455 S
C887 C312 1.588 . S
C898 C298 1.199 . S
C896 C60 0.982 . S
C907 C74 1.572 . S
C909 C296 1.528 . S
C920 C303 1.006 . S
C918 C82 0.864 . S
C931 C366 1.362 . S
C929 C41 1.384 . S
C940 C5 1.553 . S
C942 C416 1.780 . S
C953 C364 1.133 . S
C951 C19 1.163 . S
C964 C400 1.713 . S
C962 C27 1.592 . S
C973 C63 1.109 . S
C975 C342 1.090 . S
C986 C418 1.759 . S
C984 C71 1.557 . S
C997 C348 1.329 . S
C995 C85 1.322 . S
C1008 C394 1.728 . S
C1006 C49 1.636 1_455 S
C1019 C386 1.439 . S
C1017 C93 1.204 . S
C1028 C104 1.093 1_554 S
C1030 C410 1.330 . S
C1041 C346 1.223 . S
C1039 C96 1.180 . S
C1052 C372 1.359 1_556 S
C1050 C115 1.122 1_554 S
C1061 C129 1.149 . S
C1063 C350 1.174 . S
C1072 C126 1.189 . S
C1074 C404 1.411 . S
C1085 C361 1.431 . S
C1083 C107 1.330 . S
C1096 C355 1.471 . S
C1094 C118 1.375 1_554 S
C1107 C438 1.829 . S
C1105 C140 1.799 . S
C1118 C470 1.402 . S
C1116 C148 1.159 . S
C1127 C162 1.772 . S
C1129 C424 1.821 . S
C1140 C468 1.160 . S
C1138 C170 1.015 . S
C1151 C456 1.797 . S
C1149 C184 1.763 . S
C1160 C192 1.113 . S
C1162 C452 1.357 . S
C1171 C206 1.815 . S
C1173 C462 1.863 . S
C1184 C446 1.118 . S
C1182 C214 0.955 . S
C1195 C511 1.309 . S
C1193 C173 1.262 . S
C1204 C137 1.363 . S
C1206 C572 1.650 . S
C1217 C506 1.144 . S
C1215 C151 1.067 . S
C1228 C556 1.644 . S
C1226 C159 1.322 . S
C1239 C502 1.087 . S
C1237 C195 1.001 . S
C1248 C203 1.433 . S
C1250 C574 1.613 . S
C1261 C517 1.263 . S
C1259 C217 1.202 . S
C1272 C550 1.545 . S
C1270 C181 1.403 . S
C1283 C542 1.546 . S
C1281 C225 1.295 . S
C1292 C236 1.491 . S
C1294 C566 1.590 . S
C1305 C508 1.404 . S
C1303 C228 1.425 . S
C1314 C247 1.405 . S
C1316 C528 1.637 . S
C1327 C490 1.433 . S
C1325 C261 1.462 . S
C1338 C560 1.499 . S
C1336 C258 1.356 . S
C1349 C476 1.424 . S
C1347 C239 1.473 . S
C1358 C250 1.422 . S
C1360 C514 1.408 . S
