# Generated by pormake.
# Topology alb, (6,12)-cn, num edge types: 1
# Building blocks:
#     Node 0, Type 0, BuildingBlock: OJICUG_clean_sbu_0, # of connection points: 6
#     Node 1, Type 0, BuildingBlock: OJICUG_clean_sbu_0, # of connection points: 6
#     Node 2, Type 1, BuildingBlock: QEWDON_clean_sbu_0, # of connection points: 12
#     Edge 3, Type (0, 1), BuildingBlock: XIVTED_clean_linker_0, # of connection points: 2
#     Edge 4, Type (0, 1), BuildingBlock: XIVTED_clean_linker_0, # of connection points: 2
#     Edge 5, Type (0, 1), BuildingBlock: XIVTED_clean_linker_0, # of connection points: 2
#     Edge 6, Type (0, 1), BuildingBlock: XIVTED_clean_linker_0, # of connection points: 2
#     Edge 7, Type (0, 1), BuildingBlock: XIVTED_clean_linker_0, # of connection points: 2
#     Edge 8, Type (0, 1), BuildingBlock: XIVTED_clean_linker_0, # of connection points: 2
#     Edge 9, Type (0, 1), BuildingBlock: XIVTED_clean_linker_0, # of connection points: 2
#     Edge 10, Type (0, 1), BuildingBlock: XIVTED_clean_linker_0, # of connection points: 2
#     Edge 11, Type (0, 1), BuildingBlock: XIVTED_clean_linker_0, # of connection points: 2
#     Edge 12, Type (0, 1), BuildingBlock: XIVTED_clean_linker_0, # of connection points: 2
#     Edge 13, Type (0, 1), BuildingBlock: XIVTED_clean_linker_0, # of connection points: 2
#     Edge 14, Type (0, 1), BuildingBlock: XIVTED_clean_linker_0, # of connection points: 2
# Relax obj value: 0.123
# Max RMSD: 0.221
# Mean RMSD: 0.143
data_MOF--net-alb--node1-OJICUG_clean_sbu_0--node2-QEWDON_clean_sbu_0--edge1-XIVTED_clean_linker_0
_symmetry_space_group_name_H-M    P1
_symmetry_Int_Tables_number       1
_symmetry_cell_setting            triclinic
loop_
_symmetry_equiv_pos_as_xyz
'x, y, z'
_cell_length_a     24.312845
_cell_length_b     25.099614
_cell_length_c     20.904375
_cell_angle_alpha  90.012507
_cell_angle_beta   90.787011
_cell_angle_gamma 121.56749
loop_
_atom_site_label
_atom_site_type_symbol
_atom_site_fract_x
_atom_site_fract_y
_atom_site_fract_z
_atom_type_partial_charge
Sc0 Sc 0.2996 0.71918 0.11195 0.0
Sc1 Sc 0.15114 0.58256 0.14904 0.0
Sc2 Sc 0.28901 0.57442 0.11666 0.0
O3 O 0.24655 0.62541 0.12606 0.0
C4 C 0.35268 0.67013 0.00183 0.0
C5 C 0.16519 0.68289 0.04538 0.0
C6 C 0.15054 0.4855 0.05076 0.0
C7 C 0.2135 0.70867 0.23146 0.0
C8 C 0.40254 0.69747 0.18463 0.0
C9 C 0.19991 0.51066 0.23798 0.0
O10 O 0.34229 0.71067 0.02564 0.0
O11 O 0.13115 0.63265 0.07663 0.0
O12 O 0.20975 0.50447 0.0602 0.0
O13 O 0.26306 0.73849 0.1967 0.0
O14 O 0.37418 0.63962 0.17071 0.0
O15 O 0.16006 0.52764 0.22438 0.0
O16 O 0.38046 0.73155 0.16796 0.0
O17 O 0.16941 0.65211 0.22043 0.0
O18 O 0.2482 0.52458 0.20353 0.0
O19 O 0.22587 0.71778 0.05336 0.0
O20 O 0.3356 0.6186 0.029 0.0
O21 O 0.12188 0.50846 0.07968 0.0
Sc22 Sc 0.73211 0.30261 0.05403 0.0
Sc23 Sc 0.87251 0.44933 0.02441 0.0
Sc24 Sc 0.72306 0.43746 0.05116 0.0
O25 O 0.77596 0.39655 0.04311 0.0
C26 C 0.62112 0.30985 0.98001 0.0
C27 C 0.82535 0.32735 0.93681 0.0
C28 C 0.81433 0.51128 0.93391 0.0
C29 C 0.86768 0.35217 0.12516 0.0
C30 C 0.66641 0.33752 0.16387 0.0
C31 C 0.85532 0.53779 0.12187 0.0
O32 O 0.64912 0.28106 -0.00367 0.0
O33 O 0.86528 0.38475 0.95047 0.0
O34 O 0.76226 0.49048 0.96474 0.0
O35 O 0.80853 0.31221 0.11409 0.0
O36 O 0.67819 0.3884 0.13826 0.0
O37 O 0.89014 0.51992 0.09578 0.0
O38 O 0.68319 0.30205 0.13902 0.0
O39 O 0.89838 0.40411 0.0963 0.0
O40 O 0.79549 0.51264 0.10922 0.0
O41 O 0.77575 0.29286 0.96998 0.0
O42 O 0.6429 0.36657 -0.00472 0.0
O43 O 0.85838 0.50091 0.95052 0.0
Zn44 Zn 0.17109 0.15867 0.45488 0.0
Zn45 Zn 0.15917 0.02592 0.47146 0.0
O46 O 0.10828 0.0671 0.46836 0.0
H47 H 0.06184 0.04684 0.46913 0.0
C48 C 0.11638 0.21102 0.59332 0.0
O49 O 0.06357 0.18953 0.62658 0.0
Zn50 Zn 0.86459 0.87087 0.70401 0.0
Zn51 Zn 0.85116 0.98973 0.71903 0.0
O52 O 0.91583 0.96286 0.71633 0.0
H53 H 0.96229 0.98978 0.71759 0.0
Zn54 Zn 0.11681 0.10858 0.66072 0.0
O55 O 0.07337 0.02086 0.62485 0.0
Zn56 Zn 0.08785 0.96642 0.68448 0.0
H57 H 0.06118 0.01138 0.58035 0.0
Zn58 Zn 0.90665 0.01359 0.50754 0.0
O59 O 0.9444 0.96552 0.54606 0.0
H60 H 0.95308 0.96743 0.59142 0.0
Zn61 Zn 0.93303 0.89852 0.48424 0.0
C62 C 0.90071 0.11757 0.56901 0.0
O63 O 0.94604 0.15116 0.52775 0.0
O64 O 0.2636 0.18017 0.44226 0.0
O65 O 0.25387 0.08699 0.448 0.0
O66 O 0.75828 0.91705 0.72937 0.0
O67 O 0.76947 0.83453 0.72657 0.0
O68 O 0.17671 0.11822 0.73511 0.0
O69 O 0.15793 0.02201 0.75084 0.0
C70 C 0.05501 0.9156 0.41161 0.0
O71 O 0.84632 0.96272 0.4328 0.0
O72 O 0.86399 0.88472 0.41754 0.0
O73 O 0.88006 0.06885 0.77278 0.0
C74 C 0.28804 0.1461 0.43931 0.0
O75 O 0.13847 0.2025 0.39633 0.0
C76 C 0.96686 0.85971 0.75741 0.0
O77 O 0.14841 0.18422 0.59828 0.0
C78 C 0.73446 0.85833 0.73325 0.0
O79 O 0.87656 0.05871 0.57009 0.0
C80 C 0.1423 0.94085 0.57766 0.0
O81 O 0.11598 0.95267 0.41036 0.0
O82 O 0.02291 0.92903 0.44915 0.0
C83 C 0.18816 0.08048 0.76458 0.0
O84 O 0.90617 0.83608 0.76049 0.0
O85 O 0.9986 0.90587 0.72013 0.0
C86 C 0.881 0.81244 0.5888 0.0
O87 O 0.11814 0.9187 0.63191 0.0
O88 O 0.14961 0.99283 0.56114 0.0
C89 C 0.83436 0.91307 0.4035 0.0
O90 O 0.9032 0.81792 0.53289 0.0
O91 O 0.87508 0.85614 0.61119 0.0
C92 C 0.93662 0.11402 0.76174 0.0
O93 O 0.97066 0.1069 0.7181 0.0
C94 C 0.07976 0.18579 0.40232 0.0
O95 O 0.04456 0.14268 0.44432 0.0
H96 H 0.29528 0.83009 0.27057 0.0
H97 H 0.07153 0.81456 0.5567 0.0
H98 H 0.11418 0.66333 0.31698 0.0
H99 H 0.24214 0.98374 0.49578 0.0
H100 H 0.0903 0.75588 0.47491 0.0
H101 H 0.28023 0.88496 0.35823 0.0
C102 C 0.25244 0.80482 0.29928 0.0
C103 C 0.20595 0.74186 0.28614 0.0
C104 C 0.1238 0.8058 0.47962 0.0
C105 C 0.18846 0.80473 0.38698 0.0
C106 C 0.11322 0.83913 0.52637 0.0
C107 C 0.15498 0.90403 0.53207 0.0
C108 C 0.177 0.83768 0.43911 0.0
C109 C 0.20826 0.93389 0.49185 0.0
C110 C 0.24386 0.83629 0.3494 0.0
C111 C 0.1514 0.7118 0.32522 0.0
N112 N 0.21768 0.90053 0.44693 0.0
N113 N 0.14414 0.74354 0.37379 0.0
H114 H 0.62534 0.40047 0.23728 0.0
H115 H 0.35326 0.08928 0.4013 0.0
H116 H 0.61413 0.22338 0.22189 0.0
H117 H 0.37736 0.27083 0.42964 0.0
H118 H 0.45812 0.13978 0.3491 0.0
H119 H 0.54458 0.35675 0.32077 0.0
C120 C 0.60658 0.35266 0.25197 0.0
C121 C 0.6258 0.31529 0.22155 0.0
C122 C 0.44085 0.16861 0.36766 0.0
C123 C 0.5326 0.26459 0.31684 0.0
C124 C 0.38103 0.13977 0.39763 0.0
C125 C 0.35582 0.17572 0.41871 0.0
C126 C 0.4754 0.2337 0.35856 0.0
C127 C 0.39421 0.24104 0.41302 0.0
C128 C 0.5604 0.32765 0.29976 0.0
C129 C 0.60027 0.25382 0.24333 0.0
N130 N 0.45153 0.26777 0.38271 0.0
N131 N 0.55425 0.23011 0.28888 0.0
H132 H 0.10062 0.4642 0.32439 0.0
H133 H 0.22556 0.272 0.52011 0.0
H134 H 0.27753 0.47006 0.28419 0.0
H135 H 0.05248 0.27056 0.56486 0.0
H136 H 0.25027 0.35175 0.43923 0.0
H137 H 0.08565 0.39897 0.41745 0.0
C138 C 0.13654 0.45225 0.33525 0.0
C139 C 0.1903 0.47265 0.296 0.0
C140 C 0.20696 0.33423 0.46702 0.0
C141 C 0.1735 0.398 0.40266 0.0
C142 C 0.19285 0.28866 0.51323 0.0
C143 C 0.13582 0.2634 0.54829 0.0
C144 C 0.16367 0.35459 0.45573 0.0
C145 C 0.09583 0.28747 0.53784 0.0
C146 C 0.12806 0.41511 0.38855 0.0
C147 C 0.23511 0.45535 0.31261 0.0
N148 N 0.10999 0.33108 0.49212 0.0
N149 N 0.22552 0.41891 0.36432 0.0
H150 H 0.81323 0.26097 0.21445 0.0
H151 H 0.13961 0.27909 0.31377 0.0
H152 H 0.99883 0.40577 0.14542 0.0
H153 H 0.95602 0.15945 0.40324 0.0
H154 H 0.09096 0.32701 0.2513 0.0
H155 H 0.867 0.22574 0.2856 0.0
C156 C 0.86548 0.28552 0.21426 0.0
C157 C 0.90151 0.33559 0.17279 0.0
C158 C 0.06162 0.29064 0.28506 0.0
C159 C 0.96367 0.29501 0.25443 0.0
C160 C 0.08918 0.26304 0.32046 0.0
C161 C 0.05182 0.21542 0.36409 0.0
C162 C 0.99629 0.27012 0.2933 0.0
C163 C 0.98687 0.19647 0.37088 0.0
C164 C 0.89623 0.2654 0.25517 0.0
C165 C 0.96916 0.3663 0.17579 0.0
N166 N 0.96121 0.2238 0.33581 0.0
N167 N 0.99818 0.34496 0.21543 0.0
H168 H 0.47122 0.64373 0.22264 0.0
H169 H 0.77458 0.96762 0.34668 0.0
H170 H 0.4813 0.82077 0.2185 0.0
H171 H 0.7658 0.79161 0.35949 0.0
H172 H 0.67096 0.91501 0.29027 0.0
H173 H 0.58094 0.6969 0.26731 0.0
C174 C 0.49619 0.69365 0.23149 0.0
C175 C 0.4667 0.72773 0.21682 0.0
C176 C 0.69182 0.88785 0.30486 0.0
C177 C 0.59269 0.78889 0.26716 0.0
C178 C 0.75126 0.91796 0.33683 0.0
C179 C 0.77861 0.88384 0.35852 0.0
C180 C 0.65906 0.82296 0.29471 0.0
C181 C 0.74641 0.81972 0.34379 0.0
C182 C 0.55902 0.724 0.25664 0.0
C183 C 0.50175 0.79239 0.22909 0.0
N184 N 0.68784 0.79114 0.31342 0.0
N185 N 0.56279 0.82076 0.25342 0.0
H186 H 0.79315 0.57657 0.19967 0.0
H187 H 0.11625 0.87568 0.33496 0.0
H188 H 0.98432 0.61974 0.15114 0.0
H189 H 0.926 0.82322 0.39752 0.0
H190 H 0.06883 0.78168 0.26898 0.0
H191 H 0.84083 0.66563 0.2729 0.0
C192 C 0.84526 0.60465 0.20439 0.0
C193 C 0.88473 0.59055 0.16865 0.0
C194 C 0.03729 0.79056 0.29705 0.0
C195 C 0.93974 0.69326 0.25304 0.0
C196 C 0.06431 0.84443 0.33489 0.0
C197 C 0.025 0.85781 0.37184 0.0
C198 C 0.97015 0.74962 0.29526 0.0
C199 C 0.95814 0.81519 0.36967 0.0
C200 C 0.87242 0.65557 0.24651 0.0
C201 C 0.9519 0.62866 0.17752 0.0
N202 N 0.93279 0.76317 0.33174 0.0
N203 N 0.97725 0.67843 0.21856 0.0
H204 H 0.03512 0.63546 0.02457 0.0
H205 H 0.0946 0.89317 0.76206 0.0
H206 H 0.2236 0.77744 0.95875 0.0
H207 H 0.90805 0.76222 0.84008 0.0
H208 H 0.14191 0.84605 0.82781 0.0
H209 H 0.98638 0.67547 0.95057 0.0
C210 C 0.06625 0.6747 -0.00559 0.0
C211 C 0.13366 0.70335 -0.00156 0.0
C212 C 0.09056 0.8276 0.83039 0.0
C213 C 0.07822 0.74949 0.91373 0.0
C214 C 0.0636 0.85463 0.79286 0.0
C215 C 0.99737 0.83204 0.7957 0.0
C216 C 0.05097 0.77758 0.87103 0.0
C217 C 0.95946 0.78154 0.83642 0.0
C218 C 0.03841 0.69765 0.95225 0.0
C219 C 0.17147 0.75411 0.95796 0.0
N220 N 0.98677 0.7562 0.8725 0.0
N221 N 0.14329 0.77558 0.91761 0.0
H222 H 0.55531 0.18673 0.9411 0.0
H223 H 0.24449 0.19353 0.82503 0.0
H224 H 0.54018 0.35071 0.94614 0.0
H225 H 0.26025 0.03089 0.80436 0.0
H226 H 0.34875 0.2477 0.88014 0.0
H227 H 0.44537 0.1264 0.89726 0.0
C228 C 0.5292 0.21026 0.93256 0.0
C229 C 0.55729 0.27408 0.94735 0.0
C230 C 0.32933 0.19999 0.86411 0.0
C231 C 0.43104 0.20488 0.89808 0.0
C232 C 0.26952 0.16884 0.83294 0.0
C233 C 0.24396 0.10782 0.8094 0.0
C234 C 0.36427 0.17017 0.8716 0.0
C235 C 0.27825 0.07797 0.82164 0.0
C236 C 0.46625 0.1756 0.90789 0.0
C237 C 0.52084 0.30179 0.93542 0.0
N238 N 0.33718 0.10977 0.85127 0.0
N239 N 0.45967 0.26699 0.91169 0.0
H240 H 0.01868 0.41065 0.03209 0.0
H241 H 0.05419 0.22012 0.74639 0.0
H242 H 0.20038 0.44616 0.95959 0.0
H243 H 0.88151 0.14311 0.85867 0.0
H244 H 0.10202 0.31564 0.81019 0.0
H245 H 0.96192 0.32333 0.95576 0.0
C246 C 0.0466 0.40026 0.00021 0.0
C247 C 0.11441 0.43494 0.00318 0.0
C248 C 0.05354 0.27791 0.82073 0.0
C249 C 0.05004 0.33678 0.91514 0.0
C250 C 0.02615 0.22336 0.78425 0.0
C251 C 0.96414 0.17326 0.79778 0.0
C252 C 0.01878 0.28246 0.87126 0.0
C253 C 0.92989 0.18039 0.84723 0.0
C254 C 0.0142 0.35063 0.95665 0.0
C255 C 0.14813 0.42011 0.9599 0.0
N256 N 0.95787 0.23398 0.88261 0.0
N257 N 0.11559 0.37218 0.91782 0.0
H258 H 0.92234 0.38242 0.84787 0.0
H259 H 0.80389 0.06292 0.65698 0.0
H260 H 0.75144 0.20616 0.89477 0.0
H261 H 0.95241 0.2432 0.58882 0.0
H262 H 0.78247 0.11514 0.7432 0.0
H263 H 0.93583 0.33256 0.75354 0.0
C264 C 0.88754 0.33344 0.83835 0.0
C265 C 0.83558 0.29866 0.8795 0.0
C266 C 0.81981 0.14335 0.70931 0.0
C267 C 0.85051 0.24142 0.77135 0.0
C268 C 0.83205 0.1135 0.66 0.0
C269 C 0.88193 0.14859 0.61695 0.0
C270 C 0.85801 0.20877 0.71593 0.0
C271 C 0.91576 0.21407 0.62257 0.0
C272 C 0.8951 0.30507 0.7843 0.0
C273 C 0.79224 0.23514 0.86466 0.0
N274 N 0.90395 0.24201 0.67169 0.0
N275 N 0.80079 0.20869 0.81207 0.0
H276 H 0.39089 0.77008 0.92221 0.0
H277 H 0.67014 0.73627 0.77409 0.0
H278 H 0.40683 0.6081 0.94975 0.0
H279 H 0.64317 0.89037 0.7365 0.0
H280 H 0.56393 0.68001 0.82369 0.0
H281 H 0.47236 0.80612 0.83962 0.0
C282 C 0.4108 0.74159 0.91032 0.0
C283 C 0.39279 0.68658 0.94397 0.0
C284 C 0.58088 0.72574 0.80364 0.0
C285 C 0.48693 0.72805 0.84982 0.0
C286 C 0.64148 0.75782 0.77517 0.0
C287 C 0.66623 0.81869 0.75233 0.0
C288 C 0.54506 0.7549 0.8094 0.0
C289 C 0.6267 0.84406 0.75464 0.0
C290 C 0.45742 0.76221 0.86306 0.0
C291 C 0.41973 0.65122 0.92571 0.0
N292 N 0.56861 0.81247 0.78352 0.0
N293 N 0.46625 0.67311 0.88068 0.0
H294 H 0.92379 0.57515 0.86236 0.0
H295 H 0.95308 0.75828 0.59935 0.0
H296 H 0.72937 0.53734 0.87545 0.0
H297 H 0.78194 0.74726 0.67023 0.0
H298 H 0.93885 0.67891 0.67629 0.0
H299 H 0.94187 0.64279 0.77197 0.0
C300 C 0.88445 0.58027 0.84559 0.0
C301 C 0.82486 0.55028 0.87676 0.0
C302 C 0.90464 0.69407 0.67585 0.0
C303 C 0.84471 0.62699 0.77139 0.0
C304 C 0.91235 0.73878 0.63117 0.0
C305 C 0.86938 0.76006 0.62978 0.0
C306 C 0.85338 0.67059 0.7192 0.0
C307 C 0.81699 0.73309 0.67121 0.0
C308 C 0.89465 0.61865 0.7932 0.0
C309 C 0.77613 0.55947 0.85316 0.0
N310 N 0.81067 0.69003 0.71451 0.0
N311 N 0.7873 0.59721 0.80221 0.0
loop_
_geom_bond_atom_site_label_1
_geom_bond_atom_site_label_2
_geom_bond_distance
_geom_bond_site_symmetry_2
_ccdc_geom_bond_type
Sc0 O3 2.025 . S
Sc0 O10 2.105 . S
Sc0 O13 2.105 . S
Sc0 O16 2.105 . S
Sc0 O19 2.105 . S
Sc1 O3 2.025 . S
Sc1 O11 2.105 . S
Sc1 O15 2.105 . S
Sc1 O17 2.105 . S
Sc1 O21 2.105 . S
Sc2 O3 2.025 . S
Sc2 O12 2.105 . S
Sc2 O14 2.105 . S
Sc2 O18 2.105 . S
Sc2 O20 2.105 . S
O3 Sc0 2.025 . S
O3 Sc1 2.025 . S
O3 Sc2 2.025 . S
C4 O10 1.268 . S
C4 O20 1.268 . S
C5 O11 1.268 . S
C5 O19 1.268 . S
C6 O12 1.268 . S
C6 O21 1.268 . S
C7 O13 1.268 . S
C7 O17 1.268 . S
C8 O14 1.268 . S
C8 O16 1.268 . S
C9 O15 1.268 . S
C9 O18 1.268 . S
O10 Sc0 2.105 . S
O10 C4 1.268 . S
O11 Sc1 2.105 . S
O11 C5 1.268 . S
O12 Sc2 2.105 . S
O12 C6 1.268 . S
O13 Sc0 2.105 . S
O13 C7 1.268 . S
O14 Sc2 2.105 . S
O14 C8 1.268 . S
O15 Sc1 2.105 . S
O15 C9 1.268 . S
O16 Sc0 2.105 . S
O16 C8 1.268 . S
O17 Sc1 2.105 . S
O17 C7 1.268 . S
O18 Sc2 2.105 . S
O18 C9 1.268 . S
O19 Sc0 2.105 . S
O19 C5 1.268 . S
O20 Sc2 2.105 . S
O20 C4 1.268 . S
O21 Sc1 2.105 . S
O21 C6 1.268 . S
Sc22 O25 2.025 . S
Sc22 O32 2.105 1_554 S
Sc22 O35 2.105 . S
Sc22 O38 2.105 . S
Sc22 O41 2.105 1_554 S
Sc23 O25 2.025 . S
Sc23 O33 2.105 1_554 S
Sc23 O37 2.105 . S
Sc23 O39 2.105 . S
Sc23 O43 2.105 1_554 S
Sc24 O25 2.025 . S
Sc24 O34 2.105 1_554 S
Sc24 O36 2.105 . S
Sc24 O40 2.105 . S
Sc24 O42 2.105 1_554 S
O25 Sc22 2.025 . S
O25 Sc23 2.025 . S
O25 Sc24 2.025 . S
C26 O32 1.268 . S
C26 O42 1.268 . S
C27 O33 1.268 . S
C27 O41 1.268 . S
C28 O34 1.268 . S
C28 O43 1.268 . S
C29 O35 1.268 . S
C29 O39 1.268 . S
C30 O36 1.268 . S
C30 O38 1.268 . S
C31 O37 1.268 . S
C31 O40 1.268 . S
O32 Sc22 2.105 1_556 S
O32 C26 1.268 . S
O33 Sc23 2.105 1_556 S
O33 C27 1.268 . S
O34 Sc24 2.105 1_556 S
O34 C28 1.268 . S
O35 Sc22 2.105 . S
O35 C29 1.268 . S
O36 Sc24 2.105 . S
O36 C30 1.268 . S
O37 Sc23 2.105 . S
O37 C31 1.268 . S
O38 Sc22 2.105 . S
O38 C30 1.268 . S
O39 Sc23 2.105 . S
O39 C29 1.268 . S
O40 Sc24 2.105 . S
O40 C31 1.268 . S
O41 Sc22 2.105 1_556 S
O41 C27 1.268 . S
O42 Sc24 2.105 1_556 S
O42 C26 1.268 . S
O43 Sc23 2.105 1_556 S
O43 C28 1.268 . S
Zn44 O46 1.933 . S
Zn44 O64 1.985 . S
Zn44 O75 1.956 1_455 S
Zn45 O46 1.911 1_565 S
Zn45 O65 1.970 1_565 S
Zn45 O81 1.945 . S
Zn45 O88 1.981 . S
O46 Zn44 1.933 . S
O46 Zn45 1.911 1_545 S
O46 H47 0.841 1_445 S
H47 O46 0.841 1_665 S
C48 O49 1.246 . S
C48 O77 1.276 . S
O49 C48 1.246 . S
Zn50 O52 1.911 . S
Zn50 O67 1.970 . S
Zn50 O84 1.945 1_655 S
Zn50 O91 1.981 . S
Zn51 O52 1.933 1_545 S
Zn51 O66 1.985 1_545 S
Zn51 O73 1.955 1_655 S
O52 Zn50 1.911 . S
O52 Zn51 1.933 1_565 S
O52 H53 0.841 1_665 S
H53 O52 0.841 1_445 S
Zn54 O55 1.933 . S
Zn54 O68 1.985 . S
Zn54 O77 1.955 . S
O55 Zn54 1.933 . S
O55 Zn56 1.911 . S
O55 H57 0.841 . S
Zn56 O55 1.911 . S
Zn56 O69 1.970 . S
Zn56 O85 1.981 1_545 S
Zn56 O87 1.945 1_545 S
H57 O55 0.841 . S
Zn58 O59 1.933 . S
Zn58 O71 1.985 . S
Zn58 O79 1.955 1_565 S
O59 Zn58 1.933 . S
O59 H60 0.841 . S
O59 Zn61 1.911 . S
H60 O59 0.841 . S
Zn61 O59 1.911 . S
Zn61 O72 1.970 . S
Zn61 O82 1.981 . S
Zn61 O90 1.945 . S
C62 O63 1.246 . S
C62 O79 1.276 . S
O63 C62 1.246 . S
O64 Zn44 1.985 . S
O64 C74 1.245 . S
O65 Zn45 1.970 1_545 S
O65 C74 1.263 . S
O66 Zn51 1.985 1_565 S
O66 C78 1.245 . S
O67 Zn50 1.970 . S
O67 C78 1.263 . S
O68 Zn54 1.985 . S
O68 C83 1.245 . S
O69 Zn56 1.970 . S
O69 C83 1.263 . S
C70 O81 1.262 1_655 S
C70 O82 1.245 . S
O71 Zn58 1.985 . S
O71 C89 1.245 . S
O72 Zn61 1.970 . S
O72 C89 1.263 . S
O73 Zn51 1.955 1_455 S
O73 C92 1.276 . S
C74 O64 1.245 . S
C74 O65 1.263 . S
O75 Zn44 1.956 1_655 S
O75 C94 1.275 . S
C76 O84 1.262 . S
C76 O85 1.245 . S
O77 C48 1.276 . S
O77 Zn54 1.955 . S
C78 O66 1.245 . S
C78 O67 1.263 . S
O79 Zn58 1.955 1_545 S
O79 C62 1.276 . S
C80 O87 1.262 . S
C80 O88 1.245 . S
O81 Zn45 1.945 . S
O81 C70 1.262 1_455 S
O82 Zn61 1.981 . S
O82 C70 1.245 . S
C83 O68 1.245 . S
C83 O69 1.263 . S
O84 Zn50 1.945 1_455 S
O84 C76 1.262 . S
O85 Zn56 1.981 1_565 S
O85 C76 1.245 . S
C86 O90 1.262 . S
C86 O91 1.245 . S
O87 Zn56 1.945 1_565 S
O87 C80 1.262 . S
O88 Zn45 1.981 . S
O88 C80 1.245 . S
C89 O71 1.245 . S
C89 O72 1.263 . S
O90 Zn61 1.945 . S
O90 C86 1.262 . S
O91 Zn50 1.981 . S
O91 C86 1.245 . S
C92 O73 1.276 . S
C92 O93 1.246 . S
O93 C92 1.246 . S
C94 O75 1.275 . S
C94 O95 1.246 . S
O95 C94 1.246 . S
H96 C102 0.930 . S
H97 C106 0.930 . S
H98 C111 0.929 . S
H99 C109 0.929 . S
H100 C104 0.929 . S
H101 C110 0.929 . S
C102 H96 0.930 . S
C102 C103 1.367 . S
C102 C110 1.378 . S
C103 C102 1.367 . S
C103 C111 1.433 . S
C104 H100 0.929 . S
C104 C106 1.378 . S
C104 C108 1.350 . S
C105 C108 1.463 . S
C105 C110 1.350 . S
C105 N113 1.427 . S
C106 H97 0.930 . S
C106 C104 1.378 . S
C106 C107 1.367 . S
C107 C106 1.367 . S
C107 C109 1.433 . S
C108 C104 1.350 . S
C108 C105 1.463 . S
C108 N112 1.427 . S
C109 H99 0.929 . S
C109 C107 1.433 . S
C109 N112 1.384 . S
C110 H101 0.929 . S
C110 C102 1.378 . S
C110 C105 1.350 . S
C111 H98 0.929 . S
C111 C103 1.433 . S
C111 N113 1.384 . S
N112 C108 1.427 . S
N112 C109 1.384 . S
N113 C105 1.427 . S
N113 C111 1.384 . S
H114 C120 0.930 . S
H115 C124 0.930 . S
H116 C129 0.929 . S
H117 C127 0.929 . S
H118 C122 0.929 . S
H119 C128 0.929 . S
C120 H114 0.930 . S
C120 C121 1.367 . S
C120 C128 1.378 . S
C121 C120 1.367 . S
C121 C129 1.433 . S
C122 H118 0.929 . S
C122 C124 1.378 . S
C122 C126 1.350 . S
C123 C126 1.463 . S
C123 C128 1.350 . S
C123 N131 1.427 . S
C124 H115 0.930 . S
C124 C122 1.378 . S
C124 C125 1.367 . S
C125 C124 1.367 . S
C125 C127 1.433 . S
C126 C122 1.350 . S
C126 C123 1.463 . S
C126 N130 1.427 . S
C127 H117 0.929 . S
C127 C125 1.433 . S
C127 N130 1.384 . S
C128 H119 0.929 . S
C128 C120 1.378 . S
C128 C123 1.350 . S
C129 H116 0.929 . S
C129 C121 1.433 . S
C129 N131 1.384 . S
N130 C126 1.427 . S
N130 C127 1.384 . S
N131 C123 1.427 . S
N131 C129 1.384 . S
H132 C138 0.930 . S
H133 C142 0.930 . S
H134 C147 0.929 . S
H135 C145 0.929 . S
H136 C140 0.929 . S
H137 C146 0.929 . S
C138 H132 0.930 . S
C138 C139 1.367 . S
C138 C146 1.378 . S
C139 C138 1.367 . S
C139 C147 1.433 . S
C140 H136 0.929 . S
C140 C142 1.378 . S
C140 C144 1.350 . S
C141 C144 1.463 . S
C141 C146 1.350 . S
C141 N149 1.427 . S
C142 H133 0.930 . S
C142 C140 1.378 . S
C142 C143 1.367 . S
C143 C142 1.367 . S
C143 C145 1.433 . S
C144 C140 1.350 . S
C144 C141 1.463 . S
C144 N148 1.427 . S
C145 H135 0.929 . S
C145 C143 1.433 . S
C145 N148 1.384 . S
C146 H137 0.929 . S
C146 C138 1.378 . S
C146 C141 1.350 . S
C147 H134 0.929 . S
C147 C139 1.433 . S
C147 N149 1.384 . S
N148 C144 1.427 . S
N148 C145 1.384 . S
N149 C141 1.427 . S
N149 C147 1.384 . S
H150 C156 0.930 . S
H151 C160 0.930 . S
H152 C165 0.929 . S
H153 C163 0.929 . S
H154 C158 0.929 . S
H155 C164 0.929 . S
C156 H150 0.930 . S
C156 C157 1.367 . S
C156 C164 1.378 . S
C157 C156 1.367 . S
C157 C165 1.433 . S
C158 H154 0.929 . S
C158 C160 1.378 . S
C158 C162 1.350 . S
C159 C162 1.463 . S
C159 C164 1.350 . S
C159 N167 1.427 . S
C160 H151 0.930 . S
C160 C158 1.378 . S
C160 C161 1.367 . S
C161 C160 1.367 . S
C161 C163 1.433 . S
C162 C158 1.350 . S
C162 C159 1.463 . S
C162 N166 1.427 . S
C163 H153 0.929 . S
C163 C161 1.433 . S
C163 N166 1.384 . S
C164 H155 0.929 . S
C164 C156 1.378 . S
C164 C159 1.350 . S
C165 H152 0.929 . S
C165 C157 1.433 . S
C165 N167 1.384 . S
N166 C162 1.427 . S
N166 C163 1.384 . S
N167 C159 1.427 . S
N167 C165 1.384 . S
H168 C174 0.930 . S
H169 C178 0.930 . S
H170 C183 0.929 . S
H171 C181 0.929 . S
H172 C176 0.929 . S
H173 C182 0.929 . S
C174 H168 0.930 . S
C174 C175 1.367 . S
C174 C182 1.378 . S
C175 C174 1.367 . S
C175 C183 1.433 . S
C176 H172 0.929 . S
C176 C178 1.378 . S
C176 C180 1.350 . S
C177 C180 1.463 . S
C177 C182 1.350 . S
C177 N185 1.427 . S
C178 H169 0.930 . S
C178 C176 1.378 . S
C178 C179 1.367 . S
C179 C178 1.367 . S
C179 C181 1.433 . S
C180 C176 1.350 . S
C180 C177 1.463 . S
C180 N184 1.427 . S
C181 H171 0.929 . S
C181 C179 1.433 . S
C181 N184 1.384 . S
C182 H173 0.929 . S
C182 C174 1.378 . S
C182 C177 1.350 . S
C183 H170 0.929 . S
C183 C175 1.433 . S
C183 N185 1.384 . S
N184 C180 1.427 . S
N184 C181 1.384 . S
N185 C177 1.427 . S
N185 C183 1.384 . S
H186 C192 0.930 . S
H187 C196 0.930 . S
H188 C201 0.929 . S
H189 C199 0.929 . S
H190 C194 0.929 . S
H191 C200 0.929 . S
C192 H186 0.930 . S
C192 C193 1.367 . S
C192 C200 1.378 . S
C193 C192 1.367 . S
C193 C201 1.433 . S
C194 H190 0.929 . S
C194 C196 1.378 . S
C194 C198 1.350 . S
C195 C198 1.463 . S
C195 C200 1.350 . S
C195 N203 1.427 . S
C196 H187 0.930 . S
C196 C194 1.378 . S
C196 C197 1.367 . S
C197 C196 1.367 . S
C197 C199 1.433 . S
C198 C194 1.350 . S
C198 C195 1.463 . S
C198 N202 1.427 . S
C199 H189 0.929 . S
C199 C197 1.433 . S
C199 N202 1.384 . S
C200 H191 0.929 . S
C200 C192 1.378 . S
C200 C195 1.350 . S
C201 H188 0.929 . S
C201 C193 1.433 . S
C201 N203 1.384 . S
N202 C198 1.427 . S
N202 C199 1.384 . S
N203 C195 1.427 . S
N203 C201 1.384 . S
H204 C210 0.930 . S
H205 C214 0.930 . S
H206 C219 0.929 . S
H207 C217 0.929 . S
H208 C212 0.929 . S
H209 C218 0.929 . S
C210 H204 0.930 . S
C210 C211 1.367 . S
C210 C218 1.378 . S
C211 C210 1.367 . S
C211 C219 1.433 . S
C212 H208 0.929 . S
C212 C214 1.378 . S
C212 C216 1.350 . S
C213 C216 1.463 . S
C213 C218 1.350 . S
C213 N221 1.427 . S
C214 H205 0.930 . S
C214 C212 1.378 . S
C214 C215 1.367 . S
C215 C214 1.367 . S
C215 C217 1.433 . S
C216 C212 1.350 . S
C216 C213 1.463 . S
C216 N220 1.427 . S
C217 H207 0.929 . S
C217 C215 1.433 . S
C217 N220 1.384 . S
C218 H209 0.929 . S
C218 C210 1.378 . S
C218 C213 1.350 . S
C219 H206 0.929 . S
C219 C211 1.433 . S
C219 N221 1.384 . S
N220 C216 1.427 . S
N220 C217 1.384 . S
N221 C213 1.427 . S
N221 C219 1.384 . S
H222 C228 0.930 . S
H223 C232 0.930 . S
H224 C237 0.929 . S
H225 C235 0.929 . S
H226 C230 0.929 . S
H227 C236 0.929 . S
C228 H222 0.930 . S
C228 C229 1.367 . S
C228 C236 1.378 . S
C229 C228 1.367 . S
C229 C237 1.433 . S
C230 H226 0.929 . S
C230 C232 1.378 . S
C230 C234 1.350 . S
C231 C234 1.463 . S
C231 C236 1.350 . S
C231 N239 1.427 . S
C232 H223 0.930 . S
C232 C230 1.378 . S
C232 C233 1.367 . S
C233 C232 1.367 . S
C233 C235 1.433 . S
C234 C230 1.350 . S
C234 C231 1.463 . S
C234 N238 1.427 . S
C235 H225 0.929 . S
C235 C233 1.433 . S
C235 N238 1.384 . S
C236 H227 0.929 . S
C236 C228 1.378 . S
C236 C231 1.350 . S
C237 H224 0.929 . S
C237 C229 1.433 . S
C237 N239 1.384 . S
N238 C234 1.427 . S
N238 C235 1.384 . S
N239 C231 1.427 . S
N239 C237 1.384 . S
H240 C246 0.930 1_554 S
H241 C250 0.930 . S
H242 C255 0.929 . S
H243 C253 0.929 . S
H244 C248 0.929 . S
H245 C254 0.929 . S
C246 H240 0.930 1_556 S
C246 C247 1.367 . S
C246 C254 1.378 . S
C247 C246 1.367 . S
C247 C255 1.433 . S
C248 H244 0.929 . S
C248 C250 1.378 . S
C248 C252 1.350 . S
C249 C252 1.463 . S
C249 C254 1.350 . S
C249 N257 1.427 . S
C250 H241 0.930 . S
C250 C248 1.378 . S
C250 C251 1.367 . S
C251 C250 1.367 . S
C251 C253 1.433 . S
C252 C248 1.350 . S
C252 C249 1.463 . S
C252 N256 1.427 . S
C253 H243 0.929 . S
C253 C251 1.433 . S
C253 N256 1.384 . S
C254 H245 0.929 . S
C254 C246 1.378 . S
C254 C249 1.350 . S
C255 H242 0.929 . S
C255 C247 1.433 . S
C255 N257 1.384 . S
N256 C252 1.427 . S
N256 C253 1.384 . S
N257 C249 1.427 . S
N257 C255 1.384 . S
H258 C264 0.930 . S
H259 C268 0.930 . S
H260 C273 0.929 . S
H261 C271 0.929 . S
H262 C266 0.929 . S
H263 C272 0.929 . S
C264 H258 0.930 . S
C264 C265 1.367 . S
C264 C272 1.378 . S
C265 C264 1.367 . S
C265 C273 1.433 . S
C266 H262 0.929 . S
C266 C268 1.378 . S
C266 C270 1.350 . S
C267 C270 1.463 . S
C267 C272 1.350 . S
C267 N275 1.427 . S
C268 H259 0.930 . S
C268 C266 1.378 . S
C268 C269 1.367 . S
C269 C268 1.367 . S
C269 C271 1.433 . S
C270 C266 1.350 . S
C270 C267 1.463 . S
C270 N274 1.427 . S
C271 H261 0.929 . S
C271 C269 1.433 . S
C271 N274 1.384 . S
C272 H263 0.929 . S
C272 C264 1.378 . S
C272 C267 1.350 . S
C273 H260 0.929 . S
C273 C265 1.433 . S
C273 N275 1.384 . S
N274 C270 1.427 . S
N274 C271 1.384 . S
N275 C267 1.427 . S
N275 C273 1.384 . S
H276 C282 0.930 . S
H277 C286 0.930 . S
H278 C291 0.929 . S
H279 C289 0.929 . S
H280 C284 0.929 . S
H281 C290 0.929 . S
C282 H276 0.930 . S
C282 C283 1.367 . S
C282 C290 1.378 . S
C283 C282 1.367 . S
C283 C291 1.433 1_554 S
C284 H280 0.929 . S
C284 C286 1.378 . S
C284 C288 1.350 . S
C285 C288 1.463 . S
C285 C290 1.350 1_556 S
C285 N293 1.427 . S
C286 H277 0.930 . S
C286 C284 1.378 . S
C286 C287 1.367 . S
C287 C286 1.367 . S
C287 C289 1.433 . S
C288 C284 1.350 . S
C288 C285 1.463 . S
C288 N292 1.427 . S
C289 H279 0.929 . S
C289 C287 1.433 . S
C289 N292 1.384 . S
C290 H281 0.929 . S
C290 C282 1.378 . S
C290 C285 1.350 1_554 S
C291 H278 0.929 . S
C291 C283 1.433 1_556 S
C291 N293 1.384 . S
N292 C288 1.427 . S
N292 C289 1.384 . S
N293 C285 1.427 . S
N293 C291 1.384 . S
H294 C300 0.930 . S
H295 C304 0.930 . S
H296 C309 0.929 . S
H297 C307 0.929 . S
H298 C302 0.929 . S
H299 C308 0.929 . S
C300 H294 0.930 . S
C300 C301 1.367 . S
C300 C308 1.378 . S
C301 C300 1.367 . S
C301 C309 1.433 . S
C302 H298 0.929 . S
C302 C304 1.378 . S
C302 C306 1.350 . S
C303 C306 1.463 . S
C303 C308 1.350 . S
C303 N311 1.427 . S
C304 H295 0.930 . S
C304 C302 1.378 . S
C304 C305 1.367 . S
C305 C304 1.367 . S
C305 C307 1.433 . S
C306 C302 1.350 . S
C306 C303 1.463 . S
C306 N310 1.427 . S
C307 H297 0.929 . S
C307 C305 1.433 . S
C307 N310 1.384 . S
C308 H299 0.929 . S
C308 C300 1.378 . S
C308 C303 1.350 . S
C309 H296 0.929 . S
C309 C301 1.433 . S
C309 N311 1.384 . S
N310 C306 1.427 . S
N310 C307 1.384 . S
N311 C303 1.427 . S
N311 C309 1.384 . S
C103 C7 1.424 . S
C107 C80 1.451 . S
C125 C74 1.698 . S
C121 C30 1.646 . S
C143 C48 1.485 . S
C139 C9 1.472 . S
C161 C94 1.905 . S
C157 C29 1.974 . S
C179 C89 0.314 . S
C175 C8 0.433 . S
C193 C31 1.883 . S
C197 C70 1.851 . S
C211 C5 1.886 1_556 S
C215 C76 1.846 . S
C229 C26 0.380 . S
C233 C83 0.273 . S
C247 C6 1.969 1_556 S
C251 C92 1.914 . S
C265 C27 1.463 . S
C269 C62 1.481 . S
C287 C78 1.694 . S
C283 C4 1.640 . S
C301 C28 1.424 . S
C305 C86 1.451 . S
