# Generated by pormake.
# Topology pyr, (3,6)-cn, num edge types: 1
# Building blocks:
#     Node 0, Type 0, BuildingBlock: WUSLED_clean_sbu_0, # of connection points: 3
#     Node 1, Type 0, BuildingBlock: WUSLED_clean_sbu_0, # of connection points: 3
#     Node 2, Type 0, BuildingBlock: WUSLED_clean_sbu_0, # of connection points: 3
#     Node 3, Type 0, BuildingBlock: WUSLED_clean_sbu_0, # of connection points: 3
#     Node 4, Type 0, BuildingBlock: WUSLED_clean_sbu_0, # of connection points: 3
#     Node 5, Type 0, BuildingBlock: WUSLED_clean_sbu_0, # of connection points: 3
#     Node 6, Type 0, BuildingBlock: WUSLED_clean_sbu_0, # of connection points: 3
#     Node 7, Type 0, BuildingBlock: WUSLED_clean_sbu_0, # of connection points: 3
#     Node 8, Type 1, BuildingBlock: BETFEN_clean_sbu_0, # of connection points: 6
#     Node 9, Type 1, BuildingBlock: BETFEN_clean_sbu_0, # of connection points: 6
#     Node 10, Type 1, BuildingBlock: BETFEN_clean_sbu_0, # of connection points: 6
#     Node 11, Type 1, BuildingBlock: BETFEN_clean_sbu_0, # of connection points: 6
#     Edge 12, Type (0, 1), BuildingBlock: OJICUG_clean_linker_0, # of connection points: 2
#     Edge 13, Type (0, 1), BuildingBlock: OJICUG_clean_linker_0, # of connection points: 2
#     Edge 14, Type (0, 1), BuildingBlock: OJICUG_clean_linker_0, # of connection points: 2
#     Edge 15, Type (0, 1), BuildingBlock: OJICUG_clean_linker_0, # of connection points: 2
#     Edge 16, Type (0, 1), BuildingBlock: OJICUG_clean_linker_0, # of connection points: 2
#     Edge 17, Type (0, 1), BuildingBlock: OJICUG_clean_linker_0, # of connection points: 2
#     Edge 18, Type (0, 1), BuildingBlock: OJICUG_clean_linker_0, # of connection points: 2
#     Edge 19, Type (0, 1), BuildingBlock: OJICUG_clean_linker_0, # of connection points: 2
#     Edge 20, Type (0, 1), BuildingBlock: OJICUG_clean_linker_0, # of connection points: 2
#     Edge 21, Type (0, 1), BuildingBlock: OJICUG_clean_linker_0, # of connection points: 2
#     Edge 22, Type (0, 1), BuildingBlock: OJICUG_clean_linker_0, # of connection points: 2
#     Edge 23, Type (0, 1), BuildingBlock: OJICUG_clean_linker_0, # of connection points: 2
#     Edge 24, Type (0, 1), BuildingBlock: OJICUG_clean_linker_0, # of connection points: 2
#     Edge 25, Type (0, 1), BuildingBlock: OJICUG_clean_linker_0, # of connection points: 2
#     Edge 26, Type (0, 1), BuildingBlock: OJICUG_clean_linker_0, # of connection points: 2
#     Edge 27, Type (0, 1), BuildingBlock: OJICUG_clean_linker_0, # of connection points: 2
#     Edge 28, Type (0, 1), BuildingBlock: OJICUG_clean_linker_0, # of connection points: 2
#     Edge 29, Type (0, 1), BuildingBlock: OJICUG_clean_linker_0, # of connection points: 2
#     Edge 30, Type (0, 1), BuildingBlock: OJICUG_clean_linker_0, # of connection points: 2
#     Edge 31, Type (0, 1), BuildingBlock: OJICUG_clean_linker_0, # of connection points: 2
#     Edge 32, Type (0, 1), BuildingBlock: OJICUG_clean_linker_0, # of connection points: 2
#     Edge 33, Type (0, 1), BuildingBlock: OJICUG_clean_linker_0, # of connection points: 2
#     Edge 34, Type (0, 1), BuildingBlock: OJICUG_clean_linker_0, # of connection points: 2
#     Edge 35, Type (0, 1), BuildingBlock: OJICUG_clean_linker_0, # of connection points: 2
# Relax obj value: 0.150
# Max RMSD: 0.249
# Mean RMSD: 0.115
data_MOF--net-pyr--node1-WUSLED_clean_sbu_0--node2-BETFEN_clean_sbu_0--edge1-OJICUG_clean_linker_0
_symmetry_space_group_name_H-M    P1
_symmetry_Int_Tables_number       1
_symmetry_cell_setting            triclinic
loop_
_symmetry_equiv_pos_as_xyz
'x, y, z'
_cell_length_a     37.853141
_cell_length_b     42.13869
_cell_length_c     39.316452
_cell_angle_alpha  91.550283
_cell_angle_beta   99.809327
_cell_angle_gamma 110.155
loop_
_atom_site_label
_atom_site_type_symbol
_atom_site_fract_x
_atom_site_fract_y
_atom_site_fract_z
_atom_type_partial_charge
C0 C 0.34403 0.36901 0.1983 0.0
C1 C 0.32415 0.37842 0.22144 0.0
C2 C 0.28564 0.39393 0.17378 0.0
C3 C 0.29535 0.39098 0.20932 0.0
C4 C 0.30658 0.38569 0.15082 0.0
C5 C 0.33556 0.37314 0.16305 0.0
U6 U 0.36277 0.31513 0.26443 0.0
O7 O 0.36433 0.26367 0.26192 0.0
O8 O 0.4133 0.30578 0.29189 0.0
C9 C 0.40027 0.27415 0.27815 0.0
C10 C 0.36771 0.34911 0.21025 0.0
C11 C 0.42503 0.26599 0.25797 0.0
C12 C 0.44674 0.26869 0.20355 0.0
C13 C 0.42905 0.28039 0.22649 0.0
C14 C 0.45883 0.2297 0.24453 0.0
C15 C 0.46062 0.24258 0.21201 0.0
C16 C 0.44081 0.24133 0.26749 0.0
C17 C 0.30261 0.29606 0.32982 0.0
C18 C 0.29015 0.2407 0.35072 0.0
C19 C 0.26679 0.28126 0.37571 0.0
C20 C 0.28363 0.30498 0.35387 0.0
C21 C 0.26877 0.24874 0.37298 0.0
C22 C 0.3074 0.26445 0.32941 0.0
C23 C 0.31437 0.31775 0.30279 0.0
O24 O 0.3915 0.36092 0.24011 0.0
O25 O 0.34771 0.31648 0.20827 0.0
O26 O 0.30363 0.30107 0.27186 0.0
O27 O 0.35031 0.33846 0.30949 0.0
H28 H 0.32967 0.37456 0.24869 0.0
H29 H 0.27996 0.39747 0.22762 0.0
H30 H 0.29929 0.3873 0.12323 0.0
H31 H 0.34998 0.3651 0.14483 0.0
H32 H 0.4476 0.27857 0.17841 0.0
H33 H 0.41651 0.2993 0.21886 0.0
H34 H 0.46879 0.20901 0.25108 0.0
H35 H 0.43741 0.22991 0.29165 0.0
H36 H 0.29157 0.21547 0.34842 0.0
H37 H 0.25001 0.28739 0.39285 0.0
H38 H 0.28015 0.32944 0.35445 0.0
H39 H 0.32233 0.25734 0.31108 0.0
C40 C 0.21411 0.86912 0.64292 0.0
C41 C 0.20932 0.8897 0.66927 0.0
C42 C 0.17165 0.91222 0.62638 0.0
C43 C 0.18797 0.91093 0.66106 0.0
C44 C 0.17608 0.89111 0.60037 0.0
C45 C 0.19695 0.86978 0.60858 0.0
U46 U 0.28696 0.84036 0.70239 0.0
O47 O 0.3393 0.83307 0.69227 0.0
O48 O 0.29252 0.79011 0.7064 0.0
C49 C 0.32741 0.80136 0.69974 0.0
C50 C 0.23811 0.8479 0.64996 0.0
C51 C 0.34327 0.77762 0.68588 0.0
C52 C 0.33993 0.72979 0.64788 0.0
C53 C 0.323 0.75226 0.65864 0.0
C54 C 0.39684 0.75787 0.6917 0.0
C55 C 0.37699 0.73232 0.66456 0.0
C56 C 0.38015 0.7802 0.70217 0.0
C57 C 0.32639 0.88227 0.79527 0.0
C58 C 0.38767 0.887 0.83055 0.0
C59 C 0.34412 0.90818 0.85428 0.0
C60 C 0.3177 0.89733 0.82323 0.0
C61 C 0.37982 0.90388 0.85814 0.0
C62 C 0.36112 0.87628 0.79925 0.0
C63 C 0.30044 0.87641 0.76156 0.0
O64 O 0.27531 0.86428 0.65481 0.0
O65 O 0.22825 0.82463 0.67168 0.0
O66 O 0.27345 0.84626 0.75404 0.0
O67 O 0.31704 0.888 0.73544 0.0
H68 H 0.22255 0.88975 0.69598 0.0
H69 H 0.18522 0.92708 0.6816 0.0
H70 H 0.16354 0.89127 0.5735 0.0
H71 H 0.20025 0.85413 0.5879 0.0
H72 H 0.32399 0.71027 0.62689 0.0
H73 H 0.29435 0.74981 0.64589 0.0
H74 H 0.42566 0.761 0.70461 0.0
H75 H 0.39615 0.79957 0.72331 0.0
H76 H 0.41459 0.88277 0.83287 0.0
H77 H 0.33718 0.92149 0.8746 0.0
H78 H 0.29106 0.90212 0.82054 0.0
H79 H 0.36822 0.86443 0.77788 0.0
C80 C 0.61163 0.37664 0.73978 0.0
C81 C 0.63303 0.41147 0.74783 0.0
C82 C 0.60535 0.42411 0.69088 0.0
C83 C 0.62992 0.43494 0.72364 0.0
C84 C 0.58495 0.38899 0.68292 0.0
C85 C 0.58794 0.36576 0.70702 0.0
U86 U 0.65074 0.33506 0.81943 0.0
O87 O 0.61637 0.30789 0.85698 0.0
O88 O 0.63931 0.28032 0.82317 0.0
C89 C 0.61806 0.27857 0.84676 0.0
C90 C 0.61076 0.35104 0.76519 0.0
C91 C 0.61232 0.25099 0.87015 0.0
C92 C 0.56643 0.20322 0.89119 0.0
C93 C 0.57446 0.23087 0.87129 0.0
C94 C 0.63435 0.21514 0.9099 0.0
C95 C 0.5961 0.19449 0.91054 0.0
C96 C 0.64241 0.2431 0.88974 0.0
C97 C 0.75699 0.38585 0.86956 0.0
C98 C 0.79237 0.4 0.92905 0.0
C99 C 0.826 0.41579 0.88147 0.0
C100 C 0.79152 0.40071 0.85793 0.0
C101 C 0.82682 0.41664 0.91739 0.0
C102 C 0.75774 0.38478 0.90534 0.0
C103 C 0.72096 0.37683 0.84383 0.0
O104 O 0.63168 0.33217 0.76267 0.0
O105 O 0.61053 0.35987 0.79743 0.0
O106 O 0.69062 0.37904 0.85432 0.0
O107 O 0.71294 0.35163 0.81992 0.0
H108 H 0.6515 0.42059 0.77298 0.0
H109 H 0.64597 0.46163 0.73111 0.0
H110 H 0.56645 0.37918 0.65793 0.0
H111 H 0.57108 0.33908 0.70019 0.0
H112 H 0.53666 0.18879 0.89147 0.0
H113 H 0.55076 0.23637 0.85633 0.0
H114 H 0.65803 0.20929 0.9243 0.0
H115 H 0.67192 0.25822 0.88918 0.0
H116 H 0.79171 0.40009 0.95647 0.0
H117 H 0.85191 0.42742 0.87137 0.0
H118 H 0.79161 0.40199 0.83044 0.0
H119 H 0.73144 0.37352 0.915 0.0
C120 C 0.78694 0.62925 0.37801 0.0
C121 C 0.78867 0.65121 0.40637 0.0
C122 C 0.73029 0.60959 0.42113 0.0
C123 C 0.7607 0.64151 0.42765 0.0
C124 C 0.72865 0.5884 0.39201 0.0
C125 C 0.7565 0.59796 0.37116 0.0
U126 U 0.87696 0.67495 0.33166 0.0
O127 O 0.91288 0.6473 0.31513 0.0
O128 O 0.87589 0.66419 0.27578 0.0
C129 C 0.90107 0.64899 0.282 0.0
C130 C 0.81629 0.63652 0.35537 0.0
C131 C 0.91467 0.63452 0.25333 0.0
C132 C 0.94441 0.59628 0.23224 0.0
C133 C 0.93063 0.60905 0.25877 0.0
C134 C 0.92631 0.63379 0.19365 0.0
C135 C 0.94277 0.60827 0.19878 0.0
C136 C 0.91272 0.64661 0.22029 0.0
C137 C 0.92212 0.77157 0.37669 0.0
C138 C 0.94984 0.83356 0.38223 0.0
C139 C 0.92891 0.80451 0.43132 0.0
C140 C 0.91726 0.77293 0.41135 0.0
C141 C 0.94603 0.83541 0.41722 0.0
C142 C 0.9382 0.80227 0.36247 0.0
C143 C 0.91435 0.73938 0.355 0.0
O144 O 0.81407 0.65517 0.32937 0.0
O145 O 0.85167 0.63967 0.36901 0.0
O146 O 0.92221 0.71411 0.36926 0.0
O147 O 0.88529 0.72942 0.32868 0.0
H148 H 0.81179 0.67557 0.41233 0.0
H149 H 0.76357 0.65881 0.44963 0.0
H150 H 0.70558 0.56419 0.38481 0.0
H151 H 0.7543 0.5805 0.34948 0.0
H152 H 0.95691 0.57726 0.2388 0.0
H153 H 0.93264 0.59894 0.28377 0.0
H154 H 0.92333 0.64413 0.16896 0.0
H155 H 0.90088 0.66638 0.215 0.0
H156 H 0.96208 0.85641 0.36989 0.0
H157 H 0.92565 0.8046 0.45814 0.0
H158 H 0.90521 0.74968 0.42316 0.0
H159 H 0.9426 0.80208 0.33595 0.0
C160 C 0.7326 0.68775 0.86266 0.0
C161 C 0.75094 0.67681 0.83907 0.0
C162 C 0.79045 0.66196 0.88651 0.0
C163 C 0.77947 0.66379 0.85088 0.0
C164 C 0.771 0.67176 0.90992 0.0
C165 C 0.74228 0.68469 0.89802 0.0
U166 U 0.71199 0.74086 0.79583 0.0
O167 O 0.66105 0.75073 0.77027 0.0
O168 O 0.71149 0.79267 0.79852 0.0
C169 C 0.67514 0.78254 0.78355 0.0
C170 C 0.70928 0.70802 0.85089 0.0
C171 C 0.65182 0.79158 0.80478 0.0
C172 C 0.63205 0.7896 0.86006 0.0
C173 C 0.64863 0.77741 0.83645 0.0
C174 C 0.61963 0.82881 0.81951 0.0
C175 C 0.61852 0.81602 0.8521 0.0
C176 C 0.63649 0.81665 0.79585 0.0
C177 C 0.76759 0.75753 0.72701 0.0
C178 C 0.77696 0.81223 0.70523 0.0
C179 C 0.80645 0.77485 0.6836 0.0
C180 C 0.78962 0.75044 0.70484 0.0
C181 C 0.80144 0.80623 0.68509 0.0
C182 C 0.75972 0.78775 0.72591 0.0
C183 C 0.75733 0.73646 0.75485 0.0
O184 O 0.72978 0.74042 0.8518 0.0
O185 O 0.6843 0.69585 0.82173 0.0
O186 O 0.72127 0.71615 0.7499 0.0
O187 O 0.76995 0.7538 0.78545 0.0
H188 H 0.74447 0.67982 0.81168 0.0
H189 H 0.79372 0.65614 0.83223 0.0
H190 H 0.77932 0.67112 0.93757 0.0
H191 H 0.72908 0.69391 0.91654 0.0
H192 H 0.6317 0.77977 0.88524 0.0
H193 H 0.66084 0.7582 0.84363 0.0
H194 H 0.60997 0.84975 0.81334 0.0
H195 H 0.63928 0.8279 0.77153 0.0
H196 H 0.77344 0.83668 0.70678 0.0
H197 H 0.82581 0.77039 0.66828 0.0
H198 H 0.79577 0.72718 0.70563 0.0
H199 H 0.7427 0.79349 0.74301 0.0
C200 C 0.72615 0.20074 0.27374 0.0
C201 C 0.7346 0.17146 0.2674 0.0
C202 C 0.69371 0.16084 0.21032 0.0
C203 C 0.71836 0.15153 0.23576 0.0
C204 C 0.68674 0.19092 0.21653 0.0
C205 C 0.70286 0.21067 0.24798 0.0
U206 U 0.7848 0.22597 0.36706 0.0
O207 O 0.80911 0.27767 0.39378 0.0
O208 O 0.76434 0.23768 0.41313 0.0
C209 C 0.78402 0.27035 0.41441 0.0
C210 C 0.73867 0.22022 0.30761 0.0
C211 C 0.76151 0.2928 0.41467 0.0
C212 C 0.70235 0.30417 0.39737 0.0
C213 C 0.72457 0.28403 0.3942 0.0
C214 C 0.75468 0.34315 0.43958 0.0
C215 C 0.7168 0.33344 0.42094 0.0
C216 C 0.7767 0.32297 0.43655 0.0
C217 C 0.85565 0.1761 0.39633 0.0
C218 C 0.88326 0.15886 0.45013 0.0
C219 C 0.90141 0.14733 0.3963 0.0
C220 C 0.87751 0.16292 0.37875 0.0
C221 C 0.90431 0.14457 0.43214 0.0
C222 C 0.85902 0.17445 0.43234 0.0
C223 C 0.82701 0.18757 0.37502 0.0
O224 O 0.72801 0.20309 0.3338 0.0
O225 O 0.77417 0.24172 0.31454 0.0
O226 O 0.83875 0.21781 0.36365 0.0
O227 O 0.79248 0.17858 0.38242 0.0
H228 H 0.75272 0.16359 0.28717 0.0
H229 H 0.72439 0.12856 0.23145 0.0
H230 H 0.66736 0.19843 0.1977 0.0
H231 H 0.69602 0.23316 0.25265 0.0
H232 H 0.67332 0.29598 0.38261 0.0
H233 H 0.71246 0.26107 0.37661 0.0
H234 H 0.76703 0.366 0.45729 0.0
H235 H 0.80533 0.33049 0.45204 0.0
H236 H 0.88513 0.15759 0.47782 0.0
H237 H 0.91643 0.13617 0.38137 0.0
H238 H 0.87498 0.16351 0.35091 0.0
H239 H 0.84233 0.18439 0.44649 0.0
C240 C 0.32299 0.67718 0.2049 0.0
C241 C 0.32188 0.68258 0.1697 0.0
C242 C 0.25347 0.64808 0.15627 0.0
C243 C 0.28737 0.66818 0.14558 0.0
C244 C 0.25461 0.64464 0.19191 0.0
C245 C 0.28894 0.65886 0.2158 0.0
U246 U 0.42942 0.72798 0.2539 0.0
O247 O 0.44969 0.73031 0.31036 0.0
O248 O 0.47109 0.70405 0.27441 0.0
C249 C 0.47173 0.71268 0.30692 0.0
C250 C 0.35918 0.68581 0.23033 0.0
C251 C 0.47343 0.68748 0.33217 0.0
C252 C 0.44859 0.63225 0.3546 0.0
C253 C 0.44426 0.65569 0.33076 0.0
C254 C 0.51057 0.67258 0.38195 0.0
C255 C 0.4821 0.64017 0.38053 0.0
C256 C 0.50637 0.69562 0.35803 0.0
C257 C 0.46678 0.81335 0.20461 0.0
C258 C 0.51047 0.86789 0.19316 0.0
C259 C 0.45059 0.84021 0.15296 0.0
C260 C 0.44115 0.81319 0.17416 0.0
C261 C 0.48587 0.86768 0.16185 0.0
C262 C 0.50114 0.84107 0.21399 0.0
C263 C 0.4604 0.78496 0.22688 0.0
O264 O 0.38932 0.68401 0.21913 0.0
O265 O 0.36744 0.71072 0.25462 0.0
O266 O 0.44031 0.78295 0.25144 0.0
O267 O 0.46153 0.75578 0.21545 0.0
H268 H 0.34784 0.69668 0.16066 0.0
H269 H 0.28778 0.67151 0.11844 0.0
H270 H 0.22909 0.63033 0.20144 0.0
H271 H 0.28916 0.65434 0.24283 0.0
H272 H 0.42596 0.60768 0.35205 0.0
H273 H 0.41849 0.64882 0.31101 0.0
H274 H 0.53631 0.68058 0.40172 0.0
H275 H 0.52923 0.72003 0.3597 0.0
H276 H 0.53729 0.88881 0.20172 0.0
H277 H 0.43082 0.83902 0.12916 0.0
H278 H 0.41435 0.79203 0.16649 0.0
H279 H 0.5213 0.84179 0.23743 0.0
C280 C 0.15591 0.29294 0.69444 0.0
C281 C 0.17826 0.28682 0.67164 0.0
C282 C 0.13132 0.22905 0.65417 0.0
C283 C 0.16607 0.25513 0.6517 0.0
C284 C 0.10994 0.23543 0.67786 0.0
C285 C 0.12192 0.2668 0.69739 0.0
U286 U 0.20469 0.38938 0.74046 0.0
O287 O 0.16902 0.41699 0.75729 0.0
O288 O 0.20597 0.39993 0.79655 0.0
C289 C 0.18083 0.4152 0.79038 0.0
C290 C 0.16629 0.32542 0.71633 0.0
C291 C 0.16724 0.42991 0.81885 0.0
C292 C 0.15324 0.42981 0.8777 0.0
C293 C 0.16708 0.41681 0.85136 0.0
C294 C 0.13931 0.46965 0.83984 0.0
C295 C 0.13877 0.45666 0.87282 0.0
C296 C 0.15318 0.45659 0.8136 0.0
C297 C 0.29225 0.43582 0.69165 0.0
C298 C 0.33714 0.47961 0.66467 0.0
C299 C 0.33195 0.42124 0.65513 0.0
C300 C 0.3036 0.41141 0.67602 0.0
C301 C 0.34964 0.45575 0.64923 0.0
C302 C 0.30941 0.46985 0.6856 0.0
C303 C 0.26419 0.42819 0.71557 0.0
O304 O 0.19648 0.33483 0.74156 0.0
O305 O 0.1581 0.35094 0.7031 0.0
O306 O 0.22868 0.42568 0.7034 0.0
O307 O 0.26715 0.40886 0.74083 0.0
H308 H 0.2048 0.3065 0.66904 0.0
H309 H 0.18336 0.25136 0.63378 0.0
H310 H 0.08363 0.21606 0.68147 0.0
H311 H 0.10435 0.27063 0.71504 0.0
H312 H 0.15439 0.41841 0.90189 0.0
H313 H 0.17734 0.39604 0.85643 0.0
H314 H 0.12862 0.48979 0.83338 0.0
H315 H 0.15282 0.46748 0.78896 0.0
H316 H 0.34829 0.5062 0.66052 0.0
H317 H 0.34037 0.40172 0.64427 0.0
H318 H 0.29093 0.3849 0.68021 0.0
H319 H 0.30139 0.4893 0.69733 0.0
Pr320 Pr 1.01843 0.02728 0.55616 0.0
Pr321 Pr 0.05972 0.03558 0.51784 0.0
C322 C 0.97467 1.01106 0.60419 0.0
C323 C 0.95084 0.98036 0.61555 0.0
C324 C 0.9326 0.98272 0.64288 0.0
C325 C 0.90835 0.95344 0.65337 0.0
C326 C 0.90252 0.92172 0.6366 0.0
C327 C 0.92093 0.91947 0.60905 0.0
C328 C 0.94517 0.94888 0.5985 0.0
C329 C 0.06344 0.09696 0.57156 0.0
C330 C 0.08864 1.00088 0.57947 0.0
C331 C 0.10291 0.05065 0.46926 0.0
C332 C 0.12622 0.08056 0.45624 0.0
C333 C 0.14292 0.07671 0.42824 0.0
C334 C 0.16593 0.10521 0.41552 0.0
C335 C 0.17206 0.13763 0.43075 0.0
C336 C 0.1553 0.14139 0.45904 0.0
C337 C 0.13228 0.11277 0.47181 0.0
C338 C 1.01341 0.9659 0.50246 0.0
C339 C 0.99076 0.06336 0.49477 0.0
O340 O 0.96214 1.01685 0.57295 0.0
O341 O 1.01128 1.01649 0.61081 0.0
O342 O 0.07752 0.07413 0.56709 0.0
O343 O 1.02668 0.08429 0.56444 0.0
O344 O 0.10347 1.02585 0.56139 0.0
O345 O 0.05159 0.99131 0.57822 0.0
O346 O 0.11599 0.04616 0.50086 0.0
O347 O 0.06625 0.04499 0.46283 0.0
O348 O 1.00032 0.98939 0.50675 0.0
O349 O 0.05023 0.97793 0.50951 0.0
O350 O 0.97532 0.03843 0.51271 0.0
O351 O 1.02774 0.07228 0.49602 0.0
H352 H 0.93687 1.00717 0.65582 0.0
H353 H 0.8939 0.95561 0.67438 0.0
H354 H 0.9169 0.89512 0.59607 0.0
H355 H 0.95931 0.94717 0.5771 0.0
H356 H 0.13826 0.05173 0.41637 0.0
H357 H 0.17912 0.10191 0.39394 0.0
H358 H 0.15961 0.16631 0.47083 0.0
H359 H 0.11922 0.11564 0.49364 0.0
Pr360 Pr 0.51387 0.03552 0.04004 0.0
Pr361 Pr 0.57223 1.0224 1.02795 0.0
C362 C 0.46148 0.05358 0.06467 0.0
C363 C 0.46553 0.08546 0.08339 0.0
C364 C 0.45882 0.1117 0.06523 0.0
C365 C 0.46537 0.1428 0.08287 0.0
C366 C 0.47831 0.14787 0.11889 0.0
C367 C 0.48557 0.12184 0.13692 0.0
C368 C 0.47925 0.0909 0.11933 0.0
C369 C 0.54791 0.07904 0.99211 0.0
C370 C 0.59614 0.07565 0.09069 0.0
C371 C 0.62463 1.00512 1.00285 0.0
C372 C 0.61954 0.9732 0.98366 0.0
C373 C 0.6259 0.94657 1.00134 0.0
C374 C 0.61784 0.9153 0.98339 0.0
C375 C 0.6038 0.91046 0.94753 0.0
C376 C 0.59663 0.93681 0.93005 0.0
C377 C 0.60441 0.96791 0.94796 0.0
C378 C 0.53881 0.97894 0.07615 0.0
C379 C 0.48988 0.98007 0.97799 0.0
O380 O 0.4794 0.03544 0.08125 0.0
O381 O 0.46496 0.05514 1.03227 0.0
O382 O 0.56578 0.07421 1.02042 0.0
O383 O 0.51242 0.059 0.98645 0.0
O384 O 0.6093 0.07075 0.06334 0.0
O385 O 0.55969 0.06005 0.09117 0.0
O386 O 0.60702 1.02377 0.98678 0.0
O387 O 0.62149 1.00327 0.03534 0.0
O388 O 0.52039 0.98408 0.04828 0.0
O389 O 0.57468 0.99783 0.08071 0.0
O390 O 0.47682 0.9869 1.00483 0.0
O391 O 0.52646 0.99519 0.97752 0.0
H392 H 0.44865 0.10828 0.03743 0.0
H393 H 0.45963 0.16265 0.06851 0.0
H394 H 0.4947 0.12485 0.16484 0.0
H395 H 0.48502 0.07125 0.134 0.0
H396 H 0.63691 0.94982 1.029 0.0
H397 H 0.62341 0.89517 0.99734 0.0
H398 H 0.58655 0.93396 0.90225 0.0
H399 H 0.59864 0.98779 0.93369 0.0
Pr400 Pr 0.5553 0.56799 0.55976 0.0
Pr401 Pr 0.52978 0.49595 0.51567 0.0
C402 C 0.55183 0.62547 0.58731 0.0
C403 C 0.52254 0.63558 0.59995 0.0
C404 C 0.533 0.65729 0.63039 0.0
C405 C 0.50636 0.66912 0.64162 0.0
C406 C 0.46867 0.65936 0.62255 0.0
C407 C 0.45785 0.63654 0.59267 0.0
C408 C 0.48451 0.62462 0.58152 0.0
C409 C 0.58164 0.51989 0.59209 0.0
C410 C 0.47122 0.50362 0.56621 0.0
C411 C 0.53975 0.43806 0.49885 0.0
C412 C 0.56676 0.42841 0.48152 0.0
C413 C 0.55284 0.4029 0.45387 0.0
C414 C 0.57796 0.39031 0.44056 0.0
C415 C 0.6174 0.40296 0.45491 0.0
C416 C 0.63152 0.43008 0.48102 0.0
C417 C 0.60655 0.44273 0.49414 0.0
C418 C 0.50633 0.54131 0.47463 0.0
C419 C 0.61041 0.56142 0.50562 0.0
O420 O 0.54595 0.61759 0.55388 0.0
O421 O 0.56555 0.60559 0.60597 0.0
O422 O 0.54906 0.51458 0.57358 0.0
O423 O 0.60274 0.55214 0.5949 0.0
O424 O 0.47797 0.48203 0.54521 0.0
O425 O 0.49412 0.53613 0.57259 0.0
O426 O 0.55458 0.45575 0.52902 0.0
O427 O 0.51394 0.44776 0.47979 0.0
O428 O 0.52407 0.54663 0.50558 0.0
O429 O 0.49712 0.50946 0.4638 0.0
O430 O 0.60194 0.58309 0.52479 0.0
O431 O 0.5904 0.5283 0.50246 0.0
H432 H 0.56209 0.66574 0.64506 0.0
H433 H 0.51573 0.68687 0.66459 0.0
H434 H 0.42887 0.62812 0.57778 0.0
H435 H 0.47555 0.60733 0.5582 0.0
H436 H 0.52237 0.39176 0.4435 0.0
H437 H 0.56624 0.36947 0.42037 0.0
H438 H 0.66187 0.44087 0.49208 0.0
H439 H 0.61841 0.46292 0.51505 0.0
Pr440 Pr 0.04056 0.56065 1.01601 0.0
Pr441 Pr 0.04096 0.50589 0.05463 0.0
C442 C 1.02489 0.60877 0.97956 0.0
C443 C 0.99034 0.61611 0.96703 0.0
C444 C 0.9935 0.64839 0.95712 0.0
C445 C 0.9606 0.65535 0.94421 0.0
C446 C 0.92415 0.62993 0.94079 0.0
C447 C 0.9212 0.59762 0.95125 0.0
C448 C 0.95412 0.59085 0.96455 0.0
C449 C 0.1132 0.57562 0.0576 0.0
C450 C 1.0048 0.55606 0.08889 0.0
C451 C 0.05604 0.45721 0.0904 0.0
C452 C 0.08962 0.44766 0.10006 0.0
C453 C 0.08481 0.41418 0.10667 0.0
C454 C 0.11677 0.40509 0.11713 0.0
C455 C 0.15394 0.42953 0.12143 0.0
C456 C 0.15853 0.46299 0.11396 0.0
C457 C 0.12655 0.47189 0.103 0.0
C458 C 0.96825 0.49155 1.01351 0.0
C459 C 0.07665 0.51017 0.98194 0.0
O460 O 1.02607 0.58098 0.96524 0.0
O461 O 1.03675 0.61296 1.01307 0.0
O462 O 0.0819 0.56135 0.06739 0.0
O463 O 0.10751 0.58273 1.02582 0.0
O464 O 1.0217 0.5339 0.09644 0.0
O465 O 1.00327 0.56684 0.05753 0.0
O466 O 0.05852 0.48629 0.10495 0.0
O467 O 0.04072 0.45226 0.05748 0.0
O468 O 0.99951 0.50522 1.00339 0.0
O469 O 0.97411 0.48517 0.04554 0.0
O470 O 0.05959 0.5322 0.97427 0.0
O471 O 0.07837 0.49966 1.01338 0.0
H472 H 1.02138 0.66814 0.95928 0.0
H473 H 0.96373 0.68068 0.93705 0.0
H474 H 0.89358 0.57744 0.94864 0.0
H475 H 0.95136 0.56584 0.97253 0.0
H476 H 0.05637 0.39518 0.10397 0.0
H477 H 0.11235 0.37894 0.12193 0.0
H478 H 0.18673 0.48247 0.11732 0.0
H479 H 0.13063 0.49778 0.09734 0.0
C480 C 0.24834 0.22099 0.42448 0.0
C481 C 0.2434 0.22151 0.3885 0.0
H482 H 0.22922 0.19286 0.46643 0.0
C483 C 0.21404 0.19558 0.36658 0.0
H484 H 0.27107 0.24111 0.44141 0.0
C485 C 0.19006 0.16867 0.38057 0.0
C486 C 0.19561 0.16735 0.41656 0.0
H487 H 0.20982 0.19615 0.33866 0.0
H488 H 0.16743 0.14876 0.36329 0.0
C489 C 0.2245 0.19375 0.43857 0.0
C490 C 0.39842 0.9208 0.92213 0.0
C491 C 0.40935 0.91941 0.88986 0.0
H492 H 0.41515 0.9412 0.97508 0.0
C493 C 0.4481 0.93579 0.88768 0.0
H494 H 0.36906 0.9079 0.92501 0.0
C495 C 0.47481 0.95448 0.91672 0.0
C496 C 0.46318 0.95736 0.94833 0.0
H497 H 0.45753 0.93557 0.86321 0.0
H498 H 0.50417 0.96773 0.91403 0.0
C499 C 0.42493 0.93977 0.95094 0.0
C500 C 0.56437 0.44217 0.64294 0.0
C501 C 0.6 0.44893 0.6653 0.0
H502 H 0.53107 0.45854 0.60236 0.0
C503 C 0.63003 0.47944 0.66273 0.0
H504 H 0.54004 0.41964 0.6444 0.0
C505 C 0.62449 0.50233 0.63873 0.0
C506 C 0.58892 0.49522 0.6164 0.0
H507 H 0.65802 0.48562 0.67904 0.0
H508 H 0.64806 0.52564 0.6377 0.0
C509 C 0.55906 0.46474 0.61877 0.0
C510 C 0.96405 0.61099 0.1392 0.0
C511 C 0.95809 0.59454 0.16991 0.0
H512 H 0.98231 0.61203 0.09007 0.0
C513 C 0.96733 0.56469 0.1725 0.0
H514 H 0.9585 0.6342 0.13518 0.0
C515 C 0.98224 0.55252 0.14651 0.0
C516 C 0.98788 0.56898 0.11612 0.0
H517 H 0.96297 0.54999 0.19447 0.0
H518 H 0.9891 0.52978 0.15023 0.0
C519 C 0.9782 0.59831 0.11284 0.0
C520 C 0.50298 0.21581 0.19134 0.0
C521 C 0.47015 0.22455 0.18488 0.0
H522 H 0.53228 0.18512 0.17408 0.0
C523 C 0.44318 0.21192 0.15403 0.0
H524 H 0.52395 0.22544 0.21513 0.0
C525 C 0.44755 0.18876 0.131 0.0
C526 C 0.47904 0.17813 0.13851 0.0
H527 H 0.41722 0.21789 0.14899 0.0
H528 H 0.42472 0.17723 0.10882 0.0
C529 C 0.5076 0.19286 0.16803 0.0
C530 C 0.12145 0.93807 0.63235 0.0
C531 C 0.15157 0.93646 0.61657 0.0
H532 H 0.07727 0.95939 0.63262 0.0
C533 C 0.16171 0.95734 0.58992 0.0
H534 H 0.1129 0.92214 0.65285 0.0
C535 C 0.14208 0.97905 0.57899 0.0
C536 C 0.11123 0.98002 0.59395 0.0
H537 H 0.18483 0.95675 0.57731 0.0
H538 H 0.15033 0.99427 0.55793 0.0
C539 C 0.10106 0.9593 0.62077 0.0
C540 C 0.88921 0.4664 0.93375 0.0
C541 C 0.8631 0.43603 0.94229 0.0
H542 H 0.94307 0.50745 0.94935 0.0
C543 C 0.87188 0.42468 0.97489 0.0
H544 H 0.8832 0.47649 0.90928 0.0
C545 C 0.90559 0.4432 0.99826 0.0
C546 C 0.93173 0.47317 0.98939 0.0
H547 H 0.85302 0.40119 0.98224 0.0
H548 H 0.91163 0.43355 1.023 0.0
C549 C 0.92335 0.48449 0.95685 0.0
C550 C 0.68191 0.56287 0.44702 0.0
C551 C 0.70062 0.59783 0.44423 0.0
H552 H 0.6396 0.5243 0.4677 0.0
C553 C 0.69002 0.62087 0.46334 0.0
H554 H 0.6894 0.54387 0.43396 0.0
C555 C 0.66155 0.60933 0.48379 0.0
C556 C 0.64247 0.57434 0.48572 0.0
H557 H 0.70302 0.64793 0.46202 0.0
H558 H 0.654 0.62792 0.49757 0.0
C559 C 0.6533 0.55142 0.46702 0.0
C560 C 0.21827 0.38974 0.17349 0.0
C561 C 0.25221 0.40348 0.16051 0.0
H562 H 0.16095 0.38775 0.17183 0.0
C563 C 0.25363 0.42568 0.1344 0.0
H564 H 0.21614 0.37209 0.19324 0.0
C565 C 0.22162 0.43397 0.12146 0.0
C566 C 0.18773 0.42037 0.13458 0.0
H567 H 0.27953 0.43676 0.12411 0.0
H568 H 0.22335 0.45081 0.10098 0.0
C569 C 0.18644 0.39826 0.1608 0.0
C570 C 0.60843 0.16322 0.96335 0.0
C571 C 0.58635 0.16384 0.93078 0.0
H572 H 0.61392 0.13592 1.00834 0.0
C573 C 0.55334 0.13512 0.91805 0.0
H574 H 0.63392 0.18476 0.9742 0.0
C575 C 0.54165 0.10762 0.93781 0.0
C576 C 0.56286 0.1075 0.97072 0.0
H577 H 0.53609 0.13387 0.89273 0.0
H578 H 0.51559 0.08644 0.92733 0.0
C579 C 0.59689 0.13528 0.98304 0.0
C580 C 0.99528 0.89469 0.43314 0.0
C581 C 0.96156 0.86934 0.43874 0.0
H582 H 1.0371 0.94447 0.44822 0.0
C583 C 0.94361 0.87699 0.46499 0.0
H584 H 1.01065 0.89008 0.41385 0.0
C585 C 0.95905 0.90885 0.48492 0.0
C586 C 0.9931 0.93362 0.47941 0.0
H587 H 0.91755 0.85839 0.47012 0.0
H588 H 0.94507 0.91367 0.5053 0.0
C589 C 1.01074 0.92607 0.45312 0.0
C590 C 0.41814 0.69709 0.67826 0.0
C591 C 0.39612 0.70957 0.6534 0.0
H592 H 0.45777 0.67099 0.68801 0.0
C593 C 0.39553 0.70276 0.61811 0.0
H594 H 0.41868 0.70145 0.70566 0.0
C595 C 0.41808 0.68538 0.60799 0.0
C596 C 0.44153 0.67437 0.63298 0.0
H597 H 0.37916 0.71234 0.5984 0.0
H598 H 0.41847 0.68197 0.58067 0.0
C599 C 0.44061 0.67973 0.66817 0.0
C600 C 0.8248 0.8374 0.63626 0.0
C601 C 0.82755 0.83484 0.67187 0.0
H602 H 0.84678 0.86811 0.59686 0.0
C603 C 0.85569 0.85985 0.69573 0.0
H604 H 0.80304 0.81797 0.61783 0.0
C605 C 0.88077 0.8878 0.68404 0.0
C606 C 0.87754 0.89111 0.64841 0.0
H607 H 0.85819 0.85768 0.72338 0.0
H608 H 0.90254 0.9069 0.70281 0.0
C609 C 0.84974 0.8657 0.62447 0.0
C610 C 0.65372 0.10331 0.18081 0.0
C611 C 0.67237 0.13817 0.17864 0.0
H612 H 0.6139 0.05611 0.15419 0.0
C613 C 0.66699 0.1518 0.14672 0.0
H614 H 0.65723 0.09218 0.20509 0.0
C615 C 0.64236 0.13119 0.11785 0.0
C616 C 0.62236 0.09693 0.12073 0.0
H617 H 0.68128 0.17852 0.14429 0.0
H618 H 0.63811 0.14216 0.09356 0.0
C619 C 0.62857 0.08285 0.15202 0.0
C620 C 0.45671 0.58966 0.41543 0.0
C621 C 0.48796 0.61502 0.40562 0.0
H622 H 0.43796 0.54641 0.44466 0.0
C623 C 0.52525 0.61602 0.42009 0.0
H624 H 0.42757 0.58804 0.40573 0.0
C625 C 0.53102 0.593 0.4436 0.0
C626 C 0.49978 0.56755 0.45261 0.0
H627 H 0.55032 0.63408 0.41278 0.0
H628 H 0.56002 0.59435 0.45379 0.0
C629 C 0.46256 0.56594 0.43818 0.0
C630 C 0.11771 0.45488 0.93254 0.0
C631 C 0.12328 0.47072 0.90143 0.0
H632 H 0.09973 0.45457 0.98172 0.0
C633 C 0.11351 0.5003 0.89823 0.0
H634 H 0.12374 0.432 0.93724 0.0
C635 C 0.09864 0.5128 0.92405 0.0
C636 C 0.09343 0.49694 0.9548 0.0
H637 H 0.11728 0.51454 0.87593 0.0
H638 H 0.09143 0.53532 0.91987 0.0
C639 C 0.1035 0.46786 0.95865 0.0
C640 C 0.57726 0.84328 0.87403 0.0
C641 C 0.60988 0.8342 0.87968 0.0
H642 H 0.54872 0.87403 0.8926 0.0
C643 C 0.63734 0.84637 0.91029 0.0
H644 H 0.55591 0.83401 0.85043 0.0
C645 C 0.6336 0.86933 0.93395 0.0
C646 C 0.60226 0.88024 0.92733 0.0
H647 H 0.66315 0.84015 0.9147 0.0
H648 H 0.65681 0.88049 0.95593 0.0
C649 C 0.57325 0.86603 0.89799 0.0
C650 C 0.96253 0.1271 0.44028 0.0
C651 C 0.92761 0.1252 0.44976 0.0
H652 H 1.00963 0.10909 0.44682 0.0
C653 C 0.91401 0.10293 0.47451 0.0
H654 H 0.97421 0.14424 0.42165 0.0
C655 C 0.93421 0.08253 0.48867 0.0
C656 C 0.96874 0.08411 0.47871 0.0
H657 H 0.88718 0.10053 0.4823 0.0
H658 H 0.92286 0.06567 0.50763 0.0
C659 C 0.9829 0.10696 0.4547 0.0
C660 C 0.19283 0.59719 0.13653 0.0
C661 C 0.21752 0.62946 0.13058 0.0
H662 H 0.14025 0.55535 0.11851 0.0
C663 C 0.20756 0.64339 0.09986 0.0
H664 H 0.19976 0.58507 0.15935 0.0
C665 C 0.17412 0.62551 0.07579 0.0
C666 C 0.14943 0.59363 0.08219 0.0
H667 H 0.22525 0.66835 0.09456 0.0
H668 H 0.16709 0.63708 0.05255 0.0
C669 C 0.15891 0.57979 0.1129 0.0
C670 C 0.38474 0.44544 0.60165 0.0
C671 C 0.38086 0.46733 0.62757 0.0
H672 H 0.41565 0.43919 0.56224 0.0
C673 C 0.40732 0.50109 0.63244 0.0
H674 H 0.36534 0.41936 0.59644 0.0
C675 C 0.43537 0.51267 0.61195 0.0
C676 C 0.43912 0.49094 0.58611 0.0
H677 H 0.40721 0.51897 0.6526 0.0
H678 H 0.45473 0.53883 0.61702 0.0
C679 C 0.41352 0.45697 0.58149 0.0
C680 C 0.82356 0.63171 0.92691 0.0
C681 C 0.82393 0.65229 0.8994 0.0
H682 H 0.85524 0.60898 0.96203 0.0
C683 C 0.85715 0.66487 0.88514 0.0
H684 H 0.79823 0.62149 0.9382 0.0
C685 C 0.88947 0.6572 0.89829 0.0
C686 C 0.88939 0.63712 0.92622 0.0
H687 H 0.8585 0.68124 0.86426 0.0
H688 H 0.91454 0.66705 0.88656 0.0
C689 C 0.85605 0.62427 0.94027 0.0
C690 C 0.53737 0.91052 0.1368 0.0
C691 C 0.49828 0.89553 0.13857 0.0
H692 H 0.58044 0.94844 0.11646 0.0
C693 C 0.47205 0.90786 0.11841 0.0
H694 H 0.55851 0.90127 0.15079 0.0
C695 C 0.48482 0.93468 0.09763 0.0
C696 C 0.5241 0.95003 0.097 0.0
H697 H 0.44179 0.89727 0.11915 0.0
H698 H 0.46412 0.94385 0.08265 0.0
C699 C 0.55007 0.93755 0.11677 0.0
C700 C 0.13929 0.17827 0.62274 0.0
C701 C 0.11579 0.19583 0.63154 0.0
H702 H 0.14176 0.13311 0.59714 0.0
C703 C 0.07607 0.18086 0.61908 0.0
H704 H 0.17002 0.18885 0.63181 0.0
C705 C 0.0602 0.14942 0.5995 0.0
C706 C 0.08318 0.13132 0.59129 0.0
H707 H 0.0568 0.19353 0.62433 0.0
H708 H 1.02934 0.13914 0.59105 0.0
C709 C 0.12313 0.14623 0.60297 0.0
C710 C 0.66536 0.35846 0.40233 0.0
C711 C 0.69175 0.35217 0.42863 0.0
H712 H 0.62139 0.37999 0.38989 0.0
C713 C 0.69337 0.36289 0.4632 0.0
H714 H 0.66348 0.35061 0.37542 0.0
C715 C 0.66954 0.3796 0.47138 0.0
C716 C 0.64329 0.38607 0.44524 0.0
H717 H 0.7125 0.35763 0.48422 0.0
H718 H 0.67108 0.38673 0.49842 0.0
C719 C 0.64131 0.37526 0.41058 0.0
loop_
_geom_bond_atom_site_label_1
_geom_bond_atom_site_label_2
_geom_bond_distance
_geom_bond_site_symmetry_2
_ccdc_geom_bond_type
C0 C1 1.264 . S
C0 C5 1.479 . S
C0 C10 1.465 . S
C1 C0 1.264 . S
C1 C3 1.339 . S
C1 H28 0.931 . S
C2 C3 1.395 . S
C2 C4 1.320 . S
C3 C1 1.339 . S
C3 C2 1.395 . S
C3 H29 0.929 . S
C4 C2 1.320 . S
C4 C5 1.405 . S
C4 H30 0.930 . S
C5 C0 1.479 . S
C5 C4 1.405 . S
C5 H31 0.931 . S
U6 O7 2.454 . S
U6 O8 2.458 . S
U6 C9 2.984 . S
U6 C10 2.847 . S
U6 C23 2.882 . S
U6 O24 2.441 . S
U6 O25 2.420 . S
U6 O26 2.455 . S
U6 O27 2.449 . S
O7 U6 2.454 . S
O7 C9 1.353 . S
O8 U6 2.458 . S
O8 C9 1.286 . S
C9 U6 2.984 . S
C9 O7 1.353 . S
C9 O8 1.286 . S
C9 C11 1.363 . S
C10 C0 1.465 . S
C10 U6 2.847 . S
C10 O24 1.249 . S
C10 O25 1.202 . S
C11 C9 1.363 . S
C11 C13 1.408 . S
C11 C16 1.342 . S
C12 C13 1.310 . S
C12 C15 1.461 . S
C12 H32 0.932 . S
C13 C11 1.408 . S
C13 C12 1.310 . S
C13 H33 0.930 . S
C14 C15 1.474 . S
C14 C16 1.285 . S
C14 H34 0.929 . S
C15 C12 1.461 . S
C15 C14 1.474 . S
C16 C11 1.342 . S
C16 C14 1.285 . S
C16 H35 0.930 . S
C17 C20 1.424 . S
C17 C22 1.245 . S
C17 C23 1.428 . S
C18 C21 1.260 . S
C18 C22 1.477 . S
C18 H36 0.932 . S
C19 C20 1.384 . S
C19 C21 1.479 . S
C19 H37 0.929 . S
C20 C17 1.424 . S
C20 C19 1.384 . S
C20 H38 0.928 . S
C21 C18 1.260 . S
C21 C19 1.479 . S
C22 C17 1.245 . S
C22 C18 1.477 . S
C22 H39 0.932 . S
C23 U6 2.882 . S
C23 C17 1.428 . S
C23 O26 1.301 . S
C23 O27 1.282 . S
O24 U6 2.441 . S
O24 C10 1.249 . S
O25 U6 2.420 . S
O25 C10 1.202 . S
O26 U6 2.455 . S
O26 C23 1.301 . S
O27 U6 2.449 . S
O27 C23 1.282 . S
H28 C1 0.931 . S
H29 C3 0.929 . S
H30 C4 0.930 . S
H31 C5 0.931 . S
H32 C12 0.932 . S
H33 C13 0.930 . S
H34 C14 0.929 . S
H35 C16 0.930 . S
H36 C18 0.932 . S
H37 C19 0.929 . S
H38 C20 0.928 . S
H39 C22 0.932 . S
C40 C41 1.264 . S
C40 C45 1.479 . S
C40 C50 1.465 . S
C41 C40 1.264 . S
C41 C43 1.339 . S
C41 H68 0.931 . S
C42 C43 1.395 . S
C42 C44 1.320 . S
C43 C41 1.339 . S
C43 C42 1.395 . S
C43 H69 0.929 . S
C44 C42 1.320 . S
C44 C45 1.405 . S
C44 H70 0.930 . S
C45 C40 1.479 . S
C45 C44 1.405 . S
C45 H71 0.931 . S
U46 O47 2.454 . S
U46 O48 2.458 . S
U46 C49 2.984 . S
U46 C50 2.847 . S
U46 C63 2.882 . S
U46 O64 2.441 . S
U46 O65 2.420 . S
U46 O66 2.455 . S
U46 O67 2.449 . S
O47 U46 2.454 . S
O47 C49 1.353 . S
O48 U46 2.458 . S
O48 C49 1.286 . S
C49 U46 2.984 . S
C49 O47 1.353 . S
C49 O48 1.286 . S
C49 C51 1.363 . S
C50 C40 1.465 . S
C50 U46 2.847 . S
C50 O64 1.249 . S
C50 O65 1.202 . S
C51 C49 1.363 . S
C51 C53 1.408 . S
C51 C56 1.342 . S
C52 C53 1.310 . S
C52 C55 1.461 . S
C52 H72 0.932 . S
C53 C51 1.408 . S
C53 C52 1.310 . S
C53 H73 0.930 . S
C54 C55 1.474 . S
C54 C56 1.285 . S
C54 H74 0.929 . S
C55 C52 1.461 . S
C55 C54 1.474 . S
C56 C51 1.342 . S
C56 C54 1.285 . S
C56 H75 0.930 . S
C57 C60 1.424 . S
C57 C62 1.245 . S
C57 C63 1.428 . S
C58 C61 1.260 . S
C58 C62 1.477 . S
C58 H76 0.932 . S
C59 C60 1.384 . S
C59 C61 1.479 . S
C59 H77 0.929 . S
C60 C57 1.424 . S
C60 C59 1.384 . S
C60 H78 0.928 . S
C61 C58 1.260 . S
C61 C59 1.479 . S
C62 C57 1.245 . S
C62 C58 1.477 . S
C62 H79 0.932 . S
C63 U46 2.882 . S
C63 C57 1.428 . S
C63 O66 1.301 . S
C63 O67 1.282 . S
O64 U46 2.441 . S
O64 C50 1.249 . S
O65 U46 2.420 . S
O65 C50 1.202 . S
O66 U46 2.455 . S
O66 C63 1.301 . S
O67 U46 2.449 . S
O67 C63 1.282 . S
H68 C41 0.931 . S
H69 C43 0.929 . S
H70 C44 0.930 . S
H71 C45 0.931 . S
H72 C52 0.932 . S
H73 C53 0.930 . S
H74 C54 0.929 . S
H75 C56 0.930 . S
H76 C58 0.932 . S
H77 C59 0.929 . S
H78 C60 0.928 . S
H79 C62 0.932 . S
C80 C81 1.264 . S
C80 C85 1.479 . S
C80 C90 1.465 . S
C81 C80 1.264 . S
C81 C83 1.339 . S
C81 H108 0.931 . S
C82 C83 1.395 . S
C82 C84 1.320 . S
C83 C81 1.339 . S
C83 C82 1.395 . S
C83 H109 0.929 . S
C84 C82 1.320 . S
C84 C85 1.405 . S
C84 H110 0.930 . S
C85 C80 1.479 . S
C85 C84 1.405 . S
C85 H111 0.931 . S
U86 O87 2.454 . S
U86 O88 2.458 . S
U86 C89 2.984 . S
U86 C90 2.847 . S
U86 C103 2.882 . S
U86 O104 2.441 . S
U86 O105 2.420 . S
U86 O106 2.455 . S
U86 O107 2.449 . S
O87 U86 2.454 . S
O87 C89 1.353 . S
O88 U86 2.458 . S
O88 C89 1.286 . S
C89 U86 2.984 . S
C89 O87 1.353 . S
C89 O88 1.286 . S
C89 C91 1.363 . S
C90 C80 1.465 . S
C90 U86 2.847 . S
C90 O104 1.249 . S
C90 O105 1.202 . S
C91 C89 1.363 . S
C91 C93 1.408 . S
C91 C96 1.342 . S
C92 C93 1.310 . S
C92 C95 1.461 . S
C92 H112 0.932 . S
C93 C91 1.408 . S
C93 C92 1.310 . S
C93 H113 0.930 . S
C94 C95 1.474 . S
C94 C96 1.285 . S
C94 H114 0.929 . S
C95 C92 1.461 . S
C95 C94 1.474 . S
C96 C91 1.342 . S
C96 C94 1.285 . S
C96 H115 0.930 . S
C97 C100 1.424 . S
C97 C102 1.245 . S
C97 C103 1.428 . S
C98 C101 1.260 . S
C98 C102 1.477 . S
C98 H116 0.932 . S
C99 C100 1.384 . S
C99 C101 1.479 . S
C99 H117 0.929 . S
C100 C97 1.424 . S
C100 C99 1.384 . S
C100 H118 0.928 . S
C101 C98 1.260 . S
C101 C99 1.479 . S
C102 C97 1.245 . S
C102 C98 1.477 . S
C102 H119 0.932 . S
C103 U86 2.882 . S
C103 C97 1.428 . S
C103 O106 1.301 . S
C103 O107 1.282 . S
O104 U86 2.441 . S
O104 C90 1.249 . S
O105 U86 2.420 . S
O105 C90 1.202 . S
O106 U86 2.455 . S
O106 C103 1.301 . S
O107 U86 2.449 . S
O107 C103 1.282 . S
H108 C81 0.931 . S
H109 C83 0.929 . S
H110 C84 0.930 . S
H111 C85 0.931 . S
H112 C92 0.932 . S
H113 C93 0.930 . S
H114 C94 0.929 . S
H115 C96 0.930 . S
H116 C98 0.932 . S
H117 C99 0.929 . S
H118 C100 0.928 . S
H119 C102 0.932 . S
C120 C121 1.264 . S
C120 C125 1.479 . S
C120 C130 1.465 . S
C121 C120 1.264 . S
C121 C123 1.339 . S
C121 H148 0.931 . S
C122 C123 1.395 . S
C122 C124 1.320 . S
C123 C121 1.339 . S
C123 C122 1.395 . S
C123 H149 0.929 . S
C124 C122 1.320 . S
C124 C125 1.405 . S
C124 H150 0.930 . S
C125 C120 1.479 . S
C125 C124 1.405 . S
C125 H151 0.931 . S
U126 O127 2.454 . S
U126 O128 2.458 . S
U126 C129 2.984 . S
U126 C130 2.847 . S
U126 C143 2.882 . S
U126 O144 2.441 . S
U126 O145 2.420 . S
U126 O146 2.455 . S
U126 O147 2.449 . S
O127 U126 2.454 . S
O127 C129 1.353 . S
O128 U126 2.458 . S
O128 C129 1.286 . S
C129 U126 2.984 . S
C129 O127 1.353 . S
C129 O128 1.286 . S
C129 C131 1.363 . S
C130 C120 1.465 . S
C130 U126 2.847 . S
C130 O144 1.249 . S
C130 O145 1.202 . S
C131 C129 1.363 . S
C131 C133 1.408 . S
C131 C136 1.342 . S
C132 C133 1.310 . S
C132 C135 1.461 . S
C132 H152 0.932 . S
C133 C131 1.408 . S
C133 C132 1.310 . S
C133 H153 0.930 . S
C134 C135 1.474 . S
C134 C136 1.285 . S
C134 H154 0.929 . S
C135 C132 1.461 . S
C135 C134 1.474 . S
C136 C131 1.342 . S
C136 C134 1.285 . S
C136 H155 0.930 . S
C137 C140 1.424 . S
C137 C142 1.245 . S
C137 C143 1.428 . S
C138 C141 1.260 . S
C138 C142 1.477 . S
C138 H156 0.932 . S
C139 C140 1.384 . S
C139 C141 1.479 . S
C139 H157 0.929 . S
C140 C137 1.424 . S
C140 C139 1.384 . S
C140 H158 0.928 . S
C141 C138 1.260 . S
C141 C139 1.479 . S
C142 C137 1.245 . S
C142 C138 1.477 . S
C142 H159 0.932 . S
C143 U126 2.882 . S
C143 C137 1.428 . S
C143 O146 1.301 . S
C143 O147 1.282 . S
O144 U126 2.441 . S
O144 C130 1.249 . S
O145 U126 2.420 . S
O145 C130 1.202 . S
O146 U126 2.455 . S
O146 C143 1.301 . S
O147 U126 2.449 . S
O147 C143 1.282 . S
H148 C121 0.931 . S
H149 C123 0.929 . S
H150 C124 0.930 . S
H151 C125 0.931 . S
H152 C132 0.932 . S
H153 C133 0.930 . S
H154 C134 0.929 . S
H155 C136 0.930 . S
H156 C138 0.932 . S
H157 C139 0.929 . S
H158 C140 0.928 . S
H159 C142 0.932 . S
C160 C161 1.264 . S
C160 C165 1.479 . S
C160 C170 1.465 . S
C161 C160 1.264 . S
C161 C163 1.339 . S
C161 H188 0.931 . S
C162 C163 1.395 . S
C162 C164 1.320 . S
C163 C161 1.339 . S
C163 C162 1.395 . S
C163 H189 0.929 . S
C164 C162 1.320 . S
C164 C165 1.405 . S
C164 H190 0.930 . S
C165 C160 1.479 . S
C165 C164 1.405 . S
C165 H191 0.931 . S
U166 O167 2.454 . S
U166 O168 2.458 . S
U166 C169 2.984 . S
U166 C170 2.847 . S
U166 C183 2.882 . S
U166 O184 2.441 . S
U166 O185 2.420 . S
U166 O186 2.455 . S
U166 O187 2.449 . S
O167 U166 2.454 . S
O167 C169 1.353 . S
O168 U166 2.458 . S
O168 C169 1.286 . S
C169 U166 2.984 . S
C169 O167 1.353 . S
C169 O168 1.286 . S
C169 C171 1.363 . S
C170 C160 1.465 . S
C170 U166 2.847 . S
C170 O184 1.249 . S
C170 O185 1.202 . S
C171 C169 1.363 . S
C171 C173 1.408 . S
C171 C176 1.342 . S
C172 C173 1.310 . S
C172 C175 1.461 . S
C172 H192 0.932 . S
C173 C171 1.408 . S
C173 C172 1.310 . S
C173 H193 0.930 . S
C174 C175 1.474 . S
C174 C176 1.285 . S
C174 H194 0.929 . S
C175 C172 1.461 . S
C175 C174 1.474 . S
C176 C171 1.342 . S
C176 C174 1.285 . S
C176 H195 0.930 . S
C177 C180 1.424 . S
C177 C182 1.245 . S
C177 C183 1.428 . S
C178 C181 1.260 . S
C178 C182 1.477 . S
C178 H196 0.932 . S
C179 C180 1.384 . S
C179 C181 1.479 . S
C179 H197 0.929 . S
C180 C177 1.424 . S
C180 C179 1.384 . S
C180 H198 0.928 . S
C181 C178 1.260 . S
C181 C179 1.479 . S
C182 C177 1.245 . S
C182 C178 1.477 . S
C182 H199 0.932 . S
C183 U166 2.882 . S
C183 C177 1.428 . S
C183 O186 1.301 . S
C183 O187 1.282 . S
O184 U166 2.441 . S
O184 C170 1.249 . S
O185 U166 2.420 . S
O185 C170 1.202 . S
O186 U166 2.455 . S
O186 C183 1.301 . S
O187 U166 2.449 . S
O187 C183 1.282 . S
H188 C161 0.931 . S
H189 C163 0.929 . S
H190 C164 0.930 . S
H191 C165 0.931 . S
H192 C172 0.932 . S
H193 C173 0.930 . S
H194 C174 0.929 . S
H195 C176 0.930 . S
H196 C178 0.932 . S
H197 C179 0.929 . S
H198 C180 0.928 . S
H199 C182 0.932 . S
C200 C201 1.264 . S
C200 C205 1.479 . S
C200 C210 1.465 . S
C201 C200 1.264 . S
C201 C203 1.339 . S
C201 H228 0.931 . S
C202 C203 1.395 . S
C202 C204 1.320 . S
C203 C201 1.339 . S
C203 C202 1.395 . S
C203 H229 0.929 . S
C204 C202 1.320 . S
C204 C205 1.405 . S
C204 H230 0.930 . S
C205 C200 1.479 . S
C205 C204 1.405 . S
C205 H231 0.931 . S
U206 O207 2.454 . S
U206 O208 2.458 . S
U206 C209 2.984 . S
U206 C210 2.847 . S
U206 C223 2.882 . S
U206 O224 2.441 . S
U206 O225 2.420 . S
U206 O226 2.455 . S
U206 O227 2.449 . S
O207 U206 2.454 . S
O207 C209 1.353 . S
O208 U206 2.458 . S
O208 C209 1.286 . S
C209 U206 2.984 . S
C209 O207 1.353 . S
C209 O208 1.286 . S
C209 C211 1.363 . S
C210 C200 1.465 . S
C210 U206 2.847 . S
C210 O224 1.249 . S
C210 O225 1.202 . S
C211 C209 1.363 . S
C211 C213 1.408 . S
C211 C216 1.342 . S
C212 C213 1.310 . S
C212 C215 1.461 . S
C212 H232 0.932 . S
C213 C211 1.408 . S
C213 C212 1.310 . S
C213 H233 0.930 . S
C214 C215 1.474 . S
C214 C216 1.285 . S
C214 H234 0.929 . S
C215 C212 1.461 . S
C215 C214 1.474 . S
C216 C211 1.342 . S
C216 C214 1.285 . S
C216 H235 0.930 . S
C217 C220 1.424 . S
C217 C222 1.245 . S
C217 C223 1.428 . S
C218 C221 1.260 . S
C218 C222 1.477 . S
C218 H236 0.932 . S
C219 C220 1.384 . S
C219 C221 1.479 . S
C219 H237 0.929 . S
C220 C217 1.424 . S
C220 C219 1.384 . S
C220 H238 0.928 . S
C221 C218 1.260 . S
C221 C219 1.479 . S
C222 C217 1.245 . S
C222 C218 1.477 . S
C222 H239 0.932 . S
C223 U206 2.882 . S
C223 C217 1.428 . S
C223 O226 1.301 . S
C223 O227 1.282 . S
O224 U206 2.441 . S
O224 C210 1.249 . S
O225 U206 2.420 . S
O225 C210 1.202 . S
O226 U206 2.455 . S
O226 C223 1.301 . S
O227 U206 2.449 . S
O227 C223 1.282 . S
H228 C201 0.931 . S
H229 C203 0.929 . S
H230 C204 0.930 . S
H231 C205 0.931 . S
H232 C212 0.932 . S
H233 C213 0.930 . S
H234 C214 0.929 . S
H235 C216 0.930 . S
H236 C218 0.932 . S
H237 C219 0.929 . S
H238 C220 0.928 . S
H239 C222 0.932 . S
C240 C241 1.264 . S
C240 C245 1.479 . S
C240 C250 1.465 . S
C241 C240 1.264 . S
C241 C243 1.339 . S
C241 H268 0.931 . S
C242 C243 1.395 . S
C242 C244 1.320 . S
C243 C241 1.339 . S
C243 C242 1.395 . S
C243 H269 0.929 . S
C244 C242 1.320 . S
C244 C245 1.405 . S
C244 H270 0.930 . S
C245 C240 1.479 . S
C245 C244 1.405 . S
C245 H271 0.931 . S
U246 O247 2.454 . S
U246 O248 2.458 . S
U246 C249 2.984 . S
U246 C250 2.847 . S
U246 C263 2.882 . S
U246 O264 2.441 . S
U246 O265 2.420 . S
U246 O266 2.455 . S
U246 O267 2.449 . S
O247 U246 2.454 . S
O247 C249 1.353 . S
O248 U246 2.458 . S
O248 C249 1.286 . S
C249 U246 2.984 . S
C249 O247 1.353 . S
C249 O248 1.286 . S
C249 C251 1.363 . S
C250 C240 1.465 . S
C250 U246 2.847 . S
C250 O264 1.249 . S
C250 O265 1.202 . S
C251 C249 1.363 . S
C251 C253 1.408 . S
C251 C256 1.342 . S
C252 C253 1.310 . S
C252 C255 1.461 . S
C252 H272 0.932 . S
C253 C251 1.408 . S
C253 C252 1.310 . S
C253 H273 0.930 . S
C254 C255 1.474 . S
C254 C256 1.285 . S
C254 H274 0.929 . S
C255 C252 1.461 . S
C255 C254 1.474 . S
C256 C251 1.342 . S
C256 C254 1.285 . S
C256 H275 0.930 . S
C257 C260 1.424 . S
C257 C262 1.245 . S
C257 C263 1.428 . S
C258 C261 1.260 . S
C258 C262 1.477 . S
C258 H276 0.932 . S
C259 C260 1.384 . S
C259 C261 1.479 . S
C259 H277 0.929 . S
C260 C257 1.424 . S
C260 C259 1.384 . S
C260 H278 0.928 . S
C261 C258 1.260 . S
C261 C259 1.479 . S
C262 C257 1.245 . S
C262 C258 1.477 . S
C262 H279 0.932 . S
C263 U246 2.882 . S
C263 C257 1.428 . S
C263 O266 1.301 . S
C263 O267 1.282 . S
O264 U246 2.441 . S
O264 C250 1.249 . S
O265 U246 2.420 . S
O265 C250 1.202 . S
O266 U246 2.455 . S
O266 C263 1.301 . S
O267 U246 2.449 . S
O267 C263 1.282 . S
H268 C241 0.931 . S
H269 C243 0.929 . S
H270 C244 0.930 . S
H271 C245 0.931 . S
H272 C252 0.932 . S
H273 C253 0.930 . S
H274 C254 0.929 . S
H275 C256 0.930 . S
H276 C258 0.932 . S
H277 C259 0.929 . S
H278 C260 0.928 . S
H279 C262 0.932 . S
C280 C281 1.264 . S
C280 C285 1.479 . S
C280 C290 1.465 . S
C281 C280 1.264 . S
C281 C283 1.339 . S
C281 H308 0.931 . S
C282 C283 1.395 . S
C282 C284 1.320 . S
C283 C281 1.339 . S
C283 C282 1.395 . S
C283 H309 0.929 . S
C284 C282 1.320 . S
C284 C285 1.405 . S
C284 H310 0.930 . S
C285 C280 1.479 . S
C285 C284 1.405 . S
C285 H311 0.931 . S
U286 O287 2.454 . S
U286 O288 2.458 . S
U286 C289 2.984 . S
U286 C290 2.847 . S
U286 C303 2.882 . S
U286 O304 2.441 . S
U286 O305 2.420 . S
U286 O306 2.455 . S
U286 O307 2.449 . S
O287 U286 2.454 . S
O287 C289 1.353 . S
O288 U286 2.458 . S
O288 C289 1.286 . S
C289 U286 2.984 . S
C289 O287 1.353 . S
C289 O288 1.286 . S
C289 C291 1.363 . S
C290 C280 1.465 . S
C290 U286 2.847 . S
C290 O304 1.249 . S
C290 O305 1.202 . S
C291 C289 1.363 . S
C291 C293 1.408 . S
C291 C296 1.342 . S
C292 C293 1.310 . S
C292 C295 1.461 . S
C292 H312 0.932 . S
C293 C291 1.408 . S
C293 C292 1.310 . S
C293 H313 0.930 . S
C294 C295 1.474 . S
C294 C296 1.285 . S
C294 H314 0.929 . S
C295 C292 1.461 . S
C295 C294 1.474 . S
C296 C291 1.342 . S
C296 C294 1.285 . S
C296 H315 0.930 . S
C297 C300 1.424 . S
C297 C302 1.245 . S
C297 C303 1.428 . S
C298 C301 1.260 . S
C298 C302 1.477 . S
C298 H316 0.932 . S
C299 C300 1.384 . S
C299 C301 1.479 . S
C299 H317 0.929 . S
C300 C297 1.424 . S
C300 C299 1.384 . S
C300 H318 0.928 . S
C301 C298 1.260 . S
C301 C299 1.479 . S
C302 C297 1.245 . S
C302 C298 1.477 . S
C302 H319 0.932 . S
C303 U286 2.882 . S
C303 C297 1.428 . S
C303 O306 1.301 . S
C303 O307 1.282 . S
O304 U286 2.441 . S
O304 C290 1.249 . S
O305 U286 2.420 . S
O305 C290 1.202 . S
O306 U286 2.455 . S
O306 C303 1.301 . S
O307 U286 2.449 . S
O307 C303 1.282 . S
H308 C281 0.931 . S
H309 C283 0.929 . S
H310 C284 0.930 . S
H311 C285 0.931 . S
H312 C292 0.932 . S
H313 C293 0.930 . S
H314 C294 0.929 . S
H315 C296 0.930 . S
H316 C298 0.932 . S
H317 C299 0.929 . S
H318 C300 0.928 . S
H319 C302 0.932 . S
Pr320 C322 2.880 . S
Pr320 O340 2.562 . S
Pr320 O341 2.490 . S
Pr320 O342 2.695 1_665 S
Pr320 O343 2.512 1_665 S
Pr320 O345 2.437 1_655 S
Pr320 O348 2.436 . S
Pr320 O350 2.438 1_565 S
Pr321 C331 2.880 . S
Pr321 O342 2.436 . S
Pr321 O344 2.438 1_545 S
Pr321 O346 2.562 . S
Pr321 O347 2.490 . S
Pr321 O348 2.695 1_445 S
Pr321 O349 2.512 1_545 S
Pr321 O351 2.437 1_455 S
C322 Pr320 2.880 . S
C322 C323 1.491 . S
C322 O340 1.254 . S
C322 O341 1.225 . S
C323 C322 1.491 . S
C323 C324 1.392 . S
C323 C328 1.356 . S
C324 C323 1.392 . S
C324 C325 1.368 . S
C324 H352 0.929 . S
C325 C324 1.368 . S
C325 C326 1.386 . S
C325 H353 0.929 . S
C326 C325 1.386 . S
C326 C327 1.373 . S
C327 C326 1.373 . S
C327 C328 1.409 . S
C327 H354 0.931 . S
C328 C323 1.356 . S
C328 C327 1.409 . S
C328 H355 0.930 . S
C329 O342 1.270 . S
C329 O343 1.248 . S
C330 O344 1.267 . S
C330 O345 1.278 . S
C331 Pr321 2.880 . S
C331 C332 1.491 . S
C331 O346 1.254 . S
C331 O347 1.225 . S
C332 C331 1.491 . S
C332 C333 1.392 . S
C332 C337 1.356 . S
C333 C332 1.392 . S
C333 C334 1.368 . S
C333 H356 0.929 . S
C334 C333 1.368 . S
C334 C335 1.386 . S
C334 H357 0.929 . S
C335 C334 1.386 . S
C335 C336 1.373 . S
C336 C335 1.373 . S
C336 C337 1.409 . S
C336 H358 0.931 . S
C337 C332 1.356 . S
C337 C336 1.409 . S
C337 H359 0.930 . S
C338 O348 1.270 . S
C338 O349 1.248 1_655 S
C339 O350 1.267 . S
C339 O351 1.278 . S
O340 Pr320 2.562 . S
O340 C322 1.254 . S
O341 Pr320 2.490 . S
O341 C322 1.225 . S
O342 Pr320 2.695 1_445 S
O342 Pr321 2.436 . S
O342 C329 1.270 . S
O343 Pr320 2.512 1_445 S
O343 C329 1.248 . S
O344 Pr321 2.438 1_565 S
O344 C330 1.267 . S
O345 Pr320 2.437 1_455 S
O345 C330 1.278 . S
O346 Pr321 2.562 . S
O346 C331 1.254 . S
O347 Pr321 2.490 . S
O347 C331 1.225 . S
O348 Pr320 2.436 . S
O348 Pr321 2.695 1_665 S
O348 C338 1.270 . S
O349 Pr321 2.512 1_565 S
O349 C338 1.248 1_455 S
O350 Pr320 2.438 1_545 S
O350 C339 1.267 . S
O351 Pr321 2.437 1_655 S
O351 C339 1.278 . S
H352 C324 0.929 . S
H353 C325 0.929 . S
H354 C327 0.931 . S
H355 C328 0.930 . S
H356 C333 0.929 . S
H357 C334 0.929 . S
H358 C336 0.931 . S
H359 C337 0.930 . S
Pr360 C362 2.880 . S
Pr360 O380 2.562 . S
Pr360 O381 2.490 . S
Pr360 O382 2.695 1_554 S
Pr360 O383 2.512 1_554 S
Pr360 O385 2.437 . S
Pr360 O388 2.436 1_545 S
Pr360 O390 2.438 1_544 S
Pr361 C371 2.880 1_554 S
Pr361 O382 2.436 1_564 S
Pr361 O384 2.438 1_565 S
Pr361 O386 2.562 1_554 S
Pr361 O387 2.490 1_554 S
Pr361 O388 2.695 . S
Pr361 O389 2.512 . S
Pr361 O391 2.437 1_554 S
C362 Pr360 2.880 . S
C362 C363 1.491 . S
C362 O380 1.254 . S
C362 O381 1.225 . S
C363 C362 1.491 . S
C363 C364 1.392 . S
C363 C368 1.356 . S
C364 C363 1.392 . S
C364 C365 1.368 . S
C364 H392 0.929 . S
C365 C364 1.368 . S
C365 C366 1.386 . S
C365 H393 0.929 . S
C366 C365 1.386 . S
C366 C367 1.373 . S
C367 C366 1.373 . S
C367 C368 1.409 . S
C367 H394 0.931 . S
C368 C363 1.356 . S
C368 C367 1.409 . S
C368 H395 0.930 . S
C369 O382 1.270 . S
C369 O383 1.248 . S
C370 O384 1.267 . S
C370 O385 1.278 . S
C371 Pr361 2.880 1_556 S
C371 C372 1.491 . S
C371 O386 1.254 . S
C371 O387 1.225 . S
C372 C371 1.491 . S
C372 C373 1.392 . S
C372 C377 1.356 . S
C373 C372 1.392 . S
C373 C374 1.368 . S
C373 H396 0.929 . S
C374 C373 1.368 . S
C374 C375 1.386 . S
C374 H397 0.929 . S
C375 C374 1.386 . S
C375 C376 1.373 . S
C376 C375 1.373 . S
C376 C377 1.409 . S
C376 H398 0.931 . S
C377 C372 1.356 . S
C377 C376 1.409 . S
C377 H399 0.930 . S
C378 O388 1.270 . S
C378 O389 1.248 . S
C379 O390 1.267 . S
C379 O391 1.278 . S
O380 Pr360 2.562 . S
O380 C362 1.254 . S
O381 Pr360 2.490 . S
O381 C362 1.225 . S
O382 Pr360 2.695 1_556 S
O382 Pr361 2.436 1_546 S
O382 C369 1.270 . S
O383 Pr360 2.512 1_556 S
O383 C369 1.248 . S
O384 Pr361 2.438 1_545 S
O384 C370 1.267 . S
O385 Pr360 2.437 . S
O385 C370 1.278 . S
O386 Pr361 2.562 1_556 S
O386 C371 1.254 . S
O387 Pr361 2.490 1_556 S
O387 C371 1.225 . S
O388 Pr360 2.436 1_565 S
O388 Pr361 2.695 . S
O388 C378 1.270 . S
O389 Pr361 2.512 . S
O389 C378 1.248 . S
O390 Pr360 2.438 1_566 S
O390 C379 1.267 . S
O391 Pr361 2.437 1_556 S
O391 C379 1.278 . S
H392 C364 0.929 . S
H393 C365 0.929 . S
H394 C367 0.931 . S
H395 C368 0.930 . S
H396 C373 0.929 . S
H397 C374 0.929 . S
H398 C376 0.931 . S
H399 C377 0.930 . S
Pr400 C402 2.880 . S
Pr400 O420 2.562 . S
Pr400 O421 2.490 . S
Pr400 O422 2.695 . S
Pr400 O423 2.512 . S
Pr400 O425 2.437 . S
Pr400 O428 2.436 . S
Pr400 O430 2.438 . S
Pr401 C411 2.880 . S
Pr401 O422 2.436 . S
Pr401 O424 2.438 . S
Pr401 O426 2.562 . S
Pr401 O427 2.490 . S
Pr401 O428 2.695 . S
Pr401 O429 2.512 . S
Pr401 O431 2.437 . S
C402 Pr400 2.880 . S
C402 C403 1.491 . S
C402 O420 1.254 . S
C402 O421 1.225 . S
C403 C402 1.491 . S
C403 C404 1.392 . S
C403 C408 1.356 . S
C404 C403 1.392 . S
C404 C405 1.368 . S
C404 H432 0.929 . S
C405 C404 1.368 . S
C405 C406 1.386 . S
C405 H433 0.929 . S
C406 C405 1.386 . S
C406 C407 1.373 . S
C407 C406 1.373 . S
C407 C408 1.409 . S
C407 H434 0.931 . S
C408 C403 1.356 . S
C408 C407 1.409 . S
C408 H435 0.930 . S
C409 O422 1.270 . S
C409 O423 1.248 . S
C410 O424 1.267 . S
C410 O425 1.278 . S
C411 Pr401 2.880 . S
C411 C412 1.491 . S
C411 O426 1.254 . S
C411 O427 1.225 . S
C412 C411 1.491 . S
C412 C413 1.392 . S
C412 C417 1.356 . S
C413 C412 1.392 . S
C413 C414 1.368 . S
C413 H436 0.929 . S
C414 C413 1.368 . S
C414 C415 1.386 . S
C414 H437 0.929 . S
C415 C414 1.386 . S
C415 C416 1.373 . S
C416 C415 1.373 . S
C416 C417 1.409 . S
C416 H438 0.931 . S
C417 C412 1.356 . S
C417 C416 1.409 . S
C417 H439 0.930 . S
C418 O428 1.270 . S
C418 O429 1.248 . S
C419 O430 1.267 . S
C419 O431 1.278 . S
O420 Pr400 2.562 . S
O420 C402 1.254 . S
O421 Pr400 2.490 . S
O421 C402 1.225 . S
O422 Pr400 2.695 . S
O422 Pr401 2.436 . S
O422 C409 1.270 . S
O423 Pr400 2.512 . S
O423 C409 1.248 . S
O424 Pr401 2.438 . S
O424 C410 1.267 . S
O425 Pr400 2.437 . S
O425 C410 1.278 . S
O426 Pr401 2.562 . S
O426 C411 1.254 . S
O427 Pr401 2.490 . S
O427 C411 1.225 . S
O428 Pr400 2.436 . S
O428 Pr401 2.695 . S
O428 C418 1.270 . S
O429 Pr401 2.512 . S
O429 C418 1.248 . S
O430 Pr400 2.438 . S
O430 C419 1.267 . S
O431 Pr401 2.437 . S
O431 C419 1.278 . S
H432 C404 0.929 . S
H433 C405 0.929 . S
H434 C407 0.931 . S
H435 C408 0.930 . S
H436 C413 0.929 . S
H437 C414 0.929 . S
H438 C416 0.931 . S
H439 C417 0.930 . S
Pr440 C442 2.860 1_455 S
Pr440 O460 2.538 1_455 S
Pr440 O461 2.479 1_455 S
Pr440 O462 2.708 1_556 S
Pr440 O463 2.526 1_556 S
Pr440 O465 2.423 1_456 S
Pr440 O468 2.427 1_455 S
Pr440 O470 2.459 . S
Pr441 C451 2.880 . S
Pr441 O462 2.436 . S
Pr441 O464 2.438 1_455 S
Pr441 O466 2.562 . S
Pr441 O467 2.490 . S
Pr441 O468 2.695 1_454 S
Pr441 O469 2.512 1_454 S
Pr441 O471 2.437 1_554 S
C442 Pr440 2.860 1_655 S
C442 C443 1.491 . S
C442 O460 1.254 . S
C442 O461 1.225 . S
C443 C442 1.491 . S
C443 C444 1.392 . S
C443 C448 1.356 . S
C444 C443 1.392 . S
C444 C445 1.368 . S
C444 H472 0.929 . S
C445 C444 1.368 . S
C445 C446 1.386 . S
C445 H473 0.929 . S
C446 C445 1.386 . S
C446 C447 1.373 . S
C447 C446 1.373 . S
C447 C448 1.409 . S
C447 H474 0.931 . S
C448 C443 1.356 . S
C448 C447 1.409 . S
C448 H475 0.930 . S
C449 O462 1.270 . S
C449 O463 1.248 . S
C450 O464 1.267 . S
C450 O465 1.278 . S
C451 Pr441 2.880 . S
C451 C452 1.491 . S
C451 O466 1.254 . S
C451 O467 1.225 . S
C452 C451 1.491 . S
C452 C453 1.392 . S
C452 C457 1.356 . S
C453 C452 1.392 . S
C453 C454 1.368 . S
C453 H476 0.929 . S
C454 C453 1.368 . S
C454 C455 1.386 . S
C454 H477 0.929 . S
C455 C454 1.386 . S
C455 C456 1.373 . S
C456 C455 1.373 . S
C456 C457 1.409 . S
C456 H478 0.931 . S
C457 C452 1.356 . S
C457 C456 1.409 . S
C457 H479 0.930 . S
C458 O468 1.270 . S
C458 O469 1.248 . S
C459 O470 1.267 . S
C459 O471 1.278 . S
O460 Pr440 2.538 1_655 S
O460 C442 1.254 . S
O461 Pr440 2.479 1_655 S
O461 C442 1.225 . S
O462 Pr440 2.708 1_554 S
O462 Pr441 2.436 . S
O462 C449 1.270 . S
O463 Pr440 2.526 1_554 S
O463 C449 1.248 . S
O464 Pr441 2.438 1_655 S
O464 C450 1.267 . S
O465 Pr440 2.423 1_654 S
O465 C450 1.278 . S
O466 Pr441 2.562 . S
O466 C451 1.254 . S
O467 Pr441 2.490 . S
O467 C451 1.225 . S
O468 Pr440 2.427 1_655 S
O468 Pr441 2.695 1_656 S
O468 C458 1.270 . S
O469 Pr441 2.512 1_656 S
O469 C458 1.248 . S
O470 Pr440 2.459 . S
O470 C459 1.267 . S
O471 Pr441 2.437 1_556 S
O471 C459 1.278 . S
H472 C444 0.929 . S
H473 C445 0.929 . S
H474 C447 0.931 . S
H475 C448 0.930 . S
H476 C453 0.929 . S
H477 C454 0.929 . S
H478 C456 0.931 . S
H479 C457 0.930 . S
C480 C481 1.387 . S
C480 H484 0.950 . S
C480 C489 1.390 . S
C481 C480 1.387 . S
C481 C483 1.387 . S
H482 C489 0.950 . S
C483 C481 1.387 . S
C483 C485 1.390 . S
C483 H487 0.950 . S
H484 C480 0.950 . S
C485 C483 1.390 . S
C485 C486 1.387 . S
C485 H488 0.950 . S
C486 C485 1.387 . S
C486 C489 1.387 . S
H487 C483 0.950 . S
H488 C485 0.950 . S
C489 C480 1.390 . S
C489 H482 0.950 . S
C489 C486 1.387 . S
C490 C491 1.387 . S
C490 H494 0.950 . S
C490 C499 1.390 . S
C491 C490 1.387 . S
C491 C493 1.387 . S
H492 C499 0.950 . S
C493 C491 1.387 . S
C493 C495 1.390 . S
C493 H497 0.950 . S
H494 C490 0.950 . S
C495 C493 1.390 . S
C495 C496 1.387 . S
C495 H498 0.950 . S
C496 C495 1.387 . S
C496 C499 1.387 . S
H497 C493 0.950 . S
H498 C495 0.950 . S
C499 C490 1.390 . S
C499 H492 0.950 . S
C499 C496 1.387 . S
C500 C501 1.387 . S
C500 H504 0.950 . S
C500 C509 1.390 . S
C501 C500 1.387 . S
C501 C503 1.387 . S
H502 C509 0.950 . S
C503 C501 1.387 . S
C503 C505 1.390 . S
C503 H507 0.950 . S
H504 C500 0.950 . S
C505 C503 1.390 . S
C505 C506 1.387 . S
C505 H508 0.950 . S
C506 C505 1.387 . S
C506 C509 1.387 . S
H507 C503 0.950 . S
H508 C505 0.950 . S
C509 C500 1.390 . S
C509 H502 0.950 . S
C509 C506 1.387 . S
C510 C511 1.387 . S
C510 H514 0.950 . S
C510 C519 1.390 . S
C511 C510 1.387 . S
C511 C513 1.387 . S
H512 C519 0.950 . S
C513 C511 1.387 . S
C513 C515 1.390 . S
C513 H517 0.950 . S
H514 C510 0.950 . S
C515 C513 1.390 . S
C515 C516 1.387 . S
C515 H518 0.950 . S
C516 C515 1.387 . S
C516 C519 1.387 . S
H517 C513 0.950 . S
H518 C515 0.950 . S
C519 C510 1.390 . S
C519 H512 0.950 . S
C519 C516 1.387 . S
C520 C521 1.387 . S
C520 H524 0.950 . S
C520 C529 1.390 . S
C521 C520 1.387 . S
C521 C523 1.387 . S
H522 C529 0.950 . S
C523 C521 1.387 . S
C523 C525 1.390 . S
C523 H527 0.950 . S
H524 C520 0.950 . S
C525 C523 1.390 . S
C525 C526 1.387 . S
C525 H528 0.950 . S
C526 C525 1.387 . S
C526 C529 1.387 . S
H527 C523 0.950 . S
H528 C525 0.950 . S
C529 C520 1.390 . S
C529 H522 0.950 . S
C529 C526 1.387 . S
C530 C531 1.387 . S
C530 H534 0.950 . S
C530 C539 1.390 . S
C531 C530 1.387 . S
C531 C533 1.387 . S
H532 C539 0.950 . S
C533 C531 1.387 . S
C533 C535 1.390 . S
C533 H537 0.950 . S
H534 C530 0.950 . S
C535 C533 1.390 . S
C535 C536 1.387 . S
C535 H538 0.950 . S
C536 C535 1.387 . S
C536 C539 1.387 . S
H537 C533 0.950 . S
H538 C535 0.950 . S
C539 C530 1.390 . S
C539 H532 0.950 . S
C539 C536 1.387 . S
C540 C541 1.387 . S
C540 H544 0.950 . S
C540 C549 1.390 . S
C541 C540 1.387 . S
C541 C543 1.387 . S
H542 C549 0.950 . S
C543 C541 1.387 . S
C543 C545 1.390 . S
C543 H547 0.950 . S
H544 C540 0.950 . S
C545 C543 1.390 . S
C545 C546 1.387 . S
C545 H548 0.950 . S
C546 C545 1.387 . S
C546 C549 1.387 . S
H547 C543 0.950 . S
H548 C545 0.950 . S
C549 C540 1.390 . S
C549 H542 0.950 . S
C549 C546 1.387 . S
C550 C551 1.387 . S
C550 H554 0.950 . S
C550 C559 1.390 . S
C551 C550 1.387 . S
C551 C553 1.387 . S
H552 C559 0.950 . S
C553 C551 1.387 . S
C553 C555 1.390 . S
C553 H557 0.950 . S
H554 C550 0.950 . S
C555 C553 1.390 . S
C555 C556 1.387 . S
C555 H558 0.950 . S
C556 C555 1.387 . S
C556 C559 1.387 . S
H557 C553 0.950 . S
H558 C555 0.950 . S
C559 C550 1.390 . S
C559 H552 0.950 . S
C559 C556 1.387 . S
C560 C561 1.387 . S
C560 H564 0.950 . S
C560 C569 1.390 . S
C561 C560 1.387 . S
C561 C563 1.387 . S
H562 C569 0.950 . S
C563 C561 1.387 . S
C563 C565 1.390 . S
C563 H567 0.950 . S
H564 C560 0.950 . S
C565 C563 1.390 . S
C565 C566 1.387 . S
C565 H568 0.950 . S
C566 C565 1.387 . S
C566 C569 1.387 . S
H567 C563 0.950 . S
H568 C565 0.950 . S
C569 C560 1.390 . S
C569 H562 0.950 . S
C569 C566 1.387 . S
C570 C571 1.387 . S
C570 H574 0.950 . S
C570 C579 1.390 . S
C571 C570 1.387 . S
C571 C573 1.387 . S
H572 C579 0.950 . S
C573 C571 1.387 . S
C573 C575 1.390 . S
C573 H577 0.950 . S
H574 C570 0.950 . S
C575 C573 1.390 . S
C575 C576 1.387 . S
C575 H578 0.950 . S
C576 C575 1.387 . S
C576 C579 1.387 . S
H577 C573 0.950 . S
H578 C575 0.950 . S
C579 C570 1.390 . S
C579 H572 0.950 . S
C579 C576 1.387 . S
C580 C581 1.387 . S
C580 H584 0.950 . S
C580 C589 1.390 . S
C581 C580 1.387 . S
C581 C583 1.387 . S
H582 C589 0.950 . S
C583 C581 1.387 . S
C583 C585 1.390 . S
C583 H587 0.950 . S
H584 C580 0.950 . S
C585 C583 1.390 . S
C585 C586 1.387 . S
C585 H588 0.950 . S
C586 C585 1.387 . S
C586 C589 1.387 . S
H587 C583 0.950 . S
H588 C585 0.950 . S
C589 C580 1.390 . S
C589 H582 0.950 . S
C589 C586 1.387 . S
C590 C591 1.387 . S
C590 H594 0.950 . S
C590 C599 1.390 . S
C591 C590 1.387 . S
C591 C593 1.387 . S
H592 C599 0.950 . S
C593 C591 1.387 . S
C593 C595 1.390 . S
C593 H597 0.950 . S
H594 C590 0.950 . S
C595 C593 1.390 . S
C595 C596 1.387 . S
C595 H598 0.950 . S
C596 C595 1.387 . S
C596 C599 1.387 . S
H597 C593 0.950 . S
H598 C595 0.950 . S
C599 C590 1.390 . S
C599 H592 0.950 . S
C599 C596 1.387 . S
C600 C601 1.387 . S
C600 H604 0.950 . S
C600 C609 1.390 . S
C601 C600 1.387 . S
C601 C603 1.387 . S
H602 C609 0.950 . S
C603 C601 1.387 . S
C603 C605 1.390 . S
C603 H607 0.950 . S
H604 C600 0.950 . S
C605 C603 1.390 . S
C605 C606 1.387 . S
C605 H608 0.950 . S
C606 C605 1.387 . S
C606 C609 1.387 . S
H607 C603 0.950 . S
H608 C605 0.950 . S
C609 C600 1.390 . S
C609 H602 0.950 . S
C609 C606 1.387 . S
C610 C611 1.387 . S
C610 H614 0.950 . S
C610 C619 1.390 . S
C611 C610 1.387 . S
C611 C613 1.387 . S
H612 C619 0.950 . S
C613 C611 1.387 . S
C613 C615 1.390 . S
C613 H617 0.950 . S
H614 C610 0.950 . S
C615 C613 1.390 . S
C615 C616 1.387 . S
C615 H618 0.950 . S
C616 C615 1.387 . S
C616 C619 1.387 . S
H617 C613 0.950 . S
H618 C615 0.950 . S
C619 C610 1.390 . S
C619 H612 0.950 . S
C619 C616 1.387 . S
C620 C621 1.387 . S
C620 H624 0.950 . S
C620 C629 1.390 . S
C621 C620 1.387 . S
C621 C623 1.387 . S
H622 C629 0.950 . S
C623 C621 1.387 . S
C623 C625 1.390 . S
C623 H627 0.950 . S
H624 C620 0.950 . S
C625 C623 1.390 . S
C625 C626 1.387 . S
C625 H628 0.950 . S
C626 C625 1.387 . S
C626 C629 1.387 . S
H627 C623 0.950 . S
H628 C625 0.950 . S
C629 C620 1.390 . S
C629 H622 0.950 . S
C629 C626 1.387 . S
C630 C631 1.387 . S
C630 H634 0.950 . S
C630 C639 1.390 . S
C631 C630 1.387 . S
C631 C633 1.387 . S
H632 C639 0.950 . S
C633 C631 1.387 . S
C633 C635 1.390 . S
C633 H637 0.950 . S
H634 C630 0.950 . S
C635 C633 1.390 . S
C635 C636 1.387 . S
C635 H638 0.950 . S
C636 C635 1.387 . S
C636 C639 1.387 . S
H637 C633 0.950 . S
H638 C635 0.950 . S
C639 C630 1.390 . S
C639 H632 0.950 . S
C639 C636 1.387 . S
C640 C641 1.387 . S
C640 H644 0.950 . S
C640 C649 1.390 . S
C641 C640 1.387 . S
C641 C643 1.387 . S
H642 C649 0.950 . S
C643 C641 1.387 . S
C643 C645 1.390 . S
C643 H647 0.950 . S
H644 C640 0.950 . S
C645 C643 1.390 . S
C645 C646 1.387 . S
C645 H648 0.950 . S
C646 C645 1.387 . S
C646 C649 1.387 . S
H647 C643 0.950 . S
H648 C645 0.950 . S
C649 C640 1.390 . S
C649 H642 0.950 . S
C649 C646 1.387 . S
C650 C651 1.387 . S
C650 H654 0.950 . S
C650 C659 1.390 . S
C651 C650 1.387 . S
C651 C653 1.387 . S
H652 C659 0.950 . S
C653 C651 1.387 . S
C653 C655 1.390 . S
C653 H657 0.950 . S
H654 C650 0.950 . S
C655 C653 1.390 . S
C655 C656 1.387 . S
C655 H658 0.950 . S
C656 C655 1.387 . S
C656 C659 1.387 . S
H657 C653 0.950 . S
H658 C655 0.950 . S
C659 C650 1.390 . S
C659 H652 0.950 . S
C659 C656 1.387 . S
C660 C661 1.387 . S
C660 H664 0.950 . S
C660 C669 1.390 . S
C661 C660 1.387 . S
C661 C663 1.387 . S
H662 C669 0.950 . S
C663 C661 1.387 . S
C663 C665 1.390 . S
C663 H667 0.950 . S
H664 C660 0.950 . S
C665 C663 1.390 . S
C665 C666 1.387 . S
C665 H668 0.950 . S
C666 C665 1.387 . S
C666 C669 1.387 . S
H667 C663 0.950 . S
H668 C665 0.950 . S
C669 C660 1.390 . S
C669 H662 0.950 . S
C669 C666 1.387 . S
C670 C671 1.387 . S
C670 H674 0.950 . S
C670 C679 1.390 . S
C671 C670 1.387 . S
C671 C673 1.387 . S
H672 C679 0.950 . S
C673 C671 1.387 . S
C673 C675 1.390 . S
C673 H677 0.950 . S
H674 C670 0.950 . S
C675 C673 1.390 . S
C675 C676 1.387 . S
C675 H678 0.950 . S
C676 C675 1.387 . S
C676 C679 1.387 . S
H677 C673 0.950 . S
H678 C675 0.950 . S
C679 C670 1.390 . S
C679 H672 0.950 . S
C679 C676 1.387 . S
C680 C681 1.387 . S
C680 H684 0.950 . S
C680 C689 1.390 . S
C681 C680 1.387 . S
C681 C683 1.387 . S
H682 C689 0.950 . S
C683 C681 1.387 . S
C683 C685 1.390 . S
C683 H687 0.950 . S
H684 C680 0.950 . S
C685 C683 1.390 . S
C685 C686 1.387 . S
C685 H688 0.950 . S
C686 C685 1.387 . S
C686 C689 1.387 . S
H687 C683 0.950 . S
H688 C685 0.950 . S
C689 C680 1.390 . S
C689 H682 0.950 . S
C689 C686 1.387 . S
C690 C691 1.387 . S
C690 H694 0.950 . S
C690 C699 1.390 . S
C691 C690 1.387 . S
C691 C693 1.387 . S
H692 C699 0.950 . S
C693 C691 1.387 . S
C693 C695 1.390 . S
C693 H697 0.950 . S
H694 C690 0.950 . S
C695 C693 1.390 . S
C695 C696 1.387 . S
C695 H698 0.950 . S
C696 C695 1.387 . S
C696 C699 1.387 . S
H697 C693 0.950 . S
H698 C695 0.950 . S
C699 C690 1.390 . S
C699 H692 0.950 . S
C699 C696 1.387 . S
C700 C701 1.387 . S
C700 H704 0.950 . S
C700 C709 1.390 . S
C701 C700 1.387 . S
C701 C703 1.387 . S
H702 C709 0.950 . S
C703 C701 1.387 . S
C703 C705 1.390 . S
C703 H707 0.950 . S
H704 C700 0.950 . S
C705 C703 1.390 . S
C705 C706 1.387 . S
C705 H708 0.950 . S
C706 C705 1.387 . S
C706 C709 1.387 . S
H707 C703 0.950 . S
H708 C705 0.950 . S
C709 C700 1.390 . S
C709 H702 0.950 . S
C709 C706 1.387 . S
C710 C711 1.387 . S
C710 H714 0.950 . S
C710 C719 1.390 . S
C711 C710 1.387 . S
C711 C713 1.387 . S
H712 C719 0.950 . S
C713 C711 1.387 . S
C713 C715 1.390 . S
C713 H717 0.950 . S
H714 C710 0.950 . S
C715 C713 1.390 . S
C715 C716 1.387 . S
C715 H718 0.950 . S
C716 C715 1.387 . S
C716 C719 1.387 . S
H717 C713 0.950 . S
H718 C715 0.950 . S
C719 C710 1.390 . S
C719 H712 0.950 . S
C719 C716 1.387 . S
C481 C21 1.335 . S
C486 C335 1.510 . S
C491 C61 1.887 . S
C496 C379 1.807 . S
C506 C409 2.336 . S
C501 C82 2.248 . S
C511 C135 2.797 . S
C516 C450 2.772 . S
C526 C366 1.099 . S
C521 C15 1.030 . S
C536 C330 2.656 . S
C531 C42 2.623 . S
C546 C458 1.302 . S
C541 C101 1.231 . S
C556 C419 2.434 . S
C551 C122 2.461 . S
C561 C2 1.493 . S
C566 C455 1.685 . S
C576 C369 2.112 . S
C571 C95 2.118 . S
C581 C141 2.118 . S
C586 C338 2.115 . S
C591 C55 2.137 . S
C596 C406 2.153 . S
C606 C326 1.516 . S
C601 C181 1.549 . S
C611 C202 1.855 . S
C616 C370 1.779 . S
C621 C255 2.300 . S
C626 C418 2.373 . S
C631 C295 2.779 . S
C636 C459 2.762 . S
C641 C175 1.016 . S
C646 C375 1.074 . S
C656 C339 2.669 . S
C651 C221 2.616 . S
C666 C449 1.233 . S
C661 C242 1.243 . S
C676 C410 2.467 . S
C671 C301 2.436 . S
C681 C162 1.769 . S
C686 C446 1.706 . S
C696 C378 2.156 . S
C691 C261 2.177 . S
C706 C329 2.071 . S
C701 C282 2.103 . S
C711 C215 2.122 . S
C716 C415 2.147 . S
