# Generated by pormake.
# Topology llj, (12,3)-cn, num edge types: 1
# Building blocks:
#     Node 0, Type 0, BuildingBlock: QEWDON_clean_sbu_0, # of connection points: 12
#     Node 1, Type 0, BuildingBlock: QEWDON_clean_sbu_0, # of connection points: 12
#     Node 2, Type 1, BuildingBlock: OLANEW_clean_sbu_2, # of connection points: 3
#     Node 3, Type 1, BuildingBlock: OLANEW_clean_sbu_2, # of connection points: 3
#     Node 4, Type 1, BuildingBlock: OLANEW_clean_sbu_2, # of connection points: 3
#     Node 5, Type 1, BuildingBlock: OLANEW_clean_sbu_2, # of connection points: 3
#     Node 6, Type 1, BuildingBlock: OLANEW_clean_sbu_2, # of connection points: 3
#     Node 7, Type 1, BuildingBlock: OLANEW_clean_sbu_2, # of connection points: 3
#     Node 8, Type 1, BuildingBlock: OLANEW_clean_sbu_2, # of connection points: 3
#     Node 9, Type 1, BuildingBlock: OLANEW_clean_sbu_2, # of connection points: 3
#     Edge 10, Type (0, 1), BuildingBlock: XIVTED_clean_linker_0, # of connection points: 2
#     Edge 11, Type (0, 1), BuildingBlock: XIVTED_clean_linker_0, # of connection points: 2
#     Edge 12, Type (0, 1), BuildingBlock: XIVTED_clean_linker_0, # of connection points: 2
#     Edge 13, Type (0, 1), BuildingBlock: XIVTED_clean_linker_0, # of connection points: 2
#     Edge 14, Type (0, 1), BuildingBlock: XIVTED_clean_linker_0, # of connection points: 2
#     Edge 15, Type (0, 1), BuildingBlock: XIVTED_clean_linker_0, # of connection points: 2
#     Edge 16, Type (0, 1), BuildingBlock: XIVTED_clean_linker_0, # of connection points: 2
#     Edge 17, Type (0, 1), BuildingBlock: XIVTED_clean_linker_0, # of connection points: 2
#     Edge 18, Type (0, 1), BuildingBlock: XIVTED_clean_linker_0, # of connection points: 2
#     Edge 19, Type (0, 1), BuildingBlock: XIVTED_clean_linker_0, # of connection points: 2
#     Edge 20, Type (0, 1), BuildingBlock: XIVTED_clean_linker_0, # of connection points: 2
#     Edge 21, Type (0, 1), BuildingBlock: XIVTED_clean_linker_0, # of connection points: 2
#     Edge 22, Type (0, 1), BuildingBlock: XIVTED_clean_linker_0, # of connection points: 2
#     Edge 23, Type (0, 1), BuildingBlock: XIVTED_clean_linker_0, # of connection points: 2
#     Edge 24, Type (0, 1), BuildingBlock: XIVTED_clean_linker_0, # of connection points: 2
#     Edge 25, Type (0, 1), BuildingBlock: XIVTED_clean_linker_0, # of connection points: 2
#     Edge 26, Type (0, 1), BuildingBlock: XIVTED_clean_linker_0, # of connection points: 2
#     Edge 27, Type (0, 1), BuildingBlock: XIVTED_clean_linker_0, # of connection points: 2
#     Edge 28, Type (0, 1), BuildingBlock: XIVTED_clean_linker_0, # of connection points: 2
#     Edge 29, Type (0, 1), BuildingBlock: XIVTED_clean_linker_0, # of connection points: 2
#     Edge 30, Type (0, 1), BuildingBlock: XIVTED_clean_linker_0, # of connection points: 2
#     Edge 31, Type (0, 1), BuildingBlock: XIVTED_clean_linker_0, # of connection points: 2
#     Edge 32, Type (0, 1), BuildingBlock: XIVTED_clean_linker_0, # of connection points: 2
#     Edge 33, Type (0, 1), BuildingBlock: XIVTED_clean_linker_0, # of connection points: 2
# Relax obj value: 0.012
# Max RMSD: 0.104
# Mean RMSD: 0.084
data_MOF--net-llj--node1-QEWDON_clean_sbu_0--node2-OLANEW_clean_sbu_2--edge1-XIVTED_clean_linker_0
_symmetry_space_group_name_H-M    P1
_symmetry_Int_Tables_number       1
_symmetry_cell_setting            triclinic
loop_
_symmetry_equiv_pos_as_xyz
'x, y, z'
_cell_length_a     41.568089
_cell_length_b     41.603402
_cell_length_c     25.965618
_cell_angle_alpha  88.067326
_cell_angle_beta   92.261612
_cell_angle_gamma 89.938863
loop_
_atom_site_label
_atom_site_type_symbol
_atom_site_fract_x
_atom_site_fract_y
_atom_site_fract_z
_atom_type_partial_charge
Zn0 Zn 0.95293 0.07552 0.93513 0.0
Zn1 Zn 0.9506 0.06534 0.05743 0.0
O2 O 0.97977 0.061 0.99918 0.0
H3 H 0.99666 0.04509 0.99857 0.0
C4 C 0.90881 0.98594 0.8505 0.0
O5 O 0.93099 0.00303 0.87439 0.0
Zn6 Zn 0.05126 0.9477 0.06407 0.0
Zn7 Zn 0.05771 0.9442 0.94263 0.0
O8 O 0.02591 0.95525 0.99759 0.0
H9 H 0.00745 0.9693 0.99248 0.0
Zn10 Zn 0.91825 0.94183 0.94141 0.0
O11 O 0.93095 0.97589 0.99294 0.0
Zn12 Zn 0.93224 0.95104 0.06011 0.0
H13 H 0.94387 0.99452 0.98467 0.0
Zn14 Zn 0.08069 0.06734 0.94996 0.0
O15 O 0.06299 0.03803 0.0052 0.0
H16 H 0.05038 0.01903 0.99854 0.0
Zn17 Zn 0.06672 0.06115 0.07096 0.0
C18 C 0.07985 0.02447 0.86453 0.0
O19 O 0.04937 0.02288 0.87599 0.0
O20 O 0.91119 0.10007 0.95109 0.0
O21 O 0.91361 0.0955 0.03682 0.0
O22 O 0.09428 0.914 0.97106 0.0
O23 O 0.08674 0.91521 0.05515 0.0
O24 O 0.89154 0.90503 0.97367 0.0
O25 O 0.90193 0.91322 0.05673 0.0
C26 C 0.00499 0.07871 0.12637 0.0
O27 O 0.10709 0.10473 0.97961 0.0
O28 O 0.09497 0.10076 0.06235 0.0
O29 O 0.03866 0.92944 0.87233 0.0
C30 C 0.90015 0.10637 0.99477 0.0
O31 O 0.97838 0.09137 0.8718 0.0
C32 C 0.99253 0.93227 0.11783 0.0
O33 O 0.90034 0.95913 0.8705 0.0
C34 C 0.10148 0.90443 0.0172 0.0
O35 O 0.09854 0.04302 0.88945 0.0
C36 C 0.92401 0.00855 0.11509 0.0
O37 O 0.97449 0.08005 0.12127 0.0
O38 O 0.02079 0.07097 0.08773 0.0
C39 C 0.88761 0.89774 0.02105 0.0
O40 O 0.023 0.93189 0.12062 0.0
O41 O 0.97828 0.93875 0.07456 0.0
C42 C 0.08587 0.00171 0.1227 0.0
O43 O 0.91927 0.97846 0.1179 0.0
O44 O 0.93461 0.02085 0.07364 0.0
C45 C 0.10975 0.11459 0.02553 0.0
O46 O 0.08875 0.03202 0.12505 0.0
O47 O 0.06802 0.99081 0.08632 0.0
C48 C 0.01102 0.93667 0.85263 0.0
O49 O 0.99247 0.95642 0.87652 0.0
C50 C 0.00812 0.09735 0.87946 0.0
O51 O 0.02108 0.09278 0.92608 0.0
Zn52 Zn 0.45742 0.58118 0.44896 0.0
Zn53 Zn 0.45921 0.58161 0.56911 0.0
O54 O 0.48845 0.58466 0.51063 0.0
H55 H 0.50837 0.59661 0.51075 0.0
C56 C 0.41218 0.5174 0.38218 0.0
O57 O 0.41221 0.52941 0.42833 0.0
Zn58 Zn 0.5721 0.44064 0.54996 0.0
Zn59 Zn 0.57984 0.43443 0.42711 0.0
O60 O 0.5514 0.45218 0.48129 0.0
H61 H 0.53312 0.46633 0.475 0.0
Zn62 Zn 0.44125 0.46563 0.44385 0.0
O63 O 0.45898 0.49414 0.50041 0.0
Zn64 Zn 0.45972 0.46465 0.56255 0.0
H65 H 0.47332 0.51207 0.49467 0.0
Zn66 Zn 0.58496 0.55305 0.47113 0.0
O67 O 0.55629 0.53247 0.52353 0.0
H68 H 0.5371 0.52025 0.51552 0.0
Zn69 Zn 0.56566 0.5538 0.5899 0.0
C70 C 0.57926 0.51154 0.38389 0.0
O71 O 0.54874 0.51819 0.38947 0.0
O72 O 0.41468 0.60382 0.4629 0.0
O73 O 0.41679 0.60428 0.54879 0.0
O74 O 0.61855 0.40842 0.45845 0.0
O75 O 0.61359 0.41554 0.54229 0.0
O76 O 0.41286 0.42855 0.47165 0.0
O77 O 0.42607 0.4299 0.55533 0.0
C78 C 0.51191 0.59359 0.63555 0.0
O79 O 0.61526 0.58754 0.50099 0.0
O80 O 0.59977 0.58858 0.58209 0.0
O81 O 0.5565 0.41474 0.36363 0.0
C82 C 0.40259 0.61131 0.50527 0.0
O83 O 0.47755 0.59142 0.37863 0.0
C84 C 0.51353 0.42103 0.59384 0.0
O85 O 0.42408 0.4896 0.37714 0.0
C86 C 0.62836 0.40359 0.50521 0.0
O87 O 0.60035 0.5238 0.414 0.0
C88 C 0.44985 0.51898 0.62636 0.0
O89 O 0.48263 0.60208 0.62873 0.0
O90 O 0.52268 0.57237 0.60662 0.0
C91 C 0.40971 0.41813 0.51791 0.0
O92 O 0.54244 0.41204 0.59053 0.0
O93 O 0.50384 0.44562 0.5675 0.0
C94 C 0.58656 0.49132 0.63243 0.0
O95 O 0.45096 0.48853 0.62653 0.0
O96 O 0.45367 0.53452 0.58413 0.0
C97 C 0.61757 0.59884 0.54604 0.0
O98 O 0.58312 0.52078 0.64281 0.0
O99 O 0.57734 0.48244 0.58773 0.0
C100 C 0.52621 0.41763 0.35663 0.0
O101 O 0.50991 0.43379 0.38957 0.0
C102 C 0.50796 0.58889 0.37716 0.0
O103 O 0.52423 0.57815 0.41857 0.0
O104 O 0.41241 0.23666 0.15533 0.0
Cd105 Cd 0.39386 0.18808 0.11459 0.0
O106 O 0.4203 0.2584 0.07893 0.0
Cd107 Cd 0.43184 0.29651 0.0228 0.0
O108 O 0.43839 0.32463 0.95144 0.0
C109 C 0.43615 0.31014 0.9091 0.0
O110 O 0.43007 0.27914 0.91011 0.0
C111 C 0.42127 0.26053 0.12768 0.0
C112 C 0.32737 0.18973 0.09883 0.0
O113 O 0.34039 0.17851 0.14127 0.0
O114 O 0.34589 0.20013 0.06366 0.0
O115 O 0.64693 0.32227 0.93522 0.0
Cd116 Cd 0.65151 0.28703 0.01236 0.0
O117 O 0.68525 0.35566 0.95936 0.0
Cd118 Cd 0.68875 0.33586 0.03785 0.0
O119 O 0.67452 0.35131 0.11274 0.0
C120 C 0.64602 0.36234 0.1131 0.0
O121 O 0.62757 0.36081 0.07097 0.0
C122 C 0.66444 0.34664 0.92576 0.0
C123 C 0.70457 0.24631 0.00898 0.0
O124 O 0.67776 0.23938 0.98597 0.0
O125 O 0.70623 0.27235 0.03391 0.0
O126 O 0.59456 0.77972 0.17562 0.0
Cd127 Cd 0.60726 0.83128 0.13542 0.0
O128 O 0.60107 0.75749 0.1014 0.0
Cd129 Cd 0.60356 0.71708 0.05027 0.0
O130 O 0.60176 0.68856 0.98134 0.0
C131 C 0.60249 0.70431 0.93863 0.0
O132 O 0.60515 0.73577 0.93912 0.0
C133 C 0.59472 0.75478 0.14879 0.0
C134 C 0.67206 0.8312 0.11367 0.0
O135 O 0.6626 0.83987 0.1575 0.0
O136 O 0.6507 0.82303 0.07964 0.0
O137 O 0.23195 0.6012 0.12216 0.0
Cd138 Cd 0.18655 0.61465 0.06373 0.0
O139 O 0.26395 0.60598 0.05747 0.0
Cd140 Cd 0.30933 0.6075 0.0179 0.0
O141 O 0.34231 0.60586 0.95478 0.0
C142 C 0.36694 0.5877 0.95733 0.0
O143 O 0.37346 0.57063 -4e-05 0.0
C144 C 0.26016 0.6003 0.10524 0.0
C145 C 0.17892 0.68103 0.05875 0.0
O146 O 0.16588 0.66368 0.09388 0.0
O147 O 0.19527 0.66689 0.02529 0.0
O148 O 0.92052 0.747 0.64376 0.0
Cd149 Cd 0.89888 0.69822 0.60663 0.0
O150 O 0.89583 0.77753 0.58416 0.0
Cd151 Cd 0.88739 0.82144 0.53712 0.0
O152 O 0.88907 0.8497 0.46493 0.0
C153 C 0.90895 0.8727 0.46063 0.0
O154 O 0.92676 0.88049 0.50124 0.0
C155 C 0.91474 0.77479 0.62374 0.0
C156 C 0.83208 0.69355 0.60537 0.0
O157 O 0.84934 0.68364 0.64476 0.0
O158 O 0.84643 0.70637 0.56702 0.0
O159 O 0.1677 0.84786 0.43708 0.0
Cd160 Cd 0.18191 0.82286 0.52165 0.0
O161 O 0.20913 0.88073 0.44093 0.0
Cd162 Cd 0.21975 0.86883 0.5219 0.0
O163 O 0.20335 0.88349 0.59602 0.0
C164 C 0.17319 0.8881 0.59769 0.0
O165 O 0.15478 0.88171 0.55702 0.0
C166 C 0.18467 0.86982 0.41633 0.0
C167 C 0.22577 0.77269 0.51521 0.0
O168 O 0.23491 0.80208 0.51322 0.0
O169 O 0.19579 0.76682 0.52028 0.0
O170 O 0.11944 0.27231 0.65725 0.0
Cd171 Cd 0.13189 0.32086 0.6072 0.0
O172 O 0.11719 0.24516 0.58647 0.0
Cd173 Cd 0.1113 0.20323 0.53867 0.0
O174 O 0.10463 0.17331 0.47168 0.0
C175 C 0.08232 0.1525 0.47001 0.0
O176 O 0.06423 0.14837 0.51007 0.0
C177 C 0.1145 0.24596 0.635 0.0
C178 C 0.19733 0.32676 0.59084 0.0
O179 O 0.18518 0.33684 0.63196 0.0
O180 O 0.1785 0.31359 0.55747 0.0
O181 O 0.72722 0.08811 0.60702 0.0
Cd182 Cd 0.68428 0.11653 0.55847 0.0
O183 O 0.76228 0.10844 0.55421 0.0
Cd184 Cd 0.80929 0.1103 0.51959 0.0
O185 O 0.84466 0.09974 0.46275 0.0
C186 C 0.84465 0.11621 0.42064 0.0
O187 O 0.8247 0.14064 0.41394 0.0
C188 C 0.75612 0.09065 0.59334 0.0
C189 C 0.69395 0.18269 0.55612 0.0
O190 O 0.67958 0.16856 0.59332 0.0
O191 O 0.70402 0.16543 0.52006 0.0
H192 H 0.13052 0.13432 0.12092 0.0
H193 H 0.29265 0.20506 0.00949 0.0
H194 H 0.14668 0.14938 0.95857 0.0
H195 H 0.28164 0.17332 0.16782 0.0
H196 H 0.23482 0.19786 0.99316 0.0
H197 H 0.18057 0.16266 0.14098 0.0
C198 C 0.14416 0.14421 0.08943 0.0
C199 C 0.13478 0.13869 0.03793 0.0
C200 C 0.24501 0.19288 0.03163 0.0
C201 C 0.19229 0.17082 0.06077 0.0
C202 C 0.27802 0.19695 0.04098 0.0
C203 C 0.29207 0.18919 0.08986 0.0
C204 C 0.22595 0.181 0.07145 0.0
C205 C 0.27191 0.17909 0.12933 0.0
C206 C 0.17286 0.16024 0.10097 0.0
C207 C 0.15329 0.15245 0.99884 0.0
N208 N 0.23992 0.17496 0.11912 0.0
N209 N 0.18147 0.16739 0.01107 0.0
H210 H 0.87893 0.13759 0.07794 0.0
H211 H 0.71437 0.19865 0.94119 0.0
H212 H 0.85525 0.12155 0.91743 0.0
H213 H 0.75916 0.24562 0.07117 0.0
H214 H 0.76202 0.16419 0.93728 0.0
H215 H 0.83103 0.17141 0.08153 0.0
C216 C 0.86364 0.14113 0.04345 0.0
C217 C 0.87117 0.12681 0.99722 0.0
C218 C 0.76135 0.18208 0.96657 0.0
C219 C 0.8162 0.16522 0.00135 0.0
C220 C 0.73417 0.20162 0.969 0.0
C221 C 0.73287 0.22503 0.00654 0.0
C222 C 0.78711 0.18563 0.0025 0.0
C223 C 0.75924 0.22796 0.0415 0.0
C224 C 0.83639 0.16052 0.04554 0.0
C225 C 0.85047 0.13229 0.95376 0.0
N226 N 0.78522 0.20834 0.03883 0.0
N227 N 0.82378 0.15093 0.95695 0.0
H228 H 0.8456 0.86585 0.95655 0.0
H229 H 0.72319 0.84083 0.18063 0.0
H230 H 0.87038 0.87813 0.11781 0.0
H231 H 0.69955 0.82201 0.0211 0.0
H232 H 0.77967 0.84606 0.15988 0.0
H233 H 0.79542 0.84017 0.98079 0.0
C234 C 0.84088 0.86252 0.9971 0.0
C235 C 0.86188 0.87494 0.03513 0.0
C236 C 0.76222 0.84043 0.12945 0.0
C237 C 0.80424 0.84603 0.06305 0.0
C238 C 0.72992 0.83758 0.14126 0.0
C239 C 0.70657 0.83154 0.10235 0.0
C240 C 0.77123 0.83759 0.07823 0.0
C241 C 0.71673 0.82707 0.05218 0.0
C242 C 0.8121 0.84796 0.01092 0.0
C243 C 0.85462 0.86955 0.08707 0.0
N244 N 0.74827 0.83063 0.0414 0.0
N245 N 0.82612 0.85605 0.09943 0.0
H246 H 0.13566 0.87248 0.94629 0.0
H247 H 0.15519 0.71869 0.13256 0.0
H248 H 0.11719 0.87268 0.10885 0.0
H249 H 0.19316 0.72363 0.98015 0.0
H250 H 0.14497 0.77644 0.12625 0.0
H251 H 0.16179 0.82011 0.95953 0.0
C252 C 0.13762 0.86184 0.98495 0.0
C253 C 0.12358 0.87674 0.02632 0.0
C254 C 0.15586 0.76501 0.09435 0.0
C255 C 0.15303 0.81657 0.04152 0.0
C256 C 0.16153 0.73198 0.09783 0.0
C257 C 0.17467 0.71628 0.05654 0.0
C258 C 0.16294 0.78245 0.04896 0.0
C259 C 0.18277 0.73476 0.01274 0.0
C260 C 0.1525 0.83187 0.99244 0.0
C261 C 0.12719 0.86191 0.07561 0.0
N262 N 0.17638 0.76684 0.00981 0.0
N263 N 0.14104 0.83239 0.08165 0.0
H264 H 0.63566 0.623 0.64006 0.0
H265 H 0.79433 0.66894 0.68114 0.0
H266 H 0.65944 0.62709 0.47953 0.0
H267 H 0.78985 0.70501 0.5232 0.0
H268 H 0.73818 0.65287 0.67209 0.0
H269 H 0.68412 0.65384 0.66062 0.0
C270 C 0.65095 0.63053 0.60906 0.0
C271 C 0.64383 0.62174 0.55811 0.0
C272 C 0.74902 0.66515 0.63978 0.0
C273 C 0.69991 0.65626 0.58162 0.0
C274 C 0.78131 0.67409 0.64484 0.0
C275 C 0.79692 0.68807 0.60273 0.0
C276 C 0.73221 0.67015 0.59212 0.0
C277 C 0.77885 0.69415 0.55662 0.0
C278 C 0.67889 0.64785 0.62096 0.0
C279 C 0.66424 0.63273 0.5195 0.0
N280 N 0.74761 0.68468 0.55232 0.0
N281 N 0.69149 0.64912 0.53214 0.0
H282 H 0.37845 0.6489 0.42478 0.0
H283 H 0.2234 0.71191 0.55861 0.0
H284 H 0.35977 0.61936 0.5818 0.0
H285 H 0.28161 0.77398 0.464 0.0
H286 H 0.26445 0.66943 0.55463 0.0
H287 H 0.33311 0.68637 0.42521 0.0
C288 C 0.36454 0.64992 0.4591 0.0
C289 C 0.37305 0.63117 0.50353 0.0
C290 C 0.26799 0.69235 0.53464 0.0
C291 C 0.32107 0.67368 0.5038 0.0
C292 C 0.24466 0.71645 0.53668 0.0
C293 C 0.24932 0.74643 0.51176 0.0
C294 C 0.29552 0.69812 0.50623 0.0
C295 C 0.27727 0.75124 0.48404 0.0
C296 C 0.33884 0.67142 0.45931 0.0
C297 C 0.35417 0.63359 0.54692 0.0
N298 N 0.29925 0.72723 0.48167 0.0
N299 N 0.32893 0.6545 0.54599 0.0
H300 H 0.39264 0.39384 0.61236 0.0
H301 H 0.22832 0.31883 0.50093 0.0
H302 H 0.36739 0.38958 0.44973 0.0
H303 H 0.24478 0.34605 0.65875 0.0
H304 H 0.28415 0.33286 0.4837 0.0
H305 H 0.34388 0.36387 0.63144 0.0
C306 C 0.37714 0.38621 0.58057 0.0
C307 C 0.38381 0.39487 0.52934 0.0
C308 C 0.2756 0.33541 0.52221 0.0
C309 C 0.32787 0.36063 0.55111 0.0
C310 C 0.24378 0.32737 0.53211 0.0
C311 C 0.23178 0.33172 0.58118 0.0
C312 C 0.29557 0.34765 0.56176 0.0
C313 C 0.25291 0.34272 0.62018 0.0
C314 C 0.34923 0.36917 0.59157 0.0
C315 C 0.36299 0.38387 0.48982 0.0
N316 N 0.28371 0.35052 0.60954 0.0
N317 N 0.33574 0.36767 0.50157 0.0
H318 H 0.6488 0.37901 0.6003 0.0
H319 H 0.71413 0.2208 0.47557 0.0
H320 H 0.66364 0.37007 0.43767 0.0
H321 H 0.68017 0.22529 0.63014 0.0
H322 H 0.71081 0.27947 0.46723 0.0
H323 H 0.67638 0.32777 0.61727 0.0
C324 C 0.65857 0.36675 0.56823 0.0
C325 C 0.65303 0.37846 0.51725 0.0
C326 C 0.70459 0.26762 0.50325 0.0
C327 C 0.68428 0.31956 0.53654 0.0
C328 C 0.70647 0.23414 0.50805 0.0
C329 C 0.69677 0.21811 0.55325 0.0
C330 C 0.693 0.28514 0.54397 0.0
C331 C 0.68734 0.23662 0.59426 0.0
C332 C 0.67417 0.33735 0.57799 0.0
C333 C 0.6667 0.36164 0.47747 0.0
N334 N 0.68531 0.26913 0.58841 0.0
N335 N 0.68113 0.33271 0.48785 0.0
H336 H 0.06748 0.09705 0.15054 0.0
H337 H 0.03284 0.11086 0.45032 0.0
H338 H 0.97728 0.07324 0.21888 0.0
H339 H 0.11436 0.15588 0.37948 0.0
H340 H 0.01728 0.08786 0.36788 0.0
H341 H 0.08991 0.11006 0.23628 0.0
C342 C 0.05257 0.0942 0.18352 0.0
C343 C 0.02042 0.08439 0.17747 0.0
C344 C 0.03872 0.10259 0.37042 0.0
C345 C 0.04573 0.09904 0.27529 0.0
C346 C 0.04766 0.11568 0.41757 0.0
C347 C 0.07471 0.13567 0.42171 0.0
C348 C 0.05694 0.10946 0.32698 0.0
C349 C 0.09312 0.14086 0.37792 0.0
C350 C 0.06529 0.10173 0.23237 0.0
C351 C 0.00206 0.08117 0.22159 0.0
N352 N 0.08376 0.12803 0.33223 0.0
N353 N 0.01493 0.08856 0.26846 0.0
H354 H 0.93548 0.99043 0.21533 0.0
H355 H 0.84674 0.14289 0.32286 0.0
H356 H 0.89917 0.06939 0.11868 0.0
H357 H 0.88497 0.06415 0.41926 0.0
H358 H 0.8718 0.11996 0.24884 0.0
H359 H 0.92271 0.0201 0.29146 0.0
C360 C 0.92526 0.0143 0.21022 0.0
C361 C 0.91883 0.02778 0.16068 0.0
C362 C 0.875 0.10789 0.2863 0.0
C363 C 0.90357 0.06178 0.24748 0.0
C364 C 0.86073 0.121 0.32864 0.0
C365 C 0.86337 0.10518 0.37724 0.0
C366 C 0.8919 0.07868 0.29255 0.0
C367 C 0.88199 0.077 0.38243 0.0
C368 C 0.91797 0.03126 0.25364 0.0
C369 C 0.90535 0.05863 0.15607 0.0
N370 N 0.89524 0.06449 0.34051 0.0
N371 N 0.89789 0.07453 0.19892 0.0
H372 H 0.01067 0.95662 0.20956 0.0
H373 H 0.87991 0.85881 0.36719 0.0
H374 H 0.93625 0.90001 0.13664 0.0
H375 H 0.95239 0.9197 0.43665 0.0
H376 H 0.8958 0.87811 0.28191 0.0
H377 H 0.98587 0.94747 0.29223 0.0
C378 C 0.98878 0.94254 0.21096 0.0
C379 C 0.97522 0.92926 0.16619 0.0
C380 C 0.90797 0.88751 0.31583 0.0
C381 C 0.9468 0.91833 0.26094 0.0
C382 C 0.89889 0.87653 0.36458 0.0
C383 C 0.91515 0.88732 0.40921 0.0
C384 C 0.93356 0.90933 0.31168 0.0
C385 C 0.93939 0.91044 0.4034 0.0
C386 C 0.97459 0.93735 0.25817 0.0
C387 C 0.94689 0.9113 0.17002 0.0
N388 N 0.94806 0.92039 0.35558 0.0
N389 N 0.93373 0.90607 0.21676 0.0
H390 H 0.13179 0.01913 0.19429 0.0
H391 H 0.13614 0.85115 0.34904 0.0
H392 H 0.07943 0.93631 0.14209 0.0
H393 H 0.20835 0.92454 0.37072 0.0
H394 H 0.11428 0.88176 0.27342 0.0
H395 H 0.15903 0.98515 0.26081 0.0
C396 C 0.12592 0.99378 0.19657 0.0
C397 C 0.10287 0.98064 0.16229 0.0
C398 C 0.13515 0.89092 0.29443 0.0
C399 C 0.13409 0.94154 0.23872 0.0
C400 C 0.14765 0.87346 0.33756 0.0
C401 C 0.17398 0.88539 0.3665 0.0
C402 C 0.14879 0.92072 0.28066 0.0
C403 C 0.18797 0.91442 0.34972 0.0
C404 C 0.14166 0.97436 0.23448 0.0
C405 C 0.09663 0.9476 0.16725 0.0
N406 N 0.17495 0.93128 0.30832 0.0
N407 N 0.1119 0.92922 0.20494 0.0
H408 H 0.0463 0.98739 0.79583 0.0
H409 H 0.20525 0.9134 0.68116 0.0
H410 H 0.14295 0.01291 0.84571 0.0
H411 H 0.10973 0.89971 0.61414 0.0
H412 H 0.18218 0.9449 0.74837 0.0
H413 H 0.06857 0.95073 0.73462 0.0
C414 C 0.07219 0.98526 0.79394 0.0
C415 C 0.0928 0.0032 0.82592 0.0
C416 C 0.16625 0.93485 0.7191 0.0
C417 C 0.11843 0.96144 0.75601 0.0
C418 C 0.1794 0.91673 0.68086 0.0
C419 C 0.15941 0.90413 0.64173 0.0
C420 C 0.13288 0.94033 0.71831 0.0
C421 C 0.12607 0.90919 0.64334 0.0
C422 C 0.08488 0.96437 0.75896 0.0
C423 C 0.12616 -0.00033 0.82162 0.0
N424 N 0.11385 0.92703 0.68085 0.0
N425 N 0.13792 0.97918 0.78735 0.0
H426 H 0.98971 0.10967 0.77791 0.0
H427 H 0.13459 0.22893 0.73271 0.0
H428 H 0.07001 0.11917 0.88687 0.0
H429 H 0.07089 0.1994 0.60808 0.0
H430 H 0.11244 0.18676 0.78842 0.0
H431 H 0.01981 0.14012 0.71345 0.0
C432 C 0.01378 0.11785 0.78813 0.0
C433 C 0.02717 0.11229 0.83814 0.0
C434 C 0.10364 0.18905 0.74865 0.0
C435 C 0.06159 0.14723 0.76476 0.0
C436 C 0.11627 0.21314 0.71689 0.0
C437 C 0.10461 0.2175 0.66577 0.0
C438 C 0.07857 0.16964 0.72954 0.0
C439 C 0.08084 0.1965 0.6471 0.0
C440 C 0.03097 0.13514 0.75127 0.0
C441 C 0.05856 0.12317 0.84905 0.0
N442 N 0.06819 0.17374 0.67927 0.0
N443 N 0.07451 0.14048 0.81292 0.0
H444 H 0.91736 0.04417 0.79991 0.0
H445 H 0.75145 0.03151 0.63973 0.0
H446 H 0.85995 0.95779 0.79507 0.0
H447 H 0.81837 0.10908 0.61471 0.0
H448 H 0.79213 0.00353 0.69485 0.0
H449 H 0.88318 0.06778 0.72951 0.0
C450 C 0.89783 0.03003 0.78369 0.0
C451 C 0.89121 -0.00087 0.80392 0.0
C452 C 0.79817 0.02645 0.67675 0.0
C453 C 0.85197 0.02605 0.7238 0.0
C454 C 0.77491 0.04244 0.64543 0.0
C455 C 0.78171 0.07247 0.6224 0.0
C456 C 0.82827 0.04091 0.68604 0.0
C457 C 0.81242 0.08566 0.631 0.0
C458 C 0.87835 0.04352 0.74349 0.0
C459 C 0.86573 0.98183 0.78117 0.0
N460 N 0.83451 0.06994 0.66269 0.0
N461 N 0.84683 0.99568 0.74279 0.0
H462 H 0.95078 0.94033 0.80491 0.0
H463 H 0.97525 0.77671 0.66595 0.0
H464 H 0.04298 0.89343 0.79638 0.0
H465 H 0.89148 0.83619 0.63273 0.0
H466 H 0.00078 0.82084 0.71128 0.0
H467 H 0.92877 0.90494 0.73879 0.0
C468 C 0.9665 0.92293 0.78872 0.0
C469 C -0.00143 0.91938 0.80711 0.0
C470 C 0.977 0.82454 0.69351 0.0
C471 C 0.97357 0.87876 0.73177 0.0
C472 C 0.96238 0.79929 0.66779 0.0
C473 C 0.93124 0.80286 0.6457 0.0
C474 C 0.96008 0.85344 0.69836 0.0
C475 C 0.91566 0.83262 0.64894 0.0
C476 C 0.95393 0.90276 0.75091 0.0
C477 C 0.01795 0.89666 0.7842 0.0
N478 N 0.93006 0.8567 0.67562 0.0
N479 N 0.00502 0.87694 0.74836 0.0
H480 H 0.56051 0.56785 0.69853 0.0
H481 H 0.59015 0.73227 0.84334 0.0
H482 H 0.50959 0.65623 0.65967 0.0
H483 H 0.6021 0.63949 0.92143 0.0
H484 H 0.57478 0.70537 0.76399 0.0
H485 H 0.58968 0.595 0.76911 0.0
C486 C 0.55604 0.59309 0.7042 0.0
C487 C 0.53263 0.60989 0.67366 0.0
C488 C 0.58113 0.69094 0.7984 0.0
C489 C 0.56567 0.64085 0.75326 0.0
C490 C 0.58996 0.70623 0.84369 0.0
C491 C 0.59694 0.68809 0.8893 0.0
C492 C 0.57957 0.65726 0.79849 0.0
C493 C 0.59648 0.65438 0.88727 0.0
C494 C 0.57243 0.60844 0.74452 0.0
C495 C 0.52728 0.64242 0.68279 0.0
N496 N 0.5877 0.63999 0.8426 0.0
N497 N 0.54366 0.65685 0.72179 0.0
H498 H 0.41811 0.57565 0.64018 0.0
H499 H 0.41769 0.54678 0.94617 0.0
H500 H 0.46836 0.49814 0.72327 0.0
H501 H 0.35874 0.61794 0.86227 0.0
H502 H 0.44381 0.5349 0.86636 0.0
H503 H 0.40365 0.59773 0.72242 0.0
C504 C 0.42672 0.56373 0.67572 0.0
C505 C 0.44449 0.53513 0.67498 0.0
C506 C 0.42537 0.55334 0.86549 0.0
C507 C 0.42752 0.55968 0.76908 0.0
C508 C 0.41046 0.56017 0.91111 0.0
C509 C 0.38566 0.58307 0.91081 0.0
C510 C 0.41537 0.56947 0.81918 0.0
C511 C 0.3775 0.59983 0.86423 0.0
C512 C 0.41824 0.57614 0.72267 0.0
C513 C 0.45444 0.52017 0.72217 0.0
N514 N 0.3921 0.59247 0.8202 0.0
N515 N 0.44565 0.5325 0.76728 0.0
H516 H 0.498 0.35751 0.60301 0.0
H517 H 0.44387 0.37495 0.89169 0.0
H518 H 0.48704 0.44837 0.67478 0.0
H519 H 0.44089 0.28496 0.8136 0.0
H520 H 0.45605 0.40268 0.81042 0.0
H521 H 0.47321 0.3306 0.67709 0.0
C522 C 0.48941 0.37182 0.63377 0.0
C523 C 0.49343 0.40524 0.63235 0.0
C524 C 0.45247 0.37689 0.81092 0.0
C525 C 0.46631 0.37483 0.71771 0.0
C526 C 0.44562 0.36103 0.8574 0.0
C527 C 0.44166 0.32753 0.85959 0.0
C528 C 0.45571 0.35913 0.76632 0.0
C529 C 0.44395 0.31079 0.8138 0.0
C530 C 0.47543 0.35654 0.67607 0.0
C531 C 0.48284 0.42277 0.67351 0.0
N532 N 0.45113 0.32671 0.76915 0.0
N533 N 0.47005 0.40735 0.7148 0.0
H534 H 0.59459 0.42546 0.62953 0.0
H535 H 0.68458 0.40806 0.90505 0.0
H536 H 0.61184 0.50566 0.72753 0.0
H537 H 0.62986 0.33058 0.8383 0.0
H538 H 0.66838 0.44286 0.8308 0.0
H539 H 0.61688 0.38928 0.69728 0.0
C540 C 0.60277 0.43555 0.66507 0.0
C541 C 0.60056 0.46866 0.67265 0.0
C542 C 0.66016 0.41815 0.83232 0.0
C543 C 0.62717 0.42742 0.75042 0.0
C544 C 0.66956 0.3982 0.87445 0.0
C545 C 0.65833 0.36642 0.87805 0.0
C546 C 0.63978 0.40613 0.79321 0.0
C547 C 0.63885 0.355 0.83725 0.0
C548 C 0.6157 0.41483 0.70385 0.0
C549 C 0.61259 0.48026 0.71985 0.0
N550 N 0.63011 0.37489 0.79649 0.0
N551 N 0.62541 0.45969 0.75689 0.0
H552 H 0.5434 0.49249 0.3001 0.0
H553 H 0.68037 0.37657 0.2018 0.0
H554 H 0.63647 0.47958 0.37776 0.0
H555 H 0.5873 0.39026 0.1243 0.0
H556 H 0.66387 0.4121 0.26908 0.0
H557 H 0.55873 0.45407 0.23633 0.0
C558 C 0.5671 0.48161 0.30364 0.0
C559 C 0.58872 0.48922 0.34421 0.0
C560 C 0.647 0.40719 0.23748 0.0
C561 C 0.60633 0.44499 0.27171 0.0
C562 C 0.65636 0.38678 0.19918 0.0
C563 C 0.63527 0.38063 0.15713 0.0
C564 C 0.61638 0.42158 0.23365 0.0
C565 C 0.60444 0.39449 0.1558 0.0
C566 C 0.57584 0.45965 0.26726 0.0
C567 C 0.61913 0.47447 0.34692 0.0
N568 N 0.59601 0.41447 0.1933 0.0
N569 N 0.627 0.45296 0.31124 0.0
H570 H 0.5723 0.60115 0.3725 0.0
H571 H 0.55542 0.70761 0.11123 0.0
H572 H 0.4828 0.61027 0.28287 0.0
H573 H 0.61691 0.7314 0.24201 0.0
H574 H 0.53808 0.65887 0.15886 0.0
H575 H 0.59836 0.63524 0.30807 0.0
C576 C 0.55826 0.60975 0.33877 0.0
C577 C 0.52513 0.60354 0.33361 0.0
C578 C 0.55584 0.67451 0.17652 0.0
C579 C 0.55492 0.6422 0.25986 0.0
C580 C 0.56582 0.7021 0.14942 0.0
C581 C 0.58744 0.72339 0.17309 0.0
C582 C 0.56819 0.66811 0.22693 0.0
C583 C 0.59997 0.71559 0.22278 0.0
C584 C 0.57316 0.62924 0.30216 0.0
C585 C 0.50826 0.61501 0.28877 0.0
N586 N 0.59012 0.68856 0.24816 0.0
N587 N 0.52328 0.63417 0.25378 0.0
H588 H 0.3779 0.57344 0.38293 0.0
H589 H 0.31506 0.56596 0.08832 0.0
H590 H 0.40831 0.5004 0.28088 0.0
H591 H 0.26688 0.61708 0.20493 0.0
H592 H 0.35736 0.55003 0.15287 0.0
H593 H 0.34541 0.59813 0.31198 0.0
C594 C 0.37804 0.56276 0.34548 0.0
C595 C 0.39549 0.53452 0.33803 0.0
C596 C 0.33771 0.56508 0.16403 0.0
C597 C 0.35825 0.56269 0.25665 0.0
C598 C 0.31378 0.57441 0.12716 0.0
C599 C 0.28757 0.59293 0.14142 0.0
C600 C 0.33542 0.57464 0.21516 0.0
C601 C 0.28662 0.6026 0.19252 0.0
C602 C 0.3594 0.57684 0.30501 0.0
C603 C 0.39491 0.52194 0.28847 0.0
N604 N 0.31015 0.59331 0.22755 0.0
N605 N 0.37635 0.53598 0.24968 0.0
H606 H 0.55226 0.38878 0.27451 0.0
H607 H 0.3977 0.28695 0.21238 0.0
H608 H 0.46151 0.40757 0.34321 0.0
H609 H 0.47156 0.29952 0.10147 0.0
H610 H 0.42105 0.33095 0.26133 0.0
H611 H 0.52403 0.35607 0.21054 0.0
C612 C 0.52637 0.38634 0.27579 0.0
C613 C 0.50924 0.40067 0.31454 0.0
C614 C 0.43186 0.3245 0.22582 0.0
C615 C 0.47698 0.36295 0.2421 0.0
C616 C 0.4186 0.29937 0.19801 0.0
C617 C 0.43274 0.28977 0.15289 0.0
C618 C 0.45999 0.33954 0.20915 0.0
C619 C 0.45979 0.30652 0.13582 0.0
C620 C 0.51029 0.36775 0.23918 0.0
C621 C 0.47571 0.39679 0.31425 0.0
N622 N 0.47294 0.33031 0.16452 0.0
N623 N 0.46074 0.37787 0.27911 0.0
loop_
_geom_bond_atom_site_label_1
_geom_bond_atom_site_label_2
_geom_bond_distance
_geom_bond_site_symmetry_2
_ccdc_geom_bond_type
Zn0 O2 1.933 1_556 S
Zn0 O20 1.985 . S
Zn0 O31 1.955 . S
Zn1 O2 1.911 . S
Zn1 O21 1.970 . S
Zn1 O37 1.945 . S
Zn1 O44 1.981 . S
O2 Zn0 1.933 1_554 S
O2 Zn1 1.911 . S
O2 H3 0.841 1_655 S
H3 O2 0.841 1_455 S
C4 O5 1.246 . S
C4 O33 1.289 . S
O5 C4 1.246 . S
Zn6 O8 1.911 . S
Zn6 O23 1.970 . S
Zn6 O40 1.945 . S
Zn6 O47 1.981 . S
Zn7 O8 1.933 1_556 S
Zn7 O22 1.985 . S
Zn7 O29 1.955 . S
O8 Zn6 1.911 . S
O8 Zn7 1.933 1_554 S
O8 H9 0.841 1_455 S
H9 O8 0.841 1_655 S
Zn10 O11 1.933 1_556 S
Zn10 O24 1.985 . S
Zn10 O33 1.950 1_565 S
O11 Zn10 1.933 1_554 S
O11 Zn12 1.911 . S
O11 H13 0.841 1_565 S
Zn12 O11 1.911 . S
Zn12 O25 1.970 . S
Zn12 O41 1.981 . S
Zn12 O43 1.945 . S
H13 O11 0.841 1_545 S
Zn14 O15 1.933 1_556 S
Zn14 O27 1.985 . S
Zn14 O35 1.955 . S
O15 Zn14 1.933 1_554 S
O15 H16 0.841 1_545 S
O15 Zn17 1.911 . S
H16 O15 0.841 1_565 S
Zn17 O15 1.911 . S
Zn17 O28 1.970 . S
Zn17 O38 1.981 . S
Zn17 O46 1.945 . S
C18 O19 1.246 . S
C18 O35 1.276 1_565 S
O19 C18 1.246 . S
O20 Zn0 1.985 . S
O20 C30 1.245 1_556 S
O21 Zn1 1.970 . S
O21 C30 1.263 . S
O22 Zn7 1.985 . S
O22 C34 1.245 1_556 S
O23 Zn6 1.970 . S
O23 C34 1.263 . S
O24 Zn10 1.985 . S
O24 C39 1.245 1_556 S
O25 Zn12 1.970 . S
O25 C39 1.263 . S
C26 O37 1.262 1_455 S
C26 O38 1.245 . S
O27 Zn14 1.985 . S
O27 C45 1.245 1_556 S
O28 Zn17 1.970 . S
O28 C45 1.263 . S
O29 Zn7 1.955 . S
O29 C48 1.276 1_455 S
C30 O20 1.245 1_554 S
C30 O21 1.263 . S
O31 Zn0 1.955 . S
O31 C50 1.276 1_655 S
C32 O40 1.262 1_655 S
C32 O41 1.245 . S
O33 C4 1.289 . S
O33 Zn10 1.950 1_545 S
C34 O22 1.245 1_554 S
C34 O23 1.263 . S
O35 Zn14 1.955 . S
O35 C18 1.276 1_545 S
C36 O43 1.262 1_545 S
C36 O44 1.245 . S
O37 Zn1 1.945 . S
O37 C26 1.262 1_655 S
O38 Zn17 1.981 . S
O38 C26 1.245 . S
C39 O24 1.245 1_554 S
C39 O25 1.263 . S
O40 Zn6 1.945 . S
O40 C32 1.262 1_455 S
O41 Zn12 1.981 . S
O41 C32 1.245 . S
C42 O46 1.262 1_565 S
C42 O47 1.245 . S
O43 Zn12 1.945 . S
O43 C36 1.262 1_565 S
O44 Zn1 1.981 . S
O44 C36 1.245 . S
C45 O27 1.245 1_554 S
C45 O28 1.263 . S
O46 Zn17 1.945 . S
O46 C42 1.262 1_545 S
O47 Zn6 1.981 . S
O47 C42 1.245 . S
C48 O29 1.276 1_655 S
C48 O49 1.246 . S
O49 C48 1.246 . S
C50 O31 1.276 1_455 S
C50 O51 1.246 . S
O51 C50 1.246 . S
Zn52 O54 1.933 . S
Zn52 O72 1.985 . S
Zn52 O83 1.955 . S
Zn53 O54 1.911 . S
Zn53 O73 1.970 . S
Zn53 O89 1.945 . S
Zn53 O96 1.981 . S
O54 Zn52 1.933 . S
O54 Zn53 1.911 . S
O54 H55 0.841 . S
H55 O54 0.841 . S
C56 O57 1.246 . S
C56 O85 1.276 . S
O57 C56 1.246 . S
Zn58 O60 1.911 . S
Zn58 O75 1.970 . S
Zn58 O92 1.945 . S
Zn58 O99 1.981 . S
Zn59 O60 1.933 . S
Zn59 O74 1.985 . S
Zn59 O81 1.955 . S
O60 Zn58 1.911 . S
O60 Zn59 1.933 . S
O60 H61 0.841 . S
H61 O60 0.841 . S
Zn62 O63 1.933 . S
Zn62 O76 1.985 . S
Zn62 O85 1.955 . S
O63 Zn62 1.933 . S
O63 Zn64 1.911 . S
O63 H65 0.841 . S
Zn64 O63 1.911 . S
Zn64 O77 1.970 . S
Zn64 O93 1.981 . S
Zn64 O95 1.945 . S
H65 O63 0.841 . S
Zn66 O67 1.933 . S
Zn66 O79 1.985 . S
Zn66 O87 1.955 . S
O67 Zn66 1.933 . S
O67 H68 0.841 . S
O67 Zn69 1.911 . S
H68 O67 0.841 . S
Zn69 O67 1.911 . S
Zn69 O80 1.970 . S
Zn69 O90 1.981 . S
Zn69 O98 1.945 . S
C70 O71 1.246 . S
C70 O87 1.276 . S
O71 C70 1.246 . S
O72 Zn52 1.985 . S
O72 C82 1.245 . S
O73 Zn53 1.970 . S
O73 C82 1.263 . S
O74 Zn59 1.985 . S
O74 C86 1.245 . S
O75 Zn58 1.970 . S
O75 C86 1.263 . S
O76 Zn62 1.985 . S
O76 C91 1.245 . S
O77 Zn64 1.970 . S
O77 C91 1.263 . S
C78 O89 1.262 . S
C78 O90 1.245 . S
O79 Zn66 1.985 . S
O79 C97 1.245 . S
O80 Zn69 1.970 . S
O80 C97 1.263 . S
O81 Zn59 1.955 . S
O81 C100 1.276 . S
C82 O72 1.245 . S
C82 O73 1.263 . S
O83 Zn52 1.955 . S
O83 C102 1.276 . S
C84 O92 1.262 . S
C84 O93 1.245 . S
O85 C56 1.276 . S
O85 Zn62 1.955 . S
C86 O74 1.245 . S
C86 O75 1.263 . S
O87 Zn66 1.955 . S
O87 C70 1.276 . S
C88 O95 1.262 . S
C88 O96 1.245 . S
O89 Zn53 1.945 . S
O89 C78 1.262 . S
O90 Zn69 1.981 . S
O90 C78 1.245 . S
C91 O76 1.245 . S
C91 O77 1.263 . S
O92 Zn58 1.945 . S
O92 C84 1.262 . S
O93 Zn64 1.981 . S
O93 C84 1.245 . S
C94 O98 1.262 . S
C94 O99 1.245 . S
O95 Zn64 1.945 . S
O95 C88 1.262 . S
O96 Zn53 1.981 . S
O96 C88 1.245 . S
C97 O79 1.245 . S
C97 O80 1.263 . S
O98 Zn69 1.945 . S
O98 C94 1.262 . S
O99 Zn58 1.981 . S
O99 C94 1.245 . S
C100 O81 1.276 . S
C100 O101 1.246 . S
O101 C100 1.246 . S
C102 O83 1.276 . S
C102 O103 1.246 . S
O103 C102 1.246 . S
O104 Cd105 2.300 . S
O104 C111 1.275 . S
Cd105 O104 2.300 . S
Cd105 O113 2.381 . S
Cd105 O114 2.378 . S
O106 Cd107 2.398 . S
O106 C111 1.255 . S
Cd107 O106 2.398 . S
Cd107 O108 2.305 1_554 S
O108 Cd107 2.305 1_556 S
O108 C109 1.232 . S
C109 O108 1.232 . S
C109 O110 1.218 . S
O110 C109 1.218 . S
C111 O104 1.275 . S
C111 O106 1.255 . S
C112 O113 1.258 . S
C112 O114 1.256 . S
O113 Cd105 2.381 . S
O113 C112 1.258 . S
O114 Cd105 2.378 . S
O114 C112 1.256 . S
O115 Cd116 2.300 . S
O115 C122 1.275 . S
Cd116 O115 2.300 . S
Cd116 O124 2.381 . S
Cd116 O125 2.378 1_556 S
O117 Cd118 2.385 1_556 S
O117 C122 1.255 . S
Cd118 O117 2.385 1_554 S
Cd118 O119 2.317 . S
O119 Cd118 2.317 . S
O119 C120 1.232 . S
C120 O119 1.232 . S
C120 O121 1.218 . S
O121 C120 1.218 . S
C122 O115 1.275 . S
C122 O117 1.255 . S
C123 O124 1.256 . S
C123 O125 1.257 1_556 S
O124 Cd116 2.381 . S
O124 C123 1.256 . S
O125 Cd116 2.378 1_554 S
O125 C123 1.257 1_554 S
O126 Cd127 2.300 . S
O126 C133 1.275 . S
Cd127 O126 2.300 . S
Cd127 O135 2.381 . S
Cd127 O136 2.378 . S
O128 Cd129 2.381 1_554 S
O128 C133 1.255 . S
Cd129 O128 2.381 1_556 S
Cd129 O130 2.320 . S
O130 Cd129 2.320 . S
O130 C131 1.232 . S
C131 O130 1.232 . S
C131 O132 1.218 . S
O132 C131 1.218 . S
C133 O126 1.275 . S
C133 O128 1.255 . S
C134 O135 1.258 . S
C134 O136 1.256 . S
O135 Cd127 2.381 . S
O135 C134 1.258 . S
O136 Cd127 2.378 . S
O136 C134 1.256 . S
O137 Cd138 2.300 . S
O137 C144 1.275 . S
Cd138 O137 2.300 . S
Cd138 O146 2.381 . S
Cd138 O147 2.378 . S
O139 Cd140 2.385 1_554 S
O139 C144 1.255 . S
Cd140 O139 2.385 1_556 S
Cd140 O141 2.317 . S
O141 Cd140 2.317 . S
O141 C142 1.232 . S
C142 O141 1.232 . S
C142 O143 1.218 . S
O143 C142 1.218 . S
C144 O137 1.275 . S
C144 O139 1.255 . S
C145 O146 1.258 . S
C145 O147 1.256 . S
O146 Cd138 2.381 . S
O146 C145 1.258 . S
O147 Cd138 2.378 . S
O147 C145 1.256 . S
O148 Cd149 2.300 . S
O148 C155 1.275 . S
Cd149 O148 2.300 . S
Cd149 O157 2.381 . S
Cd149 O158 2.378 . S
O150 Cd151 2.385 . S
O150 C155 1.255 . S
Cd151 O150 2.385 . S
Cd151 O152 2.317 . S
O152 Cd151 2.317 . S
O152 C153 1.232 . S
C153 O152 1.232 . S
C153 O154 1.218 . S
O154 C153 1.218 . S
C155 O148 1.275 . S
C155 O150 1.255 . S
C156 O157 1.258 . S
C156 O158 1.256 . S
O157 Cd149 2.381 . S
O157 C156 1.258 . S
O158 Cd149 2.378 . S
O158 C156 1.256 . S
O159 Cd160 2.300 . S
O159 C166 1.275 . S
Cd160 O159 2.300 . S
Cd160 O168 2.381 . S
Cd160 O169 2.378 . S
O161 Cd162 2.385 . S
O161 C166 1.255 . S
Cd162 O161 2.385 . S
Cd162 O163 2.317 . S
O163 Cd162 2.317 . S
O163 C164 1.232 . S
C164 O163 1.232 . S
C164 O165 1.218 . S
O165 C164 1.218 . S
C166 O159 1.275 . S
C166 O161 1.255 . S
C167 O168 1.258 . S
C167 O169 1.256 . S
O168 Cd160 2.381 . S
O168 C167 1.258 . S
O169 Cd160 2.378 . S
O169 C167 1.256 . S
O170 Cd171 2.300 . S
O170 C177 1.275 . S
Cd171 O170 2.300 . S
Cd171 O179 2.381 . S
Cd171 O180 2.378 . S
O172 Cd173 2.385 . S
O172 C177 1.255 . S
Cd173 O172 2.385 . S
Cd173 O174 2.317 . S
O174 Cd173 2.317 . S
O174 C175 1.232 . S
C175 O174 1.232 . S
C175 O176 1.218 . S
O176 C175 1.218 . S
C177 O170 1.275 . S
C177 O172 1.255 . S
C178 O179 1.258 . S
C178 O180 1.256 . S
O179 Cd171 2.381 . S
O179 C178 1.258 . S
O180 Cd171 2.378 . S
O180 C178 1.256 . S
O181 Cd182 2.300 . S
O181 C188 1.275 . S
Cd182 O181 2.300 . S
Cd182 O190 2.381 . S
Cd182 O191 2.378 . S
O183 Cd184 2.385 . S
O183 C188 1.255 . S
Cd184 O183 2.385 . S
Cd184 O185 2.317 . S
O185 Cd184 2.317 . S
O185 C186 1.232 . S
C186 O185 1.232 . S
C186 O187 1.218 . S
O187 C186 1.218 . S
C188 O181 1.275 . S
C188 O183 1.255 . S
C189 O190 1.258 . S
C189 O191 1.256 . S
O190 Cd182 2.381 . S
O190 C189 1.258 . S
O191 Cd182 2.378 . S
O191 C189 1.256 . S
H192 C198 0.930 . S
H193 C202 0.930 1_556 S
H194 C207 0.929 . S
H195 C205 0.929 . S
H196 C200 0.920 1_556 S
H197 C206 0.929 . S
C198 H192 0.930 . S
C198 C199 1.367 . S
C198 C206 1.378 . S
C199 C198 1.367 . S
C199 C207 1.433 1_554 S
C200 H196 0.920 1_554 S
C200 C202 1.379 . S
C200 C204 1.358 . S
C201 C204 1.463 . S
C201 C206 1.350 . S
C201 N209 1.427 1_554 S
C202 H193 0.930 1_554 S
C202 C200 1.379 . S
C202 C203 1.367 . S
C203 C202 1.367 . S
C203 C205 1.433 . S
C204 C200 1.358 . S
C204 C201 1.463 . S
C204 N208 1.427 . S
C205 H195 0.929 . S
C205 C203 1.433 . S
C205 N208 1.384 . S
C206 H197 0.929 . S
C206 C198 1.378 . S
C206 C201 1.350 . S
C207 H194 0.929 . S
C207 C199 1.433 1_556 S
C207 N209 1.384 . S
N208 C204 1.427 . S
N208 C205 1.384 . S
N209 C201 1.427 1_556 S
N209 C207 1.384 . S
H210 C216 0.930 . S
H211 C220 0.930 . S
H212 C225 0.929 . S
H213 C223 0.929 . S
H214 C218 0.929 . S
H215 C224 0.929 . S
C216 H210 0.930 . S
C216 C217 1.367 . S
C216 C224 1.378 . S
C217 C216 1.367 . S
C217 C225 1.433 1_554 S
C218 H214 0.929 . S
C218 C220 1.378 . S
C218 C222 1.350 1_556 S
C219 C222 1.463 . S
C219 C224 1.350 . S
C219 N227 1.427 1_554 S
C220 H211 0.930 . S
C220 C218 1.378 . S
C220 C221 1.364 1_556 S
C221 C220 1.364 1_554 S
C221 C223 1.436 . S
C222 C218 1.350 1_554 S
C222 C219 1.463 . S
C222 N226 1.427 . S
C223 H213 0.929 . S
C223 C221 1.436 . S
C223 N226 1.384 . S
C224 H215 0.929 . S
C224 C216 1.378 . S
C224 C219 1.350 . S
C225 H212 0.929 . S
C225 C217 1.433 1_556 S
C225 N227 1.384 . S
N226 C222 1.427 . S
N226 C223 1.384 . S
N227 C219 1.427 1_556 S
N227 C225 1.384 . S
H228 C234 0.930 . S
H229 C238 0.930 . S
H230 C243 0.929 . S
H231 C241 0.929 . S
H232 C236 0.929 . S
H233 C242 0.929 . S
C234 H228 0.930 . S
C234 C235 1.367 1_556 S
C234 C242 1.378 . S
C235 C234 1.367 1_554 S
C235 C243 1.433 . S
C236 H232 0.929 . S
C236 C238 1.378 . S
C236 C240 1.350 . S
C237 C240 1.463 . S
C237 C242 1.350 1_554 S
C237 N245 1.427 . S
C238 H229 0.930 . S
C238 C236 1.378 . S
C238 C239 1.367 . S
C239 C238 1.367 . S
C239 C241 1.433 1_554 S
C240 C236 1.350 . S
C240 C237 1.463 . S
C240 N244 1.427 1_554 S
C241 H231 0.929 . S
C241 C239 1.433 1_556 S
C241 N244 1.384 . S
C242 H233 0.929 . S
C242 C234 1.378 . S
C242 C237 1.350 1_556 S
C243 H230 0.929 . S
C243 C235 1.433 . S
C243 N245 1.384 . S
N244 C240 1.427 1_556 S
N244 C241 1.384 . S
N245 C237 1.427 . S
N245 C243 1.384 . S
H246 C252 0.930 . S
H247 C256 0.930 . S
H248 C261 0.929 . S
H249 C259 0.929 . S
H250 C254 0.929 . S
H251 C260 0.929 . S
C252 H246 0.930 . S
C252 C253 1.367 1_556 S
C252 C260 1.378 . S
C253 C252 1.367 1_554 S
C253 C261 1.433 . S
C254 H250 0.929 . S
C254 C256 1.378 . S
C254 C258 1.350 . S
C255 C258 1.463 . S
C255 C260 1.350 1_554 S
C255 N263 1.427 . S
C256 H247 0.930 . S
C256 C254 1.378 . S
C256 C257 1.367 . S
C257 C256 1.367 . S
C257 C259 1.433 1_554 S
C258 C254 1.350 . S
C258 C255 1.463 . S
C258 N262 1.427 1_554 S
C259 H249 0.929 . S
C259 C257 1.433 1_556 S
C259 N262 1.384 . S
C260 H251 0.929 . S
C260 C252 1.378 . S
C260 C255 1.350 1_556 S
C261 H248 0.929 . S
C261 C253 1.433 . S
C261 N263 1.384 . S
N262 C258 1.427 1_556 S
N262 C259 1.384 . S
N263 C255 1.427 . S
N263 C261 1.384 . S
H264 C270 0.930 . S
H265 C274 0.930 . S
H266 C279 0.929 . S
H267 C277 0.929 . S
H268 C272 0.929 . S
H269 C278 0.929 . S
C270 H264 0.930 . S
C270 C271 1.367 . S
C270 C278 1.378 . S
C271 C270 1.367 . S
C271 C279 1.433 . S
C272 H268 0.929 . S
C272 C274 1.378 . S
C272 C276 1.350 . S
C273 C276 1.463 . S
C273 C278 1.350 . S
C273 N281 1.427 . S
C274 H265 0.930 . S
C274 C272 1.378 . S
C274 C275 1.367 . S
C275 C274 1.367 . S
C275 C277 1.433 . S
C276 C272 1.350 . S
C276 C273 1.463 . S
C276 N280 1.427 . S
C277 H267 0.929 . S
C277 C275 1.433 . S
C277 N280 1.384 . S
C278 H269 0.929 . S
C278 C270 1.378 . S
C278 C273 1.350 . S
C279 H266 0.929 . S
C279 C271 1.433 . S
C279 N281 1.384 . S
N280 C276 1.427 . S
N280 C277 1.384 . S
N281 C273 1.427 . S
N281 C279 1.384 . S
H282 C288 0.930 . S
H283 C292 0.930 . S
H284 C297 0.929 . S
H285 C295 0.929 . S
H286 C290 0.929 . S
H287 C296 0.929 . S
C288 H282 0.930 . S
C288 C289 1.367 . S
C288 C296 1.378 . S
C289 C288 1.367 . S
C289 C297 1.433 . S
C290 H286 0.929 . S
C290 C292 1.378 . S
C290 C294 1.350 . S
C291 C294 1.463 . S
C291 C296 1.350 . S
C291 N299 1.427 . S
C292 H283 0.930 . S
C292 C290 1.378 . S
C292 C293 1.367 . S
C293 C292 1.367 . S
C293 C295 1.433 . S
C294 C290 1.350 . S
C294 C291 1.463 . S
C294 N298 1.427 . S
C295 H285 0.929 . S
C295 C293 1.433 . S
C295 N298 1.384 . S
C296 H287 0.929 . S
C296 C288 1.378 . S
C296 C291 1.350 . S
C297 H284 0.929 . S
C297 C289 1.433 . S
C297 N299 1.384 . S
N298 C294 1.427 . S
N298 C295 1.384 . S
N299 C291 1.427 . S
N299 C297 1.384 . S
H300 C306 0.930 . S
H301 C310 0.930 . S
H302 C315 0.929 . S
H303 C313 0.929 . S
H304 C308 0.929 . S
H305 C314 0.929 . S
C306 H300 0.930 . S
C306 C307 1.367 . S
C306 C314 1.378 . S
C307 C306 1.367 . S
C307 C315 1.433 . S
C308 H304 0.929 . S
C308 C310 1.378 . S
C308 C312 1.350 . S
C309 C312 1.463 . S
C309 C314 1.350 . S
C309 N317 1.427 . S
C310 H301 0.930 . S
C310 C308 1.378 . S
C310 C311 1.367 . S
C311 C310 1.367 . S
C311 C313 1.433 . S
C312 C308 1.350 . S
C312 C309 1.463 . S
C312 N316 1.427 . S
C313 H303 0.929 . S
C313 C311 1.433 . S
C313 N316 1.384 . S
C314 H305 0.929 . S
C314 C306 1.378 . S
C314 C309 1.350 . S
C315 H302 0.929 . S
C315 C307 1.433 . S
C315 N317 1.384 . S
N316 C312 1.427 . S
N316 C313 1.384 . S
N317 C309 1.427 . S
N317 C315 1.384 . S
H318 C324 0.930 . S
H319 C328 0.930 . S
H320 C333 0.929 . S
H321 C331 0.929 . S
H322 C326 0.929 . S
H323 C332 0.929 . S
C324 H318 0.930 . S
C324 C325 1.367 . S
C324 C332 1.378 . S
C325 C324 1.367 . S
C325 C333 1.433 . S
C326 H322 0.929 . S
C326 C328 1.378 . S
C326 C330 1.350 . S
C327 C330 1.463 . S
C327 C332 1.350 . S
C327 N335 1.427 . S
C328 H319 0.930 . S
C328 C326 1.378 . S
C328 C329 1.367 . S
C329 C328 1.367 . S
C329 C331 1.433 . S
C330 C326 1.350 . S
C330 C327 1.463 . S
C330 N334 1.427 . S
C331 H321 0.929 . S
C331 C329 1.433 . S
C331 N334 1.384 . S
C332 H323 0.929 . S
C332 C324 1.378 . S
C332 C327 1.350 . S
C333 H320 0.929 . S
C333 C325 1.433 . S
C333 N335 1.384 . S
N334 C330 1.427 . S
N334 C331 1.384 . S
N335 C327 1.427 . S
N335 C333 1.384 . S
H336 C342 0.930 . S
H337 C346 0.930 . S
H338 C351 0.929 1_655 S
H339 C349 0.929 . S
H340 C344 0.929 . S
H341 C350 0.929 . S
C342 H336 0.930 . S
C342 C343 1.367 . S
C342 C350 1.378 . S
C343 C342 1.367 . S
C343 C351 1.433 . S
C344 H340 0.929 . S
C344 C346 1.378 . S
C344 C348 1.350 . S
C345 C348 1.463 . S
C345 C350 1.350 . S
C345 N353 1.427 . S
C346 H337 0.930 . S
C346 C344 1.378 . S
C346 C347 1.367 . S
C347 C346 1.367 . S
C347 C349 1.433 . S
C348 C344 1.350 . S
C348 C345 1.463 . S
C348 N352 1.427 . S
C349 H339 0.929 . S
C349 C347 1.433 . S
C349 N352 1.384 . S
C350 H341 0.929 . S
C350 C342 1.378 . S
C350 C345 1.350 . S
C351 H338 0.929 1_455 S
C351 C343 1.433 . S
C351 N353 1.384 . S
N352 C348 1.427 . S
N352 C349 1.384 . S
N353 C345 1.427 . S
N353 C351 1.384 . S
H354 C360 0.930 . S
H355 C364 0.930 . S
H356 C369 0.929 . S
H357 C367 0.929 . S
H358 C362 0.929 . S
H359 C368 0.929 . S
C360 H354 0.930 . S
C360 C361 1.367 . S
C360 C368 1.378 . S
C361 C360 1.367 . S
C361 C369 1.433 . S
C362 H358 0.929 . S
C362 C364 1.378 . S
C362 C366 1.350 . S
C363 C366 1.463 . S
C363 C368 1.350 . S
C363 N371 1.427 . S
C364 H355 0.930 . S
C364 C362 1.378 . S
C364 C365 1.367 . S
C365 C364 1.367 . S
C365 C367 1.433 . S
C366 C362 1.350 . S
C366 C363 1.463 . S
C366 N370 1.427 . S
C367 H357 0.929 . S
C367 C365 1.433 . S
C367 N370 1.384 . S
C368 H359 0.929 . S
C368 C360 1.378 . S
C368 C363 1.350 . S
C369 H356 0.929 . S
C369 C361 1.433 . S
C369 N371 1.384 . S
N370 C366 1.427 . S
N370 C367 1.384 . S
N371 C363 1.427 . S
N371 C369 1.384 . S
H372 C378 0.930 1_455 S
H373 C382 0.930 . S
H374 C387 0.929 . S
H375 C385 0.929 . S
H376 C380 0.929 . S
H377 C386 0.929 . S
C378 H372 0.930 1_655 S
C378 C379 1.367 . S
C378 C386 1.378 . S
C379 C378 1.367 . S
C379 C387 1.433 . S
C380 H376 0.929 . S
C380 C382 1.378 . S
C380 C384 1.350 . S
C381 C384 1.463 . S
C381 C386 1.350 . S
C381 N389 1.427 . S
C382 H373 0.930 . S
C382 C380 1.378 . S
C382 C383 1.367 . S
C383 C382 1.367 . S
C383 C385 1.433 . S
C384 C380 1.350 . S
C384 C381 1.463 . S
C384 N388 1.427 . S
C385 H375 0.929 . S
C385 C383 1.433 . S
C385 N388 1.384 . S
C386 H377 0.929 . S
C386 C378 1.378 . S
C386 C381 1.350 . S
C387 H374 0.929 . S
C387 C379 1.433 . S
C387 N389 1.384 . S
N388 C384 1.427 . S
N388 C385 1.384 . S
N389 C381 1.427 . S
N389 C387 1.384 . S
H390 C396 0.930 1_545 S
H391 C400 0.930 . S
H392 C405 0.929 . S
H393 C403 0.929 . S
H394 C398 0.929 . S
H395 C404 0.929 . S
C396 H390 0.930 1_565 S
C396 C397 1.367 . S
C396 C404 1.378 . S
C397 C396 1.367 . S
C397 C405 1.433 . S
C398 H394 0.929 . S
C398 C400 1.378 . S
C398 C402 1.350 . S
C399 C402 1.463 . S
C399 C404 1.350 . S
C399 N407 1.427 . S
C400 H391 0.930 . S
C400 C398 1.378 . S
C400 C401 1.367 . S
C401 C400 1.367 . S
C401 C403 1.433 . S
C402 C398 1.350 . S
C402 C399 1.463 . S
C402 N406 1.427 . S
C403 H393 0.929 . S
C403 C401 1.433 . S
C403 N406 1.384 . S
C404 H395 0.929 . S
C404 C396 1.378 . S
C404 C399 1.350 . S
C405 H392 0.929 . S
C405 C397 1.433 . S
C405 N407 1.384 . S
N406 C402 1.427 . S
N406 C403 1.384 . S
N407 C399 1.427 . S
N407 C405 1.384 . S
H408 C414 0.930 . S
H409 C418 0.930 . S
H410 C423 0.920 1_545 S
H411 C421 0.929 . S
H412 C416 0.929 . S
H413 C422 0.929 . S
C414 H408 0.930 . S
C414 C415 1.367 . S
C414 C422 1.378 . S
C415 C414 1.367 . S
C415 C423 1.433 . S
C416 H412 0.929 . S
C416 C418 1.378 . S
C416 C420 1.350 . S
C417 C420 1.463 . S
C417 C422 1.350 . S
C417 N425 1.427 . S
C418 H409 0.930 . S
C418 C416 1.378 . S
C418 C419 1.367 . S
C419 C418 1.367 . S
C419 C421 1.433 . S
C420 C416 1.350 . S
C420 C417 1.463 . S
C420 N424 1.427 . S
C421 H411 0.929 . S
C421 C419 1.433 . S
C421 N424 1.384 . S
C422 H413 0.929 . S
C422 C414 1.378 . S
C422 C417 1.350 . S
C423 H410 0.920 1_565 S
C423 C415 1.433 . S
C423 N425 1.384 . S
N424 C420 1.427 . S
N424 C421 1.384 . S
N425 C417 1.427 . S
N425 C423 1.384 . S
H426 C432 0.930 . S
H427 C436 0.930 . S
H428 C441 0.929 . S
H429 C439 0.929 . S
H430 C434 0.929 . S
H431 C440 0.929 . S
C432 H426 0.930 . S
C432 C433 1.367 . S
C432 C440 1.378 . S
C433 C432 1.367 . S
C433 C441 1.433 . S
C434 H430 0.929 . S
C434 C436 1.378 . S
C434 C438 1.350 . S
C435 C438 1.463 . S
C435 C440 1.350 . S
C435 N443 1.427 . S
C436 H427 0.930 . S
C436 C434 1.378 . S
C436 C437 1.367 . S
C437 C436 1.367 . S
C437 C439 1.433 . S
C438 C434 1.350 . S
C438 C435 1.463 . S
C438 N442 1.427 . S
C439 H429 0.929 . S
C439 C437 1.433 . S
C439 N442 1.384 . S
C440 H431 0.929 . S
C440 C432 1.378 . S
C440 C435 1.350 . S
C441 H428 0.929 . S
C441 C433 1.433 . S
C441 N443 1.384 . S
N442 C438 1.427 . S
N442 C439 1.384 . S
N443 C435 1.427 . S
N443 C441 1.384 . S
H444 C450 0.930 . S
H445 C454 0.930 . S
H446 C459 0.929 1_565 S
H447 C457 0.929 . S
H448 C452 0.929 . S
H449 C458 0.929 . S
C450 H444 0.930 . S
C450 C451 1.367 . S
C450 C458 1.378 . S
C451 C450 1.367 . S
C451 C459 1.433 . S
C452 H448 0.929 . S
C452 C454 1.378 . S
C452 C456 1.350 . S
C453 C456 1.463 . S
C453 C458 1.350 . S
C453 N461 1.427 . S
C454 H445 0.930 . S
C454 C452 1.378 . S
C454 C455 1.367 . S
C455 C454 1.367 . S
C455 C457 1.433 . S
C456 C452 1.350 . S
C456 C453 1.463 . S
C456 N460 1.427 . S
C457 H447 0.929 . S
C457 C455 1.433 . S
C457 N460 1.384 . S
C458 H449 0.929 . S
C458 C450 1.378 . S
C458 C453 1.350 . S
C459 H446 0.929 1_545 S
C459 C451 1.433 . S
C459 N461 1.384 . S
N460 C456 1.427 . S
N460 C457 1.384 . S
N461 C453 1.427 . S
N461 C459 1.384 . S
H462 C468 0.930 . S
H463 C472 0.930 . S
H464 C477 0.929 1_455 S
H465 C475 0.929 . S
H466 C470 0.929 . S
H467 C476 0.929 . S
C468 H462 0.930 . S
C468 C469 1.367 . S
C468 C476 1.378 . S
C469 C468 1.367 . S
C469 C477 1.433 . S
C470 H466 0.929 . S
C470 C472 1.378 . S
C470 C474 1.350 . S
C471 C474 1.463 . S
C471 C476 1.350 . S
C471 N479 1.427 . S
C472 H463 0.930 . S
C472 C470 1.378 . S
C472 C473 1.367 . S
C473 C472 1.367 . S
C473 C475 1.433 . S
C474 C470 1.350 . S
C474 C471 1.463 . S
C474 N478 1.427 . S
C475 H465 0.929 . S
C475 C473 1.433 . S
C475 N478 1.384 . S
C476 H467 0.929 . S
C476 C468 1.378 . S
C476 C471 1.350 . S
C477 H464 0.929 1_655 S
C477 C469 1.433 . S
C477 N479 1.384 . S
N478 C474 1.427 . S
N478 C475 1.384 . S
N479 C471 1.427 . S
N479 C477 1.384 . S
H480 C486 0.930 . S
H481 C490 0.930 . S
H482 C495 0.929 . S
H483 C493 0.929 . S
H484 C488 0.929 . S
H485 C494 0.929 . S
C486 H480 0.930 . S
C486 C487 1.367 . S
C486 C494 1.378 . S
C487 C486 1.367 . S
C487 C495 1.433 . S
C488 H484 0.929 . S
C488 C490 1.378 . S
C488 C492 1.350 . S
C489 C492 1.463 . S
C489 C494 1.350 . S
C489 N497 1.427 . S
C490 H481 0.930 . S
C490 C488 1.378 . S
C490 C491 1.367 . S
C491 C490 1.367 . S
C491 C493 1.433 . S
C492 C488 1.350 . S
C492 C489 1.463 . S
C492 N496 1.427 . S
C493 H483 0.929 . S
C493 C491 1.433 . S
C493 N496 1.384 . S
C494 H485 0.929 . S
C494 C486 1.378 . S
C494 C489 1.350 . S
C495 H482 0.929 . S
C495 C487 1.433 . S
C495 N497 1.384 . S
N496 C492 1.427 . S
N496 C493 1.384 . S
N497 C489 1.427 . S
N497 C495 1.384 . S
H498 C504 0.930 . S
H499 C508 0.930 . S
H500 C513 0.929 . S
H501 C511 0.929 . S
H502 C506 0.929 . S
H503 C512 0.929 . S
C504 H498 0.930 . S
C504 C505 1.367 . S
C504 C512 1.378 . S
C505 C504 1.367 . S
C505 C513 1.433 . S
C506 H502 0.929 . S
C506 C508 1.378 . S
C506 C510 1.350 . S
C507 C510 1.463 . S
C507 C512 1.350 . S
C507 N515 1.427 . S
C508 H499 0.930 . S
C508 C506 1.378 . S
C508 C509 1.367 . S
C509 C508 1.367 . S
C509 C511 1.433 . S
C510 C506 1.350 . S
C510 C507 1.463 . S
C510 N514 1.427 . S
C511 H501 0.929 . S
C511 C509 1.433 . S
C511 N514 1.384 . S
C512 H503 0.929 . S
C512 C504 1.378 . S
C512 C507 1.350 . S
C513 H500 0.929 . S
C513 C505 1.433 . S
C513 N515 1.384 . S
N514 C510 1.427 . S
N514 C511 1.384 . S
N515 C507 1.427 . S
N515 C513 1.384 . S
H516 C522 0.930 . S
H517 C526 0.930 . S
H518 C531 0.929 . S
H519 C529 0.929 . S
H520 C524 0.929 . S
H521 C530 0.929 . S
C522 H516 0.930 . S
C522 C523 1.367 . S
C522 C530 1.378 . S
C523 C522 1.367 . S
C523 C531 1.433 . S
C524 H520 0.929 . S
C524 C526 1.378 . S
C524 C528 1.350 . S
C525 C528 1.463 . S
C525 C530 1.350 . S
C525 N533 1.427 . S
C526 H517 0.930 . S
C526 C524 1.378 . S
C526 C527 1.367 . S
C527 C526 1.367 . S
C527 C529 1.433 . S
C528 C524 1.350 . S
C528 C525 1.463 . S
C528 N532 1.427 . S
C529 H519 0.929 . S
C529 C527 1.433 . S
C529 N532 1.384 . S
C530 H521 0.929 . S
C530 C522 1.378 . S
C530 C525 1.350 . S
C531 H518 0.929 . S
C531 C523 1.433 . S
C531 N533 1.384 . S
N532 C528 1.427 . S
N532 C529 1.384 . S
N533 C525 1.427 . S
N533 C531 1.384 . S
H534 C540 0.930 . S
H535 C544 0.930 . S
H536 C549 0.929 . S
H537 C547 0.929 . S
H538 C542 0.929 . S
H539 C548 0.929 . S
C540 H534 0.930 . S
C540 C541 1.367 . S
C540 C548 1.378 . S
C541 C540 1.367 . S
C541 C549 1.433 . S
C542 H538 0.929 . S
C542 C544 1.378 . S
C542 C546 1.350 . S
C543 C546 1.463 . S
C543 C548 1.350 . S
C543 N551 1.427 . S
C544 H535 0.930 . S
C544 C542 1.378 . S
C544 C545 1.367 . S
C545 C544 1.367 . S
C545 C547 1.433 . S
C546 C542 1.350 . S
C546 C543 1.463 . S
C546 N550 1.427 . S
C547 H537 0.929 . S
C547 C545 1.433 . S
C547 N550 1.384 . S
C548 H539 0.929 . S
C548 C540 1.378 . S
C548 C543 1.350 . S
C549 H536 0.929 . S
C549 C541 1.433 . S
C549 N551 1.384 . S
N550 C546 1.427 . S
N550 C547 1.384 . S
N551 C543 1.427 . S
N551 C549 1.384 . S
H552 C558 0.930 . S
H553 C562 0.930 . S
H554 C567 0.929 . S
H555 C565 0.929 . S
H556 C560 0.929 . S
H557 C566 0.929 . S
C558 H552 0.930 . S
C558 C559 1.367 . S
C558 C566 1.378 . S
C559 C558 1.367 . S
C559 C567 1.433 . S
C560 H556 0.929 . S
C560 C562 1.378 . S
C560 C564 1.350 . S
C561 C564 1.463 . S
C561 C566 1.350 . S
C561 N569 1.427 . S
C562 H553 0.930 . S
C562 C560 1.378 . S
C562 C563 1.367 . S
C563 C562 1.367 . S
C563 C565 1.433 . S
C564 C560 1.350 . S
C564 C561 1.463 . S
C564 N568 1.427 . S
C565 H555 0.929 . S
C565 C563 1.433 . S
C565 N568 1.384 . S
C566 H557 0.929 . S
C566 C558 1.378 . S
C566 C561 1.350 . S
C567 H554 0.929 . S
C567 C559 1.433 . S
C567 N569 1.384 . S
N568 C564 1.427 . S
N568 C565 1.384 . S
N569 C561 1.427 . S
N569 C567 1.384 . S
H570 C576 0.930 . S
H571 C580 0.930 . S
H572 C585 0.929 . S
H573 C583 0.929 . S
H574 C578 0.929 . S
H575 C584 0.929 . S
C576 H570 0.930 . S
C576 C577 1.367 . S
C576 C584 1.378 . S
C577 C576 1.367 . S
C577 C585 1.433 . S
C578 H574 0.929 . S
C578 C580 1.378 . S
C578 C582 1.350 . S
C579 C582 1.463 . S
C579 C584 1.350 . S
C579 N587 1.427 . S
C580 H571 0.930 . S
C580 C578 1.378 . S
C580 C581 1.367 . S
C581 C580 1.367 . S
C581 C583 1.433 . S
C582 C578 1.350 . S
C582 C579 1.463 . S
C582 N586 1.427 . S
C583 H573 0.929 . S
C583 C581 1.433 . S
C583 N586 1.384 . S
C584 H575 0.929 . S
C584 C576 1.378 . S
C584 C579 1.350 . S
C585 H572 0.929 . S
C585 C577 1.433 . S
C585 N587 1.384 . S
N586 C582 1.427 . S
N586 C583 1.384 . S
N587 C579 1.427 . S
N587 C585 1.384 . S
H588 C594 0.930 . S
H589 C598 0.930 . S
H590 C603 0.929 . S
H591 C601 0.929 . S
H592 C596 0.929 . S
H593 C602 0.929 . S
C594 H588 0.930 . S
C594 C595 1.367 . S
C594 C602 1.378 . S
C595 C594 1.367 . S
C595 C603 1.433 . S
C596 H592 0.929 . S
C596 C598 1.378 . S
C596 C600 1.350 . S
C597 C600 1.463 . S
C597 C602 1.350 . S
C597 N605 1.427 . S
C598 H589 0.930 . S
C598 C596 1.378 . S
C598 C599 1.367 . S
C599 C598 1.367 . S
C599 C601 1.433 . S
C600 C596 1.350 . S
C600 C597 1.463 . S
C600 N604 1.427 . S
C601 H591 0.929 . S
C601 C599 1.433 . S
C601 N604 1.384 . S
C602 H593 0.929 . S
C602 C594 1.378 . S
C602 C597 1.350 . S
C603 H590 0.929 . S
C603 C595 1.433 . S
C603 N605 1.384 . S
N604 C600 1.427 . S
N604 C601 1.384 . S
N605 C597 1.427 . S
N605 C603 1.384 . S
H606 C612 0.930 . S
H607 C616 0.930 . S
H608 C621 0.929 . S
H609 C619 0.929 . S
H610 C614 0.929 . S
H611 C620 0.929 . S
C612 H606 0.930 . S
C612 C613 1.367 . S
C612 C620 1.378 . S
C613 C612 1.367 . S
C613 C621 1.433 . S
C614 H610 0.929 . S
C614 C616 1.378 . S
C614 C618 1.350 . S
C615 C618 1.463 . S
C615 C620 1.350 . S
C615 N623 1.427 . S
C616 H607 0.930 . S
C616 C614 1.378 . S
C616 C617 1.367 . S
C617 C616 1.367 . S
C617 C619 1.433 . S
C618 C614 1.350 . S
C618 C615 1.463 . S
C618 N622 1.427 . S
C619 H609 0.929 . S
C619 C617 1.433 . S
C619 N622 1.384 . S
C620 H611 0.929 . S
C620 C612 1.378 . S
C620 C615 1.350 . S
C621 H608 0.929 . S
C621 C613 1.433 . S
C621 N623 1.384 . S
N622 C618 1.427 . S
N622 C619 1.384 . S
N623 C615 1.427 . S
N623 C621 1.384 . S
C199 C45 1.599 . S
C203 C112 1.573 . S
C217 C30 1.587 . S
C221 C123 1.614 1_554 S
C235 C39 1.603 . S
C239 C134 1.578 . S
C257 C145 1.568 . S
C253 C34 1.591 . S
C271 C97 1.606 . S
C275 C156 1.583 . S
C293 C167 1.613 . S
C289 C82 1.589 . S
C311 C178 1.580 . S
C307 C91 1.605 . S
C329 C189 1.559 . S
C325 C86 1.585 . S
C347 C175 1.126 . S
C343 C26 1.341 . S
C365 C186 1.250 . S
C361 C36 1.489 . S
C383 C153 1.116 . S
C379 C32 1.340 . S
C401 C166 1.562 . S
C397 C42 1.512 . S
C415 C18 1.551 . S
C419 C164 1.515 . S
C437 C177 1.726 . S
C433 C50 1.748 . S
C451 C4 1.589 . S
C455 C188 1.577 . S
C469 C48 1.745 . S
C473 C155 1.740 . S
C491 C131 1.129 . S
C487 C78 1.343 . S
C505 C88 1.480 . S
C509 C142 1.232 . S
C527 C109 1.100 . S
C523 C84 1.333 . S
C545 C122 1.564 . S
C541 C94 1.522 . S
C563 C120 1.514 . S
C559 C70 1.551 . S
C581 C133 1.729 . S
C577 C102 1.739 . S
C595 C56 1.580 . S
C599 C144 1.571 . S
C613 C100 1.749 . S
C617 C111 1.737 . S
