# Generated by pormake.
# Topology ocu, (6,8)-cn, num edge types: 1
# Building blocks:
#     Node 0, Type 0, BuildingBlock: KUMBOL_clean_sbu_0, # of connection points: 6
#     Node 1, Type 0, BuildingBlock: KUMBOL_clean_sbu_0, # of connection points: 6
#     Node 2, Type 0, BuildingBlock: KUMBOL_clean_sbu_0, # of connection points: 6
#     Node 3, Type 0, BuildingBlock: KUMBOL_clean_sbu_0, # of connection points: 6
#     Node 4, Type 0, BuildingBlock: KUMBOL_clean_sbu_0, # of connection points: 6
#     Node 5, Type 0, BuildingBlock: KUMBOL_clean_sbu_0, # of connection points: 6
#     Node 6, Type 0, BuildingBlock: KUMBOL_clean_sbu_0, # of connection points: 6
#     Node 7, Type 0, BuildingBlock: KUMBOL_clean_sbu_0, # of connection points: 6
#     Node 8, Type 1, BuildingBlock: TAGTUT_clean_sbu_1, # of connection points: 8
#     Node 9, Type 1, BuildingBlock: TAGTUT_clean_sbu_1, # of connection points: 8
#     Node 10, Type 1, BuildingBlock: TAGTUT_clean_sbu_1, # of connection points: 8
#     Node 11, Type 1, BuildingBlock: TAGTUT_clean_sbu_1, # of connection points: 8
#     Node 12, Type 1, BuildingBlock: TAGTUT_clean_sbu_1, # of connection points: 8
#     Node 13, Type 1, BuildingBlock: TAGTUT_clean_sbu_1, # of connection points: 8
#     Edge 14, Type (0, 1), BuildingBlock: AJUNOK_clean_linker_0, # of connection points: 2
#     Edge 15, Type (0, 1), BuildingBlock: AJUNOK_clean_linker_0, # of connection points: 2
#     Edge 16, Type (0, 1), BuildingBlock: AJUNOK_clean_linker_0, # of connection points: 2
#     Edge 17, Type (0, 1), BuildingBlock: AJUNOK_clean_linker_0, # of connection points: 2
#     Edge 18, Type (0, 1), BuildingBlock: AJUNOK_clean_linker_0, # of connection points: 2
#     Edge 19, Type (0, 1), BuildingBlock: AJUNOK_clean_linker_0, # of connection points: 2
#     Edge 20, Type (0, 1), BuildingBlock: AJUNOK_clean_linker_0, # of connection points: 2
#     Edge 21, Type (0, 1), BuildingBlock: AJUNOK_clean_linker_0, # of connection points: 2
#     Edge 22, Type (0, 1), BuildingBlock: AJUNOK_clean_linker_0, # of connection points: 2
#     Edge 23, Type (0, 1), BuildingBlock: AJUNOK_clean_linker_0, # of connection points: 2
#     Edge 24, Type (0, 1), BuildingBlock: AJUNOK_clean_linker_0, # of connection points: 2
#     Edge 25, Type (0, 1), BuildingBlock: AJUNOK_clean_linker_0, # of connection points: 2
#     Edge 26, Type (0, 1), BuildingBlock: AJUNOK_clean_linker_0, # of connection points: 2
#     Edge 27, Type (0, 1), BuildingBlock: AJUNOK_clean_linker_0, # of connection points: 2
#     Edge 28, Type (0, 1), BuildingBlock: AJUNOK_clean_linker_0, # of connection points: 2
#     Edge 29, Type (0, 1), BuildingBlock: AJUNOK_clean_linker_0, # of connection points: 2
#     Edge 30, Type (0, 1), BuildingBlock: AJUNOK_clean_linker_0, # of connection points: 2
#     Edge 31, Type (0, 1), BuildingBlock: AJUNOK_clean_linker_0, # of connection points: 2
#     Edge 32, Type (0, 1), BuildingBlock: AJUNOK_clean_linker_0, # of connection points: 2
#     Edge 33, Type (0, 1), BuildingBlock: AJUNOK_clean_linker_0, # of connection points: 2
#     Edge 34, Type (0, 1), BuildingBlock: AJUNOK_clean_linker_0, # of connection points: 2
#     Edge 35, Type (0, 1), BuildingBlock: AJUNOK_clean_linker_0, # of connection points: 2
#     Edge 36, Type (0, 1), BuildingBlock: AJUNOK_clean_linker_0, # of connection points: 2
#     Edge 37, Type (0, 1), BuildingBlock: AJUNOK_clean_linker_0, # of connection points: 2
#     Edge 38, Type (0, 1), BuildingBlock: AJUNOK_clean_linker_0, # of connection points: 2
#     Edge 39, Type (0, 1), BuildingBlock: AJUNOK_clean_linker_0, # of connection points: 2
#     Edge 40, Type (0, 1), BuildingBlock: AJUNOK_clean_linker_0, # of connection points: 2
#     Edge 41, Type (0, 1), BuildingBlock: AJUNOK_clean_linker_0, # of connection points: 2
#     Edge 42, Type (0, 1), BuildingBlock: AJUNOK_clean_linker_0, # of connection points: 2
#     Edge 43, Type (0, 1), BuildingBlock: AJUNOK_clean_linker_0, # of connection points: 2
#     Edge 44, Type (0, 1), BuildingBlock: AJUNOK_clean_linker_0, # of connection points: 2
#     Edge 45, Type (0, 1), BuildingBlock: AJUNOK_clean_linker_0, # of connection points: 2
#     Edge 46, Type (0, 1), BuildingBlock: AJUNOK_clean_linker_0, # of connection points: 2
#     Edge 47, Type (0, 1), BuildingBlock: AJUNOK_clean_linker_0, # of connection points: 2
#     Edge 48, Type (0, 1), BuildingBlock: AJUNOK_clean_linker_0, # of connection points: 2
#     Edge 49, Type (0, 1), BuildingBlock: AJUNOK_clean_linker_0, # of connection points: 2
#     Edge 50, Type (0, 1), BuildingBlock: AJUNOK_clean_linker_0, # of connection points: 2
#     Edge 51, Type (0, 1), BuildingBlock: AJUNOK_clean_linker_0, # of connection points: 2
#     Edge 52, Type (0, 1), BuildingBlock: AJUNOK_clean_linker_0, # of connection points: 2
#     Edge 53, Type (0, 1), BuildingBlock: AJUNOK_clean_linker_0, # of connection points: 2
#     Edge 54, Type (0, 1), BuildingBlock: AJUNOK_clean_linker_0, # of connection points: 2
#     Edge 55, Type (0, 1), BuildingBlock: AJUNOK_clean_linker_0, # of connection points: 2
#     Edge 56, Type (0, 1), BuildingBlock: AJUNOK_clean_linker_0, # of connection points: 2
#     Edge 57, Type (0, 1), BuildingBlock: AJUNOK_clean_linker_0, # of connection points: 2
#     Edge 58, Type (0, 1), BuildingBlock: AJUNOK_clean_linker_0, # of connection points: 2
#     Edge 59, Type (0, 1), BuildingBlock: AJUNOK_clean_linker_0, # of connection points: 2
#     Edge 60, Type (0, 1), BuildingBlock: AJUNOK_clean_linker_0, # of connection points: 2
#     Edge 61, Type (0, 1), BuildingBlock: AJUNOK_clean_linker_0, # of connection points: 2
# Relax obj value: 0.138
# Max RMSD: 0.271
# Mean RMSD: 0.145
data_MOF--net-ocu--node1-KUMBOL_clean_sbu_0--node2-TAGTUT_clean_sbu_1--edge1-AJUNOK_clean_linker_0
_symmetry_space_group_name_H-M    P1
_symmetry_Int_Tables_number       1
_symmetry_cell_setting            triclinic
loop_
_symmetry_equiv_pos_as_xyz
'x, y, z'
_cell_length_a     31.348065
_cell_length_b     28.473551
_cell_length_c     32.831979
_cell_angle_alpha  82.878357
_cell_angle_beta   97.161691
_cell_angle_gamma 118.35525
loop_
_atom_site_label
_atom_site_type_symbol
_atom_site_fract_x
_atom_site_fract_y
_atom_site_fract_z
_atom_type_partial_charge
Gd0 Gd 0.32544 0.33415 0.32276 0.0
Gd1 Gd 0.26521 0.22105 0.26649 0.0
C2 C 0.20042 0.26594 0.14517 0.0
C3 C 0.12251 0.25179 0.16386 0.0
C4 C 0.17787 0.23516 0.21546 0.0
C5 C 0.21162 0.25071 0.18611 0.0
C6 C 0.13238 0.23409 0.20398 0.0
C7 C 0.15653 0.26797 0.13462 0.0
C8 C 0.23262 0.27644 0.11539 0.0
C9 C 0.2733 0.26859 0.12596 0.0
N10 N 0.25369 0.24762 0.19665 0.0
C11 C 0.2824 0.25245 0.16658 0.0
H12 H 0.31165 0.24227 0.17333 0.0
C13 C 0.15396 0.19904 0.28261 0.0
N14 N 0.18863 0.21962 0.25466 0.0
C15 C 0.10842 0.19668 0.27235 0.0
C16 C 0.09771 0.21472 0.23302 0.0
H17 H 0.15965 0.18188 0.31243 0.0
H18 H 0.14784 0.28032 0.1035 0.0
H19 H 0.30358 0.2748 0.41979 0.0
H20 H 0.22492 0.2877 0.08372 0.0
H21 H 0.29694 0.27353 0.10263 0.0
H22 H 0.08822 0.25221 0.15493 0.0
H23 H 0.41962 0.43449 0.27149 0.0
H24 H 0.42884 0.26294 0.47383 0.0
H25 H 0.34354 0.24322 0.47664 0.0
H26 H 0.54881 0.3683 0.37884 0.0
H27 H 0.08137 0.18034 0.29475 0.0
H28 H 0.06239 0.21299 0.22525 0.0
H29 H 0.50502 0.30958 0.43709 0.0
H30 H 0.50587 0.46335 0.26527 0.0
N31 N 0.36188 0.30434 0.38059 0.0
C32 C 0.41064 0.27515 0.44769 0.0
C33 C 0.36246 0.26363 0.44929 0.0
C34 C 0.4355 0.30477 0.4133 0.0
C35 C 0.41001 0.31941 0.37982 0.0
C36 C 0.33911 0.28004 0.41595 0.0
N37 N 0.41068 0.37118 0.31747 0.0
C38 C 0.4348 0.35278 0.34694 0.0
C39 C 0.48627 0.43169 0.28802 0.0
C40 C 0.51053 0.40986 0.31574 0.0
C41 C 0.43679 0.4137 0.29068 0.0
C42 C 0.48549 0.37182 0.34684 0.0
H43 H 0.54909 0.425 0.31434 0.0
O44 O 0.36973 0.41683 0.33736 0.0
O45 O 0.26425 0.30177 0.27096 0.0
O46 O 0.33705 0.27372 0.24006 0.0
O47 O 0.34662 0.35384 0.25795 0.0
O48 O 0.28354 0.3765 0.28565 0.0
O49 O 0.30365 0.36573 0.36807 0.0
O50 O 0.20397 0.13992 0.26574 0.0
O51 O 0.32587 0.25397 0.31871 0.0
O52 O 0.25978 0.27458 0.35651 0.0
O53 O 0.24082 0.19544 0.32923 0.0
O54 O 0.31198 0.18264 0.30022 0.0
O55 O 0.26952 0.16211 0.23525 0.0
C56 C 0.25269 0.34151 0.26091 0.0
C57 C 0.51013 0.35464 0.37882 0.0
C58 C 0.48522 0.32128 0.41202 0.0
C59 C 0.34421 0.41064 0.36774 0.0
C60 C 0.37042 0.42508 0.40819 0.0
C61 C 0.41867 0.43421 0.41766 0.0
C62 C 0.34407 0.42485 0.43916 0.0
C63 C 0.36382 0.43101 0.47983 0.0
C64 C 0.43926 0.44196 0.4583 0.0
C65 C 0.41184 0.44029 0.48957 0.0
C66 C 0.35725 0.32615 0.2356 0.0
C67 C 0.33994 0.2162 0.32692 0.0
C68 C 0.22597 0.12472 0.24328 0.0
C69 C 0.19805 0.08863 0.21063 0.0
C70 C 0.16625 0.03496 0.22159 0.0
C71 C 0.21506 0.10272 0.17133 0.0
C72 C 0.2122 0.06339 0.14787 0.0
C73 C 0.15626 0.9956 0.19502 0.0
C74 C 0.18097 0.0093 0.15924 0.0
C75 C 0.23903 0.22189 0.35822 0.0
H76 H 0.44015 0.43477 0.39408 0.0
H77 H 0.3071 0.4187 0.4316 0.0
H78 H 0.4763 0.44878 0.46558 0.0
H79 H 0.42777 0.446 0.52095 0.0
H80 H 0.15236 0.02305 0.25182 0.0
H81 H 0.23822 0.14435 0.16235 0.0
H82 H 0.1331 0.95393 0.20415 0.0
H83 H 0.17824 0.97739 0.14258 0.0
Gd84 Gd 0.75573 0.29468 0.30604 0.0
Gd85 Gd 0.83244 0.24973 0.26107 0.0
C86 C 0.96603 0.36921 0.19226 0.0
C87 C 0.93717 0.34886 0.1214 0.0
C88 C 0.88387 0.29992 0.17668 0.0
C89 C 0.9204 0.32978 0.20564 0.0
C90 C 0.89285 0.30796 0.1345 0.0
C91 C 0.9735 0.37959 0.15017 0.0
C92 C 1.0034 0.39691 0.22145 0.0
C93 C 0.99575 0.38394 0.26295 0.0
N94 N 0.91235 0.31898 0.24657 0.0
C95 C 0.95049 0.34448 0.27506 0.0
H96 H 0.94841 0.3352 0.3076 0.0
C97 C 0.81046 0.22186 0.16378 0.0
N98 N 0.84101 0.26043 0.18974 0.0
C99 C 0.81715 0.22866 0.12182 0.0
C100 C 0.85793 0.27294 0.10685 0.0
H101 H 0.78067 0.18566 0.17561 0.0
H102 H 1.00766 0.41086 0.13966 0.0
H103 H 0.67918 0.18962 0.2449 0.0
H104 H 1.03868 0.42748 0.21228 0.0
H105 H 1.02502 0.40407 0.28587 0.0
H106 H 0.94425 0.35589 0.08919 0.0
H107 H 0.78943 0.3148 0.40869 0.0
H108 H 0.54546 0.10468 0.30061 0.0
H109 H 0.59396 0.12347 0.24139 0.0
H110 H 0.58789 0.15888 0.43763 0.0
H111 H 0.79148 0.19912 0.10128 0.0
H112 H 0.86354 0.27792 0.07435 0.0
H113 H 0.54335 0.1181 0.37379 0.0
H114 H 0.7505 0.28838 0.47309 0.0
N115 N 0.67928 0.21622 0.30281 0.0
C116 C 0.58272 0.13611 0.3015 0.0
C117 C 0.60996 0.14662 0.26806 0.0
C118 C 0.60503 0.16343 0.33689 0.0
C119 C 0.65408 0.20364 0.33676 0.0
C120 C 0.6585 0.18608 0.26958 0.0
N121 N 0.72726 0.2616 0.37266 0.0
C122 C 0.67899 0.22655 0.37289 0.0
C123 C 0.72999 0.2702 0.44525 0.0
C124 C 0.68107 0.23321 0.446 0.0
C125 C 0.75242 0.28425 0.40831 0.0
C126 C 0.65494 0.2109 0.40965 0.0
H127 H 0.66385 0.22204 0.47478 0.0
O128 O 0.76224 0.35785 0.34118 0.0
O129 O 0.81946 0.31509 0.27243 0.0
O130 O 0.87214 0.28288 0.32175 0.0
O131 O 0.82111 0.30784 0.34997 0.0
O132 O 0.80544 0.37711 0.27505 0.0
O133 O 0.70278 0.32357 0.29212 0.0
O134 O 0.79963 0.16446 0.25211 0.0
O135 O 0.76541 0.2254 0.29381 0.0
O136 O 0.72941 0.29064 0.23937 0.0
O137 O 0.77221 0.25219 0.21519 0.0
O138 O 0.81243 0.19453 0.31897 0.0
O139 O 0.87784 0.21549 0.25152 0.0
C140 C 0.83491 0.36379 0.26194 0.0
C141 C 0.60595 0.17237 0.40941 0.0
C142 C 0.58083 0.149 0.3731 0.0
C143 C 0.72177 0.35488 0.32261 0.0
C144 C 0.70231 0.38934 0.33174 0.0
C145 C 0.69508 0.39379 0.37212 0.0
C146 C 0.6827 0.41006 0.29888 0.0
C147 C 0.65341 0.43247 0.30534 0.0
C148 C 0.66782 0.41911 0.37885 0.0
C149 C 0.64681 0.43857 0.34539 0.0
C150 C 0.86188 0.30424 0.35053 0.0
C151 C 0.77129 0.19363 0.32163 0.0
C152 C 0.84231 0.16657 0.25301 0.0
C153 C 0.85158 0.12825 0.28196 0.0
C154 C 0.81525 0.07521 0.28893 0.0
C155 C 0.89655 0.14591 0.30486 0.0
C156 C 0.90458 0.11213 0.33531 0.0
C157 C 0.82429 0.04028 0.31815 0.0
C158 C 0.86863 0.0589 0.34186 0.0
C159 C 0.7398 0.27055 0.21014 0.0
H160 H 0.70918 0.37652 0.39812 0.0
H161 H 0.6873 0.40524 0.26763 0.0
H162 H 0.66213 0.42259 0.40995 0.0
H163 H 0.62489 0.4569 0.35076 0.0
H164 H 0.77986 0.06109 0.27225 0.0
H165 H 0.92463 0.18713 0.30121 0.0
H166 H 0.79628 0.99944 0.32352 0.0
H167 H 0.87415 0.03262 0.36631 0.0
Gd168 Gd 0.76372 0.72045 0.31178 0.0
Gd169 Gd 0.82826 0.84709 0.26049 0.0
C170 C 0.9772 0.91265 0.20943 0.0
C171 C 1.02588 0.99277 0.24589 0.0
C172 C 0.94113 0.93508 0.2601 0.0
C173 C 0.93722 0.90059 0.23203 0.0
C174 C 0.98519 0.98252 0.26628 0.0
C175 C 1.02193 0.95771 0.21765 0.0
C176 C 0.97011 0.88149 0.17706 0.0
C177 C 0.92342 0.84216 0.16605 0.0
N178 N 0.89288 0.85875 0.22339 0.0
C179 C 0.885 0.83189 0.18927 0.0
H180 H 0.84894 0.80303 0.1792 0.0
C181 C 0.90268 0.96004 0.30439 0.0
N182 N 0.90094 0.9242 0.2792 0.0
C183 C 0.9453 0.00738 0.31115 0.0
C184 C 0.98671 0.01905 0.29188 0.0
H185 H 0.87193 0.95285 0.32016 0.0
H186 H 0.05297 0.96724 0.20081 0.0
H187 H 0.75914 0.76021 0.40287 0.0
H188 H 0.99977 0.88961 0.15887 0.0
H189 H 0.91685 0.81985 0.13953 0.0
H190 H 0.06011 0.02859 0.25074 0.0
H191 H 0.70165 0.62641 0.24337 0.0
H192 H 0.61113 0.69635 0.42852 0.0
H193 H 0.69868 0.75017 0.44827 0.0
H194 H 0.5239 0.58555 0.31757 0.0
H195 H 0.94604 0.03421 0.33188 0.0
H196 H 1.01967 0.05605 0.29723 0.0
H197 H 0.54618 0.63609 0.37906 0.0
H198 H 0.61601 0.56689 0.22103 0.0
N199 N 0.70758 0.71455 0.35645 0.0
C200 C 0.63779 0.70077 0.40827 0.0
C201 C 0.6871 0.73108 0.41953 0.0
C202 C 0.62356 0.67513 0.37162 0.0
C203 C 0.65982 0.68211 0.34638 0.0
C204 C 0.72155 0.73705 0.39335 0.0
N205 N 0.6836 0.65674 0.29102 0.0
C206 C 0.6474 0.65261 0.31247 0.0
C207 C 0.62463 0.58966 0.24752 0.0
C208 C 0.58714 0.58614 0.26852 0.0
C209 C 0.673 0.62386 0.26008 0.0
C210 C 0.59825 0.61694 0.30195 0.0
H211 H 0.5498 0.55955 0.25871 0.0
O212 O 0.74034 0.64507 0.34918 0.0
O213 O 0.81812 0.76056 0.26186 0.0
O214 O 0.78105 0.78514 0.21666 0.0
O215 O 0.71794 0.73111 0.25578 0.0
O216 O 0.78808 0.6802 0.2688 0.0
O217 O 0.81647 0.70387 0.35109 0.0
O218 O 0.77477 0.87061 0.23065 0.0
O219 O 0.77455 0.80552 0.31159 0.0
O220 O 0.81733 0.78259 0.35517 0.0
O221 O 0.8776 0.84646 0.31568 0.0
O222 O 0.79825 0.88415 0.30224 0.0
O223 O 0.84452 0.90125 0.20567 0.0
C224 C 0.8203 0.72001 0.24785 0.0
C225 C 0.56183 0.61243 0.32545 0.0
C226 C 0.57449 0.64128 0.36037 0.0
C227 C 0.78454 0.65565 0.3628 0.0
C228 C 0.79794 0.61236 0.36396 0.0
C229 C 0.76761 0.56222 0.38285 0.0
C230 C 0.84347 0.62236 0.35231 0.0
C231 C 0.85991 0.58379 0.36215 0.0
C232 C 0.78283 0.52314 0.39094 0.0
C233 C 0.82833 0.53352 0.38053 0.0
C234 C 0.73514 0.75061 0.21949 0.0
C235 C 0.76973 0.84418 0.32564 0.0
C236 C 0.80488 0.9051 0.20464 0.0
C237 C 0.81039 0.95936 0.20162 0.0
C238 C 0.85617 0.005 0.20385 0.0
C239 C 0.76839 0.96517 0.1965 0.0
C240 C 0.77102 0.01574 0.1948 0.0
C241 C 0.85924 0.05584 0.20006 0.0
C242 C 0.8169 0.06132 0.19492 0.0
C243 C 0.86184 0.82266 0.35167 0.0
H244 H 0.73302 0.55408 0.39307 0.0
H245 H 0.86744 0.66126 0.33826 0.0
H246 H 0.76074 0.48589 0.40781 0.0
H247 H 0.84011 0.50343 0.38984 0.0
H248 H 0.88942 1.00156 0.20801 0.0
H249 H 0.73346 0.92981 0.19305 0.0
H250 H 0.89444 0.09104 0.20111 0.0
H251 H 0.82006 0.10106 0.19158 0.0
Gd252 Gd 0.27661 0.83173 0.28986 0.0
Gd253 Gd 0.33592 0.74836 0.30221 0.0
C254 C 0.3285 0.61561 0.39833 0.0
C255 C 0.40963 0.65622 0.43295 0.0
C256 C 0.38527 0.70784 0.37945 0.0
C257 C 0.33996 0.66385 0.37384 0.0
C258 C 0.42052 0.7046 0.40922 0.0
C259 C 0.36368 0.61192 0.42759 0.0
C260 C 0.28219 0.57225 0.39233 0.0
C261 C 0.24903 0.57725 0.36189 0.0
N262 N 0.30724 0.66809 0.34434 0.0
C263 C 0.26252 0.62537 0.33759 0.0
H264 H 0.23686 0.62779 0.3135 0.0
C265 C 0.43839 0.79883 0.36124 0.0
N266 N 0.39458 0.75409 0.35619 0.0
C267 C 0.47415 0.79777 0.39086 0.0
C268 C 0.46537 0.75035 0.41472 0.0
H269 H 0.44575 0.83543 0.34253 0.0
H270 H 0.35569 0.57484 0.44604 0.0
H271 H 0.3935 0.90075 0.33976 0.0
H272 H 0.27188 0.53467 0.41075 0.0
H273 H 0.21326 0.5438 0.35672 0.0
H274 H 0.43627 0.65286 0.45587 0.0
H275 H 0.21444 0.82492 0.19754 0.0
H276 H 0.4585 0.05924 0.28493 0.0
H277 H 0.45891 0.99155 0.33946 0.0
H278 H 0.35836 0.04946 0.16139 0.0
H279 H 0.50865 0.83336 0.395 0.0
H280 H 0.49325 0.7496 0.43749 0.0
H281 H 0.42166 0.0799 0.21822 0.0
H282 H 0.21717 0.88354 0.13558 0.0
N283 N 0.34919 0.91629 0.29038 0.0
C284 C 0.42803 0.01933 0.28593 0.0
C285 C 0.42816 0.9814 0.31688 0.0
C286 C 0.39026 0.00428 0.25497 0.0
C287 C 0.35104 0.95173 0.25771 0.0
C288 C 0.38925 0.92965 0.31788 0.0
N289 N 0.28037 0.88273 0.22685 0.0
C290 C 0.31591 0.93432 0.22503 0.0
C291 C 0.24543 0.89824 0.1603 0.0
C292 C 0.28255 0.95072 0.15736 0.0
C293 C 0.24455 0.86485 0.19551 0.0
C294 C 0.31824 0.96947 0.18989 0.0
H295 H 0.28317 0.97652 0.12999 0.0
O296 O 0.20072 0.80997 0.27364 0.0
O297 O 0.27158 0.75373 0.31771 0.0
O298 O 0.2639 0.70473 0.26694 0.0
O299 O 0.25276 0.7775 0.23897 0.0
O300 O 0.22647 0.77535 0.33957 0.0
O301 O 0.24922 0.88542 0.30073 0.0
O302 O 0.39498 0.74033 0.28223 0.0
O303 O 0.32685 0.81334 0.2612 0.0
O304 O 0.31321 0.8429 0.35395 0.0
O305 O 0.34278 0.77979 0.36365 0.0
O306 O 0.39642 0.82845 0.27657 0.0
O307 O 0.32175 0.6923 0.25632 0.0
C308 C 0.23791 0.73714 0.3426 0.0
C309 C 0.35607 0.02212 0.18809 0.0
C310 C 0.39196 0.03949 0.22054 0.0
C311 C 0.20434 0.85161 0.28953 0.0
C312 C 0.16798 0.84016 0.31833 0.0
C313 C 0.11898 0.82074 0.30394 0.0
C314 C 0.18168 0.8471 0.36039 0.0
C315 C 0.14686 0.83608 0.38779 0.0
C316 C 0.08402 0.80918 0.33131 0.0
C317 C 0.09793 0.81729 0.37297 0.0
C318 C 0.24339 0.72726 0.23977 0.0
C319 C 0.37 0.84588 0.2534 0.0
C320 C 0.36797 0.70984 0.25313 0.0
C321 C 0.38557 0.72802 0.21165 0.0
C322 C 0.42145 0.78094 0.20277 0.0
C323 C 0.36838 0.69155 0.18117 0.0
C324 C 0.38915 0.70655 0.14305 0.0
C325 C 0.43952 0.79715 0.16412 0.0
C326 C 0.42411 0.7602 0.13462 0.0
C327 C 0.33379 0.81611 0.37692 0.0
H328 H 0.10787 0.81465 0.2716 0.0
H329 H 0.2194 0.86133 0.3719 0.0
H330 H 0.04624 0.79469 0.32016 0.0
H331 H 0.07081 0.81054 0.39348 0.0
H332 H 0.43668 0.80978 0.22576 0.0
H333 H 0.3403 0.65109 0.1879 0.0
H334 H 0.46716 0.83792 0.15765 0.0
H335 H 0.44164 0.77328 0.10598 0.0
Gd336 Gd 0.2757 0.83421 0.77955 0.0
Gd337 Gd 0.31726 0.73889 0.79778 0.0
C338 C 0.47508 0.80497 0.7649 0.0
C339 C 0.46434 0.78815 0.69272 0.0
C340 C 0.3939 0.76083 0.73167 0.0
C341 C 0.42408 0.78162 0.7663 0.0
C342 C 0.41375 0.76222 0.69486 0.0
C343 C 0.49498 0.8096 0.72768 0.0
C344 C 0.50461 0.82138 0.80122 0.0
C345 C 0.48315 0.81162 0.83809 0.0
N346 N 0.40362 0.77572 0.80196 0.0
C347 C 0.43256 0.78758 0.83803 0.0
H348 H 0.41723 0.77828 0.86731 0.0
C349 C 0.31488 0.70629 0.70375 0.0
N350 N 0.3451 0.7368 0.73446 0.0
C351 C 0.33252 0.70687 0.66653 0.0
C352 C 0.38217 0.73614 0.66166 0.0
H353 H 0.2775 0.67923 0.70826 0.0
H354 H 0.534 0.82817 0.72596 0.0
H355 H 0.1745 0.7877 0.7099 0.0
H356 H 0.54383 0.83954 0.8014 0.0
H357 H 0.50553 0.82187 0.86675 0.0
H358 H 0.48013 0.79049 0.66452 0.0
H359 H 0.31136 0.89354 0.86938 0.0
H360 H 0.04829 0.70972 0.77721 0.0
H361 H 0.08689 0.73189 0.7116 0.0
H362 H 0.1086 0.76858 0.9123 0.0
H363 H 0.3079 0.6836 0.64206 0.0
H364 H 0.3959 0.73627 0.63293 0.0
H365 H 0.05668 0.7245 0.85184 0.0
H366 H 0.27856 0.88777 0.93457 0.0
N367 N 0.18867 0.78924 0.77553 0.0
C368 C 0.0875 0.73222 0.77708 0.0
C369 C 0.10917 0.74443 0.74007 0.0
C370 C 0.11645 0.75254 0.81296 0.0
C371 C 0.16752 0.78115 0.81124 0.0
C372 C 0.15961 0.77504 0.73958 0.0
N373 N 0.24535 0.83417 0.8423 0.0
C374 C 0.19664 0.80547 0.84536 0.0
C375 C 0.25512 0.86352 0.91008 0.0
C376 C 0.20574 0.83116 0.91475 0.0
C377 C 0.27406 0.86541 0.87323 0.0
C378 C 0.1756 0.80254 0.8819 0.0
H379 H 0.19104 0.8299 0.94327 0.0
O380 O 0.2561 0.88951 0.74141 0.0
O381 O 0.33922 0.82172 0.76586 0.0
O382 O 0.34973 0.79011 0.85069 0.0
O383 O 0.34514 0.8654 0.82065 0.0
O384 O 0.30719 0.85072 0.71752 0.0
O385 O 0.3111 0.91871 0.79164 0.0
O386 O 0.2696 0.65498 0.78828 0.0
O387 O 0.25516 0.75201 0.81397 0.0
O388 O 0.24644 0.78438 0.72561 0.0
O389 O 0.24691 0.70925 0.7594 0.0
O390 O 0.2915 0.72645 0.86166 0.0
O391 O 0.33813 0.67903 0.82477 0.0
C392 C 0.34253 0.83916 0.72747 0.0
C393 C 0.1252 0.77202 0.88429 0.0
C394 C 0.09568 0.74687 0.84992 0.0
C395 C 0.28454 0.93021 0.76277 0.0
C396 C 0.26227 0.96187 0.77315 0.0
C397 C 0.28207 0.01599 0.75953 0.0
C398 C 0.21585 0.93577 0.78777 0.0
C399 C 0.18439 0.95889 0.77938 0.0
C400 C 0.25445 0.0427 0.75854 0.0
C401 C 0.20577 0.01446 0.76758 0.0
C402 C 0.36027 0.84049 0.85075 0.0
C403 C 0.25486 0.73639 0.85299 0.0
C404 C 0.29628 0.63937 0.81373 0.0
C405 C 0.27226 0.60036 0.84751 0.0
C406 C 0.23302 0.59895 0.86525 0.0
C407 C 0.29892 0.57707 0.86941 0.0
C408 C 0.29534 0.5651 0.91167 0.0
C409 C 0.22494 0.57983 0.9065 0.0
C410 C 0.25781 0.56556 0.93045 0.0
C411 C 0.23305 0.73319 0.7281 0.0
H412 H 0.31803 0.03698 0.74826 0.0
H413 H 0.20205 0.89448 0.79915 0.0
H414 H 0.26988 0.08462 0.74806 0.0
H415 H 0.18471 0.03579 0.76137 0.0
H416 H 0.21122 0.61612 0.84838 0.0
H417 H 0.32966 0.57915 0.85563 0.0
H418 H 0.19604 0.58081 0.92073 0.0
H419 H 0.25569 0.55801 0.96343 0.0
Gd420 Gd 0.34536 0.32449 0.75117 0.0
Gd421 Gd 0.2594 0.24914 0.82993 0.0
C422 C 0.27199 0.11915 0.92026 0.0
C423 C 0.19926 0.03963 0.89943 0.0
C424 C 0.21552 0.12709 0.86592 0.0
C425 C 0.25912 0.15082 0.88973 0.0
C426 C 0.18429 0.07163 0.87188 0.0
C427 C 0.24314 0.06337 0.92347 0.0
C428 C 0.31283 0.14439 0.94734 0.0
C429 C 0.33893 0.19992 0.94454 0.0
N430 N 0.28719 0.20491 0.88505 0.0
C431 C 0.32557 0.22965 0.91341 0.0
H432 H 0.34723 0.27227 0.91279 0.0
C433 C 0.15513 0.13874 0.82184 0.0
N434 N 0.2017 0.15874 0.8394 0.0
C435 C 0.12283 0.08422 0.82717 0.0
C436 C 0.13798 0.05025 0.85138 0.0
H437 H 0.1428 0.16458 0.80326 0.0
H438 H 0.25388 0.03833 0.94509 0.0
H439 H 0.26657 0.27435 0.66624 0.0
H440 H 0.32393 0.12153 0.97101 0.0
H441 H 0.36995 0.21999 0.96606 0.0
H442 H 0.17633 0.99676 0.9035 0.0
H443 H 0.44827 0.43756 0.77351 0.0
H444 H 0.2377 0.39798 0.60587 0.0
H445 H 0.22307 0.30446 0.61182 0.0
H446 H 0.35884 0.55518 0.66808 0.0
H447 H 0.08629 0.06852 0.81266 0.0
H448 H 0.11312 0.00793 0.85537 0.0
H449 H 0.28926 0.49179 0.62611 0.0
H450 H 0.47881 0.53526 0.76349 0.0
N451 N 0.30459 0.34953 0.69382 0.0
C452 C 0.25812 0.3854 0.6294 0.0
C453 C 0.24917 0.33237 0.63322 0.0
C454 C 0.29399 0.42178 0.65553 0.0
C455 C 0.31724 0.40251 0.68774 0.0
C456 C 0.27351 0.31522 0.66519 0.0
N457 N 0.38044 0.41879 0.73973 0.0
C458 C 0.35587 0.43812 0.71181 0.0
C459 C 0.44361 0.50848 0.74949 0.0
C460 C 0.41615 0.52897 0.72433 0.0
C461 C 0.42581 0.4531 0.75576 0.0
C462 C 0.3726 0.49381 0.70387 0.0
H463 H 0.43026 0.57193 0.719 0.0
O464 O 0.405 0.35985 0.71096 0.0
O465 O 0.32708 0.26183 0.80353 0.0
O466 O 0.32456 0.31444 0.85855 0.0
O467 O 0.37292 0.37314 0.80752 0.0
O468 O 0.40039 0.31268 0.79696 0.0
O469 O 0.36597 0.27421 0.72274 0.0
O470 O 0.20744 0.23087 0.8749 0.0
O471 O 0.27556 0.31057 0.77531 0.0
O472 O 0.28737 0.2458 0.72959 0.0
O473 O 0.24412 0.18971 0.78436 0.0
O474 O 0.20443 0.25125 0.77935 0.0
O475 O 0.2476 0.3121 0.84943 0.0
C476 C 0.36988 0.27065 0.81757 0.0
C477 C 0.34709 0.51268 0.67402 0.0
C478 C 0.3077 0.47665 0.64996 0.0
C479 C 0.39872 0.31375 0.7018 0.0
C480 C 0.39782 0.30565 0.65823 0.0
C481 C 0.38288 0.33335 0.62618 0.0
C482 C 0.41101 0.26776 0.64889 0.0
C483 C 0.40995 0.25751 0.60787 0.0
C484 C 0.38124 0.32306 0.58531 0.0
C485 C 0.39469 0.28543 0.57613 0.0
C486 C 0.36085 0.35985 0.84607 0.0
C487 C 0.23245 0.29383 0.75806 0.0
C488 C 0.21871 0.28071 0.87721 0.0
C489 C 0.23052 0.3001 0.91864 0.0
C490 C 0.25331 0.27982 0.9501 0.0
C491 C 0.21896 0.33969 0.92674 0.0
C492 C 0.2292 0.3585 0.96624 0.0
C493 C 0.26523 0.29966 0.98893 0.0
C494 C 0.2531 0.3386 0.99709 0.0
C495 C 0.25711 0.19866 0.74633 0.0
H496 H 0.37232 0.36262 0.63266 0.0
H497 H 0.42102 0.24529 0.67384 0.0
H498 H 0.3696 0.34439 0.56066 0.0
H499 H 0.39374 0.27864 0.54423 0.0
H500 H 0.26146 0.24838 0.94489 0.0
H501 H 0.20105 0.35504 0.90247 0.0
H502 H 0.28283 0.28389 0.01306 0.0
H503 H 0.2607 0.35143 0.02801 0.0
Gd504 Gd 0.77989 0.34372 0.76814 0.0
Gd505 Gd 0.80353 0.23446 0.80881 0.0
C506 C 0.73558 0.13729 0.92546 0.0
C507 C 0.80557 0.16426 0.97529 0.0
C508 C 0.81593 0.19848 0.90364 0.0
C509 C 0.76613 0.17098 0.89474 0.0
C510 C 0.83636 0.19339 0.94365 0.0
C511 C 0.75515 0.13678 0.9662 0.0
C512 C 0.68671 0.10359 0.91401 0.0
C513 C 0.6698 0.10325 0.87256 0.0
N514 N 0.74799 0.17396 0.85534 0.0
C515 C 0.70105 0.13922 0.84344 0.0
H516 H 0.68746 0.13976 0.8116 0.0
C517 C 0.89391 0.24742 0.8782 0.0
N518 N 0.84457 0.22751 0.87253 0.0
C519 C 0.91587 0.24271 0.91725 0.0
C520 C 0.88704 0.21657 0.95032 0.0
H521 H 0.91647 0.26792 0.85292 0.0
H522 H 0.73161 0.11402 0.99053 0.0
H523 H 0.89933 0.42628 0.81104 0.0
H524 H 0.6622 0.07658 0.93667 0.0
H525 H 0.6324 0.07637 0.86318 0.0
H526 H 0.82042 0.16137 1.00657 0.0
H527 H 0.70203 0.324 0.68376 0.0
H528 H 0.97982 0.53148 0.71482 0.0
H529 H 0.97346 0.49836 0.78779 0.0
H530 H 0.86989 0.4824 0.59534 0.0
H531 H 0.95502 0.25962 0.92189 0.0
H532 H 0.90416 0.21336 0.98057 0.0
H533 H 0.94187 0.52383 0.64346 0.0
H534 H 0.70396 0.35632 0.6108 0.0
N535 N 0.85738 0.41778 0.75252 0.0
C536 C 0.94538 0.50013 0.72499 0.0
C537 C 0.94187 0.48159 0.76616 0.0
C538 C 0.90479 0.47733 0.69728 0.0
C539 C 0.86051 0.43628 0.71195 0.0
C540 C 0.89806 0.44015 0.77937 0.0
N541 N 0.77794 0.37312 0.69808 0.0
C542 C 0.81996 0.4133 0.68427 0.0
C543 C 0.73693 0.37238 0.63097 0.0
C544 C 0.78065 0.41035 0.6155 0.0
C545 C 0.73609 0.35446 0.67254 0.0
C546 C 0.82265 0.43161 0.64217 0.0
H547 H 0.78143 0.42372 0.5831 0.0
O548 O 0.70619 0.33323 0.75756 0.0
O549 O 0.7467 0.26178 0.80312 0.0
O550 O 0.74194 0.2031 0.75805 0.0
O551 O 0.75419 0.2809 0.71919 0.0
O552 O 0.74722 0.32491 0.82902 0.0
O553 O 0.76716 0.41235 0.76684 0.0
O554 O 0.83739 0.2092 0.76846 0.0
O555 O 0.82156 0.30175 0.76087 0.0
O556 O 0.82445 0.37038 0.82955 0.0
O557 O 0.83658 0.29746 0.8577 0.0
O558 O 0.87969 0.29272 0.78878 0.0
O559 O 0.78408 0.15032 0.80834 0.0
C560 C 0.73224 0.27432 0.83291 0.0
C561 C 0.86699 0.47043 0.62778 0.0
C562 C 0.90786 0.49359 0.65519 0.0
C563 C 0.7199 0.38309 0.76377 0.0
C564 C 0.69239 0.39154 0.79298 0.0
C565 C 0.64574 0.38497 0.77967 0.0
C566 C 0.71034 0.4027 0.83429 0.0
C567 C 0.68047 0.40412 0.86221 0.0
C568 C 0.61679 0.38821 0.80707 0.0
C569 C 0.63378 0.39712 0.84815 0.0
C570 C 0.73895 0.22822 0.72189 0.0
C571 C 0.86712 0.32031 0.76016 0.0
C572 C 0.81284 0.15893 0.78008 0.0
C573 C 0.83669 0.12547 0.78099 0.0
C574 C 0.83936 0.09239 0.81559 0.0
C575 C 0.85409 0.12431 0.74423 0.0
C576 C 0.87398 0.09035 0.74123 0.0
C577 C 0.85975 0.0586 0.81299 0.0
C578 C 0.8771 0.05757 0.77599 0.0
C579 C 0.84173 0.34662 0.85978 0.0
H580 H 0.63143 0.37654 0.74813 0.0
H581 H 0.74653 0.40869 0.84506 0.0
H582 H 0.58071 0.38281 0.79662 0.0
H583 H 0.61034 0.39825 0.8692 0.0
H584 H 0.82559 0.09243 0.84425 0.0
H585 H 0.85247 0.15053 0.71777 0.0
H586 H 0.86202 0.03314 0.83963 0.0
H587 H 0.89288 0.03134 0.77444 0.0
Gd588 Gd 0.80998 0.83649 0.82632 0.0
Gd589 Gd 0.77989 0.72651 0.76146 0.0
C590 C 0.70305 0.74764 0.63764 0.0
C591 C 0.62201 0.67285 0.64227 0.0
C592 C 0.68431 0.68596 0.69845 0.0
C593 C 0.71675 0.73187 0.67754 0.0
C594 C 0.63718 0.65466 0.68019 0.0
C595 C 0.65502 0.71919 0.6209 0.0
C596 C 0.73848 0.79019 0.6151 0.0
C597 C 0.78643 0.8146 0.63186 0.0
N598 N 0.7629 0.75853 0.69464 0.0
C599 C 0.79792 0.79807 0.67172 0.0
H600 H 0.83489 0.8163 0.68353 0.0
C601 C 0.67511 0.61633 0.74895 0.0
N602 N 0.70079 0.66841 0.73413 0.0
C603 C 0.62774 0.58422 0.7329 0.0
C604 C 0.60803 0.60418 0.69906 0.0
H605 H 0.69155 0.59953 0.77289 0.0
H606 H 0.64363 0.73146 0.59075 0.0
H607 H 0.76331 0.76657 0.91546 0.0
H608 H 0.72952 0.80335 0.58434 0.0
H609 H 0.81458 0.84642 0.61424 0.0
H610 H 0.58573 0.64982 0.62815 0.0
H611 H 0.90674 0.95427 0.7974 0.0
H612 H 0.87996 0.7773 1.00221 0.0
H613 H 0.79202 0.74331 0.98366 0.0
H614 H 1.02133 0.90544 0.93584 0.0
H615 H 0.60699 0.54371 0.74596 0.0
H616 H 0.57168 0.57891 0.68605 0.0
H617 H 0.96544 0.83595 0.98331 0.0
H618 H 0.995 0.00206 0.81406 0.0
N619 N 0.83417 0.81163 0.89322 0.0
C620 C 0.86758 0.78755 0.97175 0.0
C621 C 0.81797 0.76826 0.96138 0.0
C622 C 0.90068 0.82184 0.94334 0.0
C623 C 0.88266 0.83414 0.90405 0.0
C624 C 0.80182 0.78103 0.92201 0.0
N625 N 0.89477 0.88943 0.84257 0.0
C626 C 0.91405 0.87339 0.87741 0.0
C627 C 0.97293 0.96526 0.83164 0.0
C628 C 0.99396 0.94617 0.86496 0.0
C629 C 0.92288 0.93739 0.82184 0.0
C630 C 0.96429 0.90101 0.88931 0.0
H631 H 1.03248 0.9686 0.87332 0.0
O632 O 0.82442 0.91633 0.83786 0.0
O633 O 0.77029 0.79885 0.76719 0.0
O634 O 0.85774 0.79014 0.76063 0.0
O635 O 0.85603 0.86715 0.7727 0.0
O636 O 0.77162 0.86905 0.77584 0.0
O637 O 0.7625 0.84751 0.86318 0.0
O638 O 0.78693 0.65397 0.76567 0.0
O639 O 0.82487 0.76682 0.81924 0.0
O640 O 0.74266 0.76278 0.84489 0.0
O641 O 0.71447 0.69899 0.7963 0.0
O642 O 0.78772 0.68396 0.82306 0.0
O643 O 0.81863 0.71443 0.71618 0.0
C644 C 0.75433 0.83166 0.75081 0.0
C645 C 0.98278 0.88528 0.92662 0.0
C646 C 0.95096 0.84588 0.9537 0.0
C647 C 0.78985 0.89925 0.8628 0.0
C648 C 0.8035 0.92289 0.90321 0.0
C649 C 0.84957 0.9362 0.92333 0.0
C650 C 0.77044 0.93222 0.92204 0.0
C651 C 0.7828 0.95343 0.96115 0.0
C652 C 0.86216 0.95737 0.9617 0.0
C653 C 0.82911 0.96577 0.98058 0.0
C654 C 0.87615 0.84251 0.75735 0.0
C655 C 0.81802 0.72482 0.84325 0.0
C656 C 0.80887 0.66638 0.73182 0.0
C657 C 0.79282 0.62369 0.70314 0.0
C658 C 0.75229 0.57351 0.7103 0.0
C659 C 0.82138 0.63119 0.67065 0.0
C660 C 0.81048 0.58885 0.64617 0.0
C661 C 0.74074 0.53179 0.68581 0.0
C662 C 0.76984 0.53905 0.65436 0.0
C663 C 0.7106 0.71699 0.82999 0.0
H664 H 0.87604 0.93051 0.9094 0.0
H665 H 0.73541 0.92343 0.90598 0.0
H666 H 0.89771 0.96714 0.97698 0.0
H667 H 0.83967 0.9814 0.0107 0.0
H668 H 0.73029 0.56566 0.73561 0.0
H669 H 0.85302 0.66952 0.66533 0.0
H670 H 0.71 0.49304 0.69215 0.0
H671 H 0.76152 0.50488 0.63763 0.0
C672 C 0.963 0.10614 0.59281 0.0
C673 C 1.023 0.13049 0.47253 0.0
C674 C 0.96914 0.91731 0.50111 0.0
Mg675 Mg 0.06043 0.12998 0.5612 0.0
O676 O 1.0264 0.05492 0.56419 0.0
Mg677 Mg 0.96244 0.01777 0.5332 0.0
Mg678 Mg 0.05585 0.01118 0.55293 0.0
O679 O 0.0852 0.96573 0.5431 0.0
Mg680 Mg 0.04677 0.89251 0.55862 0.0
Mg681 Mg 0.14721 0.00257 0.57841 0.0
C682 C 0.14041 0.10263 0.60859 0.0
C683 C 0.14764 0.08333 0.49941 0.0
O684 O 0.93979 0.06724 0.56931 0.0
O685 O 1.00907 0.13565 0.59372 0.0
O686 O 0.98949 0.08349 0.48184 0.0
O687 O 0.05679 0.15823 0.49841 0.0
O688 O 0.12611 0.13778 0.5964 0.0
O689 O 0.11727 0.05461 0.59825 0.0
C690 C 0.96642 0.93917 0.60937 0.0
O691 O 1.01028 0.95293 0.60298 0.0
O692 O 0.94066 0.95667 0.58611 0.0
O693 O 0.16744 0.94345 0.55262 0.0
O694 O 0.09645 0.86957 0.5404 0.0
O695 O 0.11767 0.94779 0.63616 0.0
C696 C 0.14271 0.89641 0.53931 0.0
O697 O 0.04414 0.87978 0.62353 0.0
O698 O 0.98251 0.88331 0.51939 0.0
C699 C 0.07898 0.90774 0.64832 0.0
O700 O 0.99288 0.96765 0.50644 0.0
O701 O 0.10385 0.07173 0.5049 0.0
O702 O 0.17066 0.06095 0.52159 0.0
C703 C 0.37321 0.10704 0.0541 0.0
C704 C 0.44132 0.15387 0.94322 0.0
C705 C 0.45363 0.95741 0.99402 0.0
Mg706 Mg 0.48206 0.16653 0.03563 0.0
O707 O 0.47395 0.09762 0.03417 0.0
Mg708 Mg 0.41397 0.03932 0.00817 0.0
Mg709 Mg 0.52202 0.07155 0.03202 0.0
O710 O 0.56664 0.04098 0.03159 0.0
Mg711 Mg 0.54413 0.96955 0.05588 0.0
Mg712 Mg 0.6219 0.09522 0.06313 0.0
C713 C 0.58464 0.1838 0.0814 0.0
C714 C 0.61381 0.14914 0.97176 0.0
O715 O 0.36756 0.06925 0.03319 0.0
O716 O 0.41512 0.14654 0.06238 0.0
O717 O 0.42139 0.1022 0.94953 0.0
O718 O 0.46859 0.18475 0.97133 0.0
O719 O 0.55399 0.20225 0.07156 0.0
O720 O 0.57666 0.13872 0.06954 0.0
C721 C 0.43821 0.9835 0.09727 0.0
O722 O 0.48371 0.0135 0.09163 0.0
O723 O 0.40608 0.98453 0.06938 0.0
O724 O 0.66098 0.04333 0.05047 0.0
O725 O 0.60159 0.96199 0.03512 0.0
O726 O 0.58747 0.04849 0.12158 0.0
C727 C 0.64655 0.99642 0.03774 0.0
O728 O 0.56063 0.96289 0.12229 0.0
O729 O 0.47548 0.93572 0.01895 0.0
C730 C 0.58744 0.00656 0.13904 0.0
O731 O 0.46643 0.00773 0.99182 0.0
O732 O 0.56715 0.12923 0.97424 0.0
O733 O 0.64067 0.14049 1.00131 0.0
C734 C 0.91491 0.65357 0.12026 0.0
C735 C 0.93309 0.66545 0.98261 0.0
C736 C 0.94573 0.45562 0.01353 0.0
Mg737 Mg 1.00543 0.6782 0.06766 0.0
O738 O 0.99006 0.606 0.05952 0.0
Mg739 Mg 0.91746 0.55825 0.05135 0.0
Mg740 Mg 1.02821 0.55982 0.05749 0.0
O741 O 0.06643 0.51347 0.06193 0.0
Mg742 Mg 0.04405 0.4385 0.06895 0.0
Mg743 Mg 0.13754 0.56006 0.08084 0.0
C744 C 0.10446 0.65709 0.10625 0.0
C745 C 0.12049 0.62622 0.99014 0.0
O746 O 0.89254 0.61115 0.0984 0.0
O747 O 0.96063 0.68304 0.11579 0.0
O748 O 0.91269 0.61475 0.99296 0.0
O749 O 0.97069 0.6978 1.00488 0.0
O750 O 0.07704 0.68068 0.09764 0.0
O751 O 0.09394 0.61098 0.09485 0.0
C752 C 0.94772 0.49636 0.12885 0.0
O753 O 0.99042 0.51082 0.11812 0.0
O754 O 0.9184 0.50953 0.10715 0.0
O755 O 0.15998 0.50948 0.04666 0.0
O756 O 0.09077 0.43822 0.02663 0.0
O757 O 0.14794 0.49287 0.13868 0.0
C758 C 0.13692 0.4673 0.02661 0.0
O759 O 0.08782 0.41217 0.12558 0.0
O760 O 0.97381 0.43444 0.02994 0.0
C761 C 0.12935 0.4406 0.14594 0.0
O762 O 0.95562 0.50463 0.02041 0.0
O763 O 0.0747 0.61065 0.99477 0.0
O764 O 0.14565 0.61337 0.01878 0.0
C765 C 0.43326 0.59847 0.03913 0.0
C766 C 0.48655 0.59156 0.94113 0.0
C767 C 0.48353 0.41245 0.99341 0.0
Mg768 Mg 0.53596 0.62735 0.01893 0.0
O769 O 0.5119 0.55529 0.04382 0.0
Mg770 Mg 0.45484 0.50094 0.01119 0.0
Mg771 Mg 0.55362 0.52148 0.0402 0.0
O772 O 0.59451 0.48795 0.03321 0.0
Mg773 Mg 0.57165 0.415 0.05041 0.0
Mg774 Mg 0.65709 0.54268 0.05705 0.0
C775 C 0.62901 0.63665 0.07627 0.0
C776 C 0.62864 0.5948 0.97361 0.0
O777 O 0.41801 0.55102 0.02776 0.0
O778 O 0.47788 0.63424 0.03952 0.0
O779 O 0.48978 0.5499 0.95387 0.0
O780 O 0.52225 0.63491 0.95245 0.0
O781 O 0.60613 0.65926 0.05398 0.0
O782 O 0.61506 0.58603 0.07733 0.0
C783 C 0.46835 0.44534 0.09882 0.0
O784 O 0.5143 0.46613 0.0951 0.0
O785 O 0.43889 0.45373 0.07188 0.0
O786 O 0.68911 0.49275 0.03018 0.0
O787 O 0.62993 0.40769 0.03062 0.0
O788 O 0.64363 0.49519 0.11909 0.0
C789 C 0.67233 0.44366 0.02165 0.0
O790 O 0.57531 0.41722 0.11578 0.0
O791 O 0.50599 0.38561 0.0079 0.0
C792 C 0.61003 0.4536 0.13637 0.0
O793 O 0.49704 0.45913 1.0037 0.0
O794 O 0.58548 0.57417 0.98425 0.0
O795 O 0.66238 0.58838 0.9955 0.0
C796 C 0.94425 0.57784 0.54624 0.0
C797 C 1.01518 0.57817 0.44174 0.0
C798 C 1.00261 0.39185 0.49189 0.0
Mg799 Mg 0.04852 0.60318 0.52982 0.0
O800 O 1.02371 0.53095 0.54924 0.0
Mg801 Mg 0.96489 0.47997 0.5184 0.0
Mg802 Mg 0.06621 0.49716 0.54895 0.0
O803 O 0.11204 0.46703 0.54843 0.0
Mg804 Mg 0.09921 0.39661 0.54699 0.0
Mg805 Mg 0.17285 0.52134 0.57699 0.0
C806 C 0.13641 0.60726 0.59168 0.0
C807 C 0.15539 0.58238 0.4873 0.0
O808 O 0.92888 0.53012 0.53535 0.0
O809 O 0.98925 0.61265 0.54711 0.0
O810 O 0.98474 0.53287 0.45749 0.0
O811 O 0.04933 0.6122 0.46411 0.0
O812 O 0.11475 0.63077 0.56895 0.0
O813 O 0.12268 0.55687 0.59199 0.0
C814 C 0.97409 0.42217 0.60984 0.0
O815 O 1.02027 0.44076 0.60642 0.0
O816 O 0.94731 0.43071 0.58025 0.0
O817 O 0.21612 0.48617 0.55463 0.0
O818 O 0.16656 0.40963 0.52512 0.0
O819 O 0.16321 0.45555 0.63499 0.0
C820 C 0.20921 0.44641 0.53558 0.0
O821 O 0.1121 0.37481 0.61176 0.0
O822 O 1.03143 0.3712 0.50404 0.0
C823 C 0.14234 0.40363 0.63991 0.0
O824 O 1.00918 0.43521 0.50641 0.0
O825 O 0.10919 0.55542 0.49123 0.0
O826 O 0.18533 0.57842 0.51626 0.0
C827 C 0.47565 0.11623 0.55712 0.0
C828 C 0.4697 0.12514 0.43855 0.0
C829 C 0.48585 0.90849 0.48937 0.0
Mg830 Mg 0.56129 0.13185 0.51036 0.0
O831 O 0.53648 0.05747 0.52413 0.0
Mg832 Mg 0.46442 0.01332 0.50742 0.0
Mg833 Mg 0.57237 0.00915 0.5258 0.0
O834 O 0.60701 0.96051 0.52044 0.0
Mg835 Mg 0.58754 0.88677 0.51413 0.0
Mg836 Mg 0.67944 0.00448 0.5305 0.0
C837 C 0.65707 0.11246 0.56783 0.0
C838 C 0.65405 0.07137 0.45526 0.0
O839 O 0.44807 0.07162 0.54062 0.0
O840 O 0.52145 0.14193 0.55341 0.0
O841 O 0.45158 0.07351 0.44743 0.0
O842 O 0.51253 0.15474 0.45637 0.0
O843 O 0.63061 0.1347 0.54947 0.0
O844 O 0.6458 0.06214 0.5633 0.0
C845 C 0.48184 0.94547 0.59533 0.0
O846 O 0.52636 0.95735 0.5889 0.0
O847 O 0.45775 0.96199 0.56864 0.0
O848 O 0.701 0.94952 0.48151 0.0
O849 O 0.63076 0.88043 0.46356 0.0
O850 O 0.68106 0.94661 0.58865 0.0
C851 C 0.67688 0.90802 0.4587 0.0
O852 O 0.62064 0.86498 0.57703 0.0
O853 O 0.51097 0.88189 0.49673 0.0
C854 C 0.65878 0.89615 0.5994 0.0
O855 O 0.50427 0.95961 0.48992 0.0
O856 O 0.6116 0.05963 0.46541 0.0
O857 O 0.68073 0.05417 0.4764 0.0
C858 C 0.21377 0.13836 0.40335 0.0
C859 C 0.21547 0.18901 0.3951 0.0
C860 C 0.19236 0.10503 0.43761 0.0
C861 C 0.17127 0.12069 0.46471 0.0
H862 H 0.22952 0.12416 0.38336 0.0
H863 H 0.19157 0.06628 0.44254 0.0
S864 S 0.16899 0.25028 0.45942 0.0
N865 N 0.19636 0.25428 0.41828 0.0
N866 N 0.15559 0.19081 0.48322 0.0
C867 C 0.17326 0.17137 0.45762 0.0
C868 C 0.19566 0.20585 0.42271 0.0
C869 C 0.98921 0.13414 0.36309 0.0
C870 C 0.94565 0.13588 0.36568 0.0
C871 C 1.02234 0.14299 0.39765 0.0
C872 C 1.01301 0.15592 0.43428 0.0
H873 H 0.99583 0.12192 0.33565 0.0
H874 H 0.05195 0.13355 0.39723 0.0
S875 S 0.91125 0.18053 0.45148 0.0
N876 N 0.89963 0.16161 0.40405 0.0
N877 N 0.96385 0.18215 0.46803 0.0
C878 C 0.97446 0.16782 0.43412 0.0
C879 C 0.93977 0.15637 0.39992 0.0
C880 C 0.86902 0.83023 0.42772 0.0
C881 C 0.89028 0.84808 0.38966 0.0
C882 C 0.89307 0.85564 0.46366 0.0
C883 C 0.93901 0.90037 0.46278 0.0
H884 H 0.83403 0.79552 0.43038 0.0
H885 H 0.87642 0.83907 0.49257 0.0
S886 S 1.01556 0.95672 0.37442 0.0
N887 N 0.96399 0.90857 0.35568 0.0
N888 N 1.00769 0.9582 0.42285 0.0
C889 C 0.96133 0.91829 0.42554 0.0
C890 C 0.9375 0.89153 0.38913 0.0
C891 C 0.13696 0.80949 0.46245 0.0
C892 C 0.16148 0.84826 0.43126 0.0
C893 C 0.13879 0.8242 0.50195 0.0
C894 C 0.16403 0.87836 0.51092 0.0
H895 H 0.11296 0.76848 0.45534 0.0
H896 H 0.1151 0.79412 0.52377 0.0
S897 S 0.24497 0.99221 0.44268 0.0
N898 N 0.22029 0.94051 0.41409 0.0
N899 N 0.22332 0.96849 0.4883 0.0
C900 C 0.19505 0.91579 0.48195 0.0
C901 C 0.19341 0.9007 0.44176 0.0
C902 C 0.11931 0.87461 0.75085 0.0
C903 C 0.13135 0.92322 0.76779 0.0
C904 C 0.09316 0.86258 0.7126 0.0
C905 C 0.07525 0.89642 0.69257 0.0
H906 H 0.13738 0.85119 0.76213 0.0
H907 H 0.09345 0.83196 0.69623 0.0
S908 S 0.06286 1.00002 0.73999 0.0
N909 N 0.09825 0.98384 0.77386 0.0
N910 N 0.05009 0.96289 0.70096 0.0
C911 C 0.07349 0.93381 0.71535 0.0
C912 C 0.10022 0.94577 0.75427 0.0
C913 C 0.17814 0.13338 0.71718 0.0
C914 C 0.22885 0.15763 0.71757 0.0
C915 C 0.1494 0.11114 0.68203 0.0
C916 C 0.17062 0.1119 0.64672 0.0
H917 H 0.16064 0.13709 0.74196 0.0
H918 H 0.11063 0.09759 0.68117 0.0
S919 S 0.30018 0.15746 0.63578 0.0
N920 N 0.29864 0.17218 0.68254 0.0
N921 N 0.24335 0.12907 0.61592 0.0
C922 C 0.22048 0.12984 0.64812 0.0
C923 C 0.25005 0.15305 0.68393 0.0
C924 C 0.94266 0.10167 0.70388 0.0
C925 C 0.89455 0.09273 0.70248 0.0
C926 C 0.96475 0.10856 0.66777 0.0
C927 C 0.93942 0.10605 0.62882 0.0
H928 H 0.96369 0.10424 0.7331 0.0
H929 H 1.0017 0.11426 0.67055 0.0
S930 S 0.81246 0.08329 0.60838 0.0
N931 N 0.82195 0.082 0.65908 0.0
N932 N 0.8637 0.09374 0.59086 0.0
C933 C 0.89121 0.09688 0.62683 0.0
C934 C 0.86877 0.09068 0.66376 0.0
C935 C 0.92054 0.92376 0.71216 0.0
C936 C 0.91297 0.87228 0.72743 0.0
C937 C 0.93872 0.94497 0.67392 0.0
C938 C 0.94956 0.91534 0.64969 0.0
H939 H 0.90866 0.94619 0.72789 0.0
H940 H 0.9427 0.98417 0.66254 0.0
S941 S 0.94236 0.78208 0.67752 0.0
N942 N 0.92592 0.79621 0.7183 0.0
N943 N 0.9536 0.83366 0.64359 0.0
C944 C 0.94535 0.86563 0.66542 0.0
C945 C 0.92929 0.84504 0.70539 0.0
C946 C 0.29864 0.11748 0.13053 0.0
C947 C 0.25069 0.07883 0.11921 0.0
C948 C 0.33737 0.12888 0.1076 0.0
C949 C 0.33035 0.10091 0.07309 0.0
H950 H 0.30725 0.13755 0.15862 0.0
H951 H 0.37351 0.15751 0.11866 0.0
S952 S 0.21187 0.99894 0.0283 0.0
N953 N 0.19789 0.01636 0.0688 0.0
N954 N 0.27139 0.03482 0.02703 0.0
C955 C 0.2825 0.06341 0.06045 0.0
C956 C 0.24264 0.05293 0.08327 0.0
C957 C 0.85137 0.38467 0.18857 0.0
C958 C 0.86796 0.39517 0.22964 0.0
C959 C 0.8803 0.41515 0.15665 0.0
C960 C 0.92662 0.45851 0.1643 0.0
H961 H 0.81555 0.35323 0.18063 0.0
H962 H 0.86537 0.40595 0.12531 0.0
S963 S 0.98449 0.50675 0.26658 0.0
N964 N 0.93218 0.45381 0.27676 0.0
N965 N 0.98655 0.51291 0.21599 0.0
C966 C 0.94351 0.47048 0.20526 0.0
C967 C 0.91393 0.43867 0.23811 0.0
C968 C 0.72219 0.05846 0.15946 0.0
C969 C 0.72545 0.02002 0.18888 0.0
C970 C 0.67734 0.05573 0.14592 0.0
C971 C 0.63389 0.01353 0.16026 0.0
H972 H 0.75385 0.08872 0.14451 0.0
H973 H 0.67685 0.085 0.12182 0.0
S974 S 0.62376 0.91136 0.24513 0.0
N975 N 0.68261 0.94588 0.23902 0.0
N976 N 0.59725 0.93825 0.21035 0.0
C977 C 0.63677 0.9777 0.19226 0.0
C978 C 0.68286 0.98167 0.2074 0.0
C979 C 0.21952 0.69013 0.17272 0.0
C980 C 0.20616 0.69647 0.21001 0.0
C981 C 0.18657 0.67853 0.13806 0.0
C982 C 0.14074 0.67507 0.14023 0.0
H983 H 0.25618 0.69706 0.16984 0.0
H984 H 0.19716 0.67346 0.10939 0.0
S985 S 0.08804 0.68262 0.23273 0.0
N986 N 0.14389 0.6938 0.24865 0.0
N987 N 0.08186 0.67304 0.18329 0.0
C988 C 0.1266 0.67907 0.17798 0.0
C989 C 0.1595 0.68943 0.21313 0.0
C990 C 0.40707 0.92523 0.88502 0.0
C991 C 0.38547 0.8691 0.8877 0.0
C992 C 0.42537 0.95343 0.92026 0.0
C993 C 0.42351 0.92653 0.95943 0.0
H994 H 0.40944 0.94764 0.85545 0.0
H995 H 0.44305 0.99676 0.91646 0.0
S996 S 0.36903 0.77975 0.9834 0.0
N997 N 0.36206 0.78739 0.9328 0.0
N998 N 0.39681 0.84078 0.99925 0.0
C999 C 0.40138 0.87039 0.96269 0.0
C1000 C 0.38271 0.84159 0.92675 0.0
C1001 C 0.16143 0.38161 0.96352 0.0
C1002 C 0.20979 0.39371 0.97651 0.0
C1003 C 0.1392 0.40814 0.97793 0.0
C1004 C 0.16429 0.44768 1.00614 0.0
H1005 H 0.13953 0.34931 0.9438 0.0
H1006 H 0.1013 0.39579 0.96819 0.0
S1007 S 0.29343 0.49866 0.04569 0.0
N1008 N 0.28383 0.45193 0.01546 0.0
N1009 N 0.24154 0.50076 0.04389 0.0
C1010 C 0.21358 0.46247 0.01748 0.0
C1011 C 0.23639 0.43566 1.00243 0.0
C1012 C 0.65124 0.20387 0.86065 0.0
C1013 C 0.7012 0.24046 0.86744 0.0
C1014 C 0.62148 0.17577 0.89396 0.0
C1015 C 0.64035 0.18422 0.93533 0.0
H1016 H 0.63531 0.19617 0.82942 0.0
H1017 H 0.58423 0.14601 0.88728 0.0
S1018 S 0.76481 0.28584 0.96922 0.0
N1019 N 0.76449 0.29 0.91867 0.0
N1020 N 0.71022 0.23865 0.98019 0.0
C1021 C 0.68897 0.22404 0.94194 0.0
C1022 C 0.7187 0.25206 0.9084 0.0
C1023 C 0.90134 0.7387 0.88197 0.0
C1024 C 0.84989 0.71695 0.88056 0.0
C1025 C 0.92875 0.72401 0.91492 0.0
C1026 C 0.90618 0.68582 0.94792 0.0
H1027 H 0.92059 0.76653 0.857 0.0
H1028 H 0.96775 0.74164 0.91382 0.0
S1029 S 0.77363 0.62191 0.9615 0.0
N1030 N 0.77899 0.65761 0.91711 0.0
N1031 N 0.82886 0.6311 0.97773 0.0
C1032 C 0.85508 0.66513 0.94691 0.0
C1033 C 0.8276 0.67994 0.91372 0.0
C1034 C 0.23228 0.39226 0.19117 0.0
C1035 C 0.21651 0.35725 0.22802 0.0
C1036 C 0.20527 0.41777 0.16624 0.0
C1037 C 0.15898 0.41218 0.17499 0.0
H1038 H 0.26744 0.40165 0.18157 0.0
H1039 H 0.22166 0.44298 0.13922 0.0
S1040 S 0.10091 0.33173 0.27015 0.0
N1041 N 0.15105 0.32551 0.27317 0.0
N1042 N 0.10087 0.36822 0.2269 0.0
C1043 C 0.14293 0.37785 0.21194 0.0
C1044 C 0.17111 0.35299 0.23788 0.0
C1045 C 0.2293 0.72529 0.92596 0.0
C1046 C 0.21485 0.71444 0.88409 0.0
C1047 C 0.19765 0.69944 0.95837 0.0
C1048 C 0.14845 0.66005 0.95203 0.0
H1049 H 0.2665 0.75376 0.93419 0.0
H1050 H 0.21281 0.70949 0.98948 0.0
S1051 S 0.09083 0.6126 0.84871 0.0
N1052 N 0.14655 0.65846 0.83868 0.0
N1053 N 0.0874 0.61086 0.8988 0.0
C1054 C 0.13275 0.64898 0.9101 0.0
C1055 C 0.16552 0.67546 0.87673 0.0
C1056 C 0.43023 0.26438 0.87202 0.0
C1057 C 0.38683 0.2376 0.84748 0.0
C1058 C 0.44926 0.23682 0.90045 0.0
C1059 C 0.42626 0.18039 0.9057 0.0
H1060 H 0.44934 0.30748 0.87005 0.0
H1061 H 0.48162 0.26046 0.91957 0.0
S1062 S 0.31738 0.09044 0.84263 0.0
N1063 N 0.32565 0.15099 0.82526 0.0
N1064 N 0.36079 0.09858 0.87938 0.0
C1065 C 0.38493 0.15275 0.87885 0.0
C1066 C 0.36538 0.1813 0.84968 0.0
C1067 C 0.88169 0.3504 0.93306 0.0
C1068 C 0.8656 0.37542 0.89941 0.0
C1069 C 0.90376 0.37509 0.97024 0.0
C1070 C 0.91198 0.4272 0.97661 0.0
H1071 H 0.87712 0.31083 0.93093 0.0
H1072 H 0.91579 0.35309 0.99401 0.0
S1073 S 0.87287 0.5099 0.90031 0.0
N1074 N 0.8563 0.45509 0.87681 0.0
N1075 N 0.89863 0.50169 0.94581 0.0
C1076 C 0.89438 0.45226 0.94391 0.0
C1077 C 0.87133 0.42666 0.90582 0.0
C1078 C 0.76391 0.00933 1.00288 0.0
C1079 C 0.74785 0.96253 0.98216 0.0
C1080 C 0.73167 0.01873 0.02273 0.0
C1081 C 0.68166 0.98259 0.02172 0.0
H1082 H 0.80168 0.03951 1.00332 0.0
H1083 H 0.74606 0.05512 0.03838 0.0
S1084 S 0.62243 0.84982 0.97711 0.0
N1085 N 0.6798 0.87639 0.96673 0.0
N1086 N 0.61882 0.89474 1.00178 0.0
C1087 C 0.66561 0.93434 1.00271 0.0
C1088 C 0.69863 0.9244 0.98325 0.0
C1089 C 0.89603 0.7288 0.20917 0.0
C1090 C 0.8449 0.70858 0.212 0.0
C1091 C 0.91705 0.71192 0.18008 0.0
C1092 C 0.88962 0.67099 0.15173 0.0
H1093 H 0.92082 0.75808 0.23026 0.0
H1094 H 0.9563 0.73108 0.18064 0.0
S1095 S 0.75436 0.59711 0.14871 0.0
N1096 N 0.76808 0.63905 0.18454 0.0
N1097 N 0.80631 0.60889 0.13205 0.0
C1098 C 0.83866 0.64885 0.15544 0.0
C1099 C 0.81723 0.6664 0.18474 0.0
C1100 C 0.433 0.92651 0.21201 0.0
C1101 C 0.38668 0.88091 0.21345 0.0
C1102 C 0.44985 0.95885 0.17484 0.0
C1103 C 0.42141 0.94729 0.13682 0.0
H1104 H 0.4564 0.93773 0.2401 0.0
H1105 H 0.48527 0.99373 0.17611 0.0
S1106 S 0.30107 0.82731 0.12184 0.0
N1107 N 0.31572 0.82267 0.1717 0.0
N1108 N 0.34597 0.88298 0.10314 0.0
C1109 C 0.37576 0.90068 0.13773 0.0
C1110 C 0.35891 0.86773 0.17542 0.0
C1111 C 0.69263 0.20686 0.15713 0.0
C1112 C 0.70557 0.25578 0.17288 0.0
C1113 C 0.65563 0.18626 0.12622 0.0
C1114 C 0.62852 0.2126 0.10966 0.0
H1115 H 0.70839 0.18167 0.17089 0.0
H1116 H 0.64662 0.14749 0.11733 0.0
S1117 S 0.64893 0.34407 0.1391 0.0
N1118 N 0.68975 0.33201 0.16884 0.0
N1119 N 0.61889 0.2926 0.1104 0.0
C1120 C 0.64175 0.26272 0.12423 0.0
C1121 C 0.68026 0.28421 0.156 0.0
C1122 C 0.65715 0.69907 0.88553 0.0
C1123 C 0.67543 0.67926 0.85866 0.0
C1124 C 0.6386 0.66981 0.92228 0.0
C1125 C 0.63827 0.62046 0.93266 0.0
H1126 H 0.66085 0.73909 0.87971 0.0
H1127 H 0.62779 0.68738 0.94383 0.0
S1128 S 0.67513 0.54757 0.87126 0.0
N1129 N 0.6877 0.60484 0.84427 0.0
N1130 N 0.65075 0.54932 0.91235 0.0
C1131 C 0.65183 0.59795 0.90469 0.0
C1132 C 0.67087 0.62755 0.86764 0.0
C1133 C 0.34919 0.52595 0.93598 0.0
C1134 C 0.33995 0.56956 0.93446 0.0
C1135 C 0.3968 0.53385 0.93803 0.0
C1136 C 0.43697 0.58567 0.93932 0.0
H1137 H 0.31949 0.48614 0.93174 0.0
H1138 H 0.40198 0.49896 0.93742 0.0
S1139 S 0.43091 0.71296 0.93486 0.0
N1140 N 0.3736 0.66608 0.93369 0.0
N1141 N 0.46365 0.68107 0.93861 0.0
C1142 C 0.42799 0.62948 0.93914 0.0
C1143 C 0.37938 0.6213 0.93708 0.0
C1144 C 0.37635 0.38555 0.91743 0.0
C1145 C 0.39534 0.38816 0.87998 0.0
C1146 C 0.40437 0.39094 0.95483 0.0
C1147 C 0.45195 0.39842 0.95579 0.0
H1148 H 0.33864 0.37616 0.91799 0.0
H1149 H 0.38868 0.38865 0.98308 0.0
S1150 S 0.52277 0.42229 0.86632 0.0
N1151 N 0.46756 0.40869 0.84609 0.0
N1152 N 0.52018 0.41871 0.91659 0.0
C1153 C 0.47279 0.40604 0.91859 0.0
C1154 C 0.44457 0.40142 0.8805 0.0
C1155 C 0.72429 0.46201 0.92069 0.0
C1156 C 0.69566 0.41066 0.90664 0.0
C1157 C 0.72367 0.47166 0.96161 0.0
C1158 C 0.69398 0.43047 0.98944 0.0
H1159 H 0.74332 0.49571 0.89907 0.0
H1160 H 0.74203 0.51244 0.96996 0.0
S1161 S 0.62401 0.28637 0.97013 0.0
N1162 N 0.6454 0.31649 0.92541 0.0
N1163 N 0.64568 0.33398 1.0024 0.0
C1164 C 0.67218 0.3776 0.97728 0.0
C1165 C 0.67221 0.36794 0.93565 0.0
C1166 C 0.65179 0.49175 0.24571 0.0
C1167 C 0.62722 0.4431 0.26851 0.0
C1168 C 0.64353 0.49531 0.20297 0.0
C1169 C 0.61142 0.44994 0.18162 0.0
H1170 H 0.68099 0.52574 0.26048 0.0
H1171 H 0.66435 0.5335 0.18655 0.0
S1172 S 0.53626 0.31394 0.22852 0.0
N1173 N 0.5669 0.34985 0.26788 0.0
N1174 N 0.55225 0.35582 0.18716 0.0
C1175 C 0.58378 0.40204 0.20452 0.0
C1176 C 0.59141 0.39889 0.24814 0.0
C1177 C 0.73213 0.72055 0.15042 0.0
C1178 C 0.70727 0.72359 0.18226 0.0
C1179 C 0.70697 0.69102 0.11636 0.0
C1180 C 0.65621 0.66443 0.11288 0.0
H1181 H 0.77141 0.73989 0.15221 0.0
H1182 H 0.72721 0.68926 0.09265 0.0
S1183 S 0.57385 0.66644 0.18379 0.0
N1184 N 0.629 0.70202 0.20548 0.0
N1185 N 0.58152 0.64638 0.14144 0.0
C1186 C 0.63083 0.66886 0.14342 0.0
C1187 C 0.6564 0.69866 0.17809 0.0
C1188 C 0.38257 0.68104 0.0717 0.0
C1189 C 0.38066 0.66612 0.11418 0.0
C1190 C 0.39417 0.65451 0.0454 0.0
C1191 C 0.40141 0.61037 0.06014 0.0
H1192 H 0.3803 0.71693 0.0595 0.0
H1193 H 0.40196 0.67174 0.01448 0.0
S1194 S 0.3877 0.54601 0.16604 0.0
N1195 N 0.37891 0.59831 0.1683 0.0
N1196 N 0.39698 0.54641 0.11757 0.0
C1197 C 0.39215 0.58993 0.10094 0.0
C1198 C 0.38219 0.61804 0.1283 0.0
C1199 C 0.39848 0.40867 0.19068 0.0
C1200 C 0.38989 0.35588 0.20251 0.0
C1201 C 0.42791 0.43859 0.15917 0.0
C1202 C 0.44834 0.41644 0.13712 0.0
H1203 H 0.38134 0.427 0.20501 0.0
H1204 H 0.43298 0.47874 0.15059 0.0
S1205 S 0.43521 0.27948 0.15303 0.0
N1206 N 0.40523 0.28285 0.18962 0.0
N1207 N 0.4573 0.33869 0.12704 0.0
C1208 C 0.44052 0.36401 0.14802 0.0
C1209 C 0.41172 0.33367 0.18142 0.0
C1210 C 0.89487 0.61971 0.62609 0.0
C1211 C 0.84441 0.59435 0.6156 0.0
C1212 C 0.92731 0.6179 0.60137 0.0
C1213 C 0.91062 0.58987 0.56551 0.0
H1214 H 0.90938 0.63838 0.65491 0.0
H1215 H 0.96542 0.63525 0.61218 0.0
S1216 S 0.78348 0.52512 0.52015 0.0
N1217 N 0.78029 0.54739 0.56323 0.0
N1218 N 0.84141 0.54215 0.51778 0.0
C1219 C 0.86086 0.5677 0.55296 0.0
C1220 C 0.82775 0.57023 0.57781 0.0
C1221 C 0.36988 0.84925 0.65573 0.0
C1222 C 0.38347 0.8585 0.69787 0.0
C1223 C 0.40314 0.87371 0.62448 0.0
C1224 C 0.45299 0.91037 0.63238 0.0
H1225 H 0.33211 0.82364 0.64635 0.0
H1226 H 0.38873 0.8655 0.59295 0.0
S1227 S 0.50923 0.95096 0.73738 0.0
N1228 N 0.45195 0.90846 0.74562 0.0
N1229 N 0.51399 0.95417 0.68736 0.0
C1230 C 0.46787 0.91928 0.67466 0.0
C1231 C 0.43354 0.8939 0.70693 0.0
C1232 C 0.22438 0.37837 0.72974 0.0
C1233 C 0.21026 0.32337 0.72883 0.0
C1234 C 0.20075 0.40381 0.70289 0.0
C1235 C 0.161 0.37525 0.67454 0.0
H1236 H 0.25449 0.4022 0.75075 0.0
H1237 H 0.21495 0.44662 0.70345 0.0
S1238 S 0.10567 0.22823 0.66465 0.0
N1239 N 0.15113 0.24048 0.70005 0.0
N1240 N 0.1064 0.28639 0.65125 0.0
C1241 C 0.14479 0.31933 0.67577 0.0
C1242 C 0.16918 0.29402 0.70251 0.0
C1243 C 0.72195 0.22416 0.64335 0.0
C1244 C 0.72103 0.19728 0.68272 0.0
C1245 C 0.70529 0.19695 0.60657 0.0
C1246 C 0.68701 0.14084 0.60622 0.0
H1247 H 0.7352 0.26695 0.64064 0.0
H1248 H 0.70518 0.22028 0.5779 0.0
S1249 S 0.68059 0.05074 0.70017 0.0
N1250 N 0.70306 0.11029 0.71815 0.0
N1251 N 0.67208 0.05993 0.64974 0.0
C1252 C 0.68812 0.11361 0.64514 0.0
C1253 C 0.70487 0.14139 0.68286 0.0
C1254 C 0.93144 0.30738 0.40061 0.0
C1255 C 0.89802 0.32657 0.38609 0.0
C1256 C 0.96377 0.32722 0.43562 0.0
C1257 C 0.96379 0.36682 0.45783 0.0
H1258 H 0.93263 0.27681 0.38489 0.0
H1259 H 0.98943 0.31183 0.44487 0.0
S1260 S 0.88359 0.43098 0.43113 0.0
N1261 N 0.87005 0.39085 0.39429 0.0
N1262 N 0.92486 0.42186 0.46228 0.0
C1263 C 0.92975 0.38528 0.4435 0.0
C1264 C 0.89861 0.367 0.40708 0.0
C1265 C 0.77229 0.89091 0.39342 0.0
C1266 C 0.74456 0.8533 0.36266 0.0
C1267 C 0.75183 0.90786 0.42321 0.0
C1268 C 0.70081 0.89002 0.42557 0.0
H1269 H 0.81151 0.9087 0.39432 0.0
H1270 H 0.7771 0.93613 0.44475 0.0
S1271 S 0.60946 0.79787 0.34904 0.0
N1272 N 0.66107 0.80446 0.33525 0.0
N1273 N 0.62366 0.83338 0.38937 0.0
C1274 C 0.6727 0.85347 0.39416 0.0
C1275 C 0.69372 0.83662 0.36368 0.0
C1276 C 0.23804 0.70592 0.41871 0.0
C1277 C 0.22112 0.69312 0.3776 0.0
C1278 C 0.21772 0.66974 0.45316 0.0
C1279 C 0.17592 0.61977 0.44909 0.0
H1280 H 0.26567 0.74565 0.4248 0.0
H1281 H 0.23368 0.68239 0.48363 0.0
S1282 S 0.10893 0.56984 0.34903 0.0
N1283 N 0.15507 0.62806 0.33566 0.0
N1284 N 0.11503 0.56161 0.39978 0.0
C1285 C 0.15609 0.60742 0.40832 0.0
C1286 C 0.17843 0.64369 0.37304 0.0
C1287 C 0.35955 0.15995 0.39208 0.0
C1288 C 0.37672 0.20164 0.35932 0.0
C1289 C 0.38838 0.1364 0.41621 0.0
C1290 C 0.43812 0.15125 0.4105 0.0
H1291 H 0.32203 0.14381 0.3989 0.0
H1292 H 0.37077 0.10544 0.44011 0.0
S1293 S 0.5018 0.25151 0.32582 0.0
N1294 N 0.44813 0.25023 0.32045 0.0
N1295 N 0.50113 0.21016 0.3659 0.0
C1296 C 0.45566 0.19212 0.37758 0.0
C1297 C 0.42583 0.21517 0.35225 0.0
C1298 C 0.67869 0.81298 0.69907 0.0
C1299 C 0.72988 0.83909 0.70861 0.0
C1300 C 0.65567 0.82956 0.66362 0.0
C1301 C 0.68224 0.87462 0.63643 0.0
H1302 H 0.65597 0.78015 0.71973 0.0
H1303 H 0.6165 0.80791 0.6584 0.0
S1304 S 0.81722 0.95619 0.64681 0.0
N1305 N 0.80556 0.91241 0.6871 0.0
N1306 N 0.76405 0.94268 0.62185 0.0
C1307 C 0.73338 0.90047 0.64585 0.0
C1308 C 0.75642 0.88348 0.68148 0.0
C1309 C 0.69255 0.12254 0.34771 0.0
C1310 C 0.73995 0.16417 0.35545 0.0
C1311 C 0.66186 0.09541 0.37989 0.0
C1312 C 0.6782 0.1089 0.42065 0.0
H1313 H 0.67933 0.11057 0.31671 0.0
H1314 H 0.62624 0.06238 0.37312 0.0
S1315 S 0.80346 0.20504 0.45774 0.0
N1316 N 0.80462 0.20953 0.40727 0.0
N1317 N 0.74711 0.16138 0.46742 0.0
C1318 C 0.72662 0.14843 0.42867 0.0
C1319 C 0.75777 0.1747 0.39624 0.0
C1320 C 0.92564 0.55989 0.35472 0.0
C1321 C 0.91237 0.59845 0.36298 0.0
C1322 C 0.96774 0.55924 0.37443 0.0
C1323 C 0.99765 0.5973 0.40265 0.0
H1324 H 0.90014 0.52596 0.33767 0.0
H1325 H 0.9725 0.52427 0.37264 0.0
S1326 S 0.98785 0.71663 0.42333 0.0
N1327 N 0.93925 0.6831 0.39274 0.0
N1328 N 1.01914 0.68303 0.42792 0.0
C1329 C 0.99062 0.64242 0.40347 0.0
C1330 C 0.94726 0.64251 0.38429 0.0
C1331 C 0.37323 0.88686 0.4247 0.0
C1332 C 0.35475 0.83281 0.41816 0.0
C1333 C 0.41335 0.91082 0.45227 0.0
C1334 C 0.43456 0.88069 0.4748 0.0
H1335 H 0.36166 0.91247 0.40451 0.0
H1336 H 0.43086 0.95399 0.45176 0.0
S1337 S 0.37971 0.7332 0.48652 0.0
N1338 N 0.34705 0.74634 0.44776 0.0
N1339 N 0.42148 0.79186 0.50185 0.0
C1340 C 0.40888 0.82493 0.47574 0.0
C1341 C 0.36873 0.80059 0.44681 0.0
C1342 C 0.28623 0.38551 0.51166 0.0
C1343 C 0.33261 0.43004 0.50988 0.0
C1344 C 0.2465 0.39119 0.52012 0.0
C1345 C 0.25223 0.4412 0.52842 0.0
H1346 H 0.27972 0.34755 0.50179 0.0
H1347 H 0.21093 0.35648 0.51893 0.0
S1348 S 0.36926 0.56635 0.53851 0.0
N1349 N 0.38414 0.52277 0.5242 0.0
N1350 N 0.30988 0.53371 0.54203 0.0
C1351 C 0.29971 0.48437 0.53194 0.0
C1352 C 0.33999 0.47852 0.52269 0.0
C1353 C 0.39616 0.17953 0.56954 0.0
C1354 C 0.42456 0.21757 0.59835 0.0
C1355 C 0.41073 0.14333 0.55871 0.0
C1356 C 0.45445 0.14424 0.57605 0.0
H1357 H 0.36282 0.17834 0.55471 0.0
H1358 H 0.38904 0.11665 0.53491 0.0
S1359 S 0.54086 0.23414 0.65421 0.0
N1360 N 0.49781 0.25262 0.64478 0.0
N1361 N 0.52454 0.18418 0.6251 0.0
C1362 C 0.48206 0.18052 0.60611 0.0
C1363 C 0.46735 0.21731 0.61706 0.0
C1364 C 0.87207 0.33925 0.68263 0.0
C1365 C 0.89572 0.34596 0.72247 0.0
C1366 C 0.898 0.36233 0.64704 0.0
C1367 C 0.94935 0.39277 0.64893 0.0
H1368 H 0.83293 0.31621 0.6787 0.0
H1369 H 0.87713 0.35663 0.61753 0.0
S1370 S 1.02945 0.41909 0.74579 0.0
N1371 N 0.97416 0.38286 0.76158 0.0
N1372 N 1.02276 0.42608 0.69502 0.0
C1373 C 0.9737 0.39803 0.68859 0.0
C1374 C 0.94706 0.37457 0.72503 0.0
C1375 C 0.21507 0.7242 0.65335 0.0
C1376 C 0.2054 0.70129 0.69363 0.0
C1377 C 0.19609 0.69225 0.6201 0.0
C1378 C 0.16707 0.63661 0.6263 0.0
H1379 H 0.23832 0.76675 0.64756 0.0
H1380 H 0.20285 0.7113 0.58922 0.0
S1381 S 0.12956 0.55817 0.72605 0.0
N1382 N 0.16398 0.62049 0.73817 0.0
N1383 N 0.12851 0.56014 0.67549 0.0
C1384 C 0.15748 0.61325 0.66652 0.0
C1385 C 0.17626 0.64581 0.70026 0.0
loop_
_geom_bond_atom_site_label_1
_geom_bond_atom_site_label_2
_geom_bond_distance
_geom_bond_site_symmetry_2
_ccdc_geom_bond_type
Gd0 N31 2.661 . S
Gd0 N37 2.601 . S
Gd0 O44 2.545 . S
Gd0 O45 2.606 . S
Gd0 O47 2.429 . S
Gd0 O48 2.545 . S
Gd0 O49 2.412 . S
Gd0 O51 2.362 . S
Gd0 O52 2.324 . S
Gd0 C59 2.828 . S
Gd1 N10 2.661 . S
Gd1 N14 2.601 . S
Gd1 O45 2.362 . S
Gd1 O46 2.324 . S
Gd1 O50 2.545 . S
Gd1 O51 2.606 . S
Gd1 O53 2.429 . S
Gd1 O54 2.545 . S
Gd1 O55 2.412 . S
Gd1 C68 2.828 . S
C2 C5 1.417 . S
C2 C7 1.431 . S
C2 C8 1.412 . S
C3 C6 1.437 . S
C3 C7 1.317 . S
C3 H22 0.929 . S
C4 C5 1.426 . S
C4 C6 1.413 . S
C4 N14 1.359 . S
C5 C2 1.417 . S
C5 C4 1.426 . S
C5 N10 1.350 . S
C6 C3 1.437 . S
C6 C4 1.413 . S
C6 C16 1.391 . S
C7 C2 1.431 . S
C7 C3 1.317 . S
C7 H18 0.930 . S
C8 C2 1.412 . S
C8 C9 1.355 . S
C8 H20 0.930 . S
C9 C8 1.355 . S
C9 C11 1.402 . S
C9 H21 0.930 . S
N10 Gd1 2.661 . S
N10 C5 1.350 . S
N10 C11 1.307 . S
C11 C9 1.402 . S
C11 N10 1.307 . S
C11 H12 0.930 . S
H12 C11 0.930 . S
C13 N14 1.334 . S
C13 C15 1.394 . S
C13 H17 0.930 . S
N14 Gd1 2.601 . S
N14 C4 1.359 . S
N14 C13 1.334 . S
C15 C13 1.394 . S
C15 C16 1.359 . S
C15 H27 0.930 . S
C16 C6 1.391 . S
C16 C15 1.359 . S
C16 H28 0.929 . S
H17 C13 0.930 . S
H18 C7 0.930 . S
H19 C36 0.930 . S
H20 C8 0.930 . S
H21 C9 0.930 . S
H22 C3 0.929 . S
H23 C41 0.930 . S
H24 C32 0.930 . S
H25 C33 0.930 . S
H26 C57 0.929 . S
H27 C15 0.930 . S
H28 C16 0.929 . S
H29 C58 0.930 . S
H30 C39 0.930 . S
N31 Gd0 2.661 . S
N31 C35 1.350 . S
N31 C36 1.307 . S
C32 H24 0.930 . S
C32 C33 1.355 . S
C32 C34 1.412 . S
C33 H25 0.930 . S
C33 C32 1.355 . S
C33 C36 1.402 . S
C34 C32 1.412 . S
C34 C35 1.417 . S
C34 C58 1.431 . S
C35 N31 1.350 . S
C35 C34 1.417 . S
C35 C38 1.426 . S
C36 H19 0.930 . S
C36 N31 1.307 . S
C36 C33 1.402 . S
N37 Gd0 2.601 . S
N37 C38 1.359 . S
N37 C41 1.334 . S
C38 C35 1.426 . S
C38 N37 1.359 . S
C38 C42 1.413 . S
C39 H30 0.930 . S
C39 C40 1.359 . S
C39 C41 1.394 . S
C40 C39 1.359 . S
C40 C42 1.391 . S
C40 H43 0.929 . S
C41 H23 0.930 . S
C41 N37 1.334 . S
C41 C39 1.394 . S
C42 C38 1.413 . S
C42 C40 1.391 . S
C42 C57 1.437 . S
H43 C40 0.929 . S
O44 Gd0 2.545 . S
O44 C59 1.258 . S
O45 Gd0 2.606 . S
O45 Gd1 2.362 . S
O45 C56 1.284 . S
O46 Gd1 2.324 . S
O46 C66 1.254 . S
O47 Gd0 2.429 . S
O47 C66 1.268 . S
O48 Gd0 2.545 . S
O48 C56 1.250 . S
O49 Gd0 2.412 . S
O49 C59 1.252 . S
O50 Gd1 2.545 . S
O50 C68 1.258 . S
O51 Gd0 2.362 . S
O51 Gd1 2.606 . S
O51 C67 1.284 . S
O52 Gd0 2.324 . S
O52 C75 1.254 . S
O53 Gd1 2.429 . S
O53 C75 1.268 . S
O54 Gd1 2.545 . S
O54 C67 1.250 . S
O55 Gd1 2.412 . S
O55 C68 1.252 . S
C56 O45 1.284 . S
C56 O48 1.250 . S
C57 H26 0.929 . S
C57 C42 1.437 . S
C57 C58 1.317 . S
C58 H29 0.930 . S
C58 C34 1.431 . S
C58 C57 1.317 . S
C59 Gd0 2.828 . S
C59 O44 1.258 . S
C59 O49 1.252 . S
C59 C60 1.497 . S
C60 C59 1.497 . S
C60 C61 1.395 . S
C60 C62 1.380 . S
C61 C60 1.395 . S
C61 C64 1.398 . S
C61 H76 0.930 . S
C62 C60 1.380 . S
C62 C63 1.391 . S
C62 H77 0.930 . S
C63 C62 1.391 . S
C63 C65 1.387 . S
C64 C61 1.398 . S
C64 C65 1.380 . S
C64 H78 0.930 . S
C65 C63 1.387 . S
C65 C64 1.380 . S
C65 H79 0.930 . S
C66 O46 1.254 . S
C66 O47 1.268 . S
C67 O51 1.284 . S
C67 O54 1.250 . S
C68 Gd1 2.828 . S
C68 O50 1.258 . S
C68 O55 1.252 . S
C68 C69 1.497 . S
C69 C68 1.497 . S
C69 C70 1.395 . S
C69 C71 1.380 . S
C70 C69 1.395 . S
C70 C73 1.398 . S
C70 H80 0.930 . S
C71 C69 1.380 . S
C71 C72 1.391 . S
C71 H81 0.930 . S
C72 C71 1.391 . S
C72 C74 1.387 . S
C73 C70 1.398 . S
C73 C74 1.380 . S
C73 H82 0.930 1_545 S
C74 C72 1.387 . S
C74 C73 1.380 . S
C74 H83 0.930 . S
C75 O52 1.254 . S
C75 O53 1.268 . S
H76 C61 0.930 . S
H77 C62 0.930 . S
H78 C64 0.930 . S
H79 C65 0.930 . S
H80 C70 0.930 . S
H81 C71 0.930 . S
H82 C73 0.930 1_565 S
H83 C74 0.930 . S
Gd84 N115 2.661 . S
Gd84 N121 2.601 . S
Gd84 O128 2.545 . S
Gd84 O129 2.606 . S
Gd84 O131 2.429 . S
Gd84 O132 2.545 . S
Gd84 O133 2.412 . S
Gd84 O135 2.362 . S
Gd84 O136 2.324 . S
Gd84 C143 2.828 . S
Gd85 N94 2.661 . S
Gd85 N98 2.601 . S
Gd85 O129 2.362 . S
Gd85 O130 2.324 . S
Gd85 O134 2.545 . S
Gd85 O135 2.606 . S
Gd85 O137 2.429 . S
Gd85 O138 2.545 . S
Gd85 O139 2.412 . S
Gd85 C152 2.828 . S
C86 C89 1.417 . S
C86 C91 1.431 . S
C86 C92 1.412 . S
C87 C90 1.437 . S
C87 C91 1.317 . S
C87 H106 0.929 . S
C88 C89 1.426 . S
C88 C90 1.413 . S
C88 N98 1.359 . S
C89 C86 1.417 . S
C89 C88 1.426 . S
C89 N94 1.350 . S
C90 C87 1.437 . S
C90 C88 1.413 . S
C90 C100 1.391 . S
C91 C86 1.431 . S
C91 C87 1.317 . S
C91 H102 0.930 . S
C92 C86 1.412 . S
C92 C93 1.355 . S
C92 H104 0.930 . S
C93 C92 1.355 . S
C93 C95 1.402 . S
C93 H105 0.930 . S
N94 Gd85 2.661 . S
N94 C89 1.350 . S
N94 C95 1.307 . S
C95 C93 1.402 . S
C95 N94 1.307 . S
C95 H96 0.930 . S
H96 C95 0.930 . S
C97 N98 1.334 . S
C97 C99 1.394 . S
C97 H101 0.930 . S
N98 Gd85 2.601 . S
N98 C88 1.359 . S
N98 C97 1.334 . S
C99 C97 1.394 . S
C99 C100 1.359 . S
C99 H111 0.930 . S
C100 C90 1.391 . S
C100 C99 1.359 . S
C100 H112 0.929 . S
H101 C97 0.930 . S
H102 C91 0.930 . S
H103 C120 0.930 . S
H104 C92 0.930 . S
H105 C93 0.930 . S
H106 C87 0.929 . S
H107 C125 0.930 . S
H108 C116 0.930 . S
H109 C117 0.930 . S
H110 C141 0.929 . S
H111 C99 0.930 . S
H112 C100 0.929 . S
H113 C142 0.930 . S
H114 C123 0.930 . S
N115 Gd84 2.661 . S
N115 C119 1.350 . S
N115 C120 1.307 . S
C116 H108 0.930 . S
C116 C117 1.355 . S
C116 C118 1.412 . S
C117 H109 0.930 . S
C117 C116 1.355 . S
C117 C120 1.402 . S
C118 C116 1.412 . S
C118 C119 1.417 . S
C118 C142 1.431 . S
C119 N115 1.350 . S
C119 C118 1.417 . S
C119 C122 1.426 . S
C120 H103 0.930 . S
C120 N115 1.307 . S
C120 C117 1.402 . S
N121 Gd84 2.601 . S
N121 C122 1.359 . S
N121 C125 1.334 . S
C122 C119 1.426 . S
C122 N121 1.359 . S
C122 C126 1.413 . S
C123 H114 0.930 . S
C123 C124 1.359 . S
C123 C125 1.394 . S
C124 C123 1.359 . S
C124 C126 1.391 . S
C124 H127 0.929 . S
C125 H107 0.930 . S
C125 N121 1.334 . S
C125 C123 1.394 . S
C126 C122 1.413 . S
C126 C124 1.391 . S
C126 C141 1.437 . S
H127 C124 0.929 . S
O128 Gd84 2.545 . S
O128 C143 1.258 . S
O129 Gd84 2.606 . S
O129 Gd85 2.362 . S
O129 C140 1.284 . S
O130 Gd85 2.324 . S
O130 C150 1.254 . S
O131 Gd84 2.429 . S
O131 C150 1.268 . S
O132 Gd84 2.545 . S
O132 C140 1.250 . S
O133 Gd84 2.412 . S
O133 C143 1.252 . S
O134 Gd85 2.545 . S
O134 C152 1.258 . S
O135 Gd84 2.362 . S
O135 Gd85 2.606 . S
O135 C151 1.284 . S
O136 Gd84 2.324 . S
O136 C159 1.254 . S
O137 Gd85 2.429 . S
O137 C159 1.268 . S
O138 Gd85 2.545 . S
O138 C151 1.250 . S
O139 Gd85 2.412 . S
O139 C152 1.252 . S
C140 O129 1.284 . S
C140 O132 1.250 . S
C141 H110 0.929 . S
C141 C126 1.437 . S
C141 C142 1.317 . S
C142 H113 0.930 . S
C142 C118 1.431 . S
C142 C141 1.317 . S
C143 Gd84 2.828 . S
C143 O128 1.258 . S
C143 O133 1.252 . S
C143 C144 1.497 . S
C144 C143 1.497 . S
C144 C145 1.395 . S
C144 C146 1.380 . S
C145 C144 1.395 . S
C145 C148 1.398 . S
C145 H160 0.930 . S
C146 C144 1.380 . S
C146 C147 1.391 . S
C146 H161 0.930 . S
C147 C146 1.391 . S
C147 C149 1.387 . S
C148 C145 1.398 . S
C148 C149 1.380 . S
C148 H162 0.930 . S
C149 C147 1.387 . S
C149 C148 1.380 . S
C149 H163 0.930 . S
C150 O130 1.254 . S
C150 O131 1.268 . S
C151 O135 1.284 . S
C151 O138 1.250 . S
C152 Gd85 2.828 . S
C152 O134 1.258 . S
C152 O139 1.252 . S
C152 C153 1.497 . S
C153 C152 1.497 . S
C153 C154 1.395 . S
C153 C155 1.380 . S
C154 C153 1.395 . S
C154 C157 1.398 . S
C154 H164 0.930 . S
C155 C153 1.380 . S
C155 C156 1.391 . S
C155 H165 0.930 . S
C156 C155 1.391 . S
C156 C158 1.387 . S
C157 C154 1.398 . S
C157 C158 1.380 . S
C157 H166 0.930 . S
C158 C156 1.387 . S
C158 C157 1.380 . S
C158 H167 0.930 . S
C159 O136 1.254 . S
C159 O137 1.268 . S
H160 C145 0.930 . S
H161 C146 0.930 . S
H162 C148 0.930 . S
H163 C149 0.930 . S
H164 C154 0.930 . S
H165 C155 0.930 . S
H166 C157 0.930 . S
H167 C158 0.930 . S
Gd168 N199 2.661 . S
Gd168 N205 2.601 . S
Gd168 O212 2.545 . S
Gd168 O213 2.606 . S
Gd168 O215 2.429 . S
Gd168 O216 2.545 . S
Gd168 O217 2.412 . S
Gd168 O219 2.362 . S
Gd168 O220 2.324 . S
Gd168 C227 2.828 . S
Gd169 N178 2.661 . S
Gd169 N182 2.601 . S
Gd169 O213 2.362 . S
Gd169 O214 2.324 . S
Gd169 O218 2.545 . S
Gd169 O219 2.606 . S
Gd169 O221 2.429 . S
Gd169 O222 2.545 . S
Gd169 O223 2.412 . S
Gd169 C236 2.828 . S
C170 C173 1.417 . S
C170 C175 1.431 . S
C170 C176 1.412 . S
C171 C174 1.437 . S
C171 C175 1.317 . S
C171 H190 0.929 . S
C172 C173 1.426 . S
C172 C174 1.413 . S
C172 N182 1.359 . S
C173 C170 1.417 . S
C173 C172 1.426 . S
C173 N178 1.350 . S
C174 C171 1.437 . S
C174 C172 1.413 . S
C174 C184 1.391 . S
C175 C170 1.431 . S
C175 C171 1.317 . S
C175 H186 0.930 . S
C176 C170 1.412 . S
C176 C177 1.355 . S
C176 H188 0.930 . S
C177 C176 1.355 . S
C177 C179 1.402 . S
C177 H189 0.930 . S
N178 Gd169 2.661 . S
N178 C173 1.350 . S
N178 C179 1.307 . S
C179 C177 1.402 . S
C179 N178 1.307 . S
C179 H180 0.930 . S
H180 C179 0.930 . S
C181 N182 1.334 . S
C181 C183 1.394 1_565 S
C181 H185 0.930 . S
N182 Gd169 2.601 . S
N182 C172 1.359 . S
N182 C181 1.334 . S
C183 C181 1.394 1_545 S
C183 C184 1.359 1_545 S
C183 H195 0.930 . S
C184 C174 1.391 . S
C184 C183 1.359 1_565 S
C184 H196 0.929 1_565 S
H185 C181 0.930 . S
H186 C175 0.930 . S
H187 C204 0.930 . S
H188 C176 0.930 . S
H189 C177 0.930 . S
H190 C171 0.929 . S
H191 C209 0.930 . S
H192 C200 0.930 . S
H193 C201 0.930 . S
H194 C225 0.929 . S
H195 C183 0.930 . S
H196 C184 0.929 1_545 S
H197 C226 0.930 . S
H198 C207 0.930 . S
N199 Gd168 2.661 . S
N199 C203 1.350 . S
N199 C204 1.307 . S
C200 H192 0.930 . S
C200 C201 1.355 . S
C200 C202 1.412 . S
C201 H193 0.930 . S
C201 C200 1.355 . S
C201 C204 1.402 . S
C202 C200 1.412 . S
C202 C203 1.417 . S
C202 C226 1.431 . S
C203 N199 1.350 . S
C203 C202 1.417 . S
C203 C206 1.426 . S
C204 H187 0.930 . S
C204 N199 1.307 . S
C204 C201 1.402 . S
N205 Gd168 2.601 . S
N205 C206 1.359 . S
N205 C209 1.334 . S
C206 C203 1.426 . S
C206 N205 1.359 . S
C206 C210 1.413 . S
C207 H198 0.930 . S
C207 C208 1.359 . S
C207 C209 1.394 . S
C208 C207 1.359 . S
C208 C210 1.391 . S
C208 H211 0.929 . S
C209 H191 0.930 . S
C209 N205 1.334 . S
C209 C207 1.394 . S
C210 C206 1.413 . S
C210 C208 1.391 . S
C210 C225 1.437 . S
H211 C208 0.929 . S
O212 Gd168 2.545 . S
O212 C227 1.258 . S
O213 Gd168 2.606 . S
O213 Gd169 2.362 . S
O213 C224 1.284 . S
O214 Gd169 2.324 . S
O214 C234 1.254 . S
O215 Gd168 2.429 . S
O215 C234 1.268 . S
O216 Gd168 2.545 . S
O216 C224 1.250 . S
O217 Gd168 2.412 . S
O217 C227 1.252 . S
O218 Gd169 2.545 . S
O218 C236 1.258 . S
O219 Gd168 2.362 . S
O219 Gd169 2.606 . S
O219 C235 1.284 . S
O220 Gd168 2.324 . S
O220 C243 1.254 . S
O221 Gd169 2.429 . S
O221 C243 1.268 . S
O222 Gd169 2.545 . S
O222 C235 1.250 . S
O223 Gd169 2.412 . S
O223 C236 1.252 . S
C224 O213 1.284 . S
C224 O216 1.250 . S
C225 H194 0.929 . S
C225 C210 1.437 . S
C225 C226 1.317 . S
C226 H197 0.930 . S
C226 C202 1.431 . S
C226 C225 1.317 . S
C227 Gd168 2.828 . S
C227 O212 1.258 . S
C227 O217 1.252 . S
C227 C228 1.497 . S
C228 C227 1.497 . S
C228 C229 1.395 . S
C228 C230 1.380 . S
C229 C228 1.395 . S
C229 C232 1.398 . S
C229 H244 0.930 . S
C230 C228 1.380 . S
C230 C231 1.391 . S
C230 H245 0.930 . S
C231 C230 1.391 . S
C231 C233 1.387 . S
C232 C229 1.398 . S
C232 C233 1.380 . S
C232 H246 0.930 . S
C233 C231 1.387 . S
C233 C232 1.380 . S
C233 H247 0.930 . S
C234 O214 1.254 . S
C234 O215 1.268 . S
C235 O219 1.284 . S
C235 O222 1.250 . S
C236 Gd169 2.828 . S
C236 O218 1.258 . S
C236 O223 1.252 . S
C236 C237 1.497 . S
C237 C236 1.497 . S
C237 C238 1.395 1_565 S
C237 C239 1.380 . S
C238 C237 1.395 1_545 S
C238 C241 1.398 . S
C238 H248 0.930 . S
C239 C237 1.380 . S
C239 C240 1.391 . S
C239 H249 0.930 . S
C240 C239 1.391 . S
C240 C242 1.387 1_565 S
C241 C238 1.398 . S
C241 C242 1.380 . S
C241 H250 0.930 . S
C242 C240 1.387 1_545 S
C242 C241 1.380 . S
C242 H251 0.930 . S
C243 O220 1.254 . S
C243 O221 1.268 . S
H244 C229 0.930 . S
H245 C230 0.930 . S
H246 C232 0.930 . S
H247 C233 0.930 . S
H248 C238 0.930 . S
H249 C239 0.930 . S
H250 C241 0.930 . S
H251 C242 0.930 . S
Gd252 N283 2.661 . S
Gd252 N289 2.601 . S
Gd252 O296 2.545 . S
Gd252 O297 2.606 . S
Gd252 O299 2.429 . S
Gd252 O300 2.545 . S
Gd252 O301 2.412 . S
Gd252 O303 2.362 . S
Gd252 O304 2.324 . S
Gd252 C311 2.828 . S
Gd253 N262 2.661 . S
Gd253 N266 2.601 . S
Gd253 O297 2.362 . S
Gd253 O298 2.324 . S
Gd253 O302 2.545 . S
Gd253 O303 2.606 . S
Gd253 O305 2.429 . S
Gd253 O306 2.545 . S
Gd253 O307 2.412 . S
Gd253 C320 2.828 . S
C254 C257 1.417 . S
C254 C259 1.431 . S
C254 C260 1.412 . S
C255 C258 1.437 . S
C255 C259 1.317 . S
C255 H274 0.929 . S
C256 C257 1.426 . S
C256 C258 1.413 . S
C256 N266 1.359 . S
C257 C254 1.417 . S
C257 C256 1.426 . S
C257 N262 1.350 . S
C258 C255 1.437 . S
C258 C256 1.413 . S
C258 C268 1.391 . S
C259 C254 1.431 . S
C259 C255 1.317 . S
C259 H270 0.930 . S
C260 C254 1.412 . S
C260 C261 1.355 . S
C260 H272 0.930 . S
C261 C260 1.355 . S
C261 C263 1.402 . S
C261 H273 0.930 . S
N262 Gd253 2.661 . S
N262 C257 1.350 . S
N262 C263 1.307 . S
C263 C261 1.402 . S
C263 N262 1.307 . S
C263 H264 0.930 . S
H264 C263 0.930 . S
C265 N266 1.334 . S
C265 C267 1.394 . S
C265 H269 0.930 . S
N266 Gd253 2.601 . S
N266 C256 1.359 . S
N266 C265 1.334 . S
C267 C265 1.394 . S
C267 C268 1.359 . S
C267 H279 0.930 . S
C268 C258 1.391 . S
C268 C267 1.359 . S
C268 H280 0.929 . S
H269 C265 0.930 . S
H270 C259 0.930 . S
H271 C288 0.930 . S
H272 C260 0.930 . S
H273 C261 0.930 . S
H274 C255 0.929 . S
H275 C293 0.930 . S
H276 C284 0.930 . S
H277 C285 0.930 1_545 S
H278 C309 0.929 . S
H279 C267 0.930 . S
H280 C268 0.929 . S
H281 C310 0.930 . S
H282 C291 0.930 . S
N283 Gd252 2.661 . S
N283 C287 1.350 . S
N283 C288 1.307 . S
C284 H276 0.930 . S
C284 C285 1.355 1_545 S
C284 C286 1.412 1_545 S
C285 H277 0.930 1_565 S
C285 C284 1.355 1_565 S
C285 C288 1.402 . S
C286 C284 1.412 1_565 S
C286 C287 1.417 . S
C286 C310 1.431 1_565 S
C287 N283 1.350 . S
C287 C286 1.417 . S
C287 C290 1.426 . S
C288 H271 0.930 . S
C288 N283 1.307 . S
C288 C285 1.402 . S
N289 Gd252 2.601 . S
N289 C290 1.359 . S
N289 C293 1.334 . S
C290 C287 1.426 . S
C290 N289 1.359 . S
C290 C294 1.413 . S
C291 H282 0.930 . S
C291 C292 1.359 . S
C291 C293 1.394 . S
C292 C291 1.359 . S
C292 C294 1.391 . S
C292 H295 0.929 . S
C293 H275 0.930 . S
C293 N289 1.334 . S
C293 C291 1.394 . S
C294 C290 1.413 . S
C294 C292 1.391 . S
C294 C309 1.437 . S
H295 C292 0.929 . S
O296 Gd252 2.545 . S
O296 C311 1.258 . S
O297 Gd252 2.606 . S
O297 Gd253 2.362 . S
O297 C308 1.284 . S
O298 Gd253 2.324 . S
O298 C318 1.254 . S
O299 Gd252 2.429 . S
O299 C318 1.268 . S
O300 Gd252 2.545 . S
O300 C308 1.250 . S
O301 Gd252 2.412 . S
O301 C311 1.252 . S
O302 Gd253 2.545 . S
O302 C320 1.258 . S
O303 Gd252 2.362 . S
O303 Gd253 2.606 . S
O303 C319 1.284 . S
O304 Gd252 2.324 . S
O304 C327 1.254 . S
O305 Gd253 2.429 . S
O305 C327 1.268 . S
O306 Gd253 2.545 . S
O306 C319 1.250 . S
O307 Gd253 2.412 . S
O307 C320 1.252 . S
C308 O297 1.284 . S
C308 O300 1.250 . S
C309 H278 0.929 . S
C309 C294 1.437 . S
C309 C310 1.317 1_565 S
C310 H281 0.930 . S
C310 C286 1.431 1_545 S
C310 C309 1.317 1_545 S
C311 Gd252 2.828 . S
C311 O296 1.258 . S
C311 O301 1.252 . S
C311 C312 1.497 . S
C312 C311 1.497 . S
C312 C313 1.395 . S
C312 C314 1.380 . S
C313 C312 1.395 . S
C313 C316 1.398 . S
C313 H328 0.930 . S
C314 C312 1.380 . S
C314 C315 1.391 . S
C314 H329 0.930 . S
C315 C314 1.391 . S
C315 C317 1.387 . S
C316 C313 1.398 . S
C316 C317 1.380 . S
C316 H330 0.930 . S
C317 C315 1.387 . S
C317 C316 1.380 . S
C317 H331 0.930 . S
C318 O298 1.254 . S
C318 O299 1.268 . S
C319 O303 1.284 . S
C319 O306 1.250 . S
C320 Gd253 2.828 . S
C320 O302 1.258 . S
C320 O307 1.252 . S
C320 C321 1.497 . S
C321 C320 1.497 . S
C321 C322 1.395 . S
C321 C323 1.380 . S
C322 C321 1.395 . S
C322 C325 1.398 . S
C322 H332 0.930 . S
C323 C321 1.380 . S
C323 C324 1.391 . S
C323 H333 0.930 . S
C324 C323 1.391 . S
C324 C326 1.387 . S
C325 C322 1.398 . S
C325 C326 1.380 . S
C325 H334 0.930 . S
C326 C324 1.387 . S
C326 C325 1.380 . S
C326 H335 0.930 . S
C327 O304 1.254 . S
C327 O305 1.268 . S
H328 C313 0.930 . S
H329 C314 0.930 . S
H330 C316 0.930 . S
H331 C317 0.930 . S
H332 C322 0.930 . S
H333 C323 0.930 . S
H334 C325 0.930 . S
H335 C326 0.930 . S
Gd336 N367 2.661 . S
Gd336 N373 2.601 . S
Gd336 O380 2.545 . S
Gd336 O381 2.606 . S
Gd336 O383 2.429 . S
Gd336 O384 2.545 . S
Gd336 O385 2.412 . S
Gd336 O387 2.362 . S
Gd336 O388 2.324 . S
Gd336 C395 2.828 . S
Gd337 N346 2.661 . S
Gd337 N350 2.601 . S
Gd337 O381 2.362 . S
Gd337 O382 2.324 . S
Gd337 O386 2.545 . S
Gd337 O387 2.606 . S
Gd337 O389 2.429 . S
Gd337 O390 2.545 . S
Gd337 O391 2.412 . S
Gd337 C404 2.828 . S
C338 C341 1.417 . S
C338 C343 1.431 . S
C338 C344 1.412 . S
C339 C342 1.437 . S
C339 C343 1.317 . S
C339 H358 0.929 . S
C340 C341 1.426 . S
C340 C342 1.413 . S
C340 N350 1.359 . S
C341 C338 1.417 . S
C341 C340 1.426 . S
C341 N346 1.350 . S
C342 C339 1.437 . S
C342 C340 1.413 . S
C342 C352 1.391 . S
C343 C338 1.431 . S
C343 C339 1.317 . S
C343 H354 0.930 . S
C344 C338 1.412 . S
C344 C345 1.355 . S
C344 H356 0.930 . S
C345 C344 1.355 . S
C345 C347 1.402 . S
C345 H357 0.930 . S
N346 Gd337 2.661 . S
N346 C341 1.350 . S
N346 C347 1.307 . S
C347 C345 1.402 . S
C347 N346 1.307 . S
C347 H348 0.930 . S
H348 C347 0.930 . S
C349 N350 1.334 . S
C349 C351 1.394 . S
C349 H353 0.930 . S
N350 Gd337 2.601 . S
N350 C340 1.359 . S
N350 C349 1.334 . S
C351 C349 1.394 . S
C351 C352 1.359 . S
C351 H363 0.930 . S
C352 C342 1.391 . S
C352 C351 1.359 . S
C352 H364 0.929 . S
H353 C349 0.930 . S
H354 C343 0.930 . S
H355 C372 0.930 . S
H356 C344 0.930 . S
H357 C345 0.930 . S
H358 C339 0.929 . S
H359 C377 0.930 . S
H360 C368 0.930 . S
H361 C369 0.930 . S
H362 C393 0.929 . S
H363 C351 0.930 . S
H364 C352 0.929 . S
H365 C394 0.930 . S
H366 C375 0.930 . S
N367 Gd336 2.661 . S
N367 C371 1.350 . S
N367 C372 1.307 . S
C368 H360 0.930 . S
C368 C369 1.355 . S
C368 C370 1.412 . S
C369 H361 0.930 . S
C369 C368 1.355 . S
C369 C372 1.402 . S
C370 C368 1.412 . S
C370 C371 1.417 . S
C370 C394 1.431 . S
C371 N367 1.350 . S
C371 C370 1.417 . S
C371 C374 1.426 . S
C372 H355 0.930 . S
C372 N367 1.307 . S
C372 C369 1.402 . S
N373 Gd336 2.601 . S
N373 C374 1.359 . S
N373 C377 1.334 . S
C374 C371 1.426 . S
C374 N373 1.359 . S
C374 C378 1.413 . S
C375 H366 0.930 . S
C375 C376 1.359 . S
C375 C377 1.394 . S
C376 C375 1.359 . S
C376 C378 1.391 . S
C376 H379 0.929 . S
C377 H359 0.930 . S
C377 N373 1.334 . S
C377 C375 1.394 . S
C378 C374 1.413 . S
C378 C376 1.391 . S
C378 C393 1.437 . S
H379 C376 0.929 . S
O380 Gd336 2.545 . S
O380 C395 1.258 . S
O381 Gd336 2.606 . S
O381 Gd337 2.362 . S
O381 C392 1.284 . S
O382 Gd337 2.324 . S
O382 C402 1.254 . S
O383 Gd336 2.429 . S
O383 C402 1.268 . S
O384 Gd336 2.545 . S
O384 C392 1.250 . S
O385 Gd336 2.412 . S
O385 C395 1.252 . S
O386 Gd337 2.545 . S
O386 C404 1.258 . S
O387 Gd336 2.362 . S
O387 Gd337 2.606 . S
O387 C403 1.284 . S
O388 Gd336 2.324 . S
O388 C411 1.254 . S
O389 Gd337 2.429 . S
O389 C411 1.268 . S
O390 Gd337 2.545 . S
O390 C403 1.250 . S
O391 Gd337 2.412 . S
O391 C404 1.252 . S
C392 O381 1.284 . S
C392 O384 1.250 . S
C393 H362 0.929 . S
C393 C378 1.437 . S
C393 C394 1.317 . S
C394 H365 0.930 . S
C394 C370 1.431 . S
C394 C393 1.317 . S
C395 Gd336 2.828 . S
C395 O380 1.258 . S
C395 O385 1.252 . S
C395 C396 1.497 . S
C396 C395 1.497 . S
C396 C397 1.395 . S
C396 C398 1.380 . S
C397 C396 1.395 . S
C397 C400 1.398 . S
C397 H412 0.930 . S
C398 C396 1.380 . S
C398 C399 1.391 . S
C398 H413 0.930 . S
C399 C398 1.391 . S
C399 C401 1.387 . S
C400 C397 1.398 . S
C400 C401 1.380 . S
C400 H414 0.930 1_565 S
C401 C399 1.387 . S
C401 C400 1.380 . S
C401 H415 0.930 . S
C402 O382 1.254 . S
C402 O383 1.268 . S
C403 O387 1.284 . S
C403 O390 1.250 . S
C404 Gd337 2.828 . S
C404 O386 1.258 . S
C404 O391 1.252 . S
C404 C405 1.497 . S
C405 C404 1.497 . S
C405 C406 1.395 . S
C405 C407 1.380 . S
C406 C405 1.395 . S
C406 C409 1.398 . S
C406 H416 0.930 . S
C407 C405 1.380 . S
C407 C408 1.391 . S
C407 H417 0.930 . S
C408 C407 1.391 . S
C408 C410 1.387 . S
C409 C406 1.398 . S
C409 C410 1.380 . S
C409 H418 0.930 . S
C410 C408 1.387 . S
C410 C409 1.380 . S
C410 H419 0.930 . S
C411 O388 1.254 . S
C411 O389 1.268 . S
H412 C397 0.930 . S
H413 C398 0.930 . S
H414 C400 0.930 1_545 S
H415 C401 0.930 . S
H416 C406 0.930 . S
H417 C407 0.930 . S
H418 C409 0.930 . S
H419 C410 0.930 . S
Gd420 N451 2.661 . S
Gd420 N457 2.601 . S
Gd420 O464 2.545 . S
Gd420 O465 2.606 . S
Gd420 O467 2.429 . S
Gd420 O468 2.545 . S
Gd420 O469 2.412 . S
Gd420 O471 2.362 . S
Gd420 O472 2.324 . S
Gd420 C479 2.828 . S
Gd421 N430 2.661 . S
Gd421 N434 2.601 . S
Gd421 O465 2.362 . S
Gd421 O466 2.324 . S
Gd421 O470 2.545 . S
Gd421 O471 2.606 . S
Gd421 O473 2.429 . S
Gd421 O474 2.545 . S
Gd421 O475 2.412 . S
Gd421 C488 2.828 . S
C422 C425 1.417 . S
C422 C427 1.431 . S
C422 C428 1.412 . S
C423 C426 1.437 . S
C423 C427 1.317 . S
C423 H442 0.929 . S
C424 C425 1.426 . S
C424 C426 1.413 . S
C424 N434 1.359 . S
C425 C422 1.417 . S
C425 C424 1.426 . S
C425 N430 1.350 . S
C426 C423 1.437 . S
C426 C424 1.413 . S
C426 C436 1.391 . S
C427 C422 1.431 . S
C427 C423 1.317 . S
C427 H438 0.930 . S
C428 C422 1.412 . S
C428 C429 1.355 . S
C428 H440 0.930 . S
C429 C428 1.355 . S
C429 C431 1.402 . S
C429 H441 0.930 . S
N430 Gd421 2.661 . S
N430 C425 1.350 . S
N430 C431 1.307 . S
C431 C429 1.402 . S
C431 N430 1.307 . S
C431 H432 0.930 . S
H432 C431 0.930 . S
C433 N434 1.334 . S
C433 C435 1.394 . S
C433 H437 0.930 . S
N434 Gd421 2.601 . S
N434 C424 1.359 . S
N434 C433 1.334 . S
C435 C433 1.394 . S
C435 C436 1.359 . S
C435 H447 0.930 . S
C436 C426 1.391 . S
C436 C435 1.359 . S
C436 H448 0.929 . S
H437 C433 0.930 . S
H438 C427 0.930 . S
H439 C456 0.930 . S
H440 C428 0.930 . S
H441 C429 0.930 . S
H442 C423 0.929 . S
H443 C461 0.930 . S
H444 C452 0.930 . S
H445 C453 0.930 . S
H446 C477 0.929 . S
H447 C435 0.930 . S
H448 C436 0.929 . S
H449 C478 0.930 . S
H450 C459 0.930 . S
N451 Gd420 2.661 . S
N451 C455 1.350 . S
N451 C456 1.307 . S
C452 H444 0.930 . S
C452 C453 1.355 . S
C452 C454 1.412 . S
C453 H445 0.930 . S
C453 C452 1.355 . S
C453 C456 1.402 . S
C454 C452 1.412 . S
C454 C455 1.417 . S
C454 C478 1.431 . S
C455 N451 1.350 . S
C455 C454 1.417 . S
C455 C458 1.426 . S
C456 H439 0.930 . S
C456 N451 1.307 . S
C456 C453 1.402 . S
N457 Gd420 2.601 . S
N457 C458 1.359 . S
N457 C461 1.334 . S
C458 C455 1.426 . S
C458 N457 1.359 . S
C458 C462 1.413 . S
C459 H450 0.930 . S
C459 C460 1.359 . S
C459 C461 1.394 . S
C460 C459 1.359 . S
C460 C462 1.391 . S
C460 H463 0.929 . S
C461 H443 0.930 . S
C461 N457 1.334 . S
C461 C459 1.394 . S
C462 C458 1.413 . S
C462 C460 1.391 . S
C462 C477 1.437 . S
H463 C460 0.929 . S
O464 Gd420 2.545 . S
O464 C479 1.258 . S
O465 Gd420 2.606 . S
O465 Gd421 2.362 . S
O465 C476 1.284 . S
O466 Gd421 2.324 . S
O466 C486 1.254 . S
O467 Gd420 2.429 . S
O467 C486 1.268 . S
O468 Gd420 2.545 . S
O468 C476 1.250 . S
O469 Gd420 2.412 . S
O469 C479 1.252 . S
O470 Gd421 2.545 . S
O470 C488 1.258 . S
O471 Gd420 2.362 . S
O471 Gd421 2.606 . S
O471 C487 1.284 . S
O472 Gd420 2.324 . S
O472 C495 1.254 . S
O473 Gd421 2.429 . S
O473 C495 1.268 . S
O474 Gd421 2.545 . S
O474 C487 1.250 . S
O475 Gd421 2.412 . S
O475 C488 1.252 . S
C476 O465 1.284 . S
C476 O468 1.250 . S
C477 H446 0.929 . S
C477 C462 1.437 . S
C477 C478 1.317 . S
C478 H449 0.930 . S
C478 C454 1.431 . S
C478 C477 1.317 . S
C479 Gd420 2.828 . S
C479 O464 1.258 . S
C479 O469 1.252 . S
C479 C480 1.497 . S
C480 C479 1.497 . S
C480 C481 1.395 . S
C480 C482 1.380 . S
C481 C480 1.395 . S
C481 C484 1.398 . S
C481 H496 0.930 . S
C482 C480 1.380 . S
C482 C483 1.391 . S
C482 H497 0.930 . S
C483 C482 1.391 . S
C483 C485 1.387 . S
C484 C481 1.398 . S
C484 C485 1.380 . S
C484 H498 0.930 . S
C485 C483 1.387 . S
C485 C484 1.380 . S
C485 H499 0.930 . S
C486 O466 1.254 . S
C486 O467 1.268 . S
C487 O471 1.284 . S
C487 O474 1.250 . S
C488 Gd421 2.828 . S
C488 O470 1.258 . S
C488 O475 1.252 . S
C488 C489 1.497 . S
C489 C488 1.497 . S
C489 C490 1.395 . S
C489 C491 1.380 . S
C490 C489 1.395 . S
C490 C493 1.398 . S
C490 H500 0.930 . S
C491 C489 1.380 . S
C491 C492 1.391 . S
C491 H501 0.930 . S
C492 C491 1.391 . S
C492 C494 1.387 . S
C493 C490 1.398 . S
C493 C494 1.380 . S
C493 H502 0.930 . S
C494 C492 1.387 . S
C494 C493 1.380 . S
C494 H503 0.930 . S
C495 O472 1.254 . S
C495 O473 1.268 . S
H496 C481 0.930 . S
H497 C482 0.930 . S
H498 C484 0.930 . S
H499 C485 0.930 . S
H500 C490 0.930 . S
H501 C491 0.930 . S
H502 C493 0.930 . S
H503 C494 0.930 . S
Gd504 N535 2.661 . S
Gd504 N541 2.601 . S
Gd504 O548 2.545 . S
Gd504 O549 2.606 . S
Gd504 O551 2.429 . S
Gd504 O552 2.545 . S
Gd504 O553 2.412 . S
Gd504 O555 2.362 . S
Gd504 O556 2.324 . S
Gd504 C563 2.828 . S
Gd505 N514 2.661 . S
Gd505 N518 2.601 . S
Gd505 O549 2.362 . S
Gd505 O550 2.324 . S
Gd505 O554 2.545 . S
Gd505 O555 2.606 . S
Gd505 O557 2.429 . S
Gd505 O558 2.545 . S
Gd505 O559 2.412 . S
Gd505 C572 2.828 . S
C506 C509 1.417 . S
C506 C511 1.431 . S
C506 C512 1.412 . S
C507 C510 1.437 . S
C507 C511 1.317 . S
C507 H526 0.929 . S
C508 C509 1.426 . S
C508 C510 1.413 . S
C508 N518 1.359 . S
C509 C506 1.417 . S
C509 C508 1.426 . S
C509 N514 1.350 . S
C510 C507 1.437 . S
C510 C508 1.413 . S
C510 C520 1.391 . S
C511 C506 1.431 . S
C511 C507 1.317 . S
C511 H522 0.930 . S
C512 C506 1.412 . S
C512 C513 1.355 . S
C512 H524 0.930 . S
C513 C512 1.355 . S
C513 C515 1.402 . S
C513 H525 0.930 . S
N514 Gd505 2.661 . S
N514 C509 1.350 . S
N514 C515 1.307 . S
C515 C513 1.402 . S
C515 N514 1.307 . S
C515 H516 0.930 . S
H516 C515 0.930 . S
C517 N518 1.334 . S
C517 C519 1.394 . S
C517 H521 0.930 . S
N518 Gd505 2.601 . S
N518 C508 1.359 . S
N518 C517 1.334 . S
C519 C517 1.394 . S
C519 C520 1.359 . S
C519 H531 0.930 . S
C520 C510 1.391 . S
C520 C519 1.359 . S
C520 H532 0.929 . S
H521 C517 0.930 . S
H522 C511 0.930 . S
H523 C540 0.930 . S
H524 C512 0.930 . S
H525 C513 0.930 . S
H526 C507 0.929 . S
H527 C545 0.930 . S
H528 C536 0.930 . S
H529 C537 0.930 . S
H530 C561 0.929 . S
H531 C519 0.930 . S
H532 C520 0.929 . S
H533 C562 0.930 . S
H534 C543 0.930 . S
N535 Gd504 2.661 . S
N535 C539 1.350 . S
N535 C540 1.307 . S
C536 H528 0.930 . S
C536 C537 1.355 . S
C536 C538 1.412 . S
C537 H529 0.930 . S
C537 C536 1.355 . S
C537 C540 1.402 . S
C538 C536 1.412 . S
C538 C539 1.417 . S
C538 C562 1.431 . S
C539 N535 1.350 . S
C539 C538 1.417 . S
C539 C542 1.426 . S
C540 H523 0.930 . S
C540 N535 1.307 . S
C540 C537 1.402 . S
N541 Gd504 2.601 . S
N541 C542 1.359 . S
N541 C545 1.334 . S
C542 C539 1.426 . S
C542 N541 1.359 . S
C542 C546 1.413 . S
C543 H534 0.930 . S
C543 C544 1.359 . S
C543 C545 1.394 . S
C544 C543 1.359 . S
C544 C546 1.391 . S
C544 H547 0.929 . S
C545 H527 0.930 . S
C545 N541 1.334 . S
C545 C543 1.394 . S
C546 C542 1.413 . S
C546 C544 1.391 . S
C546 C561 1.437 . S
H547 C544 0.929 . S
O548 Gd504 2.545 . S
O548 C563 1.258 . S
O549 Gd504 2.606 . S
O549 Gd505 2.362 . S
O549 C560 1.284 . S
O550 Gd505 2.324 . S
O550 C570 1.254 . S
O551 Gd504 2.429 . S
O551 C570 1.268 . S
O552 Gd504 2.545 . S
O552 C560 1.250 . S
O553 Gd504 2.412 . S
O553 C563 1.252 . S
O554 Gd505 2.545 . S
O554 C572 1.258 . S
O555 Gd504 2.362 . S
O555 Gd505 2.606 . S
O555 C571 1.284 . S
O556 Gd504 2.324 . S
O556 C579 1.254 . S
O557 Gd505 2.429 . S
O557 C579 1.268 . S
O558 Gd505 2.545 . S
O558 C571 1.250 . S
O559 Gd505 2.412 . S
O559 C572 1.252 . S
C560 O549 1.284 . S
C560 O552 1.250 . S
C561 H530 0.929 . S
C561 C546 1.437 . S
C561 C562 1.317 . S
C562 H533 0.930 . S
C562 C538 1.431 . S
C562 C561 1.317 . S
C563 Gd504 2.828 . S
C563 O548 1.258 . S
C563 O553 1.252 . S
C563 C564 1.497 . S
C564 C563 1.497 . S
C564 C565 1.395 . S
C564 C566 1.380 . S
C565 C564 1.395 . S
C565 C568 1.398 . S
C565 H580 0.930 . S
C566 C564 1.380 . S
C566 C567 1.391 . S
C566 H581 0.930 . S
C567 C566 1.391 . S
C567 C569 1.387 . S
C568 C565 1.398 . S
C568 C569 1.380 . S
C568 H582 0.930 . S
C569 C567 1.387 . S
C569 C568 1.380 . S
C569 H583 0.930 . S
C570 O550 1.254 . S
C570 O551 1.268 . S
C571 O555 1.284 . S
C571 O558 1.250 . S
C572 Gd505 2.828 . S
C572 O554 1.258 . S
C572 O559 1.252 . S
C572 C573 1.497 . S
C573 C572 1.497 . S
C573 C574 1.395 . S
C573 C575 1.380 . S
C574 C573 1.395 . S
C574 C577 1.398 . S
C574 H584 0.930 . S
C575 C573 1.380 . S
C575 C576 1.391 . S
C575 H585 0.930 . S
C576 C575 1.391 . S
C576 C578 1.387 . S
C577 C574 1.398 . S
C577 C578 1.380 . S
C577 H586 0.930 . S
C578 C576 1.387 . S
C578 C577 1.380 . S
C578 H587 0.930 . S
C579 O556 1.254 . S
C579 O557 1.268 . S
H580 C565 0.930 . S
H581 C566 0.930 . S
H582 C568 0.930 . S
H583 C569 0.930 . S
H584 C574 0.930 . S
H585 C575 0.930 . S
H586 C577 0.930 . S
H587 C578 0.930 . S
Gd588 N619 2.661 . S
Gd588 N625 2.601 . S
Gd588 O632 2.545 . S
Gd588 O633 2.606 . S
Gd588 O635 2.429 . S
Gd588 O636 2.545 . S
Gd588 O637 2.412 . S
Gd588 O639 2.362 . S
Gd588 O640 2.324 . S
Gd588 C647 2.828 . S
Gd589 N598 2.661 . S
Gd589 N602 2.601 . S
Gd589 O633 2.362 . S
Gd589 O634 2.324 . S
Gd589 O638 2.545 . S
Gd589 O639 2.606 . S
Gd589 O641 2.429 . S
Gd589 O642 2.545 . S
Gd589 O643 2.412 . S
Gd589 C656 2.828 . S
C590 C593 1.417 . S
C590 C595 1.431 . S
C590 C596 1.412 . S
C591 C594 1.437 . S
C591 C595 1.317 . S
C591 H610 0.929 . S
C592 C593 1.426 . S
C592 C594 1.413 . S
C592 N602 1.359 . S
C593 C590 1.417 . S
C593 C592 1.426 . S
C593 N598 1.350 . S
C594 C591 1.437 . S
C594 C592 1.413 . S
C594 C604 1.391 . S
C595 C590 1.431 . S
C595 C591 1.317 . S
C595 H606 0.930 . S
C596 C590 1.412 . S
C596 C597 1.355 . S
C596 H608 0.930 . S
C597 C596 1.355 . S
C597 C599 1.402 . S
C597 H609 0.930 . S
N598 Gd589 2.661 . S
N598 C593 1.350 . S
N598 C599 1.307 . S
C599 C597 1.402 . S
C599 N598 1.307 . S
C599 H600 0.930 . S
H600 C599 0.930 . S
C601 N602 1.334 . S
C601 C603 1.394 . S
C601 H605 0.930 . S
N602 Gd589 2.601 . S
N602 C592 1.359 . S
N602 C601 1.334 . S
C603 C601 1.394 . S
C603 C604 1.359 . S
C603 H615 0.930 . S
C604 C594 1.391 . S
C604 C603 1.359 . S
C604 H616 0.929 . S
H605 C601 0.930 . S
H606 C595 0.930 . S
H607 C624 0.930 . S
H608 C596 0.930 . S
H609 C597 0.930 . S
H610 C591 0.929 . S
H611 C629 0.930 . S
H612 C620 0.930 . S
H613 C621 0.930 . S
H614 C645 0.929 . S
H615 C603 0.930 . S
H616 C604 0.929 . S
H617 C646 0.930 . S
H618 C627 0.930 1_545 S
N619 Gd588 2.661 . S
N619 C623 1.350 . S
N619 C624 1.307 . S
C620 H612 0.930 . S
C620 C621 1.355 . S
C620 C622 1.412 . S
C621 H613 0.930 . S
C621 C620 1.355 . S
C621 C624 1.402 . S
C622 C620 1.412 . S
C622 C623 1.417 . S
C622 C646 1.431 . S
C623 N619 1.350 . S
C623 C622 1.417 . S
C623 C626 1.426 . S
C624 H607 0.930 . S
C624 N619 1.307 . S
C624 C621 1.402 . S
N625 Gd588 2.601 . S
N625 C626 1.359 . S
N625 C629 1.334 . S
C626 C623 1.426 . S
C626 N625 1.359 . S
C626 C630 1.413 . S
C627 H618 0.930 1_565 S
C627 C628 1.359 . S
C627 C629 1.394 . S
C628 C627 1.359 . S
C628 C630 1.391 . S
C628 H631 0.929 1_565 S
C629 H611 0.930 . S
C629 N625 1.334 . S
C629 C627 1.394 . S
C630 C626 1.413 . S
C630 C628 1.391 . S
C630 C645 1.437 . S
H631 C628 0.929 1_545 S
O632 Gd588 2.545 . S
O632 C647 1.258 . S
O633 Gd588 2.606 . S
O633 Gd589 2.362 . S
O633 C644 1.284 . S
O634 Gd589 2.324 . S
O634 C654 1.254 . S
O635 Gd588 2.429 . S
O635 C654 1.268 . S
O636 Gd588 2.545 . S
O636 C644 1.250 . S
O637 Gd588 2.412 . S
O637 C647 1.252 . S
O638 Gd589 2.545 . S
O638 C656 1.258 . S
O639 Gd588 2.362 . S
O639 Gd589 2.606 . S
O639 C655 1.284 . S
O640 Gd588 2.324 . S
O640 C663 1.254 . S
O641 Gd589 2.429 . S
O641 C663 1.268 . S
O642 Gd589 2.545 . S
O642 C655 1.250 . S
O643 Gd589 2.412 . S
O643 C656 1.252 . S
C644 O633 1.284 . S
C644 O636 1.250 . S
C645 H614 0.929 . S
C645 C630 1.437 . S
C645 C646 1.317 . S
C646 H617 0.930 . S
C646 C622 1.431 . S
C646 C645 1.317 . S
C647 Gd588 2.828 . S
C647 O632 1.258 . S
C647 O637 1.252 . S
C647 C648 1.497 . S
C648 C647 1.497 . S
C648 C649 1.395 1_565 S
C648 C650 1.380 . S
C649 C648 1.395 1_545 S
C649 C652 1.398 . S
C649 H664 0.930 . S
C650 C648 1.380 . S
C650 C651 1.391 . S
C650 H665 0.930 . S
C651 C650 1.391 . S
C651 C653 1.387 1_565 S
C652 C649 1.398 . S
C652 C653 1.380 . S
C652 H666 0.930 . S
C653 C651 1.387 1_545 S
C653 C652 1.380 . S
C653 H667 0.930 . S
C654 O634 1.254 . S
C654 O635 1.268 . S
C655 O639 1.284 . S
C655 O642 1.250 . S
C656 Gd589 2.828 . S
C656 O638 1.258 . S
C656 O643 1.252 . S
C656 C657 1.497 . S
C657 C656 1.497 . S
C657 C658 1.395 . S
C657 C659 1.380 . S
C658 C657 1.395 . S
C658 C661 1.398 . S
C658 H668 0.930 . S
C659 C657 1.380 . S
C659 C660 1.391 . S
C659 H669 0.930 . S
C660 C659 1.391 . S
C660 C662 1.387 . S
C661 C658 1.398 . S
C661 C662 1.380 . S
C661 H670 0.930 . S
C662 C660 1.387 . S
C662 C661 1.380 . S
C662 H671 0.930 . S
C663 O640 1.254 . S
C663 O641 1.268 . S
H664 C649 0.930 . S
H665 C650 0.930 . S
H666 C652 0.930 . S
H667 C653 0.930 . S
H668 C658 0.930 . S
H669 C659 0.930 . S
H670 C661 0.930 . S
H671 C662 0.930 . S
C672 O684 1.241 . S
C672 O685 1.280 . S
C673 O686 1.277 . S
C673 O687 1.245 . S
C674 O698 1.247 . S
C674 O700 1.289 . S
Mg675 O676 1.926 1_455 S
Mg675 O685 1.984 1_455 S
Mg675 O687 1.988 1_455 S
Mg675 O688 2.061 . S
O676 Mg675 1.926 1_655 S
O676 Mg677 1.986 . S
O676 Mg678 1.917 1_655 S
Mg677 O676 1.986 . S
Mg677 O684 2.042 . S
Mg677 O686 2.041 . S
Mg677 O692 2.038 1_545 S
Mg677 O700 2.238 1_545 S
Mg678 O676 1.917 1_455 S
Mg678 O679 1.917 1_545 S
Mg678 O689 2.106 . S
Mg678 O691 2.079 1_445 S
Mg678 O700 2.106 1_445 S
Mg678 O701 2.079 . S
O679 Mg678 1.917 1_565 S
O679 Mg680 1.926 . S
O679 Mg681 1.986 1_565 S
Mg680 O679 1.926 . S
Mg680 O694 1.984 . S
Mg680 O697 1.988 . S
Mg680 O698 2.061 1_455 S
Mg681 O679 1.986 1_545 S
Mg681 O689 2.238 . S
Mg681 O693 2.042 1_545 S
Mg681 O695 2.041 1_545 S
Mg681 O702 2.038 . S
C682 O688 1.247 . S
C682 O689 1.289 . S
C683 O701 1.245 . S
C683 O702 1.274 . S
O684 C672 1.241 . S
O684 Mg677 2.042 . S
O685 C672 1.280 . S
O685 Mg675 1.984 1_655 S
O686 C673 1.277 . S
O686 Mg677 2.041 . S
O687 C673 1.245 . S
O687 Mg675 1.988 1_655 S
O688 Mg675 2.061 . S
O688 C682 1.247 . S
O689 Mg678 2.106 . S
O689 Mg681 2.238 . S
O689 C682 1.289 . S
C690 O691 1.245 . S
C690 O692 1.274 . S
O691 Mg678 2.079 1_665 S
O691 C690 1.245 . S
O692 Mg677 2.038 1_565 S
O692 C690 1.274 . S
O693 Mg681 2.042 1_565 S
O693 C696 1.241 . S
O694 Mg680 1.984 . S
O694 C696 1.280 . S
O695 Mg681 2.041 1_565 S
O695 C699 1.277 . S
C696 O693 1.241 . S
C696 O694 1.280 . S
O697 Mg680 1.988 . S
O697 C699 1.245 . S
O698 C674 1.247 . S
O698 Mg680 2.061 1_655 S
C699 O695 1.277 . S
C699 O697 1.245 . S
O700 C674 1.289 . S
O700 Mg677 2.238 1_565 S
O700 Mg678 2.106 1_665 S
O701 Mg678 2.079 . S
O701 C683 1.245 . S
O702 Mg681 2.038 . S
O702 C683 1.274 . S
C703 O715 1.241 . S
C703 O716 1.280 . S
C704 O717 1.277 . S
C704 O718 1.245 . S
C705 O729 1.247 . S
C705 O731 1.289 . S
Mg706 O707 1.926 . S
Mg706 O716 1.984 . S
Mg706 O718 1.988 1_554 S
Mg706 O719 2.061 . S
O707 Mg706 1.926 . S
O707 Mg708 1.983 1_554 S
O707 Mg709 1.917 . S
Mg708 O707 1.983 1_556 S
Mg708 O715 2.031 1_556 S
Mg708 O717 2.053 . S
Mg708 O723 2.027 1_546 S
Mg708 O731 2.247 1_545 S
Mg709 O707 1.917 . S
Mg709 O710 1.917 1_554 S
Mg709 O720 2.106 . S
Mg709 O722 2.079 1_545 S
Mg709 O731 2.106 1_544 S
Mg709 O732 2.079 1_554 S
O710 Mg709 1.917 1_556 S
O710 Mg711 1.926 1_545 S
O710 Mg712 1.986 1_556 S
Mg711 O710 1.926 1_565 S
Mg711 O725 1.984 . S
Mg711 O728 1.988 1_556 S
Mg711 O729 2.061 . S
Mg712 O710 1.986 1_554 S
Mg712 O720 2.238 . S
Mg712 O724 2.042 1_554 S
Mg712 O726 2.052 . S
Mg712 O733 2.038 1_554 S
C713 O719 1.247 . S
C713 O720 1.289 . S
C714 O732 1.245 . S
C714 O733 1.274 . S
O715 C703 1.241 . S
O715 Mg708 2.031 1_554 S
O716 C703 1.280 . S
O716 Mg706 1.984 . S
O717 C704 1.277 . S
O717 Mg708 2.053 . S
O718 C704 1.245 . S
O718 Mg706 1.988 1_556 S
O719 Mg706 2.061 . S
O719 C713 1.247 . S
O720 Mg709 2.106 . S
O720 Mg712 2.238 . S
O720 C713 1.289 . S
C721 O722 1.245 . S
C721 O723 1.274 . S
O722 Mg709 2.079 1_565 S
O722 C721 1.245 . S
O723 Mg708 2.027 1_564 S
O723 C721 1.274 . S
O724 Mg712 2.042 1_556 S
O724 C727 1.241 1_545 S
O725 Mg711 1.984 . S
O725 C727 1.280 . S
O726 Mg712 2.052 . S
O726 C730 1.266 1_545 S
C727 O724 1.241 1_565 S
C727 O725 1.280 . S
O728 Mg711 1.988 1_554 S
O728 C730 1.245 . S
O729 C705 1.247 . S
O729 Mg711 2.061 . S
C730 O726 1.266 1_565 S
C730 O728 1.245 . S
O731 C705 1.289 . S
O731 Mg708 2.247 1_565 S
O731 Mg709 2.106 1_566 S
O732 Mg709 2.079 1_556 S
O732 C714 1.245 . S
O733 Mg712 2.038 1_556 S
O733 C714 1.274 . S
C734 O746 1.241 . S
C734 O747 1.280 . S
C735 O748 1.277 1_556 S
C735 O749 1.245 1_556 S
C736 O760 1.247 1_556 S
C736 O762 1.287 1_556 S
Mg737 O738 1.926 1_455 S
Mg737 O747 1.984 1_455 S
Mg737 O749 1.988 1_455 S
Mg737 O750 2.061 . S
O738 Mg737 1.926 1_655 S
O738 Mg739 1.986 . S
O738 Mg740 1.917 1_655 S
Mg739 O738 1.986 . S
Mg739 O746 2.042 . S
Mg739 O748 2.041 . S
Mg739 O754 2.038 . S
Mg739 O762 2.238 . S
Mg740 O738 1.917 1_455 S
Mg740 O741 1.917 . S
Mg740 O751 2.106 . S
Mg740 O753 2.079 1_455 S
Mg740 O762 2.106 1_455 S
Mg740 O763 2.079 . S
O741 Mg740 1.917 . S
O741 Mg742 1.926 . S
O741 Mg743 1.986 . S
Mg742 O741 1.926 . S
Mg742 O756 1.983 . S
Mg742 O759 1.987 . S
Mg742 O760 2.063 1_455 S
Mg743 O741 1.986 . S
Mg743 O751 2.238 . S
Mg743 O755 2.042 . S
Mg743 O757 2.041 . S
Mg743 O764 2.038 . S
C744 O750 1.247 . S
C744 O751 1.289 . S
C745 O763 1.245 1_556 S
C745 O764 1.274 1_556 S
O746 C734 1.241 . S
O746 Mg739 2.042 . S
O747 C734 1.280 . S
O747 Mg737 1.984 1_655 S
O748 C735 1.277 1_554 S
O748 Mg739 2.041 . S
O749 C735 1.245 1_554 S
O749 Mg737 1.988 1_655 S
O750 Mg737 2.061 . S
O750 C744 1.247 . S
O751 Mg740 2.106 . S
O751 Mg743 2.238 . S
O751 C744 1.289 . S
C752 O753 1.245 . S
C752 O754 1.274 . S
O753 Mg740 2.079 1_655 S
O753 C752 1.245 . S
O754 Mg739 2.038 . S
O754 C752 1.274 . S
O755 Mg743 2.042 . S
O755 C758 1.241 . S
O756 Mg742 1.983 . S
O756 C758 1.280 . S
O757 Mg743 2.041 . S
O757 C761 1.277 . S
C758 O755 1.241 . S
C758 O756 1.280 . S
O759 Mg742 1.987 . S
O759 C761 1.245 . S
O760 C736 1.247 1_554 S
O760 Mg742 2.063 1_655 S
C761 O757 1.277 . S
C761 O759 1.245 . S
O762 C736 1.287 1_554 S
O762 Mg739 2.238 . S
O762 Mg740 2.106 1_655 S
O763 Mg740 2.079 . S
O763 C745 1.245 1_554 S
O764 Mg743 2.038 . S
O764 C745 1.274 1_554 S
C765 O777 1.241 . S
C765 O778 1.280 . S
C766 O779 1.277 . S
C766 O780 1.245 . S
C767 O791 1.247 . S
C767 O793 1.289 . S
Mg768 O769 1.926 . S
Mg768 O778 1.984 . S
Mg768 O780 1.988 1_554 S
Mg768 O781 2.061 . S
O769 Mg768 1.926 . S
O769 Mg770 1.986 . S
O769 Mg771 1.917 . S
Mg770 O769 1.986 . S
Mg770 O777 2.042 . S
Mg770 O779 2.041 1_554 S
Mg770 O785 2.038 . S
Mg770 O793 2.238 1_554 S
Mg771 O769 1.917 . S
Mg771 O772 1.917 . S
Mg771 O782 2.106 . S
Mg771 O784 2.079 . S
Mg771 O793 2.106 1_554 S
Mg771 O794 2.079 1_554 S
O772 Mg771 1.917 . S
O772 Mg773 1.926 . S
O772 Mg774 1.986 . S
Mg773 O772 1.926 . S
Mg773 O787 1.984 1_554 S
Mg773 O790 1.988 . S
Mg773 O791 2.061 1_554 S
Mg774 O772 1.986 . S
Mg774 O782 2.238 . S
Mg774 O786 2.044 1_554 S
Mg774 O788 2.041 . S
Mg774 O795 2.038 1_554 S
C775 O781 1.247 . S
C775 O782 1.289 . S
C776 O794 1.245 . S
C776 O795 1.274 . S
O777 C765 1.241 . S
O777 Mg770 2.042 . S
O778 C765 1.280 . S
O778 Mg768 1.984 . S
O779 C766 1.277 . S
O779 Mg770 2.041 1_556 S
O780 C766 1.245 . S
O780 Mg768 1.988 1_556 S
O781 Mg768 2.061 . S
O781 C775 1.247 . S
O782 Mg771 2.106 . S
O782 Mg774 2.238 . S
O782 C775 1.289 . S
C783 O784 1.245 . S
C783 O785 1.274 . S
O784 Mg771 2.079 . S
O784 C783 1.245 . S
O785 Mg770 2.038 . S
O785 C783 1.274 . S
O786 Mg774 2.044 1_556 S
O786 C789 1.240 . S
O787 Mg773 1.984 1_556 S
O787 C789 1.280 . S
O788 Mg774 2.041 . S
O788 C792 1.277 . S
C789 O786 1.240 . S
C789 O787 1.280 . S
O790 Mg773 1.988 . S
O790 C792 1.245 . S
O791 C767 1.247 . S
O791 Mg773 2.061 1_556 S
C792 O788 1.277 . S
C792 O790 1.245 . S
O793 C767 1.289 . S
O793 Mg770 2.238 1_556 S
O793 Mg771 2.106 1_556 S
O794 Mg771 2.079 1_556 S
O794 C776 1.245 . S
O795 Mg774 2.038 1_556 S
O795 C776 1.274 . S
C796 O808 1.241 . S
C796 O809 1.280 . S
C797 O810 1.277 . S
C797 O811 1.245 1_655 S
C798 O822 1.247 . S
C798 O824 1.289 . S
Mg799 O800 1.926 . S
Mg799 O809 1.984 1_455 S
Mg799 O811 1.988 . S
Mg799 O812 2.061 . S
O800 Mg799 1.926 . S
O800 Mg801 1.986 1_455 S
O800 Mg802 1.917 . S
Mg801 O800 1.986 1_655 S
Mg801 O808 2.042 . S
Mg801 O810 2.041 . S
Mg801 O816 2.038 . S
Mg801 O824 2.238 . S
Mg802 O800 1.917 . S
Mg802 O803 1.917 . S
Mg802 O813 2.106 . S
Mg802 O815 2.079 . S
Mg802 O824 2.106 1_455 S
Mg802 O825 2.079 . S
O803 Mg802 1.917 . S
O803 Mg804 1.926 . S
O803 Mg805 1.986 . S
Mg804 O803 1.926 . S
Mg804 O818 1.984 . S
Mg804 O821 1.988 . S
Mg804 O822 2.061 1_455 S
Mg805 O803 1.986 . S
Mg805 O813 2.238 . S
Mg805 O817 2.042 . S
Mg805 O819 2.041 . S
Mg805 O826 2.038 . S
C806 O812 1.247 . S
C806 O813 1.289 . S
C807 O825 1.245 . S
C807 O826 1.274 . S
O808 C796 1.241 . S
O808 Mg801 2.042 . S
O809 C796 1.280 . S
O809 Mg799 1.984 1_655 S
O810 C797 1.277 . S
O810 Mg801 2.041 . S
O811 C797 1.245 1_455 S
O811 Mg799 1.988 . S
O812 Mg799 2.061 . S
O812 C806 1.247 . S
O813 Mg802 2.106 . S
O813 Mg805 2.238 . S
O813 C806 1.289 . S
C814 O815 1.245 1_655 S
C814 O816 1.274 . S
O815 Mg802 2.079 . S
O815 C814 1.245 1_455 S
O816 Mg801 2.038 . S
O816 C814 1.274 . S
O817 Mg805 2.042 . S
O817 C820 1.241 . S
O818 Mg804 1.984 . S
O818 C820 1.280 . S
O819 Mg805 2.041 . S
O819 C823 1.277 . S
C820 O817 1.241 . S
C820 O818 1.280 . S
O821 Mg804 1.988 . S
O821 C823 1.245 . S
O822 C798 1.247 . S
O822 Mg804 2.061 1_655 S
C823 O819 1.277 . S
C823 O821 1.245 . S
O824 C798 1.289 . S
O824 Mg801 2.238 . S
O824 Mg802 2.106 1_655 S
O825 Mg802 2.079 . S
O825 C807 1.245 . S
O826 Mg805 2.038 . S
O826 C807 1.274 . S
C827 O839 1.241 . S
C827 O840 1.280 . S
C828 O841 1.277 . S
C828 O842 1.245 . S
C829 O853 1.247 . S
C829 O855 1.289 . S
Mg830 O831 1.926 . S
Mg830 O840 1.984 . S
Mg830 O842 1.988 . S
Mg830 O843 2.061 . S
O831 Mg830 1.926 . S
O831 Mg832 1.986 1_545 S
O831 Mg833 1.917 . S
Mg832 O831 1.986 1_565 S
Mg832 O839 2.042 1_565 S
Mg832 O841 2.041 1_565 S
Mg832 O847 2.038 . S
Mg832 O855 2.238 . S
Mg833 O831 1.917 . S
Mg833 O834 1.917 1_545 S
Mg833 O844 2.106 . S
Mg833 O846 2.079 1_545 S
Mg833 O855 2.106 1_545 S
Mg833 O856 2.079 . S
O834 Mg833 1.917 1_565 S
O834 Mg835 1.926 . S
O834 Mg836 1.986 1_565 S
Mg835 O834 1.926 . S
Mg835 O849 1.984 . S
Mg835 O852 1.988 . S
Mg835 O853 2.061 . S
Mg836 O834 1.986 1_545 S
Mg836 O844 2.238 . S
Mg836 O848 2.042 1_545 S
Mg836 O850 2.041 1_545 S
Mg836 O857 2.038 . S
C837 O843 1.247 . S
C837 O844 1.289 . S
C838 O856 1.245 . S
C838 O857 1.274 . S
O839 C827 1.241 . S
O839 Mg832 2.042 1_545 S
O840 C827 1.280 . S
O840 Mg830 1.984 . S
O841 C828 1.277 . S
O841 Mg832 2.041 1_545 S
O842 C828 1.245 . S
O842 Mg830 1.988 . S
O843 Mg830 2.061 . S
O843 C837 1.247 . S
O844 Mg833 2.106 . S
O844 Mg836 2.238 . S
O844 C837 1.289 . S
C845 O846 1.245 . S
C845 O847 1.274 . S
O846 Mg833 2.079 1_565 S
O846 C845 1.245 . S
O847 Mg832 2.038 . S
O847 C845 1.274 . S
O848 Mg836 2.042 1_565 S
O848 C851 1.241 . S
O849 Mg835 1.984 . S
O849 C851 1.280 . S
O850 Mg836 2.041 1_565 S
O850 C854 1.277 . S
C851 O848 1.241 . S
C851 O849 1.280 . S
O852 Mg835 1.988 . S
O852 C854 1.245 . S
O853 C829 1.247 . S
O853 Mg835 2.061 . S
C854 O850 1.277 . S
C854 O852 1.245 . S
O855 C829 1.289 . S
O855 Mg832 2.238 . S
O855 Mg833 2.106 1_565 S
O856 Mg833 2.079 . S
O856 C838 1.245 . S
O857 Mg836 2.038 . S
O857 C838 1.274 . S
C858 C859 1.369 . S
C858 C860 1.419 . S
C858 H862 0.930 . S
C859 C858 1.369 . S
C859 C868 1.429 . S
C860 C858 1.419 . S
C860 C861 1.363 . S
C860 H863 0.929 . S
C861 C860 1.363 . S
C861 C867 1.428 . S
H862 C858 0.930 . S
H863 C860 0.929 . S
S864 N865 1.613 . S
S864 N866 1.610 . S
N865 S864 1.613 . S
N865 C868 1.350 . S
N866 S864 1.610 . S
N866 C867 1.351 . S
C867 C861 1.428 . S
C867 N866 1.351 . S
C867 C868 1.434 . S
C868 C859 1.429 . S
C868 N865 1.350 . S
C868 C867 1.434 . S
C869 C870 1.369 . S
C869 C871 1.419 . S
C869 H873 0.930 . S
C870 C869 1.369 . S
C870 C879 1.429 . S
C871 C869 1.419 . S
C871 C872 1.363 . S
C871 H874 0.929 . S
C872 C871 1.363 . S
C872 C878 1.428 . S
H873 C869 0.930 . S
H874 C871 0.929 . S
S875 N876 1.613 . S
S875 N877 1.610 . S
N876 S875 1.613 . S
N876 C879 1.350 . S
N877 S875 1.610 . S
N877 C878 1.351 . S
C878 C872 1.428 . S
C878 N877 1.351 . S
C878 C879 1.434 . S
C879 C870 1.429 . S
C879 N876 1.350 . S
C879 C878 1.434 . S
C880 C881 1.369 . S
C880 C882 1.419 . S
C880 H884 0.930 . S
C881 C880 1.369 . S
C881 C890 1.429 . S
C882 C880 1.419 . S
C882 C883 1.363 . S
C882 H885 0.929 . S
C883 C882 1.363 . S
C883 C889 1.428 . S
H884 C880 0.930 . S
H885 C882 0.929 . S
S886 N887 1.613 1_545 S
S886 N888 1.610 . S
N887 S886 1.613 1_565 S
N887 C890 1.350 . S
N888 S886 1.610 . S
N888 C889 1.351 1_545 S
C889 C883 1.428 . S
C889 N888 1.351 1_565 S
C889 C890 1.434 . S
C890 C881 1.429 . S
C890 N887 1.350 . S
C890 C889 1.434 . S
C891 C892 1.369 . S
C891 C893 1.419 . S
C891 H895 0.930 . S
C892 C891 1.369 . S
C892 C901 1.429 . S
C893 C891 1.419 . S
C893 C894 1.363 . S
C893 H896 0.929 . S
C894 C893 1.363 . S
C894 C900 1.428 . S
H895 C891 0.930 . S
H896 C893 0.929 . S
S897 N898 1.613 . S
S897 N899 1.610 . S
N898 S897 1.613 . S
N898 C901 1.350 . S
N899 S897 1.610 . S
N899 C900 1.351 . S
C900 C894 1.428 . S
C900 N899 1.351 . S
C900 C901 1.434 . S
C901 C892 1.429 . S
C901 N898 1.350 . S
C901 C900 1.434 . S
C902 C903 1.369 . S
C902 C904 1.419 . S
C902 H906 0.930 . S
C903 C902 1.369 . S
C903 C912 1.429 . S
C904 C902 1.419 . S
C904 C905 1.363 . S
C904 H907 0.929 . S
C905 C904 1.363 . S
C905 C911 1.428 . S
H906 C902 0.930 . S
H907 C904 0.929 . S
S908 N909 1.613 . S
S908 N910 1.610 . S
N909 S908 1.613 . S
N909 C912 1.350 . S
N910 S908 1.610 . S
N910 C911 1.351 . S
C911 C905 1.428 . S
C911 N910 1.351 . S
C911 C912 1.434 . S
C912 C903 1.429 . S
C912 N909 1.350 . S
C912 C911 1.434 . S
C913 C914 1.369 . S
C913 C915 1.419 . S
C913 H917 0.930 . S
C914 C913 1.369 . S
C914 C923 1.429 . S
C915 C913 1.419 . S
C915 C916 1.363 . S
C915 H918 0.929 . S
C916 C915 1.363 . S
C916 C922 1.428 . S
H917 C913 0.930 . S
H918 C915 0.929 . S
S919 N920 1.613 . S
S919 N921 1.610 . S
N920 S919 1.613 . S
N920 C923 1.350 . S
N921 S919 1.610 . S
N921 C922 1.351 . S
C922 C916 1.428 . S
C922 N921 1.351 . S
C922 C923 1.434 . S
C923 C914 1.429 . S
C923 N920 1.350 . S
C923 C922 1.434 . S
C924 C925 1.369 . S
C924 C926 1.419 . S
C924 H928 0.930 . S
C925 C924 1.369 . S
C925 C934 1.429 . S
C926 C924 1.419 . S
C926 C927 1.363 . S
C926 H929 0.929 . S
C927 C926 1.363 . S
C927 C933 1.428 . S
H928 C924 0.930 . S
H929 C926 0.929 . S
S930 N931 1.613 . S
S930 N932 1.610 . S
N931 S930 1.613 . S
N931 C934 1.350 . S
N932 S930 1.610 . S
N932 C933 1.351 . S
C933 C927 1.428 . S
C933 N932 1.351 . S
C933 C934 1.434 . S
C934 C925 1.429 . S
C934 N931 1.350 . S
C934 C933 1.434 . S
C935 C936 1.369 . S
C935 C937 1.419 . S
C935 H939 0.930 . S
C936 C935 1.369 . S
C936 C945 1.429 . S
C937 C935 1.419 . S
C937 C938 1.363 . S
C937 H940 0.929 . S
C938 C937 1.363 . S
C938 C944 1.428 . S
H939 C935 0.930 . S
H940 C937 0.929 . S
S941 N942 1.613 . S
S941 N943 1.610 . S
N942 S941 1.613 . S
N942 C945 1.350 . S
N943 S941 1.610 . S
N943 C944 1.351 . S
C944 C938 1.428 . S
C944 N943 1.351 . S
C944 C945 1.434 . S
C945 C936 1.429 . S
C945 N942 1.350 . S
C945 C944 1.434 . S
C946 C947 1.369 . S
C946 C948 1.419 . S
C946 H950 0.930 . S
C947 C946 1.369 . S
C947 C956 1.429 . S
C948 C946 1.419 . S
C948 C949 1.363 . S
C948 H951 0.929 . S
C949 C948 1.363 . S
C949 C955 1.428 . S
H950 C946 0.930 . S
H951 C948 0.929 . S
S952 N953 1.613 . S
S952 N954 1.610 . S
N953 S952 1.613 . S
N953 C956 1.350 . S
N954 S952 1.610 . S
N954 C955 1.351 . S
C955 C949 1.428 . S
C955 N954 1.351 . S
C955 C956 1.434 . S
C956 C947 1.429 . S
C956 N953 1.350 . S
C956 C955 1.434 . S
C957 C958 1.369 . S
C957 C959 1.419 . S
C957 H961 0.930 . S
C958 C957 1.369 . S
C958 C967 1.429 . S
C959 C957 1.419 . S
C959 C960 1.363 . S
C959 H962 0.929 . S
C960 C959 1.363 . S
C960 C966 1.428 . S
H961 C957 0.930 . S
H962 C959 0.929 . S
S963 N964 1.613 . S
S963 N965 1.610 . S
N964 S963 1.613 . S
N964 C967 1.350 . S
N965 S963 1.610 . S
N965 C966 1.351 . S
C966 C960 1.428 . S
C966 N965 1.351 . S
C966 C967 1.434 . S
C967 C958 1.429 . S
C967 N964 1.350 . S
C967 C966 1.434 . S
C968 C969 1.369 . S
C968 C970 1.419 . S
C968 H972 0.930 . S
C969 C968 1.369 . S
C969 C978 1.429 . S
C970 C968 1.419 . S
C970 C971 1.363 . S
C970 H973 0.929 . S
C971 C970 1.363 . S
C971 C977 1.428 . S
H972 C968 0.930 . S
H973 C970 0.929 . S
S974 N975 1.613 . S
S974 N976 1.610 . S
N975 S974 1.613 . S
N975 C978 1.350 . S
N976 S974 1.610 . S
N976 C977 1.351 . S
C977 C971 1.428 . S
C977 N976 1.351 . S
C977 C978 1.434 . S
C978 C969 1.429 . S
C978 N975 1.350 . S
C978 C977 1.434 . S
C979 C980 1.369 . S
C979 C981 1.419 . S
C979 H983 0.930 . S
C980 C979 1.369 . S
C980 C989 1.429 . S
C981 C979 1.419 . S
C981 C982 1.363 . S
C981 H984 0.929 . S
C982 C981 1.363 . S
C982 C988 1.428 . S
H983 C979 0.930 . S
H984 C981 0.929 . S
S985 N986 1.613 . S
S985 N987 1.610 . S
N986 S985 1.613 . S
N986 C989 1.350 . S
N987 S985 1.610 . S
N987 C988 1.351 . S
C988 C982 1.428 . S
C988 N987 1.351 . S
C988 C989 1.434 . S
C989 C980 1.429 . S
C989 N986 1.350 . S
C989 C988 1.434 . S
C990 C991 1.369 . S
C990 C992 1.419 . S
C990 H994 0.930 . S
C991 C990 1.369 . S
C991 C1000 1.429 . S
C992 C990 1.419 . S
C992 C993 1.363 . S
C992 H995 0.929 . S
C993 C992 1.363 . S
C993 C999 1.428 . S
H994 C990 0.930 . S
H995 C992 0.929 . S
S996 N997 1.613 . S
S996 N998 1.610 . S
N997 S996 1.613 . S
N997 C1000 1.350 . S
N998 S996 1.610 . S
N998 C999 1.351 . S
C999 C993 1.428 . S
C999 N998 1.351 . S
C999 C1000 1.434 . S
C1000 C991 1.429 . S
C1000 N997 1.350 . S
C1000 C999 1.434 . S
C1001 C1002 1.369 . S
C1001 C1003 1.419 . S
C1001 H1005 0.930 . S
C1002 C1001 1.369 . S
C1002 C1011 1.429 . S
C1003 C1001 1.419 . S
C1003 C1004 1.363 . S
C1003 H1006 0.929 . S
C1004 C1003 1.363 . S
C1004 C1010 1.428 . S
H1005 C1001 0.930 . S
H1006 C1003 0.929 . S
S1007 N1008 1.597 1_554 S
S1007 N1009 1.610 . S
N1008 S1007 1.597 1_556 S
N1008 C1011 1.359 . S
N1009 S1007 1.610 . S
N1009 C1010 1.351 1_554 S
C1010 C1004 1.428 . S
C1010 N1009 1.351 1_556 S
C1010 C1011 1.434 . S
C1011 C1002 1.429 . S
C1011 N1008 1.359 . S
C1011 C1010 1.434 . S
C1012 C1013 1.369 . S
C1012 C1014 1.419 . S
C1012 H1016 0.930 . S
C1013 C1012 1.369 . S
C1013 C1022 1.429 . S
C1014 C1012 1.419 . S
C1014 C1015 1.363 . S
C1014 H1017 0.929 . S
C1015 C1014 1.363 . S
C1015 C1021 1.428 . S
H1016 C1012 0.930 . S
H1017 C1014 0.929 . S
S1018 N1019 1.613 . S
S1018 N1020 1.610 . S
N1019 S1018 1.613 . S
N1019 C1022 1.350 . S
N1020 S1018 1.610 . S
N1020 C1021 1.351 . S
C1021 C1015 1.428 . S
C1021 N1020 1.351 . S
C1021 C1022 1.434 . S
C1022 C1013 1.429 . S
C1022 N1019 1.350 . S
C1022 C1021 1.434 . S
C1023 C1024 1.369 . S
C1023 C1025 1.419 . S
C1023 H1027 0.930 . S
C1024 C1023 1.369 . S
C1024 C1033 1.429 . S
C1025 C1023 1.419 . S
C1025 C1026 1.363 . S
C1025 H1028 0.929 . S
C1026 C1025 1.363 . S
C1026 C1032 1.428 . S
H1027 C1023 0.930 . S
H1028 C1025 0.929 . S
S1029 N1030 1.613 . S
S1029 N1031 1.610 . S
N1030 S1029 1.613 . S
N1030 C1033 1.350 . S
N1031 S1029 1.610 . S
N1031 C1032 1.351 . S
C1032 C1026 1.428 . S
C1032 N1031 1.351 . S
C1032 C1033 1.434 . S
C1033 C1024 1.429 . S
C1033 N1030 1.350 . S
C1033 C1032 1.434 . S
C1034 C1035 1.369 . S
C1034 C1036 1.419 . S
C1034 H1038 0.930 . S
C1035 C1034 1.369 . S
C1035 C1044 1.429 . S
C1036 C1034 1.419 . S
C1036 C1037 1.363 . S
C1036 H1039 0.929 . S
C1037 C1036 1.363 . S
C1037 C1043 1.428 . S
H1038 C1034 0.930 . S
H1039 C1036 0.929 . S
S1040 N1041 1.613 . S
S1040 N1042 1.610 . S
N1041 S1040 1.613 . S
N1041 C1044 1.350 . S
N1042 S1040 1.610 . S
N1042 C1043 1.351 . S
C1043 C1037 1.428 . S
C1043 N1042 1.351 . S
C1043 C1044 1.434 . S
C1044 C1035 1.429 . S
C1044 N1041 1.350 . S
C1044 C1043 1.434 . S
C1045 C1046 1.369 . S
C1045 C1047 1.419 . S
C1045 H1049 0.930 . S
C1046 C1045 1.369 . S
C1046 C1055 1.429 . S
C1047 C1045 1.419 . S
C1047 C1048 1.363 . S
C1047 H1050 0.929 . S
C1048 C1047 1.363 . S
C1048 C1054 1.428 . S
H1049 C1045 0.930 . S
H1050 C1047 0.929 . S
S1051 N1052 1.613 . S
S1051 N1053 1.610 . S
N1052 S1051 1.613 . S
N1052 C1055 1.350 . S
N1053 S1051 1.610 . S
N1053 C1054 1.351 . S
C1054 C1048 1.428 . S
C1054 N1053 1.351 . S
C1054 C1055 1.434 . S
C1055 C1046 1.429 . S
C1055 N1052 1.350 . S
C1055 C1054 1.434 . S
C1056 C1057 1.369 . S
C1056 C1058 1.419 . S
C1056 H1060 0.930 . S
C1057 C1056 1.369 . S
C1057 C1066 1.429 . S
C1058 C1056 1.419 . S
C1058 C1059 1.363 . S
C1058 H1061 0.929 . S
C1059 C1058 1.363 . S
C1059 C1065 1.428 . S
H1060 C1056 0.930 . S
H1061 C1058 0.929 . S
S1062 N1063 1.613 . S
S1062 N1064 1.610 . S
N1063 S1062 1.613 . S
N1063 C1066 1.350 . S
N1064 S1062 1.610 . S
N1064 C1065 1.351 . S
C1065 C1059 1.428 . S
C1065 N1064 1.351 . S
C1065 C1066 1.434 . S
C1066 C1057 1.429 . S
C1066 N1063 1.350 . S
C1066 C1065 1.434 . S
C1067 C1068 1.369 . S
C1067 C1069 1.419 . S
C1067 H1071 0.930 . S
C1068 C1067 1.369 . S
C1068 C1077 1.429 . S
C1069 C1067 1.419 . S
C1069 C1070 1.363 . S
C1069 H1072 0.929 . S
C1070 C1069 1.363 . S
C1070 C1076 1.428 . S
H1071 C1067 0.930 . S
H1072 C1069 0.929 . S
S1073 N1074 1.613 . S
S1073 N1075 1.610 . S
N1074 S1073 1.613 . S
N1074 C1077 1.350 . S
N1075 S1073 1.610 . S
N1075 C1076 1.351 . S
C1076 C1070 1.428 . S
C1076 N1075 1.351 . S
C1076 C1077 1.434 . S
C1077 C1068 1.429 . S
C1077 N1074 1.350 . S
C1077 C1076 1.434 . S
C1078 C1079 1.369 1_545 S
C1078 C1080 1.419 . S
C1078 H1082 0.930 . S
C1079 C1078 1.369 1_565 S
C1079 C1088 1.429 . S
C1080 C1078 1.419 . S
C1080 C1081 1.363 1_545 S
C1080 H1083 0.929 . S
C1081 C1080 1.363 1_565 S
C1081 C1087 1.428 . S
H1082 C1078 0.930 . S
H1083 C1080 0.929 . S
S1084 N1085 1.613 . S
S1084 N1086 1.610 . S
N1085 S1084 1.613 . S
N1085 C1088 1.350 . S
N1086 S1084 1.610 . S
N1086 C1087 1.351 . S
C1087 C1081 1.428 . S
C1087 N1086 1.351 . S
C1087 C1088 1.434 . S
C1088 C1079 1.429 . S
C1088 N1085 1.350 . S
C1088 C1087 1.434 . S
C1089 C1090 1.369 . S
C1089 C1091 1.419 . S
C1089 H1093 0.930 . S
C1090 C1089 1.369 . S
C1090 C1099 1.429 . S
C1091 C1089 1.419 . S
C1091 C1092 1.363 . S
C1091 H1094 0.929 . S
C1092 C1091 1.363 . S
C1092 C1098 1.428 . S
H1093 C1089 0.930 . S
H1094 C1091 0.929 . S
S1095 N1096 1.613 . S
S1095 N1097 1.610 . S
N1096 S1095 1.613 . S
N1096 C1099 1.350 . S
N1097 S1095 1.610 . S
N1097 C1098 1.351 . S
C1098 C1092 1.428 . S
C1098 N1097 1.351 . S
C1098 C1099 1.434 . S
C1099 C1090 1.429 . S
C1099 N1096 1.350 . S
C1099 C1098 1.434 . S
C1100 C1101 1.369 . S
C1100 C1102 1.419 . S
C1100 H1104 0.930 . S
C1101 C1100 1.369 . S
C1101 C1110 1.429 . S
C1102 C1100 1.419 . S
C1102 C1103 1.363 . S
C1102 H1105 0.929 . S
C1103 C1102 1.363 . S
C1103 C1109 1.428 . S
H1104 C1100 0.930 . S
H1105 C1102 0.929 . S
S1106 N1107 1.613 . S
S1106 N1108 1.610 . S
N1107 S1106 1.613 . S
N1107 C1110 1.350 . S
N1108 S1106 1.610 . S
N1108 C1109 1.351 . S
C1109 C1103 1.428 . S
C1109 N1108 1.351 . S
C1109 C1110 1.434 . S
C1110 C1101 1.429 . S
C1110 N1107 1.350 . S
C1110 C1109 1.434 . S
C1111 C1112 1.369 . S
C1111 C1113 1.419 . S
C1111 H1115 0.930 . S
C1112 C1111 1.369 . S
C1112 C1121 1.429 . S
C1113 C1111 1.419 . S
C1113 C1114 1.363 . S
C1113 H1116 0.929 . S
C1114 C1113 1.363 . S
C1114 C1120 1.428 . S
H1115 C1111 0.930 . S
H1116 C1113 0.929 . S
S1117 N1118 1.613 . S
S1117 N1119 1.610 . S
N1118 S1117 1.613 . S
N1118 C1121 1.350 . S
N1119 S1117 1.610 . S
N1119 C1120 1.351 . S
C1120 C1114 1.428 . S
C1120 N1119 1.351 . S
C1120 C1121 1.434 . S
C1121 C1112 1.429 . S
C1121 N1118 1.350 . S
C1121 C1120 1.434 . S
C1122 C1123 1.369 . S
C1122 C1124 1.419 . S
C1122 H1126 0.930 . S
C1123 C1122 1.369 . S
C1123 C1132 1.429 . S
C1124 C1122 1.419 . S
C1124 C1125 1.363 . S
C1124 H1127 0.929 . S
C1125 C1124 1.363 . S
C1125 C1131 1.428 . S
H1126 C1122 0.930 . S
H1127 C1124 0.929 . S
S1128 N1129 1.613 . S
S1128 N1130 1.610 . S
N1129 S1128 1.613 . S
N1129 C1132 1.350 . S
N1130 S1128 1.610 . S
N1130 C1131 1.351 . S
C1131 C1125 1.428 . S
C1131 N1130 1.351 . S
C1131 C1132 1.434 . S
C1132 C1123 1.429 . S
C1132 N1129 1.350 . S
C1132 C1131 1.434 . S
C1133 C1134 1.369 . S
C1133 C1135 1.419 . S
C1133 H1137 0.930 . S
C1134 C1133 1.369 . S
C1134 C1143 1.429 . S
C1135 C1133 1.419 . S
C1135 C1136 1.363 . S
C1135 H1138 0.929 . S
C1136 C1135 1.363 . S
C1136 C1142 1.428 . S
H1137 C1133 0.930 . S
H1138 C1135 0.929 . S
S1139 N1140 1.613 . S
S1139 N1141 1.610 . S
N1140 S1139 1.613 . S
N1140 C1143 1.350 . S
N1141 S1139 1.610 . S
N1141 C1142 1.351 . S
C1142 C1136 1.428 . S
C1142 N1141 1.351 . S
C1142 C1143 1.434 . S
C1143 C1134 1.429 . S
C1143 N1140 1.350 . S
C1143 C1142 1.434 . S
C1144 C1145 1.369 . S
C1144 C1146 1.419 . S
C1144 H1148 0.930 . S
C1145 C1144 1.369 . S
C1145 C1154 1.429 . S
C1146 C1144 1.419 . S
C1146 C1147 1.363 . S
C1146 H1149 0.929 . S
C1147 C1146 1.363 . S
C1147 C1153 1.428 . S
H1148 C1144 0.930 . S
H1149 C1146 0.929 . S
S1150 N1151 1.613 . S
S1150 N1152 1.610 . S
N1151 S1150 1.613 . S
N1151 C1154 1.350 . S
N1152 S1150 1.610 . S
N1152 C1153 1.351 . S
C1153 C1147 1.428 . S
C1153 N1152 1.351 . S
C1153 C1154 1.434 . S
C1154 C1145 1.429 . S
C1154 N1151 1.350 . S
C1154 C1153 1.434 . S
C1155 C1156 1.369 . S
C1155 C1157 1.419 . S
C1155 H1159 0.930 . S
C1156 C1155 1.369 . S
C1156 C1165 1.429 . S
C1157 C1155 1.419 . S
C1157 C1158 1.363 . S
C1157 H1160 0.929 . S
C1158 C1157 1.363 . S
C1158 C1164 1.428 . S
H1159 C1155 0.930 . S
H1160 C1157 0.929 . S
S1161 N1162 1.613 . S
S1161 N1163 1.610 . S
N1162 S1161 1.613 . S
N1162 C1165 1.350 . S
N1163 S1161 1.610 . S
N1163 C1164 1.351 . S
C1164 C1158 1.428 . S
C1164 N1163 1.351 . S
C1164 C1165 1.434 . S
C1165 C1156 1.429 . S
C1165 N1162 1.350 . S
C1165 C1164 1.434 . S
C1166 C1167 1.369 . S
C1166 C1168 1.419 . S
C1166 H1170 0.930 . S
C1167 C1166 1.369 . S
C1167 C1176 1.429 . S
C1168 C1166 1.419 . S
C1168 C1169 1.363 . S
C1168 H1171 0.929 . S
C1169 C1168 1.363 . S
C1169 C1175 1.428 . S
H1170 C1166 0.930 . S
H1171 C1168 0.929 . S
S1172 N1173 1.613 . S
S1172 N1174 1.610 . S
N1173 S1172 1.613 . S
N1173 C1176 1.350 . S
N1174 S1172 1.610 . S
N1174 C1175 1.351 . S
C1175 C1169 1.428 . S
C1175 N1174 1.351 . S
C1175 C1176 1.434 . S
C1176 C1167 1.429 . S
C1176 N1173 1.350 . S
C1176 C1175 1.434 . S
C1177 C1178 1.369 . S
C1177 C1179 1.419 . S
C1177 H1181 0.930 . S
C1178 C1177 1.369 . S
C1178 C1187 1.429 . S
C1179 C1177 1.419 . S
C1179 C1180 1.363 . S
C1179 H1182 0.929 . S
C1180 C1179 1.363 . S
C1180 C1186 1.428 . S
H1181 C1177 0.930 . S
H1182 C1179 0.929 . S
S1183 N1184 1.613 . S
S1183 N1185 1.610 . S
N1184 S1183 1.613 . S
N1184 C1187 1.350 . S
N1185 S1183 1.610 . S
N1185 C1186 1.351 . S
C1186 C1180 1.428 . S
C1186 N1185 1.351 . S
C1186 C1187 1.434 . S
C1187 C1178 1.429 . S
C1187 N1184 1.350 . S
C1187 C1186 1.434 . S
C1188 C1189 1.369 . S
C1188 C1190 1.419 . S
C1188 H1192 0.930 . S
C1189 C1188 1.369 . S
C1189 C1198 1.429 . S
C1190 C1188 1.419 . S
C1190 C1191 1.363 . S
C1190 H1193 0.929 . S
C1191 C1190 1.363 . S
C1191 C1197 1.428 . S
H1192 C1188 0.930 . S
H1193 C1190 0.929 . S
S1194 N1195 1.613 . S
S1194 N1196 1.610 . S
N1195 S1194 1.613 . S
N1195 C1198 1.350 . S
N1196 S1194 1.610 . S
N1196 C1197 1.351 . S
C1197 C1191 1.428 . S
C1197 N1196 1.351 . S
C1197 C1198 1.434 . S
C1198 C1189 1.429 . S
C1198 N1195 1.350 . S
C1198 C1197 1.434 . S
C1199 C1200 1.369 . S
C1199 C1201 1.419 . S
C1199 H1203 0.930 . S
C1200 C1199 1.369 . S
C1200 C1209 1.429 . S
C1201 C1199 1.419 . S
C1201 C1202 1.363 . S
C1201 H1204 0.929 . S
C1202 C1201 1.363 . S
C1202 C1208 1.428 . S
H1203 C1199 0.930 . S
H1204 C1201 0.929 . S
S1205 N1206 1.613 . S
S1205 N1207 1.610 . S
N1206 S1205 1.613 . S
N1206 C1209 1.350 . S
N1207 S1205 1.610 . S
N1207 C1208 1.351 . S
C1208 C1202 1.428 . S
C1208 N1207 1.351 . S
C1208 C1209 1.434 . S
C1209 C1200 1.429 . S
C1209 N1206 1.350 . S
C1209 C1208 1.434 . S
C1210 C1211 1.369 . S
C1210 C1212 1.419 . S
C1210 H1214 0.930 . S
C1211 C1210 1.369 . S
C1211 C1220 1.429 . S
C1212 C1210 1.419 . S
C1212 C1213 1.363 . S
C1212 H1215 0.929 . S
C1213 C1212 1.363 . S
C1213 C1219 1.428 . S
H1214 C1210 0.930 . S
H1215 C1212 0.929 . S
S1216 N1217 1.613 . S
S1216 N1218 1.610 . S
N1217 S1216 1.613 . S
N1217 C1220 1.350 . S
N1218 S1216 1.610 . S
N1218 C1219 1.351 . S
C1219 C1213 1.428 . S
C1219 N1218 1.351 . S
C1219 C1220 1.434 . S
C1220 C1211 1.429 . S
C1220 N1217 1.350 . S
C1220 C1219 1.434 . S
C1221 C1222 1.369 . S
C1221 C1223 1.419 . S
C1221 H1225 0.930 . S
C1222 C1221 1.369 . S
C1222 C1231 1.429 . S
C1223 C1221 1.419 . S
C1223 C1224 1.363 . S
C1223 H1226 0.929 . S
C1224 C1223 1.363 . S
C1224 C1230 1.428 . S
H1225 C1221 0.930 . S
H1226 C1223 0.929 . S
S1227 N1228 1.613 . S
S1227 N1229 1.610 . S
N1228 S1227 1.613 . S
N1228 C1231 1.350 . S
N1229 S1227 1.610 . S
N1229 C1230 1.351 . S
C1230 C1224 1.428 . S
C1230 N1229 1.351 . S
C1230 C1231 1.434 . S
C1231 C1222 1.429 . S
C1231 N1228 1.350 . S
C1231 C1230 1.434 . S
C1232 C1233 1.369 . S
C1232 C1234 1.419 . S
C1232 H1236 0.930 . S
C1233 C1232 1.369 . S
C1233 C1242 1.429 . S
C1234 C1232 1.419 . S
C1234 C1235 1.363 . S
C1234 H1237 0.929 . S
C1235 C1234 1.363 . S
C1235 C1241 1.428 . S
H1236 C1232 0.930 . S
H1237 C1234 0.929 . S
S1238 N1239 1.613 . S
S1238 N1240 1.610 . S
N1239 S1238 1.613 . S
N1239 C1242 1.350 . S
N1240 S1238 1.610 . S
N1240 C1241 1.351 . S
C1241 C1235 1.428 . S
C1241 N1240 1.351 . S
C1241 C1242 1.434 . S
C1242 C1233 1.429 . S
C1242 N1239 1.350 . S
C1242 C1241 1.434 . S
C1243 C1244 1.369 . S
C1243 C1245 1.419 . S
C1243 H1247 0.930 . S
C1244 C1243 1.369 . S
C1244 C1253 1.429 . S
C1245 C1243 1.419 . S
C1245 C1246 1.363 . S
C1245 H1248 0.929 . S
C1246 C1245 1.363 . S
C1246 C1252 1.428 . S
H1247 C1243 0.930 . S
H1248 C1245 0.929 . S
S1249 N1250 1.613 . S
S1249 N1251 1.610 . S
N1250 S1249 1.613 . S
N1250 C1253 1.350 . S
N1251 S1249 1.610 . S
N1251 C1252 1.351 . S
C1252 C1246 1.428 . S
C1252 N1251 1.351 . S
C1252 C1253 1.434 . S
C1253 C1244 1.429 . S
C1253 N1250 1.350 . S
C1253 C1252 1.434 . S
C1254 C1255 1.369 . S
C1254 C1256 1.419 . S
C1254 H1258 0.930 . S
C1255 C1254 1.369 . S
C1255 C1264 1.429 . S
C1256 C1254 1.419 . S
C1256 C1257 1.363 . S
C1256 H1259 0.929 . S
C1257 C1256 1.363 . S
C1257 C1263 1.428 . S
H1258 C1254 0.930 . S
H1259 C1256 0.929 . S
S1260 N1261 1.613 . S
S1260 N1262 1.610 . S
N1261 S1260 1.613 . S
N1261 C1264 1.350 . S
N1262 S1260 1.610 . S
N1262 C1263 1.351 . S
C1263 C1257 1.428 . S
C1263 N1262 1.351 . S
C1263 C1264 1.434 . S
C1264 C1255 1.429 . S
C1264 N1261 1.350 . S
C1264 C1263 1.434 . S
C1265 C1266 1.369 . S
C1265 C1267 1.419 . S
C1265 H1269 0.930 . S
C1266 C1265 1.369 . S
C1266 C1275 1.429 . S
C1267 C1265 1.419 . S
C1267 C1268 1.363 . S
C1267 H1270 0.929 . S
C1268 C1267 1.363 . S
C1268 C1274 1.428 . S
H1269 C1265 0.930 . S
H1270 C1267 0.929 . S
S1271 N1272 1.613 . S
S1271 N1273 1.610 . S
N1272 S1271 1.613 . S
N1272 C1275 1.350 . S
N1273 S1271 1.610 . S
N1273 C1274 1.351 . S
C1274 C1268 1.428 . S
C1274 N1273 1.351 . S
C1274 C1275 1.434 . S
C1275 C1266 1.429 . S
C1275 N1272 1.350 . S
C1275 C1274 1.434 . S
C1276 C1277 1.369 . S
C1276 C1278 1.419 . S
C1276 H1280 0.930 . S
C1277 C1276 1.369 . S
C1277 C1286 1.429 . S
C1278 C1276 1.419 . S
C1278 C1279 1.363 . S
C1278 H1281 0.929 . S
C1279 C1278 1.363 . S
C1279 C1285 1.428 . S
H1280 C1276 0.930 . S
H1281 C1278 0.929 . S
S1282 N1283 1.613 . S
S1282 N1284 1.610 . S
N1283 S1282 1.613 . S
N1283 C1286 1.350 . S
N1284 S1282 1.610 . S
N1284 C1285 1.351 . S
C1285 C1279 1.428 . S
C1285 N1284 1.351 . S
C1285 C1286 1.434 . S
C1286 C1277 1.429 . S
C1286 N1283 1.350 . S
C1286 C1285 1.434 . S
C1287 C1288 1.369 . S
C1287 C1289 1.419 . S
C1287 H1291 0.930 . S
C1288 C1287 1.369 . S
C1288 C1297 1.429 . S
C1289 C1287 1.419 . S
C1289 C1290 1.363 . S
C1289 H1292 0.929 . S
C1290 C1289 1.363 . S
C1290 C1296 1.428 . S
H1291 C1287 0.930 . S
H1292 C1289 0.929 . S
S1293 N1294 1.613 . S
S1293 N1295 1.610 . S
N1294 S1293 1.613 . S
N1294 C1297 1.350 . S
N1295 S1293 1.610 . S
N1295 C1296 1.351 . S
C1296 C1290 1.428 . S
C1296 N1295 1.351 . S
C1296 C1297 1.434 . S
C1297 C1288 1.429 . S
C1297 N1294 1.350 . S
C1297 C1296 1.434 . S
C1298 C1299 1.369 . S
C1298 C1300 1.419 . S
C1298 H1302 0.930 . S
C1299 C1298 1.369 . S
C1299 C1308 1.429 . S
C1300 C1298 1.419 . S
C1300 C1301 1.363 . S
C1300 H1303 0.929 . S
C1301 C1300 1.363 . S
C1301 C1307 1.428 . S
H1302 C1298 0.930 . S
H1303 C1300 0.929 . S
S1304 N1305 1.613 . S
S1304 N1306 1.610 . S
N1305 S1304 1.613 . S
N1305 C1308 1.350 . S
N1306 S1304 1.610 . S
N1306 C1307 1.351 . S
C1307 C1301 1.428 . S
C1307 N1306 1.351 . S
C1307 C1308 1.434 . S
C1308 C1299 1.429 . S
C1308 N1305 1.350 . S
C1308 C1307 1.434 . S
C1309 C1310 1.369 . S
C1309 C1311 1.419 . S
C1309 H1313 0.930 . S
C1310 C1309 1.369 . S
C1310 C1319 1.429 . S
C1311 C1309 1.419 . S
C1311 C1312 1.363 . S
C1311 H1314 0.929 . S
C1312 C1311 1.363 . S
C1312 C1318 1.428 . S
H1313 C1309 0.930 . S
H1314 C1311 0.929 . S
S1315 N1316 1.613 . S
S1315 N1317 1.610 . S
N1316 S1315 1.613 . S
N1316 C1319 1.350 . S
N1317 S1315 1.610 . S
N1317 C1318 1.351 . S
C1318 C1312 1.428 . S
C1318 N1317 1.351 . S
C1318 C1319 1.434 . S
C1319 C1310 1.429 . S
C1319 N1316 1.350 . S
C1319 C1318 1.434 . S
C1320 C1321 1.369 . S
C1320 C1322 1.419 . S
C1320 H1324 0.930 . S
C1321 C1320 1.369 . S
C1321 C1330 1.429 . S
C1322 C1320 1.419 . S
C1322 C1323 1.363 . S
C1322 H1325 0.929 . S
C1323 C1322 1.363 . S
C1323 C1329 1.428 . S
H1324 C1320 0.930 . S
H1325 C1322 0.929 . S
S1326 N1327 1.613 . S
S1326 N1328 1.610 . S
N1327 S1326 1.613 . S
N1327 C1330 1.350 . S
N1328 S1326 1.610 . S
N1328 C1329 1.351 . S
C1329 C1323 1.428 . S
C1329 N1328 1.351 . S
C1329 C1330 1.434 . S
C1330 C1321 1.429 . S
C1330 N1327 1.350 . S
C1330 C1329 1.434 . S
C1331 C1332 1.369 . S
C1331 C1333 1.419 . S
C1331 H1335 0.930 . S
C1332 C1331 1.369 . S
C1332 C1341 1.429 . S
C1333 C1331 1.419 . S
C1333 C1334 1.363 . S
C1333 H1336 0.929 . S
C1334 C1333 1.363 . S
C1334 C1340 1.428 . S
H1335 C1331 0.930 . S
H1336 C1333 0.929 . S
S1337 N1338 1.613 . S
S1337 N1339 1.610 . S
N1338 S1337 1.613 . S
N1338 C1341 1.350 . S
N1339 S1337 1.610 . S
N1339 C1340 1.351 . S
C1340 C1334 1.428 . S
C1340 N1339 1.351 . S
C1340 C1341 1.434 . S
C1341 C1332 1.429 . S
C1341 N1338 1.350 . S
C1341 C1340 1.434 . S
C1342 C1343 1.369 . S
C1342 C1344 1.419 . S
C1342 H1346 0.930 . S
C1343 C1342 1.369 . S
C1343 C1352 1.429 . S
C1344 C1342 1.419 . S
C1344 C1345 1.363 . S
C1344 H1347 0.929 . S
C1345 C1344 1.363 . S
C1345 C1351 1.428 . S
H1346 C1342 0.930 . S
H1347 C1344 0.929 . S
S1348 N1349 1.613 . S
S1348 N1350 1.610 . S
N1349 S1348 1.613 . S
N1349 C1352 1.350 . S
N1350 S1348 1.610 . S
N1350 C1351 1.351 . S
C1351 C1345 1.428 . S
C1351 N1350 1.351 . S
C1351 C1352 1.434 . S
C1352 C1343 1.429 . S
C1352 N1349 1.350 . S
C1352 C1351 1.434 . S
C1353 C1354 1.369 . S
C1353 C1355 1.419 . S
C1353 H1357 0.930 . S
C1354 C1353 1.369 . S
C1354 C1363 1.429 . S
C1355 C1353 1.419 . S
C1355 C1356 1.363 . S
C1355 H1358 0.929 . S
C1356 C1355 1.363 . S
C1356 C1362 1.428 . S
H1357 C1353 0.930 . S
H1358 C1355 0.929 . S
S1359 N1360 1.613 . S
S1359 N1361 1.610 . S
N1360 S1359 1.613 . S
N1360 C1363 1.350 . S
N1361 S1359 1.610 . S
N1361 C1362 1.351 . S
C1362 C1356 1.428 . S
C1362 N1361 1.351 . S
C1362 C1363 1.434 . S
C1363 C1354 1.429 . S
C1363 N1360 1.350 . S
C1363 C1362 1.434 . S
C1364 C1365 1.369 . S
C1364 C1366 1.419 . S
C1364 H1368 0.930 . S
C1365 C1364 1.369 . S
C1365 C1374 1.429 . S
C1366 C1364 1.419 . S
C1366 C1367 1.363 . S
C1366 H1369 0.929 . S
C1367 C1366 1.363 . S
C1367 C1373 1.428 . S
H1368 C1364 0.930 . S
H1369 C1366 0.929 . S
S1370 N1371 1.613 . S
S1370 N1372 1.610 . S
N1371 S1370 1.613 . S
N1371 C1374 1.350 . S
N1372 S1370 1.610 . S
N1372 C1373 1.351 . S
C1373 C1367 1.428 . S
C1373 N1372 1.351 . S
C1373 C1374 1.434 . S
C1374 C1365 1.429 . S
C1374 N1371 1.350 . S
C1374 C1373 1.434 . S
C1375 C1376 1.369 . S
C1375 C1377 1.419 . S
C1375 H1379 0.930 . S
C1376 C1375 1.369 . S
C1376 C1385 1.429 . S
C1377 C1375 1.419 . S
C1377 C1378 1.363 . S
C1377 H1380 0.929 . S
C1378 C1377 1.363 . S
C1378 C1384 1.428 . S
H1379 C1375 0.930 . S
H1380 C1377 0.929 . S
S1381 N1382 1.613 . S
S1381 N1383 1.610 . S
N1382 S1381 1.613 . S
N1382 C1385 1.350 . S
N1383 S1381 1.610 . S
N1383 C1384 1.351 . S
C1384 C1378 1.428 . S
C1384 N1383 1.351 . S
C1384 C1385 1.434 . S
C1385 C1376 1.429 . S
C1385 N1382 1.350 . S
C1385 C1384 1.434 . S
C861 C683 1.653 . S
C859 C75 1.535 . S
C872 C673 0.725 . S
C870 C156 0.747 . S
C883 C674 1.387 . S
C881 C243 1.272 . S
C892 C315 0.752 . S
C894 C696 0.783 . S
C903 C399 0.810 . S
C905 C699 0.734 . S
C916 C682 1.410 . S
C914 C495 1.281 . S
C925 C576 1.105 . S
C927 C672 1.149 . S
C936 C654 1.539 . S
C938 C690 1.625 . S
C949 C703 0.946 . S
C947 C72 0.922 . S
C958 C140 1.422 . S
C960 C752 1.412 . S
C971 C730 1.110 . S
C969 C240 1.182 . S
C982 C744 0.904 . S
C980 C318 0.881 . S
C991 C402 0.874 . S
C993 C705 0.860 . S
C1004 C758 1.559 1_556 S
C1002 C492 1.622 . S
C1013 C560 1.421 . S
C1015 C714 1.421 . S
C1024 C655 2.748 . S
C1026 C735 2.869 . S
C1035 C56 3.048 . S
C1037 C761 3.118 . S
C1046 C403 1.949 . S
C1048 C745 1.875 . S
C1059 C704 2.366 . S
C1057 C476 2.235 . S
C1070 C736 1.621 . S
C1068 C579 1.632 . S
C1079 C651 1.239 . S
C1081 C727 1.206 . S
C1090 C224 2.973 . S
C1092 C734 3.117 . S
C1103 C721 1.870 . S
C1101 C319 1.830 . S
C1112 C159 1.693 . S
C1114 C713 1.711 . S
C1123 C663 1.531 . S
C1125 C776 1.621 . S
C1134 C408 0.812 . S
C1136 C766 0.731 . S
C1147 C767 1.407 . S
C1145 C486 1.273 . S
C1158 C789 1.147 . S
C1156 C567 1.096 . S
C1167 C147 0.726 . S
C1169 C792 0.739 . S
C1180 C775 1.389 . S
C1178 C234 1.264 . S
C1189 C324 0.750 . S
C1191 C765 0.782 . S
C1200 C66 1.536 . S
C1202 C783 1.654 . S
C1211 C660 1.229 . S
C1213 C796 1.202 . S
C1224 C845 1.881 . S
C1222 C392 1.951 . S
C1233 C487 2.226 . S
C1235 C823 2.369 . S
C1244 C570 1.629 . S
C1246 C837 1.617 . S
C1257 C798 1.715 . S
C1255 C150 1.689 . S
C1266 C235 2.980 . S
C1268 C851 3.114 . S
C1279 C807 1.872 . S
C1277 C308 1.825 . S
C1290 C828 3.119 . S
C1288 C67 3.045 . S
C1301 C854 2.870 . S
C1299 C644 2.750 . S
C1310 C151 1.422 . S
C1312 C838 1.403 . S
C1321 C231 1.179 . S
C1323 C797 1.098 . S
C1334 C829 0.898 . S
C1332 C327 0.891 . S
C1343 C63 0.922 . S
C1345 C820 0.948 . S
C1354 C483 1.625 . S
C1356 C827 1.567 . S
C1367 C814 1.429 . S
C1365 C571 1.412 . S
C1378 C806 0.864 . S
C1376 C411 0.863 . S
