# Generated by pormake.
# Topology gar, (4,6)-cn, num edge types: 1
# Building blocks:
#     Node 0, Type 0, BuildingBlock: AZAVOO_clean_sbu_0, # of connection points: 4
#     Node 1, Type 0, BuildingBlock: AZAVOO_clean_sbu_0, # of connection points: 4
#     Node 2, Type 0, BuildingBlock: AZAVOO_clean_sbu_0, # of connection points: 4
#     Node 3, Type 0, BuildingBlock: AZAVOO_clean_sbu_0, # of connection points: 4
#     Node 4, Type 0, BuildingBlock: AZAVOO_clean_sbu_0, # of connection points: 4
#     Node 5, Type 0, BuildingBlock: AZAVOO_clean_sbu_0, # of connection points: 4
#     Node 6, Type 0, BuildingBlock: AZAVOO_clean_sbu_0, # of connection points: 4
#     Node 7, Type 0, BuildingBlock: AZAVOO_clean_sbu_0, # of connection points: 4
#     Node 8, Type 0, BuildingBlock: AZAVOO_clean_sbu_0, # of connection points: 4
#     Node 9, Type 0, BuildingBlock: AZAVOO_clean_sbu_0, # of connection points: 4
#     Node 10, Type 0, BuildingBlock: AZAVOO_clean_sbu_0, # of connection points: 4
#     Node 11, Type 0, BuildingBlock: AZAVOO_clean_sbu_0, # of connection points: 4
#     Node 12, Type 0, BuildingBlock: AZAVOO_clean_sbu_0, # of connection points: 4
#     Node 13, Type 0, BuildingBlock: AZAVOO_clean_sbu_0, # of connection points: 4
#     Node 14, Type 0, BuildingBlock: AZAVOO_clean_sbu_0, # of connection points: 4
#     Node 15, Type 0, BuildingBlock: AZAVOO_clean_sbu_0, # of connection points: 4
#     Node 16, Type 0, BuildingBlock: AZAVOO_clean_sbu_0, # of connection points: 4
#     Node 17, Type 0, BuildingBlock: AZAVOO_clean_sbu_0, # of connection points: 4
#     Node 18, Type 0, BuildingBlock: AZAVOO_clean_sbu_0, # of connection points: 4
#     Node 19, Type 0, BuildingBlock: AZAVOO_clean_sbu_0, # of connection points: 4
#     Node 20, Type 0, BuildingBlock: AZAVOO_clean_sbu_0, # of connection points: 4
#     Node 21, Type 0, BuildingBlock: AZAVOO_clean_sbu_0, # of connection points: 4
#     Node 22, Type 0, BuildingBlock: AZAVOO_clean_sbu_0, # of connection points: 4
#     Node 23, Type 0, BuildingBlock: AZAVOO_clean_sbu_0, # of connection points: 4
#     Node 24, Type 1, BuildingBlock: KUMBUR_clean_sbu_1, # of connection points: 6
#     Node 25, Type 1, BuildingBlock: KUMBUR_clean_sbu_1, # of connection points: 6
#     Node 26, Type 1, BuildingBlock: KUMBUR_clean_sbu_1, # of connection points: 6
#     Node 27, Type 1, BuildingBlock: KUMBUR_clean_sbu_1, # of connection points: 6
#     Node 28, Type 1, BuildingBlock: KUMBUR_clean_sbu_1, # of connection points: 6
#     Node 29, Type 1, BuildingBlock: KUMBUR_clean_sbu_1, # of connection points: 6
#     Node 30, Type 1, BuildingBlock: KUMBUR_clean_sbu_1, # of connection points: 6
#     Node 31, Type 1, BuildingBlock: KUMBUR_clean_sbu_1, # of connection points: 6
#     Node 32, Type 1, BuildingBlock: KUMBUR_clean_sbu_1, # of connection points: 6
#     Node 33, Type 1, BuildingBlock: KUMBUR_clean_sbu_1, # of connection points: 6
#     Node 34, Type 1, BuildingBlock: KUMBUR_clean_sbu_1, # of connection points: 6
#     Node 35, Type 1, BuildingBlock: KUMBUR_clean_sbu_1, # of connection points: 6
#     Node 36, Type 1, BuildingBlock: KUMBUR_clean_sbu_1, # of connection points: 6
#     Node 37, Type 1, BuildingBlock: KUMBUR_clean_sbu_1, # of connection points: 6
#     Node 38, Type 1, BuildingBlock: KUMBUR_clean_sbu_1, # of connection points: 6
#     Node 39, Type 1, BuildingBlock: KUMBUR_clean_sbu_1, # of connection points: 6
#     Edge 40, Type (0, 1), BuildingBlock: ZUJKAS_clean_linker_0, # of connection points: 2
#     Edge 41, Type (0, 1), BuildingBlock: ZUJKAS_clean_linker_0, # of connection points: 2
#     Edge 42, Type (0, 1), BuildingBlock: ZUJKAS_clean_linker_0, # of connection points: 2
#     Edge 43, Type (0, 1), BuildingBlock: ZUJKAS_clean_linker_0, # of connection points: 2
#     Edge 44, Type (0, 1), BuildingBlock: ZUJKAS_clean_linker_0, # of connection points: 2
#     Edge 45, Type (0, 1), BuildingBlock: ZUJKAS_clean_linker_0, # of connection points: 2
#     Edge 46, Type (0, 1), BuildingBlock: ZUJKAS_clean_linker_0, # of connection points: 2
#     Edge 47, Type (0, 1), BuildingBlock: ZUJKAS_clean_linker_0, # of connection points: 2
#     Edge 48, Type (0, 1), BuildingBlock: ZUJKAS_clean_linker_0, # of connection points: 2
#     Edge 49, Type (0, 1), BuildingBlock: ZUJKAS_clean_linker_0, # of connection points: 2
#     Edge 50, Type (0, 1), BuildingBlock: ZUJKAS_clean_linker_0, # of connection points: 2
#     Edge 51, Type (0, 1), BuildingBlock: ZUJKAS_clean_linker_0, # of connection points: 2
#     Edge 52, Type (0, 1), BuildingBlock: ZUJKAS_clean_linker_0, # of connection points: 2
#     Edge 53, Type (0, 1), BuildingBlock: ZUJKAS_clean_linker_0, # of connection points: 2
#     Edge 54, Type (0, 1), BuildingBlock: ZUJKAS_clean_linker_0, # of connection points: 2
#     Edge 55, Type (0, 1), BuildingBlock: ZUJKAS_clean_linker_0, # of connection points: 2
#     Edge 56, Type (0, 1), BuildingBlock: ZUJKAS_clean_linker_0, # of connection points: 2
#     Edge 57, Type (0, 1), BuildingBlock: ZUJKAS_clean_linker_0, # of connection points: 2
#     Edge 58, Type (0, 1), BuildingBlock: ZUJKAS_clean_linker_0, # of connection points: 2
#     Edge 59, Type (0, 1), BuildingBlock: ZUJKAS_clean_linker_0, # of connection points: 2
#     Edge 60, Type (0, 1), BuildingBlock: ZUJKAS_clean_linker_0, # of connection points: 2
#     Edge 61, Type (0, 1), BuildingBlock: ZUJKAS_clean_linker_0, # of connection points: 2
#     Edge 62, Type (0, 1), BuildingBlock: ZUJKAS_clean_linker_0, # of connection points: 2
#     Edge 63, Type (0, 1), BuildingBlock: ZUJKAS_clean_linker_0, # of connection points: 2
#     Edge 64, Type (0, 1), BuildingBlock: ZUJKAS_clean_linker_0, # of connection points: 2
#     Edge 65, Type (0, 1), BuildingBlock: ZUJKAS_clean_linker_0, # of connection points: 2
#     Edge 66, Type (0, 1), BuildingBlock: ZUJKAS_clean_linker_0, # of connection points: 2
#     Edge 67, Type (0, 1), BuildingBlock: ZUJKAS_clean_linker_0, # of connection points: 2
#     Edge 68, Type (0, 1), BuildingBlock: ZUJKAS_clean_linker_0, # of connection points: 2
#     Edge 69, Type (0, 1), BuildingBlock: ZUJKAS_clean_linker_0, # of connection points: 2
#     Edge 70, Type (0, 1), BuildingBlock: ZUJKAS_clean_linker_0, # of connection points: 2
#     Edge 71, Type (0, 1), BuildingBlock: ZUJKAS_clean_linker_0, # of connection points: 2
#     Edge 72, Type (0, 1), BuildingBlock: ZUJKAS_clean_linker_0, # of connection points: 2
#     Edge 73, Type (0, 1), BuildingBlock: ZUJKAS_clean_linker_0, # of connection points: 2
#     Edge 74, Type (0, 1), BuildingBlock: ZUJKAS_clean_linker_0, # of connection points: 2
#     Edge 75, Type (0, 1), BuildingBlock: ZUJKAS_clean_linker_0, # of connection points: 2
#     Edge 76, Type (0, 1), BuildingBlock: ZUJKAS_clean_linker_0, # of connection points: 2
#     Edge 77, Type (0, 1), BuildingBlock: ZUJKAS_clean_linker_0, # of connection points: 2
#     Edge 78, Type (0, 1), BuildingBlock: ZUJKAS_clean_linker_0, # of connection points: 2
#     Edge 79, Type (0, 1), BuildingBlock: ZUJKAS_clean_linker_0, # of connection points: 2
#     Edge 80, Type (0, 1), BuildingBlock: ZUJKAS_clean_linker_0, # of connection points: 2
#     Edge 81, Type (0, 1), BuildingBlock: ZUJKAS_clean_linker_0, # of connection points: 2
#     Edge 82, Type (0, 1), BuildingBlock: ZUJKAS_clean_linker_0, # of connection points: 2
#     Edge 83, Type (0, 1), BuildingBlock: ZUJKAS_clean_linker_0, # of connection points: 2
#     Edge 84, Type (0, 1), BuildingBlock: ZUJKAS_clean_linker_0, # of connection points: 2
#     Edge 85, Type (0, 1), BuildingBlock: ZUJKAS_clean_linker_0, # of connection points: 2
#     Edge 86, Type (0, 1), BuildingBlock: ZUJKAS_clean_linker_0, # of connection points: 2
#     Edge 87, Type (0, 1), BuildingBlock: ZUJKAS_clean_linker_0, # of connection points: 2
#     Edge 88, Type (0, 1), BuildingBlock: ZUJKAS_clean_linker_0, # of connection points: 2
#     Edge 89, Type (0, 1), BuildingBlock: ZUJKAS_clean_linker_0, # of connection points: 2
#     Edge 90, Type (0, 1), BuildingBlock: ZUJKAS_clean_linker_0, # of connection points: 2
#     Edge 91, Type (0, 1), BuildingBlock: ZUJKAS_clean_linker_0, # of connection points: 2
#     Edge 92, Type (0, 1), BuildingBlock: ZUJKAS_clean_linker_0, # of connection points: 2
#     Edge 93, Type (0, 1), BuildingBlock: ZUJKAS_clean_linker_0, # of connection points: 2
#     Edge 94, Type (0, 1), BuildingBlock: ZUJKAS_clean_linker_0, # of connection points: 2
#     Edge 95, Type (0, 1), BuildingBlock: ZUJKAS_clean_linker_0, # of connection points: 2
#     Edge 96, Type (0, 1), BuildingBlock: ZUJKAS_clean_linker_0, # of connection points: 2
#     Edge 97, Type (0, 1), BuildingBlock: ZUJKAS_clean_linker_0, # of connection points: 2
#     Edge 98, Type (0, 1), BuildingBlock: ZUJKAS_clean_linker_0, # of connection points: 2
#     Edge 99, Type (0, 1), BuildingBlock: ZUJKAS_clean_linker_0, # of connection points: 2
#     Edge 100, Type (0, 1), BuildingBlock: ZUJKAS_clean_linker_0, # of connection points: 2
#     Edge 101, Type (0, 1), BuildingBlock: ZUJKAS_clean_linker_0, # of connection points: 2
#     Edge 102, Type (0, 1), BuildingBlock: ZUJKAS_clean_linker_0, # of connection points: 2
#     Edge 103, Type (0, 1), BuildingBlock: ZUJKAS_clean_linker_0, # of connection points: 2
#     Edge 104, Type (0, 1), BuildingBlock: ZUJKAS_clean_linker_0, # of connection points: 2
#     Edge 105, Type (0, 1), BuildingBlock: ZUJKAS_clean_linker_0, # of connection points: 2
#     Edge 106, Type (0, 1), BuildingBlock: ZUJKAS_clean_linker_0, # of connection points: 2
#     Edge 107, Type (0, 1), BuildingBlock: ZUJKAS_clean_linker_0, # of connection points: 2
#     Edge 108, Type (0, 1), BuildingBlock: ZUJKAS_clean_linker_0, # of connection points: 2
#     Edge 109, Type (0, 1), BuildingBlock: ZUJKAS_clean_linker_0, # of connection points: 2
#     Edge 110, Type (0, 1), BuildingBlock: ZUJKAS_clean_linker_0, # of connection points: 2
#     Edge 111, Type (0, 1), BuildingBlock: ZUJKAS_clean_linker_0, # of connection points: 2
#     Edge 112, Type (0, 1), BuildingBlock: ZUJKAS_clean_linker_0, # of connection points: 2
#     Edge 113, Type (0, 1), BuildingBlock: ZUJKAS_clean_linker_0, # of connection points: 2
#     Edge 114, Type (0, 1), BuildingBlock: ZUJKAS_clean_linker_0, # of connection points: 2
#     Edge 115, Type (0, 1), BuildingBlock: ZUJKAS_clean_linker_0, # of connection points: 2
#     Edge 116, Type (0, 1), BuildingBlock: ZUJKAS_clean_linker_0, # of connection points: 2
#     Edge 117, Type (0, 1), BuildingBlock: ZUJKAS_clean_linker_0, # of connection points: 2
#     Edge 118, Type (0, 1), BuildingBlock: ZUJKAS_clean_linker_0, # of connection points: 2
#     Edge 119, Type (0, 1), BuildingBlock: ZUJKAS_clean_linker_0, # of connection points: 2
#     Edge 120, Type (0, 1), BuildingBlock: ZUJKAS_clean_linker_0, # of connection points: 2
#     Edge 121, Type (0, 1), BuildingBlock: ZUJKAS_clean_linker_0, # of connection points: 2
#     Edge 122, Type (0, 1), BuildingBlock: ZUJKAS_clean_linker_0, # of connection points: 2
#     Edge 123, Type (0, 1), BuildingBlock: ZUJKAS_clean_linker_0, # of connection points: 2
#     Edge 124, Type (0, 1), BuildingBlock: ZUJKAS_clean_linker_0, # of connection points: 2
#     Edge 125, Type (0, 1), BuildingBlock: ZUJKAS_clean_linker_0, # of connection points: 2
#     Edge 126, Type (0, 1), BuildingBlock: ZUJKAS_clean_linker_0, # of connection points: 2
#     Edge 127, Type (0, 1), BuildingBlock: ZUJKAS_clean_linker_0, # of connection points: 2
#     Edge 128, Type (0, 1), BuildingBlock: ZUJKAS_clean_linker_0, # of connection points: 2
#     Edge 129, Type (0, 1), BuildingBlock: ZUJKAS_clean_linker_0, # of connection points: 2
#     Edge 130, Type (0, 1), BuildingBlock: ZUJKAS_clean_linker_0, # of connection points: 2
#     Edge 131, Type (0, 1), BuildingBlock: ZUJKAS_clean_linker_0, # of connection points: 2
#     Edge 132, Type (0, 1), BuildingBlock: ZUJKAS_clean_linker_0, # of connection points: 2
#     Edge 133, Type (0, 1), BuildingBlock: ZUJKAS_clean_linker_0, # of connection points: 2
#     Edge 134, Type (0, 1), BuildingBlock: ZUJKAS_clean_linker_0, # of connection points: 2
#     Edge 135, Type (0, 1), BuildingBlock: ZUJKAS_clean_linker_0, # of connection points: 2
# Relax obj value: 0.086
# Max RMSD: 0.201
# Mean RMSD: 0.150
data_MOF--net-gar--node1-AZAVOO_clean_sbu_0--node2-KUMBUR_clean_sbu_1--edge1-ZUJKAS_clean_linker_0
_symmetry_space_group_name_H-M    P1
_symmetry_Int_Tables_number       1
_symmetry_cell_setting            triclinic
loop_
_symmetry_equiv_pos_as_xyz
'x, y, z'
_cell_length_a     77.585698
_cell_length_b     74.975664
_cell_length_c     71.89466
_cell_angle_alpha  97.853253
_cell_angle_beta   95.333869
_cell_angle_gamma 101.50027
loop_
_atom_site_label
_atom_site_type_symbol
_atom_site_fract_x
_atom_site_fract_y
_atom_site_fract_z
_atom_type_partial_charge
Mg0 Mg 0.03223 0.28856 0.33976 0.0
O1 O 0.03582 0.3162 0.36161 0.0
O2 O 0.01177 0.31255 0.37701 0.0
Mg3 Mg 0.99344 0.2843 0.36763 0.0
C4 C 0.02641 0.32221 0.37388 0.0
C5 C 0.068 0.28498 0.31961 0.0
O6 O 0.05601 0.27186 0.30883 0.0
O7 O 0.03893 0.27167 0.36361 0.0
O8 O 0.01456 0.26969 0.37825 0.0
O9 O 0.01323 0.29838 0.31775 0.0
O10 O 0.00388 0.28423 0.34046 0.0
C11 C 0.02966 0.26588 0.37633 0.0
C12 C 1.00001 0.29203 0.32638 0.0
O13 O 0.06278 0.29482 0.33317 0.0
Mg14 Mg 0.01308 0.75537 0.69007 0.0
O15 O 0.00958 0.72657 0.67036 0.0
O16 O 0.98578 0.72369 0.64928 0.0
Mg17 Mg 0.96938 0.74519 0.6591 0.0
C18 C 0.99946 0.71809 0.65532 0.0
C19 C 0.05483 0.76699 0.71128 0.0
O20 O 0.04914 0.78054 0.72063 0.0
O21 O 0.01717 0.77334 0.66533 0.0
O22 O 0.98935 0.76853 0.65101 0.0
O23 O 0.99539 0.74711 0.71396 0.0
O24 O 0.98439 0.75288 0.68746 0.0
C25 C 0.00549 0.77727 0.6535 0.0
C26 C 0.9816 0.74929 0.70386 0.0
O27 O 0.04389 0.7555 0.69855 0.0
Mg28 Mg 0.53342 0.79012 0.84 0.0
O29 O 0.53586 0.81669 0.86308 0.0
O30 O 0.51239 0.81034 0.87891 0.0
Mg31 Mg 0.49409 0.78254 0.8666 0.0
C32 C 0.52663 0.82109 0.87627 0.0
C33 C 0.57015 0.78469 0.82484 0.0
O34 O 0.55954 0.76835 0.82004 0.0
O35 O 0.54006 0.77196 0.86276 0.0
O36 O 0.51511 0.76746 0.87661 0.0
O37 O 0.51435 0.80081 0.81901 0.0
O38 O 0.50534 0.78392 0.83996 0.0
C39 C 0.53059 0.76471 0.87466 0.0
C40 C 0.50121 0.79242 0.82657 0.0
O41 O 0.5638 0.79766 0.83343 0.0
Mg42 Mg 0.51388 0.25601 0.18925 0.0
O43 O 0.51076 0.22796 0.16877 0.0
O44 O 0.48559 0.22284 0.14926 0.0
Mg45 Mg 0.47113 0.24651 0.15703 0.0
C46 C 0.49988 0.21817 0.15494 0.0
C47 C 0.5554 0.26621 0.21085 0.0
O48 O 0.54986 0.27985 0.22021 0.0
O49 O 0.51957 0.27363 0.16486 0.0
O50 O 0.4928 0.26769 0.14769 0.0
O51 O 0.49452 0.24532 0.21102 0.0
O52 O 0.48548 0.25509 0.18583 0.0
C53 C 0.509 0.27631 0.1511 0.0
C54 C 0.48157 0.24952 0.20119 0.0
O55 O 0.54439 0.2549 0.19806 0.0
Mg56 Mg 0.05173 0.79389 0.11763 0.0
O57 O 0.04804 0.76538 0.09759 0.0
O58 O 0.02246 0.7606 0.07902 0.0
Mg59 Mg 0.00876 0.78486 0.08778 0.0
C60 C 0.03648 0.75528 0.08451 0.0
C61 C 0.08971 0.80128 0.14294 0.0
O62 O 0.08167 0.81231 0.15304 0.0
O63 O 0.05609 0.8143 0.0947 0.0
O64 O 0.0288 0.80841 0.07878 0.0
O65 O 0.03615 0.77966 0.13892 0.0
O66 O 0.02375 0.79181 0.1166 0.0
C67 C 0.04471 0.81789 0.08221 0.0
C68 C 0.02199 0.78355 0.13103 0.0
O69 O 0.08163 0.79256 0.12694 0.0
Mg70 Mg 0.49862 0.75637 0.41624 0.0
O71 O 0.50274 0.78442 0.43721 0.0
O72 O 0.47843 0.78187 0.45176 0.0
Mg73 Mg 0.46094 0.75239 0.44258 0.0
C74 C 0.49311 0.79138 0.44849 0.0
C75 C 0.53043 0.75464 0.39429 0.0
O76 O 0.51707 0.7426 0.38416 0.0
O77 O 0.50486 0.73751 0.43827 0.0
O78 O 0.48029 0.73389 0.45244 0.0
O79 O 0.48374 0.76893 0.39508 0.0
O80 O 0.47032 0.75173 0.4142 0.0
C81 C 0.49526 0.72988 0.4498 0.0
C82 C 0.4691 0.76165 0.40099 0.0
O83 O 0.52767 0.76345 0.4098 0.0
Mg84 Mg 0.55038 0.29429 0.61623 0.0
O85 O 0.54655 0.26558 0.59645 0.0
O86 O 0.51997 0.26033 0.57965 0.0
Mg87 Mg 0.50634 0.2845 0.58833 0.0
C88 C 0.53434 0.25523 0.58416 0.0
C89 C 0.58547 0.29669 0.64279 0.0
O90 O 0.57386 0.30019 0.65421 0.0
O91 O 0.55396 0.31366 0.59251 0.0
O92 O 0.52603 0.30744 0.57825 0.0
O93 O 0.5358 0.28043 0.63845 0.0
O94 O 0.52255 0.29208 0.61626 0.0
C95 C 0.54195 0.31687 0.5805 0.0
C96 C 0.5214 0.28402 0.63083 0.0
O97 O 0.58051 0.29407 0.62496 0.0
Mg98 Mg 0.9984 0.25623 0.91602 0.0
O99 O 0.00132 0.28452 0.93618 0.0
O100 O 0.97719 0.2811 0.95107 0.0
Mg101 Mg 0.95923 0.25189 0.94059 0.0
C102 C 0.99166 0.29107 0.94775 0.0
C103 C 0.03179 0.25331 0.89643 0.0
O104 O 0.01966 0.23907 0.88768 0.0
O105 O 0.00468 0.2387 0.93974 0.0
O106 O 0.97816 0.23297 0.94999 0.0
O107 O 0.98358 0.26669 0.89268 0.0
O108 O 0.97004 0.25181 0.91328 0.0
C109 C 0.99371 0.22973 0.94924 0.0
C110 C 0.96888 0.26026 0.8989 0.0
O111 O 0.02767 0.26374 0.91008 0.0
Mg112 Mg 0.3878 0.02795 0.29055 0.0
O113 O 0.37321 0.99887 0.28954 0.0
O114 O 0.36263 0.99565 0.31707 0.0
Mg115 Mg 0.37381 0.02248 0.33715 0.0
C116 C 0.36427 0.98935 0.30008 0.0
C117 C 0.39332 0.00989 0.25282 0.0
O118 O 0.39728 0.99852 0.26409 0.0
O119 O 0.36192 0.03584 0.28959 0.0
O120 O 0.35622 0.0365 0.31971 0.0
O121 O 0.41296 0.02105 0.29947 0.0
O122 O 0.39389 0.02974 0.3185 0.0
C123 C 0.35274 0.03942 0.30282 0.0
C124 C 0.4079 0.0235 0.3161 0.0
O125 O 0.38702 0.02346 0.25937 0.0
Mg126 Mg 0.26377 0.16036 0.49746 0.0
O127 O 0.26697 0.17967 0.5262 0.0
O128 O 0.29326 0.19905 0.52938 0.0
Mg129 Mg 0.3075 0.19103 0.50378 0.0
C130 C 0.27866 0.19313 0.53562 0.0
C131 C 0.22771 0.13397 0.49425 0.0
O132 O 0.23827 0.12328 0.48836 0.0
O133 O 0.26014 0.18251 0.47913 0.0
O134 O 0.28787 0.19932 0.48222 0.0
O135 O 0.27643 0.14041 0.5114 0.0
O136 O 0.29107 0.16271 0.49816 0.0
C137 C 0.27171 0.19548 0.47475 0.0
C138 C 0.29131 0.14882 0.50679 0.0
O139 O 0.2341 0.15114 0.49917 0.0
Mg140 Mg 0.12351 0.03011 0.77895 0.0
O141 O 0.14244 0.05843 0.78155 0.0
O142 O 0.16066 0.0622 0.80841 0.0
Mg143 Mg 0.1502 0.03942 0.8255 0.0
C144 C 0.15583 0.06751 0.79301 0.0
C145 C 0.10002 0.02422 0.74074 0.0
O146 O 0.08885 0.01789 0.75217 0.0
O147 O 0.1459 0.01428 0.77446 0.0
O148 O 0.15812 0.0179 0.80463 0.0
O149 O 0.1029 0.04211 0.794 0.0
O150 O 0.12439 0.03169 0.80808 0.0
C151 C 0.15638 0.01029 0.78737 0.0
C152 C 0.11059 0.03845 0.80935 0.0
O153 O 0.11625 0.03032 0.74732 0.0
Mg154 Mg 0.28955 0.93281 0.00979 0.0
O155 O 0.29014 0.91413 0.98265 0.0
O156 O 0.31442 0.90235 0.98518 0.0
Mg157 Mg 0.32954 0.91423 0.01408 0.0
C158 C 0.30007 0.90388 0.976 0.0
C159 C 0.2597 0.9496 0.00328 0.0
O160 O 0.2726 0.9628 0.01248 0.0
O161 O 0.2814 0.90797 0.02356 0.0
O162 O 0.30673 0.89799 0.02627 0.0
O163 O 0.30477 0.95582 -0.00173 0.0
O164 O 0.316 0.93729 0.01545 0.0
C165 C 0.29045 0.89662 0.02861 0.0
C166 C 0.31833 0.95008 0.00515 0.0
O167 O 0.26194 0.9333 -2e-05 0.0
Mg168 Mg 0.28528 0.38743 0.03492 0.0
O169 O 0.28191 0.36825 0.00599 0.0
O170 O 0.3042 0.35344 0.00697 0.0
Mg171 Mg 0.32313 0.36512 0.03446 0.0
C172 C 0.29019 0.35656 -0.00158 0.0
C173 C 0.25429 0.4062 0.03934 0.0
O174 O 0.26723 0.41631 0.05179 0.0
O175 O 0.27784 0.36386 0.05246 0.0
O176 O 0.30323 0.35406 0.05401 0.0
O177 O 0.30141 0.4103 0.0228 0.0
O178 O 0.31271 0.39039 0.03725 0.0
C179 C 0.28797 0.35414 0.05929 0.0
C180 C 0.31523 0.40438 0.02855 0.0
O181 O 0.25698 0.39172 0.02965 0.0
Mg182 Mg 0.76846 0.1168 0.02977 0.0
O183 O 0.7693 0.13586 0.05643 0.0
O184 O 0.79531 0.15602 0.06111 0.0
Mg185 Mg 0.81226 0.14606 0.03918 0.0
C186 C 0.77991 0.15008 0.06559 0.0
C187 C 0.73328 0.09391 0.02123 0.0
O188 O 0.74292 0.08379 0.01237 0.0
O189 O 0.76635 0.13942 0.01326 0.0
O190 O 0.79467 0.15455 0.01607 0.0
O191 O 0.77678 0.09661 0.04568 0.0
O192 O 0.79481 0.11849 0.03442 0.0
C193 C 0.77845 0.15175 0.00908 0.0
C194 C 0.7927 0.10513 0.04411 0.0
O195 O 0.74014 0.11003 0.02945 0.0
Mg196 Mg 0.15769 0.52528 0.24452 0.0
O197 O 0.17585 0.55302 0.25067 0.0
O198 O 0.18913 0.55844 0.28042 0.0
Mg199 Mg 0.17913 0.53266 0.29283 0.0
C200 C 0.18652 0.56323 0.26421 0.0
C201 C 0.14475 0.51544 0.20398 0.0
O202 O 0.13671 0.5012 0.21104 0.0
O203 O 0.18108 0.51317 0.24196 0.0
O204 O 0.19405 0.51766 0.27176 0.0
O205 O 0.13585 0.5372 0.25365 0.0
O206 O 0.15488 0.52677 0.27237 0.0
C207 C 0.19353 0.51191 0.2541 0.0
C208 C 0.14203 0.53527 0.27044 0.0
O209 O 0.15615 0.52789 0.21461 0.0
Mg210 Mg 0.78502 0.88756 0.53509 0.0
O211 O 0.78246 0.86732 0.50687 0.0
O212 O 0.80615 0.85468 0.50894 0.0
Mg213 Mg 0.82395 0.86698 0.53704 0.0
C214 C 0.79181 0.85645 0.4998 0.0
C215 C 0.75484 0.90683 0.53808 0.0
O216 O 0.76852 0.91716 0.54939 0.0
O217 O 0.77773 0.86455 0.55335 0.0
O218 O 0.80349 0.8555 0.55594 0.0
O219 O 0.80102 0.91001 0.52206 0.0
O220 O 0.81255 0.8915 0.53847 0.0
C221 C 0.78797 0.8552 0.56068 0.0
C222 C 0.81492 0.90489 0.52896 0.0
O223 O 0.75661 0.89151 0.52922 0.0
Mg224 Mg 0.92611 0.0187 0.25751 0.0
O225 O 0.90622 0.99081 0.25593 0.0
O226 O 0.89335 0.99382 0.28243 0.0
Mg227 Mg 0.90412 0.02199 0.3006 0.0
C228 C 0.89534 0.98435 0.26692 0.0
C229 C 0.94612 0.02087 0.2239 0.0
O230 O 0.95654 0.03122 0.23851 0.0
O231 O 0.90381 0.0335 0.24996 0.0
O232 O 0.89376 0.03739 0.27814 0.0
O233 O 0.94734 0.0088 0.2746 0.0
O234 O 0.92815 0.02338 0.28695 0.0
C235 C 0.89395 0.04024 0.26105 0.0
C236 C 0.94117 0.01546 0.28953 0.0
O237 O 0.93088 0.01234 0.22658 0.0
Mg238 Mg 0.26458 0.61443 0.52748 0.0
O239 O 0.2627 0.63131 0.55563 0.0
O240 O 0.2868 0.65434 0.56119 0.0
Mg241 Mg 0.30488 0.65028 0.5387 0.0
C242 C 0.27206 0.64604 0.56546 0.0
C243 C 0.23073 0.59221 0.53754 0.0
O244 O 0.24144 0.59102 0.55236 0.0
O245 O 0.25861 0.6369 0.5123 0.0
O246 O 0.28445 0.65759 0.51785 0.0
O247 O 0.2779 0.59591 0.54166 0.0
O248 O 0.291 0.62139 0.53155 0.0
C249 C 0.26844 0.65201 0.51009 0.0
C250 C 0.29225 0.60728 0.53949 0.0
O251 O 0.23652 0.60139 0.52508 0.0
Mg252 Mg 0.4272 0.51962 0.75807 0.0
O253 O 0.40686 0.49196 0.75612 0.0
O254 O 0.39324 0.49465 0.78219 0.0
Mg255 Mg 0.40518 0.522 0.80121 0.0
C256 C 0.39526 0.48559 0.76646 0.0
C257 C 0.44691 0.51917 0.7234 0.0
O258 O 0.4593 0.52652 0.73764 0.0
O259 O 0.40502 0.53456 0.75137 0.0
O260 O 0.39359 0.53666 0.77884 0.0
O261 O 0.44845 0.50902 0.77387 0.0
O262 O 0.4291 0.52281 0.7873 0.0
C263 C 0.39414 0.54003 0.76194 0.0
C264 C 0.44202 0.51458 0.78906 0.0
O265 O 0.43109 0.51392 0.72688 0.0
Mg266 Mg 0.65869 0.02427 0.74249 0.0
O267 O 0.67568 0.05248 0.7466 0.0
O268 O 0.68927 0.05943 0.77634 0.0
Mg269 Mg 0.67992 0.03491 0.7912 0.0
C270 C 0.68615 0.0633 0.75981 0.0
C271 C 0.64386 0.01375 0.70242 0.0
O272 O 0.63459 1.00087 0.71036 0.0
O273 O 0.68251 0.01246 0.74119 0.0
O274 O 0.6931 0.01626 0.77183 0.0
O275 O 0.63623 0.03587 0.75113 0.0
O276 O 0.65601 0.0272 0.77049 0.0
C277 C 0.69339 0.01009 0.75443 0.0
C278 C 0.64278 0.03499 0.76813 0.0
O279 O 0.65679 0.02511 0.71214 0.0
Mg280 Mg 0.76285 0.65872 0.99619 0.0
O281 O 0.7671 0.67767 0.02535 0.0
O282 O 0.79465 0.69462 0.02913 0.0
Mg283 Mg 0.8085 0.68598 0.00354 0.0
C284 C 0.77965 0.69005 0.03511 0.0
C285 C 0.72395 0.63712 0.98669 0.0
O286 O 0.73162 0.62935 0.97319 0.0
O287 O 0.76135 0.68253 0.97907 0.0
O288 O 0.79009 0.69629 0.98259 0.0
O289 O 0.77329 0.63658 0.00877 0.0
O290 O 0.78994 0.65904 0.99752 0.0
C291 C 0.77414 0.69451 0.97502 0.0
C292 C 0.78881 0.64449 0.00531 0.0
O293 O 0.73305 0.6509 -0.00179 0.0
Mg294 Mg 0.88666 0.52945 0.79121 0.0
O295 O 0.87329 0.49982 0.78985 0.0
O296 O 0.86328 0.49543 0.81744 0.0
Mg297 Mg 0.86784 0.52368 0.83547 0.0
C298 C 0.86585 0.4895 0.80068 0.0
C299 C 0.90477 0.5236 0.75804 0.0
O300 O 0.91724 0.53178 0.77189 0.0
O301 O 0.86023 0.53564 0.78608 0.0
O302 O 0.84947 0.53286 0.81361 0.0
O303 O 0.91059 0.52301 0.8043 0.0
O304 O 0.89017 0.53308 0.82018 0.0
C305 C 0.84803 0.53631 0.79667 0.0
C306 C 0.90405 0.52618 0.81998 0.0
O307 O 0.88867 0.52244 0.76051 0.0
Mg308 Mg 0.7899 0.43176 0.512 0.0
O309 O 0.78964 0.41541 0.48334 0.0
O310 O 0.81596 0.40801 0.48118 0.0
Mg311 Mg 0.83242 0.41874 0.51006 0.0
C312 C 0.80024 0.40794 0.47413 0.0
C313 C 0.75936 0.44635 0.50912 0.0
O314 O 0.77239 0.45895 0.51907 0.0
O315 O 0.78592 0.40567 0.52387 0.0
O316 O 0.81289 0.39909 0.52402 0.0
O317 O 0.80151 0.4572 0.50153 0.0
O318 O 0.81645 0.43935 0.51593 0.0
C319 C 0.79685 0.39568 0.52772 0.0
C320 C 0.81637 0.45349 0.50769 0.0
O321 O 0.76146 0.43005 0.50496 0.0
Mg322 Mg 0.62456 0.52959 0.27886 0.0
O323 O 0.64327 0.55824 0.28098 0.0
O324 O 0.65996 0.56336 0.30901 0.0
Mg325 Mg 0.65126 0.53986 0.32573 0.0
C326 C 0.65568 0.56824 0.29319 0.0
C327 C 0.6014 0.53046 0.24188 0.0
O328 O 0.59089 0.53286 0.25488 0.0
O329 O 0.64745 0.51484 0.2745 0.0
O330 O 0.65987 0.51884 0.30463 0.0
O331 O 0.60324 0.54065 0.29361 0.0
O332 O 0.62558 0.53217 0.30829 0.0
C333 C 0.65827 0.51132 0.28735 0.0
C334 C 0.61129 0.53812 0.30929 0.0
O335 O 0.617 0.52858 0.247 0.0
Tb336 Tb 0.04445 0.03315 0.02512 0.0
C337 C 0.98607 0.96905 0.97736 0.0
N338 N 0.99574 0.98543 0.97425 0.0
C339 C 0.99997 0.97124 0.94346 0.0
C340 C 0.98334 0.95304 0.96367 0.0
C341 C 0.00212 0.9868 0.95728 0.0
C342 C 0.99067 0.95425 0.94672 0.0
C343 C 0.96712 0.95198 0.99695 0.0
C344 C 0.97805 0.96853 0.9939 0.0
C345 C 0.96482 0.93596 0.98356 0.0
C346 C 0.97289 0.93648 0.96698 0.0
Tb347 Tb 0.99648 0.00993 0.99725 0.0
N348 N 0.98002 0.98441 0.00636 0.0
C349 C 0.95816 0.95217 0.01296 0.0
C350 C 0.97014 0.98484 0.02121 0.0
C351 C 0.95953 0.96872 0.02501 0.0
H352 H 0.00805 0.99995 0.95378 0.0
H353 H 0.95202 0.96919 0.03696 0.0
H354 H 0.04079 0.04489 0.07103 0.0
H355 H 0.08568 0.06776 0.97878 0.0
H356 H 0.96987 0.99766 0.02998 0.0
H357 H 0.94961 0.93976 0.01573 0.0
H358 H 0.06723 0.04115 0.98924 0.0
H359 H 0.00507 0.97246 0.93007 0.0
H360 H 0.95643 0.92317 0.98567 0.0
H361 H 0.97061 0.92409 0.95657 0.0
H362 H 0.05 0.07269 0.09528 0.0
H363 H 0.98874 0.94229 0.93581 0.0
H364 H 0.09366 0.09792 -0.00013 0.0
N365 N 0.05198 0.05796 0.04907 0.0
C366 C 0.0623 0.07333 0.04473 0.0
C367 C 0.05335 0.07315 0.08104 0.0
C368 C 0.06809 0.08947 0.05824 0.0
C369 C 0.04794 0.0575 0.06718 0.0
C370 C 0.06329 0.08929 0.0765 0.0
N371 N 0.06272 0.05651 0.01469 0.0
C372 C 0.06965 0.05443 0.99796 0.0
C373 C 0.07907 0.08802 0.02202 0.0
C374 C 0.06786 0.07259 0.02695 0.0
C375 C 0.08506 0.08638 0.00422 0.0
C376 C 0.08053 0.06941 0.99225 0.0
H377 H 0.06758 0.10136 0.08732 0.0
H378 H 0.08336 0.11761 0.06341 0.0
H379 H 0.09284 0.11639 0.03161 0.0
O380 O 0.0674 0.02333 0.01994 0.0
O381 O 0.03375 0.05264 0.00957 0.0
O382 O 0.00311 0.04089 0.00338 0.0
O383 O 0.06038 0.0288 0.04868 0.0
O384 O 0.04045 0.0172 0.99638 0.0
O385 O 0.01582 0.02374 0.98113 0.0
O386 O 0.97167 0.01598 0.001 0.0
O387 O 0.01457 0.99114 0.00297 0.0
O388 O 0.03053 0.00629 0.03115 0.0
O389 O 0.97818 0.00729 0.97314 0.0
O390 O 0.99889 0.01329 0.02799 0.0
O391 O 0.0218 0.03811 0.03975 0.0
C392 C 0.01736 0.05466 0.00535 0.0
C393 C 0.08761 0.01822 0.04559 0.0
C394 C 0.11198 0.00316 0.04016 0.0
C395 C 0.11848 0.00796 0.05949 0.0
C396 C 0.09416 0.02302 0.06488 0.0
C397 C 0.10957 0.01787 0.07178 0.0
C398 C 0.0965 0.00824 0.03336 0.0
C399 C 0.03221 0.02178 0.98154 0.0
C400 C 0.07168 0.02371 0.03799 0.0
C401 C 0.07886 0.10506 0.05325 0.0
C402 C 0.08429 0.10436 0.03516 0.0
C403 C 0.02419 0.99095 0.0191 0.0
C404 C 0.95537 0.02412 0.97503 0.0
C405 C 0.93078 0.03931 0.97824 0.0
C406 C 0.92935 0.04049 0.9589 0.0
C407 C 0.95405 0.02552 0.95564 0.0
C408 C 0.94384 0.03135 0.98628 0.0
C409 C 0.94115 0.03381 0.94769 0.0
C410 C 0.00721 0.02651 0.04156 0.0
C411 C 0.96622 0.01234 0.98292 0.0
H412 H 0.13063 0.00443 0.06499 0.0
H413 H 0.0875 0.03088 0.07455 0.0
H414 H 0.1147 0.02172 0.08662 0.0
H415 H 0.09138 0.00439 0.01848 0.0
H416 H 0.91904 0.04638 0.95251 0.0
H417 H 0.96251 0.01965 0.94651 0.0
H418 H 0.94428 0.02986 0.00111 0.0
H419 H 0.93997 0.03457 0.93272 0.0
Tb420 Tb 0.26597 0.77204 0.28983 0.0
C421 C 0.30336 0.73498 0.2186 0.0
N422 N 0.3096 0.74817 0.23407 0.0
C423 C 0.3351 0.73507 0.23952 0.0
C424 C 0.31242 0.72088 0.21347 0.0
C425 C 0.32557 0.74869 0.24418 0.0
C426 C 0.32843 0.721 0.22423 0.0
C427 C 0.28024 0.72164 0.19241 0.0
C428 C 0.28761 0.73547 0.208 0.0
C429 C 0.28914 0.70746 0.18738 0.0
C430 C 0.30522 0.70712 0.19783 0.0
Tb431 Tb 0.29271 0.76971 0.23994 0.0
N432 N 0.27895 0.74892 0.21387 0.0
C433 C 0.26403 0.72236 0.18254 0.0
C434 C 0.26359 0.75021 0.20368 0.0
C435 C 0.25576 0.7368 0.18811 0.0
H436 H 0.33141 0.75981 0.25551 0.0
H437 H 0.24339 0.73767 0.18036 0.0
H438 H 0.22614 0.77985 0.27908 0.0
H439 H 0.31944 0.80653 0.34516 0.0
H440 H 0.25729 0.76153 0.20738 0.0
H441 H 0.25787 0.71194 0.17054 0.0
H442 H 0.30353 0.78119 0.32085 0.0
H443 H 0.3477 0.73553 0.24764 0.0
H444 H 0.28367 0.69667 0.17547 0.0
H445 H 0.31195 0.69611 0.19376 0.0
H446 H 0.20949 0.80371 0.28841 0.0
H447 H 0.33584 0.71045 0.22071 0.0
H448 H 0.30594 0.83304 0.35475 0.0
N449 N 0.24913 0.79277 0.29842 0.0
C450 C 0.25667 0.807 0.31237 0.0
C451 C 0.2228 0.80485 0.29521 0.0
C452 C 0.24773 0.82107 0.31803 0.0
C453 C 0.23232 0.79137 0.28993 0.0
C454 C 0.23057 0.81985 0.30924 0.0
N455 N 0.28149 0.7935 0.31487 0.0
C456 C 0.29756 0.79279 0.324 0.0
C457 C 0.28203 0.82218 0.33517 0.0
C458 C 0.27352 0.80749 0.32078 0.0
C459 C 0.29891 0.82199 0.34369 0.0
C460 C 0.30659 0.8071 0.33825 0.0
H461 H 0.22322 0.83034 0.31321 0.0
H462 H 0.24962 0.8469 0.33661 0.0
H463 H 0.27973 0.84791 0.35162 0.0
O464 O 0.26601 0.75353 0.30877 0.0
O465 O 0.27397 0.79837 0.2805 0.0
O466 O 0.29593 0.78915 0.26618 0.0
O467 O 0.2415 0.75505 0.29292 0.0
O468 O 0.29172 0.76262 0.29203 0.0
O469 O 0.3089 0.77269 0.26827 0.0
O470 O 0.29172 0.78932 0.22202 0.0
O471 O 0.27676 0.74271 0.24087 0.0
O472 O 0.27481 0.75925 0.26634 0.0
O473 O 0.3163 0.78019 0.2289 0.0
O474 O 0.26644 0.77825 0.2386 0.0
O475 O 0.24898 0.76817 0.26232 0.0
C476 C 0.28663 0.80162 0.26983 0.0
C477 C 0.24077 0.74718 0.32391 0.0
C478 C 0.24281 0.73924 0.35551 0.0
C479 C 0.22662 0.74436 0.35808 0.0
C480 C 0.22453 0.75218 0.32642 0.0
C481 C 0.21752 0.75076 0.34353 0.0
C482 C 0.2497 0.74068 0.33845 0.0
C483 C 0.307 0.76602 0.28454 0.0
C484 C 0.24885 0.74806 0.30638 0.0
C485 C 0.25621 0.83587 0.33215 0.0
C486 C 0.27336 0.83645 0.34068 0.0
C487 C 0.27015 0.74312 0.25636 0.0
C488 C 0.31692 0.80229 0.20719 0.0
C489 C 0.31415 0.81712 0.17965 0.0
C490 C 0.33266 0.8214 0.1802 0.0
C491 C 0.33546 0.80672 0.20796 0.0
C492 C 0.30639 0.80784 0.19327 0.0
C493 C 0.34329 0.8164 0.19452 0.0
C494 C 0.25113 0.77439 0.24597 0.0
C495 C 0.30824 0.79027 0.2194 0.0
H496 H 0.22085 0.74304 0.3711 0.0
H497 H 0.21731 0.7571 0.31528 0.0
H498 H 0.20497 0.75451 0.34548 0.0
H499 H 0.26222 0.73676 0.33649 0.0
H500 H 0.3388 0.82862 0.16963 0.0
H501 H 0.34382 0.80243 0.21865 0.0
H502 H 0.29204 0.80416 0.19238 0.0
H503 H 0.35757 0.81973 0.195 0.0
Tb504 Tb 0.49561 0.02144 0.52333 0.0
C505 C 0.56491 0.05839 0.48989 0.0
N506 N 0.55253 0.04246 0.48406 0.0
C507 C 0.55057 0.04917 0.4523 0.0
C508 C 0.56981 0.07083 0.47728 0.0
C509 C 0.54627 0.03718 0.46527 0.0
C510 C 0.56213 0.06623 0.4584 0.0
C511 C 0.58616 0.07827 0.51492 0.0
C512 C 0.57313 0.06204 0.50849 0.0
C513 C 0.59064 0.09095 0.50254 0.0
C514 C 0.58248 0.08725 0.48379 0.0
Tb515 Tb 0.54622 0.02512 0.50743 0.0
N516 N 0.56804 0.04985 0.52039 0.0
C517 C 0.59421 0.08132 0.53366 0.0
C518 C 0.57615 0.05245 0.53849 0.0
C519 C 0.58928 0.06829 0.54543 0.0
H520 H 0.53802 0.0237 0.46006 0.0
H521 H 0.5956 0.07048 0.55983 0.0
H522 H 0.50671 0.01886 0.56993 0.0
H523 H 0.44801 0.97588 0.46975 0.0
H524 H 0.57264 0.04221 0.54743 0.0
H525 H 0.60429 0.09362 0.53915 0.0
H526 H 0.46929 0.00502 0.48359 0.0
H527 H 0.54514 0.04515 0.43755 0.0
H528 H 0.60049 0.10359 0.50729 0.0
H529 H 0.58625 0.09705 0.47435 0.0
H530 H 0.50274 0.99508 0.58993 0.0
H531 H 0.5655 0.07544 0.44829 0.0
H532 H 0.44331 0.94989 0.48788 0.0
N533 N 0.49399 1.00089 0.54441 0.0
C534 C 0.48303 0.98417 0.5375 0.0
C535 C 0.4975 0.99168 0.57509 0.0
C536 C 0.4796 0.97035 0.54901 0.0
C537 C 0.50024 0.00508 0.56333 0.0
C538 C 0.48738 0.97416 0.56785 0.0
N539 N 0.47717 0.99495 0.50853 0.0
C540 C 0.4675 0.99353 0.49131 0.0
C541 C 0.46199 0.96453 0.51201 0.0
C542 C 0.47411 0.98125 0.51921 0.0
C543 C 0.45276 0.96253 0.49388 0.0
C544 C 0.45539 0.97716 0.48357 0.0
H545 H 0.48498 0.96394 0.57715 0.0
H546 H 0.46521 0.94272 0.55033 0.0
H547 H 0.44993 0.93759 0.51793 0.0
O548 O 0.47379 0.03225 0.51373 0.0
O549 O 0.50239 0.99814 0.50466 0.0
O550 O 0.53106 1.0004 0.51667 0.0
O551 O 0.4768 0.0254 0.54164 0.0
O552 O 0.50232 0.03413 0.49882 0.0
O553 O 0.52297 0.0188 0.48702 0.0
O554 O 0.57009 0.01657 0.51435 0.0
O555 O 0.54039 0.05245 0.51853 0.0
O556 O 0.51133 0.04996 0.52685 0.0
O557 O 0.55367 0.00599 0.4875 0.0
O558 O 0.53683 0.0173 0.53308 0.0
O559 O 0.51746 0.03293 0.5457 0.0
C560 C 0.51604 0.99037 0.50746 0.0
C561 C 0.46222 0.04959 0.53778 0.0
C562 C 0.44038 0.06887 0.5377 0.0
C563 C 0.44903 0.07906 0.55507 0.0
C564 C 0.47095 0.06023 0.55495 0.0
C565 C 0.46433 0.07485 0.56352 0.0
C566 C 0.44711 0.05421 0.52899 0.0
C567 C 0.51127 0.02899 0.48521 0.0
C568 C 0.46761 0.03264 0.52991 0.0
C569 C 0.46792 0.95347 0.54167 0.0
C570 C 0.45916 0.95056 0.52323 0.0
C571 C 0.5271 0.05965 0.52448 0.0
C572 C 0.58387 0.0035 0.48892 0.0
C573 C 0.60964 0.98942 0.48781 0.0
C574 C 0.61068 0.99283 0.46918 0.0
C575 C 0.58532 0.00712 0.47039 0.0
C576 C 0.59632 0.99498 0.4977 0.0
C577 C 0.59872 0.00184 0.46064 0.0
C578 C 0.53308 0.02879 0.54654 0.0
C579 C 0.56809 0.00561 0.49822 0.0
H580 H 0.44394 0.09031 0.56206 0.0
H581 H 0.48263 0.05698 0.56199 0.0
H582 H 0.47092 0.08278 0.5769 0.0
H583 H 0.4402 0.046 0.51584 0.0
H584 H 0.62079 0.98856 0.46128 0.0
H585 H 0.57581 0.01348 0.46324 0.0
H586 H 0.59511 0.99183 0.51187 0.0
H587 H 0.59962 0.00438 0.44626 0.0
Tb588 Tb 0.30067 0.26514 0.76828 0.0
C589 C 0.23621 0.29393 0.72925 0.0
N590 N 0.2473 0.30217 0.74516 0.0
C591 C 0.24929 0.33157 0.73492 0.0
C592 C 0.2314 0.30417 0.71533 0.0
C593 C 0.25366 0.32079 0.74832 0.0
C594 C 0.23818 0.32322 0.7183 0.0
C595 C 0.21832 0.26588 0.71059 0.0
C596 C 0.22983 0.27509 0.72689 0.0
C597 C 0.21354 0.27596 0.69658 0.0
C598 C 0.22008 0.29507 0.69893 0.0
Tb599 Tb 0.25457 0.28318 0.76549 0.0
N600 N 0.23523 0.26578 0.7405 0.0
C601 C 0.21195 0.24684 0.70892 0.0
C602 C 0.22835 0.24739 0.73934 0.0
C603 C 0.21683 0.23761 0.72348 0.0
H604 H 0.26188 0.32739 0.76131 0.0
H605 H 0.21161 0.22296 0.72258 0.0
H606 H 0.29269 0.22175 0.77598 0.0
H607 H 0.34117 0.32795 0.80942 0.0
H608 H 0.23137 0.24021 0.75065 0.0
H609 H 0.20305 0.23923 0.69663 0.0
H610 H 0.32203 0.30926 0.78168 0.0
H611 H 0.25445 0.34632 0.73746 0.0
H612 H 0.20477 0.26912 0.6839 0.0
H613 H 0.21628 0.30268 0.68802 0.0
H614 H 0.30057 0.2046 0.80126 0.0
H615 H 0.23484 0.33159 0.70793 0.0
H616 H 0.35018 0.31325 0.83644 0.0
N617 N 0.30711 0.24775 0.79061 0.0
C618 C 0.31827 0.25696 0.80615 0.0
C619 C 0.30553 0.21935 0.80289 0.0
C620 C 0.32331 0.2477 0.82088 0.0
C621 C 0.30085 0.22915 0.7887 0.0
C622 C 0.31677 0.22867 0.81909 0.0
N623 N 0.31862 0.28435 0.7932 0.0
C624 C 0.32506 0.30272 0.79353 0.0
C625 C 0.3356 0.28597 0.82355 0.0
C626 C 0.32429 0.27586 0.80748 0.0
C627 C 0.34146 0.30498 0.82435 0.0
C628 C 0.3363 0.31334 0.80918 0.0
H629 H 0.32036 0.22104 0.83007 0.0
H630 H 0.33861 0.25086 0.84838 0.0
H631 H 0.34939 0.28436 0.85071 0.0
O632 O 0.32352 0.27381 0.75425 0.0
O633 O 0.28929 0.27157 0.79505 0.0
O634 O 0.27604 0.29473 0.78828 0.0
O635 O 0.31521 0.24566 0.75932 0.0
O636 O 0.29969 0.28992 0.75512 0.0
O637 O 0.2794 0.3039 0.76978 0.0
O638 O 0.23321 0.2741 0.7808 0.0
O639 O 0.26467 0.27572 0.73831 0.0
O640 O 0.281 0.25369 0.74337 0.0
O641 O 0.2422 0.30277 0.77913 0.0
O642 O 0.25586 0.2576 0.77694 0.0
O643 O 0.2763 0.24346 0.76251 0.0
C644 C 0.28187 0.28538 0.8006 0.0
C645 C 0.34197 0.25142 0.74414 0.0
C646 C 0.36714 0.25548 0.72551 0.0
C647 C 0.36998 0.23821 0.7288 0.0
C648 C 0.34539 0.23423 0.74714 0.0
C649 C 0.35926 0.22775 0.73957 0.0
C650 C 0.35311 0.26226 0.73338 0.0
C651 C 0.29271 0.30437 0.75958 0.0
C652 C 0.32678 0.25732 0.75264 0.0
C653 C 0.33459 0.25773 0.83691 0.0
C654 C 0.34071 0.27681 0.83825 0.0
C655 C 0.27263 0.26249 0.7321 0.0
C656 C 0.21243 0.29371 0.78517 0.0
C657 C 0.1856 0.29338 0.80086 0.0
C658 C 0.18005 0.30458 0.78839 0.0
C659 C 0.20629 0.30457 0.77264 0.0
C660 C 0.20182 0.28783 0.7991 0.0
C661 C 0.19023 0.30995 0.7743 0.0
C662 C 0.26174 0.24278 0.77086 0.0
C663 C 0.23077 0.29072 0.78557 0.0
H664 H 0.38069 0.23282 0.72308 0.0
H665 H 0.33735 0.22568 0.75546 0.0
H666 H 0.36171 0.21451 0.74206 0.0
H667 H 0.3508 0.27558 0.73095 0.0
H668 H 0.16769 0.30908 0.78949 0.0
H669 H 0.21416 0.30937 0.76191 0.0
H670 H 0.20648 0.27963 0.80899 0.0
H671 H 0.18577 0.31858 0.76479 0.0
Tb672 Tb 0.02776 1.00019 0.51523 0.0
C673 C 1.00087 0.06882 0.55642 0.0
N674 N 0.99308 0.0565 0.54081 0.0
C675 C 0.96474 0.05458 0.55211 0.0
C676 C 0.99084 0.0745 0.57059 0.0
C677 C 0.97525 0.04932 0.53845 0.0
C678 C 0.97255 0.06726 0.56822 0.0
C679 C 0.02784 0.0872 0.57499 0.0
C680 C 0.01914 0.07509 0.55858 0.0
C681 C 0.01785 0.09327 0.58894 0.0
C682 C 0.9994 0.08693 0.58675 0.0
Tb683 Tb 0.01155 0.0496 0.51931 0.0
N684 N 0.02844 0.06832 0.54513 0.0
C685 C 0.04634 0.0925 0.57707 0.0
C686 C 0.04648 0.07346 0.54712 0.0
C687 C 0.05569 0.08556 0.5631 0.0
H688 H 0.96901 0.03991 0.5258 0.0
H689 H 0.07001 0.08947 0.56464 0.0
H690 H 0.06999 1.00079 0.51127 0.0
H691 H 0.96785 0.95748 0.47471 0.0
H692 H 0.05391 0.06813 0.53669 0.0
H693 H 0.05354 0.10176 0.58949 0.0
H694 H 0.98558 0.9777 0.50249 0.0
H695 H 0.9506 0.04893 0.55014 0.0
H696 H 0.0243 0.10263 0.60162 0.0
H697 H 0.99191 0.09152 0.59776 0.0
H698 H 0.08757 0.98932 0.48713 0.0
H699 H 0.96437 0.07126 0.5788 0.0
H700 H 0.98261 0.94617 0.4478 0.0
N701 N 0.04519 0.98845 0.49496 0.0
C702 C 0.03666 0.97712 0.47904 0.0
C703 C 0.07324 0.98588 0.4846 0.0
C704 C 0.04608 0.97007 0.46495 0.0
C705 C 0.06325 0.99253 0.49815 0.0
C706 C 0.06461 0.97476 0.46782 0.0
N707 N 0.00997 0.97969 0.49101 0.0
C708 C 0.99212 0.97378 0.49064 0.0
C709 C 0.00889 0.96042 0.46094 0.0
C710 C 0.01839 0.97243 0.47705 0.0
C711 C 0.99043 0.95541 0.4599 0.0
C712 C 0.98205 0.96186 0.47499 0.0
H713 H 0.07236 0.96965 0.45733 0.0
H714 H 0.04368 0.95306 0.43751 0.0
H715 H 0.01106 0.94456 0.43402 0.0
O716 O 0.01812 0.97896 0.53076 0.0
O717 O 0.02165 0.00968 0.48808 0.0
O718 O 0.00165 0.02758 0.49527 0.0
O719 O 0.04599 0.98888 0.53081 0.0
O720 O 0.00314 0.00294 0.52773 0.0
O721 O 0.99163 0.02395 0.51247 0.0
O722 O 0.02028 0.07211 0.50451 0.0
O723 O 0.01735 0.0388 0.5457 0.0
O724 O 0.03866 0.02439 0.53623 0.0
O725 O 0.99303 0.0643 0.51029 0.0
O726 O 0.03644 0.04907 0.50718 0.0
O727 O 0.04917 0.02459 0.51487 0.0
C728 C 0.01058 0.0199 0.48301 0.0
C729 C 0.03695 0.95797 0.53609 0.0
C730 C 0.03568 0.93009 0.55081 0.0
C731 C 0.04613 0.92369 0.53757 0.0
C732 C 0.04715 0.95099 0.52286 0.0
C733 C 0.05172 0.93401 0.52366 0.0
C734 C 0.03105 0.94731 0.55003 0.0
C735 C 0.98983 0.01042 0.52249 0.0
C736 C 0.03392 0.97697 0.53658 0.0
C737 C 0.0367 0.95851 0.44858 0.0
C738 C 0.01813 0.95368 0.44659 0.0
C739 C 0.02992 0.03004 0.54958 0.0
C740 C 0.99891 0.09017 0.49327 0.0
C741 C 0.00489 0.11718 0.47713 0.0
C742 C 0.98687 0.11779 0.47624 0.0
C743 C 0.98094 0.09123 0.49201 0.0
C744 C 0.01096 0.10319 0.48556 0.0
C745 C 0.97501 0.10489 0.48354 0.0
C746 C 0.04971 0.0404 0.50815 0.0
C747 C 0.00439 0.07542 0.50279 0.0
H748 H 0.04996 0.9106 0.538 0.0
H749 H 0.05194 0.95879 0.51211 0.0
H750 H 0.0598 0.92891 0.51356 0.0
H751 H 0.0233 0.95256 0.56044 0.0
H752 H 0.98193 0.12832 0.46976 0.0
H753 H 0.97132 0.08148 0.49763 0.0
H754 H 0.02485 0.10264 0.48636 0.0
H755 H 0.96115 0.10551 0.4827 0.0
Tb756 Tb 0.28047 0.79885 0.76027 0.0
C757 C 0.23888 0.73188 0.79632 0.0
N758 N 0.25387 0.74511 0.80254 0.0
C759 C 0.24503 0.74865 0.83376 0.0
C760 C 0.22619 0.72689 0.80858 0.0
C761 C 0.25735 0.75299 0.82119 0.0
C762 C 0.22932 0.73567 0.82741 0.0
C763 C 0.22125 0.70882 0.77094 0.0
C764 C 0.23642 0.72287 0.77767 0.0
C765 C 0.20852 0.70403 0.78308 0.0
C766 C 0.21098 0.71304 0.80183 0.0
Tb767 Tb 0.27321 0.7491 0.78054 0.0
N768 N 0.24885 0.72795 0.76612 0.0
C769 C 0.21935 0.69996 0.75218 0.0
C770 C 0.24729 0.71905 0.74801 0.0
C771 C 0.23247 0.70507 0.7407 0.0
H772 H 0.26989 0.76202 0.82681 0.0
H773 H 0.23127 0.69809 0.72628 0.0
H774 H 0.28281 0.78682 0.71353 0.0
H775 H 0.32291 0.84945 0.81428 0.0
H776 H 0.25766 0.72232 0.73941 0.0
H777 H 0.20791 0.68908 0.74649 0.0
H778 H 0.29644 0.82505 0.80141 0.0
H779 H 0.24786 0.75503 0.84847 0.0
H780 H 0.19678 0.6933 0.77814 0.0
H781 H 0.20111 0.70905 0.81107 0.0
H782 H 0.30474 0.7935 0.69169 0.0
H783 H 0.21992 0.73217 0.83727 0.0
H784 H 0.34597 0.85864 0.79377 0.0
N785 N 0.29939 0.80295 0.73786 0.0
C786 C 0.31457 0.81597 0.74403 0.0
C787 C 0.30781 0.79966 0.70645 0.0
C788 C 0.32714 0.82094 0.73164 0.0
C789 C 0.29555 0.79545 0.71912 0.0
C790 C 0.32375 0.8123 0.71277 0.0
N791 N 0.30513 0.81956 0.77451 0.0
C792 C 0.30673 0.82851 0.79263 0.0
C793 C 0.33239 0.83904 0.76931 0.0
C794 C 0.31724 0.82495 0.7627 0.0
C795 C 0.33449 0.84778 0.78814 0.0
C796 C 0.32156 0.84254 0.79982 0.0
H797 H 0.33309 0.81573 0.70282 0.0
H798 H 0.35224 0.83864 0.72899 0.0
H799 H 0.35683 0.85445 0.76192 0.0
O800 O 0.26864 0.82054 0.7711 0.0
O801 O 0.30511 0.79207 0.77339 0.0
O802 O 0.301 0.76321 0.78323 0.0
O803 O 0.27594 0.81794 0.74282 0.0
O804 O 0.26856 0.79238 0.78525 0.0
O805 O 0.28224 0.77394 0.80113 0.0
O806 O 0.28161 0.72417 0.77204 0.0
O807 O 0.24861 0.75792 0.76998 0.0
O808 O 0.25353 0.78174 0.75158 0.0
O809 O 0.28236 0.73577 0.80184 0.0
O810 O 0.28473 0.7544 0.75482 0.0
O811 O 0.27208 0.77417 0.73934 0.0
C812 C 0.31113 0.7787 0.78041 0.0
C813 C 0.25185 0.83178 0.74776 0.0
C814 C 0.23341 0.85443 0.74754 0.0
C815 C 0.22339 0.84417 0.73087 0.0
C816 C 0.24148 0.82143 0.73127 0.0
C817 C 0.2273 0.82764 0.72291 0.0
C818 C 0.24755 0.84811 0.75608 0.0
C819 C 0.27705 0.78942 0.80059 0.0
C820 C 0.26832 0.82696 0.75515 0.0
C821 C 0.34244 0.8347 0.73831 0.0
C822 C 0.34503 0.84377 0.75705 0.0
C823 C 0.24298 0.76893 0.75882 0.0
C824 C 0.29321 0.70772 0.79613 0.0
C825 C 0.30688 0.6813 0.78997 0.0
C826 C 0.30915 0.68071 0.80947 0.0
C827 C 0.29565 0.70689 0.81561 0.0
C828 C 0.29899 0.69491 0.78329 0.0
C829 C 0.3036 0.69348 0.82219 0.0
C830 C 0.27671 0.75832 0.7396 0.0
C831 C 0.28582 0.7228 0.78972 0.0
H832 H 0.21252 0.84897 0.72404 0.0
H833 H 0.24459 0.8088 0.72459 0.0
H834 H 0.21953 0.81979 0.71004 0.0
H835 H 0.25563 0.85629 0.76866 0.0
H836 H 0.31544 0.67046 0.81487 0.0
H837 H 0.2916 0.71674 0.82584 0.0
H838 H 0.29746 0.69554 0.76827 0.0
H839 H 0.30557 0.69304 0.83721 0.0
Tb840 Tb 0.52271 0.03634 0.99199 0.0
C841 C 0.55728 0.99778 0.05892 0.0
N842 N 0.54363 0.99023 0.04509 0.0
C843 C 0.55498 0.96268 0.03971 0.0
C844 C 0.57061 0.9882 0.06341 0.0
C845 C 0.54225 0.97286 0.03556 0.0
C846 C 0.56929 0.97041 0.05364 0.0
C847 C 0.57215 0.02382 0.0825 0.0
C848 C 0.55802 0.01537 0.0682 0.0
C849 C 0.58565 0.01449 0.08685 0.0
C850 C 0.58485 0.99669 0.07737 0.0
Tb851 Tb 0.52362 0.00791 0.03877 0.0
N852 N 0.54475 0.02402 0.06345 0.0
C853 C 0.57212 0.04122 0.09229 0.0
C854 C 0.54394 0.04024 0.07439 0.0
C855 C 0.55777 0.04929 0.08847 0.0
H856 H 0.53118 0.96671 0.02494 0.0
H857 H 0.55714 0.06232 0.09666 0.0
H858 H 0.51711 0.07827 0.00604 0.0
H859 H 0.48268 0.97946 0.94039 0.0
H860 H 0.53255 0.04624 0.07312 0.0
H861 H 0.58274 0.04821 0.10332 0.0
H862 H 0.50834 0.99471 0.96268 0.0
H863 H 0.55377 0.94889 0.03214 0.0
H864 H 0.59663 0.02083 0.0977 0.0
H865 H 0.59528 0.9896 0.08096 0.0
H866 H 0.49556 0.09727 -0.00113 0.0
H867 H 0.57921 0.96255 0.05675 0.0
H868 H 0.45919 0.99599 0.93239 0.0
N869 N 0.50336 0.05481 0.98638 0.0
C870 C 0.48917 0.04751 0.97312 0.0
C871 C 0.49358 0.08328 0.99155 0.0
C872 C 0.47646 0.05783 0.96865 0.0
C873 C 0.50573 0.07244 0.99564 0.0
C874 C 0.47888 0.07596 0.97798 0.0
N875 N 0.4994 0.01972 0.9699 0.0
C876 C 0.49813 0.00217 0.96067 0.0
C877 C 0.47214 0.02108 0.95127 0.0
C878 C 0.48702 0.02932 0.96472 0.0
C879 C 0.47041 0.00282 0.94278 0.0
C880 C 0.48357 0.99341 0.94736 0.0
H881 H 0.46944 0.08435 0.97491 0.0
H882 H 0.45177 0.05738 0.95163 0.0
H883 H 0.44802 0.02521 0.93633 0.0
O884 O 0.537 0.03458 0.96881 0.0
O885 O 0.49827 0.03216 0.00363 0.0
O886 O 0.50548 0.00814 0.01431 0.0
O887 O 0.5369 0.06128 0.98526 0.0
O888 O 0.52996 0.00878 0.98739 0.0
O889 O 0.51856 0.99116 0.00995 0.0
O890 O 0.50564 0.00835 0.05876 0.0
O891 O 0.54904 0.01324 0.02829 0.0
O892 O 0.54037 0.03569 0.01646 0.0
O893 O 0.51028 0.98268 0.04517 0.0
O894 O 0.5177 0.0363 0.0435 0.0
O895 O 0.52912 0.05362 0.02067 0.0
C896 C 0.49471 0.0193 0.01377 0.0
C897 C 0.55337 0.06141 0.95828 0.0
C898 C 0.57038 0.05844 0.93211 0.0
C899 C 0.57241 0.07734 0.9314 0.0
C900 C 0.55543 0.08038 0.95776 0.0
C901 C 0.56497 0.0883 0.9443 0.0
C902 C 0.56101 0.05055 0.94551 0.0
C903 C 0.52639 0.99298 0.99432 0.0
C904 C 0.54204 0.05241 0.9708 0.0
C905 C 0.46167 0.04967 0.95528 0.0
C906 C 0.45951 0.03133 0.94661 0.0
C907 C 0.552 0.02569 0.01754 0.0
C908 C 0.50499 0.98474 0.07707 0.0
C909 C 0.49697 0.9867 0.10887 0.0
C910 C 0.50668 0.9734 0.11259 0.0
C911 C 0.51496 0.9716 0.08085 0.0
C912 C 0.49621 0.99231 0.09118 0.0
C913 C 0.51578 0.966 0.09862 0.0
C914 C 0.52195 0.05221 0.03679 0.0
C915 C 0.50306 0.99065 0.05857 0.0
H916 H 0.57946 0.08347 0.92073 0.0
H917 H 0.54932 0.08891 0.96738 0.0
H918 H 0.56634 0.10285 0.94367 0.0
H919 H 0.55934 0.03585 0.94563 0.0
H920 H 0.50715 0.96875 0.12621 0.0
H921 H 0.52194 0.96556 0.07014 0.0
H922 H 0.48827 0.00223 0.08821 0.0
H923 H 0.5233 0.95577 0.10148 0.0
Tb924 Tb 0.27085 0.25373 0.25542 0.0
C925 C 0.32901 0.3175 0.30026 0.0
N926 N 0.31321 0.30848 0.30463 0.0
C927 C 0.32649 0.30962 0.33649 0.0
C928 C 0.34424 0.32255 0.31378 0.0
C929 C 0.31167 0.30525 0.32276 0.0
C930 C 0.34289 0.31814 0.33194 0.0
C931 C 0.34534 0.33356 0.27801 0.0
C932 C 0.32959 0.32306 0.28265 0.0
C933 C 0.36066 0.33806 0.29121 0.0
C934 C 0.36011 0.3326 0.30906 0.0
Tb935 Tb 0.28973 0.30445 0.28144 0.0
N936 N 0.31444 0.31882 0.27033 0.0
C937 C 0.34504 0.33978 0.26051 0.0
C938 C 0.31379 0.32589 0.2538 0.0
C939 C 0.32914 0.33607 0.24843 0.0
H940 H 0.29895 0.30025 0.32713 0.0
H941 H 0.32861 0.34136 0.23516 0.0
H942 H 0.25972 0.26047 0.2115 0.0
H943 H 0.23317 0.21857 0.3048 0.0
H944 H 0.30139 0.32393 0.24489 0.0
H945 H 0.35685 0.34793 0.25644 0.0
H946 H 0.25997 0.23489 0.29411 0.0
H947 H 0.32512 0.30695 0.35076 0.0
H948 H 0.37287 0.34617 0.28794 0.0
H949 H 0.3719 0.33663 0.31929 0.0
H950 H 0.23334 0.25171 0.18797 0.0
H951 H 0.35425 0.32191 0.34276 0.0
H952 H 0.20502 0.21 0.28335 0.0
N953 N 0.24667 0.24927 0.23347 0.0
C954 C 0.23167 0.23871 0.23783 0.0
C955 C 0.23258 0.24826 0.20205 0.0
C956 C 0.21629 0.23302 0.22456 0.0
C957 C 0.24747 0.25362 0.21567 0.0
C958 C 0.21689 0.23799 0.20653 0.0
N959 N 0.24709 0.23847 0.26785 0.0
C960 C 0.24776 0.23272 0.28508 0.0
C961 C 0.21625 0.22293 0.26079 0.0
C962 C 0.23177 0.23346 0.25567 0.0
C963 C 0.2167 0.21796 0.27884 0.0
C964 C 0.23254 0.22285 0.29102 0.0
H965 H 0.20542 0.2337 0.19587 0.0
H966 H 0.18902 0.21779 0.21952 0.0
H967 H 0.18888 0.20922 0.25132 0.0
O968 O 0.26822 0.22508 0.25093 0.0
O969 O 0.25132 0.27151 0.26075 0.0
O970 O 0.26345 0.29128 0.28827 0.0
O971 O 0.27902 0.24155 0.23071 0.0
O972 O 0.2838 0.25565 0.28447 0.0
O973 O 0.2807 0.28399 0.2995 0.0
O974 O 0.27889 0.32661 0.2747 0.0
O975 O 0.30757 0.29093 0.26457 0.0
O976 O 0.29923 0.26043 0.26719 0.0
O977 O 0.29353 0.32798 0.30201 0.0
O978 O 0.27455 0.30055 0.25335 0.0
O979 O 0.28178 0.27446 0.2387 0.0
C980 C 0.24947 0.28211 0.27642 0.0
C981 C 0.28967 0.21475 0.23346 0.0
C982 C 0.30525 0.19227 0.24376 0.0
C983 C 0.31531 0.19356 0.2286 0.0
C984 C 0.2996 0.21585 0.2181 0.0
C985 C 0.31245 0.20535 0.21578 0.0
C986 C 0.29255 0.20284 0.24624 0.0
C987 C 0.2833 0.2672 0.29992 0.0
C988 C 0.27569 0.2252 0.23544 0.0
C989 C 0.20092 0.22235 0.22957 0.0
C990 C 0.20085 0.21745 0.24767 0.0
C991 C 0.31128 0.27448 0.26415 0.0
C992 C 0.27112 0.34497 0.30048 0.0
C993 C 0.25314 0.36775 0.29936 0.0
C994 C 0.24962 0.36636 0.31795 0.0
C995 C 0.26732 0.34322 0.31898 0.0
C996 C 0.26371 0.35697 0.29068 0.0
C997 C 0.25652 0.35388 0.32763 0.0
C998 C 0.27743 0.29038 0.2381 0.0
C999 C 0.28407 0.3361 0.29153 0.0
H1000 H 0.32491 0.18503 0.22639 0.0
H1001 H 0.2973 0.22467 0.2078 0.0
H1002 H 0.31996 0.2061 0.20385 0.0
H1003 H 0.28469 0.20136 0.25787 0.0
H1004 H 0.24168 0.37495 0.32492 0.0
H1005 H 0.27297 0.334 0.32687 0.0
H1006 H 0.26691 0.35862 0.27654 0.0
H1007 H 0.25381 0.35277 0.34197 0.0
Tb1008 Tb 0.52821 0.49849 0.01239 0.0
C1009 C 0.50434 0.56695 0.05684 0.0
N1010 N 0.49571 0.5547 0.04153 0.0
C1011 C 0.46836 0.55281 0.05498 0.0
C1012 C 0.49529 0.5725 0.07199 0.0
C1013 C 0.4779 0.54774 0.0403 0.0
C1014 C 0.47709 0.56521 0.07093 0.0
C1015 C 0.53191 0.58627 0.07314 0.0
C1016 C 0.52243 0.57363 0.05745 0.0
C1017 C 0.52295 0.59192 0.08825 0.0
C1018 C 0.5047 0.58503 0.08769 0.0
Tb1019 Tb 0.51267 0.54782 0.0184 0.0
N1020 N 0.53075 0.56745 0.04278 0.0
C1021 C 0.55007 0.59291 0.07309 0.0
C1022 C 0.54825 0.57463 0.04226 0.0
C1023 C 0.55823 0.58721 0.05749 0.0
H1024 H 0.47091 0.53871 0.02777 0.0
H1025 H 0.57216 0.59272 0.05705 0.0
H1026 H 0.57004 0.50764 0.0035 0.0
H1027 H 0.46848 0.4553 0.97207 0.0
H1028 H 0.55451 0.57126 0.02997 0.0
H1029 H 0.55784 0.60269 0.08484 0.0
H1030 H 0.48607 0.47576 -0.00021 0.0
H1031 H 0.45424 0.54727 0.05391 0.0
H1032 H 0.53001 0.60161 0.10043 0.0
H1033 H 0.49798 0.58948 0.09947 0.0
H1034 H 0.58692 0.49924 0.97744 0.0
H1035 H 0.46965 0.56913 0.08227 0.0
H1036 H 0.48303 0.44571 0.94433 0.0
N1037 N 0.54531 0.49169 0.9894 0.0
C1038 C 0.53671 0.47984 0.97379 0.0
C1039 C 0.57279 0.49374 0.9762 0.0
C1040 C 0.54585 0.47453 0.95864 0.0
C1041 C 0.56314 0.49863 0.99086 0.0
C1042 C 0.56412 0.48164 0.96002 0.0
N1043 N 0.51015 0.47938 0.98753 0.0
C1044 C 0.4925 0.47253 0.98761 0.0
C1045 C 0.50907 0.46132 0.95677 0.0
C1046 C 0.51855 0.47341 0.97284 0.0
C1047 C 0.4908 0.45503 0.9564 0.0
C1048 C 0.48252 0.46052 0.97198 0.0
H1049 H 0.57163 0.47789 0.94869 0.0
H1050 H 0.54327 0.45819 0.93083 0.0
H1051 H 0.51108 0.44658 0.92921 0.0
O1052 O 0.51998 0.47623 0.02774 0.0
O1053 O 0.52244 0.51014 0.98655 0.0
O1054 O 0.5013 0.52651 0.99416 0.0
O1055 O 0.54666 0.48317 0.02007 0.0
O1056 O 0.5039 0.50014 0.02548 0.0
O1057 O 0.49208 0.5224 0.01246 0.0
O1058 O 0.52047 0.57026 0.00313 0.0
O1059 O 0.51883 0.53665 0.04468 0.0
O1060 O 0.53937 0.52017 0.0361 0.0
O1061 O 0.49389 0.56283 0.01085 0.0
O1062 O 0.53706 0.54616 0.00518 0.0
O1063 O 0.54874 0.52398 0.01856 0.0
C1064 C 0.50996 0.51876 0.9817 0.0
C1065 C 0.54121 0.45716 0.03702 0.0
C1066 C 0.53648 0.43154 0.05529 0.0
C1067 C 0.55369 0.42918 0.05301 0.0
C1068 C 0.55838 0.45428 0.03509 0.0
C1069 C 0.5645 0.44043 0.04299 0.0
C1070 C 0.53011 0.44559 0.04719 0.0
C1071 C 0.49057 0.50804 0.02143 0.0
C1072 C 0.53563 0.47231 0.0282 0.0
C1073 C 0.53648 0.46246 0.94261 0.0
C1074 C 0.51814 0.45587 0.94167 0.0
C1075 C 0.53066 0.52702 0.04901 0.0
C1076 C 0.49874 0.58885 0.99389 0.0
C1077 C 0.50336 0.61527 0.97671 0.0
C1078 C 0.48566 0.61647 0.97778 0.0
C1079 C 0.48106 0.59056 0.99465 0.0
C1080 C 0.51 0.60139 0.98483 0.0
C1081 C 0.47464 0.60423 0.98668 0.0
C1082 C 0.55029 0.53809 0.0092 0.0
C1083 C 0.50471 0.57389 0.00273 0.0
H1084 H 0.5588 0.41851 0.05905 0.0
H1085 H 0.56722 0.46276 0.02739 0.0
H1086 H 0.57774 0.43841 0.04135 0.0
H1087 H 0.51685 0.44753 0.04889 0.0
H1088 H 0.48036 0.62701 0.9717 0.0
H1089 H 0.47206 0.5813 0.00146 0.0
H1090 H 0.52366 0.60038 0.98407 0.0
H1091 H 0.46101 0.60534 0.98742 0.0
Tb1092 Tb 0.78217 0.30032 0.25951 0.0
C1093 C 0.74359 0.23171 0.29968 0.0
N1094 N 0.75902 0.24453 0.30397 0.0
C1095 C 0.75508 0.24775 0.33687 0.0
C1096 C 0.73292 0.22685 0.3138 0.0
C1097 C 0.76527 0.25201 0.32236 0.0
C1098 C 0.73872 0.2353 0.33254 0.0
C1099 C 0.72338 0.20882 0.27625 0.0
C1100 C 0.73891 0.22278 0.28119 0.0
C1101 C 0.71231 0.20445 0.29011 0.0
C1102 C 0.71707 0.21345 0.30884 0.0
Tb1103 Tb 0.7738 0.25106 0.2789 0.0
N1104 N 0.74991 0.22736 0.26818 0.0
C1105 C 0.71962 0.19945 0.25763 0.0
C1106 C 0.7466 0.21782 0.25015 0.0
C1107 C 0.7314 0.20384 0.24457 0.0
H1108 H 0.77794 0.26163 0.32572 0.0
H1109 H 0.72871 0.19657 0.23018 0.0
H1110 H 0.77973 0.29236 0.21214 0.0
H1111 H 0.82825 0.35214 0.30953 0.0
H1112 H 0.75538 0.22139 0.23994 0.0
H1113 H 0.70782 0.18864 0.25327 0.0
H1114 H 0.79942 0.33127 0.29753 0.0
H1115 H 0.75984 0.25407 0.35137 0.0
H1116 H 0.70023 0.1939 0.28655 0.0
H1117 H 0.7086 0.20966 0.31946 0.0
H1118 H 0.80047 0.29623 0.18831 0.0
H1119 H 0.73088 0.23198 0.34381 0.0
H1120 H 0.8523 0.35531 0.2891 0.0
N1121 N 0.79933 0.30424 0.23552 0.0
C1122 C 0.81592 0.31484 0.241 0.0
C1123 C 0.80512 0.30114 0.20315 0.0
C1124 C 0.82804 0.31825 0.2278 0.0
C1125 C 0.7935 0.29838 0.21674 0.0
C1126 C 0.82258 0.31079 0.20874 0.0
N1127 N 0.80784 0.32077 0.27175 0.0
C1128 C 0.81018 0.33158 0.28904 0.0
C1129 C 0.83673 0.3358 0.2656 0.0
C1130 C 0.82025 0.32353 0.25968 0.0
C1131 C 0.83985 0.34565 0.28403 0.0
C1132 C 0.82635 0.34383 0.29565 0.0
H1133 H 0.83147 0.31317 0.19814 0.0
H1134 H 0.85441 0.33234 0.22397 0.0
H1135 H 0.862 0.3477 0.25706 0.0
O1136 O 0.76883 0.32057 0.27066 0.0
O1137 O 0.80561 0.28861 0.26606 0.0
O1138 O 0.79867 0.27174 0.28997 0.0
O1139 O 0.77892 0.3211 0.24377 0.0
O1140 O 0.7841 0.29918 0.28963 0.0
O1141 O 0.76456 0.27344 0.29495 0.0
O1142 O 0.78234 0.22664 0.26942 0.0
O1143 O 0.75035 0.25473 0.26083 0.0
O1144 O 0.75402 0.2862 0.25898 0.0
O1145 O 0.79183 0.24249 0.29725 0.0
O1146 O 0.78565 0.25731 0.25374 0.0
O1147 O 0.77213 0.27603 0.23801 0.0
C1148 C 0.81041 0.28026 0.28009 0.0
C1149 C 0.75414 0.33401 0.24761 0.0
C1150 C 0.7365 0.3573 0.2471 0.0
C1151 C 0.72737 0.34803 0.22959 0.0
C1152 C 0.74465 0.32455 0.23028 0.0
C1153 C 0.73131 0.33159 0.22133 0.0
C1154 C 0.74976 0.35017 0.25616 0.0
C1155 C 0.77242 0.29089 0.29944 0.0
C1156 C 0.77001 0.32869 0.25578 0.0
C1157 C 0.84487 0.32967 0.23388 0.0
C1158 C 0.8492 0.33843 0.25274 0.0
C1159 C 0.74395 0.26948 0.25824 0.0
C1160 C 0.7936 0.21101 0.29321 0.0
C1161 C 0.80648 0.1838 0.29207 0.0
C1162 C 0.80264 0.18224 0.31056 0.0
C1163 C 0.7895 0.209 0.31156 0.0
C1164 C 0.80176 0.1981 0.28338 0.0
C1165 C 0.79399 0.19465 0.32013 0.0
C1166 C 0.77726 0.26041 0.23836 0.0
C1167 C 0.79236 0.22791 0.28534 0.0
H1168 H 0.71721 0.35353 0.22235 0.0
H1169 H 0.7479 0.31207 0.22341 0.0
H1170 H 0.72425 0.32449 0.20781 0.0
H1171 H 0.75716 0.35763 0.26944 0.0
H1172 H 0.8063 0.17136 0.31754 0.0
H1173 H 0.78338 0.21885 0.31952 0.0
H1174 H 0.80527 0.19973 0.26936 0.0
H1175 H 0.7911 0.19336 0.33438 0.0
Tb1176 Tb 0.02174 0.53686 0.4903 0.0
C1177 C 0.05704 0.49434 0.55904 0.0
N1178 N 0.04375 0.48817 0.54452 0.0
C1179 C 0.05308 0.45939 0.53888 0.0
C1180 C 0.06935 0.48359 0.56356 0.0
C1181 C 0.04129 0.47063 0.53484 0.0
C1182 C 0.06731 0.46597 0.55313 0.0
C1183 C 0.07171 0.5185 0.58478 0.0
C1184 C 0.05807 0.51138 0.56966 0.0
C1185 C 0.08437 0.50813 0.58897 0.0
C1186 C 0.08314 0.49066 0.57843 0.0
Tb1187 Tb 0.02591 0.50831 0.53851 0.0
N1188 N 0.04577 0.5211 0.56494 0.0
C1189 C 0.0722 0.5358 0.59522 0.0
C1190 C 0.04574 0.53762 0.57567 0.0
C1191 C 0.05904 0.5453 0.59076 0.0
H1192 H 0.03014 0.46508 0.52406 0.0
H1193 H 0.05911 0.55857 0.59892 0.0
H1194 H 0.01598 0.57893 0.50325 0.0
H1195 H 0.98744 0.48405 0.43202 0.0
H1196 H 0.03569 0.54511 0.57267 0.0
H1197 H 0.08253 0.54181 0.60687 0.0
H1198 H 0.01281 0.5005 0.45493 0.0
H1199 H 0.05113 0.44561 0.53103 0.0
H1200 H 0.09503 0.51341 0.60044 0.0
H1201 H 0.09283 0.48269 0.58198 0.0
H1202 H 0.99281 0.59661 0.49823 0.0
H1203 H 0.07644 0.45724 0.5562 0.0
H1204 H 0.96073 0.49713 0.42799 0.0
N1205 N 0.0015 0.55459 0.48551 0.0
C1206 C 0.98693 0.54683 0.47292 0.0
C1207 C 0.99087 0.58252 0.49118 0.0
C1208 C 0.97336 0.55639 0.46942 0.0
C1209 C 0.00391 0.57239 0.4942 0.0
C1210 C 0.97541 0.57441 0.47891 0.0
N1211 N 0.99987 0.5213 0.46642 0.0
C1212 C 1.00088 0.50572 0.4546 0.0
C1213 C 0.97141 0.52102 0.44943 0.0
C1214 C 0.98598 0.52945 0.46316 0.0
C1215 C 0.97165 0.50408 0.43869 0.0
C1216 C 0.98665 0.49661 0.441 0.0
H1217 H 0.96535 0.58229 0.47655 0.0
H1218 H 0.94781 0.55484 0.45353 0.0
H1219 H 0.94609 0.52379 0.43599 0.0
O1220 O 0.03385 0.53721 0.46612 0.0
O1221 O 0.99736 0.52909 0.50219 0.0
O1222 O 0.00816 0.50676 0.51309 0.0
O1223 O 0.04027 0.56166 0.48803 0.0
O1224 O 0.02873 0.50899 0.48471 0.0
O1225 O 0.0285 0.49238 0.51072 0.0
O1226 O 0.00671 0.50985 0.55703 0.0
O1227 O 0.05167 0.52547 0.537 0.0
O1228 O 0.03611 0.5274 0.51161 0.0
O1229 O 0.01021 0.48369 0.54337 0.0
O1230 O 0.01895 0.53625 0.54233 0.0
O1231 O 0.02653 0.55461 0.51849 0.0
C1232 C 0.99565 0.51587 0.51232 0.0
C1233 C 0.05551 0.56185 0.4595 0.0
C1234 C 0.07165 0.55648 0.43291 0.0
C1235 C 0.07652 0.57554 0.43295 0.0
C1236 C 0.06048 0.58092 0.4598 0.0
C1237 C 0.07105 0.58774 0.44652 0.0
C1238 C 0.06146 0.54974 0.44627 0.0
C1239 C 0.0301 0.49405 0.49268 0.0
C1240 C 0.04278 0.554 0.47142 0.0
C1241 C 0.95845 0.54779 0.45633 0.0
C1242 C 0.95745 0.5301 0.44638 0.0
C1243 C 0.05125 0.53281 0.52188 0.0
C1244 C 0.00148 0.48471 0.57379 0.0
C1245 C 0.99423 0.48803 0.60589 0.0
C1246 C 0.99717 0.47037 0.60741 0.0
C1247 C 0.00421 0.46693 0.57527 0.0
C1248 C 0.99654 0.49516 0.58917 0.0
C1249 C 0.00216 0.45988 0.5921 0.0
C1250 C 0.02201 0.55232 0.53566 0.0
C1251 C 0.00238 0.49201 0.55596 0.0
H1252 H 0.08423 0.58088 0.42233 0.0
H1253 H 0.05579 0.59043 0.46984 0.0
H1254 H 0.07465 0.60243 0.44645 0.0
H1255 H 0.05765 0.53493 0.44584 0.0
H1256 H 0.99492 0.46443 0.62012 0.0
H1257 H 0.00767 0.45838 0.5634 0.0
H1258 H 0.99395 0.50869 0.58799 0.0
H1259 H 0.00405 0.44611 0.59314 0.0
Tb1260 Tb 0.80227 0.7649 0.26991 0.0
C1261 C 0.73796 0.79167 0.2275 0.0
N1262 N 0.75018 0.79977 0.24263 0.0
C1263 C 0.75388 0.82856 0.23081 0.0
C1264 C 0.7335 0.80164 0.21317 0.0
C1265 C 0.75772 0.81815 0.24476 0.0
C1266 C 0.74182 0.82024 0.21486 0.0
C1267 C 0.7166 0.76449 0.21139 0.0
C1268 C 0.72965 0.77334 0.22657 0.0
C1269 C 0.71227 0.77429 0.19694 0.0
C1270 C 0.72072 0.7928 0.19781 0.0
Tb1271 Tb 0.75484 0.78126 0.26456 0.0
N1272 N 0.73458 0.76414 0.24052 0.0
C1273 C 0.7083 0.74608 0.21126 0.0
C1274 C 0.72597 0.7465 0.24092 0.0
C1275 C 0.71291 0.7371 0.22618 0.0
H1276 H 0.76629 0.82502 0.25746 0.0
H1277 H 0.70625 0.72303 0.22646 0.0
H1278 H 0.79107 0.72124 0.27764 0.0
H1279 H 0.84146 0.82713 0.31258 0.0
H1280 H 0.72879 0.7398 0.2528 0.0
H1281 H 0.69817 0.73877 0.19987 0.0
H1282 H 0.82196 0.80902 0.28454 0.0
H1283 H 0.76 0.84307 0.23251 0.0
H1284 H 0.70234 0.7677 0.18509 0.0
H1285 H 0.71715 0.80022 0.18664 0.0
H1286 H 0.7978 0.70393 0.30314 0.0
H1287 H 0.73876 0.8284 0.20416 0.0
H1288 H 0.85036 0.81166 0.33905 0.0
N1289 N 0.80628 0.747 0.29236 0.0
C1290 C 0.81749 0.75596 0.30803 0.0
C1291 C 0.80333 0.71858 0.30472 0.0
C1292 C 0.82199 0.74647 0.32275 0.0
C1293 C 0.79931 0.72852 0.29041 0.0
C1294 C 0.81472 0.72757 0.32095 0.0
N1295 N 0.81867 0.78386 0.29552 0.0
C1296 C 0.82509 0.80227 0.29624 0.0
C1297 C 0.83538 0.78466 0.32576 0.0
C1298 C 0.82403 0.77492 0.30957 0.0
C1299 C 0.84155 0.80369 0.32687 0.0
C1300 C 0.83645 0.8125 0.31201 0.0
H1301 H 0.81784 0.71979 0.33197 0.0
H1302 H 0.8371 0.74906 0.35026 0.0
H1303 H 0.84889 0.78241 0.35284 0.0
O1304 O 0.82682 0.77448 0.25993 0.0
O1305 O 0.7892 0.77125 0.29566 0.0
O1306 O 0.77489 0.79373 0.28853 0.0
O1307 O 0.81873 0.74633 0.26377 0.0
O1308 O 0.80112 0.78912 0.25613 0.0
O1309 O 0.7798 0.80181 0.26994 0.0
O1310 O 0.73342 0.77316 0.28111 0.0
O1311 O 0.76297 0.76956 0.23761 0.0
O1312 O 0.78788 0.75633 0.24153 0.0
O1313 O 0.7402 0.80036 0.27306 0.0
O1314 O 0.75736 0.75603 0.2759 0.0
O1315 O 0.77837 0.74286 0.26146 0.0
C1316 C 0.78095 0.78453 0.30095 0.0
C1317 C 0.83817 0.75202 0.24046 0.0
C1318 C 0.86318 0.75314 0.2216 0.0
C1319 C 0.85372 0.73698 0.20986 0.0
C1320 C 0.82896 0.73611 0.2281 0.0
C1321 C 0.83672 0.72866 0.21299 0.0
C1322 C 0.8553 0.76073 0.23694 0.0
C1323 C 0.79289 0.80272 0.2595 0.0
C1324 C 0.83077 0.75831 0.25799 0.0
C1325 C 0.83343 0.75615 0.33883 0.0
C1326 C 0.84014 0.77515 0.3403 0.0
C1327 C 0.77482 0.76061 0.23112 0.0
C1328 C 0.71419 0.79577 0.28886 0.0
C1329 C 0.68937 0.79357 0.30791 0.0
C1330 C 0.68603 0.81 0.30255 0.0
C1331 C 0.71021 0.81209 0.28365 0.0
C1332 C 0.70349 0.78632 0.30095 0.0
C1333 C 0.69631 0.8191 0.29047 0.0
C1334 C 0.76291 0.7416 0.26807 0.0
C1335 C 0.7297 0.78943 0.28163 0.0
H1336 H 0.85951 0.73079 0.19813 0.0
H1337 H 0.81587 0.72911 0.23035 0.0
H1338 H 0.82961 0.71622 0.20379 0.0
H1339 H 0.86265 0.77293 0.2464 0.0
H1340 H 0.67522 0.81571 0.30759 0.0
H1341 H 0.71792 0.81962 0.2743 0.0
H1342 H 0.70621 0.77369 0.30505 0.0
H1343 H 0.69349 0.83169 0.28637 0.0
Tb1344 Tb 0.76495 0.27812 0.79237 0.0
C1345 C 0.804 0.24227 0.71938 0.0
N1346 N 0.81095 0.25703 0.73294 0.0
C1347 C 0.83932 0.24877 0.73392 0.0
C1348 C 0.81447 0.23006 0.71252 0.0
C1349 C 0.82834 0.26035 0.74041 0.0
C1350 C 0.83238 0.23358 0.71985 0.0
C1351 C 0.77801 0.22273 0.70033 0.0
C1352 C 0.78609 0.23878 0.71331 0.0
C1353 C 0.78843 0.2108 0.69297 0.0
C1354 C 0.80664 0.21447 0.69905 0.0
Tb1355 Tb 0.79224 0.27517 0.74303 0.0
N1356 N 0.77639 0.25029 0.72134 0.0
C1357 C 0.75961 0.21869 0.69575 0.0
C1358 C 0.75827 0.2457 0.71759 0.0
C1359 C 0.7497 0.23013 0.7046 0.0
H1360 H 0.83387 0.27203 0.75133 0.0
H1361 H 0.73538 0.22674 0.70177 0.0
H1362 H 0.72329 0.28314 0.78436 0.0
H1363 H 0.81209 0.30587 0.85513 0.0
H1364 H 0.75001 0.25329 0.72496 0.0
H1365 H 0.75289 0.20645 0.68595 0.0
H1366 H 0.79684 0.28177 0.82871 0.0
H1367 H 0.8531 0.25151 0.73984 0.0
H1368 H 0.78245 0.19844 0.68297 0.0
H1369 H 0.81446 0.20493 0.6936 0.0
H1370 H 0.70673 0.30755 0.79247 0.0
H1371 H 0.84086 0.22451 0.71499 0.0
H1372 H 0.80043 0.33407 0.86296 0.0
N1373 N 0.74679 0.29737 0.80201 0.0
C1374 C 0.75405 0.31156 0.81611 0.0
C1375 C 0.72018 0.30903 0.79903 0.0
C1376 C 0.74521 0.32579 0.82141 0.0
C1377 C 0.72967 0.29537 0.79422 0.0
C1378 C 0.72816 0.32457 0.81233 0.0
N1379 N 0.77757 0.29676 0.82046 0.0
C1380 C 0.79187 0.29418 0.83152 0.0
C1381 C 0.77809 0.32524 0.84098 0.0
C1382 C 0.77007 0.31121 0.82581 0.0
C1383 C 0.79376 0.32357 0.85122 0.0
C1384 C 0.8004 0.3077 0.8468 0.0
H1385 H 0.72085 0.33518 0.81597 0.0
H1386 H 0.74713 0.35173 0.83985 0.0
H1387 H 0.77609 0.35132 0.85695 0.0
O1388 O 0.76632 0.25599 0.80713 0.0
O1389 O 0.77931 0.30589 0.79032 0.0
O1390 O 0.78393 0.28814 0.76675 0.0
O1391 O 0.74127 0.26249 0.79848 0.0
O1392 O 0.79269 0.27301 0.7954 0.0
O1393 O 0.80967 0.2792 0.77009 0.0
O1394 O 0.79036 0.29236 0.72285 0.0
O1395 O 0.78602 0.24988 0.75417 0.0
O1396 O 0.76304 0.25936 0.76582 0.0
O1397 O 0.81535 0.29408 0.73971 0.0
O1398 O 0.76589 0.28269 0.73873 0.0
O1399 O 0.74947 0.28137 0.76522 0.0
C1400 C 0.78672 0.30483 0.77518 0.0
C1401 C 0.74212 0.24633 0.8242 0.0
C1402 C 0.74607 0.23768 0.85527 0.0
C1403 C 0.7276 0.23229 0.85474 0.0
C1404 C 0.72366 0.2408 0.82376 0.0
C1405 C 0.71645 0.23384 0.839 0.0
C1406 C 0.75335 0.24461 0.83999 0.0
C1407 C 0.80778 0.27529 0.78743 0.0
C1408 C 0.74921 0.25178 0.80718 0.0
C1409 C 0.75352 0.34042 0.83583 0.0
C1410 C 0.76999 0.34018 0.84558 0.0
C1411 C 0.7724 0.24668 0.76352 0.0
C1412 C 0.81567 0.30033 0.70823 0.0
C1413 C 0.81465 0.30944 0.67719 0.0
C1414 C 0.82922 0.30158 0.67356 0.0
C1415 C 0.83015 0.2923 0.70459 0.0
C1416 C 0.80818 0.30899 0.69459 0.0
C1417 C 0.83692 0.29301 0.68727 0.0
C1418 C 0.75138 0.28382 0.74723 0.0
C1419 C 0.80729 0.29951 0.72555 0.0
H1420 H 0.72185 0.22648 0.86633 0.0
H1421 H 0.7148 0.2415 0.81143 0.0
H1422 H 0.70224 0.22937 0.83849 0.0
H1423 H 0.76763 0.24835 0.84036 0.0
H1424 H 0.83441 0.30182 0.6601 0.0
H1425 H 0.83616 0.28548 0.71496 0.0
H1426 H 0.79707 0.31531 0.69748 0.0
H1427 H 0.84804 0.28679 0.68441 0.0
Tb1428 Tb 0.77281 0.75497 0.75636 0.0
C1429 C 0.82938 0.82004 0.80011 0.0
N1430 N 0.81455 0.80949 0.80486 0.0
C1431 C 0.82952 0.80991 0.83571 0.0
C1432 C 0.8451 0.82543 0.81288 0.0
C1433 C 0.81427 0.80483 0.82256 0.0
C1434 C 0.84504 0.82018 0.83083 0.0
C1435 C 0.84412 0.83583 0.77674 0.0
C1436 C 0.82878 0.82537 0.78227 0.0
C1437 C 0.85984 0.84107 0.78939 0.0
C1438 C 0.8603 0.836 0.80744 0.0
Tb1439 Tb 0.78985 0.80563 0.78385 0.0
N1440 N 0.81318 0.82045 0.7705 0.0
C1441 C 0.84315 0.84095 0.75876 0.0
C1442 C 0.81202 0.82634 0.75335 0.0
C1443 C 0.82702 0.83624 0.74706 0.0
H1444 H 0.80215 0.79792 0.82697 0.0
H1445 H 0.82602 0.84067 0.73336 0.0
H1446 H 0.76284 0.76116 0.71148 0.0
H1447 H 0.73743 0.70982 0.79856 0.0
H1448 H 0.79958 0.82426 0.74468 0.0
H1449 H 0.85466 0.8489 0.75396 0.0
H1450 H 0.76359 0.73002 0.78968 0.0
H1451 H 0.82919 0.80621 0.84973 0.0
H1452 H 0.8717 0.84922 0.78541 0.0
H1453 H 0.87247 0.84033 0.81709 0.0
H1454 H 0.73638 0.75459 0.68812 0.0
H1455 H 0.8568 0.82421 0.84111 0.0
H1456 H 0.70876 0.70317 0.77797 0.0
N1457 N 0.74924 0.74987 0.73309 0.0
C1458 C 0.73396 0.73926 0.73686 0.0
C1459 C 0.73541 0.75052 0.70193 0.0
C1460 C 0.71863 0.7344 0.72352 0.0
C1461 C 0.75035 0.75473 0.71551 0.0
C1462 C 0.7194 0.74054 0.70603 0.0
N1463 N 0.74941 0.73635 0.76562 0.0
C1464 C 0.75096 0.72792 0.78116 0.0
C1465 C 0.71898 0.72012 0.75766 0.0
C1466 C 0.73412 0.73209 0.7536 0.0
C1467 C 0.7201 0.71243 0.77431 0.0
C1468 C 0.73624 0.71619 0.786 0.0
H1469 H 0.70795 0.73701 0.69535 0.0
H1470 H 0.69134 0.71914 0.71767 0.0
H1471 H 0.69163 0.70674 0.74766 0.0
O1472 O 0.78792 0.73556 0.76206 0.0
O1473 O 0.75327 0.76629 0.77248 0.0
O1474 O 0.76106 0.79786 0.77358 0.0
O1475 O 0.77223 0.73308 0.7345 0.0
O1476 O 0.78565 0.7587 0.7857 0.0
O1477 O 0.77855 0.78501 0.80054 0.0
O1478 O 0.79237 0.83431 0.7878 0.0
O1479 O 0.80959 0.78781 0.77884 0.0
O1480 O 0.79772 0.77125 0.7501 0.0
O1481 O 0.78334 0.81855 0.80926 0.0
O1482 O 0.77577 0.80425 0.75528 0.0
O1483 O 0.78077 0.77705 0.73993 0.0
C1484 C 0.74926 0.78272 0.77462 0.0
C1485 C 0.78928 0.70982 0.73819 0.0
C1486 C 0.80665 0.68732 0.74431 0.0
C1487 C 0.80238 0.67886 0.72529 0.0
C1488 C 0.78496 0.70127 0.71922 0.0
C1489 C 0.79156 0.68585 0.71282 0.0
C1490 C 0.80012 0.70282 0.75063 0.0
C1491 C 0.78162 0.76845 0.80067 0.0
C1492 C 0.78322 0.72649 0.74494 0.0
C1493 C 0.70327 0.72297 0.72773 0.0
C1494 C 0.70344 0.71586 0.74478 0.0
C1495 C 0.81161 0.77807 0.76274 0.0
C1496 C 0.77459 0.84685 0.80902 0.0
C1497 C 0.75767 0.86926 0.80072 0.0
C1498 C 0.75449 0.87285 0.81966 0.0
C1499 C 0.77138 0.85065 0.82789 0.0
C1500 C 0.76751 0.85602 0.79543 0.0
C1501 C 0.76126 0.86349 0.83314 0.0
C1502 C 0.77563 0.79268 0.73965 0.0
C1503 C 0.78684 0.83481 0.80436 0.0
H1504 H 0.80696 0.66655 0.72023 0.0
H1505 H 0.77663 0.70657 0.70935 0.0
H1506 H 0.78817 0.67921 0.69823 0.0
H1507 H 0.80347 0.70934 0.7653 0.0
H1508 H 0.74725 0.88329 0.82418 0.0
H1509 H 0.77703 0.84394 0.83865 0.0
H1510 H 0.76999 0.85321 0.78084 0.0
H1511 H 0.75902 0.86653 0.84776 0.0
Tb1512 Tb 0.54574 0.53259 0.52485 0.0
C1513 C 0.48364 0.47043 0.47758 0.0
N1514 N 0.49332 0.48634 0.47355 0.0
C1515 C 0.49283 0.47189 0.44148 0.0
C1516 C 0.47815 0.45459 0.46364 0.0
C1517 C 0.49795 0.48724 0.45575 0.0
C1518 C 0.48284 0.4555 0.44542 0.0
C1519 C 0.46955 0.45365 0.50063 0.0
C1520 C 0.47929 0.47003 0.49582 0.0
C1521 C 0.46389 0.43792 0.48674 0.0
C1522 C 0.46812 0.43841 0.46828 0.0
Tb1523 Tb 0.49811 0.51118 0.4972 0.0
N1524 N 0.48486 0.48558 0.50888 0.0
C1525 C 0.46573 0.45358 0.51924 0.0
C1526 C 0.48058 0.48564 0.52687 0.0
C1527 C 0.4713 0.46966 0.53241 0.0
H1528 H 0.50464 0.50006 0.45215 0.0
H1529 H 0.46813 0.46987 0.54678 0.0
H1530 H 0.54213 0.54554 0.57015 0.0
H1531 H 0.57728 0.57009 0.47334 0.0
H1532 H 0.48376 0.49792 0.53696 0.0
H1533 H 0.45835 0.44127 0.52352 0.0
H1534 H 0.56299 0.54274 0.48545 0.0
H1535 H 0.49628 0.47282 0.42735 0.0
H1536 H 0.45624 0.42529 0.49015 0.0
H1537 H 0.46364 0.42616 0.45771 0.0
H1538 H 0.55083 0.57372 0.59377 0.0
H1539 H 0.47874 0.44368 0.43428 0.0
H1540 H 0.58512 0.60027 0.4943 0.0
N1541 N 0.55215 0.55824 0.54764 0.0
C1542 C 0.56106 0.57392 0.54247 0.0
C1543 C 0.55362 0.57405 0.57934 0.0
C1544 C 0.56655 0.59039 0.55557 0.0
C1545 C 0.54839 0.55811 0.56581 0.0
C1546 C 0.56274 0.59028 0.5742 0.0
N1547 N 0.55951 0.55716 0.51187 0.0
C1548 C 0.56469 0.55579 0.49419 0.0
C1549 C 0.57405 0.58942 0.51804 0.0
C1550 C 0.56476 0.57342 0.52396 0.0
C1551 C 0.57803 0.5883 0.49941 0.0
C1552 C 0.57351 0.57133 0.48751 0.0
H1553 H 0.56687 0.60259 0.58473 0.0
H1554 H 0.58012 0.6191 0.5596 0.0
H1555 H 0.58663 0.61828 0.5267 0.0
O1556 O 0.56865 0.52326 0.51865 0.0
O1557 O 0.52931 0.55297 0.51985 0.0
O1558 O 0.51074 0.53918 0.49264 0.0
O1559 O 0.56447 0.5322 0.54783 0.0
O1560 O 0.54373 0.51684 0.49604 0.0
O1561 O 0.51857 0.52248 0.48106 0.0
O1562 O 0.47395 0.51847 0.5023 0.0
O1563 O 0.51461 0.49102 0.50321 0.0
O1564 O 0.53209 0.50566 0.5307 0.0
O1565 O 0.47999 0.51097 0.47352 0.0
O1566 O 0.4991 0.52627 0.52614 0.0
O1567 O 0.52524 0.52308 0.54203 0.0
C1568 C 0.51858 0.55402 0.50489 0.0
C1569 C 0.59134 0.5214 0.54346 0.0
C1570 C 0.61735 0.51002 0.53649 0.0
C1571 C 0.62249 0.51082 0.55585 0.0
C1572 C 0.59641 0.52224 0.56291 0.0
C1573 C 0.61199 0.51695 0.56905 0.0
C1574 C 0.60189 0.5153 0.53035 0.0
C1575 C 0.53385 0.5178 0.48047 0.0
C1576 C 0.57452 0.52553 0.53659 0.0
C1577 C 0.57574 0.60635 0.54972 0.0
C1578 C 0.57942 0.60589 0.53098 0.0
C1579 C 0.52503 0.49053 0.51865 0.0
C1580 C 0.45176 0.51908 0.47636 0.0
C1581 C 0.42722 0.53404 0.48046 0.0
C1582 C 0.42036 0.52761 0.46141 0.0
C1583 C 0.44488 0.51252 0.45734 0.0
C1584 C 0.44293 0.52981 0.48776 0.0
C1585 C 0.42919 0.51681 0.44991 0.0
C1586 C 0.50929 0.5265 0.54198 0.0
C1587 C 0.46883 0.51624 0.48417 0.0
H1588 H 0.63444 0.50651 0.56067 0.0
H1589 H 0.58823 0.52666 0.57328 0.0
H1590 H 0.61581 0.51742 0.584 0.0
H1591 H 0.59801 0.51435 0.51528 0.0
H1592 H 0.40809 0.53065 0.45557 0.0
H1593 H 0.45169 0.50429 0.44822 0.0
H1594 H 0.4485 0.53526 0.50232 0.0
H1595 H 0.42387 0.51177 0.43526 0.0
Tb1596 Tb 0.99742 0.52341 0.02333 0.0
C1597 C 0.06342 0.56129 0.99067 0.0
N1598 N 0.05154 0.54507 0.9843 0.0
C1599 C 0.04817 0.55381 0.95339 0.0
C1600 C 0.06717 0.57486 0.97893 0.0
C1601 C 0.04504 0.54071 0.96547 0.0
C1602 C 0.05896 0.57111 0.96025 0.0
C1603 C 0.08508 0.58053 0.01575 0.0
C1604 C 0.07254 0.56404 0.00878 0.0
C1605 C 0.08829 0.59431 0.00434 0.0
C1606 C 0.07937 0.59148 0.98597 0.0
Tb1607 Tb 0.04722 0.52565 0.00646 0.0
N1608 N 0.06877 0.55067 0.01975 0.0
C1609 C 0.09401 0.58266 0.03402 0.0
C1610 C 0.07781 0.55241 0.03736 0.0
C1611 C 0.09046 0.56849 0.0448 0.0
H1612 H 0.03767 0.52706 0.95938 0.0
H1613 H 0.09743 0.57001 0.05885 0.0
H1614 H 0.00855 0.51985 0.06966 0.0
H1615 H 0.94738 0.48074 0.96968 0.0
H1616 H 0.07514 0.54144 0.04565 0.0
H1617 H 0.10374 0.59514 0.03989 0.0
H1618 H 0.97096 0.5082 0.98301 0.0
H1619 H 0.04252 0.55041 0.93868 0.0
H1620 H 0.0978 0.60713 0.0095 0.0
H1621 H 0.08226 0.6021 0.9772 0.0
H1622 H 0.0017 0.49671 0.08998 0.0
H1623 H 0.06148 0.58117 0.9508 0.0
H1624 H 0.93888 0.4562 0.98881 0.0
N1625 N 0.99351 0.50302 0.04453 0.0
C1626 C 0.98061 0.48756 0.03806 0.0
C1627 C 0.99602 0.49374 0.07527 0.0
C1628 C 0.97567 0.4742 0.04978 0.0
C1629 C 1.00035 0.5067 0.06329 0.0
C1630 C 0.98386 0.47729 0.06842 0.0
N1631 N 0.97634 0.49857 0.00892 0.0
C1632 C 0.9676 0.49729 0.99123 0.0
C1633 C 0.95798 0.46975 0.01299 0.0
C1634 C 0.97158 0.48542 0.01992 0.0
C1635 C 0.94934 0.46807 0.99465 0.0
C1636 C 0.95415 0.48191 0.98376 0.0
H1637 H 0.98034 0.46742 0.07786 0.0
H1638 H 0.95842 0.4481 0.05161 0.0
H1639 H 0.94313 0.44409 0.01934 0.0
O1640 O 0.97373 0.53241 0.0158 0.0
O1641 O 0.00221 0.49776 0.0064 0.0
O1642 O 0.03198 0.50021 0.01443 0.0
O1643 O 0.98562 0.53583 0.04513 0.0
O1644 O 0.00582 0.53474 -0.00125 0.0
O1645 O 0.02429 0.51792 0.98519 0.0
O1646 O 0.07099 0.51686 0.01358 0.0
O1647 O 0.04269 0.55172 0.02286 0.0
O1648 O 0.01232 0.55034 0.01789 0.0
O1649 O 0.05624 0.50868 0.98568 0.0
O1650 O 0.03822 0.51587 0.03162 0.0
O1651 O 0.01998 0.53276 0.04503 0.0
C1652 C 0.01634 0.49034 0.00652 0.0
C1653 C 0.95849 0.5467 0.04029 0.0
C1654 C 0.93411 0.56215 0.03505 0.0
C1655 C 0.93236 0.56382 0.05443 0.0
C1656 C 0.95649 0.54847 0.05965 0.0
C1657 C 0.94347 0.55694 0.06663 0.0
C1658 C 0.94711 0.55346 0.0279 0.0
C1659 C 0.01038 0.52526 0.98418 0.0
C1660 C 0.97273 0.53818 0.03347 0.0
C1661 C 0.96228 0.45848 0.0428 0.0
C1662 C 0.9535 0.45625 0.02446 0.0
C1663 C 0.02886 0.55967 0.02329 0.0
C1664 C 0.08606 0.50489 0.98862 0.0
C1665 C 0.11033 0.48861 0.98768 0.0
C1666 C 0.11319 0.49367 0.96992 0.0
C1667 C 0.08929 0.5101 0.97101 0.0
C1668 C 0.09687 0.49448 0.99706 0.0
C1669 C 0.10286 0.50454 0.96178 0.0
C1670 C 0.03452 0.52651 0.04587 0.0
C1671 C 0.06985 0.50718 0.9969 0.0
H1672 H 0.92239 0.5705 0.0601 0.0
H1673 H 0.96502 0.54331 0.06945 0.0
H1674 H 0.94204 0.55828 0.08156 0.0
H1675 H 0.94854 0.5523 0.01296 0.0
H1676 H 0.12351 0.48931 0.96243 0.0
H1677 H 0.081 0.51793 0.96413 0.0
H1678 H 0.09422 0.49013 0.01049 0.0
H1679 H 0.10516 0.50834 0.94808 0.0
H1680 H 0.02392 0.22528 0.97097 0.0
H1681 H 0.02931 0.19681 0.98207 0.0
H1682 H 0.97793 0.1673 0.95446 0.0
H1683 H 0.97227 0.19561 0.94407 0.0
H1684 H 0.00346 0.1699 0.00402 0.0
H1685 H 0.0184 0.13894 0.93431 0.0
H1686 H 0.02121 0.16353 0.94129 0.0
H1687 H 0.99943 0.14944 0.93401 0.0
C1688 C 0.01375 0.21275 0.96738 0.0
C1689 C 0.99758 0.21288 0.95671 0.0
C1690 C 0.01682 0.19643 0.97375 0.0
C1691 C 0.00405 0.1797 0.96911 0.0
C1692 C 0.98802 0.17988 0.95835 0.0
H1693 H 0.99032 0.06315 0.98253 0.0
H1694 H 0.98767 0.0934 0.97438 0.0
C1695 C 0.98477 0.19619 0.95245 0.0
C1696 C 0.00727 0.16192 0.97507 0.0
H1697 H 0.01413 0.11928 0.95741 0.0
C1698 C 0.00599 0.15893 0.99386 0.0
C1699 C 0.01048 0.14739 0.96193 0.0
C1700 C 0.01261 0.14989 0.94176 0.0
C1701 C 0.0074 0.14185 -0.00037 0.0
C1702 C 0.0103 0.1272 0.98637 0.0
C1703 C 0.0118 0.1303 0.96765 0.0
C1704 C 0.0118 0.10865 0.99165 0.0
C1705 C 0.00525 0.13935 0.0198 0.0
C1706 C 0.02626 0.10681 0.00406 0.0
C1707 C 0.02789 0.08946 0.00858 0.0
C1708 C 0.01505 0.07329 0.00103 0.0
C1709 C 1.00044 0.07518 0.98879 0.0
C1710 C 0.99895 0.09254 0.98403 0.0
H1711 H 0.99995 0.1506 0.02742 0.0
H1712 H 0.99623 0.12595 0.02023 0.0
H1713 H 0.01833 0.13926 0.02743 0.0
H1714 H 0.03647 0.11883 0.0101 0.0
H1715 H 0.03924 0.08876 0.01815 0.0
H1716 H 0.10616 0.77205 0.13373 0.0
H1717 H 0.13326 0.76627 0.15035 0.0
H1718 H 0.14025 0.81817 0.18733 0.0
H1719 H 0.11315 0.82369 0.17131 0.0
H1720 H 0.16797 0.78316 0.15686 0.0
H1721 H 0.14238 0.78503 0.22609 0.0
H1722 H 0.12834 0.78426 0.20442 0.0
H1723 H 0.14178 0.80585 0.21666 0.0
C1724 C 0.11354 0.78228 0.14533 0.0
C1725 C 0.10725 0.79828 0.15123 0.0
C1726 C 0.12907 0.77894 0.1549 0.0
C1727 C 0.13872 0.7915 0.1706 0.0
C1728 C 0.13287 0.80786 0.17581 0.0
H1729 H 0.23826 0.80573 0.24504 0.0
H1730 H 0.21103 0.80927 0.22664 0.0
C1731 C 0.11735 0.8111 0.16644 0.0
C1732 C 0.15484 0.78774 0.18161 0.0
H1733 H 0.17363 0.78725 0.2267 0.0
C1734 C 0.16907 0.7839 0.1721 0.0
C1735 C 0.15648 0.78847 0.20159 0.0
C1736 C 0.14136 0.79092 0.21276 0.0
C1737 C 0.18491 0.78149 0.18196 0.0
C1738 C 0.18674 0.78292 0.20195 0.0
C1739 C 0.17243 0.78641 0.21143 0.0
C1740 C 0.20335 0.78075 0.21321 0.0
C1741 C 0.19983 0.77785 0.17099 0.0
C1742 C 0.20811 0.76352 0.21211 0.0
C1743 C 0.22357 0.76148 0.22275 0.0
C1744 C 0.23479 0.77663 0.23462 0.0
C1745 C 0.22999 0.79385 0.23586 0.0
C1746 C 0.2144 0.79586 0.22537 0.0
H1747 H 0.19751 0.77991 0.15603 0.0
H1748 H 0.21257 0.78704 0.17772 0.0
H1749 H 0.20117 0.76341 0.17114 0.0
H1750 H 0.19978 0.75157 0.2031 0.0
H1751 H 0.22679 0.74803 0.22158 0.0
H1752 H 0.47257 0.8151 0.44005 0.0
H1753 H 0.47793 0.84849 0.44967 0.0
H1754 H 0.52725 0.84747 0.48216 0.0
H1755 H 0.52232 0.81401 0.47142 0.0
H1756 H 0.47956 0.86892 0.48134 0.0
H1757 H 0.5455 0.89004 0.45779 0.0
H1758 H 0.53251 0.86683 0.45138 0.0
H1759 H 0.54535 0.87421 0.47434 0.0
C1760 C 0.48464 0.82202 0.44915 0.0
C1761 C 0.49701 0.81183 0.45493 0.0
C1762 C 0.48772 0.84122 0.4547 0.0
C1763 C 0.50317 0.85097 0.46653 0.0
C1764 C 0.51549 0.8407 0.47256 0.0
H1765 H 0.5382 0.96813 0.51814 0.0
H1766 H 0.53496 0.93488 0.50856 0.0
C1767 C 0.51259 0.82144 0.46657 0.0
C1768 C 0.50574 0.87159 0.47288 0.0
H1769 H 0.5348 0.9133 0.47607 0.0
C1770 C 0.49166 0.87855 0.48004 0.0
C1771 C 0.52151 0.88452 0.47145 0.0
C1772 C 0.53701 0.87857 0.46316 0.0
C1773 C 0.49285 0.89761 0.48585 0.0
C1774 C 0.50854 0.91052 0.48427 0.0
C1775 C 0.52272 0.90361 0.47733 0.0
C1776 C 0.51055 0.93112 0.48987 0.0
C1777 C 0.47734 0.90362 0.49408 0.0
C1778 C 0.49819 0.94056 0.48239 0.0
C1779 C 0.49997 0.95968 0.48798 0.0
C1780 C 0.51427 0.97004 0.50111 0.0
C1781 C 0.52692 0.9607 0.50813 0.0
C1782 C 0.52509 0.94157 0.50262 0.0
H1783 H 0.46898 0.89226 0.49973 0.0
H1784 H 0.4818 0.91558 0.50563 0.0
H1785 H 0.46888 0.9077 0.48279 0.0
H1786 H 0.48716 0.93319 0.47205 0.0
H1787 H 0.49023 0.96636 0.48182 0.0
H1788 H 0.50782 0.31188 0.64696 0.0
H1789 H 0.48115 0.31016 0.66299 0.0
H1790 H 0.47086 0.25076 0.65087 0.0
H1791 H 0.49821 0.25258 0.63573 0.0
H1792 H 0.44737 0.29765 0.6516 0.0
H1793 H 0.46625 0.25683 0.70577 0.0
H1794 H 0.48174 0.2667 0.69081 0.0
H1795 H 0.46603 0.24532 0.68218 0.0
C1796 C 0.49991 0.29846 0.64789 0.0
C1797 C 0.50513 0.28236 0.64033 0.0
C1798 C 0.48462 0.29747 0.657 0.0
C1799 C 0.47401 0.28033 0.65855 0.0
C1800 C 0.47903 0.26418 0.6505 0.0
H1801 H 0.36861 0.24702 0.68786 0.0
H1802 H 0.39425 0.25631 0.67111 0.0
C1803 C 0.4946 0.26518 0.64172 0.0
C1804 C 0.45767 0.27949 0.66838 0.0
H1805 H 0.43635 0.26041 0.70291 0.0
C1806 C 0.44505 0.28955 0.66287 0.0
C1807 C 0.45461 0.26922 0.68338 0.0
C1808 C 0.46796 0.25907 0.69103 0.0
C1809 C 0.42938 0.28912 0.67148 0.0
C1810 C 0.42611 0.27833 0.68593 0.0
C1811 C 0.43883 0.26864 0.69176 0.0
C1812 C 0.40923 0.27605 0.69464 0.0
C1813 C 0.41635 0.30021 0.66519 0.0
C1814 C 0.4088 0.2846 0.71322 0.0
C1815 C 0.39398 0.27951 0.72274 0.0
C1816 C 0.37941 0.26566 0.71389 0.0
C1817 C 0.37944 0.25804 0.69488 0.0
C1818 C 0.39416 0.26323 0.68534 0.0
H1819 H 0.42148 0.30919 0.65496 0.0
H1820 H 0.40379 0.29074 0.65843 0.0
H1821 H 0.41323 0.30894 0.67766 0.0
H1822 H 0.42033 0.29444 0.72071 0.0
H1823 H 0.39451 0.28528 0.73749 0.0
H1824 H 0.98205 0.79661 0.64074 0.0
H1825 H 0.98726 0.8238 0.62546 0.0
H1826 H 0.04294 0.82355 0.6289 0.0
H1827 H 0.03786 0.79603 0.64475 0.0
H1828 H 0.01146 0.85962 0.63974 0.0
H1829 H 0.02492 0.82438 0.57106 0.0
H1830 H 0.01362 0.812 0.58782 0.0
H1831 H 0.03716 0.8205 0.59214 0.0
C1832 C 0.99548 0.80213 0.63821 0.0
C1833 C 0.00953 0.79385 0.64385 0.0
C1834 C 0.99841 0.81785 0.62953 0.0
C1835 C 0.01544 0.82573 0.62589 0.0
C1836 C 0.02963 0.81764 0.63146 0.0
H1837 H 0.05544 0.92695 0.58302 0.0
H1838 H 0.04919 0.90272 0.60284 0.0
C1839 C 0.02674 0.80193 0.64053 0.0
C1840 C 0.01801 0.8423 0.61617 0.0
H1841 H 0.02677 0.85645 0.57408 0.0
C1842 C 0.01496 0.85897 0.62544 0.0
C1843 C 0.02206 0.84136 0.59732 0.0
C1844 C 0.02452 0.82361 0.58634 0.0
C1845 C 0.01631 0.87475 0.61653 0.0
C1846 C 0.02075 0.87388 0.59784 0.0
C1847 C 0.02347 0.85715 0.58845 0.0
C1848 C 0.02318 0.89026 0.58789 0.0
C1849 C 0.01276 0.89224 0.62695 0.0
C1850 C 0.01043 0.89164 0.57323 0.0
C1851 C 0.01388 0.90567 0.56209 0.0
C1852 C 0.03019 0.91846 0.56533 0.0
C1853 C 0.04263 0.91749 0.58048 0.0
C1854 C 0.03911 0.9036 0.59173 0.0
H1855 H 0.0079 0.89028 0.64074 0.0
H1856 H 0.02514 0.90308 0.62956 0.0
H1857 H 0.00279 0.89729 0.61815 0.0
H1858 H 0.99809 0.88145 0.56994 0.0
H1859 H 0.00423 0.90589 0.55027 0.0
H1860 H 0.4728 0.76595 0.83 0.0
H1861 H 0.44145 0.76425 0.82084 0.0
H1862 H 0.45433 0.81656 0.80113 0.0
H1863 H 0.48609 0.8177 0.80934 0.0
H1864 H 0.42002 0.7827 0.83289 0.0
H1865 H 0.41991 0.79072 0.75753 0.0
H1866 H 0.43923 0.78741 0.77146 0.0
H1867 H 0.43411 0.80995 0.77284 0.0
C1868 C 0.46903 0.77707 0.82356 0.0
C1869 C 0.48209 0.79197 0.82042 0.0
C1870 C 0.45096 0.77609 0.81831 0.0
C1871 C 0.44516 0.79012 0.80998 0.0
C1872 C 0.45821 0.80518 0.80694 0.0
H1873 H 0.33815 0.8098 0.78426 0.0
H1874 H 0.37007 0.81252 0.79082 0.0
C1875 C 0.47645 0.80595 0.81182 0.0
C1876 C 0.4255 0.78907 0.8054 0.0
H1877 H 0.39315 0.79227 0.77076 0.0
C1878 C 0.41425 0.7847 0.81921 0.0
C1879 C 0.41759 0.79159 0.78757 0.0
C1880 C 0.4283 0.79498 0.77144 0.0
C1881 C 0.39572 0.78294 0.81584 0.0
C1882 C 0.38792 0.7857 0.79815 0.0
C1883 C 0.39906 0.79023 0.78437 0.0
C1884 C 0.36825 0.78391 0.79374 0.0
C1885 C 0.38462 0.77835 0.83138 0.0
C1886 C 0.35633 0.76695 0.79299 0.0
C1887 C 0.33794 0.76536 0.78885 0.0
C1888 C 0.33084 0.7807 0.7853 0.0
C1889 C 0.34288 0.79764 0.78627 0.0
C1890 C 0.36127 0.79922 0.79023 0.0
H1891 H 0.3928 0.78066 0.84537 0.0
H1892 H 0.37434 0.78673 0.83234 0.0
H1893 H 0.37777 0.7636 0.82818 0.0
H1894 H 0.36126 0.75483 0.79542 0.0
H1895 H 0.3293 0.75197 0.78825 0.0
H1896 H 0.52737 0.2155 0.13409 0.0
H1897 H 0.53217 0.18804 0.11402 0.0
H1898 H 0.4871 0.15495 0.13302 0.0
H1899 H 0.48167 0.18257 0.15198 0.0
H1900 H 0.53979 0.15655 0.11828 0.0
H1901 H 0.47279 0.13979 0.07835 0.0
H1902 H 0.48092 0.16102 0.09455 0.0
H1903 H 0.47158 0.14011 0.10313 0.0
C1904 C 0.51854 0.20232 0.13398 0.0
C1905 C 0.50407 0.20121 0.14454 0.0
C1906 C 0.52126 0.18657 0.12247 0.0
C1907 C 0.5097 0.16926 0.12137 0.0
C1908 C 0.49582 0.1681 0.1328 0.0
H1909 H 0.5018 0.0564 0.06593 0.0
H1910 H 0.5 0.08489 0.08617 0.0
C1911 C 0.49283 0.18389 0.1439 0.0
C1912 C 0.51202 0.15254 0.10831 0.0
H1913 H 0.48943 0.11628 0.07485 0.0
C1914 C 0.52877 0.14787 0.1087 0.0
C1915 C 0.49781 0.14111 0.09545 0.0
C1916 C 0.47984 0.14587 0.09267 0.0
C1917 C 0.53147 0.13197 0.09728 0.0
C1918 C 0.51707 0.12024 0.08502 0.0
C1919 C 0.50045 0.12504 0.08438 0.0
C1920 C 0.51879 0.10283 0.07288 0.0
C1921 C 0.54964 0.12757 0.09876 0.0
C1922 C 0.52983 0.10325 0.05841 0.0
C1923 C 0.53086 0.08691 0.04674 0.0
C1924 C 0.52086 0.06967 0.04919 0.0
C1925 C 0.50978 0.06933 0.06364 0.0
C1926 C 0.50872 0.08567 0.07525 0.0
H1927 H 0.55829 0.13559 0.11158 0.0
H1928 H 0.54871 0.11264 0.09907 0.0
H1929 H 0.55607 0.13105 0.08618 0.0
H1930 H 0.5375 0.11626 0.05596 0.0
H1931 H 0.53959 0.08781 0.03584 0.0
H1932 H 0.08147 0.26582 0.29124 0.0
H1933 H 0.11208 0.2677 0.2852 0.0
H1934 H 0.12947 0.31138 0.33276 0.0
H1935 H 0.09854 0.30924 0.33921 0.0
H1936 H 0.1367 0.29304 0.27551 0.0
H1937 H 0.16289 0.27939 0.34532 0.0
H1938 H 0.13948 0.27674 0.33828 0.0
H1939 H 0.15324 0.29929 0.34653 0.0
C1940 C 0.09171 0.27586 0.30057 0.0
C1941 C 0.08722 0.28726 0.31591 0.0
C1942 C 0.10941 0.27694 0.29701 0.0
C1943 C 0.12353 0.28941 0.30864 0.0
C1944 C 0.11912 0.30119 0.32375 0.0
H1945 H 0.24012 0.30438 0.30619 0.0
H1946 H 0.21047 0.30721 0.31358 0.0
C1947 C 0.10129 0.30009 0.32737 0.0
C1948 C 0.14256 0.28991 0.30458 0.0
H1949 H 0.1836 0.28575 0.32377 0.0
C1950 C 0.14689 0.29143 0.28615 0.0
C1951 C 0.15624 0.28796 0.31826 0.0
C1952 C 0.15276 0.28559 0.33816 0.0
C1953 C 0.1641 0.29112 0.2811 0.0
C1954 C 0.17768 0.28869 0.29465 0.0
C1955 C 0.17345 0.28753 0.31319 0.0
C1956 C 0.19614 0.28709 0.28989 0.0
C1957 C 0.16755 0.29391 0.26128 0.0
C1958 C 0.19854 0.27479 0.27413 0.0
C1959 C 0.21561 0.27349 0.26959 0.0
C1960 C 0.23109 0.28389 0.281 0.0
C1961 C 0.22871 0.29599 0.29698 0.0
C1962 C 0.2116 0.29759 0.3013 0.0
H1963 H 0.15837 0.30178 0.25508 0.0
H1964 H 0.18136 0.30138 0.26094 0.0
H1965 H 0.16527 0.28028 0.25213 0.0
H1966 H 0.18716 0.26598 0.26525 0.0
H1967 H 0.21657 0.26426 0.25704 0.0
H1968 H 0.97821 0.03708 0.21493 0.0
H1969 H 0.98811 0.03688 0.18374 0.0
H1970 H 0.93788 0.0023 0.15838 0.0
H1971 H 0.92769 0.00255 0.18975 0.0
H1972 H 0.99111 0.00685 0.15692 0.0
H1973 H 0.94378 0.04654 0.12909 0.0
H1974 H 0.94796 0.04533 0.15396 0.0
H1975 H 0.93413 0.02613 0.13815 0.0
C1976 C 0.96921 0.02939 0.20277 0.0
C1977 C 0.95209 0.01992 0.20485 0.0
C1978 C 0.97493 0.02928 0.18493 0.0
C1979 C 0.96368 0.01978 0.16873 0.0
C1980 C 0.94668 0.00998 0.17069 0.0
H1981 H 0.99345 0.99609 0.05626 0.0
H1982 H 0.98332 0.99457 0.08724 0.0
C1983 C 0.94091 0.01006 0.18862 0.0
C1984 C 0.96992 0.02037 0.14988 0.0
H1985 H 0.96293 0.0365 0.10822 0.0
C1986 C 0.98492 0.01327 0.14623 0.0
C1987 C 0.96194 0.02897 0.13608 0.0
C1988 C 0.94614 0.03733 0.13947 0.0
C1989 C 0.9921 0.01446 0.1291 0.0
C1990 C 0.98403 0.02292 0.11528 0.0
C1991 C 0.96908 0.03007 0.11892 0.0
C1992 C 0.99061 0.02402 0.09669 0.0
C1993 C 0.00844 0.00695 0.12601 0.0
C1994 C 0.99789 0.04114 0.09164 0.0
C1995 C 0.00347 0.04209 0.07374 0.0
C1996 C 0.00166 0.02593 0.06062 0.0
C1997 C 0.99457 0.00883 0.06587 0.0
C1998 C 0.98902 0.00789 0.08368 0.0
H1999 H 0.01497 0.00404 0.13935 0.0
H2000 H 0.00469 0.99389 0.11581 0.0
H2001 H 0.01814 0.01682 0.11991 0.0
H2002 H 0.99921 0.05374 0.10153 0.0
H2003 H 0.00895 0.05542 0.07007 0.0
H2004 H 0.25676 0.63482 0.4749 0.0
H2005 H 0.25716 0.64925 0.4466 0.0
H2006 H 0.26819 0.703 0.48128 0.0
H2007 H 0.26936 0.68846 0.50984 0.0
H2008 H 0.24035 0.66967 0.43094 0.0
H2009 H 0.30923 0.70923 0.45196 0.0
H2010 H 0.29881 0.69202 0.465 0.0
H2011 H 0.29507 0.71513 0.46905 0.0
C2012 C 0.25881 0.64971 0.47644 0.0
C2013 C 0.26309 0.66067 0.49432 0.0
C2014 C 0.25922 0.65793 0.4603 0.0
C2015 C 0.26343 0.67718 0.46193 0.0
C2016 C 0.26576 0.68812 0.47984 0.0
H2017 H 0.24955 0.75217 0.39331 0.0
H2018 H 0.26133 0.73669 0.41786 0.0
C2019 C 0.26605 0.67989 0.49605 0.0
C2020 C 0.26561 0.68564 0.44482 0.0
H2021 H 0.29266 0.71843 0.42611 0.0
C2022 C 0.25194 0.68007 0.42974 0.0
C2023 C 0.28099 0.69885 0.44316 0.0
C2024 C 0.29693 0.70397 0.45808 0.0
C2025 C 0.25266 0.68825 0.41349 0.0
C2026 C 0.26732 0.70254 0.41254 0.0
C2027 C 0.28146 0.70749 0.4271 0.0
C2028 C 0.26633 0.71436 0.39811 0.0
C2029 C 0.23726 0.68225 0.39789 0.0
C2030 C 0.26616 0.70723 0.37907 0.0
C2031 C 0.25907 0.71576 0.3651 0.0
C2032 C 0.25231 0.73161 0.37013 0.0
C2033 C 0.2542 0.73968 0.38917 0.0
C2034 C 0.26123 0.7311 0.40312 0.0
H2035 H 0.22618 0.67213 0.40177 0.0
H2036 H 0.23213 0.69434 0.39436 0.0
H2037 H 0.24182 0.67573 0.38498 0.0
H2038 H 0.27005 0.69426 0.37509 0.0
H2039 H 0.25785 0.7093 0.35048 0.0
H2040 H 0.64759 0.04796 0.69309 0.0
H2041 H 0.63044 0.05698 0.66717 0.0
H2042 H 0.60578 0.99989 0.64693 0.0
H2043 H 0.62267 0.99065 0.67318 0.0
H2044 H 0.62518 0.04125 0.6239 0.0
H2045 H 0.56628 0.03026 0.6632 0.0
H2046 H 0.58875 0.03524 0.67492 0.0
H2047 H 0.57911 0.01271 0.66194 0.0
C2048 C 0.63891 0.03726 0.6828 0.0
C2049 C 0.63634 0.01857 0.68497 0.0
C2050 C 0.62913 0.04248 0.66814 0.0
C2051 C 0.61693 0.02905 0.65553 0.0
C2052 C 0.61517 0.01032 0.65685 0.0
H2053 H 0.54818 0.00374 0.56099 0.0
H2054 H 0.56965 0.00923 0.58915 0.0
C2055 C 0.62476 0.00508 0.67169 0.0
C2056 C 0.60489 0.03461 0.64187 0.0
H2057 H 0.5612 0.03405 0.63106 0.0
C2058 C 0.61127 0.04014 0.62554 0.0
C2059 C 0.58691 0.03325 0.64446 0.0
C2060 C 0.57979 0.02766 0.66213 0.0
C2061 C 0.59958 0.04299 0.61085 0.0
C2062 C 0.58142 0.04048 0.61298 0.0
C2063 C 0.57528 0.03625 0.62985 0.0
C2064 C 0.56829 0.03784 0.59659 0.0
C2065 C 0.60635 0.04742 0.59267 0.0
C2066 C 0.56026 0.05211 0.59215 0.0
C2067 C 0.54785 0.04898 0.57612 0.0
C2068 C 0.54373 0.03164 0.56469 0.0
C2069 C 0.55137 0.01726 0.56965 0.0
C2070 C 0.56361 0.02036 0.58557 0.0
H2071 H 0.62107 0.05104 0.59407 0.0
H2072 H 0.60157 0.03533 0.58132 0.0
H2073 H 0.60106 0.05908 0.58827 0.0
H2074 H 0.56384 0.06561 0.60083 0.0
H2075 H 0.54211 0.06018 0.57219 0.0
H2076 H 0.27874 0.3725 0.96895 0.0
H2077 H 0.27508 0.36001 0.93502 0.0
H2078 H 0.28634 0.30889 0.94839 0.0
H2079 H 0.29058 0.3215 0.98227 0.0
H2080 H 0.306 0.34333 0.91783 0.0
H2081 H 0.23854 0.29798 0.90638 0.0
H2082 H 0.24472 0.31826 0.92435 0.0
H2083 H 0.25264 0.29792 0.92779 0.0
C2084 C 0.28003 0.35845 0.96466 0.0
C2085 C 0.28488 0.34794 0.97828 0.0
C2086 C 0.27803 0.35138 0.94528 0.0
C2087 C 0.2804 0.33351 0.93917 0.0
C2088 C 0.2844 0.32268 0.95278 0.0
H2089 H 0.28758 0.26765 0.83104 0.0
H2090 H 0.28715 0.27925 0.86469 0.0
C2091 C 0.2868 0.32989 0.97212 0.0
C2092 C 0.28019 0.32664 0.91868 0.0
H2093 H 0.25589 0.29628 0.88104 0.0
C2094 C 0.29502 0.33311 0.90976 0.0
C2095 C 0.26586 0.3133 0.90819 0.0
C2096 C 0.24943 0.30644 0.91702 0.0
C2097 C 0.29602 0.32636 0.89071 0.0
C2098 C 0.28179 0.31285 0.88026 0.0
C2099 C 0.26687 0.30649 0.88913 0.0
C2100 C 0.28203 0.30568 0.85992 0.0
C2101 C 0.31238 0.3335 0.88186 0.0
C2102 C 0.27931 0.31668 0.84611 0.0
C2103 C 0.27938 0.31006 0.82695 0.0
C2104 C 0.28234 0.29231 0.82112 0.0
C2105 C 0.2853 0.28137 0.83502 0.0
C2106 C 0.285 0.28795 0.85424 0.0
H2107 H 0.32326 0.34194 0.89252 0.0
H2108 H 0.31718 0.32185 0.87432 0.0
H2109 H 0.30905 0.34216 0.87128 0.0
H2110 H 0.27702 0.33039 0.85015 0.0
H2111 H 0.27715 0.31894 0.81669 0.0
H2112 H 0.93205 0.03099 0.32267 0.0
H2113 H 0.94465 0.03028 0.35476 0.0
H2114 H 0.98019 0.99743 0.33295 0.0
H2115 H 0.96747 0.99793 0.30047 0.0
H2116 H 0.94627 0.999 0.37269 0.0
H2117 H 0.01285 0.0419 0.36926 0.0
H2118 H 0.99377 0.04131 0.35259 0.0
H2119 H 0.00518 0.02266 0.35047 0.0
C2120 C 0.94238 0.02338 0.32458 0.0
C2121 C 0.94861 0.01431 0.30895 0.0
C2122 C 0.94964 0.0231 0.343 0.0
C2123 C 0.96342 0.01393 0.34622 0.0
C2124 C 0.96968 0.00477 0.33072 0.0
H2125 H 0.02173 1.00137 0.45208 0.0
H2126 H 0.01014 0.99889 0.41868 0.0
C2127 C 0.96234 0.00498 0.3122 0.0
C2128 C 0.97101 0.01389 0.3659 0.0
H2129 H 0.00859 0.02941 0.39735 0.0
C2130 C 0.95992 0.00556 0.37807 0.0
C2131 C 0.98874 0.02267 0.37291 0.0
C2132 C 1.00085 0.0328 0.36074 0.0
C2133 C 0.96616 0.0056 0.39704 0.0
C2134 C 0.98393 0.0143 0.40403 0.0
C2135 C 0.99505 0.02256 0.39185 0.0
C2136 C 0.99095 0.01569 0.42418 0.0
C2137 C 0.95372 0.99631 0.40946 0.0
C2138 C 0.98418 0.02617 0.43823 0.0
C2139 C 0.99071 0.0276 0.45724 0.0
C2140 C 0.00421 0.01857 0.46265 0.0
C2141 C 0.01122 0.00833 0.44848 0.0
C2142 C 0.00465 0.00693 0.42938 0.0
H2143 H 0.94199 0.98668 0.401 0.0
H2144 H 0.96062 0.98858 0.41876 0.0
H2145 H 0.94891 0.00696 0.41863 0.0
H2146 H 0.97385 0.03334 0.43448 0.0
H2147 H 0.9851 0.03581 0.46769 0.0
H2148 H 0.26885 0.63134 0.59756 0.0
H2149 H 0.2655 0.64798 0.6285 0.0
H2150 H 0.25856 0.69501 0.60242 0.0
H2151 H 0.26241 0.67864 0.57166 0.0
H2152 H 0.2925 0.68785 0.63755 0.0
H2153 H 0.22114 0.68457 0.6451 0.0
H2154 H 0.22858 0.66611 0.63136 0.0
H2155 H 0.22865 0.68731 0.62245 0.0
C2156 C 0.266 0.64498 0.59845 0.0
C2157 C 0.2659 0.6539 0.58256 0.0
C2158 C 0.26409 0.6544 0.61598 0.0
C2159 C 0.2617 0.67255 0.61749 0.0
C2160 C 0.26021 0.6809 0.60132 0.0
H2161 H 0.25876 0.76004 0.70575 0.0
H2162 H 0.25688 0.73954 0.67595 0.0
C2163 C 0.26245 0.67164 0.58389 0.0
C2164 C 0.26414 0.68402 0.63607 0.0
H2165 H 0.24216 0.70496 0.66824 0.0
C2166 C 0.28156 0.69153 0.64447 0.0
C2167 C 0.24975 0.68888 0.64453 0.0
C2168 C 0.23091 0.6813 0.63552 0.0
C2169 C 0.28507 0.70435 0.66111 0.0
C2170 C 0.27064 0.70911 0.66982 0.0
C2171 C 0.25318 0.70127 0.6615 0.0
C2172 C 0.27327 0.72239 0.68741 0.0
C2173 C 0.30414 0.71316 0.66863 0.0
C2174 C 0.28336 0.7197 0.70359 0.0
C2175 C 0.28513 0.73189 0.72039 0.0
C2176 C 0.2762 0.74649 0.72146 0.0
C2177 C 0.26603 0.7491 0.70527 0.0
C2178 C 0.26478 0.73728 0.68831 0.0
H2179 H 0.31291 0.71262 0.65729 0.0
H2180 H 0.30562 0.72779 0.67511 0.0
H2181 H 0.30884 0.70553 0.67957 0.0
H2182 H 0.28956 0.70796 0.70335 0.0
H2183 H 0.29295 0.72945 0.73271 0.0
H2184 H 0.65951 0.0537 0.80194 0.0
H2185 H 0.64649 0.05453 0.83168 0.0
H2186 H 0.59479 0.03076 0.80075 0.0
H2187 H 0.6078 0.02976 0.77091 0.0
H2188 H 0.6123 0.06795 0.84277 0.0
H2189 H 0.6128 0.99311 0.83691 0.0
H2190 H 0.62768 0.00877 0.82561 0.0
H2191 H 0.60475 1.00152 0.81617 0.0
C2192 C 0.64534 0.04903 0.80153 0.0
C2193 C 0.63461 0.0412 0.78445 0.0
C2194 C 0.63797 0.04955 0.8184 0.0
C2195 C 0.6199 0.0422 0.81812 0.0
C2196 C 0.60885 0.03621 0.80096 0.0
H2197 H 0.55185 0.03772 0.9003 0.0
H2198 H 0.56473 0.02552 0.87275 0.0
C2199 C 0.61621 0.03582 0.78404 0.0
C2200 C 0.61293 0.03933 0.8358 0.0
H2201 H 0.60031 0.00623 0.86294 0.0
C2202 C 0.60968 0.05454 0.84727 0.0
C2203 C 0.6099 0.02174 0.84141 0.0
C2204 C 0.61402 0.00529 0.8295 0.0
C2205 C 0.60291 0.05254 0.8643 0.0
C2206 C 0.5995 0.03487 0.86981 0.0
C2207 C 0.60301 0.01966 0.85848 0.0
C2208 C 0.59154 0.03249 0.88709 0.0
C2209 C 0.59918 0.06928 0.87619 0.0
C2210 C 0.60231 0.03888 0.9044 0.0
C2211 C 0.59507 0.04619 0.91991 0.0
C2212 C 0.57708 0.04667 0.91804 0.0
C2213 C 0.56586 0.03762 0.90167 0.0
C2214 C 0.57312 0.03039 0.88614 0.0
H2215 H 0.60212 0.08184 0.86944 0.0
H2216 H 0.58504 0.06674 0.87864 0.0
H2217 H 0.60736 0.07203 0.89019 0.0
H2218 H 0.61657 0.04054 0.90519 0.0
H2219 H 0.6037 0.05289 0.93272 0.0
H2220 H 0.30944 0.33827 0.081 0.0
H2221 H 0.30474 0.32786 0.11106 0.0
H2222 H 0.25237 0.33924 0.10653 0.0
H2223 H 0.25704 0.35019 0.07624 0.0
H2224 H 0.29477 0.35196 0.1442 0.0
H2225 H 0.24879 0.28386 0.11925 0.0
H2226 H 0.26359 0.29491 0.10425 0.0
H2227 H 0.24437 0.3036 0.1094 0.0
C2228 C 0.29674 0.33835 0.08609 0.0
C2229 C 0.28358 0.34509 0.07601 0.0
C2230 C 0.29416 0.33246 0.10342 0.0
C2231 C 0.27826 0.33282 0.11105 0.0
C2232 C 0.26476 0.33884 0.10083 0.0
H2233 H 0.2543 0.30964 0.22376 0.0
H2234 H 0.25342 0.32056 0.19295 0.0
C2235 C 0.26742 0.34501 0.08349 0.0
C2236 C 0.27631 0.32743 0.13002 0.0
H2237 H 0.25752 0.29214 0.15212 0.0
C2238 C 0.28646 0.33899 0.14597 0.0
C2239 C 0.26564 0.31041 0.13225 0.0
C2240 C 0.25499 0.29734 0.11544 0.0
C2241 C 0.28628 0.33387 0.16407 0.0
C2242 C 0.27579 0.31677 0.16624 0.0
C2243 C 0.26545 0.30531 0.15037 0.0
C2244 C 0.27616 0.31019 0.18477 0.0
C2245 C 0.29755 0.34654 0.18081 0.0
C2246 C 0.28919 0.30074 0.19024 0.0
C2247 C 0.28956 0.29432 0.20761 0.0
C2248 C 0.27706 0.29751 0.21993 0.0
C2249 C 0.26416 0.30718 0.21456 0.0
C2250 C 0.2636 0.31333 0.19699 0.0
H2251 H 0.30382 0.36005 0.17711 0.0
H2252 H 0.28938 0.34892 0.19242 0.0
H2253 H 0.30815 0.3399 0.18625 0.0
H2254 H 0.29905 0.29831 0.18103 0.0
H2255 H 0.29974 0.28704 0.21153 0.0
H2256 H 0.24361 0.95307 0.96938 0.0
H2257 H 0.21419 0.96048 0.96339 0.0
H2258 H 0.20773 0.96081 0.02244 0.0
H2259 H 0.23707 0.95381 0.02844 0.0
H2260 H 0.17779 0.9396 0.97806 0.0
H2261 H 0.20509 0.01402 0.00522 0.0
H2262 H 0.2183 0.99901 0.99455 0.0
H2263 H 0.21334 0.99807 0.01835 0.0
C2264 C 0.23571 0.95466 0.98092 0.0
C2265 C 0.24225 0.95314 -0.00066 0.0
C2266 C 0.21907 0.95876 0.9775 0.0
C2267 C 0.20908 0.96115 0.99252 0.0
C2268 C 0.21546 0.95902 0.01078 0.0
H2269 H 0.12611 0.97324 0.04414 0.0
H2270 H 0.14589 0.96062 0.02392 0.0
C2271 C 0.23209 0.95514 0.01421 0.0
C2272 C 0.19235 0.96702 0.98987 0.0
H2273 H 0.1742 0.00272 0.00638 0.0
C2274 C 0.17685 0.95354 0.98358 0.0
C2275 C 0.19145 0.9852 0.99709 0.0
C2276 C 0.20794 0.99999 0.00408 0.0
C2277 C 0.16026 0.95749 0.98608 0.0
C2278 C 0.15949 0.97523 0.99495 0.0
C2279 C 0.17492 0.98914 -0.00056 0.0
C2280 C 0.14384 0.9789 0.00333 0.0
C2281 C 0.1438 0.94246 0.98045 0.0
C2282 C 0.1361 0.99312 -0.0018 0.0
C2283 C 0.12504 1.00048 0.00982 0.0
C2284 C 0.12178 0.99377 0.02678 0.0
C2285 C 0.12866 0.97875 0.03126 0.0
C2286 C 0.13963 0.97133 0.01956 0.0
H2287 H 0.14599 0.93132 0.96964 0.0
H2288 H 0.14006 0.93634 0.99309 0.0
H2289 H 0.13258 0.94814 0.9748 0.0
H2290 H 0.13956 0.99931 0.98591 0.0
H2291 H 0.11994 0.01214 0.00613 0.0
H2292 H 0.69874 0.61367 0.96088 0.0
H2293 H 0.66928 0.59772 0.96593 0.0
H2294 H 0.67871 0.62411 0.02424 0.0
H2295 H 0.70795 0.64071 0.01904 0.0
H2296 H 0.66033 0.57323 0.98852 0.0
H2297 H 0.63074 0.63338 0.00971 0.0
H2298 H 0.65146 0.6357 -0.00016 0.0
H2299 H 0.65075 0.63339 0.02436 0.0
C2300 C 0.69443 0.6163 0.97471 0.0
C2301 C 0.70561 0.6286 0.9895 0.0
C2302 C 0.6776 0.60711 0.97761 0.0
C2303 C 0.6716 0.60986 0.9954 0.0
C2304 C 0.68277 0.62212 0.01024 0.0
H2305 H 0.57956 0.54541 0.03507 0.0
H2306 H 0.60932 0.56277 0.03221 0.0
C2307 C 0.69953 0.63157 0.00727 0.0
C2308 C 0.65394 0.59932 -0.0016 0.0
H2309 H 0.61381 0.60392 0.01223 0.0
C2310 C 0.65018 0.57999 0.99368 0.0
C2311 C 0.64064 0.60809 0.00518 0.0
C2312 C 0.6435 0.62878 0.00991 0.0
C2313 C 0.63355 0.56927 0.99545 0.0
C2314 C 0.62034 0.57806 0.00211 0.0
C2315 C 0.62405 0.59729 0.00708 0.0
C2316 C 0.60247 0.56745 0.00371 0.0
C2317 C 0.62999 0.5486 0.99 0.0
C2318 C 0.58885 0.56445 0.98862 0.0
C2319 C 0.57181 0.55478 0.99031 0.0
C2320 C 0.56831 0.54773 0.00699 0.0
C2321 C 0.58205 0.5505 0.02196 0.0
C2322 C 0.59897 0.56046 0.0204 0.0
H2323 H 0.64189 0.54374 0.98575 0.0
H2324 H 0.62549 0.54187 0.00206 0.0
H2325 H 0.61914 0.54412 0.97805 0.0
H2326 H 0.5914 0.5697 0.9756 0.0
H2327 H 0.56141 0.5527 0.97858 0.0
H2328 H 0.67421 0.50158 0.25591 0.0
H2329 H 0.68922 0.47552 0.25057 0.0
H2330 H 0.67604 0.45991 0.3039 0.0
H2331 H 0.66155 0.48582 0.30947 0.0
H2332 H 0.71854 0.46892 0.28275 0.0
H2333 H 0.65861 0.4127 0.25868 0.0
H2334 H 0.6591 0.43625 0.25533 0.0
H2335 H 0.65775 0.42998 0.27842 0.0
C2336 C 0.67458 0.49254 0.26641 0.0
C2337 C 0.66705 0.49582 0.28322 0.0
C2338 C 0.68309 0.47775 0.26338 0.0
C2339 C 0.68367 0.46595 0.2769 0.0
C2340 C 0.67574 0.46896 0.29339 0.0
H2341 H 0.71934 0.36334 0.27777 0.0
H2342 H 0.70871 0.39132 0.28861 0.0
C2343 C 0.66759 0.48381 0.29657 0.0
C2344 C 0.69299 0.4507 0.27435 0.0
H2345 H 0.68594 0.40394 0.26382 0.0
C2346 C 0.71149 0.4547 0.27847 0.0
C2347 C 0.68359 0.43223 0.26934 0.0
C2348 C 0.66366 0.4274 0.26509 0.0
C2349 C 0.72095 0.44056 0.27749 0.0
C2350 C 0.7116 0.4221 0.27187 0.0
C2351 C 0.69304 0.41813 0.26815 0.0
C2352 C 0.72073 0.40676 0.26803 0.0
C2353 C 0.74079 0.44546 0.28269 0.0
C2354 C 0.73125 0.40641 0.25319 0.0
C2355 C 0.73706 0.39046 0.2469 0.0
C2356 C 0.73252 0.37476 0.25547 0.0
C2357 C 0.72293 0.37541 0.27104 0.0
C2358 C 0.71692 0.39131 0.27721 0.0
H2359 H 0.74508 0.45886 0.29235 0.0
H2360 H 0.74551 0.43465 0.28961 0.0
H2361 H 0.74725 0.44673 0.26966 0.0
H2362 H 0.73408 0.41809 0.24576 0.0
H2363 H 0.74453 0.39014 0.2349 0.0
H2364 H 0.8269 0.45987 0.47388 0.0
H2365 H 0.85817 0.46888 0.46842 0.0
H2366 H 0.87413 0.47767 0.5287 0.0
H2367 H 0.84328 0.46872 0.53412 0.0
H2368 H 0.88792 0.50489 0.49331 0.0
H2369 H 0.89557 0.4331 0.49667 0.0
H2370 H 0.87487 0.4385 0.48797 0.0
H2371 H 0.88195 0.44208 0.51295 0.0
C2372 C 0.83714 0.46453 0.48585 0.0
C2373 C 0.8331 0.46394 0.50437 0.0
C2374 C 0.8548 0.46936 0.48274 0.0
C2375 C 0.86805 0.47354 0.49821 0.0
C2376 C 0.86383 0.47429 0.51672 0.0
H2377 H 0.97392 0.51898 0.53922 0.0
H2378 H 0.94198 0.50506 0.53506 0.0
C2379 C 0.84636 0.46942 0.5198 0.0
C2380 C 0.88659 0.47636 0.49565 0.0
H2381 H 0.92191 0.45694 0.50454 0.0
C2382 C 0.89545 0.49437 0.49516 0.0
C2383 C 0.89599 0.46244 0.49833 0.0
C2384 C 0.88663 0.44288 0.49889 0.0
C2385 C 0.91384 0.4992 0.49855 0.0
C2386 C 0.92318 0.48557 0.50257 0.0
C2387 C 0.9144 0.46727 0.50178 0.0
C2388 C 0.94224 0.49022 0.50705 0.0
C2389 C 0.92314 0.51892 0.49854 0.0
C2390 C 0.95251 0.4855 0.49299 0.0
C2391 C 0.97045 0.49319 0.49542 0.0
C2392 C 0.97796 0.5056 0.51185 0.0
C2393 C 0.968 0.50938 0.52651 0.0
C2394 C 0.95001 0.50149 0.52416 0.0
H2395 H 0.91418 0.52694 0.49222 0.0
H2396 H 0.92801 0.52572 0.51332 0.0
H2397 H 0.93478 0.51941 0.49057 0.0
H2398 H 0.94647 0.47688 0.47973 0.0
H2399 H 0.97824 0.49034 0.48405 0.0
H2400 H 0.32846 0.03758 0.27254 0.0
H2401 H 0.31725 0.06411 0.26357 0.0
H2402 H 0.34359 0.09733 0.31613 0.0
H2403 H 0.35426 0.07102 0.32536 0.0
H2404 H 0.30102 0.09341 0.29736 0.0
H2405 H 0.35902 0.11663 0.25946 0.0
H2406 H 0.35015 0.09251 0.25984 0.0
H2407 H 0.36249 0.10688 0.28072 0.0
C2408 C 0.33114 0.05038 0.28239 0.0
C2409 C 0.34168 0.05235 0.29978 0.0
C2410 C 0.32504 0.06544 0.27719 0.0
C2411 C 0.32986 0.08239 0.28925 0.0
C2412 C 0.33979 0.08415 0.30686 0.0
H2413 H 0.33162 0.19292 0.27147 0.0
H2414 H 0.3359 0.16688 0.28741 0.0
C2415 C 0.34554 0.0691 0.31222 0.0
C2416 C 0.32467 0.0986 0.28379 0.0
H2417 H 0.33984 0.13693 0.26492 0.0
C2418 C 0.30932 0.10296 0.29012 0.0
C2419 C 0.33596 0.11085 0.27477 0.0
C2420 C 0.35284 0.10657 0.26821 0.0
C2421 C 0.30493 0.11973 0.28784 0.0
C2422 C 0.31609 0.13203 0.27863 0.0
C2423 C 0.33146 0.12751 0.27221 0.0
C2424 C 0.31134 0.14882 0.27364 0.0
C2425 C 0.28862 0.12416 0.29561 0.0
C2426 C 0.29581 0.14733 0.26139 0.0
C2427 C 0.29334 0.16212 0.25257 0.0
C2428 C 0.30653 0.17831 0.25569 0.0
C2429 C 0.32147 0.18033 0.26889 0.0
C2430 C 0.32382 0.16561 0.27799 0.0
H2431 H 0.28558 0.11694 0.30781 0.0
H2432 H 0.29018 0.1392 0.3002 0.0
H2433 H 0.27711 0.11934 0.28445 0.0
H2434 H 0.28628 0.13434 0.25753 0.0
H2435 H 0.28173 0.16051 0.24235 0.0
H2436 H 0.31952 0.15484 0.48696 0.0
H2437 H 0.34421 0.13911 0.4868 0.0
H2438 H 0.32456 0.11029 0.53112 0.0
H2439 H 0.29928 0.12534 0.53066 0.0
H2440 H 0.3705 0.13859 0.512 0.0
H2441 H 0.32989 0.06777 0.49376 0.0
H2442 H 0.32056 0.08785 0.49252 0.0
H2443 H 0.32393 0.07966 0.51473 0.0
C2444 C 0.32053 0.14526 0.49679 0.0
C2445 C 0.30744 0.14126 0.5088 0.0
C2446 C 0.33461 0.13619 0.4966 0.0
C2447 C 0.33599 0.1231 0.50856 0.0
C2448 C 0.32341 0.1198 0.52126 0.0
H2449 H 0.40969 0.06754 0.55299 0.0
H2450 H 0.38393 0.07908 0.5416 0.0
C2451 C 0.30912 0.1286 0.52119 0.0
C2452 C 0.3508 0.11325 0.5081 0.0
H2453 H 0.36025 0.07055 0.50686 0.0
C2454 C 0.36826 0.12369 0.51057 0.0
C2455 C 0.34789 0.09378 0.5058 0.0
C2456 C 0.32954 0.08162 0.50133 0.0
C2457 C 0.38284 0.11529 0.51218 0.0
C2458 C 0.37987 0.09593 0.51123 0.0
C2459 C 0.36246 0.0854 0.50774 0.0
C2460 C 0.39445 0.08673 0.51628 0.0
C2461 C 0.4013 0.12727 0.51583 0.0
C2462 C 0.40859 0.08656 0.50542 0.0
C2463 C 0.42328 0.07983 0.51188 0.0
C2464 C 0.42398 0.07334 0.52929 0.0
C2465 C 0.40944 0.07264 0.5396 0.0
C2466 C 0.39475 0.07917 0.53308 0.0
H2467 H 0.40118 0.14217 0.51899 0.0
H2468 H 0.40913 0.12352 0.52785 0.0
H2469 H 0.40816 0.12507 0.5031 0.0
H2470 H 0.40849 0.09214 0.49229 0.0
H2471 H 0.43439 0.08047 0.50374 0.0
H2472 H 0.6608 0.57869 0.25852 0.0
H2473 H 0.67914 0.60746 0.25229 0.0
H2474 H 0.69055 0.62711 0.3123 0.0
H2475 H 0.67297 0.59826 0.31859 0.0
H2476 H 0.67803 0.64336 0.25997 0.0
H2477 H 0.73973 0.63338 0.29837 0.0
H2478 H 0.71996 0.61533 0.2929 0.0
H2479 H 0.72236 0.63307 0.31317 0.0
C2480 C 0.66723 0.58917 0.27037 0.0
C2481 C 0.66564 0.58607 0.28906 0.0
C2482 C 0.67771 0.60561 0.26679 0.0
C2483 C 0.68668 0.6193 0.28184 0.0
C2484 C 0.68435 0.61654 0.30045 0.0
H2485 H 0.74306 0.73205 0.29588 0.0
H2486 H 0.72453 0.70192 0.29759 0.0
C2487 C 0.67417 0.60005 0.30403 0.0
C2488 C 0.69852 0.63645 0.27823 0.0
H2489 H 0.74016 0.66355 0.29081 0.0
C2490 C 0.69167 0.64763 0.26654 0.0
C2491 C 0.71642 0.64206 0.28666 0.0
C2492 C 0.72511 0.63023 0.2983 0.0
C2493 C 0.70201 0.66451 0.26366 0.0
C2494 C 0.71961 0.67033 0.27268 0.0
C2495 C 0.72661 0.65904 0.28399 0.0
C2496 C 0.73074 0.6885 0.27126 0.0
C2497 C 0.69406 0.6763 0.25137 0.0
C2498 C 0.74058 0.69082 0.256 0.0
C2499 C 0.75145 0.70799 0.25512 0.0
C2500 C 0.75243 0.7231 0.2694 0.0
C2501 C 0.74253 0.72067 0.28464 0.0
C2502 C 0.73192 0.7035 0.28563 0.0
H2503 H 0.68002 0.67008 0.24569 0.0
H2504 H 0.6948 0.69013 0.25963 0.0
H2505 H 0.70185 0.67831 0.23933 0.0
H2506 H 0.73985 0.67937 0.24479 0.0
H2507 H 0.75876 0.70956 0.24311 0.0
H2508 H 0.87602 0.46102 0.81443 0.0
H2509 H 0.86427 0.42813 0.80267 0.0
H2510 H 0.82939 0.44195 0.75904 0.0
H2511 H 0.84182 0.47483 0.77024 0.0
H2512 H 0.82878 0.41349 0.80284 0.0
H2513 H 0.8476 0.40023 0.73008 0.0
H2514 H 0.85894 0.42004 0.74716 0.0
H2515 H 0.83739 0.41954 0.73532 0.0
C2516 C 0.86603 0.4569 0.80218 0.0
C2517 C 0.85956 0.47008 0.79324 0.0
C2518 C 0.85945 0.43827 0.79542 0.0
C2519 C 0.84615 0.43275 0.7799 0.0
C2520 C 0.83998 0.446 0.7707 0.0
H2521 H 0.77575 0.3253 0.75052 0.0
H2522 H 0.79102 0.35666 0.74765 0.0
C2523 C 0.84688 0.46465 0.77721 0.0
C2524 C 0.83722 0.41328 0.77511 0.0
H2525 H 0.82915 0.37547 0.74071 0.0
C2526 C 0.82889 0.40517 0.78927 0.0
C2527 C 0.8371 0.40272 0.75721 0.0
C2528 C 0.84582 0.41099 0.74156 0.0
C2529 C 0.82085 0.38652 0.78626 0.0
C2530 C 0.82146 0.37576 0.76872 0.0
C2531 C 0.82907 0.38392 0.7542 0.0
C2532 C 0.81462 0.35586 0.7658 0.0
C2533 C 0.81195 0.3784 0.80196 0.0
C2534 C 0.82338 0.34506 0.77618 0.0
C2535 C 0.81468 0.32742 0.77796 0.0
C2536 C 0.79738 0.32052 0.76908 0.0
C2537 C 0.78924 0.33058 0.75725 0.0
C2538 C 0.7979 0.34833 0.75558 0.0
H2539 H 0.80934 0.38923 0.81285 0.0
H2540 H 0.79921 0.36867 0.79623 0.0
H2541 H 0.8207 0.37062 0.80901 0.0
H2542 H 0.8363 0.35086 0.78417 0.0
H2543 H 0.82093 0.31972 0.7873 0.0
H2544 H 0.05753 0.85333 0.1008 0.0
H2545 H 0.05497 0.88207 0.08907 0.0
H2546 H 0.03651 0.85145 0.03316 0.0
H2547 H 0.0379 0.82268 0.04521 0.0
H2548 H 0.0675 0.90262 0.06572 0.0
H2549 H 0.99713 0.87646 0.03637 0.0
H2550 H 0.00901 0.86343 0.05016 0.0
H2551 H 0.01119 0.8631 0.02535 0.0
C2552 C 0.05334 0.85275 0.08589 0.0
C2553 C 0.04815 0.83554 0.07396 0.0
C2554 C 0.05166 0.86929 0.07916 0.0
C2555 C 0.04487 0.86925 0.06021 0.0
C2556 C 0.04098 0.85215 0.048 0.0
H2557 H 0.01885 0.95647 0.9969 0.0
H2558 H 0.02431 0.92759 0.00638 0.0
C2559 C 0.0422 0.8356 0.05483 0.0
C2560 C 0.04167 0.8869 0.05345 0.0
H2561 H 0.01088 0.90549 0.0294 0.0
C2562 C 0.05504 0.90314 0.05786 0.0
C2563 C 0.02546 0.88805 0.04307 0.0
C2564 C 0.00983 0.87189 0.03863 0.0
C2565 C 0.05288 0.92002 0.05208 0.0
C2566 C 0.03667 0.92115 0.04175 0.0
C2567 C 0.02335 0.90491 0.0372 0.0
C2568 C 0.03316 0.93899 0.03585 0.0
C2569 C 0.06831 0.93637 0.05679 0.0
C2570 C 0.0358 0.95528 0.0491 0.0
C2571 C 0.03291 0.97191 0.04363 0.0
C2572 C 0.02685 0.97287 0.02474 0.0
C2573 C 0.02358 0.95644 0.01155 0.0
C2574 C 0.02672 0.93981 0.01701 0.0
H2575 H 0.08111 0.93197 0.05888 0.0
H2576 H 0.06895 0.94511 0.04549 0.0
H2577 H 0.06682 0.94485 0.07021 0.0
H2578 H 0.04002 0.95519 0.06386 0.0
H2579 H 0.03531 0.98406 0.05436 0.0
H2580 H 0.94053 0.2725 0.91272 0.0
H2581 H 0.91269 0.27469 0.89433 0.0
H2582 H 0.9303 0.25118 0.84329 0.0
H2583 H 0.95823 0.24962 0.86142 0.0
H2584 H 0.91302 0.29348 0.85493 0.0
H2585 H 0.87607 0.22106 0.85075 0.0
H2586 H 0.89279 0.23219 0.87034 0.0
H2587 H 0.89925 0.22534 0.84763 0.0
C2588 C 0.93837 0.26774 0.8976 0.0
C2589 C 0.95157 0.26097 0.88848 0.0
C2590 C 0.9225 0.26901 0.8871 0.0
C2591 C 0.91935 0.26304 0.8674 0.0
C2592 C 0.93239 0.25589 0.85842 0.0
H2593 H 0.82836 0.25011 0.78053 0.0
H2594 H 0.85559 0.24757 0.79946 0.0
C2595 C 0.94836 0.25505 0.8688 0.0
C2596 C 0.90282 0.26486 0.85595 0.0
H2597 H 0.86242 0.24033 0.83374 0.0
C2598 C 0.90188 0.28191 0.85042 0.0
C2599 C 0.88848 0.24967 0.84964 0.0
C2600 C 0.88901 0.23098 0.85487 0.0
C2601 C 0.88708 0.28418 0.8387 0.0
C2602 C 0.87238 0.26912 0.8328 0.0
C2603 C 0.87346 0.25199 0.83827 0.0
C2604 C 0.85582 0.27084 0.82104 0.0
C2605 C 0.88776 0.30258 0.8322 0.0
C2606 C 0.84662 0.28469 0.82666 0.0
C2607 C 0.83121 0.28628 0.81566 0.0
C2608 C 0.82422 0.27374 0.79905 0.0
C2609 C 0.83335 0.2599 0.79335 0.0
C2610 C 0.84889 0.2584 0.80425 0.0
H2611 H 0.90165 0.3101 0.83228 0.0
H2612 H 0.88072 0.30098 0.8177 0.0
H2613 H 0.8814 0.31123 0.84203 0.0
H2614 H 0.85131 0.29432 0.83963 0.0
H2615 H 0.82495 0.29756 0.82 0.0
H2616 H 0.50966 0.22832 0.56031 0.0
H2617 H 0.51078 0.19627 0.54977 0.0
H2618 H 0.56377 0.20598 0.57875 0.0
H2619 H 0.56253 0.23806 0.5899 0.0
H2620 H 0.52995 0.179 0.52833 0.0
H2621 H 0.54196 0.16182 0.60027 0.0
H2622 H 0.53639 0.18333 0.5963 0.0
H2623 H 0.55876 0.18025 0.59556 0.0
C2624 C 0.52164 0.22376 0.56447 0.0
C2625 C 0.53596 0.23601 0.57618 0.0
C2626 C 0.52225 0.20527 0.55837 0.0
C2627 C 0.53718 0.19827 0.56374 0.0
C2628 C 0.55181 0.21065 0.5748 0.0
H2629 H 0.55813 0.08589 0.53691 0.0
H2630 H 0.56161 0.11943 0.54563 0.0
C2631 C 0.55116 0.22917 0.58104 0.0
C2632 C 0.53724 0.17812 0.55778 0.0
H2633 H 0.54293 0.13868 0.57466 0.0
C2634 C 0.53281 0.17027 0.53854 0.0
C2635 C 0.54087 0.16639 0.57093 0.0
C2636 C 0.54459 0.17329 0.59193 0.0
C2637 C 0.53197 0.15136 0.53219 0.0
C2638 C 0.53561 0.13972 0.54533 0.0
C2639 C 0.54028 0.14754 0.5645 0.0
C2640 C 0.53374 0.11927 0.53956 0.0
C2641 C 0.52727 0.14393 0.51136 0.0
C2642 C 0.51695 0.1078 0.53332 0.0
C2643 C 0.51496 0.08863 0.52841 0.0
C2644 C 0.52972 0.08026 0.52938 0.0
C2645 C 0.54654 0.09177 0.53557 0.0
C2646 C 0.54851 0.111 0.54073 0.0
H2647 H 0.52846 0.15514 0.50262 0.0
H2648 H 0.53594 0.1345 0.50666 0.0
H2649 H 0.51337 0.13593 0.50876 0.0
H2650 H 0.50528 0.11366 0.53247 0.0
H2651 H 0.50175 0.08033 0.52376 0.0
H2652 H 0.56036 0.78166 0.40829 0.0
H2653 H 0.58888 0.78699 0.39535 0.0
H2654 H 0.56891 0.73998 0.35166 0.0
H2655 H 0.54053 0.73479 0.36416 0.0
H2656 H 0.61315 0.76428 0.38975 0.0
H2657 H 0.58668 0.77993 0.321 0.0
H2658 H 0.57425 0.77955 0.341 0.0
H2659 H 0.57511 0.75837 0.32631 0.0
C2660 C 0.56207 0.77247 0.39593 0.0
C2661 C 0.54808 0.75786 0.38722 0.0
C2662 C 0.57837 0.77553 0.38854 0.0
C2663 C 0.58097 0.76409 0.37229 0.0
C2664 C 0.56714 0.74929 0.36389 0.0
H2665 H 0.66434 0.76143 0.29919 0.0
H2666 H 0.63889 0.75234 0.3164 0.0
C2667 C 0.5509 0.74628 0.37117 0.0
C2668 C 0.59812 0.76731 0.36411 0.0
H2669 H 0.61586 0.77448 0.32327 0.0
C2670 C 0.61377 0.76661 0.37525 0.0
C2671 C 0.59898 0.77035 0.34516 0.0
C2672 C 0.5829 0.77228 0.33272 0.0
C2673 C 0.63012 0.76838 0.36783 0.0
C2674 C 0.63093 0.77118 0.3488 0.0
C2675 C 0.61528 0.77204 0.33775 0.0
C2676 C 0.64791 0.77435 0.34022 0.0
C2677 C 0.64627 0.76681 0.38037 0.0
C2678 C 0.66181 0.78931 0.34812 0.0
C2679 C 0.67639 0.79435 0.33839 0.0
C2680 C 0.67742 0.78458 0.32051 0.0
C2681 C 0.66411 0.76892 0.31313 0.0
C2682 C 0.64946 0.76388 0.32287 0.0
H2683 H 0.64256 0.75886 0.39189 0.0
H2684 H 0.6553 0.76007 0.37215 0.0
H2685 H 0.65359 0.78083 0.38706 0.0
H2686 H 0.66085 0.79791 0.3612 0.0
H2687 H 0.68628 0.80672 0.34419 0.0
H2688 H 0.04719 0.23802 0.36666 0.0
H2689 H 0.04854 0.21171 0.38348 0.0
H2690 H 0.02469 0.23705 0.42901 0.0
H2691 H 0.02306 0.26298 0.41229 0.0
H2692 H 0.06251 0.20674 0.42085 0.0
H2693 H 0.98913 0.18812 0.40941 0.0
H2694 H 0.00184 0.20462 0.39712 0.0
H2695 H 0.99759 0.21143 0.42095 0.0
C2696 C 0.04275 0.23821 0.38052 0.0
C2697 C 0.03497 0.25257 0.38811 0.0
C2698 C 0.0434 0.2231 0.39006 0.0
C2699 C 0.03631 0.22218 0.40732 0.0
C2700 C 0.02987 0.23722 0.41554 0.0
H2701 H 0.0141 0.15366 0.49084 0.0
H2702 H 0.02494 0.1785 0.47321 0.0
C2703 C 0.02909 0.25214 0.40601 0.0
C2704 C 0.03439 0.20517 0.41629 0.0
H2705 H 0.00332 0.17335 0.43189 0.0
C2706 C 0.04957 0.19928 0.42305 0.0
C2707 C 0.01748 0.19526 0.419 0.0
C2708 C 1.00057 0.20004 0.41107 0.0
C2709 C 0.04827 0.18433 0.43324 0.0
C2710 C 0.03142 0.1751 0.43671 0.0
C2711 C 0.01626 0.18056 0.42936 0.0
C2712 C 0.029 0.16033 0.44873 0.0
C2713 C 0.06485 0.17878 0.44079 0.0
C2714 C 0.02828 0.14187 0.4411 0.0
C2715 C 0.02217 0.1276 0.45127 0.0
C2716 C 0.01666 0.13164 0.46916 0.0
C2717 C 0.01856 0.1502 0.47723 0.0
C2718 C 0.02465 0.16439 0.46712 0.0
H2719 H 0.07702 0.18739 0.43702 0.0
H2720 H 0.06572 0.18 0.45644 0.0
H2721 H 0.06423 0.16412 0.43506 0.0
H2722 H 0.03136 0.13842 0.42683 0.0
H2723 H 0.02044 0.11341 0.44455 0.0
H2724 H 0.57234 0.23846 0.19711 0.0
H2725 H 0.6033 0.2363 0.2054 0.0
H2726 H 0.61272 0.2882 0.24285 0.0
H2727 H 0.58201 0.29017 0.23509 0.0
H2728 H 0.63462 0.25645 0.20113 0.0
H2729 H 0.63342 0.2594 0.27804 0.0
H2730 H 0.61344 0.25614 0.26186 0.0
H2731 H 0.62668 0.27896 0.27031 0.0
C2732 C 0.58097 0.24937 0.2072 0.0
C2733 C 0.57439 0.26444 0.21545 0.0
C2734 C 0.59878 0.24813 0.21197 0.0
C2735 C 0.61058 0.26187 0.22518 0.0
C2736 C 0.60403 0.27703 0.23313 0.0
H2737 H 0.72438 0.29639 0.25997 0.0
H2738 H 0.69239 0.29312 0.25205 0.0
C2739 C 0.58631 0.27822 0.22848 0.0
C2740 C 0.6298 0.26088 0.23024 0.0
H2741 H 0.66231 0.26608 0.26774 0.0
C2742 C 0.64053 0.25832 0.21572 0.0
C2743 C 0.63786 0.26314 0.24927 0.0
C2744 C 0.6272 0.26435 0.26574 0.0
C2745 C 0.65888 0.25875 0.21966 0.0
C2746 C 0.66701 0.26185 0.23865 0.0
C2747 C 0.65627 0.26393 0.25317 0.0
C2748 C 0.6867 0.26355 0.24364 0.0
C2749 C 0.66968 0.25641 0.20348 0.0
C2750 C 0.69446 0.24803 0.24177 0.0
C2751 C 0.71289 0.24983 0.24653 0.0
C2752 C 0.72419 0.26725 0.25308 0.0
C2753 C 0.71632 0.28274 0.25488 0.0
C2754 C 0.6979 0.28089 0.25038 0.0
H2755 H 0.66188 0.25577 0.18955 0.0
H2756 H 0.68142 0.26801 0.20532 0.0
H2757 H 0.6746 0.24349 0.20346 0.0
H2758 H 0.68623 0.23446 0.23669 0.0
H2759 H 0.71827 0.23757 0.24485 0.0
H2760 H 0.5219 0.82894 0.91325 0.0
H2761 H 0.52539 0.85917 0.93262 0.0
H2762 H 0.54527 0.8854 0.88687 0.0
H2763 H 0.54194 0.85494 0.86733 0.0
H2764 H 0.55497 0.8898 0.94456 0.0
H2765 H 0.50116 0.90716 0.89838 0.0
H2766 H 0.5047 0.88399 0.8973 0.0
H2767 H 0.51899 0.90058 0.88671 0.0
C2768 C 0.52729 0.84112 0.90736 0.0
C2769 C 0.53162 0.83947 0.88869 0.0
C2770 C 0.52927 0.85844 0.9185 0.0
C2771 C 0.53534 0.87466 0.91119 0.0
C2772 C 0.54037 0.87311 0.89279 0.0
H2773 H 0.54534 0.99023 0.9639 0.0
H2774 H 0.54857 0.96222 0.94371 0.0
C2775 C 0.53863 0.85568 0.88168 0.0
C2776 C 0.53548 0.89299 0.92262 0.0
H2777 H 0.51489 0.92951 0.92465 0.0
C2778 C 0.5463 0.89853 0.94011 0.0
C2779 C 0.52401 0.90436 0.91702 0.0
C2780 C 0.51142 0.89875 0.89892 0.0
C2781 C 0.54597 0.91505 0.95201 0.0
C2782 C 0.53445 0.92632 0.94642 0.0
C2783 C 0.52379 0.92093 0.92888 0.0
C2784 C 0.53281 0.94339 0.95894 0.0
C2785 C 0.55787 0.92041 0.97058 0.0
C2786 C 0.52271 0.94219 0.97412 0.0
C2787 C 0.52057 0.95819 0.98551 0.0
C2788 C 0.52873 0.97585 0.98224 0.0
C2789 C 0.5389 0.97695 0.96698 0.0
C2790 C 0.54081 0.96093 0.95541 0.0
H2791 H 0.56749 0.91136 0.97197 0.0
H2792 H 0.56528 0.93492 0.97202 0.0
H2793 H 0.54965 0.9195 0.9824 0.0
H2794 H 0.51624 0.92883 0.977 0.0
H2795 H 0.51224 0.95665 0.99671 0.0
H2796 H 0.97604 0.76548 0.73879 0.0
H2797 H 0.94798 0.77055 0.7497 0.0
H2798 H 0.91945 0.74056 0.69681 0.0
H2799 H 0.94757 0.73611 0.68557 0.0
H2800 H 0.91926 0.78756 0.72588 0.0
H2801 H 0.89596 0.71828 0.7453 0.0
H2802 H 0.9192 0.72827 0.74549 0.0
H2803 H 0.90545 0.71945 0.72341 0.0
C2804 C 0.96377 0.75968 0.72958 0.0
C2805 C 0.96417 0.75011 0.71135 0.0
C2806 C 0.94768 0.76275 0.73579 0.0
C2807 C 0.93138 0.75595 0.72418 0.0
C2808 C 0.93171 0.74601 0.70614 0.0
H2809 H 0.81901 0.75399 0.73365 0.0
H2810 H 0.84776 0.74921 0.72515 0.0
C2811 C 0.94785 0.74337 0.69972 0.0
C2812 C 0.91414 0.75942 0.73073 0.0
H2813 H 0.87613 0.73842 0.7469 0.0
C2814 C 0.9099 0.77683 0.73059 0.0
C2815 C 0.90174 0.74554 0.73689 0.0
C2816 C 0.90571 0.72681 0.73795 0.0
C2817 C 0.89366 0.78053 0.73602 0.0
C2818 C 0.88119 0.76659 0.7421 0.0
C2819 C 0.8855 0.74922 0.74231 0.0
C2820 C 0.86346 0.76959 0.74775 0.0
C2821 C 0.8897 0.79923 0.73467 0.0
C2822 C 0.86228 0.78243 0.76363 0.0
C2823 C 0.84566 0.78496 0.76882 0.0
C2824 C 0.82961 0.77507 0.75806 0.0
C2825 C 0.83089 0.76213 0.74227 0.0
C2826 C 0.84746 0.75932 0.73735 0.0
H2827 H 0.89882 0.80715 0.7262 0.0
H2828 H 0.87584 0.79785 0.72819 0.0
H2829 H 0.8912 0.80727 0.7491 0.0
H2830 H 0.87425 0.7904 0.77222 0.0
H2831 H 0.84547 0.79472 0.78125 0.0
H2832 H 0.10166 0.06626 0.83323 0.0
H2833 H 0.08865 0.06319 0.863 0.0
H2834 H 0.08627 0.00462 0.85294 0.0
H2835 H 0.09987 0.00782 0.82395 0.0
H2836 H 0.05665 0.04247 0.869 0.0
H2837 H 0.11119 0.0177 0.90594 0.0
H2838 H 0.11354 0.02748 0.88449 0.0
H2839 H 0.10191 0.004 0.88351 0.0
C2840 C 0.09831 0.05281 0.83749 0.0
C2841 C 0.10178 0.03729 0.82651 0.0
C2842 C 0.09096 0.05104 0.85445 0.0
C2843 C 0.0869 0.03372 0.86045 0.0
C2844 C 0.08985 0.01819 0.84901 0.0
H2845 H 0.04553 0.99567 0.96064 0.0
H2846 H 0.05764 0.99785 0.93043 0.0
C2847 C 0.09745 0.02001 0.83237 0.0
C2848 C 0.07907 0.03169 0.87834 0.0
H2849 H 0.08508 0.01662 0.92073 0.0
C2850 C 0.06291 0.03695 0.88039 0.0
C2851 C 0.08705 0.02404 0.89299 0.0
C2852 C 0.10445 0.01811 0.89173 0.0
C2853 C 0.05438 0.03463 0.89657 0.0
C2854 C 0.06263 0.02757 0.91157 0.0
C2855 C 0.07874 0.02213 0.90938 0.0
C2856 C 0.05502 0.02604 0.92975 0.0
C2857 C 0.03632 0.03922 0.89696 0.0
C2858 C 0.04972 0.04114 0.93965 0.0
C2859 C 0.04214 0.03958 0.95639 0.0
C2860 C 0.04068 0.02328 0.96417 0.0
C2861 C 0.0467 0.00842 0.95489 0.0
C2862 C 0.05358 0.0097 0.93766 0.0
H2863 H 0.02935 0.03768 0.88243 0.0
H2864 H 0.02783 0.03029 0.90514 0.0
H2865 H 0.0379 0.05383 0.90352 0.0
H2866 H 0.05143 0.05419 0.93447 0.0
H2867 H 0.03777 0.05128 0.96351 0.0
H2868 H 0.76341 0.37802 0.53167 0.0
H2869 H 0.75493 0.36216 0.55821 0.0
H2870 H 0.81013 0.36801 0.57864 0.0
H2871 H 0.81875 0.38358 0.55229 0.0
H2872 H 0.77155 0.32921 0.57252 0.0
H2873 H 0.78148 0.39577 0.62074 0.0
H2874 H 0.77542 0.39336 0.59545 0.0
H2875 H 0.79798 0.39461 0.60489 0.0
C2876 C 0.7737 0.37549 0.5416 0.0
C2877 C 0.79172 0.38212 0.5401 0.0
C2878 C 0.76883 0.36661 0.55672 0.0
C2879 C 0.78196 0.3645 0.57039 0.0
C2880 C 0.7999 0.36987 0.56819 0.0
H2881 H 0.83001 0.33607 0.65832 0.0
H2882 H 0.81522 0.35047 0.63473 0.0
C2883 C 0.80478 0.37853 0.55303 0.0
C2884 C 0.77743 0.35698 0.58739 0.0
H2885 H 0.78615 0.36948 0.63513 0.0
C2886 C 0.77397 0.33784 0.5863 0.0
C2887 C 0.78057 0.36854 0.60511 0.0
C2888 C 0.78393 0.38924 0.60668 0.0
C2889 C 0.77584 0.32991 0.60265 0.0
C2890 C 0.78093 0.34159 0.62031 0.0
C2891 C 0.78227 0.36064 0.62151 0.0
C2892 C 0.78889 0.33483 0.63649 0.0
C2893 C 0.77437 0.30934 0.6007 0.0
C2894 C 0.77885 0.32156 0.64533 0.0
C2895 C 0.7873 0.31318 0.65854 0.0
C2896 C 0.80585 0.31807 0.66303 0.0
C2897 C 0.81576 0.33184 0.65467 0.0
C2898 C 0.80731 0.34022 0.64152 0.0
H2899 H 0.77185 0.30253 0.58569 0.0
H2900 H 0.78676 0.30629 0.60731 0.0
H2901 H 0.76331 0.30319 0.60815 0.0
H2902 H 0.76462 0.31734 0.6416 0.0
H2903 H 0.77942 0.30265 0.66499 0.0
H2904 H 0.43988 0.04175 0.33219 0.0
H2905 H 0.45407 0.03869 0.36311 0.0
H2906 H 0.41114 0.99337 0.36714 0.0
H2907 H 0.39666 0.9967 0.3362 0.0
H2908 H 0.4286 0.03313 0.40021 0.0
H2909 H 0.46916 0.98439 0.37197 0.0
H2910 H 0.46342 1.00063 0.35744 0.0
H2911 H 0.44637 0.98262 0.36246 0.0
C2912 C 0.4338 0.03091 0.33955 0.0
C2913 C 0.4176 0.0192 0.33214 0.0
C2914 C 0.44164 0.02936 0.35712 0.0
C2915 C 0.43336 0.01595 0.36704 0.0
C2916 C 0.41739 0.00385 0.35945 0.0
H2917 H 0.49629 0.99745 0.46304 0.0
H2918 H 0.47529 0.99369 0.43485 0.0
C2919 C 0.40938 0.00559 0.34192 0.0
C2920 C 0.44224 0.01451 0.38506 0.0
H2921 H 0.47922 0.0018 0.40224 0.0
C2922 C 0.43938 0.02588 0.40106 0.0
C2923 C 0.45611 0.00505 0.38557 0.0
C2924 C 0.45901 0.99238 0.36849 0.0
C2925 C 0.45088 0.02871 0.41776 0.0
C2926 C 0.46565 0.02032 0.41781 0.0
C2927 C 0.46792 0.00832 0.40195 0.0
C2928 C 0.47866 0.02304 0.43436 0.0
C2929 C 0.44724 0.04079 0.43492 0.0
C2930 C 0.48775 0.0408 0.44289 0.0
C2931 C 0.49925 0.04295 0.4594 0.0
C2932 C 0.50213 0.0273 0.46666 0.0
C2933 C 0.49417 0.00959 0.45731 0.0
C2934 C 0.48217 0.00747 0.44139 0.0
H2935 H 0.43301 0.04143 0.43417 0.0
H2936 H 0.45109 0.03576 0.44819 0.0
H2937 H 0.455 0.05505 0.43555 0.0
H2938 H 0.48563 0.05288 0.43707 0.0
H2939 H 0.50556 0.05666 0.46668 0.0
H2940 H 0.80417 0.71485 0.06099 0.0
H2941 H 0.80094 0.72745 0.0933 0.0
H2942 H 0.7464 0.69803 0.08547 0.0
H2943 H 0.74961 0.68496 0.05316 0.0
H2944 H 0.77979 0.74896 0.10816 0.0
H2945 H 0.76516 0.68118 0.13286 0.0
H2946 H 0.77307 0.68386 0.11039 0.0
H2947 H 0.75011 0.68302 0.11304 0.0
C2948 C 0.79144 0.71103 0.06605 0.0
C2949 C 0.77719 0.6987 0.0544 0.0
C2950 C 0.78961 0.7183 0.0846 0.0
C2951 C 0.77353 0.71345 0.09205 0.0
C2952 C 0.75909 0.70164 0.08027 0.0
H2953 H 0.74502 0.74666 0.20543 0.0
H2954 H 0.74358 0.73628 0.17129 0.0
C2955 C 0.76092 0.69427 0.06171 0.0
C2956 C 0.77208 0.72064 0.11216 0.0
H2957 H 0.76356 0.70727 0.15467 0.0
C2958 C 0.7762 0.73981 0.11829 0.0
C2959 C 0.76747 0.70876 0.12551 0.0
C2960 C 0.76386 0.68806 0.12022 0.0
C2961 C 0.77585 0.74735 0.13726 0.0
C2962 C 0.77131 0.73546 0.15053 0.0
C2963 C 0.76691 0.71635 0.14442 0.0
C2964 C 0.77199 0.74256 0.17103 0.0
C2965 C 0.78035 0.768 0.14308 0.0
C2966 C 0.7884 0.74944 0.18223 0.0
C2967 C 0.7892 0.75529 0.2017 0.0
C2968 C 0.7736 0.75461 0.21038 0.0
C2969 C 0.75718 0.74783 0.19911 0.0
C2970 C 0.75638 0.74173 0.17963 0.0
H2971 H 0.78056 0.77536 0.13067 0.0
H2972 H 0.77063 0.77243 0.15213 0.0
H2973 H 0.79363 0.77217 0.15152 0.0
H2974 H 0.80062 0.75002 0.17595 0.0
H2975 H 0.80208 0.76045 0.20999 0.0
H2976 H 0.06606 0.01287 0.72322 0.0
H2977 H 0.05495 0.01446 0.69071 0.0
H2978 H 0.1078 0.03855 0.68049 0.0
H2979 H 0.11913 0.03694 0.71309 0.0
H2980 H 0.05782 0.04693 0.67327 0.0
H2981 H 0.09035 0.99503 0.63625 0.0
H2982 H 0.08802 0.99671 0.66116 0.0
H2983 H 0.10466 0.01312 0.65303 0.0
C2984 C 0.07539 0.01843 0.71407 0.0
C2985 C 0.09351 0.02475 0.72078 0.0
C2986 C 0.06898 0.01935 0.69548 0.0
C2987 C 0.08056 0.02646 0.68314 0.0
C2988 C 0.09867 0.03275 0.68971 0.0
H2989 H 0.06451 0.0367 0.56418 0.0
H2990 H 0.07663 0.03705 0.59689 0.0
C2991 C 0.10511 0.03188 0.70836 0.0
C2992 C 0.07348 0.02768 0.66355 0.0
H2993 H 0.07427 0.01083 0.61715 0.0
C2994 C 0.06139 0.03905 0.66097 0.0
C2995 C 0.07825 0.01746 0.64756 0.0
C2996 C 0.09093 0.00477 0.64953 0.0
C2997 C 0.05411 0.04069 0.6428 0.0
C2998 C 0.0586 0.03019 0.62676 0.0
C2999 C 0.07077 0.01886 0.6294 0.0
C3000 C 0.05104 0.0308 0.6071 0.0
C3001 C 0.04207 0.05405 0.64104 0.0
C3002 C 0.03259 0.02724 0.60184 0.0
C3003 C 0.02567 0.02754 0.58322 0.0
C3004 C 0.03706 0.03074 0.56942 0.0
C3005 C 0.05546 0.03407 0.57458 0.0
C3006 C 0.06238 0.03426 0.59326 0.0
H3007 H 0.04453 0.06499 0.65366 0.0
H3008 H 0.04382 0.06073 0.62827 0.0
H3009 H 0.02808 0.04651 0.63994 0.0
H3010 H 0.02352 0.02392 0.61204 0.0
H3011 H 0.01143 0.0247 0.57945 0.0
H3012 H 0.76883 0.38381 0.46477 0.0
H3013 H 0.75897 0.36203 0.43527 0.0
H3014 H 0.80577 0.38642 0.41208 0.0
H3015 H 0.81607 0.40773 0.44193 0.0
H3016 H 0.75387 0.36509 0.39503 0.0
H3017 H 0.80966 0.33254 0.41562 0.0
H3018 H 0.80207 0.3489 0.43201 0.0
H3019 H 0.81594 0.35675 0.41478 0.0
C3020 C 0.77682 0.38469 0.45321 0.0
C3021 C 0.79331 0.39709 0.45553 0.0
C3022 C 0.77115 0.37234 0.43643 0.0
C3023 C 0.78182 0.37252 0.42177 0.0
C3024 C 0.79758 0.38595 0.42349 0.0
H3025 H 0.79913 0.31518 0.32187 0.0
H3026 H 0.79797 0.33283 0.35227 0.0
C3027 C 0.80346 0.39801 0.44044 0.0
C3028 C 0.77769 0.35735 0.40573 0.0
H3029 H 0.79439 0.32214 0.38477 0.0
C3030 C 0.76259 0.35556 0.39272 0.0
C3031 C 0.78891 0.34475 0.40325 0.0
C3032 C 0.80497 0.34567 0.41723 0.0
C3033 C 0.75923 0.34233 0.37627 0.0
C3034 C 0.77111 0.33044 0.37325 0.0
C3035 C 0.78539 0.33137 0.38709 0.0
C3036 C 0.77103 0.31926 0.3547 0.0
C3037 C 0.74367 0.34193 0.36185 0.0
C3038 C 0.75632 0.30559 0.34597 0.0
C3039 C 0.75667 0.29607 0.3279 0.0
C3040 C 0.77186 0.29998 0.31868 0.0
C3041 C 0.78686 0.31278 0.32805 0.0
C3042 C 0.78634 0.32256 0.34568 0.0
H3043 H 0.73765 0.35411 0.36496 0.0
H3044 H 0.74773 0.34146 0.34742 0.0
H3045 H 0.73332 0.32938 0.36192 0.0
H3046 H 0.7446 0.30238 0.353 0.0
H3047 H 0.74509 0.28588 0.32108 0.0
H3048 H 0.39618 0.03704 0.2311 0.0
H3049 H 0.41298 0.03949 0.20417 0.0
H3050 H 0.42387 0.98567 0.20701 0.0
H3051 H 0.40718 0.98302 0.23414 0.0
H3052 H 0.45443 0.02439 0.20841 0.0
H3053 H 0.39972 1.00104 0.14866 0.0
H3054 H 0.39673 0.01433 0.1706 0.0
H3055 H 0.39849 0.99081 0.16996 0.0
C3056 C 0.40179 0.02553 0.22576 0.0
C3057 C 0.4004 0.00982 0.23466 0.0
C3058 C 0.41145 0.02705 0.21051 0.0
C3059 C 0.41956 0.01281 0.20392 0.0
C3060 C 0.41761 0.99677 0.21216 0.0
H3061 H 0.47111 0.9667 0.12457 0.0
H3062 H 0.45171 0.9783 0.14595 0.0
C3063 C 0.40804 0.99525 0.2275 0.0
C3064 C 0.43064 0.01483 0.18874 0.0
H3065 H 0.42908 0.00409 0.1411 0.0
C3066 C 0.449 0.02038 0.19362 0.0
C3067 C 0.42322 0.00972 0.16969 0.0
C3068 C 0.40345 0.00365 0.16424 0.0
C3069 C 0.4604 0.01964 0.17973 0.0
C3070 C 0.45301 0.01327 0.1607 0.0
C3071 C 0.43457 0.00907 0.15576 0.0
C3072 C 0.4639 0.00705 0.14668 0.0
C3073 C 0.48018 0.02426 0.18558 0.0
C3074 C 0.477 0.01951 0.14011 0.0
C3075 C 0.48815 0.01288 0.12804 0.0
C3076 C 0.4863 0.99379 0.12266 0.0
C3077 C 0.47301 0.98143 0.12904 0.0
C3078 C 0.46182 0.98804 0.14093 0.0
H3079 H 0.48363 0.02727 0.2012 0.0
H3080 H 0.48616 0.01267 0.17996 0.0
H3081 H 0.48624 0.03655 0.17957 0.0
H3082 H 0.47864 0.03424 0.14442 0.0
H3083 H 0.49822 0.02258 0.12291 0.0
H3084 H 0.74639 0.68676 0.94619 0.0
H3085 H 0.74573 0.69956 0.91648 0.0
H3086 H 0.79556 0.73719 0.93718 0.0
H3087 H 0.79632 0.72471 0.96679 0.0
H3088 H 0.75144 0.74102 0.91025 0.0
H3089 H 0.80233 0.70327 0.8863 0.0
H3090 H 0.78854 0.69613 0.90403 0.0
H3091 H 0.80646 0.71596 0.90996 0.0
C3092 C 0.75696 0.69811 0.94464 0.0
C3093 C 0.77143 0.70465 0.95892 0.0
C3094 C 0.75663 0.7053 0.92759 0.0
C3095 C 0.77075 0.71911 0.92453 0.0
C3096 C 0.78465 0.72638 0.93915 0.0
H3097 H 0.80782 0.76424 0.82662 0.0
H3098 H 0.80448 0.75319 0.85691 0.0
C3099 C 0.78499 0.71926 0.95614 0.0
C3100 C 0.77153 0.72546 0.90585 0.0
H3101 H 0.79365 0.72361 0.86699 0.0
C3102 C 0.76059 0.7372 0.90069 0.0
C3103 C 0.78367 0.72066 0.89359 0.0
C3104 C 0.7959 0.70823 0.89859 0.0
C3105 C 0.76181 0.74476 0.88383 0.0
C3106 C 0.77376 0.73969 0.87123 0.0
C3107 C 0.7845 0.72763 0.87643 0.0
C3108 C 0.7757 0.74686 0.85284 0.0
C3109 C 0.75082 0.75875 0.88036 0.0
C3110 C 0.76079 0.74705 0.84017 0.0
C3111 C 0.76277 0.75437 0.82338 0.0
C3112 C 0.77969 0.76042 0.8182 0.0
C3113 C 0.79463 0.75952 0.8303 0.0
C3114 C 0.79267 0.75312 0.84758 0.0
H3115 H 0.74763 0.76575 0.89385 0.0
H3116 H 0.75773 0.76945 0.87277 0.0
H3117 H 0.73804 0.75161 0.87182 0.0
H3118 H 0.74754 0.74156 0.84317 0.0
H3119 H 0.75105 0.755 0.81427 0.0
H3120 H 0.79306 0.06916 0.04193 0.0
H3121 H 0.8194 0.0564 0.03867 0.0
H3122 H 0.85253 0.11095 0.05405 0.0
H3123 H 0.82616 0.12388 0.0571 0.0
H3124 H 0.84331 0.08186 0.01065 0.0
H3125 H 0.87472 0.06361 0.0764 0.0
H3126 H 0.85095 0.06106 0.07189 0.0
H3127 H 0.86494 0.08363 0.07723 0.0
C3128 C 0.80601 0.07828 0.04567 0.0
C3129 C 0.80779 0.09745 0.04958 0.0
C3130 C 0.82098 0.07099 0.04374 0.0
C3131 C 0.83769 0.08284 0.04619 0.0
C3132 C 0.83962 0.10173 0.05231 0.0
H3133 H 0.93613 0.0692 0.00552 0.0
H3134 H 0.91391 0.07925 0.02442 0.0
C3135 C 0.82464 0.10906 0.05399 0.0
C3136 C 0.85222 0.07624 0.0381 0.0
H3137 H 0.88807 0.05799 0.04831 0.0
C3138 C 0.85313 0.07663 0.01881 0.0
C3139 C 0.86485 0.06969 0.04903 0.0
C3140 C 0.86397 0.06939 0.06983 0.0
C3141 C 0.86653 0.07036 0.00997 0.0
C3142 C 0.87902 0.06336 0.02077 0.0
C3143 C 0.87829 0.06327 0.04018 0.0
C3144 C 0.89284 0.05606 0.01175 0.0
C3145 C 0.86731 0.07132 0.9892 0.0
C3146 C 0.88817 0.03966 -0.00125 0.0
C3147 C 0.90061 0.0342 0.98778 0.0
C3148 C 0.91782 0.04503 0.98992 0.0
C3149 C 0.92276 0.06092 0.00361 0.0
C3150 C 0.91024 0.0665 0.01446 0.0
H3151 H 0.85866 0.08013 0.98383 0.0
H3152 H 0.88111 0.07679 0.98659 0.0
H3153 H 0.86288 0.05724 0.98093 0.0
H3154 H 0.87474 0.03148 0.99666 0.0
H3155 H 0.89681 0.02165 0.97753 0.0
H3156 H 0.34645 0.39725 0.04302 0.0
H3157 H 0.37634 0.41501 0.04244 0.0
H3158 H 0.35508 0.45095 0.00891 0.0
H3159 H 0.32501 0.43341 0.00968 0.0
H3160 H 0.39522 0.42248 0.01274 0.0
H3161 H 0.38472 0.48697 0.05357 0.0
H3162 H 0.36949 0.46506 0.05199 0.0
H3163 H 0.36891 0.47817 0.03287 0.0
C3164 C 0.3481 0.40881 0.03534 0.0
C3165 C 0.33334 0.41394 0.0264 0.0
C3166 C 0.36521 0.41898 0.03509 0.0
C3167 C 0.36789 0.43449 0.02595 0.0
C3168 C 0.35325 0.43927 0.01643 0.0
H3169 H 0.45893 0.51119 0.00343 0.0
H3170 H 0.42942 0.49326 0.00551 0.0
C3171 C 0.3361 0.42914 0.01673 0.0
C3172 C 0.38601 0.44561 0.02638 0.0
H3173 H 0.4116 0.489 0.03979 0.0
C3174 C 0.39885 0.437 0.01874 0.0
C3175 C 0.39071 0.4645 0.03439 0.0
C3176 C 0.3778 0.47421 0.04384 0.0
C3177 C 0.41615 0.44693 0.01841 0.0
C3178 C 0.42071 0.46588 0.02606 0.0
C3179 C 0.40797 0.47446 0.03388 0.0
C3180 C 0.43854 0.47716 0.02561 0.0
C3181 C 0.42933 0.43722 0.00949 0.0
C3182 C 0.45336 0.47422 0.03652 0.0
C3183 C 0.47026 0.4846 0.03555 0.0
C3184 C 0.47257 0.4981 0.02367 0.0
C3185 C 0.45761 0.50115 0.01299 0.0
C3186 C 0.44074 0.49085 0.01405 0.0
H3187 H 0.42286 0.42347 0.00129 0.0
H3188 H 0.43654 0.44567 -4e-05 0.0
H3189 H 0.43923 0.43525 0.02077 0.0
H3190 H 0.45186 0.46382 0.04568 0.0
H3191 H 0.48152 0.48191 0.04394 0.0
H3192 H 0.40121 0.5646 0.7373 0.0
H3193 H 0.38642 0.59021 0.73353 0.0
H3194 H 0.34771 0.56924 0.76892 0.0
H3195 H 0.36244 0.54391 0.77295 0.0
H3196 H 0.34738 0.59291 0.72347 0.0
H3197 H 0.37775 0.62115 0.79735 0.0
H3198 H 0.38557 0.60361 0.7827 0.0
H3199 H 0.36596 0.59753 0.79396 0.0
C3200 C 0.38922 0.56515 0.74376 0.0
C3201 C 0.38307 0.55244 0.75562 0.0
C3202 C 0.38084 0.57979 0.74163 0.0
C3203 C 0.3662 0.58167 0.7512 0.0
C3204 C 0.35913 0.56806 0.7616 0.0
H3205 H 0.29558 0.64433 0.78463 0.0
H3206 H 0.31071 0.62145 0.76986 0.0
C3207 C 0.36755 0.55361 0.76388 0.0
C3208 C 0.35945 0.59878 0.75246 0.0
H3209 H 0.35435 0.63425 0.78506 0.0
C3210 C 0.34914 0.6022 0.73678 0.0
C3211 C 0.36203 0.61094 0.76982 0.0
C3212 C 0.37356 0.60827 0.78689 0.0
C3213 C 0.34031 0.6169 0.73849 0.0
C3214 C 0.34196 0.62821 0.75621 0.0
C3215 C 0.35314 0.62545 0.77149 0.0
C3216 C 0.33058 0.64146 0.76017 0.0
C3217 C 0.32865 0.61984 0.72175 0.0
C3218 C 0.3365 0.66017 0.759 0.0
C3219 C 0.32774 0.67326 0.7673 0.0
C3220 C 0.31323 0.66769 0.77706 0.0
C3221 C 0.30669 0.64886 0.77707 0.0
C3222 C 0.31528 0.63583 0.76863 0.0
H3223 H 0.32985 0.6108 0.70855 0.0
H3224 H 0.31462 0.61697 0.72459 0.0
H3225 H 0.33217 0.63446 0.71963 0.0
H3226 H 0.34846 0.66471 0.75275 0.0
H3227 H 0.33309 0.68777 0.76735 0.0
H3228 H 0.21081 0.58272 0.56548 0.0
H3229 H 0.17822 0.57445 0.56231 0.0
H3230 H 0.17597 0.57624 0.50243 0.0
H3231 H 0.20815 0.58442 0.50534 0.0
H3232 H 0.15705 0.60121 0.53791 0.0
H3233 H 0.14269 0.52482 0.51689 0.0
H3234 H 0.16207 0.53719 0.53287 0.0
H3235 H 0.16108 0.53855 0.50812 0.0
C3236 C 0.2033 0.58096 0.55163 0.0
C3237 C 0.21181 0.58438 0.53569 0.0
C3238 C 0.18485 0.57637 0.54989 0.0
C3239 C 0.17507 0.57497 0.53218 0.0
C3240 C 0.18355 0.57736 0.51615 0.0
H3241 H 0.06677 0.5352 0.49007 0.0
H3242 H 0.09722 0.55174 0.48955 0.0
C3243 C 0.20184 0.58203 0.51787 0.0
C3244 C 0.1559 0.57217 0.53018 0.0
H3245 H 0.11868 0.53956 0.51377 0.0
C3246 C 0.14851 0.58777 0.53278 0.0
C3247 C 0.14524 0.55466 0.52315 0.0
C3248 C 0.15306 0.53775 0.52011 0.0
C3249 C 0.13034 0.58627 0.52821 0.0
C3250 C 0.11956 0.5687 0.52115 0.0
C3251 C 0.12709 0.5531 0.51874 0.0
C3252 C 0.10021 0.5655 0.51857 0.0
C3253 C 0.12291 0.60345 0.5308 0.0
C3254 C 0.09162 0.56904 0.53453 0.0
C3255 C 0.07423 0.56001 0.53461 0.0
C3256 C 0.06551 0.54729 0.51886 0.0
C3257 C 0.07328 0.54539 0.50213 0.0
C3258 C 0.09065 0.55467 0.50192 0.0
H3259 H 0.13297 0.6158 0.52927 0.0
H3260 H 0.11102 0.60229 0.52048 0.0
H3261 H 0.11909 0.60567 0.5453 0.0
H3262 H 0.09887 0.57698 0.54763 0.0
H3263 H 0.0683 0.56141 0.54767 0.0
H3264 H 0.72328 0.00986 0.73704 0.0
H3265 H 0.7371 0.98303 0.73048 0.0
H3266 H 0.69552 0.94996 0.75485 0.0
H3267 H 0.68215 0.97646 0.76155 0.0
H3268 H 0.74802 0.96699 0.76118 0.0
H3269 H 0.70148 0.91418 0.70923 0.0
H3270 H 0.70159 0.93852 0.71104 0.0
H3271 H 0.68999 0.92483 0.72661 0.0
C3272 C 0.71723 0.99674 0.7408 0.0
C3273 C 0.70211 0.99498 0.75018 0.0
C3274 C 0.72486 0.98149 0.73681 0.0
C3275 C 0.71702 0.96449 0.74175 0.0
C3276 C 0.70146 0.96279 0.75041 0.0
H3277 H 0.72567 0.87882 0.79537 0.0
H3278 H 0.71774 0.90049 0.77524 0.0
C3279 C 0.69408 0.97796 0.75462 0.0
C3280 C 0.72656 0.94951 0.74183 0.0
H3281 H 0.71769 0.90258 0.73461 0.0
C3282 C 0.74193 0.95292 0.75475 0.0
C3283 C 0.71827 0.93125 0.7336 0.0
C3284 C 0.70199 0.92703 0.71921 0.0
C3285 C 0.74808 0.93841 0.76141 0.0
C3286 C 0.73897 0.92011 0.75426 0.0
C3287 C 0.7246 0.91667 0.73998 0.0
C3288 C 0.74267 0.90477 0.76349 0.0
C3289 C 0.7631 0.94281 0.77741 0.0
C3290 C 0.75909 0.8998 0.76306 0.0
C3291 C 0.76373 0.88767 0.77471 0.0
C3292 C 0.75192 0.88031 0.78681 0.0
C3293 C 0.73507 0.88452 0.78636 0.0
C3294 C 0.73047 0.89669 0.77475 0.0
H3295 H 0.76694 0.95778 0.78311 0.0
H3296 H 0.75932 0.93523 0.78917 0.0
H3297 H 0.77486 0.93839 0.77228 0.0
H3298 H 0.7686 0.90597 0.7544 0.0
H3299 H 0.77687 0.88479 0.77489 0.0
H3300 H 0.74755 0.93831 0.5562 0.0
H3301 H 0.72127 0.95093 0.5504 0.0
H3302 H 0.6985 0.90416 0.50723 0.0
H3303 H 0.72482 0.89125 0.51307 0.0
H3304 H 0.70893 0.96057 0.51645 0.0
H3305 H 0.65786 0.90792 0.53956 0.0
H3306 H 0.68134 0.90992 0.54585 0.0
H3307 H 0.67087 0.89886 0.52267 0.0
C3308 C 0.7369 0.93055 0.54558 0.0
C3309 C 0.73829 0.91371 0.53512 0.0
C3310 C 0.72188 0.93783 0.54229 0.0
C3311 C 0.70783 0.9284 0.52856 0.0
C3312 C 0.70904 0.91149 0.51817 0.0
H3313 H 0.61404 0.95488 0.47552 0.0
H3314 H 0.63709 0.9398 0.48764 0.0
C3315 C 0.72412 0.90416 0.52146 0.0
C3316 C 0.69243 0.93689 0.52446 0.0
H3317 H 0.64749 0.93043 0.52383 0.0
C3318 C 0.69552 0.95405 0.51819 0.0
C3319 C 0.67495 0.92837 0.52678 0.0
C3320 C 0.67099 0.91033 0.53424 0.0
C3321 C 0.68155 0.96268 0.51369 0.0
C3322 C 0.66403 0.9541 0.51583 0.0
C3323 C 0.66094 0.93701 0.52227 0.0
C3324 C 0.64873 0.96224 0.51034 0.0
C3325 C 0.6856 0.98067 0.5061 0.0
C3326 C 0.64721 0.97954 0.51956 0.0
C3327 C 0.63397 0.98809 0.51274 0.0
C3328 C 0.62218 0.97952 0.49653 0.0
C3329 C 0.62316 0.96184 0.48791 0.0
C3330 C 0.63625 0.9532 0.49485 0.0
H3331 H 0.69896 0.98329 0.50133 0.0
H3332 H 0.67561 0.98082 0.49404 0.0
H3333 H 0.68518 0.99217 0.51743 0.0
H3334 H 0.65658 0.98664 0.53169 0.0
H3335 H 0.6334 0.00171 0.51963 0.0
H3336 H 0.36324 0.47235 0.77751 0.0
H3337 H 0.34589 0.44078 0.77102 0.0
H3338 H 0.38403 0.42474 0.73581 0.0
H3339 H 0.40165 0.45652 0.74231 0.0
H3340 H 0.33051 0.41682 0.73691 0.0
H3341 H 0.3827 0.39116 0.77733 0.0
H3342 H 0.38274 0.41538 0.77866 0.0
H3343 H 0.38964 0.40319 0.75838 0.0
C3344 C 0.36792 0.46216 0.76828 0.0
C3345 C 0.38395 0.46688 0.76061 0.0
C3346 C 0.35793 0.44414 0.76452 0.0
C3347 C 0.36381 0.43039 0.75318 0.0
C3348 C 0.3794 0.43514 0.74481 0.0
H3349 H 0.31765 0.31151 0.73542 0.0
H3350 H 0.33501 0.3417 0.7317 0.0
C3351 C 0.38938 0.45329 0.74844 0.0
C3352 C 0.35397 0.411 0.75111 0.0
H3353 H 0.35654 0.3695 0.76448 0.0
C3354 C 0.33625 0.40641 0.74273 0.0
C3355 C 0.36145 0.39752 0.75894 0.0
C3356 C 0.38012 0.40199 0.76898 0.0
C3357 C 0.32576 0.38872 0.74216 0.0
C3358 C 0.33318 0.37538 0.75023 0.0
C3359 C 0.35099 0.37979 0.75817 0.0
C3360 C 0.32229 0.3572 0.7518 0.0
C3361 C 0.30673 0.38444 0.7332 0.0
C3362 C 0.3096 0.35601 0.76448 0.0
C3363 C 0.29985 0.33887 0.76681 0.0
C3364 C 0.30246 0.32256 0.75632 0.0
C3365 C 0.3152 0.32382 0.74357 0.0
C3366 C 0.32511 0.34101 0.74142 0.0
H3367 H 0.30406 0.3948 0.72426 0.0
H3368 H 0.3033 0.37055 0.72439 0.0
H3369 H 0.2979 0.38441 0.74449 0.0
H3370 H 0.30752 0.36836 0.7729 0.0
H3371 H 0.29064 0.33844 0.77724 0.0
H3372 H 0.18562 0.57684 0.23094 0.0
H3373 H 0.19998 0.60749 0.22577 0.0
H3374 H 0.22345 0.62047 0.2841 0.0
H3375 H 0.2092 0.58993 0.28956 0.0
H3376 H 0.19245 0.63941 0.24877 0.0
H3377 H 0.26414 0.63917 0.25248 0.0
H3378 H 0.24697 0.61843 0.24597 0.0
H3379 H 0.25335 0.62846 0.27044 0.0
C3380 C 0.19399 0.58613 0.24265 0.0
C3381 C 0.19614 0.58111 0.26076 0.0
C3382 C 0.20223 0.60351 0.23958 0.0
C3383 C 0.21281 0.61589 0.25452 0.0
C3384 C 0.21553 0.61076 0.27238 0.0
H3385 H 0.26982 0.72492 0.28619 0.0
H3386 H 0.25149 0.69445 0.28659 0.0
C3387 C 0.20727 0.59343 0.27551 0.0
C3388 C 0.2191 0.63504 0.25245 0.0
H3389 H 0.25654 0.66857 0.25922 0.0
C3390 C 0.20645 0.64588 0.25078 0.0
C3391 C 0.23732 0.64308 0.25496 0.0
C3392 C 0.25125 0.63166 0.25588 0.0
C3393 C 0.21162 0.66504 0.25302 0.0
C3394 C 0.22987 0.6732 0.25666 0.0
C3395 C 0.24252 0.66218 0.25707 0.0
C3396 C 0.23646 0.69312 0.25927 0.0
C3397 C 0.19756 0.67632 0.25221 0.0
C3398 C 0.23326 0.7026 0.2443 0.0
C3399 C 0.2432 0.72014 0.2445 0.0
C3400 C 0.25645 0.72821 0.25953 0.0
C3401 C 0.25896 0.71926 0.27504 0.0
C3402 C 0.24873 0.70181 0.27507 0.0
H3403 H 0.18461 0.66852 0.25515 0.0
H3404 H 0.20148 0.68934 0.26247 0.0
H3405 H 0.19563 0.67987 0.23778 0.0
H3406 H 0.22431 0.69587 0.23174 0.0
H3407 H 0.24172 0.72668 0.2321 0.0
H3408 H 0.50791 0.72512 0.48593 0.0
H3409 H 0.51312 0.69639 0.49636 0.0
H3410 H 0.49494 0.66714 0.43982 0.0
H3411 H 0.49078 0.69584 0.42935 0.0
H3412 H 0.49347 0.66445 0.49906 0.0
H3413 H 0.53845 0.64852 0.44711 0.0
H3414 H 0.53193 0.67038 0.45037 0.0
H3415 H 0.51776 0.65065 0.43536 0.0
C3416 C 0.50538 0.7126 0.47569 0.0
C3417 C 0.49938 0.71293 0.45666 0.0
C3418 C 0.50825 0.69606 0.48168 0.0
C3419 C 0.50499 0.67933 0.46886 0.0
C3420 C 0.49841 0.67972 0.44999 0.0
H3421 H 0.50142 0.56234 0.47287 0.0
H3422 H 0.49849 0.59255 0.46534 0.0
C3423 C 0.4959 0.69622 0.44398 0.0
C3424 C 0.50796 0.66145 0.47509 0.0
H3425 H 0.52581 0.62369 0.46265 0.0
C3426 C 0.50074 0.65572 0.49116 0.0
C3427 C 0.51749 0.64972 0.46505 0.0
C3428 C 0.527 0.65523 0.44866 0.0
C3429 C 0.50225 0.63866 0.49693 0.0
C3430 C 0.51131 0.62677 0.48651 0.0
C3431 C 0.51871 0.63257 0.47064 0.0
C3432 C 0.51302 0.60817 0.49157 0.0
C3433 C 0.49365 0.6332 0.51387 0.0
C3434 C 0.52233 0.60652 0.50883 0.0
C3435 C 0.52411 0.58912 0.51321 0.0
C3436 C 0.51667 0.57274 0.50044 0.0
C3437 C 0.50737 0.57447 0.48317 0.0
C3438 C 0.50568 0.59186 0.47878 0.0
H3439 H 0.48423 0.64195 0.51811 0.0
H3440 H 0.48645 0.61855 0.51089 0.0
H3441 H 0.50405 0.63473 0.52601 0.0
H3442 H 0.52844 0.61876 0.51891 0.0
H3443 H 0.53131 0.58854 0.52666 0.0
H3444 H 0.61327 0.28671 0.62481 0.0
H3445 H 0.64208 0.2832 0.63981 0.0
H3446 H 0.62724 0.29979 0.69476 0.0
H3447 H 0.59879 0.30322 0.68013 0.0
H3448 H 0.66966 0.30912 0.66483 0.0
H3449 H 0.6417 0.25108 0.70068 0.0
H3450 H 0.62916 0.25799 0.68151 0.0
H3451 H 0.63147 0.27044 0.70515 0.0
C3452 C 0.61617 0.28965 0.64008 0.0
C3453 C 0.60352 0.29516 0.65117 0.0
C3454 C 0.63267 0.28761 0.64867 0.0
C3455 C 0.63682 0.29087 0.66853 0.0
C3456 C 0.62433 0.29674 0.67949 0.0
H3457 H 0.72032 0.29309 0.75742 0.0
H3458 H 0.69354 0.29361 0.73739 0.0
C3459 C 0.60799 0.29881 0.671 0.0
C3460 C 0.65413 0.28849 0.67807 0.0
H3461 H 0.67156 0.26669 0.71184 0.0
C3462 C 0.6701 0.29966 0.67491 0.0
C3463 C 0.65485 0.27618 0.69131 0.0
C3464 C 0.63841 0.2631 0.69476 0.0
C3465 C 0.68652 0.29948 0.68519 0.0
C3466 C 0.68716 0.28752 0.69883 0.0
C3467 C 0.67123 0.27597 0.70155 0.0
C3468 C 0.70398 0.28728 0.711 0.0
C3469 C 0.70291 0.31274 0.68194 0.0
C3470 C 0.7191 0.28355 0.70315 0.0
C3471 C 0.73457 0.28305 0.71483 0.0
C3472 C 0.73535 0.28596 0.73477 0.0
C3473 C 0.72028 0.29004 0.74243 0.0
C3474 C 0.70485 0.29053 0.73082 0.0
H3475 H 0.69956 0.32414 0.67493 0.0
H3476 H 0.71147 0.31877 0.69548 0.0
H3477 H 0.71063 0.30523 0.67261 0.0
H3478 H 0.71887 0.28069 0.68795 0.0
H3479 H 0.74579 0.27995 0.70813 0.0
H3480 H 0.96914 0.31228 0.96123 0.0
H3481 H 0.97486 0.34555 0.9711 0.0
H3482 H 0.02984 0.34962 0.96323 0.0
H3483 H 0.02387 0.31627 0.95216 0.0
H3484 H 0.99256 0.369 -0.00183 0.0
H3485 H 0.02211 0.38879 0.93478 0.0
H3486 H 0.01212 0.36523 0.93611 0.0
H3487 H 0.03443 0.37525 0.94712 0.0
C3488 C 0.98251 0.32017 0.96161 0.0
C3489 C 0.996 0.31136 0.95573 0.0
C3490 C 0.98579 0.33939 0.96729 0.0
C3491 C 0.00273 0.3506 0.96756 0.0
C3492 C 0.01645 0.34171 0.96251 0.0
H3493 H 0.04259 0.47047 0.00483 0.0
H3494 H 0.03968 0.43721 0.99558 0.0
C3495 C 0.01308 0.32246 0.95639 0.0
C3496 C 0.00577 0.37137 0.97326 0.0
H3497 H 0.02289 0.41303 0.95995 0.0
C3498 C 0.99912 0.37851 0.98965 0.0
C3499 C 0.01439 0.3842 0.9624 0.0
C3500 C 0.02101 0.378 0.94404 0.0
C3501 C 1.0008 0.39768 0.99537 0.0
C3502 C 0.00936 0.41039 0.9845 0.0
C3503 C 0.0163 0.40339 0.96834 0.0
C3504 C 0.0111 0.43094 0.98967 0.0
C3505 C 0.99354 0.40423 0.0132 0.0
C3506 C 0.99609 0.43886 0.98905 0.0
C3507 C 0.99776 0.45804 0.99404 0.0
C3508 C 0.01442 0.4699 0.00025 0.0
C3509 C 0.02946 0.46192 0.00048 0.0
C3510 C 0.02783 0.4428 0.99514 0.0
H3511 H 0.99077 0.39324 0.02211 0.0
H3512 H 0.00296 0.41635 0.02169 0.0
H3513 H 0.98096 0.40853 0.00936 0.0
H3514 H 0.98303 0.4302 0.98454 0.0
H3515 H 0.98595 0.46353 0.99297 0.0
H3516 H 0.0103 0.75921 0.15487 0.0
H3517 H 0.98364 0.75712 0.17104 0.0
H3518 H 0.96977 0.80135 0.14437 0.0
H3519 H 0.9957 0.80264 0.12738 0.0
H3520 H 0.97462 0.78063 0.1964 0.0
H3521 H 0.92276 0.76823 0.13477 0.0
H3522 H 0.9454 0.76717 0.13201 0.0
H3523 H 0.93904 0.78909 0.13589 0.0
C3524 C 0.00134 0.7682 0.15215 0.0
C3525 C 0.00503 0.78089 0.1396 0.0
C3526 C 0.98612 0.76709 0.1615 0.0
C3527 C 0.97432 0.77885 0.1588 0.0
C3528 C 0.97812 0.79162 0.14632 0.0
H3529 H 0.87441 0.785 0.20733 0.0
H3530 H 0.90236 0.79416 0.19397 0.0
C3531 C 0.99309 0.79242 0.13663 0.0
C3532 C 0.95859 0.7782 0.16968 0.0
H3533 H 0.91347 0.77363 0.16502 0.0
C3534 C 0.96126 0.77902 0.18945 0.0
C3535 C 0.94104 0.7765 0.16086 0.0
C3536 C 0.93684 0.77504 0.13971 0.0
C3537 C 0.94707 0.77787 0.20047 0.0
C3538 C 0.92951 0.77553 0.19157 0.0
C3539 C 0.92687 0.77538 0.17193 0.0
C3540 C 0.91361 0.7717 0.202 0.0
C3541 C 0.95111 0.77934 0.22162 0.0
C3542 C 0.91063 0.75625 0.21132 0.0
C3543 C 0.89471 0.75106 0.21893 0.0
C3544 C 0.88137 0.76122 0.21753 0.0
C3545 C 0.8846 0.77713 0.20896 0.0
C3546 C 0.90051 0.78226 0.20117 0.0
H3547 H 0.96475 0.78744 0.22677 0.0
H3548 H 0.94157 0.7859 0.22919 0.0
H3549 H 0.95025 0.76531 0.22529 0.0
H3550 H 0.92023 0.74759 0.21186 0.0
H3551 H 0.89246 0.73855 0.22514 0.0
H3552 H 0.49581 0.27865 0.11528 0.0
H3553 H 0.49892 0.30602 0.09993 0.0
H3554 H 0.53579 0.33692 0.14743 0.0
H3555 H 0.53297 0.30933 0.16274 0.0
H3556 H 0.48965 0.33797 0.11229 0.0
H3557 H 0.56119 0.35239 0.10394 0.0
H3558 H 0.54985 0.33074 0.10962 0.0
H3559 H 0.55693 0.35061 0.1278 0.0
C3560 C 0.50497 0.29113 0.12227 0.0
C3561 C 0.51427 0.29169 0.14021 0.0
C3562 C 0.50661 0.30686 0.11352 0.0
C3563 C 0.5176 0.32365 0.12242 0.0
C3564 C 0.52746 0.32411 0.14003 0.0
H3565 H 0.53909 0.43423 0.09345 0.0
H3566 H 0.53166 0.40847 0.11101 0.0
C3567 C 0.52592 0.30826 0.14877 0.0
C3568 C 0.51795 0.3407 0.1136 0.0
H3569 H 0.54549 0.37539 0.09761 0.0
C3570 C 0.50188 0.3461 0.10904 0.0
C3571 C 0.53385 0.35141 0.10927 0.0
C3572 C 0.55141 0.34593 0.11272 0.0
C3573 C 0.50133 0.36187 0.10047 0.0
C3574 C 0.51725 0.37257 0.09631 0.0
C3575 C 0.53329 0.36727 0.10095 0.0
C3576 C 0.51775 0.38906 0.08666 0.0
C3577 C 0.48382 0.36716 0.09612 0.0
C3578 C 0.51168 0.38701 0.06728 0.0
C3579 C 0.51586 0.40181 0.05723 0.0
C3580 C 0.52608 0.41892 0.06642 0.0
C3581 C 0.53085 0.42134 0.0861 0.0
C3582 C 0.52677 0.40655 0.0961 0.0
H3583 H 0.4731 0.35914 0.10277 0.0
H3584 H 0.485 0.38209 0.10113 0.0
H3585 H 0.47997 0.3646 0.08058 0.0
H3586 H 0.5049 0.37361 0.05961 0.0
H3587 H 0.51246 0.3994 0.042 0.0
H3588 H 0.97466 0.29774 0.34945 0.0
H3589 H 0.94313 0.29568 0.34072 0.0
H3590 H 0.9506 0.2881 0.28175 0.0
H3591 H 0.98239 0.28965 0.29056 0.0
H3592 H 0.9244 0.31574 0.32147 0.0
H3593 H 0.91049 0.24416 0.28273 0.0
H3594 H 0.93114 0.25447 0.2975 0.0
H3595 H 0.92734 0.2599 0.27407 0.0
C3596 C 0.96969 0.29541 0.33461 0.0
C3597 C 0.9812 0.29346 0.32077 0.0
C3598 C 0.95152 0.29441 0.32959 0.0
C3599 C 0.94412 0.29126 0.31052 0.0
C3600 C 0.95571 0.29006 0.29659 0.0
H3601 H 0.83679 0.28822 0.2578 0.0
H3602 H 0.86864 0.29057 0.26524 0.0
C3603 C 0.974 0.2912 0.30164 0.0
C3604 C 0.92439 0.28926 0.30551 0.0
H3605 H 0.88668 0.25965 0.28196 0.0
C3606 C 0.91622 0.30343 0.31285 0.0
C3607 C 0.91343 0.27318 0.29435 0.0
C3608 C 0.92096 0.25696 0.28683 0.0
C3609 C 0.89773 0.30209 0.30917 0.0
C3610 C 0.88686 0.28609 0.29799 0.0
C3611 C 0.89494 0.27192 0.29058 0.0
C3612 C 0.86718 0.28413 0.29351 0.0
C3613 C 0.88982 0.31788 0.31707 0.0
C3614 C 0.85549 0.27955 0.30684 0.0
C3615 C 0.83706 0.27801 0.30255 0.0
C3616 C 0.8299 0.28127 0.28491 0.0
C3617 C 0.8417 0.28577 0.27161 0.0
C3618 C 0.86001 0.28706 0.27581 0.0
H3619 H 0.90012 0.33005 0.3241 0.0
H3620 H 0.88168 0.32207 0.30557 0.0
H3621 H 0.88091 0.31336 0.32754 0.0
H3622 H 0.86064 0.2772 0.32061 0.0
H3623 H 0.82848 0.27454 0.31316 0.0
H3624 H 0.01172 0.68916 0.66807 0.0
H3625 H 0.01673 0.66112 0.64896 0.0
H3626 H 0.00222 0.6816 0.59794 0.0
H3627 H 0.99668 0.70925 0.61688 0.0
H3628 H 0.98588 0.6373 0.61256 0.0
H3629 H 0.05506 0.6636 0.59892 0.0
H3630 H 0.04677 0.67229 0.62026 0.0
H3631 H 0.03934 0.67834 0.5981 0.0
C3632 C 0.00973 0.68774 0.65279 0.0
C3633 C 0.00372 0.70147 0.64405 0.0
C3634 C 0.01257 0.67168 0.64186 0.0
C3635 C 0.0099 0.66918 0.62194 0.0
C3636 C 0.00435 0.68311 0.61323 0.0
H3637 H 0.0329 0.58906 0.53204 0.0
H3638 H 0.02892 0.61635 0.55239 0.0
C3639 C 1.00115 0.69892 0.62411 0.0
C3640 C 0.01215 0.65182 0.61013 0.0
H3641 H 0.04109 0.63361 0.58405 0.0
C3642 C 0.99798 0.63641 0.60639 0.0
C3643 C 0.02777 0.65074 0.60174 0.0
C3644 C 0.04321 0.66704 0.60489 0.0
C3645 C 0.99884 0.62013 0.59431 0.0
C3646 C 0.0147 0.61873 0.5862 0.0
C3647 C 0.02891 0.63428 0.59011 0.0
C3648 C 0.01673 0.6016 0.57339 0.0
C3649 C 0.9823 0.60502 0.58978 0.0
C3650 C 0.01144 0.5838 0.57803 0.0
C3651 C 0.01281 0.56797 0.56573 0.0
C3652 C 0.02037 0.56932 0.54874 0.0
C3653 C 0.02644 0.58717 0.54454 0.0
C3654 C 0.02444 0.60297 0.55648 0.0
H3655 H 0.97019 0.61061 0.59136 0.0
H3656 H 0.98107 0.59754 0.57513 0.0
H3657 H 0.98267 0.59511 0.59986 0.0
H3658 H 0.00625 0.58202 0.59125 0.0
H3659 H 0.00797 0.55461 0.56969 0.0
H3660 H 0.58796 0.75756 0.81532 0.0
H3661 H 0.61791 0.75978 0.80713 0.0
H3662 H 0.62572 0.81899 0.81459 0.0
H3663 H 0.59559 0.81681 0.82367 0.0
H3664 H 0.63336 0.77007 0.77954 0.0
H3665 H 0.67115 0.81682 0.84289 0.0
H3666 H 0.64781 0.80703 0.84171 0.0
H3667 H 0.65525 0.82673 0.83045 0.0
C3668 C 0.596 0.77117 0.81544 0.0
C3669 C 0.58912 0.787 0.82038 0.0
C3670 C 0.61332 0.77241 0.81063 0.0
C3671 C 0.62462 0.78955 0.81037 0.0
C3672 C 0.61776 0.80552 0.81513 0.0
H3673 H 0.73452 0.81366 0.77899 0.0
H3674 H 0.70483 0.81593 0.78694 0.0
C3675 C 0.60036 0.80427 0.82024 0.0
C3676 C 0.64313 0.79021 0.80457 0.0
H3677 H 0.68756 0.8087 0.81811 0.0
C3678 C 0.64514 0.77854 0.78811 0.0
C3679 C 0.65886 0.80125 0.81542 0.0
C3680 C 0.65824 0.81354 0.83369 0.0
C3681 C 0.66195 0.77752 0.78239 0.0
C3682 C 0.67765 0.78832 0.79339 0.0
C3683 C 0.67571 0.80033 0.80958 0.0
C3684 C 0.69606 0.78698 0.78856 0.0
C3685 C 0.66269 0.76495 0.76433 0.0
C3686 C 0.70153 0.77006 0.78704 0.0
C3687 C 0.7186 0.76874 0.78255 0.0
C3688 C 0.73091 0.78427 0.77931 0.0
C3689 C 0.72552 0.80129 0.78112 0.0
C3690 C 0.70844 0.80262 0.78575 0.0
H3691 H 0.65 0.762 0.7548 0.0
H3692 H 0.67356 0.77103 0.75659 0.0
H3693 H 0.66512 0.75162 0.76783 0.0
H3694 H 0.69265 0.75779 0.78961 0.0
H3695 H 0.72219 0.75549 0.78191 0.0
H3696 H 0.47971 0.52754 0.71202 0.0
H3697 H 0.4872 0.52725 0.67974 0.0
H3698 H 0.43196 0.50819 0.65785 0.0
H3699 H 0.42425 0.50838 0.69023 0.0
H3700 H 0.47627 0.49442 0.64745 0.0
H3701 H 0.45168 0.55732 0.63527 0.0
H3702 H 0.45738 0.55275 0.65885 0.0
H3703 H 0.43762 0.53942 0.64465 0.0
C3704 C 0.46911 0.52321 0.70038 0.0
C3705 C 0.45136 0.51805 0.70372 0.0
C3706 C 0.47344 0.52306 0.68194 0.0
C3707 C 0.46011 0.51788 0.66648 0.0
C3708 C 0.4424 0.51241 0.66966 0.0
H3709 H 0.47614 0.53176 0.54927 0.0
H3710 H 0.46257 0.52802 0.57834 0.0
C3711 C 0.43804 0.51246 0.68814 0.0
C3712 C 0.46496 0.51832 0.64709 0.0
H3713 H 0.46628 0.5442 0.61154 0.0
C3714 C 0.47397 0.50518 0.63946 0.0
C3715 C 0.46162 0.53217 0.63665 0.0
C3716 C 0.4516 0.54632 0.64418 0.0
C3717 C 0.47999 0.50562 0.62168 0.0
C3718 C 0.47778 0.52029 0.61168 0.0
C3719 C 0.4682 0.53308 0.61915 0.0
C3720 C 0.48595 0.52304 0.594 0.0
C3721 C 0.48831 0.49008 0.61382 0.0
C3722 C 0.50372 0.52204 0.59311 0.0
C3723 C 0.51112 0.52313 0.57628 0.0
C3724 C 0.50148 0.52677 0.56017 0.0
C3725 C 0.48403 0.52908 0.5614 0.0
C3726 C 0.47626 0.52695 0.57806 0.0
H3727 H 0.48258 0.47709 0.61891 0.0
H3728 H 0.48645 0.4875 0.59812 0.0
H3729 H 0.50271 0.49353 0.61894 0.0
H3730 H 0.51186 0.51997 0.60534 0.0
H3731 H 0.52431 0.52055 0.57592 0.0
H3732 H 0.75645 0.17573 0.00684 0.0
H3733 H 0.75097 0.19168 0.97971 0.0
H3734 H 0.7845 0.16231 0.94862 0.0
H3735 H 0.79039 0.14697 0.97567 0.0
H3736 H 0.78423 0.21251 0.96492 0.0
H3737 H 0.73756 0.16013 0.91133 0.0
H3738 H 0.73792 0.16002 0.9365 0.0
H3739 H 0.75475 0.1521 0.9242 0.0
C3740 C 0.76249 0.17275 0.9941 0.0
C3741 C 0.77414 0.16066 0.99317 0.0
C3742 C 0.75927 0.18164 0.97871 0.0
C3743 C 0.7673 0.17794 0.96234 0.0
C3744 C 0.77815 0.16511 0.96117 0.0
H3745 H 0.76921 0.21494 0.85505 0.0
H3746 H 0.78035 0.20282 0.88273 0.0
C3747 C 0.78165 0.1566 0.97659 0.0
C3748 C 0.76668 0.18917 0.94736 0.0
H3749 H 0.75312 0.18651 0.9006 0.0
C3750 C 0.7773 0.207 0.95086 0.0
C3751 C 0.75794 0.18155 0.92912 0.0
C3752 C 0.74629 0.16243 0.92498 0.0
C3753 C 0.77966 0.21749 0.93631 0.0
C3754 C 0.77083 0.20997 0.91803 0.0
C3755 C 0.76015 0.19208 0.9146 0.0
C3756 C 0.77021 0.22112 0.90284 0.0
C3757 C 0.79173 0.23637 0.94057 0.0
C3758 C 0.76184 0.23604 0.9053 0.0
C3759 C 0.75547 0.24284 0.88963 0.0
C3760 C 0.75747 0.23478 0.87144 0.0
C3761 C 0.76764 0.22132 0.86908 0.0
C3762 C 0.77396 0.21443 0.8848 0.0
H3763 H 0.80201 0.23733 0.95272 0.0
H3764 H 0.79839 0.23985 0.92811 0.0
H3765 H 0.78379 0.24678 0.94442 0.0
H3766 H 0.75858 0.24116 0.91907 0.0
H3767 H 0.74766 0.25327 0.89158 0.0
H3768 H 0.15056 0.54868 0.19194 0.0
H3769 H 0.13356 0.55717 0.1656 0.0
H3770 H 0.10514 0.50066 0.14962 0.0
H3771 H 0.1219 0.49192 0.1762 0.0
H3772 H 0.12701 0.53882 0.12361 0.0
H3773 H 0.06835 0.53525 0.16325 0.0
H3774 H 0.09077 0.53916 0.17491 0.0
H3775 H 0.07958 0.51647 0.16345 0.0
C3776 C 0.141 0.53793 0.18257 0.0
C3777 C 0.13737 0.51961 0.1861 0.0
C3778 C 0.13131 0.54287 0.16766 0.0
C3779 C 0.11809 0.52953 0.15616 0.0
C3780 C 0.11525 0.51105 0.15876 0.0
H3781 H 0.05184 0.50235 0.05901 0.0
H3782 H 0.07352 0.5083 0.08715 0.0
C3783 C 0.12483 0.50609 0.17377 0.0
C3784 C 0.10658 0.53495 0.14191 0.0
H3785 H 0.06338 0.5359 0.13018 0.0
C3786 C 0.1132 0.53868 0.1251 0.0
C3787 C 0.08873 0.53488 0.14431 0.0
C3788 C 0.08139 0.53137 0.16251 0.0
C3789 C 0.10184 0.54084 0.1098 0.0
C3790 C 0.08373 0.5394 0.11177 0.0
C3791 C 0.0774 0.53715 0.12905 0.0
C3792 C 0.07074 0.53639 0.09523 0.0
C3793 C 0.10888 0.54336 0.09126 0.0
C3794 C 0.06182 0.55015 0.09123 0.0
C3795 C 0.0493 0.54672 0.07531 0.0
C3796 C 0.04589 0.52959 0.06355 0.0
C3797 C 0.05451 0.51571 0.06795 0.0
C3798 C 0.06686 0.51909 0.08382 0.0
H3799 H 0.12355 0.54793 0.0931 0.0
H3800 H 0.10517 0.53006 0.08143 0.0
H3801 H 0.10292 0.5536 0.08464 0.0
H3802 H 0.06475 0.56348 0.1002 0.0
H3803 H 0.04279 0.55757 0.07182 0.0
H3804 H 0.80659 0.82994 0.48127 0.0
H3805 H 0.80159 0.8171 0.44765 0.0
H3806 H 0.76147 0.84845 0.43884 0.0
H3807 H 0.76652 0.86159 0.47257 0.0
H3808 H 0.77139 0.79675 0.42378 0.0
H3809 H 0.79556 0.86426 0.4009 0.0
H3810 H 0.79887 0.86095 0.42527 0.0
H3811 H 0.77758 0.86329 0.41503 0.0
C3812 C 0.79658 0.83405 0.47228 0.0
C3813 C 0.78706 0.84695 0.47974 0.0
C3814 C 0.79373 0.82666 0.45299 0.0
C3815 C 0.7814 0.83203 0.44055 0.0
C3816 C 0.77133 0.84434 0.44803 0.0
H3817 H 0.76272 0.80945 0.31643 0.0
H3818 H 0.76137 0.82001 0.34983 0.0
C3819 C 0.77413 0.85173 0.4674 0.0
C3820 C 0.77951 0.82499 0.4198 0.0
H3821 H 0.78605 0.83846 0.37694 0.0
C3822 C 0.77454 0.80588 0.41353 0.0
C3823 C 0.78351 0.83686 0.40633 0.0
C3824 C 0.78932 0.85747 0.41215 0.0
C3825 C 0.77348 0.79834 0.39428 0.0
C3826 C 0.77804 0.81016 0.38086 0.0
C3827 C 0.78265 0.82931 0.38711 0.0
C3828 C 0.77837 0.80303 0.36038 0.0
C3829 C 0.76713 0.77777 0.38853 0.0
C3830 C 0.78836 0.78989 0.35492 0.0
C3831 C 0.78888 0.78352 0.33573 0.0
C3832 C 0.77992 0.79057 0.32145 0.0
C3833 C 0.76997 0.80378 0.32695 0.0
C3834 C 0.76919 0.80989 0.34613 0.0
H3835 H 0.75879 0.77169 0.39879 0.0
H3836 H 0.75936 0.77429 0.37427 0.0
H3837 H 0.77877 0.77125 0.38825 0.0
H3838 H 0.79598 0.78466 0.3655 0.0
H3839 H 0.79645 0.77319 0.33218 0.0
H3840 H 0.4238 0.50427 0.81774 0.0
H3841 H 0.43605 0.50412 0.85039 0.0
H3842 H 0.48898 0.51982 0.83564 0.0
H3843 H 0.47675 0.51979 0.80284 0.0
H3844 H 0.46349 0.48362 0.86374 0.0
H3845 H 0.48234 0.56016 0.88146 0.0
H3846 H 0.46587 0.54834 0.86193 0.0
H3847 H 0.48896 0.54991 0.85986 0.0
C3848 C 0.43804 0.50758 0.82146 0.0
C3849 C 0.44937 0.51211 0.8079 0.0
C3850 C 0.445 0.50745 0.84005 0.0
C3851 C 0.46337 0.51218 0.84538 0.0
C3852 C 0.47475 0.51625 0.83174 0.0
H3853 H 0.52894 0.51735 0.9517 0.0
H3854 H 0.5178 0.51561 0.91818 0.0
C3855 C 0.46779 0.51607 0.81305 0.0
C3856 C 0.4706 0.51309 0.86531 0.0
H3857 H 0.49071 0.54321 0.90494 0.0
C3858 C 0.4695 0.49661 0.87275 0.0
C3859 C 0.47817 0.53012 0.877 0.0
C3860 C 0.47885 0.5482 0.8698 0.0
C3861 C 0.4761 0.49673 0.89162 0.0
C3862 C 0.48389 0.51372 0.9032 0.0
C3863 C 0.48488 0.53021 0.89584 0.0
C3864 C 0.4906 0.51459 0.92323 0.0
C3865 C 0.47471 0.47878 0.8992 0.0
C3866 C 0.47891 0.51456 0.93695 0.0
C3867 C 0.48524 0.51578 0.95599 0.0
C3868 C 0.50331 0.51684 0.96154 0.0
C3869 C 0.51495 0.51648 0.94772 0.0
C3870 C 0.50864 0.51555 0.92867 0.0
H3871 H 0.46963 0.46663 0.88797 0.0
H3872 H 0.48789 0.47779 0.90594 0.0
H3873 H 0.46564 0.47836 0.91028 0.0
H3874 H 0.46493 0.5137 0.93291 0.0
H3875 H 0.47596 0.5158 0.96637 0.0
H3876 H 0.75937 0.13437 0.08996 0.0
H3877 H 0.75263 0.14972 0.11992 0.0
H3878 H 0.78011 0.20209 0.10807 0.0
H3879 H 0.78736 0.18682 0.07836 0.0
H3880 H 0.78996 0.17779 0.14406 0.0
H3881 H 0.72726 0.20243 0.13285 0.0
H3882 H 0.73078 0.18163 0.11913 0.0
H3883 H 0.74198 0.20375 0.11488 0.0
C3884 C 0.76368 0.14921 0.09363 0.0
C3885 C 0.7742 0.1595 0.08225 0.0
C3886 C 0.75969 0.15788 0.11056 0.0
C3887 C 0.76582 0.1769 0.11586 0.0
C3888 C 0.77523 0.18736 0.1039 0.0
H3889 H 0.76545 0.26392 0.20214 0.0
H3890 H 0.76509 0.24275 0.17348 0.0
C3891 C 0.77954 0.17866 0.08718 0.0
C3892 C 0.76562 0.18546 0.13522 0.0
H3893 H 0.74544 0.214 0.16178 0.0
C3894 C 0.78026 0.18571 0.1482 0.0
C3895 C 0.75285 0.19554 0.14008 0.0
C3896 C 0.73723 0.19586 0.12608 0.0
C3897 C 0.78344 0.19728 0.16565 0.0
C3898 C 0.77084 0.20794 0.17053 0.0
C3899 C 0.75534 0.20626 0.15796 0.0
C3900 C 0.77368 0.22177 0.18787 0.0
C3901 C 0.80083 0.19868 0.17773 0.0
C3902 C 0.77955 0.21766 0.20548 0.0
C3903 C 0.78193 0.23083 0.22158 0.0
C3904 C 0.77652 0.24756 0.2208 0.0
C3905 C 0.77016 0.25148 0.2033 0.0
C3906 C 0.76949 0.23905 0.1869 0.0
H3907 H 0.81094 0.19439 0.16915 0.0
H3908 H 0.80633 0.21294 0.18517 0.0
H3909 H 0.79875 0.18923 0.1883 0.0
H3910 H 0.78204 0.20422 0.20698 0.0
H3911 H 0.78705 0.22738 0.23481 0.0
H3912 H 0.10731 0.53519 0.27159 0.0
H3913 H 0.09259 0.53649 0.3003 0.0
H3914 H 0.1436 0.54968 0.33448 0.0
H3915 H 0.15826 0.54883 0.30599 0.0
H3916 H 0.09827 0.51053 0.32399 0.0
H3917 H 0.1153 0.58205 0.36309 0.0
H3918 H 0.11689 0.57677 0.33812 0.0
H3919 H 0.13423 0.57422 0.35534 0.0
C3920 C 0.11533 0.53905 0.28527 0.0
C3921 C 0.13381 0.54131 0.28682 0.0
C3922 C 0.10694 0.53969 0.30155 0.0
C3923 C 0.11709 0.54293 0.31931 0.0
C3924 C 0.13562 0.54718 0.32081 0.0
H3925 H 0.10175 0.54356 0.4321 0.0
H3926 H 0.11175 0.52893 0.40367 0.0
C3927 C 0.14396 0.54646 0.30459 0.0
C3928 C 0.10861 0.53912 0.33604 0.0
H3929 H 0.10569 0.55818 0.38084 0.0
C3930 C 0.09967 0.52093 0.33643 0.0
C3931 C 0.11078 0.55273 0.35211 0.0
C3932 C 0.11968 0.57257 0.35212 0.0
C3933 C 0.09293 0.51597 0.35282 0.0
C3934 C 0.09541 0.52956 0.36894 0.0
C3935 C 0.10429 0.54771 0.36846 0.0
C3936 C 0.08704 0.52657 0.38593 0.0
C3937 C 0.08332 0.49644 0.35291 0.0
C3938 C 0.06937 0.52832 0.38552 0.0
C3939 C 0.06382 0.53695 0.40157 0.0
C3940 C 0.07589 0.54348 0.41797 0.0
C3941 C 0.09253 0.53895 0.41926 0.0
C3942 C 0.09806 0.53024 0.40323 0.0
H3943 H 0.08538 0.48687 0.34049 0.0
H3944 H 0.08782 0.49158 0.36608 0.0
H3945 H 0.0689 0.49596 0.3526 0.0
H3946 H 0.06076 0.52561 0.37223 0.0
H3947 H 0.05074 0.54006 0.40064 0.0
H3948 H 0.75543 0.84722 0.57421 0.0
H3949 H 0.74943 0.83556 0.60393 0.0
H3950 H 0.80403 0.83182 0.61476 0.0
H3951 H 0.81009 0.84298 0.58532 0.0
H3952 H 0.76177 0.79923 0.61844 0.0
H3953 H 0.78859 0.8688 0.66089 0.0
H3954 H 0.77939 0.86566 0.63632 0.0
H3955 H 0.8009 0.86119 0.64244 0.0
C3956 C 0.76607 0.84362 0.58277 0.0
C3957 C 0.78322 0.84601 0.57722 0.0
C3958 C 0.76263 0.837 0.59975 0.0
C3959 C 0.77633 0.83293 0.61157 0.0
C3960 C 0.79327 0.83485 0.60584 0.0
H3961 H 0.7989 0.79183 0.71394 0.0
H3962 H 0.79686 0.8011 0.68256 0.0
C3963 C 0.79666 0.84119 0.58888 0.0
C3964 C 0.77344 0.82746 0.63034 0.0
H3965 H 0.78307 0.84367 0.67779 0.0
C3966 C 0.76613 0.80898 0.63142 0.0
C3967 C 0.77935 0.84017 0.64725 0.0
C3968 C 0.78743 0.86012 0.64683 0.0
C3969 C 0.76503 0.80283 0.64904 0.0
C3970 C 0.77124 0.8155 0.66591 0.0
C3971 C 0.77815 0.83404 0.66482 0.0
C3972 C 0.77197 0.80953 0.68478 0.0
C3973 C 0.75768 0.78276 0.64962 0.0
C3974 C 0.75875 0.81147 0.69657 0.0
C3975 C 0.76003 0.80644 0.7147 0.0
C3976 C 0.77448 0.79928 0.72117 0.0
C3977 C 0.78761 0.7973 0.70927 0.0
C3978 C 0.78644 0.80251 0.69134 0.0
H3979 H 0.75244 0.77482 0.63533 0.0
H3980 H 0.76826 0.77658 0.65591 0.0
H3981 H 0.7469 0.78142 0.65881 0.0
H3982 H 0.74746 0.81683 0.69171 0.0
H3983 H 0.7496 0.80775 0.72348 0.0
H3984 H 0.75425 0.48099 0.50864 0.0
H3985 H 0.72651 0.48966 0.49899 0.0
H3986 H 0.70107 0.4323 0.48206 0.0
H3987 H 0.72877 0.42339 0.49172 0.0
H3988 H 0.69576 0.47803 0.46476 0.0
H3989 H 0.68558 0.45619 0.53484 0.0
H3990 H 0.70718 0.4616 0.52714 0.0
H3991 H 0.69227 0.44011 0.5175 0.0
C3992 C 0.74282 0.47024 0.50257 0.0
C3993 C 0.74335 0.45153 0.50147 0.0
C3994 C 0.72717 0.47523 0.4967 0.0
C3995 C 0.71199 0.46155 0.48983 0.0
C3996 C 0.71287 0.44294 0.48716 0.0
H3997 H 0.61048 0.47581 0.51644 0.0
H3998 H 0.63008 0.46266 0.49621 0.0
C3999 C 0.72854 0.43791 0.49298 0.0
C4000 C 0.69483 0.46642 0.49054 0.0
H4001 H 0.66342 0.46812 0.52016 0.0
C4002 C 0.68838 0.4756 0.47659 0.0
C4003 C 0.68578 0.46355 0.50637 0.0
C4004 C 0.69304 0.45496 0.52243 0.0
C4005 C 0.67285 0.48222 0.47826 0.0
C4006 C 0.66387 0.47933 0.49411 0.0
C4007 C 0.67019 0.46977 0.50775 0.0
C4008 C 0.64946 0.48829 0.49889 0.0
C4009 C 0.66639 0.49264 0.46352 0.0
C4010 C 0.6538 0.5071 0.50647 0.0
C4011 C 0.6429 0.51444 0.51831 0.0
C4012 C 0.62766 0.50299 0.52245 0.0
C4013 C 0.62243 0.48465 0.51346 0.0
C4014 C 0.63335 0.47729 0.50169 0.0
H4015 H 0.67254 0.49032 0.45029 0.0
H4016 H 0.65175 0.4885 0.46018 0.0
H4017 H 0.66987 0.50761 0.46915 0.0
H4018 H 0.6664 0.51563 0.50477 0.0
H4019 H 0.6468 0.52873 0.525 0.0
H4020 H 0.20175 0.15179 0.50541 0.0
H4021 H 0.1708 0.1378 0.50803 0.0
H4022 H 0.18024 0.084 0.48869 0.0
H4023 H 0.21101 0.09771 0.48602 0.0
H4024 H 0.14436 0.11367 0.47792 0.0
H4025 H 0.15907 0.07976 0.53975 0.0
H4026 H 0.17463 0.09869 0.53349 0.0
H4027 H 0.17191 0.07581 0.52064 0.0
C4028 C 0.19722 0.13698 0.50171 0.0
C4029 C 0.20888 0.12586 0.49557 0.0
C4030 C 0.17956 0.12904 0.5032 0.0
C4031 C 0.17334 0.10987 0.49877 0.0
C4032 C 0.18487 0.0988 0.49244 0.0
H4033 H 0.07991 0.02772 0.50183 0.0
H4034 H 0.10896 0.04543 0.49858 0.0
C4035 C 0.20245 0.10669 0.49086 0.0
C4036 C 0.15477 0.10124 0.50049 0.0
H4037 H 0.12992 0.07058 0.52357 0.0
C4038 C 0.1411 0.10435 0.48798 0.0
C4039 C 0.15066 0.08912 0.51363 0.0
C4040 C 0.1648 0.08571 0.52777 0.0
C4041 C 0.12344 0.09498 0.48766 0.0
C4042 C 0.11933 0.08254 0.50061 0.0
C4043 C 0.13303 0.07994 0.51351 0.0
C4044 C 0.1011 0.0717 0.5009 0.0
C4045 C 0.10957 0.09796 0.47294 0.0
C4046 C 0.08679 0.08038 0.50291 0.0
C4047 C 0.06994 0.07006 0.50425 0.0
C4048 C 0.06715 0.05091 0.50445 0.0
C4049 C 0.08146 0.04231 0.5021 0.0
C4050 C 0.09818 0.05251 0.50024 0.0
H4051 H 0.11559 0.10322 0.46078 0.0
H4052 H 0.09961 0.08503 0.46751 0.0
H4053 H 0.10264 0.10841 0.47936 0.0
H4054 H 0.08869 0.09519 0.50396 0.0
H4055 H 0.0593 0.07732 0.50595 0.0
H4056 H 0.16236 0.98688 0.81123 0.0
H4057 H 0.17674 0.96093 0.80607 0.0
H4058 H 0.18408 0.97157 0.74958 0.0
H4059 H 0.16924 0.99777 0.75455 0.0
H4060 H 0.16658 0.92885 0.77332 0.0
H4061 H 0.23501 0.97183 0.78138 0.0
H4062 H 0.21685 0.98029 0.79082 0.0
H4063 H 0.21825 0.97797 0.76589 0.0
C4064 C 0.16711 0.98383 0.7977 0.0
C4065 C 0.16498 0.99456 0.78337 0.0
C4066 C 0.17521 0.96892 0.79478 0.0
C4067 C 0.18158 0.96454 0.77758 0.0
C4068 C 0.17929 0.97494 0.76302 0.0
H4069 H 0.2361 0.88502 0.73112 0.0
H4070 H 0.22507 0.91268 0.74149 0.0
C4071 C 0.17085 0.98982 0.76584 0.0
C4072 C 0.19081 0.94916 0.7752 0.0
H4073 H 0.23187 0.93957 0.77392 0.0
C4074 C 0.18085 0.93111 0.77342 0.0
C4075 C 0.20942 0.95235 0.77583 0.0
C4076 C 0.22063 0.97164 0.77871 0.0
C4077 C 0.189 0.91598 0.77141 0.0
C4078 C 0.20762 0.91912 0.77155 0.0
C4079 C 0.21761 0.93724 0.77386 0.0
C4080 C 0.21665 0.90373 0.76721 0.0
C4081 C 0.17754 0.89677 0.7685 0.0
C4082 C 0.2163 0.88998 0.77872 0.0
C4083 C 0.22267 0.87421 0.77283 0.0
C4084 C 0.22938 0.8721 0.75538 0.0
C4085 C 0.23076 0.88637 0.74452 0.0
C4086 C 0.22454 0.90213 0.75046 0.0
H4087 H 0.16328 0.89673 0.76503 0.0
H4088 H 0.18163 0.8877 0.75696 0.0
H4089 H 0.17908 0.89078 0.78169 0.0
H4090 H 0.21053 0.89115 0.79187 0.0
H4091 H 0.22159 0.86331 0.7814 0.0
H4092 H 0.3275 0.96945 0.97654 0.0
H4093 H 0.35783 0.9798 0.96894 0.0
H4094 H 0.37791 0.95282 0.01296 0.0
H4095 H 0.34866 0.94415 0.0217 0.0
H4096 H 0.38046 1.00068 0.00522 0.0
H4097 H 0.40946 0.94549 0.96896 0.0
H4098 H 0.38634 0.94644 0.96407 0.0
H4099 H 0.39403 0.9382 0.98498 0.0
C4100 C 0.33845 0.96565 0.98438 0.0
C4101 C 0.33582 0.95593 -0.0004 0.0
C4102 C 0.35554 0.97111 0.97971 0.0
C4103 C 0.36974 0.96636 0.98995 0.0
C4104 C 0.3669 0.95582 0.00439 0.0
H4105 H 0.47876 0.98796 0.02611 0.0
H4106 H 0.44677 0.97665 0.02378 0.0
C4107 C 0.35016 0.95105 0.00948 0.0
C4108 C 0.38766 0.97674 0.99053 0.0
H4109 H 0.42929 0.96907 0.99154 0.0
C4110 C 0.3913 0.99414 0.00177 0.0
C4111 C 0.40136 0.96756 0.98664 0.0
C4112 C 0.39763 0.9484 0.97538 0.0
C4113 C 0.40822 0.00184 0.01101 0.0
C4114 C 0.42205 0.99271 0.00719 0.0
C4115 C 0.41858 0.97591 0.9947 0.0
C4116 C 0.44047 1.00118 0.01443 0.0
C4117 C 0.41066 0.01888 0.02574 0.0
C4118 C 0.44725 0.01914 0.01145 0.0
C4119 C 0.46527 0.026 0.01408 0.0
C4120 C 0.47676 0.01446 0.01828 0.0
C4121 C 0.4701 0.99708 0.02292 0.0
C4122 C 0.45188 0.99055 0.0213 0.0
H4123 H 0.39859 0.01885 0.03294 0.0
H4124 H 0.42207 0.02003 0.03669 0.0
H4125 H 0.41279 0.03129 0.01871 0.0
H4126 H 0.43881 0.02738 0.00556 0.0
H4127 H 0.47014 0.03962 0.01069 0.0
H4128 H 0.8261 0.55105 0.81887 0.0
H4129 H 0.81619 0.57901 0.81376 0.0
H4130 H 0.83053 0.57269 0.75702 0.0
H4131 H 0.83975 0.54445 0.76167 0.0
H4132 H 0.84343 0.60676 0.80818 0.0
H4133 H 0.78802 0.59471 0.75029 0.0
H4134 H 0.79318 0.57634 0.76215 0.0
H4135 H 0.80556 0.58382 0.74359 0.0
C4136 C 0.82617 0.555 0.80494 0.0
C4137 C 0.83438 0.54609 0.79091 0.0
C4138 C 0.82067 0.57108 0.80213 0.0
C4139 C 0.82301 0.57798 0.7852 0.0
C4140 C 0.82854 0.56749 0.77016 0.0
H4141 H 0.83727 0.67532 0.74089 0.0
H4142 H 0.84719 0.65269 0.75843 0.0
C4143 C 0.83385 0.55134 0.77288 0.0
C4144 C 0.82292 0.59735 0.78437 0.0
H4145 H 0.80655 0.62519 0.75717 0.0
C4146 C 0.83512 0.61088 0.79728 0.0
C4147 C 0.81234 0.60247 0.76989 0.0
C4148 C 0.79894 0.58854 0.75581 0.0
C4149 C 0.83718 0.62958 0.79579 0.0
C4150 C 0.82679 0.63453 0.78112 0.0
C4151 C 0.81449 0.62108 0.76841 0.0
C4152 C 0.82792 0.65356 0.77823 0.0
C4153 C 0.85047 0.64391 0.80952 0.0
C4154 C 0.81476 0.66231 0.78462 0.0
C4155 C 0.80889 0.67492 0.77449 0.0
C4156 C 0.81627 0.67882 0.75798 0.0
C4157 C 0.8312 0.67211 0.75335 0.0
C4158 C 0.83707 0.65951 0.76353 0.0
H4159 H 0.85808 0.63767 0.81977 0.0
H4160 H 0.85987 0.65223 0.80165 0.0
H4161 H 0.84348 0.65347 0.81744 0.0
H4162 H 0.80746 0.65759 0.7958 0.0
H4163 H 0.79736 0.67997 0.77835 0.0
H4164 H 0.78906 0.60813 0.00437 0.0
H4165 H 0.81504 0.59402 0.00511 0.0
H4166 H 0.84949 0.64792 0.0131 0.0
H4167 H 0.82368 0.66208 0.01217 0.0
H4168 H 0.84517 0.60178 0.97934 0.0
H4169 H 0.86487 0.61877 0.05726 0.0
H4170 H 0.84249 0.61718 0.04658 0.0
H4171 H 0.85946 0.63693 0.04535 0.0
C4172 C 0.80219 0.61697 0.00659 0.0
C4173 C 0.80437 0.63621 0.0083 0.0
C4174 C 0.81696 0.60889 0.00679 0.0
C4175 C 0.83409 0.61997 0.00905 0.0
C4176 C 0.83633 0.63919 0.01126 0.0
H4177 H 0.93797 0.59783 0.03062 0.0
H4178 H 0.91426 0.61247 0.01947 0.0
C4179 C 0.82158 0.64724 0.01078 0.0
C4180 C 0.84972 0.61152 0.00936 0.0
H4181 H 0.88409 0.60539 0.03912 0.0
C4182 C 0.85371 0.6025 0.99237 0.0
C4183 C 0.86077 0.61262 0.02638 0.0
C4184 C 0.85672 0.62178 0.045 0.0
C4185 C 0.8687 0.59461 0.99202 0.0
C4186 C 0.87972 0.59569 0.00909 0.0
C4187 C 0.87568 0.60476 0.02601 0.0
C4188 C 0.89509 0.5868 0.01027 0.0
C4189 C 0.87282 0.58543 0.97345 0.0
C4190 C 0.89238 0.5675 0.00792 0.0
C4191 C 0.90595 0.55915 0.01422 0.0
C4192 C 0.92231 0.57004 0.02289 0.0
C4193 C 0.92549 0.58923 0.02372 0.0
C4194 C 0.91196 0.59756 0.01743 0.0
H4195 H 0.86528 0.58913 0.96117 0.0
H4196 H 0.88721 0.58934 0.97229 0.0
H4197 H 0.86923 0.57025 0.97274 0.0
H4198 H 0.87937 0.55898 0.00275 0.0
H4199 H 0.90319 0.54434 0.01379 0.0
H4200 H 0.14329 0.0971 0.78399 0.0
H4201 H 0.16073 0.12683 0.77872 0.0
H4202 H 0.20868 0.10645 0.78617 0.0
H4203 H 0.19137 0.07697 0.79206 0.0
H4204 H 0.19737 0.14721 0.80967 0.0
H4205 H 0.20168 0.13237 0.73239 0.0
H4206 H 0.18288 0.12127 0.74282 0.0
H4207 H 0.20381 0.11494 0.74694 0.0
C4208 C 0.15753 0.09896 0.7843 0.0
C4209 C 0.16606 0.08486 0.78848 0.0
C4210 C 0.16745 0.11589 0.78131 0.0
C4211 C 0.18595 0.11874 0.78198 0.0
C4212 C 0.19441 0.10447 0.78559 0.0
H4213 H 0.26638 0.20801 0.75729 0.0
H4214 H 0.24848 0.17838 0.76119 0.0
C4215 C 0.18455 0.08771 0.789 0.0
C4216 C 0.19663 0.137 0.78014 0.0
H4217 H 0.2172 0.16136 0.74867 0.0
C4218 C 0.2017 0.15041 0.79635 0.0
C4219 C 0.20239 0.14092 0.76281 0.0
C4220 C 0.19744 0.12671 0.74514 0.0
C4221 C 0.21269 0.16763 0.79582 0.0
C4222 C 0.21825 0.17183 0.77834 0.0
C4223 C 0.21301 0.1583 0.76207 0.0
C4224 C 0.22955 0.19002 0.7766 0.0
C4225 C 0.21867 0.18075 0.81421 0.0
C4226 C 0.22498 0.2066 0.7838 0.0
C4227 C 0.23574 0.22359 0.78247 0.0
C4228 C 0.251 0.22453 0.77312 0.0
C4229 C 0.25518 0.20793 0.76521 0.0
C4230 C 0.24472 0.1909 0.76716 0.0
H4231 H 0.2185 0.17325 0.82652 0.0
H4232 H 0.23226 0.18907 0.81447 0.0
H4233 H 0.20941 0.1902 0.81605 0.0
H4234 H 0.21296 0.20647 0.79035 0.0
H4235 H 0.23181 0.23601 0.78841 0.0
H4236 H 0.37461 0.96719 0.27223 0.0
H4237 H 0.36092 0.93498 0.2598 0.0
H4238 H 0.32068 0.93683 0.29716 0.0
H4239 H 0.33438 0.96905 0.30989 0.0
H4240 H 0.35614 0.90906 0.28875 0.0
H4241 H 0.29525 0.90981 0.24172 0.0
H4242 H 0.31438 0.92878 0.24625 0.0
H4243 H 0.29947 0.92551 0.26375 0.0
C4244 C 0.36269 0.9608 0.27759 0.0
C4245 C 0.35558 0.97041 0.29212 0.0
C4246 C 0.3549 0.94254 0.27041 0.0
C4247 C 0.33978 0.9339 0.27747 0.0
C4248 C 0.33225 0.94359 0.29146 0.0
H4249 H 0.27569 0.83224 0.28465 0.0
H4250 H 0.29038 0.86419 0.28483 0.0
C4251 C 0.34018 0.96179 0.29885 0.0
C4252 C 0.33337 0.91408 0.27244 0.0
H4253 H 0.297 0.88149 0.25253 0.0
C4254 C 0.34339 0.90286 0.2805 0.0
C4255 C 0.31673 0.90645 0.26182 0.0
C4256 C 0.30583 0.91822 0.25274 0.0
C4257 C 0.3366 0.884 0.27916 0.0
C4258 C 0.31965 0.87643 0.26908 0.0
C4259 C 0.31002 0.88755 0.26024 0.0
C4260 C 0.31102 0.85726 0.26874 0.0
C4261 C 0.34707 0.87258 0.28949 0.0
C4262 C 0.31792 0.84309 0.25956 0.0
C4263 C 0.30976 0.82488 0.25967 0.0
C4264 C 0.29443 0.82073 0.26859 0.0
C4265 C 0.28738 0.83504 0.27747 0.0
C4266 C 0.29572 0.85324 0.27762 0.0
H4267 H 0.35864 0.88125 0.29909 0.0
H4268 H 0.3385 0.86403 0.29794 0.0
H4269 H 0.35205 0.86314 0.27906 0.0
H4270 H 0.32966 0.84612 0.2525 0.0
H4271 H 0.31568 0.81412 0.25312 0.0
H4272 H 0.52475 0.32209 0.54736 0.0
H4273 H 0.52374 0.35114 0.53598 0.0
H4274 H 0.56317 0.38013 0.58209 0.0
H4275 H 0.5645 0.35088 0.59332 0.0
H4276 H 0.51269 0.3795 0.55273 0.0
H4277 H 0.58193 0.4056 0.5405 0.0
H4278 H 0.574 0.38219 0.54417 0.0
H4279 H 0.58019 0.40058 0.56403 0.0
C4280 C 0.53366 0.33455 0.55481 0.0
C4281 C 0.5449 0.33391 0.5712 0.0
C4282 C 0.53293 0.3513 0.54833 0.0
C4283 C 0.54338 0.36813 0.55799 0.0
C4284 C 0.55518 0.36749 0.57398 0.0
H4285 H 0.54549 0.48437 0.54948 0.0
H4286 H 0.54944 0.45506 0.55858 0.0
C4287 C 0.55601 0.35062 0.58041 0.0
C4288 C 0.54091 0.38618 0.552 0.0
H4289 H 0.56282 0.42676 0.54008 0.0
C4290 C 0.5237 0.38972 0.54985 0.0
C4291 C 0.55513 0.39982 0.54821 0.0
C4292 C 0.57382 0.39683 0.54915 0.0
C4293 C 0.5204 0.40631 0.54441 0.0
C4294 C 0.53463 0.41993 0.54068 0.0
C4295 C 0.55183 0.41646 0.54288 0.0
C4296 C 0.532 0.43793 0.53483 0.0
C4297 C 0.50169 0.4093 0.54322 0.0
C4298 C 0.52101 0.43841 0.51822 0.0
C4299 C 0.5188 0.45532 0.51283 0.0
C4300 C 0.52741 0.4723 0.52396 0.0
C4301 C 0.53849 0.47172 0.5405 0.0
C4302 C 0.54082 0.45486 0.54577 0.0
H4303 H 0.4932 0.39996 0.55105 0.0
H4304 H 0.5015 0.42377 0.54897 0.0
H4305 H 0.49579 0.40648 0.52818 0.0
H4306 H 0.51428 0.42569 0.50922 0.0
H4307 H 0.5104 0.45502 0.49987 0.0
H4308 H 0.46228 0.78815 0.38045 0.0
H4309 H 0.43445 0.78912 0.36195 0.0
H4310 H 0.40905 0.7388 0.37983 0.0
H4311 H 0.43666 0.73831 0.39907 0.0
H4312 H 0.4164 0.76655 0.33254 0.0
H4313 H 0.37192 0.76726 0.3884 0.0
H4314 H 0.39563 0.77075 0.39387 0.0
H4315 H 0.38219 0.74781 0.38694 0.0
C4316 C 0.45066 0.77749 0.38076 0.0
C4317 C 0.45168 0.76327 0.39146 0.0
C4318 C 0.43472 0.778 0.37006 0.0
C4319 C 0.41938 0.7642 0.36958 0.0
C4320 C 0.42039 0.74998 0.38033 0.0
H4321 H 0.31212 0.74096 0.30788 0.0
H4322 H 0.33949 0.74012 0.32759 0.0
C4323 C 0.43626 0.74967 0.39132 0.0
C4324 C 0.40271 0.76426 0.35711 0.0
H4325 H 0.35813 0.76198 0.35666 0.0
C4326 C 0.40369 0.76565 0.33789 0.0
C4327 C 0.38597 0.76298 0.36387 0.0
C4328 C 0.38386 0.7623 0.38443 0.0
C4329 C 0.38856 0.76548 0.3253 0.0
C4330 C 0.37181 0.76427 0.33208 0.0
C4331 C 0.37083 0.76285 0.35129 0.0
C4332 C 0.35519 0.76456 0.31964 0.0
C4333 C 0.39073 0.7661 0.30473 0.0
C4334 C 0.35459 0.77864 0.30863 0.0
C4335 C 0.33909 0.77882 0.297 0.0
C4336 C 0.32355 0.76528 0.29648 0.0
C4337 C 0.32391 0.75151 0.30789 0.0
C4338 C 0.33957 0.75108 0.3192 0.0
H4339 H 0.40252 0.76085 0.30078 0.0
H4340 H 0.37888 0.75786 0.29527 0.0
H4341 H 0.39274 0.78061 0.30223 0.0
H4342 H 0.36607 0.78968 0.30918 0.0
H4343 H 0.33915 0.78987 0.28873 0.0
H4344 H 0.05979 0.7351 0.09794 0.0
H4345 H 0.06056 0.70277 0.08726 0.0
H4346 H 0.01769 0.699 0.04331 0.0
H4347 H 0.01682 0.73122 0.05388 0.0
H4348 H 0.0337 0.67107 0.0855 0.0
H4349 H 0.05304 0.67665 0.01392 0.0
H4350 H 0.05549 0.69653 0.03202 0.0
H4351 H 0.0342 0.68632 0.01868 0.0
C4352 C 0.05069 0.72753 0.08581 0.0
C4353 C 0.03831 0.73605 0.07678 0.0
C4354 C 0.05107 0.7089 0.07975 0.0
C4355 C 0.03931 0.69824 0.06429 0.0
C4356 C 0.02716 0.70681 0.05505 0.0
H4357 H 0.0067 0.58229 0.01419 0.0
H4358 H 0.01025 0.61546 0.0244 0.0
C4359 C 0.02664 0.72536 0.0612 0.0
C4360 C 0.03922 0.67808 0.0583 0.0
H4361 H 0.04278 0.64627 0.02042 0.0
C4362 C 0.03589 0.66574 0.07132 0.0
C4363 C 0.04202 0.67085 0.03978 0.0
C4364 C 0.04656 0.68327 0.02531 0.0
C4365 C 0.03482 0.64658 0.06622 0.0
C4366 C 0.03733 0.63936 0.04764 0.0
C4367 C 0.04085 0.65168 0.03468 0.0
C4368 C 0.03561 0.619 0.04123 0.0
C4369 C 0.03045 0.63399 0.08056 0.0
C4370 C 0.04877 0.6097 0.04703 0.0
C4371 C 0.04687 0.59058 0.04098 0.0
C4372 C 0.03168 0.58023 0.0291 0.0
C4373 C 0.01859 0.58966 0.02332 0.0
C4374 C 0.0206 0.60874 0.02915 0.0
H4375 H 0.02719 0.64138 0.09381 0.0
H4376 H 0.01903 0.62255 0.07451 0.0
H4377 H 0.04194 0.62778 0.08411 0.0
H4378 H 0.06052 0.61722 0.05631 0.0
H4379 H 0.05711 0.58385 0.04597 0.0
H4380 H 0.05653 0.28618 0.90158 0.0
H4381 H 0.08465 0.29232 0.88792 0.0
H4382 H 0.07538 0.23508 0.8629 0.0
H4383 H 0.04723 0.22904 0.87589 0.0
H4384 H 0.11515 0.27828 0.89138 0.0
H4385 H 0.08301 0.2599 0.81717 0.0
H4386 H 0.07064 0.26357 0.83686 0.0
H4387 H 0.07718 0.24196 0.83102 0.0
C4388 C 0.06056 0.27491 0.89325 0.0
C4389 C 0.04955 0.25714 0.88972 0.0
C4390 C 0.07663 0.27843 0.88542 0.0
C4391 C 0.08202 0.26424 0.874 0.0
C4392 C 0.07135 0.24639 0.87116 0.0
H4393 H 0.16824 0.25877 0.80452 0.0
H4394 H 0.14466 0.25077 0.82448 0.0
C4395 C 0.05526 0.24293 0.87873 0.0
C4396 C 0.09862 0.26798 0.86482 0.0
H4397 H 0.11425 0.26422 0.8218 0.0
C4398 C 0.11494 0.27528 0.87616 0.0
C4399 C 0.09845 0.26404 0.84493 0.0
C4400 C 0.08138 0.25711 0.83176 0.0
C4401 C 0.13103 0.27843 0.86821 0.0
C4402 C 0.13081 0.27444 0.84833 0.0
C4403 C 0.1145 0.26711 0.83704 0.0
C4404 C 0.14706 0.27872 0.83866 0.0
C4405 C 0.14813 0.28569 0.88123 0.0
C4406 C 0.15657 0.297 0.84021 0.0
C4407 C 0.16993 0.30155 0.82874 0.0
C4408 C 0.17419 0.28792 0.81557 0.0
C4409 C 0.16539 0.26949 0.81473 0.0
C4410 C 0.15185 0.26495 0.82606 0.0
H4411 H 0.14677 0.28242 0.89571 0.0
H4412 H 0.15911 0.2799 0.87577 0.0
H4413 H 0.15174 0.30091 0.8823 0.0
H4414 H 0.153 0.30794 0.84951 0.0
H4415 H 0.17643 0.31588 0.82956 0.0
H4416 H 0.53994 0.76786 0.91255 0.0
H4417 H 0.54107 0.74254 0.93063 0.0
H4418 H 0.53117 0.70403 0.87846 0.0
H4419 H 0.53105 0.72949 0.86051 0.0
H4420 H 0.51515 0.71553 0.93282 0.0
H4421 H 0.56777 0.6835 0.90495 0.0
H4422 H 0.56487 0.70582 0.90026 0.0
H4423 H 0.5513 0.68506 0.88642 0.0
C4424 C 0.5389 0.75408 0.905 0.0
C4425 C 0.53613 0.75072 0.88513 0.0
C4426 C 0.53928 0.73954 0.91532 0.0
C4427 C 0.53652 0.72123 0.90602 0.0
C4428 C 0.53404 0.71797 0.88609 0.0
H4429 H 0.50511 0.61353 0.93894 0.0
H4430 H 0.51517 0.63953 0.92235 0.0
C4431 C 0.53402 0.73257 0.87578 0.0
C4432 C 0.53458 0.70553 0.91713 0.0
H4433 H 0.54778 0.66525 0.92204 0.0
C4434 C 0.52251 0.70471 0.93061 0.0
C4435 C 0.544 0.69119 0.91427 0.0
C4436 C 0.55783 0.69151 0.90082 0.0
C4437 C 0.51933 0.68992 0.94087 0.0
C4438 C 0.5286 0.67549 0.93783 0.0
C4439 C 0.54071 0.6763 0.92445 0.0
C4440 C 0.52524 0.65915 0.94787 0.0
C4441 C 0.50559 0.68955 0.95445 0.0
C4442 C 0.52833 0.66123 0.96773 0.0
C4443 C 0.52276 0.6463 0.9772 0.0
C4444 C 0.51418 0.62897 0.96699 0.0
C4445 C 0.5121 0.62662 0.94712 0.0
C4446 C 0.51769 0.64153 0.93765 0.0
H4447 H 0.49685 0.69929 0.95199 0.0
H4448 H 0.49721 0.67549 0.95322 0.0
H4449 H 0.51237 0.69361 0.96916 0.0
H4450 H 0.53433 0.67461 0.97595 0.0
H4451 H 0.52413 0.6486 0.99252 0.0
H4452 H 0.08197 0.79221 0.73358 0.0
H4453 H 0.11273 0.79025 0.74146 0.0
H4454 H 0.10188 0.73582 0.70859 0.0
H4455 H 0.07107 0.73804 0.70002 0.0
H4456 H 0.12883 0.76989 0.76029 0.0
H4457 H 0.14495 0.75677 0.68687 0.0
H4458 H 0.12446 0.76301 0.69208 0.0
H4459 H 0.12703 0.73961 0.69174 0.0
C4460 C 0.08606 0.77982 0.72783 0.0
C4461 C 0.07384 0.76538 0.71589 0.0
C4462 C 0.10382 0.77868 0.73246 0.0
C4463 C 0.11012 0.76304 0.72541 0.0
C4464 C 0.09782 0.74837 0.71382 0.0
H4465 H 0.21624 0.73748 0.75036 0.0
H4466 H 0.18419 0.73509 0.74313 0.0
C4467 C 0.08003 0.74959 0.70899 0.0
C4468 C 0.12942 0.76231 0.73037 0.0
H4469 H 0.16708 0.75538 0.7113 0.0
C4470 C 0.1371 0.76672 0.74948 0.0
C4471 C 0.14059 0.75819 0.71649 0.0
C4472 C 0.13392 0.7543 0.69564 0.0
C4473 C 0.15524 0.76717 0.75492 0.0
C4474 C 0.1663 0.76316 0.74102 0.0
C4475 C 0.15868 0.75843 0.72202 0.0
C4476 C 0.18592 0.7645 0.7459 0.0
C4477 C 0.16256 0.77195 0.77557 0.0
C4478 C 0.19781 0.78176 0.74982 0.0
C4479 C 0.21621 0.78308 0.75382 0.0
C4480 C 0.2233 0.76721 0.75428 0.0
C4481 C 0.21135 0.74996 0.75049 0.0
C4482 C 0.19295 0.7486 0.7462 0.0
H4483 H 0.15196 0.77242 0.78488 0.0
H4484 H 0.17021 0.76171 0.77955 0.0
H4485 H 0.17181 0.78564 0.77811 0.0
H4486 H 0.19287 0.79427 0.74967 0.0
H4487 H 0.2249 0.79663 0.75685 0.0
H4488 H 0.05553 0.33902 0.39989 0.0
H4489 H 0.05929 0.36876 0.42107 0.0
H4490 H 0.01144 0.37804 0.39215 0.0
H4491 H 0.0075 0.34842 0.37146 0.0
H4492 H 0.06073 0.4068 0.41497 0.0
H4493 H 1.00107 0.37895 0.44741 0.0
H4494 H 0.01238 0.36436 0.43317 0.0
H4495 H 0.99739 0.37632 0.42207 0.0
C4496 C 0.04611 0.34769 0.39781 0.0
C4497 C 0.03127 0.34149 0.38398 0.0
C4498 C 0.04819 0.3646 0.40998 0.0
C4499 C 0.03544 0.37551 0.40849 0.0
C4500 C 0.02125 0.36975 0.39389 0.0
H4501 H 0.00618 0.47214 0.46446 0.0
H4502 H 0.00913 0.44394 0.4447 0.0
C4503 C 0.0191 0.35289 0.38194 0.0
C4504 C 0.0362 0.3924 0.42257 0.0
H4505 H 0.01206 0.4114 0.45431 0.0
C4506 C 0.05021 0.40777 0.42374 0.0
C4507 C 0.02251 0.39368 0.43412 0.0
C4508 C 0.00757 0.37741 0.43432 0.0
C4509 C 0.05044 0.42461 0.4354 0.0
C4510 C 0.03643 0.42607 0.4465 0.0
C4511 C 0.02274 0.41046 0.44575 0.0
C4512 C 0.03519 0.44378 0.45829 0.0
C4513 C 0.0653 0.44092 0.43509 0.0
C4514 C 0.0487 0.45317 0.4728 0.0
C4515 C 0.04721 0.46971 0.48373 0.0
C4516 C 0.03222 0.47723 0.48038 0.0
C4517 C 0.01843 0.46746 0.46645 0.0
C4518 C 0.01996 0.45105 0.45543 0.0
H4519 H 0.07246 0.43891 0.42255 0.0
H4520 H 0.06023 0.45376 0.43507 0.0
H4521 H 0.07498 0.44278 0.44794 0.0
H4522 H 0.06028 0.44757 0.47588 0.0
H4523 H 0.05772 0.47658 0.49491 0.0
H4524 H 0.45547 0.26495 0.18589 0.0
H4525 H 0.42777 0.26898 0.19759 0.0
H4526 H 0.43845 0.23922 0.24306 0.0
H4527 H 0.46683 0.23601 0.23184 0.0
H4528 H 0.39848 0.2492 0.20099 0.0
H4529 H 0.42588 0.28049 0.27451 0.0
H4530 H 0.43995 0.27637 0.25653 0.0
H4531 H 0.43044 0.25802 0.26875 0.0
C4532 C 0.45199 0.25916 0.19838 0.0
C4533 C 0.46364 0.25009 0.20781 0.0
C4534 C 0.43597 0.26153 0.20516 0.0
C4535 C 0.43074 0.25484 0.22163 0.0
C4536 C 0.44211 0.24521 0.23076 0.0
H4537 H 0.32738 0.24495 0.26766 0.0
H4538 H 0.35602 0.24037 0.25798 0.0
C4539 C 0.45836 0.24309 0.22413 0.0
C4540 C 0.41334 0.2577 0.22873 0.0
H4541 H 0.39438 0.27162 0.26821 0.0
C4542 C 0.39778 0.25416 0.21572 0.0
C4543 C 0.41193 0.26445 0.24794 0.0
C4544 C 0.42797 0.27025 0.26269 0.0
C4545 C 0.38126 0.25679 0.22128 0.0
C4546 C 0.3798 0.26296 0.24048 0.0
C4547 C 0.39525 0.26661 0.25353 0.0
C4548 C 0.36242 0.26603 0.24701 0.0
C4549 C 0.36529 0.25295 0.20653 0.0
C4550 C 0.35622 0.282 0.24426 0.0
C4551 C 0.33987 0.28473 0.24994 0.0
C4552 C 0.329 0.27154 0.2585 0.0
C4553 C 0.33523 0.2555 0.2612 0.0
C4554 C 0.35171 0.25286 0.25567 0.0
H4555 H 0.36803 0.24666 0.1925 0.0
H4556 H 0.35404 0.24358 0.21109 0.0
H4557 H 0.36111 0.26605 0.20499 0.0
H4558 H 0.36402 0.2924 0.23757 0.0
H4559 H 0.33561 0.29713 0.24728 0.0
H4560 H 0.57625 0.5343 0.31387 0.0
H4561 H 0.56291 0.52988 0.34305 0.0
H4562 H 0.61498 0.53872 0.37403 0.0
H4563 H 0.62832 0.54317 0.34517 0.0
H4564 H 0.5698 0.5015 0.367 0.0
H4565 H 0.58809 0.57376 0.40486 0.0
H4566 H 0.58711 0.5681 0.37949 0.0
H4567 H 0.60559 0.56488 0.39466 0.0
C4568 C 0.58484 0.53578 0.32701 0.0
C4569 C 0.60335 0.53919 0.32722 0.0
C4570 C 0.57721 0.53303 0.34359 0.0
C4571 C 0.58798 0.53394 0.36065 0.0
C4572 C 0.60645 0.53803 0.36102 0.0
H4573 H 0.5624 0.50354 0.4703 0.0
H4574 H 0.57584 0.50541 0.44069 0.0
C4575 C 0.61405 0.5406 0.34448 0.0
C4576 C 0.58006 0.53025 0.37806 0.0
H4577 H 0.57557 0.55085 0.42217 0.0
C4578 C 0.57104 0.51226 0.37908 0.0
C4579 C 0.58178 0.54431 0.39377 0.0
C4580 C 0.59105 0.5639 0.39321 0.0
C4581 C 0.56369 0.50801 0.39553 0.0
C4582 C 0.56543 0.52212 0.41118 0.0
C4583 C 0.57446 0.54005 0.41015 0.0
C4584 C 0.55664 0.51906 0.42821 0.0
C4585 C 0.55378 0.48866 0.39603 0.0
C4586 C 0.54147 0.52605 0.43084 0.0
C4587 C 0.53392 0.52513 0.4476 0.0
C4588 C 0.54132 0.5171 0.46215 0.0
C4589 C 0.55634 0.50969 0.45932 0.0
C4590 C 0.56398 0.5107 0.44244 0.0
H4591 H 0.5533 0.4793 0.38252 0.0
H4592 H 0.56026 0.48304 0.40767 0.0
H4593 H 0.54002 0.48883 0.399 0.0
H4594 H 0.53571 0.53265 0.42006 0.0
H4595 H 0.5225 0.5312 0.44932 0.0
H4596 H 0.2614 0.89636 0.04725 0.0
H4597 H 0.25486 0.87975 0.07362 0.0
H4598 H 0.29612 0.85023 0.06251 0.0
H4599 H 0.30283 0.86667 0.03622 0.0
H4600 H 0.25111 0.83713 0.07912 0.0
H4601 H 0.31018 0.88957 0.11522 0.0
H4602 H 0.29756 0.89262 0.09391 0.0
H4603 H 0.31286 0.87752 0.09266 0.0
C4604 C 0.26861 0.88582 0.04996 0.0
C4605 C 0.28289 0.88307 0.04006 0.0
C4606 C 0.26485 0.87639 0.06498 0.0
C4607 C 0.2752 0.86411 0.06992 0.0
C4608 C 0.28809 0.8598 0.05875 0.0
H4609 H 0.31176 0.80494 0.14217 0.0
H4610 H 0.29414 0.81451 0.11676 0.0
C4611 C 0.29192 0.86923 0.04383 0.0
C4612 C 0.27483 0.85812 0.08833 0.0
H4613 H 0.30077 0.86363 0.13031 0.0
C4614 C 0.26168 0.84309 0.09056 0.0
C4615 C 0.28861 0.86625 0.10308 0.0
C4616 C 0.30305 0.88249 0.10121 0.0
C4617 C 0.26281 0.83497 0.10692 0.0
C4618 C 0.27729 0.84231 0.12102 0.0
C4619 C 0.2896 0.85823 0.11937 0.0
C4620 C 0.28225 0.83211 0.13577 0.0
C4621 C 0.24922 0.81808 0.10866 0.0
C4622 C 0.28093 0.83865 0.15464 0.0
C4623 C 0.29096 0.83323 0.16907 0.0
C4624 C 0.30264 0.82166 0.16459 0.0
C4625 C 0.30309 0.81423 0.14574 0.0
C4626 C 0.2928 0.81934 0.13136 0.0
H4627 H 0.23722 0.81609 0.09824 0.0
H4628 H 0.25511 0.80577 0.10618 0.0
H4629 H 0.2453 0.81912 0.12317 0.0
H4630 H 0.2731 0.84882 0.15813 0.0
H4631 H 0.29033 0.83881 0.18365 0.0
H4632 H 0.9021 0.53997 0.85609 0.0
H4633 H 0.91689 0.53201 0.88423 0.0
H4634 H 0.93449 0.48905 0.84949 0.0
H4635 H 0.9203 0.49751 0.82112 0.0
H4636 H 0.9189 0.50231 0.902 0.0
H4637 H 0.97966 0.52787 0.86936 0.0
H4638 H 0.95788 0.52938 0.85959 0.0
H4639 H 0.96491 0.50785 0.85579 0.0
C4640 C 0.90892 0.52868 0.85455 0.0
C4641 C 0.91079 0.51977 0.83668 0.0
C4642 C 0.91712 0.524 0.87054 0.0
C4643 C 0.92697 0.51026 0.86864 0.0
C4644 C 0.92715 0.49994 0.85095 0.0
H4645 H 0.00613 0.49715 0.95521 0.0
H4646 H 0.9851 0.4918 0.9264 0.0
C4647 C 0.91928 0.5049 0.83489 0.0
C4648 C 0.93958 0.50941 0.88455 0.0
H4649 H 0.98376 0.52068 0.89988 0.0
C4650 C 0.93309 0.50597 0.90153 0.0
C4651 C 0.95801 0.51488 0.88376 0.0
C4652 C 0.96558 0.52039 0.86623 0.0
C4653 C 0.94472 0.50816 0.91803 0.0
C4654 C 0.96303 0.51339 0.91709 0.0
C4655 C 0.96958 0.51636 0.90011 0.0
C4656 C 0.97572 0.51681 0.93386 0.0
C4657 C 0.93746 0.50547 0.93644 0.0
C4658 C 0.97746 0.53294 0.94679 0.0
C4659 C 0.9894 0.53608 0.96301 0.0
C4660 C 0.99962 0.52309 0.96621 0.0
C4661 C 0.99837 0.50732 0.95282 0.0
C4662 C 0.98637 0.50418 0.9366 0.0
H4663 H 0.92319 0.49861 0.93423 0.0
H4664 H 0.94503 0.49714 0.94422 0.0
H4665 H 0.93904 0.5191 0.94543 0.0
H4666 H 0.96943 0.54291 0.94441 0.0
H4667 H 0.99039 0.54843 0.97319 0.0
H4668 H 0.29551 0.2266 0.55635 0.0
H4669 H 0.29271 0.23876 0.58911 0.0
H4670 H 0.25326 0.19013 0.59184 0.0
H4671 H 0.25577 0.17794 0.559 0.0
H4672 H 0.25929 0.24391 0.60654 0.0
H4673 H 0.29465 0.19482 0.63688 0.0
H4674 H 0.29667 0.20003 0.61327 0.0
H4675 H 0.27692 0.18524 0.61801 0.0
C4676 C 0.28612 0.21853 0.56384 0.0
C4677 C 0.27588 0.20126 0.55498 0.0
C4678 C 0.28453 0.22553 0.58258 0.0
C4679 C 0.27291 0.2153 0.59301 0.0
C4680 C 0.26241 0.19823 0.58412 0.0
H4681 H 0.2599 0.22765 0.71317 0.0
H4682 H 0.25864 0.21674 0.6792 0.0
C4683 C 0.26379 0.19132 0.56529 0.0
C4684 C 0.27208 0.22228 0.6133 0.0
H4685 H 0.2833 0.21483 0.65825 0.0
C4686 C 0.26452 0.23758 0.61789 0.0
C4687 C 0.27883 0.21396 0.62807 0.0
C4688 C 0.28735 0.19767 0.62395 0.0
C4689 C 0.26322 0.24458 0.63683 0.0
C4690 C 0.27026 0.23646 0.65172 0.0
C4691 C 0.27786 0.22114 0.64701 0.0
C4692 C 0.26994 0.2435 0.67225 0.0
C4693 C 0.25381 0.26025 0.64052 0.0
C4694 C 0.27657 0.26222 0.6799 0.0
C4695 C 0.27674 0.26853 0.69923 0.0
C4696 C 0.27093 0.25615 0.71147 0.0
C4697 C 0.26447 0.23745 0.70398 0.0
C4698 C 0.26381 0.23123 0.68457 0.0
H4699 H 0.24428 0.26061 0.62812 0.0
H4700 H 0.2465 0.25919 0.65303 0.0
H4701 H 0.26371 0.27352 0.64315 0.0
H4702 H 0.28201 0.27195 0.67103 0.0
H4703 H 0.28207 0.28297 0.70477 0.0
H4704 H 0.61589 0.51845 0.21022 0.0
H4705 H 0.6043 0.5175 0.17697 0.0
H4706 H 0.56086 0.54063 0.19498 0.0
H4707 H 0.5721 0.54146 0.22801 0.0
H4708 H 0.56566 0.49913 0.15905 0.0
H4709 H 0.58675 0.57428 0.15758 0.0
H4710 H 0.59767 0.56262 0.174 0.0
H4711 H 0.57656 0.5678 0.17787 0.0
C4712 C 0.60391 0.52339 0.20707 0.0
C4713 C 0.59493 0.53007 0.22175 0.0
C4714 C 0.5973 0.5228 0.18811 0.0
C4715 C 0.58182 0.52913 0.18361 0.0
C4716 C 0.5729 0.53581 0.19821 0.0
H4717 H 0.52007 0.54366 0.08144 0.0
H4718 H 0.53206 0.54366 0.11427 0.0
C4719 C 0.57934 0.53622 0.21707 0.0
C4720 C 0.57464 0.52862 0.1637 0.0
H4721 H 0.56746 0.55644 0.13124 0.0
C4722 C 0.56615 0.51161 0.15287 0.0
C4723 C 0.57521 0.54497 0.15583 0.0
C4724 C 0.58463 0.56349 0.1668 0.0
C4725 C 0.55784 0.51055 0.13442 0.0
C4726 C 0.55833 0.52694 0.12654 0.0
C4727 C 0.56696 0.54393 0.13737 0.0
C4728 C 0.55067 0.52666 0.1068 0.0
C4729 C 0.54826 0.49195 0.12368 0.0
C4730 C 0.55726 0.51727 0.09179 0.0
C4731 C 0.5505 0.51727 0.07316 0.0
C4732 C 0.5371 0.52686 0.06903 0.0
C4733 C 0.53044 0.53625 0.08409 0.0
C4734 C 0.53726 0.53624 0.10285 0.0
H4735 H 0.54481 0.48177 0.13334 0.0
H4736 H 0.53592 0.49298 0.11513 0.0
H4737 H 0.55698 0.4866 0.11391 0.0
H4738 H 0.56783 0.51011 0.09448 0.0
H4739 H 0.55596 0.50982 0.06197 0.0
H4740 H 0.3048 0.86946 0.96511 0.0
H4741 H 0.29457 0.84999 0.93436 0.0
H4742 H 0.27142 0.8929 0.91483 0.0
H4743 H 0.28139 0.91244 0.94579 0.0
H4744 H 0.25668 0.84001 0.9115 0.0
H4745 H 0.3127 0.88072 0.8813 0.0
H4746 H 0.31279 0.88098 0.90644 0.0
H4747 H 0.29865 0.89297 0.89422 0.0
C4748 C 0.29754 0.87471 0.95424 0.0
C4749 C 0.29405 0.89244 0.95755 0.0
C4750 C 0.29153 0.86355 0.93688 0.0
C4751 C 0.28225 0.87013 0.92261 0.0
C4752 C 0.27846 0.88769 0.9259 0.0
H4753 H 0.25532 0.8134 0.80677 0.0
H4754 H 0.2537 0.83258 0.83659 0.0
C4755 C 0.28423 0.89879 0.94342 0.0
C4756 C 0.27835 0.85923 0.90372 0.0
H4757 H 0.29558 0.8542 0.86199 0.0
C4758 C 0.26491 0.8432 0.90048 0.0
C4759 C 0.28939 0.86352 0.88971 0.0
C4760 C 0.30428 0.88042 0.89298 0.0
C4761 C 0.26253 0.83096 0.88346 0.0
C4762 C 0.27392 0.83506 0.86976 0.0
C4763 C 0.28694 0.85134 0.87275 0.0
C4764 C 0.27339 0.82212 0.85258 0.0
C4765 C 0.24842 0.81345 0.88038 0.0
C4766 C 0.28515 0.81019 0.85204 0.0
C4767 C 0.28633 0.79942 0.83506 0.0
C4768 C 0.27567 0.80048 0.81856 0.0
C4769 C 0.26372 0.81234 0.81929 0.0
C4770 C 0.26262 0.82315 0.83626 0.0
H4771 H 0.24018 0.81265 0.8922 0.0
H4772 H 0.23967 0.81255 0.86699 0.0
H4773 H 0.25474 0.80137 0.87891 0.0
H4774 H 0.2937 0.80959 0.86464 0.0
H4775 H 0.29574 0.7905 0.83478 0.0
H4776 H 0.93416 0.51016 0.75407 0.0
H4777 H 0.94518 0.50086 0.72441 0.0
H4778 H 0.89734 0.50767 0.69313 0.0
H4779 H 0.88597 0.51675 0.72294 0.0
H4780 H 0.92833 0.47564 0.68385 0.0
H4781 H 0.94461 0.55262 0.69278 0.0
H4782 H 0.94081 0.54066 0.71264 0.0
H4783 H 0.92258 0.5407 0.69542 0.0
C4784 C 0.92582 0.50928 0.74087 0.0
C4785 C 0.9096 0.51486 0.74053 0.0
C4786 C 0.93199 0.50368 0.72404 0.0
C4787 C 0.92207 0.50391 0.70686 0.0
C4788 C 0.90503 0.50749 0.70645 0.0
H4789 H 0.96513 0.50254 0.60144 0.0
H4790 H 0.94788 0.51161 0.62642 0.0
C4791 C 0.8987 0.51285 0.72336 0.0
C4792 C 0.9314 0.50505 0.69031 0.0
H4793 H 0.9574 0.53663 0.6692 0.0
C4794 C 0.93441 0.48888 0.68031 0.0
C4795 C 0.93947 0.5225 0.68626 0.0
C4796 C 0.93683 0.54019 0.69731 0.0
C4797 C 0.94571 0.48975 0.66632 0.0
C4798 C 0.95421 0.50722 0.6627 0.0
C4799 C 0.95081 0.52337 0.67228 0.0
C4800 C 0.96691 0.50853 0.64904 0.0
C4801 C 0.94892 0.47209 0.65578 0.0
C4802 C 0.98368 0.50505 0.65393 0.0
C4803 C 0.99346 0.49967 0.63975 0.0
C4804 C 0.9865 0.498 0.62076 0.0
C4805 C 0.97069 0.50372 0.61606 0.0
C4806 C 0.96088 0.50898 0.63023 0.0
H4807 H 0.93978 0.45971 0.65882 0.0
H4808 H 0.94729 0.47222 0.6403 0.0
H4809 H 0.96274 0.47091 0.65994 0.0
H4810 H 0.98837 0.50476 0.66854 0.0
H4811 H 0.00579 0.49561 0.64356 0.0
H4812 H 0.25965 0.17671 0.43963 0.0
H4813 H 0.26134 0.18895 0.40985 0.0
H4814 H 0.27667 0.24426 0.44099 0.0
H4815 H 0.27636 0.23183 0.47083 0.0
H4816 H 0.24718 0.21003 0.39088 0.0
H4817 H 0.31743 0.24542 0.41207 0.0
H4818 H 0.30555 0.23016 0.42611 0.0
H4819 H 0.30328 0.25379 0.42789 0.0
C4820 C 0.26296 0.19152 0.44007 0.0
C4821 C 0.26778 0.20336 0.4575 0.0
C4822 C 0.26407 0.19852 0.42303 0.0
C4823 C 0.26974 0.21755 0.42305 0.0
C4824 C 0.27301 0.22949 0.44051 0.0
H4825 H 0.26966 0.28062 0.33133 0.0
H4826 H 0.26734 0.26808 0.36085 0.0
C4827 C 0.27248 0.22244 0.45758 0.0
C4828 C 0.27287 0.2247 0.40494 0.0
H4829 H 0.30336 0.25221 0.38377 0.0
C4830 C 0.25952 0.21918 0.38938 0.0
C4831 C 0.28913 0.23636 0.40265 0.0
C4832 C 0.30472 0.24161 0.418 0.0
C4833 C 0.26178 0.22541 0.37198 0.0
C4834 C 0.27764 0.23767 0.37009 0.0
C4835 C 0.29113 0.24294 0.38538 0.0
C4836 C 0.28009 0.24565 0.35249 0.0
C4837 C 0.24722 0.21893 0.35561 0.0
C4838 C 0.28833 0.23733 0.33811 0.0
C4839 C 0.28982 0.24456 0.32117 0.0
C4840 C 0.2831 0.26023 0.31836 0.0
C4841 C 0.27518 0.26867 0.33303 0.0
C4842 C 0.27373 0.26147 0.34991 0.0
H4843 H 0.23601 0.20864 0.35899 0.0
H4844 H 0.24214 0.2309 0.35164 0.0
H4845 H 0.25259 0.21269 0.3431 0.0
H4846 H 0.29332 0.22509 0.33987 0.0
H4847 H 0.29596 0.23771 0.31017 0.0
H4848 H 0.31946 0.61739 0.52028 0.0
H4849 H 0.34609 0.60533 0.51992 0.0
H4850 H 0.33057 0.57403 0.56409 0.0
H4851 H 0.30296 0.58552 0.56386 0.0
H4852 H 0.37331 0.60759 0.54829 0.0
H4853 H 0.33701 0.53529 0.52035 0.0
H4854 H 0.32653 0.55462 0.51947 0.0
H4855 H 0.33081 0.54672 0.54156 0.0
C4856 C 0.32187 0.60831 0.53029 0.0
C4857 C 0.30938 0.60247 0.54229 0.0
C4858 C 0.33704 0.6014 0.53 0.0
C4859 C 0.34016 0.5889 0.542 0.0
C4860 C 0.32814 0.5836 0.55466 0.0
H4861 H 0.42053 0.52824 0.51564 0.0
H4862 H 0.40338 0.54425 0.53634 0.0
C4863 C 0.31259 0.59023 0.55464 0.0
C4864 C 0.35569 0.58095 0.54006 0.0
H4865 H 0.36745 0.54246 0.51917 0.0
C4866 C 0.37222 0.59322 0.54245 0.0
C4867 C 0.35388 0.5623 0.53207 0.0
C4868 C 0.33613 0.54891 0.52807 0.0
C4869 C 0.38691 0.58759 0.53581 0.0
C4870 C 0.38492 0.56918 0.52718 0.0
C4871 C 0.36875 0.55656 0.52607 0.0
C4872 C 0.39858 0.56296 0.51707 0.0
C4873 C 0.40405 0.60155 0.53699 0.0
C4874 C 0.40158 0.56855 0.49961 0.0
C4875 C 0.41125 0.55938 0.48768 0.0
C4876 C 0.41789 0.54459 0.49321 0.0
C4877 C 0.41555 0.53967 0.51113 0.0
C4878 C 0.40592 0.54882 0.52299 0.0
H4879 H 0.40469 0.61376 0.5479 0.0
H4880 H 0.4156 0.59532 0.54023 0.0
H4881 H 0.40506 0.60636 0.52311 0.0
H4882 H 0.39564 0.57928 0.4948 0.0
H4883 H 0.4132 0.56353 0.47404 0.0
H4884 H 0.82662 0.92214 0.49982 0.0
H4885 H 0.85677 0.9394 0.49827 0.0
H4886 H 0.8733 0.92861 0.55389 0.0
H4887 H 0.84371 0.91046 0.55488 0.0
H4888 H 0.87519 0.96965 0.51929 0.0
H4889 H 0.91243 0.91492 0.52788 0.0
H4890 H 0.88856 0.91003 0.52353 0.0
H4891 H 0.8998 0.91876 0.54708 0.0
C4892 C 0.83683 0.92324 0.51151 0.0
C4893 C 0.83299 0.91476 0.52731 0.0
C4894 C 0.85401 0.93311 0.51067 0.0
C4895 C 0.86747 0.93493 0.52578 0.0
C4896 C 0.86342 0.92679 0.54173 0.0
H4897 H 0.97782 0.99372 0.5517 0.0
H4898 H 0.94766 0.97633 0.55305 0.0
C4899 C 0.84645 0.91651 0.54233 0.0
C4900 C 0.88549 0.94614 0.52533 0.0
H4901 H 0.92955 0.94561 0.53169 0.0
C4902 C 0.88707 0.96434 0.52185 0.0
C4903 C 0.90102 0.93927 0.52883 0.0
C4904 C 0.90037 0.91962 0.53186 0.0
C4905 C 0.90371 0.97596 0.5221 0.0
C4906 C 0.91923 0.9691 0.52563 0.0
C4907 C 0.91766 0.95091 0.52911 0.0
C4908 C 0.93723 0.98033 0.52526 0.0
C4909 C 0.90441 0.9956 0.51901 0.0
C4910 C 0.9414 0.98824 0.50921 0.0
C4911 C 0.95836 0.99856 0.50869 0.0
C4912 C 0.97168 1.00059 0.52393 0.0
C4913 C 0.9677 0.99238 0.53985 0.0
C4914 C 0.95054 0.98245 0.54058 0.0
H4915 H 0.89228 1.00028 0.52274 0.0
H4916 H 0.91613 0.00521 0.52749 0.0
H4917 H 0.90523 0.99645 0.50382 0.0
H4918 H 0.93163 0.9862 0.49692 0.0
H4919 H 0.96124 0.00437 0.49604 0.0
H4920 H 0.86592 0.03847 0.2338 0.0
H4921 H 0.8502 0.06354 0.22957 0.0
H4922 H 0.88763 0.10007 0.27335 0.0
H4923 H 0.90304 0.07533 0.27759 0.0
H4924 H 0.83517 0.08115 0.25983 0.0
H4925 H 0.88373 0.13243 0.23229 0.0
H4926 H 0.88473 0.10836 0.23018 0.0
H4927 H 0.89344 0.12382 0.25192 0.0
C4928 C 0.87093 0.05202 0.24209 0.0
C4929 C 0.88565 0.05515 0.25594 0.0
C4930 C 0.86199 0.06627 0.23972 0.0
C4931 C 0.86797 0.08376 0.25092 0.0
C4932 C 0.88305 0.08688 0.26424 0.0
H4933 H 0.83937 0.17856 0.30274 0.0
H4934 H 0.85367 0.15459 0.28839 0.0
C4935 C 0.89177 0.07271 0.26674 0.0
C4936 C 0.85751 0.09825 0.25074 0.0
H4937 H 0.86218 0.14439 0.24988 0.0
C4938 C 0.8408 0.09486 0.2571 0.0
C4939 C 0.86503 0.11616 0.24741 0.0
C4940 C 0.88266 0.12038 0.23989 0.0
C4941 C 0.83193 0.10919 0.26149 0.0
C4942 C 0.83985 0.12729 0.25904 0.0
C4943 C 0.85614 0.1305 0.25172 0.0
C4944 C 0.83221 0.14321 0.26584 0.0
C4945 C 0.81474 0.10512 0.26993 0.0
C4946 C 0.8157 0.14508 0.25751 0.0
C4947 C 0.80761 0.15885 0.2656 0.0
C4948 C 0.81586 0.17075 0.2822 0.0
C4949 C 0.83272 0.16937 0.29003 0.0
C4950 C 0.84089 0.15578 0.28181 0.0
H4951 H 0.81194 0.09109 0.27384 0.0
H4952 H 0.81503 0.11534 0.28275 0.0
H4953 H 0.80366 0.10615 0.25948 0.0
H4954 H 0.80886 0.13557 0.2451 0.0
H4955 H 0.79461 0.15972 0.25935 0.0
H4956 H 0.70862 0.07412 0.99329 0.0
H4957 H 0.67683 0.06466 0.99541 0.0
H4958 H 0.68554 0.08794 0.05474 0.0
H4959 H 0.71725 0.09789 0.05257 0.0
H4960 H 0.66221 0.04176 0.02338 0.0
H4961 H 0.64626 0.11165 0.02893 0.0
H4962 H 0.66553 0.10692 0.01855 0.0
H4963 H 0.66509 0.10825 0.04357 0.0
C4964 C 0.70367 0.07698 0.00675 0.0
C4965 C 0.71496 0.08662 0.02274 0.0
C4966 C 0.68571 0.07176 0.00792 0.0
C4967 C 0.67921 0.07596 0.02515 0.0
C4968 C 0.69056 0.08502 0.04133 0.0
H4969 H 0.57193 0.04749 0.04709 0.0
H4970 H 0.60332 0.06186 0.04902 0.0
C4971 C 0.70847 0.09052 0.04008 0.0
C4972 C 0.66046 0.07029 0.02604 0.0
H4973 H 0.62237 0.0861 0.02541 0.0
C4974 C 0.65343 0.05137 0.02395 0.0
C4975 C 0.64946 0.08316 0.02707 0.0
C4976 C 0.65686 0.10366 0.02962 0.0
C4977 C 0.63524 0.04477 0.02211 0.0
C4978 C 0.62419 0.05756 0.02205 0.0
C4979 C 0.63121 0.07654 0.02502 0.0
C4980 C 0.6052 0.05129 0.01988 0.0
C4981 C 0.62798 0.02427 0.02018 0.0
C4982 C 0.59626 0.04114 0.00267 0.0
C4983 C 0.57849 0.03277 0.00165 0.0
C4984 C 0.57002 0.03473 0.01784 0.0
C4985 C 0.57871 0.04569 0.03469 0.0
C4986 C 0.59638 0.05399 0.03572 0.0
H4987 H 0.63838 0.0168 0.02434 0.0
H4988 H 0.61706 0.02132 0.029 0.0
H4989 H 0.62256 0.01875 0.0052 0.0
H4990 H 0.60317 0.0392 0.99037 0.0
H4991 H 0.57155 0.0245 0.98854 0.0
H4992 H 0.22598 0.51201 0.27213 0.0
H4993 H 0.24097 0.48638 0.26786 0.0
H4994 H 0.20399 0.46095 0.21838 0.0
H4995 H 0.18927 0.48676 0.22209 0.0
H4996 H 0.20811 0.45447 0.26824 0.0
H4997 H 0.25369 0.44137 0.2148 0.0
H4998 H 0.25391 0.46471 0.22555 0.0
H4999 H 0.23511 0.45184 0.20958 0.0
C5000 C 0.22163 0.50144 0.2598 0.0
C5001 C 0.20612 0.5009 0.24789 0.0
C5002 C 0.23033 0.48696 0.25722 0.0
C5003 C 0.22334 0.47183 0.24296 0.0
C5004 C 0.20957 0.47265 0.22935 0.0
H5005 H 0.23108 0.36158 0.26655 0.0
H5006 H 0.22299 0.38504 0.24857 0.0
C5007 C 0.20107 0.48732 0.23168 0.0
C5008 C 0.22568 0.45378 0.24672 0.0
H5009 H 0.24953 0.42087 0.23738 0.0
C5010 C 0.21698 0.44695 0.26133 0.0
C5011 C 0.2368 0.44398 0.23722 0.0
C5012 C 0.24546 0.45071 0.22084 0.0
C5013 C 0.22021 0.43113 0.26776 0.0
C5014 C 0.23252 0.42213 0.25939 0.0
C5015 C 0.24025 0.4281 0.2438 0.0
C5016 C 0.23886 0.40799 0.26844 0.0
C5017 C 0.21124 0.42472 0.28417 0.0
C5018 C 0.25028 0.41343 0.28545 0.0
C5019 C 0.25443 0.40025 0.29589 0.0
C5020 C 0.24733 0.38155 0.28927 0.0
C5021 C 0.23634 0.37606 0.27194 0.0
C5022 C 0.23198 0.3893 0.26159 0.0
H5023 H 0.19958 0.4309 0.28649 0.0
H5024 H 0.20687 0.40947 0.2818 0.0
H5025 H 0.2208 0.42882 0.29728 0.0
H5026 H 0.25558 0.42791 0.29084 0.0
H5027 H 0.26335 0.4046 0.30896 0.0
H5028 H 0.22734 0.39311 0.01011 0.0
H5029 H 0.20076 0.40541 0.00355 0.0
H5030 H 0.21669 0.44563 0.05428 0.0
H5031 H 0.24333 0.43372 0.06074 0.0
H5032 H 0.17271 0.40952 0.02501 0.0
H5033 H 0.21044 0.47738 0.01343 0.0
H5034 H 0.2204 0.45765 0.01405 0.0
H5035 H 0.21721 0.47102 0.03571 0.0
C5036 C 0.22511 0.40449 0.01993 0.0
C5037 C 0.2375 0.4125 0.0359 0.0
C5038 C 0.20993 0.4115 0.01615 0.0
C5039 C 0.2069 0.42662 0.02827 0.0
C5040 C 0.21895 0.43421 0.04452 0.0
H5041 H 0.1297 0.49601 0.02253 0.0
H5042 H 0.15127 0.47917 0.03465 0.0
C5043 C 0.23414 0.42731 0.04824 0.0
C5044 C 0.19132 0.43471 0.02383 0.0
H5045 H 0.17972 0.47451 0.01464 0.0
C5046 C 0.17422 0.42371 0.02271 0.0
C5047 C 0.19332 0.45324 0.02083 0.0
C5048 C 0.21132 0.46548 0.02088 0.0
C5049 C 0.15904 0.43086 0.0189 0.0
C5050 C 0.16109 0.44939 0.01592 0.0
C5051 C 0.17819 0.46036 0.01714 0.0
C5052 C 0.14587 0.45756 0.01029 0.0
C5053 C 0.14099 0.4186 0.0183 0.0
C5054 C 0.13545 0.45079 0.99277 0.0
C5055 C 0.12334 0.46051 0.98575 0.0
C5056 C 0.12136 0.47709 0.99619 0.0
C5057 C 0.13099 0.48326 0.01423 0.0
C5058 C 0.14328 0.47366 0.02115 0.0
H5059 H 0.14161 0.40698 0.02624 0.0
H5060 H 0.13155 0.4265 0.02425 0.0
H5061 H 0.13573 0.41269 0.00337 0.0
H5062 H 0.13737 0.43853 0.98406 0.0
H5063 H 0.11589 0.45538 0.9719 0.0
H5064 H 0.88557 0.9623 0.23197 0.0
H5065 H 0.8672 0.93073 0.22523 0.0
H5066 H 0.86453 0.93121 0.28491 0.0
H5067 H 0.88241 0.96248 0.2917 0.0
H5068 H 0.87242 0.89695 0.24069 0.0
H5069 H 0.812 0.91988 0.26054 0.0
H5070 H 0.83084 0.93541 0.25443 0.0
H5071 H 0.83129 0.92883 0.27757 0.0
C5072 C 0.88108 0.9556 0.24361 0.0
C5073 C 0.88516 0.96501 0.26234 0.0
C5074 C 0.87063 0.93761 0.23975 0.0
C5075 C 0.86423 0.92882 0.25457 0.0
C5076 C 0.86897 0.93791 0.27325 0.0
H5077 H 0.80073 0.83438 0.28474 0.0
H5078 H 0.81774 0.86439 0.28064 0.0
C5079 C 0.87919 0.95582 0.27709 0.0
C5080 C 0.85228 0.9103 0.25091 0.0
H5081 H 0.81162 0.8879 0.25915 0.0
C5082 C 0.85901 0.89488 0.2444 0.0
C5083 C 0.83481 0.90773 0.25576 0.0
C5084 C 0.82671 0.92384 0.26231 0.0
C5085 C 0.84914 0.87685 0.24385 0.0
C5086 C 0.83188 0.87427 0.2495 0.0
C5087 C 0.82486 0.8898 0.25497 0.0
C5088 C 0.82139 0.85583 0.25148 0.0
C5089 C 0.85773 0.86086 0.2383 0.0
C5090 C 0.81753 0.84097 0.23644 0.0
C5091 C 0.80825 0.8236 0.239 0.0
C5092 C 0.8021 0.82105 0.2564 0.0
C5093 C 0.80527 0.83606 0.27115 0.0
C5094 C 0.815 0.8532 0.2688 0.0
H5095 H 0.87235 0.86534 0.23902 0.0
H5096 H 0.85479 0.85023 0.24757 0.0
H5097 H 0.85251 0.85442 0.2235 0.0
H5098 H 0.8217 0.84275 0.22274 0.0
H5099 H 0.80571 0.81222 0.22736 0.0
H5100 H 0.71378 0.0723 0.74024 0.0
H5101 H 0.72744 0.10352 0.73504 0.0
H5102 H 0.68819 0.12532 0.7644 0.0
H5103 H 0.67487 0.09428 0.77 0.0
H5104 H 0.71139 0.13612 0.72099 0.0
H5105 H 0.74035 0.14349 0.79629 0.0
H5106 H 0.73182 0.12131 0.78169 0.0
H5107 H 0.71684 0.13452 0.79123 0.0
C5108 C 0.70813 0.08385 0.74542 0.0
C5109 C 0.69382 0.08142 0.756 0.0
C5110 C 0.71567 0.10145 0.7422 0.0
C5111 C 0.70869 0.11644 0.74938 0.0
C5112 C 0.6936 0.11373 0.75879 0.0
H5113 H 0.73846 0.23305 0.76949 0.0
H5114 H 0.72312 0.2007 0.76399 0.0
C5115 C 0.68624 0.09623 0.76222 0.0
C5116 C 0.71896 0.1351 0.75038 0.0
H5117 H 0.74461 0.17034 0.78208 0.0
C5118 C 0.71877 0.14365 0.73423 0.0
C5119 C 0.72864 0.14453 0.76773 0.0
C5120 C 0.7296 0.1355 0.78523 0.0
C5121 C 0.72776 0.16197 0.73529 0.0
C5122 C 0.73688 0.17146 0.75283 0.0
C5123 C 0.7374 0.16276 0.76876 0.0
C5124 C 0.74584 0.19067 0.75523 0.0
C5125 C 0.7274 0.17125 0.71796 0.0
C5126 C 0.76371 0.19521 0.7527 0.0
C5127 C 0.77266 0.21351 0.75638 0.0
C5128 C 0.76369 0.22738 0.76244 0.0
C5129 C 0.74578 0.22264 0.7652 0.0
C5130 C 0.73692 0.20429 0.76173 0.0
H5131 H 0.71952 0.16194 0.70537 0.0
H5132 H 0.72169 0.18367 0.72075 0.0
H5133 H 0.74115 0.17596 0.71475 0.0
H5134 H 0.77068 0.1846 0.74794 0.0
H5135 H 0.78645 0.2168 0.75404 0.0
loop_
_geom_bond_atom_site_label_1
_geom_bond_atom_site_label_2
_geom_bond_distance
_geom_bond_site_symmetry_2
_ccdc_geom_bond_type
Mg0 O1 2.028 . S
Mg0 O7 1.986 . S
Mg0 O9 2.114 . S
Mg0 O10 2.251 . S
Mg0 O13 2.010 . S
O1 Mg0 2.028 . S
O1 C4 1.250 . S
O2 Mg3 2.025 1_455 S
O2 C4 1.248 . S
Mg3 O2 2.025 1_655 S
Mg3 O8 2.027 1_655 S
Mg3 O10 2.077 1_655 S
C4 O1 1.250 . S
C4 O2 1.248 . S
C5 O6 1.264 . S
C5 O13 1.249 . S
O6 C5 1.264 . S
O7 Mg0 1.986 . S
O7 C11 1.246 . S
O8 Mg3 2.027 1_455 S
O8 C11 1.259 . S
O9 Mg0 2.114 . S
O9 C12 1.252 . S
O10 Mg0 2.251 . S
O10 Mg3 2.077 1_455 S
O10 C12 1.273 . S
C11 O7 1.246 . S
C11 O8 1.259 . S
C12 O9 1.252 . S
C12 O10 1.273 . S
O13 Mg0 2.010 . S
O13 C5 1.249 . S
Mg14 O15 2.028 . S
Mg14 O21 1.986 . S
Mg14 O23 2.141 . S
Mg14 O24 2.251 1_455 S
Mg14 O27 2.010 . S
O15 Mg14 2.028 . S
O15 C18 1.250 . S
O16 Mg17 2.028 . S
O16 C18 1.248 1_655 S
Mg17 O16 2.028 . S
Mg17 O22 2.032 . S
Mg17 O24 2.079 . S
C18 O15 1.250 . S
C18 O16 1.248 1_455 S
C19 O20 1.264 . S
C19 O27 1.249 . S
O20 C19 1.264 . S
O21 Mg14 1.986 . S
O21 C25 1.246 . S
O22 Mg17 2.032 . S
O22 C25 1.259 1_655 S
O23 Mg14 2.141 . S
O23 C26 1.210 1_455 S
O24 Mg14 2.251 1_655 S
O24 Mg17 2.079 . S
O24 C26 1.273 . S
C25 O21 1.246 . S
C25 O22 1.259 1_455 S
C26 O23 1.210 1_655 S
C26 O24 1.273 . S
O27 Mg14 2.010 . S
O27 C19 1.249 . S
Mg28 O29 2.028 . S
Mg28 O35 1.986 . S
Mg28 O37 2.114 . S
Mg28 O38 2.251 . S
Mg28 O41 2.010 . S
O29 Mg28 2.028 . S
O29 C32 1.250 . S
O30 Mg31 2.028 . S
O30 C32 1.248 . S
Mg31 O30 2.028 . S
Mg31 O36 2.032 . S
Mg31 O38 2.079 . S
C32 O29 1.250 . S
C32 O30 1.248 . S
C33 O34 1.264 . S
C33 O41 1.249 . S
O34 C33 1.264 . S
O35 Mg28 1.986 . S
O35 C39 1.246 . S
O36 Mg31 2.032 . S
O36 C39 1.259 . S
O37 Mg28 2.114 . S
O37 C40 1.252 . S
O38 Mg28 2.251 . S
O38 Mg31 2.079 . S
O38 C40 1.273 . S
C39 O35 1.246 . S
C39 O36 1.259 . S
C40 O37 1.252 . S
C40 O38 1.273 . S
O41 Mg28 2.010 . S
O41 C33 1.249 . S
Mg42 O43 2.028 . S
Mg42 O49 1.986 . S
Mg42 O51 2.114 . S
Mg42 O52 2.251 . S
Mg42 O55 2.010 . S
O43 Mg42 2.028 . S
O43 C46 1.250 . S
O44 Mg45 2.028 . S
O44 C46 1.248 . S
Mg45 O44 2.028 . S
Mg45 O50 2.032 . S
Mg45 O52 2.079 . S
C46 O43 1.250 . S
C46 O44 1.248 . S
C47 O48 1.264 . S
C47 O55 1.249 . S
O48 C47 1.264 . S
O49 Mg42 1.986 . S
O49 C53 1.246 . S
O50 Mg45 2.032 . S
O50 C53 1.259 . S
O51 Mg42 2.114 . S
O51 C54 1.252 . S
O52 Mg42 2.251 . S
O52 Mg45 2.079 . S
O52 C54 1.273 . S
C53 O49 1.246 . S
C53 O50 1.259 . S
C54 O51 1.252 . S
C54 O52 1.273 . S
O55 Mg42 2.010 . S
O55 C47 1.249 . S
Mg56 O57 2.028 . S
Mg56 O63 1.986 . S
Mg56 O65 2.114 . S
Mg56 O66 2.251 . S
Mg56 O69 2.010 . S
O57 Mg56 2.028 . S
O57 C60 1.250 . S
O58 Mg59 2.028 . S
O58 C60 1.248 . S
Mg59 O58 2.028 . S
Mg59 O64 2.032 . S
Mg59 O66 2.079 . S
C60 O57 1.250 . S
C60 O58 1.248 . S
C61 O62 1.264 . S
C61 O69 1.249 . S
O62 C61 1.264 . S
O63 Mg56 1.986 . S
O63 C67 1.246 . S
O64 Mg59 2.032 . S
O64 C67 1.259 . S
O65 Mg56 2.114 . S
O65 C68 1.252 . S
O66 Mg56 2.251 . S
O66 Mg59 2.079 . S
O66 C68 1.273 . S
C67 O63 1.246 . S
C67 O64 1.259 . S
C68 O65 1.252 . S
C68 O66 1.273 . S
O69 Mg56 2.010 . S
O69 C61 1.249 . S
Mg70 O71 2.028 . S
Mg70 O77 1.986 . S
Mg70 O79 2.114 . S
Mg70 O80 2.251 . S
Mg70 O83 2.010 . S
O71 Mg70 2.028 . S
O71 C74 1.250 . S
O72 Mg73 2.028 . S
O72 C74 1.248 . S
Mg73 O72 2.028 . S
Mg73 O78 2.032 . S
Mg73 O80 2.079 . S
C74 O71 1.250 . S
C74 O72 1.248 . S
C75 O76 1.264 . S
C75 O83 1.249 . S
O76 C75 1.264 . S
O77 Mg70 1.986 . S
O77 C81 1.246 . S
O78 Mg73 2.032 . S
O78 C81 1.259 . S
O79 Mg70 2.114 . S
O79 C82 1.252 . S
O80 Mg70 2.251 . S
O80 Mg73 2.079 . S
O80 C82 1.273 . S
C81 O77 1.246 . S
C81 O78 1.259 . S
C82 O79 1.252 . S
C82 O80 1.273 . S
O83 Mg70 2.010 . S
O83 C75 1.249 . S
Mg84 O85 2.028 . S
Mg84 O91 1.986 . S
Mg84 O93 2.114 . S
Mg84 O94 2.251 . S
Mg84 O97 2.010 . S
O85 Mg84 2.028 . S
O85 C88 1.250 . S
O86 Mg87 2.028 . S
O86 C88 1.248 . S
Mg87 O86 2.028 . S
Mg87 O92 2.032 . S
Mg87 O94 2.079 . S
C88 O85 1.250 . S
C88 O86 1.248 . S
C89 O90 1.264 . S
C89 O97 1.249 . S
O90 C89 1.264 . S
O91 Mg84 1.986 . S
O91 C95 1.246 . S
O92 Mg87 2.032 . S
O92 C95 1.259 . S
O93 Mg84 2.114 . S
O93 C96 1.252 . S
O94 Mg84 2.251 . S
O94 Mg87 2.079 . S
O94 C96 1.273 . S
C95 O91 1.246 . S
C95 O92 1.259 . S
C96 O93 1.252 . S
C96 O94 1.273 . S
O97 Mg84 2.010 . S
O97 C89 1.249 . S
Mg98 O99 2.028 1_655 S
Mg98 O105 1.986 1_655 S
Mg98 O107 2.114 . S
Mg98 O108 2.251 . S
Mg98 O111 2.010 1_655 S
O99 Mg98 2.028 1_455 S
O99 C102 1.236 1_455 S
O100 Mg101 2.028 . S
O100 C102 1.269 . S
Mg101 O100 2.028 . S
Mg101 O106 2.032 . S
Mg101 O108 2.079 . S
C102 O99 1.236 1_655 S
C102 O100 1.269 . S
C103 O104 1.264 . S
C103 O111 1.249 . S
O104 C103 1.264 . S
O105 Mg98 1.986 1_455 S
O105 C109 1.246 1_455 S
O106 Mg101 2.032 . S
O106 C109 1.259 . S
O107 Mg98 2.114 . S
O107 C110 1.252 . S
O108 Mg98 2.251 . S
O108 Mg101 2.079 . S
O108 C110 1.273 . S
C109 O105 1.246 1_655 S
C109 O106 1.259 . S
C110 O107 1.252 . S
C110 O108 1.273 . S
O111 Mg98 2.010 1_455 S
O111 C103 1.249 . S
Mg112 O113 2.028 1_545 S
Mg112 O119 1.986 . S
Mg112 O121 2.114 . S
Mg112 O122 2.251 . S
Mg112 O125 2.010 . S
O113 Mg112 2.028 1_565 S
O113 C116 1.250 . S
O114 Mg115 2.028 1_565 S
O114 C116 1.248 . S
Mg115 O114 2.028 1_545 S
Mg115 O120 2.032 . S
Mg115 O122 2.079 . S
C116 O113 1.250 . S
C116 O114 1.248 . S
C117 O118 1.264 . S
C117 O125 1.249 . S
O118 C117 1.264 . S
O119 Mg112 1.986 . S
O119 C123 1.246 . S
O120 Mg115 2.032 . S
O120 C123 1.259 . S
O121 Mg112 2.114 . S
O121 C124 1.252 . S
O122 Mg112 2.251 . S
O122 Mg115 2.079 . S
O122 C124 1.273 . S
C123 O119 1.246 . S
C123 O120 1.259 . S
C124 O121 1.252 . S
C124 O122 1.273 . S
O125 Mg112 2.010 . S
O125 C117 1.249 . S
Mg126 O127 2.028 . S
Mg126 O133 1.986 . S
Mg126 O135 2.114 . S
Mg126 O136 2.251 . S
Mg126 O139 2.010 . S
O127 Mg126 2.028 . S
O127 C130 1.250 . S
O128 Mg129 2.028 . S
O128 C130 1.248 . S
Mg129 O128 2.028 . S
Mg129 O134 2.032 . S
Mg129 O136 2.079 . S
C130 O127 1.250 . S
C130 O128 1.248 . S
C131 O132 1.264 . S
C131 O139 1.249 . S
O132 C131 1.264 . S
O133 Mg126 1.986 . S
O133 C137 1.246 . S
O134 Mg129 2.032 . S
O134 C137 1.259 . S
O135 Mg126 2.114 . S
O135 C138 1.252 . S
O136 Mg126 2.251 . S
O136 Mg129 2.079 . S
O136 C138 1.273 . S
C137 O133 1.246 . S
C137 O134 1.259 . S
C138 O135 1.252 . S
C138 O136 1.273 . S
O139 Mg126 2.010 . S
O139 C131 1.249 . S
Mg140 O141 2.028 . S
Mg140 O147 1.986 . S
Mg140 O149 2.114 . S
Mg140 O150 2.251 . S
Mg140 O153 2.010 . S
O141 Mg140 2.028 . S
O141 C144 1.250 . S
O142 Mg143 2.028 . S
O142 C144 1.248 . S
Mg143 O142 2.028 . S
Mg143 O148 2.032 . S
Mg143 O150 2.079 . S
C144 O141 1.250 . S
C144 O142 1.248 . S
C145 O146 1.264 . S
C145 O153 1.249 . S
O146 C145 1.264 . S
O147 Mg140 1.986 . S
O147 C151 1.246 . S
O148 Mg143 2.032 . S
O148 C151 1.259 . S
O149 Mg140 2.114 . S
O149 C152 1.252 . S
O150 Mg140 2.251 . S
O150 Mg143 2.079 . S
O150 C152 1.273 . S
C151 O147 1.246 . S
C151 O148 1.259 . S
C152 O149 1.252 . S
C152 O150 1.273 . S
O153 Mg140 2.010 . S
O153 C145 1.249 . S
Mg154 O155 2.028 1_554 S
Mg154 O161 1.986 . S
Mg154 O163 2.114 1_554 S
Mg154 O164 2.251 . S
Mg154 O167 2.010 . S
O155 Mg154 2.028 1_556 S
O155 C158 1.250 . S
O156 Mg157 2.028 1_556 S
O156 C158 1.248 . S
Mg157 O156 2.028 1_554 S
Mg157 O162 2.032 . S
Mg157 O164 2.079 . S
C158 O155 1.250 . S
C158 O156 1.248 . S
C159 O160 1.264 . S
C159 O167 1.249 . S
O160 C159 1.264 . S
O161 Mg154 1.986 . S
O161 C165 1.246 . S
O162 Mg157 2.032 . S
O162 C165 1.259 . S
O163 Mg154 2.114 1_556 S
O163 C166 1.252 1_556 S
O164 Mg154 2.251 . S
O164 Mg157 2.079 . S
O164 C166 1.273 . S
C165 O161 1.246 . S
C165 O162 1.259 . S
C166 O163 1.252 1_554 S
C166 O164 1.273 . S
O167 Mg154 2.010 . S
O167 C159 1.249 . S
Mg168 O169 2.028 . S
Mg168 O175 1.986 . S
Mg168 O177 2.114 . S
Mg168 O178 2.251 . S
Mg168 O181 2.010 . S
O169 Mg168 2.028 . S
O169 C172 1.250 . S
O170 Mg171 2.028 . S
O170 C172 1.248 . S
Mg171 O170 2.028 . S
Mg171 O176 2.032 . S
Mg171 O178 2.079 . S
C172 O169 1.250 . S
C172 O170 1.248 . S
C173 O174 1.264 . S
C173 O181 1.249 . S
O174 C173 1.264 . S
O175 Mg168 1.986 . S
O175 C179 1.246 . S
O176 Mg171 2.032 . S
O176 C179 1.259 . S
O177 Mg168 2.114 . S
O177 C180 1.252 . S
O178 Mg168 2.251 . S
O178 Mg171 2.079 . S
O178 C180 1.273 . S
C179 O175 1.246 . S
C179 O176 1.259 . S
C180 O177 1.252 . S
C180 O178 1.273 . S
O181 Mg168 2.010 . S
O181 C173 1.249 . S
Mg182 O183 2.028 . S
Mg182 O189 1.986 . S
Mg182 O191 2.114 . S
Mg182 O192 2.251 . S
Mg182 O195 2.010 . S
O183 Mg182 2.028 . S
O183 C186 1.250 . S
O184 Mg185 2.028 . S
O184 C186 1.248 . S
Mg185 O184 2.028 . S
Mg185 O190 2.032 . S
Mg185 O192 2.079 . S
C186 O183 1.250 . S
C186 O184 1.248 . S
C187 O188 1.264 . S
C187 O195 1.249 . S
O188 C187 1.264 . S
O189 Mg182 1.986 . S
O189 C193 1.246 . S
O190 Mg185 2.032 . S
O190 C193 1.259 . S
O191 Mg182 2.114 . S
O191 C194 1.252 . S
O192 Mg182 2.251 . S
O192 Mg185 2.079 . S
O192 C194 1.273 . S
C193 O189 1.246 . S
C193 O190 1.259 . S
C194 O191 1.252 . S
C194 O192 1.273 . S
O195 Mg182 2.010 . S
O195 C187 1.249 . S
Mg196 O197 2.028 . S
Mg196 O203 1.986 . S
Mg196 O205 2.114 . S
Mg196 O206 2.251 . S
Mg196 O209 2.010 . S
O197 Mg196 2.028 . S
O197 C200 1.250 . S
O198 Mg199 2.028 . S
O198 C200 1.248 . S
Mg199 O198 2.028 . S
Mg199 O204 2.032 . S
Mg199 O206 2.079 . S
C200 O197 1.250 . S
C200 O198 1.248 . S
C201 O202 1.264 . S
C201 O209 1.249 . S
O202 C201 1.264 . S
O203 Mg196 1.986 . S
O203 C207 1.246 . S
O204 Mg199 2.032 . S
O204 C207 1.259 . S
O205 Mg196 2.114 . S
O205 C208 1.252 . S
O206 Mg196 2.251 . S
O206 Mg199 2.079 . S
O206 C208 1.273 . S
C207 O203 1.246 . S
C207 O204 1.259 . S
C208 O205 1.252 . S
C208 O206 1.273 . S
O209 Mg196 2.010 . S
O209 C201 1.249 . S
Mg210 O211 2.028 . S
Mg210 O217 1.986 . S
Mg210 O219 2.114 . S
Mg210 O220 2.251 . S
Mg210 O223 2.010 . S
O211 Mg210 2.028 . S
O211 C214 1.250 . S
O212 Mg213 2.028 . S
O212 C214 1.248 . S
Mg213 O212 2.028 . S
Mg213 O218 2.032 . S
Mg213 O220 2.079 . S
C214 O211 1.250 . S
C214 O212 1.248 . S
C215 O216 1.264 . S
C215 O223 1.249 . S
O216 C215 1.264 . S
O217 Mg210 1.986 . S
O217 C221 1.246 . S
O218 Mg213 2.032 . S
O218 C221 1.259 . S
O219 Mg210 2.114 . S
O219 C222 1.252 . S
O220 Mg210 2.251 . S
O220 Mg213 2.079 . S
O220 C222 1.273 . S
C221 O217 1.246 . S
C221 O218 1.259 . S
C222 O219 1.252 . S
C222 O220 1.273 . S
O223 Mg210 2.010 . S
O223 C215 1.249 . S
Mg224 O225 2.028 1_545 S
Mg224 O231 1.986 . S
Mg224 O233 2.114 . S
Mg224 O234 2.251 . S
Mg224 O237 2.010 . S
O225 Mg224 2.028 1_565 S
O225 C228 1.250 . S
O226 Mg227 2.028 1_565 S
O226 C228 1.248 . S
Mg227 O226 2.028 1_545 S
Mg227 O232 2.032 . S
Mg227 O234 2.079 . S
C228 O225 1.250 . S
C228 O226 1.248 . S
C229 O230 1.264 . S
C229 O237 1.249 . S
O230 C229 1.264 . S
O231 Mg224 1.986 . S
O231 C235 1.246 . S
O232 Mg227 2.032 . S
O232 C235 1.259 . S
O233 Mg224 2.114 . S
O233 C236 1.252 . S
O234 Mg224 2.251 . S
O234 Mg227 2.079 . S
O234 C236 1.273 . S
C235 O231 1.246 . S
C235 O232 1.259 . S
C236 O233 1.252 . S
C236 O234 1.273 . S
O237 Mg224 2.010 . S
O237 C229 1.249 . S
Mg238 O239 2.028 . S
Mg238 O245 1.986 . S
Mg238 O247 2.114 . S
Mg238 O248 2.251 . S
Mg238 O251 2.010 . S
O239 Mg238 2.028 . S
O239 C242 1.250 . S
O240 Mg241 2.028 . S
O240 C242 1.248 . S
Mg241 O240 2.028 . S
Mg241 O246 2.032 . S
Mg241 O248 2.079 . S
C242 O239 1.250 . S
C242 O240 1.248 . S
C243 O244 1.264 . S
C243 O251 1.249 . S
O244 C243 1.264 . S
O245 Mg238 1.986 . S
O245 C249 1.246 . S
O246 Mg241 2.032 . S
O246 C249 1.259 . S
O247 Mg238 2.114 . S
O247 C250 1.252 . S
O248 Mg238 2.251 . S
O248 Mg241 2.079 . S
O248 C250 1.273 . S
C249 O245 1.246 . S
C249 O246 1.259 . S
C250 O247 1.252 . S
C250 O248 1.273 . S
O251 Mg238 2.010 . S
O251 C243 1.249 . S
Mg252 O253 2.028 . S
Mg252 O259 1.986 . S
Mg252 O261 2.114 . S
Mg252 O262 2.251 . S
Mg252 O265 2.010 . S
O253 Mg252 2.028 . S
O253 C256 1.250 . S
O254 Mg255 2.028 . S
O254 C256 1.248 . S
Mg255 O254 2.028 . S
Mg255 O260 2.032 . S
Mg255 O262 2.079 . S
C256 O253 1.250 . S
C256 O254 1.248 . S
C257 O258 1.264 . S
C257 O265 1.249 . S
O258 C257 1.264 . S
O259 Mg252 1.986 . S
O259 C263 1.246 . S
O260 Mg255 2.032 . S
O260 C263 1.259 . S
O261 Mg252 2.114 . S
O261 C264 1.252 . S
O262 Mg252 2.251 . S
O262 Mg255 2.079 . S
O262 C264 1.273 . S
C263 O259 1.246 . S
C263 O260 1.259 . S
C264 O261 1.252 . S
C264 O262 1.273 . S
O265 Mg252 2.010 . S
O265 C257 1.249 . S
Mg266 O267 2.028 . S
Mg266 O273 1.986 . S
Mg266 O275 2.114 . S
Mg266 O276 2.251 . S
Mg266 O279 2.010 . S
O267 Mg266 2.028 . S
O267 C270 1.250 . S
O268 Mg269 2.028 . S
O268 C270 1.248 . S
Mg269 O268 2.028 . S
Mg269 O274 2.032 . S
Mg269 O276 2.079 . S
C270 O267 1.250 . S
C270 O268 1.248 . S
C271 O272 1.264 . S
C271 O279 1.249 . S
O272 C271 1.264 . S
O273 Mg266 1.986 . S
O273 C277 1.246 . S
O274 Mg269 2.032 . S
O274 C277 1.259 . S
O275 Mg266 2.114 . S
O275 C278 1.252 . S
O276 Mg266 2.251 . S
O276 Mg269 2.079 . S
O276 C278 1.273 . S
C277 O273 1.246 . S
C277 O274 1.259 . S
C278 O275 1.252 . S
C278 O276 1.273 . S
O279 Mg266 2.010 . S
O279 C271 1.249 . S
Mg280 O281 2.028 1_556 S
Mg280 O287 1.986 . S
Mg280 O289 2.114 1_556 S
Mg280 O290 2.251 . S
Mg280 O293 2.010 . S
O281 Mg280 2.028 1_554 S
O281 C284 1.250 . S
O282 Mg283 2.028 . S
O282 C284 1.248 . S
Mg283 O282 2.028 . S
Mg283 O288 2.032 1_554 S
Mg283 O290 2.079 1_554 S
C284 O281 1.250 . S
C284 O282 1.248 . S
C285 O286 1.264 . S
C285 O293 1.249 . S
O286 C285 1.264 . S
O287 Mg280 1.986 . S
O287 C291 1.246 . S
O288 Mg283 2.032 1_556 S
O288 C291 1.259 . S
O289 Mg280 2.114 1_554 S
O289 C292 1.252 . S
O290 Mg280 2.251 . S
O290 Mg283 2.079 1_556 S
O290 C292 1.273 1_556 S
C291 O287 1.246 . S
C291 O288 1.259 . S
C292 O289 1.252 . S
C292 O290 1.273 1_554 S
O293 Mg280 2.010 . S
O293 C285 1.249 . S
Mg294 O295 2.028 . S
Mg294 O301 1.986 . S
Mg294 O303 2.114 . S
Mg294 O304 2.251 . S
Mg294 O307 2.010 . S
O295 Mg294 2.028 . S
O295 C298 1.250 . S
O296 Mg297 2.028 . S
O296 C298 1.248 . S
Mg297 O296 2.028 . S
Mg297 O302 2.032 . S
Mg297 O304 2.079 . S
C298 O295 1.250 . S
C298 O296 1.248 . S
C299 O300 1.264 . S
C299 O307 1.249 . S
O300 C299 1.264 . S
O301 Mg294 1.986 . S
O301 C305 1.246 . S
O302 Mg297 2.032 . S
O302 C305 1.259 . S
O303 Mg294 2.114 . S
O303 C306 1.252 . S
O304 Mg294 2.251 . S
O304 Mg297 2.079 . S
O304 C306 1.273 . S
C305 O301 1.246 . S
C305 O302 1.259 . S
C306 O303 1.252 . S
C306 O304 1.273 . S
O307 Mg294 2.010 . S
O307 C299 1.249 . S
Mg308 O309 2.028 . S
Mg308 O315 1.986 . S
Mg308 O317 2.114 . S
Mg308 O318 2.251 . S
Mg308 O321 2.010 . S
O309 Mg308 2.028 . S
O309 C312 1.250 . S
O310 Mg311 2.028 . S
O310 C312 1.248 . S
Mg311 O310 2.028 . S
Mg311 O316 2.032 . S
Mg311 O318 2.079 . S
C312 O309 1.250 . S
C312 O310 1.248 . S
C313 O314 1.264 . S
C313 O321 1.249 . S
O314 C313 1.264 . S
O315 Mg308 1.986 . S
O315 C319 1.246 . S
O316 Mg311 2.032 . S
O316 C319 1.259 . S
O317 Mg308 2.114 . S
O317 C320 1.252 . S
O318 Mg308 2.251 . S
O318 Mg311 2.079 . S
O318 C320 1.273 . S
C319 O315 1.246 . S
C319 O316 1.259 . S
C320 O317 1.252 . S
C320 O318 1.273 . S
O321 Mg308 2.010 . S
O321 C313 1.249 . S
Mg322 O323 2.028 . S
Mg322 O329 1.986 . S
Mg322 O331 2.114 . S
Mg322 O332 2.251 . S
Mg322 O335 2.010 . S
O323 Mg322 2.028 . S
O323 C326 1.250 . S
O324 Mg325 2.028 . S
O324 C326 1.248 . S
Mg325 O324 2.028 . S
Mg325 O330 2.032 . S
Mg325 O332 2.079 . S
C326 O323 1.250 . S
C326 O324 1.248 . S
C327 O328 1.264 . S
C327 O335 1.249 . S
O328 C327 1.264 . S
O329 Mg322 1.986 . S
O329 C333 1.246 . S
O330 Mg325 2.032 . S
O330 C333 1.259 . S
O331 Mg322 2.114 . S
O331 C334 1.252 . S
O332 Mg322 2.251 . S
O332 Mg325 2.079 . S
O332 C334 1.273 . S
C333 O329 1.246 . S
C333 O330 1.259 . S
C334 O331 1.252 . S
C334 O332 1.273 . S
O335 Mg322 2.010 . S
O335 C327 1.249 . S
Tb336 N365 2.617 . S
Tb336 N371 2.572 . S
Tb336 O380 2.465 . S
Tb336 O381 2.387 . S
Tb336 O383 2.428 . S
Tb336 O384 2.308 1_554 S
Tb336 O388 2.349 1_545 S
Tb336 O391 2.393 . S
Tb336 C400 2.802 . S
C337 N338 1.379 . S
C337 C340 1.416 . S
C337 C344 1.424 . S
N338 C337 1.379 . S
N338 C341 1.334 . S
N338 Tb347 2.649 1_565 S
C339 C341 1.390 . S
C339 C342 1.339 . S
C339 H359 0.930 . S
C340 C337 1.416 . S
C340 C342 1.416 . S
C340 C346 1.448 . S
C341 N338 1.334 . S
C341 C339 1.390 . S
C341 H352 0.930 . S
C342 C339 1.339 . S
C342 C340 1.416 . S
C342 H363 0.930 . S
C343 C344 1.392 1_554 S
C343 C345 1.400 1_554 S
C343 C349 1.464 . S
C344 C337 1.424 . S
C344 C343 1.392 1_556 S
C344 N348 1.361 1_556 S
C345 C343 1.400 1_556 S
C345 C346 1.328 . S
C345 H360 0.929 . S
C346 C340 1.448 . S
C346 C345 1.328 . S
C346 H361 0.930 . S
Tb347 N338 2.649 1_545 S
Tb347 N348 2.550 1_546 S
Tb347 O382 2.352 1_656 S
Tb347 O385 2.435 1_655 S
Tb347 O386 2.448 1_556 S
Tb347 O387 2.375 1_646 S
Tb347 O389 2.457 . S
Tb347 O390 2.258 1_656 S
Tb347 C411 2.809 . S
N348 C344 1.361 1_554 S
N348 Tb347 2.550 1_564 S
N348 C350 1.340 . S
C349 C343 1.464 . S
C349 C351 1.332 . S
C349 H357 0.931 . S
C350 N348 1.340 . S
C350 C351 1.407 . S
C350 H356 0.930 . S
C351 C349 1.332 . S
C351 C350 1.407 . S
C351 H353 0.929 . S
H352 C341 0.930 . S
H353 C351 0.929 . S
H354 C369 0.930 . S
H355 C376 0.929 . S
H356 C350 0.930 . S
H357 C349 0.931 . S
H358 C372 0.930 1_556 S
H359 C339 0.930 . S
H360 C345 0.929 . S
H361 C346 0.930 . S
H362 C367 0.930 . S
H363 C342 0.930 . S
H364 C375 0.931 . S
N365 Tb336 2.617 . S
N365 C366 1.379 . S
N365 C369 1.334 . S
C366 N365 1.379 . S
C366 C368 1.416 . S
C366 C374 1.424 . S
C367 H362 0.930 . S
C367 C369 1.390 . S
C367 C370 1.339 . S
C368 C366 1.416 . S
C368 C370 1.416 . S
C368 C401 1.448 . S
C369 H354 0.930 . S
C369 N365 1.334 . S
C369 C367 1.390 . S
C370 C367 1.339 . S
C370 C368 1.416 . S
C370 H377 0.930 . S
N371 Tb336 2.572 . S
N371 C372 1.340 . S
N371 C374 1.361 . S
C372 H358 0.930 1_554 S
C372 N371 1.340 . S
C372 C376 1.407 1_554 S
C373 C374 1.413 . S
C373 C375 1.416 . S
C373 C402 1.427 . S
C374 C366 1.424 . S
C374 N371 1.361 . S
C374 C373 1.413 . S
C375 H364 0.931 . S
C375 C373 1.416 . S
C375 C376 1.332 1_554 S
C376 H355 0.929 . S
C376 C372 1.407 1_556 S
C376 C375 1.332 1_556 S
H377 C370 0.930 . S
H378 C401 0.930 . S
H379 C402 0.929 . S
O380 Tb336 2.465 . S
O380 C400 1.264 . S
O381 Tb336 2.387 . S
O381 C392 1.264 . S
O382 Tb347 2.352 1_454 S
O382 C392 1.243 . S
O383 Tb336 2.428 . S
O383 C400 1.256 . S
O384 Tb336 2.308 1_556 S
O384 C399 1.266 . S
O385 Tb347 2.435 1_455 S
O385 C399 1.248 . S
O386 Tb347 2.448 1_554 S
O386 C411 1.264 1_554 S
O387 Tb347 2.375 1_464 S
O387 C403 1.264 . S
O388 Tb336 2.349 1_565 S
O388 C403 1.243 . S
O389 Tb347 2.457 . S
O389 C411 1.256 . S
O390 Tb347 2.258 1_454 S
O390 C410 1.266 . S
O391 Tb336 2.393 . S
O391 C410 1.248 . S
C392 O381 1.264 . S
C392 O382 1.243 . S
C393 C396 1.399 . S
C393 C398 1.383 . S
C393 C400 1.496 . S
C394 C395 1.411 1_565 S
C394 C398 1.372 1_565 S
C395 C394 1.411 1_545 S
C395 C397 1.390 . S
C395 H412 0.914 1_545 S
C396 C393 1.399 . S
C396 C397 1.392 . S
C396 H413 0.929 . S
C397 C395 1.390 . S
C397 C396 1.392 . S
C397 H414 0.929 . S
C398 C393 1.383 . S
C398 C394 1.372 1_545 S
C398 H415 0.931 . S
C399 O384 1.266 . S
C399 O385 1.248 . S
C400 Tb336 2.802 . S
C400 O380 1.264 . S
C400 O383 1.256 . S
C400 C393 1.496 . S
C401 C368 1.448 . S
C401 H378 0.930 . S
C401 C402 1.328 . S
C402 C373 1.427 . S
C402 H379 0.929 . S
C402 C401 1.328 . S
C403 O387 1.264 . S
C403 O388 1.243 . S
C404 C407 1.399 . S
C404 C408 1.383 1_556 S
C404 C411 1.496 . S
C405 C406 1.376 1_554 S
C405 C408 1.393 . S
C406 C405 1.376 1_556 S
C406 C409 1.380 . S
C406 H416 0.929 . S
C407 C404 1.399 . S
C407 C409 1.392 . S
C407 H417 0.929 . S
C408 C404 1.383 1_554 S
C408 C405 1.393 . S
C408 H418 0.931 . S
C409 C406 1.380 . S
C409 C407 1.392 . S
C409 H419 0.929 . S
C410 O390 1.266 . S
C410 O391 1.248 . S
C411 Tb347 2.809 . S
C411 O386 1.264 1_556 S
C411 O389 1.256 . S
C411 C404 1.496 . S
H412 C395 0.914 1_565 S
H413 C396 0.929 . S
H414 C397 0.929 . S
H415 C398 0.931 . S
H416 C406 0.929 . S
H417 C407 0.929 . S
H418 C408 0.931 . S
H419 C409 0.929 . S
Tb420 N449 2.617 . S
Tb420 N455 2.572 . S
Tb420 O464 2.465 . S
Tb420 O465 2.387 . S
Tb420 O467 2.428 . S
Tb420 O468 2.308 . S
Tb420 O472 2.349 . S
Tb420 O475 2.393 . S
Tb420 C484 2.802 . S
C421 N422 1.379 . S
C421 C424 1.416 . S
C421 C428 1.424 . S
N422 C421 1.379 . S
N422 C425 1.334 . S
N422 Tb431 2.617 . S
C423 C425 1.390 . S
C423 C426 1.339 . S
C423 H443 0.930 . S
C424 C421 1.416 . S
C424 C426 1.416 . S
C424 C430 1.448 . S
C425 N422 1.334 . S
C425 C423 1.390 . S
C425 H436 0.930 . S
C426 C423 1.339 . S
C426 C424 1.416 . S
C426 H447 0.930 . S
C427 C428 1.413 . S
C427 C429 1.427 . S
C427 C433 1.416 . S
C428 C421 1.424 . S
C428 C427 1.413 . S
C428 N432 1.361 . S
C429 C427 1.427 . S
C429 C430 1.328 . S
C429 H444 0.929 . S
C430 C424 1.448 . S
C430 C429 1.328 . S
C430 H445 0.930 . S
Tb431 N422 2.617 . S
Tb431 N432 2.572 . S
Tb431 O466 2.349 . S
Tb431 O469 2.393 . S
Tb431 O470 2.465 . S
Tb431 O471 2.387 . S
Tb431 O473 2.428 . S
Tb431 O474 2.308 . S
Tb431 C495 2.802 . S
N432 C428 1.361 . S
N432 Tb431 2.572 . S
N432 C434 1.340 . S
C433 C427 1.416 . S
C433 C435 1.332 . S
C433 H441 0.931 . S
C434 N432 1.340 . S
C434 C435 1.407 . S
C434 H440 0.930 . S
C435 C433 1.332 . S
C435 C434 1.407 . S
C435 H437 0.929 . S
H436 C425 0.930 . S
H437 C435 0.929 . S
H438 C453 0.930 . S
H439 C460 0.929 . S
H440 C434 0.930 . S
H441 C433 0.931 . S
H442 C456 0.930 . S
H443 C423 0.930 . S
H444 C429 0.929 . S
H445 C430 0.930 . S
H446 C451 0.930 . S
H447 C426 0.930 . S
H448 C459 0.931 . S
N449 Tb420 2.617 . S
N449 C450 1.379 . S
N449 C453 1.334 . S
C450 N449 1.379 . S
C450 C452 1.416 . S
C450 C458 1.424 . S
C451 H446 0.930 . S
C451 C453 1.390 . S
C451 C454 1.339 . S
C452 C450 1.416 . S
C452 C454 1.416 . S
C452 C485 1.448 . S
C453 H438 0.930 . S
C453 N449 1.334 . S
C453 C451 1.390 . S
C454 C451 1.339 . S
C454 C452 1.416 . S
C454 H461 0.930 . S
N455 Tb420 2.572 . S
N455 C456 1.340 . S
N455 C458 1.361 . S
C456 H442 0.930 . S
C456 N455 1.340 . S
C456 C460 1.407 . S
C457 C458 1.413 . S
C457 C459 1.416 . S
C457 C486 1.427 . S
C458 C450 1.424 . S
C458 N455 1.361 . S
C458 C457 1.413 . S
C459 H448 0.931 . S
C459 C457 1.416 . S
C459 C460 1.332 . S
C460 H439 0.929 . S
C460 C456 1.407 . S
C460 C459 1.332 . S
H461 C454 0.930 . S
H462 C485 0.930 . S
H463 C486 0.929 . S
O464 Tb420 2.465 . S
O464 C484 1.264 . S
O465 Tb420 2.387 . S
O465 C476 1.264 . S
O466 Tb431 2.349 . S
O466 C476 1.243 . S
O467 Tb420 2.428 . S
O467 C484 1.256 . S
O468 Tb420 2.308 . S
O468 C483 1.266 . S
O469 Tb431 2.393 . S
O469 C483 1.248 . S
O470 Tb431 2.465 . S
O470 C495 1.264 . S
O471 Tb431 2.387 . S
O471 C487 1.264 . S
O472 Tb420 2.349 . S
O472 C487 1.243 . S
O473 Tb431 2.428 . S
O473 C495 1.256 . S
O474 Tb431 2.308 . S
O474 C494 1.266 . S
O475 Tb420 2.393 . S
O475 C494 1.248 . S
C476 O465 1.264 . S
C476 O466 1.243 . S
C477 C480 1.399 . S
C477 C482 1.383 . S
C477 C484 1.496 . S
C478 C479 1.399 . S
C478 C482 1.389 . S
C479 C478 1.399 . S
C479 C481 1.380 . S
C479 H496 0.929 . S
C480 C477 1.399 . S
C480 C481 1.392 . S
C480 H497 0.929 . S
C481 C479 1.380 . S
C481 C480 1.392 . S
C481 H498 0.929 . S
C482 C477 1.383 . S
C482 C478 1.389 . S
C482 H499 0.931 . S
C483 O468 1.266 . S
C483 O469 1.248 . S
C484 Tb420 2.802 . S
C484 O464 1.264 . S
C484 O467 1.256 . S
C484 C477 1.496 . S
C485 C452 1.448 . S
C485 H462 0.930 . S
C485 C486 1.328 . S
C486 C457 1.427 . S
C486 H463 0.929 . S
C486 C485 1.328 . S
C487 O471 1.264 . S
C487 O472 1.243 . S
C488 C491 1.399 . S
C488 C492 1.383 . S
C488 C495 1.496 . S
C489 C490 1.399 . S
C489 C492 1.389 . S
C490 C489 1.399 . S
C490 C493 1.380 . S
C490 H500 0.929 . S
C491 C488 1.399 . S
C491 C493 1.392 . S
C491 H501 0.929 . S
C492 C488 1.383 . S
C492 C489 1.389 . S
C492 H502 0.931 . S
C493 C490 1.380 . S
C493 C491 1.392 . S
C493 H503 0.929 . S
C494 O474 1.266 . S
C494 O475 1.248 . S
C495 Tb431 2.802 . S
C495 O470 1.264 . S
C495 O473 1.256 . S
C495 C488 1.496 . S
H496 C479 0.929 . S
H497 C480 0.929 . S
H498 C481 0.929 . S
H499 C482 0.931 . S
H500 C490 0.929 . S
H501 C491 0.929 . S
H502 C492 0.931 . S
H503 C493 0.929 . S
Tb504 N533 2.617 1_545 S
Tb504 N539 2.572 1_545 S
Tb504 O548 2.465 . S
Tb504 O549 2.387 1_545 S
Tb504 O551 2.428 . S
Tb504 O552 2.308 . S
Tb504 O556 2.349 . S
Tb504 O559 2.393 . S
Tb504 C568 2.802 . S
C505 N506 1.379 . S
C505 C508 1.416 . S
C505 C512 1.424 . S
N506 C505 1.379 . S
N506 C509 1.334 . S
N506 Tb515 2.617 . S
C507 C509 1.390 . S
C507 C510 1.339 . S
C507 H527 0.930 . S
C508 C505 1.416 . S
C508 C510 1.416 . S
C508 C514 1.448 . S
C509 N506 1.334 . S
C509 C507 1.390 . S
C509 H520 0.930 . S
C510 C507 1.339 . S
C510 C508 1.416 . S
C510 H531 0.930 . S
C511 C512 1.413 . S
C511 C513 1.427 . S
C511 C517 1.416 . S
C512 C505 1.424 . S
C512 C511 1.413 . S
C512 N516 1.361 . S
C513 C511 1.427 . S
C513 C514 1.328 . S
C513 H528 0.929 . S
C514 C508 1.448 . S
C514 C513 1.328 . S
C514 H529 0.930 . S
Tb515 N506 2.617 . S
Tb515 N516 2.572 . S
Tb515 O550 2.349 1_545 S
Tb515 O553 2.393 . S
Tb515 O554 2.465 . S
Tb515 O555 2.387 . S
Tb515 O557 2.428 . S
Tb515 O558 2.308 . S
Tb515 C579 2.802 . S
N516 C512 1.361 . S
N516 Tb515 2.572 . S
N516 C518 1.340 . S
C517 C511 1.416 . S
C517 C519 1.332 . S
C517 H525 0.931 . S
C518 N516 1.340 . S
C518 C519 1.407 . S
C518 H524 0.930 . S
C519 C517 1.332 . S
C519 C518 1.407 . S
C519 H521 0.929 . S
H520 C509 0.930 . S
H521 C519 0.929 . S
H522 C537 0.930 . S
H523 C544 0.929 . S
H524 C518 0.930 . S
H525 C517 0.931 . S
H526 C540 0.969 . S
H527 C507 0.930 . S
H528 C513 0.929 . S
H529 C514 0.930 . S
H530 C535 0.930 . S
H531 C510 0.930 . S
H532 C543 0.931 . S
N533 Tb504 2.617 1_565 S
N533 C534 1.379 . S
N533 C537 1.334 1_565 S
C534 N533 1.379 . S
C534 C536 1.416 . S
C534 C542 1.424 . S
C535 H530 0.930 . S
C535 C537 1.390 1_565 S
C535 C538 1.339 . S
C536 C534 1.416 . S
C536 C538 1.416 . S
C536 C569 1.448 . S
C537 H522 0.930 . S
C537 N533 1.334 1_545 S
C537 C535 1.390 1_545 S
C538 C535 1.339 . S
C538 C536 1.416 . S
C538 H545 0.930 . S
N539 Tb504 2.572 1_565 S
N539 C540 1.340 . S
N539 C542 1.361 . S
C540 H526 0.969 . S
C540 N539 1.340 . S
C540 C544 1.407 . S
C541 C542 1.413 . S
C541 C543 1.416 . S
C541 C570 1.427 . S
C542 C534 1.424 . S
C542 N539 1.361 . S
C542 C541 1.413 . S
C543 H532 0.931 . S
C543 C541 1.416 . S
C543 C544 1.332 . S
C544 H523 0.929 . S
C544 C540 1.407 . S
C544 C543 1.332 . S
H545 C538 0.930 . S
H546 C569 0.930 . S
H547 C570 0.929 . S
O548 Tb504 2.465 . S
O548 C568 1.264 . S
O549 Tb504 2.387 1_565 S
O549 C560 1.264 . S
O550 Tb515 2.349 1_565 S
O550 C560 1.243 . S
O551 Tb504 2.428 . S
O551 C568 1.256 . S
O552 Tb504 2.308 . S
O552 C567 1.266 . S
O553 Tb515 2.393 . S
O553 C567 1.248 . S
O554 Tb515 2.465 . S
O554 C579 1.264 . S
O555 Tb515 2.387 . S
O555 C571 1.264 . S
O556 Tb504 2.349 . S
O556 C571 1.243 . S
O557 Tb515 2.428 . S
O557 C579 1.256 . S
O558 Tb515 2.308 . S
O558 C578 1.266 . S
O559 Tb504 2.393 . S
O559 C578 1.248 . S
C560 O549 1.264 . S
C560 O550 1.243 . S
C561 C564 1.399 . S
C561 C566 1.383 . S
C561 C568 1.496 . S
C562 C563 1.399 . S
C562 C566 1.389 . S
C563 C562 1.399 . S
C563 C565 1.380 . S
C563 H580 0.929 . S
C564 C561 1.399 . S
C564 C565 1.392 . S
C564 H581 0.929 . S
C565 C563 1.380 . S
C565 C564 1.392 . S
C565 H582 0.929 . S
C566 C561 1.383 . S
C566 C562 1.389 . S
C566 H583 0.931 . S
C567 O552 1.266 . S
C567 O553 1.248 . S
C568 Tb504 2.802 . S
C568 O548 1.264 . S
C568 O551 1.256 . S
C568 C561 1.496 . S
C569 C536 1.448 . S
C569 H546 0.930 . S
C569 C570 1.328 . S
C570 C541 1.427 . S
C570 H547 0.929 . S
C570 C569 1.328 . S
C571 O555 1.264 . S
C571 O556 1.243 . S
C572 C575 1.399 . S
C572 C576 1.383 . S
C572 C579 1.496 1_565 S
C573 C574 1.399 . S
C573 C576 1.389 . S
C574 C573 1.399 . S
C574 C577 1.380 . S
C574 H584 0.929 . S
C575 C572 1.399 . S
C575 C577 1.392 . S
C575 H585 0.929 . S
C576 C572 1.383 . S
C576 C573 1.389 . S
C576 H586 0.931 . S
C577 C574 1.380 . S
C577 C575 1.392 . S
C577 H587 0.929 . S
C578 O558 1.266 . S
C578 O559 1.248 . S
C579 Tb515 2.802 . S
C579 O554 1.264 . S
C579 O557 1.256 . S
C579 C572 1.496 1_545 S
H580 C563 0.929 . S
H581 C564 0.929 . S
H582 C565 0.929 . S
H583 C566 0.931 . S
H584 C574 0.929 . S
H585 C575 0.929 . S
H586 C576 0.931 . S
H587 C577 0.929 . S
Tb588 N617 2.617 . S
Tb588 N623 2.572 . S
Tb588 O632 2.465 . S
Tb588 O633 2.387 . S
Tb588 O635 2.428 . S
Tb588 O636 2.308 . S
Tb588 O640 2.349 . S
Tb588 O643 2.393 . S
Tb588 C652 2.802 . S
C589 N590 1.379 . S
C589 C592 1.416 . S
C589 C596 1.424 . S
N590 C589 1.379 . S
N590 C593 1.334 . S
N590 Tb599 2.617 . S
C591 C593 1.390 . S
C591 C594 1.339 . S
C591 H611 0.930 . S
C592 C589 1.416 . S
C592 C594 1.416 . S
C592 C598 1.448 . S
C593 N590 1.334 . S
C593 C591 1.390 . S
C593 H604 0.930 . S
C594 C591 1.339 . S
C594 C592 1.416 . S
C594 H615 0.930 . S
C595 C596 1.413 . S
C595 C597 1.427 . S
C595 C601 1.416 . S
C596 C589 1.424 . S
C596 C595 1.413 . S
C596 N600 1.361 . S
C597 C595 1.427 . S
C597 C598 1.328 . S
C597 H612 0.929 . S
C598 C592 1.448 . S
C598 C597 1.328 . S
C598 H613 0.930 . S
Tb599 N590 2.617 . S
Tb599 N600 2.572 . S
Tb599 O634 2.349 . S
Tb599 O637 2.393 . S
Tb599 O638 2.465 . S
Tb599 O639 2.387 . S
Tb599 O641 2.428 . S
Tb599 O642 2.308 . S
Tb599 C663 2.802 . S
N600 C596 1.361 . S
N600 Tb599 2.572 . S
N600 C602 1.340 . S
C601 C595 1.416 . S
C601 C603 1.332 . S
C601 H609 0.931 . S
C602 N600 1.340 . S
C602 C603 1.407 . S
C602 H608 0.930 . S
C603 C601 1.332 . S
C603 C602 1.407 . S
C603 H605 0.929 . S
H604 C593 0.930 . S
H605 C603 0.929 . S
H606 C621 0.930 . S
H607 C628 0.929 . S
H608 C602 0.930 . S
H609 C601 0.931 . S
H610 C624 0.930 . S
H611 C591 0.930 . S
H612 C597 0.929 . S
H613 C598 0.930 . S
H614 C619 0.930 . S
H615 C594 0.930 . S
H616 C627 0.931 . S
N617 Tb588 2.617 . S
N617 C618 1.379 . S
N617 C621 1.334 . S
C618 N617 1.379 . S
C618 C620 1.416 . S
C618 C626 1.424 . S
C619 H614 0.930 . S
C619 C621 1.390 . S
C619 C622 1.339 . S
C620 C618 1.416 . S
C620 C622 1.416 . S
C620 C653 1.448 . S
C621 H606 0.930 . S
C621 N617 1.334 . S
C621 C619 1.390 . S
C622 C619 1.339 . S
C622 C620 1.416 . S
C622 H629 0.930 . S
N623 Tb588 2.572 . S
N623 C624 1.340 . S
N623 C626 1.361 . S
C624 H610 0.930 . S
C624 N623 1.340 . S
C624 C628 1.407 . S
C625 C626 1.413 . S
C625 C627 1.416 . S
C625 C654 1.427 . S
C626 C618 1.424 . S
C626 N623 1.361 . S
C626 C625 1.413 . S
C627 H616 0.931 . S
C627 C625 1.416 . S
C627 C628 1.332 . S
C628 H607 0.929 . S
C628 C624 1.407 . S
C628 C627 1.332 . S
H629 C622 0.930 . S
H630 C653 0.930 . S
H631 C654 0.929 . S
O632 Tb588 2.465 . S
O632 C652 1.264 . S
O633 Tb588 2.387 . S
O633 C644 1.264 . S
O634 Tb599 2.349 . S
O634 C644 1.243 . S
O635 Tb588 2.428 . S
O635 C652 1.256 . S
O636 Tb588 2.308 . S
O636 C651 1.266 . S
O637 Tb599 2.393 . S
O637 C651 1.248 . S
O638 Tb599 2.465 . S
O638 C663 1.264 . S
O639 Tb599 2.387 . S
O639 C655 1.264 . S
O640 Tb588 2.349 . S
O640 C655 1.243 . S
O641 Tb599 2.428 . S
O641 C663 1.256 . S
O642 Tb599 2.308 . S
O642 C662 1.266 . S
O643 Tb588 2.393 . S
O643 C662 1.248 . S
C644 O633 1.264 . S
C644 O634 1.243 . S
C645 C648 1.399 . S
C645 C650 1.383 . S
C645 C652 1.496 . S
C646 C647 1.399 . S
C646 C650 1.389 . S
C647 C646 1.399 . S
C647 C649 1.380 . S
C647 H664 0.929 . S
C648 C645 1.399 . S
C648 C649 1.392 . S
C648 H665 0.929 . S
C649 C647 1.380 . S
C649 C648 1.392 . S
C649 H666 0.929 . S
C650 C645 1.383 . S
C650 C646 1.389 . S
C650 H667 0.931 . S
C651 O636 1.266 . S
C651 O637 1.248 . S
C652 Tb588 2.802 . S
C652 O632 1.264 . S
C652 O635 1.256 . S
C652 C645 1.496 . S
C653 C620 1.448 . S
C653 H630 0.930 . S
C653 C654 1.328 . S
C654 C625 1.427 . S
C654 H631 0.929 . S
C654 C653 1.328 . S
C655 O639 1.264 . S
C655 O640 1.243 . S
C656 C659 1.399 . S
C656 C660 1.383 . S
C656 C663 1.496 . S
C657 C658 1.399 . S
C657 C660 1.389 . S
C658 C657 1.399 . S
C658 C661 1.380 . S
C658 H668 0.929 . S
C659 C656 1.399 . S
C659 C661 1.392 . S
C659 H669 0.929 . S
C660 C656 1.383 . S
C660 C657 1.389 . S
C660 H670 0.931 . S
C661 C658 1.380 . S
C661 C659 1.392 . S
C661 H671 0.929 . S
C662 O642 1.266 . S
C662 O643 1.248 . S
C663 Tb599 2.802 . S
C663 O638 1.264 . S
C663 O641 1.256 . S
C663 C656 1.496 . S
H664 C647 0.929 . S
H665 C648 0.929 . S
H666 C649 0.929 . S
H667 C650 0.931 . S
H668 C658 0.929 . S
H669 C659 0.929 . S
H670 C660 0.931 . S
H671 C661 0.929 . S
Tb672 N701 2.617 . S
Tb672 N707 2.572 . S
Tb672 O716 2.465 . S
Tb672 O717 2.387 1_565 S
Tb672 O719 2.428 . S
Tb672 O720 2.248 1_465 S
Tb672 O724 2.349 1_565 S
Tb672 O727 2.393 1_565 S
Tb672 C736 2.802 . S
C673 N674 1.381 . S
C673 C676 1.421 . S
C673 C680 1.416 1_655 S
N674 C673 1.381 . S
N674 C677 1.334 . S
N674 Tb683 2.617 1_655 S
C675 C677 1.390 . S
C675 C678 1.339 . S
C675 H695 0.930 . S
C676 C673 1.421 . S
C676 C678 1.416 . S
C676 C682 1.431 1_655 S
C677 N674 1.334 . S
C677 C675 1.390 . S
C677 H688 0.930 . S
C678 C675 1.339 . S
C678 C676 1.416 . S
C678 H699 0.930 . S
C679 C680 1.413 . S
C679 C681 1.427 . S
C679 C685 1.416 . S
C680 C673 1.416 1_455 S
C680 C679 1.413 . S
C680 N684 1.361 . S
C681 C679 1.427 . S
C681 C682 1.381 . S
C681 H696 0.929 . S
C682 C676 1.431 1_455 S
C682 C681 1.381 . S
C682 H697 0.897 1_455 S
Tb683 N674 2.617 1_455 S
Tb683 N684 2.572 . S
Tb683 O718 2.349 . S
Tb683 O721 2.393 1_455 S
Tb683 O722 2.465 . S
Tb683 O723 2.387 . S
Tb683 O725 2.428 1_455 S
Tb683 O726 2.308 . S
Tb683 C747 2.802 . S
N684 C680 1.361 . S
N684 Tb683 2.572 . S
N684 C686 1.340 . S
C685 C679 1.416 . S
C685 C687 1.332 . S
C685 H693 0.931 . S
C686 N684 1.340 . S
C686 C687 1.407 . S
C686 H692 0.930 . S
C687 C685 1.332 . S
C687 C686 1.407 . S
C687 H689 0.929 . S
H688 C677 0.930 . S
H689 C687 0.929 . S
H690 C705 0.930 1_545 S
H691 C712 0.929 . S
H692 C686 0.930 . S
H693 C685 0.931 . S
H694 C708 0.930 . S
H695 C675 0.930 . S
H696 C681 0.929 . S
H697 C682 0.897 1_655 S
H698 C703 0.930 . S
H699 C678 0.930 . S
H700 C711 0.931 . S
N701 Tb672 2.617 . S
N701 C702 1.379 . S
N701 C705 1.334 . S
C702 N701 1.379 . S
C702 C704 1.416 . S
C702 C710 1.424 . S
C703 H698 0.930 . S
C703 C705 1.390 . S
C703 C706 1.339 . S
C704 C702 1.416 . S
C704 C706 1.416 . S
C704 C737 1.448 . S
C705 H690 0.930 1_565 S
C705 N701 1.334 . S
C705 C703 1.390 . S
C706 C703 1.339 . S
C706 C704 1.416 . S
C706 H713 0.930 . S
N707 Tb672 2.572 . S
N707 C708 1.340 1_455 S
N707 C710 1.361 . S
C708 H694 0.930 . S
C708 N707 1.340 1_655 S
C708 C712 1.407 . S
C709 C710 1.413 . S
C709 C711 1.416 1_455 S
C709 C738 1.427 . S
C710 C702 1.424 . S
C710 N707 1.361 . S
C710 C709 1.413 . S
C711 H700 0.931 . S
C711 C709 1.416 1_655 S
C711 C712 1.332 . S
C712 H691 0.929 . S
C712 C708 1.407 . S
C712 C711 1.332 . S
H713 C706 0.930 . S
H714 C737 0.930 . S
H715 C738 0.929 . S
O716 Tb672 2.465 . S
O716 C736 1.264 . S
O717 Tb672 2.387 1_545 S
O717 C728 1.264 . S
O718 Tb683 2.349 . S
O718 C728 1.243 . S
O719 Tb672 2.428 . S
O719 C736 1.256 . S
O720 Tb672 2.248 1_645 S
O720 C735 1.321 . S
O721 Tb683 2.393 1_655 S
O721 C735 1.248 . S
O722 Tb683 2.465 . S
O722 C747 1.264 . S
O723 Tb683 2.387 . S
O723 C739 1.264 . S
O724 Tb672 2.349 1_545 S
O724 C739 1.243 . S
O725 Tb683 2.428 1_655 S
O725 C747 1.256 1_655 S
O726 Tb683 2.308 . S
O726 C746 1.266 . S
O727 Tb672 2.393 1_545 S
O727 C746 1.248 . S
C728 O717 1.264 . S
C728 O718 1.243 . S
C729 C732 1.399 . S
C729 C734 1.383 . S
C729 C736 1.496 . S
C730 C731 1.399 . S
C730 C734 1.389 . S
C731 C730 1.399 . S
C731 C733 1.380 . S
C731 H748 0.929 . S
C732 C729 1.399 . S
C732 C733 1.392 . S
C732 H749 0.929 . S
C733 C731 1.380 . S
C733 C732 1.392 . S
C733 H750 0.929 . S
C734 C729 1.383 . S
C734 C730 1.389 . S
C734 H751 0.931 . S
C735 O720 1.321 . S
C735 O721 1.248 . S
C736 Tb672 2.802 . S
C736 O716 1.264 . S
C736 O719 1.256 . S
C736 C729 1.496 . S
C737 C704 1.448 . S
C737 H714 0.930 . S
C737 C738 1.328 . S
C738 C709 1.427 . S
C738 H715 0.929 . S
C738 C737 1.328 . S
C739 O723 1.264 . S
C739 O724 1.243 . S
C740 C743 1.399 1_455 S
C740 C744 1.383 . S
C740 C747 1.496 . S
C741 C742 1.399 1_455 S
C741 C744 1.389 . S
C742 C741 1.399 1_655 S
C742 C745 1.380 . S
C742 H752 0.929 . S
C743 C740 1.399 1_655 S
C743 C745 1.392 . S
C743 H753 0.929 . S
C744 C740 1.383 . S
C744 C741 1.389 . S
C744 H754 0.931 . S
C745 C742 1.380 . S
C745 C743 1.392 . S
C745 H755 0.929 . S
C746 O726 1.266 . S
C746 O727 1.248 . S
C747 Tb683 2.802 . S
C747 O722 1.264 . S
C747 O725 1.256 1_455 S
C747 C740 1.496 . S
H748 C731 0.929 . S
H749 C732 0.929 . S
H750 C733 0.929 . S
H751 C734 0.931 . S
H752 C742 0.929 . S
H753 C743 0.929 . S
H754 C744 0.931 . S
H755 C745 0.929 . S
Tb756 N785 2.617 . S
Tb756 N791 2.572 . S
Tb756 O800 2.465 . S
Tb756 O801 2.387 . S
Tb756 O803 2.428 . S
Tb756 O804 2.308 . S
Tb756 O808 2.349 . S
Tb756 O811 2.393 . S
Tb756 C820 2.802 . S
C757 N758 1.379 . S
C757 C760 1.416 . S
C757 C764 1.424 . S
N758 C757 1.379 . S
N758 C761 1.334 . S
N758 Tb767 2.617 . S
C759 C761 1.390 . S
C759 C762 1.339 . S
C759 H779 0.930 . S
C760 C757 1.416 . S
C760 C762 1.416 . S
C760 C766 1.448 . S
C761 N758 1.334 . S
C761 C759 1.390 . S
C761 H772 0.930 . S
C762 C759 1.339 . S
C762 C760 1.416 . S
C762 H783 0.930 . S
C763 C764 1.413 . S
C763 C765 1.427 . S
C763 C769 1.416 . S
C764 C757 1.424 . S
C764 C763 1.413 . S
C764 N768 1.361 . S
C765 C763 1.427 . S
C765 C766 1.328 . S
C765 H780 0.929 . S
C766 C760 1.448 . S
C766 C765 1.328 . S
C766 H781 0.930 . S
Tb767 N758 2.617 . S
Tb767 N768 2.572 . S
Tb767 O802 2.349 . S
Tb767 O805 2.393 . S
Tb767 O806 2.465 . S
Tb767 O807 2.387 . S
Tb767 O809 2.428 . S
Tb767 O810 2.308 . S
Tb767 C831 2.802 . S
N768 C764 1.361 . S
N768 Tb767 2.572 . S
N768 C770 1.340 . S
C769 C763 1.416 . S
C769 C771 1.332 . S
C769 H777 0.931 . S
C770 N768 1.340 . S
C770 C771 1.407 . S
C770 H776 0.930 . S
C771 C769 1.332 . S
C771 C770 1.407 . S
C771 H773 0.929 . S
H772 C761 0.930 . S
H773 C771 0.929 . S
H774 C789 0.930 . S
H775 C796 0.929 . S
H776 C770 0.930 . S
H777 C769 0.931 . S
H778 C792 0.930 . S
H779 C759 0.930 . S
H780 C765 0.929 . S
H781 C766 0.930 . S
H782 C787 0.930 . S
H783 C762 0.930 . S
H784 C795 0.931 . S
N785 Tb756 2.617 . S
N785 C786 1.379 . S
N785 C789 1.334 . S
C786 N785 1.379 . S
C786 C788 1.416 . S
C786 C794 1.424 . S
C787 H782 0.930 . S
C787 C789 1.390 . S
C787 C790 1.339 . S
C788 C786 1.416 . S
C788 C790 1.416 . S
C788 C821 1.448 . S
C789 H774 0.930 . S
C789 N785 1.334 . S
C789 C787 1.390 . S
C790 C787 1.339 . S
C790 C788 1.416 . S
C790 H797 0.930 . S
N791 Tb756 2.572 . S
N791 C792 1.340 . S
N791 C794 1.361 . S
C792 H778 0.930 . S
C792 N791 1.340 . S
C792 C796 1.407 . S
C793 C794 1.413 . S
C793 C795 1.416 . S
C793 C822 1.427 . S
C794 C786 1.424 . S
C794 N791 1.361 . S
C794 C793 1.413 . S
C795 H784 0.931 . S
C795 C793 1.416 . S
C795 C796 1.332 . S
C796 H775 0.929 . S
C796 C792 1.407 . S
C796 C795 1.332 . S
H797 C790 0.930 . S
H798 C821 0.930 . S
H799 C822 0.929 . S
O800 Tb756 2.465 . S
O800 C820 1.264 . S
O801 Tb756 2.387 . S
O801 C812 1.264 . S
O802 Tb767 2.349 . S
O802 C812 1.243 . S
O803 Tb756 2.428 . S
O803 C820 1.256 . S
O804 Tb756 2.308 . S
O804 C819 1.266 . S
O805 Tb767 2.393 . S
O805 C819 1.248 . S
O806 Tb767 2.465 . S
O806 C831 1.264 . S
O807 Tb767 2.387 . S
O807 C823 1.264 . S
O808 Tb756 2.349 . S
O808 C823 1.243 . S
O809 Tb767 2.428 . S
O809 C831 1.256 . S
O810 Tb767 2.308 . S
O810 C830 1.266 . S
O811 Tb756 2.393 . S
O811 C830 1.248 . S
C812 O801 1.264 . S
C812 O802 1.243 . S
C813 C816 1.399 . S
C813 C818 1.383 . S
C813 C820 1.496 . S
C814 C815 1.399 . S
C814 C818 1.389 . S
C815 C814 1.399 . S
C815 C817 1.380 . S
C815 H832 0.929 . S
C816 C813 1.399 . S
C816 C817 1.392 . S
C816 H833 0.929 . S
C817 C815 1.380 . S
C817 C816 1.392 . S
C817 H834 0.929 . S
C818 C813 1.383 . S
C818 C814 1.389 . S
C818 H835 0.931 . S
C819 O804 1.266 . S
C819 O805 1.248 . S
C820 Tb756 2.802 . S
C820 O800 1.264 . S
C820 O803 1.256 . S
C820 C813 1.496 . S
C821 C788 1.448 . S
C821 H798 0.930 . S
C821 C822 1.328 . S
C822 C793 1.427 . S
C822 H799 0.929 . S
C822 C821 1.328 . S
C823 O807 1.264 . S
C823 O808 1.243 . S
C824 C827 1.399 . S
C824 C828 1.383 . S
C824 C831 1.496 . S
C825 C826 1.399 . S
C825 C828 1.389 . S
C826 C825 1.399 . S
C826 C829 1.380 . S
C826 H836 0.929 . S
C827 C824 1.399 . S
C827 C829 1.392 . S
C827 H837 0.929 . S
C828 C824 1.383 . S
C828 C825 1.389 . S
C828 H838 0.931 . S
C829 C826 1.380 . S
C829 C827 1.392 . S
C829 H839 0.929 . S
C830 O810 1.266 . S
C830 O811 1.248 . S
C831 Tb767 2.802 . S
C831 O806 1.264 . S
C831 O809 1.256 . S
C831 C824 1.496 . S
H832 C815 0.929 . S
H833 C816 0.929 . S
H834 C817 0.929 . S
H835 C818 0.931 . S
H836 C826 0.929 . S
H837 C827 0.929 . S
H838 C828 0.931 . S
H839 C829 0.929 . S
Tb840 N869 2.617 . S
Tb840 N875 2.572 . S
Tb840 O884 2.465 . S
Tb840 O885 2.387 1_556 S
Tb840 O887 2.428 . S
Tb840 O888 2.308 . S
Tb840 O892 2.349 1_556 S
Tb840 O895 2.393 1_556 S
Tb840 C904 2.802 . S
C841 N842 1.379 . S
C841 C844 1.416 . S
C841 C848 1.424 1_565 S
N842 C841 1.379 . S
N842 C845 1.334 . S
N842 Tb851 2.617 1_565 S
C843 C845 1.390 . S
C843 C846 1.339 . S
C843 H863 0.930 . S
C844 C841 1.416 . S
C844 C846 1.416 . S
C844 C850 1.448 . S
C845 N842 1.334 . S
C845 C843 1.390 . S
C845 H856 0.930 . S
C846 C843 1.339 . S
C846 C844 1.416 . S
C846 H867 0.930 . S
C847 C848 1.413 . S
C847 C849 1.427 . S
C847 C853 1.416 . S
C848 C841 1.424 1_545 S
C848 C847 1.413 . S
C848 N852 1.361 . S
C849 C847 1.427 . S
C849 C850 1.328 1_545 S
C849 H864 0.929 . S
C850 C844 1.448 . S
C850 C849 1.328 1_565 S
C850 H865 0.930 . S
Tb851 N842 2.617 1_545 S
Tb851 N852 2.572 . S
Tb851 O886 2.349 . S
Tb851 O889 2.393 1_545 S
Tb851 O890 2.465 . S
Tb851 O891 2.387 . S
Tb851 O893 2.428 1_545 S
Tb851 O894 2.308 . S
Tb851 C915 2.802 1_545 S
N852 C848 1.361 . S
N852 Tb851 2.572 . S
N852 C854 1.340 . S
C853 C847 1.416 . S
C853 C855 1.332 . S
C853 H861 0.931 . S
C854 N852 1.340 . S
C854 C855 1.407 . S
C854 H860 0.930 . S
C855 C853 1.332 . S
C855 C854 1.407 . S
C855 H857 0.929 . S
H856 C845 0.930 . S
H857 C855 0.929 . S
H858 C873 0.936 . S
H859 C880 0.929 . S
H860 C854 0.930 . S
H861 C853 0.931 . S
H862 C876 0.916 1_565 S
H863 C843 0.930 . S
H864 C849 0.929 . S
H865 C850 0.930 . S
H866 C871 0.930 . S
H867 C846 0.930 . S
H868 C879 0.936 . S
N869 Tb840 2.617 . S
N869 C870 1.379 . S
N869 C873 1.334 . S
C870 N869 1.379 . S
C870 C872 1.416 . S
C870 C878 1.424 . S
C871 H866 0.930 . S
C871 C873 1.390 . S
C871 C874 1.339 . S
C872 C870 1.416 . S
C872 C874 1.416 . S
C872 C905 1.448 . S
C873 H858 0.936 . S
C873 N869 1.334 . S
C873 C871 1.390 . S
C874 C871 1.339 . S
C874 C872 1.416 . S
C874 H881 0.930 . S
N875 Tb840 2.572 . S
N875 C876 1.358 . S
N875 C878 1.361 . S
C876 H862 0.916 1_545 S
C876 N875 1.358 . S
C876 C880 1.403 1_545 S
C877 C878 1.413 . S
C877 C879 1.399 1_545 S
C877 C906 1.427 . S
C878 C870 1.424 . S
C878 N875 1.361 . S
C878 C877 1.413 . S
C879 H868 0.936 . S
C879 C877 1.399 1_565 S
C879 C880 1.345 . S
C880 H859 0.929 . S
C880 C876 1.403 1_565 S
C880 C879 1.345 . S
H881 C874 0.930 . S
H882 C905 0.930 . S
H883 C906 0.929 . S
O884 Tb840 2.465 . S
O884 C904 1.264 . S
O885 Tb840 2.387 1_554 S
O885 C896 1.264 . S
O886 Tb851 2.349 . S
O886 C896 1.243 . S
O887 Tb840 2.428 . S
O887 C904 1.256 . S
O888 Tb840 2.308 . S
O888 C903 1.276 1_545 S
O889 Tb851 2.393 1_565 S
O889 C903 1.224 1_554 S
O890 Tb851 2.465 . S
O890 C915 1.264 1_545 S
O891 Tb851 2.387 . S
O891 C907 1.264 . S
O892 Tb840 2.349 1_554 S
O892 C907 1.243 . S
O893 Tb851 2.428 1_565 S
O893 C915 1.256 . S
O894 Tb851 2.308 . S
O894 C914 1.266 . S
O895 Tb840 2.393 1_554 S
O895 C914 1.248 . S
C896 O885 1.264 . S
C896 O886 1.243 . S
C897 C900 1.399 . S
C897 C902 1.383 . S
C897 C904 1.496 . S
C898 C899 1.399 . S
C898 C902 1.389 . S
C899 C898 1.399 . S
C899 C901 1.380 . S
C899 H916 0.929 . S
C900 C897 1.399 . S
C900 C901 1.392 . S
C900 H917 0.929 . S
C901 C899 1.380 . S
C901 C900 1.392 . S
C901 H918 0.929 . S
C902 C897 1.383 . S
C902 C898 1.389 . S
C902 H919 0.931 . S
C903 O888 1.276 1_565 S
C903 O889 1.224 1_556 S
C904 Tb840 2.802 . S
C904 O884 1.264 . S
C904 O887 1.256 . S
C904 C897 1.496 . S
C905 C872 1.448 . S
C905 H882 0.930 . S
C905 C906 1.328 . S
C906 C877 1.427 . S
C906 H883 0.929 . S
C906 C905 1.328 . S
C907 O891 1.264 . S
C907 O892 1.243 . S
C908 C911 1.399 . S
C908 C912 1.383 1_565 S
C908 C915 1.496 . S
C909 C910 1.364 1_545 S
C909 C912 1.400 . S
C910 C909 1.364 1_565 S
C910 C913 1.380 . S
C910 H920 0.929 . S
C911 C908 1.399 . S
C911 C913 1.392 . S
C911 H921 0.929 . S
C912 C908 1.383 1_545 S
C912 C909 1.400 . S
C912 H922 0.931 . S
C913 C910 1.380 . S
C913 C911 1.392 . S
C913 H923 0.929 . S
C914 O894 1.266 . S
C914 O895 1.248 . S
C915 Tb851 2.802 1_565 S
C915 O890 1.264 1_565 S
C915 O893 1.256 . S
C915 C908 1.496 . S
H916 C899 0.929 . S
H917 C900 0.929 . S
H918 C901 0.929 . S
H919 C902 0.931 . S
H920 C910 0.929 . S
H921 C911 0.929 . S
H922 C912 0.931 . S
H923 C913 0.929 . S
Tb924 N953 2.617 . S
Tb924 N959 2.572 . S
Tb924 O968 2.465 . S
Tb924 O969 2.387 . S
Tb924 O971 2.428 . S
Tb924 O972 2.308 . S
Tb924 O976 2.349 . S
Tb924 O979 2.393 . S
Tb924 C988 2.802 . S
C925 N926 1.379 . S
C925 C928 1.416 . S
C925 C932 1.424 . S
N926 C925 1.379 . S
N926 C929 1.334 . S
N926 Tb935 2.617 . S
C927 C929 1.390 . S
C927 C930 1.339 . S
C927 H947 0.930 . S
C928 C925 1.416 . S
C928 C930 1.416 . S
C928 C934 1.448 . S
C929 N926 1.334 . S
C929 C927 1.390 . S
C929 H940 0.930 . S
C930 C927 1.339 . S
C930 C928 1.416 . S
C930 H951 0.930 . S
C931 C932 1.413 . S
C931 C933 1.427 . S
C931 C937 1.416 . S
C932 C925 1.424 . S
C932 C931 1.413 . S
C932 N936 1.361 . S
C933 C931 1.427 . S
C933 C934 1.328 . S
C933 H948 0.929 . S
C934 C928 1.448 . S
C934 C933 1.328 . S
C934 H949 0.930 . S
Tb935 N926 2.617 . S
Tb935 N936 2.572 . S
Tb935 O970 2.349 . S
Tb935 O973 2.393 . S
Tb935 O974 2.465 . S
Tb935 O975 2.387 . S
Tb935 O977 2.428 . S
Tb935 O978 2.308 . S
Tb935 C999 2.802 . S
N936 C932 1.361 . S
N936 Tb935 2.572 . S
N936 C938 1.340 . S
C937 C931 1.416 . S
C937 C939 1.332 . S
C937 H945 0.931 . S
C938 N936 1.340 . S
C938 C939 1.407 . S
C938 H944 0.930 . S
C939 C937 1.332 . S
C939 C938 1.407 . S
C939 H941 0.929 . S
H940 C929 0.930 . S
H941 C939 0.929 . S
H942 C957 0.930 . S
H943 C964 0.929 . S
H944 C938 0.930 . S
H945 C937 0.931 . S
H946 C960 0.930 . S
H947 C927 0.930 . S
H948 C933 0.929 . S
H949 C934 0.930 . S
H950 C955 0.930 . S
H951 C930 0.930 . S
H952 C963 0.931 . S
N953 Tb924 2.617 . S
N953 C954 1.379 . S
N953 C957 1.334 . S
C954 N953 1.379 . S
C954 C956 1.416 . S
C954 C962 1.424 . S
C955 H950 0.930 . S
C955 C957 1.390 . S
C955 C958 1.339 . S
C956 C954 1.416 . S
C956 C958 1.416 . S
C956 C989 1.448 . S
C957 H942 0.930 . S
C957 N953 1.334 . S
C957 C955 1.390 . S
C958 C955 1.339 . S
C958 C956 1.416 . S
C958 H965 0.930 . S
N959 Tb924 2.572 . S
N959 C960 1.340 . S
N959 C962 1.361 . S
C960 H946 0.930 . S
C960 N959 1.340 . S
C960 C964 1.407 . S
C961 C962 1.413 . S
C961 C963 1.416 . S
C961 C990 1.427 . S
C962 C954 1.424 . S
C962 N959 1.361 . S
C962 C961 1.413 . S
C963 H952 0.931 . S
C963 C961 1.416 . S
C963 C964 1.332 . S
C964 H943 0.929 . S
C964 C960 1.407 . S
C964 C963 1.332 . S
H965 C958 0.930 . S
H966 C989 0.930 . S
H967 C990 0.929 . S
O968 Tb924 2.465 . S
O968 C988 1.264 . S
O969 Tb924 2.387 . S
O969 C980 1.264 . S
O970 Tb935 2.349 . S
O970 C980 1.243 . S
O971 Tb924 2.428 . S
O971 C988 1.256 . S
O972 Tb924 2.308 . S
O972 C987 1.266 . S
O973 Tb935 2.393 . S
O973 C987 1.248 . S
O974 Tb935 2.465 . S
O974 C999 1.264 . S
O975 Tb935 2.387 . S
O975 C991 1.264 . S
O976 Tb924 2.349 . S
O976 C991 1.243 . S
O977 Tb935 2.428 . S
O977 C999 1.256 . S
O978 Tb935 2.308 . S
O978 C998 1.266 . S
O979 Tb924 2.393 . S
O979 C998 1.248 . S
C980 O969 1.264 . S
C980 O970 1.243 . S
C981 C984 1.399 . S
C981 C986 1.383 . S
C981 C988 1.496 . S
C982 C983 1.399 . S
C982 C986 1.389 . S
C983 C982 1.399 . S
C983 C985 1.380 . S
C983 H1000 0.929 . S
C984 C981 1.399 . S
C984 C985 1.392 . S
C984 H1001 0.929 . S
C985 C983 1.380 . S
C985 C984 1.392 . S
C985 H1002 0.929 . S
C986 C981 1.383 . S
C986 C982 1.389 . S
C986 H1003 0.931 . S
C987 O972 1.266 . S
C987 O973 1.248 . S
C988 Tb924 2.802 . S
C988 O968 1.264 . S
C988 O971 1.256 . S
C988 C981 1.496 . S
C989 C956 1.448 . S
C989 H966 0.930 . S
C989 C990 1.328 . S
C990 C961 1.427 . S
C990 H967 0.929 . S
C990 C989 1.328 . S
C991 O975 1.264 . S
C991 O976 1.243 . S
C992 C995 1.399 . S
C992 C996 1.383 . S
C992 C999 1.496 . S
C993 C994 1.399 . S
C993 C996 1.389 . S
C994 C993 1.399 . S
C994 C997 1.380 . S
C994 H1004 0.929 . S
C995 C992 1.399 . S
C995 C997 1.392 . S
C995 H1005 0.929 . S
C996 C992 1.383 . S
C996 C993 1.389 . S
C996 H1006 0.931 . S
C997 C994 1.380 . S
C997 C995 1.392 . S
C997 H1007 0.929 . S
C998 O978 1.266 . S
C998 O979 1.248 . S
C999 Tb935 2.802 . S
C999 O974 1.264 . S
C999 O977 1.256 . S
C999 C992 1.496 . S
H1000 C983 0.929 . S
H1001 C984 0.929 . S
H1002 C985 0.929 . S
H1003 C986 0.931 . S
H1004 C994 0.929 . S
H1005 C995 0.929 . S
H1006 C996 0.931 . S
H1007 C997 0.929 . S
Tb1008 N1037 2.617 1_554 S
Tb1008 N1043 2.572 1_554 S
Tb1008 O1052 2.465 . S
Tb1008 O1053 2.387 1_554 S
Tb1008 O1055 2.428 . S
Tb1008 O1056 2.308 . S
Tb1008 O1060 2.349 . S
Tb1008 O1063 2.393 . S
Tb1008 C1072 2.802 . S
C1009 N1010 1.379 . S
C1009 C1012 1.416 . S
C1009 C1016 1.424 . S
N1010 C1009 1.379 . S
N1010 C1013 1.334 . S
N1010 Tb1019 2.617 . S
C1011 C1013 1.390 . S
C1011 C1014 1.339 . S
C1011 H1031 0.930 . S
C1012 C1009 1.416 . S
C1012 C1014 1.416 . S
C1012 C1018 1.448 . S
C1013 N1010 1.334 . S
C1013 C1011 1.390 . S
C1013 H1024 0.930 . S
C1014 C1011 1.339 . S
C1014 C1012 1.416 . S
C1014 H1035 0.930 . S
C1015 C1016 1.413 . S
C1015 C1017 1.427 . S
C1015 C1021 1.416 . S
C1016 C1009 1.424 . S
C1016 C1015 1.413 . S
C1016 N1020 1.361 . S
C1017 C1015 1.427 . S
C1017 C1018 1.328 . S
C1017 H1032 0.929 . S
C1018 C1012 1.448 . S
C1018 C1017 1.328 . S
C1018 H1033 0.930 . S
Tb1019 N1010 2.617 . S
Tb1019 N1020 2.572 . S
Tb1019 O1054 2.349 1_554 S
Tb1019 O1057 2.393 . S
Tb1019 O1058 2.465 . S
Tb1019 O1059 2.387 . S
Tb1019 O1061 2.428 . S
Tb1019 O1062 2.308 . S
Tb1019 C1083 2.802 . S
N1020 C1016 1.361 . S
N1020 Tb1019 2.572 . S
N1020 C1022 1.340 . S
C1021 C1015 1.416 . S
C1021 C1023 1.332 . S
C1021 H1029 0.931 . S
C1022 N1020 1.340 . S
C1022 C1023 1.407 . S
C1022 H1028 0.930 . S
C1023 C1021 1.332 . S
C1023 C1022 1.407 . S
C1023 H1025 0.929 . S
H1024 C1013 0.930 . S
H1025 C1023 0.929 . S
H1026 C1041 0.930 . S
H1027 C1048 0.929 . S
H1028 C1022 0.930 . S
H1029 C1021 0.931 . S
H1030 C1044 0.930 . S
H1031 C1011 0.930 . S
H1032 C1017 0.929 . S
H1033 C1018 0.930 . S
H1034 C1039 0.930 . S
H1035 C1014 0.930 . S
H1036 C1047 0.931 . S
N1037 Tb1008 2.617 1_556 S
N1037 C1038 1.379 . S
N1037 C1041 1.334 . S
C1038 N1037 1.379 . S
C1038 C1040 1.416 . S
C1038 C1046 1.424 . S
C1039 H1034 0.930 . S
C1039 C1041 1.390 . S
C1039 C1042 1.339 . S
C1040 C1038 1.416 . S
C1040 C1042 1.416 . S
C1040 C1073 1.448 . S
C1041 H1026 0.930 . S
C1041 N1037 1.334 . S
C1041 C1039 1.390 . S
C1042 C1039 1.339 . S
C1042 C1040 1.416 . S
C1042 H1049 0.930 . S
N1043 Tb1008 2.572 1_556 S
N1043 C1044 1.340 . S
N1043 C1046 1.361 . S
C1044 H1030 0.930 . S
C1044 N1043 1.340 . S
C1044 C1048 1.407 . S
C1045 C1046 1.413 . S
C1045 C1047 1.416 . S
C1045 C1074 1.427 . S
C1046 C1038 1.424 . S
C1046 N1043 1.361 . S
C1046 C1045 1.413 . S
C1047 H1036 0.931 . S
C1047 C1045 1.416 . S
C1047 C1048 1.332 . S
C1048 H1027 0.929 . S
C1048 C1044 1.407 . S
C1048 C1047 1.332 . S
H1049 C1042 0.930 . S
H1050 C1073 0.930 . S
H1051 C1074 0.929 . S
O1052 Tb1008 2.465 . S
O1052 C1072 1.264 . S
O1053 Tb1008 2.387 1_556 S
O1053 C1064 1.264 . S
O1054 Tb1019 2.349 1_556 S
O1054 C1064 1.243 . S
O1055 Tb1008 2.428 . S
O1055 C1072 1.256 . S
O1056 Tb1008 2.308 . S
O1056 C1071 1.266 . S
O1057 Tb1019 2.393 . S
O1057 C1071 1.248 . S
O1058 Tb1019 2.465 . S
O1058 C1083 1.264 . S
O1059 Tb1019 2.387 . S
O1059 C1075 1.264 . S
O1060 Tb1008 2.349 . S
O1060 C1075 1.243 . S
O1061 Tb1019 2.428 . S
O1061 C1083 1.256 . S
O1062 Tb1019 2.308 . S
O1062 C1082 1.266 . S
O1063 Tb1008 2.393 . S
O1063 C1082 1.248 . S
C1064 O1053 1.264 . S
C1064 O1054 1.243 . S
C1065 C1068 1.399 . S
C1065 C1070 1.383 . S
C1065 C1072 1.496 . S
C1066 C1067 1.399 . S
C1066 C1070 1.389 . S
C1067 C1066 1.399 . S
C1067 C1069 1.380 . S
C1067 H1084 0.929 . S
C1068 C1065 1.399 . S
C1068 C1069 1.392 . S
C1068 H1085 0.929 . S
C1069 C1067 1.380 . S
C1069 C1068 1.392 . S
C1069 H1086 0.929 . S
C1070 C1065 1.383 . S
C1070 C1066 1.389 . S
C1070 H1087 0.931 . S
C1071 O1056 1.266 . S
C1071 O1057 1.248 . S
C1072 Tb1008 2.802 . S
C1072 O1052 1.264 . S
C1072 O1055 1.256 . S
C1072 C1065 1.496 . S
C1073 C1040 1.448 . S
C1073 H1050 0.930 . S
C1073 C1074 1.328 . S
C1074 C1045 1.427 . S
C1074 H1051 0.929 . S
C1074 C1073 1.328 . S
C1075 O1059 1.264 . S
C1075 O1060 1.243 . S
C1076 C1079 1.399 . S
C1076 C1080 1.383 . S
C1076 C1083 1.496 1_556 S
C1077 C1078 1.399 . S
C1077 C1080 1.389 . S
C1078 C1077 1.399 . S
C1078 C1081 1.380 . S
C1078 H1088 0.929 . S
C1079 C1076 1.399 . S
C1079 C1081 1.392 . S
C1079 H1089 0.929 . S
C1080 C1076 1.383 . S
C1080 C1077 1.389 . S
C1080 H1090 0.931 . S
C1081 C1078 1.380 . S
C1081 C1079 1.392 . S
C1081 H1091 0.929 . S
C1082 O1062 1.266 . S
C1082 O1063 1.248 . S
C1083 Tb1019 2.802 . S
C1083 O1058 1.264 . S
C1083 O1061 1.256 . S
C1083 C1076 1.496 1_554 S
H1084 C1067 0.929 . S
H1085 C1068 0.929 . S
H1086 C1069 0.929 . S
H1087 C1070 0.931 . S
H1088 C1078 0.929 . S
H1089 C1079 0.929 . S
H1090 C1080 0.931 . S
H1091 C1081 0.929 . S
Tb1092 N1121 2.617 . S
Tb1092 N1127 2.572 . S
Tb1092 O1136 2.465 . S
Tb1092 O1137 2.387 . S
Tb1092 O1139 2.428 . S
Tb1092 O1140 2.308 . S
Tb1092 O1144 2.349 . S
Tb1092 O1147 2.393 . S
Tb1092 C1156 2.802 . S
C1093 N1094 1.379 . S
C1093 C1096 1.416 . S
C1093 C1100 1.424 . S
N1094 C1093 1.379 . S
N1094 C1097 1.334 . S
N1094 Tb1103 2.617 . S
C1095 C1097 1.390 . S
C1095 C1098 1.339 . S
C1095 H1115 0.930 . S
C1096 C1093 1.416 . S
C1096 C1098 1.416 . S
C1096 C1102 1.448 . S
C1097 N1094 1.334 . S
C1097 C1095 1.390 . S
C1097 H1108 0.930 . S
C1098 C1095 1.339 . S
C1098 C1096 1.416 . S
C1098 H1119 0.930 . S
C1099 C1100 1.413 . S
C1099 C1101 1.427 . S
C1099 C1105 1.416 . S
C1100 C1093 1.424 . S
C1100 C1099 1.413 . S
C1100 N1104 1.361 . S
C1101 C1099 1.427 . S
C1101 C1102 1.328 . S
C1101 H1116 0.929 . S
C1102 C1096 1.448 . S
C1102 C1101 1.328 . S
C1102 H1117 0.930 . S
Tb1103 N1094 2.617 . S
Tb1103 N1104 2.572 . S
Tb1103 O1138 2.349 . S
Tb1103 O1141 2.393 . S
Tb1103 O1142 2.465 . S
Tb1103 O1143 2.387 . S
Tb1103 O1145 2.428 . S
Tb1103 O1146 2.308 . S
Tb1103 C1167 2.802 . S
N1104 C1100 1.361 . S
N1104 Tb1103 2.572 . S
N1104 C1106 1.340 . S
C1105 C1099 1.416 . S
C1105 C1107 1.332 . S
C1105 H1113 0.931 . S
C1106 N1104 1.340 . S
C1106 C1107 1.407 . S
C1106 H1112 0.930 . S
C1107 C1105 1.332 . S
C1107 C1106 1.407 . S
C1107 H1109 0.929 . S
H1108 C1097 0.930 . S
H1109 C1107 0.929 . S
H1110 C1125 0.930 . S
H1111 C1132 0.929 . S
H1112 C1106 0.930 . S
H1113 C1105 0.931 . S
H1114 C1128 0.930 . S
H1115 C1095 0.930 . S
H1116 C1101 0.929 . S
H1117 C1102 0.930 . S
H1118 C1123 0.930 . S
H1119 C1098 0.930 . S
H1120 C1131 0.931 . S
N1121 Tb1092 2.617 . S
N1121 C1122 1.379 . S
N1121 C1125 1.334 . S
C1122 N1121 1.379 . S
C1122 C1124 1.416 . S
C1122 C1130 1.424 . S
C1123 H1118 0.930 . S
C1123 C1125 1.390 . S
C1123 C1126 1.339 . S
C1124 C1122 1.416 . S
C1124 C1126 1.416 . S
C1124 C1157 1.448 . S
C1125 H1110 0.930 . S
C1125 N1121 1.334 . S
C1125 C1123 1.390 . S
C1126 C1123 1.339 . S
C1126 C1124 1.416 . S
C1126 H1133 0.930 . S
N1127 Tb1092 2.572 . S
N1127 C1128 1.340 . S
N1127 C1130 1.361 . S
C1128 H1114 0.930 . S
C1128 N1127 1.340 . S
C1128 C1132 1.407 . S
C1129 C1130 1.413 . S
C1129 C1131 1.416 . S
C1129 C1158 1.427 . S
C1130 C1122 1.424 . S
C1130 N1127 1.361 . S
C1130 C1129 1.413 . S
C1131 H1120 0.931 . S
C1131 C1129 1.416 . S
C1131 C1132 1.332 . S
C1132 H1111 0.929 . S
C1132 C1128 1.407 . S
C1132 C1131 1.332 . S
H1133 C1126 0.930 . S
H1134 C1157 0.930 . S
H1135 C1158 0.929 . S
O1136 Tb1092 2.465 . S
O1136 C1156 1.264 . S
O1137 Tb1092 2.387 . S
O1137 C1148 1.264 . S
O1138 Tb1103 2.349 . S
O1138 C1148 1.243 . S
O1139 Tb1092 2.428 . S
O1139 C1156 1.256 . S
O1140 Tb1092 2.308 . S
O1140 C1155 1.266 . S
O1141 Tb1103 2.393 . S
O1141 C1155 1.248 . S
O1142 Tb1103 2.465 . S
O1142 C1167 1.264 . S
O1143 Tb1103 2.387 . S
O1143 C1159 1.264 . S
O1144 Tb1092 2.349 . S
O1144 C1159 1.243 . S
O1145 Tb1103 2.428 . S
O1145 C1167 1.256 . S
O1146 Tb1103 2.308 . S
O1146 C1166 1.266 . S
O1147 Tb1092 2.393 . S
O1147 C1166 1.248 . S
C1148 O1137 1.264 . S
C1148 O1138 1.243 . S
C1149 C1152 1.399 . S
C1149 C1154 1.383 . S
C1149 C1156 1.496 . S
C1150 C1151 1.399 . S
C1150 C1154 1.389 . S
C1151 C1150 1.399 . S
C1151 C1153 1.380 . S
C1151 H1168 0.929 . S
C1152 C1149 1.399 . S
C1152 C1153 1.392 . S
C1152 H1169 0.929 . S
C1153 C1151 1.380 . S
C1153 C1152 1.392 . S
C1153 H1170 0.929 . S
C1154 C1149 1.383 . S
C1154 C1150 1.389 . S
C1154 H1171 0.931 . S
C1155 O1140 1.266 . S
C1155 O1141 1.248 . S
C1156 Tb1092 2.802 . S
C1156 O1136 1.264 . S
C1156 O1139 1.256 . S
C1156 C1149 1.496 . S
C1157 C1124 1.448 . S
C1157 H1134 0.930 . S
C1157 C1158 1.328 . S
C1158 C1129 1.427 . S
C1158 H1135 0.929 . S
C1158 C1157 1.328 . S
C1159 O1143 1.264 . S
C1159 O1144 1.243 . S
C1160 C1163 1.399 . S
C1160 C1164 1.383 . S
C1160 C1167 1.496 . S
C1161 C1162 1.399 . S
C1161 C1164 1.389 . S
C1162 C1161 1.399 . S
C1162 C1165 1.380 . S
C1162 H1172 0.929 . S
C1163 C1160 1.399 . S
C1163 C1165 1.392 . S
C1163 H1173 0.929 . S
C1164 C1160 1.383 . S
C1164 C1161 1.389 . S
C1164 H1174 0.931 . S
C1165 C1162 1.380 . S
C1165 C1163 1.392 . S
C1165 H1175 0.929 . S
C1166 O1146 1.266 . S
C1166 O1147 1.248 . S
C1167 Tb1103 2.802 . S
C1167 O1142 1.264 . S
C1167 O1145 1.256 . S
C1167 C1160 1.496 . S
H1168 C1151 0.929 . S
H1169 C1152 0.929 . S
H1170 C1153 0.929 . S
H1171 C1154 0.931 . S
H1172 C1162 0.929 . S
H1173 C1163 0.929 . S
H1174 C1164 0.931 . S
H1175 C1165 0.929 . S
Tb1176 N1205 2.617 1_455 S
Tb1176 N1211 2.572 1_455 S
Tb1176 O1220 2.465 . S
Tb1176 O1221 2.387 1_455 S
Tb1176 O1223 2.428 . S
Tb1176 O1224 2.308 . S
Tb1176 O1228 2.349 . S
Tb1176 O1231 2.393 . S
Tb1176 C1240 2.802 . S
C1177 N1178 1.379 . S
C1177 C1180 1.416 . S
C1177 C1184 1.424 . S
N1178 C1177 1.379 . S
N1178 C1181 1.334 . S
N1178 Tb1187 2.617 . S
C1179 C1181 1.390 . S
C1179 C1182 1.339 . S
C1179 H1199 0.930 . S
C1180 C1177 1.416 . S
C1180 C1182 1.416 . S
C1180 C1186 1.448 . S
C1181 N1178 1.334 . S
C1181 C1179 1.390 . S
C1181 H1192 0.930 . S
C1182 C1179 1.339 . S
C1182 C1180 1.416 . S
C1182 H1203 0.930 . S
C1183 C1184 1.413 . S
C1183 C1185 1.427 . S
C1183 C1189 1.416 . S
C1184 C1177 1.424 . S
C1184 C1183 1.413 . S
C1184 N1188 1.361 . S
C1185 C1183 1.427 . S
C1185 C1186 1.328 . S
C1185 H1200 0.929 . S
C1186 C1180 1.448 . S
C1186 C1185 1.328 . S
C1186 H1201 0.930 . S
Tb1187 N1178 2.617 . S
Tb1187 N1188 2.572 . S
Tb1187 O1222 2.349 1_455 S
Tb1187 O1225 2.393 . S
Tb1187 O1226 2.465 . S
Tb1187 O1227 2.387 . S
Tb1187 O1229 2.428 . S
Tb1187 O1230 2.308 . S
Tb1187 C1251 2.802 . S
N1188 C1184 1.361 . S
N1188 Tb1187 2.572 . S
N1188 C1190 1.340 . S
C1189 C1183 1.416 . S
C1189 C1191 1.332 . S
C1189 H1197 0.931 . S
C1190 N1188 1.340 . S
C1190 C1191 1.407 . S
C1190 H1196 0.930 . S
C1191 C1189 1.332 . S
C1191 C1190 1.407 . S
C1191 H1193 0.929 . S
H1192 C1181 0.930 . S
H1193 C1191 0.929 . S
H1194 C1209 0.929 . S
H1195 C1216 0.929 . S
H1196 C1190 0.930 . S
H1197 C1189 0.931 . S
H1198 C1212 0.930 1_455 S
H1199 C1179 0.930 . S
H1200 C1185 0.929 . S
H1201 C1186 0.930 . S
H1202 C1207 0.930 . S
H1203 C1182 0.930 . S
H1204 C1215 0.931 . S
N1205 Tb1176 2.617 1_655 S
N1205 C1206 1.379 . S
N1205 C1209 1.334 1_655 S
C1206 N1205 1.379 . S
C1206 C1208 1.416 . S
C1206 C1214 1.424 . S
C1207 H1202 0.930 . S
C1207 C1209 1.392 1_655 S
C1207 C1210 1.339 . S
C1208 C1206 1.416 . S
C1208 C1210 1.416 . S
C1208 C1241 1.448 . S
C1209 H1194 0.929 . S
C1209 N1205 1.334 1_455 S
C1209 C1207 1.392 1_455 S
C1210 C1207 1.339 . S
C1210 C1208 1.416 . S
C1210 H1217 0.930 . S
N1211 Tb1176 2.572 1_655 S
N1211 C1212 1.340 . S
N1211 C1214 1.361 . S
C1212 H1198 0.930 1_655 S
C1212 N1211 1.340 . S
C1212 C1216 1.407 . S
C1213 C1214 1.413 . S
C1213 C1215 1.416 . S
C1213 C1242 1.427 . S
C1214 C1206 1.424 . S
C1214 N1211 1.361 . S
C1214 C1213 1.413 . S
C1215 H1204 0.931 . S
C1215 C1213 1.416 . S
C1215 C1216 1.332 . S
C1216 H1195 0.929 . S
C1216 C1212 1.407 . S
C1216 C1215 1.332 . S
H1217 C1210 0.930 . S
H1218 C1241 0.930 . S
H1219 C1242 0.929 . S
O1220 Tb1176 2.465 . S
O1220 C1240 1.264 . S
O1221 Tb1176 2.387 1_655 S
O1221 C1232 1.264 . S
O1222 Tb1187 2.349 1_655 S
O1222 C1232 1.243 . S
O1223 Tb1176 2.428 . S
O1223 C1240 1.256 . S
O1224 Tb1176 2.308 . S
O1224 C1239 1.266 . S
O1225 Tb1187 2.393 . S
O1225 C1239 1.248 . S
O1226 Tb1187 2.465 . S
O1226 C1251 1.264 . S
O1227 Tb1187 2.387 . S
O1227 C1243 1.264 . S
O1228 Tb1176 2.349 . S
O1228 C1243 1.243 . S
O1229 Tb1187 2.428 . S
O1229 C1251 1.256 . S
O1230 Tb1187 2.308 . S
O1230 C1250 1.266 . S
O1231 Tb1176 2.393 . S
O1231 C1250 1.248 . S
C1232 O1221 1.264 . S
C1232 O1222 1.243 . S
C1233 C1236 1.399 . S
C1233 C1238 1.383 . S
C1233 C1240 1.496 . S
C1234 C1235 1.399 . S
C1234 C1238 1.389 . S
C1235 C1234 1.399 . S
C1235 C1237 1.380 . S
C1235 H1252 0.929 . S
C1236 C1233 1.399 . S
C1236 C1237 1.392 . S
C1236 H1253 0.929 . S
C1237 C1235 1.380 . S
C1237 C1236 1.392 . S
C1237 H1254 0.929 . S
C1238 C1233 1.383 . S
C1238 C1234 1.389 . S
C1238 H1255 0.931 . S
C1239 O1224 1.266 . S
C1239 O1225 1.248 . S
C1240 Tb1176 2.802 . S
C1240 O1220 1.264 . S
C1240 O1223 1.256 . S
C1240 C1233 1.496 . S
C1241 C1208 1.448 . S
C1241 H1218 0.930 . S
C1241 C1242 1.328 . S
C1242 C1213 1.427 . S
C1242 H1219 0.929 . S
C1242 C1241 1.328 . S
C1243 O1227 1.264 . S
C1243 O1228 1.243 . S
C1244 C1247 1.399 . S
C1244 C1248 1.383 . S
C1244 C1251 1.496 1_655 S
C1245 C1246 1.399 . S
C1245 C1248 1.389 . S
C1246 C1245 1.399 . S
C1246 C1249 1.380 . S
C1246 H1256 0.929 . S
C1247 C1244 1.399 . S
C1247 C1249 1.392 . S
C1247 H1257 0.929 . S
C1248 C1244 1.383 . S
C1248 C1245 1.389 . S
C1248 H1258 0.931 . S
C1249 C1246 1.380 . S
C1249 C1247 1.392 . S
C1249 H1259 0.929 . S
C1250 O1230 1.266 . S
C1250 O1231 1.248 . S
C1251 Tb1187 2.802 . S
C1251 O1226 1.264 . S
C1251 O1229 1.256 . S
C1251 C1244 1.496 1_455 S
H1252 C1235 0.929 . S
H1253 C1236 0.929 . S
H1254 C1237 0.929 . S
H1255 C1238 0.931 . S
H1256 C1246 0.929 . S
H1257 C1247 0.929 . S
H1258 C1248 0.931 . S
H1259 C1249 0.929 . S
Tb1260 N1289 2.617 . S
Tb1260 N1295 2.572 . S
Tb1260 O1304 2.465 . S
Tb1260 O1305 2.387 . S
Tb1260 O1307 2.428 . S
Tb1260 O1308 2.308 . S
Tb1260 O1312 2.349 . S
Tb1260 O1315 2.393 . S
Tb1260 C1324 2.802 . S
C1261 N1262 1.379 . S
C1261 C1264 1.416 . S
C1261 C1268 1.424 . S
N1262 C1261 1.379 . S
N1262 C1265 1.334 . S
N1262 Tb1271 2.617 . S
C1263 C1265 1.390 . S
C1263 C1266 1.339 . S
C1263 H1283 0.930 . S
C1264 C1261 1.416 . S
C1264 C1266 1.416 . S
C1264 C1270 1.448 . S
C1265 N1262 1.334 . S
C1265 C1263 1.390 . S
C1265 H1276 0.930 . S
C1266 C1263 1.339 . S
C1266 C1264 1.416 . S
C1266 H1287 0.930 . S
C1267 C1268 1.413 . S
C1267 C1269 1.427 . S
C1267 C1273 1.416 . S
C1268 C1261 1.424 . S
C1268 C1267 1.413 . S
C1268 N1272 1.361 . S
C1269 C1267 1.427 . S
C1269 C1270 1.328 . S
C1269 H1284 0.929 . S
C1270 C1264 1.448 . S
C1270 C1269 1.328 . S
C1270 H1285 0.930 . S
Tb1271 N1262 2.617 . S
Tb1271 N1272 2.572 . S
Tb1271 O1306 2.349 . S
Tb1271 O1309 2.393 . S
Tb1271 O1310 2.465 . S
Tb1271 O1311 2.387 . S
Tb1271 O1313 2.428 . S
Tb1271 O1314 2.308 . S
Tb1271 C1335 2.802 . S
N1272 C1268 1.361 . S
N1272 Tb1271 2.572 . S
N1272 C1274 1.340 . S
C1273 C1267 1.416 . S
C1273 C1275 1.332 . S
C1273 H1281 0.931 . S
C1274 N1272 1.340 . S
C1274 C1275 1.407 . S
C1274 H1280 0.930 . S
C1275 C1273 1.332 . S
C1275 C1274 1.407 . S
C1275 H1277 0.929 . S
H1276 C1265 0.930 . S
H1277 C1275 0.929 . S
H1278 C1293 0.930 . S
H1279 C1300 0.929 . S
H1280 C1274 0.930 . S
H1281 C1273 0.931 . S
H1282 C1296 0.930 . S
H1283 C1263 0.930 . S
H1284 C1269 0.929 . S
H1285 C1270 0.930 . S
H1286 C1291 0.930 . S
H1287 C1266 0.930 . S
H1288 C1299 0.931 . S
N1289 Tb1260 2.617 . S
N1289 C1290 1.379 . S
N1289 C1293 1.334 . S
C1290 N1289 1.379 . S
C1290 C1292 1.416 . S
C1290 C1298 1.424 . S
C1291 H1286 0.930 . S
C1291 C1293 1.390 . S
C1291 C1294 1.339 . S
C1292 C1290 1.416 . S
C1292 C1294 1.416 . S
C1292 C1325 1.448 . S
C1293 H1278 0.930 . S
C1293 N1289 1.334 . S
C1293 C1291 1.390 . S
C1294 C1291 1.339 . S
C1294 C1292 1.416 . S
C1294 H1301 0.930 . S
N1295 Tb1260 2.572 . S
N1295 C1296 1.340 . S
N1295 C1298 1.361 . S
C1296 H1282 0.930 . S
C1296 N1295 1.340 . S
C1296 C1300 1.407 . S
C1297 C1298 1.413 . S
C1297 C1299 1.416 . S
C1297 C1326 1.427 . S
C1298 C1290 1.424 . S
C1298 N1295 1.361 . S
C1298 C1297 1.413 . S
C1299 H1288 0.931 . S
C1299 C1297 1.416 . S
C1299 C1300 1.332 . S
C1300 H1279 0.929 . S
C1300 C1296 1.407 . S
C1300 C1299 1.332 . S
H1301 C1294 0.930 . S
H1302 C1325 0.930 . S
H1303 C1326 0.929 . S
O1304 Tb1260 2.465 . S
O1304 C1324 1.264 . S
O1305 Tb1260 2.387 . S
O1305 C1316 1.264 . S
O1306 Tb1271 2.349 . S
O1306 C1316 1.243 . S
O1307 Tb1260 2.428 . S
O1307 C1324 1.256 . S
O1308 Tb1260 2.308 . S
O1308 C1323 1.266 . S
O1309 Tb1271 2.393 . S
O1309 C1323 1.248 . S
O1310 Tb1271 2.465 . S
O1310 C1335 1.264 . S
O1311 Tb1271 2.387 . S
O1311 C1327 1.264 . S
O1312 Tb1260 2.349 . S
O1312 C1327 1.243 . S
O1313 Tb1271 2.428 . S
O1313 C1335 1.256 . S
O1314 Tb1271 2.308 . S
O1314 C1334 1.266 . S
O1315 Tb1260 2.393 . S
O1315 C1334 1.248 . S
C1316 O1305 1.264 . S
C1316 O1306 1.243 . S
C1317 C1320 1.399 . S
C1317 C1322 1.383 . S
C1317 C1324 1.496 . S
C1318 C1319 1.399 . S
C1318 C1322 1.389 . S
C1319 C1318 1.399 . S
C1319 C1321 1.380 . S
C1319 H1336 0.929 . S
C1320 C1317 1.399 . S
C1320 C1321 1.392 . S
C1320 H1337 0.929 . S
C1321 C1319 1.380 . S
C1321 C1320 1.392 . S
C1321 H1338 0.929 . S
C1322 C1317 1.383 . S
C1322 C1318 1.389 . S
C1322 H1339 0.931 . S
C1323 O1308 1.266 . S
C1323 O1309 1.248 . S
C1324 Tb1260 2.802 . S
C1324 O1304 1.264 . S
C1324 O1307 1.256 . S
C1324 C1317 1.496 . S
C1325 C1292 1.448 . S
C1325 H1302 0.930 . S
C1325 C1326 1.328 . S
C1326 C1297 1.427 . S
C1326 H1303 0.929 . S
C1326 C1325 1.328 . S
C1327 O1311 1.264 . S
C1327 O1312 1.243 . S
C1328 C1331 1.399 . S
C1328 C1332 1.383 . S
C1328 C1335 1.496 . S
C1329 C1330 1.399 . S
C1329 C1332 1.389 . S
C1330 C1329 1.399 . S
C1330 C1333 1.380 . S
C1330 H1340 0.929 . S
C1331 C1328 1.399 . S
C1331 C1333 1.392 . S
C1331 H1341 0.929 . S
C1332 C1328 1.383 . S
C1332 C1329 1.389 . S
C1332 H1342 0.931 . S
C1333 C1330 1.380 . S
C1333 C1331 1.392 . S
C1333 H1343 0.929 . S
C1334 O1314 1.266 . S
C1334 O1315 1.248 . S
C1335 Tb1271 2.802 . S
C1335 O1310 1.264 . S
C1335 O1313 1.256 . S
C1335 C1328 1.496 . S
H1336 C1319 0.929 . S
H1337 C1320 0.929 . S
H1338 C1321 0.929 . S
H1339 C1322 0.931 . S
H1340 C1330 0.929 . S
H1341 C1331 0.929 . S
H1342 C1332 0.931 . S
H1343 C1333 0.929 . S
Tb1344 N1373 2.617 . S
Tb1344 N1379 2.572 . S
Tb1344 O1388 2.465 . S
Tb1344 O1389 2.387 . S
Tb1344 O1391 2.428 . S
Tb1344 O1392 2.308 . S
Tb1344 O1396 2.349 . S
Tb1344 O1399 2.393 . S
Tb1344 C1408 2.802 . S
C1345 N1346 1.379 . S
C1345 C1348 1.416 . S
C1345 C1352 1.424 . S
N1346 C1345 1.379 . S
N1346 C1349 1.334 . S
N1346 Tb1355 2.617 . S
C1347 C1349 1.390 . S
C1347 C1350 1.339 . S
C1347 H1367 0.930 . S
C1348 C1345 1.416 . S
C1348 C1350 1.416 . S
C1348 C1354 1.448 . S
C1349 N1346 1.334 . S
C1349 C1347 1.390 . S
C1349 H1360 0.930 . S
C1350 C1347 1.339 . S
C1350 C1348 1.416 . S
C1350 H1371 0.930 . S
C1351 C1352 1.413 . S
C1351 C1353 1.427 . S
C1351 C1357 1.416 . S
C1352 C1345 1.424 . S
C1352 C1351 1.413 . S
C1352 N1356 1.361 . S
C1353 C1351 1.427 . S
C1353 C1354 1.328 . S
C1353 H1368 0.929 . S
C1354 C1348 1.448 . S
C1354 C1353 1.328 . S
C1354 H1369 0.930 . S
Tb1355 N1346 2.617 . S
Tb1355 N1356 2.572 . S
Tb1355 O1390 2.349 . S
Tb1355 O1393 2.393 . S
Tb1355 O1394 2.465 . S
Tb1355 O1395 2.387 . S
Tb1355 O1397 2.428 . S
Tb1355 O1398 2.308 . S
Tb1355 C1419 2.802 . S
N1356 C1352 1.361 . S
N1356 Tb1355 2.572 . S
N1356 C1358 1.340 . S
C1357 C1351 1.416 . S
C1357 C1359 1.332 . S
C1357 H1365 0.931 . S
C1358 N1356 1.340 . S
C1358 C1359 1.407 . S
C1358 H1364 0.930 . S
C1359 C1357 1.332 . S
C1359 C1358 1.407 . S
C1359 H1361 0.929 . S
H1360 C1349 0.930 . S
H1361 C1359 0.929 . S
H1362 C1377 0.930 . S
H1363 C1384 0.929 . S
H1364 C1358 0.930 . S
H1365 C1357 0.931 . S
H1366 C1380 0.930 . S
H1367 C1347 0.930 . S
H1368 C1353 0.929 . S
H1369 C1354 0.930 . S
H1370 C1375 0.930 . S
H1371 C1350 0.930 . S
H1372 C1383 0.931 . S
N1373 Tb1344 2.617 . S
N1373 C1374 1.379 . S
N1373 C1377 1.334 . S
C1374 N1373 1.379 . S
C1374 C1376 1.416 . S
C1374 C1382 1.424 . S
C1375 H1370 0.930 . S
C1375 C1377 1.390 . S
C1375 C1378 1.339 . S
C1376 C1374 1.416 . S
C1376 C1378 1.416 . S
C1376 C1409 1.448 . S
C1377 H1362 0.930 . S
C1377 N1373 1.334 . S
C1377 C1375 1.390 . S
C1378 C1375 1.339 . S
C1378 C1376 1.416 . S
C1378 H1385 0.930 . S
N1379 Tb1344 2.572 . S
N1379 C1380 1.340 . S
N1379 C1382 1.361 . S
C1380 H1366 0.930 . S
C1380 N1379 1.340 . S
C1380 C1384 1.407 . S
C1381 C1382 1.413 . S
C1381 C1383 1.416 . S
C1381 C1410 1.427 . S
C1382 C1374 1.424 . S
C1382 N1379 1.361 . S
C1382 C1381 1.413 . S
C1383 H1372 0.931 . S
C1383 C1381 1.416 . S
C1383 C1384 1.332 . S
C1384 H1363 0.929 . S
C1384 C1380 1.407 . S
C1384 C1383 1.332 . S
H1385 C1378 0.930 . S
H1386 C1409 0.930 . S
H1387 C1410 0.929 . S
O1388 Tb1344 2.465 . S
O1388 C1408 1.264 . S
O1389 Tb1344 2.387 . S
O1389 C1400 1.264 . S
O1390 Tb1355 2.349 . S
O1390 C1400 1.243 . S
O1391 Tb1344 2.428 . S
O1391 C1408 1.256 . S
O1392 Tb1344 2.308 . S
O1392 C1407 1.266 . S
O1393 Tb1355 2.393 . S
O1393 C1407 1.248 . S
O1394 Tb1355 2.465 . S
O1394 C1419 1.264 . S
O1395 Tb1355 2.387 . S
O1395 C1411 1.264 . S
O1396 Tb1344 2.349 . S
O1396 C1411 1.243 . S
O1397 Tb1355 2.428 . S
O1397 C1419 1.256 . S
O1398 Tb1355 2.308 . S
O1398 C1418 1.266 . S
O1399 Tb1344 2.393 . S
O1399 C1418 1.248 . S
C1400 O1389 1.264 . S
C1400 O1390 1.243 . S
C1401 C1404 1.399 . S
C1401 C1406 1.383 . S
C1401 C1408 1.496 . S
C1402 C1403 1.399 . S
C1402 C1406 1.389 . S
C1403 C1402 1.399 . S
C1403 C1405 1.380 . S
C1403 H1420 0.929 . S
C1404 C1401 1.399 . S
C1404 C1405 1.392 . S
C1404 H1421 0.929 . S
C1405 C1403 1.380 . S
C1405 C1404 1.392 . S
C1405 H1422 0.929 . S
C1406 C1401 1.383 . S
C1406 C1402 1.389 . S
C1406 H1423 0.931 . S
C1407 O1392 1.266 . S
C1407 O1393 1.248 . S
C1408 Tb1344 2.802 . S
C1408 O1388 1.264 . S
C1408 O1391 1.256 . S
C1408 C1401 1.496 . S
C1409 C1376 1.448 . S
C1409 H1386 0.930 . S
C1409 C1410 1.328 . S
C1410 C1381 1.427 . S
C1410 H1387 0.929 . S
C1410 C1409 1.328 . S
C1411 O1395 1.264 . S
C1411 O1396 1.243 . S
C1412 C1415 1.399 . S
C1412 C1416 1.383 . S
C1412 C1419 1.496 . S
C1413 C1414 1.399 . S
C1413 C1416 1.389 . S
C1414 C1413 1.399 . S
C1414 C1417 1.380 . S
C1414 H1424 0.929 . S
C1415 C1412 1.399 . S
C1415 C1417 1.392 . S
C1415 H1425 0.929 . S
C1416 C1412 1.383 . S
C1416 C1413 1.389 . S
C1416 H1426 0.931 . S
C1417 C1414 1.380 . S
C1417 C1415 1.392 . S
C1417 H1427 0.929 . S
C1418 O1398 1.266 . S
C1418 O1399 1.248 . S
C1419 Tb1355 2.802 . S
C1419 O1394 1.264 . S
C1419 O1397 1.256 . S
C1419 C1412 1.496 . S
H1420 C1403 0.929 . S
H1421 C1404 0.929 . S
H1422 C1405 0.929 . S
H1423 C1406 0.931 . S
H1424 C1414 0.929 . S
H1425 C1415 0.929 . S
H1426 C1416 0.931 . S
H1427 C1417 0.929 . S
Tb1428 N1457 2.617 . S
Tb1428 N1463 2.572 . S
Tb1428 O1472 2.465 . S
Tb1428 O1473 2.387 . S
Tb1428 O1475 2.428 . S
Tb1428 O1476 2.308 . S
Tb1428 O1480 2.349 . S
Tb1428 O1483 2.393 . S
Tb1428 C1492 2.802 . S
C1429 N1430 1.379 . S
C1429 C1432 1.416 . S
C1429 C1436 1.424 . S
N1430 C1429 1.379 . S
N1430 C1433 1.334 . S
N1430 Tb1439 2.617 . S
C1431 C1433 1.390 . S
C1431 C1434 1.339 . S
C1431 H1451 0.930 . S
C1432 C1429 1.416 . S
C1432 C1434 1.416 . S
C1432 C1438 1.448 . S
C1433 N1430 1.334 . S
C1433 C1431 1.390 . S
C1433 H1444 0.930 . S
C1434 C1431 1.339 . S
C1434 C1432 1.416 . S
C1434 H1455 0.930 . S
C1435 C1436 1.413 . S
C1435 C1437 1.427 . S
C1435 C1441 1.416 . S
C1436 C1429 1.424 . S
C1436 C1435 1.413 . S
C1436 N1440 1.361 . S
C1437 C1435 1.427 . S
C1437 C1438 1.328 . S
C1437 H1452 0.929 . S
C1438 C1432 1.448 . S
C1438 C1437 1.328 . S
C1438 H1453 0.930 . S
Tb1439 N1430 2.617 . S
Tb1439 N1440 2.572 . S
Tb1439 O1474 2.349 . S
Tb1439 O1477 2.393 . S
Tb1439 O1478 2.465 . S
Tb1439 O1479 2.387 . S
Tb1439 O1481 2.428 . S
Tb1439 O1482 2.308 . S
Tb1439 C1503 2.802 . S
N1440 C1436 1.361 . S
N1440 Tb1439 2.572 . S
N1440 C1442 1.340 . S
C1441 C1435 1.416 . S
C1441 C1443 1.332 . S
C1441 H1449 0.931 . S
C1442 N1440 1.340 . S
C1442 C1443 1.407 . S
C1442 H1448 0.930 . S
C1443 C1441 1.332 . S
C1443 C1442 1.407 . S
C1443 H1445 0.929 . S
H1444 C1433 0.930 . S
H1445 C1443 0.929 . S
H1446 C1461 0.930 . S
H1447 C1468 0.929 . S
H1448 C1442 0.930 . S
H1449 C1441 0.931 . S
H1450 C1464 0.930 . S
H1451 C1431 0.930 . S
H1452 C1437 0.929 . S
H1453 C1438 0.930 . S
H1454 C1459 0.930 . S
H1455 C1434 0.930 . S
H1456 C1467 0.931 . S
N1457 Tb1428 2.617 . S
N1457 C1458 1.379 . S
N1457 C1461 1.334 . S
C1458 N1457 1.379 . S
C1458 C1460 1.416 . S
C1458 C1466 1.424 . S
C1459 H1454 0.930 . S
C1459 C1461 1.390 . S
C1459 C1462 1.339 . S
C1460 C1458 1.416 . S
C1460 C1462 1.416 . S
C1460 C1493 1.448 . S
C1461 H1446 0.930 . S
C1461 N1457 1.334 . S
C1461 C1459 1.390 . S
C1462 C1459 1.339 . S
C1462 C1460 1.416 . S
C1462 H1469 0.930 . S
N1463 Tb1428 2.572 . S
N1463 C1464 1.340 . S
N1463 C1466 1.361 . S
C1464 H1450 0.930 . S
C1464 N1463 1.340 . S
C1464 C1468 1.407 . S
C1465 C1466 1.413 . S
C1465 C1467 1.416 . S
C1465 C1494 1.427 . S
C1466 C1458 1.424 . S
C1466 N1463 1.361 . S
C1466 C1465 1.413 . S
C1467 H1456 0.931 . S
C1467 C1465 1.416 . S
C1467 C1468 1.332 . S
C1468 H1447 0.929 . S
C1468 C1464 1.407 . S
C1468 C1467 1.332 . S
H1469 C1462 0.930 . S
H1470 C1493 0.930 . S
H1471 C1494 0.929 . S
O1472 Tb1428 2.465 . S
O1472 C1492 1.264 . S
O1473 Tb1428 2.387 . S
O1473 C1484 1.264 . S
O1474 Tb1439 2.349 . S
O1474 C1484 1.243 . S
O1475 Tb1428 2.428 . S
O1475 C1492 1.256 . S
O1476 Tb1428 2.308 . S
O1476 C1491 1.266 . S
O1477 Tb1439 2.393 . S
O1477 C1491 1.248 . S
O1478 Tb1439 2.465 . S
O1478 C1503 1.264 . S
O1479 Tb1439 2.387 . S
O1479 C1495 1.264 . S
O1480 Tb1428 2.349 . S
O1480 C1495 1.243 . S
O1481 Tb1439 2.428 . S
O1481 C1503 1.256 . S
O1482 Tb1439 2.308 . S
O1482 C1502 1.266 . S
O1483 Tb1428 2.393 . S
O1483 C1502 1.248 . S
C1484 O1473 1.264 . S
C1484 O1474 1.243 . S
C1485 C1488 1.399 . S
C1485 C1490 1.383 . S
C1485 C1492 1.496 . S
C1486 C1487 1.399 . S
C1486 C1490 1.389 . S
C1487 C1486 1.399 . S
C1487 C1489 1.380 . S
C1487 H1504 0.929 . S
C1488 C1485 1.399 . S
C1488 C1489 1.392 . S
C1488 H1505 0.929 . S
C1489 C1487 1.380 . S
C1489 C1488 1.392 . S
C1489 H1506 0.929 . S
C1490 C1485 1.383 . S
C1490 C1486 1.389 . S
C1490 H1507 0.931 . S
C1491 O1476 1.266 . S
C1491 O1477 1.248 . S
C1492 Tb1428 2.802 . S
C1492 O1472 1.264 . S
C1492 O1475 1.256 . S
C1492 C1485 1.496 . S
C1493 C1460 1.448 . S
C1493 H1470 0.930 . S
C1493 C1494 1.328 . S
C1494 C1465 1.427 . S
C1494 H1471 0.929 . S
C1494 C1493 1.328 . S
C1495 O1479 1.264 . S
C1495 O1480 1.243 . S
C1496 C1499 1.399 . S
C1496 C1500 1.383 . S
C1496 C1503 1.496 . S
C1497 C1498 1.399 . S
C1497 C1500 1.389 . S
C1498 C1497 1.399 . S
C1498 C1501 1.380 . S
C1498 H1508 0.929 . S
C1499 C1496 1.399 . S
C1499 C1501 1.392 . S
C1499 H1509 0.929 . S
C1500 C1496 1.383 . S
C1500 C1497 1.389 . S
C1500 H1510 0.931 . S
C1501 C1498 1.380 . S
C1501 C1499 1.392 . S
C1501 H1511 0.929 . S
C1502 O1482 1.266 . S
C1502 O1483 1.248 . S
C1503 Tb1439 2.802 . S
C1503 O1478 1.264 . S
C1503 O1481 1.256 . S
C1503 C1496 1.496 . S
H1504 C1487 0.929 . S
H1505 C1488 0.929 . S
H1506 C1489 0.929 . S
H1507 C1490 0.931 . S
H1508 C1498 0.929 . S
H1509 C1499 0.929 . S
H1510 C1500 0.931 . S
H1511 C1501 0.929 . S
Tb1512 N1541 2.617 . S
Tb1512 N1547 2.572 . S
Tb1512 O1556 2.465 . S
Tb1512 O1557 2.387 . S
Tb1512 O1559 2.428 . S
Tb1512 O1560 2.308 . S
Tb1512 O1564 2.349 . S
Tb1512 O1567 2.393 . S
Tb1512 C1576 2.802 . S
C1513 N1514 1.379 . S
C1513 C1516 1.416 . S
C1513 C1520 1.424 . S
N1514 C1513 1.379 . S
N1514 C1517 1.334 . S
N1514 Tb1523 2.617 . S
C1515 C1517 1.390 . S
C1515 C1518 1.339 . S
C1515 H1535 0.930 . S
C1516 C1513 1.416 . S
C1516 C1518 1.416 . S
C1516 C1522 1.448 . S
C1517 N1514 1.334 . S
C1517 C1515 1.390 . S
C1517 H1528 0.930 . S
C1518 C1515 1.339 . S
C1518 C1516 1.416 . S
C1518 H1539 0.930 . S
C1519 C1520 1.413 . S
C1519 C1521 1.427 . S
C1519 C1525 1.416 . S
C1520 C1513 1.424 . S
C1520 C1519 1.413 . S
C1520 N1524 1.361 . S
C1521 C1519 1.427 . S
C1521 C1522 1.328 . S
C1521 H1536 0.929 . S
C1522 C1516 1.448 . S
C1522 C1521 1.328 . S
C1522 H1537 0.930 . S
Tb1523 N1514 2.617 . S
Tb1523 N1524 2.572 . S
Tb1523 O1558 2.349 . S
Tb1523 O1561 2.393 . S
Tb1523 O1562 2.465 . S
Tb1523 O1563 2.387 . S
Tb1523 O1565 2.428 . S
Tb1523 O1566 2.308 . S
Tb1523 C1587 2.802 . S
N1524 C1520 1.361 . S
N1524 Tb1523 2.572 . S
N1524 C1526 1.340 . S
C1525 C1519 1.416 . S
C1525 C1527 1.332 . S
C1525 H1533 0.931 . S
C1526 N1524 1.340 . S
C1526 C1527 1.407 . S
C1526 H1532 0.930 . S
C1527 C1525 1.332 . S
C1527 C1526 1.407 . S
C1527 H1529 0.929 . S
H1528 C1517 0.930 . S
H1529 C1527 0.929 . S
H1530 C1545 0.930 . S
H1531 C1552 0.929 . S
H1532 C1526 0.930 . S
H1533 C1525 0.931 . S
H1534 C1548 0.930 . S
H1535 C1515 0.930 . S
H1536 C1521 0.929 . S
H1537 C1522 0.930 . S
H1538 C1543 0.930 . S
H1539 C1518 0.930 . S
H1540 C1551 0.931 . S
N1541 Tb1512 2.617 . S
N1541 C1542 1.379 . S
N1541 C1545 1.334 . S
C1542 N1541 1.379 . S
C1542 C1544 1.416 . S
C1542 C1550 1.424 . S
C1543 H1538 0.930 . S
C1543 C1545 1.390 . S
C1543 C1546 1.339 . S
C1544 C1542 1.416 . S
C1544 C1546 1.416 . S
C1544 C1577 1.448 . S
C1545 H1530 0.930 . S
C1545 N1541 1.334 . S
C1545 C1543 1.390 . S
C1546 C1543 1.339 . S
C1546 C1544 1.416 . S
C1546 H1553 0.930 . S
N1547 Tb1512 2.572 . S
N1547 C1548 1.340 . S
N1547 C1550 1.361 . S
C1548 H1534 0.930 . S
C1548 N1547 1.340 . S
C1548 C1552 1.407 . S
C1549 C1550 1.413 . S
C1549 C1551 1.416 . S
C1549 C1578 1.427 . S
C1550 C1542 1.424 . S
C1550 N1547 1.361 . S
C1550 C1549 1.413 . S
C1551 H1540 0.931 . S
C1551 C1549 1.416 . S
C1551 C1552 1.332 . S
C1552 H1531 0.929 . S
C1552 C1548 1.407 . S
C1552 C1551 1.332 . S
H1553 C1546 0.930 . S
H1554 C1577 0.930 . S
H1555 C1578 0.929 . S
O1556 Tb1512 2.465 . S
O1556 C1576 1.264 . S
O1557 Tb1512 2.387 . S
O1557 C1568 1.264 . S
O1558 Tb1523 2.349 . S
O1558 C1568 1.243 . S
O1559 Tb1512 2.428 . S
O1559 C1576 1.256 . S
O1560 Tb1512 2.308 . S
O1560 C1575 1.266 . S
O1561 Tb1523 2.393 . S
O1561 C1575 1.248 . S
O1562 Tb1523 2.465 . S
O1562 C1587 1.264 . S
O1563 Tb1523 2.387 . S
O1563 C1579 1.264 . S
O1564 Tb1512 2.349 . S
O1564 C1579 1.243 . S
O1565 Tb1523 2.428 . S
O1565 C1587 1.256 . S
O1566 Tb1523 2.308 . S
O1566 C1586 1.266 . S
O1567 Tb1512 2.393 . S
O1567 C1586 1.248 . S
C1568 O1557 1.264 . S
C1568 O1558 1.243 . S
C1569 C1572 1.399 . S
C1569 C1574 1.383 . S
C1569 C1576 1.496 . S
C1570 C1571 1.399 . S
C1570 C1574 1.389 . S
C1571 C1570 1.399 . S
C1571 C1573 1.380 . S
C1571 H1588 0.929 . S
C1572 C1569 1.399 . S
C1572 C1573 1.392 . S
C1572 H1589 0.929 . S
C1573 C1571 1.380 . S
C1573 C1572 1.392 . S
C1573 H1590 0.929 . S
C1574 C1569 1.383 . S
C1574 C1570 1.389 . S
C1574 H1591 0.931 . S
C1575 O1560 1.266 . S
C1575 O1561 1.248 . S
C1576 Tb1512 2.802 . S
C1576 O1556 1.264 . S
C1576 O1559 1.256 . S
C1576 C1569 1.496 . S
C1577 C1544 1.448 . S
C1577 H1554 0.930 . S
C1577 C1578 1.328 . S
C1578 C1549 1.427 . S
C1578 H1555 0.929 . S
C1578 C1577 1.328 . S
C1579 O1563 1.264 . S
C1579 O1564 1.243 . S
C1580 C1583 1.399 . S
C1580 C1584 1.383 . S
C1580 C1587 1.496 . S
C1581 C1582 1.399 . S
C1581 C1584 1.389 . S
C1582 C1581 1.399 . S
C1582 C1585 1.380 . S
C1582 H1592 0.929 . S
C1583 C1580 1.399 . S
C1583 C1585 1.392 . S
C1583 H1593 0.929 . S
C1584 C1580 1.383 . S
C1584 C1581 1.389 . S
C1584 H1594 0.931 . S
C1585 C1582 1.380 . S
C1585 C1583 1.392 . S
C1585 H1595 0.929 . S
C1586 O1566 1.266 . S
C1586 O1567 1.248 . S
C1587 Tb1523 2.802 . S
C1587 O1562 1.264 . S
C1587 O1565 1.256 . S
C1587 C1580 1.496 . S
H1588 C1571 0.929 . S
H1589 C1572 0.929 . S
H1590 C1573 0.929 . S
H1591 C1574 0.931 . S
H1592 C1582 0.929 . S
H1593 C1583 0.929 . S
H1594 C1584 0.931 . S
H1595 C1585 0.929 . S
Tb1596 N1625 2.617 . S
Tb1596 N1631 2.572 . S
Tb1596 O1640 2.465 . S
Tb1596 O1641 2.387 1_655 S
Tb1596 O1643 2.428 . S
Tb1596 O1644 2.305 1_654 S
Tb1596 O1648 2.349 1_655 S
Tb1596 O1651 2.393 1_655 S
Tb1596 C1660 2.802 . S
C1597 N1598 1.379 . S
C1597 C1600 1.416 . S
C1597 C1604 1.424 1_556 S
N1598 C1597 1.379 . S
N1598 C1601 1.334 . S
N1598 Tb1607 2.617 1_556 S
C1599 C1601 1.390 . S
C1599 C1602 1.339 . S
C1599 H1619 0.930 . S
C1600 C1597 1.416 . S
C1600 C1602 1.416 . S
C1600 C1606 1.448 . S
C1601 N1598 1.334 . S
C1601 C1599 1.390 . S
C1601 H1612 0.930 . S
C1602 C1599 1.339 . S
C1602 C1600 1.416 . S
C1602 H1623 0.930 . S
C1603 C1604 1.413 . S
C1603 C1605 1.427 1_554 S
C1603 C1609 1.416 . S
C1604 C1597 1.424 1_554 S
C1604 C1603 1.413 . S
C1604 N1608 1.361 . S
C1605 C1603 1.427 1_556 S
C1605 C1606 1.328 . S
C1605 H1620 0.929 1_556 S
C1606 C1600 1.448 . S
C1606 C1605 1.328 . S
C1606 H1621 0.930 . S
Tb1607 N1598 2.617 1_554 S
Tb1607 N1608 2.572 . S
Tb1607 O1642 2.349 . S
Tb1607 O1645 2.393 1_554 S
Tb1607 O1646 2.465 . S
Tb1607 O1647 2.387 . S
Tb1607 O1649 2.428 1_554 S
Tb1607 O1650 2.308 . S
Tb1607 C1671 2.802 1_554 S
N1608 C1604 1.361 . S
N1608 Tb1607 2.572 . S
N1608 C1610 1.340 . S
C1609 C1603 1.416 . S
C1609 C1611 1.332 . S
C1609 H1617 0.931 . S
C1610 N1608 1.340 . S
C1610 C1611 1.407 . S
C1610 H1616 0.930 . S
C1611 C1609 1.332 . S
C1611 C1610 1.407 . S
C1611 H1613 0.929 . S
H1612 C1601 0.930 . S
H1613 C1611 0.929 . S
H1614 C1629 0.930 1_455 S
H1615 C1636 0.929 . S
H1616 C1610 0.930 . S
H1617 C1609 0.931 . S
H1618 C1632 0.930 . S
H1619 C1599 0.930 . S
H1620 C1605 0.929 1_554 S
H1621 C1606 0.930 . S
H1622 C1627 0.930 . S
H1623 C1602 0.930 . S
H1624 C1635 0.927 1_556 S
N1625 Tb1596 2.617 . S
N1625 C1626 1.379 . S
N1625 C1629 1.334 . S
C1626 N1625 1.379 . S
C1626 C1628 1.416 . S
C1626 C1634 1.424 . S
C1627 H1622 0.930 . S
C1627 C1629 1.390 . S
C1627 C1630 1.339 . S
C1628 C1626 1.416 . S
C1628 C1630 1.416 . S
C1628 C1661 1.448 . S
C1629 H1614 0.930 1_655 S
C1629 N1625 1.334 . S
C1629 C1627 1.390 . S
C1630 C1627 1.339 . S
C1630 C1628 1.416 . S
C1630 H1637 0.930 . S
N1631 Tb1596 2.572 . S
N1631 C1632 1.340 1_554 S
N1631 C1634 1.361 . S
C1632 H1618 0.930 . S
C1632 N1631 1.340 1_556 S
C1632 C1636 1.407 . S
C1633 C1634 1.413 . S
C1633 C1635 1.432 . S
C1633 C1662 1.427 . S
C1634 C1626 1.424 . S
C1634 N1631 1.361 . S
C1634 C1633 1.413 . S
C1635 H1624 0.927 1_554 S
C1635 C1633 1.432 . S
C1635 C1636 1.321 1_554 S
C1636 H1615 0.929 . S
C1636 C1632 1.407 . S
C1636 C1635 1.321 1_556 S
H1637 C1630 0.930 . S
H1638 C1661 0.930 . S
H1639 C1662 0.929 . S
O1640 Tb1596 2.465 . S
O1640 C1660 1.264 . S
O1641 Tb1596 2.387 1_455 S
O1641 C1652 1.264 . S
O1642 Tb1607 2.349 . S
O1642 C1652 1.243 . S
O1643 Tb1596 2.428 . S
O1643 C1660 1.256 . S
O1644 Tb1596 2.305 1_456 S
O1644 C1659 1.272 . S
O1645 Tb1607 2.393 1_556 S
O1645 C1659 1.248 . S
O1646 Tb1607 2.465 . S
O1646 C1671 1.264 1_554 S
O1647 Tb1607 2.387 . S
O1647 C1663 1.264 . S
O1648 Tb1596 2.349 1_455 S
O1648 C1663 1.243 . S
O1649 Tb1607 2.428 1_556 S
O1649 C1671 1.256 . S
O1650 Tb1607 2.308 . S
O1650 C1670 1.266 . S
O1651 Tb1596 2.393 1_455 S
O1651 C1670 1.248 . S
C1652 O1641 1.264 . S
C1652 O1642 1.243 . S
C1653 C1656 1.399 . S
C1653 C1658 1.383 . S
C1653 C1660 1.496 . S
C1654 C1655 1.399 . S
C1654 C1658 1.389 . S
C1655 C1654 1.399 . S
C1655 C1657 1.380 . S
C1655 H1672 0.929 . S
C1656 C1653 1.399 . S
C1656 C1657 1.392 . S
C1656 H1673 0.929 . S
C1657 C1655 1.380 . S
C1657 C1656 1.392 . S
C1657 H1674 0.929 . S
C1658 C1653 1.383 . S
C1658 C1654 1.389 . S
C1658 H1675 0.931 . S
C1659 O1644 1.272 . S
C1659 O1645 1.248 . S
C1660 Tb1596 2.802 . S
C1660 O1640 1.264 . S
C1660 O1643 1.256 . S
C1660 C1653 1.496 . S
C1661 C1628 1.448 . S
C1661 H1638 0.930 . S
C1661 C1662 1.328 . S
C1662 C1633 1.427 . S
C1662 H1639 0.929 . S
C1662 C1661 1.328 . S
C1663 O1647 1.264 . S
C1663 O1648 1.243 . S
C1664 C1667 1.399 . S
C1664 C1668 1.383 1_556 S
C1664 C1671 1.496 . S
C1665 C1666 1.399 1_554 S
C1665 C1668 1.389 . S
C1666 C1665 1.399 1_556 S
C1666 C1669 1.380 . S
C1666 H1676 0.929 . S
C1667 C1664 1.399 . S
C1667 C1669 1.392 . S
C1667 H1677 0.929 . S
C1668 C1664 1.383 1_554 S
C1668 C1665 1.389 . S
C1668 H1678 0.931 . S
C1669 C1666 1.380 . S
C1669 C1667 1.392 . S
C1669 H1679 0.929 . S
C1670 O1650 1.266 . S
C1670 O1651 1.248 . S
C1671 Tb1607 2.802 1_556 S
C1671 O1646 1.264 1_556 S
C1671 O1649 1.256 . S
C1671 C1664 1.496 . S
H1672 C1655 0.929 . S
H1673 C1656 0.929 . S
H1674 C1657 0.929 . S
H1675 C1658 0.931 . S
H1676 C1666 0.929 . S
H1677 C1667 0.929 . S
H1678 C1668 0.931 . S
H1679 C1669 0.929 . S
H1680 C1688 0.929 . S
H1681 C1690 0.930 . S
H1682 C1692 0.930 . S
H1683 C1695 0.929 . S
H1684 C1698 0.913 1_654 S
H1685 C1700 0.960 . S
H1686 C1700 0.960 . S
H1687 C1700 0.960 . S
C1688 H1680 0.929 . S
C1688 C1689 1.377 1_455 S
C1688 C1690 1.384 . S
C1689 C1688 1.377 1_655 S
C1689 C1695 1.390 . S
C1690 H1681 0.930 . S
C1690 C1688 1.384 . S
C1690 C1691 1.372 . S
C1691 C1690 1.372 . S
C1691 C1692 1.400 1_455 S
C1691 C1696 1.490 . S
C1692 H1682 0.930 . S
C1692 C1691 1.400 1_655 S
C1692 C1695 1.386 . S
H1693 C1709 0.930 1_655 S
H1694 C1710 0.970 . S
C1695 H1683 0.929 . S
C1695 C1689 1.390 . S
C1695 C1692 1.386 . S
C1696 C1691 1.490 . S
C1696 C1698 1.395 . S
C1696 C1699 1.403 . S
H1697 C1703 0.930 . S
C1698 H1684 0.913 1_456 S
C1698 C1696 1.395 . S
C1698 C1701 1.403 1_556 S
C1699 C1696 1.403 . S
C1699 C1700 1.524 . S
C1699 C1703 1.400 . S
C1700 H1685 0.960 . S
C1700 H1686 0.960 . S
C1700 H1687 0.960 . S
C1700 C1699 1.524 . S
C1701 C1698 1.403 1_554 S
C1701 C1702 1.392 1_554 S
C1701 C1705 1.504 . S
C1702 C1701 1.392 1_556 S
C1702 C1703 1.385 . S
C1702 C1704 1.478 . S
C1703 H1697 0.930 . S
C1703 C1699 1.400 . S
C1703 C1702 1.385 . S
C1704 C1702 1.478 . S
C1704 C1706 1.381 1_556 S
C1704 C1710 1.362 1_455 S
C1705 C1701 1.504 . S
C1705 H1711 0.944 1_455 S
C1705 H1712 0.941 1_455 S
C1705 H1713 0.988 . S
C1706 C1704 1.381 1_554 S
C1706 C1707 1.394 . S
C1706 H1714 0.930 . S
C1707 C1706 1.394 . S
C1707 C1708 1.383 . S
C1707 H1715 0.929 . S
C1708 C1707 1.383 . S
C1708 C1709 1.377 1_554 S
C1709 H1693 0.930 1_455 S
C1709 C1708 1.377 1_556 S
C1709 C1710 1.365 1_455 S
C1710 H1694 0.970 . S
C1710 C1704 1.362 1_655 S
C1710 C1709 1.365 1_655 S
H1711 C1705 0.944 1_655 S
H1712 C1705 0.941 1_655 S
H1713 C1705 0.988 . S
H1714 C1706 0.930 . S
H1715 C1707 0.929 . S
H1716 C1724 0.929 . S
H1717 C1726 0.930 . S
H1718 C1728 0.930 . S
H1719 C1731 0.929 . S
H1720 C1734 0.930 . S
H1721 C1736 0.960 . S
H1722 C1736 0.960 . S
H1723 C1736 0.960 . S
C1724 H1716 0.929 . S
C1724 C1725 1.377 . S
C1724 C1726 1.384 . S
C1725 C1724 1.377 . S
C1725 C1731 1.390 . S
C1726 H1717 0.930 . S
C1726 C1724 1.384 . S
C1726 C1727 1.372 . S
C1727 C1726 1.372 . S
C1727 C1728 1.400 . S
C1727 C1732 1.490 . S
C1728 H1718 0.930 . S
C1728 C1727 1.400 . S
C1728 C1731 1.386 . S
H1729 C1745 0.930 . S
H1730 C1746 0.931 . S
C1731 H1719 0.929 . S
C1731 C1725 1.390 . S
C1731 C1728 1.386 . S
C1732 C1727 1.490 . S
C1732 C1734 1.395 . S
C1732 C1735 1.403 . S
H1733 C1739 0.930 . S
C1734 H1720 0.930 . S
C1734 C1732 1.395 . S
C1734 C1737 1.403 . S
C1735 C1732 1.403 . S
C1735 C1736 1.524 . S
C1735 C1739 1.400 . S
C1736 H1721 0.960 . S
C1736 H1722 0.960 . S
C1736 H1723 0.960 . S
C1736 C1735 1.524 . S
C1737 C1734 1.403 . S
C1737 C1738 1.392 . S
C1737 C1741 1.495 . S
C1738 C1737 1.392 . S
C1738 C1739 1.385 . S
C1738 C1740 1.478 . S
C1739 H1733 0.930 . S
C1739 C1735 1.400 . S
C1739 C1738 1.385 . S
C1740 C1738 1.478 . S
C1740 C1742 1.381 . S
C1740 C1746 1.383 . S
C1741 C1737 1.495 . S
C1741 H1747 0.959 . S
C1741 H1748 0.961 . S
C1741 H1749 0.960 . S
C1742 C1740 1.381 . S
C1742 C1743 1.394 . S
C1742 H1750 0.930 . S
C1743 C1742 1.394 . S
C1743 C1744 1.383 . S
C1743 H1751 0.929 . S
C1744 C1743 1.383 . S
C1744 C1745 1.377 . S
C1745 H1729 0.930 . S
C1745 C1744 1.377 . S
C1745 C1746 1.379 . S
C1746 H1730 0.931 . S
C1746 C1740 1.383 . S
C1746 C1745 1.379 . S
H1747 C1741 0.959 . S
H1748 C1741 0.961 . S
H1749 C1741 0.960 . S
H1750 C1742 0.930 . S
H1751 C1743 0.929 . S
H1752 C1760 0.929 . S
H1753 C1762 0.930 . S
H1754 C1764 0.930 . S
H1755 C1767 0.929 . S
H1756 C1770 0.930 . S
H1757 C1772 0.960 . S
H1758 C1772 0.960 . S
H1759 C1772 0.960 . S
C1760 H1752 0.929 . S
C1760 C1761 1.377 . S
C1760 C1762 1.384 . S
C1761 C1760 1.377 . S
C1761 C1767 1.390 . S
C1762 H1753 0.930 . S
C1762 C1760 1.384 . S
C1762 C1763 1.372 . S
C1763 C1762 1.372 . S
C1763 C1764 1.400 . S
C1763 C1768 1.490 . S
C1764 H1754 0.930 . S
C1764 C1763 1.400 . S
C1764 C1767 1.386 . S
H1765 C1781 0.930 . S
H1766 C1782 0.931 . S
C1767 H1755 0.929 . S
C1767 C1761 1.390 . S
C1767 C1764 1.386 . S
C1768 C1763 1.490 . S
C1768 C1770 1.395 . S
C1768 C1771 1.403 . S
H1769 C1775 0.930 . S
C1770 H1756 0.930 . S
C1770 C1768 1.395 . S
C1770 C1773 1.403 . S
C1771 C1768 1.403 . S
C1771 C1772 1.524 . S
C1771 C1775 1.400 . S
C1772 H1757 0.960 . S
C1772 H1758 0.960 . S
C1772 H1759 0.960 . S
C1772 C1771 1.524 . S
C1773 C1770 1.403 . S
C1773 C1774 1.392 . S
C1773 C1777 1.495 . S
C1774 C1773 1.392 . S
C1774 C1775 1.385 . S
C1774 C1776 1.478 . S
C1775 H1769 0.930 . S
C1775 C1771 1.400 . S
C1775 C1774 1.385 . S
C1776 C1774 1.478 . S
C1776 C1778 1.381 . S
C1776 C1782 1.383 . S
C1777 C1773 1.495 . S
C1777 H1783 0.959 . S
C1777 H1784 0.961 . S
C1777 H1785 0.960 . S
C1778 C1776 1.381 . S
C1778 C1779 1.394 . S
C1778 H1786 0.930 . S
C1779 C1778 1.394 . S
C1779 C1780 1.383 . S
C1779 H1787 0.929 . S
C1780 C1779 1.383 . S
C1780 C1781 1.377 . S
C1781 H1765 0.930 . S
C1781 C1780 1.377 . S
C1781 C1782 1.379 . S
C1782 H1766 0.931 . S
C1782 C1776 1.383 . S
C1782 C1781 1.379 . S
H1783 C1777 0.959 . S
H1784 C1777 0.961 . S
H1785 C1777 0.960 . S
H1786 C1778 0.930 . S
H1787 C1779 0.929 . S
H1788 C1796 0.929 . S
H1789 C1798 0.930 . S
H1790 C1800 0.930 . S
H1791 C1803 0.929 . S
H1792 C1806 0.930 . S
H1793 C1808 0.960 . S
H1794 C1808 0.960 . S
H1795 C1808 0.960 . S
C1796 H1788 0.929 . S
C1796 C1797 1.377 . S
C1796 C1798 1.384 . S
C1797 C1796 1.377 . S
C1797 C1803 1.390 . S
C1798 H1789 0.930 . S
C1798 C1796 1.384 . S
C1798 C1799 1.372 . S
C1799 C1798 1.372 . S
C1799 C1800 1.400 . S
C1799 C1804 1.490 . S
C1800 H1790 0.930 . S
C1800 C1799 1.400 . S
C1800 C1803 1.386 . S
H1801 C1817 0.930 . S
H1802 C1818 0.931 . S
C1803 H1791 0.929 . S
C1803 C1797 1.390 . S
C1803 C1800 1.386 . S
C1804 C1799 1.490 . S
C1804 C1806 1.395 . S
C1804 C1807 1.403 . S
H1805 C1811 0.930 . S
C1806 H1792 0.930 . S
C1806 C1804 1.395 . S
C1806 C1809 1.403 . S
C1807 C1804 1.403 . S
C1807 C1808 1.524 . S
C1807 C1811 1.400 . S
C1808 H1793 0.960 . S
C1808 H1794 0.960 . S
C1808 H1795 0.960 . S
C1808 C1807 1.524 . S
C1809 C1806 1.403 . S
C1809 C1810 1.392 . S
C1809 C1813 1.495 . S
C1810 C1809 1.392 . S
C1810 C1811 1.385 . S
C1810 C1812 1.478 . S
C1811 H1805 0.930 . S
C1811 C1807 1.400 . S
C1811 C1810 1.385 . S
C1812 C1810 1.478 . S
C1812 C1814 1.381 . S
C1812 C1818 1.383 . S
C1813 C1809 1.495 . S
C1813 H1819 0.959 . S
C1813 H1820 0.961 . S
C1813 H1821 0.960 . S
C1814 C1812 1.381 . S
C1814 C1815 1.394 . S
C1814 H1822 0.930 . S
C1815 C1814 1.394 . S
C1815 C1816 1.383 . S
C1815 H1823 0.929 . S
C1816 C1815 1.383 . S
C1816 C1817 1.377 . S
C1817 H1801 0.930 . S
C1817 C1816 1.377 . S
C1817 C1818 1.379 . S
C1818 H1802 0.931 . S
C1818 C1812 1.383 . S
C1818 C1817 1.379 . S
H1819 C1813 0.959 . S
H1820 C1813 0.961 . S
H1821 C1813 0.960 . S
H1822 C1814 0.930 . S
H1823 C1815 0.929 . S
H1824 C1832 0.943 . S
H1825 C1834 0.952 . S
H1826 C1836 0.930 . S
H1827 C1839 0.929 . S
H1828 C1842 0.930 . S
H1829 C1844 0.960 . S
H1830 C1844 0.960 . S
H1831 C1844 0.960 . S
C1832 H1824 0.943 . S
C1832 C1833 1.362 1_655 S
C1832 C1834 1.383 . S
C1833 C1832 1.362 1_455 S
C1833 C1839 1.390 . S
C1834 H1825 0.952 . S
C1834 C1832 1.383 . S
C1834 C1835 1.354 1_655 S
C1835 C1834 1.354 1_455 S
C1835 C1836 1.400 . S
C1835 C1840 1.490 . S
C1836 H1826 0.930 . S
C1836 C1835 1.400 . S
C1836 C1839 1.386 . S
H1837 C1853 0.930 . S
H1838 C1854 0.931 . S
C1839 H1827 0.929 . S
C1839 C1833 1.390 . S
C1839 C1836 1.386 . S
C1840 C1835 1.490 . S
C1840 C1842 1.395 . S
C1840 C1843 1.403 . S
H1841 C1847 0.930 . S
C1842 H1828 0.930 . S
C1842 C1840 1.395 . S
C1842 C1845 1.403 . S
C1843 C1840 1.403 . S
C1843 C1844 1.524 . S
C1843 C1847 1.400 . S
C1844 H1829 0.960 . S
C1844 H1830 0.960 . S
C1844 H1831 0.960 . S
C1844 C1843 1.524 . S
C1845 C1842 1.403 . S
C1845 C1846 1.392 . S
C1845 C1849 1.495 . S
C1846 C1845 1.392 . S
C1846 C1847 1.385 . S
C1846 C1848 1.478 . S
C1847 H1841 0.930 . S
C1847 C1843 1.400 . S
C1847 C1846 1.385 . S
C1848 C1846 1.478 . S
C1848 C1850 1.403 . S
C1848 C1854 1.383 . S
C1849 C1845 1.495 . S
C1849 H1855 0.959 . S
C1849 H1856 0.961 . S
C1849 H1857 0.960 1_455 S
C1850 C1848 1.403 . S
C1850 C1851 1.397 . S
C1850 H1858 0.910 1_455 S
C1851 C1850 1.397 . S
C1851 C1852 1.433 . S
C1851 H1859 0.876 1_455 S
C1852 C1851 1.433 . S
C1852 C1853 1.377 . S
C1853 H1837 0.930 . S
C1853 C1852 1.377 . S
C1853 C1854 1.379 . S
C1854 H1838 0.931 . S
C1854 C1848 1.383 . S
C1854 C1853 1.379 . S
H1855 C1849 0.959 . S
H1856 C1849 0.961 . S
H1857 C1849 0.960 1_655 S
H1858 C1850 0.910 1_655 S
H1859 C1851 0.876 1_655 S
H1860 C1868 0.929 . S
H1861 C1870 0.930 . S
H1862 C1872 0.930 . S
H1863 C1875 0.929 . S
H1864 C1878 0.930 . S
H1865 C1880 0.960 . S
H1866 C1880 0.960 . S
H1867 C1880 0.960 . S
C1868 H1860 0.929 . S
C1868 C1869 1.377 . S
C1868 C1870 1.384 . S
C1869 C1868 1.377 . S
C1869 C1875 1.390 . S
C1870 H1861 0.930 . S
C1870 C1868 1.384 . S
C1870 C1871 1.372 . S
C1871 C1870 1.372 . S
C1871 C1872 1.400 . S
C1871 C1876 1.490 . S
C1872 H1862 0.930 . S
C1872 C1871 1.400 . S
C1872 C1875 1.386 . S
H1873 C1889 0.930 . S
H1874 C1890 0.931 . S
C1875 H1863 0.929 . S
C1875 C1869 1.390 . S
C1875 C1872 1.386 . S
C1876 C1871 1.490 . S
C1876 C1878 1.395 . S
C1876 C1879 1.403 . S
H1877 C1883 0.930 . S
C1878 H1864 0.930 . S
C1878 C1876 1.395 . S
C1878 C1881 1.403 . S
C1879 C1876 1.403 . S
C1879 C1880 1.524 . S
C1879 C1883 1.400 . S
C1880 H1865 0.960 . S
C1880 H1866 0.960 . S
C1880 H1867 0.960 . S
C1880 C1879 1.524 . S
C1881 C1878 1.403 . S
C1881 C1882 1.392 . S
C1881 C1885 1.495 . S
C1882 C1881 1.392 . S
C1882 C1883 1.385 . S
C1882 C1884 1.478 . S
C1883 H1877 0.930 . S
C1883 C1879 1.400 . S
C1883 C1882 1.385 . S
C1884 C1882 1.478 . S
C1884 C1886 1.381 . S
C1884 C1890 1.383 . S
C1885 C1881 1.495 . S
C1885 H1891 0.959 . S
C1885 H1892 0.961 . S
C1885 H1893 0.960 . S
C1886 C1884 1.381 . S
C1886 C1887 1.394 . S
C1886 H1894 0.930 . S
C1887 C1886 1.394 . S
C1887 C1888 1.383 . S
C1887 H1895 0.929 . S
C1888 C1887 1.383 . S
C1888 C1889 1.377 . S
C1889 H1873 0.930 . S
C1889 C1888 1.377 . S
C1889 C1890 1.379 . S
C1890 H1874 0.931 . S
C1890 C1884 1.383 . S
C1890 C1889 1.379 . S
H1891 C1885 0.959 . S
H1892 C1885 0.961 . S
H1893 C1885 0.960 . S
H1894 C1886 0.930 . S
H1895 C1887 0.929 . S
H1896 C1904 0.929 . S
H1897 C1906 0.930 . S
H1898 C1908 0.930 . S
H1899 C1911 0.929 . S
H1900 C1914 0.930 . S
H1901 C1916 0.960 . S
H1902 C1916 0.960 . S
H1903 C1916 0.960 . S
C1904 H1896 0.929 . S
C1904 C1905 1.377 . S
C1904 C1906 1.384 . S
C1905 C1904 1.377 . S
C1905 C1911 1.390 . S
C1906 H1897 0.930 . S
C1906 C1904 1.384 . S
C1906 C1907 1.372 . S
C1907 C1906 1.372 . S
C1907 C1908 1.400 . S
C1907 C1912 1.490 . S
C1908 H1898 0.930 . S
C1908 C1907 1.400 . S
C1908 C1911 1.386 . S
H1909 C1925 0.930 . S
H1910 C1926 0.931 . S
C1911 H1899 0.929 . S
C1911 C1905 1.390 . S
C1911 C1908 1.386 . S
C1912 C1907 1.490 . S
C1912 C1914 1.395 . S
C1912 C1915 1.403 . S
H1913 C1919 0.930 . S
C1914 H1900 0.930 . S
C1914 C1912 1.395 . S
C1914 C1917 1.403 . S
C1915 C1912 1.403 . S
C1915 C1916 1.524 . S
C1915 C1919 1.400 . S
C1916 H1901 0.960 . S
C1916 H1902 0.960 . S
C1916 H1903 0.960 . S
C1916 C1915 1.524 . S
C1917 C1914 1.403 . S
C1917 C1918 1.392 . S
C1917 C1921 1.495 . S
C1918 C1917 1.392 . S
C1918 C1919 1.385 . S
C1918 C1920 1.478 . S
C1919 H1913 0.930 . S
C1919 C1915 1.400 . S
C1919 C1918 1.385 . S
C1920 C1918 1.478 . S
C1920 C1922 1.381 . S
C1920 C1926 1.383 . S
C1921 C1917 1.495 . S
C1921 H1927 0.959 . S
C1921 H1928 0.961 . S
C1921 H1929 0.960 . S
C1922 C1920 1.381 . S
C1922 C1923 1.394 . S
C1922 H1930 0.930 . S
C1923 C1922 1.394 . S
C1923 C1924 1.383 . S
C1923 H1931 0.929 . S
C1924 C1923 1.383 . S
C1924 C1925 1.377 . S
C1925 H1909 0.930 . S
C1925 C1924 1.377 . S
C1925 C1926 1.379 . S
C1926 H1910 0.931 . S
C1926 C1920 1.383 . S
C1926 C1925 1.379 . S
H1927 C1921 0.959 . S
H1928 C1921 0.961 . S
H1929 C1921 0.960 . S
H1930 C1922 0.930 . S
H1931 C1923 0.929 . S
H1932 C1940 0.929 . S
H1933 C1942 0.930 . S
H1934 C1944 0.930 . S
H1935 C1947 0.929 . S
H1936 C1950 0.930 . S
H1937 C1952 0.960 . S
H1938 C1952 0.960 . S
H1939 C1952 0.960 . S
C1940 H1932 0.929 . S
C1940 C1941 1.377 . S
C1940 C1942 1.384 . S
C1941 C1940 1.377 . S
C1941 C1947 1.390 . S
C1942 H1933 0.930 . S
C1942 C1940 1.384 . S
C1942 C1943 1.372 . S
C1943 C1942 1.372 . S
C1943 C1944 1.400 . S
C1943 C1948 1.490 . S
C1944 H1934 0.930 . S
C1944 C1943 1.400 . S
C1944 C1947 1.386 . S
H1945 C1961 0.930 . S
H1946 C1962 0.931 . S
C1947 H1935 0.929 . S
C1947 C1941 1.390 . S
C1947 C1944 1.386 . S
C1948 C1943 1.490 . S
C1948 C1950 1.395 . S
C1948 C1951 1.403 . S
H1949 C1955 0.930 . S
C1950 H1936 0.930 . S
C1950 C1948 1.395 . S
C1950 C1953 1.403 . S
C1951 C1948 1.403 . S
C1951 C1952 1.524 . S
C1951 C1955 1.400 . S
C1952 H1937 0.960 . S
C1952 H1938 0.960 . S
C1952 H1939 0.960 . S
C1952 C1951 1.524 . S
C1953 C1950 1.403 . S
C1953 C1954 1.392 . S
C1953 C1957 1.495 . S
C1954 C1953 1.392 . S
C1954 C1955 1.385 . S
C1954 C1956 1.478 . S
C1955 H1949 0.930 . S
C1955 C1951 1.400 . S
C1955 C1954 1.385 . S
C1956 C1954 1.478 . S
C1956 C1958 1.381 . S
C1956 C1962 1.383 . S
C1957 C1953 1.495 . S
C1957 H1963 0.959 . S
C1957 H1964 0.961 . S
C1957 H1965 0.960 . S
C1958 C1956 1.381 . S
C1958 C1959 1.394 . S
C1958 H1966 0.930 . S
C1959 C1958 1.394 . S
C1959 C1960 1.383 . S
C1959 H1967 0.929 . S
C1960 C1959 1.383 . S
C1960 C1961 1.377 . S
C1961 H1945 0.930 . S
C1961 C1960 1.377 . S
C1961 C1962 1.379 . S
C1962 H1946 0.931 . S
C1962 C1956 1.383 . S
C1962 C1961 1.379 . S
H1963 C1957 0.959 . S
H1964 C1957 0.961 . S
H1965 C1957 0.960 . S
H1966 C1958 0.930 . S
H1967 C1959 0.929 . S
H1968 C1976 0.929 . S
H1969 C1978 0.930 . S
H1970 C1980 0.923 1_565 S
H1971 C1983 0.929 1_565 S
H1972 C1986 0.930 . S
H1973 C1988 0.960 . S
H1974 C1988 0.960 . S
H1975 C1988 0.960 . S
C1976 H1968 0.929 . S
C1976 C1977 1.377 . S
C1976 C1978 1.384 . S
C1977 C1976 1.377 . S
C1977 C1983 1.390 . S
C1978 H1969 0.930 . S
C1978 C1976 1.384 . S
C1978 C1979 1.372 . S
C1979 C1978 1.372 . S
C1979 C1980 1.400 . S
C1979 C1984 1.490 . S
C1980 H1970 0.923 1_545 S
C1980 C1979 1.400 . S
C1980 C1983 1.386 . S
H1981 C1997 0.930 . S
H1982 C1998 0.931 . S
C1983 H1971 0.929 1_545 S
C1983 C1977 1.390 . S
C1983 C1980 1.386 . S
C1984 C1979 1.490 . S
C1984 C1986 1.395 . S
C1984 C1987 1.403 . S
H1985 C1991 0.930 . S
C1986 H1972 0.930 . S
C1986 C1984 1.395 . S
C1986 C1989 1.403 . S
C1987 C1984 1.403 . S
C1987 C1988 1.524 . S
C1987 C1991 1.400 . S
C1988 H1973 0.960 . S
C1988 H1974 0.960 . S
C1988 H1975 0.960 . S
C1988 C1987 1.524 . S
C1989 C1986 1.403 . S
C1989 C1990 1.392 . S
C1989 C1993 1.495 1_655 S
C1990 C1989 1.392 . S
C1990 C1991 1.385 . S
C1990 C1992 1.478 . S
C1991 H1985 0.930 . S
C1991 C1987 1.400 . S
C1991 C1990 1.385 . S
C1992 C1990 1.478 . S
C1992 C1994 1.381 1_655 S
C1992 C1998 1.383 . S
C1993 C1989 1.495 1_455 S
C1993 H1999 0.932 1_545 S
C1993 H2000 0.961 1_545 S
C1993 H2001 0.960 . S
C1994 C1992 1.381 1_455 S
C1994 C1995 1.394 . S
C1994 H2002 0.930 . S
C1995 C1994 1.394 . S
C1995 C1996 1.383 . S
C1995 H2003 0.929 . S
C1996 C1995 1.383 . S
C1996 C1997 1.377 1_455 S
C1997 H1981 0.930 . S
C1997 C1996 1.377 1_655 S
C1997 C1998 1.379 . S
C1998 H1982 0.931 . S
C1998 C1992 1.383 . S
C1998 C1997 1.379 . S
H1999 C1993 0.932 1_565 S
H2000 C1993 0.961 1_565 S
H2001 C1993 0.960 . S
H2002 C1994 0.930 . S
H2003 C1995 0.929 . S
H2004 C2012 0.929 . S
H2005 C2014 0.930 . S
H2006 C2016 0.930 . S
H2007 C2019 0.929 . S
H2008 C2022 0.930 . S
H2009 C2024 0.960 . S
H2010 C2024 0.960 . S
H2011 C2024 0.960 . S
C2012 H2004 0.929 . S
C2012 C2013 1.377 . S
C2012 C2014 1.384 . S
C2013 C2012 1.377 . S
C2013 C2019 1.390 . S
C2014 H2005 0.930 . S
C2014 C2012 1.384 . S
C2014 C2015 1.372 . S
C2015 C2014 1.372 . S
C2015 C2016 1.400 . S
C2015 C2020 1.490 . S
C2016 H2006 0.930 . S
C2016 C2015 1.400 . S
C2016 C2019 1.386 . S
H2017 C2033 0.930 . S
H2018 C2034 0.931 . S
C2019 H2007 0.929 . S
C2019 C2013 1.390 . S
C2019 C2016 1.386 . S
C2020 C2015 1.490 . S
C2020 C2022 1.395 . S
C2020 C2023 1.403 . S
H2021 C2027 0.930 . S
C2022 H2008 0.930 . S
C2022 C2020 1.395 . S
C2022 C2025 1.403 . S
C2023 C2020 1.403 . S
C2023 C2024 1.524 . S
C2023 C2027 1.400 . S
C2024 H2009 0.960 . S
C2024 H2010 0.960 . S
C2024 H2011 0.960 . S
C2024 C2023 1.524 . S
C2025 C2022 1.403 . S
C2025 C2026 1.392 . S
C2025 C2029 1.495 . S
C2026 C2025 1.392 . S
C2026 C2027 1.385 . S
C2026 C2028 1.478 . S
C2027 H2021 0.930 . S
C2027 C2023 1.400 . S
C2027 C2026 1.385 . S
C2028 C2026 1.478 . S
C2028 C2030 1.381 . S
C2028 C2034 1.383 . S
C2029 C2025 1.495 . S
C2029 H2035 0.959 . S
C2029 H2036 0.961 . S
C2029 H2037 0.960 . S
C2030 C2028 1.381 . S
C2030 C2031 1.394 . S
C2030 H2038 0.930 . S
C2031 C2030 1.394 . S
C2031 C2032 1.383 . S
C2031 H2039 0.929 . S
C2032 C2031 1.383 . S
C2032 C2033 1.377 . S
C2033 H2017 0.930 . S
C2033 C2032 1.377 . S
C2033 C2034 1.379 . S
C2034 H2018 0.931 . S
C2034 C2028 1.383 . S
C2034 C2033 1.379 . S
H2035 C2029 0.959 . S
H2036 C2029 0.961 . S
H2037 C2029 0.960 . S
H2038 C2030 0.930 . S
H2039 C2031 0.929 . S
H2040 C2048 0.929 . S
H2041 C2050 0.930 . S
H2042 C2052 0.930 . S
H2043 C2055 0.929 . S
H2044 C2058 0.930 . S
H2045 C2060 0.960 . S
H2046 C2060 0.960 . S
H2047 C2060 0.960 . S
C2048 H2040 0.929 . S
C2048 C2049 1.377 . S
C2048 C2050 1.384 . S
C2049 C2048 1.377 . S
C2049 C2055 1.390 . S
C2050 H2041 0.930 . S
C2050 C2048 1.384 . S
C2050 C2051 1.372 . S
C2051 C2050 1.372 . S
C2051 C2052 1.400 . S
C2051 C2056 1.490 . S
C2052 H2042 0.930 . S
C2052 C2051 1.400 . S
C2052 C2055 1.386 . S
H2053 C2069 0.930 1_565 S
H2054 C2070 0.931 1_565 S
C2055 H2043 0.929 . S
C2055 C2049 1.390 . S
C2055 C2052 1.386 . S
C2056 C2051 1.490 . S
C2056 C2058 1.395 . S
C2056 C2059 1.403 . S
H2057 C2063 0.930 . S
C2058 H2044 0.930 . S
C2058 C2056 1.395 . S
C2058 C2061 1.403 . S
C2059 C2056 1.403 . S
C2059 C2060 1.524 . S
C2059 C2063 1.400 . S
C2060 H2045 0.960 . S
C2060 H2046 0.960 . S
C2060 H2047 0.960 . S
C2060 C2059 1.524 . S
C2061 C2058 1.403 . S
C2061 C2062 1.392 . S
C2061 C2065 1.495 . S
C2062 C2061 1.392 . S
C2062 C2063 1.385 . S
C2062 C2064 1.478 . S
C2063 H2057 0.930 . S
C2063 C2059 1.400 . S
C2063 C2062 1.385 . S
C2064 C2062 1.478 . S
C2064 C2066 1.381 . S
C2064 C2070 1.383 . S
C2065 C2061 1.495 . S
C2065 H2071 0.959 . S
C2065 H2072 0.961 . S
C2065 H2073 0.960 . S
C2066 C2064 1.381 . S
C2066 C2067 1.394 . S
C2066 H2074 0.930 . S
C2067 C2066 1.394 . S
C2067 C2068 1.383 . S
C2067 H2075 0.929 . S
C2068 C2067 1.383 . S
C2068 C2069 1.377 . S
C2069 H2053 0.930 1_545 S
C2069 C2068 1.377 . S
C2069 C2070 1.379 . S
C2070 H2054 0.931 1_545 S
C2070 C2064 1.383 . S
C2070 C2069 1.379 . S
H2071 C2065 0.959 . S
H2072 C2065 0.961 . S
H2073 C2065 0.960 . S
H2074 C2066 0.930 . S
H2075 C2067 0.929 . S
H2076 C2084 0.929 . S
H2077 C2086 0.930 . S
H2078 C2088 0.930 . S
H2079 C2091 0.929 . S
H2080 C2094 0.930 . S
H2081 C2096 0.960 . S
H2082 C2096 0.960 . S
H2083 C2096 0.960 . S
C2084 H2076 0.929 . S
C2084 C2085 1.377 . S
C2084 C2086 1.384 . S
C2085 C2084 1.377 . S
C2085 C2091 1.390 . S
C2086 H2077 0.930 . S
C2086 C2084 1.384 . S
C2086 C2087 1.372 . S
C2087 C2086 1.372 . S
C2087 C2088 1.400 . S
C2087 C2092 1.490 . S
C2088 H2078 0.930 . S
C2088 C2087 1.400 . S
C2088 C2091 1.386 . S
H2089 C2105 0.930 . S
H2090 C2106 0.931 . S
C2091 H2079 0.929 . S
C2091 C2085 1.390 . S
C2091 C2088 1.386 . S
C2092 C2087 1.490 . S
C2092 C2094 1.395 . S
C2092 C2095 1.403 . S
H2093 C2099 0.930 . S
C2094 H2080 0.930 . S
C2094 C2092 1.395 . S
C2094 C2097 1.403 . S
C2095 C2092 1.403 . S
C2095 C2096 1.524 . S
C2095 C2099 1.400 . S
C2096 H2081 0.960 . S
C2096 H2082 0.960 . S
C2096 H2083 0.960 . S
C2096 C2095 1.524 . S
C2097 C2094 1.403 . S
C2097 C2098 1.392 . S
C2097 C2101 1.495 . S
C2098 C2097 1.392 . S
C2098 C2099 1.385 . S
C2098 C2100 1.478 . S
C2099 H2093 0.930 . S
C2099 C2095 1.400 . S
C2099 C2098 1.385 . S
C2100 C2098 1.478 . S
C2100 C2102 1.381 . S
C2100 C2106 1.383 . S
C2101 C2097 1.495 . S
C2101 H2107 0.959 . S
C2101 H2108 0.961 . S
C2101 H2109 0.960 . S
C2102 C2100 1.381 . S
C2102 C2103 1.394 . S
C2102 H2110 0.930 . S
C2103 C2102 1.394 . S
C2103 C2104 1.383 . S
C2103 H2111 0.929 . S
C2104 C2103 1.383 . S
C2104 C2105 1.377 . S
C2105 H2089 0.930 . S
C2105 C2104 1.377 . S
C2105 C2106 1.379 . S
C2106 H2090 0.931 . S
C2106 C2100 1.383 . S
C2106 C2105 1.379 . S
H2107 C2101 0.959 . S
H2108 C2101 0.961 . S
H2109 C2101 0.960 . S
H2110 C2102 0.930 . S
H2111 C2103 0.929 . S
H2112 C2120 0.929 . S
H2113 C2122 0.930 . S
H2114 C2124 0.930 . S
H2115 C2127 0.929 . S
H2116 C2130 0.930 . S
H2117 C2132 0.960 1_455 S
H2118 C2132 0.960 . S
H2119 C2132 0.960 . S
C2120 H2112 0.929 . S
C2120 C2121 1.377 . S
C2120 C2122 1.384 . S
C2121 C2120 1.377 . S
C2121 C2127 1.390 . S
C2122 H2113 0.930 . S
C2122 C2120 1.384 . S
C2122 C2123 1.372 . S
C2123 C2122 1.372 . S
C2123 C2124 1.400 . S
C2123 C2128 1.490 . S
C2124 H2114 0.930 . S
C2124 C2123 1.400 . S
C2124 C2127 1.386 . S
H2125 C2141 0.930 . S
H2126 C2142 0.931 1_465 S
C2127 H2115 0.929 . S
C2127 C2121 1.390 . S
C2127 C2124 1.386 . S
C2128 C2123 1.490 . S
C2128 C2130 1.395 . S
C2128 C2131 1.403 . S
H2129 C2135 0.960 . S
C2130 H2116 0.930 . S
C2130 C2128 1.395 . S
C2130 C2133 1.403 . S
C2131 C2128 1.403 . S
C2131 C2132 1.524 . S
C2131 C2135 1.400 . S
C2132 H2117 0.960 1_655 S
C2132 H2118 0.960 . S
C2132 H2119 0.960 . S
C2132 C2131 1.524 . S
C2133 C2130 1.403 . S
C2133 C2134 1.392 . S
C2133 C2137 1.495 1_545 S
C2134 C2133 1.392 . S
C2134 C2135 1.385 . S
C2134 C2136 1.478 . S
C2135 H2129 0.960 . S
C2135 C2131 1.400 . S
C2135 C2134 1.385 . S
C2136 C2134 1.478 . S
C2136 C2138 1.381 . S
C2136 C2142 1.383 . S
C2137 C2133 1.495 1_565 S
C2137 H2143 0.959 . S
C2137 H2144 0.961 . S
C2137 H2145 0.960 1_565 S
C2138 C2136 1.381 . S
C2138 C2139 1.394 . S
C2138 H2146 0.930 . S
C2139 C2138 1.394 . S
C2139 C2140 1.405 . S
C2139 H2147 0.929 . S
C2140 C2139 1.405 . S
C2140 C2141 1.364 1_655 S
C2141 H2125 0.930 . S
C2141 C2140 1.364 1_455 S
C2141 C2142 1.379 1_455 S
C2142 H2126 0.931 1_645 S
C2142 C2136 1.383 . S
C2142 C2141 1.379 1_655 S
H2143 C2137 0.959 . S
H2144 C2137 0.961 . S
H2145 C2137 0.960 1_545 S
H2146 C2138 0.930 . S
H2147 C2139 0.929 . S
H2148 C2156 0.929 . S
H2149 C2158 0.930 . S
H2150 C2160 0.930 . S
H2151 C2163 0.929 . S
H2152 C2166 0.930 . S
H2153 C2168 0.960 . S
H2154 C2168 0.960 . S
H2155 C2168 0.960 . S
C2156 H2148 0.929 . S
C2156 C2157 1.377 . S
C2156 C2158 1.384 . S
C2157 C2156 1.377 . S
C2157 C2163 1.390 . S
C2158 H2149 0.930 . S
C2158 C2156 1.384 . S
C2158 C2159 1.372 . S
C2159 C2158 1.372 . S
C2159 C2160 1.400 . S
C2159 C2164 1.490 . S
C2160 H2150 0.930 . S
C2160 C2159 1.400 . S
C2160 C2163 1.386 . S
H2161 C2177 0.930 . S
H2162 C2178 0.931 . S
C2163 H2151 0.929 . S
C2163 C2157 1.390 . S
C2163 C2160 1.386 . S
C2164 C2159 1.490 . S
C2164 C2166 1.395 . S
C2164 C2167 1.403 . S
H2165 C2171 0.930 . S
C2166 H2152 0.930 . S
C2166 C2164 1.395 . S
C2166 C2169 1.403 . S
C2167 C2164 1.403 . S
C2167 C2168 1.524 . S
C2167 C2171 1.400 . S
C2168 H2153 0.960 . S
C2168 H2154 0.960 . S
C2168 H2155 0.960 . S
C2168 C2167 1.524 . S
C2169 C2166 1.403 . S
C2169 C2170 1.392 . S
C2169 C2173 1.495 . S
C2170 C2169 1.392 . S
C2170 C2171 1.385 . S
C2170 C2172 1.478 . S
C2171 H2165 0.930 . S
C2171 C2167 1.400 . S
C2171 C2170 1.385 . S
C2172 C2170 1.478 . S
C2172 C2174 1.381 . S
C2172 C2178 1.383 . S
C2173 C2169 1.495 . S
C2173 H2179 0.959 . S
C2173 H2180 0.961 . S
C2173 H2181 0.960 . S
C2174 C2172 1.381 . S
C2174 C2175 1.394 . S
C2174 H2182 0.930 . S
C2175 C2174 1.394 . S
C2175 C2176 1.383 . S
C2175 H2183 0.929 . S
C2176 C2175 1.383 . S
C2176 C2177 1.377 . S
C2177 H2161 0.930 . S
C2177 C2176 1.377 . S
C2177 C2178 1.379 . S
C2178 H2162 0.931 . S
C2178 C2172 1.383 . S
C2178 C2177 1.379 . S
H2179 C2173 0.959 . S
H2180 C2173 0.961 . S
H2181 C2173 0.960 . S
H2182 C2174 0.930 . S
H2183 C2175 0.929 . S
H2184 C2192 0.929 . S
H2185 C2194 0.930 . S
H2186 C2196 0.930 . S
H2187 C2199 0.929 . S
H2188 C2202 0.930 . S
H2189 C2204 0.960 1_565 S
H2190 C2204 0.960 . S
H2191 C2204 0.960 1_565 S
C2192 H2184 0.929 . S
C2192 C2193 1.377 . S
C2192 C2194 1.384 . S
C2193 C2192 1.377 . S
C2193 C2199 1.390 . S
C2194 H2185 0.930 . S
C2194 C2192 1.384 . S
C2194 C2195 1.372 . S
C2195 C2194 1.372 . S
C2195 C2196 1.400 . S
C2195 C2200 1.490 . S
C2196 H2186 0.930 . S
C2196 C2195 1.400 . S
C2196 C2199 1.386 . S
H2197 C2213 0.930 . S
H2198 C2214 0.931 . S
C2199 H2187 0.929 . S
C2199 C2193 1.390 . S
C2199 C2196 1.386 . S
C2200 C2195 1.490 . S
C2200 C2202 1.395 . S
C2200 C2203 1.403 . S
H2201 C2207 0.930 . S
C2202 H2188 0.930 . S
C2202 C2200 1.395 . S
C2202 C2205 1.403 . S
C2203 C2200 1.403 . S
C2203 C2204 1.524 . S
C2203 C2207 1.400 . S
C2204 H2189 0.960 1_545 S
C2204 H2190 0.960 . S
C2204 H2191 0.960 1_545 S
C2204 C2203 1.524 . S
C2205 C2202 1.403 . S
C2205 C2206 1.392 . S
C2205 C2209 1.495 . S
C2206 C2205 1.392 . S
C2206 C2207 1.385 . S
C2206 C2208 1.478 . S
C2207 H2201 0.930 . S
C2207 C2203 1.400 . S
C2207 C2206 1.385 . S
C2208 C2206 1.478 . S
C2208 C2210 1.381 . S
C2208 C2214 1.383 . S
C2209 C2205 1.495 . S
C2209 H2215 0.959 . S
C2209 H2216 0.961 . S
C2209 H2217 0.960 . S
C2210 C2208 1.381 . S
C2210 C2211 1.394 . S
C2210 H2218 0.930 . S
C2211 C2210 1.394 . S
C2211 C2212 1.383 . S
C2211 H2219 0.929 . S
C2212 C2211 1.383 . S
C2212 C2213 1.377 . S
C2213 H2197 0.930 . S
C2213 C2212 1.377 . S
C2213 C2214 1.379 . S
C2214 H2198 0.931 . S
C2214 C2208 1.383 . S
C2214 C2213 1.379 . S
H2215 C2209 0.959 . S
H2216 C2209 0.961 . S
H2217 C2209 0.960 . S
H2218 C2210 0.930 . S
H2219 C2211 0.929 . S
H2220 C2228 0.929 . S
H2221 C2230 0.930 . S
H2222 C2232 0.930 . S
H2223 C2235 0.929 . S
H2224 C2238 0.930 . S
H2225 C2240 0.960 . S
H2226 C2240 0.960 . S
H2227 C2240 0.960 . S
C2228 H2220 0.929 . S
C2228 C2229 1.377 . S
C2228 C2230 1.384 . S
C2229 C2228 1.377 . S
C2229 C2235 1.390 . S
C2230 H2221 0.930 . S
C2230 C2228 1.384 . S
C2230 C2231 1.372 . S
C2231 C2230 1.372 . S
C2231 C2232 1.400 . S
C2231 C2236 1.490 . S
C2232 H2222 0.930 . S
C2232 C2231 1.400 . S
C2232 C2235 1.386 . S
H2233 C2249 0.930 . S
H2234 C2250 0.931 . S
C2235 H2223 0.929 . S
C2235 C2229 1.390 . S
C2235 C2232 1.386 . S
C2236 C2231 1.490 . S
C2236 C2238 1.395 . S
C2236 C2239 1.403 . S
H2237 C2243 0.930 . S
C2238 H2224 0.930 . S
C2238 C2236 1.395 . S
C2238 C2241 1.403 . S
C2239 C2236 1.403 . S
C2239 C2240 1.524 . S
C2239 C2243 1.400 . S
C2240 H2225 0.960 . S
C2240 H2226 0.960 . S
C2240 H2227 0.960 . S
C2240 C2239 1.524 . S
C2241 C2238 1.403 . S
C2241 C2242 1.392 . S
C2241 C2245 1.495 . S
C2242 C2241 1.392 . S
C2242 C2243 1.385 . S
C2242 C2244 1.478 . S
C2243 H2237 0.930 . S
C2243 C2239 1.400 . S
C2243 C2242 1.385 . S
C2244 C2242 1.478 . S
C2244 C2246 1.381 . S
C2244 C2250 1.383 . S
C2245 C2241 1.495 . S
C2245 H2251 0.959 . S
C2245 H2252 0.961 . S
C2245 H2253 0.960 . S
C2246 C2244 1.381 . S
C2246 C2247 1.394 . S
C2246 H2254 0.930 . S
C2247 C2246 1.394 . S
C2247 C2248 1.383 . S
C2247 H2255 0.929 . S
C2248 C2247 1.383 . S
C2248 C2249 1.377 . S
C2249 H2233 0.930 . S
C2249 C2248 1.377 . S
C2249 C2250 1.379 . S
C2250 H2234 0.931 . S
C2250 C2244 1.383 . S
C2250 C2249 1.379 . S
H2251 C2245 0.959 . S
H2252 C2245 0.961 . S
H2253 C2245 0.960 . S
H2254 C2246 0.930 . S
H2255 C2247 0.929 . S
H2256 C2264 0.929 . S
H2257 C2266 0.930 . S
H2258 C2268 0.930 . S
H2259 C2271 0.929 . S
H2260 C2274 0.930 . S
H2261 C2276 0.960 1_545 S
H2262 C2276 0.960 . S
H2263 C2276 0.960 . S
C2264 H2256 0.929 . S
C2264 C2265 1.377 . S
C2264 C2266 1.384 . S
C2265 C2264 1.377 . S
C2265 C2271 1.390 1_556 S
C2266 H2257 0.930 . S
C2266 C2264 1.384 . S
C2266 C2267 1.320 1_556 S
C2267 C2266 1.320 1_554 S
C2267 C2268 1.443 . S
C2267 C2272 1.500 . S
C2268 H2258 0.930 . S
C2268 C2267 1.443 . S
C2268 C2271 1.386 . S
H2269 C2285 0.930 . S
H2270 C2286 0.931 . S
C2271 H2259 0.929 . S
C2271 C2265 1.390 1_554 S
C2271 C2268 1.386 . S
C2272 C2267 1.500 . S
C2272 C2274 1.395 1_554 S
C2272 C2275 1.403 . S
H2273 C2279 0.930 . S
C2274 H2260 0.930 . S
C2274 C2272 1.395 1_556 S
C2274 C2277 1.403 . S
C2275 C2272 1.403 . S
C2275 C2276 1.524 . S
C2275 C2279 1.400 . S
C2276 H2261 0.960 1_565 S
C2276 H2262 0.960 . S
C2276 H2263 0.960 . S
C2276 C2275 1.524 . S
C2277 C2274 1.403 . S
C2277 C2278 1.392 1_556 S
C2277 C2281 1.495 . S
C2278 C2277 1.392 1_554 S
C2278 C2279 1.385 . S
C2278 C2280 1.478 . S
C2279 H2273 0.930 . S
C2279 C2275 1.400 . S
C2279 C2278 1.385 . S
C2280 C2278 1.478 . S
C2280 C2282 1.381 1_554 S
C2280 C2286 1.383 . S
C2281 C2277 1.495 . S
C2281 H2287 0.959 . S
C2281 H2288 0.989 . S
C2281 H2289 0.960 . S
C2282 C2280 1.381 1_556 S
C2282 C2283 1.399 . S
C2282 H2290 0.930 . S
C2283 C2282 1.399 . S
C2283 C2284 1.363 1_556 S
C2283 H2291 0.945 . S
C2284 C2283 1.363 1_554 S
C2284 C2285 1.377 . S
C2285 H2269 0.930 . S
C2285 C2284 1.377 . S
C2285 C2286 1.379 . S
C2286 H2270 0.931 . S
C2286 C2280 1.383 . S
C2286 C2285 1.379 . S
H2287 C2281 0.959 . S
H2288 C2281 0.989 . S
H2289 C2281 0.960 . S
H2290 C2282 0.930 . S
H2291 C2283 0.945 . S
H2292 C2300 0.929 . S
H2293 C2302 0.930 . S
H2294 C2304 0.930 . S
H2295 C2307 0.929 . S
H2296 C2310 0.930 . S
H2297 C2312 0.960 . S
H2298 C2312 0.960 . S
H2299 C2312 0.960 . S
C2300 H2292 0.929 . S
C2300 C2301 1.377 1_556 S
C2300 C2302 1.384 . S
C2301 C2300 1.377 1_554 S
C2301 C2307 1.390 . S
C2302 H2293 0.930 . S
C2302 C2300 1.384 . S
C2302 C2303 1.372 1_556 S
C2303 C2302 1.372 1_554 S
C2303 C2304 1.400 . S
C2303 C2308 1.490 . S
C2304 H2294 0.930 . S
C2304 C2303 1.400 . S
C2304 C2307 1.386 . S
H2305 C2321 0.930 . S
H2306 C2322 0.931 . S
C2307 H2295 0.929 . S
C2307 C2301 1.390 . S
C2307 C2304 1.386 . S
C2308 C2303 1.490 . S
C2308 C2310 1.395 1_554 S
C2308 C2311 1.403 . S
H2309 C2315 0.930 . S
C2310 H2296 0.930 . S
C2310 C2308 1.395 1_556 S
C2310 C2313 1.403 . S
C2311 C2308 1.403 . S
C2311 C2312 1.524 . S
C2311 C2315 1.400 . S
C2312 H2297 0.960 . S
C2312 H2298 0.960 . S
C2312 H2299 0.960 . S
C2312 C2311 1.524 . S
C2313 C2310 1.403 . S
C2313 C2314 1.392 1_556 S
C2313 C2317 1.495 . S
C2314 C2313 1.392 1_554 S
C2314 C2315 1.385 . S
C2314 C2316 1.478 . S
C2315 H2309 0.930 . S
C2315 C2311 1.400 . S
C2315 C2314 1.385 . S
C2316 C2314 1.478 . S
C2316 C2318 1.381 1_554 S
C2316 C2322 1.383 . S
C2317 C2313 1.495 . S
C2317 H2323 0.959 . S
C2317 H2324 0.961 1_556 S
C2317 H2325 0.960 . S
C2318 C2316 1.381 1_556 S
C2318 C2319 1.394 . S
C2318 H2326 0.930 . S
C2319 C2318 1.394 . S
C2319 C2320 1.383 1_556 S
C2319 H2327 0.929 . S
C2320 C2319 1.383 1_554 S
C2320 C2321 1.377 . S
C2321 H2305 0.930 . S
C2321 C2320 1.377 . S
C2321 C2322 1.379 . S
C2322 H2306 0.931 . S
C2322 C2316 1.383 . S
C2322 C2321 1.379 . S
H2323 C2317 0.959 . S
H2324 C2317 0.961 1_554 S
H2325 C2317 0.960 . S
H2326 C2318 0.930 . S
H2327 C2319 0.929 . S
H2328 C2336 0.929 . S
H2329 C2338 0.930 . S
H2330 C2340 0.930 . S
H2331 C2343 0.929 . S
H2332 C2346 0.930 . S
H2333 C2348 0.960 . S
H2334 C2348 0.960 . S
H2335 C2348 0.960 . S
C2336 H2328 0.929 . S
C2336 C2337 1.377 . S
C2336 C2338 1.384 . S
C2337 C2336 1.377 . S
C2337 C2343 1.390 . S
C2338 H2329 0.930 . S
C2338 C2336 1.384 . S
C2338 C2339 1.372 . S
C2339 C2338 1.372 . S
C2339 C2340 1.400 . S
C2339 C2344 1.490 . S
C2340 H2330 0.930 . S
C2340 C2339 1.400 . S
C2340 C2343 1.386 . S
H2341 C2357 0.930 . S
H2342 C2358 0.931 . S
C2343 H2331 0.929 . S
C2343 C2337 1.390 . S
C2343 C2340 1.386 . S
C2344 C2339 1.490 . S
C2344 C2346 1.395 . S
C2344 C2347 1.403 . S
H2345 C2351 0.930 . S
C2346 H2332 0.930 . S
C2346 C2344 1.395 . S
C2346 C2349 1.403 . S
C2347 C2344 1.403 . S
C2347 C2348 1.524 . S
C2347 C2351 1.400 . S
C2348 H2333 0.960 . S
C2348 H2334 0.960 . S
C2348 H2335 0.960 . S
C2348 C2347 1.524 . S
C2349 C2346 1.403 . S
C2349 C2350 1.392 . S
C2349 C2353 1.495 . S
C2350 C2349 1.392 . S
C2350 C2351 1.385 . S
C2350 C2352 1.478 . S
C2351 H2345 0.930 . S
C2351 C2347 1.400 . S
C2351 C2350 1.385 . S
C2352 C2350 1.478 . S
C2352 C2354 1.381 . S
C2352 C2358 1.383 . S
C2353 C2349 1.495 . S
C2353 H2359 0.959 . S
C2353 H2360 0.961 . S
C2353 H2361 0.960 . S
C2354 C2352 1.381 . S
C2354 C2355 1.394 . S
C2354 H2362 0.930 . S
C2355 C2354 1.394 . S
C2355 C2356 1.383 . S
C2355 H2363 0.929 . S
C2356 C2355 1.383 . S
C2356 C2357 1.377 . S
C2357 H2341 0.930 . S
C2357 C2356 1.377 . S
C2357 C2358 1.379 . S
C2358 H2342 0.931 . S
C2358 C2352 1.383 . S
C2358 C2357 1.379 . S
H2359 C2353 0.959 . S
H2360 C2353 0.961 . S
H2361 C2353 0.960 . S
H2362 C2354 0.930 . S
H2363 C2355 0.929 . S
H2364 C2372 0.929 . S
H2365 C2374 0.930 . S
H2366 C2376 0.930 . S
H2367 C2379 0.929 . S
H2368 C2382 0.930 . S
H2369 C2384 0.960 . S
H2370 C2384 0.960 . S
H2371 C2384 0.960 . S
C2372 H2364 0.929 . S
C2372 C2373 1.377 . S
C2372 C2374 1.384 . S
C2373 C2372 1.377 . S
C2373 C2379 1.390 . S
C2374 H2365 0.930 . S
C2374 C2372 1.384 . S
C2374 C2375 1.372 . S
C2375 C2374 1.372 . S
C2375 C2376 1.400 . S
C2375 C2380 1.490 . S
C2376 H2366 0.930 . S
C2376 C2375 1.400 . S
C2376 C2379 1.386 . S
H2377 C2393 0.930 . S
H2378 C2394 0.931 . S
C2379 H2367 0.929 . S
C2379 C2373 1.390 . S
C2379 C2376 1.386 . S
C2380 C2375 1.490 . S
C2380 C2382 1.395 . S
C2380 C2383 1.403 . S
H2381 C2387 0.930 . S
C2382 H2368 0.930 . S
C2382 C2380 1.395 . S
C2382 C2385 1.403 . S
C2383 C2380 1.403 . S
C2383 C2384 1.524 . S
C2383 C2387 1.400 . S
C2384 H2369 0.960 . S
C2384 H2370 0.960 . S
C2384 H2371 0.960 . S
C2384 C2383 1.524 . S
C2385 C2382 1.403 . S
C2385 C2386 1.392 . S
C2385 C2389 1.495 . S
C2386 C2385 1.392 . S
C2386 C2387 1.385 . S
C2386 C2388 1.478 . S
C2387 H2381 0.930 . S
C2387 C2383 1.400 . S
C2387 C2386 1.385 . S
C2388 C2386 1.478 . S
C2388 C2390 1.381 . S
C2388 C2394 1.383 . S
C2389 C2385 1.495 . S
C2389 H2395 0.959 . S
C2389 H2396 0.961 . S
C2389 H2397 0.960 . S
C2390 C2388 1.381 . S
C2390 C2391 1.394 . S
C2390 H2398 0.930 . S
C2391 C2390 1.394 . S
C2391 C2392 1.383 . S
C2391 H2399 0.929 . S
C2392 C2391 1.383 . S
C2392 C2393 1.377 . S
C2393 H2377 0.930 . S
C2393 C2392 1.377 . S
C2393 C2394 1.379 . S
C2394 H2378 0.931 . S
C2394 C2388 1.383 . S
C2394 C2393 1.379 . S
H2395 C2389 0.959 . S
H2396 C2389 0.961 . S
H2397 C2389 0.960 . S
H2398 C2390 0.930 . S
H2399 C2391 0.929 . S
H2400 C2408 0.929 . S
H2401 C2410 0.930 . S
H2402 C2412 0.930 . S
H2403 C2415 0.929 . S
H2404 C2418 0.930 . S
H2405 C2420 0.960 . S
H2406 C2420 0.960 . S
H2407 C2420 0.960 . S
C2408 H2400 0.929 . S
C2408 C2409 1.377 . S
C2408 C2410 1.384 . S
C2409 C2408 1.377 . S
C2409 C2415 1.390 . S
C2410 H2401 0.930 . S
C2410 C2408 1.384 . S
C2410 C2411 1.372 . S
C2411 C2410 1.372 . S
C2411 C2412 1.400 . S
C2411 C2416 1.490 . S
C2412 H2402 0.930 . S
C2412 C2411 1.400 . S
C2412 C2415 1.386 . S
H2413 C2429 0.930 . S
H2414 C2430 0.931 . S
C2415 H2403 0.929 . S
C2415 C2409 1.390 . S
C2415 C2412 1.386 . S
C2416 C2411 1.490 . S
C2416 C2418 1.395 . S
C2416 C2419 1.403 . S
H2417 C2423 0.930 . S
C2418 H2404 0.930 . S
C2418 C2416 1.395 . S
C2418 C2421 1.403 . S
C2419 C2416 1.403 . S
C2419 C2420 1.524 . S
C2419 C2423 1.400 . S
C2420 H2405 0.960 . S
C2420 H2406 0.960 . S
C2420 H2407 0.960 . S
C2420 C2419 1.524 . S
C2421 C2418 1.403 . S
C2421 C2422 1.392 . S
C2421 C2425 1.495 . S
C2422 C2421 1.392 . S
C2422 C2423 1.385 . S
C2422 C2424 1.478 . S
C2423 H2417 0.930 . S
C2423 C2419 1.400 . S
C2423 C2422 1.385 . S
C2424 C2422 1.478 . S
C2424 C2426 1.381 . S
C2424 C2430 1.383 . S
C2425 C2421 1.495 . S
C2425 H2431 0.959 . S
C2425 H2432 0.961 . S
C2425 H2433 0.960 . S
C2426 C2424 1.381 . S
C2426 C2427 1.394 . S
C2426 H2434 0.930 . S
C2427 C2426 1.394 . S
C2427 C2428 1.383 . S
C2427 H2435 0.929 . S
C2428 C2427 1.383 . S
C2428 C2429 1.377 . S
C2429 H2413 0.930 . S
C2429 C2428 1.377 . S
C2429 C2430 1.379 . S
C2430 H2414 0.931 . S
C2430 C2424 1.383 . S
C2430 C2429 1.379 . S
H2431 C2425 0.959 . S
H2432 C2425 0.961 . S
H2433 C2425 0.960 . S
H2434 C2426 0.930 . S
H2435 C2427 0.929 . S
H2436 C2444 0.929 . S
H2437 C2446 0.930 . S
H2438 C2448 0.930 . S
H2439 C2451 0.929 . S
H2440 C2454 0.930 . S
H2441 C2456 0.960 . S
H2442 C2456 0.960 . S
H2443 C2456 0.960 . S
C2444 H2436 0.929 . S
C2444 C2445 1.377 . S
C2444 C2446 1.384 . S
C2445 C2444 1.377 . S
C2445 C2451 1.390 . S
C2446 H2437 0.930 . S
C2446 C2444 1.384 . S
C2446 C2447 1.372 . S
C2447 C2446 1.372 . S
C2447 C2448 1.400 . S
C2447 C2452 1.490 . S
C2448 H2438 0.930 . S
C2448 C2447 1.400 . S
C2448 C2451 1.386 . S
H2449 C2465 0.930 . S
H2450 C2466 0.931 . S
C2451 H2439 0.929 . S
C2451 C2445 1.390 . S
C2451 C2448 1.386 . S
C2452 C2447 1.490 . S
C2452 C2454 1.395 . S
C2452 C2455 1.403 . S
H2453 C2459 0.930 . S
C2454 H2440 0.930 . S
C2454 C2452 1.395 . S
C2454 C2457 1.403 . S
C2455 C2452 1.403 . S
C2455 C2456 1.524 . S
C2455 C2459 1.400 . S
C2456 H2441 0.960 . S
C2456 H2442 0.960 . S
C2456 H2443 0.960 . S
C2456 C2455 1.524 . S
C2457 C2454 1.403 . S
C2457 C2458 1.392 . S
C2457 C2461 1.495 . S
C2458 C2457 1.392 . S
C2458 C2459 1.385 . S
C2458 C2460 1.478 . S
C2459 H2453 0.930 . S
C2459 C2455 1.400 . S
C2459 C2458 1.385 . S
C2460 C2458 1.478 . S
C2460 C2462 1.381 . S
C2460 C2466 1.383 . S
C2461 C2457 1.495 . S
C2461 H2467 0.959 . S
C2461 H2468 0.961 . S
C2461 H2469 0.960 . S
C2462 C2460 1.381 . S
C2462 C2463 1.394 . S
C2462 H2470 0.930 . S
C2463 C2462 1.394 . S
C2463 C2464 1.383 . S
C2463 H2471 0.929 . S
C2464 C2463 1.383 . S
C2464 C2465 1.377 . S
C2465 H2449 0.930 . S
C2465 C2464 1.377 . S
C2465 C2466 1.379 . S
C2466 H2450 0.931 . S
C2466 C2460 1.383 . S
C2466 C2465 1.379 . S
H2467 C2461 0.959 . S
H2468 C2461 0.961 . S
H2469 C2461 0.960 . S
H2470 C2462 0.930 . S
H2471 C2463 0.929 . S
H2472 C2480 0.929 . S
H2473 C2482 0.930 . S
H2474 C2484 0.930 . S
H2475 C2487 0.929 . S
H2476 C2490 0.930 . S
H2477 C2492 0.960 . S
H2478 C2492 0.960 . S
H2479 C2492 0.960 . S
C2480 H2472 0.929 . S
C2480 C2481 1.377 . S
C2480 C2482 1.384 . S
C2481 C2480 1.377 . S
C2481 C2487 1.390 . S
C2482 H2473 0.930 . S
C2482 C2480 1.384 . S
C2482 C2483 1.372 . S
C2483 C2482 1.372 . S
C2483 C2484 1.400 . S
C2483 C2488 1.490 . S
C2484 H2474 0.930 . S
C2484 C2483 1.400 . S
C2484 C2487 1.386 . S
H2485 C2501 0.930 . S
H2486 C2502 0.931 . S
C2487 H2475 0.929 . S
C2487 C2481 1.390 . S
C2487 C2484 1.386 . S
C2488 C2483 1.490 . S
C2488 C2490 1.395 . S
C2488 C2491 1.403 . S
H2489 C2495 0.930 . S
C2490 H2476 0.930 . S
C2490 C2488 1.395 . S
C2490 C2493 1.403 . S
C2491 C2488 1.403 . S
C2491 C2492 1.524 . S
C2491 C2495 1.400 . S
C2492 H2477 0.960 . S
C2492 H2478 0.960 . S
C2492 H2479 0.960 . S
C2492 C2491 1.524 . S
C2493 C2490 1.403 . S
C2493 C2494 1.392 . S
C2493 C2497 1.495 . S
C2494 C2493 1.392 . S
C2494 C2495 1.385 . S
C2494 C2496 1.478 . S
C2495 H2489 0.930 . S
C2495 C2491 1.400 . S
C2495 C2494 1.385 . S
C2496 C2494 1.478 . S
C2496 C2498 1.381 . S
C2496 C2502 1.383 . S
C2497 C2493 1.495 . S
C2497 H2503 0.959 . S
C2497 H2504 0.961 . S
C2497 H2505 0.960 . S
C2498 C2496 1.381 . S
C2498 C2499 1.394 . S
C2498 H2506 0.930 . S
C2499 C2498 1.394 . S
C2499 C2500 1.383 . S
C2499 H2507 0.929 . S
C2500 C2499 1.383 . S
C2500 C2501 1.377 . S
C2501 H2485 0.930 . S
C2501 C2500 1.377 . S
C2501 C2502 1.379 . S
C2502 H2486 0.931 . S
C2502 C2496 1.383 . S
C2502 C2501 1.379 . S
H2503 C2497 0.959 . S
H2504 C2497 0.961 . S
H2505 C2497 0.960 . S
H2506 C2498 0.930 . S
H2507 C2499 0.929 . S
H2508 C2516 0.929 . S
H2509 C2518 0.930 . S
H2510 C2520 0.930 . S
H2511 C2523 0.929 . S
H2512 C2526 0.930 . S
H2513 C2528 0.960 . S
H2514 C2528 0.960 . S
H2515 C2528 0.960 . S
C2516 H2508 0.929 . S
C2516 C2517 1.377 . S
C2516 C2518 1.384 . S
C2517 C2516 1.377 . S
C2517 C2523 1.390 . S
C2518 H2509 0.930 . S
C2518 C2516 1.384 . S
C2518 C2519 1.372 . S
C2519 C2518 1.372 . S
C2519 C2520 1.400 . S
C2519 C2524 1.490 . S
C2520 H2510 0.930 . S
C2520 C2519 1.400 . S
C2520 C2523 1.386 . S
H2521 C2537 0.930 . S
H2522 C2538 0.931 . S
C2523 H2511 0.929 . S
C2523 C2517 1.390 . S
C2523 C2520 1.386 . S
C2524 C2519 1.490 . S
C2524 C2526 1.395 . S
C2524 C2527 1.403 . S
H2525 C2531 0.930 . S
C2526 H2512 0.930 . S
C2526 C2524 1.395 . S
C2526 C2529 1.403 . S
C2527 C2524 1.403 . S
C2527 C2528 1.524 . S
C2527 C2531 1.400 . S
C2528 H2513 0.960 . S
C2528 H2514 0.960 . S
C2528 H2515 0.960 . S
C2528 C2527 1.524 . S
C2529 C2526 1.403 . S
C2529 C2530 1.392 . S
C2529 C2533 1.495 . S
C2530 C2529 1.392 . S
C2530 C2531 1.385 . S
C2530 C2532 1.478 . S
C2531 H2525 0.930 . S
C2531 C2527 1.400 . S
C2531 C2530 1.385 . S
C2532 C2530 1.478 . S
C2532 C2534 1.381 . S
C2532 C2538 1.383 . S
C2533 C2529 1.495 . S
C2533 H2539 0.959 . S
C2533 H2540 0.961 . S
C2533 H2541 0.960 . S
C2534 C2532 1.381 . S
C2534 C2535 1.394 . S
C2534 H2542 0.930 . S
C2535 C2534 1.394 . S
C2535 C2536 1.383 . S
C2535 H2543 0.929 . S
C2536 C2535 1.383 . S
C2536 C2537 1.377 . S
C2537 H2521 0.930 . S
C2537 C2536 1.377 . S
C2537 C2538 1.379 . S
C2538 H2522 0.931 . S
C2538 C2532 1.383 . S
C2538 C2537 1.379 . S
H2539 C2533 0.959 . S
H2540 C2533 0.961 . S
H2541 C2533 0.960 . S
H2542 C2534 0.930 . S
H2543 C2535 0.929 . S
H2544 C2552 0.929 . S
H2545 C2554 0.930 . S
H2546 C2556 0.930 . S
H2547 C2559 0.929 . S
H2548 C2562 0.930 . S
H2549 C2564 0.960 1_655 S
H2550 C2564 0.960 . S
H2551 C2564 0.960 . S
C2552 H2544 0.929 . S
C2552 C2553 1.377 . S
C2552 C2554 1.384 . S
C2553 C2552 1.377 . S
C2553 C2559 1.390 . S
C2554 H2545 0.930 . S
C2554 C2552 1.384 . S
C2554 C2555 1.372 . S
C2555 C2554 1.372 . S
C2555 C2556 1.400 . S
C2555 C2560 1.490 . S
C2556 H2546 0.930 . S
C2556 C2555 1.400 . S
C2556 C2559 1.386 . S
H2557 C2573 0.914 1_556 S
H2558 C2574 0.931 . S
C2559 H2547 0.929 . S
C2559 C2553 1.390 . S
C2559 C2556 1.386 . S
C2560 C2555 1.490 . S
C2560 C2562 1.395 . S
C2560 C2563 1.403 . S
H2561 C2567 0.930 . S
C2562 H2548 0.930 . S
C2562 C2560 1.395 . S
C2562 C2565 1.403 . S
C2563 C2560 1.403 . S
C2563 C2564 1.524 . S
C2563 C2567 1.400 . S
C2564 H2549 0.960 1_455 S
C2564 H2550 0.960 . S
C2564 H2551 0.960 . S
C2564 C2563 1.524 . S
C2565 C2562 1.403 . S
C2565 C2566 1.392 . S
C2565 C2569 1.495 . S
C2566 C2565 1.392 . S
C2566 C2567 1.385 . S
C2566 C2568 1.478 . S
C2567 H2561 0.930 . S
C2567 C2563 1.400 . S
C2567 C2566 1.385 . S
C2568 C2566 1.478 . S
C2568 C2570 1.381 . S
C2568 C2574 1.383 . S
C2569 C2565 1.495 . S
C2569 H2575 0.959 . S
C2569 H2576 0.961 . S
C2569 H2577 0.960 . S
C2570 C2568 1.381 . S
C2570 C2571 1.394 . S
C2570 H2578 0.930 . S
C2571 C2570 1.394 . S
C2571 C2572 1.383 . S
C2571 H2579 0.929 . S
C2572 C2571 1.383 . S
C2572 C2573 1.377 . S
C2573 H2557 0.914 1_554 S
C2573 C2572 1.377 . S
C2573 C2574 1.379 . S
C2574 H2558 0.931 . S
C2574 C2568 1.383 . S
C2574 C2573 1.379 . S
H2575 C2569 0.959 . S
H2576 C2569 0.961 . S
H2577 C2569 0.960 . S
H2578 C2570 0.930 . S
H2579 C2571 0.929 . S
H2580 C2588 0.929 . S
H2581 C2590 0.930 . S
H2582 C2592 0.930 . S
H2583 C2595 0.929 . S
H2584 C2598 0.930 . S
H2585 C2600 0.960 . S
H2586 C2600 0.960 . S
H2587 C2600 0.960 . S
C2588 H2580 0.929 . S
C2588 C2589 1.377 . S
C2588 C2590 1.384 . S
C2589 C2588 1.377 . S
C2589 C2595 1.390 . S
C2590 H2581 0.930 . S
C2590 C2588 1.384 . S
C2590 C2591 1.372 . S
C2591 C2590 1.372 . S
C2591 C2592 1.400 . S
C2591 C2596 1.490 . S
C2592 H2582 0.930 . S
C2592 C2591 1.400 . S
C2592 C2595 1.386 . S
H2593 C2609 0.930 . S
H2594 C2610 0.931 . S
C2595 H2583 0.929 . S
C2595 C2589 1.390 . S
C2595 C2592 1.386 . S
C2596 C2591 1.490 . S
C2596 C2598 1.395 . S
C2596 C2599 1.403 . S
H2597 C2603 0.930 . S
C2598 H2584 0.930 . S
C2598 C2596 1.395 . S
C2598 C2601 1.403 . S
C2599 C2596 1.403 . S
C2599 C2600 1.524 . S
C2599 C2603 1.400 . S
C2600 H2585 0.960 . S
C2600 H2586 0.960 . S
C2600 H2587 0.960 . S
C2600 C2599 1.524 . S
C2601 C2598 1.403 . S
C2601 C2602 1.392 . S
C2601 C2605 1.495 . S
C2602 C2601 1.392 . S
C2602 C2603 1.385 . S
C2602 C2604 1.478 . S
C2603 H2597 0.930 . S
C2603 C2599 1.400 . S
C2603 C2602 1.385 . S
C2604 C2602 1.478 . S
C2604 C2606 1.381 . S
C2604 C2610 1.383 . S
C2605 C2601 1.495 . S
C2605 H2611 0.959 . S
C2605 H2612 0.961 . S
C2605 H2613 0.960 . S
C2606 C2604 1.381 . S
C2606 C2607 1.394 . S
C2606 H2614 0.930 . S
C2607 C2606 1.394 . S
C2607 C2608 1.383 . S
C2607 H2615 0.929 . S
C2608 C2607 1.383 . S
C2608 C2609 1.377 . S
C2609 H2593 0.930 . S
C2609 C2608 1.377 . S
C2609 C2610 1.379 . S
C2610 H2594 0.931 . S
C2610 C2604 1.383 . S
C2610 C2609 1.379 . S
H2611 C2605 0.959 . S
H2612 C2605 0.961 . S
H2613 C2605 0.960 . S
H2614 C2606 0.930 . S
H2615 C2607 0.929 . S
H2616 C2624 0.929 . S
H2617 C2626 0.930 . S
H2618 C2628 0.930 . S
H2619 C2631 0.929 . S
H2620 C2634 0.930 . S
H2621 C2636 0.960 . S
H2622 C2636 0.960 . S
H2623 C2636 0.960 . S
C2624 H2616 0.929 . S
C2624 C2625 1.377 . S
C2624 C2626 1.384 . S
C2625 C2624 1.377 . S
C2625 C2631 1.390 . S
C2626 H2617 0.930 . S
C2626 C2624 1.384 . S
C2626 C2627 1.372 . S
C2627 C2626 1.372 . S
C2627 C2628 1.400 . S
C2627 C2632 1.490 . S
C2628 H2618 0.930 . S
C2628 C2627 1.400 . S
C2628 C2631 1.386 . S
H2629 C2645 0.930 . S
H2630 C2646 0.931 . S
C2631 H2619 0.929 . S
C2631 C2625 1.390 . S
C2631 C2628 1.386 . S
C2632 C2627 1.490 . S
C2632 C2634 1.395 . S
C2632 C2635 1.403 . S
H2633 C2639 0.930 . S
C2634 H2620 0.930 . S
C2634 C2632 1.395 . S
C2634 C2637 1.403 . S
C2635 C2632 1.403 . S
C2635 C2636 1.524 . S
C2635 C2639 1.400 . S
C2636 H2621 0.960 . S
C2636 H2622 0.960 . S
C2636 H2623 0.960 . S
C2636 C2635 1.524 . S
C2637 C2634 1.403 . S
C2637 C2638 1.392 . S
C2637 C2641 1.495 . S
C2638 C2637 1.392 . S
C2638 C2639 1.385 . S
C2638 C2640 1.478 . S
C2639 H2633 0.930 . S
C2639 C2635 1.400 . S
C2639 C2638 1.385 . S
C2640 C2638 1.478 . S
C2640 C2642 1.381 . S
C2640 C2646 1.383 . S
C2641 C2637 1.495 . S
C2641 H2647 0.959 . S
C2641 H2648 0.961 . S
C2641 H2649 0.960 . S
C2642 C2640 1.381 . S
C2642 C2643 1.394 . S
C2642 H2650 0.930 . S
C2643 C2642 1.394 . S
C2643 C2644 1.383 . S
C2643 H2651 0.929 . S
C2644 C2643 1.383 . S
C2644 C2645 1.377 . S
C2645 H2629 0.930 . S
C2645 C2644 1.377 . S
C2645 C2646 1.379 . S
C2646 H2630 0.931 . S
C2646 C2640 1.383 . S
C2646 C2645 1.379 . S
H2647 C2641 0.959 . S
H2648 C2641 0.961 . S
H2649 C2641 0.960 . S
H2650 C2642 0.930 . S
H2651 C2643 0.929 . S
H2652 C2660 0.929 . S
H2653 C2662 0.930 . S
H2654 C2664 0.930 . S
H2655 C2667 0.929 . S
H2656 C2670 0.930 . S
H2657 C2672 0.960 . S
H2658 C2672 0.960 . S
H2659 C2672 0.960 . S
C2660 H2652 0.929 . S
C2660 C2661 1.377 . S
C2660 C2662 1.384 . S
C2661 C2660 1.377 . S
C2661 C2667 1.390 . S
C2662 H2653 0.930 . S
C2662 C2660 1.384 . S
C2662 C2663 1.372 . S
C2663 C2662 1.372 . S
C2663 C2664 1.400 . S
C2663 C2668 1.490 . S
C2664 H2654 0.930 . S
C2664 C2663 1.400 . S
C2664 C2667 1.386 . S
H2665 C2681 0.930 . S
H2666 C2682 0.931 . S
C2667 H2655 0.929 . S
C2667 C2661 1.390 . S
C2667 C2664 1.386 . S
C2668 C2663 1.490 . S
C2668 C2670 1.395 . S
C2668 C2671 1.403 . S
H2669 C2675 0.930 . S
C2670 H2656 0.930 . S
C2670 C2668 1.395 . S
C2670 C2673 1.403 . S
C2671 C2668 1.403 . S
C2671 C2672 1.524 . S
C2671 C2675 1.400 . S
C2672 H2657 0.960 . S
C2672 H2658 0.960 . S
C2672 H2659 0.960 . S
C2672 C2671 1.524 . S
C2673 C2670 1.403 . S
C2673 C2674 1.392 . S
C2673 C2677 1.495 . S
C2674 C2673 1.392 . S
C2674 C2675 1.385 . S
C2674 C2676 1.478 . S
C2675 H2669 0.930 . S
C2675 C2671 1.400 . S
C2675 C2674 1.385 . S
C2676 C2674 1.478 . S
C2676 C2678 1.381 . S
C2676 C2682 1.383 . S
C2677 C2673 1.495 . S
C2677 H2683 0.959 . S
C2677 H2684 0.961 . S
C2677 H2685 0.960 . S
C2678 C2676 1.381 . S
C2678 C2679 1.394 . S
C2678 H2686 0.930 . S
C2679 C2678 1.394 . S
C2679 C2680 1.383 . S
C2679 H2687 0.929 . S
C2680 C2679 1.383 . S
C2680 C2681 1.377 . S
C2681 H2665 0.930 . S
C2681 C2680 1.377 . S
C2681 C2682 1.379 . S
C2682 H2666 0.931 . S
C2682 C2676 1.383 . S
C2682 C2681 1.379 . S
H2683 C2677 0.959 . S
H2684 C2677 0.961 . S
H2685 C2677 0.960 . S
H2686 C2678 0.930 . S
H2687 C2679 0.929 . S
H2688 C2696 0.929 . S
H2689 C2698 0.930 . S
H2690 C2700 0.930 . S
H2691 C2703 0.929 . S
H2692 C2706 0.930 . S
H2693 C2708 0.960 . S
H2694 C2708 0.960 . S
H2695 C2708 0.960 . S
C2696 H2688 0.929 . S
C2696 C2697 1.377 . S
C2696 C2698 1.384 . S
C2697 C2696 1.377 . S
C2697 C2703 1.390 . S
C2698 H2689 0.930 . S
C2698 C2696 1.384 . S
C2698 C2699 1.372 . S
C2699 C2698 1.372 . S
C2699 C2700 1.400 . S
C2699 C2704 1.490 . S
C2700 H2690 0.930 . S
C2700 C2699 1.400 . S
C2700 C2703 1.386 . S
H2701 C2717 0.930 . S
H2702 C2718 0.931 . S
C2703 H2691 0.929 . S
C2703 C2697 1.390 . S
C2703 C2700 1.386 . S
C2704 C2699 1.490 . S
C2704 C2706 1.395 . S
C2704 C2707 1.403 . S
H2705 C2711 0.986 . S
C2706 H2692 0.930 . S
C2706 C2704 1.395 . S
C2706 C2709 1.403 . S
C2707 C2704 1.403 . S
C2707 C2708 1.524 1_455 S
C2707 C2711 1.400 . S
C2708 H2693 0.960 . S
C2708 H2694 0.960 . S
C2708 H2695 0.960 . S
C2708 C2707 1.524 1_655 S
C2709 C2706 1.403 . S
C2709 C2710 1.392 . S
C2709 C2713 1.495 . S
C2710 C2709 1.392 . S
C2710 C2711 1.385 . S
C2710 C2712 1.478 . S
C2711 H2705 0.986 . S
C2711 C2707 1.400 . S
C2711 C2710 1.385 . S
C2712 C2710 1.478 . S
C2712 C2714 1.381 . S
C2712 C2718 1.383 . S
C2713 C2709 1.495 . S
C2713 H2719 0.959 . S
C2713 H2720 0.961 . S
C2713 H2721 0.960 . S
C2714 C2712 1.381 . S
C2714 C2715 1.394 . S
C2714 H2722 0.930 . S
C2715 C2714 1.394 . S
C2715 C2716 1.383 . S
C2715 H2723 0.929 . S
C2716 C2715 1.383 . S
C2716 C2717 1.377 . S
C2717 H2701 0.930 . S
C2717 C2716 1.377 . S
C2717 C2718 1.379 . S
C2718 H2702 0.931 . S
C2718 C2712 1.383 . S
C2718 C2717 1.379 . S
H2719 C2713 0.959 . S
H2720 C2713 0.961 . S
H2721 C2713 0.960 . S
H2722 C2714 0.930 . S
H2723 C2715 0.929 . S
H2724 C2732 0.929 . S
H2725 C2734 0.930 . S
H2726 C2736 0.930 . S
H2727 C2739 0.929 . S
H2728 C2742 0.930 . S
H2729 C2744 0.960 . S
H2730 C2744 0.960 . S
H2731 C2744 0.960 . S
C2732 H2724 0.929 . S
C2732 C2733 1.377 . S
C2732 C2734 1.384 . S
C2733 C2732 1.377 . S
C2733 C2739 1.390 . S
C2734 H2725 0.930 . S
C2734 C2732 1.384 . S
C2734 C2735 1.372 . S
C2735 C2734 1.372 . S
C2735 C2736 1.400 . S
C2735 C2740 1.490 . S
C2736 H2726 0.930 . S
C2736 C2735 1.400 . S
C2736 C2739 1.386 . S
H2737 C2753 0.930 . S
H2738 C2754 0.931 . S
C2739 H2727 0.929 . S
C2739 C2733 1.390 . S
C2739 C2736 1.386 . S
C2740 C2735 1.490 . S
C2740 C2742 1.395 . S
C2740 C2743 1.403 . S
H2741 C2747 0.930 . S
C2742 H2728 0.930 . S
C2742 C2740 1.395 . S
C2742 C2745 1.403 . S
C2743 C2740 1.403 . S
C2743 C2744 1.524 . S
C2743 C2747 1.400 . S
C2744 H2729 0.960 . S
C2744 H2730 0.960 . S
C2744 H2731 0.960 . S
C2744 C2743 1.524 . S
C2745 C2742 1.403 . S
C2745 C2746 1.392 . S
C2745 C2749 1.495 . S
C2746 C2745 1.392 . S
C2746 C2747 1.385 . S
C2746 C2748 1.478 . S
C2747 H2741 0.930 . S
C2747 C2743 1.400 . S
C2747 C2746 1.385 . S
C2748 C2746 1.478 . S
C2748 C2750 1.381 . S
C2748 C2754 1.383 . S
C2749 C2745 1.495 . S
C2749 H2755 0.959 . S
C2749 H2756 0.961 . S
C2749 H2757 0.960 . S
C2750 C2748 1.381 . S
C2750 C2751 1.394 . S
C2750 H2758 0.930 . S
C2751 C2750 1.394 . S
C2751 C2752 1.383 . S
C2751 H2759 0.929 . S
C2752 C2751 1.383 . S
C2752 C2753 1.377 . S
C2753 H2737 0.930 . S
C2753 C2752 1.377 . S
C2753 C2754 1.379 . S
C2754 H2738 0.931 . S
C2754 C2748 1.383 . S
C2754 C2753 1.379 . S
H2755 C2749 0.959 . S
H2756 C2749 0.961 . S
H2757 C2749 0.960 . S
H2758 C2750 0.930 . S
H2759 C2751 0.929 . S
H2760 C2768 0.929 . S
H2761 C2770 0.930 . S
H2762 C2772 0.930 . S
H2763 C2775 0.929 . S
H2764 C2778 0.930 . S
H2765 C2780 0.960 . S
H2766 C2780 0.960 . S
H2767 C2780 0.960 . S
C2768 H2760 0.929 . S
C2768 C2769 1.377 . S
C2768 C2770 1.384 . S
C2769 C2768 1.377 . S
C2769 C2775 1.390 . S
C2770 H2761 0.930 . S
C2770 C2768 1.384 . S
C2770 C2771 1.372 . S
C2771 C2770 1.372 . S
C2771 C2772 1.400 . S
C2771 C2776 1.490 . S
C2772 H2762 0.930 . S
C2772 C2771 1.400 . S
C2772 C2775 1.386 . S
H2773 C2789 0.930 . S
H2774 C2790 0.931 . S
C2775 H2763 0.929 . S
C2775 C2769 1.390 . S
C2775 C2772 1.386 . S
C2776 C2771 1.490 . S
C2776 C2778 1.395 . S
C2776 C2779 1.403 . S
H2777 C2783 0.930 . S
C2778 H2764 0.930 . S
C2778 C2776 1.395 . S
C2778 C2781 1.403 . S
C2779 C2776 1.403 . S
C2779 C2780 1.524 . S
C2779 C2783 1.400 . S
C2780 H2765 0.960 . S
C2780 H2766 0.960 . S
C2780 H2767 0.960 . S
C2780 C2779 1.524 . S
C2781 C2778 1.403 . S
C2781 C2782 1.392 . S
C2781 C2785 1.495 . S
C2782 C2781 1.392 . S
C2782 C2783 1.385 . S
C2782 C2784 1.478 . S
C2783 H2777 0.930 . S
C2783 C2779 1.400 . S
C2783 C2782 1.385 . S
C2784 C2782 1.478 . S
C2784 C2786 1.381 . S
C2784 C2790 1.383 . S
C2785 C2781 1.495 . S
C2785 H2791 0.959 . S
C2785 H2792 0.961 . S
C2785 H2793 0.960 . S
C2786 C2784 1.381 . S
C2786 C2787 1.394 . S
C2786 H2794 0.930 . S
C2787 C2786 1.394 . S
C2787 C2788 1.383 . S
C2787 H2795 0.929 1_556 S
C2788 C2787 1.383 . S
C2788 C2789 1.377 . S
C2789 H2773 0.930 . S
C2789 C2788 1.377 . S
C2789 C2790 1.379 . S
C2790 H2774 0.931 . S
C2790 C2784 1.383 . S
C2790 C2789 1.379 . S
H2791 C2785 0.959 . S
H2792 C2785 0.961 . S
H2793 C2785 0.960 . S
H2794 C2786 0.930 . S
H2795 C2787 0.929 1_554 S
H2796 C2804 0.929 . S
H2797 C2806 0.930 . S
H2798 C2808 0.930 . S
H2799 C2811 0.929 . S
H2800 C2814 0.930 . S
H2801 C2816 0.960 . S
H2802 C2816 0.960 . S
H2803 C2816 0.960 . S
C2804 H2796 0.929 . S
C2804 C2805 1.377 . S
C2804 C2806 1.384 . S
C2805 C2804 1.377 . S
C2805 C2811 1.390 . S
C2806 H2797 0.930 . S
C2806 C2804 1.384 . S
C2806 C2807 1.372 . S
C2807 C2806 1.372 . S
C2807 C2808 1.400 . S
C2807 C2812 1.490 . S
C2808 H2798 0.930 . S
C2808 C2807 1.400 . S
C2808 C2811 1.386 . S
H2809 C2825 0.930 . S
H2810 C2826 0.931 . S
C2811 H2799 0.929 . S
C2811 C2805 1.390 . S
C2811 C2808 1.386 . S
C2812 C2807 1.490 . S
C2812 C2814 1.395 . S
C2812 C2815 1.403 . S
H2813 C2819 0.930 . S
C2814 H2800 0.930 . S
C2814 C2812 1.395 . S
C2814 C2817 1.403 . S
C2815 C2812 1.403 . S
C2815 C2816 1.524 . S
C2815 C2819 1.400 . S
C2816 H2801 0.960 . S
C2816 H2802 0.960 . S
C2816 H2803 0.960 . S
C2816 C2815 1.524 . S
C2817 C2814 1.403 . S
C2817 C2818 1.392 . S
C2817 C2821 1.495 . S
C2818 C2817 1.392 . S
C2818 C2819 1.385 . S
C2818 C2820 1.478 . S
C2819 H2813 0.930 . S
C2819 C2815 1.400 . S
C2819 C2818 1.385 . S
C2820 C2818 1.478 . S
C2820 C2822 1.381 . S
C2820 C2826 1.383 . S
C2821 C2817 1.495 . S
C2821 H2827 0.959 . S
C2821 H2828 0.961 . S
C2821 H2829 0.960 . S
C2822 C2820 1.381 . S
C2822 C2823 1.394 . S
C2822 H2830 0.930 . S
C2823 C2822 1.394 . S
C2823 C2824 1.383 . S
C2823 H2831 0.929 . S
C2824 C2823 1.383 . S
C2824 C2825 1.377 . S
C2825 H2809 0.930 . S
C2825 C2824 1.377 . S
C2825 C2826 1.379 . S
C2826 H2810 0.931 . S
C2826 C2820 1.383 . S
C2826 C2825 1.379 . S
H2827 C2821 0.959 . S
H2828 C2821 0.961 . S
H2829 C2821 0.960 . S
H2830 C2822 0.930 . S
H2831 C2823 0.929 . S
H2832 C2840 0.929 . S
H2833 C2842 0.930 . S
H2834 C2844 0.930 . S
H2835 C2847 0.929 . S
H2836 C2850 0.930 . S
H2837 C2852 0.960 . S
H2838 C2852 0.960 . S
H2839 C2852 0.985 . S
C2840 H2832 0.929 . S
C2840 C2841 1.377 . S
C2840 C2842 1.384 . S
C2841 C2840 1.377 . S
C2841 C2847 1.390 . S
C2842 H2833 0.930 . S
C2842 C2840 1.384 . S
C2842 C2843 1.372 . S
C2843 C2842 1.372 . S
C2843 C2844 1.400 . S
C2843 C2848 1.490 . S
C2844 H2834 0.930 . S
C2844 C2843 1.400 . S
C2844 C2847 1.386 . S
H2845 C2861 0.919 1_565 S
H2846 C2862 0.931 1_565 S
C2847 H2835 0.929 . S
C2847 C2841 1.390 . S
C2847 C2844 1.386 . S
C2848 C2843 1.490 . S
C2848 C2850 1.395 . S
C2848 C2851 1.403 . S
H2849 C2855 0.930 . S
C2850 H2836 0.930 . S
C2850 C2848 1.395 . S
C2850 C2853 1.403 . S
C2851 C2848 1.403 . S
C2851 C2852 1.524 . S
C2851 C2855 1.400 . S
C2852 H2837 0.960 . S
C2852 H2838 0.960 . S
C2852 H2839 0.985 . S
C2852 C2851 1.524 . S
C2853 C2850 1.403 . S
C2853 C2854 1.392 . S
C2853 C2857 1.495 . S
C2854 C2853 1.392 . S
C2854 C2855 1.385 . S
C2854 C2856 1.478 . S
C2855 H2849 0.930 . S
C2855 C2851 1.400 . S
C2855 C2854 1.385 . S
C2856 C2854 1.478 . S
C2856 C2858 1.381 . S
C2856 C2862 1.383 . S
C2857 C2853 1.495 . S
C2857 H2863 0.959 . S
C2857 H2864 0.961 . S
C2857 H2865 0.960 . S
C2858 C2856 1.381 . S
C2858 C2859 1.394 . S
C2858 H2866 0.930 . S
C2859 C2858 1.394 . S
C2859 C2860 1.383 . S
C2859 H2867 0.929 . S
C2860 C2859 1.383 . S
C2860 C2861 1.385 . S
C2861 H2845 0.919 1_545 S
C2861 C2860 1.385 . S
C2861 C2862 1.382 . S
C2862 H2846 0.931 1_545 S
C2862 C2856 1.383 . S
C2862 C2861 1.382 . S
H2863 C2857 0.959 . S
H2864 C2857 0.961 . S
H2865 C2857 0.960 . S
H2866 C2858 0.930 . S
H2867 C2859 0.929 . S
H2868 C2876 0.929 . S
H2869 C2878 0.930 . S
H2870 C2880 0.930 . S
H2871 C2883 0.929 . S
H2872 C2886 0.930 . S
H2873 C2888 0.960 . S
H2874 C2888 0.960 . S
H2875 C2888 0.960 . S
C2876 H2868 0.929 . S
C2876 C2877 1.377 . S
C2876 C2878 1.384 . S
C2877 C2876 1.377 . S
C2877 C2883 1.390 . S
C2878 H2869 0.930 . S
C2878 C2876 1.384 . S
C2878 C2879 1.372 . S
C2879 C2878 1.372 . S
C2879 C2880 1.400 . S
C2879 C2884 1.490 . S
C2880 H2870 0.930 . S
C2880 C2879 1.400 . S
C2880 C2883 1.386 . S
H2881 C2897 0.930 . S
H2882 C2898 0.931 . S
C2883 H2871 0.929 . S
C2883 C2877 1.390 . S
C2883 C2880 1.386 . S
C2884 C2879 1.490 . S
C2884 C2886 1.395 . S
C2884 C2887 1.403 . S
H2885 C2891 0.930 . S
C2886 H2872 0.930 . S
C2886 C2884 1.395 . S
C2886 C2889 1.403 . S
C2887 C2884 1.403 . S
C2887 C2888 1.524 . S
C2887 C2891 1.400 . S
C2888 H2873 0.960 . S
C2888 H2874 0.960 . S
C2888 H2875 0.960 . S
C2888 C2887 1.524 . S
C2889 C2886 1.403 . S
C2889 C2890 1.392 . S
C2889 C2893 1.495 . S
C2890 C2889 1.392 . S
C2890 C2891 1.385 . S
C2890 C2892 1.478 . S
C2891 H2885 0.930 . S
C2891 C2887 1.400 . S
C2891 C2890 1.385 . S
C2892 C2890 1.478 . S
C2892 C2894 1.381 . S
C2892 C2898 1.383 . S
C2893 C2889 1.495 . S
C2893 H2899 0.959 . S
C2893 H2900 0.961 . S
C2893 H2901 0.960 . S
C2894 C2892 1.381 . S
C2894 C2895 1.394 . S
C2894 H2902 0.930 . S
C2895 C2894 1.394 . S
C2895 C2896 1.383 . S
C2895 H2903 0.929 . S
C2896 C2895 1.383 . S
C2896 C2897 1.377 . S
C2897 H2881 0.930 . S
C2897 C2896 1.377 . S
C2897 C2898 1.379 . S
C2898 H2882 0.931 . S
C2898 C2892 1.383 . S
C2898 C2897 1.379 . S
H2899 C2893 0.959 . S
H2900 C2893 0.961 . S
H2901 C2893 0.960 . S
H2902 C2894 0.930 . S
H2903 C2895 0.929 . S
H2904 C2912 0.929 . S
H2905 C2914 0.930 . S
H2906 C2916 0.966 . S
H2907 C2919 0.929 . S
H2908 C2922 0.930 . S
H2909 C2924 0.960 . S
H2910 C2924 0.990 . S
H2911 C2924 0.960 . S
C2912 H2904 0.929 . S
C2912 C2913 1.377 . S
C2912 C2914 1.384 . S
C2913 C2912 1.377 . S
C2913 C2919 1.390 1_545 S
C2914 H2905 0.930 . S
C2914 C2912 1.384 . S
C2914 C2915 1.372 . S
C2915 C2914 1.372 . S
C2915 C2916 1.371 1_545 S
C2915 C2920 1.490 . S
C2916 H2906 0.966 . S
C2916 C2915 1.371 1_565 S
C2916 C2919 1.381 . S
H2917 C2933 0.967 . S
H2918 C2934 0.921 1_565 S
C2919 H2907 0.929 . S
C2919 C2913 1.390 1_565 S
C2919 C2916 1.381 . S
C2920 C2915 1.490 . S
C2920 C2922 1.395 . S
C2920 C2923 1.403 . S
H2921 C2927 0.930 . S
C2922 H2908 0.930 . S
C2922 C2920 1.395 . S
C2922 C2925 1.403 . S
C2923 C2920 1.403 . S
C2923 C2924 1.524 1_545 S
C2923 C2927 1.400 . S
C2924 H2909 0.960 . S
C2924 H2910 0.990 . S
C2924 H2911 0.960 . S
C2924 C2923 1.524 1_565 S
C2925 C2922 1.403 . S
C2925 C2926 1.392 . S
C2925 C2929 1.495 . S
C2926 C2925 1.392 . S
C2926 C2927 1.385 . S
C2926 C2928 1.478 . S
C2927 H2921 0.930 . S
C2927 C2923 1.400 . S
C2927 C2926 1.385 . S
C2928 C2926 1.478 . S
C2928 C2930 1.381 . S
C2928 C2934 1.383 . S
C2929 C2925 1.495 . S
C2929 H2935 0.959 . S
C2929 H2936 0.961 . S
C2929 H2937 0.960 . S
C2930 C2928 1.381 . S
C2930 C2931 1.394 . S
C2930 H2938 0.930 . S
C2931 C2930 1.394 . S
C2931 C2932 1.383 . S
C2931 H2939 0.929 . S
C2932 C2931 1.383 . S
C2932 C2933 1.377 . S
C2933 H2917 0.967 . S
C2933 C2932 1.377 . S
C2933 C2934 1.379 . S
C2934 H2918 0.921 1_545 S
C2934 C2928 1.383 . S
C2934 C2933 1.379 . S
H2935 C2929 0.959 . S
H2936 C2929 0.961 . S
H2937 C2929 0.960 . S
H2938 C2930 0.930 . S
H2939 C2931 0.929 . S
H2940 C2948 0.929 . S
H2941 C2950 0.930 . S
H2942 C2952 0.930 . S
H2943 C2955 0.929 . S
H2944 C2958 0.930 . S
H2945 C2960 0.960 . S
H2946 C2960 0.960 . S
H2947 C2960 0.960 . S
C2948 H2940 0.929 . S
C2948 C2949 1.377 . S
C2948 C2950 1.384 . S
C2949 C2948 1.377 . S
C2949 C2955 1.390 . S
C2950 H2941 0.930 . S
C2950 C2948 1.384 . S
C2950 C2951 1.372 . S
C2951 C2950 1.372 . S
C2951 C2952 1.400 . S
C2951 C2956 1.490 . S
C2952 H2942 0.930 . S
C2952 C2951 1.400 . S
C2952 C2955 1.386 . S
H2953 C2969 0.930 . S
H2954 C2970 0.931 . S
C2955 H2943 0.929 . S
C2955 C2949 1.390 . S
C2955 C2952 1.386 . S
C2956 C2951 1.490 . S
C2956 C2958 1.395 . S
C2956 C2959 1.403 . S
H2957 C2963 0.930 . S
C2958 H2944 0.930 . S
C2958 C2956 1.395 . S
C2958 C2961 1.403 . S
C2959 C2956 1.403 . S
C2959 C2960 1.524 . S
C2959 C2963 1.400 . S
C2960 H2945 0.960 . S
C2960 H2946 0.960 . S
C2960 H2947 0.960 . S
C2960 C2959 1.524 . S
C2961 C2958 1.403 . S
C2961 C2962 1.392 . S
C2961 C2965 1.495 . S
C2962 C2961 1.392 . S
C2962 C2963 1.385 . S
C2962 C2964 1.478 . S
C2963 H2957 0.930 . S
C2963 C2959 1.400 . S
C2963 C2962 1.385 . S
C2964 C2962 1.478 . S
C2964 C2966 1.381 . S
C2964 C2970 1.383 . S
C2965 C2961 1.495 . S
C2965 H2971 0.959 . S
C2965 H2972 0.961 . S
C2965 H2973 0.960 . S
C2966 C2964 1.381 . S
C2966 C2967 1.394 . S
C2966 H2974 0.930 . S
C2967 C2966 1.394 . S
C2967 C2968 1.383 . S
C2967 H2975 0.929 . S
C2968 C2967 1.383 . S
C2968 C2969 1.377 . S
C2969 H2953 0.930 . S
C2969 C2968 1.377 . S
C2969 C2970 1.379 . S
C2970 H2954 0.931 . S
C2970 C2964 1.383 . S
C2970 C2969 1.379 . S
H2971 C2965 0.959 . S
H2972 C2965 0.961 . S
H2973 C2965 0.960 . S
H2974 C2966 0.930 . S
H2975 C2967 0.929 . S
H2976 C2984 0.929 . S
H2977 C2986 0.930 . S
H2978 C2988 0.930 . S
H2979 C2991 0.929 . S
H2980 C2994 0.930 . S
H2981 C2996 0.960 1_565 S
H2982 C2996 0.960 1_565 S
H2983 C2996 0.960 . S
C2984 H2976 0.929 . S
C2984 C2985 1.377 . S
C2984 C2986 1.384 . S
C2985 C2984 1.377 . S
C2985 C2991 1.390 . S
C2986 H2977 0.930 . S
C2986 C2984 1.384 . S
C2986 C2987 1.372 . S
C2987 C2986 1.372 . S
C2987 C2988 1.400 . S
C2987 C2992 1.490 . S
C2988 H2978 0.930 . S
C2988 C2987 1.400 . S
C2988 C2991 1.386 . S
H2989 C3005 0.930 . S
H2990 C3006 0.931 . S
C2991 H2979 0.929 . S
C2991 C2985 1.390 . S
C2991 C2988 1.386 . S
C2992 C2987 1.490 . S
C2992 C2994 1.395 . S
C2992 C2995 1.403 . S
H2993 C2999 0.930 . S
C2994 H2980 0.930 . S
C2994 C2992 1.395 . S
C2994 C2997 1.403 . S
C2995 C2992 1.403 . S
C2995 C2996 1.524 . S
C2995 C2999 1.400 . S
C2996 H2981 0.960 1_545 S
C2996 H2982 0.960 1_545 S
C2996 H2983 0.960 . S
C2996 C2995 1.524 . S
C2997 C2994 1.403 . S
C2997 C2998 1.392 . S
C2997 C3001 1.495 . S
C2998 C2997 1.392 . S
C2998 C2999 1.385 . S
C2998 C3000 1.478 . S
C2999 H2993 0.930 . S
C2999 C2995 1.400 . S
C2999 C2998 1.385 . S
C3000 C2998 1.478 . S
C3000 C3002 1.381 . S
C3000 C3006 1.383 . S
C3001 C2997 1.495 . S
C3001 H3007 0.959 . S
C3001 H3008 0.961 . S
C3001 H3009 0.960 . S
C3002 C3000 1.381 . S
C3002 C3003 1.394 . S
C3002 H3010 0.930 . S
C3003 C3002 1.394 . S
C3003 C3004 1.383 . S
C3003 H3011 0.929 . S
C3004 C3003 1.383 . S
C3004 C3005 1.377 . S
C3005 H2989 0.930 . S
C3005 C3004 1.377 . S
C3005 C3006 1.379 . S
C3006 H2990 0.931 . S
C3006 C3000 1.383 . S
C3006 C3005 1.379 . S
H3007 C3001 0.959 . S
H3008 C3001 0.961 . S
H3009 C3001 0.960 . S
H3010 C3002 0.930 . S
H3011 C3003 0.929 . S
H3012 C3020 0.929 . S
H3013 C3022 0.930 . S
H3014 C3024 0.930 . S
H3015 C3027 0.929 . S
H3016 C3030 0.930 . S
H3017 C3032 0.960 . S
H3018 C3032 0.960 . S
H3019 C3032 0.960 . S
C3020 H3012 0.929 . S
C3020 C3021 1.377 . S
C3020 C3022 1.384 . S
C3021 C3020 1.377 . S
C3021 C3027 1.390 . S
C3022 H3013 0.930 . S
C3022 C3020 1.384 . S
C3022 C3023 1.372 . S
C3023 C3022 1.372 . S
C3023 C3024 1.400 . S
C3023 C3028 1.490 . S
C3024 H3014 0.930 . S
C3024 C3023 1.400 . S
C3024 C3027 1.386 . S
H3025 C3041 0.930 . S
H3026 C3042 0.931 . S
C3027 H3015 0.929 . S
C3027 C3021 1.390 . S
C3027 C3024 1.386 . S
C3028 C3023 1.490 . S
C3028 C3030 1.395 . S
C3028 C3031 1.403 . S
H3029 C3035 0.930 . S
C3030 H3016 0.930 . S
C3030 C3028 1.395 . S
C3030 C3033 1.403 . S
C3031 C3028 1.403 . S
C3031 C3032 1.524 . S
C3031 C3035 1.400 . S
C3032 H3017 0.960 . S
C3032 H3018 0.960 . S
C3032 H3019 0.960 . S
C3032 C3031 1.524 . S
C3033 C3030 1.403 . S
C3033 C3034 1.392 . S
C3033 C3037 1.495 . S
C3034 C3033 1.392 . S
C3034 C3035 1.385 . S
C3034 C3036 1.478 . S
C3035 H3029 0.930 . S
C3035 C3031 1.400 . S
C3035 C3034 1.385 . S
C3036 C3034 1.478 . S
C3036 C3038 1.381 . S
C3036 C3042 1.383 . S
C3037 C3033 1.495 . S
C3037 H3043 0.959 . S
C3037 H3044 0.961 . S
C3037 H3045 0.960 . S
C3038 C3036 1.381 . S
C3038 C3039 1.394 . S
C3038 H3046 0.930 . S
C3039 C3038 1.394 . S
C3039 C3040 1.383 . S
C3039 H3047 0.929 . S
C3040 C3039 1.383 . S
C3040 C3041 1.377 . S
C3041 H3025 0.930 . S
C3041 C3040 1.377 . S
C3041 C3042 1.379 . S
C3042 H3026 0.931 . S
C3042 C3036 1.383 . S
C3042 C3041 1.379 . S
H3043 C3037 0.959 . S
H3044 C3037 0.961 . S
H3045 C3037 0.960 . S
H3046 C3038 0.930 . S
H3047 C3039 0.929 . S
H3048 C3056 0.929 . S
H3049 C3058 0.930 . S
H3050 C3060 0.930 . S
H3051 C3063 0.929 . S
H3052 C3066 0.930 . S
H3053 C3068 0.960 . S
H3054 C3068 0.960 1_545 S
H3055 C3068 0.960 . S
C3056 H3048 0.929 . S
C3056 C3057 1.377 . S
C3056 C3058 1.384 . S
C3057 C3056 1.377 . S
C3057 C3063 1.390 1_545 S
C3058 H3049 0.930 . S
C3058 C3056 1.384 . S
C3058 C3059 1.372 . S
C3059 C3058 1.372 . S
C3059 C3060 1.400 1_545 S
C3059 C3064 1.490 . S
C3060 H3050 0.930 . S
C3060 C3059 1.400 1_565 S
C3060 C3063 1.386 . S
H3061 C3077 0.930 . S
H3062 C3078 0.931 . S
C3063 H3051 0.929 . S
C3063 C3057 1.390 1_565 S
C3063 C3060 1.386 . S
C3064 C3059 1.490 . S
C3064 C3066 1.395 . S
C3064 C3067 1.402 1_545 S
H3065 C3071 0.923 1_565 S
C3066 H3052 0.930 . S
C3066 C3064 1.395 . S
C3066 C3069 1.403 . S
C3067 C3064 1.402 1_565 S
C3067 C3068 1.524 . S
C3067 C3071 1.399 1_565 S
C3068 H3053 0.960 . S
C3068 H3054 0.960 1_565 S
C3068 H3055 0.960 . S
C3068 C3067 1.524 . S
C3069 C3066 1.403 . S
C3069 C3070 1.392 . S
C3069 C3073 1.495 . S
C3070 C3069 1.392 . S
C3070 C3071 1.395 . S
C3070 C3072 1.478 . S
C3071 H3065 0.923 1_545 S
C3071 C3067 1.399 1_545 S
C3071 C3070 1.395 . S
C3072 C3070 1.478 . S
C3072 C3074 1.381 . S
C3072 C3078 1.383 1_545 S
C3073 C3069 1.495 . S
C3073 H3079 0.959 . S
C3073 H3080 0.961 . S
C3073 H3081 0.960 . S
C3074 C3072 1.381 . S
C3074 C3075 1.394 . S
C3074 H3082 0.930 . S
C3075 C3074 1.394 . S
C3075 C3076 1.383 . S
C3075 H3083 0.929 . S
C3076 C3075 1.383 . S
C3076 C3077 1.377 1_545 S
C3077 H3061 0.930 . S
C3077 C3076 1.377 1_565 S
C3077 C3078 1.379 . S
C3078 H3062 0.931 . S
C3078 C3072 1.383 1_565 S
C3078 C3077 1.379 . S
H3079 C3073 0.959 . S
H3080 C3073 0.961 . S
H3081 C3073 0.960 . S
H3082 C3074 0.930 . S
H3083 C3075 0.929 . S
H3084 C3092 0.929 . S
H3085 C3094 0.930 . S
H3086 C3096 0.930 . S
H3087 C3099 0.929 . S
H3088 C3102 0.930 . S
H3089 C3104 0.960 . S
H3090 C3104 0.960 . S
H3091 C3104 0.960 . S
C3092 H3084 0.929 . S
C3092 C3093 1.377 . S
C3092 C3094 1.384 . S
C3093 C3092 1.377 . S
C3093 C3099 1.390 . S
C3094 H3085 0.930 . S
C3094 C3092 1.384 . S
C3094 C3095 1.372 . S
C3095 C3094 1.372 . S
C3095 C3096 1.400 . S
C3095 C3100 1.490 . S
C3096 H3086 0.930 . S
C3096 C3095 1.400 . S
C3096 C3099 1.386 . S
H3097 C3113 0.930 . S
H3098 C3114 0.931 . S
C3099 H3087 0.929 . S
C3099 C3093 1.390 . S
C3099 C3096 1.386 . S
C3100 C3095 1.490 . S
C3100 C3102 1.395 . S
C3100 C3103 1.403 . S
H3101 C3107 0.930 . S
C3102 H3088 0.930 . S
C3102 C3100 1.395 . S
C3102 C3105 1.403 . S
C3103 C3100 1.403 . S
C3103 C3104 1.524 . S
C3103 C3107 1.400 . S
C3104 H3089 0.960 . S
C3104 H3090 0.960 . S
C3104 H3091 0.960 . S
C3104 C3103 1.524 . S
C3105 C3102 1.403 . S
C3105 C3106 1.392 . S
C3105 C3109 1.495 . S
C3106 C3105 1.392 . S
C3106 C3107 1.385 . S
C3106 C3108 1.478 . S
C3107 H3101 0.930 . S
C3107 C3103 1.400 . S
C3107 C3106 1.385 . S
C3108 C3106 1.478 . S
C3108 C3110 1.381 . S
C3108 C3114 1.383 . S
C3109 C3105 1.495 . S
C3109 H3115 0.959 . S
C3109 H3116 0.961 . S
C3109 H3117 0.960 . S
C3110 C3108 1.381 . S
C3110 C3111 1.394 . S
C3110 H3118 0.930 . S
C3111 C3110 1.394 . S
C3111 C3112 1.383 . S
C3111 H3119 0.929 . S
C3112 C3111 1.383 . S
C3112 C3113 1.377 . S
C3113 H3097 0.930 . S
C3113 C3112 1.377 . S
C3113 C3114 1.379 . S
C3114 H3098 0.931 . S
C3114 C3108 1.383 . S
C3114 C3113 1.379 . S
H3115 C3109 0.959 . S
H3116 C3109 0.961 . S
H3117 C3109 0.960 . S
H3118 C3110 0.930 . S
H3119 C3111 0.929 . S
H3120 C3128 0.929 . S
H3121 C3130 0.930 . S
H3122 C3132 0.930 . S
H3123 C3135 0.929 . S
H3124 C3138 0.930 1_556 S
H3125 C3140 0.960 . S
H3126 C3140 0.960 . S
H3127 C3140 0.960 . S
C3128 H3120 0.929 . S
C3128 C3129 1.377 . S
C3128 C3130 1.384 . S
C3129 C3128 1.377 . S
C3129 C3135 1.390 . S
C3130 H3121 0.930 . S
C3130 C3128 1.384 . S
C3130 C3131 1.372 . S
C3131 C3130 1.372 . S
C3131 C3132 1.400 . S
C3131 C3136 1.490 . S
C3132 H3122 0.930 . S
C3132 C3131 1.400 . S
C3132 C3135 1.386 . S
H3133 C3149 0.930 . S
H3134 C3150 0.931 . S
C3135 H3123 0.929 . S
C3135 C3129 1.390 . S
C3135 C3132 1.386 . S
C3136 C3131 1.490 . S
C3136 C3138 1.395 . S
C3136 C3139 1.403 . S
H3137 C3143 0.930 . S
C3138 H3124 0.930 1_554 S
C3138 C3136 1.395 . S
C3138 C3141 1.403 . S
C3139 C3136 1.403 . S
C3139 C3140 1.524 . S
C3139 C3143 1.400 . S
C3140 H3125 0.960 . S
C3140 H3126 0.960 . S
C3140 H3127 0.960 . S
C3140 C3139 1.524 . S
C3141 C3138 1.403 . S
C3141 C3142 1.392 . S
C3141 C3145 1.495 1_554 S
C3142 C3141 1.392 . S
C3142 C3143 1.385 . S
C3142 C3144 1.478 . S
C3143 H3137 0.930 . S
C3143 C3139 1.400 . S
C3143 C3142 1.385 . S
C3144 C3142 1.478 . S
C3144 C3146 1.381 . S
C3144 C3150 1.383 . S
C3145 C3141 1.495 1_556 S
C3145 H3151 0.959 . S
C3145 H3152 0.961 . S
C3145 H3153 0.960 . S
C3146 C3144 1.381 . S
C3146 C3147 1.389 1_554 S
C3146 H3154 0.930 1_554 S
C3147 C3146 1.389 1_556 S
C3147 C3148 1.374 1_556 S
C3147 H3155 0.946 . S
C3148 C3147 1.374 1_554 S
C3148 C3149 1.377 . S
C3149 H3133 0.930 . S
C3149 C3148 1.377 . S
C3149 C3150 1.379 . S
C3150 H3134 0.931 . S
C3150 C3144 1.383 . S
C3150 C3149 1.379 . S
H3151 C3145 0.959 . S
H3152 C3145 0.961 . S
H3153 C3145 0.960 . S
H3154 C3146 0.930 1_556 S
H3155 C3147 0.946 . S
H3156 C3164 0.929 . S
H3157 C3166 0.930 . S
H3158 C3168 0.930 . S
H3159 C3171 0.929 . S
H3160 C3174 0.930 . S
H3161 C3176 0.960 . S
H3162 C3176 0.960 . S
H3163 C3176 0.960 . S
C3164 H3156 0.929 . S
C3164 C3165 1.377 . S
C3164 C3166 1.384 . S
C3165 C3164 1.377 . S
C3165 C3171 1.390 . S
C3166 H3157 0.930 . S
C3166 C3164 1.384 . S
C3166 C3167 1.372 . S
C3167 C3166 1.372 . S
C3167 C3168 1.400 . S
C3167 C3172 1.490 . S
C3168 H3158 0.930 . S
C3168 C3167 1.400 . S
C3168 C3171 1.386 . S
H3169 C3185 0.930 . S
H3170 C3186 0.931 . S
C3171 H3159 0.929 . S
C3171 C3165 1.390 . S
C3171 C3168 1.386 . S
C3172 C3167 1.490 . S
C3172 C3174 1.395 . S
C3172 C3175 1.403 . S
H3173 C3179 0.930 . S
C3174 H3160 0.930 . S
C3174 C3172 1.395 . S
C3174 C3177 1.403 . S
C3175 C3172 1.403 . S
C3175 C3176 1.524 . S
C3175 C3179 1.400 . S
C3176 H3161 0.960 . S
C3176 H3162 0.960 . S
C3176 H3163 0.960 . S
C3176 C3175 1.524 . S
C3177 C3174 1.403 . S
C3177 C3178 1.392 . S
C3177 C3181 1.495 . S
C3178 C3177 1.392 . S
C3178 C3179 1.385 . S
C3178 C3180 1.478 . S
C3179 H3173 0.930 . S
C3179 C3175 1.400 . S
C3179 C3178 1.385 . S
C3180 C3178 1.478 . S
C3180 C3182 1.381 . S
C3180 C3186 1.383 . S
C3181 C3177 1.495 . S
C3181 H3187 0.959 . S
C3181 H3188 0.961 . S
C3181 H3189 0.960 . S
C3182 C3180 1.381 . S
C3182 C3183 1.394 . S
C3182 H3190 0.930 . S
C3183 C3182 1.394 . S
C3183 C3184 1.383 . S
C3183 H3191 0.929 . S
C3184 C3183 1.383 . S
C3184 C3185 1.377 . S
C3185 H3169 0.930 . S
C3185 C3184 1.377 . S
C3185 C3186 1.379 . S
C3186 H3170 0.931 . S
C3186 C3180 1.383 . S
C3186 C3185 1.379 . S
H3187 C3181 0.959 . S
H3188 C3181 0.961 . S
H3189 C3181 0.960 . S
H3190 C3182 0.930 . S
H3191 C3183 0.929 . S
H3192 C3200 0.929 . S
H3193 C3202 0.930 . S
H3194 C3204 0.930 . S
H3195 C3207 0.929 . S
H3196 C3210 0.930 . S
H3197 C3212 0.960 . S
H3198 C3212 0.960 . S
H3199 C3212 0.960 . S
C3200 H3192 0.929 . S
C3200 C3201 1.377 . S
C3200 C3202 1.384 . S
C3201 C3200 1.377 . S
C3201 C3207 1.390 . S
C3202 H3193 0.930 . S
C3202 C3200 1.384 . S
C3202 C3203 1.372 . S
C3203 C3202 1.372 . S
C3203 C3204 1.400 . S
C3203 C3208 1.490 . S
C3204 H3194 0.930 . S
C3204 C3203 1.400 . S
C3204 C3207 1.386 . S
H3205 C3221 0.930 . S
H3206 C3222 0.931 . S
C3207 H3195 0.929 . S
C3207 C3201 1.390 . S
C3207 C3204 1.386 . S
C3208 C3203 1.490 . S
C3208 C3210 1.395 . S
C3208 C3211 1.403 . S
H3209 C3215 0.930 . S
C3210 H3196 0.930 . S
C3210 C3208 1.395 . S
C3210 C3213 1.403 . S
C3211 C3208 1.403 . S
C3211 C3212 1.524 . S
C3211 C3215 1.400 . S
C3212 H3197 0.960 . S
C3212 H3198 0.960 . S
C3212 H3199 0.960 . S
C3212 C3211 1.524 . S
C3213 C3210 1.403 . S
C3213 C3214 1.392 . S
C3213 C3217 1.495 . S
C3214 C3213 1.392 . S
C3214 C3215 1.385 . S
C3214 C3216 1.478 . S
C3215 H3209 0.930 . S
C3215 C3211 1.400 . S
C3215 C3214 1.385 . S
C3216 C3214 1.478 . S
C3216 C3218 1.381 . S
C3216 C3222 1.383 . S
C3217 C3213 1.495 . S
C3217 H3223 0.959 . S
C3217 H3224 0.961 . S
C3217 H3225 0.960 . S
C3218 C3216 1.381 . S
C3218 C3219 1.394 . S
C3218 H3226 0.930 . S
C3219 C3218 1.394 . S
C3219 C3220 1.383 . S
C3219 H3227 0.929 . S
C3220 C3219 1.383 . S
C3220 C3221 1.377 . S
C3221 H3205 0.930 . S
C3221 C3220 1.377 . S
C3221 C3222 1.379 . S
C3222 H3206 0.931 . S
C3222 C3216 1.383 . S
C3222 C3221 1.379 . S
H3223 C3217 0.959 . S
H3224 C3217 0.961 . S
H3225 C3217 0.960 . S
H3226 C3218 0.930 . S
H3227 C3219 0.929 . S
H3228 C3236 0.929 . S
H3229 C3238 0.930 . S
H3230 C3240 0.930 . S
H3231 C3243 0.929 . S
H3232 C3246 0.930 . S
H3233 C3248 0.960 . S
H3234 C3248 0.960 . S
H3235 C3248 0.960 . S
C3236 H3228 0.929 . S
C3236 C3237 1.377 . S
C3236 C3238 1.384 . S
C3237 C3236 1.377 . S
C3237 C3243 1.390 . S
C3238 H3229 0.930 . S
C3238 C3236 1.384 . S
C3238 C3239 1.372 . S
C3239 C3238 1.372 . S
C3239 C3240 1.400 . S
C3239 C3244 1.490 . S
C3240 H3230 0.930 . S
C3240 C3239 1.400 . S
C3240 C3243 1.386 . S
H3241 C3257 0.930 . S
H3242 C3258 0.931 . S
C3243 H3231 0.929 . S
C3243 C3237 1.390 . S
C3243 C3240 1.386 . S
C3244 C3239 1.490 . S
C3244 C3246 1.395 . S
C3244 C3247 1.403 . S
H3245 C3251 0.930 . S
C3246 H3232 0.930 . S
C3246 C3244 1.395 . S
C3246 C3249 1.403 . S
C3247 C3244 1.403 . S
C3247 C3248 1.524 . S
C3247 C3251 1.400 . S
C3248 H3233 0.960 . S
C3248 H3234 0.960 . S
C3248 H3235 0.960 . S
C3248 C3247 1.524 . S
C3249 C3246 1.403 . S
C3249 C3250 1.392 . S
C3249 C3253 1.495 . S
C3250 C3249 1.392 . S
C3250 C3251 1.385 . S
C3250 C3252 1.478 . S
C3251 H3245 0.930 . S
C3251 C3247 1.400 . S
C3251 C3250 1.385 . S
C3252 C3250 1.478 . S
C3252 C3254 1.381 . S
C3252 C3258 1.383 . S
C3253 C3249 1.495 . S
C3253 H3259 0.959 . S
C3253 H3260 0.961 . S
C3253 H3261 0.960 . S
C3254 C3252 1.381 . S
C3254 C3255 1.394 . S
C3254 H3262 0.930 . S
C3255 C3254 1.394 . S
C3255 C3256 1.383 . S
C3255 H3263 0.929 . S
C3256 C3255 1.383 . S
C3256 C3257 1.377 . S
C3257 H3241 0.930 . S
C3257 C3256 1.377 . S
C3257 C3258 1.379 . S
C3258 H3242 0.931 . S
C3258 C3252 1.383 . S
C3258 C3257 1.379 . S
H3259 C3253 0.959 . S
H3260 C3253 0.961 . S
H3261 C3253 0.960 . S
H3262 C3254 0.930 . S
H3263 C3255 0.929 . S
H3264 C3272 0.929 . S
H3265 C3274 0.930 . S
H3266 C3276 0.930 . S
H3267 C3279 0.929 . S
H3268 C3282 0.930 . S
H3269 C3284 0.960 . S
H3270 C3284 0.960 . S
H3271 C3284 0.960 . S
C3272 H3264 0.929 . S
C3272 C3273 1.377 . S
C3272 C3274 1.384 1_545 S
C3273 C3272 1.377 . S
C3273 C3279 1.390 1_545 S
C3274 H3265 0.930 . S
C3274 C3272 1.384 1_565 S
C3274 C3275 1.372 . S
C3275 C3274 1.372 . S
C3275 C3276 1.400 . S
C3275 C3280 1.490 . S
C3276 H3266 0.930 . S
C3276 C3275 1.400 . S
C3276 C3279 1.386 . S
H3277 C3293 0.930 . S
H3278 C3294 0.931 . S
C3279 H3267 0.929 . S
C3279 C3273 1.390 1_565 S
C3279 C3276 1.386 . S
C3280 C3275 1.490 . S
C3280 C3282 1.395 . S
C3280 C3283 1.403 . S
H3281 C3287 0.930 . S
C3282 H3268 0.930 . S
C3282 C3280 1.395 . S
C3282 C3285 1.403 . S
C3283 C3280 1.403 . S
C3283 C3284 1.524 . S
C3283 C3287 1.400 . S
C3284 H3269 0.960 . S
C3284 H3270 0.960 . S
C3284 H3271 0.960 . S
C3284 C3283 1.524 . S
C3285 C3282 1.403 . S
C3285 C3286 1.392 . S
C3285 C3289 1.495 . S
C3286 C3285 1.392 . S
C3286 C3287 1.385 . S
C3286 C3288 1.478 . S
C3287 H3281 0.930 . S
C3287 C3283 1.400 . S
C3287 C3286 1.385 . S
C3288 C3286 1.478 . S
C3288 C3290 1.381 . S
C3288 C3294 1.383 . S
C3289 C3285 1.495 . S
C3289 H3295 0.959 . S
C3289 H3296 0.961 . S
C3289 H3297 0.960 . S
C3290 C3288 1.381 . S
C3290 C3291 1.394 . S
C3290 H3298 0.930 . S
C3291 C3290 1.394 . S
C3291 C3292 1.383 . S
C3291 H3299 0.929 . S
C3292 C3291 1.383 . S
C3292 C3293 1.377 . S
C3293 H3277 0.930 . S
C3293 C3292 1.377 . S
C3293 C3294 1.379 . S
C3294 H3278 0.931 . S
C3294 C3288 1.383 . S
C3294 C3293 1.379 . S
H3295 C3289 0.959 . S
H3296 C3289 0.961 . S
H3297 C3289 0.960 . S
H3298 C3290 0.930 . S
H3299 C3291 0.929 . S
H3300 C3308 0.929 . S
H3301 C3310 0.930 . S
H3302 C3312 0.930 . S
H3303 C3315 0.929 . S
H3304 C3318 0.930 . S
H3305 C3320 0.960 . S
H3306 C3320 0.960 . S
H3307 C3320 0.960 . S
C3308 H3300 0.929 . S
C3308 C3309 1.377 . S
C3308 C3310 1.384 . S
C3309 C3308 1.377 . S
C3309 C3315 1.390 . S
C3310 H3301 0.930 . S
C3310 C3308 1.384 . S
C3310 C3311 1.372 . S
C3311 C3310 1.372 . S
C3311 C3312 1.400 . S
C3311 C3316 1.490 . S
C3312 H3302 0.930 . S
C3312 C3311 1.400 . S
C3312 C3315 1.386 . S
H3313 C3329 0.930 . S
H3314 C3330 0.931 . S
C3315 H3303 0.929 . S
C3315 C3309 1.390 . S
C3315 C3312 1.386 . S
C3316 C3311 1.490 . S
C3316 C3318 1.395 . S
C3316 C3319 1.403 . S
H3317 C3323 0.930 . S
C3318 H3304 0.930 . S
C3318 C3316 1.395 . S
C3318 C3321 1.403 . S
C3319 C3316 1.403 . S
C3319 C3320 1.524 . S
C3319 C3323 1.400 . S
C3320 H3305 0.960 . S
C3320 H3306 0.960 . S
C3320 H3307 0.960 . S
C3320 C3319 1.524 . S
C3321 C3318 1.403 . S
C3321 C3322 1.392 . S
C3321 C3325 1.495 . S
C3322 C3321 1.392 . S
C3322 C3323 1.385 . S
C3322 C3324 1.478 . S
C3323 H3317 0.930 . S
C3323 C3319 1.400 . S
C3323 C3322 1.385 . S
C3324 C3322 1.478 . S
C3324 C3326 1.381 . S
C3324 C3330 1.383 . S
C3325 C3321 1.495 . S
C3325 H3331 0.959 . S
C3325 H3332 0.961 . S
C3325 H3333 0.960 . S
C3326 C3324 1.381 . S
C3326 C3327 1.394 . S
C3326 H3334 0.930 . S
C3327 C3326 1.394 . S
C3327 C3328 1.383 . S
C3327 H3335 0.929 . S
C3328 C3327 1.383 . S
C3328 C3329 1.377 . S
C3329 H3313 0.930 . S
C3329 C3328 1.377 . S
C3329 C3330 1.379 . S
C3330 H3314 0.931 . S
C3330 C3324 1.383 . S
C3330 C3329 1.379 . S
H3331 C3325 0.959 . S
H3332 C3325 0.961 . S
H3333 C3325 0.960 . S
H3334 C3326 0.930 . S
H3335 C3327 0.929 . S
H3336 C3344 0.929 . S
H3337 C3346 0.930 . S
H3338 C3348 0.930 . S
H3339 C3351 0.929 . S
H3340 C3354 0.930 . S
H3341 C3356 0.960 . S
H3342 C3356 0.960 . S
H3343 C3356 0.960 . S
C3344 H3336 0.929 . S
C3344 C3345 1.377 . S
C3344 C3346 1.384 . S
C3345 C3344 1.377 . S
C3345 C3351 1.390 . S
C3346 H3337 0.930 . S
C3346 C3344 1.384 . S
C3346 C3347 1.372 . S
C3347 C3346 1.372 . S
C3347 C3348 1.400 . S
C3347 C3352 1.490 . S
C3348 H3338 0.930 . S
C3348 C3347 1.400 . S
C3348 C3351 1.386 . S
H3349 C3365 0.930 . S
H3350 C3366 0.931 . S
C3351 H3339 0.929 . S
C3351 C3345 1.390 . S
C3351 C3348 1.386 . S
C3352 C3347 1.490 . S
C3352 C3354 1.395 . S
C3352 C3355 1.403 . S
H3353 C3359 0.930 . S
C3354 H3340 0.930 . S
C3354 C3352 1.395 . S
C3354 C3357 1.403 . S
C3355 C3352 1.403 . S
C3355 C3356 1.524 . S
C3355 C3359 1.400 . S
C3356 H3341 0.960 . S
C3356 H3342 0.960 . S
C3356 H3343 0.960 . S
C3356 C3355 1.524 . S
C3357 C3354 1.403 . S
C3357 C3358 1.392 . S
C3357 C3361 1.495 . S
C3358 C3357 1.392 . S
C3358 C3359 1.385 . S
C3358 C3360 1.478 . S
C3359 H3353 0.930 . S
C3359 C3355 1.400 . S
C3359 C3358 1.385 . S
C3360 C3358 1.478 . S
C3360 C3362 1.381 . S
C3360 C3366 1.383 . S
C3361 C3357 1.495 . S
C3361 H3367 0.959 . S
C3361 H3368 0.961 . S
C3361 H3369 0.960 . S
C3362 C3360 1.381 . S
C3362 C3363 1.394 . S
C3362 H3370 0.930 . S
C3363 C3362 1.394 . S
C3363 C3364 1.383 . S
C3363 H3371 0.929 . S
C3364 C3363 1.383 . S
C3364 C3365 1.377 . S
C3365 H3349 0.930 . S
C3365 C3364 1.377 . S
C3365 C3366 1.379 . S
C3366 H3350 0.931 . S
C3366 C3360 1.383 . S
C3366 C3365 1.379 . S
H3367 C3361 0.959 . S
H3368 C3361 0.961 . S
H3369 C3361 0.960 . S
H3370 C3362 0.930 . S
H3371 C3363 0.929 . S
H3372 C3380 0.929 . S
H3373 C3382 0.930 . S
H3374 C3384 0.930 . S
H3375 C3387 0.929 . S
H3376 C3390 0.930 . S
H3377 C3392 0.960 . S
H3378 C3392 0.960 . S
H3379 C3392 0.960 . S
C3380 H3372 0.929 . S
C3380 C3381 1.377 . S
C3380 C3382 1.384 . S
C3381 C3380 1.377 . S
C3381 C3387 1.390 . S
C3382 H3373 0.930 . S
C3382 C3380 1.384 . S
C3382 C3383 1.372 . S
C3383 C3382 1.372 . S
C3383 C3384 1.400 . S
C3383 C3388 1.490 . S
C3384 H3374 0.930 . S
C3384 C3383 1.400 . S
C3384 C3387 1.386 . S
H3385 C3401 0.930 . S
H3386 C3402 0.931 . S
C3387 H3375 0.929 . S
C3387 C3381 1.390 . S
C3387 C3384 1.386 . S
C3388 C3383 1.490 . S
C3388 C3390 1.395 . S
C3388 C3391 1.403 . S
H3389 C3395 0.930 . S
C3390 H3376 0.930 . S
C3390 C3388 1.395 . S
C3390 C3393 1.403 . S
C3391 C3388 1.403 . S
C3391 C3392 1.524 . S
C3391 C3395 1.400 . S
C3392 H3377 0.960 . S
C3392 H3378 0.960 . S
C3392 H3379 0.960 . S
C3392 C3391 1.524 . S
C3393 C3390 1.403 . S
C3393 C3394 1.392 . S
C3393 C3397 1.495 . S
C3394 C3393 1.392 . S
C3394 C3395 1.385 . S
C3394 C3396 1.478 . S
C3395 H3389 0.930 . S
C3395 C3391 1.400 . S
C3395 C3394 1.385 . S
C3396 C3394 1.478 . S
C3396 C3398 1.381 . S
C3396 C3402 1.383 . S
C3397 C3393 1.495 . S
C3397 H3403 0.959 . S
C3397 H3404 0.961 . S
C3397 H3405 0.960 . S
C3398 C3396 1.381 . S
C3398 C3399 1.394 . S
C3398 H3406 0.930 . S
C3399 C3398 1.394 . S
C3399 C3400 1.383 . S
C3399 H3407 0.929 . S
C3400 C3399 1.383 . S
C3400 C3401 1.377 . S
C3401 H3385 0.930 . S
C3401 C3400 1.377 . S
C3401 C3402 1.379 . S
C3402 H3386 0.931 . S
C3402 C3396 1.383 . S
C3402 C3401 1.379 . S
H3403 C3397 0.959 . S
H3404 C3397 0.961 . S
H3405 C3397 0.960 . S
H3406 C3398 0.930 . S
H3407 C3399 0.929 . S
H3408 C3416 0.929 . S
H3409 C3418 0.930 . S
H3410 C3420 0.930 . S
H3411 C3423 0.929 . S
H3412 C3426 0.930 . S
H3413 C3428 0.960 . S
H3414 C3428 0.960 . S
H3415 C3428 0.960 . S
C3416 H3408 0.929 . S
C3416 C3417 1.377 . S
C3416 C3418 1.384 . S
C3417 C3416 1.377 . S
C3417 C3423 1.390 . S
C3418 H3409 0.930 . S
C3418 C3416 1.384 . S
C3418 C3419 1.372 . S
C3419 C3418 1.372 . S
C3419 C3420 1.400 . S
C3419 C3424 1.490 . S
C3420 H3410 0.930 . S
C3420 C3419 1.400 . S
C3420 C3423 1.386 . S
H3421 C3437 0.930 . S
H3422 C3438 0.931 . S
C3423 H3411 0.929 . S
C3423 C3417 1.390 . S
C3423 C3420 1.386 . S
C3424 C3419 1.490 . S
C3424 C3426 1.395 . S
C3424 C3427 1.403 . S
H3425 C3431 0.930 . S
C3426 H3412 0.930 . S
C3426 C3424 1.395 . S
C3426 C3429 1.403 . S
C3427 C3424 1.403 . S
C3427 C3428 1.524 . S
C3427 C3431 1.400 . S
C3428 H3413 0.960 . S
C3428 H3414 0.960 . S
C3428 H3415 0.960 . S
C3428 C3427 1.524 . S
C3429 C3426 1.403 . S
C3429 C3430 1.392 . S
C3429 C3433 1.495 . S
C3430 C3429 1.392 . S
C3430 C3431 1.385 . S
C3430 C3432 1.478 . S
C3431 H3425 0.930 . S
C3431 C3427 1.400 . S
C3431 C3430 1.385 . S
C3432 C3430 1.478 . S
C3432 C3434 1.381 . S
C3432 C3438 1.383 . S
C3433 C3429 1.495 . S
C3433 H3439 0.959 . S
C3433 H3440 0.961 . S
C3433 H3441 0.960 . S
C3434 C3432 1.381 . S
C3434 C3435 1.394 . S
C3434 H3442 0.930 . S
C3435 C3434 1.394 . S
C3435 C3436 1.383 . S
C3435 H3443 0.929 . S
C3436 C3435 1.383 . S
C3436 C3437 1.377 . S
C3437 H3421 0.930 . S
C3437 C3436 1.377 . S
C3437 C3438 1.379 . S
C3438 H3422 0.931 . S
C3438 C3432 1.383 . S
C3438 C3437 1.379 . S
H3439 C3433 0.959 . S
H3440 C3433 0.961 . S
H3441 C3433 0.960 . S
H3442 C3434 0.930 . S
H3443 C3435 0.929 . S
H3444 C3452 0.929 . S
H3445 C3454 0.930 . S
H3446 C3456 0.930 . S
H3447 C3459 0.929 . S
H3448 C3462 0.930 . S
H3449 C3464 0.960 . S
H3450 C3464 0.960 . S
H3451 C3464 0.960 . S
C3452 H3444 0.929 . S
C3452 C3453 1.377 . S
C3452 C3454 1.384 . S
C3453 C3452 1.377 . S
C3453 C3459 1.390 . S
C3454 H3445 0.930 . S
C3454 C3452 1.384 . S
C3454 C3455 1.372 . S
C3455 C3454 1.372 . S
C3455 C3456 1.400 . S
C3455 C3460 1.490 . S
C3456 H3446 0.930 . S
C3456 C3455 1.400 . S
C3456 C3459 1.386 . S
H3457 C3473 0.930 . S
H3458 C3474 0.931 . S
C3459 H3447 0.929 . S
C3459 C3453 1.390 . S
C3459 C3456 1.386 . S
C3460 C3455 1.490 . S
C3460 C3462 1.395 . S
C3460 C3463 1.403 . S
H3461 C3467 0.930 . S
C3462 H3448 0.930 . S
C3462 C3460 1.395 . S
C3462 C3465 1.403 . S
C3463 C3460 1.403 . S
C3463 C3464 1.524 . S
C3463 C3467 1.400 . S
C3464 H3449 0.960 . S
C3464 H3450 0.960 . S
C3464 H3451 0.960 . S
C3464 C3463 1.524 . S
C3465 C3462 1.403 . S
C3465 C3466 1.392 . S
C3465 C3469 1.495 . S
C3466 C3465 1.392 . S
C3466 C3467 1.385 . S
C3466 C3468 1.478 . S
C3467 H3461 0.930 . S
C3467 C3463 1.400 . S
C3467 C3466 1.385 . S
C3468 C3466 1.478 . S
C3468 C3470 1.381 . S
C3468 C3474 1.383 . S
C3469 C3465 1.495 . S
C3469 H3475 0.959 . S
C3469 H3476 0.961 . S
C3469 H3477 0.960 . S
C3470 C3468 1.381 . S
C3470 C3471 1.394 . S
C3470 H3478 0.930 . S
C3471 C3470 1.394 . S
C3471 C3472 1.383 . S
C3471 H3479 0.929 . S
C3472 C3471 1.383 . S
C3472 C3473 1.377 . S
C3473 H3457 0.930 . S
C3473 C3472 1.377 . S
C3473 C3474 1.379 . S
C3474 H3458 0.931 . S
C3474 C3468 1.383 . S
C3474 C3473 1.379 . S
H3475 C3469 0.959 . S
H3476 C3469 0.961 . S
H3477 C3469 0.960 . S
H3478 C3470 0.930 . S
H3479 C3471 0.929 . S
H3480 C3488 0.929 . S
H3481 C3490 0.930 . S
H3482 C3492 0.930 . S
H3483 C3495 0.929 . S
H3484 C3498 0.925 1_655 S
H3485 C3500 0.960 . S
H3486 C3500 0.960 . S
H3487 C3500 0.960 . S
C3488 H3480 0.929 . S
C3488 C3489 1.377 1_655 S
C3488 C3490 1.384 . S
C3489 C3488 1.377 1_455 S
C3489 C3495 1.390 . S
C3490 H3481 0.930 . S
C3490 C3488 1.384 . S
C3490 C3491 1.372 1_655 S
C3491 C3490 1.372 1_455 S
C3491 C3492 1.400 . S
C3491 C3496 1.490 . S
C3492 H3482 0.930 . S
C3492 C3491 1.400 . S
C3492 C3495 1.386 . S
H3493 C3509 0.930 . S
H3494 C3510 0.934 . S
C3495 H3483 0.929 . S
C3495 C3489 1.390 . S
C3495 C3492 1.386 . S
C3496 C3491 1.490 . S
C3496 C3498 1.403 . S
C3496 C3499 1.403 . S
H3497 C3503 0.930 . S
C3498 H3484 0.925 1_455 S
C3498 C3496 1.403 . S
C3498 C3501 1.414 . S
C3499 C3496 1.403 . S
C3499 C3500 1.524 . S
C3499 C3503 1.400 . S
C3500 H3485 0.960 . S
C3500 H3486 0.960 . S
C3500 H3487 0.960 . S
C3500 C3499 1.524 . S
C3501 C3498 1.414 . S
C3501 C3502 1.416 . S
C3501 C3505 1.463 1_456 S
C3502 C3501 1.416 . S
C3502 C3503 1.385 . S
C3502 C3504 1.478 . S
C3503 H3497 0.930 . S
C3503 C3499 1.400 . S
C3503 C3502 1.385 . S
C3504 C3502 1.478 . S
C3504 C3506 1.381 1_455 S
C3504 C3510 1.383 . S
C3505 C3501 1.463 1_654 S
C3505 H3511 0.959 . S
C3505 H3512 0.961 1_655 S
C3505 H3513 0.960 . S
C3506 C3504 1.381 1_655 S
C3506 C3507 1.394 . S
C3506 H3514 0.930 . S
C3507 C3506 1.394 . S
C3507 C3508 1.383 1_656 S
C3507 H3515 0.929 . S
C3508 C3507 1.383 1_454 S
C3508 C3509 1.377 . S
C3509 H3493 0.930 . S
C3509 C3508 1.377 . S
C3509 C3510 1.379 1_554 S
C3510 H3494 0.934 . S
C3510 C3504 1.383 . S
C3510 C3509 1.379 1_556 S
H3511 C3505 0.959 . S
H3512 C3505 0.961 1_455 S
H3513 C3505 0.960 . S
H3514 C3506 0.930 . S
H3515 C3507 0.929 . S
H3516 C3524 0.929 1_455 S
H3517 C3526 0.930 . S
H3518 C3528 0.930 . S
H3519 C3531 0.929 . S
H3520 C3534 0.930 . S
H3521 C3536 0.960 . S
H3522 C3536 0.960 . S
H3523 C3536 0.960 . S
C3524 H3516 0.929 1_655 S
C3524 C3525 1.377 1_655 S
C3524 C3526 1.384 . S
C3525 C3524 1.377 1_455 S
C3525 C3531 1.390 1_455 S
C3526 H3517 0.930 . S
C3526 C3524 1.384 . S
C3526 C3527 1.372 . S
C3527 C3526 1.372 . S
C3527 C3528 1.400 . S
C3527 C3532 1.490 . S
C3528 H3518 0.930 . S
C3528 C3527 1.400 . S
C3528 C3531 1.386 . S
H3529 C3545 0.930 . S
H3530 C3546 0.931 . S
C3531 H3519 0.929 . S
C3531 C3525 1.390 1_655 S
C3531 C3528 1.386 . S
C3532 C3527 1.490 . S
C3532 C3534 1.395 . S
C3532 C3535 1.403 . S
H3533 C3539 0.930 . S
C3534 H3520 0.930 . S
C3534 C3532 1.395 . S
C3534 C3537 1.403 . S
C3535 C3532 1.403 . S
C3535 C3536 1.524 . S
C3535 C3539 1.400 . S
C3536 H3521 0.960 . S
C3536 H3522 0.960 . S
C3536 H3523 0.960 . S
C3536 C3535 1.524 . S
C3537 C3534 1.403 . S
C3537 C3538 1.392 . S
C3537 C3541 1.495 . S
C3538 C3537 1.392 . S
C3538 C3539 1.385 . S
C3538 C3540 1.478 . S
C3539 H3533 0.930 . S
C3539 C3535 1.400 . S
C3539 C3538 1.385 . S
C3540 C3538 1.478 . S
C3540 C3542 1.381 . S
C3540 C3546 1.383 . S
C3541 C3537 1.495 . S
C3541 H3547 0.959 . S
C3541 H3548 0.961 . S
C3541 H3549 0.960 . S
C3542 C3540 1.381 . S
C3542 C3543 1.394 . S
C3542 H3550 0.930 . S
C3543 C3542 1.394 . S
C3543 C3544 1.383 . S
C3543 H3551 0.929 . S
C3544 C3543 1.383 . S
C3544 C3545 1.377 . S
C3545 H3529 0.930 . S
C3545 C3544 1.377 . S
C3545 C3546 1.379 . S
C3546 H3530 0.931 . S
C3546 C3540 1.383 . S
C3546 C3545 1.379 . S
H3547 C3541 0.959 . S
H3548 C3541 0.961 . S
H3549 C3541 0.960 . S
H3550 C3542 0.930 . S
H3551 C3543 0.929 . S
H3552 C3560 0.929 . S
H3553 C3562 0.930 . S
H3554 C3564 0.930 . S
H3555 C3567 0.929 . S
H3556 C3570 0.930 . S
H3557 C3572 0.960 . S
H3558 C3572 0.960 . S
H3559 C3572 0.960 . S
C3560 H3552 0.929 . S
C3560 C3561 1.377 . S
C3560 C3562 1.384 . S
C3561 C3560 1.377 . S
C3561 C3567 1.390 . S
C3562 H3553 0.930 . S
C3562 C3560 1.384 . S
C3562 C3563 1.372 . S
C3563 C3562 1.372 . S
C3563 C3564 1.400 . S
C3563 C3568 1.490 . S
C3564 H3554 0.930 . S
C3564 C3563 1.400 . S
C3564 C3567 1.386 . S
H3565 C3581 0.930 . S
H3566 C3582 0.931 . S
C3567 H3555 0.929 . S
C3567 C3561 1.390 . S
C3567 C3564 1.386 . S
C3568 C3563 1.490 . S
C3568 C3570 1.395 . S
C3568 C3571 1.403 . S
H3569 C3575 0.930 . S
C3570 H3556 0.930 . S
C3570 C3568 1.395 . S
C3570 C3573 1.403 . S
C3571 C3568 1.403 . S
C3571 C3572 1.524 . S
C3571 C3575 1.400 . S
C3572 H3557 0.960 . S
C3572 H3558 0.960 . S
C3572 H3559 0.960 . S
C3572 C3571 1.524 . S
C3573 C3570 1.403 . S
C3573 C3574 1.392 . S
C3573 C3577 1.495 . S
C3574 C3573 1.392 . S
C3574 C3575 1.385 . S
C3574 C3576 1.478 . S
C3575 H3569 0.930 . S
C3575 C3571 1.400 . S
C3575 C3574 1.385 . S
C3576 C3574 1.478 . S
C3576 C3578 1.381 . S
C3576 C3582 1.383 . S
C3577 C3573 1.495 . S
C3577 H3583 0.959 . S
C3577 H3584 0.961 . S
C3577 H3585 0.960 . S
C3578 C3576 1.381 . S
C3578 C3579 1.394 . S
C3578 H3586 0.930 . S
C3579 C3578 1.394 . S
C3579 C3580 1.383 . S
C3579 H3587 0.929 . S
C3580 C3579 1.383 . S
C3580 C3581 1.377 . S
C3581 H3565 0.930 . S
C3581 C3580 1.377 . S
C3581 C3582 1.379 . S
C3582 H3566 0.931 . S
C3582 C3576 1.383 . S
C3582 C3581 1.379 . S
H3583 C3577 0.959 . S
H3584 C3577 0.961 . S
H3585 C3577 0.960 . S
H3586 C3578 0.930 . S
H3587 C3579 0.929 . S
H3588 C3596 0.929 . S
H3589 C3598 0.930 . S
H3590 C3600 0.930 . S
H3591 C3603 0.929 . S
H3592 C3606 0.930 . S
H3593 C3608 0.960 . S
H3594 C3608 0.960 . S
H3595 C3608 0.960 . S
C3596 H3588 0.929 . S
C3596 C3597 1.377 . S
C3596 C3598 1.384 . S
C3597 C3596 1.377 . S
C3597 C3603 1.390 . S
C3598 H3589 0.930 . S
C3598 C3596 1.384 . S
C3598 C3599 1.372 . S
C3599 C3598 1.372 . S
C3599 C3600 1.400 . S
C3599 C3604 1.490 . S
C3600 H3590 0.930 . S
C3600 C3599 1.400 . S
C3600 C3603 1.386 . S
H3601 C3617 0.930 . S
H3602 C3618 0.931 . S
C3603 H3591 0.929 . S
C3603 C3597 1.390 . S
C3603 C3600 1.386 . S
C3604 C3599 1.490 . S
C3604 C3606 1.395 . S
C3604 C3607 1.403 . S
H3605 C3611 0.930 . S
C3606 H3592 0.930 . S
C3606 C3604 1.395 . S
C3606 C3609 1.403 . S
C3607 C3604 1.403 . S
C3607 C3608 1.524 . S
C3607 C3611 1.400 . S
C3608 H3593 0.960 . S
C3608 H3594 0.960 . S
C3608 H3595 0.960 . S
C3608 C3607 1.524 . S
C3609 C3606 1.403 . S
C3609 C3610 1.392 . S
C3609 C3613 1.495 . S
C3610 C3609 1.392 . S
C3610 C3611 1.385 . S
C3610 C3612 1.478 . S
C3611 H3605 0.930 . S
C3611 C3607 1.400 . S
C3611 C3610 1.385 . S
C3612 C3610 1.478 . S
C3612 C3614 1.381 . S
C3612 C3618 1.383 . S
C3613 C3609 1.495 . S
C3613 H3619 0.959 . S
C3613 H3620 0.961 . S
C3613 H3621 0.960 . S
C3614 C3612 1.381 . S
C3614 C3615 1.394 . S
C3614 H3622 0.930 . S
C3615 C3614 1.394 . S
C3615 C3616 1.383 . S
C3615 H3623 0.929 . S
C3616 C3615 1.383 . S
C3616 C3617 1.377 . S
C3617 H3601 0.930 . S
C3617 C3616 1.377 . S
C3617 C3618 1.379 . S
C3618 H3602 0.931 . S
C3618 C3612 1.383 . S
C3618 C3617 1.379 . S
H3619 C3613 0.959 . S
H3620 C3613 0.961 . S
H3621 C3613 0.960 . S
H3622 C3614 0.930 . S
H3623 C3615 0.929 . S
H3624 C3632 0.929 . S
H3625 C3634 0.930 . S
H3626 C3636 0.930 . S
H3627 C3639 0.929 . S
H3628 C3642 0.930 . S
H3629 C3644 0.960 . S
H3630 C3644 0.960 . S
H3631 C3644 0.960 . S
C3632 H3624 0.929 . S
C3632 C3633 1.377 . S
C3632 C3634 1.384 . S
C3633 C3632 1.377 . S
C3633 C3639 1.390 . S
C3634 H3625 0.930 . S
C3634 C3632 1.384 . S
C3634 C3635 1.372 . S
C3635 C3634 1.372 . S
C3635 C3636 1.400 . S
C3635 C3640 1.490 . S
C3636 H3626 0.930 . S
C3636 C3635 1.400 . S
C3636 C3639 1.386 . S
H3637 C3653 0.930 . S
H3638 C3654 0.931 . S
C3639 H3627 0.929 . S
C3639 C3633 1.390 . S
C3639 C3636 1.386 . S
C3640 C3635 1.490 . S
C3640 C3642 1.395 1_455 S
C3640 C3643 1.403 . S
H3641 C3647 0.930 . S
C3642 H3628 0.930 . S
C3642 C3640 1.395 1_655 S
C3642 C3645 1.403 . S
C3643 C3640 1.403 . S
C3643 C3644 1.524 . S
C3643 C3647 1.400 . S
C3644 H3629 0.960 . S
C3644 H3630 0.960 . S
C3644 H3631 0.960 . S
C3644 C3643 1.524 . S
C3645 C3642 1.403 . S
C3645 C3646 1.392 1_655 S
C3645 C3649 1.495 . S
C3646 C3645 1.392 1_455 S
C3646 C3647 1.385 . S
C3646 C3648 1.478 . S
C3647 H3641 0.930 . S
C3647 C3643 1.400 . S
C3647 C3646 1.385 . S
C3648 C3646 1.478 . S
C3648 C3650 1.381 . S
C3648 C3654 1.383 . S
C3649 C3645 1.495 . S
C3649 H3655 0.959 . S
C3649 H3656 0.961 . S
C3649 H3657 0.960 . S
C3650 C3648 1.381 . S
C3650 C3651 1.394 . S
C3650 H3658 0.930 . S
C3651 C3650 1.394 . S
C3651 C3652 1.383 . S
C3651 H3659 0.929 . S
C3652 C3651 1.383 . S
C3652 C3653 1.377 . S
C3653 H3637 0.930 . S
C3653 C3652 1.377 . S
C3653 C3654 1.379 . S
C3654 H3638 0.931 . S
C3654 C3648 1.383 . S
C3654 C3653 1.379 . S
H3655 C3649 0.959 . S
H3656 C3649 0.961 . S
H3657 C3649 0.960 . S
H3658 C3650 0.930 . S
H3659 C3651 0.929 . S
H3660 C3668 0.929 . S
H3661 C3670 0.930 . S
H3662 C3672 0.930 . S
H3663 C3675 0.929 . S
H3664 C3678 0.930 . S
H3665 C3680 0.960 . S
H3666 C3680 0.960 . S
H3667 C3680 0.960 . S
C3668 H3660 0.929 . S
C3668 C3669 1.377 . S
C3668 C3670 1.384 . S
C3669 C3668 1.377 . S
C3669 C3675 1.390 . S
C3670 H3661 0.930 . S
C3670 C3668 1.384 . S
C3670 C3671 1.372 . S
C3671 C3670 1.372 . S
C3671 C3672 1.400 . S
C3671 C3676 1.490 . S
C3672 H3662 0.930 . S
C3672 C3671 1.400 . S
C3672 C3675 1.386 . S
H3673 C3689 0.930 . S
H3674 C3690 0.931 . S
C3675 H3663 0.929 . S
C3675 C3669 1.390 . S
C3675 C3672 1.386 . S
C3676 C3671 1.490 . S
C3676 C3678 1.395 . S
C3676 C3679 1.403 . S
H3677 C3683 0.930 . S
C3678 H3664 0.930 . S
C3678 C3676 1.395 . S
C3678 C3681 1.403 . S
C3679 C3676 1.403 . S
C3679 C3680 1.524 . S
C3679 C3683 1.400 . S
C3680 H3665 0.960 . S
C3680 H3666 0.960 . S
C3680 H3667 0.960 . S
C3680 C3679 1.524 . S
C3681 C3678 1.403 . S
C3681 C3682 1.392 . S
C3681 C3685 1.495 . S
C3682 C3681 1.392 . S
C3682 C3683 1.385 . S
C3682 C3684 1.478 . S
C3683 H3677 0.930 . S
C3683 C3679 1.400 . S
C3683 C3682 1.385 . S
C3684 C3682 1.478 . S
C3684 C3686 1.381 . S
C3684 C3690 1.383 . S
C3685 C3681 1.495 . S
C3685 H3691 0.959 . S
C3685 H3692 0.961 . S
C3685 H3693 0.960 . S
C3686 C3684 1.381 . S
C3686 C3687 1.394 . S
C3686 H3694 0.930 . S
C3687 C3686 1.394 . S
C3687 C3688 1.383 . S
C3687 H3695 0.929 . S
C3688 C3687 1.383 . S
C3688 C3689 1.377 . S
C3689 H3673 0.930 . S
C3689 C3688 1.377 . S
C3689 C3690 1.379 . S
C3690 H3674 0.931 . S
C3690 C3684 1.383 . S
C3690 C3689 1.379 . S
H3691 C3685 0.959 . S
H3692 C3685 0.961 . S
H3693 C3685 0.960 . S
H3694 C3686 0.930 . S
H3695 C3687 0.929 . S
H3696 C3704 0.929 . S
H3697 C3706 0.930 . S
H3698 C3708 0.930 . S
H3699 C3711 0.929 . S
H3700 C3714 0.930 . S
H3701 C3716 0.960 . S
H3702 C3716 0.960 . S
H3703 C3716 0.960 . S
C3704 H3696 0.929 . S
C3704 C3705 1.377 . S
C3704 C3706 1.384 . S
C3705 C3704 1.377 . S
C3705 C3711 1.390 . S
C3706 H3697 0.930 . S
C3706 C3704 1.384 . S
C3706 C3707 1.372 . S
C3707 C3706 1.372 . S
C3707 C3708 1.400 . S
C3707 C3712 1.490 . S
C3708 H3698 0.930 . S
C3708 C3707 1.400 . S
C3708 C3711 1.386 . S
H3709 C3725 0.930 . S
H3710 C3726 0.931 . S
C3711 H3699 0.929 . S
C3711 C3705 1.390 . S
C3711 C3708 1.386 . S
C3712 C3707 1.490 . S
C3712 C3714 1.395 . S
C3712 C3715 1.403 . S
H3713 C3719 0.930 . S
C3714 H3700 0.930 . S
C3714 C3712 1.395 . S
C3714 C3717 1.403 . S
C3715 C3712 1.403 . S
C3715 C3716 1.524 . S
C3715 C3719 1.400 . S
C3716 H3701 0.960 . S
C3716 H3702 0.960 . S
C3716 H3703 0.960 . S
C3716 C3715 1.524 . S
C3717 C3714 1.403 . S
C3717 C3718 1.392 . S
C3717 C3721 1.495 . S
C3718 C3717 1.392 . S
C3718 C3719 1.385 . S
C3718 C3720 1.478 . S
C3719 H3713 0.930 . S
C3719 C3715 1.400 . S
C3719 C3718 1.385 . S
C3720 C3718 1.478 . S
C3720 C3722 1.381 . S
C3720 C3726 1.383 . S
C3721 C3717 1.495 . S
C3721 H3727 0.959 . S
C3721 H3728 0.961 . S
C3721 H3729 0.960 . S
C3722 C3720 1.381 . S
C3722 C3723 1.394 . S
C3722 H3730 0.930 . S
C3723 C3722 1.394 . S
C3723 C3724 1.383 . S
C3723 H3731 0.929 . S
C3724 C3723 1.383 . S
C3724 C3725 1.377 . S
C3725 H3709 0.930 . S
C3725 C3724 1.377 . S
C3725 C3726 1.379 . S
C3726 H3710 0.931 . S
C3726 C3720 1.383 . S
C3726 C3725 1.379 . S
H3727 C3721 0.959 . S
H3728 C3721 0.961 . S
H3729 C3721 0.960 . S
H3730 C3722 0.930 . S
H3731 C3723 0.929 . S
H3732 C3740 0.928 . S
H3733 C3742 0.930 . S
H3734 C3744 0.930 . S
H3735 C3747 0.929 . S
H3736 C3750 0.930 . S
H3737 C3752 0.960 . S
H3738 C3752 0.960 . S
H3739 C3752 0.960 . S
C3740 H3732 0.928 . S
C3740 C3741 1.375 . S
C3740 C3742 1.385 1_554 S
C3741 C3740 1.375 . S
C3741 C3747 1.371 1_554 S
C3742 H3733 0.930 . S
C3742 C3740 1.385 1_556 S
C3742 C3743 1.372 . S
C3743 C3742 1.372 . S
C3743 C3744 1.400 . S
C3743 C3748 1.490 . S
C3744 H3734 0.930 . S
C3744 C3743 1.400 . S
C3744 C3747 1.386 . S
H3745 C3761 0.930 . S
H3746 C3762 0.931 . S
C3747 H3735 0.929 . S
C3747 C3741 1.371 1_556 S
C3747 C3744 1.386 . S
C3748 C3743 1.490 . S
C3748 C3750 1.395 . S
C3748 C3751 1.403 . S
H3749 C3755 0.930 . S
C3750 H3736 0.930 . S
C3750 C3748 1.395 . S
C3750 C3753 1.403 . S
C3751 C3748 1.403 . S
C3751 C3752 1.524 . S
C3751 C3755 1.400 . S
C3752 H3737 0.960 . S
C3752 H3738 0.960 . S
C3752 H3739 0.960 . S
C3752 C3751 1.524 . S
C3753 C3750 1.403 . S
C3753 C3754 1.392 . S
C3753 C3757 1.495 . S
C3754 C3753 1.392 . S
C3754 C3755 1.385 . S
C3754 C3756 1.478 . S
C3755 H3749 0.930 . S
C3755 C3751 1.400 . S
C3755 C3754 1.385 . S
C3756 C3754 1.478 . S
C3756 C3758 1.381 . S
C3756 C3762 1.383 . S
C3757 C3753 1.495 . S
C3757 H3763 0.959 . S
C3757 H3764 0.961 . S
C3757 H3765 0.960 . S
C3758 C3756 1.381 . S
C3758 C3759 1.394 . S
C3758 H3766 0.930 . S
C3759 C3758 1.394 . S
C3759 C3760 1.383 . S
C3759 H3767 0.929 . S
C3760 C3759 1.383 . S
C3760 C3761 1.377 . S
C3761 H3745 0.930 . S
C3761 C3760 1.377 . S
C3761 C3762 1.379 . S
C3762 H3746 0.931 . S
C3762 C3756 1.383 . S
C3762 C3761 1.379 . S
H3763 C3757 0.959 . S
H3764 C3757 0.961 . S
H3765 C3757 0.960 . S
H3766 C3758 0.930 . S
H3767 C3759 0.929 . S
H3768 C3776 0.929 . S
H3769 C3778 0.930 . S
H3770 C3780 0.930 . S
H3771 C3783 0.929 . S
H3772 C3786 0.930 . S
H3773 C3788 0.960 . S
H3774 C3788 0.960 . S
H3775 C3788 0.960 . S
C3776 H3768 0.929 . S
C3776 C3777 1.377 . S
C3776 C3778 1.384 . S
C3777 C3776 1.377 . S
C3777 C3783 1.390 . S
C3778 H3769 0.930 . S
C3778 C3776 1.384 . S
C3778 C3779 1.372 . S
C3779 C3778 1.372 . S
C3779 C3780 1.400 . S
C3779 C3784 1.490 . S
C3780 H3770 0.930 . S
C3780 C3779 1.400 . S
C3780 C3783 1.386 . S
H3781 C3797 0.930 . S
H3782 C3798 0.931 . S
C3783 H3771 0.929 . S
C3783 C3777 1.390 . S
C3783 C3780 1.386 . S
C3784 C3779 1.490 . S
C3784 C3786 1.395 . S
C3784 C3787 1.403 . S
H3785 C3791 0.930 . S
C3786 H3772 0.930 . S
C3786 C3784 1.395 . S
C3786 C3789 1.403 . S
C3787 C3784 1.403 . S
C3787 C3788 1.524 . S
C3787 C3791 1.400 . S
C3788 H3773 0.960 . S
C3788 H3774 0.960 . S
C3788 H3775 0.960 . S
C3788 C3787 1.524 . S
C3789 C3786 1.403 . S
C3789 C3790 1.392 . S
C3789 C3793 1.495 . S
C3790 C3789 1.392 . S
C3790 C3791 1.385 . S
C3790 C3792 1.478 . S
C3791 H3785 0.930 . S
C3791 C3787 1.400 . S
C3791 C3790 1.385 . S
C3792 C3790 1.478 . S
C3792 C3794 1.381 . S
C3792 C3798 1.383 . S
C3793 C3789 1.495 . S
C3793 H3799 0.959 . S
C3793 H3800 0.961 . S
C3793 H3801 0.960 . S
C3794 C3792 1.381 . S
C3794 C3795 1.394 . S
C3794 H3802 0.930 . S
C3795 C3794 1.394 . S
C3795 C3796 1.383 . S
C3795 H3803 0.929 . S
C3796 C3795 1.383 . S
C3796 C3797 1.377 . S
C3797 H3781 0.930 . S
C3797 C3796 1.377 . S
C3797 C3798 1.379 . S
C3798 H3782 0.931 . S
C3798 C3792 1.383 . S
C3798 C3797 1.379 . S
H3799 C3793 0.959 . S
H3800 C3793 0.961 . S
H3801 C3793 0.960 . S
H3802 C3794 0.930 . S
H3803 C3795 0.929 . S
H3804 C3812 0.929 . S
H3805 C3814 0.930 . S
H3806 C3816 0.930 . S
H3807 C3819 0.929 . S
H3808 C3822 0.930 . S
H3809 C3824 0.960 . S
H3810 C3824 0.960 . S
H3811 C3824 0.960 . S
C3812 H3804 0.929 . S
C3812 C3813 1.377 . S
C3812 C3814 1.384 . S
C3813 C3812 1.377 . S
C3813 C3819 1.390 . S
C3814 H3805 0.930 . S
C3814 C3812 1.384 . S
C3814 C3815 1.372 . S
C3815 C3814 1.372 . S
C3815 C3816 1.400 . S
C3815 C3820 1.490 . S
C3816 H3806 0.930 . S
C3816 C3815 1.400 . S
C3816 C3819 1.386 . S
H3817 C3833 0.930 . S
H3818 C3834 0.931 . S
C3819 H3807 0.929 . S
C3819 C3813 1.390 . S
C3819 C3816 1.386 . S
C3820 C3815 1.490 . S
C3820 C3822 1.395 . S
C3820 C3823 1.403 . S
H3821 C3827 0.930 . S
C3822 H3808 0.930 . S
C3822 C3820 1.395 . S
C3822 C3825 1.403 . S
C3823 C3820 1.403 . S
C3823 C3824 1.524 . S
C3823 C3827 1.400 . S
C3824 H3809 0.960 . S
C3824 H3810 0.960 . S
C3824 H3811 0.960 . S
C3824 C3823 1.524 . S
C3825 C3822 1.403 . S
C3825 C3826 1.392 . S
C3825 C3829 1.495 . S
C3826 C3825 1.392 . S
C3826 C3827 1.385 . S
C3826 C3828 1.478 . S
C3827 H3821 0.930 . S
C3827 C3823 1.400 . S
C3827 C3826 1.385 . S
C3828 C3826 1.478 . S
C3828 C3830 1.381 . S
C3828 C3834 1.383 . S
C3829 C3825 1.495 . S
C3829 H3835 0.959 . S
C3829 H3836 0.961 . S
C3829 H3837 0.960 . S
C3830 C3828 1.381 . S
C3830 C3831 1.394 . S
C3830 H3838 0.930 . S
C3831 C3830 1.394 . S
C3831 C3832 1.383 . S
C3831 H3839 0.929 . S
C3832 C3831 1.383 . S
C3832 C3833 1.377 . S
C3833 H3817 0.930 . S
C3833 C3832 1.377 . S
C3833 C3834 1.379 . S
C3834 H3818 0.931 . S
C3834 C3828 1.383 . S
C3834 C3833 1.379 . S
H3835 C3829 0.959 . S
H3836 C3829 0.961 . S
H3837 C3829 0.960 . S
H3838 C3830 0.930 . S
H3839 C3831 0.929 . S
H3840 C3848 0.929 . S
H3841 C3850 0.930 . S
H3842 C3852 0.930 . S
H3843 C3855 0.929 . S
H3844 C3858 0.930 . S
H3845 C3860 0.960 . S
H3846 C3860 0.960 . S
H3847 C3860 0.960 . S
C3848 H3840 0.929 . S
C3848 C3849 1.377 . S
C3848 C3850 1.384 . S
C3849 C3848 1.377 . S
C3849 C3855 1.390 . S
C3850 H3841 0.930 . S
C3850 C3848 1.384 . S
C3850 C3851 1.372 . S
C3851 C3850 1.372 . S
C3851 C3852 1.400 . S
C3851 C3856 1.490 . S
C3852 H3842 0.930 . S
C3852 C3851 1.400 . S
C3852 C3855 1.386 . S
H3853 C3869 0.930 . S
H3854 C3870 0.931 . S
C3855 H3843 0.929 . S
C3855 C3849 1.390 . S
C3855 C3852 1.386 . S
C3856 C3851 1.490 . S
C3856 C3858 1.395 . S
C3856 C3859 1.403 . S
H3857 C3863 0.930 . S
C3858 H3844 0.930 . S
C3858 C3856 1.395 . S
C3858 C3861 1.403 . S
C3859 C3856 1.403 . S
C3859 C3860 1.524 . S
C3859 C3863 1.400 . S
C3860 H3845 0.960 . S
C3860 H3846 0.960 . S
C3860 H3847 0.960 . S
C3860 C3859 1.524 . S
C3861 C3858 1.403 . S
C3861 C3862 1.392 . S
C3861 C3865 1.495 . S
C3862 C3861 1.392 . S
C3862 C3863 1.385 . S
C3862 C3864 1.478 . S
C3863 H3857 0.930 . S
C3863 C3859 1.400 . S
C3863 C3862 1.385 . S
C3864 C3862 1.478 . S
C3864 C3866 1.381 . S
C3864 C3870 1.383 . S
C3865 C3861 1.495 . S
C3865 H3871 0.959 . S
C3865 H3872 0.961 . S
C3865 H3873 0.960 . S
C3866 C3864 1.381 . S
C3866 C3867 1.394 . S
C3866 H3874 0.930 . S
C3867 C3866 1.394 . S
C3867 C3868 1.383 . S
C3867 H3875 0.929 . S
C3868 C3867 1.383 . S
C3868 C3869 1.377 . S
C3869 H3853 0.930 . S
C3869 C3868 1.377 . S
C3869 C3870 1.379 . S
C3870 H3854 0.931 . S
C3870 C3864 1.383 . S
C3870 C3869 1.379 . S
H3871 C3865 0.959 . S
H3872 C3865 0.961 . S
H3873 C3865 0.960 . S
H3874 C3866 0.930 . S
H3875 C3867 0.929 . S
H3876 C3884 0.929 . S
H3877 C3886 0.930 . S
H3878 C3888 0.930 . S
H3879 C3891 0.929 . S
H3880 C3894 0.930 . S
H3881 C3896 0.960 . S
H3882 C3896 0.960 . S
H3883 C3896 0.960 . S
C3884 H3876 0.929 . S
C3884 C3885 1.377 . S
C3884 C3886 1.384 . S
C3885 C3884 1.377 . S
C3885 C3891 1.390 . S
C3886 H3877 0.930 . S
C3886 C3884 1.384 . S
C3886 C3887 1.372 . S
C3887 C3886 1.372 . S
C3887 C3888 1.400 . S
C3887 C3892 1.490 . S
C3888 H3878 0.930 . S
C3888 C3887 1.400 . S
C3888 C3891 1.386 . S
H3889 C3905 0.930 . S
H3890 C3906 0.931 . S
C3891 H3879 0.929 . S
C3891 C3885 1.390 . S
C3891 C3888 1.386 . S
C3892 C3887 1.490 . S
C3892 C3894 1.395 . S
C3892 C3895 1.403 . S
H3893 C3899 0.930 . S
C3894 H3880 0.930 . S
C3894 C3892 1.395 . S
C3894 C3897 1.403 . S
C3895 C3892 1.403 . S
C3895 C3896 1.524 . S
C3895 C3899 1.400 . S
C3896 H3881 0.960 . S
C3896 H3882 0.960 . S
C3896 H3883 0.960 . S
C3896 C3895 1.524 . S
C3897 C3894 1.403 . S
C3897 C3898 1.392 . S
C3897 C3901 1.495 . S
C3898 C3897 1.392 . S
C3898 C3899 1.385 . S
C3898 C3900 1.478 . S
C3899 H3893 0.930 . S
C3899 C3895 1.400 . S
C3899 C3898 1.385 . S
C3900 C3898 1.478 . S
C3900 C3902 1.381 . S
C3900 C3906 1.383 . S
C3901 C3897 1.495 . S
C3901 H3907 0.959 . S
C3901 H3908 0.961 . S
C3901 H3909 0.960 . S
C3902 C3900 1.381 . S
C3902 C3903 1.394 . S
C3902 H3910 0.930 . S
C3903 C3902 1.394 . S
C3903 C3904 1.383 . S
C3903 H3911 0.929 . S
C3904 C3903 1.383 . S
C3904 C3905 1.377 . S
C3905 H3889 0.930 . S
C3905 C3904 1.377 . S
C3905 C3906 1.379 . S
C3906 H3890 0.931 . S
C3906 C3900 1.383 . S
C3906 C3905 1.379 . S
H3907 C3901 0.959 . S
H3908 C3901 0.961 . S
H3909 C3901 0.960 . S
H3910 C3902 0.930 . S
H3911 C3903 0.929 . S
H3912 C3920 0.929 . S
H3913 C3922 0.930 . S
H3914 C3924 0.930 . S
H3915 C3927 0.929 . S
H3916 C3930 0.930 . S
H3917 C3932 0.960 . S
H3918 C3932 0.960 . S
H3919 C3932 0.960 . S
C3920 H3912 0.929 . S
C3920 C3921 1.377 . S
C3920 C3922 1.384 . S
C3921 C3920 1.377 . S
C3921 C3927 1.390 . S
C3922 H3913 0.930 . S
C3922 C3920 1.384 . S
C3922 C3923 1.372 . S
C3923 C3922 1.372 . S
C3923 C3924 1.400 . S
C3923 C3928 1.490 . S
C3924 H3914 0.930 . S
C3924 C3923 1.400 . S
C3924 C3927 1.386 . S
H3925 C3941 0.930 . S
H3926 C3942 0.931 . S
C3927 H3915 0.929 . S
C3927 C3921 1.390 . S
C3927 C3924 1.386 . S
C3928 C3923 1.490 . S
C3928 C3930 1.395 . S
C3928 C3931 1.403 . S
H3929 C3935 0.930 . S
C3930 H3916 0.930 . S
C3930 C3928 1.395 . S
C3930 C3933 1.403 . S
C3931 C3928 1.403 . S
C3931 C3932 1.524 . S
C3931 C3935 1.400 . S
C3932 H3917 0.960 . S
C3932 H3918 0.960 . S
C3932 H3919 0.960 . S
C3932 C3931 1.524 . S
C3933 C3930 1.403 . S
C3933 C3934 1.392 . S
C3933 C3937 1.495 . S
C3934 C3933 1.392 . S
C3934 C3935 1.385 . S
C3934 C3936 1.478 . S
C3935 H3929 0.930 . S
C3935 C3931 1.400 . S
C3935 C3934 1.385 . S
C3936 C3934 1.478 . S
C3936 C3938 1.381 . S
C3936 C3942 1.383 . S
C3937 C3933 1.495 . S
C3937 H3943 0.959 . S
C3937 H3944 0.961 . S
C3937 H3945 0.960 . S
C3938 C3936 1.381 . S
C3938 C3939 1.394 . S
C3938 H3946 0.930 . S
C3939 C3938 1.394 . S
C3939 C3940 1.383 . S
C3939 H3947 0.929 . S
C3940 C3939 1.383 . S
C3940 C3941 1.377 . S
C3941 H3925 0.930 . S
C3941 C3940 1.377 . S
C3941 C3942 1.379 . S
C3942 H3926 0.931 . S
C3942 C3936 1.383 . S
C3942 C3941 1.379 . S
H3943 C3937 0.959 . S
H3944 C3937 0.961 . S
H3945 C3937 0.960 . S
H3946 C3938 0.930 . S
H3947 C3939 0.929 . S
H3948 C3956 0.929 . S
H3949 C3958 0.930 . S
H3950 C3960 0.930 . S
H3951 C3963 0.929 . S
H3952 C3966 0.930 . S
H3953 C3968 0.960 . S
H3954 C3968 0.960 . S
H3955 C3968 0.960 . S
C3956 H3948 0.929 . S
C3956 C3957 1.377 . S
C3956 C3958 1.384 . S
C3957 C3956 1.377 . S
C3957 C3963 1.390 . S
C3958 H3949 0.930 . S
C3958 C3956 1.384 . S
C3958 C3959 1.372 . S
C3959 C3958 1.372 . S
C3959 C3960 1.400 . S
C3959 C3964 1.490 . S
C3960 H3950 0.930 . S
C3960 C3959 1.400 . S
C3960 C3963 1.386 . S
H3961 C3977 0.930 . S
H3962 C3978 0.931 . S
C3963 H3951 0.929 . S
C3963 C3957 1.390 . S
C3963 C3960 1.386 . S
C3964 C3959 1.490 . S
C3964 C3966 1.395 . S
C3964 C3967 1.403 . S
H3965 C3971 0.930 . S
C3966 H3952 0.930 . S
C3966 C3964 1.395 . S
C3966 C3969 1.403 . S
C3967 C3964 1.403 . S
C3967 C3968 1.524 . S
C3967 C3971 1.400 . S
C3968 H3953 0.960 . S
C3968 H3954 0.960 . S
C3968 H3955 0.960 . S
C3968 C3967 1.524 . S
C3969 C3966 1.403 . S
C3969 C3970 1.392 . S
C3969 C3973 1.495 . S
C3970 C3969 1.392 . S
C3970 C3971 1.385 . S
C3970 C3972 1.478 . S
C3971 H3965 0.930 . S
C3971 C3967 1.400 . S
C3971 C3970 1.385 . S
C3972 C3970 1.478 . S
C3972 C3974 1.381 . S
C3972 C3978 1.383 . S
C3973 C3969 1.495 . S
C3973 H3979 0.959 . S
C3973 H3980 0.961 . S
C3973 H3981 0.960 . S
C3974 C3972 1.381 . S
C3974 C3975 1.394 . S
C3974 H3982 0.930 . S
C3975 C3974 1.394 . S
C3975 C3976 1.383 . S
C3975 H3983 0.929 . S
C3976 C3975 1.383 . S
C3976 C3977 1.377 . S
C3977 H3961 0.930 . S
C3977 C3976 1.377 . S
C3977 C3978 1.379 . S
C3978 H3962 0.931 . S
C3978 C3972 1.383 . S
C3978 C3977 1.379 . S
H3979 C3973 0.959 . S
H3980 C3973 0.961 . S
H3981 C3973 0.960 . S
H3982 C3974 0.930 . S
H3983 C3975 0.929 . S
H3984 C3992 0.929 . S
H3985 C3994 0.930 . S
H3986 C3996 0.930 . S
H3987 C3999 0.929 . S
H3988 C4002 0.930 . S
H3989 C4004 0.960 . S
H3990 C4004 0.960 . S
H3991 C4004 0.960 . S
C3992 H3984 0.929 . S
C3992 C3993 1.377 . S
C3992 C3994 1.384 . S
C3993 C3992 1.377 . S
C3993 C3999 1.390 . S
C3994 H3985 0.930 . S
C3994 C3992 1.384 . S
C3994 C3995 1.372 . S
C3995 C3994 1.372 . S
C3995 C3996 1.400 . S
C3995 C4000 1.490 . S
C3996 H3986 0.930 . S
C3996 C3995 1.400 . S
C3996 C3999 1.386 . S
H3997 C4013 0.930 . S
H3998 C4014 0.931 . S
C3999 H3987 0.929 . S
C3999 C3993 1.390 . S
C3999 C3996 1.386 . S
C4000 C3995 1.490 . S
C4000 C4002 1.395 . S
C4000 C4003 1.403 . S
H4001 C4007 0.930 . S
C4002 H3988 0.930 . S
C4002 C4000 1.395 . S
C4002 C4005 1.403 . S
C4003 C4000 1.403 . S
C4003 C4004 1.524 . S
C4003 C4007 1.400 . S
C4004 H3989 0.960 . S
C4004 H3990 0.960 . S
C4004 H3991 0.960 . S
C4004 C4003 1.524 . S
C4005 C4002 1.403 . S
C4005 C4006 1.392 . S
C4005 C4009 1.495 . S
C4006 C4005 1.392 . S
C4006 C4007 1.385 . S
C4006 C4008 1.478 . S
C4007 H4001 0.930 . S
C4007 C4003 1.400 . S
C4007 C4006 1.385 . S
C4008 C4006 1.478 . S
C4008 C4010 1.381 . S
C4008 C4014 1.383 . S
C4009 C4005 1.495 . S
C4009 H4015 0.959 . S
C4009 H4016 0.961 . S
C4009 H4017 0.960 . S
C4010 C4008 1.381 . S
C4010 C4011 1.394 . S
C4010 H4018 0.930 . S
C4011 C4010 1.394 . S
C4011 C4012 1.383 . S
C4011 H4019 0.929 . S
C4012 C4011 1.383 . S
C4012 C4013 1.377 . S
C4013 H3997 0.930 . S
C4013 C4012 1.377 . S
C4013 C4014 1.379 . S
C4014 H3998 0.931 . S
C4014 C4008 1.383 . S
C4014 C4013 1.379 . S
H4015 C4009 0.959 . S
H4016 C4009 0.961 . S
H4017 C4009 0.960 . S
H4018 C4010 0.930 . S
H4019 C4011 0.929 . S
H4020 C4028 0.929 . S
H4021 C4030 0.930 . S
H4022 C4032 0.930 . S
H4023 C4035 0.929 . S
H4024 C4038 0.930 . S
H4025 C4040 0.960 . S
H4026 C4040 0.960 . S
H4027 C4040 0.960 . S
C4028 H4020 0.929 . S
C4028 C4029 1.377 . S
C4028 C4030 1.384 . S
C4029 C4028 1.377 . S
C4029 C4035 1.390 . S
C4030 H4021 0.930 . S
C4030 C4028 1.384 . S
C4030 C4031 1.372 . S
C4031 C4030 1.372 . S
C4031 C4032 1.400 . S
C4031 C4036 1.490 . S
C4032 H4022 0.930 . S
C4032 C4031 1.400 . S
C4032 C4035 1.386 . S
H4033 C4049 0.930 . S
H4034 C4050 0.931 . S
C4035 H4023 0.929 . S
C4035 C4029 1.390 . S
C4035 C4032 1.386 . S
C4036 C4031 1.490 . S
C4036 C4038 1.395 . S
C4036 C4039 1.403 . S
H4037 C4043 0.930 . S
C4038 H4024 0.930 . S
C4038 C4036 1.395 . S
C4038 C4041 1.403 . S
C4039 C4036 1.403 . S
C4039 C4040 1.524 . S
C4039 C4043 1.400 . S
C4040 H4025 0.960 . S
C4040 H4026 0.960 . S
C4040 H4027 0.960 . S
C4040 C4039 1.524 . S
C4041 C4038 1.403 . S
C4041 C4042 1.392 . S
C4041 C4045 1.495 . S
C4042 C4041 1.392 . S
C4042 C4043 1.385 . S
C4042 C4044 1.478 . S
C4043 H4037 0.930 . S
C4043 C4039 1.400 . S
C4043 C4042 1.385 . S
C4044 C4042 1.478 . S
C4044 C4046 1.381 . S
C4044 C4050 1.383 . S
C4045 C4041 1.495 . S
C4045 H4051 0.959 . S
C4045 H4052 0.961 . S
C4045 H4053 0.960 . S
C4046 C4044 1.381 . S
C4046 C4047 1.394 . S
C4046 H4054 0.930 . S
C4047 C4046 1.394 . S
C4047 C4048 1.383 . S
C4047 H4055 0.929 . S
C4048 C4047 1.383 . S
C4048 C4049 1.377 . S
C4049 H4033 0.930 . S
C4049 C4048 1.377 . S
C4049 C4050 1.379 . S
C4050 H4034 0.931 . S
C4050 C4044 1.383 . S
C4050 C4049 1.379 . S
H4051 C4045 0.959 . S
H4052 C4045 0.961 . S
H4053 C4045 0.960 . S
H4054 C4046 0.930 . S
H4055 C4047 0.929 . S
H4056 C4064 0.929 . S
H4057 C4066 0.930 . S
H4058 C4068 0.930 . S
H4059 C4071 0.929 . S
H4060 C4074 0.930 . S
H4061 C4076 0.960 . S
H4062 C4076 0.960 . S
H4063 C4076 0.960 . S
C4064 H4056 0.929 . S
C4064 C4065 1.377 . S
C4064 C4066 1.384 . S
C4065 C4064 1.377 . S
C4065 C4071 1.390 . S
C4066 H4057 0.930 . S
C4066 C4064 1.384 . S
C4066 C4067 1.372 . S
C4067 C4066 1.372 . S
C4067 C4068 1.400 . S
C4067 C4072 1.490 . S
C4068 H4058 0.930 . S
C4068 C4067 1.400 . S
C4068 C4071 1.386 . S
H4069 C4085 0.930 . S
H4070 C4086 0.931 . S
C4071 H4059 0.929 . S
C4071 C4065 1.390 . S
C4071 C4068 1.386 . S
C4072 C4067 1.490 . S
C4072 C4074 1.395 . S
C4072 C4075 1.403 . S
H4073 C4079 0.930 . S
C4074 H4060 0.930 . S
C4074 C4072 1.395 . S
C4074 C4077 1.403 . S
C4075 C4072 1.403 . S
C4075 C4076 1.524 . S
C4075 C4079 1.400 . S
C4076 H4061 0.960 . S
C4076 H4062 0.960 . S
C4076 H4063 0.960 . S
C4076 C4075 1.524 . S
C4077 C4074 1.403 . S
C4077 C4078 1.392 . S
C4077 C4081 1.495 . S
C4078 C4077 1.392 . S
C4078 C4079 1.385 . S
C4078 C4080 1.478 . S
C4079 H4073 0.930 . S
C4079 C4075 1.400 . S
C4079 C4078 1.385 . S
C4080 C4078 1.478 . S
C4080 C4082 1.381 . S
C4080 C4086 1.383 . S
C4081 C4077 1.495 . S
C4081 H4087 0.959 . S
C4081 H4088 0.961 . S
C4081 H4089 0.960 . S
C4082 C4080 1.381 . S
C4082 C4083 1.394 . S
C4082 H4090 0.930 . S
C4083 C4082 1.394 . S
C4083 C4084 1.383 . S
C4083 H4091 0.929 . S
C4084 C4083 1.383 . S
C4084 C4085 1.377 . S
C4085 H4069 0.930 . S
C4085 C4084 1.377 . S
C4085 C4086 1.379 . S
C4086 H4070 0.931 . S
C4086 C4080 1.383 . S
C4086 C4085 1.379 . S
H4087 C4081 0.959 . S
H4088 C4081 0.961 . S
H4089 C4081 0.960 . S
H4090 C4082 0.930 . S
H4091 C4083 0.929 . S
H4092 C4100 0.929 . S
H4093 C4102 0.930 . S
H4094 C4104 0.930 . S
H4095 C4107 0.929 . S
H4096 C4110 0.930 . S
H4097 C4112 0.960 . S
H4098 C4112 0.960 . S
H4099 C4112 0.996 . S
C4100 H4092 0.929 . S
C4100 C4101 1.377 1_556 S
C4100 C4102 1.384 . S
C4101 C4100 1.377 1_554 S
C4101 C4107 1.390 . S
C4102 H4093 0.930 . S
C4102 C4100 1.384 . S
C4102 C4103 1.372 1_556 S
C4103 C4102 1.372 1_554 S
C4103 C4104 1.400 . S
C4103 C4108 1.490 . S
C4104 H4094 0.930 . S
C4104 C4103 1.400 . S
C4104 C4107 1.386 . S
H4105 C4121 0.930 . S
H4106 C4122 0.931 . S
C4107 H4095 0.929 . S
C4107 C4101 1.390 . S
C4107 C4104 1.386 . S
C4108 C4103 1.490 . S
C4108 C4110 1.395 . S
C4108 C4111 1.405 1_554 S
H4109 C4115 0.930 1_556 S
C4110 H4096 0.930 . S
C4110 C4108 1.395 . S
C4110 C4113 1.403 . S
C4111 C4108 1.405 1_556 S
C4111 C4112 1.522 . S
C4111 C4115 1.400 1_556 S
C4112 H4097 0.960 . S
C4112 H4098 0.960 . S
C4112 H4099 0.996 . S
C4112 C4111 1.522 . S
C4113 C4110 1.403 . S
C4113 C4114 1.392 . S
C4113 C4117 1.495 1_565 S
C4114 C4113 1.392 . S
C4114 C4115 1.385 . S
C4114 C4116 1.478 . S
C4115 H4109 0.930 1_554 S
C4115 C4111 1.400 1_554 S
C4115 C4114 1.385 . S
C4116 C4114 1.478 . S
C4116 C4118 1.415 1_565 S
C4116 C4122 1.383 . S
C4117 C4113 1.495 1_545 S
C4117 H4123 0.959 . S
C4117 H4124 0.961 . S
C4117 H4125 0.960 . S
C4118 C4116 1.415 1_545 S
C4118 C4119 1.390 . S
C4118 H4126 0.902 1_554 S
C4119 C4118 1.390 . S
C4119 C4120 1.383 . S
C4119 H4127 0.929 1_554 S
C4120 C4119 1.383 . S
C4120 C4121 1.377 1_545 S
C4121 H4105 0.930 . S
C4121 C4120 1.377 1_565 S
C4121 C4122 1.379 . S
C4122 H4106 0.931 . S
C4122 C4116 1.383 . S
C4122 C4121 1.379 . S
H4123 C4117 0.959 . S
H4124 C4117 0.961 . S
H4125 C4117 0.960 . S
H4126 C4118 0.902 1_556 S
H4127 C4119 0.929 1_556 S
H4128 C4136 0.929 . S
H4129 C4138 0.930 . S
H4130 C4140 0.930 . S
H4131 C4143 0.929 . S
H4132 C4146 0.930 . S
H4133 C4148 0.960 . S
H4134 C4148 0.960 . S
H4135 C4148 0.960 . S
C4136 H4128 0.929 . S
C4136 C4137 1.377 . S
C4136 C4138 1.384 . S
C4137 C4136 1.377 . S
C4137 C4143 1.390 . S
C4138 H4129 0.930 . S
C4138 C4136 1.384 . S
C4138 C4139 1.372 . S
C4139 C4138 1.372 . S
C4139 C4140 1.400 . S
C4139 C4144 1.490 . S
C4140 H4130 0.930 . S
C4140 C4139 1.400 . S
C4140 C4143 1.386 . S
H4141 C4157 0.930 . S
H4142 C4158 0.931 . S
C4143 H4131 0.929 . S
C4143 C4137 1.390 . S
C4143 C4140 1.386 . S
C4144 C4139 1.490 . S
C4144 C4146 1.395 . S
C4144 C4147 1.403 . S
H4145 C4151 0.930 . S
C4146 H4132 0.930 . S
C4146 C4144 1.395 . S
C4146 C4149 1.403 . S
C4147 C4144 1.403 . S
C4147 C4148 1.524 . S
C4147 C4151 1.400 . S
C4148 H4133 0.960 . S
C4148 H4134 0.960 . S
C4148 H4135 0.960 . S
C4148 C4147 1.524 . S
C4149 C4146 1.403 . S
C4149 C4150 1.392 . S
C4149 C4153 1.495 . S
C4150 C4149 1.392 . S
C4150 C4151 1.385 . S
C4150 C4152 1.478 . S
C4151 H4145 0.930 . S
C4151 C4147 1.400 . S
C4151 C4150 1.385 . S
C4152 C4150 1.478 . S
C4152 C4154 1.381 . S
C4152 C4158 1.383 . S
C4153 C4149 1.495 . S
C4153 H4159 0.959 . S
C4153 H4160 0.961 . S
C4153 H4161 0.960 . S
C4154 C4152 1.381 . S
C4154 C4155 1.394 . S
C4154 H4162 0.930 . S
C4155 C4154 1.394 . S
C4155 C4156 1.383 . S
C4155 H4163 0.929 . S
C4156 C4155 1.383 . S
C4156 C4157 1.377 . S
C4157 H4141 0.930 . S
C4157 C4156 1.377 . S
C4157 C4158 1.379 . S
C4158 H4142 0.931 . S
C4158 C4152 1.383 . S
C4158 C4157 1.379 . S
H4159 C4153 0.959 . S
H4160 C4153 0.961 . S
H4161 C4153 0.960 . S
H4162 C4154 0.930 . S
H4163 C4155 0.929 . S
H4164 C4172 0.937 . S
H4165 C4174 0.921 1_556 S
H4166 C4176 0.930 . S
H4167 C4179 0.929 . S
H4168 C4182 0.930 . S
H4169 C4184 0.960 . S
H4170 C4184 0.960 . S
H4171 C4184 0.960 . S
C4172 H4164 0.937 . S
C4172 C4173 1.373 1_556 S
C4172 C4174 1.380 1_556 S
C4173 C4172 1.373 1_554 S
C4173 C4179 1.390 . S
C4174 H4165 0.921 1_554 S
C4174 C4172 1.380 1_554 S
C4174 C4175 1.388 . S
C4175 C4174 1.388 . S
C4175 C4176 1.400 . S
C4175 C4180 1.490 . S
C4176 H4166 0.930 . S
C4176 C4175 1.400 . S
C4176 C4179 1.386 . S
H4177 C4193 0.930 . S
H4178 C4194 0.931 . S
C4179 H4167 0.929 . S
C4179 C4173 1.390 . S
C4179 C4176 1.386 . S
C4180 C4175 1.490 . S
C4180 C4182 1.395 1_554 S
C4180 C4183 1.403 . S
H4181 C4187 0.930 . S
C4182 H4168 0.930 . S
C4182 C4180 1.395 1_556 S
C4182 C4185 1.403 . S
C4183 C4180 1.403 . S
C4183 C4184 1.524 . S
C4183 C4187 1.400 . S
C4184 H4169 0.960 . S
C4184 H4170 0.960 . S
C4184 H4171 0.960 . S
C4184 C4183 1.524 . S
C4185 C4182 1.403 . S
C4185 C4186 1.392 1_556 S
C4185 C4189 1.495 . S
C4186 C4185 1.392 1_554 S
C4186 C4187 1.385 . S
C4186 C4188 1.478 . S
C4187 H4181 0.930 . S
C4187 C4183 1.400 . S
C4187 C4186 1.385 . S
C4188 C4186 1.478 . S
C4188 C4190 1.381 . S
C4188 C4194 1.383 . S
C4189 C4185 1.495 . S
C4189 H4195 0.959 . S
C4189 H4196 0.961 . S
C4189 H4197 0.960 . S
C4190 C4188 1.381 . S
C4190 C4191 1.394 . S
C4190 H4198 0.930 . S
C4191 C4190 1.394 . S
C4191 C4192 1.383 . S
C4191 H4199 0.929 . S
C4192 C4191 1.383 . S
C4192 C4193 1.377 . S
C4193 H4177 0.930 . S
C4193 C4192 1.377 . S
C4193 C4194 1.379 . S
C4194 H4178 0.931 . S
C4194 C4188 1.383 . S
C4194 C4193 1.379 . S
H4195 C4189 0.959 . S
H4196 C4189 0.961 . S
H4197 C4189 0.960 . S
H4198 C4190 0.930 . S
H4199 C4191 0.929 . S
H4200 C4208 0.929 . S
H4201 C4210 0.930 . S
H4202 C4212 0.930 . S
H4203 C4215 0.929 . S
H4204 C4218 0.930 . S
H4205 C4220 0.960 . S
H4206 C4220 0.960 . S
H4207 C4220 0.960 . S
C4208 H4200 0.929 . S
C4208 C4209 1.377 . S
C4208 C4210 1.384 . S
C4209 C4208 1.377 . S
C4209 C4215 1.390 . S
C4210 H4201 0.930 . S
C4210 C4208 1.384 . S
C4210 C4211 1.372 . S
C4211 C4210 1.372 . S
C4211 C4212 1.400 . S
C4211 C4216 1.490 . S
C4212 H4202 0.930 . S
C4212 C4211 1.400 . S
C4212 C4215 1.386 . S
H4213 C4229 0.930 . S
H4214 C4230 0.931 . S
C4215 H4203 0.929 . S
C4215 C4209 1.390 . S
C4215 C4212 1.386 . S
C4216 C4211 1.490 . S
C4216 C4218 1.395 . S
C4216 C4219 1.403 . S
H4217 C4223 0.930 . S
C4218 H4204 0.930 . S
C4218 C4216 1.395 . S
C4218 C4221 1.403 . S
C4219 C4216 1.403 . S
C4219 C4220 1.524 . S
C4219 C4223 1.400 . S
C4220 H4205 0.960 . S
C4220 H4206 0.960 . S
C4220 H4207 0.960 . S
C4220 C4219 1.524 . S
C4221 C4218 1.403 . S
C4221 C4222 1.392 . S
C4221 C4225 1.495 . S
C4222 C4221 1.392 . S
C4222 C4223 1.385 . S
C4222 C4224 1.478 . S
C4223 H4217 0.930 . S
C4223 C4219 1.400 . S
C4223 C4222 1.385 . S
C4224 C4222 1.478 . S
C4224 C4226 1.381 . S
C4224 C4230 1.383 . S
C4225 C4221 1.495 . S
C4225 H4231 0.959 . S
C4225 H4232 0.961 . S
C4225 H4233 0.960 . S
C4226 C4224 1.381 . S
C4226 C4227 1.394 . S
C4226 H4234 0.930 . S
C4227 C4226 1.394 . S
C4227 C4228 1.383 . S
C4227 H4235 0.929 . S
C4228 C4227 1.383 . S
C4228 C4229 1.377 . S
C4229 H4213 0.930 . S
C4229 C4228 1.377 . S
C4229 C4230 1.379 . S
C4230 H4214 0.931 . S
C4230 C4224 1.383 . S
C4230 C4229 1.379 . S
H4231 C4225 0.959 . S
H4232 C4225 0.961 . S
H4233 C4225 0.960 . S
H4234 C4226 0.930 . S
H4235 C4227 0.929 . S
H4236 C4244 0.929 . S
H4237 C4246 0.930 . S
H4238 C4248 0.930 . S
H4239 C4251 0.929 . S
H4240 C4254 0.930 . S
H4241 C4256 0.960 . S
H4242 C4256 0.960 . S
H4243 C4256 0.960 . S
C4244 H4236 0.929 . S
C4244 C4245 1.377 . S
C4244 C4246 1.384 . S
C4245 C4244 1.377 . S
C4245 C4251 1.390 . S
C4246 H4237 0.930 . S
C4246 C4244 1.384 . S
C4246 C4247 1.372 . S
C4247 C4246 1.372 . S
C4247 C4248 1.400 . S
C4247 C4252 1.490 . S
C4248 H4238 0.930 . S
C4248 C4247 1.400 . S
C4248 C4251 1.386 . S
H4249 C4265 0.930 . S
H4250 C4266 0.931 . S
C4251 H4239 0.929 . S
C4251 C4245 1.390 . S
C4251 C4248 1.386 . S
C4252 C4247 1.490 . S
C4252 C4254 1.395 . S
C4252 C4255 1.403 . S
H4253 C4259 0.930 . S
C4254 H4240 0.930 . S
C4254 C4252 1.395 . S
C4254 C4257 1.403 . S
C4255 C4252 1.403 . S
C4255 C4256 1.524 . S
C4255 C4259 1.400 . S
C4256 H4241 0.960 . S
C4256 H4242 0.960 . S
C4256 H4243 0.960 . S
C4256 C4255 1.524 . S
C4257 C4254 1.403 . S
C4257 C4258 1.392 . S
C4257 C4261 1.495 . S
C4258 C4257 1.392 . S
C4258 C4259 1.385 . S
C4258 C4260 1.478 . S
C4259 H4253 0.930 . S
C4259 C4255 1.400 . S
C4259 C4258 1.385 . S
C4260 C4258 1.478 . S
C4260 C4262 1.381 . S
C4260 C4266 1.383 . S
C4261 C4257 1.495 . S
C4261 H4267 0.959 . S
C4261 H4268 0.961 . S
C4261 H4269 0.960 . S
C4262 C4260 1.381 . S
C4262 C4263 1.394 . S
C4262 H4270 0.930 . S
C4263 C4262 1.394 . S
C4263 C4264 1.383 . S
C4263 H4271 0.929 . S
C4264 C4263 1.383 . S
C4264 C4265 1.377 . S
C4265 H4249 0.930 . S
C4265 C4264 1.377 . S
C4265 C4266 1.379 . S
C4266 H4250 0.931 . S
C4266 C4260 1.383 . S
C4266 C4265 1.379 . S
H4267 C4261 0.959 . S
H4268 C4261 0.961 . S
H4269 C4261 0.960 . S
H4270 C4262 0.930 . S
H4271 C4263 0.929 . S
H4272 C4280 0.929 . S
H4273 C4282 0.930 . S
H4274 C4284 0.930 . S
H4275 C4287 0.929 . S
H4276 C4290 0.930 . S
H4277 C4292 0.960 . S
H4278 C4292 0.960 . S
H4279 C4292 0.960 . S
C4280 H4272 0.929 . S
C4280 C4281 1.377 . S
C4280 C4282 1.384 . S
C4281 C4280 1.377 . S
C4281 C4287 1.390 . S
C4282 H4273 0.930 . S
C4282 C4280 1.384 . S
C4282 C4283 1.372 . S
C4283 C4282 1.372 . S
C4283 C4284 1.400 . S
C4283 C4288 1.490 . S
C4284 H4274 0.930 . S
C4284 C4283 1.400 . S
C4284 C4287 1.386 . S
H4285 C4301 0.930 . S
H4286 C4302 0.931 . S
C4287 H4275 0.929 . S
C4287 C4281 1.390 . S
C4287 C4284 1.386 . S
C4288 C4283 1.490 . S
C4288 C4290 1.395 . S
C4288 C4291 1.403 . S
H4289 C4295 0.930 . S
C4290 H4276 0.930 . S
C4290 C4288 1.395 . S
C4290 C4293 1.403 . S
C4291 C4288 1.403 . S
C4291 C4292 1.524 . S
C4291 C4295 1.400 . S
C4292 H4277 0.960 . S
C4292 H4278 0.960 . S
C4292 H4279 0.960 . S
C4292 C4291 1.524 . S
C4293 C4290 1.403 . S
C4293 C4294 1.392 . S
C4293 C4297 1.495 . S
C4294 C4293 1.392 . S
C4294 C4295 1.385 . S
C4294 C4296 1.478 . S
C4295 H4289 0.930 . S
C4295 C4291 1.400 . S
C4295 C4294 1.385 . S
C4296 C4294 1.478 . S
C4296 C4298 1.381 . S
C4296 C4302 1.383 . S
C4297 C4293 1.495 . S
C4297 H4303 0.959 . S
C4297 H4304 0.961 . S
C4297 H4305 0.960 . S
C4298 C4296 1.381 . S
C4298 C4299 1.394 . S
C4298 H4306 0.930 . S
C4299 C4298 1.394 . S
C4299 C4300 1.383 . S
C4299 H4307 0.929 . S
C4300 C4299 1.383 . S
C4300 C4301 1.377 . S
C4301 H4285 0.930 . S
C4301 C4300 1.377 . S
C4301 C4302 1.379 . S
C4302 H4286 0.931 . S
C4302 C4296 1.383 . S
C4302 C4301 1.379 . S
H4303 C4297 0.959 . S
H4304 C4297 0.961 . S
H4305 C4297 0.960 . S
H4306 C4298 0.930 . S
H4307 C4299 0.929 . S
H4308 C4316 0.929 . S
H4309 C4318 0.930 . S
H4310 C4320 0.930 . S
H4311 C4323 0.929 . S
H4312 C4326 0.930 . S
H4313 C4328 0.960 . S
H4314 C4328 0.960 . S
H4315 C4328 0.960 . S
C4316 H4308 0.929 . S
C4316 C4317 1.377 . S
C4316 C4318 1.384 . S
C4317 C4316 1.377 . S
C4317 C4323 1.390 . S
C4318 H4309 0.930 . S
C4318 C4316 1.384 . S
C4318 C4319 1.372 . S
C4319 C4318 1.372 . S
C4319 C4320 1.400 . S
C4319 C4324 1.490 . S
C4320 H4310 0.930 . S
C4320 C4319 1.400 . S
C4320 C4323 1.386 . S
H4321 C4337 0.930 . S
H4322 C4338 0.931 . S
C4323 H4311 0.929 . S
C4323 C4317 1.390 . S
C4323 C4320 1.386 . S
C4324 C4319 1.490 . S
C4324 C4326 1.395 . S
C4324 C4327 1.403 . S
H4325 C4331 0.930 . S
C4326 H4312 0.930 . S
C4326 C4324 1.395 . S
C4326 C4329 1.403 . S
C4327 C4324 1.403 . S
C4327 C4328 1.524 . S
C4327 C4331 1.400 . S
C4328 H4313 0.960 . S
C4328 H4314 0.960 . S
C4328 H4315 0.960 . S
C4328 C4327 1.524 . S
C4329 C4326 1.403 . S
C4329 C4330 1.392 . S
C4329 C4333 1.495 . S
C4330 C4329 1.392 . S
C4330 C4331 1.385 . S
C4330 C4332 1.478 . S
C4331 H4325 0.930 . S
C4331 C4327 1.400 . S
C4331 C4330 1.385 . S
C4332 C4330 1.478 . S
C4332 C4334 1.381 . S
C4332 C4338 1.383 . S
C4333 C4329 1.495 . S
C4333 H4339 0.959 . S
C4333 H4340 0.961 . S
C4333 H4341 0.960 . S
C4334 C4332 1.381 . S
C4334 C4335 1.394 . S
C4334 H4342 0.930 . S
C4335 C4334 1.394 . S
C4335 C4336 1.383 . S
C4335 H4343 0.929 . S
C4336 C4335 1.383 . S
C4336 C4337 1.377 . S
C4337 H4321 0.930 . S
C4337 C4336 1.377 . S
C4337 C4338 1.379 . S
C4338 H4322 0.931 . S
C4338 C4332 1.383 . S
C4338 C4337 1.379 . S
H4339 C4333 0.959 . S
H4340 C4333 0.961 . S
H4341 C4333 0.960 . S
H4342 C4334 0.930 . S
H4343 C4335 0.929 . S
H4344 C4352 0.929 . S
H4345 C4354 0.930 . S
H4346 C4356 0.930 . S
H4347 C4359 0.929 . S
H4348 C4362 0.930 . S
H4349 C4364 0.960 . S
H4350 C4364 0.960 . S
H4351 C4364 0.960 . S
C4352 H4344 0.929 . S
C4352 C4353 1.377 . S
C4352 C4354 1.384 . S
C4353 C4352 1.377 . S
C4353 C4359 1.390 . S
C4354 H4345 0.930 . S
C4354 C4352 1.384 . S
C4354 C4355 1.372 . S
C4355 C4354 1.372 . S
C4355 C4356 1.400 . S
C4355 C4360 1.490 . S
C4356 H4346 0.930 . S
C4356 C4355 1.400 . S
C4356 C4359 1.386 . S
H4357 C4373 0.930 . S
H4358 C4374 0.931 . S
C4359 H4347 0.929 . S
C4359 C4353 1.390 . S
C4359 C4356 1.386 . S
C4360 C4355 1.490 . S
C4360 C4362 1.395 . S
C4360 C4363 1.403 . S
H4361 C4367 0.930 . S
C4362 H4348 0.930 . S
C4362 C4360 1.395 . S
C4362 C4365 1.403 . S
C4363 C4360 1.403 . S
C4363 C4364 1.524 . S
C4363 C4367 1.400 . S
C4364 H4349 0.960 . S
C4364 H4350 0.960 . S
C4364 H4351 0.960 . S
C4364 C4363 1.524 . S
C4365 C4362 1.403 . S
C4365 C4366 1.392 . S
C4365 C4369 1.495 . S
C4366 C4365 1.392 . S
C4366 C4367 1.385 . S
C4366 C4368 1.478 . S
C4367 H4361 0.930 . S
C4367 C4363 1.400 . S
C4367 C4366 1.385 . S
C4368 C4366 1.478 . S
C4368 C4370 1.381 . S
C4368 C4374 1.383 . S
C4369 C4365 1.495 . S
C4369 H4375 0.959 . S
C4369 H4376 0.961 . S
C4369 H4377 0.960 . S
C4370 C4368 1.381 . S
C4370 C4371 1.394 . S
C4370 H4378 0.930 . S
C4371 C4370 1.394 . S
C4371 C4372 1.383 . S
C4371 H4379 0.929 . S
C4372 C4371 1.383 . S
C4372 C4373 1.377 . S
C4373 H4357 0.930 . S
C4373 C4372 1.377 . S
C4373 C4374 1.379 . S
C4374 H4358 0.931 . S
C4374 C4368 1.383 . S
C4374 C4373 1.379 . S
H4375 C4369 0.959 . S
H4376 C4369 0.961 . S
H4377 C4369 0.960 . S
H4378 C4370 0.930 . S
H4379 C4371 0.929 . S
H4380 C4388 0.929 . S
H4381 C4390 0.930 . S
H4382 C4392 0.930 . S
H4383 C4395 0.929 . S
H4384 C4398 0.930 . S
H4385 C4400 0.960 . S
H4386 C4400 0.960 . S
H4387 C4400 0.960 . S
C4388 H4380 0.929 . S
C4388 C4389 1.377 . S
C4388 C4390 1.384 . S
C4389 C4388 1.377 . S
C4389 C4395 1.390 . S
C4390 H4381 0.930 . S
C4390 C4388 1.384 . S
C4390 C4391 1.372 . S
C4391 C4390 1.372 . S
C4391 C4392 1.400 . S
C4391 C4396 1.490 . S
C4392 H4382 0.930 . S
C4392 C4391 1.400 . S
C4392 C4395 1.386 . S
H4393 C4409 0.930 . S
H4394 C4410 0.931 . S
C4395 H4383 0.929 . S
C4395 C4389 1.390 . S
C4395 C4392 1.386 . S
C4396 C4391 1.490 . S
C4396 C4398 1.395 . S
C4396 C4399 1.403 . S
H4397 C4403 0.930 . S
C4398 H4384 0.930 . S
C4398 C4396 1.395 . S
C4398 C4401 1.403 . S
C4399 C4396 1.403 . S
C4399 C4400 1.524 . S
C4399 C4403 1.400 . S
C4400 H4385 0.960 . S
C4400 H4386 0.960 . S
C4400 H4387 0.960 . S
C4400 C4399 1.524 . S
C4401 C4398 1.403 . S
C4401 C4402 1.392 . S
C4401 C4405 1.495 . S
C4402 C4401 1.392 . S
C4402 C4403 1.385 . S
C4402 C4404 1.478 . S
C4403 H4397 0.930 . S
C4403 C4399 1.400 . S
C4403 C4402 1.385 . S
C4404 C4402 1.478 . S
C4404 C4406 1.381 . S
C4404 C4410 1.383 . S
C4405 C4401 1.495 . S
C4405 H4411 0.959 . S
C4405 H4412 0.961 . S
C4405 H4413 0.960 . S
C4406 C4404 1.381 . S
C4406 C4407 1.394 . S
C4406 H4414 0.930 . S
C4407 C4406 1.394 . S
C4407 C4408 1.383 . S
C4407 H4415 0.929 . S
C4408 C4407 1.383 . S
C4408 C4409 1.377 . S
C4409 H4393 0.930 . S
C4409 C4408 1.377 . S
C4409 C4410 1.379 . S
C4410 H4394 0.931 . S
C4410 C4404 1.383 . S
C4410 C4409 1.379 . S
H4411 C4405 0.959 . S
H4412 C4405 0.961 . S
H4413 C4405 0.960 . S
H4414 C4406 0.930 . S
H4415 C4407 0.929 . S
H4416 C4424 0.929 . S
H4417 C4426 0.930 . S
H4418 C4428 0.930 . S
H4419 C4431 0.929 . S
H4420 C4434 0.930 . S
H4421 C4436 0.960 . S
H4422 C4436 0.960 . S
H4423 C4436 0.960 . S
C4424 H4416 0.929 . S
C4424 C4425 1.377 . S
C4424 C4426 1.384 . S
C4425 C4424 1.377 . S
C4425 C4431 1.390 . S
C4426 H4417 0.930 . S
C4426 C4424 1.384 . S
C4426 C4427 1.372 . S
C4427 C4426 1.372 . S
C4427 C4428 1.400 . S
C4427 C4432 1.490 . S
C4428 H4418 0.930 . S
C4428 C4427 1.400 . S
C4428 C4431 1.386 . S
H4429 C4445 0.930 . S
H4430 C4446 0.931 . S
C4431 H4419 0.929 . S
C4431 C4425 1.390 . S
C4431 C4428 1.386 . S
C4432 C4427 1.490 . S
C4432 C4434 1.395 . S
C4432 C4435 1.403 . S
H4433 C4439 0.930 . S
C4434 H4420 0.930 . S
C4434 C4432 1.395 . S
C4434 C4437 1.403 . S
C4435 C4432 1.403 . S
C4435 C4436 1.524 . S
C4435 C4439 1.400 . S
C4436 H4421 0.960 . S
C4436 H4422 0.960 . S
C4436 H4423 0.960 . S
C4436 C4435 1.524 . S
C4437 C4434 1.403 . S
C4437 C4438 1.392 . S
C4437 C4441 1.495 . S
C4438 C4437 1.392 . S
C4438 C4439 1.385 . S
C4438 C4440 1.478 . S
C4439 H4433 0.930 . S
C4439 C4435 1.400 . S
C4439 C4438 1.385 . S
C4440 C4438 1.478 . S
C4440 C4442 1.381 . S
C4440 C4446 1.383 . S
C4441 C4437 1.495 . S
C4441 H4447 0.959 . S
C4441 H4448 0.961 . S
C4441 H4449 0.960 . S
C4442 C4440 1.381 . S
C4442 C4443 1.394 . S
C4442 H4450 0.930 . S
C4443 C4442 1.394 . S
C4443 C4444 1.383 . S
C4443 H4451 0.929 . S
C4444 C4443 1.383 . S
C4444 C4445 1.377 . S
C4445 H4429 0.930 . S
C4445 C4444 1.377 . S
C4445 C4446 1.379 . S
C4446 H4430 0.931 . S
C4446 C4440 1.383 . S
C4446 C4445 1.379 . S
H4447 C4441 0.959 . S
H4448 C4441 0.961 . S
H4449 C4441 0.960 . S
H4450 C4442 0.930 . S
H4451 C4443 0.929 . S
H4452 C4460 0.929 . S
H4453 C4462 0.930 . S
H4454 C4464 0.930 . S
H4455 C4467 0.929 . S
H4456 C4470 0.930 . S
H4457 C4472 0.960 . S
H4458 C4472 0.960 . S
H4459 C4472 0.960 . S
C4460 H4452 0.929 . S
C4460 C4461 1.377 . S
C4460 C4462 1.384 . S
C4461 C4460 1.377 . S
C4461 C4467 1.390 . S
C4462 H4453 0.930 . S
C4462 C4460 1.384 . S
C4462 C4463 1.372 . S
C4463 C4462 1.372 . S
C4463 C4464 1.400 . S
C4463 C4468 1.490 . S
C4464 H4454 0.930 . S
C4464 C4463 1.400 . S
C4464 C4467 1.386 . S
H4465 C4481 0.930 . S
H4466 C4482 0.931 . S
C4467 H4455 0.929 . S
C4467 C4461 1.390 . S
C4467 C4464 1.386 . S
C4468 C4463 1.490 . S
C4468 C4470 1.395 . S
C4468 C4471 1.403 . S
H4469 C4475 0.930 . S
C4470 H4456 0.930 . S
C4470 C4468 1.395 . S
C4470 C4473 1.403 . S
C4471 C4468 1.403 . S
C4471 C4472 1.524 . S
C4471 C4475 1.400 . S
C4472 H4457 0.960 . S
C4472 H4458 0.960 . S
C4472 H4459 0.960 . S
C4472 C4471 1.524 . S
C4473 C4470 1.403 . S
C4473 C4474 1.392 . S
C4473 C4477 1.495 . S
C4474 C4473 1.392 . S
C4474 C4475 1.385 . S
C4474 C4476 1.478 . S
C4475 H4469 0.930 . S
C4475 C4471 1.400 . S
C4475 C4474 1.385 . S
C4476 C4474 1.478 . S
C4476 C4478 1.381 . S
C4476 C4482 1.383 . S
C4477 C4473 1.495 . S
C4477 H4483 0.959 . S
C4477 H4484 0.961 . S
C4477 H4485 0.960 . S
C4478 C4476 1.381 . S
C4478 C4479 1.394 . S
C4478 H4486 0.930 . S
C4479 C4478 1.394 . S
C4479 C4480 1.383 . S
C4479 H4487 0.929 . S
C4480 C4479 1.383 . S
C4480 C4481 1.377 . S
C4481 H4465 0.930 . S
C4481 C4480 1.377 . S
C4481 C4482 1.379 . S
C4482 H4466 0.931 . S
C4482 C4476 1.383 . S
C4482 C4481 1.379 . S
H4483 C4477 0.959 . S
H4484 C4477 0.961 . S
H4485 C4477 0.960 . S
H4486 C4478 0.930 . S
H4487 C4479 0.929 . S
H4488 C4496 0.929 . S
H4489 C4498 0.930 . S
H4490 C4500 0.930 . S
H4491 C4503 0.929 . S
H4492 C4506 0.930 . S
H4493 C4508 0.960 1_655 S
H4494 C4508 0.960 . S
H4495 C4508 0.962 1_655 S
C4496 H4488 0.929 . S
C4496 C4497 1.377 . S
C4496 C4498 1.384 . S
C4497 C4496 1.377 . S
C4497 C4503 1.390 . S
C4498 H4489 0.930 . S
C4498 C4496 1.384 . S
C4498 C4499 1.372 . S
C4499 C4498 1.372 . S
C4499 C4500 1.400 . S
C4499 C4504 1.490 . S
C4500 H4490 0.930 . S
C4500 C4499 1.400 . S
C4500 C4503 1.386 . S
H4501 C4517 0.930 . S
H4502 C4518 0.931 . S
C4503 H4491 0.929 . S
C4503 C4497 1.390 . S
C4503 C4500 1.386 . S
C4504 C4499 1.490 . S
C4504 C4506 1.395 . S
C4504 C4507 1.403 . S
H4505 C4511 0.930 . S
C4506 H4492 0.930 . S
C4506 C4504 1.395 . S
C4506 C4509 1.403 . S
C4507 C4504 1.403 . S
C4507 C4508 1.524 . S
C4507 C4511 1.400 . S
C4508 H4493 0.960 1_455 S
C4508 H4494 0.960 . S
C4508 H4495 0.962 1_455 S
C4508 C4507 1.524 . S
C4509 C4506 1.403 . S
C4509 C4510 1.392 . S
C4509 C4513 1.495 . S
C4510 C4509 1.392 . S
C4510 C4511 1.385 . S
C4510 C4512 1.478 . S
C4511 H4505 0.930 . S
C4511 C4507 1.400 . S
C4511 C4510 1.385 . S
C4512 C4510 1.478 . S
C4512 C4514 1.381 . S
C4512 C4518 1.383 . S
C4513 C4509 1.495 . S
C4513 H4519 0.959 . S
C4513 H4520 0.961 . S
C4513 H4521 0.960 . S
C4514 C4512 1.381 . S
C4514 C4515 1.394 . S
C4514 H4522 0.930 . S
C4515 C4514 1.394 . S
C4515 C4516 1.383 . S
C4515 H4523 0.929 . S
C4516 C4515 1.383 . S
C4516 C4517 1.377 . S
C4517 H4501 0.930 . S
C4517 C4516 1.377 . S
C4517 C4518 1.379 . S
C4518 H4502 0.931 . S
C4518 C4512 1.383 . S
C4518 C4517 1.379 . S
H4519 C4513 0.959 . S
H4520 C4513 0.961 . S
H4521 C4513 0.960 . S
H4522 C4514 0.930 . S
H4523 C4515 0.929 . S
H4524 C4532 0.929 . S
H4525 C4534 0.930 . S
H4526 C4536 0.930 . S
H4527 C4539 0.929 . S
H4528 C4542 0.930 . S
H4529 C4544 0.960 . S
H4530 C4544 0.960 . S
H4531 C4544 0.960 . S
C4532 H4524 0.929 . S
C4532 C4533 1.377 . S
C4532 C4534 1.384 . S
C4533 C4532 1.377 . S
C4533 C4539 1.390 . S
C4534 H4525 0.930 . S
C4534 C4532 1.384 . S
C4534 C4535 1.372 . S
C4535 C4534 1.372 . S
C4535 C4536 1.400 . S
C4535 C4540 1.490 . S
C4536 H4526 0.930 . S
C4536 C4535 1.400 . S
C4536 C4539 1.386 . S
H4537 C4553 0.930 . S
H4538 C4554 0.931 . S
C4539 H4527 0.929 . S
C4539 C4533 1.390 . S
C4539 C4536 1.386 . S
C4540 C4535 1.490 . S
C4540 C4542 1.395 . S
C4540 C4543 1.403 . S
H4541 C4547 0.930 . S
C4542 H4528 0.930 . S
C4542 C4540 1.395 . S
C4542 C4545 1.403 . S
C4543 C4540 1.403 . S
C4543 C4544 1.524 . S
C4543 C4547 1.400 . S
C4544 H4529 0.960 . S
C4544 H4530 0.960 . S
C4544 H4531 0.960 . S
C4544 C4543 1.524 . S
C4545 C4542 1.403 . S
C4545 C4546 1.392 . S
C4545 C4549 1.495 . S
C4546 C4545 1.392 . S
C4546 C4547 1.385 . S
C4546 C4548 1.478 . S
C4547 H4541 0.930 . S
C4547 C4543 1.400 . S
C4547 C4546 1.385 . S
C4548 C4546 1.478 . S
C4548 C4550 1.381 . S
C4548 C4554 1.383 . S
C4549 C4545 1.495 . S
C4549 H4555 0.959 . S
C4549 H4556 0.961 . S
C4549 H4557 0.960 . S
C4550 C4548 1.381 . S
C4550 C4551 1.394 . S
C4550 H4558 0.930 . S
C4551 C4550 1.394 . S
C4551 C4552 1.383 . S
C4551 H4559 0.929 . S
C4552 C4551 1.383 . S
C4552 C4553 1.377 . S
C4553 H4537 0.930 . S
C4553 C4552 1.377 . S
C4553 C4554 1.379 . S
C4554 H4538 0.931 . S
C4554 C4548 1.383 . S
C4554 C4553 1.379 . S
H4555 C4549 0.959 . S
H4556 C4549 0.961 . S
H4557 C4549 0.960 . S
H4558 C4550 0.930 . S
H4559 C4551 0.929 . S
H4560 C4568 0.929 . S
H4561 C4570 0.930 . S
H4562 C4572 0.930 . S
H4563 C4575 0.929 . S
H4564 C4578 0.930 . S
H4565 C4580 0.960 . S
H4566 C4580 0.960 . S
H4567 C4580 0.960 . S
C4568 H4560 0.929 . S
C4568 C4569 1.377 . S
C4568 C4570 1.384 . S
C4569 C4568 1.377 . S
C4569 C4575 1.390 . S
C4570 H4561 0.930 . S
C4570 C4568 1.384 . S
C4570 C4571 1.372 . S
C4571 C4570 1.372 . S
C4571 C4572 1.400 . S
C4571 C4576 1.490 . S
C4572 H4562 0.930 . S
C4572 C4571 1.400 . S
C4572 C4575 1.386 . S
H4573 C4589 0.930 . S
H4574 C4590 0.931 . S
C4575 H4563 0.929 . S
C4575 C4569 1.390 . S
C4575 C4572 1.386 . S
C4576 C4571 1.490 . S
C4576 C4578 1.395 . S
C4576 C4579 1.403 . S
H4577 C4583 0.930 . S
C4578 H4564 0.930 . S
C4578 C4576 1.395 . S
C4578 C4581 1.403 . S
C4579 C4576 1.403 . S
C4579 C4580 1.524 . S
C4579 C4583 1.400 . S
C4580 H4565 0.960 . S
C4580 H4566 0.960 . S
C4580 H4567 0.960 . S
C4580 C4579 1.524 . S
C4581 C4578 1.403 . S
C4581 C4582 1.392 . S
C4581 C4585 1.495 . S
C4582 C4581 1.392 . S
C4582 C4583 1.385 . S
C4582 C4584 1.478 . S
C4583 H4577 0.930 . S
C4583 C4579 1.400 . S
C4583 C4582 1.385 . S
C4584 C4582 1.478 . S
C4584 C4586 1.381 . S
C4584 C4590 1.383 . S
C4585 C4581 1.495 . S
C4585 H4591 0.959 . S
C4585 H4592 0.961 . S
C4585 H4593 0.960 . S
C4586 C4584 1.381 . S
C4586 C4587 1.394 . S
C4586 H4594 0.930 . S
C4587 C4586 1.394 . S
C4587 C4588 1.383 . S
C4587 H4595 0.929 . S
C4588 C4587 1.383 . S
C4588 C4589 1.377 . S
C4589 H4573 0.930 . S
C4589 C4588 1.377 . S
C4589 C4590 1.379 . S
C4590 H4574 0.931 . S
C4590 C4584 1.383 . S
C4590 C4589 1.379 . S
H4591 C4585 0.959 . S
H4592 C4585 0.961 . S
H4593 C4585 0.960 . S
H4594 C4586 0.930 . S
H4595 C4587 0.929 . S
H4596 C4604 0.929 . S
H4597 C4606 0.930 . S
H4598 C4608 0.930 . S
H4599 C4611 0.929 . S
H4600 C4614 0.930 . S
H4601 C4616 0.960 . S
H4602 C4616 0.960 . S
H4603 C4616 0.960 . S
C4604 H4596 0.929 . S
C4604 C4605 1.377 . S
C4604 C4606 1.384 . S
C4605 C4604 1.377 . S
C4605 C4611 1.390 . S
C4606 H4597 0.930 . S
C4606 C4604 1.384 . S
C4606 C4607 1.372 . S
C4607 C4606 1.372 . S
C4607 C4608 1.400 . S
C4607 C4612 1.490 . S
C4608 H4598 0.930 . S
C4608 C4607 1.400 . S
C4608 C4611 1.386 . S
H4609 C4625 0.930 . S
H4610 C4626 0.931 . S
C4611 H4599 0.929 . S
C4611 C4605 1.390 . S
C4611 C4608 1.386 . S
C4612 C4607 1.490 . S
C4612 C4614 1.395 . S
C4612 C4615 1.403 . S
H4613 C4619 0.930 . S
C4614 H4600 0.930 . S
C4614 C4612 1.395 . S
C4614 C4617 1.403 . S
C4615 C4612 1.403 . S
C4615 C4616 1.524 . S
C4615 C4619 1.400 . S
C4616 H4601 0.960 . S
C4616 H4602 0.960 . S
C4616 H4603 0.960 . S
C4616 C4615 1.524 . S
C4617 C4614 1.403 . S
C4617 C4618 1.392 . S
C4617 C4621 1.495 . S
C4618 C4617 1.392 . S
C4618 C4619 1.385 . S
C4618 C4620 1.478 . S
C4619 H4613 0.930 . S
C4619 C4615 1.400 . S
C4619 C4618 1.385 . S
C4620 C4618 1.478 . S
C4620 C4622 1.381 . S
C4620 C4626 1.383 . S
C4621 C4617 1.495 . S
C4621 H4627 0.959 . S
C4621 H4628 0.961 . S
C4621 H4629 0.960 . S
C4622 C4620 1.381 . S
C4622 C4623 1.394 . S
C4622 H4630 0.930 . S
C4623 C4622 1.394 . S
C4623 C4624 1.383 . S
C4623 H4631 0.929 . S
C4624 C4623 1.383 . S
C4624 C4625 1.377 . S
C4625 H4609 0.930 . S
C4625 C4624 1.377 . S
C4625 C4626 1.379 . S
C4626 H4610 0.931 . S
C4626 C4620 1.383 . S
C4626 C4625 1.379 . S
H4627 C4621 0.959 . S
H4628 C4621 0.961 . S
H4629 C4621 0.960 . S
H4630 C4622 0.930 . S
H4631 C4623 0.929 . S
H4632 C4640 0.929 . S
H4633 C4642 0.930 . S
H4634 C4644 0.930 . S
H4635 C4647 0.929 . S
H4636 C4650 0.930 . S
H4637 C4652 0.960 . S
H4638 C4652 0.960 . S
H4639 C4652 0.960 . S
C4640 H4632 0.929 . S
C4640 C4641 1.377 . S
C4640 C4642 1.384 . S
C4641 C4640 1.377 . S
C4641 C4647 1.390 . S
C4642 H4633 0.930 . S
C4642 C4640 1.384 . S
C4642 C4643 1.372 . S
C4643 C4642 1.372 . S
C4643 C4644 1.400 . S
C4643 C4648 1.490 . S
C4644 H4634 0.930 . S
C4644 C4643 1.400 . S
C4644 C4647 1.386 . S
H4645 C4661 0.930 1_455 S
H4646 C4662 0.931 . S
C4647 H4635 0.929 . S
C4647 C4641 1.390 . S
C4647 C4644 1.386 . S
C4648 C4643 1.490 . S
C4648 C4650 1.395 . S
C4648 C4651 1.403 . S
H4649 C4655 0.930 . S
C4650 H4636 0.930 . S
C4650 C4648 1.395 . S
C4650 C4653 1.403 . S
C4651 C4648 1.403 . S
C4651 C4652 1.524 . S
C4651 C4655 1.400 . S
C4652 H4637 0.960 . S
C4652 H4638 0.960 . S
C4652 H4639 0.960 . S
C4652 C4651 1.524 . S
C4653 C4650 1.403 . S
C4653 C4654 1.392 . S
C4653 C4657 1.495 . S
C4654 C4653 1.392 . S
C4654 C4655 1.385 . S
C4654 C4656 1.478 . S
C4655 H4649 0.930 . S
C4655 C4651 1.400 . S
C4655 C4654 1.385 . S
C4656 C4654 1.478 . S
C4656 C4658 1.381 . S
C4656 C4662 1.383 . S
C4657 C4653 1.495 . S
C4657 H4663 0.959 . S
C4657 H4664 0.961 . S
C4657 H4665 0.960 . S
C4658 C4656 1.381 . S
C4658 C4659 1.394 . S
C4658 H4666 0.930 . S
C4659 C4658 1.394 . S
C4659 C4660 1.383 . S
C4659 H4667 0.929 . S
C4660 C4659 1.383 . S
C4660 C4661 1.377 . S
C4661 H4645 0.930 1_655 S
C4661 C4660 1.377 . S
C4661 C4662 1.379 . S
C4662 H4646 0.931 . S
C4662 C4656 1.383 . S
C4662 C4661 1.379 . S
H4663 C4657 0.959 . S
H4664 C4657 0.961 . S
H4665 C4657 0.960 . S
H4666 C4658 0.930 . S
H4667 C4659 0.929 . S
H4668 C4676 0.929 . S
H4669 C4678 0.930 . S
H4670 C4680 0.930 . S
H4671 C4683 0.929 . S
H4672 C4686 0.930 . S
H4673 C4688 0.960 . S
H4674 C4688 0.960 . S
H4675 C4688 0.960 . S
C4676 H4668 0.929 . S
C4676 C4677 1.377 . S
C4676 C4678 1.384 . S
C4677 C4676 1.377 . S
C4677 C4683 1.390 . S
C4678 H4669 0.930 . S
C4678 C4676 1.384 . S
C4678 C4679 1.372 . S
C4679 C4678 1.372 . S
C4679 C4680 1.400 . S
C4679 C4684 1.490 . S
C4680 H4670 0.930 . S
C4680 C4679 1.400 . S
C4680 C4683 1.386 . S
H4681 C4697 0.930 . S
H4682 C4698 0.931 . S
C4683 H4671 0.929 . S
C4683 C4677 1.390 . S
C4683 C4680 1.386 . S
C4684 C4679 1.490 . S
C4684 C4686 1.395 . S
C4684 C4687 1.403 . S
H4685 C4691 0.930 . S
C4686 H4672 0.930 . S
C4686 C4684 1.395 . S
C4686 C4689 1.403 . S
C4687 C4684 1.403 . S
C4687 C4688 1.524 . S
C4687 C4691 1.400 . S
C4688 H4673 0.960 . S
C4688 H4674 0.960 . S
C4688 H4675 0.960 . S
C4688 C4687 1.524 . S
C4689 C4686 1.403 . S
C4689 C4690 1.392 . S
C4689 C4693 1.495 . S
C4690 C4689 1.392 . S
C4690 C4691 1.385 . S
C4690 C4692 1.478 . S
C4691 H4685 0.930 . S
C4691 C4687 1.400 . S
C4691 C4690 1.385 . S
C4692 C4690 1.478 . S
C4692 C4694 1.381 . S
C4692 C4698 1.383 . S
C4693 C4689 1.495 . S
C4693 H4699 0.959 . S
C4693 H4700 0.961 . S
C4693 H4701 0.960 . S
C4694 C4692 1.381 . S
C4694 C4695 1.394 . S
C4694 H4702 0.930 . S
C4695 C4694 1.394 . S
C4695 C4696 1.383 . S
C4695 H4703 0.929 . S
C4696 C4695 1.383 . S
C4696 C4697 1.377 . S
C4697 H4681 0.930 . S
C4697 C4696 1.377 . S
C4697 C4698 1.379 . S
C4698 H4682 0.931 . S
C4698 C4692 1.383 . S
C4698 C4697 1.379 . S
H4699 C4693 0.959 . S
H4700 C4693 0.961 . S
H4701 C4693 0.960 . S
H4702 C4694 0.930 . S
H4703 C4695 0.929 . S
H4704 C4712 0.929 . S
H4705 C4714 0.930 . S
H4706 C4716 0.930 . S
H4707 C4719 0.929 . S
H4708 C4722 0.930 . S
H4709 C4724 0.960 . S
H4710 C4724 0.960 . S
H4711 C4724 0.960 . S
C4712 H4704 0.929 . S
C4712 C4713 1.377 . S
C4712 C4714 1.384 . S
C4713 C4712 1.377 . S
C4713 C4719 1.390 . S
C4714 H4705 0.930 . S
C4714 C4712 1.384 . S
C4714 C4715 1.372 . S
C4715 C4714 1.372 . S
C4715 C4716 1.400 . S
C4715 C4720 1.490 . S
C4716 H4706 0.930 . S
C4716 C4715 1.400 . S
C4716 C4719 1.386 . S
H4717 C4733 0.930 . S
H4718 C4734 0.931 . S
C4719 H4707 0.929 . S
C4719 C4713 1.390 . S
C4719 C4716 1.386 . S
C4720 C4715 1.490 . S
C4720 C4722 1.395 . S
C4720 C4723 1.403 . S
H4721 C4727 0.930 . S
C4722 H4708 0.930 . S
C4722 C4720 1.395 . S
C4722 C4725 1.403 . S
C4723 C4720 1.403 . S
C4723 C4724 1.524 . S
C4723 C4727 1.400 . S
C4724 H4709 0.960 . S
C4724 H4710 0.960 . S
C4724 H4711 0.960 . S
C4724 C4723 1.524 . S
C4725 C4722 1.403 . S
C4725 C4726 1.392 . S
C4725 C4729 1.495 . S
C4726 C4725 1.392 . S
C4726 C4727 1.385 . S
C4726 C4728 1.478 . S
C4727 H4721 0.930 . S
C4727 C4723 1.400 . S
C4727 C4726 1.385 . S
C4728 C4726 1.478 . S
C4728 C4730 1.381 . S
C4728 C4734 1.383 . S
C4729 C4725 1.495 . S
C4729 H4735 0.959 . S
C4729 H4736 0.961 . S
C4729 H4737 0.960 . S
C4730 C4728 1.381 . S
C4730 C4731 1.394 . S
C4730 H4738 0.930 . S
C4731 C4730 1.394 . S
C4731 C4732 1.383 . S
C4731 H4739 0.929 . S
C4732 C4731 1.383 . S
C4732 C4733 1.377 . S
C4733 H4717 0.930 . S
C4733 C4732 1.377 . S
C4733 C4734 1.379 . S
C4734 H4718 0.931 . S
C4734 C4728 1.383 . S
C4734 C4733 1.379 . S
H4735 C4729 0.959 . S
H4736 C4729 0.961 . S
H4737 C4729 0.960 . S
H4738 C4730 0.930 . S
H4739 C4731 0.929 . S
H4740 C4748 0.929 . S
H4741 C4750 0.930 . S
H4742 C4752 0.930 . S
H4743 C4755 0.929 . S
H4744 C4758 0.930 . S
H4745 C4760 0.960 . S
H4746 C4760 0.960 . S
H4747 C4760 0.960 . S
C4748 H4740 0.929 . S
C4748 C4749 1.377 . S
C4748 C4750 1.384 . S
C4749 C4748 1.377 . S
C4749 C4755 1.390 . S
C4750 H4741 0.930 . S
C4750 C4748 1.384 . S
C4750 C4751 1.372 . S
C4751 C4750 1.372 . S
C4751 C4752 1.400 . S
C4751 C4756 1.490 . S
C4752 H4742 0.930 . S
C4752 C4751 1.400 . S
C4752 C4755 1.386 . S
H4753 C4769 0.930 . S
H4754 C4770 0.931 . S
C4755 H4743 0.929 . S
C4755 C4749 1.390 . S
C4755 C4752 1.386 . S
C4756 C4751 1.490 . S
C4756 C4758 1.395 . S
C4756 C4759 1.403 . S
H4757 C4763 0.930 . S
C4758 H4744 0.930 . S
C4758 C4756 1.395 . S
C4758 C4761 1.403 . S
C4759 C4756 1.403 . S
C4759 C4760 1.524 . S
C4759 C4763 1.400 . S
C4760 H4745 0.960 . S
C4760 H4746 0.960 . S
C4760 H4747 0.960 . S
C4760 C4759 1.524 . S
C4761 C4758 1.403 . S
C4761 C4762 1.392 . S
C4761 C4765 1.495 . S
C4762 C4761 1.392 . S
C4762 C4763 1.385 . S
C4762 C4764 1.478 . S
C4763 H4757 0.930 . S
C4763 C4759 1.400 . S
C4763 C4762 1.385 . S
C4764 C4762 1.478 . S
C4764 C4766 1.381 . S
C4764 C4770 1.383 . S
C4765 C4761 1.495 . S
C4765 H4771 0.959 . S
C4765 H4772 0.961 . S
C4765 H4773 0.960 . S
C4766 C4764 1.381 . S
C4766 C4767 1.394 . S
C4766 H4774 0.930 . S
C4767 C4766 1.394 . S
C4767 C4768 1.383 . S
C4767 H4775 0.929 . S
C4768 C4767 1.383 . S
C4768 C4769 1.377 . S
C4769 H4753 0.930 . S
C4769 C4768 1.377 . S
C4769 C4770 1.379 . S
C4770 H4754 0.931 . S
C4770 C4764 1.383 . S
C4770 C4769 1.379 . S
H4771 C4765 0.959 . S
H4772 C4765 0.961 . S
H4773 C4765 0.960 . S
H4774 C4766 0.930 . S
H4775 C4767 0.929 . S
H4776 C4784 0.929 . S
H4777 C4786 0.930 . S
H4778 C4788 0.930 . S
H4779 C4791 0.929 . S
H4780 C4794 0.930 . S
H4781 C4796 0.960 . S
H4782 C4796 0.960 . S
H4783 C4796 0.960 . S
C4784 H4776 0.929 . S
C4784 C4785 1.377 . S
C4784 C4786 1.384 . S
C4785 C4784 1.377 . S
C4785 C4791 1.390 . S
C4786 H4777 0.930 . S
C4786 C4784 1.384 . S
C4786 C4787 1.372 . S
C4787 C4786 1.372 . S
C4787 C4788 1.400 . S
C4787 C4792 1.490 . S
C4788 H4778 0.930 . S
C4788 C4787 1.400 . S
C4788 C4791 1.386 . S
H4789 C4805 0.930 . S
H4790 C4806 0.931 . S
C4791 H4779 0.929 . S
C4791 C4785 1.390 . S
C4791 C4788 1.386 . S
C4792 C4787 1.490 . S
C4792 C4794 1.395 . S
C4792 C4795 1.403 . S
H4793 C4799 0.930 . S
C4794 H4780 0.930 . S
C4794 C4792 1.395 . S
C4794 C4797 1.403 . S
C4795 C4792 1.403 . S
C4795 C4796 1.524 . S
C4795 C4799 1.400 . S
C4796 H4781 0.960 . S
C4796 H4782 0.960 . S
C4796 H4783 0.960 . S
C4796 C4795 1.524 . S
C4797 C4794 1.403 . S
C4797 C4798 1.392 . S
C4797 C4801 1.495 . S
C4798 C4797 1.392 . S
C4798 C4799 1.385 . S
C4798 C4800 1.478 . S
C4799 H4793 0.930 . S
C4799 C4795 1.400 . S
C4799 C4798 1.385 . S
C4800 C4798 1.478 . S
C4800 C4802 1.381 . S
C4800 C4806 1.383 . S
C4801 C4797 1.495 . S
C4801 H4807 0.959 . S
C4801 H4808 0.961 . S
C4801 H4809 0.960 . S
C4802 C4800 1.381 . S
C4802 C4803 1.394 . S
C4802 H4810 0.930 . S
C4803 C4802 1.394 . S
C4803 C4804 1.383 . S
C4803 H4811 0.929 . S
C4804 C4803 1.383 . S
C4804 C4805 1.377 . S
C4805 H4789 0.930 . S
C4805 C4804 1.377 . S
C4805 C4806 1.379 . S
C4806 H4790 0.931 . S
C4806 C4800 1.383 . S
C4806 C4805 1.379 . S
H4807 C4801 0.959 . S
H4808 C4801 0.961 . S
H4809 C4801 0.960 . S
H4810 C4802 0.930 . S
H4811 C4803 0.929 . S
H4812 C4820 0.929 . S
H4813 C4822 0.930 . S
H4814 C4824 0.930 . S
H4815 C4827 0.929 . S
H4816 C4830 0.930 . S
H4817 C4832 0.960 . S
H4818 C4832 0.960 . S
H4819 C4832 0.960 . S
C4820 H4812 0.929 . S
C4820 C4821 1.377 . S
C4820 C4822 1.384 . S
C4821 C4820 1.377 . S
C4821 C4827 1.390 . S
C4822 H4813 0.930 . S
C4822 C4820 1.384 . S
C4822 C4823 1.372 . S
C4823 C4822 1.372 . S
C4823 C4824 1.400 . S
C4823 C4828 1.490 . S
C4824 H4814 0.930 . S
C4824 C4823 1.400 . S
C4824 C4827 1.386 . S
H4825 C4841 0.930 . S
H4826 C4842 0.931 . S
C4827 H4815 0.929 . S
C4827 C4821 1.390 . S
C4827 C4824 1.386 . S
C4828 C4823 1.490 . S
C4828 C4830 1.395 . S
C4828 C4831 1.403 . S
H4829 C4835 0.930 . S
C4830 H4816 0.930 . S
C4830 C4828 1.395 . S
C4830 C4833 1.403 . S
C4831 C4828 1.403 . S
C4831 C4832 1.524 . S
C4831 C4835 1.400 . S
C4832 H4817 0.960 . S
C4832 H4818 0.960 . S
C4832 H4819 0.960 . S
C4832 C4831 1.524 . S
C4833 C4830 1.403 . S
C4833 C4834 1.392 . S
C4833 C4837 1.495 . S
C4834 C4833 1.392 . S
C4834 C4835 1.385 . S
C4834 C4836 1.478 . S
C4835 H4829 0.930 . S
C4835 C4831 1.400 . S
C4835 C4834 1.385 . S
C4836 C4834 1.478 . S
C4836 C4838 1.381 . S
C4836 C4842 1.383 . S
C4837 C4833 1.495 . S
C4837 H4843 0.959 . S
C4837 H4844 0.961 . S
C4837 H4845 0.960 . S
C4838 C4836 1.381 . S
C4838 C4839 1.394 . S
C4838 H4846 0.930 . S
C4839 C4838 1.394 . S
C4839 C4840 1.383 . S
C4839 H4847 0.929 . S
C4840 C4839 1.383 . S
C4840 C4841 1.377 . S
C4841 H4825 0.930 . S
C4841 C4840 1.377 . S
C4841 C4842 1.379 . S
C4842 H4826 0.931 . S
C4842 C4836 1.383 . S
C4842 C4841 1.379 . S
H4843 C4837 0.959 . S
H4844 C4837 0.961 . S
H4845 C4837 0.960 . S
H4846 C4838 0.930 . S
H4847 C4839 0.929 . S
H4848 C4856 0.929 . S
H4849 C4858 0.930 . S
H4850 C4860 0.930 . S
H4851 C4863 0.929 . S
H4852 C4866 0.930 . S
H4853 C4868 0.960 . S
H4854 C4868 0.960 . S
H4855 C4868 0.960 . S
C4856 H4848 0.929 . S
C4856 C4857 1.377 . S
C4856 C4858 1.384 . S
C4857 C4856 1.377 . S
C4857 C4863 1.390 . S
C4858 H4849 0.930 . S
C4858 C4856 1.384 . S
C4858 C4859 1.372 . S
C4859 C4858 1.372 . S
C4859 C4860 1.400 . S
C4859 C4864 1.490 . S
C4860 H4850 0.930 . S
C4860 C4859 1.400 . S
C4860 C4863 1.386 . S
H4861 C4877 0.930 . S
H4862 C4878 0.931 . S
C4863 H4851 0.929 . S
C4863 C4857 1.390 . S
C4863 C4860 1.386 . S
C4864 C4859 1.490 . S
C4864 C4866 1.395 . S
C4864 C4867 1.403 . S
H4865 C4871 0.930 . S
C4866 H4852 0.930 . S
C4866 C4864 1.395 . S
C4866 C4869 1.403 . S
C4867 C4864 1.403 . S
C4867 C4868 1.524 . S
C4867 C4871 1.400 . S
C4868 H4853 0.960 . S
C4868 H4854 0.960 . S
C4868 H4855 0.960 . S
C4868 C4867 1.524 . S
C4869 C4866 1.403 . S
C4869 C4870 1.392 . S
C4869 C4873 1.495 . S
C4870 C4869 1.392 . S
C4870 C4871 1.385 . S
C4870 C4872 1.478 . S
C4871 H4865 0.930 . S
C4871 C4867 1.400 . S
C4871 C4870 1.385 . S
C4872 C4870 1.478 . S
C4872 C4874 1.381 . S
C4872 C4878 1.383 . S
C4873 C4869 1.495 . S
C4873 H4879 0.959 . S
C4873 H4880 0.961 . S
C4873 H4881 0.960 . S
C4874 C4872 1.381 . S
C4874 C4875 1.394 . S
C4874 H4882 0.930 . S
C4875 C4874 1.394 . S
C4875 C4876 1.383 . S
C4875 H4883 0.929 . S
C4876 C4875 1.383 . S
C4876 C4877 1.377 . S
C4877 H4861 0.930 . S
C4877 C4876 1.377 . S
C4877 C4878 1.379 . S
C4878 H4862 0.931 . S
C4878 C4872 1.383 . S
C4878 C4877 1.379 . S
H4879 C4873 0.959 . S
H4880 C4873 0.961 . S
H4881 C4873 0.960 . S
H4882 C4874 0.930 . S
H4883 C4875 0.929 . S
H4884 C4892 0.929 . S
H4885 C4894 0.930 . S
H4886 C4896 0.930 . S
H4887 C4899 0.929 . S
H4888 C4902 0.930 . S
H4889 C4904 0.960 . S
H4890 C4904 0.960 . S
H4891 C4904 0.960 . S
C4892 H4884 0.929 . S
C4892 C4893 1.377 . S
C4892 C4894 1.384 . S
C4893 C4892 1.377 . S
C4893 C4899 1.390 . S
C4894 H4885 0.930 . S
C4894 C4892 1.384 . S
C4894 C4895 1.372 . S
C4895 C4894 1.372 . S
C4895 C4896 1.400 . S
C4895 C4900 1.490 . S
C4896 H4886 0.930 . S
C4896 C4895 1.400 . S
C4896 C4899 1.386 . S
H4897 C4913 0.930 . S
H4898 C4914 0.931 . S
C4899 H4887 0.929 . S
C4899 C4893 1.390 . S
C4899 C4896 1.386 . S
C4900 C4895 1.490 . S
C4900 C4902 1.395 . S
C4900 C4903 1.403 . S
H4901 C4907 0.930 . S
C4902 H4888 0.930 . S
C4902 C4900 1.395 . S
C4902 C4905 1.403 . S
C4903 C4900 1.403 . S
C4903 C4904 1.524 . S
C4903 C4907 1.400 . S
C4904 H4889 0.960 . S
C4904 H4890 0.960 . S
C4904 H4891 0.960 . S
C4904 C4903 1.524 . S
C4905 C4902 1.403 . S
C4905 C4906 1.392 . S
C4905 C4909 1.495 . S
C4906 C4905 1.392 . S
C4906 C4907 1.385 . S
C4906 C4908 1.478 . S
C4907 H4901 0.930 . S
C4907 C4903 1.400 . S
C4907 C4906 1.385 . S
C4908 C4906 1.478 . S
C4908 C4910 1.381 . S
C4908 C4914 1.383 . S
C4909 C4905 1.495 . S
C4909 H4915 0.959 . S
C4909 H4916 0.944 1_565 S
C4909 H4917 0.960 . S
C4910 C4908 1.381 . S
C4910 C4911 1.394 . S
C4910 H4918 0.930 . S
C4911 C4910 1.394 . S
C4911 C4912 1.383 . S
C4911 H4919 0.929 . S
C4912 C4911 1.383 . S
C4912 C4913 1.377 . S
C4913 H4897 0.930 . S
C4913 C4912 1.377 . S
C4913 C4914 1.379 . S
C4914 H4898 0.931 . S
C4914 C4908 1.383 . S
C4914 C4913 1.379 . S
H4915 C4909 0.959 . S
H4916 C4909 0.944 1_545 S
H4917 C4909 0.960 . S
H4918 C4910 0.930 . S
H4919 C4911 0.929 . S
H4920 C4928 0.929 . S
H4921 C4930 0.930 . S
H4922 C4932 0.930 . S
H4923 C4935 0.929 . S
H4924 C4938 0.930 . S
H4925 C4940 0.960 . S
H4926 C4940 0.960 . S
H4927 C4940 0.960 . S
C4928 H4920 0.929 . S
C4928 C4929 1.377 . S
C4928 C4930 1.384 . S
C4929 C4928 1.377 . S
C4929 C4935 1.390 . S
C4930 H4921 0.930 . S
C4930 C4928 1.384 . S
C4930 C4931 1.372 . S
C4931 C4930 1.372 . S
C4931 C4932 1.400 . S
C4931 C4936 1.490 . S
C4932 H4922 0.930 . S
C4932 C4931 1.400 . S
C4932 C4935 1.386 . S
H4933 C4949 0.930 . S
H4934 C4950 0.931 . S
C4935 H4923 0.929 . S
C4935 C4929 1.390 . S
C4935 C4932 1.386 . S
C4936 C4931 1.490 . S
C4936 C4938 1.395 . S
C4936 C4939 1.403 . S
H4937 C4943 0.930 . S
C4938 H4924 0.930 . S
C4938 C4936 1.395 . S
C4938 C4941 1.403 . S
C4939 C4936 1.403 . S
C4939 C4940 1.524 . S
C4939 C4943 1.400 . S
C4940 H4925 0.960 . S
C4940 H4926 0.960 . S
C4940 H4927 0.960 . S
C4940 C4939 1.524 . S
C4941 C4938 1.403 . S
C4941 C4942 1.392 . S
C4941 C4945 1.495 . S
C4942 C4941 1.392 . S
C4942 C4943 1.385 . S
C4942 C4944 1.478 . S
C4943 H4937 0.930 . S
C4943 C4939 1.400 . S
C4943 C4942 1.385 . S
C4944 C4942 1.478 . S
C4944 C4946 1.381 . S
C4944 C4950 1.383 . S
C4945 C4941 1.495 . S
C4945 H4951 0.959 . S
C4945 H4952 0.961 . S
C4945 H4953 0.960 . S
C4946 C4944 1.381 . S
C4946 C4947 1.394 . S
C4946 H4954 0.930 . S
C4947 C4946 1.394 . S
C4947 C4948 1.383 . S
C4947 H4955 0.929 . S
C4948 C4947 1.383 . S
C4948 C4949 1.377 . S
C4949 H4933 0.930 . S
C4949 C4948 1.377 . S
C4949 C4950 1.379 . S
C4950 H4934 0.931 . S
C4950 C4944 1.383 . S
C4950 C4949 1.379 . S
H4951 C4945 0.959 . S
H4952 C4945 0.961 . S
H4953 C4945 0.960 . S
H4954 C4946 0.930 . S
H4955 C4947 0.929 . S
H4956 C4964 0.929 . S
H4957 C4966 0.930 . S
H4958 C4968 0.930 . S
H4959 C4971 0.929 . S
H4960 C4974 0.930 . S
H4961 C4976 0.960 . S
H4962 C4976 0.960 . S
H4963 C4976 0.960 . S
C4964 H4956 0.929 . S
C4964 C4965 1.377 . S
C4964 C4966 1.384 . S
C4965 C4964 1.377 . S
C4965 C4971 1.390 . S
C4966 H4957 0.930 . S
C4966 C4964 1.384 . S
C4966 C4967 1.372 . S
C4967 C4966 1.372 . S
C4967 C4968 1.400 . S
C4967 C4972 1.490 . S
C4968 H4958 0.930 . S
C4968 C4967 1.400 . S
C4968 C4971 1.386 . S
H4969 C4985 0.930 . S
H4970 C4986 0.931 . S
C4971 H4959 0.929 . S
C4971 C4965 1.390 . S
C4971 C4968 1.386 . S
C4972 C4967 1.490 . S
C4972 C4974 1.395 . S
C4972 C4975 1.403 . S
H4973 C4979 0.930 . S
C4974 H4960 0.930 . S
C4974 C4972 1.395 . S
C4974 C4977 1.403 . S
C4975 C4972 1.403 . S
C4975 C4976 1.524 . S
C4975 C4979 1.400 . S
C4976 H4961 0.960 . S
C4976 H4962 0.960 . S
C4976 H4963 0.960 . S
C4976 C4975 1.524 . S
C4977 C4974 1.403 . S
C4977 C4978 1.392 . S
C4977 C4981 1.495 . S
C4978 C4977 1.392 . S
C4978 C4979 1.385 . S
C4978 C4980 1.478 . S
C4979 H4973 0.930 . S
C4979 C4975 1.400 . S
C4979 C4978 1.385 . S
C4980 C4978 1.478 . S
C4980 C4982 1.381 . S
C4980 C4986 1.383 . S
C4981 C4977 1.495 . S
C4981 H4987 0.959 . S
C4981 H4988 0.961 . S
C4981 H4989 0.960 . S
C4982 C4980 1.381 . S
C4982 C4983 1.394 . S
C4982 H4990 0.930 1_554 S
C4983 C4982 1.394 . S
C4983 C4984 1.383 . S
C4983 H4991 0.929 1_554 S
C4984 C4983 1.383 . S
C4984 C4985 1.377 . S
C4985 H4969 0.930 . S
C4985 C4984 1.377 . S
C4985 C4986 1.379 . S
C4986 H4970 0.931 . S
C4986 C4980 1.383 . S
C4986 C4985 1.379 . S
H4987 C4981 0.959 . S
H4988 C4981 0.961 . S
H4989 C4981 0.960 . S
H4990 C4982 0.930 1_556 S
H4991 C4983 0.929 1_556 S
H4992 C5000 0.929 . S
H4993 C5002 0.930 . S
H4994 C5004 0.930 . S
H4995 C5007 0.929 . S
H4996 C5010 0.930 . S
H4997 C5012 0.960 . S
H4998 C5012 0.960 . S
H4999 C5012 0.960 . S
C5000 H4992 0.929 . S
C5000 C5001 1.377 . S
C5000 C5002 1.384 . S
C5001 C5000 1.377 . S
C5001 C5007 1.390 . S
C5002 H4993 0.930 . S
C5002 C5000 1.384 . S
C5002 C5003 1.372 . S
C5003 C5002 1.372 . S
C5003 C5004 1.400 . S
C5003 C5008 1.490 . S
C5004 H4994 0.930 . S
C5004 C5003 1.400 . S
C5004 C5007 1.386 . S
H5005 C5021 0.930 . S
H5006 C5022 0.931 . S
C5007 H4995 0.929 . S
C5007 C5001 1.390 . S
C5007 C5004 1.386 . S
C5008 C5003 1.490 . S
C5008 C5010 1.395 . S
C5008 C5011 1.403 . S
H5009 C5015 0.930 . S
C5010 H4996 0.930 . S
C5010 C5008 1.395 . S
C5010 C5013 1.403 . S
C5011 C5008 1.403 . S
C5011 C5012 1.524 . S
C5011 C5015 1.400 . S
C5012 H4997 0.960 . S
C5012 H4998 0.960 . S
C5012 H4999 0.960 . S
C5012 C5011 1.524 . S
C5013 C5010 1.403 . S
C5013 C5014 1.392 . S
C5013 C5017 1.495 . S
C5014 C5013 1.392 . S
C5014 C5015 1.385 . S
C5014 C5016 1.478 . S
C5015 H5009 0.930 . S
C5015 C5011 1.400 . S
C5015 C5014 1.385 . S
C5016 C5014 1.478 . S
C5016 C5018 1.381 . S
C5016 C5022 1.383 . S
C5017 C5013 1.495 . S
C5017 H5023 0.959 . S
C5017 H5024 0.961 . S
C5017 H5025 0.960 . S
C5018 C5016 1.381 . S
C5018 C5019 1.394 . S
C5018 H5026 0.930 . S
C5019 C5018 1.394 . S
C5019 C5020 1.383 . S
C5019 H5027 0.929 . S
C5020 C5019 1.383 . S
C5020 C5021 1.377 . S
C5021 H5005 0.930 . S
C5021 C5020 1.377 . S
C5021 C5022 1.379 . S
C5022 H5006 0.931 . S
C5022 C5016 1.383 . S
C5022 C5021 1.379 . S
H5023 C5017 0.959 . S
H5024 C5017 0.961 . S
H5025 C5017 0.960 . S
H5026 C5018 0.930 . S
H5027 C5019 0.929 . S
H5028 C5036 0.929 . S
H5029 C5038 0.930 1_556 S
H5030 C5040 0.930 . S
H5031 C5043 0.929 . S
H5032 C5046 0.930 . S
H5033 C5048 0.960 . S
H5034 C5048 0.960 . S
H5035 C5048 0.960 . S
C5036 H5028 0.929 . S
C5036 C5037 1.377 . S
C5036 C5038 1.384 . S
C5037 C5036 1.377 . S
C5037 C5043 1.390 . S
C5038 H5029 0.930 1_554 S
C5038 C5036 1.384 . S
C5038 C5039 1.372 . S
C5039 C5038 1.372 . S
C5039 C5040 1.400 . S
C5039 C5044 1.490 . S
C5040 H5030 0.930 . S
C5040 C5039 1.400 . S
C5040 C5043 1.386 . S
H5041 C5057 0.930 . S
H5042 C5058 0.931 . S
C5043 H5031 0.929 . S
C5043 C5037 1.390 . S
C5043 C5040 1.386 . S
C5044 C5039 1.490 . S
C5044 C5046 1.395 . S
C5044 C5047 1.403 . S
H5045 C5051 0.930 . S
C5046 H5032 0.930 . S
C5046 C5044 1.395 . S
C5046 C5049 1.403 . S
C5047 C5044 1.403 . S
C5047 C5048 1.524 . S
C5047 C5051 1.400 . S
C5048 H5033 0.960 . S
C5048 H5034 0.960 . S
C5048 H5035 0.960 . S
C5048 C5047 1.524 . S
C5049 C5046 1.403 . S
C5049 C5050 1.392 . S
C5049 C5053 1.495 . S
C5050 C5049 1.392 . S
C5050 C5051 1.385 . S
C5050 C5052 1.478 . S
C5051 H5045 0.930 . S
C5051 C5047 1.400 . S
C5051 C5050 1.385 . S
C5052 C5050 1.478 . S
C5052 C5054 1.381 1_554 S
C5052 C5058 1.383 . S
C5053 C5049 1.495 . S
C5053 H5059 0.959 . S
C5053 H5060 0.961 . S
C5053 H5061 0.960 . S
C5054 C5052 1.381 1_556 S
C5054 C5055 1.394 . S
C5054 H5062 0.930 . S
C5055 C5054 1.394 . S
C5055 C5056 1.383 1_556 S
C5055 H5063 0.929 . S
C5056 C5055 1.383 1_554 S
C5056 C5057 1.377 . S
C5057 H5041 0.930 . S
C5057 C5056 1.377 . S
C5057 C5058 1.379 . S
C5058 H5042 0.931 . S
C5058 C5052 1.383 . S
C5058 C5057 1.379 . S
H5059 C5053 0.959 . S
H5060 C5053 0.961 . S
H5061 C5053 0.960 . S
H5062 C5054 0.930 . S
H5063 C5055 0.929 . S
H5064 C5072 0.929 . S
H5065 C5074 0.930 . S
H5066 C5076 0.930 . S
H5067 C5079 0.929 . S
H5068 C5082 0.930 . S
H5069 C5084 0.960 . S
H5070 C5084 0.960 . S
H5071 C5084 0.960 . S
C5072 H5064 0.929 . S
C5072 C5073 1.377 . S
C5072 C5074 1.384 . S
C5073 C5072 1.377 . S
C5073 C5079 1.390 . S
C5074 H5065 0.930 . S
C5074 C5072 1.384 . S
C5074 C5075 1.372 . S
C5075 C5074 1.372 . S
C5075 C5076 1.400 . S
C5075 C5080 1.490 . S
C5076 H5066 0.930 . S
C5076 C5075 1.400 . S
C5076 C5079 1.386 . S
H5077 C5093 0.930 . S
H5078 C5094 0.931 . S
C5079 H5067 0.929 . S
C5079 C5073 1.390 . S
C5079 C5076 1.386 . S
C5080 C5075 1.490 . S
C5080 C5082 1.395 . S
C5080 C5083 1.403 . S
H5081 C5087 0.930 . S
C5082 H5068 0.930 . S
C5082 C5080 1.395 . S
C5082 C5085 1.403 . S
C5083 C5080 1.403 . S
C5083 C5084 1.524 . S
C5083 C5087 1.400 . S
C5084 H5069 0.960 . S
C5084 H5070 0.960 . S
C5084 H5071 0.960 . S
C5084 C5083 1.524 . S
C5085 C5082 1.403 . S
C5085 C5086 1.392 . S
C5085 C5089 1.495 . S
C5086 C5085 1.392 . S
C5086 C5087 1.385 . S
C5086 C5088 1.478 . S
C5087 H5081 0.930 . S
C5087 C5083 1.400 . S
C5087 C5086 1.385 . S
C5088 C5086 1.478 . S
C5088 C5090 1.381 . S
C5088 C5094 1.383 . S
C5089 C5085 1.495 . S
C5089 H5095 0.959 . S
C5089 H5096 0.961 . S
C5089 H5097 0.960 . S
C5090 C5088 1.381 . S
C5090 C5091 1.394 . S
C5090 H5098 0.930 . S
C5091 C5090 1.394 . S
C5091 C5092 1.383 . S
C5091 H5099 0.929 . S
C5092 C5091 1.383 . S
C5092 C5093 1.377 . S
C5093 H5077 0.930 . S
C5093 C5092 1.377 . S
C5093 C5094 1.379 . S
C5094 H5078 0.931 . S
C5094 C5088 1.383 . S
C5094 C5093 1.379 . S
H5095 C5089 0.959 . S
H5096 C5089 0.961 . S
H5097 C5089 0.960 . S
H5098 C5090 0.930 . S
H5099 C5091 0.929 . S
H5100 C5108 0.929 . S
H5101 C5110 0.930 . S
H5102 C5112 0.930 . S
H5103 C5115 0.929 . S
H5104 C5118 0.930 . S
H5105 C5120 0.960 . S
H5106 C5120 0.960 . S
H5107 C5120 0.960 . S
C5108 H5100 0.929 . S
C5108 C5109 1.377 . S
C5108 C5110 1.384 . S
C5109 C5108 1.377 . S
C5109 C5115 1.390 . S
C5110 H5101 0.930 . S
C5110 C5108 1.384 . S
C5110 C5111 1.372 . S
C5111 C5110 1.372 . S
C5111 C5112 1.400 . S
C5111 C5116 1.490 . S
C5112 H5102 0.930 . S
C5112 C5111 1.400 . S
C5112 C5115 1.386 . S
H5113 C5129 0.930 . S
H5114 C5130 0.931 . S
C5115 H5103 0.929 . S
C5115 C5109 1.390 . S
C5115 C5112 1.386 . S
C5116 C5111 1.490 . S
C5116 C5118 1.395 . S
C5116 C5119 1.403 . S
H5117 C5123 0.930 . S
C5118 H5104 0.930 . S
C5118 C5116 1.395 . S
C5118 C5121 1.403 . S
C5119 C5116 1.403 . S
C5119 C5120 1.524 . S
C5119 C5123 1.400 . S
C5120 H5105 0.960 . S
C5120 H5106 0.960 . S
C5120 H5107 0.960 . S
C5120 C5119 1.524 . S
C5121 C5118 1.403 . S
C5121 C5122 1.392 . S
C5121 C5125 1.495 . S
C5122 C5121 1.392 . S
C5122 C5123 1.385 . S
C5122 C5124 1.478 . S
C5123 H5117 0.930 . S
C5123 C5119 1.400 . S
C5123 C5122 1.385 . S
C5124 C5122 1.478 . S
C5124 C5126 1.381 . S
C5124 C5130 1.383 . S
C5125 C5121 1.495 . S
C5125 H5131 0.959 . S
C5125 H5132 0.961 . S
C5125 H5133 0.960 . S
C5126 C5124 1.381 . S
C5126 C5127 1.394 . S
C5126 H5134 0.930 . S
C5127 C5126 1.394 . S
C5127 C5128 1.383 . S
C5127 H5135 0.929 . S
C5128 C5127 1.383 . S
C5128 C5129 1.377 . S
C5129 H5113 0.930 . S
C5129 C5128 1.377 . S
C5129 C5130 1.379 . S
C5130 H5114 0.931 . S
C5130 C5124 1.383 . S
C5130 C5129 1.379 . S
H5131 C5125 0.959 . S
H5132 C5125 0.961 . S
H5133 C5125 0.960 . S
H5134 C5126 0.930 . S
H5135 C5127 0.929 . S
C1689 C109 1.857 . S
C1708 C392 1.851 . S
C1725 C61 1.562 . S
C1744 C494 1.766 . S
C1761 C74 1.738 . S
C1780 C560 1.782 . S
C1816 C646 1.492 . S
C1797 C96 1.590 . S
C1833 C25 1.497 . S
C1852 C730 1.400 . S
C1888 C812 1.783 . S
C1869 C40 1.765 . S
C1924 C914 1.852 . S
C1905 C46 1.864 . S
C1941 C5 1.616 . S
C1960 C980 1.951 . S
C1996 C410 1.394 . S
C1977 C229 1.188 . S
C2013 C249 0.794 . S
C2032 C478 0.737 . S
C2068 C578 0.892 . S
C2049 C271 0.824 . S
C2104 C644 1.693 . S
C2085 C172 1.646 1_556 S
C2121 C236 1.513 . S
C2140 C728 1.510 1_655 S
C2176 C830 1.260 . S
C2157 C242 1.245 . S
C2212 C898 0.720 . S
C2193 C278 0.805 . S
C2248 C998 1.525 . S
C2229 C179 1.550 . S
C2284 C394 0.877 . S
C2265 C159 0.801 1_556 S
C2301 C285 1.402 1_554 S
C2320 C1082 1.564 . S
C2356 C1150 1.173 . S
C2337 C333 1.244 . S
C2392 C1232 0.720 . S
C2373 C320 0.728 . S
C2409 C123 0.810 . S
C2428 C982 0.825 . S
C2445 C138 1.388 . S
C2464 C562 1.295 . S
C2481 C326 1.719 . S
C2500 C1334 1.707 . S
C2536 C1400 0.808 . S
C2517 C298 0.797 . S
C2572 C403 1.828 . S
C2553 C67 1.784 . S
C2608 C1407 1.663 . S
C2589 C110 1.705 . S
C2625 C88 1.727 . S
C2644 C571 1.752 . S
C2661 C75 1.245 . S
C2680 C1329 1.381 . S
C2716 C741 1.381 . S
C2697 C11 1.440 . S
C2733 C47 1.538 . S
C2752 C1159 1.727 . S
C2788 C903 1.741 . S
C2769 C32 1.661 . S
C2824 C1495 1.951 . S
C2805 C26 1.934 . S
C2860 C399 1.477 . S
C2841 C152 1.538 . S
C2896 C1413 0.778 . S
C2877 C319 0.795 . S
C2913 C124 0.862 . S
C2932 C567 0.884 . S
C2949 C284 1.680 . S
C2968 C1327 1.692 . S
C2985 C145 1.262 . S
C3004 C739 1.451 . S
C3040 C1155 1.114 . S
C3021 C312 1.075 . S
C3057 C117 0.707 . S
C3076 C909 0.709 . S
C3093 C291 1.412 . S
C3112 C1491 1.371 . S
C3129 C194 0.890 . S
C3148 C405 0.830 . S
C3165 C180 1.556 . S
C3184 C1071 1.528 . S
C3201 C263 1.123 . S
C3220 C825 1.115 . S
C3237 C243 0.715 . S
C3256 C1243 0.657 . S
C3292 C1497 0.778 . S
C3273 C277 0.824 . S
C3309 C215 1.140 . S
C3328 C573 1.248 . S
C3364 C651 1.592 . S
C3345 C256 1.552 . S
C3400 C487 0.864 . S
C3381 C200 0.861 . S
C3417 C81 1.858 . S
C3436 C1568 1.852 . S
C3472 C1418 1.772 . S
C3453 C89 1.567 . S
C3489 C102 1.735 1_455 S
C3508 C1652 1.778 . S
C3525 C68 1.591 . S
C3544 C1318 1.459 . S
C3561 C53 1.501 . S
C3580 C1066 1.427 . S
C3616 C1148 1.787 . S
C3597 C12 1.761 1_655 S
C3652 C1250 1.872 . S
C3633 C18 1.869 . S
C3688 C1484 1.956 . S
C3669 C33 1.622 . S
C3724 C1586 1.392 . S
C3705 C257 1.188 . S
C3741 C193 0.824 . S
C3760 C1402 0.814 . S
C3796 C1670 0.895 . S
C3777 C201 0.826 . S
C3832 C1316 1.681 . S
C3813 C214 1.638 . S
C3868 C1064 1.520 . S
C3849 C264 1.512 . S
C3885 C186 1.246 . S
C3904 C1166 1.263 . S
C3940 C1234 0.854 . S
C3921 C208 0.806 . S
C3957 C221 1.552 . S
C3976 C1502 1.513 . S
C4012 C1570 0.888 . S
C3993 C313 0.772 . S
C4029 C131 1.415 . S
C4048 C746 1.592 . S
C4084 C814 1.158 . S
C4065 C151 1.238 1_565 S
C4120 C896 0.716 . S
C4101 C166 0.732 . S
C4156 C1486 0.840 . S
C4137 C305 0.809 . S
C4173 C292 1.388 . S
C4192 C1654 1.335 . S
C4228 C662 1.719 . S
C4209 C144 1.721 . S
C4264 C476 0.812 . S
C4245 C116 0.805 . S
C4281 C95 1.790 . S
C4300 C1579 1.840 . S
C4336 C483 1.669 . S
C4317 C82 1.697 . S
C4353 C60 1.733 . S
C4372 C1663 1.754 . S
C4389 C103 1.240 . S
C4408 C657 1.355 . S
C4425 C39 1.442 . S
C4444 C1077 1.308 . S
C4480 C823 1.722 . S
C4461 C19 1.528 . S
C4497 C4 1.664 . S
C4516 C1239 1.737 . S
C4533 C54 1.930 . S
C4552 C991 1.941 . S
C4588 C1575 1.514 . S
C4569 C334 1.539 . S
C4605 C165 0.792 . S
C4624 C489 0.823 . S
C4660 C1659 0.863 1_655 S
C4641 C306 0.863 . S
C4677 C130 1.680 . S
C4696 C655 1.697 . S
C4713 C327 1.279 . S
C4732 C1075 1.437 . S
C4768 C819 1.101 . S
C4749 C158 1.079 . S
C4785 C299 0.696 . S
C4804 C1245 0.582 . S
C4840 C987 1.381 . S
C4821 C137 1.408 . S
C4876 C1581 0.876 . S
C4857 C250 0.884 . S
C4912 C735 1.511 1_565 S
C4893 C222 1.554 . S
C4929 C235 1.126 . S
C4948 C1161 1.053 . S
C4984 C907 0.637 . S
C4965 C187 0.695 . S
C5001 C207 0.814 . S
C5020 C993 0.765 . S
C5037 C173 1.158 . S
C5056 C1665 1.267 . S
C5092 C1323 1.609 . S
C5073 C228 1.560 . S
C5128 C1411 0.871 . S
C5109 C270 0.854 . S
