# Generated by pormake.
# Topology gar, (4,6)-cn, num edge types: 1
# Building blocks:
#     Node 0, Type 0, BuildingBlock: UXUYUI_clean_sbu_0, # of connection points: 4
#     Node 1, Type 0, BuildingBlock: UXUYUI_clean_sbu_0, # of connection points: 4
#     Node 2, Type 0, BuildingBlock: UXUYUI_clean_sbu_0, # of connection points: 4
#     Node 3, Type 0, BuildingBlock: UXUYUI_clean_sbu_0, # of connection points: 4
#     Node 4, Type 0, BuildingBlock: UXUYUI_clean_sbu_0, # of connection points: 4
#     Node 5, Type 0, BuildingBlock: UXUYUI_clean_sbu_0, # of connection points: 4
#     Node 6, Type 0, BuildingBlock: UXUYUI_clean_sbu_0, # of connection points: 4
#     Node 7, Type 0, BuildingBlock: UXUYUI_clean_sbu_0, # of connection points: 4
#     Node 8, Type 0, BuildingBlock: UXUYUI_clean_sbu_0, # of connection points: 4
#     Node 9, Type 0, BuildingBlock: UXUYUI_clean_sbu_0, # of connection points: 4
#     Node 10, Type 0, BuildingBlock: UXUYUI_clean_sbu_0, # of connection points: 4
#     Node 11, Type 0, BuildingBlock: UXUYUI_clean_sbu_0, # of connection points: 4
#     Node 12, Type 0, BuildingBlock: UXUYUI_clean_sbu_0, # of connection points: 4
#     Node 13, Type 0, BuildingBlock: UXUYUI_clean_sbu_0, # of connection points: 4
#     Node 14, Type 0, BuildingBlock: UXUYUI_clean_sbu_0, # of connection points: 4
#     Node 15, Type 0, BuildingBlock: UXUYUI_clean_sbu_0, # of connection points: 4
#     Node 16, Type 0, BuildingBlock: UXUYUI_clean_sbu_0, # of connection points: 4
#     Node 17, Type 0, BuildingBlock: UXUYUI_clean_sbu_0, # of connection points: 4
#     Node 18, Type 0, BuildingBlock: UXUYUI_clean_sbu_0, # of connection points: 4
#     Node 19, Type 0, BuildingBlock: UXUYUI_clean_sbu_0, # of connection points: 4
#     Node 20, Type 0, BuildingBlock: UXUYUI_clean_sbu_0, # of connection points: 4
#     Node 21, Type 0, BuildingBlock: UXUYUI_clean_sbu_0, # of connection points: 4
#     Node 22, Type 0, BuildingBlock: UXUYUI_clean_sbu_0, # of connection points: 4
#     Node 23, Type 0, BuildingBlock: UXUYUI_clean_sbu_0, # of connection points: 4
#     Node 24, Type 1, BuildingBlock: KUMBOL_clean_sbu_1, # of connection points: 6
#     Node 25, Type 1, BuildingBlock: KUMBOL_clean_sbu_1, # of connection points: 6
#     Node 26, Type 1, BuildingBlock: KUMBOL_clean_sbu_1, # of connection points: 6
#     Node 27, Type 1, BuildingBlock: KUMBOL_clean_sbu_1, # of connection points: 6
#     Node 28, Type 1, BuildingBlock: KUMBOL_clean_sbu_1, # of connection points: 6
#     Node 29, Type 1, BuildingBlock: KUMBOL_clean_sbu_1, # of connection points: 6
#     Node 30, Type 1, BuildingBlock: KUMBOL_clean_sbu_1, # of connection points: 6
#     Node 31, Type 1, BuildingBlock: KUMBOL_clean_sbu_1, # of connection points: 6
#     Node 32, Type 1, BuildingBlock: KUMBOL_clean_sbu_1, # of connection points: 6
#     Node 33, Type 1, BuildingBlock: KUMBOL_clean_sbu_1, # of connection points: 6
#     Node 34, Type 1, BuildingBlock: KUMBOL_clean_sbu_1, # of connection points: 6
#     Node 35, Type 1, BuildingBlock: KUMBOL_clean_sbu_1, # of connection points: 6
#     Node 36, Type 1, BuildingBlock: KUMBOL_clean_sbu_1, # of connection points: 6
#     Node 37, Type 1, BuildingBlock: KUMBOL_clean_sbu_1, # of connection points: 6
#     Node 38, Type 1, BuildingBlock: KUMBOL_clean_sbu_1, # of connection points: 6
#     Node 39, Type 1, BuildingBlock: KUMBOL_clean_sbu_1, # of connection points: 6
#     Edge 40, Type (0, 1), BuildingBlock: AJUNOK_clean_linker_0, # of connection points: 2
#     Edge 41, Type (0, 1), BuildingBlock: AJUNOK_clean_linker_0, # of connection points: 2
#     Edge 42, Type (0, 1), BuildingBlock: AJUNOK_clean_linker_0, # of connection points: 2
#     Edge 43, Type (0, 1), BuildingBlock: AJUNOK_clean_linker_0, # of connection points: 2
#     Edge 44, Type (0, 1), BuildingBlock: AJUNOK_clean_linker_0, # of connection points: 2
#     Edge 45, Type (0, 1), BuildingBlock: AJUNOK_clean_linker_0, # of connection points: 2
#     Edge 46, Type (0, 1), BuildingBlock: AJUNOK_clean_linker_0, # of connection points: 2
#     Edge 47, Type (0, 1), BuildingBlock: AJUNOK_clean_linker_0, # of connection points: 2
#     Edge 48, Type (0, 1), BuildingBlock: AJUNOK_clean_linker_0, # of connection points: 2
#     Edge 49, Type (0, 1), BuildingBlock: AJUNOK_clean_linker_0, # of connection points: 2
#     Edge 50, Type (0, 1), BuildingBlock: AJUNOK_clean_linker_0, # of connection points: 2
#     Edge 51, Type (0, 1), BuildingBlock: AJUNOK_clean_linker_0, # of connection points: 2
#     Edge 52, Type (0, 1), BuildingBlock: AJUNOK_clean_linker_0, # of connection points: 2
#     Edge 53, Type (0, 1), BuildingBlock: AJUNOK_clean_linker_0, # of connection points: 2
#     Edge 54, Type (0, 1), BuildingBlock: AJUNOK_clean_linker_0, # of connection points: 2
#     Edge 55, Type (0, 1), BuildingBlock: AJUNOK_clean_linker_0, # of connection points: 2
#     Edge 56, Type (0, 1), BuildingBlock: AJUNOK_clean_linker_0, # of connection points: 2
#     Edge 57, Type (0, 1), BuildingBlock: AJUNOK_clean_linker_0, # of connection points: 2
#     Edge 58, Type (0, 1), BuildingBlock: AJUNOK_clean_linker_0, # of connection points: 2
#     Edge 59, Type (0, 1), BuildingBlock: AJUNOK_clean_linker_0, # of connection points: 2
#     Edge 60, Type (0, 1), BuildingBlock: AJUNOK_clean_linker_0, # of connection points: 2
#     Edge 61, Type (0, 1), BuildingBlock: AJUNOK_clean_linker_0, # of connection points: 2
#     Edge 62, Type (0, 1), BuildingBlock: AJUNOK_clean_linker_0, # of connection points: 2
#     Edge 63, Type (0, 1), BuildingBlock: AJUNOK_clean_linker_0, # of connection points: 2
#     Edge 64, Type (0, 1), BuildingBlock: AJUNOK_clean_linker_0, # of connection points: 2
#     Edge 65, Type (0, 1), BuildingBlock: AJUNOK_clean_linker_0, # of connection points: 2
#     Edge 66, Type (0, 1), BuildingBlock: AJUNOK_clean_linker_0, # of connection points: 2
#     Edge 67, Type (0, 1), BuildingBlock: AJUNOK_clean_linker_0, # of connection points: 2
#     Edge 68, Type (0, 1), BuildingBlock: AJUNOK_clean_linker_0, # of connection points: 2
#     Edge 69, Type (0, 1), BuildingBlock: AJUNOK_clean_linker_0, # of connection points: 2
#     Edge 70, Type (0, 1), BuildingBlock: AJUNOK_clean_linker_0, # of connection points: 2
#     Edge 71, Type (0, 1), BuildingBlock: AJUNOK_clean_linker_0, # of connection points: 2
#     Edge 72, Type (0, 1), BuildingBlock: AJUNOK_clean_linker_0, # of connection points: 2
#     Edge 73, Type (0, 1), BuildingBlock: AJUNOK_clean_linker_0, # of connection points: 2
#     Edge 74, Type (0, 1), BuildingBlock: AJUNOK_clean_linker_0, # of connection points: 2
#     Edge 75, Type (0, 1), BuildingBlock: AJUNOK_clean_linker_0, # of connection points: 2
#     Edge 76, Type (0, 1), BuildingBlock: AJUNOK_clean_linker_0, # of connection points: 2
#     Edge 77, Type (0, 1), BuildingBlock: AJUNOK_clean_linker_0, # of connection points: 2
#     Edge 78, Type (0, 1), BuildingBlock: AJUNOK_clean_linker_0, # of connection points: 2
#     Edge 79, Type (0, 1), BuildingBlock: AJUNOK_clean_linker_0, # of connection points: 2
#     Edge 80, Type (0, 1), BuildingBlock: AJUNOK_clean_linker_0, # of connection points: 2
#     Edge 81, Type (0, 1), BuildingBlock: AJUNOK_clean_linker_0, # of connection points: 2
#     Edge 82, Type (0, 1), BuildingBlock: AJUNOK_clean_linker_0, # of connection points: 2
#     Edge 83, Type (0, 1), BuildingBlock: AJUNOK_clean_linker_0, # of connection points: 2
#     Edge 84, Type (0, 1), BuildingBlock: AJUNOK_clean_linker_0, # of connection points: 2
#     Edge 85, Type (0, 1), BuildingBlock: AJUNOK_clean_linker_0, # of connection points: 2
#     Edge 86, Type (0, 1), BuildingBlock: AJUNOK_clean_linker_0, # of connection points: 2
#     Edge 87, Type (0, 1), BuildingBlock: AJUNOK_clean_linker_0, # of connection points: 2
#     Edge 88, Type (0, 1), BuildingBlock: AJUNOK_clean_linker_0, # of connection points: 2
#     Edge 89, Type (0, 1), BuildingBlock: AJUNOK_clean_linker_0, # of connection points: 2
#     Edge 90, Type (0, 1), BuildingBlock: AJUNOK_clean_linker_0, # of connection points: 2
#     Edge 91, Type (0, 1), BuildingBlock: AJUNOK_clean_linker_0, # of connection points: 2
#     Edge 92, Type (0, 1), BuildingBlock: AJUNOK_clean_linker_0, # of connection points: 2
#     Edge 93, Type (0, 1), BuildingBlock: AJUNOK_clean_linker_0, # of connection points: 2
#     Edge 94, Type (0, 1), BuildingBlock: AJUNOK_clean_linker_0, # of connection points: 2
#     Edge 95, Type (0, 1), BuildingBlock: AJUNOK_clean_linker_0, # of connection points: 2
#     Edge 96, Type (0, 1), BuildingBlock: AJUNOK_clean_linker_0, # of connection points: 2
#     Edge 97, Type (0, 1), BuildingBlock: AJUNOK_clean_linker_0, # of connection points: 2
#     Edge 98, Type (0, 1), BuildingBlock: AJUNOK_clean_linker_0, # of connection points: 2
#     Edge 99, Type (0, 1), BuildingBlock: AJUNOK_clean_linker_0, # of connection points: 2
#     Edge 100, Type (0, 1), BuildingBlock: AJUNOK_clean_linker_0, # of connection points: 2
#     Edge 101, Type (0, 1), BuildingBlock: AJUNOK_clean_linker_0, # of connection points: 2
#     Edge 102, Type (0, 1), BuildingBlock: AJUNOK_clean_linker_0, # of connection points: 2
#     Edge 103, Type (0, 1), BuildingBlock: AJUNOK_clean_linker_0, # of connection points: 2
#     Edge 104, Type (0, 1), BuildingBlock: AJUNOK_clean_linker_0, # of connection points: 2
#     Edge 105, Type (0, 1), BuildingBlock: AJUNOK_clean_linker_0, # of connection points: 2
#     Edge 106, Type (0, 1), BuildingBlock: AJUNOK_clean_linker_0, # of connection points: 2
#     Edge 107, Type (0, 1), BuildingBlock: AJUNOK_clean_linker_0, # of connection points: 2
#     Edge 108, Type (0, 1), BuildingBlock: AJUNOK_clean_linker_0, # of connection points: 2
#     Edge 109, Type (0, 1), BuildingBlock: AJUNOK_clean_linker_0, # of connection points: 2
#     Edge 110, Type (0, 1), BuildingBlock: AJUNOK_clean_linker_0, # of connection points: 2
#     Edge 111, Type (0, 1), BuildingBlock: AJUNOK_clean_linker_0, # of connection points: 2
#     Edge 112, Type (0, 1), BuildingBlock: AJUNOK_clean_linker_0, # of connection points: 2
#     Edge 113, Type (0, 1), BuildingBlock: AJUNOK_clean_linker_0, # of connection points: 2
#     Edge 114, Type (0, 1), BuildingBlock: AJUNOK_clean_linker_0, # of connection points: 2
#     Edge 115, Type (0, 1), BuildingBlock: AJUNOK_clean_linker_0, # of connection points: 2
#     Edge 116, Type (0, 1), BuildingBlock: AJUNOK_clean_linker_0, # of connection points: 2
#     Edge 117, Type (0, 1), BuildingBlock: AJUNOK_clean_linker_0, # of connection points: 2
#     Edge 118, Type (0, 1), BuildingBlock: AJUNOK_clean_linker_0, # of connection points: 2
#     Edge 119, Type (0, 1), BuildingBlock: AJUNOK_clean_linker_0, # of connection points: 2
#     Edge 120, Type (0, 1), BuildingBlock: AJUNOK_clean_linker_0, # of connection points: 2
#     Edge 121, Type (0, 1), BuildingBlock: AJUNOK_clean_linker_0, # of connection points: 2
#     Edge 122, Type (0, 1), BuildingBlock: AJUNOK_clean_linker_0, # of connection points: 2
#     Edge 123, Type (0, 1), BuildingBlock: AJUNOK_clean_linker_0, # of connection points: 2
#     Edge 124, Type (0, 1), BuildingBlock: AJUNOK_clean_linker_0, # of connection points: 2
#     Edge 125, Type (0, 1), BuildingBlock: AJUNOK_clean_linker_0, # of connection points: 2
#     Edge 126, Type (0, 1), BuildingBlock: AJUNOK_clean_linker_0, # of connection points: 2
#     Edge 127, Type (0, 1), BuildingBlock: AJUNOK_clean_linker_0, # of connection points: 2
#     Edge 128, Type (0, 1), BuildingBlock: AJUNOK_clean_linker_0, # of connection points: 2
#     Edge 129, Type (0, 1), BuildingBlock: AJUNOK_clean_linker_0, # of connection points: 2
#     Edge 130, Type (0, 1), BuildingBlock: AJUNOK_clean_linker_0, # of connection points: 2
#     Edge 131, Type (0, 1), BuildingBlock: AJUNOK_clean_linker_0, # of connection points: 2
#     Edge 132, Type (0, 1), BuildingBlock: AJUNOK_clean_linker_0, # of connection points: 2
#     Edge 133, Type (0, 1), BuildingBlock: AJUNOK_clean_linker_0, # of connection points: 2
#     Edge 134, Type (0, 1), BuildingBlock: AJUNOK_clean_linker_0, # of connection points: 2
#     Edge 135, Type (0, 1), BuildingBlock: AJUNOK_clean_linker_0, # of connection points: 2
# Relax obj value: 0.098
# Max RMSD: 0.209
# Mean RMSD: 0.158
data_MOF--net-gar--node1-UXUYUI_clean_sbu_0--node2-KUMBOL_clean_sbu_1--edge1-AJUNOK_clean_linker_0
_symmetry_space_group_name_H-M    P1
_symmetry_Int_Tables_number       1
_symmetry_cell_setting            triclinic
loop_
_symmetry_equiv_pos_as_xyz
'x, y, z'
_cell_length_a     58.42805
_cell_length_b     58.419893
_cell_length_c     54.657878
_cell_angle_alpha  96.313025
_cell_angle_beta   96.259106
_cell_angle_gamma 101.42213
loop_
_atom_site_label
_atom_site_type_symbol
_atom_site_fract_x
_atom_site_fract_y
_atom_site_fract_z
_atom_type_partial_charge
Li0 Li 0.03162 0.31978 0.34839 0.0
Li1 Li 0.06033 0.34825 0.38413 0.0
Li2 Li 0.08002 0.32266 0.34998 0.0
Li3 Li 0.05707 0.30363 0.38235 0.0
C4 C 0.05581 0.36349 0.33026 0.0
N5 N 0.05047 0.39575 0.29792 0.0
C6 C 0.04755 0.3836 0.33799 0.0
C7 C 0.06133 0.35972 0.30612 0.0
C8 C 0.045 0.39973 0.32136 0.0
C9 C 0.05847 0.37624 0.29002 0.0
C10 C 0.01763 0.32243 0.40266 0.0
C11 C 1.00897 0.31665 0.44395 0.0
N12 N 0.98703 0.32063 0.43786 0.0
C13 C 0.99505 0.32661 0.39687 0.0
C14 C 0.02474 0.31756 0.42643 0.0
C15 C 0.97983 0.32559 0.4149 0.0
C16 C 0.98149 0.29501 0.33622 0.0
N17 N 0.99683 0.3148 0.33227 0.0
C18 C 0.96327 0.32946 0.31481 0.0
C19 C 0.98792 0.33184 0.32155 0.0
C20 C 0.94695 0.30945 0.31921 0.0
C21 C 0.95676 0.29207 0.33 0.0
H22 H 0.98834 0.28172 0.34524 0.0
H23 H 0.99982 0.34785 0.319 0.0
C24 C 0.08142 0.39297 0.41855 0.0
N25 N 0.0611 0.37848 0.40656 0.0
C26 C 0.08085 0.41349 0.43467 0.0
C27 C 0.03858 0.40407 0.42624 0.0
C28 C 0.03994 0.38393 0.41016 0.0
C29 C 0.05917 0.41943 0.43885 0.0
H30 H 0.09818 0.38856 0.41583 0.0
H31 H 0.02389 0.37262 0.40046 0.0
C32 C 0.05018 0.27517 0.32891 0.0
N33 N 0.04624 0.23515 0.29542 0.0
C34 C 0.05829 0.25577 0.33647 0.0
C35 C 0.04006 0.27425 0.30436 0.0
C36 C 0.05613 0.23568 0.31925 0.0
C37 C 0.03826 0.25386 0.28768 0.0
C38 C 0.10258 0.32961 0.40735 0.0
C39 C 0.12377 0.323 0.40355 0.0
C40 C 0.09846 0.33664 0.43145 0.0
C41 C 0.14044 0.32328 0.42399 0.0
C42 C 0.11561 0.33676 0.45142 0.0
N43 N 0.13605 0.33011 0.44731 0.0
C44 C 0.12475 0.33641 0.32474 0.0
C45 C 0.1185 0.29819 0.33578 0.0
C46 C 0.14677 0.33392 0.31696 0.0
N47 N 0.11084 0.31876 0.33427 0.0
C48 C 0.14055 0.29515 0.32862 0.0
C49 C 0.15573 0.31323 0.31929 0.0
H50 H 0.11903 0.3528 0.32338 0.0
H51 H 0.10789 0.28414 0.34354 0.0
C52 C 0.03365 0.2635 0.40128 0.0
N53 N 0.05544 0.27698 0.40106 0.0
C54 C 0.03087 0.24338 0.41333 0.0
C55 C 0.07302 0.251 0.42466 0.0
C56 C 0.075 0.27101 0.41232 0.0
C57 C 0.05069 0.23683 0.4253 0.0
H58 H 0.01836 0.26832 0.39193 0.0
H59 H 0.09223 0.28146 0.41141 0.0
O60 O 0.0592 0.34794 0.34649 0.0
O61 O 0.03251 0.32262 0.38499 0.0
O62 O 0.05167 0.29482 0.34554 0.0
O63 O 0.08622 0.32973 0.38752 0.0
H64 H 0.04332 0.38679 0.35668 0.0
H65 H 0.06785 0.34425 0.29995 0.0
H66 H 0.03874 0.41544 0.32711 0.0
H67 H 0.0627 0.37359 0.27127 0.0
H68 H 1.01417 0.31273 0.46237 0.0
H69 H 0.98937 0.33082 0.37873 0.0
H70 H 0.04216 0.31429 0.43123 0.0
H71 H 0.9623 0.32876 0.41064 0.0
H72 H 0.95705 0.34374 0.30706 0.0
H73 H 0.94537 0.27625 0.33385 0.0
H74 H 0.09729 0.42434 0.44417 0.0
H75 H 0.02142 0.40773 0.42852 0.0
H76 H 0.06614 0.25621 0.35543 0.0
H77 H 0.03362 0.28914 0.2983 0.0
H78 H 0.06228 0.22051 0.32483 0.0
H79 H 0.03047 0.25288 0.26861 0.0
H80 H 0.12735 0.31772 0.38504 0.0
H81 H 0.08223 0.34204 0.43467 0.0
H82 H 0.15688 0.31813 0.4213 0.0
H83 H 0.11269 0.34218 0.47019 0.0
H84 H 0.1565 0.34833 0.30899 0.0
H85 H 0.14586 0.27875 0.33114 0.0
H86 H 1.01329 0.2331 0.41343 0.0
H87 H 0.08883 0.24643 0.43317 0.0
Li88 Li 0.03463 0.77987 0.68938 0.0
Li89 Li 0.05868 0.76377 0.7238 0.0
Li90 Li 0.02902 0.73501 0.68797 0.0
Li91 Li 1.00993 0.76084 0.72186 0.0
C92 C 0.07323 0.76226 0.66995 0.0
N93 N 0.10432 0.76768 0.63536 0.0
C94 C 0.09639 0.77489 0.67713 0.0
C95 C 0.06587 0.75239 0.6452 0.0
C96 C 0.11184 0.77744 0.65937 0.0
C97 C 0.08186 0.75533 0.62798 0.0
C98 C 0.04417 0.80872 0.74328 0.0
C99 C 0.04362 0.82858 0.7842 0.0
N100 N 0.05484 0.84912 0.77735 0.0
C101 C 0.05577 0.82998 0.73666 0.0
C102 C 0.03806 0.80795 0.76723 0.0
C103 C 0.06098 0.85023 0.75414 0.0
C104 C 0.01652 0.81287 0.66078 0.0
N105 N 0.03644 0.80608 0.66988 0.0
C106 C 0.06029 0.83814 0.65428 0.0
C107 C 0.05807 0.81831 0.66678 0.0
C108 C 0.04009 0.84549 0.64459 0.0
C109 C 0.01794 0.83247 0.64779 0.0
H110 H 0.99949 0.80331 0.66388 0.0
H111 H 0.0737 0.81304 0.67458 0.0
C112 C 0.1035 0.7482 0.73581 0.0
N113 N 0.09328 0.76712 0.74021 0.0
C114 C 0.12802 0.74988 0.7424 0.0
C115 C 0.13188 0.79045 0.7586 0.0
C116 C 0.10722 0.78803 0.75169 0.0
C117 C 0.14309 0.77138 0.75357 0.0
H118 H 0.09271 0.73171 0.72635 0.0
H119 H 0.09946 0.80328 0.75475 0.0
C120 C 0.98695 0.75153 0.66492 0.0
N121 N 0.95101 0.74492 0.62593 0.0
C122 C 0.96348 0.74578 0.66915 0.0
C123 C 0.9922 0.7538 0.64086 0.0
C124 C 0.94555 0.74249 0.6492 0.0
C125 C 0.97376 0.75047 0.62139 0.0
C126 C 0.03028 0.71865 0.74068 0.0
C127 C 0.02003 0.69526 0.73108 0.0
C128 C 0.04008 0.72435 0.76561 0.0
C129 C 0.01976 0.67784 0.74669 0.0
C130 C 0.03943 0.70642 0.78063 0.0
N131 N 0.02938 0.68374 0.77093 0.0
C132 C 0.04674 0.6947 0.66778 0.0
C133 C 1.00846 0.69418 0.64852 0.0
C134 C 0.04777 0.67425 0.65193 0.0
N135 N 0.02735 0.70447 0.66588 0.0
C136 C 1.00877 0.67368 0.63227 0.0
C137 C 0.02876 0.66341 0.63348 0.0
H138 H 0.06174 0.70304 0.68144 0.0
H139 H 0.99312 0.70194 0.64702 0.0
C140 C 0.97401 0.787 0.74101 0.0
N141 N 0.9787 0.7649 0.73688 0.0
C142 C 0.95211 0.79069 0.74814 0.0
C143 C 0.93928 0.74899 0.74659 0.0
C144 C 0.96158 0.74607 0.73992 0.0
C145 C 0.93387 0.77157 0.75073 0.0
H146 H 0.98709 0.80204 0.73817 0.0
H147 H 0.96479 0.72847 0.73639 0.0
O148 O 0.05799 0.75918 0.68717 0.0
O149 O 0.03827 0.78884 0.72625 0.0
O150 O 1.00465 0.75518 0.68436 0.0
O151 O 0.03108 0.73585 0.72561 0.0
H152 H 0.10235 0.78279 0.69617 0.0
H153 H 0.04803 0.74249 0.63937 0.0
H154 H 0.1298 0.7872 0.66466 0.0
H155 H 0.07644 0.74775 0.60876 0.0
H156 H 0.03895 0.82828 0.8028 0.0
H157 H 0.06062 0.83088 0.71822 0.0
H158 H 0.029 0.7916 0.77257 0.0
H159 H 0.06987 0.86684 0.74925 0.0
H160 H 0.07771 0.84767 0.65219 0.0
H161 H 1.00194 0.8377 0.64082 0.0
H162 H 0.13503 0.73425 0.73859 0.0
H163 H 0.14222 0.80752 0.76705 0.0
H164 H 0.95912 0.74386 0.68763 0.0
H165 H 1.01031 0.75833 0.63732 0.0
H166 H 0.92729 0.73805 0.65222 0.0
H167 H 0.97752 0.75232 0.60268 0.0
H168 H 1.01241 0.69061 0.71177 0.0
H169 H 0.04815 0.74241 0.77323 0.0
H170 H 1.01191 0.65964 0.73953 0.0
H171 H 0.04695 0.71053 0.79998 0.0
H172 H 0.06364 0.66731 0.65376 0.0
H173 H 0.99333 0.6659 0.61898 0.0
H174 H 0.9492 0.80848 0.7508 0.0
H175 H 0.92624 0.7335 0.7484 0.0
Li176 Li 0.53267 0.8209 0.84754 0.0
Li177 Li 0.5614 0.84888 0.88362 0.0
Li178 Li 0.58117 0.82305 0.84974 0.0
Li179 Li 0.55732 0.80449 0.88176 0.0
C180 C 0.55709 0.86425 0.82976 0.0
N181 N 0.55087 0.8963 0.79741 0.0
C182 C 0.54825 0.884 0.83744 0.0
C183 C 0.56276 0.86074 0.80565 0.0
C184 C 0.54525 0.90002 0.82082 0.0
C185 C 0.55945 0.87715 0.78955 0.0
C186 C 0.51889 0.82358 0.90245 0.0
C187 C 0.51297 0.82062 0.94507 0.0
N188 N 0.48987 0.82111 0.93918 0.0
C189 C 0.49509 0.82407 0.89683 0.0
C190 C 0.52794 0.82191 0.92677 0.0
C191 C 0.48071 0.82283 0.91565 0.0
C192 C 0.48373 0.79467 0.8262 0.0
N193 N 0.49803 0.81667 0.83094 0.0
C194 C 0.46334 0.83324 0.82223 0.0
C195 C 0.48805 0.83579 0.82865 0.0
C196 C 0.44796 0.8108 0.81814 0.0
C197 C 0.45897 0.79138 0.81965 0.0
H198 H 0.49137 0.77946 0.82834 0.0
H199 H 0.49908 0.85329 0.83299 0.0
C200 C 0.58213 0.89154 0.92083 0.0
N201 N 0.56228 0.87887 0.90611 0.0
C202 C 0.58134 0.91174 0.93728 0.0
C203 C 0.53995 0.90613 0.92294 0.0
C204 C 0.5414 0.88585 0.90714 0.0
C205 C 0.56005 0.9194 0.93845 0.0
H206 H 0.59862 0.88591 0.92005 0.0
H207 H 0.52568 0.87562 0.89565 0.0
C208 C 0.55034 0.77558 0.82858 0.0
N209 N 0.5454 0.73502 0.79559 0.0
C210 C 0.55819 0.75613 0.83633 0.0
C211 C 0.53994 0.77443 0.80409 0.0
C212 C 0.55554 0.73577 0.81936 0.0
C213 C 0.53762 0.75376 0.78768 0.0
C214 C 0.60319 0.82913 0.90696 0.0
C215 C 0.62376 0.82137 0.90282 0.0
C216 C 0.59981 0.8368 0.93116 0.0
C217 C 0.64052 0.82117 0.92303 0.0
C218 C 0.61697 0.83632 0.95089 0.0
N219 N 0.6368 0.82858 0.94646 0.0
C220 C 0.6281 0.83724 0.82829 0.0
C221 C 0.61825 0.79728 0.83355 0.0
C222 C 0.65019 0.83429 0.82099 0.0
N223 N 0.61229 0.81888 0.83457 0.0
C224 C 0.6402 0.79367 0.8266 0.0
C225 C 0.65696 0.81224 0.82011 0.0
H226 H 0.62397 0.85455 0.82951 0.0
H227 H 0.60625 0.78269 0.83893 0.0
C228 C 0.53346 0.76786 0.90586 0.0
N229 N 0.55519 0.77835 0.90114 0.0
C230 C 0.53072 0.74887 0.91958 0.0
C231 C 0.57259 0.75081 0.92239 0.0
C232 C 0.57461 0.77011 0.90899 0.0
C233 C 0.55044 0.74014 0.92802 0.0
H234 H 0.51815 0.77414 0.89883 0.0
H235 H 0.59164 0.77821 0.9045 0.0
O236 O 0.56081 0.84875 0.84598 0.0
O237 O 0.53303 0.82394 0.88405 0.0
O238 O 0.55236 0.79553 0.84496 0.0
O239 O 0.5869 0.83003 0.88732 0.0
H240 H 0.54386 0.88699 0.85605 0.0
H241 H 0.56973 0.84555 0.79951 0.0
H242 H 0.53851 0.91544 0.82654 0.0
H243 H 0.56378 0.8747 0.77082 0.0
H244 H 0.5197 0.81909 0.96392 0.0
H245 H 0.48771 0.8253 0.87815 0.0
H246 H 0.54617 0.82105 0.93135 0.0
H247 H 0.46225 0.82315 0.91153 0.0
H248 H 0.45626 0.84897 0.82149 0.0
H249 H 0.44856 0.77356 0.81599 0.0
H250 H 0.5973 0.9214 0.94886 0.0
H251 H 0.52312 0.91119 0.9233 0.0
H252 H 0.56627 0.75674 0.85523 0.0
H253 H 0.53368 0.78935 0.79788 0.0
H254 H 0.56154 0.72057 0.8251 0.0
H255 H 0.52961 0.7526 0.76866 0.0
H256 H 0.62681 0.81561 0.88423 0.0
H257 H 0.58426 0.84335 0.93467 0.0
H258 H 0.65651 0.81519 0.92008 0.0
H259 H 0.61459 0.84222 0.96973 0.0
H260 H 0.66222 0.84956 0.81686 0.0
H261 H 0.644 0.77625 0.82636 0.0
H262 H 0.51329 0.74077 0.92317 0.0
H263 H 0.58814 0.74434 0.92837 0.0
Li264 Li 0.53456 0.28039 0.1892 0.0
Li265 Li 0.55759 0.26348 0.22338 0.0
Li266 Li 0.52881 0.23537 0.18682 0.0
Li267 Li 0.50909 0.26054 0.22074 0.0
C268 C 0.57298 0.2636 0.16965 0.0
N269 N 0.60357 0.27067 0.13473 0.0
C270 C 0.59668 0.27437 0.1771 0.0
C271 C 0.5648 0.25656 0.14442 0.0
C272 C 0.61186 0.2778 0.15917 0.0
C273 C 0.58057 0.26022 0.12706 0.0
C274 C 0.54363 0.3083 0.24328 0.0
C275 C 0.54324 0.32803 0.28431 0.0
N276 N 0.55522 0.3484 0.27778 0.0
C277 C 0.55601 0.32938 0.237 0.0
C278 C 0.53718 0.30756 0.2671 0.0
C279 C 0.56166 0.34949 0.25469 0.0
C280 C 0.51851 0.31563 0.16199 0.0
N281 N 0.53753 0.30702 0.17035 0.0
C282 C 0.56319 0.33702 0.15382 0.0
C283 C 0.55959 0.31756 0.16672 0.0
C284 C 0.54401 0.34635 0.1448 0.0
C285 C 0.52136 0.33539 0.14917 0.0
H286 H 0.50114 0.30736 0.16553 0.0
H287 H 0.57458 0.31119 0.17427 0.0
C288 C 0.60262 0.24863 0.23291 0.0
N289 N 0.59174 0.26647 0.24009 0.0
C290 C 0.62718 0.25061 0.23929 0.0
C291 C 0.62958 0.28902 0.26132 0.0
C292 C 0.60495 0.28646 0.25425 0.0
C293 C 0.64139 0.27108 0.25363 0.0
H294 H 0.5924 0.23304 0.22115 0.0
H295 H 0.59665 0.30096 0.25935 0.0
C296 C 0.48659 0.25153 0.16391 0.0
N297 N 0.44995 0.2443 0.12558 0.0
C298 C 0.46346 0.24313 0.16816 0.0
C299 C 0.49115 0.25607 0.14015 0.0
C300 C 0.44516 0.23966 0.14855 0.0
C301 C 0.47236 0.25232 0.12101 0.0
C302 C 0.52971 0.21853 0.23969 0.0
C303 C 0.52096 0.1948 0.23033 0.0
C304 C 0.53855 0.22497 0.26483 0.0
C305 C 0.52118 0.1778 0.24638 0.0
C306 C 0.53848 0.20743 0.28028 0.0
N307 N 0.52987 0.18441 0.27081 0.0
C308 C 0.5495 0.20157 0.15921 0.0
C309 C 0.5082 0.18898 0.15454 0.0
C310 C 0.55145 0.18169 0.14317 0.0
N311 N 0.52811 0.20526 0.16444 0.0
C312 C 0.50943 0.16835 0.13893 0.0
C313 C 0.53133 0.16437 0.1326 0.0
H314 H 0.56531 0.2142 0.16743 0.0
H315 H 0.49127 0.19177 0.15894 0.0
C316 C 0.46575 0.27985 0.22493 0.0
N317 N 0.47762 0.26444 0.23519 0.0
C318 C 0.44367 0.28311 0.23176 0.0
C319 C 0.44581 0.25532 0.26051 0.0
C320 C 0.46778 0.25228 0.25287 0.0
C321 C 0.43301 0.27087 0.2499 0.0
H322 H 0.47322 0.28955 0.2109 0.0
H323 H 0.47676 0.23986 0.26104 0.0
O324 O 0.55791 0.25977 0.18697 0.0
O325 O 0.53734 0.28858 0.22607 0.0
O326 O 0.50458 0.25577 0.1831 0.0
O327 O 0.52992 0.23535 0.22421 0.0
H328 H 0.60327 0.28036 0.19646 0.0
H329 H 0.54652 0.24817 0.13834 0.0
H330 H 0.63023 0.28617 0.16469 0.0
H331 H 0.57453 0.25471 0.10748 0.0
H332 H 0.53836 0.32775 0.30282 0.0
H333 H 0.56112 0.33025 0.21865 0.0
H334 H 0.52753 0.29135 0.27219 0.0
H335 H 0.57115 0.36596 0.25006 0.0
H336 H 0.58098 0.34468 0.1509 0.0
H337 H 0.50606 0.34222 0.14318 0.0
H338 H 0.63503 0.23617 0.23275 0.0
H339 H 0.63944 0.30543 0.27189 0.0
H340 H 0.45967 0.23936 0.18642 0.0
H341 H 0.50897 0.26265 0.13661 0.0
H342 H 0.42715 0.23329 0.1516 0.0
H343 H 0.47559 0.25587 0.10253 0.0
H344 H 0.51409 0.18958 0.21089 0.0
H345 H 0.54546 0.24331 0.27227 0.0
H346 H 0.51446 0.15935 0.23942 0.0
H347 H 0.5453 0.21211 0.29978 0.0
H348 H 0.56882 0.18015 0.13906 0.0
H349 H 0.49329 0.1555 0.13238 0.0
H350 H 0.43505 0.29541 0.22287 0.0
H351 H 0.43864 0.24501 0.27425 0.0
Li352 Li 0.07688 0.82573 0.0998 0.0
Li353 Li 0.10234 0.80633 0.13373 0.0
Li354 Li 0.0734 0.77692 0.09782 0.0
Li355 Li 0.0574 0.80142 0.1321 0.0
C356 C 0.11869 0.80589 0.08081 0.0
N357 N 0.15328 0.80864 0.05003 0.0
C358 C 0.1421 0.816 0.09042 0.0
C359 C 0.1128 0.7972 0.05558 0.0
C360 C 0.15936 0.81721 0.07454 0.0
C361 C 0.13057 0.79877 0.0403 0.0
C362 C 0.08532 0.84919 0.15602 0.0
C363 C 0.08332 0.86366 0.19857 0.0
N364 N 0.09033 0.88613 0.19367 0.0
C365 C 0.09253 0.87239 0.15138 0.0
C366 C 0.08071 0.84471 0.17978 0.0
C367 C 0.09497 0.89084 0.17067 0.0
C368 C 0.05382 0.86617 0.08989 0.0
N369 N 0.07295 0.85701 0.08488 0.0
C370 C 0.08638 0.89165 0.06472 0.0
C371 C 0.08903 0.86957 0.07226 0.0
C372 C 0.06709 0.90189 0.07017 0.0
C373 C 0.05057 0.88818 0.08274 0.0
H374 H 0.04105 0.85661 0.10006 0.0
H375 H 0.10429 0.8627 0.0682 0.0
C376 C 0.13601 0.78545 0.16095 0.0
N377 N 0.13257 0.80694 0.15583 0.0
C378 C 0.15564 0.78325 0.17715 0.0
C379 C 0.16939 0.82523 0.18168 0.0
C380 C 0.14888 0.82674 0.16605 0.0
C381 C 0.17329 0.80318 0.18753 0.0
H382 H 0.12326 0.76975 0.15267 0.0
H383 H 0.14613 0.84379 0.16202 0.0
C384 C 0.0285 0.79232 0.07878 0.0
N385 N 0.98752 0.78236 0.04566 0.0
C386 C 1.0074 0.78085 0.08585 0.0
C387 C 0.02882 0.79871 0.05491 0.0
C388 C 0.98684 0.776 0.06882 0.0
C389 C 1.0079 0.79349 0.03841 0.0
C390 C 0.07446 0.76258 0.15184 0.0
C391 C 0.06283 0.73907 0.1447 0.0
C392 C 0.08255 0.77071 0.17693 0.0
C393 C 0.05974 0.72399 0.16275 0.0
C394 C 0.07912 0.75506 0.19442 0.0
N395 N 0.0679 0.73222 0.18702 0.0
C396 C 0.08783 0.73132 0.08835 0.0
C397 C 0.04923 0.7288 0.06892 0.0
C398 C 0.08549 0.70661 0.08255 0.0
N399 N 0.06978 0.7422 0.08186 0.0
C400 C 0.04631 0.70402 0.06245 0.0
C401 C 0.06442 0.69232 0.0696 0.0
H402 H 0.1039 0.74168 0.09912 0.0
H403 H 0.03463 0.73711 0.0643 0.0
C404 C 0.01904 0.8182 0.15151 0.0
N405 N 0.03125 0.80058 0.15163 0.0
C406 C 0.99965 0.8177 0.16474 0.0
C407 C 1.006 0.78128 0.17831 0.0
C408 C 0.02481 0.78221 0.1645 0.0
C409 C 0.99313 0.79913 0.17857 0.0
H410 H 0.02418 0.83251 0.1409 0.0
H411 H 0.03384 0.7679 0.16385 0.0
O412 O 0.10165 0.8042 0.09612 0.0
O413 O 0.08255 0.831 0.13724 0.0
O414 O 0.0487 0.79771 0.09527 0.0
O415 O 0.0776 0.77764 0.13445 0.0
H416 H 0.14688 0.82279 0.10993 0.0
H417 H 0.09472 0.78928 0.04794 0.0
H418 H 0.17757 0.82494 0.08172 0.0
H419 H 0.12632 0.7921 0.02073 0.0
H420 H 0.07974 0.8605 0.21706 0.0
H421 H 0.09626 0.87612 0.13308 0.0
H422 H 0.07505 0.82683 0.18361 0.0
H423 H 0.10054 0.9089 0.16735 0.0
H424 H 0.0995 0.90051 0.05447 0.0
H425 H 0.03536 0.89468 0.08771 0.0
H426 H 0.1565 0.76588 0.18168 0.0
H427 H 0.18216 0.8413 0.18891 0.0
H428 H 1.00689 0.77583 0.10429 0.0
H429 H 0.04505 0.80767 0.04925 0.0
H430 H 0.97034 0.7672 0.07403 0.0
H431 H 1.00785 0.79834 0.01987 0.0
H432 H 0.05593 0.73257 0.12551 0.0
H433 H 0.09135 0.78892 0.1828 0.0
H434 H 0.05077 0.70576 0.15747 0.0
H435 H 0.08534 0.76108 0.21388 0.0
H436 H 0.10002 0.69866 0.08853 0.0
H437 H 0.02967 0.69396 0.05256 0.0
H438 H 0.98991 0.83164 0.16422 0.0
H439 H 1.00112 0.76633 0.1882 0.0
Li440 Li 0.51747 0.80485 0.47291 0.0
Li441 Li 0.48923 0.77675 0.43652 0.0
Li442 Li 0.51487 0.75625 0.47022 0.0
Li443 Li 0.53407 0.78046 0.43839 0.0
C444 C 0.47398 0.78061 0.49046 0.0
N445 N 0.44216 0.78672 0.52313 0.0
C446 C 0.45395 0.78901 0.48282 0.0
C447 C 0.4779 0.77533 0.51467 0.0
C448 C 0.43804 0.79196 0.49962 0.0
C449 C 0.4616 0.77857 0.53094 0.0
C450 C 0.515 0.81924 0.41832 0.0
C451 C 0.51739 0.82547 0.37572 0.0
N452 N 0.51656 0.84847 0.38184 0.0
C453 C 0.51414 0.84293 0.42419 0.0
C454 C 0.51653 0.81037 0.39389 0.0
C455 C 0.51493 0.85742 0.40548 0.0
C456 C 0.54363 0.85401 0.49228 0.0
N457 N 0.52188 0.83938 0.48986 0.0
C458 C 0.50555 0.87366 0.50158 0.0
C459 C 0.50301 0.84901 0.49456 0.0
C460 C 0.52776 0.88932 0.50392 0.0
C461 C 0.54691 0.87872 0.49917 0.0
H462 H 0.55851 0.8467 0.48775 0.0
H463 H 0.48562 0.83774 0.49197 0.0
C464 C 0.44433 0.75694 0.40134 0.0
N465 N 0.45908 0.77673 0.41418 0.0
C466 C 0.42412 0.75847 0.38525 0.0
C467 C 0.43417 0.80057 0.3958 0.0
C468 C 0.45403 0.79827 0.4117 0.0
C469 C 0.41883 0.78058 0.38188 0.0
H470 H 0.4483 0.73987 0.40333 0.0
H471 H 0.46547 0.8139 0.42217 0.0
C472 C 0.56241 0.78667 0.49182 0.0
N473 N 0.60254 0.79097 0.52518 0.0
C474 C 0.58181 0.7786 0.48422 0.0
C475 C 0.56336 0.79692 0.51634 0.0
C476 C 0.60196 0.78095 0.50138 0.0
C477 C 0.58382 0.79891 0.53295 0.0
C478 C 0.50897 0.73459 0.41315 0.0
C479 C 0.51854 0.71506 0.41749 0.0
C480 C 0.49949 0.73663 0.3891 0.0
C481 C 0.51848 0.69785 0.39761 0.0
C482 C 0.49976 0.71903 0.36971 0.0
N483 N 0.50915 0.70016 0.37433 0.0
C484 C 0.50099 0.70452 0.47768 0.0
C485 C 0.5379 0.72261 0.50006 0.0
C486 C 0.50349 0.68221 0.48459 0.0
N487 N 0.51804 0.72458 0.48525 0.0
C488 C 0.54102 0.7006 0.50753 0.0
C489 C 0.52373 0.67951 0.49996 0.0
H490 H 0.48549 0.70551 0.46539 0.0
H491 H 0.55181 0.73808 0.50592 0.0
C492 C 0.57168 0.80498 0.41558 0.0
N493 N 0.56059 0.78297 0.41897 0.0
C494 C 0.59078 0.80813 0.40194 0.0
C495 C 0.58756 0.76604 0.3961 0.0
C496 C 0.56832 0.76365 0.40969 0.0
C497 C 0.5989 0.78851 0.39197 0.0
H498 H 0.5657 0.82017 0.4235 0.0
H499 H 0.55977 0.74634 0.41299 0.0
O500 O 0.48935 0.7769 0.47408 0.0
O501 O 0.51472 0.8049 0.4365 0.0
O502 O 0.54265 0.78488 0.47529 0.0
O503 O 0.50805 0.75114 0.43252 0.0
H504 H 0.45065 0.79308 0.4641 0.0
H505 H 0.49331 0.76871 0.52077 0.0
H506 H 0.4224 0.79836 0.49395 0.0
H507 H 0.46435 0.77453 0.54974 0.0
H508 H 0.51876 0.8189 0.35676 0.0
H509 H 0.51282 0.85008 0.44294 0.0
H510 H 0.51734 0.79211 0.38909 0.0
H511 H 0.51427 0.87578 0.40976 0.0
H512 H 0.49003 0.88039 0.50488 0.0
H513 H 0.56434 0.88948 0.49968 0.0
H514 H 0.41297 0.74245 0.37513 0.0
H515 H 0.43077 0.81801 0.39469 0.0
H516 H 0.58131 0.77063 0.46529 0.0
H517 H 0.54845 0.8033 0.52243 0.0
H518 H 0.61715 0.77483 0.49577 0.0
H519 H 0.58483 0.80679 0.552 0.0
H520 H 0.52608 0.71329 0.43597 0.0
H521 H 0.49185 0.75156 0.38549 0.0
H522 H 0.52583 0.68264 0.40069 0.0
H523 H 0.49242 0.72033 0.35099 0.0
H524 H 0.48974 0.66701 0.47707 0.0
H525 H 0.55706 0.70022 0.51928 0.0
H526 H 0.59922 0.82576 0.39926 0.0
H527 H 0.5934 0.75051 0.38876 0.0
Li528 Li 0.57709 0.32596 0.6013 0.0
Li529 Li 0.60188 0.30605 0.63486 0.0
Li530 Li 0.57274 0.27717 0.59899 0.0
Li531 Li 0.55738 0.30171 0.63348 0.0
C532 C 0.61824 0.30565 0.58183 0.0
N533 N 0.65262 0.30829 0.55079 0.0
C534 C 0.64163 0.31615 0.59119 0.0
C535 C 0.61228 0.29648 0.55673 0.0
C536 C 0.65877 0.31731 0.57518 0.0
C537 C 0.62994 0.298 0.54132 0.0
C538 C 0.58602 0.34925 0.6577 0.0
C539 C 0.5846 0.36366 0.70043 0.0
N540 N 0.59166 0.38614 0.69557 0.0
C541 C 0.59331 0.37246 0.65313 0.0
C542 C 0.58168 0.34476 0.68153 0.0
C543 C 0.59606 0.39088 0.67252 0.0
C544 C 0.55154 0.36236 0.58421 0.0
N545 N 0.57348 0.35721 0.58645 0.0
C546 C 0.58882 0.39591 0.57458 0.0
C547 C 0.59199 0.37378 0.58159 0.0
C548 C 0.56631 0.40164 0.57203 0.0
C549 C 0.54761 0.38408 0.57699 0.0
H550 H 0.53684 0.34974 0.58859 0.0
H551 H 0.60952 0.37022 0.58374 0.0
C552 C 0.63655 0.28541 0.66123 0.0
N553 N 0.63194 0.30674 0.65689 0.0
C554 C 0.6565 0.28383 0.67737 0.0
C555 C 0.66769 0.32617 0.68382 0.0
C556 C 0.64716 0.32699 0.66793 0.0
C557 C 0.67257 0.30434 0.68892 0.0
H558 H 0.62457 0.26942 0.65224 0.0
H559 H 0.64341 0.34384 0.6645 0.0
C560 C 0.52868 0.29276 0.57971 0.0
N561 N 0.48838 0.2825 0.54559 0.0
C562 C 0.50733 0.28135 0.5863 0.0
C563 C 0.5296 0.29891 0.5558 0.0
C564 C 0.48712 0.27634 0.56877 0.0
C565 C 0.50901 0.29356 0.53879 0.0
C566 C 0.57451 0.26349 0.65407 0.0
C567 C 0.56454 0.23943 0.64824 0.0
C568 C 0.58231 0.27311 0.67883 0.0
C569 C 0.56242 0.22538 0.66729 0.0
C570 C 0.57996 0.25846 0.69737 0.0
N571 N 0.57013 0.2351 0.69127 0.0
C572 C 0.5873 0.2335 0.57809 0.0
C573 C 0.54641 0.22776 0.57933 0.0
C574 C 0.58527 0.20895 0.57121 0.0
N575 N 0.56806 0.2427 0.58223 0.0
C576 C 0.54372 0.20303 0.57298 0.0
C577 C 0.56331 0.19302 0.56894 0.0
H578 H 0.60455 0.24508 0.58101 0.0
H579 H 0.53121 0.23482 0.58317 0.0
C580 C 0.52341 0.32056 0.65945 0.0
N581 N 0.53127 0.3006 0.65277 0.0
C582 C 0.50396 0.31967 0.67258 0.0
C583 C 0.50072 0.27769 0.67125 0.0
C584 C 0.52027 0.2794 0.65837 0.0
C585 C 0.49235 0.29797 0.67848 0.0
H586 H 0.53209 0.33716 0.65437 0.0
H587 H 0.52633 0.26366 0.6524 0.0
O588 O 0.60131 0.304 0.59728 0.0
O589 O 0.58268 0.33111 0.63873 0.0
O590 O 0.54853 0.29839 0.59674 0.0
O591 O 0.577 0.27745 0.63559 0.0
H592 H 0.64647 0.32328 0.61062 0.0
H593 H 0.59423 0.28822 0.54929 0.0
H594 H 0.67696 0.32535 0.58216 0.0
H595 H 0.62563 0.29098 0.52183 0.0
H596 H 0.58116 0.36047 0.71895 0.0
H597 H 0.59681 0.37624 0.63481 0.0
H598 H 0.57578 0.32692 0.68532 0.0
H599 H 0.60165 0.40894 0.66922 0.0
H600 H 0.60401 0.40845 0.57106 0.0
H601 H 0.52993 0.3873 0.57596 0.0
H602 H 0.65953 0.26661 0.68048 0.0
H603 H 0.67947 0.34249 0.69233 0.0
H604 H 0.50634 0.2765 0.60475 0.0
H605 H 0.54603 0.30783 0.5505 0.0
H606 H 0.47044 0.26759 0.57362 0.0
H607 H 0.50943 0.29825 0.52022 0.0
H608 H 0.55844 0.23164 0.62925 0.0
H609 H 0.59036 0.29161 0.68365 0.0
H610 H 0.55468 0.20675 0.66301 0.0
H611 H 0.58602 0.26565 0.7166 0.0
H612 H 0.60103 0.20239 0.56856 0.0
H613 H 0.52636 0.19178 0.57143 0.0
H614 H 0.49782 0.33562 0.67772 0.0
H615 H 0.49212 0.26065 0.67546 0.0
Li616 Li 0.01648 0.30376 0.97437 0.0
Li617 Li 0.98871 0.27589 0.93759 0.0
Li618 Li 1.01452 0.25565 0.9714 0.0
Li619 Li 0.03391 0.28044 0.94023 0.0
C620 C 0.97301 0.27984 0.99114 0.0
N621 N 0.94111 0.28728 0.02329 0.0
C622 C 0.9534 0.28874 0.98312 0.0
C623 C 0.97646 0.27474 0.01547 0.0
C624 C 0.93745 0.29236 0.99966 0.0
C625 C 0.96012 0.27865 0.03147 0.0
C626 C 0.01622 0.31965 0.92085 0.0
C627 C 0.02282 0.32804 0.87968 0.0
N628 N 0.021 0.3507 0.88617 0.0
C629 C 1.01425 0.34299 0.92707 0.0
C630 C 0.02032 0.31203 0.89691 0.0
C631 C 0.01674 0.35841 0.9093 0.0
C632 C 0.04161 0.35285 0.99065 0.0
N633 N 0.02065 0.33782 0.99148 0.0
C634 C 1.0047 0.37153 1.00595 0.0
C635 C 1.00243 0.34689 0.99937 0.0
C636 C 0.02579 0.38757 1.00409 0.0
C637 C 0.04454 0.37753 0.99687 0.0
H638 H 0.05592 0.34582 0.98397 0.0
H639 H 0.98563 0.33518 0.99955 0.0
C640 C 0.94213 0.25547 0.90533 0.0
N641 N 0.95861 0.27539 0.9149 0.0
C642 C 0.92187 0.25657 0.88904 0.0
C643 C 0.93552 0.29854 0.89264 0.0
C644 C 0.95524 0.2967 0.90899 0.0
C645 C 0.91842 0.27833 0.88204 0.0
H646 H 0.9447 0.2386 0.91014 0.0
H647 H 0.96787 0.31254 0.91705 0.0
C648 C 0.06211 0.2866 0.99313 0.0
N649 N 0.10299 0.29131 0.02549 0.0
C650 C 0.08044 0.27645 0.98579 0.0
C651 C 0.06454 0.29918 0.01687 0.0
C652 C 0.10099 0.27904 1.00244 0.0
C653 C 0.08535 0.30133 0.03298 0.0
C654 C 1.00895 0.23384 0.91484 0.0
C655 C 0.02055 0.21568 0.91933 0.0
C656 C 0.99747 0.23413 0.89111 0.0
C657 C 0.02042 0.19797 0.89991 0.0
C658 C 0.9978 0.21613 0.87217 0.0
N659 N 1.00914 0.19855 0.87693 0.0
C660 C 1.00016 0.20472 0.98139 0.0
C661 C 0.03925 0.22192 0.99831 0.0
C662 C 1.00301 0.18248 0.98821 0.0
N663 N 0.01817 0.22423 0.9862 0.0
C664 C 0.04285 0.19996 1.00535 0.0
C665 C 0.0248 0.17931 1.00002 0.0
H666 H 0.98344 0.20611 0.97168 0.0
H667 H 0.05378 0.23699 1.00213 0.0
C668 C 0.07994 0.3016 0.93084 0.0
N669 N 0.06101 0.2839 0.92166 0.0
C670 C 0.09995 0.30537 0.91853 0.0
C671 C 0.08077 0.27282 0.88732 0.0
C672 C 0.06119 0.26957 0.9003 0.0
C673 C 0.10062 0.2909 0.89637 0.0
H674 H 0.07947 0.3129 0.94776 0.0
H675 H 0.04602 0.25583 0.89294 0.0
O676 O 0.98844 0.27556 0.97505 0.0
O677 O 1.01403 0.30434 0.93809 0.0
O678 O 0.0419 0.28446 0.97714 0.0
O679 O 1.0082 0.25089 0.93374 0.0
H680 H 0.9505 0.29271 0.96429 0.0
H681 H 0.99155 0.26775 0.02187 0.0
H682 H 0.92214 0.29917 0.9937 0.0
H683 H 0.96252 0.27476 0.05036 0.0
H684 H 0.02617 0.32244 0.86112 0.0
H685 H 1.01053 0.34909 0.9453 0.0
H686 H 0.02157 0.29395 0.89169 0.0
H687 H 1.01524 0.37651 0.91387 0.0
H688 H 0.98963 0.37803 0.01137 0.0
H689 H 0.0614 0.3887 0.99562 0.0
H690 H 0.90925 0.24045 0.88161 0.0
H691 H 0.93356 0.31583 0.8886 0.0
H692 H 0.07874 0.26657 0.9675 0.0
H693 H 0.05048 0.30716 0.02276 0.0
H694 H 0.11532 0.27127 0.99705 0.0
H695 H 0.08749 0.31099 0.05144 0.0
H696 H 0.02952 0.21524 0.93762 0.0
H697 H 0.98845 0.24812 0.88738 0.0
H698 H 0.02925 0.18373 0.90311 0.0
H699 H 0.989 0.2161 0.85369 0.0
H700 H 0.98797 0.16786 0.98417 0.0
H701 H 0.06006 0.19911 0.01433 0.0
H702 H 0.11474 0.31957 0.92627 0.0
H703 H 0.08003 0.26166 0.86995 0.0
Li704 Li 0.40644 0.02182 0.3355 0.0
Li705 Li 0.3727 1.00115 0.30516 0.0
Li706 Li 0.40455 0.02923 0.29272 0.0
Li707 Li 0.37601 0.04045 0.31942 0.0
C708 C 0.42007 0.98418 0.31009 0.0
N709 N 0.44868 0.95268 0.31848 0.0
C710 C 0.41044 0.96171 0.31548 0.0
C711 C 0.44422 0.9906 0.30888 0.0
C712 C 0.42521 0.94604 0.31968 0.0
C713 C 0.4584 0.97443 0.31323 0.0
C714 C 0.36169 0.01995 0.35978 0.0
C715 C 0.32636 0.02458 0.37716 0.0
N716 N 0.33853 0.02803 0.40039 0.0
C717 C 0.37381 0.02351 0.38388 0.0
C718 C 0.33771 0.02033 0.35644 0.0
C719 C 0.36181 0.02757 0.40414 0.0
C720 C 0.43824 0.04351 0.37496 0.0
N721 N 0.42781 0.02168 0.36317 0.0
C722 C 0.44899 1.00369 0.39252 0.0
C723 C 0.43251 1.00186 0.3716 0.0
C724 C 0.46036 0.02613 0.40463 0.0
C725 C 0.45516 0.04619 0.39537 0.0
H726 H 0.43332 0.05891 0.36856 0.0
H727 H 0.4232 0.98471 0.36249 0.0
C728 C 0.35728 0.9572 0.2766 0.0
N729 N 0.35239 0.97244 0.29491 0.0
C730 C 0.34457 0.93401 0.27223 0.0
C731 C 0.32069 0.94379 0.30384 0.0
C732 C 0.33405 0.96657 0.30783 0.0
C733 C 0.32689 0.92705 0.2869 0.0
H734 H 0.37205 0.96265 0.26669 0.0
H735 H 0.33067 0.97918 0.32216 0.0
C736 C 0.42995 0.06938 0.32067 0.0
N737 N 0.46902 0.10368 0.31702 0.0
C738 C 0.42727 0.09157 0.31507 0.0
C739 C 0.4525 0.06453 0.32401 0.0
C740 C 0.44724 0.10869 0.31339 0.0
C741 C 0.47203 0.08214 0.32222 0.0
C742 C 0.35581 0.01525 0.26287 0.0
C743 C 0.36438 0.01477 0.23995 0.0
C744 C 0.33224 1.00496 0.2638 0.0
C745 C 0.3495 1.00334 0.21852 0.0
C746 C 0.31792 0.99362 0.24197 0.0
N747 N 0.32678 0.99303 0.21997 0.0
C748 C 0.42374 1.01117 0.25534 0.0
C749 C 0.43629 0.05281 0.26073 0.0
C750 C 0.43754 1.0089 0.23662 0.0
N751 N 0.42353 0.03277 0.26719 0.0
C752 C 0.45054 0.05135 0.24189 0.0
C753 C 0.45128 0.02908 0.22982 0.0
H754 H 0.41285 0.99561 0.26026 0.0
H755 H 0.43545 0.06983 0.27002 0.0
C756 C 0.3703 0.08493 0.33645 0.0
N757 N 0.35871 0.06298 0.32608 0.0
C758 C 0.36111 0.1042 0.33079 0.0
C759 C 0.32634 0.07728 0.30837 0.0
C760 C 0.33653 0.05862 0.31376 0.0
C761 C 0.33985 0.10023 0.31474 0.0
H762 H 0.3879 0.0876 0.34629 0.0
H763 H 0.32793 0.04094 0.30565 0.0
O764 O 0.40583 0.99961 0.30545 0.0
O765 O 0.37274 0.01405 0.33985 0.0
O766 O 0.41063 0.05266 0.32329 0.0
O767 O 0.37012 0.02673 0.28401 0.0
H768 H 0.39184 0.95651 0.31676 0.0
H769 H 0.45192 1.00787 0.30457 0.0
H770 H 0.41801 0.92863 0.32396 0.0
H771 H 0.47713 0.97917 0.31237 0.0
H772 H 0.30781 0.0249 0.37478 0.0
H773 H 0.39212 0.02259 0.38709 0.0
H774 H 0.32782 0.01707 0.33807 0.0
H775 H 0.37098 0.03015 0.42286 0.0
H776 H 0.45245 0.98786 0.39943 0.0
H777 H 0.46392 0.06381 0.40393 0.0
H778 H 0.34973 0.92131 0.25912 0.0
H779 H 0.30697 0.9388 0.31526 0.0
H780 H 0.40998 0.09552 0.31182 0.0
H781 H 0.45492 0.0474 0.32807 0.0
H782 H 0.44541 0.12594 0.30912 0.0
H783 H 0.48958 0.07869 0.32496 0.0
H784 H 0.38218 0.02351 0.23855 0.0
H785 H 0.32511 1.00536 0.28124 0.0
H786 H 0.35597 1.0028 0.2007 0.0
H787 H 0.29974 0.98531 0.24252 0.0
H788 H 0.43707 0.99147 0.22717 0.0
H789 H 0.46079 0.06727 0.23683 0.0
H790 H 0.37186 0.12177 0.33622 0.0
H791 H 0.30955 0.07377 0.29655 0.0
Li792 Li 0.27898 0.21028 0.54856 0.0
Li793 Li 0.29545 0.17871 0.5243 0.0
Li794 Li 0.27714 0.20727 0.50022 0.0
Li795 Li 0.25177 0.1747 0.51982 0.0
C796 C 0.32561 0.23003 0.53094 0.0
N797 N 0.36766 0.26279 0.5376 0.0
C798 C 0.34639 0.22417 0.54099 0.0
C799 C 0.32617 0.25253 0.52431 0.0
C800 C 0.36749 0.24098 0.54418 0.0
C801 C 0.34762 0.26887 0.52785 0.0
C802 C 0.27378 0.15952 0.56604 0.0
C803 C 0.26634 0.11902 0.57363 0.0
N804 N 0.27424 0.12624 0.59815 0.0
C805 C 0.28172 0.16657 0.59132 0.0
C806 C 0.266 0.13558 0.55707 0.0
C807 C 0.28188 0.14946 0.60725 0.0
C808 C 0.26212 0.22675 0.59329 0.0
N809 N 0.28181 0.22851 0.58174 0.0
C810 C 0.30536 0.24979 0.6193 0.0
C811 C 0.30318 0.23999 0.59423 0.0
C812 C 0.28543 0.24762 0.63198 0.0
C813 C 0.26352 0.23628 0.61833 0.0
H814 H 0.24536 0.21714 0.5833 0.0
H815 H 0.31874 0.24093 0.58499 0.0
C816 C 0.33113 0.15631 0.50643 0.0
N817 N 0.32057 0.1622 0.52651 0.0
C818 C 0.35016 0.14503 0.50905 0.0
C819 C 0.34674 0.14599 0.55279 0.0
C820 C 0.32818 0.15748 0.5494 0.0
C821 C 0.35816 0.13973 0.53255 0.0
H822 H 0.32501 0.16065 0.48847 0.0
H823 H 0.32016 0.16303 0.56523 0.0
C824 C 0.23602 0.22348 0.51961 0.0
N825 N 0.20404 0.25225 0.51539 0.0
C826 C 0.21296 0.2141 0.50829 0.0
C827 C 0.24288 0.24741 0.52883 0.0
C828 C 0.19702 0.22895 0.50633 0.0
C829 C 0.22643 0.2617 0.52647 0.0
C830 C 0.26838 0.15403 0.47435 0.0
C831 C 0.2603 0.15761 0.45033 0.0
C832 C 0.27271 0.13203 0.47863 0.0
C833 C 0.25696 0.13915 0.43088 0.0
C834 C 0.26906 0.11398 0.45868 0.0
N835 N 0.26138 0.1179 0.43542 0.0
C836 C 0.29412 0.21549 0.45416 0.0
C837 C 0.26837 0.24036 0.46462 0.0
C838 C 0.29616 0.22435 0.43142 0.0
N839 N 0.28009 0.22322 0.47016 0.0
C840 C 0.27029 0.25006 0.44223 0.0
C841 C 0.28397 0.24178 0.4248 0.0
H842 H 0.30338 0.2019 0.45879 0.0
H843 H 0.25741 0.24651 0.47751 0.0
C844 C 0.21023 0.15642 0.5386 0.0
N845 N 0.22194 0.15291 0.51878 0.0
C846 C 0.18875 0.14142 0.54029 0.0
C847 C 0.19182 0.11901 0.5014 0.0
C848 C 0.21322 0.13459 0.50032 0.0
C849 C 0.17934 0.12246 0.52155 0.0
H850 H 0.21762 0.17096 0.55313 0.0
H851 H 0.22278 0.13202 0.48476 0.0
O852 O 0.30493 0.21361 0.52694 0.0
O853 O 0.27399 0.17604 0.55016 0.0
O854 O 0.2516 0.20911 0.52235 0.0
O855 O 0.27266 0.17222 0.49338 0.0
H856 H 0.34627 0.20684 0.54621 0.0
H857 H 0.31021 0.25726 0.51641 0.0
H858 H 0.38372 0.23666 0.55186 0.0
H859 H 0.34835 0.28635 0.52278 0.0
H860 H 0.26037 0.10042 0.56698 0.0
H861 H 0.28797 0.18503 0.59851 0.0
H862 H 0.25983 0.12987 0.53753 0.0
H863 H 0.28813 0.15464 0.62683 0.0
H864 H 0.32259 0.25873 0.62874 0.0
H865 H 0.24768 0.23397 0.62721 0.0
H866 H 0.35873 0.14096 0.49303 0.0
H867 H 0.35214 0.14211 0.5712 0.0
H868 H 0.20741 0.19553 0.50122 0.0
H869 H 0.26069 0.25482 0.53777 0.0
H870 H 0.17907 0.22196 0.49768 0.0
H871 H 0.23145 0.28028 0.53351 0.0
H872 H 0.2567 0.17448 0.44673 0.0
H873 H 0.27895 0.12897 0.49712 0.0
H874 H 0.25086 0.14172 0.41217 0.0
H875 H 0.27241 0.09687 0.46168 0.0
H876 H 0.30688 0.21714 0.41891 0.0
H877 H 0.26122 0.26408 0.43886 0.0
H878 H 0.17952 0.14463 0.55605 0.0
H879 H 0.18491 0.10466 0.48649 0.0
Li880 Li 0.16437 0.08541 0.80203 0.0
Li881 Li 0.13209 0.05921 0.82131 0.0
Li882 Li 0.1616 0.04163 0.79856 0.0
Li883 Li 0.12986 0.05684 0.77335 0.0
C884 C 0.1846 0.06813 0.84839 0.0
N885 N 0.21971 0.07333 0.88798 0.0
C886 C 0.17971 0.0728 0.87268 0.0
C887 C 0.20732 0.06612 0.84418 0.0
C888 C 0.19771 0.07538 0.89245 0.0
C889 C 0.22484 0.06879 0.86447 0.0
C890 C 0.11483 0.09941 0.80197 0.0
C891 C 0.07623 0.10813 0.79521 0.0
N892 N 0.08514 0.13045 0.80681 0.0
C893 C 0.12366 0.12239 0.81384 0.0
C894 C 0.09098 0.09215 0.79255 0.0
C895 C 0.10834 0.13784 0.81611 0.0
C896 C 0.18189 0.127 0.78273 0.0
N897 N 0.18528 0.1157 0.80288 0.0
C898 C 0.21852 0.1465 0.82039 0.0
C899 C 0.20312 0.12504 0.82163 0.0
C900 C 0.21566 0.15837 0.79958 0.0
C901 C 0.19684 0.14842 0.78073 0.0
H902 H 0.16761 0.1192 0.76805 0.0
H903 H 0.20559 0.11577 0.83744 0.0
C904 C 0.11469 0.03447 0.85989 0.0
N905 N 0.11612 0.05554 0.85102 0.0
C906 C 0.10615 0.03097 0.88255 0.0
C907 C 0.10027 0.07081 0.8867 0.0
C908 C 0.10895 0.07357 0.86391 0.0
C909 C 0.09912 0.04938 0.89664 0.0
H910 H 0.12068 0.02041 0.84957 0.0
H911 H 0.11055 0.09034 0.85689 0.0
C912 C 0.18017 0.06303 0.75584 0.0
N913 N 0.21231 0.06349 0.72232 0.0
C914 C 0.17269 0.05322 0.73106 0.0
C915 C 0.20396 0.07309 0.76359 0.0
C916 C 0.18922 0.05356 0.71442 0.0
C917 C 0.21994 0.0732 0.74633 0.0
C918 C 0.10977 1.01099 0.79015 0.0
C919 C 0.11534 0.9898 0.78087 0.0
C920 C 0.08685 1.01137 0.79494 0.0
C921 C 0.09777 0.96922 0.77654 0.0
C922 C 0.06978 0.9904 0.79036 0.0
N923 N 0.07555 0.96994 0.78135 0.0
C924 C 0.18365 1.00616 0.81781 0.0
C925 C 0.18325 1.00871 0.7748 0.0
C926 C 0.19414 0.98653 0.81553 0.0
N927 N 0.17841 0.01673 0.79751 0.0
C928 C 0.19376 0.98941 0.77173 0.0
C929 C 0.19904 0.97782 0.79212 0.0
H930 H 0.17918 0.01262 0.83561 0.0
H931 H 0.1783 0.01681 0.75884 0.0
C932 C 0.11519 0.07352 0.72878 0.0
N933 N 0.11236 0.05364 0.73998 0.0
C934 C 0.10604 0.07274 0.7038 0.0
C935 C 0.09119 0.03095 0.7019 0.0
C936 C 0.10058 0.03253 0.72704 0.0
C937 C 0.09384 0.05125 0.68989 0.0
H938 H 0.1252 0.08998 0.7391 0.0
H939 H 0.09897 0.01678 0.73599 0.0
O940 O 0.16706 0.06517 0.8289 0.0
O941 O 0.1297 0.08436 0.79881 0.0
O942 O 0.16421 0.06272 0.77238 0.0
O943 O 0.12688 0.03115 0.79519 0.0
H944 H 0.1622 0.07443 0.87623 0.0
H945 H 0.21133 0.06243 0.82546 0.0
H946 H 0.19417 0.079 0.91136 0.0
H947 H 0.24251 0.06722 0.86153 0.0
H948 H 0.05771 0.10281 0.78797 0.0
H949 H 0.14216 0.12826 0.82107 0.0
H950 H 0.08401 0.07442 0.78315 0.0
H951 H 0.11491 0.15572 0.82518 0.0
H952 H 0.23278 0.15354 0.83534 0.0
H953 H 0.1936 0.15718 0.76464 0.0
H954 H 0.10511 0.01396 0.88897 0.0
H955 H 0.09511 0.08556 0.8968 0.0
H956 H 0.15436 0.04516 0.72481 0.0
H957 H 0.21001 0.08072 0.78272 0.0
H958 H 0.18371 0.04591 0.69522 0.0
H959 H 0.23841 0.08097 0.75203 0.0
H960 H 0.13303 0.98922 0.77714 0.0
H961 H 0.08236 0.02766 0.80225 0.0
H962 H 0.10183 0.95267 0.76941 0.0
H963 H 0.05195 0.99038 0.79403 0.0
H964 H 0.19776 0.97792 0.83165 0.0
H965 H 0.19746 0.9834 0.7534 0.0
H966 H 0.10898 0.08875 0.69526 0.0
H967 H 0.08196 0.01401 0.69193 0.0
Li968 Li 0.29224 0.96198 1.00237 0.0
Li969 Li 0.30558 0.93392 0.02901 0.0
Li970 Li 0.3323 0.96561 0.01497 0.0
Li971 Li 0.31122 0.93184 0.98564 0.0
C972 C 0.31923 0.98358 0.05766 0.0
N973 N 0.34263 0.01425 0.09896 0.0
C974 C 0.32143 0.97578 0.08092 0.0
C975 C 0.32855 1.00712 0.05551 0.0
C976 C 0.3334 0.99152 0.10154 0.0
C977 C 0.34046 0.02231 0.07658 0.0
C978 C 0.26477 0.90752 1.00054 0.0
C979 C 0.25279 0.86522 0.99678 0.0
N980 N 0.23089 0.86742 1.00154 0.0
C981 C 0.24219 0.90938 1.00548 0.0
C982 C 0.27019 0.88529 0.99627 0.0
C983 C 0.22531 0.88889 1.0059 0.0
C984 C 0.24838 0.96567 0.98094 0.0
N985 N 0.26869 0.97767 0.99497 0.0
C986 C 0.25048 1.00813 0.01014 0.0
C987 C 0.27051 0.99909 0.00825 0.0
C988 C 0.22865 0.99451 0.99874 0.0
C989 C 0.22776 0.9739 0.98259 0.0
H990 H 0.24773 0.94856 0.97071 0.0
H991 H 0.28694 1.00791 0.01938 0.0
C992 C 0.32468 0.91469 0.06623 0.0
N993 N 0.30303 0.91537 0.05484 0.0
C994 C 0.32691 0.90096 0.08507 0.0
C995 C 0.28437 0.88905 0.08071 0.0
C996 C 0.28294 0.90313 0.06171 0.0
C997 C 0.30664 0.88795 0.09232 0.0
H998 H 0.34029 0.92498 0.06072 0.0
H999 H 0.26594 0.90423 0.05255 0.0
C1000 C 0.31703 0.97909 0.96302 0.0
N1001 N 0.31897 1.00807 0.9263 0.0
C1002 C 0.31854 0.97004 0.93862 0.0
C1003 C 0.31654 1.00286 0.96877 0.0
C1004 C 0.31954 0.98499 0.92033 0.0
C1005 C 0.31745 0.01722 0.94992 0.0
C1006 C 0.35022 0.91869 0.01012 0.0
C1007 C 0.37271 0.92867 1.00502 0.0
C1008 C 0.34404 0.89445 0.01099 0.0
C1009 C 0.38861 0.91416 1.00073 0.0
C1010 C 0.3604 0.88053 0.00647 0.0
N1011 N 0.38217 0.89059 1.0015 0.0
C1012 C 0.37309 0.98264 0.04596 0.0
C1013 C 0.37094 0.99944 0.00826 0.0
C1014 C 0.39647 0.994 0.05234 0.0
N1015 N 0.36113 0.98533 0.02412 0.0
C1016 C 0.39438 1.01099 0.01378 0.0
C1017 C 0.40738 1.00756 0.03564 0.0
H1018 H 0.36476 0.97069 0.05771 0.0
H1019 H 0.3611 1.00056 0.99072 0.0
C1020 C 0.28751 0.90413 0.94496 0.0
N1021 N 0.30965 0.91142 0.95734 0.0
C1022 C 0.28295 0.88661 0.92482 0.0
C1023 C 0.32462 0.88621 0.92915 0.0
C1024 C 0.32829 0.90353 0.94953 0.0
C1025 C 0.30159 0.87714 0.91716 0.0
H1026 H 0.27328 0.91157 0.95115 0.0
H1027 H 0.34585 0.9105 0.95907 0.0
O1028 O 0.30741 0.96838 0.03732 0.0
O1029 O 0.28127 0.92742 0.99937 0.0
O1030 O 0.31748 0.96494 0.98132 0.0
O1031 O 0.33453 0.93264 0.01481 0.0
H1032 H 0.31376 0.95786 0.08316 0.0
H1033 H 0.32704 0.0135 0.03768 0.0
H1034 H 0.33527 0.98567 0.11962 0.0
H1035 H 0.34801 0.04049 0.07512 0.0
H1036 H 0.25667 0.84789 0.99336 0.0
H1037 H 0.23778 0.92646 0.00903 0.0
H1038 H 0.28757 0.88355 0.9924 0.0
H1039 H 0.20775 0.89007 0.00968 0.0
H1040 H 0.25162 0.02396 0.02299 0.0
H1041 H 0.21105 0.96301 0.97376 0.0
H1042 H 0.34429 0.90054 0.094 0.0
H1043 H 0.26847 0.87925 0.08627 0.0
H1044 H 0.31935 0.95177 0.93392 0.0
H1045 H 0.31588 1.01023 0.98766 0.0
H1046 H 0.3209 0.97827 0.90141 0.0
H1047 H 0.31715 0.03568 0.9541 0.0
H1048 H 0.37784 0.94737 1.00424 0.0
H1049 H 0.32679 0.88648 0.01513 0.0
H1050 H 0.40607 0.92164 0.99676 0.0
H1051 H 0.35583 0.86174 0.00698 0.0
H1052 H 0.40635 0.99103 0.06923 0.0
H1053 H 0.40267 0.02102 1.00038 0.0
H1054 H 0.26507 0.88029 0.91561 0.0
H1055 H 0.33955 0.88001 0.92285 0.0
Li1056 Li 0.29502 0.40514 0.04817 0.0
Li1057 Li 0.31289 0.37659 0.07102 0.0
Li1058 Li 0.33867 0.40947 0.05022 0.0
Li1059 Li 0.31169 0.37382 0.02292 0.0
C1060 C 0.31892 0.42926 0.09677 0.0
N1061 N 0.3185 0.46432 0.13488 0.0
C1062 C 0.31014 0.42347 0.1186 0.0
C1063 C 0.32754 0.45286 0.09433 0.0
C1064 C 0.31005 0.44146 0.13764 0.0
C1065 C 0.32717 0.47034 0.11382 0.0
C1066 C 0.26486 0.35424 0.04343 0.0
C1067 C 0.24166 0.31465 0.0333 0.0
N1068 N 0.22298 0.32209 0.04181 0.0
C1069 C 0.24544 0.36153 0.05203 0.0
C1070 C 0.26301 0.33066 0.03394 0.0
C1071 C 0.22441 0.34498 0.05108 0.0
C1072 C 0.25643 0.41893 0.02405 0.0
N1073 N 0.26975 0.42168 0.04658 0.0
C1074 C 0.24594 0.44643 0.06424 0.0
C1075 C 0.2648 0.43498 0.06658 0.0
C1076 C 0.23183 0.44375 0.04122 0.0
C1077 C 0.23732 0.42986 0.02093 0.0
H1078 H 0.2607 0.4082 0.00848 0.0
H1079 H 0.27527 0.43669 0.08443 0.0
C1080 C 0.32861 0.35678 0.11556 0.0
N1081 N 0.30954 0.36034 0.10092 0.0
C1082 C 0.32604 0.34755 0.13813 0.0
C1083 C 0.28428 0.34548 0.13024 0.0
C1084 C 0.28763 0.3547 0.10789 0.0
C1085 C 0.30365 0.3421 0.14605 0.0
H1086 H 0.34597 0.36162 0.11005 0.0
H1087 H 0.27267 0.35796 0.09646 0.0
C1088 C 0.31555 0.42463 1.00552 0.0
N1089 N 0.31672 0.45847 0.97391 0.0
C1090 C 0.31678 0.4187 0.9803 0.0
C1091 C 0.31489 0.44774 0.0147 0.0
C1092 C 0.3174 0.43607 0.96462 0.0
C1093 C 0.31548 0.4646 0.9984 0.0
C1094 C 0.35385 0.35987 0.04677 0.0
C1095 C 0.37623 0.36787 0.04026 0.0
C1096 C 0.34691 0.33654 0.05104 0.0
C1097 C 0.39138 0.35226 0.03805 0.0
C1098 C 0.3626 0.32147 0.04867 0.0
N1099 N 0.38432 0.32958 0.04228 0.0
C1100 C 0.38101 0.44398 0.07178 0.0
C1101 C 0.37512 0.43575 0.02792 0.0
C1102 C 0.40171 0.46072 0.07109 0.0
N1103 N 0.36809 0.43195 0.05035 0.0
C1104 C 0.39562 0.45235 0.02637 0.0
C1105 C 0.40923 0.46526 0.04813 0.0
H1106 H 0.37522 0.44065 0.08944 0.0
H1107 H 0.36486 0.42574 0.01111 0.0
C1108 C 0.28763 0.35055 0.97478 0.0
N1109 N 0.30873 0.3556 0.98975 0.0
C1110 C 0.28589 0.34099 0.94968 0.0
C1111 C 0.32748 0.34163 0.95571 0.0
C1112 C 0.32845 0.35119 0.98064 0.0
C1113 C 0.30604 0.33655 0.93964 0.0
H1114 H 0.27227 0.35482 0.98205 0.0
H1115 H 0.34519 0.35586 0.99247 0.0
O1116 O 0.31949 0.41184 0.07813 0.0
O1117 O 0.28544 0.37023 0.04374 0.0
O1118 O 0.31488 0.40781 0.02107 0.0
O1119 O 0.3391 0.37507 0.04972 0.0
H1120 H 0.30344 0.4053 0.12081 0.0
H1121 H 0.33447 0.45762 0.07759 0.0
H1122 H 0.30328 0.43724 0.15462 0.0
H1123 H 0.3338 0.48868 0.11221 0.0
H1124 H 0.23994 0.29633 0.026 0.0
H1125 H 0.2466 0.37972 0.05948 0.0
H1126 H 0.27789 0.32483 0.02708 0.0
H1127 H 0.20924 0.35035 0.05771 0.0
H1128 H 0.24227 0.45706 0.08027 0.0
H1129 H 0.22715 0.42778 1.00273 0.0
H1130 H 0.34154 0.34533 0.14962 0.0
H1131 H 0.26661 0.34113 0.13512 0.0
H1132 H 0.31735 0.40088 0.97293 0.0
H1133 H 0.31383 0.45255 0.03417 0.0
H1134 H 0.3184 0.43174 0.94506 0.0
H1135 H 0.31493 0.48256 1.00521 0.0
H1136 H 0.38184 0.38596 0.03704 0.0
H1137 H 0.32966 0.3302 0.05627 0.0
H1138 H 0.40878 0.35819 0.03305 0.0
H1139 H 0.35753 0.30336 0.05197 0.0
H1140 H 0.41171 0.4701 0.08837 0.0
H1141 H 0.40104 0.45463 0.00831 0.0
H1142 H 0.26907 0.33803 0.93804 0.0
H1143 H 0.34351 0.33858 0.94895 0.0
Li1144 Li 0.77927 0.15623 0.08659 0.0
Li1145 Li 0.79943 0.12762 0.0689 0.0
Li1146 Li 0.78267 0.15435 0.04344 0.0
Li1147 Li 0.75794 0.12153 0.05892 0.0
C1148 C 0.8264 0.18078 0.07099 0.0
N1149 N 0.86302 0.21906 0.0723 0.0
C1150 C 0.84971 0.17813 0.07485 0.0
C1151 C 0.82167 0.20286 0.06777 0.0
C1152 C 0.86799 0.19772 0.07549 0.0
C1153 C 0.84044 0.222 0.06844 0.0
C1154 C 0.77663 0.108 0.10856 0.0
C1155 C 0.77101 0.06837 0.11883 0.0
N1156 N 0.77673 0.07713 0.14334 0.0
C1157 C 0.78246 0.11663 0.13382 0.0
C1158 C 0.77087 0.0837 0.10094 0.0
C1159 C 0.78243 0.10073 0.15112 0.0
C1160 C 0.75881 0.17493 0.12496 0.0
N1161 N 0.77898 0.17572 0.11463 0.0
C1162 C 0.80059 0.20544 0.14624 0.0
C1163 C 0.79971 0.19011 0.12491 0.0
C1164 C 0.78 0.20541 0.15709 0.0
C1165 C 0.7589 0.1899 0.14653 0.0
H1166 H 0.74282 0.16265 0.11648 0.0
H1167 H 0.81558 0.18956 0.11673 0.0
C1168 C 0.833 0.11149 0.05066 0.0
N1169 N 0.82349 0.11235 0.07212 0.0
C1170 C 0.84947 0.09799 0.04724 0.0
C1171 C 0.84691 0.08728 0.08872 0.0
C1172 C 0.83028 0.1012 0.09136 0.0
C1173 C 0.85604 0.08537 0.06618 0.0
H1174 H 0.82715 0.12081 0.03594 0.0
H1175 H 0.82246 0.10256 0.10832 0.0
C1176 C 0.73818 0.16776 0.06365 0.0
N1177 N 0.70588 0.19567 0.07133 0.0
C1178 C 0.7142 0.15752 0.06182 0.0
C1179 C 0.7457 0.19221 0.06922 0.0
C1180 C 0.69815 0.17192 0.06573 0.0
C1181 C 0.72912 0.206 0.0732 0.0
C1182 C 0.77388 0.10331 0.01557 0.0
C1183 C 0.76654 0.10925 0.99232 0.0
C1184 C 0.77353 0.07976 0.01834 0.0
C1185 C 0.7585 0.09141 0.97228 0.0
C1186 C 0.76545 0.06244 0.99779 0.0
N1187 N 0.75811 0.06856 0.97541 0.0
C1188 C 0.80408 0.17905 0.0069 0.0
C1189 C 0.76276 0.17432 0.00733 0.0
C1190 C 0.8028 0.19092 0.98613 0.0
N1191 N 0.78415 0.17124 0.01693 0.0
C1192 C 0.76066 0.18586 0.98675 0.0
C1193 C 0.78077 0.19409 0.97595 0.0
H1194 H 0.82076 0.1759 0.01487 0.0
H1195 H 0.74719 0.16733 0.01533 0.0
C1196 C 0.7194 0.09577 0.07342 0.0
N1197 N 0.72998 0.10015 0.05302 0.0
C1198 C 0.6961 0.08394 0.07061 0.0
C1199 C 0.69556 0.08054 0.02588 0.0
C1200 C 0.71879 0.09271 0.02957 0.0
C1201 C 0.68402 0.07697 0.0466 0.0
H1202 H 0.72848 0.10301 0.09175 0.0
H1203 H 0.72712 0.09771 0.0138 0.0
O1204 O 0.80842 0.16197 0.07151 0.0
O1205 O 0.77558 0.12335 0.09155 0.0
O1206 O 0.75398 0.15394 0.05885 0.0
O1207 O 0.78151 0.12052 0.03546 0.0
H1208 H 0.85363 0.16119 0.07767 0.0
H1209 H 0.80374 0.2052 0.06485 0.0
H1210 H 0.88613 0.19597 0.07863 0.0
H1211 H 0.83706 0.23921 0.06599 0.0
H1212 H 0.7665 0.04951 0.11325 0.0
H1213 H 0.78681 0.13541 0.13999 0.0
H1214 H 0.76617 0.07678 0.08144 0.0
H1215 H 0.78684 0.10715 0.17075 0.0
H1216 H 0.81714 0.2172 0.15417 0.0
H1217 H 0.74288 0.18922 0.15497 0.0
H1218 H 0.85659 0.09685 0.02974 0.0
H1219 H 0.85208 0.07776 0.10358 0.0
H1220 H 0.70797 0.13868 0.05706 0.0
H1221 H 0.76414 0.20043 0.07056 0.0
H1222 H 0.67953 0.16424 0.06421 0.0
H1223 H 0.73472 0.22494 0.07767 0.0
H1224 H 0.76676 0.12737 0.9898 0.0
H1225 H 0.77933 0.07493 0.03618 0.0
H1226 H 0.75254 0.09572 0.95424 0.0
H1227 H 0.76497 0.04411 0.99965 0.0
H1228 H 0.81854 0.19721 0.97796 0.0
H1229 H 0.74348 0.18826 0.97921 0.0
H1230 H 0.68718 0.08163 0.08683 0.0
H1231 H 0.6862 0.07569 0.00721 0.0
Li1232 Li 0.21727 0.58149 0.26436 0.0
Li1233 Li 0.18393 0.55616 0.2791 0.0
Li1234 Li 0.2126 0.53974 0.2555 0.0
Li1235 Li 0.1837 0.55806 0.23524 0.0
C1236 C 0.23476 0.56583 0.30874 0.0
N1237 N 0.26887 0.58081 0.34952 0.0
C1238 C 0.22854 0.57384 0.33163 0.0
C1239 C 0.25823 0.56517 0.3066 0.0
C1240 C 0.24608 0.58146 0.35202 0.0
C1241 C 0.27523 0.57286 0.32745 0.0
C1242 C 0.17005 0.59994 0.25913 0.0
C1243 C 0.13164 0.60903 0.25127 0.0
N1244 N 0.14179 0.63241 0.25475 0.0
C1245 C 0.1801 0.62406 0.26266 0.0
C1246 C 0.14562 0.59236 0.2535 0.0
C1247 C 0.16552 0.64019 0.26037 0.0
C1248 C 0.2423 0.62048 0.24951 0.0
N1249 N 0.23853 0.61002 0.27012 0.0
C1250 C 0.2604 0.64412 0.29659 0.0
C1251 C 0.24743 0.62111 0.29336 0.0
C1252 C 0.2636 0.65549 0.27569 0.0
C1253 C 0.25499 0.6435 0.25189 0.0
H1254 H 0.23419 0.61143 0.23139 0.0
H1255 H 0.2433 0.61282 0.30942 0.0
C1256 C 0.15691 0.53293 0.3128 0.0
N1257 N 0.16492 0.55356 0.30409 0.0
C1258 C 0.14184 0.53233 0.33099 0.0
C1259 C 0.1439 0.57412 0.33049 0.0
C1260 C 0.15905 0.57396 0.31277 0.0
C1261 C 0.13507 0.55315 0.33966 0.0
H1262 H 0.16219 0.51705 0.30559 0.0
H1263 H 0.16631 0.59018 0.30605 0.0
C1264 C 0.23253 0.5624 0.21534 0.0
N1265 N 0.26347 0.56323 0.18055 0.0
C1266 C 0.224 0.5557 0.19014 0.0
C1267 C 0.25677 0.56949 0.22289 0.0
C1268 C 0.23993 0.55622 0.17283 0.0
C1269 C 0.27214 0.5698 0.20499 0.0
C1270 C 0.15861 0.51212 0.24895 0.0
C1271 C 0.16061 0.48868 0.24392 0.0
C1272 C 0.13651 0.5173 0.25101 0.0
C1273 C 0.14038 0.47076 0.24095 0.0
C1274 C 0.1167 0.49888 0.24798 0.0
N1275 N 0.11902 0.47618 0.24304 0.0
C1276 C 0.22718 0.50543 0.27426 0.0
C1277 C 0.23984 0.50891 0.23462 0.0
C1278 C 0.23922 0.48776 0.27758 0.0
N1279 N 0.22811 0.51578 0.25335 0.0
C1280 C 0.25236 0.49113 0.23721 0.0
C1281 C 0.25228 0.4809 0.25915 0.0
H1282 H 0.21735 0.51131 0.28849 0.0
H1283 H 0.23979 0.51734 0.21801 0.0
C1284 C 0.15938 0.57507 0.19731 0.0
N1285 N 0.16496 0.55568 0.20585 0.0
C1286 C 0.14372 0.57249 0.17575 0.0
C1287 C 0.14156 0.53028 0.17143 0.0
C1288 C 0.1571 0.53368 0.19318 0.0
C1289 C 0.13435 0.54981 0.16311 0.0
H1290 H 0.16677 0.59238 0.20742 0.0
H1291 H 0.16273 0.51881 0.20015 0.0
O1292 O 0.21785 0.55848 0.2886 0.0
O1293 O 0.18412 0.58397 0.26187 0.0
O1294 O 0.21711 0.56299 0.23235 0.0
O1295 O 0.17832 0.52978 0.25195 0.0
H1296 H 0.21042 0.57442 0.33356 0.0
H1297 H 0.26323 0.55887 0.28899 0.0
H1298 H 0.24159 0.5879 0.36981 0.0
H1299 H 0.2935 0.57253 0.3261 0.0
H1300 H 0.11271 0.60339 0.2468 0.0
H1301 H 0.19894 0.6303 0.26734 0.0
H1302 H 0.13753 0.57383 0.2507 0.0
H1303 H 0.17306 0.6589 0.26312 0.0
H1304 H 0.2664 0.65344 0.31515 0.0
H1305 H 0.25674 0.65234 0.23555 0.0
H1306 H 0.13556 0.516 0.33815 0.0
H1307 H 0.13952 0.59061 0.33743 0.0
H1308 H 0.20528 0.55034 0.18396 0.0
H1309 H 0.26361 0.57486 0.24234 0.0
H1310 H 0.23357 0.55116 0.15326 0.0
H1311 H 0.29095 0.57534 0.21052 0.0
H1312 H 0.17763 0.48441 0.24227 0.0
H1313 H 0.13469 0.53528 0.25516 0.0
H1314 H 0.14166 0.45253 0.23701 0.0
H1315 H 0.09948 0.50263 0.24961 0.0
H1316 H 0.23875 0.47977 0.29456 0.0
H1317 H 0.2622 0.48577 0.22271 0.0
H1318 H 0.13861 0.58785 0.16925 0.0
H1319 H 0.13466 0.51265 0.16171 0.0
Li1320 Li 0.796 0.90504 0.54827 0.0
Li1321 Li 0.81297 0.87619 0.57172 0.0
Li1322 Li 0.83968 0.90871 0.55131 0.0
Li1323 Li 0.81233 0.87344 0.52337 0.0
C1324 C 0.8188 0.92887 0.59705 0.0
N1325 N 0.81756 0.96384 0.63492 0.0
C1326 C 0.80847 0.9231 0.61807 0.0
C1327 C 0.82851 0.95239 0.59526 0.0
C1328 C 0.80801 0.94105 0.63702 0.0
C1329 C 0.8277 0.96982 0.61462 0.0
C1330 C 0.76501 0.85462 0.54395 0.0
C1331 C 0.74049 0.8157 0.53287 0.0
N1332 N 0.72277 0.82331 0.54333 0.0
C1333 C 0.74659 0.86209 0.55458 0.0
C1334 C 0.76199 0.83129 0.53297 0.0
C1335 C 0.72535 0.84597 0.55408 0.0
C1336 C 0.76017 0.92149 0.52216 0.0
N1337 N 0.77134 0.92249 0.54553 0.0
C1338 C 0.74735 0.94791 0.56166 0.0
C1339 C 0.76514 0.93518 0.56523 0.0
C1340 C 0.73605 0.94766 0.5376 0.0
C1341 C 0.7425 0.93404 0.51774 0.0
H1342 H 0.76509 0.91093 0.50687 0.0
H1343 H 0.77385 0.93545 0.58373 0.0
C1344 C 0.82899 0.86553 0.62056 0.0
N1345 N 0.81032 0.8602 0.60211 0.0
C1346 C 0.82741 0.85658 0.64337 0.0
C1347 C 0.78741 0.83671 0.62823 0.0
C1348 C 0.78976 0.84598 0.60566 0.0
C1349 C 0.80638 0.8419 0.64761 0.0
H1350 H 0.84505 0.87725 0.6178 0.0
H1351 H 0.7749 0.84203 0.59118 0.0
C1352 C 0.81645 0.92426 0.5061 0.0
N1353 N 0.81499 0.95766 0.47426 0.0
C1354 C 0.81633 0.91813 0.48063 0.0
C1355 C 0.81596 0.94738 0.51543 0.0
C1356 C 0.81563 0.93529 0.46484 0.0
C1357 C 0.81511 0.96399 0.49899 0.0
C1358 C 0.85405 0.85907 0.54726 0.0
C1359 C 0.8761 0.86715 0.54 0.0
C1360 C 0.84752 0.83578 0.55181 0.0
C1361 C 0.89132 0.85167 0.53735 0.0
C1362 C 0.86325 0.82084 0.54895 0.0
N1363 N 0.88464 0.82902 0.54185 0.0
C1364 C 0.88335 0.94095 0.57373 0.0
C1365 C 0.87677 0.9342 0.52979 0.0
C1366 C 0.90487 0.9566 0.57326 0.0
N1367 N 0.86973 0.93019 0.55215 0.0
C1368 C 0.89805 0.94967 0.52847 0.0
C1369 C 0.9124 0.96133 0.55038 0.0
H1370 H 0.8775 0.93744 0.59132 0.0
H1371 H 0.8659 0.92519 0.51287 0.0
C1372 C 0.7881 0.85142 0.47512 0.0
N1373 N 0.80915 0.85533 0.49001 0.0
C1374 C 0.78586 0.84182 0.44999 0.0
C1375 C 0.82691 0.84009 0.45572 0.0
C1376 C 0.8284 0.84983 0.48071 0.0
C1377 C 0.80545 0.83599 0.43978 0.0
H1378 H 0.77316 0.85659 0.48251 0.0
H1379 H 0.84517 0.85364 0.49246 0.0
O1380 O 0.82001 0.91148 0.57868 0.0
O1381 O 0.7858 0.87015 0.54392 0.0
O1382 O 0.81671 0.90754 0.52172 0.0
O1383 O 0.83922 0.87413 0.55063 0.0
H1384 H 0.80088 0.90496 0.61972 0.0
H1385 H 0.83669 0.9571 0.57916 0.0
H1386 H 0.80009 0.93685 0.6534 0.0
H1387 H 0.83519 0.9881 0.61353 0.0
H1388 H 0.73788 0.79758 0.52445 0.0
H1389 H 0.74869 0.88012 0.56314 0.0
H1390 H 0.77611 0.82532 0.52461 0.0
H1391 H 0.71092 0.85147 0.56222 0.0
H1392 H 0.74263 0.95798 0.57747 0.0
H1393 H 0.73373 0.93286 0.49899 0.0
H1394 H 0.8424 0.86164 0.6578 0.0
H1395 H 0.77084 0.82551 0.63045 0.0
H1396 H 0.8168 0.90033 0.47314 0.0
H1397 H 0.81594 0.95235 0.53509 0.0
H1398 H 0.81556 0.93081 0.44509 0.0
H1399 H 0.81451 0.98191 0.5059 0.0
H1400 H 0.88141 0.8852 0.53653 0.0
H1401 H 0.83052 0.82939 0.5576 0.0
H1402 H 0.90847 0.85766 0.53177 0.0
H1403 H 0.85849 0.80275 0.55245 0.0
H1404 H 0.91538 0.96511 0.59061 0.0
H1405 H 0.90338 0.95214 0.51041 0.0
H1406 H 0.76911 0.8398 0.43849 0.0
H1407 H 0.84255 0.83601 0.44888 0.0
Li1408 Li 0.96359 0.02484 0.29862 0.0
Li1409 Li 0.92784 0.99765 0.27132 0.0
Li1410 Li 0.96075 0.02314 0.25001 0.0
Li1411 Li 0.9323 0.04125 0.27303 0.0
C1412 C 0.97734 0.98248 0.27482 0.0
N1413 N 1.00739 0.95176 0.27891 0.0
C1414 C 0.96925 0.96011 0.2813 0.0
C1415 C 1.00064 0.9893 0.27041 0.0
C1416 C 0.98474 0.94482 0.28328 0.0
C1417 C 1.01559 0.97349 0.2726 0.0
C1418 C 0.91269 0.02138 0.31584 0.0
C1419 C 0.87253 0.02099 0.32257 0.0
N1420 N 0.87885 0.02155 0.34737 0.0
C1421 C 0.91881 0.02202 0.34139 0.0
C1422 C 0.88938 0.02082 0.3063 0.0
C1423 C 0.90143 0.02203 0.35702 0.0
C1424 C 0.99086 0.04898 0.34573 0.0
N1425 N 0.98156 0.02752 0.33208 0.0
C1426 C 0.99057 1.00842 0.36775 0.0
C1427 C 0.98146 1.00742 0.34264 0.0
C1428 C 1.00014 0.0303 0.38237 0.0
C1429 C 1.00042 0.05076 0.37086 0.0
H1430 H 0.99013 0.06483 0.33741 0.0
H1431 H 0.97345 0.99054 0.33183 0.0
C1432 C 0.89538 0.95418 0.24976 0.0
N1433 N 0.90576 0.96808 0.27129 0.0
C1434 C 0.8796 0.93281 0.25029 0.0
C1435 C 0.88511 0.94051 0.29506 0.0
C1436 C 0.90088 0.96163 0.29368 0.0
C1437 C 0.87445 0.92557 0.2732 0.0
H1438 H 0.89944 0.95964 0.23216 0.0
H1439 H 0.90949 0.97274 0.3106 0.0
C1440 C 0.98297 0.07154 0.27701 0.0
N1441 N 1.01449 0.11359 0.27731 0.0
C1442 C 0.97553 0.09007 0.2666 0.0
C1443 C 1.0064 0.07432 0.28752 0.0
C1444 C 0.99175 0.11122 0.26696 0.0
C1445 C 0.02208 0.09573 0.28748 0.0
C1446 C 0.90824 0.01796 0.22474 0.0
C1447 C 0.9143 0.02765 0.20346 0.0
C1448 C 0.88458 1.00909 0.22671 0.0
C1449 C 0.89651 0.02841 0.18449 0.0
C1450 C 0.8673 1.01019 0.20734 0.0
N1451 N 0.87358 0.01974 0.18681 0.0
C1452 C 0.97095 1.00649 0.20079 0.0
C1453 C 0.99167 0.04526 0.21606 0.0
C1454 C 0.97992 1.00794 0.17794 0.0
N1455 N 0.97681 0.02501 0.21945 0.0
C1456 C 1.00099 0.04746 0.1935 0.0
C1457 C 0.9952 0.02868 0.17386 0.0
H1458 H 0.95874 0.99069 0.20338 0.0
H1459 H 0.99606 0.06002 0.23068 0.0
C1460 C 0.914 0.07657 0.29786 0.0
N1461 N 0.91501 0.06608 0.27466 0.0
C1462 C 0.90131 0.09428 0.30125 0.0
C1463 C 0.89137 0.09077 0.25674 0.0
C1464 C 0.9042 0.07296 0.25421 0.0
C1465 C 0.88975 0.10159 0.28056 0.0
H1466 H 0.92308 0.07114 0.31381 0.0
H1467 H 0.90553 0.06478 0.2359 0.0
O1468 O 0.96223 0.99732 0.27191 0.0
O1469 O 0.92954 0.02148 0.30034 0.0
O1470 O 0.96731 0.05089 0.27732 0.0
O1471 O 0.92546 0.01652 0.24318 0.0
H1472 H 0.95117 0.95459 0.2846 0.0
H1473 H 1.00703 1.00654 0.2652 0.0
H1474 H 0.97873 0.9274 0.28821 0.0
H1475 H 0.03368 0.97846 0.26919 0.0
H1476 H 0.85443 0.02069 0.31549 0.0
H1477 H 0.93677 0.02248 0.34908 0.0
H1478 H 0.88441 0.02047 0.28659 0.0
H1479 H 0.90591 0.02246 0.37682 0.0
H1480 H 0.98988 0.99219 0.37576 0.0
H1481 H 1.00713 0.06804 0.38143 0.0
H1482 H 0.87152 0.92203 0.23294 0.0
H1483 H 0.88183 0.9356 0.3131 0.0
H1484 H 0.95745 0.08815 0.25835 0.0
H1485 H 1.01237 0.06008 0.29563 0.0
H1486 H 0.98626 0.12575 0.25902 0.0
H1487 H 0.04028 0.09817 0.29557 0.0
H1488 H 0.93254 0.03458 0.20165 0.0
H1489 H 0.87963 1.00133 0.24296 0.0
H1490 H 0.90093 0.03588 0.16793 0.0
H1491 H 0.84891 1.00338 0.20858 0.0
H1492 H 0.97434 0.99313 0.16334 0.0
H1493 H 1.01268 0.06381 0.19147 0.0
H1494 H 0.90084 0.10244 0.31992 0.0
H1495 H 0.88267 0.09586 0.24031 0.0
Li1496 Li 0.27899 0.6569 0.58646 0.0
Li1497 Li 0.29753 0.6272 0.56737 0.0
Li1498 Li 0.28159 0.65521 0.54288 0.0
Li1499 Li 0.25593 0.6227 0.55853 0.0
C1500 C 0.32606 0.67998 0.57001 0.0
N1501 N 0.36341 0.71764 0.57164 0.0
C1502 C 0.34919 0.67679 0.57394 0.0
C1503 C 0.3219 0.7023 0.56688 0.0
C1504 C 0.36784 0.69607 0.57475 0.0
C1505 C 0.34103 0.72111 0.5677 0.0
C1506 C 0.27546 0.60836 0.60777 0.0
C1507 C 0.2689 0.5688 0.61825 0.0
N1508 N 0.276 0.57759 0.64259 0.0
C1509 C 0.28271 0.61703 0.63287 0.0
C1510 C 0.26849 0.58409 0.60033 0.0
C1511 C 0.28287 0.60117 0.6502 0.0
C1512 C 0.26023 0.67621 0.62615 0.0
N1513 N 0.2798 0.67677 0.61476 0.0
C1514 C 0.30233 0.70739 0.6449 0.0
C1515 C 0.30064 0.69159 0.62378 0.0
C1516 C 0.28259 0.7071 0.6573 0.0
C1517 C 0.26123 0.69147 0.6478 0.0
H1518 H 0.24402 0.66386 0.61845 0.0
H1519 H 0.31603 0.69106 0.61477 0.0
C1520 C 0.32972 0.61006 0.54734 0.0
N1521 N 0.32126 0.6112 0.5694 0.0
C1522 C 0.3472 0.59787 0.54368 0.0
C1523 C 0.34772 0.5889 0.58605 0.0
C1524 C 0.32979 0.60126 0.58884 0.0
C1525 C 0.35615 0.58706 0.56308 0.0
H1526 H 0.32277 0.61866 0.53256 0.0
H1527 H 0.32277 0.60288 0.60629 0.0
C1528 C 0.23799 0.66991 0.56358 0.0
N1529 N 0.20632 0.69877 0.56985 0.0
C1530 C 0.21377 0.66038 0.55956 0.0
C1531 C 0.24611 0.69415 0.57063 0.0
C1532 C 0.19804 0.67525 0.56281 0.0
C1533 C 0.22981 0.70843 0.57384 0.0
C1534 C 0.27145 0.60398 0.51447 0.0
C1535 C 0.26378 0.60985 0.49131 0.0
C1536 C 0.2716 0.58052 0.5172 0.0
C1537 C 0.25599 0.59199 0.47124 0.0
C1538 C 0.26374 0.56318 0.49665 0.0
N1539 N 0.25613 0.56921 0.47431 0.0
C1540 C 0.30446 0.67988 0.50723 0.0
C1541 C 0.2642 0.68047 0.50953 0.0
C1542 C 0.30505 0.69454 0.48867 0.0
N1543 N 0.28423 0.67345 0.51726 0.0
C1544 C 0.26407 0.69523 0.49144 0.0
C1545 C 0.28466 0.70247 0.48093 0.0
H1546 H 0.32002 0.67371 0.51371 0.0
H1547 H 0.24823 0.67445 0.51726 0.0
C1548 C 0.21605 0.60005 0.57362 0.0
N1549 N 0.22722 0.60216 0.55321 0.0
C1550 C 0.19259 0.58855 0.57099 0.0
C1551 C 0.19321 0.58054 0.52659 0.0
C1552 C 0.21648 0.59262 0.53003 0.0
C1553 C 0.18107 0.57914 0.54716 0.0
H1554 H 0.22499 0.60856 0.59167 0.0
H1555 H 0.22531 0.59552 0.51405 0.0
O1556 O 0.30771 0.66152 0.57049 0.0
O1557 O 0.27416 0.62369 0.59079 0.0
O1558 O 0.25353 0.65568 0.5593 0.0
O1559 O 0.27881 0.62121 0.53434 0.0
H1560 H 0.35268 0.65968 0.57671 0.0
H1561 H 0.30411 0.70507 0.56398 0.0
H1562 H 0.38584 0.69391 0.57797 0.0
H1563 H 0.33809 0.73848 0.56533 0.0
H1564 H 0.26349 0.54996 0.61281 0.0
H1565 H 0.28798 0.63581 0.6389 0.0
H1566 H 0.26266 0.57717 0.58097 0.0
H1567 H 0.28836 0.60761 0.66971 0.0
H1568 H 0.31894 0.7196 0.65156 0.0
H1569 H 0.24574 0.69092 0.65714 0.0
H1570 H 0.35383 0.59697 0.5259 0.0
H1571 H 0.35476 0.58089 0.60133 0.0
H1572 H 0.20714 0.64176 0.55353 0.0
H1573 H 0.26477 0.70185 0.5736 0.0
H1574 H 0.17925 0.66812 0.5596 0.0
H1575 H 0.23584 0.72721 0.57939 0.0
H1576 H 0.26357 0.62796 0.48894 0.0
H1577 H 0.27758 0.57577 0.53503 0.0
H1578 H 0.24979 0.59621 0.45325 0.0
H1579 H 0.26366 0.54491 0.49846 0.0
H1580 H 0.32106 0.69958 0.48048 0.0
H1581 H 0.24785 0.70049 0.48525 0.0
H1582 H 0.18329 0.58783 0.58709 0.0
H1583 H 0.18436 0.57372 0.50799 0.0
Li1584 Li 0.42799 0.49821 0.77025 0.0
Li1585 Li 0.46364 0.52482 0.79846 0.0
Li1586 Li 0.43334 0.54217 0.77329 0.0
Li1587 Li 0.46135 0.52407 0.75018 0.0
C1588 C 0.41303 0.52327 0.81536 0.0
N1589 N 0.37933 0.52521 0.84679 0.0
C1590 C 0.41872 0.52288 0.8408 0.0
C1591 C 0.39018 0.5245 0.80586 0.0
C1592 C 0.40142 0.52384 0.85638 0.0
C1593 C 0.37342 0.5256 0.82209 0.0
C1594 C 0.4772 0.48259 0.77425 0.0
C1595 C 0.51539 0.47325 0.77274 0.0
N1596 N 0.5069 0.45161 0.77911 0.0
C1597 C 0.46879 0.4603 0.78076 0.0
C1598 C 0.50062 0.48919 0.77016 0.0
C1599 C 0.48411 0.44487 0.78315 0.0
C1600 C 0.40154 0.45197 0.74813 0.0
N1601 N 0.40594 0.46831 0.76878 0.0
C1602 C 0.38027 0.44217 0.78984 0.0
C1603 C 0.39562 0.46372 0.7894 0.0
C1604 C 0.37578 0.42478 0.76906 0.0
C1605 C 0.38648 0.42997 0.74789 0.0
H1606 H 0.40998 0.45589 0.73198 0.0
H1607 H 0.39965 0.47654 0.80584 0.0
C1608 C 0.48441 0.54836 0.84718 0.0
N1609 N 0.48116 0.52757 0.83191 0.0
C1610 C 0.49324 0.55016 0.87247 0.0
C1611 C 0.49577 0.50931 0.86603 0.0
C1612 C 0.48674 0.50824 0.8409 0.0
C1613 C 0.49896 0.53043 0.88237 0.0
H1614 H 0.47932 0.56339 0.83993 0.0
H1615 H 0.48337 0.49166 0.82883 0.0
C1616 C 0.40929 0.51905 0.72403 0.0
N1617 N 0.37541 0.51968 0.68487 0.0
C1618 C 0.41525 0.53168 0.70455 0.0
C1619 C 0.38615 0.50668 0.7236 0.0
C1620 C 0.39786 0.53176 0.68489 0.0
C1621 C 0.36925 0.50729 0.70367 0.0
C1622 C 0.48361 0.57201 0.7774 0.0
C1623 C 0.47696 0.58862 0.76311 0.0
C1624 C 0.50592 0.5768 0.79134 0.0
C1625 C 0.49285 0.60992 0.7631 0.0
C1626 C 0.52131 0.59827 0.79078 0.0
N1627 N 0.5145 0.61426 0.77681 0.0
C1628 C 0.42762 0.58692 0.79252 0.0
C1629 C 0.39614 0.56668 0.76193 0.0
C1630 C 0.41644 0.60579 0.79641 0.0
N1631 N 0.41734 0.56783 0.77557 0.0
C1632 C 0.38422 0.58505 0.7654 0.0
C1633 C 0.3943 0.60491 0.78296 0.0
H1634 H 0.44435 0.58729 0.80336 0.0
H1635 H 0.38801 0.55121 0.74895 0.0
C1636 C 0.46994 0.50931 0.70023 0.0
N1637 N 0.47748 0.52653 0.72004 0.0
C1638 C 0.47875 0.5115 0.67743 0.0
C1639 C 0.5031 0.54905 0.69549 0.0
C1640 C 0.49406 0.54603 0.71803 0.0
C1641 C 0.49527 0.53181 0.6746 0.0
H1642 H 0.45657 0.49405 0.70191 0.0
H1643 H 0.5001 0.55957 0.73374 0.0
O1644 O 0.42958 0.52159 0.79979 0.0
O1645 O 0.46234 0.49765 0.77123 0.0
O1646 O 0.4262 0.51805 0.74299 0.0
O1647 O 0.46832 0.55118 0.77797 0.0
H1648 H 0.4362 0.5215 0.84839 0.0
H1649 H 0.3854 0.52437 0.78615 0.0
H1650 H 0.40554 0.52341 0.87609 0.0
H1651 H 0.35567 0.52662 0.81503 0.0
H1652 H 0.53358 0.47806 0.76961 0.0
H1653 H 0.45063 0.45496 0.78388 0.0
H1654 H 0.50726 0.50638 0.76496 0.0
H1655 H 0.47788 0.42753 0.78815 0.0
H1656 H 0.37262 0.43883 0.80662 0.0
H1657 H 0.38333 0.41711 0.73138 0.0
H1658 H 0.49534 0.5668 0.88425 0.0
H1659 H 0.49937 0.49348 0.8728 0.0
H1660 H 0.43313 0.54123 0.70457 0.0
H1661 H 0.38129 0.49678 0.73855 0.0
H1662 H 0.40221 0.54139 0.66962 0.0
H1663 H 0.35124 0.49787 0.70311 0.0
H1664 H 0.45977 0.58508 0.75212 0.0
H1665 H 0.51127 0.56405 0.80245 0.0
H1666 H 0.48797 0.62299 0.75218 0.0
H1667 H 0.53865 0.60223 0.80147 0.0
H1668 H 0.42481 0.62074 0.81017 0.0
H1669 H 0.36687 0.58324 0.75518 0.0
H1670 H 0.47215 0.49771 0.66191 0.0
H1671 H 0.51616 0.56479 0.69446 0.0
Li1672 Li 0.68417 0.05625 0.77816 0.0
Li1673 Li 0.71679 0.0816 0.76324 0.0
Li1674 Li 0.68347 0.05842 0.73439 0.0
Li1675 Li 0.71248 0.04017 0.7537 0.0
C1676 C 0.66938 0.09977 0.75836 0.0
N1677 N 0.64069 0.13186 0.75372 0.0
C1678 C 0.67926 0.12386 0.76039 0.0
C1679 C 0.64489 0.09205 0.75404 0.0
C1680 C 0.66446 0.1398 0.75808 0.0
C1681 C 0.6307 0.10852 0.75161 0.0
C1682 C 0.73546 0.06693 0.80655 0.0
C1683 C 0.77649 0.07661 0.82371 0.0
N1684 N 0.77048 0.08382 0.8462 0.0
C1685 C 0.72964 0.07416 0.82989 0.0
C1686 C 0.75903 0.06797 0.80342 0.0
C1687 C 0.74762 0.08278 0.84968 0.0
C1688 C 0.65856 0.03345 0.81296 0.0
N1689 N 0.66661 0.05399 0.80411 0.0
C1690 C 0.65043 0.07587 0.83438 0.0
C1691 C 0.66292 0.07493 0.81435 0.0
C1692 C 0.64186 0.05506 0.84389 0.0
C1693 C 0.64578 0.03355 0.83309 0.0
H1694 H 0.66218 0.01715 0.80447 0.0
H1695 H 0.67003 0.09096 0.80718 0.0
C1696 C 0.74626 0.11998 0.75138 0.0
N1697 N 0.73734 0.11019 0.77062 0.0
C1698 C 0.75828 0.14326 0.75502 0.0
C1699 C 0.75228 0.14555 0.79837 0.0
C1700 C 0.74019 0.12223 0.79383 0.0
C1701 C 0.76073 0.15626 0.77858 0.0
H1702 H 0.74268 0.11023 0.73294 0.0
H1703 H 0.73168 0.11432 0.80832 0.0
C1704 C 0.65864 1.01237 0.7483 0.0
N1705 N 0.61914 0.9764 0.74309 0.0
C1706 C 0.66057 0.98895 0.74283 0.0
C1707 C 0.63666 0.0175 0.75114 0.0
C1708 C 0.64039 0.97101 0.74024 0.0
C1709 C 0.61689 0.99907 0.74844 0.0
C1710 C 0.73217 0.06161 0.71389 0.0
C1711 C 0.72357 0.0548 0.68872 0.0
C1712 C 0.75647 0.06711 0.72153 0.0
C1713 C 0.73946 0.05353 0.67155 0.0
C1714 C 0.77179 0.06559 0.70377 0.0
N1715 N 0.76304 0.05891 0.67937 0.0
C1716 C 0.65621 0.07365 0.69689 0.0
C1717 C 0.65776 0.03304 0.69341 0.0
C1718 C 0.63961 0.06936 0.67588 0.0
N1719 N 0.66413 0.05536 0.7055 0.0
C1720 C 0.64125 0.02793 0.67239 0.0
C1721 C 0.63163 0.04615 0.66403 0.0
H1722 H 0.66246 0.09134 0.7065 0.0
H1723 H 0.66532 0.01919 0.70035 0.0
C1724 C 0.72585 1.00555 0.77238 0.0
N1725 N 0.7278 0.01596 0.75158 0.0
C1726 C 0.73838 0.98849 0.77692 0.0
C1727 C 0.7539 0.99231 0.73778 0.0
C1728 C 0.7407 1.00933 0.73383 0.0
C1729 C 0.75308 0.9824 0.75989 0.0
H1730 H 0.71512 1.01121 0.78581 0.0
H1731 H 0.74136 0.01761 0.71716 0.0
O1732 O 0.68367 0.08402 0.76127 0.0
O1733 O 0.71808 0.05845 0.78701 0.0
O1734 O 0.67833 0.03004 0.75099 0.0
O1735 O 0.71687 0.06393 0.73075 0.0
H1736 H 0.69814 0.13024 0.76389 0.0
H1737 H 0.6369 0.07357 0.75235 0.0
H1738 H 0.67189 0.15849 0.75975 0.0
H1739 H 0.61173 0.10274 0.74809 0.0
H1740 H 0.79484 0.07759 0.82157 0.0
H1741 H 0.71146 0.07332 0.83266 0.0
H1742 H 0.76374 0.06218 0.78551 0.0
H1743 H 0.74339 0.08862 0.8678 0.0
H1744 H 0.64747 0.09268 0.84239 0.0
H1745 H 0.63929 0.01728 0.84026 0.0
H1746 H 0.76437 0.15145 0.73937 0.0
H1747 H 0.75349 0.15557 0.81655 0.0
H1748 H 0.6775 0.98471 0.74056 0.0
H1749 H 0.63491 0.03544 0.75568 0.0
H1750 H 0.64162 0.9528 0.736 0.0
H1751 H 0.59976 1.00279 0.75068 0.0
H1752 H 0.70484 0.05078 0.68245 0.0
H1753 H 0.76339 0.07257 0.74093 0.0
H1754 H 0.73305 0.04837 0.652 0.0
H1755 H 0.79064 0.0698 0.70939 0.0
H1756 H 0.63285 0.08382 0.66914 0.0
H1757 H 0.6356 1.00996 0.66319 0.0
H1758 H 0.73745 0.98082 0.79407 0.0
H1759 H 0.76508 0.98758 0.72436 0.0
Li1760 Li 0.77879 0.70911 0.05043 0.0
Li1761 Li 0.79446 0.67729 0.02534 0.0
Li1762 Li 0.77649 0.70652 1.00229 0.0
Li1763 Li 0.75075 0.67383 0.02172 0.0
C1764 C 0.82491 0.72898 0.03184 0.0
N1765 N 0.86621 0.76262 0.03689 0.0
C1766 C 0.84641 0.72332 0.03978 0.0
C1767 C 0.82435 0.7517 0.02647 0.0
C1768 C 0.86711 0.7406 0.04224 0.0
C1769 C 0.84545 0.76848 0.02914 0.0
C1770 C 0.77474 0.65829 0.06742 0.0
C1771 C 0.7692 0.61783 0.07505 0.0
N1772 N 0.7781 0.62523 0.09931 0.0
C1773 C 0.78374 0.66552 0.09244 0.0
C1774 C 0.76734 0.63428 0.05862 0.0
C1775 C 0.78534 0.64852 0.10827 0.0
C1776 C 0.76181 0.7231 0.09532 0.0
N1777 N 0.78151 0.72677 0.08381 0.0
C1778 C 0.80391 0.74887 0.12162 0.0
C1779 C 0.80236 0.73951 0.09645 0.0
C1780 C 0.7839 0.74494 0.13412 0.0
C1781 C 0.76263 0.73196 0.12043 0.0
H1782 H 0.74553 0.71253 0.08517 0.0
H1783 H 0.81801 0.74176 0.08729 0.0
C1784 C 0.82725 0.65202 1.00538 0.0
N1785 N 0.81886 0.65962 0.02641 0.0
C1786 C 0.84505 0.63907 0.00668 0.0
C1787 C 0.84515 0.64209 0.05114 0.0
C1788 C 0.82775 0.65524 0.04904 0.0
C1789 C 0.85392 0.63373 0.0298 0.0
H1790 H 0.82025 0.65614 0.98764 0.0
H1791 H 0.82163 0.66228 0.06559 0.0
C1792 C 0.73609 0.72313 0.02033 0.0
N1793 N 0.70525 0.75256 0.01251 0.0
C1794 C 0.7133 0.7139 0.00816 0.0
C1795 C 0.74327 0.74725 0.02854 0.0
C1796 C 0.69794 0.72909 1.00439 0.0
C1797 C 0.7274 0.76186 0.02438 0.0
C1798 C 0.76756 0.65386 0.97536 0.0
C1799 C 0.76313 0.65882 0.95107 0.0
C1800 C 0.76892 0.63097 0.97954 0.0
C1801 C 0.76021 0.64075 0.93128 0.0
C1802 C 0.76595 0.61339 0.95924 0.0
N1803 N 0.7617 0.61861 0.93574 0.0
C1804 C 0.80015 0.72278 0.9622 0.0
C1805 C 0.76283 0.73268 0.9613 0.0
C1806 C 0.80363 0.73215 0.93993 0.0
N1807 N 0.77997 0.72305 0.97251 0.0
C1808 C 0.76568 0.74242 0.93903 0.0
C1809 C 0.78634 0.74231 0.92783 0.0
H1810 H 0.81342 0.71466 0.97098 0.0
H1811 H 0.7467 0.73249 0.96935 0.0
C1812 C 0.71292 0.65021 0.04338 0.0
N1813 N 0.72102 0.65188 0.02108 0.0
C1814 C 0.69204 0.63431 0.04524 0.0
C1815 C 0.68784 0.62215 1.00105 0.0
C1816 C 0.70895 0.63824 1.00005 0.0
C1817 C 0.67918 0.61988 0.02392 0.0
H1818 H 0.72277 0.66127 0.05985 0.0
H1819 H 0.71569 0.63979 0.98251 0.0
O1820 O 0.80458 0.71213 0.02868 0.0
O1821 O 0.7734 0.67469 0.05162 0.0
O1822 O 0.75107 0.70846 0.02481 0.0
O1823 O 0.77106 0.67152 0.99485 0.0
H1824 H 0.84711 0.70577 0.04393 0.0
H1825 H 0.80781 0.75626 0.02017 0.0
H1826 H 0.88389 0.73647 0.04833 0.0
H1827 H 0.84533 0.78614 0.02498 0.0
H1828 H 0.76358 0.59918 0.0685 0.0
H1829 H 0.78967 0.68403 0.09952 0.0
H1830 H 0.76024 0.62843 0.03933 0.0
H1831 H 0.79237 0.65385 0.12765 0.0
H1832 H 0.82082 0.75833 0.13143 0.0
H1833 H 0.74675 0.72845 0.12915 0.0
H1834 H 0.85174 0.63323 0.9899 0.0
H1835 H 0.85212 0.63898 0.06938 0.0
H1836 H 0.70751 0.6952 1.00185 0.0
H1837 H 0.76087 0.75455 0.03811 0.0
H1838 H 0.6802 0.72223 0.99506 0.0
H1839 H 0.73266 0.78059 0.03065 0.0
H1840 H 0.76201 0.67646 0.94753 0.0
H1841 H 0.77253 0.6269 0.99822 0.0
H1842 H 0.75682 0.64435 0.91238 0.0
H1843 H 0.76709 0.59561 0.96217 0.0
H1844 H 0.81951 0.73071 0.93191 0.0
H1845 H 0.75173 0.74993 0.93062 0.0
H1846 H 0.68581 0.63365 0.06314 0.0
H1847 H 0.67848 0.61144 0.98412 0.0
Li1848 Li 0.87504 0.50312 0.80956 0.0
Li1849 Li 0.90827 0.52533 0.83762 0.0
Li1850 Li 0.87835 0.54381 0.8184 0.0
Li1851 Li 0.90681 0.52879 0.79446 0.0
C1852 C 0.8594 0.51939 0.85867 0.0
N1853 N 0.8276 0.51563 0.89266 0.0
C1854 C 0.86584 0.51361 0.88223 0.0
C1855 C 0.83679 0.52332 0.8524 0.0
C1856 C 0.84951 0.51174 0.89913 0.0
C1857 C 0.82098 0.52136 0.86987 0.0
C1858 C 0.92249 0.48589 0.81584 0.0
C1859 C 0.96118 0.47696 0.81962 0.0
N1860 N 0.95189 0.4554 0.82568 0.0
C1861 C 0.91331 0.46363 0.82206 0.0
C1862 C 0.9466 0.4926 0.81452 0.0
C1863 C 0.92846 0.44848 0.82699 0.0
C1864 C 0.85943 0.46051 0.7823 0.0
N1865 N 0.85511 0.47445 0.80205 0.0
C1866 C 0.82741 0.44328 0.81322 0.0
C1867 C 0.83912 0.46666 0.81709 0.0
C1868 C 0.83253 0.42824 0.79382 0.0
C1869 C 0.84813 0.437 0.77773 0.0
H1870 H 0.87263 0.46743 0.77107 0.0
H1871 H 0.8363 0.47813 0.83274 0.0
C1872 C 0.94194 0.54696 0.87557 0.0
N1873 N 0.92798 0.52584 0.8658 0.0
C1874 C 0.9583 0.54845 0.8962 0.0
C1875 C 0.94421 0.50667 0.89735 0.0
C1876 C 0.9284 0.50592 0.87629 0.0
C1877 C 0.95958 0.5281 0.90713 0.0
H1878 H 0.94036 0.56262 0.86737 0.0
H1879 H 0.91628 0.48963 0.86848 0.0
C1880 C 0.85624 0.51363 0.76597 0.0
N1881 N 0.8224 0.49128 0.72682 0.0
C1882 C 0.86257 0.50888 0.7423 0.0
C1883 C 0.83265 0.50728 0.76967 0.0
C1884 C 0.84522 0.49753 0.72276 0.0
C1885 C 0.81583 0.49586 0.74967 0.0
C1886 C 0.93139 0.57213 0.8196 0.0
C1887 C 0.92753 0.59441 0.81591 0.0
C1888 C 0.95423 0.56799 0.821 0.0
C1889 C 0.94668 0.61229 0.8137 0.0
C1890 C 0.9729 0.58633 0.81869 0.0
N1891 N 0.96877 0.60792 0.81513 0.0
C1892 C 0.86043 0.58041 0.84267 0.0
C1893 C 0.85001 0.56894 0.79913 0.0
C1894 C 0.84838 0.59873 0.84178 0.0
N1895 N 0.86129 0.5665 0.82132 0.0
C1896 C 0.83762 0.58648 0.79743 0.0
C1897 C 0.83731 0.60199 0.81874 0.0
H1898 H 0.86981 0.57784 0.86 0.0
H1899 H 0.85156 0.55806 0.78244 0.0
C1900 C 0.92522 0.50903 0.75748 0.0
N1901 N 0.92413 0.53077 0.76821 0.0
C1902 C 0.93682 0.50661 0.73697 0.0
C1903 C 0.94609 0.54915 0.73877 0.0
C1904 C 0.93396 0.55074 0.75931 0.0
C1905 C 0.94735 0.52679 0.72749 0.0
H1906 H 0.91663 0.4935 0.7646 0.0
H1907 H 0.93222 0.56776 0.7679 0.0
O1908 O 0.87517 0.52091 0.84187 0.0
O1909 O 0.90779 0.50061 0.81 0.0
O1910 O 0.87285 0.52562 0.78509 0.0
O1911 O 0.91296 0.55476 0.82278 0.0
H1912 H 0.88323 0.51046 0.88738 0.0
H1913 H 0.83143 0.52759 0.83418 0.0
H1914 H 0.85424 0.50718 0.91738 0.0
H1915 H 0.80341 0.5243 0.86527 0.0
H1916 H 0.97987 0.48191 0.81864 0.0
H1917 H 0.89469 0.45812 0.82316 0.0
H1918 H 0.95393 0.50962 0.80938 0.0
H1919 H 0.9216 0.43121 0.83183 0.0
H1920 H 0.81537 0.43676 0.82585 0.0
H1921 H 0.85258 0.42553 0.76284 0.0
H1922 H 0.96982 0.5653 0.90353 0.0
H1923 H 0.94424 0.49086 0.906 0.0
H1924 H 0.88059 0.51426 0.73888 0.0
H1925 H 0.82743 0.51112 0.78781 0.0
H1926 H 0.84987 0.49383 0.70433 0.0
H1927 H 0.79752 0.49074 0.75229 0.0
H1928 H 0.90995 0.59789 0.81498 0.0
H1929 H 0.9575 0.55088 0.82406 0.0
H1930 H 0.94398 0.62967 0.81093 0.0
H1931 H 0.99068 0.58342 0.81982 0.0
H1932 H 0.8487 0.61082 0.85838 0.0
H1933 H 0.82998 0.58903 0.7792 0.0
H1934 H 0.93768 0.48914 0.72865 0.0
H1935 H 0.95407 0.56498 0.73163 0.0
Li1936 Li 0.8084 0.433 0.52806 0.0
Li1937 Li 0.79612 0.46003 0.50054 0.0
Li1938 Li 0.81553 0.43016 0.48517 0.0
Li1939 Li 0.83568 0.46456 0.51468 0.0
C1940 C 0.7679 0.40679 0.50061 0.0
N1941 N 0.73269 0.36871 0.50482 0.0
C1942 C 0.74591 0.41027 0.50609 0.0
C1943 C 0.77206 0.38395 0.49754 0.0
C1944 C 0.72833 0.39079 0.50808 0.0
C1945 C 0.75401 0.36493 0.49967 0.0
C1946 C 0.8221 0.48245 0.55628 0.0
C1947 C 0.84412 0.52087 0.57525 0.0
N1948 N 0.84613 0.51273 0.59759 0.0
C1949 C 0.82404 0.47462 0.57954 0.0
C1950 C 0.83186 0.50591 0.5542 0.0
C1951 C 0.83637 0.49013 0.60016 0.0
C1952 C 0.82634 0.41422 0.566 0.0
N1953 N 0.8049 0.415 0.55417 0.0
C1954 C 0.78545 0.38956 0.58033 0.0
C1955 C 0.78454 0.40341 0.56111 0.0
C1956 C 0.80749 0.38839 0.5924 0.0
C1957 C 0.82805 0.40098 0.58531 0.0
H1958 H 0.84219 0.42406 0.56051 0.0
H1959 H 0.76771 0.40476 0.5518 0.0
C1960 C 0.75195 0.46285 0.47872 0.0
N1961 N 0.77244 0.47529 0.49211 0.0
C1962 C 0.73136 0.47116 0.48028 0.0
C1963 C 0.75458 0.50654 0.50567 0.0
C1964 C 0.77446 0.49717 0.5044 0.0
C1965 C 0.73267 0.49265 0.495 0.0
H1966 H 0.75116 0.44538 0.46928 0.0
H1967 H 0.79096 0.50626 0.51522 0.0
C1968 C 0.85332 0.41744 0.5099 0.0
N1969 N 0.8844 0.38883 0.49962 0.0
C1970 C 0.87569 0.4272 0.50434 0.0
C1971 C 0.8468 0.39318 0.51038 0.0
C1972 C 0.89115 0.41243 0.49918 0.0
C1973 C 0.86275 0.37899 0.50505 0.0
C1974 C 0.81714 0.47572 0.46116 0.0
C1975 C 0.81426 0.46494 0.43657 0.0
C1976 C 0.81656 0.49957 0.46604 0.0
C1977 C 0.81076 0.4782 0.41726 0.0
C1978 C 0.8128 0.51218 0.44623 0.0
N1979 N 0.81007 0.50135 0.42245 0.0
C1980 C 0.79348 0.39893 0.44583 0.0
C1981 C 0.83508 0.40496 0.44794 0.0
C1982 C 0.79039 0.38263 0.42482 0.0
N1983 N 0.81547 0.40921 0.45725 0.0
C1984 C 0.83282 0.38907 0.42645 0.0
C1985 C 0.8102 0.37785 0.41471 0.0
H1986 H 0.77824 0.40354 0.4529 0.0
H1987 H 0.85234 0.41419 0.45683 0.0
C1988 C 0.87854 0.48131 0.54421 0.0
N1989 N 0.86446 0.48484 0.52413 0.0
C1990 C 0.90204 0.49307 0.54862 0.0
C1991 C 0.89519 0.51289 0.51262 0.0
C1992 C 0.87194 0.50074 0.50888 0.0
C1993 C 0.91056 0.50819 0.53199 0.0
H1994 H 0.8719 0.46824 0.55571 0.0
H1995 H 0.86033 0.50282 0.49294 0.0
O1996 O 0.78503 0.42559 0.49762 0.0
O1997 O 0.81003 0.46745 0.53588 0.0
O1998 O 0.83803 0.43163 0.51531 0.0
O1999 O 0.82244 0.46346 0.4802 0.0
H2000 H 0.74248 0.42781 0.50899 0.0
H2001 H 0.78898 0.38093 0.49337 0.0
H2002 H 0.71123 0.39323 0.51226 0.0
H2003 H 0.75693 0.34715 0.49718 0.0
H2004 H 0.85205 0.53896 0.57382 0.0
H2005 H 0.81583 0.45689 0.58183 0.0
H2006 H 0.83037 0.51239 0.53643 0.0
H2007 H 0.83807 0.48423 0.61822 0.0
H2008 H 0.76934 0.37998 0.58569 0.0
H2009 H 0.84528 0.40033 0.59447 0.0
H2010 H 0.71452 0.46 0.47233 0.0
H2011 H 0.75587 0.52296 0.51762 0.0
H2012 H 0.88101 0.44593 0.50375 0.0
H2013 H 0.82962 0.3854 0.51485 0.0
H2014 H 0.90849 0.41971 0.49477 0.0
H2015 H 0.85792 0.36017 0.50528 0.0
H2016 H 0.81524 0.44668 0.43235 0.0
H2017 H 0.81934 0.50836 0.48493 0.0
H2018 H 0.80876 0.47013 0.39815 0.0
H2019 H 0.8123 0.53065 0.44976 0.0
H2020 H 0.77268 0.37397 0.41651 0.0
H2021 H 0.84845 0.38589 0.41886 0.0
H2022 H 0.91376 0.48902 0.56352 0.0
H2023 H 0.90154 0.52444 0.49948 0.0
Li2024 Li 0.62969 0.55902 0.3205 0.0
Li2025 Li 0.66268 0.58436 0.30118 0.0
Li2026 Li 0.62734 0.55697 0.27229 0.0
Li2027 Li 0.65857 0.54064 0.29702 0.0
C2028 C 0.61349 0.59976 0.3016 0.0
N2029 N 0.58406 0.63104 0.30667 0.0
C2030 C 0.6226 0.62292 0.31281 0.0
C2031 C 0.58946 0.59243 0.293 0.0
C2032 C 0.60742 0.63849 0.3152 0.0
C2033 C 0.57485 0.60854 0.29574 0.0
C2034 C 0.68256 0.56851 0.34722 0.0
C2035 C 0.72312 0.57076 0.36349 0.0
N2036 N 0.71817 0.5767 0.3868 0.0
C2037 C 0.67787 0.57466 0.37132 0.0
C2038 C 0.70535 0.56653 0.34324 0.0
C2039 C 0.69611 0.57873 0.39109 0.0
C2040 C 0.60889 0.53409 0.35797 0.0
N2041 N 0.61326 0.55579 0.35031 0.0
C2042 C 0.59913 0.57208 0.3868 0.0
C2043 C 0.60838 0.57463 0.36423 0.0
C2044 C 0.59494 0.54995 0.39548 0.0
C2045 C 0.59962 0.53076 0.38033 0.0
H2046 H 0.61304 0.51931 0.34691 0.0
H2047 H 0.61226 0.59185 0.35821 0.0
C2048 C 0.69234 0.61894 0.28049 0.0
N2049 N 0.68487 0.61416 0.30244 0.0
C2050 C 0.70881 0.63947 0.27915 0.0
C2051 C 0.70838 0.65123 0.32273 0.0
C2052 C 0.69261 0.62981 0.32346 0.0
C2053 C 0.71707 0.6563 0.30035 0.0
H2054 H 0.68544 0.60683 0.26377 0.0
H2055 H 0.68618 0.62592 0.34069 0.0
C2056 C 0.60663 0.51079 0.28915 0.0
N2057 N 0.5727 0.46949 0.28137 0.0
C2058 C 0.61233 0.4895 0.28042 0.0
C2059 C 0.58368 0.51112 0.29386 0.0
C2060 C 0.59494 0.46881 0.27661 0.0
C2061 C 0.56676 0.49003 0.28982 0.0
C2062 C 0.67823 0.55943 0.25541 0.0
C2063 C 0.67126 0.55253 0.22995 0.0
C2064 C 0.70216 0.56454 0.26482 0.0
C2065 C 0.68839 0.55078 0.2143 0.0
C2066 C 0.71876 0.56263 0.24857 0.0
N2067 N 0.71159 0.55584 0.22386 0.0
C2068 C 0.60609 0.57416 0.22974 0.0
C2069 C 0.60325 0.53295 0.22434 0.0
C2070 C 0.59649 0.57329 0.20481 0.0
N2071 N 0.60935 0.55418 0.23907 0.0
C2072 C 0.59378 0.53132 0.19925 0.0
C2073 C 0.59024 0.55167 0.18898 0.0
H2074 H 0.61156 0.59097 0.24147 0.0
H2075 H 0.60666 0.51735 0.23176 0.0
C2076 C 0.68397 0.50763 0.31624 0.0
N2077 N 0.67515 0.51554 0.29543 0.0
C2078 C 0.69528 0.48859 0.31424 0.0
C2079 C 0.68798 0.48625 0.26956 0.0
C2080 C 0.67697 0.50525 0.2724 0.0
C2081 C 0.69704 0.47751 0.29061 0.0
H2082 H 0.682 0.5159 0.33436 0.0
H2083 H 0.66934 0.51143 0.25615 0.0
O2084 O 0.62822 0.5846 0.29827 0.0
O2085 O 0.66469 0.56365 0.32782 0.0
O2086 O 0.62365 0.53106 0.29389 0.0
O2087 O 0.6617 0.56177 0.2709 0.0
H2088 H 0.64121 0.62884 0.31942 0.0
H2089 H 0.58225 0.57456 0.28414 0.0
H2090 H 0.61422 0.65651 0.32375 0.0
H2091 H 0.55621 0.60318 0.2891 0.0
H2092 H 0.74081 0.56918 0.36069 0.0
H2093 H 0.6603 0.57613 0.37476 0.0
H2094 H 0.7092 0.5614 0.32479 0.0
H2095 H 0.69271 0.58341 0.40986 0.0
H2096 H 0.59592 0.58746 0.39772 0.0
H2097 H 0.5962 0.51323 0.3857 0.0
H2098 H 0.71486 0.64205 0.26144 0.0
H2099 H 0.71312 0.6638 0.33946 0.0
H2100 H 0.63 0.48887 0.27676 0.0
H2101 H 0.57905 0.52746 0.30077 0.0
H2102 H 0.59914 0.4522 0.26995 0.0
H2103 H 0.54893 0.48998 0.29348 0.0
H2104 H 0.65285 0.54866 0.22231 0.0
H2105 H 0.70787 0.57028 0.28439 0.0
H2106 H 0.68325 0.54547 0.19456 0.0
H2107 H 0.73735 0.56665 0.25558 0.0
H2108 H 0.59418 0.58949 0.19795 0.0
H2109 H 0.59007 0.51432 0.18784 0.0
H2110 H 0.70215 0.48233 0.33087 0.0
H2111 H 0.68938 0.47842 0.25102 0.0
C2112 C 0.99607 0.97677 0.99208 0.0
C2113 C 0.97368 0.95531 0.02049 0.0
C2114 C 0.98818 0.97601 0.01515 0.0
C2115 C 0.96733 0.93534 1.00242 0.0
C2116 C 0.98923 0.95685 0.97372 0.0
C2117 C 0.97503 0.93613 0.97909 0.0
N2118 N 1.0095 0.99722 0.98724 0.0
C2119 C 1.01556 0.99914 0.96398 0.0
C2120 C 0.99629 0.95852 0.95022 0.0
C2121 C 1.00935 0.97981 0.9453 0.0
Gd2122 Gd 0.07898 0.05675 0.0531 0.0
Gd2123 Gd 0.01637 0.02912 0.01942 0.0
N2124 N 0.99439 0.99565 0.03226 0.0
C2125 C 0.96564 0.95544 0.0437 0.0
C2126 C 0.98542 0.99629 0.05427 0.0
C2127 C 0.97139 0.97609 0.06059 0.0
H2128 H 0.9884 1.0125 0.06669 0.0
H2129 H 0.96461 0.97663 0.07825 0.0
H2130 H 0.09813 0.07713 1.00135 0.0
H2131 H 0.02424 0.01572 0.95919 0.0
H2132 H 0.11648 0.11478 0.98912 0.0
H2133 H 0.95451 0.93988 0.04852 0.0
H2134 H 0.95618 0.91931 0.00618 0.0
H2135 H 0.06799 0.06917 0.11219 0.0
H2136 H 0.99124 0.94367 0.93558 0.0
H2137 H 1.0142 0.98151 0.92692 0.0
H2138 H 0.12576 0.16984 0.06295 0.0
H2139 H 0.96961 0.9207 0.96518 0.0
H2140 H 0.09644 0.1424 0.13515 0.0
H2141 H 0.07615 0.10361 0.14429 0.0
N2142 N 0.08143 0.08847 0.08408 0.0
C2143 C 0.09301 0.1096 0.07872 0.0
C2144 C 0.07555 0.08615 0.10733 0.0
C2145 C 0.09226 0.12743 0.12064 0.0
C2146 C 0.08067 0.1056 0.12584 0.0
C2147 C 0.09861 0.12967 0.09692 0.0
H2148 H 0.11517 0.16677 0.1049 0.0
N2149 N 0.09391 0.0917 0.03751 0.0
C2150 C 0.0993 0.11129 0.05488 0.0
C2151 C 0.11676 0.1344 0.0249 0.0
C2152 C 0.11094 0.13314 0.04895 0.0
C2153 C 0.10041 0.09273 0.01436 0.0
C2154 C 0.11148 0.11411 0.00756 0.0
O2155 O 0.0338 1.00006 0.03414 0.0
O2156 O 0.07246 0.01634 0.05115 0.0
O2157 O 0.11586 0.06013 0.04931 0.0
O2158 O 0.10429 0.05721 0.08534 0.0
O2159 O 0.0205 0.04605 0.05986 0.0
O2160 O 0.05463 0.03782 0.07732 0.0
O2161 O 0.05373 0.08258 0.04634 0.0
O2162 O 0.03224 0.06538 0.00956 0.0
O2163 O 0.98694 0.04414 0.0288 0.0
O2164 O 0.98723 0.02731 0.99068 0.0
O2165 O 0.07841 0.03899 0.01352 0.0
O2166 O 0.04276 0.04292 0.99457 0.0
C2167 C 0.05471 0.99782 0.04456 0.0
C2168 C 0.03287 0.03989 0.07866 0.0
C2169 C 0.13809 0.04269 0.07796 0.0
C2170 C 0.16582 0.01966 0.06434 0.0
C2171 C 0.16198 0.02677 0.10816 0.0
C2172 C 0.14488 0.03972 0.10265 0.0
C2173 C 0.17267 0.01701 0.08916 0.0
C2174 C 0.14837 0.0323 0.05886 0.0
C2175 C 0.12186 0.05825 0.07255 0.0
C2176 C 0.11661 0.15301 0.06716 0.0
C2177 C 0.11055 0.15126 0.09106 0.0
H2178 H 0.12568 0.15087 0.01965 0.0
C2179 C 0.0409 0.08456 0.02544 0.0
C2180 C 0.06421 0.03976 0.99331 0.0
C2181 C 0.95353 0.04347 0.9983 0.0
C2182 C 0.91663 0.0508 0.00936 0.0
C2183 C 0.92421 0.05023 0.96657 0.0
C2184 C 0.94633 0.04544 0.9734 0.0
C2185 C 0.9093 0.0529 0.9845 0.0
C2186 C 0.93871 0.04622 0.01614 0.0
C2187 C 0.97628 0.03828 1.00603 0.0
H2188 H 0.16738 0.02479 0.12726 0.0
H2189 H 0.13732 0.04782 0.11772 0.0
H2190 H 0.18666 1.00795 0.09395 0.0
H2191 H 0.14327 0.03445 0.03971 0.0
H2192 H 0.91868 0.052 0.94744 0.0
H2193 H 0.95782 0.04347 0.95939 0.0
H2194 H 0.89234 0.05703 0.97913 0.0
H2195 H 0.94423 0.04462 0.03539 0.0
C2196 C 0.33519 0.75439 0.22739 0.0
C2197 C 0.30608 0.73769 0.19167 0.0
C2198 C 0.31457 0.75494 0.21253 0.0
C2199 C 0.31768 0.71905 0.18712 0.0
C2200 C 0.34729 0.73613 0.22259 0.0
C2201 C 0.33821 0.71824 0.20259 0.0
N2202 N 0.34279 0.77126 0.24738 0.0
C2203 C 0.36326 0.7719 0.26231 0.0
C2204 C 0.36796 0.73627 0.23826 0.0
C2205 C 0.37613 0.75441 0.25802 0.0
Gd2206 Gd 0.27442 0.78658 0.31465 0.0
Gd2207 Gd 0.31817 0.79754 0.25606 0.0
N2208 N 0.30323 0.77271 0.2181 0.0
C2209 C 0.28657 0.74003 0.17567 0.0
C2210 C 0.28567 0.77628 0.20122 0.0
C2211 C 0.27686 0.75984 0.18002 0.0
H2212 H 0.27844 0.79186 0.20364 0.0
H2213 H 0.26261 0.76252 0.167 0.0
H2214 H 0.31909 0.79125 0.36325 0.0
H2215 H 0.36947 0.7857 0.27773 0.0
H2216 H 0.33761 0.81946 0.39958 0.0
H2217 H 0.27953 0.72721 0.15938 0.0
H2218 H 0.31113 0.70538 0.17145 0.0
H2219 H 0.22187 0.7986 0.29925 0.0
H2220 H 0.37777 0.72253 0.23522 0.0
H2221 H 0.39219 0.7548 0.27012 0.0
H2222 H 0.28506 0.87227 0.40799 0.0
H2223 H 0.34705 0.70385 0.19878 0.0
H2224 H 0.21395 0.85645 0.35057 0.0
H2225 H 0.19837 0.82704 0.31337 0.0
N2226 N 0.25023 0.81151 0.32844 0.0
C2227 C 0.25888 0.82713 0.34922 0.0
C2228 C 0.22872 0.8112 0.31568 0.0
C2229 C 0.22424 0.84385 0.3446 0.0
C2230 C 0.21538 0.8273 0.32359 0.0
C2231 C 0.24624 0.84395 0.35769 0.0
H2232 H 0.24662 0.87355 0.38547 0.0
N2233 N 0.29223 0.80981 0.35303 0.0
C2234 C 0.28069 0.82651 0.36164 0.0
C2235 C 0.31139 0.84052 0.39647 0.0
C2236 C 0.29016 0.84254 0.38333 0.0
C2237 C 0.31163 0.80636 0.3674 0.0
C2238 C 0.32187 0.822 0.38877 0.0
O2239 O 0.31219 0.76086 0.26542 0.0
O2240 O 0.28081 0.76985 0.27866 0.0
O2241 O 0.27269 0.75513 0.33242 0.0
O2242 O 0.24057 0.76513 0.31884 0.0
O2243 O 0.27902 0.80045 0.24651 0.0
O2244 O 0.25403 0.78769 0.27617 0.0
O2245 O 0.27915 0.82378 0.30692 0.0
O2246 O 0.30818 0.81367 0.29043 0.0
O2247 O 0.31953 0.82757 0.23621 0.0
O2248 O 0.35194 0.81869 0.25088 0.0
O2249 O 0.31312 0.78101 0.32099 0.0
O2250 O 0.33725 0.80277 0.29612 0.0
C2251 C 0.29382 0.75448 0.27606 0.0
C2252 C 0.25793 0.79557 0.25456 0.0
C2253 C 0.2414 0.74889 0.3564 0.0
C2254 C 0.24833 0.74167 0.39923 0.0
C2255 C 0.21006 0.74753 0.38227 0.0
C2256 C 0.21808 0.75014 0.35941 0.0
C2257 C 0.22506 0.74325 0.40211 0.0
C2258 C 0.25647 0.74485 0.37649 0.0
C2259 C 0.25001 0.75169 0.33241 0.0
C2260 C 0.27791 0.85969 0.39154 0.0
C2261 C 0.25598 0.86037 0.37878 0.0
H2262 H 0.31929 0.85252 0.41314 0.0
C2263 C 0.29503 0.82899 0.29273 0.0
C2264 C 0.33435 0.79015 0.31496 0.0
C2265 C 0.35019 0.83241 0.2116 0.0
C2266 C 0.34359 0.84195 0.16949 0.0
C2267 C 0.37763 0.82602 0.18252 0.0
C2268 C 0.37081 0.8251 0.20616 0.0
C2269 C 0.36412 0.83439 0.16423 0.0
C2270 C 0.33665 0.8407 0.19309 0.0
C2271 C 0.34219 0.8311 0.23615 0.0
H2272 H 0.19208 0.74849 0.38452 0.0
H2273 H 0.20608 0.75316 0.34413 0.0
H2274 H 0.2183 0.74057 0.4195 0.0
H2275 H 0.27455 0.74398 0.3745 0.0
H2276 H 0.39353 0.82039 0.17841 0.0
H2277 H 0.38159 0.81859 0.22006 0.0
H2278 H 0.36997 0.83542 0.14617 0.0
H2279 H 0.32058 0.84613 0.19701 0.0
C2280 C 0.60281 0.08789 0.4932 0.0
C2281 C 0.62999 0.11512 0.52547 0.0
C2282 C 0.61253 0.09435 0.51818 0.0
C2283 C 0.63816 0.12889 0.50744 0.0
C2284 C 0.61071 0.10203 0.47521 0.0
C2285 C 0.6286 0.12235 0.48242 0.0
N2286 N 0.58558 0.068 0.48657 0.0
C2287 C 0.57574 0.06121 0.46237 0.0
C2288 C 0.60041 0.09536 0.45045 0.0
C2289 C 0.58282 0.07491 0.44404 0.0
Gd2290 Gd 0.51521 0.04049 0.54683 0.0
Gd2291 Gd 0.57898 0.04519 0.51867 0.0
N2292 N 0.60429 0.08081 0.5354 0.0
C2293 C 0.63862 0.12156 0.55074 0.0
C2294 C 0.61285 0.08676 0.56 0.0
C2295 C 0.62994 0.10737 0.56806 0.0
H2296 H 0.60673 0.07563 0.57346 0.0
H2297 H 0.63663 0.11216 0.5876 0.0
H2298 H 0.482 1.01014 0.4947 0.0
H2299 H 0.56309 0.04484 0.45682 0.0
H2300 H 0.45358 0.97234 0.48188 0.0
H2301 H 0.65198 0.13745 0.55706 0.0
H2302 H 0.65171 0.1448 0.5127 0.0
H2303 H 0.51492 0.05266 0.60795 0.0
H2304 H 0.60601 0.10578 0.43611 0.0
H2305 H 0.57504 0.06944 0.42487 0.0
H2306 H 0.4436 0.94065 0.55836 0.0
H2307 H 0.63497 0.13331 0.4688 0.0
H2308 H 0.47886 0.99063 0.63398 0.0
H2309 H 0.50215 0.03161 0.64278 0.0
N2310 N 0.50177 0.02298 0.58066 0.0
C2311 C 0.48734 1.00131 0.57519 0.0
C2312 C 0.50604 0.03435 0.60436 0.0
C2313 C 0.48508 0.99957 0.61885 0.0
C2314 C 0.49829 0.02267 0.62391 0.0
C2315 C 0.47885 0.98884 0.59418 0.0
H2316 H 0.45719 0.95662 0.60225 0.0
N2317 N 0.48683 1.00559 0.53269 0.0
C2318 C 0.47945 0.99241 0.55047 0.0
C2319 C 0.45425 0.96318 0.51905 0.0
C2320 C 0.4632 0.97067 0.54409 0.0
C2321 C 0.47709 0.99904 0.50845 0.0
C2322 C 0.46086 0.97767 0.50121 0.0
O2323 O 0.56606 0.07998 0.52752 0.0
O2324 O 0.54399 0.07403 0.55963 0.0
O2325 O 0.48246 0.0492 0.53118 0.0
O2326 O 0.5019 0.06869 0.56545 0.0
O2327 O 0.57773 0.03922 0.55796 0.0
O2328 O 0.54373 0.0393 0.57695 0.0
O2329 O 0.52263 1.0042 0.53232 0.0
O2330 O 0.55973 1.00706 0.51886 0.0
O2331 O 0.61064 0.03337 0.5324 0.0
O2332 O 0.60224 0.03516 0.49327 0.0
O2333 O 0.52689 0.0519 0.51183 0.0
O2334 O 0.54706 0.02921 0.49137 0.0
C2335 C 0.55529 0.08839 0.54563 0.0
C2336 C 0.56582 0.03759 0.57694 0.0
C2337 C 0.46126 0.06763 0.5595 0.0
C2338 C 0.42788 0.08667 0.56082 0.0
C2339 C 0.43693 0.06274 0.59265 0.0
C2340 C 0.45586 0.05785 0.58106 0.0
C2341 C 0.42311 0.07727 0.58273 0.0
C2342 C 0.44694 0.08174 0.54917 0.0
C2343 C 0.48319 0.06581 0.54932 0.0
C2344 C 0.45586 0.95752 0.56291 0.0
C2345 C 0.46365 0.96659 0.58791 0.0
H2346 H 0.44173 0.94659 0.51339 0.0
C2347 C 0.53966 0.99463 0.524 0.0
C2348 C 0.52786 0.03718 0.49258 0.0
C2349 C 0.62367 1.00658 0.50383 0.0
C2350 C 0.65345 0.98276 0.50755 0.0
C2351 C 0.61868 0.96949 0.47687 0.0
C2352 C 0.61037 0.98949 0.4847 0.0
C2353 C 0.64015 0.96617 0.48812 0.0
C2354 C 0.64519 1.003 0.51543 0.0
C2355 C 0.61632 0.02899 0.51024 0.0
H2356 H 0.43314 0.05549 0.60951 0.0
H2357 H 0.4665 0.0469 0.5893 0.0
H2358 H 0.40857 0.08106 0.59205 0.0
H2359 H 0.4511 0.08957 0.53267 0.0
H2360 H 0.60856 0.95662 0.46184 0.0
H2361 H 0.59379 0.99181 0.47544 0.0
H2362 H 0.64646 0.95065 0.48162 0.0
H2363 H 0.65569 0.01611 0.53008 0.0
C2364 C 0.23789 0.31688 0.73917 0.0
C2365 C 0.21449 0.28109 0.7147 0.0
C2366 C 0.23057 0.29255 0.73565 0.0
C2367 C 0.20626 0.29444 0.69715 0.0
C2368 C 0.2293 0.33041 0.72188 0.0
C2369 C 0.21365 0.31904 0.70073 0.0
N2370 N 0.25308 0.32736 0.75976 0.0
C2371 C 0.25958 0.35128 0.76478 0.0
C2372 C 0.23651 0.35498 0.72652 0.0
C2373 C 0.25156 0.36547 0.74819 0.0
Gd2374 Gd 0.32713 0.27915 0.78858 0.0
Gd2375 Gd 0.26624 0.3023 0.78614 0.0
N2376 N 0.23931 0.2801 0.75268 0.0
C2377 C 0.20713 0.25655 0.71206 0.0
C2378 C 0.23104 0.2564 0.75094 0.0
C2379 C 0.21523 0.24419 0.73045 0.0
H2380 H 0.236 0.24688 0.76554 0.0
H2381 H 0.20905 0.22529 0.72905 0.0
H2382 H 0.35706 0.33445 0.81017 0.0
H2383 H 0.27047 0.35941 0.78192 0.0
H2384 H 0.38523 0.35498 0.84636 0.0
H2385 H 0.19485 0.24706 0.69621 0.0
H2386 H 0.19405 0.28592 0.68084 0.0
H2387 H 0.31364 0.22223 0.79736 0.0
H2388 H 0.23027 0.366 0.71371 0.0
H2389 H 0.25683 0.38446 0.75223 0.0
H2390 H 0.39499 0.294 0.89616 0.0
H2391 H 0.20698 0.32913 0.68716 0.0
H2392 H 0.35196 0.21535 0.86648 0.0
H2393 H 0.32391 0.19751 0.82885 0.0
N2394 N 0.3348 0.254 0.8175 0.0
C2395 C 0.35052 0.26415 0.83787 0.0
C2396 C 0.32536 0.23037 0.81404 0.0
C2397 C 0.34729 0.22638 0.85286 0.0
C2398 C 0.33138 0.21624 0.83169 0.0
C2399 C 0.35711 0.25058 0.85616 0.0
H2400 H 0.37849 0.25138 0.89135 0.0
N2401 N 0.35267 0.30108 0.82295 0.0
C2402 C 0.35984 0.28831 0.8406 0.0
C2403 C 0.38503 0.32361 0.86377 0.0
C2404 C 0.37598 0.29933 0.86166 0.0
C2405 C 0.36192 0.3246 0.82459 0.0
C2406 C 0.37811 0.33625 0.84505 0.0
O2407 O 0.2786 0.29386 0.74808 0.0
O2408 O 0.29984 0.26554 0.75491 0.0
O2409 O 0.35791 0.29005 0.76898 0.0
O2410 O 0.34703 0.25377 0.77629 0.0
O2411 O 0.26907 0.26816 0.8019 0.0
O2412 O 0.29373 0.25119 0.77924 0.0
O2413 O 0.31313 0.28773 0.82541 0.0
O2414 O 0.2954 0.31805 0.81742 0.0
O2415 O 0.23723 0.28869 0.80644 0.0
O2416 O 0.2485 0.32611 0.80618 0.0
O2417 O 0.32658 0.31328 0.77248 0.0
O2418 O 0.29908 0.33163 0.78953 0.0
C2419 C 0.29012 0.2779 0.73971 0.0
C2420 C 0.2759 0.24943 0.79213 0.0
C2421 C 0.38142 0.26134 0.75494 0.0
C2422 C 0.41505 0.26809 0.73146 0.0
C2423 C 0.40151 0.22968 0.74405 0.0
C2424 C 0.38392 0.23791 0.7553 0.0
C2425 C 0.41692 0.2446 0.7322 0.0
C2426 C 0.39724 0.27661 0.74296 0.0
C2427 C 0.36193 0.26882 0.76691 0.0
C2428 C 0.3826 0.28582 0.87987 0.0
C2429 C 0.37321 0.26154 0.87713 0.0
H2430 H 0.39748 0.33273 0.87966 0.0
C2431 C 0.30401 0.30564 0.83315 0.0
C2432 C 0.31848 0.3323 0.77888 0.0
C2433 C 0.20868 0.31244 0.8117 0.0
C2434 C 0.17219 0.31162 0.83042 0.0
C2435 C 0.1772 0.32857 0.79211 0.0
C2436 C 0.19949 0.32338 0.7924 0.0
C2437 C 0.16372 0.32291 0.811 0.0
C2438 C 0.19479 0.30626 0.83062 0.0
C2439 C 0.23341 0.30952 0.81338 0.0
H2440 H 0.40317 0.2116 0.74447 0.0
H2441 H 0.37219 0.22574 0.76428 0.0
H2442 H 0.43046 0.23777 0.72352 0.0
H2443 H 0.39561 0.29471 0.74237 0.0
H2444 H 0.17042 0.33727 0.77729 0.0
H2445 H 0.20975 0.32842 0.77778 0.0
H2446 H 0.14649 0.32724 0.81036 0.0
H2447 H 0.20181 0.29805 0.84577 0.0
C2448 C 0.01967 0.10243 0.58398 0.0
C2449 C 0.05488 0.1304 0.60418 0.0
C2450 C 0.04383 0.11122 0.58594 0.0
C2451 C 0.04125 0.14113 0.61967 0.0
C2452 C 1.00613 0.11253 0.60027 0.0
C2453 C 0.01696 0.13215 0.6178 0.0
N2454 N 1.00957 0.08356 0.56671 0.0
C2455 C 0.98612 0.07374 0.56496 0.0
C2456 C 0.98209 0.10249 0.5986 0.0
C2457 C 0.97209 0.08291 0.58098 0.0
Gd2458 Gd 0.05633 1.01181 0.53403 0.0
Gd2459 Gd 0.03407 0.07281 0.53828 0.0
N2460 N 0.05667 0.10013 0.57108 0.0
C2461 C 0.07939 0.13781 0.60683 0.0
C2462 C 0.0806 0.10712 0.57391 0.0
C2463 C 0.09231 0.12593 0.5918 0.0
H2464 H 0.09085 0.09847 0.56251 0.0
H2465 H 0.11132 0.13136 0.59386 0.0
H2466 H 1.00009 0.98215 0.51514 0.0
H2467 H 0.97793 0.05946 0.55063 0.0
H2468 H 0.97673 0.95782 0.47791 0.0
H2469 H 0.08853 0.15239 0.62068 0.0
H2470 H 0.04943 0.15598 0.63363 0.0
H2471 H 0.11266 0.0174 0.52488 0.0
H2472 H 0.97112 0.1097 0.61084 0.0
H2473 H 0.95348 0.07515 0.5794 0.0
H2474 H 0.03396 0.94712 0.42353 0.0
H2475 H 1.00678 0.14028 0.63027 0.0
H2476 H 0.11509 0.98154 0.45298 0.0
H2477 H 0.13564 1.00589 0.49205 0.0
N2478 N 0.07958 1.00117 0.5041 0.0
C2479 C 0.06798 0.98712 0.48316 0.0
C2480 C 0.10356 1.00765 0.50754 0.0
C2481 C 0.10494 0.98691 0.46719 0.0
C2482 C 0.1166 1.00074 0.48916 0.0
C2483 C 0.08035 0.9798 0.46402 0.0
H2484 H 0.07708 0.95977 0.42755 0.0
N2485 N 0.03224 0.98719 0.49988 0.0
C2486 C 0.04363 0.9799 0.48097 0.0
C2487 C 1.00667 0.95779 0.45817 0.0
C2488 C 0.03109 0.96527 0.45948 0.0
C2489 C 1.0087 0.97861 0.49931 0.0
C2490 C 0.99549 0.96422 0.47834 0.0
O2491 O 0.04345 0.06019 0.5758 0.0
O2492 O 0.07143 0.0387 0.56778 0.0
O2493 O 0.04446 0.97999 0.55225 0.0
O2494 O 0.08129 0.99228 0.54764 0.0
O2495 O 0.06806 0.07156 0.52196 0.0
O2496 O 0.08607 0.04447 0.53996 0.0
O2497 O 0.04905 0.02718 0.49773 0.0
O2498 O 0.01872 0.04555 0.50476 0.0
O2499 O 0.04482 0.10272 0.5172 0.0
O2500 O 1.00885 0.09251 0.52568 0.0
O2501 O 0.02289 0.01375 0.55146 0.0
O2502 O 1.00572 0.03957 0.53083 0.0
C2503 C 0.05991 0.04899 0.58354 0.0
C2504 C 0.08708 0.06381 0.5292 0.0
C2505 C 0.07353 0.95654 0.56645 0.0
C2506 C 0.068 0.92282 0.59003 0.0
C2507 C 0.10466 0.93479 0.57325 0.0
C2508 C 0.0962 0.9529 0.56333 0.0
C2509 C 0.09074 0.91992 0.58652 0.0
C2510 C 0.0592 0.94118 0.5798 0.0
C2511 C 0.06589 0.97646 0.55538 0.0
C2512 C 0.04331 0.9583 0.44019 0.0
C2513 C 0.06788 0.9655 0.44248 0.0
H2514 H 0.9964 0.94657 0.44198 0.0
C2515 C 0.03114 0.03612 0.48946 0.0
C2516 C 1.00411 0.02141 0.54327 0.0
C2517 C 1.01589 0.12657 0.50409 0.0
C2518 C 0.02138 0.15968 0.47975 0.0
C2519 C 0.98496 0.14853 0.49721 0.0
C2520 C 0.99336 0.13053 0.50741 0.0
C2521 C 0.99879 0.16294 0.48346 0.0
C2522 C 0.03013 0.14147 0.49027 0.0
C2523 C 0.02374 0.10716 0.51586 0.0
H2524 H 0.12215 0.93229 0.57067 0.0
H2525 H 0.10759 0.96409 0.55307 0.0
H2526 H 0.09778 0.90598 0.59412 0.0
H2527 H 0.04168 0.94361 0.58246 0.0
H2528 H 0.96761 0.15134 0.49999 0.0
H2529 H 0.98208 0.11973 0.5181 0.0
H2530 H 0.99184 0.17686 0.4757 0.0
H2531 H 0.04759 0.13886 0.48758 0.0
C2532 C 0.25309 0.73345 0.825 0.0
C2533 C 0.22451 0.7085 0.79249 0.0
C2534 C 0.246 0.72487 0.80012 0.0
C2535 C 0.20993 0.7014 0.81027 0.0
C2536 C 0.23914 0.72534 0.84305 0.0
C2537 C 0.21726 0.70974 0.83551 0.0
N2538 N 0.27442 0.74837 0.83168 0.0
C2539 C 0.28389 0.75375 0.85604 0.0
C2540 C 0.24801 0.73244 0.86816 0.0
C2541 C 0.27071 0.74631 0.87468 0.0
Gd2542 Gd 0.29807 0.82386 0.77042 0.0
Gd2543 Gd 0.29486 0.76082 0.79916 0.0
N2544 N 0.2605 0.73217 0.78338 0.0
C2545 C 0.21864 0.69932 0.76732 0.0
C2546 C 0.25571 0.7219 0.75923 0.0
C2547 C 0.23454 0.70572 0.7507 0.0
H2548 H 0.26822 0.72603 0.7466 0.0
H2549 H 0.2306 0.69809 0.73136 0.0
H2550 H 0.32616 0.85633 0.82341 0.0
H2551 H 0.30188 0.76315 0.86099 0.0
H2552 H 0.36246 0.88706 0.83674 0.0
H2553 H 0.20228 0.68673 0.76069 0.0
H2554 H 0.19326 0.68898 0.80476 0.0
H2555 H 0.29838 0.80527 0.7091 0.0
H2556 H 0.23789 0.72651 0.88262 0.0
H2557 H 0.27821 0.75096 0.89401 0.0
H2558 H 0.39871 0.89447 0.76248 0.0
H2559 H 0.20617 0.70353 0.8491 0.0
H2560 H 0.36135 0.84401 0.688 0.0
H2561 H 0.32429 0.81393 0.67743 0.0
N2562 N 0.32142 0.82866 0.73834 0.0
C2563 C 0.34141 0.84583 0.74442 0.0
C2564 C 0.31498 0.81759 0.71451 0.0
C2565 C 0.35028 0.83991 0.70227 0.0
C2566 C 0.32944 0.82282 0.69626 0.0
C2567 C 0.35641 0.85179 0.7265 0.0
H2568 H 0.38866 0.87425 0.71964 0.0
N2569 N 0.33288 0.85085 0.78605 0.0
C2570 C 0.34709 0.85747 0.76876 0.0
C2571 C 0.37337 0.8857 0.80028 0.0
C2572 C 0.36786 0.87501 0.77553 0.0
C2573 C 0.33795 0.8613 0.8101 0.0
C2574 C 0.35837 0.87879 0.81762 0.0
O2575 O 0.25823 0.76761 0.78492 0.0
O2576 O 0.2602 0.80474 0.77201 0.0
O2577 O 0.2873 0.85707 0.78141 0.0
O2578 O 0.28406 0.84226 0.74215 0.0
O2579 O 0.30651 0.77242 0.7644 0.0
O2580 O 0.28238 0.79139 0.74429 0.0
O2581 O 0.33374 0.81245 0.78043 0.0
O2582 O 0.32849 0.78926 0.8118 0.0
O2583 O 0.30846 0.73161 0.78184 0.0
O2584 O 0.31749 0.7437 0.82114 0.0
O2585 O 0.28964 0.82308 0.80911 0.0
O2586 O 0.2992 0.79173 0.82845 0.0
C2587 C 0.2482 0.78445 0.77698 0.0
C2588 C 0.29148 0.77293 0.74532 0.0
C2589 C 0.27181 0.87914 0.75016 0.0
C2590 C 0.24869 0.9093 0.75591 0.0
C2591 C 0.26565 0.90327 0.71764 0.0
C2592 C 0.27522 0.88529 0.72649 0.0
C2593 C 0.25238 0.91514 0.73216 0.0
C2594 C 0.25875 0.89144 0.7651 0.0
C2595 C 0.28104 0.85916 0.75826 0.0
C2596 C 0.38268 0.88101 0.75761 0.0
C2597 C 0.37698 0.86944 0.73321 0.0
H2598 H 0.38921 0.89923 0.8062 0.0
C2599 C 0.34252 0.80146 0.79815 0.0
C2600 C 0.29329 0.81232 0.8286 0.0
C2601 C 0.31715 0.70404 0.80861 0.0
C2602 C 0.33376 0.66894 0.8093 0.0
C2603 C 0.30107 0.67321 0.83217 0.0
C2604 C 0.30081 0.69495 0.82399 0.0
C2605 C 0.31751 0.66032 0.82501 0.0
C2606 C 0.33347 0.6909 0.80112 0.0
C2607 C 0.31929 0.72827 0.80285 0.0
H2608 H 0.26834 0.90789 0.69937 0.0
H2609 H 0.28525 0.8761 0.71475 0.0
H2610 H 0.24495 0.92897 0.72482 0.0
H2611 H 0.25574 0.88662 0.78326 0.0
H2612 H 0.28867 0.66646 0.84432 0.0
H2613 H 0.2883 0.70491 0.83024 0.0
H2614 H 0.31744 0.64349 0.83163 0.0
H2615 H 0.34645 0.69813 0.78971 0.0
C2616 C 0.59676 1.00925 0.09271 0.0
C2617 C 0.61906 0.04417 0.11934 0.0
C2618 C 0.5987 0.03242 0.10303 0.0
C2619 C 0.63784 0.03277 0.12383 0.0
C2620 C 0.61506 0.99733 0.09803 0.0
C2621 C 0.63581 1.00937 0.11325 0.0
N2622 N 0.57669 0.99824 0.07764 0.0
C2623 C 0.57285 0.97484 0.06901 0.0
C2624 C 0.61176 0.97356 0.08819 0.0
C2625 C 0.5904 0.96218 0.07391 0.0
Gd2626 Gd 0.54718 0.06065 0.01058 0.0
Gd2627 Gd 0.54853 0.02062 0.06875 0.0
N2628 N 0.58002 0.04283 0.09846 0.0
C2629 C 0.61946 0.06655 0.13162 0.0
C2630 C 0.57927 0.0631 0.11305 0.0
C2631 C 0.59917 0.07571 0.12907 0.0
H2632 H 0.56314 0.06912 0.11356 0.0
H2633 H 0.5986 0.09213 0.14004 0.0
H2634 H 0.51211 1.00597 0.9863 0.0
H2635 H 0.55618 0.96594 0.05839 0.0
H2636 H 0.47983 0.99 0.95313 0.0
H2637 H 0.63473 0.07617 0.14431 0.0
H2638 H 0.65368 0.04162 0.13611 0.0
H2639 H 0.54469 0.11692 0.02528 0.0
H2640 H 0.62534 0.96373 0.09194 0.0
H2641 H 0.58742 0.94367 0.06672 0.0
H2642 H 0.45526 0.05785 0.92705 0.0
H2643 H 0.65018 1.00059 0.1174 0.0
H2644 H 0.49117 0.13285 0.97395 0.0
H2645 H 0.52272 0.14558 0.00969 0.0
N2646 N 0.52589 0.0884 0.99845 0.0
C2647 C 0.50816 0.08084 0.97934 0.0
C2648 C 0.53085 0.11118 0.00974 0.0
C2649 C 0.50078 0.12022 0.98068 0.0
C2650 C 0.51852 0.12746 1.00091 0.0
C2651 C 0.49516 0.09661 0.96985 0.0
H2652 H 0.46647 0.10012 0.94282 0.0
N2653 N 0.51357 0.04203 0.9815 0.0
C2654 C 0.5019 0.05697 0.97046 0.0
C2655 C 0.47496 0.02403 0.94496 0.0
C2656 C 0.48236 0.04836 0.95185 0.0
C2657 C 0.50507 0.0182 0.97607 0.0
C2658 C 0.4861 1.0089 0.95748 0.0
O2659 O 0.58112 0.02519 0.05126 0.0
O2660 O 0.57031 0.05762 0.04389 0.0
O2661 O 0.57177 0.05713 0.98427 0.0
O2662 O 0.56983 0.0918 1.00144 0.0
O2663 O 0.53766 0.05718 0.0768 0.0
O2664 O 0.55247 0.08252 0.04888 0.0
O2665 O 0.51296 0.05407 0.025 0.0
O2666 O 0.52097 0.02081 0.03682 0.0
O2667 O 0.5384 0.0136 0.10438 0.0
O2668 O 0.52389 0.98823 0.07204 0.0
O2669 O 0.55246 0.02294 0.99953 0.0
O2670 O 0.54854 0.99847 0.03111 0.0
C2671 C 0.58556 0.04451 0.04187 0.0
C2672 C 0.5429 0.0786 0.06941 0.0
C2673 C 0.57816 0.08789 0.96003 0.0
C2674 C 0.58944 0.08342 0.91879 0.0
C2675 C 0.56652 0.11238 0.92979 0.0
C2676 C 0.5666 0.10578 0.95361 0.0
C2677 C 0.57782 0.10115 0.91232 0.0
C2678 C 0.58977 0.07701 0.9426 0.0
C2679 C 0.57825 0.07982 0.98445 0.0
C2680 C 0.47016 0.06416 0.94147 0.0
C2681 C 0.47652 0.08823 0.95047 0.0
H2682 H 0.46004 0.01674 0.93079 0.0
C2683 C 0.50688 0.03555 0.03595 0.0
C2684 C 0.5518 1.00222 0.00791 0.0
C2685 C 0.50222 0.98773 0.10633 0.0
C2686 C 0.47944 0.99407 0.13995 0.0
C2687 C 0.46718 0.95871 0.11005 0.0
C2688 C 0.48657 0.96607 0.09786 0.0
C2689 C 0.46373 0.97255 0.13123 0.0
C2690 C 0.49836 1.00184 0.12732 0.0
C2691 C 0.52431 0.99356 0.09576 0.0
H2692 H 0.55774 0.12622 0.9249 0.0
H2693 H 0.55763 0.11461 0.96682 0.0
H2694 H 0.57786 0.10652 0.89397 0.0
H2695 H 0.59895 0.06337 0.9475 0.0
H2696 H 0.45527 0.94193 0.10355 0.0
H2697 H 0.48976 0.95449 0.08231 0.0
H2698 H 0.44912 0.9663 0.14111 0.0
H2699 H 0.51067 0.01824 0.13472 0.0
C2700 C 0.36353 0.33498 0.32719 0.0
C2701 C 0.38741 0.35136 0.2969 0.0
C2702 C 0.36537 0.34055 0.30311 0.0
C2703 C 0.40735 0.35677 0.315 0.0
C2704 C 0.38363 0.34043 0.34532 0.0
C2705 C 0.40545 0.35142 0.33912 0.0
N2706 N 0.34215 0.32448 0.33292 0.0
C2707 C 0.33964 0.31958 0.35647 0.0
C2708 C 0.3812 0.33499 0.36934 0.0
C2709 C 0.35912 0.32453 0.37491 0.0
Gd2710 Gd 0.28155 0.25965 0.26913 0.0
Gd2711 Gd 0.31053 0.32227 0.30192 0.0
N2712 N 0.34567 0.3357 0.28594 0.0
C2713 C 0.38874 0.35687 0.27275 0.0
C2714 C 0.34679 0.34206 0.26275 0.0
C2715 C 0.36833 0.35223 0.25564 0.0
H2716 H 0.33113 0.34048 0.25 0.0
H2717 H 0.36906 0.35713 0.23716 0.0
H2718 H 0.26107 0.23472 0.31629 0.0
H2719 H 0.32251 0.31301 0.36158 0.0
H2720 H 0.22358 0.21277 0.32661 0.0
H2721 H 0.40535 0.36519 0.2673 0.0
H2722 H 0.42432 0.36531 0.31058 0.0
H2723 H 0.27177 0.26595 0.20784 0.0
H2724 H 0.3962 0.3391 0.3838 0.0
H2725 H 0.35698 0.32078 0.39359 0.0
H2726 H 0.1694 0.20609 0.25231 0.0
H2727 H 0.42099 0.35591 0.35291 0.0
H2728 H 0.19894 0.2382 0.18224 0.0
H2729 H 0.23849 0.25791 0.17457 0.0
N2730 N 0.25108 0.25378 0.23554 0.0
C2731 C 0.22962 0.242 0.23984 0.0
C2732 C 0.25448 0.25883 0.2122 0.0
C2733 C 0.21339 0.24248 0.19733 0.0
C2734 C 0.23566 0.2537 0.19295 0.0
C2735 C 0.21022 0.23608 0.22084 0.0
H2736 H 0.17342 0.21873 0.21125 0.0
N2737 N 0.24625 0.24052 0.28092 0.0
C2738 C 0.22725 0.23479 0.26301 0.0
C2739 C 0.20421 0.21405 0.29108 0.0
C2740 C 0.2056 0.22159 0.26773 0.0
C2741 C 0.24537 0.23207 0.30315 0.0
C2742 C 0.22426 0.21914 0.30879 0.0
O2743 O 0.3349 0.29555 0.29629 0.0
O2744 O 0.31861 0.27353 0.25933 0.0
O2745 O 0.29301 0.22943 0.28147 0.0
O2746 O 0.27845 0.22833 0.24287 0.0
O2747 O 0.29261 0.32084 0.26227 0.0
O2748 O 0.29706 0.28512 0.24404 0.0
O2749 O 0.25332 0.27865 0.28352 0.0
O2750 O 0.2703 0.31711 0.30064 0.0
O2751 O 0.31499 0.35896 0.29711 0.0
O2752 O 0.31195 0.34847 0.33359 0.0
O2753 O 0.29834 0.26438 0.30966 0.0
O2754 O 0.29112 0.29916 0.32673 0.0
C2755 C 0.33751 0.28313 0.2754 0.0
C2756 C 0.29383 0.30649 0.24233 0.0
C2757 C 0.30702 0.2061 0.25167 0.0
C2758 C 0.32856 0.17562 0.25827 0.0
C2759 C 0.33914 0.20201 0.22809 0.0
C2760 C 0.32137 0.21379 0.23389 0.0
C2761 C 0.34277 0.1829 0.24023 0.0
C2762 C 0.31064 0.1871 0.26361 0.0
C2763 C 0.28858 0.21765 0.25919 0.0
C2764 C 0.18619 0.21615 0.249 0.0
C2765 C 0.18848 0.2234 0.22564 0.0
H2766 H 0.1879 0.20388 0.29543 0.0
C2767 C 0.2515 0.29972 0.29394 0.0
C2768 C 0.29259 0.27731 0.32831 0.0
C2769 C 0.29809 0.38231 0.32497 0.0
C2770 C 0.28075 0.41392 0.3119 0.0
C2771 C 0.27699 0.40293 0.35293 0.0
C2772 C 0.2898 0.38554 0.34806 0.0
C2773 C 0.27257 0.41725 0.33494 0.0
C2774 C 0.29329 0.39649 0.30689 0.0
C2775 C 0.31332 0.36566 0.32027 0.0
H2776 H 0.35022 0.20783 0.21437 0.0
H2777 H 0.31892 0.2288 0.22468 0.0
H2778 H 0.35678 0.1741 0.2359 0.0
H2779 H 0.29947 0.18129 0.27736 0.0
H2780 H 0.27068 0.40545 0.37072 0.0
H2781 H 0.2935 0.37492 0.36244 0.0
H2782 H 0.26291 0.43095 0.33896 0.0
H2783 H 0.29997 0.39464 0.28917 0.0
C2784 C 0.52456 0.59465 0.09071 0.0
C2785 C 0.56029 0.62 0.11367 0.0
C2786 C 0.54844 0.60475 0.09232 0.0
C2787 C 0.54808 0.62424 0.13386 0.0
C2788 C 0.51205 0.59978 0.11058 0.0
C2789 C 0.52404 0.61413 0.13234 0.0
N2790 N 0.51326 0.58123 0.06918 0.0
C2791 C 0.4892 0.57463 0.06554 0.0
C2792 C 0.48767 0.59115 0.10764 0.0
C2793 C 0.47616 0.5789 0.08487 0.0
Gd2794 Gd 0.55334 0.51051 0.03582 0.0
Gd2795 Gd 0.53758 0.57495 0.03849 0.0
N2796 N 0.56001 0.60005 0.0727 0.0
C2797 C 0.58393 0.63099 0.11383 0.0
C2798 C 0.58251 0.61192 0.072 0.0
C2799 C 0.59497 0.62721 0.09275 0.0
H2800 H 0.59085 0.60918 0.05554 0.0
H2801 H 0.61302 0.63612 0.09245 0.0
H2802 H 0.49765 0.48211 0.01292 0.0
H2803 H 0.47977 0.56661 0.04762 0.0
H2804 H 0.47737 0.45408 0.97655 0.0
H2805 H 0.59362 0.64287 0.12988 0.0
H2806 H 0.55693 0.63575 0.15052 0.0
H2807 H 0.61139 0.5179 0.0314 0.0
H2808 H 0.47744 0.59473 0.12246 0.0
H2809 H 0.45717 0.57317 0.08199 0.0
H2810 H 0.53967 0.43808 0.93147 0.0
H2811 H 0.51472 0.61809 0.14782 0.0
H2812 H 0.61889 0.47691 0.9642 0.0
H2813 H 0.63666 0.50473 1.002 0.0
N2814 N 0.57936 0.49924 0.00957 0.0
C2815 C 0.56923 0.48329 0.98937 0.0
C2816 C 0.60326 0.5065 0.01455 0.0
C2817 C 0.60762 0.48295 0.97685 0.0
C2818 C 0.61772 0.49874 0.99811 0.0
C2819 C 0.58315 0.4748 0.97239 0.0
H2820 H 0.58272 0.45183 0.93831 0.0
N2821 N 0.53175 0.48389 1.00214 0.0
C2822 C 0.54483 0.47537 0.98557 0.0
C2823 C 0.50937 0.4515 0.96129 0.0
C2824 C 0.53392 0.45901 0.96461 0.0
C2825 C 0.50789 0.47619 0.99931 0.0
C2826 C 0.49633 0.46005 0.97878 0.0
O2827 O 0.56128 0.56618 0.07085 0.0
O2828 O 0.5427 0.52861 0.06993 0.0
O2829 O 0.54345 0.47572 0.04712 0.0
O2830 O 0.5775 0.49828 0.06193 0.0
O2831 O 0.56907 0.56794 0.02065 0.0
O2832 O 0.58434 0.54207 0.04302 0.0
O2833 O 0.54589 0.52441 0.99853 0.0
O2834 O 0.51966 0.54863 1.00504 0.0
O2835 O 0.54973 0.59983 0.01299 0.0
O2836 O 0.52167 0.60493 0.03405 0.0
O2837 O 0.51813 0.51298 0.04771 0.0
O2838 O 0.50523 0.54417 0.0317 0.0
C2839 C 0.55579 0.54783 0.08247 0.0
C2840 C 0.58719 0.56067 0.03106 0.0
C2841 C 0.57248 0.45712 0.06553 0.0
C2842 C 0.57187 0.42169 0.0858 0.0
C2843 C 0.60274 0.43457 0.06074 0.0
C2844 C 0.59286 0.4537 0.05558 0.0
C2845 C 0.59246 0.41879 0.07589 0.0
C2846 C 0.56182 0.44087 0.08041 0.0
C2847 C 0.56289 0.47824 0.0622 0.0
C2848 C 0.54777 0.45064 0.94767 0.0
C2849 C 0.57229 0.45847 0.95157 0.0
H2850 H 0.50035 0.43896 0.94543 0.0
C2851 C 0.5298 0.53575 0.98998 0.0
C2852 C 0.50128 0.52385 0.04087 0.0
C2853 C 0.52329 0.62295 0.99746 0.0
C2854 C 0.52317 0.65516 0.97237 0.0
C2855 C 0.48799 0.62441 0.9703 0.0
C2856 C 0.49976 0.61322 0.98743 0.0
C2857 C 0.49956 0.64527 0.96287 0.0
C2858 C 0.53505 0.64394 0.98973 0.0
C2859 C 0.53483 0.61298 0.01793 0.0
H2860 H 0.61859 0.43211 0.05321 0.0
H2861 H 0.60132 0.46597 0.04416 0.0
H2862 H 0.60058 0.40423 0.07989 0.0
H2863 H 0.54619 0.44353 0.08837 0.0
H2864 H 0.46973 0.61704 0.96297 0.0
H2865 H 0.49032 0.59729 0.9933 0.0
H2866 H 0.49004 0.65382 0.94976 0.0
H2867 H 0.55311 0.65177 0.9976 0.0
C2868 C 0.74728 0.23926 0.32616 0.0
C2869 C 0.71927 0.21179 0.29475 0.0
C2870 C 0.74088 0.2281 0.3017 0.0
C2871 C 0.70395 0.20701 0.31248 0.0
C2872 C 0.73199 0.23412 0.34403 0.0
C2873 C 0.71026 0.21816 0.337 0.0
N2874 N 0.76862 0.25445 0.33263 0.0
C2875 C 0.77622 0.26378 0.35688 0.0
C2876 C 0.73918 0.24476 0.36861 0.0
C2877 C 0.76146 0.25945 0.37508 0.0
Gd2878 Gd 0.79688 0.32243 0.27092 0.0
Gd2879 Gd 0.79149 0.2593 0.30004 0.0
N2880 N 0.75576 0.23341 0.28462 0.0
C2881 C 0.71384 0.2005 0.27021 0.0
C2882 C 0.75125 0.22144 0.26119 0.0
C2883 C 0.73003 0.20515 0.25345 0.0
H2884 H 0.76419 0.22407 0.2487 0.0
H2885 H 0.72636 0.19593 0.23469 0.0
H2886 H 0.82446 0.35559 0.3238 0.0
H2887 H 0.79383 0.27408 0.36259 0.0
H2888 H 0.86115 0.38528 0.33787 0.0
H2889 H 0.69745 0.18777 0.26419 0.0
H2890 H 0.68725 0.19453 0.30747 0.0
H2891 H 0.79684 0.30542 0.20896 0.0
H2892 H 0.72793 0.24124 0.38285 0.0
H2893 H 0.76746 0.26713 0.39421 0.0
H2894 H 0.89777 0.39314 0.26404 0.0
H2895 H 0.69833 0.21405 0.35052 0.0
H2896 H 0.85966 0.345 0.18858 0.0
H2897 H 0.82252 0.31516 0.17745 0.0
N2898 N 0.82018 0.32775 0.23882 0.0
C2899 C 0.84031 0.34474 0.24525 0.0
C2900 C 0.81352 0.31753 0.21469 0.0
C2901 C 0.84873 0.34036 0.20282 0.0
C2902 C 0.82785 0.3234 0.19649 0.0
C2903 C 0.85509 0.35144 0.22733 0.0
H2904 H 0.88718 0.37434 0.22074 0.0
N2905 N 0.83191 0.34902 0.28702 0.0
C2906 C 0.84628 0.35566 0.26988 0.0
C2907 C 0.87265 0.38355 0.3017 0.0
C2908 C 0.86714 0.3731 0.27688 0.0
C2909 C 0.83673 0.35975 0.31095 0.0
C2910 C 0.85732 0.3769 0.31878 0.0
O2911 O 0.7561 0.26888 0.28575 0.0
O2912 O 0.75846 0.30245 0.26572 0.0
O2913 O 0.78619 0.35548 0.28416 0.0
O2914 O 0.78348 0.34241 0.24442 0.0
O2915 O 0.80336 0.26867 0.26436 0.0
O2916 O 0.78243 0.2906 0.24376 0.0
O2917 O 0.83218 0.31059 0.28211 0.0
O2918 O 0.82867 0.28272 0.31002 0.0
O2919 O 0.80716 0.23095 0.28403 0.0
O2920 O 0.79897 0.23246 0.32178 0.0
O2921 O 0.78382 0.3133 0.3064 0.0
O2922 O 0.80492 0.29153 0.32754 0.0
C2923 C 0.74624 0.28375 0.27366 0.0
C2924 C 0.78889 0.27072 0.2453 0.0
C2925 C 0.7719 0.37922 0.25329 0.0
C2926 C 0.74921 0.40978 0.25844 0.0
C2927 C 0.76631 0.40326 0.22044 0.0
C2928 C 0.77566 0.38528 0.22961 0.0
C2929 C 0.75305 0.41537 0.23469 0.0
C2930 C 0.75885 0.39179 0.26794 0.0
C2931 C 0.78029 0.35865 0.2612 0.0
C2932 C 0.88174 0.37971 0.25898 0.0
C2933 C 0.87569 0.369 0.2343 0.0
H2934 H 0.88852 0.397 0.30778 0.0
C2935 C 0.84163 0.29801 0.29796 0.0
C2936 C 0.79726 0.31096 0.3262 0.0
C2937 C 0.82965 0.21345 0.31305 0.0
C2938 C 0.85254 0.18279 0.31089 0.0
C2939 C 0.86218 0.21463 0.34525 0.0
C2940 C 0.84403 0.22451 0.33519 0.0
C2941 C 0.86631 0.19379 0.33331 0.0
C2942 C 0.83422 0.1927 0.3007 0.0
C2943 C 0.80816 0.22156 0.3046 0.0
H2944 H 0.76913 0.40765 0.20212 0.0
H2945 H 0.78563 0.3759 0.21799 0.0
H2946 H 0.74566 0.42913 0.22713 0.0
H2947 H 0.75554 0.38711 0.28607 0.0
H2948 H 0.87287 0.22298 0.36256 0.0
H2949 H 0.84081 0.24042 0.34512 0.0
H2950 H 0.88032 0.18622 0.34152 0.0
H2951 H 0.82312 0.18388 0.28375 0.0
C2952 C 0.081 0.50123 0.59589 0.0
C2953 C 0.10626 0.53364 0.62401 0.0
C2954 C 0.08648 0.52492 0.60568 0.0
C2955 C 0.1195 0.51809 0.63319 0.0
C2956 C 0.09499 0.48579 0.60424 0.0
C2957 C 0.1139 0.49423 0.62331 0.0
N2958 N 0.06344 0.49378 0.57654 0.0
C2959 C 0.05918 0.47134 0.56446 0.0
C2960 C 0.09024 0.46254 0.5924 0.0
C2961 C 0.07235 0.45534 0.57232 0.0
Gd2962 Gd 0.04942 0.56318 0.50519 0.0
Gd2963 Gd 0.04209 0.52137 0.56399 0.0
N2964 N 0.07425 0.53978 0.59521 0.0
C2965 C 0.11307 0.55792 0.63153 0.0
C2966 C 0.08218 0.56363 0.60132 0.0
C2967 C 0.10119 0.57298 0.61983 0.0
H2968 H 0.075 0.57588 0.59134 0.0
H2969 H 0.1071 0.59188 0.62453 0.0
H2970 H 0.04176 0.51504 0.45832 0.0
H2971 H 0.04546 0.46571 0.5488 0.0
H2972 H 1.01063 0.49381 0.42608 0.0
H2973 H 0.1282 0.56527 0.64544 0.0
H2974 H 0.13468 0.52451 0.64725 0.0
H2975 H 0.04278 0.61884 0.51223 0.0
H2976 H 0.10067 0.4502 0.59821 0.0
H2977 H 0.06882 0.43751 0.56278 0.0
H2978 H 0.95813 0.54646 0.41693 0.0
H2979 H 0.12481 0.48261 0.62996 0.0
H2980 H 0.98209 0.62365 0.46328 0.0
H2981 H 1.0155 0.64241 0.4956 0.0
N2982 N 0.0261 0.58749 0.48814 0.0
C2983 C 1.0085 0.57717 0.46959 0.0
C2984 C 0.0288 0.61065 0.49741 0.0
C2985 C 0.99439 0.61337 0.47 0.0
C2986 C 1.01322 0.62401 0.48826 0.0
C2987 C 0.99185 0.58968 0.46039 0.0
H2988 H 0.9602 0.58746 0.43476 0.0
N2989 N 0.02446 0.54306 0.46829 0.0
C2990 C 1.00737 0.5541 0.45967 0.0
C2991 C 0.9901 0.5205 0.42873 0.0
C2992 C 0.98951 0.54296 0.44004 0.0
C2993 C 0.02652 0.52239 0.45509 0.0
C2994 C 1.0091 0.5105 0.4358 0.0
O2995 O 0.07832 0.52694 0.5545 0.0
O2996 O 0.06657 0.5572 0.54116 0.0
O2997 O 0.08015 0.56363 0.48662 0.0
O2998 O 0.07291 0.59645 0.50245 0.0
O2999 O 0.03575 0.55922 0.57355 0.0
O3000 O 0.04496 0.58401 0.54264 0.0
O3001 O 1.01235 0.55716 0.51336 0.0
O3002 O 0.02442 0.52848 0.52895 0.0
O3003 O 0.01615 0.5236 0.58887 0.0
O3004 O 0.01782 0.48967 0.56955 0.0
O3005 O 0.05699 0.52531 0.49895 0.0
O3006 O 0.03824 0.50031 0.52505 0.0
C3007 C 0.08289 0.54503 0.543 0.0
C3008 C 0.03803 0.58002 0.56477 0.0
C3009 C 0.08825 0.5957 0.46419 0.0
C3010 C 0.0957 0.58938 0.42134 0.0
C3011 C 0.09061 0.62772 0.43919 0.0
C3012 C 0.08757 0.61925 0.46178 0.0
C3013 C 0.09474 0.61292 0.41906 0.0
C3014 C 0.09204 0.58083 0.44377 0.0
C3015 C 0.08517 0.58645 0.48782 0.0
C3016 C 0.97215 0.55489 0.4317 0.0
C3017 C 0.97337 0.57825 0.44179 0.0
H3018 H 0.9767 0.51132 0.41367 0.0
C3019 C 1.00823 0.54061 0.527 0.0
C3020 C 0.04995 0.50391 0.50566 0.0
C3021 C 1.00841 0.49128 0.61058 0.0
C3022 C 0.99752 0.49479 0.65196 0.0
C3023 C 0.01914 0.46516 0.63943 0.0
C3024 C 0.01927 0.47263 0.616 0.0
C3025 C 1.00838 0.4763 0.6575 0.0
C3026 C 0.99733 0.50203 0.62856 0.0
C3027 C 1.00912 0.5008 0.58696 0.0
H3028 H 0.0901 0.64588 0.43739 0.0
H3029 H 0.08469 0.63109 0.47729 0.0
H3030 H 0.09779 0.62003 0.40193 0.0
H3031 H 0.09233 0.56253 0.44528 0.0
H3032 H 0.02741 0.45077 0.64359 0.0
H3033 H 0.02792 0.46395 0.60234 0.0
H3034 H 1.0082 0.47034 0.67557 0.0
H3035 H 0.98875 0.51632 0.62447 0.0
C3036 C 0.744 0.81628 0.23393 0.0
C3037 C 0.71792 0.78151 0.2102 0.0
C3038 C 0.73326 0.79256 0.23183 0.0
C3039 C 0.71406 0.79444 0.19051 0.0
C3040 C 0.73949 0.82951 0.21454 0.0
C3041 C 0.72479 0.81838 0.19269 0.0
N3042 N 0.75829 0.82655 0.25523 0.0
C3043 C 0.76682 0.85034 0.25922 0.0
C3044 C 0.74949 0.85367 0.21793 0.0
C3045 C 0.76291 0.86418 0.24053 0.0
Gd3046 Gd 0.82809 0.78283 0.28956 0.0
Gd3047 Gd 0.76447 0.80152 0.28497 0.0
N3048 N 0.73734 0.78049 0.2512 0.0
C3049 C 0.70652 0.75792 0.20925 0.0
C3050 C 0.7251 0.75803 0.25099 0.0
C3051 C 0.70985 0.74625 0.22989 0.0
H3052 H 0.72655 0.74934 0.26728 0.0
H3053 H 0.70043 0.72829 0.2297 0.0
H3054 H 0.86209 0.83624 0.30681 0.0
H3055 H 0.7763 0.85887 0.27695 0.0
H3056 H 0.88953 0.85812 0.34338 0.0
H3057 H 0.69458 0.7488 0.19298 0.0
H3058 H 0.70243 0.7862 0.1737 0.0
H3059 H 0.82116 0.72497 0.29692 0.0
H3060 H 0.74639 0.86446 0.20352 0.0
H3061 H 0.77003 0.88299 0.24367 0.0
H3062 H 0.89138 0.80108 0.40002 0.0
H3063 H 0.72125 0.82823 0.17754 0.0
H3064 H 0.85218 0.72133 0.37046 0.0
H3065 H 0.83014 0.70156 0.33002 0.0
N3066 N 0.83557 0.7581 0.31926 0.0
C3067 C 0.84913 0.76925 0.34077 0.0
C3068 C 0.82974 0.73403 0.31486 0.0
C3069 C 0.8477 0.73183 0.35623 0.0
C3070 C 0.83525 0.7206 0.33343 0.0
C3071 C 0.85538 0.75637 0.35989 0.0
H3072 H 0.87485 0.75856 0.39647 0.0
N3073 N 0.85321 0.80522 0.32369 0.0
C3074 C 0.85853 0.79335 0.34287 0.0
C3075 C 0.88502 0.82873 0.36436 0.0
C3076 C 0.87427 0.80499 0.36398 0.0
C3077 C 0.86499 0.82777 0.32309 0.0
C3078 C 0.88067 0.84004 0.34363 0.0
O3079 O 0.78065 0.79356 0.24935 0.0
O3080 O 0.80152 0.76462 0.25632 0.0
O3081 O 0.85214 0.79378 0.2628 0.0
O3082 O 0.85839 0.76731 0.2856 0.0
O3083 O 0.76317 0.76462 0.29474 0.0
O3084 O 0.79702 0.75133 0.28535 0.0
O3085 O 0.81901 0.80638 0.32178 0.0
O3086 O 0.78027 0.79032 0.32007 0.0
O3087 O 0.72839 0.79598 0.29459 0.0
O3088 O 0.75386 0.82892 0.30859 0.0
O3089 O 0.82243 0.81438 0.27145 0.0
O3090 O 0.79744 0.83125 0.29345 0.0
C3091 C 0.78913 0.77517 0.24128 0.0
C3092 C 0.7753 0.74797 0.29127 0.0
C3093 C 0.87737 0.76839 0.24948 0.0
C3094 C 0.90983 0.77031 0.22445 0.0
C3095 C 0.88416 0.73267 0.22692 0.0
C3096 C 0.87114 0.74386 0.24251 0.0
C3097 C 0.90339 0.74576 0.21799 0.0
C3098 C 0.89678 0.78163 0.24029 0.0
C3099 C 0.86599 0.77984 0.26882 0.0
C3100 C 0.87948 0.7924 0.38356 0.0
C3101 C 0.87003 0.76817 0.38154 0.0
H3102 H 0.89729 0.83824 0.3802 0.0
C3103 C 0.80019 0.80171 0.33297 0.0
C3104 C 0.81612 0.83317 0.28155 0.0
C3105 C 0.71467 0.82568 0.32134 0.0
C3106 C 0.67913 0.82052 0.34221 0.0
C3107 C 0.70048 0.85976 0.33807 0.0
C3108 C 0.71682 0.85019 0.32584 0.0
C3109 C 0.6818 0.8451 0.34616 0.0
C3110 C 0.69565 0.8107 0.32966 0.0
C3111 C 0.73259 0.81648 0.30813 0.0
H3112 H 0.87954 0.71371 0.22203 0.0
H3113 H 0.85662 0.73327 0.24967 0.0
H3114 H 0.91346 0.73669 0.20619 0.0
H3115 H 0.90205 0.8005 0.24593 0.0
H3116 H 0.70231 0.87869 0.34131 0.0
H3117 H 0.73112 0.86204 0.31969 0.0
H3118 H 0.66935 0.85299 0.35568 0.0
H3119 H 0.69377 0.79174 0.3265 0.0
C3120 C 0.83093 0.24908 0.72389 0.0
C3121 C 0.79669 0.22685 0.69613 0.0
C3122 C 0.8077 0.24673 0.71358 0.0
C3123 C 0.80911 0.20927 0.68986 0.0
C3124 C 0.8436 0.23164 0.71737 0.0
C3125 C 0.83253 0.21169 0.70039 0.0
N3126 N 0.84077 0.2679 0.74131 0.0
C3127 C 0.86342 0.27071 0.75235 0.0
C3128 C 0.86688 0.23451 0.72854 0.0
C3129 C 0.87688 0.25422 0.746 0.0
Gd3130 Gd 0.77536 0.28821 0.81375 0.0
Gd3131 Gd 0.81648 0.29328 0.75395 0.0
N3132 N 0.79592 0.26377 0.72065 0.0
C3133 C 0.77356 0.22525 0.68529 0.0
C3134 C 0.77406 0.26306 0.70824 0.0
C3135 C 0.76242 0.24372 0.69098 0.0
H3136 H 0.76535 0.27735 0.71057 0.0
H3137 H 0.74491 0.24324 0.68182 0.0
H3138 H 0.82248 0.29982 0.86145 0.0
H3139 H 0.87106 0.2856 0.76625 0.0
H3140 H 0.84169 0.3322 0.89339 0.0
H3141 H 0.76447 0.21025 0.67192 0.0
H3142 H 0.80081 0.19381 0.67672 0.0
H3143 H 0.72169 0.29733 0.7982 0.0
H3144 H 0.87721 0.22153 0.72397 0.0
H3145 H 0.89483 0.25656 0.75484 0.0
H3146 H 0.78762 0.38384 0.89578 0.0
H3147 H 0.8419 0.198 0.69536 0.0
H3148 H 0.71427 0.36015 0.84194 0.0
H3149 H 0.6979 0.32655 0.80894 0.0
N3150 N 0.75095 0.31389 0.82511 0.0
C3151 C 0.76002 0.33183 0.84371 0.0
C3152 C 0.72889 0.31178 0.81277 0.0
C3153 C 0.72467 0.34721 0.83747 0.0
C3154 C 0.71538 0.3283 0.81882 0.0
C3155 C 0.74726 0.34921 0.85015 0.0
H3156 H 0.74804 0.38169 0.87387 0.0
N3157 N 0.79399 0.31572 0.84931 0.0
C3158 C 0.78237 0.33301 0.8559 0.0
C3159 C 0.81443 0.35176 0.88806 0.0
C3160 C 0.79242 0.35164 0.87515 0.0
C3161 C 0.81443 0.31473 0.86366 0.0
C3162 C 0.82521 0.33293 0.88265 0.0
O3163 O 0.81179 0.25767 0.76585 0.0
O3164 O 0.78237 0.27034 0.77897 0.0
O3165 O 0.77472 0.25944 0.8355 0.0
O3166 O 0.74199 0.26668 0.8192 0.0
O3167 O 0.77882 0.30114 0.74729 0.0
O3168 O 0.75391 0.28497 0.775 0.0
O3169 O 0.78161 0.324 0.8025 0.0
O3170 O 0.81305 0.3147 0.78898 0.0
O3171 O 0.81619 0.31983 0.72971 0.0
O3172 O 0.84945 0.31493 0.7472 0.0
O3173 O 0.81354 0.28189 0.82154 0.0
O3174 O 0.83807 0.29641 0.79261 0.0
C3175 C 0.79426 0.25394 0.77812 0.0
C3176 C 0.75753 0.29521 0.75462 0.0
C3177 C 0.74376 0.25531 0.85936 0.0
C3178 C 0.7486 0.24415 0.90062 0.0
C3179 C 0.72225 0.2701 0.89105 0.0
C3180 C 0.72778 0.26899 0.86677 0.0
C3181 C 0.7328 0.25788 0.90806 0.0
C3182 C 0.7538 0.24268 0.87629 0.0
C3183 C 0.75195 0.25541 0.83498 0.0
C3184 C 0.78004 0.36931 0.88123 0.0
C3185 C 0.75748 0.36806 0.86882 0.0
H3186 H 0.82279 0.36578 0.90287 0.0
C3187 C 0.79911 0.3294 0.79021 0.0
C3188 C 0.83473 0.28767 0.81389 0.0
C3189 C 0.84813 0.3274 0.70732 0.0
C3190 C 0.84339 0.33895 0.66617 0.0
C3191 C 0.87702 0.32266 0.67949 0.0
C3192 C 0.86906 0.3204 0.7025 0.0
C3193 C 0.86418 0.33181 0.66127 0.0
C3194 C 0.83561 0.33692 0.68917 0.0
C3195 C 0.83899 0.32551 0.73109 0.0
H3196 H 0.70998 0.28064 0.89675 0.0
H3197 H 0.71988 0.27908 0.85405 0.0
H3198 H 0.72851 0.25895 0.92689 0.0
H3199 H 0.76628 0.23223 0.87077 0.0
H3200 H 0.89322 0.31743 0.67583 0.0
H3201 H 0.87924 0.31327 0.71639 0.0
H3202 H 0.87067 0.33377 0.64363 0.0
H3203 H 0.81967 0.34279 0.69288 0.0
C3204 C 0.85907 0.84809 0.82893 0.0
C3205 C 0.88083 0.86443 0.79729 0.0
C3206 C 0.85983 0.8523 0.8046 0.0
C3207 C 0.90117 0.87183 0.81479 0.0
C3208 C 0.87914 0.85652 0.84685 0.0
C3209 C 0.90028 0.86803 0.83957 0.0
N3210 N 0.83844 0.83663 0.83528 0.0
C3211 C 0.8363 0.83436 0.8596 0.0
C3212 C 0.87721 0.85357 0.87165 0.0
C3213 C 0.8556 0.84276 0.87809 0.0
Gd3214 Gd 0.77853 0.75951 0.76823 0.0
Gd3215 Gd 0.80742 0.82177 0.80249 0.0
N3216 N 0.83978 0.84509 0.78822 0.0
C3217 C 0.88059 0.8692 0.77275 0.0
C3218 C 0.83902 0.85155 0.76496 0.0
C3219 C 0.85946 0.86309 0.75663 0.0
H3220 H 0.82264 0.84834 0.75291 0.0
H3221 H 0.85881 0.86756 0.7379 0.0
H3222 H 0.75315 0.72815 0.81002 0.0
H3223 H 0.81966 0.82593 0.8648 0.0
H3224 H 0.71383 0.70821 0.8166 0.0
H3225 H 0.89638 0.87832 0.76634 0.0
H3226 H 0.9175 0.88103 0.80949 0.0
H3227 H 0.77414 0.767 0.70712 0.0
H3228 H 0.89216 0.85995 0.886 0.0
H3229 H 0.8538 0.84079 0.89729 0.0
H3230 H 0.66475 0.71245 0.74202 0.0
H3231 H 0.91594 0.87439 0.85302 0.0
H3232 H 0.70178 0.74551 0.67644 0.0
H3233 H 0.74311 0.76235 0.67195 0.0
N3234 N 0.75056 0.75586 0.73278 0.0
C3235 C 0.72801 0.74561 0.73535 0.0
C3236 C 0.75613 0.76114 0.71011 0.0
C3237 C 0.71527 0.74837 0.69238 0.0
C3238 C 0.73857 0.75794 0.68978 0.0
C3239 C 0.7098 0.74161 0.71517 0.0
H3240 H 0.67276 0.72695 0.70265 0.0
N3241 N 0.74144 0.7403 0.77641 0.0
C3242 C 0.72337 0.73756 0.75773 0.0
C3243 C 0.697 0.71528 0.78204 0.0
C3244 C 0.70057 0.72513 0.7602 0.0
C3245 C 0.73837 0.72897 0.79679 0.0
C3246 C 0.7161 0.71688 0.80024 0.0
O3247 O 0.83705 0.80518 0.78849 0.0
O3248 O 0.81923 0.7679 0.76796 0.0
O3249 O 0.78653 0.72822 0.78091 0.0
O3250 O 0.77487 0.72828 0.74158 0.0
O3251 O 0.79014 0.8169 0.76196 0.0
O3252 O 0.799 0.78319 0.74478 0.0
O3253 O 0.75298 0.78456 0.77343 0.0
O3254 O 0.77055 0.80446 0.81089 0.0
O3255 O 0.79433 0.85232 0.79365 0.0
O3256 O 0.79635 0.84358 0.83154 0.0
O3257 O 0.78105 0.7631 0.81055 0.0
O3258 O 0.81155 0.7938 0.82735 0.0
C3259 C 0.83842 0.78481 0.77606 0.0
C3260 C 0.79647 0.80469 0.74314 0.0
C3261 C 0.79995 0.70284 0.75267 0.0
C3262 C 0.82136 0.67411 0.7655 0.0
C3263 C 0.82659 0.68889 0.72641 0.0
C3264 C 0.81042 0.70317 0.73072 0.0
C3265 C 0.83218 0.67436 0.74386 0.0
C3266 C 0.80544 0.68825 0.76979 0.0
C3267 C 0.78261 0.7166 0.75851 0.0
C3268 C 0.68233 0.72192 0.74041 0.0
C3269 C 0.68692 0.73016 0.71798 0.0
H3270 H 0.67981 0.70548 0.78454 0.0
C3271 C 0.75143 0.79709 0.79453 0.0
C3272 C 0.79649 0.77447 0.82945 0.0
C3273 C 0.79265 0.88254 0.82623 0.0
C3274 C 0.78854 0.92123 0.81718 0.0
C3275 C 0.78561 0.9111 0.85876 0.0
C3276 C 0.78927 0.88871 0.85097 0.0
C3277 C 0.78488 0.92725 0.84185 0.0
C3278 C 0.79289 0.8991 0.80965 0.0
C3279 C 0.79047 0.8578 0.81646 0.0
H3280 H 0.83455 0.68884 0.70943 0.0
H3281 H 0.80609 0.71423 0.71702 0.0
H3282 H 0.84432 0.66298 0.74023 0.0
H3283 H 0.79693 0.68754 0.7865 0.0
H3284 H 0.78231 0.91557 0.87761 0.0
H3285 H 0.78829 0.87591 0.86393 0.0
H3286 H 0.78053 0.944 0.84776 0.0
H3287 H 0.79485 0.89434 0.79036 0.0
C3288 C 0.49136 0.47464 0.49053 0.0
C3289 C 0.46829 0.45333 0.51863 0.0
C3290 C 0.48409 0.47355 0.51404 0.0
C3291 C 0.45933 0.43469 0.49937 0.0
C3292 C 0.48279 0.45555 0.47142 0.0
C3293 C 0.46658 0.43578 0.47589 0.0
N3294 N 0.50663 0.49427 0.48634 0.0
C3295 C 0.51365 0.49591 0.46343 0.0
C3296 C 0.4905 0.45695 0.44818 0.0
C3297 C 0.50605 0.47718 0.44422 0.0
Gd3298 Gd 0.5755 0.55214 0.55032 0.0
Gd3299 Gd 0.51207 0.52597 0.51811 0.0
N3300 N 0.49254 0.49206 0.53237 0.0
C3301 C 0.46195 0.45235 0.54251 0.0
C3302 C 0.4858 0.49141 0.55545 0.0
C3303 C 0.47086 0.47142 0.56102 0.0
H3304 H 0.49064 0.50661 0.56922 0.0
H3305 H 0.46559 0.47107 0.57938 0.0
H3306 H 0.60187 0.57012 0.50271 0.0
H3307 H 0.52403 0.51195 0.45924 0.0
H3308 H 0.62496 0.60663 0.49147 0.0
H3309 H 0.44999 0.43707 0.54677 0.0
H3310 H 0.44698 0.41918 0.50254 0.0
H3311 H 0.56722 0.56481 0.61077 0.0
H3312 H 0.48429 0.44266 0.43306 0.0
H3313 H 0.51161 0.47867 0.4261 0.0
H3314 H 0.63195 0.66324 0.56389 0.0
H3315 H 0.45964 0.42113 0.46131 0.0
H3316 H 0.59726 0.63754 0.63417 0.0
H3317 H 0.57568 0.5991 0.64282 0.0
N3318 N 0.58085 0.58389 0.58252 0.0
C3319 C 0.59365 0.60472 0.57772 0.0
C3320 C 0.57504 0.58165 0.60584 0.0
C3321 C 0.59274 0.62267 0.61953 0.0
C3322 C 0.58046 0.60103 0.62446 0.0
C3323 C 0.59983 0.62466 0.5961 0.0
H3324 H 0.61839 0.66118 0.60476 0.0
N3325 N 0.59604 0.58631 0.53751 0.0
C3326 C 0.60166 0.60589 0.55471 0.0
C3327 C 0.6236 0.62729 0.52626 0.0
C3328 C 0.61555 0.62698 0.54946 0.0
C3329 C 0.60481 0.58618 0.51538 0.0
C3330 C 0.61831 0.60674 0.5092 0.0
O3331 O 0.53428 0.49754 0.52547 0.0
O3332 O 0.56164 0.51476 0.55915 0.0
O3333 O 0.6059 0.53899 0.54065 0.0
O3334 O 0.6053 0.55534 0.57877 0.0
O3335 O 0.51434 0.54316 0.55815 0.0
O3336 O 0.54979 0.53715 0.57539 0.0
O3337 O 0.55834 0.58032 0.53271 0.0
O3338 O 0.51809 0.56641 0.52481 0.0
O3339 O 0.47522 0.52336 0.52059 0.0
O3340 O 0.48852 0.52977 0.48593 0.0
O3341 O 0.57088 0.53406 0.51055 0.0
O3342 O 0.5372 0.54329 0.49351 0.0
C3343 C 0.54983 0.49561 0.54445 0.0
C3344 C 0.52874 0.54097 0.57758 0.0
C3345 C 0.64025 0.54129 0.5707 0.0
C3346 C 0.67384 0.52626 0.5595 0.0
C3347 C 0.67352 0.54296 0.60205 0.0
C3348 C 0.65128 0.54757 0.59536 0.0
C3349 C 0.68481 0.53225 0.58418 0.0
C3350 C 0.65157 0.53059 0.55295 0.0
C3351 C 0.61677 0.54522 0.56329 0.0
C3352 C 0.62125 0.64691 0.56757 0.0
C3353 C 0.61347 0.64574 0.59083 0.0
H3354 H 0.63427 0.64315 0.52152 0.0
C3355 C 0.53679 0.58388 0.52677 0.0
C3356 C 0.55849 0.53991 0.4916 0.0
C3357 C 0.45497 0.54451 0.49482 0.0
C3358 C 0.42412 0.56239 0.50916 0.0
C3359 C 0.43798 0.57075 0.47028 0.0
C3360 C 0.45393 0.55605 0.47359 0.0
C3361 C 0.423 0.5739 0.48802 0.0
C3362 C 0.4399 0.54776 0.51249 0.0
C3363 C 0.47037 0.52782 0.49801 0.0
H3364 H 0.68201 0.54773 0.62105 0.0
H3365 H 0.64272 0.55585 0.60942 0.0
H3366 H 0.70215 0.52895 0.58949 0.0
H3367 H 0.64303 0.52543 0.53394 0.0
H3368 H 0.43714 0.57956 0.4539 0.0
H3369 H 0.46519 0.55353 0.45948 0.0
H3370 H 0.41056 0.58518 0.48527 0.0
H3371 H 0.44007 0.53865 0.52876 0.0
C3372 C 0.09629 0.5864 0.99474 0.0
C3373 C 0.12274 0.61538 0.02602 0.0
C3374 C 0.1067 0.59353 0.01937 0.0
C3375 C 0.12855 0.62975 0.00768 0.0
C3376 C 0.10217 0.60091 0.97635 0.0
C3377 C 0.11836 0.62252 0.98295 0.0
N3378 N 0.08055 0.5654 0.98875 0.0
C3379 C 0.07098 0.55748 0.9646 0.0
C3380 C 0.0917 0.59324 0.95178 0.0
C3381 C 0.07613 0.5714 0.94589 0.0
Gd3382 Gd 1.01311 0.53746 0.05067 0.0
Gd3383 Gd 0.07565 0.54312 0.02175 0.0
N3384 N 0.10062 0.57945 0.03694 0.0
C3385 C 0.13244 0.62218 0.05096 0.0
C3386 C 0.11037 0.58573 0.06113 0.0
C3387 C 0.12624 0.60728 0.06857 0.0
H3388 H 0.10595 0.57416 0.07463 0.0
H3389 H 0.1338 0.61232 0.08785 0.0
H3390 H 0.98034 0.51144 0.997 0.0
H3391 H 0.06 0.54012 0.95935 0.0
H3392 H 0.95361 0.47355 0.98016 0.0
H3393 H 0.1448 0.63885 0.05679 0.0
H3394 H 0.1409 0.64655 0.01246 0.0
H3395 H 0.018 0.54057 0.11253 0.0
H3396 H 0.09578 0.60389 0.93717 0.0
H3397 H 0.06841 0.56507 0.92684 0.0
H3398 H 0.94544 0.43291 0.05142 0.0
H3399 H 0.12306 0.63383 0.96904 0.0
H3400 H 0.9832 0.47428 0.1306 0.0
H3401 H 1.00727 0.5145 0.14403 0.0
N3402 N 1.00346 0.51444 0.08201 0.0
C3403 C 0.98885 0.49302 0.07422 0.0
C3404 C 1.00931 0.52251 0.10668 0.0
C3405 C 0.98874 0.48539 0.11678 0.0
C3406 C 1.00247 0.50801 0.12445 0.0
C3407 C 0.98132 0.47781 0.09144 0.0
H3408 H 0.96016 0.44399 0.0959 0.0
N3409 N 0.98746 0.50202 0.03285 0.0
C3410 C 0.98029 0.4868 0.04905 0.0
C3411 C 0.9553 0.46009 0.01533 0.0
C3412 C 0.96435 0.46519 0.04058 0.0
C3413 C 0.97715 0.49802 0.00876 0.0
C3414 C 0.96141 0.47679 0.99945 0.0
O3415 O 0.06285 0.57783 0.0323 0.0
O3416 O 0.03781 0.57384 0.06277 0.0
O3417 O 0.98599 0.55447 0.03418 0.0
O3418 O 0.98587 0.5455 0.07152 0.0
O3419 O 0.06826 0.52936 0.05749 0.0
O3420 O 0.04512 0.54863 0.07936 0.0
O3421 O 0.02378 0.50189 0.03888 0.0
O3422 O 0.05384 0.50552 0.01391 0.0
O3423 O 0.10873 0.53228 0.03492 0.0
O3424 O 0.09583 0.52998 0.99533 0.0
O3425 O 0.02149 0.55007 0.01487 0.0
O3426 O 0.04366 0.52858 0.99501 0.0
C3427 C 0.0517 0.58711 0.04966 0.0
C3428 C 0.06498 0.54157 0.07781 0.0
C3429 C 0.96711 0.57628 0.06264 0.0
C3430 C 0.93599 0.59855 0.0596 0.0
C3431 C 0.96635 0.60777 0.09536 0.0
C3432 C 0.97703 0.59016 0.08544 0.0
C3433 C 0.94588 0.61188 0.08259 0.0
C3434 C 0.94663 0.58072 0.04962 0.0
C3435 C 0.97575 0.5551 0.05422 0.0
C3436 C 0.95758 0.44965 0.0576 0.0
C3437 C 0.96601 0.45594 0.08294 0.0
H3438 H 0.94294 0.44371 0.00811 0.0
C3439 C 0.0372 0.49254 0.02418 0.0
C3440 C 0.02437 0.53632 0.99557 0.0
C3441 C 0.13227 0.51766 1.00378 0.0
C3442 C 0.16333 0.49553 0.00911 0.0
C3443 C 0.15471 0.50995 0.96993 0.0
C3444 C 0.13714 0.51982 0.97937 0.0
C3445 C 0.16768 0.49779 0.98466 0.0
C3446 C 0.14565 0.5056 0.01884 0.0
C3447 C 0.11191 0.52641 0.01196 0.0
H3448 H 0.97375 0.61801 0.11318 0.0
H3449 H 0.99259 0.5869 0.09598 0.0
H3450 H 0.93761 0.6254 0.09071 0.0
H3451 H 0.93859 0.56989 0.03225 0.0
H3452 H 0.15813 0.51154 0.95106 0.0
H3453 H 0.12713 0.52891 0.96732 0.0
H3454 H 0.18113 0.49001 0.97693 0.0
H3455 H 0.14194 0.50346 0.03755 0.0
C3456 C 0.04295 0.15255 0.02839 0.0
C3457 C 0.02877 0.15496 0.00635 0.0
C3458 C 0.04659 0.13022 0.03456 0.0
C3459 C 0.03669 0.10868 0.01894 0.0
H3460 H 0.05111 0.16811 0.04139 0.0
H3461 H 0.05726 0.12996 0.05193 0.0
S3462 S 0.99897 0.10443 0.95834 0.0
N3463 N 1.00544 0.13292 0.96847 0.0
N3464 N 1.0121 0.09188 0.97983 0.0
C3465 C 0.02267 0.11086 0.99676 0.0
C3466 C 0.01881 0.13353 0.99058 0.0
C3467 C 0.20597 0.81877 0.22436 0.0
C3468 C 0.19526 0.80098 0.20435 0.0
C3469 C 0.22614 0.81698 0.2404 0.0
C3470 C 0.23666 0.79732 0.23734 0.0
H3471 H 0.19853 0.83415 0.22804 0.0
H3472 H 0.23353 0.83111 0.25541 0.0
S3473 S 0.21608 0.74538 0.18905 0.0
N3474 N 0.19792 0.76293 0.18273 0.0
N3475 N 0.23433 0.7592 0.21381 0.0
C3476 C 0.22613 0.77928 0.21792 0.0
C3477 C 0.2059 0.78119 0.20127 0.0
C3478 C 0.51327 0.92816 0.50088 0.0
C3479 C 0.53068 0.91628 0.51016 0.0
C3480 C 0.51595 0.95311 0.50564 0.0
C3481 C 0.53625 0.96782 0.51985 0.0
H3482 H 0.49751 0.91816 0.48923 0.0
H3483 H 0.50227 0.96099 0.49738 0.0
S3484 S 0.58623 0.94651 0.55091 0.0
N3485 N 0.56838 0.92212 0.53639 0.0
N3486 N 0.5735 0.96833 0.54435 0.0
C3487 C 0.55358 0.95631 0.5296 0.0
C3488 C 0.55079 0.93092 0.52506 0.0
C3489 C 0.44909 0.28439 0.67913 0.0
C3490 C 0.47133 0.29593 0.69179 0.0
C3491 C 0.42982 0.27789 0.69208 0.0
C3492 C 0.43214 0.2826 0.71815 0.0
H3493 H 0.44692 0.27917 0.65923 0.0
H3494 H 0.41348 0.26748 0.68181 0.0
S3495 S 0.48631 0.31366 0.75973 0.0
N3496 N 0.49425 0.31312 0.73159 0.0
N3497 N 0.45811 0.30059 0.75596 0.0
C3498 C 0.45391 0.29541 0.73083 0.0
C3499 C 0.47351 0.30214 0.71763 0.0
C3500 C 0.05707 0.88825 0.64334 0.0
C3501 C 0.04256 0.86684 0.63154 0.0
C3502 C 0.06298 0.90755 0.63029 0.0
C3503 C 0.05471 0.90623 0.60489 0.0
H3504 H 0.06481 0.88972 0.66253 0.0
H3505 H 0.07552 0.92306 0.63968 0.0
S3506 S 1.01512 0.85475 0.56571 0.0
N3507 N 0.01888 0.846 0.59334 0.0
N3508 N 0.03034 0.88219 0.56877 0.0
C3509 C 0.03908 0.88546 0.59326 0.0
C3510 C 0.03291 0.8658 0.60659 0.0
C3511 C 0.41041 0.82209 0.7977 0.0
C3512 C 0.42094 0.80786 0.81299 0.0
C3513 C 0.38552 0.81976 0.79283 0.0
C3514 C 0.36937 0.80356 0.80346 0.0
H3515 H 0.42151 0.835 0.78894 0.0
H3516 H 0.37898 0.83084 0.78045 0.0
S3517 S 0.38709 0.7616 0.8447 0.0
N3518 N 0.41241 0.77645 0.83849 0.0
N3519 N 0.36648 0.77248 0.82978 0.0
C3520 C 0.37966 0.78917 0.81872 0.0
C3521 C 0.40499 0.79122 0.82334 0.0
C3522 C 0.55408 0.13282 0.11957 0.0
C3523 C 0.53363 0.1423 0.11597 0.0
C3524 C 0.55708 0.11274 0.10435 0.0
C3525 C 0.53929 0.09996 0.08558 0.0
H3526 H 0.56818 0.14095 0.13431 0.0
H3527 H 0.57378 0.10755 0.10716 0.0
S3528 S 0.48433 0.11894 0.06458 0.0
N3529 N 0.49681 0.13871 0.08873 0.0
N3530 N 0.50199 0.10025 0.06175 0.0
C3531 C 0.51924 0.10958 0.08094 0.0
C3532 C 0.5164 0.1306 0.09585 0.0
C3533 C 0.18477 0.28802 0.30373 0.0
C3534 C 0.18033 0.31037 0.31241 0.0
C3535 C 0.20725 0.28486 0.29774 0.0
C3536 C 0.22711 0.30372 0.29986 0.0
H3537 H 0.17063 0.27255 0.30127 0.0
H3538 H 0.20901 0.26721 0.29161 0.0
S3539 S 0.22617 0.36609 0.32191 0.0
N3540 N 0.19909 0.35185 0.32328 0.0
N3541 N 0.24026 0.34601 0.31142 0.0
C3542 C 0.22301 0.32618 0.30842 0.0
C3543 C 0.20014 0.32944 0.3147 0.0
C3544 C 1.00469 0.05166 0.13787 0.0
C3545 C 1.00465 0.03104 0.14927 0.0
C3546 C 1.01334 0.05429 0.1149 0.0
C3547 C 0.02294 0.0367 0.10257 0.0
H3548 H 0.99769 0.06584 0.14663 0.0
H3549 H 1.01293 0.07043 0.10699 0.0
S3550 S 0.027 0.97928 0.12371 0.0
N3551 N 1.0149 0.99252 0.14562 0.0
N3552 N 0.03156 0.99785 0.10316 0.0
C3553 C 0.02314 0.01611 0.11367 0.0
C3554 C 1.01387 0.01317 0.13673 0.0
C3555 C 0.2747 0.73724 0.46398 0.0
C3556 C 0.28331 0.71648 0.46039 0.0
C3557 C 0.26491 0.74643 0.4438 0.0
C3558 C 0.26347 0.73509 0.41949 0.0
H3559 H 0.27374 0.74525 0.48259 0.0
H3560 H 0.25711 0.76161 0.44731 0.0
S3561 S 0.28676 0.68213 0.40037 0.0
N3562 N 0.29245 0.68644 0.43098 0.0
N3563 N 0.27395 0.70361 0.39276 0.0
C3564 C 0.27418 0.71566 0.41556 0.0
C3565 C 0.2842 0.70637 0.43617 0.0
C3566 C 0.61715 0.03002 0.62029 0.0
C3567 C 0.61309 0.04095 0.643 0.0
C3568 C 0.60068 0.02742 0.59928 0.0
C3569 C 0.57989 0.03606 0.60035 0.0
H3570 H 0.63356 0.02437 0.61854 0.0
H3571 H 0.60482 0.01955 0.58186 0.0
S3572 S 0.56032 0.0632 0.65691 0.0
N3573 N 0.58608 0.05755 0.66667 0.0
N3574 N 0.55565 0.05432 0.62673 0.0
C3575 C 0.57516 0.04574 0.62346 0.0
C3576 C 0.59174 0.04789 0.64494 0.0
C3577 C 0.32261 0.33871 0.89881 0.0
C3578 C 0.3052 0.32797 0.91242 0.0
C3579 C 0.32213 0.33144 0.87325 0.0
C3580 C 0.30456 0.31278 0.86025 0.0
H3581 H 0.33651 0.35325 0.90786 0.0
H3582 H 0.33553 0.34066 0.86356 0.0
S3583 S 0.25475 0.27868 0.88642 0.0
N3584 N 0.2696 0.2976 0.91029 0.0
N3585 N 0.2691 0.28393 0.86252 0.0
C3586 C 0.28708 0.30185 0.87342 0.0
C3587 C 0.2873 0.30942 0.89937 0.0
C3588 C 0.99419 0.0198 0.42537 0.0
C3589 C 1.0087 0.0317 0.40965 0.0
C3590 C 1.00148 0.02135 0.45111 0.0
C3591 C 0.02389 0.03424 0.46214 0.0
H3592 H 0.97681 1.00959 0.41778 0.0
H3593 H 0.98953 1.01227 0.46246 0.0
S3594 S 0.06882 0.06839 0.42973 0.0
N3595 N 0.04665 0.05701 0.40752 0.0
N3596 N 0.06052 0.05907 0.4555 0.0
C3597 C 0.0387 0.04589 0.44672 0.0
C3598 C 0.03107 0.04486 0.42065 0.0
C3599 C 0.26845 0.73777 0.68276 0.0
C3600 C 0.28462 0.72313 0.6802 0.0
C3601 C 0.27114 0.75435 0.70378 0.0
C3602 C 0.29006 0.75667 0.7227 0.0
H3603 H 0.2539 0.73665 0.66827 0.0
H3604 H 0.25823 0.76525 0.7053 0.0
S3605 S 0.33709 0.72215 0.72448 0.0
N3606 N 0.31961 0.71121 0.6983 0.0
N3607 N 0.32566 0.74346 0.73718 0.0
C3608 C 0.30651 0.74224 0.72016 0.0
C3609 C 0.30348 0.7251 0.69905 0.0
C3610 C 0.64014 0.07021 0.88733 0.0
C3611 C 0.62866 0.05662 0.86497 0.0
C3612 C 0.62719 0.0779 0.90534 0.0
C3613 C 0.60249 0.07246 0.9012 0.0
H3614 H 0.65915 0.07607 0.89019 0.0
H3615 H 0.63646 0.08923 0.92196 0.0
S3616 S 0.56444 0.03491 0.84719 0.0
N3617 N 0.59157 0.03602 0.84067 0.0
N3618 N 0.56704 0.05075 0.87473 0.0
C3619 C 0.59087 0.05758 0.87974 0.0
C3620 C 0.60407 0.04951 0.86152 0.0
C3621 C 0.31154 0.31504 0.17779 0.0
C3622 C 0.30057 0.33315 0.17065 0.0
C3623 C 0.30888 0.30635 0.20064 0.0
C3624 C 0.29545 0.3156 0.21772 0.0
H3625 H 0.32213 0.3073 0.1655 0.0
H3626 H 0.31781 0.29246 0.20512 0.0
S3627 S 0.26333 0.36337 0.20844 0.0
N3628 N 0.27576 0.36011 0.18291 0.0
N3629 N 0.27104 0.34396 0.22571 0.0
C3630 C 0.28449 0.33376 0.21091 0.0
C3631 C 0.28693 0.34242 0.18748 0.0
C3632 C 0.20162 0.02015 0.01088 0.0
C3633 C 0.2078 0.99813 0.00993 0.0
C3634 C 0.18689 0.0265 0.02772 0.0
C3635 C 0.1782 1.01108 0.04428 0.0
H3636 H 0.20945 0.03305 0.99972 0.0
H3637 H 0.18354 0.04415 0.02885 0.0
S3638 S 0.18799 0.95067 0.04755 0.0
N3639 N 0.20322 0.96034 0.02565 0.0
N3640 N 0.17521 0.97219 0.05715 0.0
C3641 C 0.18314 0.98847 0.04238 0.0
C3642 C 0.198 0.98198 0.02516 0.0
C3643 C 0.63628 0.60328 0.00857 0.0
C3644 C 0.65635 0.60339 0.02537 0.0
C3645 C 0.61426 0.5891 0.01035 0.0
C3646 C 0.61128 0.57417 0.02889 0.0
H3647 H 0.63743 0.61474 0.99426 0.0
H3648 H 0.59938 0.59007 0.99713 0.0
S3649 S 0.65847 0.56699 0.07686 0.0
N3650 N 0.672 0.5865 0.06063 0.0
N3651 N 0.63062 0.56007 0.06414 0.0
C3652 C 0.6313 0.57368 0.04551 0.0
C3653 C 0.65377 0.58825 0.04375 0.0
C3654 C 0.73218 0.45924 0.29759 0.0
C3655 C 0.70856 0.45715 0.28737 0.0
C3656 C 0.74496 0.4423 0.29003 0.0
C3657 C 0.73436 0.42278 0.27223 0.0
H3658 H 0.74131 0.47489 0.31004 0.0
H3659 H 0.76361 0.44541 0.29667 0.0
S3660 S 0.67207 0.40726 0.24318 0.0
N3661 N 0.67435 0.43247 0.26116 0.0
N3662 N 0.69841 0.40084 0.24688 0.0
C3663 C 0.71029 0.41948 0.26362 0.0
C3664 C 0.69735 0.43663 0.27122 0.0
C3665 C 0.95003 0.53132 0.55126 0.0
C3666 C 0.93585 0.51543 0.53177 0.0
C3667 C 0.97408 0.53909 0.55018 0.0
C3668 C 0.98423 0.53057 0.52992 0.0
H3669 H 0.94235 0.53822 0.56689 0.0
H3670 H 0.98463 0.55207 0.56488 0.0
S3671 S 0.95475 0.48804 0.47509 0.0
N3672 N 0.93363 0.49092 0.49222 0.0
N3673 N 0.97901 0.50532 0.49053 0.0
C3674 C 0.9704 0.5142 0.51081 0.0
C3675 C 0.94605 0.5066 0.51168 0.0
C3676 C 0.33628 0.14157 0.3121 0.0
C3677 C 0.33509 0.1188 0.30015 0.0
C3678 C 0.33469 0.16004 0.29829 0.0
C3679 C 0.33206 0.15628 0.27217 0.0
H3680 H 0.33868 0.14514 0.33219 0.0
H3681 H 0.33557 0.17742 0.30809 0.0
S3682 S 0.32802 0.09997 0.23205 0.0
N3683 N 0.3315 0.0935 0.26068 0.0
N3684 N 0.32774 0.12834 0.23484 0.0
C3685 C 0.3307 0.13364 0.25998 0.0
C3686 C 0.33234 0.11482 0.27397 0.0
C3687 C 0.395 0.13588 0.55815 0.0
C3688 C 0.37838 0.12798 0.53669 0.0
C3689 C 0.41181 0.12299 0.56517 0.0
C3690 C 0.41298 0.10198 0.55073 0.0
H3691 H 0.39444 0.15173 0.57018 0.0
H3692 H 0.42349 0.12906 0.58247 0.0
S3693 S 0.3756 0.07475 0.4916 0.0
N3694 N 0.36538 0.09841 0.50016 0.0
N3695 N 0.39777 0.0747 0.5131 0.0
C3696 C 0.39777 0.0947 0.52835 0.0
C3697 C 0.3803 0.10762 0.52133 0.0
C3698 C 0.7318 0.68944 0.27608 0.0
C3699 C 0.73355 0.67922 0.29833 0.0
C3700 C 0.74649 0.71089 0.27346 0.0
C3701 C 0.76288 0.72373 0.29326 0.0
H3702 H 0.7186 0.68116 0.26052 0.0
H3703 H 0.74456 0.71774 0.25591 0.0
S3704 S 0.77624 0.70516 0.35488 0.0
N3705 N 0.75535 0.68329 0.33985 0.0
N3706 N 0.78084 0.72491 0.33556 0.0
C3707 C 0.76523 0.71396 0.31547 0.0
C3708 C 0.751 0.69152 0.3179 0.0
C3709 C 0.82855 0.39172 0.81302 0.0
C3710 C 0.82378 0.40299 0.79223 0.0
C3711 C 0.82095 0.36748 0.81186 0.0
C3712 C 0.80838 0.35412 0.78996 0.0
H3713 H 0.83834 0.40169 0.83016 0.0
H3714 H 0.82465 0.35917 0.82821 0.0
S3715 S 0.79104 0.3756 0.73097 0.0
N3716 N 0.80585 0.3994 0.74941 0.0
N3717 N 0.79082 0.35355 0.74752 0.0
C3718 C 0.80337 0.36515 0.76918 0.0
C3719 C 0.81136 0.38978 0.77023 0.0
C3720 C 0.04189 0.93134 0.05563 0.0
C3721 C 0.06428 0.92644 0.06325 0.0
C3722 C 0.03899 0.95387 0.04942 0.0
C3723 C 0.0582 0.9733 0.05055 0.0
H3724 H 0.02625 0.91752 0.0542 0.0
H3725 H 0.02131 0.95607 0.04396 0.0
S3726 S 0.1206 0.97104 0.07055 0.0
N3727 N 0.10604 0.94418 0.07234 0.0
N3728 N 0.10069 0.98557 0.06065 0.0
C3729 C 0.08063 0.96871 0.05833 0.0
C3730 C 0.0836 0.94576 0.06457 0.0
C3731 C 0.87417 0.26884 0.86656 0.0
C3732 C 0.89732 0.2802 0.864 0.0
C3733 C 0.85427 0.27138 0.85055 0.0
C3734 C 0.85636 0.28529 0.83093 0.0
H3735 H 0.87131 0.2582 0.88141 0.0
H3736 H 0.83703 0.2623 0.8537 0.0
S3737 S 0.91323 0.31789 0.81529 0.0
N3738 N 0.9211 0.30502 0.83932 0.0
N3739 N 0.8842 0.3104 0.81007 0.0
C3740 C 0.87952 0.29649 0.82804 0.0
C3741 C 0.89974 0.29384 0.84428 0.0
C3742 C 0.55015 0.15012 0.57749 0.0
C3743 C 0.56099 0.16635 0.56262 0.0
C3744 C 0.54848 0.12533 0.57207 0.0
C3745 C 0.55717 0.11517 0.55117 0.0
H3746 H 0.54319 0.15666 0.59381 0.0
H3747 H 0.54025 0.11404 0.5845 0.0
S3748 S 0.5841 0.14963 0.50415 0.0
N3749 N 0.5791 0.17001 0.52507 0.0
N3750 N 0.57485 0.12418 0.51412 0.0
C3751 C 0.56719 0.13129 0.53565 0.0
C3752 C 0.56938 0.1565 0.54153 0.0
C3753 C 0.642 0.79205 0.38797 0.0
C3754 C 0.61895 0.79186 0.37711 0.0
C3755 C 0.6616 0.79917 0.37549 0.0
C3756 C 0.65876 0.80614 0.35166 0.0
H3757 H 0.645 0.78796 0.40676 0.0
H3758 H 0.67914 0.80071 0.38517 0.0
S3759 S 0.60193 0.80643 0.31435 0.0
N3760 N 0.59434 0.79749 0.34054 0.0
N3761 N 0.63096 0.81071 0.31713 0.0
C3762 C 0.63569 0.8046 0.34012 0.0
C3763 C 0.61584 0.79751 0.35283 0.0
C3764 C 0.03212 0.19438 0.42657 0.0
C3765 C 0.04766 0.2153 0.4382 0.0
C3766 C 0.02576 0.17513 0.43952 0.0
C3767 C 0.03474 0.17589 0.46462 0.0
H3768 H 0.02394 0.19326 0.40759 0.0
H3769 H 1.01242 0.16013 0.43035 0.0
S3770 S 0.07767 0.22536 0.50313 0.0
N3771 N 0.0733 0.23476 0.47592 0.0
N3772 N 0.06128 0.19844 0.50011 0.0
C3773 C 0.05157 0.19591 0.47597 0.0
C3774 C 0.05807 0.21563 0.4628 0.0
C3775 C 0.68175 0.26714 0.24096 0.0
C3776 C 0.66822 0.27389 0.25946 0.0
C3777 C 0.70668 0.27009 0.24562 0.0
C3778 C 0.71953 0.27959 0.26914 0.0
H3779 H 0.67305 0.2599 0.22242 0.0
H3780 H 0.71596 0.26487 0.23059 0.0
S3781 S 0.69336 0.29879 0.3247 0.0
N3782 N 0.67039 0.28985 0.30287 0.0
N3783 N 0.71664 0.29494 0.31141 0.0
C3784 C 0.70635 0.28589 0.28794 0.0
C3785 C 0.68101 0.28322 0.28317 0.0
C3786 C 0.56222 0.94134 0.98173 0.0
C3787 C 0.5586 0.94093 0.95577 0.0
C3788 C 0.55992 0.96098 0.9982 0.0
C3789 C 0.55432 0.98148 0.98969 0.0
H3790 H 0.5665 0.92615 0.98942 0.0
H3791 H 0.56282 0.96003 0.01783 0.0
S3792 S 0.54461 0.98982 0.92303 0.0
N3793 N 0.54973 0.96296 0.9222 0.0
N3794 N 0.54635 1.0 0.95272 0.0
C3795 C 0.55132 0.98141 0.9636 0.0
C3796 C 0.55317 0.96118 0.94685 0.0
C3797 C 0.90678 0.79105 0.77738 0.0
C3798 C 0.90944 0.77502 0.75694 0.0
C3799 C 0.8842 0.79409 0.78336 0.0
C3800 C 0.86268 0.78133 0.76929 0.0
H3801 H 0.92238 0.80124 0.78917 0.0
H3802 H 0.88366 0.8065 0.79943 0.0
S3803 S 0.85956 0.74053 0.71111 0.0
N3804 N 0.88806 0.74837 0.721 0.0
N3805 N 0.84641 0.75398 0.73187 0.0
C3806 C 0.86521 0.76592 0.74828 0.0
C3807 C 0.88816 0.76283 0.74225 0.0
C3808 C 0.07025 0.05417 0.92718 0.0
C3809 C 0.09057 0.04633 0.92141 0.0
C3810 C 0.06188 0.05166 0.95016 0.0
C3811 C 0.07344 0.04129 0.96872 0.0
H3812 H 0.06054 0.06219 0.91371 0.0
H3813 H 0.04624 0.05823 0.95345 0.0
S3814 S 0.1279 0.01851 0.96355 0.0
N3815 N 0.12243 0.0282 0.93669 0.0
N3816 N 0.10662 0.02342 0.97965 0.0
C3817 C 0.09385 0.03349 0.96329 0.0
C3818 C 0.10236 0.03594 0.93977 0.0
C3819 C 0.81812 0.38517 0.63646 0.0
C3820 C 0.81003 0.37389 0.61218 0.0
C3821 C 0.82801 0.37328 0.65425 0.0
C3822 C 0.83039 0.34997 0.64801 0.0
H3823 H 0.81822 0.40371 0.6412 0.0
H3824 H 0.83502 0.38276 0.67256 0.0
S3825 S 0.80907 0.31201 0.58786 0.0
N3826 N 0.80277 0.33772 0.58337 0.0
N3827 N 0.82156 0.31523 0.617 0.0
C3828 C 0.82092 0.33805 0.62431 0.0
C3829 C 0.81061 0.35009 0.60629 0.0
C3830 C 0.4951 0.01597 0.4281 0.0
C3831 C 0.47717 0.02882 0.42728 0.0
C3832 C 0.51168 0.01897 0.44926 0.0
C3833 C 0.51107 0.03524 0.47 0.0
H3834 H 0.49643 1.00366 0.41225 0.0
H3835 H 0.52497 1.0084 0.44937 0.0
S3836 S 0.46738 0.07321 0.47677 0.0
N3837 N 0.45886 0.05737 0.44924 0.0
N3838 N 0.49159 0.06521 0.48776 0.0
C3839 C 0.49349 0.04863 0.46904 0.0
C3840 C 0.47609 0.04482 0.448 0.0
C3841 C 0.77564 0.73765 0.17749 0.0
C3842 C 0.78524 0.75328 0.16145 0.0
C3843 C 0.77699 0.74479 0.20323 0.0
C3844 C 0.78745 0.76802 0.21398 0.0
H3845 H 0.76737 0.71956 0.17015 0.0
H3846 H 0.76961 0.73206 0.2148 0.0
S3847 S 0.81491 0.81607 0.1807 0.0
N3848 N 0.80563 0.79328 0.1587 0.0
N3849 N 0.80748 0.80668 0.20674 0.0
C3850 C 0.79679 0.78393 0.19825 0.0
C3851 C 0.79591 0.77656 0.17214 0.0
C3852 C 0.08937 0.03401 0.64449 0.0
C3853 C 0.08419 0.05022 0.66303 0.0
C3854 C 0.08142 0.0338 0.61909 0.0
C3855 C 0.06746 0.04945 0.61098 0.0
H3856 H 0.10013 0.02171 0.64959 0.0
H3857 H 0.08626 0.02112 0.60569 0.0
S3858 S 0.04682 0.09356 0.6527 0.0
N3859 N 0.06323 0.08142 0.67173 0.0
N3860 N 0.04733 0.08025 0.62458 0.0
C3861 C 0.06137 0.06501 0.6296 0.0
C3862 C 0.06998 0.06562 0.65537 0.0
C3863 C 0.81964 0.34324 0.39049 0.0
C3864 C 0.807 0.36131 0.39182 0.0
C3865 C 0.81604 0.3267 0.36926 0.0
C3866 C 0.7995 0.32761 0.34888 0.0
H3867 H 0.8322 0.34174 0.40603 0.0
H3868 H 0.82648 0.3133 0.36878 0.0
S3869 S 0.76237 0.37206 0.3432 0.0
N3870 N 0.77827 0.38002 0.37077 0.0
N3871 N 0.77016 0.34795 0.33151 0.0
C3872 C 0.78656 0.34551 0.35015 0.0
C3873 C 0.79069 0.36266 0.37147 0.0
C3874 C 0.47792 1.00839 0.20813 0.0
C3875 C 0.4646 0.02601 0.20879 0.0
C3876 C 0.48395 0.99901 0.18574 0.0
C3877 C 0.47719 1.0073 0.16356 0.0
H3878 H 0.48199 1.0005 0.22468 0.0
H3879 H 0.49273 0.9843 0.18553 0.0
S3880 S 0.44639 0.05609 0.15601 0.0
N3881 N 0.44767 0.05347 0.1859 0.0
N3882 N 0.45984 0.03615 0.14374 0.0
C3883 C 0.46625 0.02657 0.1643 0.0
C3884 C 0.45984 0.03599 0.18706 0.0
C3885 C 0.77019 0.74742 0.88403 0.0
C3886 C 0.78934 0.75163 0.90325 0.0
C3887 C 0.77269 0.75497 0.86061 0.0
C3888 C 0.79454 0.76683 0.85483 0.0
H3889 H 0.75304 0.73788 0.88693 0.0
H3890 H 0.75712 0.75176 0.84706 0.0
S3891 S 0.84999 0.78423 0.89896 0.0
N3892 N 0.83067 0.77056 0.91527 0.0
N3893 N 0.83558 0.7833 0.87103 0.0
C3894 C 0.81374 0.77166 0.874 0.0
C3895 C 0.81113 0.76434 0.89808 0.0
C3896 C 0.89621 0.08058 0.06458 0.0
C3897 C 0.87216 0.07012 0.06091 0.0
C3898 C 0.91108 0.07305 0.04863 0.0
C3899 C 0.90207 0.05496 0.02876 0.0
H3900 H 0.9029 0.09641 0.07776 0.0
H3901 H 0.92917 0.08275 0.0505 0.0
S3902 S 0.84147 0.0189 0.01514 0.0
N3903 N 0.84076 0.03855 0.03907 0.0
N3904 N 0.86894 0.02415 0.00897 0.0
C3905 C 0.87875 0.04256 0.02689 0.0
C3906 C 0.86371 0.05009 0.04325 0.0
C3907 C 0.45228 0.48103 0.06275 0.0
C3908 C 0.43193 0.48213 0.04703 0.0
C3909 C 0.47421 0.49533 0.06114 0.0
C3910 C 0.47696 0.51152 0.04376 0.0
H3911 H 0.45145 0.46844 0.07595 0.0
H3912 H 0.4893 0.49324 0.07342 0.0
S3913 S 0.42898 0.5225 0.99931 0.0
N3914 N 0.41567 0.50181 0.01438 0.0
N3915 N 0.4571 0.52839 0.01108 0.0
C3916 C 0.45667 0.51341 0.02843 0.0
C3917 C 0.43418 0.49875 0.03005 0.0
C3918 C 0.37919 0.63092 0.81398 0.0
C3919 C 0.38082 0.62342 0.78897 0.0
C3920 C 0.36459 0.64633 0.82036 0.0
C3921 C 0.3511 0.65495 0.80201 0.0
H3922 H 0.38854 0.62409 0.82879 0.0
H3923 H 0.36343 0.65113 0.83984 0.0
S3924 S 0.35055 0.64256 0.73394 0.0
N3925 N 0.36897 0.62728 0.74578 0.0
N3926 N 0.34124 0.65605 0.75788 0.0
C3927 C 0.35332 0.64851 0.77699 0.0
C3928 C 0.36817 0.63274 0.77044 0.0
C3929 C 0.14105 0.58606 0.54857 0.0
C3930 C 0.15575 0.57035 0.54337 0.0
C3931 C 0.11674 0.57799 0.54609 0.0
C3932 C 0.10681 0.55402 0.53877 0.0
H3933 H 0.14848 0.60452 0.55511 0.0
H3934 H 0.1059 0.59025 0.55148 0.0
S3935 S 0.13784 0.50645 0.52146 0.0
N3936 N 0.15894 0.53042 0.52901 0.0
N3937 N 0.11294 0.51495 0.52503 0.0
C3938 C 0.12125 0.53838 0.53254 0.0
C3939 C 0.14593 0.54666 0.53469 0.0
C3940 C 0.75992 0.94266 0.76174 0.0
C3941 C 0.76853 0.96702 0.76721 0.0
C3942 C 0.76787 0.92755 0.77715 0.0
C3943 C 0.7845 0.93659 0.79839 0.0
H3944 H 0.7453 0.93556 0.74716 0.0
H3945 H 0.75949 0.909 0.77364 0.0
S3946 S 0.81466 0.99884 0.81801 0.0
N3947 N 0.79628 0.99936 0.79298 0.0
N3948 N 0.81142 0.97084 0.82208 0.0
C3949 C 0.79481 0.96066 0.80249 0.0
C3950 C 0.78686 0.97595 0.7867 0.0
C3951 C 0.69702 0.95651 0.5457 0.0
C3952 C 0.71685 0.9606 0.533 0.0
C3953 C 0.67694 0.96529 0.53854 0.0
C3954 C 0.67622 0.97865 0.51871 0.0
H3955 H 0.69648 0.94529 0.56023 0.0
H3956 H 0.66144 0.96056 0.54765 0.0
S3957 S 0.72465 0.99723 0.48202 0.0
N3958 N 0.7354 0.98112 0.50156 0.0
N3959 N 0.69763 0.99751 0.48815 0.0
C3960 C 0.69645 0.98424 0.50708 0.0
C3961 C 0.71681 0.97525 0.51424 0.0
C3962 C 0.3388 0.3989 0.77866 0.0
C3963 C 0.36091 0.40107 0.77016 0.0
C3964 C 0.3252 0.37676 0.78122 0.0
C3965 C 0.33291 0.3557 0.7751 0.0
H3966 H 0.33201 0.4145 0.78361 0.0
H3967 H 0.30874 0.37636 0.78853 0.0
S3968 S 0.39086 0.35221 0.75406 0.0
N3969 N 0.39079 0.3806 0.75734 0.0
N3970 N 0.36518 0.33908 0.76107 0.0
C3971 C 0.35519 0.3578 0.7666 0.0
C3972 C 0.36913 0.38038 0.76437 0.0
C3973 C 0.29543 0.69119 0.28048 0.0
C3974 C 0.27147 0.68092 0.27875 0.0
C3975 C 0.30264 0.7155 0.28093 0.0
C3976 C 0.28602 0.72991 0.27954 0.0
H3977 H 0.30847 0.68034 0.28076 0.0
H3978 H 0.32126 0.72294 0.28155 0.0
S3979 S 0.22104 0.71047 0.27425 0.0
N3980 N 0.23116 0.68617 0.27598 0.0
N3981 N 0.24453 0.73187 0.27573 0.0
C3982 C 0.26198 0.71965 0.27815 0.0
C3983 C 0.25474 0.69503 0.27799 0.0
C3984 C 0.54924 0.64885 0.5103 0.0
C3985 C 0.5269 0.6552 0.50754 0.0
C3986 C 0.55232 0.62636 0.51661 0.0
C3987 C 0.53335 0.60849 0.52077 0.0
H3988 H 0.56466 0.66124 0.50705 0.0
H3989 H 0.56987 0.62288 0.5178 0.0
S3990 S 0.47145 0.61621 0.51883 0.0
N3991 N 0.48566 0.64142 0.51175 0.0
N3992 N 0.49129 0.59995 0.52291 0.0
C3993 C 0.51103 0.61477 0.5186 0.0
C3994 C 0.50789 0.63766 0.51225 0.0
C3995 C 0.69275 0.28989 0.72613 0.0
C3996 C 0.69436 0.30278 0.70579 0.0
C3997 C 0.71301 0.28777 0.74173 0.0
C3998 C 0.73608 0.29818 0.73771 0.0
H3999 H 0.67558 0.28138 0.73009 0.0
H4000 H 0.71045 0.27744 0.75685 0.0
S4001 S 0.74996 0.33184 0.68512 0.0
N4002 N 0.7209 0.32502 0.68164 0.0
N4003 N 0.75874 0.32076 0.71013 0.0
C4004 C 0.73781 0.31075 0.71698 0.0
C4005 C 0.71713 0.31312 0.70133 0.0
C4006 C 0.01948 0.42546 0.02913 0.0
C4007 C 0.02805 0.41436 0.0087 0.0
C4008 C 0.02215 0.45039 0.03388 0.0
C4009 C 0.03338 0.46573 0.01837 0.0
H4010 H 1.01106 0.41481 0.04198 0.0
H4011 H 1.01578 0.45769 0.05023 0.0
S4012 S 0.05644 0.44587 0.96064 0.0
N4013 N 0.04649 0.42114 0.97166 0.0
N4014 N 0.05162 0.46721 0.98051 0.0
C4015 C 0.04138 0.45477 0.9975 0.0
C4016 C 0.03868 0.42947 0.99271 0.0
C4017 C 0.94955 0.79445 0.17882 0.0
C4018 C 0.97217 0.7971 0.19204 0.0
C4019 C 0.9292 0.78746 0.19006 0.0
C4020 C 0.93081 0.78331 0.215 0.0
H4021 H 0.94756 0.79625 0.15923 0.0
H4022 H 0.91212 0.78404 0.17883 0.0
S4023 S 0.98582 0.79063 0.25846 0.0
N4024 N 0.99493 0.79707 0.23197 0.0
N4025 N 0.95672 0.78428 0.25312 0.0
C4026 C 0.95326 0.7875 0.22887 0.0
C4027 C 0.97395 0.79433 0.21738 0.0
C4028 C 0.56808 0.38584 0.1395 0.0
C4029 C 0.54825 0.36742 0.13117 0.0
C4030 C 0.57483 0.40404 0.12531 0.0
C4031 C 0.56182 0.40491 0.10239 0.0
H4032 H 0.579 0.38582 0.15683 0.0
H4033 H 0.59084 0.41715 0.13194 0.0
S4034 S 0.50734 0.36264 0.07291 0.0
N4035 N 0.51487 0.35222 0.09882 0.0
N4036 N 0.52729 0.38697 0.07268 0.0
C4037 C 0.54114 0.38763 0.0945 0.0
C4038 C 0.53437 0.36881 0.10878 0.0
C4039 C 0.90463 0.29813 0.33006 0.0
C4040 C 0.92009 0.3069 0.31338 0.0
C4041 C 0.87973 0.29552 0.32507 0.0
C4042 C 0.86857 0.30148 0.30303 0.0
H4043 H 0.91184 0.29339 0.34744 0.0
H4044 H 0.86912 0.28882 0.33882 0.0
S4045 S 0.90028 0.32225 0.25146 0.0
N4046 N 0.92164 0.31984 0.27279 0.0
N4047 N 0.87553 0.31463 0.26334 0.0
C4048 C 0.88378 0.30976 0.28594 0.0
C4049 C 0.90916 0.31255 0.29109 0.0
C4050 C 0.03946 0.6232 0.62429 0.0
C4051 C 0.03006 0.64183 0.6157 0.0
C4052 C 0.04125 0.60316 0.60803 0.0
C4053 C 0.03446 0.60089 0.58208 0.0
H4054 H 0.04531 0.62395 0.64391 0.0
H4055 H 0.04835 0.58948 0.61601 0.0
S4056 S 1.00655 0.64329 0.55006 0.0
N4057 N 1.01251 0.65565 0.57929 0.0
N4058 N 1.01572 0.61827 0.54921 0.0
C4059 C 0.0244 0.61902 0.57338 0.0
C4060 C 0.02228 0.6393 0.58996 0.0
C4061 C 0.69445 0.79481 0.82636 0.0
C4062 C 0.68119 0.80861 0.81319 0.0
C4063 C 0.71694 0.79142 0.82056 0.0
C4064 C 0.72742 0.80108 0.80078 0.0
H4065 H 0.68757 0.78676 0.84171 0.0
H4066 H 0.72609 0.78082 0.83155 0.0
S4067 S 0.70073 0.83807 0.75964 0.0
N4068 N 0.68113 0.83183 0.77888 0.0
N4069 N 0.7224 0.82495 0.76789 0.0
C4070 C 0.71436 0.81459 0.78725 0.0
C4071 C 0.69171 0.81849 0.79344 0.0
C4072 C 0.51254 0.51666 0.63706 0.0
C4073 C 0.50414 0.53486 0.65002 0.0
C4074 C 0.52075 0.51898 0.61393 0.0
C4075 C 0.52009 0.53921 0.60222 0.0
H4076 H 0.51304 0.50055 0.64501 0.0
H4077 H 0.52723 0.50456 0.60484 0.0
S4078 S 0.50094 0.59243 0.62839 0.0
N4079 N 0.49685 0.57442 0.64956 0.0
N4080 N 0.51138 0.57819 0.60578 0.0
C4081 C 0.51193 0.55758 0.61491 0.0
C4082 C 0.5042 0.55555 0.63882 0.0
C4083 C 0.78372 0.23089 0.95729 0.0
C4084 C 0.7779 0.20619 0.95426 0.0
C4085 C 0.77462 0.24324 0.93939 0.0
C4086 C 0.7597 0.23108 0.9181 0.0
H4087 H 0.79395 0.24066 0.9743 0.0
H4088 H 0.77861 0.26233 0.94255 0.0
S4089 S 0.7411 0.16641 0.90089 0.0
N4090 N 0.75778 0.16997 0.92802 0.0
N4091 N 0.74094 0.19323 0.89403 0.0
C4092 C 0.75507 0.20639 0.91416 0.0
C4093 C 0.76416 0.19389 0.9324 0.0
C4094 C 0.11982 0.53695 0.11864 0.0
C4095 C 0.11603 0.54651 0.14205 0.0
C4096 C 0.10279 0.53489 0.09816 0.0
C4097 C 0.08177 0.54291 0.10036 0.0
H4098 H 0.13615 0.53141 0.11613 0.0
H4099 H 0.10653 0.52746 0.08042 0.0
S4100 S 0.06329 0.56712 0.15903 0.0
N4101 N 0.08938 0.56153 0.16746 0.0
N4102 N 0.05816 0.55998 0.12859 0.0
C4103 C 0.07783 0.55214 0.12404 0.0
C4104 C 0.09482 0.55338 0.145 0.0
C4105 C 0.82181 0.83517 0.39856 0.0
C4106 C 0.80383 0.82661 0.4126 0.0
C4107 C 0.82052 0.82707 0.37304 0.0
C4108 C 0.80127 0.80989 0.36024 0.0
H4109 H 0.83689 0.84865 0.40723 0.0
H4110 H 0.8346 0.83471 0.36321 0.0
S4111 S 0.75005 0.78056 0.38841 0.0
N4112 N 0.76652 0.79905 0.41164 0.0
N4113 N 0.76406 0.78407 0.364 0.0
C4114 C 0.78327 0.801 0.37407 0.0
C4115 C 0.78456 0.80925 0.40006 0.0
C4116 C 0.49551 0.54186 0.92772 0.0
C4117 C 0.50733 0.53165 0.90967 0.0
C4118 C 0.50279 0.54289 0.95337 0.0
C4119 C 0.52239 0.53393 0.96237 0.0
H4120 H 0.48025 0.54887 0.92199 0.0
H4121 H 0.49281 0.55081 0.96625 0.0
S4122 S 0.56091 0.50757 0.92273 0.0
N4123 N 0.54044 0.51358 0.90266 0.0
N4124 N 0.55443 0.51597 0.95052 0.0
C4125 C 0.53466 0.52413 0.94443 0.0
C4126 C 0.52707 0.52287 0.91828 0.0
C4127 C 0.79862 0.22218 0.19951 0.0
C4128 C 0.78098 0.22142 0.1797 0.0
C4129 C 0.80111 0.23835 0.22071 0.0
C4130 C 0.78592 0.25411 0.22272 0.0
H4131 H 0.81067 0.21029 0.19852 0.0
H4132 H 0.81514 0.23853 0.23547 0.0
S4133 S 0.73681 0.25885 0.17577 0.0
N4134 N 0.74822 0.23752 0.16296 0.0
N4135 N 0.75247 0.26784 0.20338 0.0
C4136 C 0.76802 0.25335 0.2031 0.0
C4137 C 0.76558 0.23691 0.18143 0.0
C4138 C 0.10056 0.56421 0.35619 0.0
C4139 C 0.12055 0.55438 0.3598 0.0
C4140 C 0.09141 0.574 0.37642 0.0
C4141 C 0.10203 0.57428 0.40079 0.0
H4142 H 0.09324 0.56611 0.33762 0.0
H4143 H 0.07687 0.58271 0.37293 0.0
S4144 S 0.15245 0.54721 0.41981 0.0
N4145 N 0.14878 0.54259 0.38915 0.0
N4146 N 0.13178 0.56119 0.42746 0.0
C4147 C 0.12053 0.56229 0.40463 0.0
C4148 C 0.12974 0.55222 0.38397 0.0
C4149 C 0.78422 0.83349 0.68443 0.0
C4150 C 0.80411 0.83233 0.67208 0.0
C4151 C 0.78194 0.82497 0.70751 0.0
C4152 C 0.79913 0.8143 0.71896 0.0
H4153 H 0.77042 0.84139 0.67635 0.0
H4154 H 0.76641 0.82637 0.71624 0.0
S4155 S 0.85449 0.8067 0.6949 0.0
N4156 N 0.84139 0.81965 0.6737 0.0
N4157 N 0.83675 0.8033 0.71637 0.0
C4158 C 0.81892 0.81283 0.7068 0.0
C4159 C 0.82152 0.82193 0.68365 0.0
C4160 C 0.7068 0.48589 0.52679 0.0
C4161 C 0.71227 0.49725 0.50615 0.0
C4162 C 0.6937 0.49507 0.54375 0.0
C4163 C 0.68557 0.51563 0.54027 0.0
H4164 H 0.7143 0.47096 0.53089 0.0
H4165 H 0.69065 0.48656 0.5601 0.0
S4166 S 0.69288 0.54994 0.4874 0.0
N4167 N 0.70721 0.52861 0.4819 0.0
N4168 N 0.68179 0.54576 0.5135 0.0
C4169 C 0.68938 0.52605 0.51865 0.0
C4170 C 0.70299 0.51685 0.50159 0.0
C4171 C 0.15385 0.08454 0.5293 0.0
C4172 C 0.1559 0.10727 0.52247 0.0
C4173 C 0.13171 0.07067 0.53158 0.0
C4174 C 0.11062 0.07857 0.52618 0.0
H4175 H 0.16954 0.07769 0.53358 0.0
H4176 H 0.13136 0.05387 0.53812 0.0
S4177 S 0.10721 0.13778 0.50845 0.0
N4178 N 0.13561 0.13776 0.51156 0.0
N4179 N 0.09405 0.11161 0.51422 0.0
C4180 C 0.11274 0.10145 0.51911 0.0
C4181 C 0.13532 0.11576 0.51763 0.0
C4182 C 0.19904 0.93936 0.76755 0.0
C4183 C 0.20918 0.95655 0.78797 0.0
C4184 C 0.21113 0.92246 0.75874 0.0
C4185 C 0.23375 0.92199 0.77011 0.0
H4186 H 0.18228 0.93997 0.75726 0.0
H4187 H 0.20343 0.91071 0.74183 0.0
S4188 S 0.26607 0.95997 0.82708 0.0
N4189 N 0.24165 0.96986 0.82157 0.0
N4190 N 0.26435 0.93772 0.80501 0.0
C4191 C 0.24299 0.9373 0.79216 0.0
C4192 C 0.23067 0.9547 0.80113 0.0
C4193 C 0.44354 0.03832 0.03841 0.0
C4194 C 0.43292 0.01474 0.03875 0.0
C4195 C 0.46771 0.04486 0.03821 0.0
C4196 C 0.48194 0.02805 0.03838 0.0
H4197 H 0.43299 0.0516 0.0376 0.0
H4198 H 0.4751 0.06311 0.037 0.0
S4199 S 0.46142 0.96346 0.03612 0.0
N4200 N 0.43747 0.97422 0.03748 0.0
N4201 N 0.48318 0.98648 0.03698 0.0
C4202 C 0.47137 1.00431 0.03859 0.0
C4203 C 0.44672 0.99766 0.03882 0.0
C4204 C 0.80845 0.62202 0.79965 0.0
C4205 C 0.83003 0.62385 0.81462 0.0
C4206 C 0.8058 0.63865 0.7838 0.0
C4207 C 0.82447 0.65765 0.78301 0.0
H4208 H 0.79471 0.60624 0.798 0.0
H4209 H 0.78956 0.63605 0.7712 0.0
S4210 S 0.88174 0.67366 0.82339 0.0
N4211 N 0.86857 0.64826 0.83113 0.0
N4212 N 0.86305 0.68018 0.80165 0.0
C4213 C 0.84486 0.66133 0.80008 0.0
C4214 C 0.84764 0.64435 0.81616 0.0
C4215 C 0.89529 0.63044 0.02513 0.0
C4216 C 0.87341 0.62097 0.03242 0.0
C4217 C 0.9154 0.62179 0.03243 0.0
C4218 C 0.91412 0.60325 0.0469 0.0
H4219 H 0.89722 0.64565 0.01524 0.0
H4220 H 0.93229 0.63053 0.02798 0.0
S4221 S 0.86039 0.57023 0.06758 0.0
N4222 N 0.85116 0.59043 0.05252 0.0
N4223 N 0.88898 0.57415 0.0661 0.0
C4224 C 0.89206 0.59248 0.05265 0.0
C4225 C 0.87166 0.60135 0.0454 0.0
C4226 C 0.23722 0.19954 0.81768 0.0
C4227 C 0.23201 0.18112 0.79767 0.0
C4228 C 0.25164 0.22148 0.81589 0.0
C4229 C 0.2619 0.22568 0.79424 0.0
H4230 H 0.22958 0.1972 0.83467 0.0
H4231 H 0.25475 0.23528 0.83157 0.0
S4232 S 0.2542 0.18336 0.73664 0.0
N4233 N 0.23856 0.16864 0.75552 0.0
N4234 N 0.26586 0.20963 0.75236 0.0
C4235 C 0.25727 0.2073 0.77429 0.0
C4236 C 0.24224 0.18513 0.77593 0.0
C4237 C 0.30686 0.8866 0.26693 0.0
C4238 C 0.31831 0.90203 0.28818 0.0
C4239 C 0.29925 0.86255 0.26825 0.0
C4240 C 0.3038 0.85354 0.29059 0.0
H4241 H 0.3035 0.89323 0.24942 0.0
H4242 H 0.28958 0.8511 0.25193 0.0
S4243 S 0.33311 0.8866 0.35119 0.0
N4244 N 0.33362 0.9067 0.33213 0.0
N4245 N 0.31984 0.86136 0.33425 0.0
C4246 C 0.31521 0.86874 0.31184 0.0
C4247 C 0.32248 0.8931 0.31069 0.0
C4248 C 0.57689 0.44739 0.57513 0.0
C4249 C 0.56225 0.42544 0.56436 0.0
C4250 C 0.57272 0.46946 0.56868 0.0
C4251 C 0.55398 0.47122 0.55051 0.0
H4252 H 0.59156 0.44762 0.58916 0.0
H4253 H 0.58454 0.4854 0.5781 0.0
S4254 S 0.51209 0.41891 0.51437 0.0
N4255 N 0.52886 0.40721 0.53346 0.0
N4256 N 0.52201 0.4477 0.52048 0.0
C4257 C 0.53987 0.44925 0.53897 0.0
C4258 C 0.5437 0.42685 0.54606 0.0
C4259 C 0.37528 0.76786 0.36342 0.0
C4260 C 0.39759 0.7829 0.36421 0.0
C4261 C 0.35518 0.77029 0.34764 0.0
C4262 C 0.35619 0.78788 0.33169 0.0
H4263 H 0.37318 0.75424 0.37542 0.0
H4264 H 0.33863 0.75815 0.34797 0.0
S4265 S 0.41065 0.83099 0.32522 0.0
N4266 N 0.41953 0.81525 0.34623 0.0
N4267 N 0.38212 0.82029 0.31753 0.0
C4268 C 0.37852 0.8028 0.33205 0.0
C4269 C 0.39897 0.80025 0.34801 0.0
C4270 C 0.05668 0.65087 0.08286 0.0
C4271 C 0.06126 0.66552 0.06421 0.0
C4272 C 0.05345 0.62586 0.0781 0.0
C4273 C 0.05511 0.61401 0.05451 0.0
H4274 H 0.05538 0.65883 0.10137 0.0
H4275 H 0.04988 0.61572 0.09321 0.0
S4276 S 0.06646 0.644 0.99899 0.0
N4277 N 0.06694 0.66593 0.021 0.0
N4278 N 0.06128 0.61966 0.01211 0.0
C4279 C 0.05981 0.62858 0.03576 0.0
C4280 C 0.06274 0.65397 0.04055 0.0
C4281 C 0.13061 0.31908 0.87827 0.0
C4282 C 0.1211 0.29577 0.88191 0.0
C4283 C 0.14805 0.32409 0.86268 0.0
C4284 C 0.15699 0.30608 0.8502 0.0
H4285 H 0.12379 0.33357 0.88664 0.0
H4286 H 0.15407 0.34222 0.85972 0.0
S4287 S 0.14005 0.24235 0.85518 0.0
N4288 N 0.12355 0.25461 0.87313 0.0
N4289 N 0.15617 0.26416 0.84373 0.0
C4290 C 0.14862 0.28285 0.85461 0.0
C4291 C 0.1307 0.27766 0.87039 0.0
C4292 C 0.5507 0.69758 0.93069 0.0
C4293 C 0.54739 0.71939 0.94176 0.0
C4294 C 0.54425 0.67693 0.94161 0.0
C4295 C 0.53465 0.67749 0.96413 0.0
H4296 H 0.55713 0.69628 0.91284 0.0
H4297 H 0.54576 0.66024 0.93183 0.0
S4298 S 0.52497 0.73057 1.00184 0.0
N4299 N 0.53562 0.7406 0.97735 0.0
N4300 N 0.52385 0.70188 0.99801 0.0
C4301 C 0.53257 0.69939 0.97605 0.0
C4302 C 0.53887 0.72033 0.96483 0.0
C4303 C 0.18305 0.78822 0.78133 0.0
C4304 C 0.17003 0.77398 0.7596 0.0
C4305 C 0.20796 0.79117 0.78704 0.0
C4306 C 0.22141 0.7799 0.77152 0.0
H4307 H 0.1739 0.7972 0.79425 0.0
H4308 H 0.21679 0.80248 0.80382 0.0
S4309 S 0.19736 0.74234 0.71144 0.0
N4310 N 0.17388 0.74971 0.72169 0.0
N4311 N 0.21986 0.75482 0.73284 0.0
C4312 C 0.20885 0.76579 0.74978 0.0
C4313 C 0.18356 0.76291 0.74377 0.0
C4314 C 0.04114 0.43995 0.47327 0.0
C4315 C 0.05776 0.44119 0.45624 0.0
C4316 C 0.03904 0.46 0.48928 0.0
C4317 C 0.05325 0.48254 0.48901 0.0
H4318 H 0.02962 0.42322 0.47437 0.0
H4319 H 0.0258 0.45778 0.50173 0.0
S4320 S 0.09955 0.49582 0.44789 0.0
N4321 N 0.08867 0.46728 0.44017 0.0
N4322 N 0.08495 0.50455 0.47011 0.0
C4323 C 0.0701 0.484 0.4722 0.0
C4324 C 0.07229 0.46355 0.45596 0.0
C4325 C 0.38964 0.27419 0.2387 0.0
C4326 C 0.40876 0.27404 0.25705 0.0
C4327 C 0.36702 0.27683 0.2447 0.0
C4328 C 0.36207 0.28016 0.26951 0.0
H4329 H 0.39202 0.27186 0.21929 0.0
H4330 H 0.35329 0.27654 0.2296 0.0
S4331 S 0.40564 0.28213 0.32506 0.0
N4332 N 0.42058 0.2779 0.30158 0.0
N4333 N 0.37893 0.2834 0.31264 0.0
C4334 C 0.38107 0.28046 0.28807 0.0
C4335 C 0.40397 0.27724 0.28195 0.0
C4336 C 0.56735 0.55749 0.42695 0.0
C4337 C 0.58592 0.54701 0.42014 0.0
C4338 C 0.55857 0.55493 0.44981 0.0
C4339 C 0.56809 0.542 0.46722 0.0
H4340 H 0.55928 0.56759 0.41435 0.0
H4341 H 0.54427 0.56339 0.45393 0.0
S4342 S 0.61744 0.5116 0.45913 0.0
N4343 N 0.61388 0.52353 0.43333 0.0
N4344 N 0.59743 0.51872 0.47592 0.0
C4345 C 0.58676 0.53155 0.46076 0.0
C4346 C 0.5956 0.53401 0.43739 0.0
C4347 C 0.31432 0.85147 0.1073 0.0
C4348 C 0.30963 0.87399 0.1126 0.0
C4349 C 0.32428 0.84061 0.12611 0.0
C4350 C 0.32999 0.8521 0.15067 0.0
H4351 H 0.31164 0.84288 0.08829 0.0
H4352 H 0.32843 0.82355 0.12125 0.0
S4353 S 0.31988 0.91097 0.1738 0.0
N4354 N 0.31009 0.90698 0.14381 0.0
N4355 N 0.32911 0.88685 0.17934 0.0
C4356 C 0.32413 0.87415 0.15632 0.0
C4357 C 0.31389 0.88507 0.13717 0.0
C4358 C 0.97813 0.54812 0.94862 0.0
C4359 C 0.97646 0.52974 0.92926 0.0
C4360 C 0.99424 0.55051 0.96981 0.0
C4361 C 1.00896 0.53442 0.97235 0.0
H4362 H 0.96674 0.56063 0.94748 0.0
H4363 H 0.99493 0.56491 0.98435 0.0
S4364 S 1.01123 0.48312 0.92692 0.0
N4365 N 0.99097 0.49547 0.91349 0.0
N4366 N 0.02079 0.49931 0.95416 0.0
C4367 C 1.00749 0.51591 0.95316 0.0
C4368 C 0.99122 0.51365 0.9314 0.0
C4369 C 0.27158 0.26911 0.6688 0.0
C4370 C 0.28747 0.25617 0.6594 0.0
C4371 C 0.27287 0.2767 0.6945 0.0
C4372 C 0.28965 0.2711 0.71217 0.0
H4373 H 0.25808 0.27362 0.65615 0.0
H4374 H 0.26043 0.28682 0.70048 0.0
S4375 S 0.33598 0.23824 0.69739 0.0
N4376 N 0.32105 0.23871 0.67008 0.0
N4377 N 0.32329 0.25252 0.71789 0.0
C4378 C 0.30585 0.25843 0.70292 0.0
C4379 C 0.30479 0.25108 0.67678 0.0
C4380 C 0.59079 0.56778 0.1476 0.0
C4381 C 0.58086 0.55055 0.16187 0.0
C4382 C 0.58264 0.56685 0.12213 0.0
C4383 C 0.56409 0.54872 0.10966 0.0
H4384 H 0.60536 0.58193 0.15603 0.0
H4385 H 0.59125 0.58029 0.11208 0.0
S4386 S 0.53086 0.50001 0.13853 0.0
N4387 N 0.55049 0.51536 0.16148 0.0
N4388 N 0.53551 0.51346 0.11395 0.0
C4389 C 0.55383 0.53151 0.12372 0.0
C4390 C 0.56209 0.53247 0.14964 0.0
C4391 C 0.28367 0.86126 0.87408 0.0
C4392 C 0.29713 0.85854 0.89598 0.0
C4393 C 0.28131 0.84517 0.8528 0.0
C4394 C 0.29281 0.82615 0.85254 0.0
H4395 H 0.27569 0.87643 0.87305 0.0
H4396 H 0.27117 0.84832 0.83616 0.0
S4397 S 0.32811 0.81026 0.90633 0.0
N4398 N 0.31955 0.83413 0.91746 0.0
N4399 N 0.31726 0.80503 0.87662 0.0
C4400 C 0.3055 0.82273 0.87473 0.0
C4401 C 0.30721 0.83873 0.89666 0.0
C4402 C 0.94795 0.50871 0.68475 0.0
C4403 C 0.95994 0.52366 0.70612 0.0
C4404 C 0.96036 0.49998 0.66682 0.0
C4405 C 0.98503 0.50585 0.66997 0.0
H4406 H 0.92897 0.50272 0.68264 0.0
H4407 H 0.95073 0.48779 0.65096 0.0
S4408 S 0.02427 0.54697 0.7207 0.0
N4409 N 0.99747 0.54597 0.72819 0.0
N4410 N 0.02096 0.52945 0.69409 0.0
C4411 C 0.99714 0.52207 0.69025 0.0
C4412 C 0.98448 0.53111 0.70847 0.0
C4413 C 0.30706 0.25361 0.38949 0.0
C4414 C 0.28574 0.25109 0.40003 0.0
C4415 C 0.30909 0.26163 0.3662 0.0
C4416 C 0.29013 0.2682 0.35262 0.0
H4417 H 0.32252 0.24954 0.39939 0.0
H4418 H 0.32582 0.26321 0.35901 0.0
S4419 S 0.23013 0.26405 0.37021 0.0
N4420 N 0.24466 0.25449 0.39325 0.0
N4421 N 0.24933 0.27143 0.3509 0.0
C4422 C 0.26888 0.26613 0.36282 0.0
C4423 C 0.26647 0.25717 0.38609 0.0
C4424 C 0.39802 0.58867 0.56232 0.0
C4425 C 0.375 0.57498 0.55828 0.0
C4426 C 0.41455 0.58371 0.54702 0.0
C4427 C 0.40827 0.56495 0.52759 0.0
H4428 H 0.4024 0.60478 0.57534 0.0
H4429 H 0.43169 0.59548 0.5493 0.0
S4430 S 0.35164 0.52163 0.51258 0.0
N4431 N 0.34776 0.54022 0.53605 0.0
N4432 N 0.37907 0.5307 0.50731 0.0
C4433 C 0.38625 0.54964 0.52523 0.0
C4434 C 0.36951 0.55462 0.54081 0.0
C4435 C 0.95599 0.97611 0.56417 0.0
C4436 C 0.93532 0.97783 0.54926 0.0
C4437 C 0.97796 0.99053 0.56244 0.0
C4438 C 0.98025 1.00741 0.54581 0.0
H4439 H 0.95532 0.96308 0.57687 0.0
H4440 H 0.99332 0.98817 0.57408 0.0
S4441 S 0.9313 0.01953 0.50314 0.0
N4442 N 0.91841 0.99855 0.51807 0.0
N4443 N 0.95957 0.02489 0.51406 0.0
C4444 C 0.95962 1.00949 0.53098 0.0
C4445 C 0.93725 0.99491 0.53288 0.0
C4446 C 0.86134 0.12035 0.30252 0.0
C4447 C 0.87669 0.12085 0.28433 0.0
C4448 C 0.85202 0.14001 0.30975 0.0
C4449 C 0.85754 0.16074 0.29887 0.0
H4450 H 0.85732 0.105 0.31201 0.0
H4451 H 0.84139 0.13941 0.32481 0.0
S4452 S 0.89517 0.17069 0.24918 0.0
N4453 N 0.89575 0.14351 0.25458 0.0
N4454 N 0.87784 0.1803 0.26804 0.0
C4455 C 0.87153 0.16102 0.27959 0.0
C4456 C 0.88117 0.14106 0.27229 0.0
C4457 C 0.64798 0.04648 0.03257 0.0
C4458 C 0.65864 0.06952 0.0432 0.0
C4459 C 0.62367 0.03884 0.03069 0.0
C4460 C 0.60969 0.05426 0.03904 0.0
H4461 H 0.65856 0.03417 0.02657 0.0
H4462 H 0.61584 0.02058 0.02355 0.0
S4463 S 0.62972 0.11691 0.06659 0.0
N4464 N 0.654 0.10811 0.06084 0.0
N4465 N 0.60798 0.09382 0.05714 0.0
C4466 C 0.62013 0.07774 0.04851 0.0
C4467 C 0.64485 0.08537 0.05071 0.0
C4468 C 0.28442 0.46977 0.28389 0.0
C4469 C 0.26583 0.46325 0.26424 0.0
C4470 C 0.2901 0.45318 0.2986 0.0
C4471 C 0.27761 0.42975 0.2936 0.0
H4472 H 0.29258 0.48819 0.2897 0.0
H4473 H 0.30317 0.45897 0.3149 0.0
S4474 S 0.23081 0.40332 0.24132 0.0
N4475 N 0.23733 0.43163 0.23832 0.0
N4476 N 0.24866 0.39995 0.26568 0.0
C4477 C 0.26108 0.42247 0.27221 0.0
C4478 C 0.25511 0.43944 0.2574 0.0
C4479 C 0.21631 0.48085 0.04425 0.0
C4480 C 0.21215 0.45623 0.03783 0.0
C4481 C 0.19925 0.49355 0.037 0.0
C4482 C 0.17744 0.48197 0.02344 0.0
H4483 H 0.23342 0.49052 0.05341 0.0
H4484 H 0.20375 0.51263 0.04048 0.0
S4485 S 0.15656 0.4176 1.00538 0.0
N4486 N 0.18358 0.42058 0.01974 0.0
N4487 N 0.15164 0.44454 0.00605 0.0
C4488 C 0.17239 0.45729 0.01864 0.0
C4489 C 0.18973 0.44438 0.02586 0.0
C4490 C 0.84103 0.89987 0.28984 0.0
C4491 C 0.85902 0.9021 0.27446 0.0
C4492 C 0.82697 0.87771 0.2918 0.0
C4493 C 0.83027 0.85683 0.27843 0.0
H4494 H 0.83782 0.9154 0.3005 0.0
H4495 H 0.81367 0.87697 0.3042 0.0
S4496 S 0.87587 0.85308 0.23632 0.0
N4497 N 0.88002 0.88142 0.24653 0.0
N4498 N 0.85337 0.84022 0.24923 0.0
C4499 C 0.84822 0.85898 0.26288 0.0
C4500 C 0.8626 0.88144 0.26112 0.0
C4501 C 0.75537 0.19453 0.76728 0.0
C4502 C 0.76856 0.1817 0.7813 0.0
C4503 C 0.76308 0.21869 0.76797 0.0
C4504 C 0.7843 0.23037 0.78239 0.0
H4505 H 0.73932 0.1857 0.75529 0.0
H4506 H 0.75315 0.22801 0.75608 0.0
S4507 S 0.8242 0.20495 0.82354 0.0
N4508 N 0.80269 0.18238 0.81126 0.0
N4509 N 0.81786 0.22813 0.81168 0.0
C4510 C 0.79725 0.21797 0.79707 0.0
C4511 C 0.78913 0.19342 0.79681 0.0
loop_
_geom_bond_atom_site_label_1
_geom_bond_atom_site_label_2
_geom_bond_distance
_geom_bond_site_symmetry_2
_ccdc_geom_bond_type
Li0 N17 1.990 1_455 S
Li0 O60 1.956 . S
Li0 O61 1.970 . S
Li0 O62 1.961 . S
Li1 N25 1.990 . S
Li1 O60 1.970 . S
Li1 O61 1.956 . S
Li1 O63 1.961 . S
Li2 N47 1.990 . S
Li2 O60 1.961 . S
Li2 O62 1.956 . S
Li2 O63 1.970 . S
Li3 N53 1.990 . S
Li3 O61 1.961 . S
Li3 O62 1.970 . S
Li3 O63 1.956 . S
C4 C6 1.348 . S
C4 C7 1.356 . S
C4 O60 1.325 . S
N5 C8 1.314 . S
N5 C9 1.279 . S
C6 C4 1.348 . S
C6 C8 1.353 . S
C6 H64 0.929 . S
C7 C4 1.356 . S
C7 C9 1.358 . S
C7 H65 0.930 . S
C8 N5 1.314 . S
C8 C6 1.353 . S
C8 H66 0.930 . S
C9 N5 1.279 . S
C9 C7 1.358 . S
C9 H67 0.930 . S
C10 C13 1.371 . S
C10 C14 1.356 1_655 S
C10 O61 1.304 1_655 S
C11 N12 1.279 . S
C11 C14 1.358 1_655 S
C11 H68 0.930 . S
N12 C11 1.279 . S
N12 C15 1.314 . S
C13 C10 1.371 . S
C13 C15 1.353 . S
C13 H69 0.929 . S
C14 C10 1.356 1_455 S
C14 C11 1.358 1_455 S
C14 H70 0.930 . S
C15 N12 1.314 . S
C15 C13 1.353 . S
C15 H71 0.930 . S
C16 N17 1.314 . S
C16 C21 1.353 . S
C16 H22 0.930 . S
N17 Li0 1.990 1_655 S
N17 C16 1.314 . S
N17 C19 1.279 . S
C18 C19 1.358 . S
C18 C20 1.356 . S
C18 H72 0.930 . S
C19 N17 1.279 . S
C19 C18 1.358 . S
C19 H23 0.930 . S
C20 C18 1.356 . S
C20 C21 1.348 . S
C21 C16 1.353 . S
C21 C20 1.348 . S
C21 H73 0.929 . S
H22 C16 0.930 . S
H23 C19 0.930 . S
C24 N25 1.314 . S
C24 C26 1.353 . S
C24 H30 0.930 . S
N25 Li1 1.990 . S
N25 C24 1.314 . S
N25 C28 1.279 . S
C26 C24 1.353 . S
C26 C29 1.348 . S
C26 H74 0.929 . S
C27 C28 1.358 . S
C27 C29 1.356 . S
C27 H75 0.930 . S
C28 N25 1.279 . S
C28 C27 1.358 . S
C28 H31 0.930 . S
C29 C26 1.348 . S
C29 C27 1.356 . S
H30 C24 0.930 . S
H31 C28 0.930 . S
C32 C34 1.348 . S
C32 C35 1.356 . S
C32 O62 1.325 . S
N33 C36 1.314 . S
N33 C37 1.279 . S
C34 C32 1.348 . S
C34 C36 1.353 . S
C34 H76 0.929 . S
C35 C32 1.356 . S
C35 C37 1.358 . S
C35 H77 0.930 . S
C36 N33 1.314 . S
C36 C34 1.353 . S
C36 H78 0.930 . S
C37 N33 1.279 . S
C37 C35 1.358 . S
C37 H79 0.930 . S
C38 C39 1.348 . S
C38 C40 1.356 . S
C38 O63 1.325 . S
C39 C38 1.348 . S
C39 C41 1.353 . S
C39 H80 0.929 . S
C40 C38 1.356 . S
C40 C42 1.358 . S
C40 H81 0.930 . S
C41 C39 1.353 . S
C41 N43 1.314 . S
C41 H82 0.930 . S
C42 C40 1.358 . S
C42 N43 1.279 . S
C42 H83 0.930 . S
N43 C41 1.314 . S
N43 C42 1.279 . S
C44 C46 1.353 . S
C44 N47 1.314 . S
C44 H50 0.930 . S
C45 N47 1.279 . S
C45 C48 1.358 . S
C45 H51 0.930 . S
C46 C44 1.353 . S
C46 C49 1.348 . S
C46 H84 0.929 . S
N47 Li2 1.990 . S
N47 C44 1.314 . S
N47 C45 1.279 . S
C48 C45 1.358 . S
C48 C49 1.356 . S
C48 H85 0.930 . S
C49 C46 1.348 . S
C49 C48 1.356 . S
H50 C44 0.930 . S
H51 C45 0.930 . S
C52 N53 1.314 . S
C52 C54 1.353 . S
C52 H58 0.930 . S
N53 Li3 1.990 . S
N53 C52 1.314 . S
N53 C56 1.279 . S
C54 C52 1.353 . S
C54 C57 1.348 . S
C54 H86 0.929 . S
C55 C56 1.358 . S
C55 C57 1.356 . S
C55 H87 0.930 . S
C56 N53 1.279 . S
C56 C55 1.358 . S
C56 H59 0.930 . S
C57 C54 1.348 . S
C57 C55 1.356 . S
H58 C52 0.930 . S
H59 C56 0.930 . S
O60 Li0 1.956 . S
O60 Li1 1.970 . S
O60 Li2 1.961 . S
O60 C4 1.325 . S
O61 Li0 1.970 . S
O61 Li1 1.956 . S
O61 Li3 1.961 . S
O61 C10 1.304 1_455 S
O62 Li0 1.961 . S
O62 Li2 1.956 . S
O62 Li3 1.970 . S
O62 C32 1.325 . S
O63 Li1 1.961 . S
O63 Li2 1.970 . S
O63 Li3 1.956 . S
O63 C38 1.325 . S
H64 C6 0.929 . S
H65 C7 0.930 . S
H66 C8 0.930 . S
H67 C9 0.930 . S
H68 C11 0.930 . S
H69 C13 0.929 . S
H70 C14 0.930 . S
H71 C15 0.930 . S
H72 C18 0.930 . S
H73 C21 0.929 . S
H74 C26 0.929 . S
H75 C27 0.930 . S
H76 C34 0.929 . S
H77 C35 0.930 . S
H78 C36 0.930 . S
H79 C37 0.930 . S
H80 C39 0.929 . S
H81 C40 0.930 . S
H82 C41 0.930 . S
H83 C42 0.930 . S
H84 C46 0.929 . S
H85 C48 0.930 . S
H86 C54 0.929 . S
H87 C55 0.930 . S
Li88 N105 1.990 . S
Li88 O148 1.956 . S
Li88 O149 1.970 . S
Li88 O150 1.961 1_455 S
Li89 N113 1.990 . S
Li89 O148 1.970 . S
Li89 O149 1.956 . S
Li89 O151 1.961 . S
Li90 N135 1.990 . S
Li90 O148 1.961 . S
Li90 O150 1.956 1_455 S
Li90 O151 1.970 . S
Li91 N141 1.990 . S
Li91 O149 1.961 1_655 S
Li91 O150 1.970 . S
Li91 O151 1.956 1_655 S
C92 C94 1.348 . S
C92 C95 1.356 . S
C92 O148 1.325 . S
N93 C96 1.314 . S
N93 C97 1.279 . S
C94 C92 1.348 . S
C94 C96 1.353 . S
C94 H152 0.929 . S
C95 C92 1.356 . S
C95 C97 1.358 . S
C95 H153 0.930 . S
C96 N93 1.314 . S
C96 C94 1.353 . S
C96 H154 0.930 . S
C97 N93 1.279 . S
C97 C95 1.358 . S
C97 H155 0.930 . S
C98 C101 1.348 . S
C98 C102 1.356 . S
C98 O149 1.325 . S
C99 N100 1.279 . S
C99 C102 1.358 . S
C99 H156 0.930 . S
N100 C99 1.279 . S
N100 C103 1.314 . S
C101 C98 1.348 . S
C101 C103 1.353 . S
C101 H157 0.929 . S
C102 C98 1.356 . S
C102 C99 1.358 . S
C102 H158 0.930 . S
C103 N100 1.314 . S
C103 C101 1.353 . S
C103 H159 0.930 . S
C104 N105 1.314 . S
C104 C109 1.353 . S
C104 H110 0.930 1_455 S
N105 Li88 1.990 . S
N105 C104 1.314 . S
N105 C107 1.279 . S
C106 C107 1.358 . S
C106 C108 1.356 . S
C106 H160 0.930 . S
C107 N105 1.279 . S
C107 C106 1.358 . S
C107 H111 0.930 . S
C108 C106 1.356 . S
C108 C109 1.348 . S
C109 C104 1.353 . S
C109 C108 1.348 . S
C109 H161 0.929 1_455 S
H110 C104 0.930 1_655 S
H111 C107 0.930 . S
C112 N113 1.314 . S
C112 C114 1.353 . S
C112 H118 0.930 . S
N113 Li89 1.990 . S
N113 C112 1.314 . S
N113 C116 1.279 . S
C114 C112 1.353 . S
C114 C117 1.348 . S
C114 H162 0.929 . S
C115 C116 1.358 . S
C115 C117 1.356 . S
C115 H163 0.930 . S
C116 N113 1.279 . S
C116 C115 1.358 . S
C116 H119 0.930 . S
C117 C114 1.348 . S
C117 C115 1.356 . S
H118 C112 0.930 . S
H119 C116 0.930 . S
C120 C122 1.348 . S
C120 C123 1.356 . S
C120 O150 1.325 . S
N121 C124 1.314 . S
N121 C125 1.279 . S
C122 C120 1.348 . S
C122 C124 1.353 . S
C122 H164 0.929 . S
C123 C120 1.356 . S
C123 C125 1.358 . S
C123 H165 0.930 . S
C124 N121 1.314 . S
C124 C122 1.353 . S
C124 H166 0.930 . S
C125 N121 1.279 . S
C125 C123 1.358 . S
C125 H167 0.930 . S
C126 C127 1.348 . S
C126 C128 1.356 . S
C126 O151 1.325 . S
C127 C126 1.348 . S
C127 C129 1.353 . S
C127 H168 0.929 . S
C128 C126 1.356 . S
C128 C130 1.358 . S
C128 H169 0.930 . S
C129 C127 1.353 . S
C129 N131 1.314 . S
C129 H170 0.938 . S
C130 C128 1.358 . S
C130 N131 1.279 . S
C130 H171 0.930 . S
N131 C129 1.314 . S
N131 C130 1.279 . S
C132 C134 1.353 . S
C132 N135 1.314 . S
C132 H138 0.930 . S
C133 N135 1.279 1_655 S
C133 C136 1.358 . S
C133 H139 0.930 . S
C134 C132 1.353 . S
C134 C137 1.348 . S
C134 H172 0.929 . S
N135 Li90 1.990 . S
N135 C132 1.314 . S
N135 C133 1.279 1_455 S
C136 C133 1.358 . S
C136 C137 1.356 1_655 S
C136 H173 0.930 . S
C137 C134 1.348 . S
C137 C136 1.356 1_455 S
H138 C132 0.930 . S
H139 C133 0.930 . S
C140 N141 1.314 . S
C140 C142 1.353 . S
C140 H146 0.930 . S
N141 Li91 1.990 . S
N141 C140 1.314 . S
N141 C144 1.279 . S
C142 C140 1.353 . S
C142 C145 1.348 . S
C142 H174 0.929 . S
C143 C144 1.358 . S
C143 C145 1.356 . S
C143 H175 0.930 . S
C144 N141 1.279 . S
C144 C143 1.358 . S
C144 H147 0.930 . S
C145 C142 1.348 . S
C145 C143 1.356 . S
H146 C140 0.930 . S
H147 C144 0.930 . S
O148 Li88 1.956 . S
O148 Li89 1.970 . S
O148 Li90 1.961 . S
O148 C92 1.325 . S
O149 Li88 1.970 . S
O149 Li89 1.956 . S
O149 Li91 1.961 1_455 S
O149 C98 1.325 . S
O150 Li88 1.961 1_655 S
O150 Li90 1.956 1_655 S
O150 Li91 1.970 . S
O150 C120 1.325 . S
O151 Li89 1.961 . S
O151 Li90 1.970 . S
O151 Li91 1.956 1_455 S
O151 C126 1.325 . S
H152 C94 0.929 . S
H153 C95 0.930 . S
H154 C96 0.930 . S
H155 C97 0.930 . S
H156 C99 0.930 . S
H157 C101 0.929 . S
H158 C102 0.930 . S
H159 C103 0.930 . S
H160 C106 0.930 . S
H161 C109 0.929 1_655 S
H162 C114 0.929 . S
H163 C115 0.930 . S
H164 C122 0.929 . S
H165 C123 0.930 . S
H166 C124 0.930 . S
H167 C125 0.930 . S
H168 C127 0.929 . S
H169 C128 0.930 . S
H170 C129 0.938 . S
H171 C130 0.930 . S
H172 C134 0.929 . S
H173 C136 0.930 . S
H174 C142 0.929 . S
H175 C143 0.930 . S
Li176 N193 1.990 . S
Li176 O236 1.956 . S
Li176 O237 1.970 . S
Li176 O238 1.961 . S
Li177 N201 1.990 . S
Li177 O236 1.970 . S
Li177 O237 1.956 . S
Li177 O239 1.961 . S
Li178 N223 1.990 . S
Li178 O236 1.961 . S
Li178 O238 1.956 . S
Li178 O239 1.970 . S
Li179 N229 1.990 . S
Li179 O237 1.961 . S
Li179 O238 1.970 . S
Li179 O239 1.956 . S
C180 C182 1.348 . S
C180 C183 1.356 . S
C180 O236 1.325 . S
N181 C184 1.314 . S
N181 C185 1.279 . S
C182 C180 1.348 . S
C182 C184 1.353 . S
C182 H240 0.929 . S
C183 C180 1.356 . S
C183 C185 1.358 . S
C183 H241 0.930 . S
C184 N181 1.314 . S
C184 C182 1.353 . S
C184 H242 0.930 . S
C185 N181 1.279 . S
C185 C183 1.358 . S
C185 H243 0.930 . S
C186 C189 1.348 . S
C186 C190 1.356 . S
C186 O237 1.325 . S
C187 N188 1.279 . S
C187 C190 1.358 . S
C187 H244 0.930 . S
N188 C187 1.279 . S
N188 C191 1.314 . S
C189 C186 1.348 . S
C189 C191 1.353 . S
C189 H245 0.929 . S
C190 C186 1.356 . S
C190 C187 1.358 . S
C190 H246 0.930 . S
C191 N188 1.314 . S
C191 C189 1.353 . S
C191 H247 0.930 . S
C192 N193 1.314 . S
C192 C197 1.353 . S
C192 H198 0.930 . S
N193 Li176 1.990 . S
N193 C192 1.314 . S
N193 C195 1.279 . S
C194 C195 1.358 . S
C194 C196 1.356 . S
C194 H248 0.930 . S
C195 N193 1.279 . S
C195 C194 1.358 . S
C195 H199 0.930 . S
C196 C194 1.356 . S
C196 C197 1.348 . S
C197 C192 1.353 . S
C197 C196 1.348 . S
C197 H249 0.929 . S
H198 C192 0.930 . S
H199 C195 0.930 . S
C200 N201 1.314 . S
C200 C202 1.353 . S
C200 H206 0.930 . S
N201 Li177 1.990 . S
N201 C200 1.314 . S
N201 C204 1.279 . S
C202 C200 1.353 . S
C202 C205 1.348 . S
C202 H250 0.929 . S
C203 C204 1.358 . S
C203 C205 1.356 . S
C203 H251 0.930 . S
C204 N201 1.279 . S
C204 C203 1.358 . S
C204 H207 0.930 . S
C205 C202 1.348 . S
C205 C203 1.356 . S
H206 C200 0.930 . S
H207 C204 0.930 . S
C208 C210 1.348 . S
C208 C211 1.356 . S
C208 O238 1.325 . S
N209 C212 1.314 . S
N209 C213 1.279 . S
C210 C208 1.348 . S
C210 C212 1.353 . S
C210 H252 0.929 . S
C211 C208 1.356 . S
C211 C213 1.358 . S
C211 H253 0.930 . S
C212 N209 1.314 . S
C212 C210 1.353 . S
C212 H254 0.930 . S
C213 N209 1.279 . S
C213 C211 1.358 . S
C213 H255 0.930 . S
C214 C215 1.348 . S
C214 C216 1.356 . S
C214 O239 1.325 . S
C215 C214 1.348 . S
C215 C217 1.353 . S
C215 H256 0.929 . S
C216 C214 1.356 . S
C216 C218 1.358 . S
C216 H257 0.930 . S
C217 C215 1.353 . S
C217 N219 1.314 . S
C217 H258 0.930 . S
C218 C216 1.358 . S
C218 N219 1.279 . S
C218 H259 0.930 . S
N219 C217 1.314 . S
N219 C218 1.279 . S
C220 C222 1.353 . S
C220 N223 1.314 . S
C220 H226 0.930 . S
C221 N223 1.279 . S
C221 C224 1.358 . S
C221 H227 0.930 . S
C222 C220 1.353 . S
C222 C225 1.348 . S
C222 H260 0.929 . S
N223 Li178 1.990 . S
N223 C220 1.314 . S
N223 C221 1.279 . S
C224 C221 1.358 . S
C224 C225 1.356 . S
C224 H261 0.930 . S
C225 C222 1.348 . S
C225 C224 1.356 . S
H226 C220 0.930 . S
H227 C221 0.930 . S
C228 N229 1.314 . S
C228 C230 1.353 . S
C228 H234 0.930 . S
N229 Li179 1.990 . S
N229 C228 1.314 . S
N229 C232 1.279 . S
C230 C228 1.353 . S
C230 C233 1.348 . S
C230 H262 0.929 . S
C231 C232 1.358 . S
C231 C233 1.356 . S
C231 H263 0.930 . S
C232 N229 1.279 . S
C232 C231 1.358 . S
C232 H235 0.930 . S
C233 C230 1.348 . S
C233 C231 1.356 . S
H234 C228 0.930 . S
H235 C232 0.930 . S
O236 Li176 1.956 . S
O236 Li177 1.970 . S
O236 Li178 1.961 . S
O236 C180 1.325 . S
O237 Li176 1.970 . S
O237 Li177 1.956 . S
O237 Li179 1.961 . S
O237 C186 1.325 . S
O238 Li176 1.961 . S
O238 Li178 1.956 . S
O238 Li179 1.970 . S
O238 C208 1.325 . S
O239 Li177 1.961 . S
O239 Li178 1.970 . S
O239 Li179 1.956 . S
O239 C214 1.325 . S
H240 C182 0.929 . S
H241 C183 0.930 . S
H242 C184 0.930 . S
H243 C185 0.930 . S
H244 C187 0.930 . S
H245 C189 0.929 . S
H246 C190 0.930 . S
H247 C191 0.930 . S
H248 C194 0.930 . S
H249 C197 0.929 . S
H250 C202 0.929 . S
H251 C203 0.930 . S
H252 C210 0.929 . S
H253 C211 0.930 . S
H254 C212 0.930 . S
H255 C213 0.930 . S
H256 C215 0.929 . S
H257 C216 0.930 . S
H258 C217 0.930 . S
H259 C218 0.930 . S
H260 C222 0.929 . S
H261 C224 0.930 . S
H262 C230 0.929 . S
H263 C231 0.930 . S
Li264 N281 1.990 . S
Li264 O324 1.956 . S
Li264 O325 1.970 . S
Li264 O326 1.961 . S
Li265 N289 1.990 . S
Li265 O324 1.970 . S
Li265 O325 1.956 . S
Li265 O327 1.961 . S
Li266 N311 1.990 . S
Li266 O324 1.961 . S
Li266 O326 1.956 . S
Li266 O327 1.970 . S
Li267 N317 1.990 . S
Li267 O325 1.961 . S
Li267 O326 1.970 . S
Li267 O327 1.956 . S
C268 C270 1.348 . S
C268 C271 1.356 . S
C268 O324 1.325 . S
N269 C272 1.314 . S
N269 C273 1.279 . S
C270 C268 1.348 . S
C270 C272 1.353 . S
C270 H328 0.929 . S
C271 C268 1.356 . S
C271 C273 1.358 . S
C271 H329 0.930 . S
C272 N269 1.314 . S
C272 C270 1.353 . S
C272 H330 0.930 . S
C273 N269 1.279 . S
C273 C271 1.358 . S
C273 H331 0.930 . S
C274 C277 1.348 . S
C274 C278 1.356 . S
C274 O325 1.325 . S
C275 N276 1.279 . S
C275 C278 1.358 . S
C275 H332 0.930 . S
N276 C275 1.279 . S
N276 C279 1.314 . S
C277 C274 1.348 . S
C277 C279 1.353 . S
C277 H333 0.929 . S
C278 C274 1.356 . S
C278 C275 1.358 . S
C278 H334 0.930 . S
C279 N276 1.314 . S
C279 C277 1.353 . S
C279 H335 0.930 . S
C280 N281 1.314 . S
C280 C285 1.353 . S
C280 H286 0.930 . S
N281 Li264 1.990 . S
N281 C280 1.314 . S
N281 C283 1.279 . S
C282 C283 1.358 . S
C282 C284 1.356 . S
C282 H336 0.930 . S
C283 N281 1.279 . S
C283 C282 1.358 . S
C283 H287 0.930 . S
C284 C282 1.356 . S
C284 C285 1.348 . S
C285 C280 1.353 . S
C285 C284 1.348 . S
C285 H337 0.929 . S
H286 C280 0.930 . S
H287 C283 0.930 . S
C288 N289 1.314 . S
C288 C290 1.353 . S
C288 H294 0.930 . S
N289 Li265 1.990 . S
N289 C288 1.314 . S
N289 C292 1.279 . S
C290 C288 1.353 . S
C290 C293 1.348 . S
C290 H338 0.929 . S
C291 C292 1.358 . S
C291 C293 1.356 . S
C291 H339 0.930 . S
C292 N289 1.279 . S
C292 C291 1.358 . S
C292 H295 0.930 . S
C293 C290 1.348 . S
C293 C291 1.356 . S
H294 C288 0.930 . S
H295 C292 0.930 . S
C296 C298 1.348 . S
C296 C299 1.356 . S
C296 O326 1.325 . S
N297 C300 1.314 . S
N297 C301 1.279 . S
C298 C296 1.348 . S
C298 C300 1.353 . S
C298 H340 0.929 . S
C299 C296 1.356 . S
C299 C301 1.358 . S
C299 H341 0.930 . S
C300 N297 1.314 . S
C300 C298 1.353 . S
C300 H342 0.930 . S
C301 N297 1.279 . S
C301 C299 1.358 . S
C301 H343 0.930 . S
C302 C303 1.348 . S
C302 C304 1.356 . S
C302 O327 1.325 . S
C303 C302 1.348 . S
C303 C305 1.353 . S
C303 H344 0.929 . S
C304 C302 1.356 . S
C304 C306 1.358 . S
C304 H345 0.930 . S
C305 C303 1.353 . S
C305 N307 1.314 . S
C305 H346 0.930 . S
C306 C304 1.358 . S
C306 N307 1.279 . S
C306 H347 0.930 . S
N307 C305 1.314 . S
N307 C306 1.279 . S
C308 C310 1.353 . S
C308 N311 1.314 . S
C308 H314 0.930 . S
C309 N311 1.279 . S
C309 C312 1.358 . S
C309 H315 0.930 . S
C310 C308 1.353 . S
C310 C313 1.348 . S
C310 H348 0.929 . S
N311 Li266 1.990 . S
N311 C308 1.314 . S
N311 C309 1.279 . S
C312 C309 1.358 . S
C312 C313 1.356 . S
C312 H349 0.930 . S
C313 C310 1.348 . S
C313 C312 1.356 . S
H314 C308 0.930 . S
H315 C309 0.930 . S
C316 N317 1.314 . S
C316 C318 1.353 . S
C316 H322 0.930 . S
N317 Li267 1.990 . S
N317 C316 1.314 . S
N317 C320 1.279 . S
C318 C316 1.353 . S
C318 C321 1.348 . S
C318 H350 0.929 . S
C319 C320 1.358 . S
C319 C321 1.356 . S
C319 H351 0.930 . S
C320 N317 1.279 . S
C320 C319 1.358 . S
C320 H323 0.930 . S
C321 C318 1.348 . S
C321 C319 1.356 . S
H322 C316 0.930 . S
H323 C320 0.930 . S
O324 Li264 1.956 . S
O324 Li265 1.970 . S
O324 Li266 1.961 . S
O324 C268 1.325 . S
O325 Li264 1.970 . S
O325 Li265 1.956 . S
O325 Li267 1.961 . S
O325 C274 1.325 . S
O326 Li264 1.961 . S
O326 Li266 1.956 . S
O326 Li267 1.970 . S
O326 C296 1.325 . S
O327 Li265 1.961 . S
O327 Li266 1.970 . S
O327 Li267 1.956 . S
O327 C302 1.325 . S
H328 C270 0.929 . S
H329 C271 0.930 . S
H330 C272 0.930 . S
H331 C273 0.930 . S
H332 C275 0.930 . S
H333 C277 0.929 . S
H334 C278 0.930 . S
H335 C279 0.930 . S
H336 C282 0.930 . S
H337 C285 0.929 . S
H338 C290 0.929 . S
H339 C291 0.930 . S
H340 C298 0.929 . S
H341 C299 0.930 . S
H342 C300 0.930 . S
H343 C301 0.930 . S
H344 C303 0.929 . S
H345 C304 0.930 . S
H346 C305 0.930 . S
H347 C306 0.930 . S
H348 C310 0.929 . S
H349 C312 0.930 . S
H350 C318 0.929 . S
H351 C319 0.930 . S
Li352 N369 1.990 . S
Li352 O412 1.956 . S
Li352 O413 1.970 . S
Li352 O414 1.961 . S
Li353 N377 1.990 . S
Li353 O412 1.970 . S
Li353 O413 1.956 . S
Li353 O415 1.961 . S
Li354 N399 1.990 . S
Li354 O412 1.961 . S
Li354 O414 1.956 . S
Li354 O415 1.970 . S
Li355 N405 1.990 . S
Li355 O413 1.961 . S
Li355 O414 1.970 . S
Li355 O415 1.956 . S
C356 C358 1.348 . S
C356 C359 1.356 . S
C356 O412 1.325 . S
N357 C360 1.314 . S
N357 C361 1.279 . S
C358 C356 1.348 . S
C358 C360 1.353 . S
C358 H416 0.929 . S
C359 C356 1.356 . S
C359 C361 1.358 . S
C359 H417 0.930 . S
C360 N357 1.314 . S
C360 C358 1.353 . S
C360 H418 0.930 . S
C361 N357 1.279 . S
C361 C359 1.358 . S
C361 H419 0.930 . S
C362 C365 1.348 . S
C362 C366 1.356 . S
C362 O413 1.325 . S
C363 N364 1.279 . S
C363 C366 1.358 . S
C363 H420 0.930 . S
N364 C363 1.279 . S
N364 C367 1.314 . S
C365 C362 1.348 . S
C365 C367 1.353 . S
C365 H421 0.929 . S
C366 C362 1.356 . S
C366 C363 1.358 . S
C366 H422 0.930 . S
C367 N364 1.314 . S
C367 C365 1.353 . S
C367 H423 0.930 . S
C368 N369 1.314 . S
C368 C373 1.353 . S
C368 H374 0.930 . S
N369 Li352 1.990 . S
N369 C368 1.314 . S
N369 C371 1.279 . S
C370 C371 1.358 . S
C370 C372 1.356 . S
C370 H424 0.930 . S
C371 N369 1.279 . S
C371 C370 1.358 . S
C371 H375 0.930 . S
C372 C370 1.356 . S
C372 C373 1.348 . S
C373 C368 1.353 . S
C373 C372 1.348 . S
C373 H425 0.929 . S
H374 C368 0.930 . S
H375 C371 0.930 . S
C376 N377 1.314 . S
C376 C378 1.353 . S
C376 H382 0.930 . S
N377 Li353 1.990 . S
N377 C376 1.314 . S
N377 C380 1.279 . S
C378 C376 1.353 . S
C378 C381 1.348 . S
C378 H426 0.929 . S
C379 C380 1.358 . S
C379 C381 1.356 . S
C379 H427 0.930 . S
C380 N377 1.279 . S
C380 C379 1.358 . S
C380 H383 0.930 . S
C381 C378 1.348 . S
C381 C379 1.356 . S
H382 C376 0.930 . S
H383 C380 0.930 . S
C384 C386 1.348 1_455 S
C384 C387 1.356 . S
C384 O414 1.325 . S
N385 C388 1.314 . S
N385 C389 1.279 . S
C386 C384 1.348 1_655 S
C386 C388 1.353 . S
C386 H428 0.929 . S
C387 C384 1.356 . S
C387 C389 1.358 1_455 S
C387 H429 0.930 . S
C388 N385 1.314 . S
C388 C386 1.353 . S
C388 H430 0.930 . S
C389 N385 1.279 . S
C389 C387 1.358 1_655 S
C389 H431 0.930 . S
C390 C391 1.348 . S
C390 C392 1.356 . S
C390 O415 1.325 . S
C391 C390 1.348 . S
C391 C393 1.353 . S
C391 H432 0.929 . S
C392 C390 1.356 . S
C392 C394 1.358 . S
C392 H433 0.930 . S
C393 C391 1.353 . S
C393 N395 1.314 . S
C393 H434 0.930 . S
C394 C392 1.358 . S
C394 N395 1.279 . S
C394 H435 0.930 . S
N395 C393 1.314 . S
N395 C394 1.279 . S
C396 C398 1.353 . S
C396 N399 1.314 . S
C396 H402 0.930 . S
C397 N399 1.279 . S
C397 C400 1.358 . S
C397 H403 0.930 . S
C398 C396 1.353 . S
C398 C401 1.348 . S
C398 H436 0.929 . S
N399 Li354 1.990 . S
N399 C396 1.314 . S
N399 C397 1.279 . S
C400 C397 1.358 . S
C400 C401 1.356 . S
C400 H437 0.930 . S
C401 C398 1.348 . S
C401 C400 1.356 . S
H402 C396 0.930 . S
H403 C397 0.930 . S
C404 N405 1.314 . S
C404 C406 1.353 1_455 S
C404 H410 0.930 . S
N405 Li355 1.990 . S
N405 C404 1.314 . S
N405 C408 1.279 . S
C406 C404 1.353 1_655 S
C406 C409 1.348 . S
C406 H438 0.929 . S
C407 C408 1.358 1_655 S
C407 C409 1.356 . S
C407 H439 0.930 . S
C408 N405 1.279 . S
C408 C407 1.358 1_455 S
C408 H411 0.930 . S
C409 C406 1.348 . S
C409 C407 1.356 . S
H410 C404 0.930 . S
H411 C408 0.930 . S
O412 Li352 1.956 . S
O412 Li353 1.970 . S
O412 Li354 1.961 . S
O412 C356 1.325 . S
O413 Li352 1.970 . S
O413 Li353 1.956 . S
O413 Li355 1.961 . S
O413 C362 1.325 . S
O414 Li352 1.961 . S
O414 Li354 1.956 . S
O414 Li355 1.970 . S
O414 C384 1.325 . S
O415 Li353 1.961 . S
O415 Li354 1.970 . S
O415 Li355 1.956 . S
O415 C390 1.325 . S
H416 C358 0.929 . S
H417 C359 0.930 . S
H418 C360 0.930 . S
H419 C361 0.930 . S
H420 C363 0.930 . S
H421 C365 0.929 . S
H422 C366 0.930 . S
H423 C367 0.930 . S
H424 C370 0.930 . S
H425 C373 0.929 . S
H426 C378 0.929 . S
H427 C379 0.930 . S
H428 C386 0.929 . S
H429 C387 0.930 . S
H430 C388 0.930 . S
H431 C389 0.930 . S
H432 C391 0.929 . S
H433 C392 0.930 . S
H434 C393 0.930 . S
H435 C394 0.930 . S
H436 C398 0.929 . S
H437 C400 0.930 . S
H438 C406 0.929 . S
H439 C407 0.930 . S
Li440 N457 1.990 . S
Li440 O500 1.956 . S
Li440 O501 1.970 . S
Li440 O502 1.961 . S
Li441 N465 1.990 . S
Li441 O500 1.970 . S
Li441 O501 1.956 . S
Li441 O503 1.961 . S
Li442 N487 1.990 . S
Li442 O500 1.961 . S
Li442 O502 1.956 . S
Li442 O503 1.970 . S
Li443 N493 1.990 . S
Li443 O501 1.961 . S
Li443 O502 1.970 . S
Li443 O503 1.956 . S
C444 C446 1.348 . S
C444 C447 1.356 . S
C444 O500 1.325 . S
N445 C448 1.314 . S
N445 C449 1.279 . S
C446 C444 1.348 . S
C446 C448 1.353 . S
C446 H504 0.929 . S
C447 C444 1.356 . S
C447 C449 1.358 . S
C447 H505 0.930 . S
C448 N445 1.314 . S
C448 C446 1.353 . S
C448 H506 0.930 . S
C449 N445 1.279 . S
C449 C447 1.358 . S
C449 H507 0.930 . S
C450 C453 1.348 . S
C450 C454 1.356 . S
C450 O501 1.325 . S
C451 N452 1.279 . S
C451 C454 1.358 . S
C451 H508 0.930 . S
N452 C451 1.279 . S
N452 C455 1.314 . S
C453 C450 1.348 . S
C453 C455 1.353 . S
C453 H509 0.929 . S
C454 C450 1.356 . S
C454 C451 1.358 . S
C454 H510 0.930 . S
C455 N452 1.314 . S
C455 C453 1.353 . S
C455 H511 0.930 . S
C456 N457 1.314 . S
C456 C461 1.353 . S
C456 H462 0.930 . S
N457 Li440 1.990 . S
N457 C456 1.314 . S
N457 C459 1.279 . S
C458 C459 1.358 . S
C458 C460 1.356 . S
C458 H512 0.930 . S
C459 N457 1.279 . S
C459 C458 1.358 . S
C459 H463 0.930 . S
C460 C458 1.356 . S
C460 C461 1.348 . S
C461 C456 1.353 . S
C461 C460 1.348 . S
C461 H513 0.929 . S
H462 C456 0.930 . S
H463 C459 0.930 . S
C464 N465 1.314 . S
C464 C466 1.353 . S
C464 H470 0.930 . S
N465 Li441 1.990 . S
N465 C464 1.314 . S
N465 C468 1.279 . S
C466 C464 1.353 . S
C466 C469 1.348 . S
C466 H514 0.929 . S
C467 C468 1.358 . S
C467 C469 1.356 . S
C467 H515 0.930 . S
C468 N465 1.279 . S
C468 C467 1.358 . S
C468 H471 0.930 . S
C469 C466 1.348 . S
C469 C467 1.356 . S
H470 C464 0.930 . S
H471 C468 0.930 . S
C472 C474 1.348 . S
C472 C475 1.356 . S
C472 O502 1.325 . S
N473 C476 1.314 . S
N473 C477 1.279 . S
C474 C472 1.348 . S
C474 C476 1.353 . S
C474 H516 0.929 . S
C475 C472 1.356 . S
C475 C477 1.358 . S
C475 H517 0.930 . S
C476 N473 1.314 . S
C476 C474 1.353 . S
C476 H518 0.930 . S
C477 N473 1.279 . S
C477 C475 1.358 . S
C477 H519 0.930 . S
C478 C479 1.348 . S
C478 C480 1.356 . S
C478 O503 1.325 . S
C479 C478 1.348 . S
C479 C481 1.353 . S
C479 H520 0.929 . S
C480 C478 1.356 . S
C480 C482 1.358 . S
C480 H521 0.930 . S
C481 C479 1.353 . S
C481 N483 1.314 . S
C481 H522 0.930 . S
C482 C480 1.358 . S
C482 N483 1.279 . S
C482 H523 0.930 . S
N483 C481 1.314 . S
N483 C482 1.279 . S
C484 C486 1.353 . S
C484 N487 1.314 . S
C484 H490 0.930 . S
C485 N487 1.279 . S
C485 C488 1.358 . S
C485 H491 0.930 . S
C486 C484 1.353 . S
C486 C489 1.348 . S
C486 H524 0.929 . S
N487 Li442 1.990 . S
N487 C484 1.314 . S
N487 C485 1.279 . S
C488 C485 1.358 . S
C488 C489 1.356 . S
C488 H525 0.930 . S
C489 C486 1.348 . S
C489 C488 1.356 . S
H490 C484 0.930 . S
H491 C485 0.930 . S
C492 N493 1.314 . S
C492 C494 1.353 . S
C492 H498 0.930 . S
N493 Li443 1.990 . S
N493 C492 1.314 . S
N493 C496 1.279 . S
C494 C492 1.353 . S
C494 C497 1.348 . S
C494 H526 0.929 . S
C495 C496 1.358 . S
C495 C497 1.356 . S
C495 H527 0.930 . S
C496 N493 1.279 . S
C496 C495 1.358 . S
C496 H499 0.930 . S
C497 C494 1.348 . S
C497 C495 1.356 . S
H498 C492 0.930 . S
H499 C496 0.930 . S
O500 Li440 1.956 . S
O500 Li441 1.970 . S
O500 Li442 1.961 . S
O500 C444 1.325 . S
O501 Li440 1.970 . S
O501 Li441 1.956 . S
O501 Li443 1.961 . S
O501 C450 1.325 . S
O502 Li440 1.961 . S
O502 Li442 1.956 . S
O502 Li443 1.970 . S
O502 C472 1.325 . S
O503 Li441 1.961 . S
O503 Li442 1.970 . S
O503 Li443 1.956 . S
O503 C478 1.325 . S
H504 C446 0.929 . S
H505 C447 0.930 . S
H506 C448 0.930 . S
H507 C449 0.930 . S
H508 C451 0.930 . S
H509 C453 0.929 . S
H510 C454 0.930 . S
H511 C455 0.930 . S
H512 C458 0.930 . S
H513 C461 0.929 . S
H514 C466 0.929 . S
H515 C467 0.930 . S
H516 C474 0.929 . S
H517 C475 0.930 . S
H518 C476 0.930 . S
H519 C477 0.930 . S
H520 C479 0.929 . S
H521 C480 0.930 . S
H522 C481 0.930 . S
H523 C482 0.930 . S
H524 C486 0.929 . S
H525 C488 0.930 . S
H526 C494 0.929 . S
H527 C495 0.930 . S
Li528 N545 1.990 . S
Li528 O588 1.956 . S
Li528 O589 1.970 . S
Li528 O590 1.961 . S
Li529 N553 1.990 . S
Li529 O588 1.970 . S
Li529 O589 1.956 . S
Li529 O591 1.961 . S
Li530 N575 1.990 . S
Li530 O588 1.961 . S
Li530 O590 1.956 . S
Li530 O591 1.970 . S
Li531 N581 1.990 . S
Li531 O589 1.961 . S
Li531 O590 1.970 . S
Li531 O591 1.956 . S
C532 C534 1.348 . S
C532 C535 1.356 . S
C532 O588 1.325 . S
N533 C536 1.314 . S
N533 C537 1.279 . S
C534 C532 1.348 . S
C534 C536 1.353 . S
C534 H592 0.929 . S
C535 C532 1.356 . S
C535 C537 1.358 . S
C535 H593 0.930 . S
C536 N533 1.314 . S
C536 C534 1.353 . S
C536 H594 0.930 . S
C537 N533 1.279 . S
C537 C535 1.358 . S
C537 H595 0.930 . S
C538 C541 1.348 . S
C538 C542 1.356 . S
C538 O589 1.325 . S
C539 N540 1.279 . S
C539 C542 1.358 . S
C539 H596 0.930 . S
N540 C539 1.279 . S
N540 C543 1.314 . S
C541 C538 1.348 . S
C541 C543 1.353 . S
C541 H597 0.929 . S
C542 C538 1.356 . S
C542 C539 1.358 . S
C542 H598 0.930 . S
C543 N540 1.314 . S
C543 C541 1.353 . S
C543 H599 0.930 . S
C544 N545 1.314 . S
C544 C549 1.353 . S
C544 H550 0.930 . S
N545 Li528 1.990 . S
N545 C544 1.314 . S
N545 C547 1.279 . S
C546 C547 1.358 . S
C546 C548 1.356 . S
C546 H600 0.930 . S
C547 N545 1.279 . S
C547 C546 1.358 . S
C547 H551 0.930 . S
C548 C546 1.356 . S
C548 C549 1.348 . S
C549 C544 1.353 . S
C549 C548 1.348 . S
C549 H601 0.929 . S
H550 C544 0.930 . S
H551 C547 0.930 . S
C552 N553 1.314 . S
C552 C554 1.353 . S
C552 H558 0.930 . S
N553 Li529 1.990 . S
N553 C552 1.314 . S
N553 C556 1.279 . S
C554 C552 1.353 . S
C554 C557 1.348 . S
C554 H602 0.929 . S
C555 C556 1.358 . S
C555 C557 1.356 . S
C555 H603 0.930 . S
C556 N553 1.279 . S
C556 C555 1.358 . S
C556 H559 0.930 . S
C557 C554 1.348 . S
C557 C555 1.356 . S
H558 C552 0.930 . S
H559 C556 0.930 . S
C560 C562 1.348 . S
C560 C563 1.356 . S
C560 O590 1.325 . S
N561 C564 1.314 . S
N561 C565 1.279 . S
C562 C560 1.348 . S
C562 C564 1.353 . S
C562 H604 0.929 . S
C563 C560 1.356 . S
C563 C565 1.358 . S
C563 H605 0.930 . S
C564 N561 1.314 . S
C564 C562 1.353 . S
C564 H606 0.930 . S
C565 N561 1.279 . S
C565 C563 1.358 . S
C565 H607 0.930 . S
C566 C567 1.348 . S
C566 C568 1.356 . S
C566 O591 1.325 . S
C567 C566 1.348 . S
C567 C569 1.353 . S
C567 H608 0.929 . S
C568 C566 1.356 . S
C568 C570 1.358 . S
C568 H609 0.930 . S
C569 C567 1.353 . S
C569 N571 1.314 . S
C569 H610 0.930 . S
C570 C568 1.358 . S
C570 N571 1.279 . S
C570 H611 0.930 . S
N571 C569 1.314 . S
N571 C570 1.279 . S
C572 C574 1.353 . S
C572 N575 1.314 . S
C572 H578 0.930 . S
C573 N575 1.279 . S
C573 C576 1.358 . S
C573 H579 0.930 . S
C574 C572 1.353 . S
C574 C577 1.348 . S
C574 H612 0.929 . S
N575 Li530 1.990 . S
N575 C572 1.314 . S
N575 C573 1.279 . S
C576 C573 1.358 . S
C576 C577 1.356 . S
C576 H613 0.930 . S
C577 C574 1.348 . S
C577 C576 1.356 . S
H578 C572 0.930 . S
H579 C573 0.930 . S
C580 N581 1.314 . S
C580 C582 1.353 . S
C580 H586 0.930 . S
N581 Li531 1.990 . S
N581 C580 1.314 . S
N581 C584 1.279 . S
C582 C580 1.353 . S
C582 C585 1.348 . S
C582 H614 0.929 . S
C583 C584 1.358 . S
C583 C585 1.356 . S
C583 H615 0.930 . S
C584 N581 1.279 . S
C584 C583 1.358 . S
C584 H587 0.930 . S
C585 C582 1.348 . S
C585 C583 1.356 . S
H586 C580 0.930 . S
H587 C584 0.930 . S
O588 Li528 1.956 . S
O588 Li529 1.970 . S
O588 Li530 1.961 . S
O588 C532 1.325 . S
O589 Li528 1.970 . S
O589 Li529 1.956 . S
O589 Li531 1.961 . S
O589 C538 1.325 . S
O590 Li528 1.961 . S
O590 Li530 1.956 . S
O590 Li531 1.970 . S
O590 C560 1.325 . S
O591 Li529 1.961 . S
O591 Li530 1.970 . S
O591 Li531 1.956 . S
O591 C566 1.325 . S
H592 C534 0.929 . S
H593 C535 0.930 . S
H594 C536 0.930 . S
H595 C537 0.930 . S
H596 C539 0.930 . S
H597 C541 0.929 . S
H598 C542 0.930 . S
H599 C543 0.930 . S
H600 C546 0.930 . S
H601 C549 0.929 . S
H602 C554 0.929 . S
H603 C555 0.930 . S
H604 C562 0.929 . S
H605 C563 0.930 . S
H606 C564 0.930 . S
H607 C565 0.930 . S
H608 C567 0.929 . S
H609 C568 0.930 . S
H610 C569 0.930 . S
H611 C570 0.930 . S
H612 C574 0.929 . S
H613 C576 0.930 . S
H614 C582 0.929 . S
H615 C583 0.930 . S
Li616 N633 1.990 . S
Li616 O676 1.956 1_455 S
Li616 O677 1.970 . S
Li616 O678 1.961 . S
Li617 N641 1.990 . S
Li617 O676 1.970 . S
Li617 O677 1.956 1_655 S
Li617 O679 1.961 . S
Li618 N663 1.993 1_455 S
Li618 O676 1.962 1_455 S
Li618 O678 1.955 . S
Li618 O679 1.970 1_455 S
Li619 N669 1.990 . S
Li619 O677 1.961 . S
Li619 O678 1.970 . S
Li619 O679 1.956 1_455 S
C620 C622 1.348 . S
C620 C623 1.356 1_556 S
C620 O676 1.325 . S
N621 C624 1.314 1_554 S
N621 C625 1.279 . S
C622 C620 1.348 . S
C622 C624 1.353 . S
C622 H680 0.929 . S
C623 C620 1.356 1_554 S
C623 C625 1.358 . S
C623 H681 0.930 . S
C624 N621 1.314 1_556 S
C624 C622 1.353 . S
C624 H682 0.930 . S
C625 N621 1.279 . S
C625 C623 1.358 . S
C625 H683 0.930 . S
C626 C629 1.348 1_455 S
C626 C630 1.356 . S
C626 O677 1.325 . S
C627 N628 1.279 . S
C627 C630 1.358 . S
C627 H684 0.930 . S
N628 C627 1.279 . S
N628 C631 1.309 1_455 S
C629 C626 1.348 1_655 S
C629 C631 1.352 . S
C629 H685 0.929 . S
C630 C626 1.356 . S
C630 C627 1.358 . S
C630 H686 0.930 . S
C631 N628 1.309 1_655 S
C631 C629 1.352 . S
C631 H687 0.938 . S
C632 N633 1.314 . S
C632 C637 1.353 1_556 S
C632 H638 0.930 . S
N633 Li616 1.990 . S
N633 C632 1.314 . S
N633 C635 1.279 1_456 S
C634 C635 1.358 . S
C634 C636 1.356 1_655 S
C634 H688 0.930 . S
C635 N633 1.279 1_654 S
C635 C634 1.358 . S
C635 H639 0.930 . S
C636 C634 1.356 1_455 S
C636 C637 1.348 . S
C637 C632 1.353 1_554 S
C637 C636 1.348 . S
C637 H689 0.929 . S
H638 C632 0.930 . S
H639 C635 0.930 . S
C640 N641 1.314 . S
C640 C642 1.353 . S
C640 H646 0.930 . S
N641 Li617 1.990 . S
N641 C640 1.314 . S
N641 C644 1.279 . S
C642 C640 1.353 . S
C642 C645 1.348 . S
C642 H690 0.929 . S
C643 C644 1.358 . S
C643 C645 1.356 . S
C643 H691 0.930 . S
C644 N641 1.279 . S
C644 C643 1.358 . S
C644 H647 0.930 . S
C645 C642 1.348 . S
C645 C643 1.356 . S
H646 C640 0.930 . S
H647 C644 0.930 . S
C648 C650 1.348 . S
C648 C651 1.356 1_556 S
C648 O678 1.325 . S
N649 C652 1.314 1_554 S
N649 C653 1.279 . S
C650 C648 1.348 . S
C650 C652 1.353 . S
C650 H692 0.929 . S
C651 C648 1.356 1_554 S
C651 C653 1.358 . S
C651 H693 0.930 . S
C652 N649 1.314 1_556 S
C652 C650 1.353 . S
C652 H694 0.930 . S
C653 N649 1.279 . S
C653 C651 1.358 . S
C653 H695 0.930 . S
C654 C655 1.348 . S
C654 C656 1.356 . S
C654 O679 1.325 . S
C655 C654 1.348 . S
C655 C657 1.353 . S
C655 H696 0.929 1_655 S
C656 C654 1.356 . S
C656 C658 1.358 . S
C656 H697 0.930 . S
C657 C655 1.353 . S
C657 N659 1.314 . S
C657 H698 0.930 . S
C658 C656 1.358 . S
C658 N659 1.279 . S
C658 H699 0.930 . S
N659 C657 1.314 . S
N659 C658 1.279 . S
C660 C662 1.337 1_556 S
C660 N663 1.339 . S
C660 H666 0.930 . S
C661 N663 1.253 1_455 S
C661 C664 1.358 1_556 S
C661 H667 0.930 . S
C662 C660 1.337 1_554 S
C662 C665 1.359 . S
C662 H700 0.936 . S
N663 Li618 1.993 1_655 S
N663 C660 1.339 . S
N663 C661 1.253 1_655 S
C664 C661 1.358 1_554 S
C664 C665 1.356 1_455 S
C664 H701 0.930 . S
C665 C662 1.359 . S
C665 C664 1.356 1_655 S
H666 C660 0.930 . S
H667 C661 0.930 . S
C668 N669 1.314 . S
C668 C670 1.353 . S
C668 H674 0.930 . S
N669 Li619 1.990 . S
N669 C668 1.314 . S
N669 C672 1.279 . S
C670 C668 1.353 . S
C670 C673 1.348 . S
C670 H702 0.929 . S
C671 C672 1.358 . S
C671 C673 1.356 . S
C671 H703 0.930 . S
C672 N669 1.279 . S
C672 C671 1.358 . S
C672 H675 0.930 . S
C673 C670 1.348 . S
C673 C671 1.356 . S
H674 C668 0.930 . S
H675 C672 0.930 . S
O676 Li616 1.956 1_655 S
O676 Li617 1.970 . S
O676 Li618 1.962 1_655 S
O676 C620 1.325 . S
O677 Li616 1.970 . S
O677 Li617 1.956 1_455 S
O677 Li619 1.961 . S
O677 C626 1.325 . S
O678 Li616 1.961 . S
O678 Li618 1.955 . S
O678 Li619 1.970 . S
O678 C648 1.325 . S
O679 Li617 1.961 . S
O679 Li618 1.970 1_655 S
O679 Li619 1.956 1_655 S
O679 C654 1.325 . S
H680 C622 0.929 . S
H681 C623 0.930 . S
H682 C624 0.930 . S
H683 C625 0.930 . S
H684 C627 0.930 . S
H685 C629 0.929 . S
H686 C630 0.930 . S
H687 C631 0.938 . S
H688 C634 0.930 . S
H689 C637 0.929 . S
H690 C642 0.929 . S
H691 C643 0.930 . S
H692 C650 0.929 . S
H693 C651 0.930 . S
H694 C652 0.930 . S
H695 C653 0.930 . S
H696 C655 0.929 1_455 S
H697 C656 0.930 . S
H698 C657 0.930 . S
H699 C658 0.930 . S
H700 C662 0.936 . S
H701 C664 0.930 . S
H702 C670 0.929 . S
H703 C671 0.930 . S
Li704 N721 1.990 . S
Li704 O764 1.956 1_545 S
Li704 O765 1.970 . S
Li704 O766 1.961 . S
Li705 N729 1.990 . S
Li705 O764 1.970 . S
Li705 O765 1.956 1_565 S
Li705 O767 1.964 . S
Li706 N751 1.990 . S
Li706 O764 1.961 1_545 S
Li706 O766 1.956 . S
Li706 O767 1.971 1_545 S
Li707 N757 1.990 . S
Li707 O765 1.961 . S
Li707 O766 1.970 . S
Li707 O767 1.953 1_545 S
C708 C710 1.348 . S
C708 C711 1.356 . S
C708 O764 1.325 . S
N709 C712 1.314 . S
N709 C713 1.279 . S
C710 C708 1.348 . S
C710 C712 1.353 . S
C710 H768 0.929 . S
C711 C708 1.356 . S
C711 C713 1.358 . S
C711 H769 0.930 . S
C712 N709 1.314 . S
C712 C710 1.353 . S
C712 H770 0.930 . S
C713 N709 1.279 . S
C713 C711 1.358 . S
C713 H771 0.930 . S
C714 C717 1.329 1_545 S
C714 C718 1.356 . S
C714 O765 1.325 . S
C715 N716 1.279 1_545 S
C715 C718 1.358 . S
C715 H772 0.930 . S
N716 C715 1.279 1_565 S
N716 C719 1.314 . S
C717 C714 1.329 1_565 S
C717 C719 1.354 . S
C717 H773 0.950 . S
C718 C714 1.356 . S
C718 C715 1.358 . S
C718 H774 0.930 . S
C719 N716 1.314 . S
C719 C717 1.354 . S
C719 H775 0.930 . S
C720 N721 1.314 . S
C720 C725 1.353 . S
C720 H726 0.930 . S
N721 Li704 1.990 . S
N721 C720 1.314 . S
N721 C723 1.279 1_545 S
C722 C723 1.357 . S
C722 C724 1.342 1_565 S
C722 H776 0.946 . S
C723 N721 1.279 1_565 S
C723 C722 1.357 . S
C723 H727 0.930 . S
C724 C722 1.342 1_545 S
C724 C725 1.348 . S
C725 C720 1.353 . S
C725 C724 1.348 . S
C725 H777 0.929 . S
H726 C720 0.930 . S
H727 C723 0.930 . S
C728 N729 1.314 . S
C728 C730 1.353 . S
C728 H734 0.930 . S
N729 Li705 1.990 . S
N729 C728 1.314 . S
N729 C732 1.279 . S
C730 C728 1.353 . S
C730 C733 1.348 . S
C730 H778 0.929 . S
C731 C732 1.358 . S
C731 C733 1.356 . S
C731 H779 0.930 . S
C732 N729 1.279 . S
C732 C731 1.358 . S
C732 H735 0.930 . S
C733 C730 1.348 . S
C733 C731 1.356 . S
H734 C728 0.930 . S
H735 C732 0.930 . S
C736 C738 1.348 . S
C736 C739 1.356 . S
C736 O766 1.325 . S
N737 C740 1.314 . S
N737 C741 1.279 . S
C738 C736 1.348 . S
C738 C740 1.353 . S
C738 H780 0.929 . S
C739 C736 1.356 . S
C739 C741 1.358 . S
C739 H781 0.930 . S
C740 N737 1.314 . S
C740 C738 1.353 . S
C740 H782 0.930 . S
C741 N737 1.279 . S
C741 C739 1.358 . S
C741 H783 0.930 . S
C742 C743 1.348 1_565 S
C742 C744 1.356 . S
C742 O767 1.324 . S
C743 C742 1.348 1_545 S
C743 C745 1.352 . S
C743 H784 0.929 . S
C744 C742 1.356 . S
C744 C746 1.358 . S
C744 H785 0.930 . S
C745 C743 1.352 . S
C745 N747 1.313 1_545 S
C745 H786 0.931 . S
C746 C744 1.358 . S
C746 N747 1.279 . S
C746 H787 0.930 . S
N747 C745 1.313 1_565 S
N747 C746 1.279 . S
C748 C750 1.353 . S
C748 N751 1.314 1_565 S
C748 H754 0.930 . S
C749 N751 1.279 . S
C749 C752 1.358 . S
C749 H755 0.930 . S
C750 C748 1.353 . S
C750 C753 1.348 1_565 S
C750 H788 0.929 . S
N751 Li706 1.990 . S
N751 C748 1.314 1_545 S
N751 C749 1.279 . S
C752 C749 1.358 . S
C752 C753 1.356 . S
C752 H789 0.930 . S
C753 C750 1.348 1_545 S
C753 C752 1.356 . S
H754 C748 0.930 . S
H755 C749 0.930 . S
C756 N757 1.314 . S
C756 C758 1.353 . S
C756 H762 0.930 . S
N757 Li707 1.990 . S
N757 C756 1.314 . S
N757 C760 1.279 . S
C758 C756 1.353 . S
C758 C761 1.348 . S
C758 H790 0.929 . S
C759 C760 1.358 . S
C759 C761 1.356 . S
C759 H791 0.930 . S
C760 N757 1.279 . S
C760 C759 1.358 . S
C760 H763 0.930 . S
C761 C758 1.348 . S
C761 C759 1.356 . S
H762 C756 0.930 . S
H763 C760 0.930 . S
O764 Li704 1.956 1_565 S
O764 Li705 1.970 . S
O764 Li706 1.961 1_565 S
O764 C708 1.325 . S
O765 Li704 1.970 . S
O765 Li705 1.956 1_545 S
O765 Li707 1.961 . S
O765 C714 1.325 . S
O766 Li704 1.961 . S
O766 Li706 1.956 . S
O766 Li707 1.970 . S
O766 C736 1.325 . S
O767 Li705 1.964 . S
O767 Li706 1.971 1_565 S
O767 Li707 1.953 1_565 S
O767 C742 1.324 . S
H768 C710 0.929 . S
H769 C711 0.930 . S
H770 C712 0.930 . S
H771 C713 0.930 . S
H772 C715 0.930 . S
H773 C717 0.950 . S
H774 C718 0.930 . S
H775 C719 0.930 . S
H776 C722 0.946 . S
H777 C725 0.929 . S
H778 C730 0.929 . S
H779 C731 0.930 . S
H780 C738 0.929 . S
H781 C739 0.930 . S
H782 C740 0.930 . S
H783 C741 0.930 . S
H784 C743 0.929 . S
H785 C744 0.930 . S
H786 C745 0.931 . S
H787 C746 0.930 . S
H788 C750 0.929 . S
H789 C752 0.930 . S
H790 C758 0.929 . S
H791 C759 0.930 . S
Li792 N809 1.990 . S
Li792 O852 1.956 . S
Li792 O853 1.970 . S
Li792 O854 1.961 . S
Li793 N817 1.990 . S
Li793 O852 1.970 . S
Li793 O853 1.956 . S
Li793 O855 1.961 . S
Li794 N839 1.990 . S
Li794 O852 1.961 . S
Li794 O854 1.956 . S
Li794 O855 1.970 . S
Li795 N845 1.990 . S
Li795 O853 1.961 . S
Li795 O854 1.970 . S
Li795 O855 1.956 . S
C796 C798 1.348 . S
C796 C799 1.356 . S
C796 O852 1.325 . S
N797 C800 1.314 . S
N797 C801 1.279 . S
C798 C796 1.348 . S
C798 C800 1.353 . S
C798 H856 0.929 . S
C799 C796 1.356 . S
C799 C801 1.358 . S
C799 H857 0.930 . S
C800 N797 1.314 . S
C800 C798 1.353 . S
C800 H858 0.930 . S
C801 N797 1.279 . S
C801 C799 1.358 . S
C801 H859 0.930 . S
C802 C805 1.348 . S
C802 C806 1.356 . S
C802 O853 1.325 . S
C803 N804 1.279 . S
C803 C806 1.358 . S
C803 H860 0.930 . S
N804 C803 1.279 . S
N804 C807 1.314 . S
C805 C802 1.348 . S
C805 C807 1.353 . S
C805 H861 0.929 . S
C806 C802 1.356 . S
C806 C803 1.358 . S
C806 H862 0.930 . S
C807 N804 1.314 . S
C807 C805 1.353 . S
C807 H863 0.930 . S
C808 N809 1.314 . S
C808 C813 1.353 . S
C808 H814 0.930 . S
N809 Li792 1.990 . S
N809 C808 1.314 . S
N809 C811 1.279 . S
C810 C811 1.358 . S
C810 C812 1.356 . S
C810 H864 0.930 . S
C811 N809 1.279 . S
C811 C810 1.358 . S
C811 H815 0.930 . S
C812 C810 1.356 . S
C812 C813 1.348 . S
C813 C808 1.353 . S
C813 C812 1.348 . S
C813 H865 0.929 . S
H814 C808 0.930 . S
H815 C811 0.930 . S
C816 N817 1.314 . S
C816 C818 1.353 . S
C816 H822 0.930 . S
N817 Li793 1.990 . S
N817 C816 1.314 . S
N817 C820 1.279 . S
C818 C816 1.353 . S
C818 C821 1.348 . S
C818 H866 0.929 . S
C819 C820 1.358 . S
C819 C821 1.356 . S
C819 H867 0.930 . S
C820 N817 1.279 . S
C820 C819 1.358 . S
C820 H823 0.930 . S
C821 C818 1.348 . S
C821 C819 1.356 . S
H822 C816 0.930 . S
H823 C820 0.930 . S
C824 C826 1.348 . S
C824 C827 1.356 . S
C824 O854 1.325 . S
N825 C828 1.314 . S
N825 C829 1.279 . S
C826 C824 1.348 . S
C826 C828 1.353 . S
C826 H868 0.929 . S
C827 C824 1.356 . S
C827 C829 1.358 . S
C827 H869 0.930 . S
C828 N825 1.314 . S
C828 C826 1.353 . S
C828 H870 0.930 . S
C829 N825 1.279 . S
C829 C827 1.358 . S
C829 H871 0.930 . S
C830 C831 1.348 . S
C830 C832 1.356 . S
C830 O855 1.325 . S
C831 C830 1.348 . S
C831 C833 1.353 . S
C831 H872 0.929 . S
C832 C830 1.356 . S
C832 C834 1.358 . S
C832 H873 0.930 . S
C833 C831 1.353 . S
C833 N835 1.314 . S
C833 H874 0.930 . S
C834 C832 1.358 . S
C834 N835 1.279 . S
C834 H875 0.930 . S
N835 C833 1.314 . S
N835 C834 1.279 . S
C836 C838 1.353 . S
C836 N839 1.314 . S
C836 H842 0.930 . S
C837 N839 1.279 . S
C837 C840 1.358 . S
C837 H843 0.930 . S
C838 C836 1.353 . S
C838 C841 1.348 . S
C838 H876 0.929 . S
N839 Li794 1.990 . S
N839 C836 1.314 . S
N839 C837 1.279 . S
C840 C837 1.358 . S
C840 C841 1.356 . S
C840 H877 0.930 . S
C841 C838 1.348 . S
C841 C840 1.356 . S
H842 C836 0.930 . S
H843 C837 0.930 . S
C844 N845 1.314 . S
C844 C846 1.353 . S
C844 H850 0.930 . S
N845 Li795 1.990 . S
N845 C844 1.314 . S
N845 C848 1.279 . S
C846 C844 1.353 . S
C846 C849 1.348 . S
C846 H878 0.929 . S
C847 C848 1.358 . S
C847 C849 1.356 . S
C847 H879 0.930 . S
C848 N845 1.279 . S
C848 C847 1.358 . S
C848 H851 0.930 . S
C849 C846 1.348 . S
C849 C847 1.356 . S
H850 C844 0.930 . S
H851 C848 0.930 . S
O852 Li792 1.956 . S
O852 Li793 1.970 . S
O852 Li794 1.961 . S
O852 C796 1.325 . S
O853 Li792 1.970 . S
O853 Li793 1.956 . S
O853 Li795 1.961 . S
O853 C802 1.325 . S
O854 Li792 1.961 . S
O854 Li794 1.956 . S
O854 Li795 1.970 . S
O854 C824 1.325 . S
O855 Li793 1.961 . S
O855 Li794 1.970 . S
O855 Li795 1.956 . S
O855 C830 1.325 . S
H856 C798 0.929 . S
H857 C799 0.930 . S
H858 C800 0.930 . S
H859 C801 0.930 . S
H860 C803 0.930 . S
H861 C805 0.929 . S
H862 C806 0.930 . S
H863 C807 0.930 . S
H864 C810 0.930 . S
H865 C813 0.929 . S
H866 C818 0.929 . S
H867 C819 0.930 . S
H868 C826 0.929 . S
H869 C827 0.930 . S
H870 C828 0.930 . S
H871 C829 0.930 . S
H872 C831 0.929 . S
H873 C832 0.930 . S
H874 C833 0.930 . S
H875 C834 0.930 . S
H876 C838 0.929 . S
H877 C840 0.930 . S
H878 C846 0.929 . S
H879 C847 0.930 . S
Li880 N897 1.990 . S
Li880 O940 1.956 . S
Li880 O941 1.970 . S
Li880 O942 1.961 . S
Li881 N905 1.990 . S
Li881 O940 1.970 . S
Li881 O941 1.956 . S
Li881 O943 1.961 . S
Li882 N927 2.035 . S
Li882 O940 1.961 . S
Li882 O942 1.956 . S
Li882 O943 1.970 . S
Li883 N933 1.990 . S
Li883 O941 1.961 . S
Li883 O942 1.970 . S
Li883 O943 1.956 . S
C884 C886 1.348 . S
C884 C887 1.356 . S
C884 O940 1.325 . S
N885 C888 1.314 . S
N885 C889 1.279 . S
C886 C884 1.348 . S
C886 C888 1.353 . S
C886 H944 0.929 . S
C887 C884 1.356 . S
C887 C889 1.358 . S
C887 H945 0.930 . S
C888 N885 1.314 . S
C888 C886 1.353 . S
C888 H946 0.930 . S
C889 N885 1.279 . S
C889 C887 1.358 . S
C889 H947 0.930 . S
C890 C893 1.348 . S
C890 C894 1.356 . S
C890 O941 1.325 . S
C891 N892 1.279 . S
C891 C894 1.358 . S
C891 H948 0.930 . S
N892 C891 1.279 . S
N892 C895 1.314 . S
C893 C890 1.348 . S
C893 C895 1.353 . S
C893 H949 0.929 . S
C894 C890 1.356 . S
C894 C891 1.358 . S
C894 H950 0.930 . S
C895 N892 1.314 . S
C895 C893 1.353 . S
C895 H951 0.930 . S
C896 N897 1.314 . S
C896 C901 1.353 . S
C896 H902 0.930 . S
N897 Li880 1.990 . S
N897 C896 1.314 . S
N897 C899 1.279 . S
C898 C899 1.358 . S
C898 C900 1.356 . S
C898 H952 0.930 . S
C899 N897 1.279 . S
C899 C898 1.358 . S
C899 H903 0.930 . S
C900 C898 1.356 . S
C900 C901 1.348 . S
C901 C896 1.353 . S
C901 C900 1.348 . S
C901 H953 0.929 . S
H902 C896 0.930 . S
H903 C899 0.930 . S
C904 N905 1.314 . S
C904 C906 1.353 . S
C904 H910 0.930 . S
N905 Li881 1.990 . S
N905 C904 1.314 . S
N905 C908 1.279 . S
C906 C904 1.353 . S
C906 C909 1.348 . S
C906 H954 0.929 . S
C907 C908 1.358 . S
C907 C909 1.356 . S
C907 H955 0.930 . S
C908 N905 1.279 . S
C908 C907 1.358 . S
C908 H911 0.930 . S
C909 C906 1.348 . S
C909 C907 1.356 . S
H910 C904 0.930 . S
H911 C908 0.930 . S
C912 C914 1.348 . S
C912 C915 1.356 . S
C912 O942 1.325 . S
N913 C916 1.314 . S
N913 C917 1.279 . S
C914 C912 1.348 . S
C914 C916 1.353 . S
C914 H956 0.929 . S
C915 C912 1.356 . S
C915 C917 1.358 . S
C915 H957 0.930 . S
C916 N913 1.314 . S
C916 C914 1.353 . S
C916 H958 0.930 . S
C917 N913 1.279 . S
C917 C915 1.358 . S
C917 H959 0.930 . S
C918 C919 1.348 . S
C918 C920 1.356 . S
C918 O943 1.325 1_565 S
C919 C918 1.348 . S
C919 C921 1.353 . S
C919 H960 0.929 . S
C920 C918 1.356 . S
C920 C922 1.358 . S
C920 H961 0.930 1_565 S
C921 C919 1.353 . S
C921 N923 1.314 . S
C921 H962 0.930 . S
C922 C920 1.358 . S
C922 N923 1.279 . S
C922 H963 0.930 . S
N923 C921 1.314 . S
N923 C922 1.279 . S
C924 C926 1.353 . S
C924 N927 1.281 1_565 S
C924 H930 0.930 . S
C925 N927 1.261 1_565 S
C925 C928 1.358 . S
C925 H931 0.928 1_565 S
C926 C924 1.353 . S
C926 C929 1.348 . S
C926 H964 0.929 . S
N927 Li882 2.035 . S
N927 C924 1.281 1_545 S
N927 C925 1.261 1_545 S
C928 C925 1.358 . S
C928 C929 1.356 . S
C928 H965 0.930 . S
C929 C926 1.348 . S
C929 C928 1.356 . S
H930 C924 0.930 . S
H931 C925 0.928 1_545 S
C932 N933 1.314 . S
C932 C934 1.353 . S
C932 H938 0.930 . S
N933 Li883 1.990 . S
N933 C932 1.314 . S
N933 C936 1.279 . S
C934 C932 1.353 . S
C934 C937 1.348 . S
C934 H966 0.929 . S
C935 C936 1.358 . S
C935 C937 1.356 . S
C935 H967 0.930 1_545 S
C936 N933 1.279 . S
C936 C935 1.358 . S
C936 H939 0.930 . S
C937 C934 1.348 . S
C937 C935 1.356 . S
H938 C932 0.930 . S
H939 C936 0.930 . S
O940 Li880 1.956 . S
O940 Li881 1.970 . S
O940 Li882 1.961 . S
O940 C884 1.325 . S
O941 Li880 1.970 . S
O941 Li881 1.956 . S
O941 Li883 1.961 . S
O941 C890 1.325 . S
O942 Li880 1.961 . S
O942 Li882 1.956 . S
O942 Li883 1.970 . S
O942 C912 1.325 . S
O943 Li881 1.961 . S
O943 Li882 1.970 . S
O943 Li883 1.956 . S
O943 C918 1.325 1_545 S
H944 C886 0.929 . S
H945 C887 0.930 . S
H946 C888 0.930 . S
H947 C889 0.930 . S
H948 C891 0.930 . S
H949 C893 0.929 . S
H950 C894 0.930 . S
H951 C895 0.930 . S
H952 C898 0.930 . S
H953 C901 0.929 . S
H954 C906 0.929 . S
H955 C907 0.930 . S
H956 C914 0.929 . S
H957 C915 0.930 . S
H958 C916 0.930 . S
H959 C917 0.930 . S
H960 C919 0.929 . S
H961 C920 0.930 1_545 S
H962 C921 0.930 . S
H963 C922 0.930 . S
H964 C926 0.929 . S
H965 C928 0.930 . S
H966 C934 0.929 . S
H967 C935 0.930 1_565 S
Li968 N985 1.991 . S
Li968 O1028 1.979 . S
Li968 O1029 1.971 1_554 S
Li968 O1030 1.935 1_554 S
Li969 N993 1.990 . S
Li969 O1028 1.970 . S
Li969 O1029 1.956 1_554 S
Li969 O1031 1.961 . S
Li970 N1015 1.990 . S
Li970 O1028 1.961 . S
Li970 O1030 1.956 1_554 S
Li970 O1031 1.970 . S
Li971 N1021 1.990 . S
Li971 O1029 1.961 . S
Li971 O1030 1.970 . S
Li971 O1031 1.956 1_556 S
C972 C974 1.348 . S
C972 C975 1.356 . S
C972 O1028 1.325 . S
N973 C976 1.314 . S
N973 C977 1.282 . S
C974 C972 1.348 . S
C974 C976 1.353 . S
C974 H1032 0.929 . S
C975 C972 1.356 . S
C975 C977 1.362 . S
C975 H1033 0.930 . S
C976 N973 1.314 . S
C976 C974 1.353 . S
C976 H1034 0.930 . S
C977 N973 1.282 . S
C977 C975 1.362 . S
C977 H1035 0.923 1_565 S
C978 C981 1.341 1_556 S
C978 C982 1.356 . S
C978 O1029 1.325 . S
C979 N980 1.279 . S
C979 C982 1.358 . S
C979 H1036 0.930 . S
N980 C979 1.279 . S
N980 C983 1.314 . S
C981 C978 1.341 1_554 S
C981 C983 1.355 1_554 S
C981 H1037 0.935 . S
C982 C978 1.356 . S
C982 C979 1.358 . S
C982 H1038 0.930 . S
C983 N980 1.314 . S
C983 C981 1.355 1_556 S
C983 H1039 0.930 1_556 S
C984 N985 1.314 1_556 S
C984 C989 1.353 . S
C984 H990 0.930 . S
N985 Li968 1.991 . S
N985 C984 1.314 1_554 S
N985 C987 1.279 . S
C986 C987 1.358 . S
C986 C988 1.337 1_554 S
C986 H1040 0.930 . S
C987 N985 1.279 . S
C987 C986 1.358 . S
C987 H991 0.930 . S
C988 C986 1.337 1_556 S
C988 C989 1.368 . S
C989 C984 1.353 . S
C989 C988 1.368 . S
C989 H1041 0.929 . S
H990 C984 0.930 . S
H991 C987 0.930 . S
C992 N993 1.314 . S
C992 C994 1.353 . S
C992 H998 0.930 . S
N993 Li969 1.990 . S
N993 C992 1.314 . S
N993 C996 1.279 . S
C994 C992 1.353 . S
C994 C997 1.348 . S
C994 H1042 0.929 . S
C995 C996 1.358 . S
C995 C997 1.356 . S
C995 H1043 0.930 . S
C996 N993 1.279 . S
C996 C995 1.358 . S
C996 H999 0.930 . S
C997 C994 1.348 . S
C997 C995 1.356 . S
H998 C992 0.930 . S
H999 C996 0.930 . S
C1000 C1002 1.348 . S
C1000 C1003 1.356 . S
C1000 O1030 1.325 . S
N1001 C1004 1.314 . S
N1001 C1005 1.279 . S
C1002 C1000 1.348 . S
C1002 C1004 1.353 . S
C1002 H1044 0.929 . S
C1003 C1000 1.356 . S
C1003 C1005 1.358 . S
C1003 H1045 0.930 . S
C1004 N1001 1.314 . S
C1004 C1002 1.353 . S
C1004 H1046 0.930 . S
C1005 N1001 1.279 . S
C1005 C1003 1.358 . S
C1005 H1047 0.930 1_565 S
C1006 C1007 1.340 1_554 S
C1006 C1008 1.361 . S
C1006 O1031 1.326 . S
C1007 C1006 1.340 1_556 S
C1007 C1009 1.353 . S
C1007 H1048 0.929 . S
C1008 C1006 1.361 . S
C1008 C1010 1.358 . S
C1008 H1049 0.930 . S
C1009 C1007 1.353 . S
C1009 N1011 1.314 . S
C1009 H1050 0.930 . S
C1010 C1008 1.358 . S
C1010 N1011 1.279 1_554 S
C1010 H1051 0.930 . S
N1011 C1009 1.314 . S
N1011 C1010 1.279 1_556 S
C1012 C1014 1.353 . S
C1012 N1015 1.314 . S
C1012 H1018 0.930 . S
C1013 N1015 1.279 1_556 S
C1013 C1016 1.358 . S
C1013 H1019 0.930 . S
C1014 C1012 1.353 . S
C1014 C1017 1.331 1_565 S
C1014 H1052 0.929 . S
N1015 Li970 1.990 . S
N1015 C1012 1.314 . S
N1015 C1013 1.279 1_554 S
C1016 C1013 1.358 . S
C1016 C1017 1.359 1_566 S
C1016 H1053 0.930 1_565 S
C1017 C1014 1.331 1_545 S
C1017 C1016 1.359 1_544 S
H1018 C1012 0.930 . S
H1019 C1013 0.930 . S
C1020 N1021 1.314 . S
C1020 C1022 1.353 . S
C1020 H1026 0.930 . S
N1021 Li971 1.990 . S
N1021 C1020 1.314 . S
N1021 C1024 1.279 . S
C1022 C1020 1.353 . S
C1022 C1025 1.348 . S
C1022 H1054 0.929 . S
C1023 C1024 1.358 . S
C1023 C1025 1.356 . S
C1023 H1055 0.930 . S
C1024 N1021 1.279 . S
C1024 C1023 1.358 . S
C1024 H1027 0.930 . S
C1025 C1022 1.348 . S
C1025 C1023 1.356 . S
H1026 C1020 0.930 . S
H1027 C1024 0.930 . S
O1028 Li968 1.979 . S
O1028 Li969 1.970 . S
O1028 Li970 1.961 . S
O1028 C972 1.325 . S
O1029 Li968 1.971 1_556 S
O1029 Li969 1.956 1_556 S
O1029 Li971 1.961 . S
O1029 C978 1.325 . S
O1030 Li968 1.935 1_556 S
O1030 Li970 1.956 1_556 S
O1030 Li971 1.970 . S
O1030 C1000 1.325 . S
O1031 Li969 1.961 . S
O1031 Li970 1.970 . S
O1031 Li971 1.956 1_554 S
O1031 C1006 1.326 . S
H1032 C974 0.929 . S
H1033 C975 0.930 . S
H1034 C976 0.930 . S
H1035 C977 0.923 1_545 S
H1036 C979 0.930 . S
H1037 C981 0.935 . S
H1038 C982 0.930 . S
H1039 C983 0.930 1_554 S
H1040 C986 0.930 . S
H1041 C989 0.929 . S
H1042 C994 0.929 . S
H1043 C995 0.930 . S
H1044 C1002 0.929 . S
H1045 C1003 0.930 . S
H1046 C1004 0.930 . S
H1047 C1005 0.930 1_545 S
H1048 C1007 0.929 . S
H1049 C1008 0.930 . S
H1050 C1009 0.930 . S
H1051 C1010 0.930 . S
H1052 C1014 0.929 . S
H1053 C1016 0.930 1_545 S
H1054 C1022 0.929 . S
H1055 C1023 0.930 . S
Li1056 N1073 1.990 . S
Li1056 O1116 1.956 . S
Li1056 O1117 1.970 . S
Li1056 O1118 1.961 . S
Li1057 N1081 1.990 . S
Li1057 O1116 1.970 . S
Li1057 O1117 1.956 . S
Li1057 O1119 1.961 . S
Li1058 N1103 1.990 . S
Li1058 O1116 1.961 . S
Li1058 O1118 1.956 . S
Li1058 O1119 1.970 . S
Li1059 N1109 1.990 1_554 S
Li1059 O1117 1.961 . S
Li1059 O1118 1.970 . S
Li1059 O1119 1.956 . S
C1060 C1062 1.348 . S
C1060 C1063 1.356 . S
C1060 O1116 1.325 . S
N1061 C1064 1.314 . S
N1061 C1065 1.279 . S
C1062 C1060 1.348 . S
C1062 C1064 1.353 . S
C1062 H1120 0.929 . S
C1063 C1060 1.356 . S
C1063 C1065 1.358 . S
C1063 H1121 0.930 . S
C1064 N1061 1.314 . S
C1064 C1062 1.353 . S
C1064 H1122 0.930 . S
C1065 N1061 1.279 . S
C1065 C1063 1.358 . S
C1065 H1123 0.930 . S
C1066 C1069 1.348 . S
C1066 C1070 1.356 . S
C1066 O1117 1.325 . S
C1067 N1068 1.279 . S
C1067 C1070 1.358 . S
C1067 H1124 0.930 . S
N1068 C1067 1.279 . S
N1068 C1071 1.314 . S
C1069 C1066 1.348 . S
C1069 C1071 1.353 . S
C1069 H1125 0.929 . S
C1070 C1066 1.356 . S
C1070 C1067 1.358 . S
C1070 H1126 0.930 . S
C1071 N1068 1.314 . S
C1071 C1069 1.353 . S
C1071 H1127 0.930 . S
C1072 N1073 1.314 . S
C1072 C1077 1.353 . S
C1072 H1078 0.930 . S
N1073 Li1056 1.990 . S
N1073 C1072 1.314 . S
N1073 C1075 1.279 . S
C1074 C1075 1.358 . S
C1074 C1076 1.356 . S
C1074 H1128 0.930 . S
C1075 N1073 1.279 . S
C1075 C1074 1.358 . S
C1075 H1079 0.930 . S
C1076 C1074 1.356 . S
C1076 C1077 1.348 . S
C1077 C1072 1.353 . S
C1077 C1076 1.348 . S
C1077 H1129 0.929 . S
H1078 C1072 0.930 . S
H1079 C1075 0.930 . S
C1080 N1081 1.314 . S
C1080 C1082 1.353 . S
C1080 H1086 0.930 . S
N1081 Li1057 1.990 . S
N1081 C1080 1.314 . S
N1081 C1084 1.279 . S
C1082 C1080 1.353 . S
C1082 C1085 1.348 . S
C1082 H1130 0.929 . S
C1083 C1084 1.358 . S
C1083 C1085 1.356 . S
C1083 H1131 0.930 . S
C1084 N1081 1.279 . S
C1084 C1083 1.358 . S
C1084 H1087 0.930 . S
C1085 C1082 1.348 . S
C1085 C1083 1.356 . S
H1086 C1080 0.930 . S
H1087 C1084 0.930 . S
C1088 C1090 1.343 1_554 S
C1088 C1091 1.356 . S
C1088 O1118 1.329 . S
N1089 C1092 1.314 . S
N1089 C1093 1.279 . S
C1090 C1088 1.343 1_556 S
C1090 C1092 1.353 . S
C1090 H1132 0.929 . S
C1091 C1088 1.356 . S
C1091 C1093 1.358 1_554 S
C1091 H1133 0.930 . S
C1092 N1089 1.314 . S
C1092 C1090 1.353 . S
C1092 H1134 0.930 . S
C1093 N1089 1.279 . S
C1093 C1091 1.358 1_556 S
C1093 H1135 0.930 . S
C1094 C1095 1.348 . S
C1094 C1096 1.356 . S
C1094 O1119 1.325 . S
C1095 C1094 1.348 . S
C1095 C1097 1.353 . S
C1095 H1136 0.929 . S
C1096 C1094 1.356 . S
C1096 C1098 1.358 . S
C1096 H1137 0.930 . S
C1097 C1095 1.353 . S
C1097 N1099 1.314 . S
C1097 H1138 0.930 . S
C1098 C1096 1.358 . S
C1098 N1099 1.279 . S
C1098 H1139 0.930 . S
N1099 C1097 1.314 . S
N1099 C1098 1.279 . S
C1100 C1102 1.353 . S
C1100 N1103 1.314 . S
C1100 H1106 0.930 . S
C1101 N1103 1.279 . S
C1101 C1104 1.358 . S
C1101 H1107 0.930 . S
C1102 C1100 1.353 . S
C1102 C1105 1.348 . S
C1102 H1140 0.929 . S
N1103 Li1058 1.990 . S
N1103 C1100 1.314 . S
N1103 C1101 1.279 . S
C1104 C1101 1.358 . S
C1104 C1105 1.356 . S
C1104 H1141 0.930 . S
C1105 C1102 1.348 . S
C1105 C1104 1.356 . S
H1106 C1100 0.930 . S
H1107 C1101 0.930 . S
C1108 N1109 1.314 . S
C1108 C1110 1.353 . S
C1108 H1114 0.930 . S
N1109 Li1059 1.990 1_556 S
N1109 C1108 1.314 . S
N1109 C1112 1.279 . S
C1110 C1108 1.353 . S
C1110 C1113 1.348 . S
C1110 H1142 0.929 . S
C1111 C1112 1.358 . S
C1111 C1113 1.356 . S
C1111 H1143 0.930 . S
C1112 N1109 1.279 . S
C1112 C1111 1.358 . S
C1112 H1115 0.930 . S
C1113 C1110 1.348 . S
C1113 C1111 1.356 . S
H1114 C1108 0.930 . S
H1115 C1112 0.930 . S
O1116 Li1056 1.956 . S
O1116 Li1057 1.970 . S
O1116 Li1058 1.961 . S
O1116 C1060 1.325 . S
O1117 Li1056 1.970 . S
O1117 Li1057 1.956 . S
O1117 Li1059 1.961 . S
O1117 C1066 1.325 . S
O1118 Li1056 1.961 . S
O1118 Li1058 1.956 . S
O1118 Li1059 1.970 . S
O1118 C1088 1.329 . S
O1119 Li1057 1.961 . S
O1119 Li1058 1.970 . S
O1119 Li1059 1.956 . S
O1119 C1094 1.325 . S
H1120 C1062 0.929 . S
H1121 C1063 0.930 . S
H1122 C1064 0.930 . S
H1123 C1065 0.930 . S
H1124 C1067 0.930 . S
H1125 C1069 0.929 . S
H1126 C1070 0.930 . S
H1127 C1071 0.930 . S
H1128 C1074 0.930 . S
H1129 C1077 0.929 . S
H1130 C1082 0.929 . S
H1131 C1083 0.930 . S
H1132 C1090 0.929 . S
H1133 C1091 0.930 . S
H1134 C1092 0.930 . S
H1135 C1093 0.930 . S
H1136 C1095 0.929 . S
H1137 C1096 0.930 . S
H1138 C1097 0.930 . S
H1139 C1098 0.930 . S
H1140 C1102 0.929 . S
H1141 C1104 0.930 . S
H1142 C1110 0.929 . S
H1143 C1111 0.930 . S
Li1144 N1161 1.990 . S
Li1144 O1204 1.956 . S
Li1144 O1205 1.970 . S
Li1144 O1206 1.961 . S
Li1145 N1169 1.990 . S
Li1145 O1204 1.970 . S
Li1145 O1205 1.956 . S
Li1145 O1207 1.961 . S
Li1146 N1191 1.990 . S
Li1146 O1204 1.961 . S
Li1146 O1206 1.956 . S
Li1146 O1207 1.970 . S
Li1147 N1197 1.990 . S
Li1147 O1205 1.961 . S
Li1147 O1206 1.970 . S
Li1147 O1207 1.956 . S
C1148 C1150 1.348 . S
C1148 C1151 1.356 . S
C1148 O1204 1.325 . S
N1149 C1152 1.314 . S
N1149 C1153 1.279 . S
C1150 C1148 1.348 . S
C1150 C1152 1.353 . S
C1150 H1208 0.929 . S
C1151 C1148 1.356 . S
C1151 C1153 1.358 . S
C1151 H1209 0.930 . S
C1152 N1149 1.314 . S
C1152 C1150 1.353 . S
C1152 H1210 0.930 . S
C1153 N1149 1.279 . S
C1153 C1151 1.358 . S
C1153 H1211 0.930 . S
C1154 C1157 1.348 . S
C1154 C1158 1.356 . S
C1154 O1205 1.325 . S
C1155 N1156 1.279 . S
C1155 C1158 1.358 . S
C1155 H1212 0.930 . S
N1156 C1155 1.279 . S
N1156 C1159 1.314 . S
C1157 C1154 1.348 . S
C1157 C1159 1.353 . S
C1157 H1213 0.929 . S
C1158 C1154 1.356 . S
C1158 C1155 1.358 . S
C1158 H1214 0.930 . S
C1159 N1156 1.314 . S
C1159 C1157 1.353 . S
C1159 H1215 0.930 . S
C1160 N1161 1.314 . S
C1160 C1165 1.353 . S
C1160 H1166 0.930 . S
N1161 Li1144 1.990 . S
N1161 C1160 1.314 . S
N1161 C1163 1.279 . S
C1162 C1163 1.358 . S
C1162 C1164 1.356 . S
C1162 H1216 0.930 . S
C1163 N1161 1.279 . S
C1163 C1162 1.358 . S
C1163 H1167 0.930 . S
C1164 C1162 1.356 . S
C1164 C1165 1.348 . S
C1165 C1160 1.353 . S
C1165 C1164 1.348 . S
C1165 H1217 0.929 . S
H1166 C1160 0.930 . S
H1167 C1163 0.930 . S
C1168 N1169 1.314 . S
C1168 C1170 1.353 . S
C1168 H1174 0.930 . S
N1169 Li1145 1.990 . S
N1169 C1168 1.314 . S
N1169 C1172 1.279 . S
C1170 C1168 1.353 . S
C1170 C1173 1.348 . S
C1170 H1218 0.929 . S
C1171 C1172 1.358 . S
C1171 C1173 1.356 . S
C1171 H1219 0.930 . S
C1172 N1169 1.279 . S
C1172 C1171 1.358 . S
C1172 H1175 0.930 . S
C1173 C1170 1.348 . S
C1173 C1171 1.356 . S
H1174 C1168 0.930 . S
H1175 C1172 0.930 . S
C1176 C1178 1.348 . S
C1176 C1179 1.356 . S
C1176 O1206 1.325 . S
N1177 C1180 1.314 . S
N1177 C1181 1.279 . S
C1178 C1176 1.348 . S
C1178 C1180 1.353 . S
C1178 H1220 0.929 . S
C1179 C1176 1.356 . S
C1179 C1181 1.358 . S
C1179 H1221 0.930 . S
C1180 N1177 1.314 . S
C1180 C1178 1.353 . S
C1180 H1222 0.930 . S
C1181 N1177 1.279 . S
C1181 C1179 1.358 . S
C1181 H1223 0.930 . S
C1182 C1183 1.348 1_554 S
C1182 C1184 1.356 . S
C1182 O1207 1.325 . S
C1183 C1182 1.348 1_556 S
C1183 C1185 1.353 . S
C1183 H1224 0.929 . S
C1184 C1182 1.356 . S
C1184 C1186 1.358 1_554 S
C1184 H1225 0.930 . S
C1185 C1183 1.353 . S
C1185 N1187 1.314 . S
C1185 H1226 0.930 . S
C1186 C1184 1.358 1_556 S
C1186 N1187 1.279 . S
C1186 H1227 0.930 . S
N1187 C1185 1.314 . S
N1187 C1186 1.279 . S
C1188 C1190 1.353 . S
C1188 N1191 1.314 1_556 S
C1188 H1194 0.930 1_556 S
C1189 N1191 1.296 . S
C1189 C1192 1.318 1_554 S
C1189 H1195 0.958 . S
C1190 C1188 1.353 . S
C1190 C1193 1.348 . S
C1190 H1228 0.929 . S
N1191 Li1146 1.990 . S
N1191 C1188 1.314 1_554 S
N1191 C1189 1.296 . S
C1192 C1189 1.318 1_556 S
C1192 C1193 1.356 . S
C1192 H1229 0.930 . S
C1193 C1190 1.348 . S
C1193 C1192 1.356 . S
H1194 C1188 0.930 1_554 S
H1195 C1189 0.958 . S
C1196 N1197 1.314 . S
C1196 C1198 1.353 . S
C1196 H1202 0.930 . S
N1197 Li1147 1.990 . S
N1197 C1196 1.314 . S
N1197 C1200 1.279 . S
C1198 C1196 1.353 . S
C1198 C1201 1.348 . S
C1198 H1230 0.929 . S
C1199 C1200 1.358 . S
C1199 C1201 1.356 . S
C1199 H1231 0.930 . S
C1200 N1197 1.279 . S
C1200 C1199 1.358 . S
C1200 H1203 0.930 . S
C1201 C1198 1.348 . S
C1201 C1199 1.356 . S
H1202 C1196 0.930 . S
H1203 C1200 0.930 . S
O1204 Li1144 1.956 . S
O1204 Li1145 1.970 . S
O1204 Li1146 1.961 . S
O1204 C1148 1.325 . S
O1205 Li1144 1.970 . S
O1205 Li1145 1.956 . S
O1205 Li1147 1.961 . S
O1205 C1154 1.325 . S
O1206 Li1144 1.961 . S
O1206 Li1146 1.956 . S
O1206 Li1147 1.970 . S
O1206 C1176 1.325 . S
O1207 Li1145 1.961 . S
O1207 Li1146 1.970 . S
O1207 Li1147 1.956 . S
O1207 C1182 1.325 . S
H1208 C1150 0.929 . S
H1209 C1151 0.930 . S
H1210 C1152 0.930 . S
H1211 C1153 0.930 . S
H1212 C1155 0.930 . S
H1213 C1157 0.929 . S
H1214 C1158 0.930 . S
H1215 C1159 0.930 . S
H1216 C1162 0.930 . S
H1217 C1165 0.929 . S
H1218 C1170 0.929 . S
H1219 C1171 0.930 . S
H1220 C1178 0.929 . S
H1221 C1179 0.930 . S
H1222 C1180 0.930 . S
H1223 C1181 0.930 . S
H1224 C1183 0.929 . S
H1225 C1184 0.930 . S
H1226 C1185 0.930 . S
H1227 C1186 0.930 . S
H1228 C1190 0.929 . S
H1229 C1192 0.930 . S
H1230 C1198 0.929 . S
H1231 C1199 0.930 . S
Li1232 N1249 1.990 . S
Li1232 O1292 1.956 . S
Li1232 O1293 1.970 . S
Li1232 O1294 1.961 . S
Li1233 N1257 1.990 . S
Li1233 O1292 1.970 . S
Li1233 O1293 1.956 . S
Li1233 O1295 1.961 . S
Li1234 N1279 1.990 . S
Li1234 O1292 1.961 . S
Li1234 O1294 1.956 . S
Li1234 O1295 1.970 . S
Li1235 N1285 1.990 . S
Li1235 O1293 1.961 . S
Li1235 O1294 1.970 . S
Li1235 O1295 1.956 . S
C1236 C1238 1.348 . S
C1236 C1239 1.356 . S
C1236 O1292 1.325 . S
N1237 C1240 1.314 . S
N1237 C1241 1.279 . S
C1238 C1236 1.348 . S
C1238 C1240 1.353 . S
C1238 H1296 0.929 . S
C1239 C1236 1.356 . S
C1239 C1241 1.358 . S
C1239 H1297 0.930 . S
C1240 N1237 1.314 . S
C1240 C1238 1.353 . S
C1240 H1298 0.930 . S
C1241 N1237 1.279 . S
C1241 C1239 1.358 . S
C1241 H1299 0.930 . S
C1242 C1245 1.348 . S
C1242 C1246 1.356 . S
C1242 O1293 1.325 . S
C1243 N1244 1.279 . S
C1243 C1246 1.358 . S
C1243 H1300 0.930 . S
N1244 C1243 1.279 . S
N1244 C1247 1.314 . S
C1245 C1242 1.348 . S
C1245 C1247 1.353 . S
C1245 H1301 0.929 . S
C1246 C1242 1.356 . S
C1246 C1243 1.358 . S
C1246 H1302 0.930 . S
C1247 N1244 1.314 . S
C1247 C1245 1.353 . S
C1247 H1303 0.930 . S
C1248 N1249 1.314 . S
C1248 C1253 1.353 . S
C1248 H1254 0.930 . S
N1249 Li1232 1.990 . S
N1249 C1248 1.314 . S
N1249 C1251 1.279 . S
C1250 C1251 1.358 . S
C1250 C1252 1.356 . S
C1250 H1304 0.930 . S
C1251 N1249 1.279 . S
C1251 C1250 1.358 . S
C1251 H1255 0.930 . S
C1252 C1250 1.356 . S
C1252 C1253 1.348 . S
C1253 C1248 1.353 . S
C1253 C1252 1.348 . S
C1253 H1305 0.929 . S
H1254 C1248 0.930 . S
H1255 C1251 0.930 . S
C1256 N1257 1.314 . S
C1256 C1258 1.353 . S
C1256 H1262 0.930 . S
N1257 Li1233 1.990 . S
N1257 C1256 1.314 . S
N1257 C1260 1.279 . S
C1258 C1256 1.353 . S
C1258 C1261 1.348 . S
C1258 H1306 0.929 . S
C1259 C1260 1.358 . S
C1259 C1261 1.356 . S
C1259 H1307 0.930 . S
C1260 N1257 1.279 . S
C1260 C1259 1.358 . S
C1260 H1263 0.930 . S
C1261 C1258 1.348 . S
C1261 C1259 1.356 . S
H1262 C1256 0.930 . S
H1263 C1260 0.930 . S
C1264 C1266 1.348 . S
C1264 C1267 1.356 . S
C1264 O1294 1.325 . S
N1265 C1268 1.314 . S
N1265 C1269 1.279 . S
C1266 C1264 1.348 . S
C1266 C1268 1.353 . S
C1266 H1308 0.929 . S
C1267 C1264 1.356 . S
C1267 C1269 1.358 . S
C1267 H1309 0.930 . S
C1268 N1265 1.314 . S
C1268 C1266 1.353 . S
C1268 H1310 0.930 . S
C1269 N1265 1.279 . S
C1269 C1267 1.358 . S
C1269 H1311 0.930 . S
C1270 C1271 1.348 . S
C1270 C1272 1.356 . S
C1270 O1295 1.325 . S
C1271 C1270 1.348 . S
C1271 C1273 1.353 . S
C1271 H1312 0.929 . S
C1272 C1270 1.356 . S
C1272 C1274 1.358 . S
C1272 H1313 0.930 . S
C1273 C1271 1.353 . S
C1273 N1275 1.314 . S
C1273 H1314 0.930 . S
C1274 C1272 1.358 . S
C1274 N1275 1.279 . S
C1274 H1315 0.930 . S
N1275 C1273 1.314 . S
N1275 C1274 1.279 . S
C1276 C1278 1.353 . S
C1276 N1279 1.314 . S
C1276 H1282 0.930 . S
C1277 N1279 1.279 . S
C1277 C1280 1.358 . S
C1277 H1283 0.930 . S
C1278 C1276 1.353 . S
C1278 C1281 1.348 . S
C1278 H1316 0.929 . S
N1279 Li1234 1.990 . S
N1279 C1276 1.314 . S
N1279 C1277 1.279 . S
C1280 C1277 1.358 . S
C1280 C1281 1.356 . S
C1280 H1317 0.930 . S
C1281 C1278 1.348 . S
C1281 C1280 1.356 . S
H1282 C1276 0.930 . S
H1283 C1277 0.930 . S
C1284 N1285 1.314 . S
C1284 C1286 1.353 . S
C1284 H1290 0.930 . S
N1285 Li1235 1.990 . S
N1285 C1284 1.314 . S
N1285 C1288 1.279 . S
C1286 C1284 1.353 . S
C1286 C1289 1.348 . S
C1286 H1318 0.929 . S
C1287 C1288 1.358 . S
C1287 C1289 1.356 . S
C1287 H1319 0.930 . S
C1288 N1285 1.279 . S
C1288 C1287 1.358 . S
C1288 H1291 0.930 . S
C1289 C1286 1.348 . S
C1289 C1287 1.356 . S
H1290 C1284 0.930 . S
H1291 C1288 0.930 . S
O1292 Li1232 1.956 . S
O1292 Li1233 1.970 . S
O1292 Li1234 1.961 . S
O1292 C1236 1.325 . S
O1293 Li1232 1.970 . S
O1293 Li1233 1.956 . S
O1293 Li1235 1.961 . S
O1293 C1242 1.325 . S
O1294 Li1232 1.961 . S
O1294 Li1234 1.956 . S
O1294 Li1235 1.970 . S
O1294 C1264 1.325 . S
O1295 Li1233 1.961 . S
O1295 Li1234 1.970 . S
O1295 Li1235 1.956 . S
O1295 C1270 1.325 . S
H1296 C1238 0.929 . S
H1297 C1239 0.930 . S
H1298 C1240 0.930 . S
H1299 C1241 0.930 . S
H1300 C1243 0.930 . S
H1301 C1245 0.929 . S
H1302 C1246 0.930 . S
H1303 C1247 0.930 . S
H1304 C1250 0.930 . S
H1305 C1253 0.929 . S
H1306 C1258 0.929 . S
H1307 C1259 0.930 . S
H1308 C1266 0.929 . S
H1309 C1267 0.930 . S
H1310 C1268 0.930 . S
H1311 C1269 0.930 . S
H1312 C1271 0.929 . S
H1313 C1272 0.930 . S
H1314 C1273 0.930 . S
H1315 C1274 0.930 . S
H1316 C1278 0.929 . S
H1317 C1280 0.930 . S
H1318 C1286 0.929 . S
H1319 C1287 0.930 . S
Li1320 N1337 1.990 . S
Li1320 O1380 1.956 . S
Li1320 O1381 1.970 . S
Li1320 O1382 1.961 . S
Li1321 N1345 1.990 . S
Li1321 O1380 1.970 . S
Li1321 O1381 1.956 . S
Li1321 O1383 1.961 . S
Li1322 N1367 1.990 . S
Li1322 O1380 1.961 . S
Li1322 O1382 1.956 . S
Li1322 O1383 1.970 . S
Li1323 N1373 1.990 . S
Li1323 O1381 1.961 . S
Li1323 O1382 1.970 . S
Li1323 O1383 1.956 . S
C1324 C1326 1.348 . S
C1324 C1327 1.356 . S
C1324 O1380 1.325 . S
N1325 C1328 1.314 . S
N1325 C1329 1.279 . S
C1326 C1324 1.348 . S
C1326 C1328 1.353 . S
C1326 H1384 0.929 . S
C1327 C1324 1.356 . S
C1327 C1329 1.358 . S
C1327 H1385 0.930 . S
C1328 N1325 1.314 . S
C1328 C1326 1.353 . S
C1328 H1386 0.930 . S
C1329 N1325 1.279 . S
C1329 C1327 1.358 . S
C1329 H1387 0.930 . S
C1330 C1333 1.348 . S
C1330 C1334 1.356 . S
C1330 O1381 1.325 . S
C1331 N1332 1.279 . S
C1331 C1334 1.358 . S
C1331 H1388 0.930 . S
N1332 C1331 1.279 . S
N1332 C1335 1.314 . S
C1333 C1330 1.348 . S
C1333 C1335 1.353 . S
C1333 H1389 0.929 . S
C1334 C1330 1.356 . S
C1334 C1331 1.358 . S
C1334 H1390 0.930 . S
C1335 N1332 1.314 . S
C1335 C1333 1.353 . S
C1335 H1391 0.930 . S
C1336 N1337 1.314 . S
C1336 C1341 1.353 . S
C1336 H1342 0.930 . S
N1337 Li1320 1.990 . S
N1337 C1336 1.314 . S
N1337 C1339 1.279 . S
C1338 C1339 1.358 . S
C1338 C1340 1.356 . S
C1338 H1392 0.930 . S
C1339 N1337 1.279 . S
C1339 C1338 1.358 . S
C1339 H1343 0.930 . S
C1340 C1338 1.356 . S
C1340 C1341 1.348 . S
C1341 C1336 1.353 . S
C1341 C1340 1.348 . S
C1341 H1393 0.929 . S
H1342 C1336 0.930 . S
H1343 C1339 0.930 . S
C1344 N1345 1.314 . S
C1344 C1346 1.353 . S
C1344 H1350 0.930 . S
N1345 Li1321 1.990 . S
N1345 C1344 1.314 . S
N1345 C1348 1.279 . S
C1346 C1344 1.353 . S
C1346 C1349 1.348 . S
C1346 H1394 0.929 . S
C1347 C1348 1.358 . S
C1347 C1349 1.356 . S
C1347 H1395 0.930 . S
C1348 N1345 1.279 . S
C1348 C1347 1.358 . S
C1348 H1351 0.930 . S
C1349 C1346 1.348 . S
C1349 C1347 1.356 . S
H1350 C1344 0.930 . S
H1351 C1348 0.930 . S
C1352 C1354 1.348 . S
C1352 C1355 1.356 . S
C1352 O1382 1.325 . S
N1353 C1356 1.314 . S
N1353 C1357 1.279 . S
C1354 C1352 1.348 . S
C1354 C1356 1.353 . S
C1354 H1396 0.929 . S
C1355 C1352 1.356 . S
C1355 C1357 1.358 . S
C1355 H1397 0.930 . S
C1356 N1353 1.314 . S
C1356 C1354 1.353 . S
C1356 H1398 0.930 . S
C1357 N1353 1.279 . S
C1357 C1355 1.358 . S
C1357 H1399 0.930 . S
C1358 C1359 1.348 . S
C1358 C1360 1.356 . S
C1358 O1383 1.325 . S
C1359 C1358 1.348 . S
C1359 C1361 1.353 . S
C1359 H1400 0.929 . S
C1360 C1358 1.356 . S
C1360 C1362 1.358 . S
C1360 H1401 0.930 . S
C1361 C1359 1.353 . S
C1361 N1363 1.314 . S
C1361 H1402 0.930 . S
C1362 C1360 1.358 . S
C1362 N1363 1.279 . S
C1362 H1403 0.930 . S
N1363 C1361 1.314 . S
N1363 C1362 1.279 . S
C1364 C1366 1.353 . S
C1364 N1367 1.314 . S
C1364 H1370 0.930 . S
C1365 N1367 1.279 . S
C1365 C1368 1.358 . S
C1365 H1371 0.930 . S
C1366 C1364 1.353 . S
C1366 C1369 1.348 . S
C1366 H1404 0.929 . S
N1367 Li1322 1.990 . S
N1367 C1364 1.314 . S
N1367 C1365 1.279 . S
C1368 C1365 1.358 . S
C1368 C1369 1.356 . S
C1368 H1405 0.930 . S
C1369 C1366 1.348 . S
C1369 C1368 1.356 . S
H1370 C1364 0.930 . S
H1371 C1365 0.930 . S
C1372 N1373 1.314 . S
C1372 C1374 1.353 . S
C1372 H1378 0.930 . S
N1373 Li1323 1.990 . S
N1373 C1372 1.314 . S
N1373 C1376 1.279 . S
C1374 C1372 1.353 . S
C1374 C1377 1.348 . S
C1374 H1406 0.929 . S
C1375 C1376 1.358 . S
C1375 C1377 1.356 . S
C1375 H1407 0.930 . S
C1376 N1373 1.279 . S
C1376 C1375 1.358 . S
C1376 H1379 0.930 . S
C1377 C1374 1.348 . S
C1377 C1375 1.356 . S
H1378 C1372 0.930 . S
H1379 C1376 0.930 . S
O1380 Li1320 1.956 . S
O1380 Li1321 1.970 . S
O1380 Li1322 1.961 . S
O1380 C1324 1.325 . S
O1381 Li1320 1.970 . S
O1381 Li1321 1.956 . S
O1381 Li1323 1.961 . S
O1381 C1330 1.325 . S
O1382 Li1320 1.961 . S
O1382 Li1322 1.956 . S
O1382 Li1323 1.970 . S
O1382 C1352 1.325 . S
O1383 Li1321 1.961 . S
O1383 Li1322 1.970 . S
O1383 Li1323 1.956 . S
O1383 C1358 1.325 . S
H1384 C1326 0.929 . S
H1385 C1327 0.930 . S
H1386 C1328 0.930 . S
H1387 C1329 0.930 . S
H1388 C1331 0.930 . S
H1389 C1333 0.929 . S
H1390 C1334 0.930 . S
H1391 C1335 0.930 . S
H1392 C1338 0.930 . S
H1393 C1341 0.929 . S
H1394 C1346 0.929 . S
H1395 C1347 0.930 . S
H1396 C1354 0.929 . S
H1397 C1355 0.930 . S
H1398 C1356 0.930 . S
H1399 C1357 0.930 . S
H1400 C1359 0.929 . S
H1401 C1360 0.930 . S
H1402 C1361 0.930 . S
H1403 C1362 0.930 . S
H1404 C1366 0.929 . S
H1405 C1368 0.930 . S
H1406 C1374 0.929 . S
H1407 C1375 0.930 . S
Li1408 N1425 1.990 . S
Li1408 O1468 1.956 1_545 S
Li1408 O1469 1.970 . S
Li1408 O1470 1.961 . S
Li1409 N1433 1.990 . S
Li1409 O1468 1.970 . S
Li1409 O1469 1.956 1_565 S
Li1409 O1471 1.961 1_565 S
Li1410 N1455 1.990 . S
Li1410 O1468 1.961 1_545 S
Li1410 O1470 1.956 . S
Li1410 O1471 1.970 . S
Li1411 N1461 1.990 . S
Li1411 O1469 1.961 . S
Li1411 O1470 1.970 . S
Li1411 O1471 1.956 . S
C1412 C1414 1.348 . S
C1412 C1415 1.356 . S
C1412 O1468 1.325 . S
N1413 C1416 1.314 . S
N1413 C1417 1.279 . S
C1414 C1412 1.348 . S
C1414 C1416 1.353 . S
C1414 H1472 0.929 . S
C1415 C1412 1.356 . S
C1415 C1417 1.358 . S
C1415 H1473 0.930 . S
C1416 N1413 1.314 . S
C1416 C1414 1.353 . S
C1416 H1474 0.930 . S
C1417 N1413 1.279 . S
C1417 C1415 1.358 . S
C1417 H1475 0.930 1_655 S
C1418 C1421 1.348 . S
C1418 C1422 1.356 . S
C1418 O1469 1.325 . S
C1419 N1420 1.279 . S
C1419 C1422 1.358 . S
C1419 H1476 0.930 . S
N1420 C1419 1.279 . S
N1420 C1423 1.314 . S
C1421 C1418 1.348 . S
C1421 C1423 1.353 . S
C1421 H1477 0.929 . S
C1422 C1418 1.356 . S
C1422 C1419 1.358 . S
C1422 H1478 0.930 . S
C1423 N1420 1.314 . S
C1423 C1421 1.353 . S
C1423 H1479 0.930 . S
C1424 N1425 1.314 . S
C1424 C1429 1.353 . S
C1424 H1430 0.930 . S
N1425 Li1408 1.990 . S
N1425 C1424 1.314 . S
N1425 C1427 1.279 . S
C1426 C1427 1.358 . S
C1426 C1428 1.356 . S
C1426 H1480 0.930 1_545 S
C1427 N1425 1.279 . S
C1427 C1426 1.358 . S
C1427 H1431 0.930 1_545 S
C1428 C1426 1.356 . S
C1428 C1429 1.348 . S
C1429 C1424 1.353 . S
C1429 C1428 1.348 . S
C1429 H1481 0.929 . S
H1430 C1424 0.930 . S
H1431 C1427 0.930 1_565 S
C1432 N1433 1.314 . S
C1432 C1434 1.353 . S
C1432 H1438 0.930 . S
N1433 Li1409 1.990 . S
N1433 C1432 1.314 . S
N1433 C1436 1.279 . S
C1434 C1432 1.353 . S
C1434 C1437 1.348 . S
C1434 H1482 0.929 . S
C1435 C1436 1.358 . S
C1435 C1437 1.356 . S
C1435 H1483 0.930 . S
C1436 N1433 1.279 . S
C1436 C1435 1.358 . S
C1436 H1439 0.930 . S
C1437 C1434 1.348 . S
C1437 C1435 1.356 . S
H1438 C1432 0.930 . S
H1439 C1436 0.930 . S
C1440 C1442 1.348 . S
C1440 C1443 1.356 . S
C1440 O1470 1.325 . S
N1441 C1444 1.314 . S
N1441 C1445 1.279 . S
C1442 C1440 1.348 . S
C1442 C1444 1.353 . S
C1442 H1484 0.929 . S
C1443 C1440 1.356 . S
C1443 C1445 1.358 . S
C1443 H1485 0.930 . S
C1444 N1441 1.314 . S
C1444 C1442 1.353 . S
C1444 H1486 0.930 . S
C1445 N1441 1.279 . S
C1445 C1443 1.358 . S
C1445 H1487 0.930 1_655 S
C1446 C1447 1.348 . S
C1446 C1448 1.353 1_545 S
C1446 O1471 1.325 . S
C1447 C1446 1.348 . S
C1447 C1449 1.353 . S
C1447 H1488 0.929 . S
C1448 C1446 1.353 1_565 S
C1448 C1450 1.354 . S
C1448 H1489 0.939 . S
C1449 C1447 1.353 . S
C1449 N1451 1.314 . S
C1449 H1490 0.930 . S
C1450 C1448 1.354 . S
C1450 N1451 1.279 1_565 S
C1450 H1491 0.930 . S
N1451 C1449 1.314 . S
N1451 C1450 1.279 1_545 S
C1452 C1454 1.353 . S
C1452 N1455 1.314 1_565 S
C1452 H1458 0.930 . S
C1453 N1455 1.279 . S
C1453 C1456 1.358 . S
C1453 H1459 0.930 . S
C1454 C1452 1.353 . S
C1454 C1457 1.348 1_565 S
C1454 H1492 0.929 . S
N1455 Li1410 1.990 . S
N1455 C1452 1.314 1_545 S
N1455 C1453 1.279 . S
C1456 C1453 1.358 . S
C1456 C1457 1.356 . S
C1456 H1493 0.930 . S
C1457 C1454 1.348 1_545 S
C1457 C1456 1.356 . S
H1458 C1452 0.930 . S
H1459 C1453 0.930 . S
C1460 N1461 1.314 . S
C1460 C1462 1.353 . S
C1460 H1466 0.930 . S
N1461 Li1411 1.990 . S
N1461 C1460 1.314 . S
N1461 C1464 1.279 . S
C1462 C1460 1.353 . S
C1462 C1465 1.348 . S
C1462 H1494 0.929 . S
C1463 C1464 1.358 . S
C1463 C1465 1.356 . S
C1463 H1495 0.930 . S
C1464 N1461 1.279 . S
C1464 C1463 1.358 . S
C1464 H1467 0.930 . S
C1465 C1462 1.348 . S
C1465 C1463 1.356 . S
H1466 C1460 0.930 . S
H1467 C1464 0.930 . S
O1468 Li1408 1.956 1_565 S
O1468 Li1409 1.970 . S
O1468 Li1410 1.961 1_565 S
O1468 C1412 1.325 . S
O1469 Li1408 1.970 . S
O1469 Li1409 1.956 1_545 S
O1469 Li1411 1.961 . S
O1469 C1418 1.325 . S
O1470 Li1408 1.961 . S
O1470 Li1410 1.956 . S
O1470 Li1411 1.970 . S
O1470 C1440 1.325 . S
O1471 Li1409 1.961 1_545 S
O1471 Li1410 1.970 . S
O1471 Li1411 1.956 . S
O1471 C1446 1.325 . S
H1472 C1414 0.929 . S
H1473 C1415 0.930 . S
H1474 C1416 0.930 . S
H1475 C1417 0.930 1_455 S
H1476 C1419 0.930 . S
H1477 C1421 0.929 . S
H1478 C1422 0.930 . S
H1479 C1423 0.930 . S
H1480 C1426 0.930 1_565 S
H1481 C1429 0.929 . S
H1482 C1434 0.929 . S
H1483 C1435 0.930 . S
H1484 C1442 0.929 . S
H1485 C1443 0.930 . S
H1486 C1444 0.930 . S
H1487 C1445 0.930 1_455 S
H1488 C1447 0.929 . S
H1489 C1448 0.939 . S
H1490 C1449 0.930 . S
H1491 C1450 0.930 . S
H1492 C1454 0.929 . S
H1493 C1456 0.930 . S
H1494 C1462 0.929 . S
H1495 C1463 0.930 . S
Li1496 N1513 1.990 . S
Li1496 O1556 1.956 . S
Li1496 O1557 1.970 . S
Li1496 O1558 1.961 . S
Li1497 N1521 1.990 . S
Li1497 O1556 1.970 . S
Li1497 O1557 1.956 . S
Li1497 O1559 1.961 . S
Li1498 N1543 1.990 . S
Li1498 O1556 1.961 . S
Li1498 O1558 1.956 . S
Li1498 O1559 1.970 . S
Li1499 N1549 1.990 . S
Li1499 O1557 1.961 . S
Li1499 O1558 1.970 . S
Li1499 O1559 1.956 . S
C1500 C1502 1.348 . S
C1500 C1503 1.356 . S
C1500 O1556 1.325 . S
N1501 C1504 1.314 . S
N1501 C1505 1.279 . S
C1502 C1500 1.348 . S
C1502 C1504 1.353 . S
C1502 H1560 0.929 . S
C1503 C1500 1.356 . S
C1503 C1505 1.358 . S
C1503 H1561 0.930 . S
C1504 N1501 1.314 . S
C1504 C1502 1.353 . S
C1504 H1562 0.930 . S
C1505 N1501 1.279 . S
C1505 C1503 1.358 . S
C1505 H1563 0.930 . S
C1506 C1509 1.348 . S
C1506 C1510 1.356 . S
C1506 O1557 1.325 . S
C1507 N1508 1.279 . S
C1507 C1510 1.358 . S
C1507 H1564 0.930 . S
N1508 C1507 1.279 . S
N1508 C1511 1.314 . S
C1509 C1506 1.348 . S
C1509 C1511 1.353 . S
C1509 H1565 0.929 . S
C1510 C1506 1.356 . S
C1510 C1507 1.358 . S
C1510 H1566 0.930 . S
C1511 N1508 1.314 . S
C1511 C1509 1.353 . S
C1511 H1567 0.930 . S
C1512 N1513 1.314 . S
C1512 C1517 1.353 . S
C1512 H1518 0.930 . S
N1513 Li1496 1.990 . S
N1513 C1512 1.314 . S
N1513 C1515 1.279 . S
C1514 C1515 1.358 . S
C1514 C1516 1.356 . S
C1514 H1568 0.930 . S
C1515 N1513 1.279 . S
C1515 C1514 1.358 . S
C1515 H1519 0.930 . S
C1516 C1514 1.356 . S
C1516 C1517 1.348 . S
C1517 C1512 1.353 . S
C1517 C1516 1.348 . S
C1517 H1569 0.929 . S
H1518 C1512 0.930 . S
H1519 C1515 0.930 . S
C1520 N1521 1.314 . S
C1520 C1522 1.353 . S
C1520 H1526 0.930 . S
N1521 Li1497 1.990 . S
N1521 C1520 1.314 . S
N1521 C1524 1.279 . S
C1522 C1520 1.353 . S
C1522 C1525 1.348 . S
C1522 H1570 0.929 . S
C1523 C1524 1.358 . S
C1523 C1525 1.356 . S
C1523 H1571 0.930 . S
C1524 N1521 1.279 . S
C1524 C1523 1.358 . S
C1524 H1527 0.930 . S
C1525 C1522 1.348 . S
C1525 C1523 1.356 . S
H1526 C1520 0.930 . S
H1527 C1524 0.930 . S
C1528 C1530 1.348 . S
C1528 C1531 1.356 . S
C1528 O1558 1.325 . S
N1529 C1532 1.314 . S
N1529 C1533 1.279 . S
C1530 C1528 1.348 . S
C1530 C1532 1.353 . S
C1530 H1572 0.929 . S
C1531 C1528 1.356 . S
C1531 C1533 1.358 . S
C1531 H1573 0.930 . S
C1532 N1529 1.314 . S
C1532 C1530 1.353 . S
C1532 H1574 0.930 . S
C1533 N1529 1.279 . S
C1533 C1531 1.358 . S
C1533 H1575 0.930 . S
C1534 C1535 1.348 . S
C1534 C1536 1.356 . S
C1534 O1559 1.325 . S
C1535 C1534 1.348 . S
C1535 C1537 1.353 . S
C1535 H1576 0.929 . S
C1536 C1534 1.356 . S
C1536 C1538 1.358 . S
C1536 H1577 0.930 . S
C1537 C1535 1.353 . S
C1537 N1539 1.314 . S
C1537 H1578 0.930 . S
C1538 C1536 1.358 . S
C1538 N1539 1.279 . S
C1538 H1579 0.930 . S
N1539 C1537 1.314 . S
N1539 C1538 1.279 . S
C1540 C1542 1.353 . S
C1540 N1543 1.314 . S
C1540 H1546 0.930 . S
C1541 N1543 1.279 . S
C1541 C1544 1.358 . S
C1541 H1547 0.930 . S
C1542 C1540 1.353 . S
C1542 C1545 1.348 . S
C1542 H1580 0.929 . S
N1543 Li1498 1.990 . S
N1543 C1540 1.314 . S
N1543 C1541 1.279 . S
C1544 C1541 1.358 . S
C1544 C1545 1.356 . S
C1544 H1581 0.930 . S
C1545 C1542 1.348 . S
C1545 C1544 1.356 . S
H1546 C1540 0.930 . S
H1547 C1541 0.930 . S
C1548 N1549 1.314 . S
C1548 C1550 1.353 . S
C1548 H1554 0.930 . S
N1549 Li1499 1.990 . S
N1549 C1548 1.314 . S
N1549 C1552 1.279 . S
C1550 C1548 1.353 . S
C1550 C1553 1.348 . S
C1550 H1582 0.929 . S
C1551 C1552 1.358 . S
C1551 C1553 1.356 . S
C1551 H1583 0.930 . S
C1552 N1549 1.279 . S
C1552 C1551 1.358 . S
C1552 H1555 0.930 . S
C1553 C1550 1.348 . S
C1553 C1551 1.356 . S
H1554 C1548 0.930 . S
H1555 C1552 0.930 . S
O1556 Li1496 1.956 . S
O1556 Li1497 1.970 . S
O1556 Li1498 1.961 . S
O1556 C1500 1.325 . S
O1557 Li1496 1.970 . S
O1557 Li1497 1.956 . S
O1557 Li1499 1.961 . S
O1557 C1506 1.325 . S
O1558 Li1496 1.961 . S
O1558 Li1498 1.956 . S
O1558 Li1499 1.970 . S
O1558 C1528 1.325 . S
O1559 Li1497 1.961 . S
O1559 Li1498 1.970 . S
O1559 Li1499 1.956 . S
O1559 C1534 1.325 . S
H1560 C1502 0.929 . S
H1561 C1503 0.930 . S
H1562 C1504 0.930 . S
H1563 C1505 0.930 . S
H1564 C1507 0.930 . S
H1565 C1509 0.929 . S
H1566 C1510 0.930 . S
H1567 C1511 0.930 . S
H1568 C1514 0.930 . S
H1569 C1517 0.929 . S
H1570 C1522 0.929 . S
H1571 C1523 0.930 . S
H1572 C1530 0.929 . S
H1573 C1531 0.930 . S
H1574 C1532 0.930 . S
H1575 C1533 0.930 . S
H1576 C1535 0.929 . S
H1577 C1536 0.930 . S
H1578 C1537 0.930 . S
H1579 C1538 0.930 . S
H1580 C1542 0.929 . S
H1581 C1544 0.930 . S
H1582 C1550 0.929 . S
H1583 C1551 0.930 . S
Li1584 N1601 1.990 . S
Li1584 O1644 1.956 . S
Li1584 O1645 1.970 . S
Li1584 O1646 1.961 . S
Li1585 N1609 1.990 . S
Li1585 O1644 1.970 . S
Li1585 O1645 1.956 . S
Li1585 O1647 1.961 . S
Li1586 N1631 1.990 . S
Li1586 O1644 1.961 . S
Li1586 O1646 1.956 . S
Li1586 O1647 1.970 . S
Li1587 N1637 1.990 . S
Li1587 O1645 1.961 . S
Li1587 O1646 1.970 . S
Li1587 O1647 1.956 . S
C1588 C1590 1.348 . S
C1588 C1591 1.356 . S
C1588 O1644 1.325 . S
N1589 C1592 1.314 . S
N1589 C1593 1.279 . S
C1590 C1588 1.348 . S
C1590 C1592 1.353 . S
C1590 H1648 0.929 . S
C1591 C1588 1.356 . S
C1591 C1593 1.358 . S
C1591 H1649 0.930 . S
C1592 N1589 1.314 . S
C1592 C1590 1.353 . S
C1592 H1650 0.930 . S
C1593 N1589 1.279 . S
C1593 C1591 1.358 . S
C1593 H1651 0.930 . S
C1594 C1597 1.348 . S
C1594 C1598 1.356 . S
C1594 O1645 1.325 . S
C1595 N1596 1.279 . S
C1595 C1598 1.358 . S
C1595 H1652 0.930 . S
N1596 C1595 1.279 . S
N1596 C1599 1.314 . S
C1597 C1594 1.348 . S
C1597 C1599 1.353 . S
C1597 H1653 0.929 . S
C1598 C1594 1.356 . S
C1598 C1595 1.358 . S
C1598 H1654 0.930 . S
C1599 N1596 1.314 . S
C1599 C1597 1.353 . S
C1599 H1655 0.930 . S
C1600 N1601 1.314 . S
C1600 C1605 1.353 . S
C1600 H1606 0.930 . S
N1601 Li1584 1.990 . S
N1601 C1600 1.314 . S
N1601 C1603 1.279 . S
C1602 C1603 1.358 . S
C1602 C1604 1.356 . S
C1602 H1656 0.930 . S
C1603 N1601 1.279 . S
C1603 C1602 1.358 . S
C1603 H1607 0.930 . S
C1604 C1602 1.356 . S
C1604 C1605 1.348 . S
C1605 C1600 1.353 . S
C1605 C1604 1.348 . S
C1605 H1657 0.929 . S
H1606 C1600 0.930 . S
H1607 C1603 0.930 . S
C1608 N1609 1.314 . S
C1608 C1610 1.353 . S
C1608 H1614 0.930 . S
N1609 Li1585 1.990 . S
N1609 C1608 1.314 . S
N1609 C1612 1.279 . S
C1610 C1608 1.353 . S
C1610 C1613 1.348 . S
C1610 H1658 0.929 . S
C1611 C1612 1.358 . S
C1611 C1613 1.356 . S
C1611 H1659 0.930 . S
C1612 N1609 1.279 . S
C1612 C1611 1.358 . S
C1612 H1615 0.930 . S
C1613 C1610 1.348 . S
C1613 C1611 1.356 . S
H1614 C1608 0.930 . S
H1615 C1612 0.930 . S
C1616 C1618 1.348 . S
C1616 C1619 1.356 . S
C1616 O1646 1.325 . S
N1617 C1620 1.314 . S
N1617 C1621 1.279 . S
C1618 C1616 1.348 . S
C1618 C1620 1.353 . S
C1618 H1660 0.929 . S
C1619 C1616 1.356 . S
C1619 C1621 1.358 . S
C1619 H1661 0.930 . S
C1620 N1617 1.314 . S
C1620 C1618 1.353 . S
C1620 H1662 0.930 . S
C1621 N1617 1.279 . S
C1621 C1619 1.358 . S
C1621 H1663 0.930 . S
C1622 C1623 1.348 . S
C1622 C1624 1.356 . S
C1622 O1647 1.325 . S
C1623 C1622 1.348 . S
C1623 C1625 1.353 . S
C1623 H1664 0.929 . S
C1624 C1622 1.356 . S
C1624 C1626 1.358 . S
C1624 H1665 0.930 . S
C1625 C1623 1.353 . S
C1625 N1627 1.314 . S
C1625 H1666 0.930 . S
C1626 C1624 1.358 . S
C1626 N1627 1.279 . S
C1626 H1667 0.930 . S
N1627 C1625 1.314 . S
N1627 C1626 1.279 . S
C1628 C1630 1.353 . S
C1628 N1631 1.314 . S
C1628 H1634 0.930 . S
C1629 N1631 1.279 . S
C1629 C1632 1.358 . S
C1629 H1635 0.930 . S
C1630 C1628 1.353 . S
C1630 C1633 1.348 . S
C1630 H1668 0.929 . S
N1631 Li1586 1.990 . S
N1631 C1628 1.314 . S
N1631 C1629 1.279 . S
C1632 C1629 1.358 . S
C1632 C1633 1.356 . S
C1632 H1669 0.930 . S
C1633 C1630 1.348 . S
C1633 C1632 1.356 . S
H1634 C1628 0.930 . S
H1635 C1629 0.930 . S
C1636 N1637 1.314 . S
C1636 C1638 1.353 . S
C1636 H1642 0.930 . S
N1637 Li1587 1.990 . S
N1637 C1636 1.314 . S
N1637 C1640 1.279 . S
C1638 C1636 1.353 . S
C1638 C1641 1.348 . S
C1638 H1670 0.929 . S
C1639 C1640 1.358 . S
C1639 C1641 1.356 . S
C1639 H1671 0.930 . S
C1640 N1637 1.279 . S
C1640 C1639 1.358 . S
C1640 H1643 0.930 . S
C1641 C1638 1.348 . S
C1641 C1639 1.356 . S
H1642 C1636 0.930 . S
H1643 C1640 0.930 . S
O1644 Li1584 1.956 . S
O1644 Li1585 1.970 . S
O1644 Li1586 1.961 . S
O1644 C1588 1.325 . S
O1645 Li1584 1.970 . S
O1645 Li1585 1.956 . S
O1645 Li1587 1.961 . S
O1645 C1594 1.325 . S
O1646 Li1584 1.961 . S
O1646 Li1586 1.956 . S
O1646 Li1587 1.970 . S
O1646 C1616 1.325 . S
O1647 Li1585 1.961 . S
O1647 Li1586 1.970 . S
O1647 Li1587 1.956 . S
O1647 C1622 1.325 . S
H1648 C1590 0.929 . S
H1649 C1591 0.930 . S
H1650 C1592 0.930 . S
H1651 C1593 0.930 . S
H1652 C1595 0.930 . S
H1653 C1597 0.929 . S
H1654 C1598 0.930 . S
H1655 C1599 0.930 . S
H1656 C1602 0.930 . S
H1657 C1605 0.929 . S
H1658 C1610 0.929 . S
H1659 C1611 0.930 . S
H1660 C1618 0.929 . S
H1661 C1619 0.930 . S
H1662 C1620 0.930 . S
H1663 C1621 0.930 . S
H1664 C1623 0.929 . S
H1665 C1624 0.930 . S
H1666 C1625 0.930 . S
H1667 C1626 0.930 . S
H1668 C1630 0.929 . S
H1669 C1632 0.930 . S
H1670 C1638 0.929 . S
H1671 C1639 0.930 . S
Li1672 N1689 1.990 . S
Li1672 O1732 1.956 . S
Li1672 O1733 1.970 . S
Li1672 O1734 1.961 . S
Li1673 N1697 1.990 . S
Li1673 O1732 1.970 . S
Li1673 O1733 1.956 . S
Li1673 O1735 1.961 . S
Li1674 N1719 1.990 . S
Li1674 O1732 1.961 . S
Li1674 O1734 1.956 . S
Li1674 O1735 1.970 . S
Li1675 N1725 1.990 . S
Li1675 O1733 1.961 . S
Li1675 O1734 1.970 . S
Li1675 O1735 1.956 . S
C1676 C1678 1.348 . S
C1676 C1679 1.356 . S
C1676 O1732 1.325 . S
N1677 C1680 1.314 . S
N1677 C1681 1.279 . S
C1678 C1676 1.348 . S
C1678 C1680 1.353 . S
C1678 H1736 0.929 . S
C1679 C1676 1.356 . S
C1679 C1681 1.358 . S
C1679 H1737 0.930 . S
C1680 N1677 1.314 . S
C1680 C1678 1.353 . S
C1680 H1738 0.930 . S
C1681 N1677 1.279 . S
C1681 C1679 1.358 . S
C1681 H1739 0.930 . S
C1682 C1685 1.348 . S
C1682 C1686 1.356 . S
C1682 O1733 1.325 . S
C1683 N1684 1.279 . S
C1683 C1686 1.358 . S
C1683 H1740 0.930 . S
N1684 C1683 1.279 . S
N1684 C1687 1.314 . S
C1685 C1682 1.348 . S
C1685 C1687 1.353 . S
C1685 H1741 0.929 . S
C1686 C1682 1.356 . S
C1686 C1683 1.358 . S
C1686 H1742 0.930 . S
C1687 N1684 1.314 . S
C1687 C1685 1.353 . S
C1687 H1743 0.930 . S
C1688 N1689 1.314 . S
C1688 C1693 1.353 . S
C1688 H1694 0.930 . S
N1689 Li1672 1.990 . S
N1689 C1688 1.314 . S
N1689 C1691 1.279 . S
C1690 C1691 1.358 . S
C1690 C1692 1.356 . S
C1690 H1744 0.930 . S
C1691 N1689 1.279 . S
C1691 C1690 1.358 . S
C1691 H1695 0.930 . S
C1692 C1690 1.356 . S
C1692 C1693 1.348 . S
C1693 C1688 1.353 . S
C1693 C1692 1.348 . S
C1693 H1745 0.929 . S
H1694 C1688 0.930 . S
H1695 C1691 0.930 . S
C1696 N1697 1.314 . S
C1696 C1698 1.353 . S
C1696 H1702 0.930 . S
N1697 Li1673 1.990 . S
N1697 C1696 1.314 . S
N1697 C1700 1.279 . S
C1698 C1696 1.353 . S
C1698 C1701 1.348 . S
C1698 H1746 0.929 . S
C1699 C1700 1.358 . S
C1699 C1701 1.356 . S
C1699 H1747 0.930 . S
C1700 N1697 1.279 . S
C1700 C1699 1.358 . S
C1700 H1703 0.930 . S
C1701 C1698 1.348 . S
C1701 C1699 1.356 . S
H1702 C1696 0.930 . S
H1703 C1700 0.930 . S
C1704 C1706 1.348 1_545 S
C1704 C1707 1.356 . S
C1704 O1734 1.325 . S
N1705 C1708 1.314 . S
N1705 C1709 1.279 . S
C1706 C1704 1.348 1_565 S
C1706 C1708 1.353 . S
C1706 H1748 0.929 . S
C1707 C1704 1.356 . S
C1707 C1709 1.358 1_545 S
C1707 H1749 0.930 . S
C1708 N1705 1.314 . S
C1708 C1706 1.353 . S
C1708 H1750 0.930 . S
C1709 N1705 1.279 . S
C1709 C1707 1.358 1_565 S
C1709 H1751 0.930 . S
C1710 C1711 1.348 . S
C1710 C1712 1.356 . S
C1710 O1735 1.325 . S
C1711 C1710 1.348 . S
C1711 C1713 1.353 . S
C1711 H1752 0.929 . S
C1712 C1710 1.356 . S
C1712 C1714 1.358 . S
C1712 H1753 0.930 . S
C1713 C1711 1.353 . S
C1713 N1715 1.314 . S
C1713 H1754 0.930 . S
C1714 C1712 1.358 . S
C1714 N1715 1.279 . S
C1714 H1755 0.930 . S
N1715 C1713 1.314 . S
N1715 C1714 1.279 . S
C1716 C1718 1.353 . S
C1716 N1719 1.314 . S
C1716 H1722 0.930 . S
C1717 N1719 1.279 . S
C1717 C1720 1.358 . S
C1717 H1723 0.930 . S
C1718 C1716 1.353 . S
C1718 C1721 1.348 . S
C1718 H1756 0.929 . S
N1719 Li1674 1.990 . S
N1719 C1716 1.314 . S
N1719 C1717 1.279 . S
C1720 C1717 1.358 . S
C1720 C1721 1.356 . S
C1720 H1757 0.930 . S
C1721 C1718 1.348 . S
C1721 C1720 1.356 . S
H1722 C1716 0.930 . S
H1723 C1717 0.930 . S
C1724 N1725 1.314 1_565 S
C1724 C1726 1.353 . S
C1724 H1730 0.930 1_565 S
N1725 Li1675 1.990 . S
N1725 C1724 1.314 1_545 S
N1725 C1728 1.279 . S
C1726 C1724 1.353 . S
C1726 C1729 1.348 . S
C1726 H1758 0.929 . S
C1727 C1728 1.358 1_565 S
C1727 C1729 1.356 . S
C1727 H1759 0.930 . S
C1728 N1725 1.279 . S
C1728 C1727 1.358 1_545 S
C1728 H1731 0.930 . S
C1729 C1726 1.348 . S
C1729 C1727 1.356 . S
H1730 C1724 0.930 1_545 S
H1731 C1728 0.930 . S
O1732 Li1672 1.956 . S
O1732 Li1673 1.970 . S
O1732 Li1674 1.961 . S
O1732 C1676 1.325 . S
O1733 Li1672 1.970 . S
O1733 Li1673 1.956 . S
O1733 Li1675 1.961 . S
O1733 C1682 1.325 . S
O1734 Li1672 1.961 . S
O1734 Li1674 1.956 . S
O1734 Li1675 1.970 . S
O1734 C1704 1.325 . S
O1735 Li1673 1.961 . S
O1735 Li1674 1.970 . S
O1735 Li1675 1.956 . S
O1735 C1710 1.325 . S
H1736 C1678 0.929 . S
H1737 C1679 0.930 . S
H1738 C1680 0.930 . S
H1739 C1681 0.930 . S
H1740 C1683 0.930 . S
H1741 C1685 0.929 . S
H1742 C1686 0.930 . S
H1743 C1687 0.930 . S
H1744 C1690 0.930 . S
H1745 C1693 0.929 . S
H1746 C1698 0.929 . S
H1747 C1699 0.930 . S
H1748 C1706 0.929 . S
H1749 C1707 0.930 . S
H1750 C1708 0.930 . S
H1751 C1709 0.930 . S
H1752 C1711 0.929 . S
H1753 C1712 0.930 . S
H1754 C1713 0.930 . S
H1755 C1714 0.930 . S
H1756 C1718 0.929 . S
H1757 C1720 0.930 . S
H1758 C1726 0.929 . S
H1759 C1727 0.930 . S
Li1760 N1777 1.990 . S
Li1760 O1820 1.956 . S
Li1760 O1821 1.970 . S
Li1760 O1822 1.961 . S
Li1761 N1785 1.990 . S
Li1761 O1820 1.970 . S
Li1761 O1821 1.956 . S
Li1761 O1823 1.961 1_554 S
Li1762 N1807 1.990 . S
Li1762 O1820 1.961 1_556 S
Li1762 O1822 1.956 1_556 S
Li1762 O1823 1.970 . S
Li1763 N1813 1.990 . S
Li1763 O1821 1.961 . S
Li1763 O1822 1.970 . S
Li1763 O1823 1.956 1_554 S
C1764 C1766 1.348 . S
C1764 C1767 1.356 . S
C1764 O1820 1.325 . S
N1765 C1768 1.314 . S
N1765 C1769 1.279 . S
C1766 C1764 1.348 . S
C1766 C1768 1.353 . S
C1766 H1824 0.929 . S
C1767 C1764 1.356 . S
C1767 C1769 1.358 . S
C1767 H1825 0.930 . S
C1768 N1765 1.314 . S
C1768 C1766 1.353 . S
C1768 H1826 0.930 . S
C1769 N1765 1.279 . S
C1769 C1767 1.358 . S
C1769 H1827 0.930 . S
C1770 C1773 1.348 . S
C1770 C1774 1.356 . S
C1770 O1821 1.325 . S
C1771 N1772 1.279 . S
C1771 C1774 1.358 . S
C1771 H1828 0.930 . S
N1772 C1771 1.279 . S
N1772 C1775 1.314 . S
C1773 C1770 1.348 . S
C1773 C1775 1.353 . S
C1773 H1829 0.929 . S
C1774 C1770 1.356 . S
C1774 C1771 1.358 . S
C1774 H1830 0.930 . S
C1775 N1772 1.314 . S
C1775 C1773 1.353 . S
C1775 H1831 0.930 . S
C1776 N1777 1.314 . S
C1776 C1781 1.353 . S
C1776 H1782 0.930 . S
N1777 Li1760 1.990 . S
N1777 C1776 1.314 . S
N1777 C1779 1.279 . S
C1778 C1779 1.358 . S
C1778 C1780 1.356 . S
C1778 H1832 0.930 . S
C1779 N1777 1.279 . S
C1779 C1778 1.358 . S
C1779 H1783 0.930 . S
C1780 C1778 1.356 . S
C1780 C1781 1.348 . S
C1781 C1776 1.353 . S
C1781 C1780 1.348 . S
C1781 H1833 0.929 . S
H1782 C1776 0.930 . S
H1783 C1779 0.930 . S
C1784 N1785 1.314 1_556 S
C1784 C1786 1.353 . S
C1784 H1790 0.930 . S
N1785 Li1761 1.990 . S
N1785 C1784 1.314 1_554 S
N1785 C1788 1.279 . S
C1786 C1784 1.353 . S
C1786 C1789 1.348 1_556 S
C1786 H1834 0.929 . S
C1787 C1788 1.358 . S
C1787 C1789 1.356 . S
C1787 H1835 0.930 . S
C1788 N1785 1.279 . S
C1788 C1787 1.358 . S
C1788 H1791 0.930 . S
C1789 C1786 1.348 1_554 S
C1789 C1787 1.356 . S
H1790 C1784 0.930 . S
H1791 C1788 0.930 . S
C1792 C1794 1.348 . S
C1792 C1795 1.356 . S
C1792 O1822 1.325 . S
N1793 C1796 1.314 . S
N1793 C1797 1.279 . S
C1794 C1792 1.348 . S
C1794 C1796 1.353 . S
C1794 H1836 0.927 1_554 S
C1795 C1792 1.356 . S
C1795 C1797 1.358 . S
C1795 H1837 0.930 . S
C1796 N1793 1.314 . S
C1796 C1794 1.353 . S
C1796 H1838 0.932 . S
C1797 N1793 1.279 . S
C1797 C1795 1.358 . S
C1797 H1839 0.930 . S
C1798 C1799 1.348 . S
C1798 C1800 1.356 . S
C1798 O1823 1.325 . S
C1799 C1798 1.348 . S
C1799 C1801 1.353 . S
C1799 H1840 0.929 . S
C1800 C1798 1.356 . S
C1800 C1802 1.358 . S
C1800 H1841 0.930 . S
C1801 C1799 1.353 . S
C1801 N1803 1.314 . S
C1801 H1842 0.930 . S
C1802 C1800 1.358 . S
C1802 N1803 1.279 . S
C1802 H1843 0.930 . S
N1803 C1801 1.314 . S
N1803 C1802 1.279 . S
C1804 C1806 1.353 . S
C1804 N1807 1.314 . S
C1804 H1810 0.930 . S
C1805 N1807 1.279 . S
C1805 C1808 1.358 . S
C1805 H1811 0.930 . S
C1806 C1804 1.353 . S
C1806 C1809 1.348 . S
C1806 H1844 0.929 . S
N1807 Li1762 1.990 . S
N1807 C1804 1.314 . S
N1807 C1805 1.279 . S
C1808 C1805 1.358 . S
C1808 C1809 1.356 . S
C1808 H1845 0.930 . S
C1809 C1806 1.348 . S
C1809 C1808 1.356 . S
H1810 C1804 0.930 . S
H1811 C1805 0.930 . S
C1812 N1813 1.314 . S
C1812 C1814 1.353 . S
C1812 H1818 0.930 . S
N1813 Li1763 1.990 . S
N1813 C1812 1.314 . S
N1813 C1816 1.279 1_554 S
C1814 C1812 1.353 . S
C1814 C1817 1.348 . S
C1814 H1846 0.929 . S
C1815 C1816 1.358 . S
C1815 C1817 1.356 1_556 S
C1815 H1847 0.930 . S
C1816 N1813 1.279 1_556 S
C1816 C1815 1.358 . S
C1816 H1819 0.930 . S
C1817 C1814 1.348 . S
C1817 C1815 1.356 1_554 S
H1818 C1812 0.930 . S
H1819 C1816 0.930 . S
O1820 Li1760 1.956 . S
O1820 Li1761 1.970 . S
O1820 Li1762 1.961 1_554 S
O1820 C1764 1.325 . S
O1821 Li1760 1.970 . S
O1821 Li1761 1.956 . S
O1821 Li1763 1.961 . S
O1821 C1770 1.325 . S
O1822 Li1760 1.961 . S
O1822 Li1762 1.956 1_554 S
O1822 Li1763 1.970 . S
O1822 C1792 1.325 . S
O1823 Li1761 1.961 1_556 S
O1823 Li1762 1.970 . S
O1823 Li1763 1.956 1_556 S
O1823 C1798 1.325 . S
H1824 C1766 0.929 . S
H1825 C1767 0.930 . S
H1826 C1768 0.930 . S
H1827 C1769 0.930 . S
H1828 C1771 0.930 . S
H1829 C1773 0.929 . S
H1830 C1774 0.930 . S
H1831 C1775 0.930 . S
H1832 C1778 0.930 . S
H1833 C1781 0.929 . S
H1834 C1786 0.929 . S
H1835 C1787 0.930 . S
H1836 C1794 0.927 1_556 S
H1837 C1795 0.930 . S
H1838 C1796 0.932 . S
H1839 C1797 0.930 . S
H1840 C1799 0.929 . S
H1841 C1800 0.930 . S
H1842 C1801 0.930 . S
H1843 C1802 0.930 . S
H1844 C1806 0.929 . S
H1845 C1808 0.930 . S
H1846 C1814 0.929 . S
H1847 C1815 0.930 . S
Li1848 N1865 1.990 . S
Li1848 O1908 1.956 . S
Li1848 O1909 1.970 . S
Li1848 O1910 1.961 . S
Li1849 N1873 1.990 . S
Li1849 O1908 1.970 . S
Li1849 O1909 1.956 . S
Li1849 O1911 1.961 . S
Li1850 N1895 1.990 . S
Li1850 O1908 1.961 . S
Li1850 O1910 1.956 . S
Li1850 O1911 1.970 . S
Li1851 N1901 1.990 . S
Li1851 O1909 1.961 . S
Li1851 O1910 1.970 . S
Li1851 O1911 1.956 . S
C1852 C1854 1.348 . S
C1852 C1855 1.356 . S
C1852 O1908 1.325 . S
N1853 C1856 1.314 . S
N1853 C1857 1.279 . S
C1854 C1852 1.348 . S
C1854 C1856 1.353 . S
C1854 H1912 0.929 . S
C1855 C1852 1.356 . S
C1855 C1857 1.358 . S
C1855 H1913 0.930 . S
C1856 N1853 1.314 . S
C1856 C1854 1.353 . S
C1856 H1914 0.930 . S
C1857 N1853 1.279 . S
C1857 C1855 1.358 . S
C1857 H1915 0.930 . S
C1858 C1861 1.348 . S
C1858 C1862 1.356 . S
C1858 O1909 1.325 . S
C1859 N1860 1.279 . S
C1859 C1862 1.358 . S
C1859 H1916 0.930 . S
N1860 C1859 1.279 . S
N1860 C1863 1.314 . S
C1861 C1858 1.348 . S
C1861 C1863 1.353 . S
C1861 H1917 0.929 . S
C1862 C1858 1.356 . S
C1862 C1859 1.358 . S
C1862 H1918 0.930 . S
C1863 N1860 1.314 . S
C1863 C1861 1.353 . S
C1863 H1919 0.930 . S
C1864 N1865 1.314 . S
C1864 C1869 1.353 . S
C1864 H1870 0.930 . S
N1865 Li1848 1.990 . S
N1865 C1864 1.314 . S
N1865 C1867 1.279 . S
C1866 C1867 1.358 . S
C1866 C1868 1.356 . S
C1866 H1920 0.930 . S
C1867 N1865 1.279 . S
C1867 C1866 1.358 . S
C1867 H1871 0.930 . S
C1868 C1866 1.356 . S
C1868 C1869 1.348 . S
C1869 C1864 1.353 . S
C1869 C1868 1.348 . S
C1869 H1921 0.929 . S
H1870 C1864 0.930 . S
H1871 C1867 0.930 . S
C1872 N1873 1.314 . S
C1872 C1874 1.353 . S
C1872 H1878 0.930 . S
N1873 Li1849 1.990 . S
N1873 C1872 1.314 . S
N1873 C1876 1.279 . S
C1874 C1872 1.353 . S
C1874 C1877 1.348 . S
C1874 H1922 0.929 . S
C1875 C1876 1.358 . S
C1875 C1877 1.356 . S
C1875 H1923 0.930 . S
C1876 N1873 1.279 . S
C1876 C1875 1.358 . S
C1876 H1879 0.930 . S
C1877 C1874 1.348 . S
C1877 C1875 1.356 . S
H1878 C1872 0.930 . S
H1879 C1876 0.930 . S
C1880 C1882 1.348 . S
C1880 C1883 1.356 . S
C1880 O1910 1.325 . S
N1881 C1884 1.314 . S
N1881 C1885 1.279 . S
C1882 C1880 1.348 . S
C1882 C1884 1.353 . S
C1882 H1924 0.929 . S
C1883 C1880 1.356 . S
C1883 C1885 1.358 . S
C1883 H1925 0.930 . S
C1884 N1881 1.314 . S
C1884 C1882 1.353 . S
C1884 H1926 0.930 . S
C1885 N1881 1.279 . S
C1885 C1883 1.358 . S
C1885 H1927 0.930 . S
C1886 C1887 1.348 . S
C1886 C1888 1.356 . S
C1886 O1911 1.325 . S
C1887 C1886 1.348 . S
C1887 C1889 1.353 . S
C1887 H1928 0.929 . S
C1888 C1886 1.356 . S
C1888 C1890 1.358 . S
C1888 H1929 0.930 . S
C1889 C1887 1.353 . S
C1889 N1891 1.314 . S
C1889 H1930 0.930 . S
C1890 C1888 1.358 . S
C1890 N1891 1.279 . S
C1890 H1931 0.930 . S
N1891 C1889 1.314 . S
N1891 C1890 1.279 . S
C1892 C1894 1.353 . S
C1892 N1895 1.314 . S
C1892 H1898 0.930 . S
C1893 N1895 1.279 . S
C1893 C1896 1.358 . S
C1893 H1899 0.930 . S
C1894 C1892 1.353 . S
C1894 C1897 1.348 . S
C1894 H1932 0.929 . S
N1895 Li1850 1.990 . S
N1895 C1892 1.314 . S
N1895 C1893 1.279 . S
C1896 C1893 1.358 . S
C1896 C1897 1.356 . S
C1896 H1933 0.930 . S
C1897 C1894 1.348 . S
C1897 C1896 1.356 . S
H1898 C1892 0.930 . S
H1899 C1893 0.930 . S
C1900 N1901 1.314 . S
C1900 C1902 1.353 . S
C1900 H1906 0.930 . S
N1901 Li1851 1.990 . S
N1901 C1900 1.314 . S
N1901 C1904 1.279 . S
C1902 C1900 1.353 . S
C1902 C1905 1.348 . S
C1902 H1934 0.929 . S
C1903 C1904 1.358 . S
C1903 C1905 1.356 . S
C1903 H1935 0.930 . S
C1904 N1901 1.279 . S
C1904 C1903 1.358 . S
C1904 H1907 0.930 . S
C1905 C1902 1.348 . S
C1905 C1903 1.356 . S
H1906 C1900 0.930 . S
H1907 C1904 0.930 . S
O1908 Li1848 1.956 . S
O1908 Li1849 1.970 . S
O1908 Li1850 1.961 . S
O1908 C1852 1.325 . S
O1909 Li1848 1.970 . S
O1909 Li1849 1.956 . S
O1909 Li1851 1.961 . S
O1909 C1858 1.325 . S
O1910 Li1848 1.961 . S
O1910 Li1850 1.956 . S
O1910 Li1851 1.970 . S
O1910 C1880 1.325 . S
O1911 Li1849 1.961 . S
O1911 Li1850 1.970 . S
O1911 Li1851 1.956 . S
O1911 C1886 1.325 . S
H1912 C1854 0.929 . S
H1913 C1855 0.930 . S
H1914 C1856 0.930 . S
H1915 C1857 0.930 . S
H1916 C1859 0.930 . S
H1917 C1861 0.929 . S
H1918 C1862 0.930 . S
H1919 C1863 0.930 . S
H1920 C1866 0.930 . S
H1921 C1869 0.929 . S
H1922 C1874 0.929 . S
H1923 C1875 0.930 . S
H1924 C1882 0.929 . S
H1925 C1883 0.930 . S
H1926 C1884 0.930 . S
H1927 C1885 0.930 . S
H1928 C1887 0.929 . S
H1929 C1888 0.930 . S
H1930 C1889 0.930 . S
H1931 C1890 0.930 . S
H1932 C1894 0.929 . S
H1933 C1896 0.930 . S
H1934 C1902 0.929 . S
H1935 C1903 0.930 . S
Li1936 N1953 1.990 . S
Li1936 O1996 1.956 . S
Li1936 O1997 1.970 . S
Li1936 O1998 1.961 . S
Li1937 N1961 1.990 . S
Li1937 O1996 1.970 . S
Li1937 O1997 1.956 . S
Li1937 O1999 1.961 . S
Li1938 N1983 1.990 . S
Li1938 O1996 1.961 . S
Li1938 O1998 1.956 . S
Li1938 O1999 1.970 . S
Li1939 N1989 1.990 . S
Li1939 O1997 1.961 . S
Li1939 O1998 1.970 . S
Li1939 O1999 1.956 . S
C1940 C1942 1.348 . S
C1940 C1943 1.356 . S
C1940 O1996 1.325 . S
N1941 C1944 1.314 . S
N1941 C1945 1.279 . S
C1942 C1940 1.348 . S
C1942 C1944 1.353 . S
C1942 H2000 0.929 . S
C1943 C1940 1.356 . S
C1943 C1945 1.358 . S
C1943 H2001 0.930 . S
C1944 N1941 1.314 . S
C1944 C1942 1.353 . S
C1944 H2002 0.930 . S
C1945 N1941 1.279 . S
C1945 C1943 1.358 . S
C1945 H2003 0.930 . S
C1946 C1949 1.348 . S
C1946 C1950 1.356 . S
C1946 O1997 1.325 . S
C1947 N1948 1.279 . S
C1947 C1950 1.358 . S
C1947 H2004 0.930 . S
N1948 C1947 1.279 . S
N1948 C1951 1.314 . S
C1949 C1946 1.348 . S
C1949 C1951 1.353 . S
C1949 H2005 0.929 . S
C1950 C1946 1.356 . S
C1950 C1947 1.358 . S
C1950 H2006 0.930 . S
C1951 N1948 1.314 . S
C1951 C1949 1.353 . S
C1951 H2007 0.930 . S
C1952 N1953 1.314 . S
C1952 C1957 1.353 . S
C1952 H1958 0.930 . S
N1953 Li1936 1.990 . S
N1953 C1952 1.314 . S
N1953 C1955 1.279 . S
C1954 C1955 1.358 . S
C1954 C1956 1.356 . S
C1954 H2008 0.930 . S
C1955 N1953 1.279 . S
C1955 C1954 1.358 . S
C1955 H1959 0.930 . S
C1956 C1954 1.356 . S
C1956 C1957 1.348 . S
C1957 C1952 1.353 . S
C1957 C1956 1.348 . S
C1957 H2009 0.929 . S
H1958 C1952 0.930 . S
H1959 C1955 0.930 . S
C1960 N1961 1.314 . S
C1960 C1962 1.353 . S
C1960 H1966 0.930 . S
N1961 Li1937 1.990 . S
N1961 C1960 1.314 . S
N1961 C1964 1.279 . S
C1962 C1960 1.353 . S
C1962 C1965 1.348 . S
C1962 H2010 0.929 . S
C1963 C1964 1.358 . S
C1963 C1965 1.356 . S
C1963 H2011 0.930 . S
C1964 N1961 1.279 . S
C1964 C1963 1.358 . S
C1964 H1967 0.930 . S
C1965 C1962 1.348 . S
C1965 C1963 1.356 . S
H1966 C1960 0.930 . S
H1967 C1964 0.930 . S
C1968 C1970 1.348 . S
C1968 C1971 1.356 . S
C1968 O1998 1.325 . S
N1969 C1972 1.314 . S
N1969 C1973 1.279 . S
C1970 C1968 1.348 . S
C1970 C1972 1.353 . S
C1970 H2012 0.929 . S
C1971 C1968 1.356 . S
C1971 C1973 1.358 . S
C1971 H2013 0.930 . S
C1972 N1969 1.314 . S
C1972 C1970 1.353 . S
C1972 H2014 0.930 . S
C1973 N1969 1.279 . S
C1973 C1971 1.358 . S
C1973 H2015 0.930 . S
C1974 C1975 1.348 . S
C1974 C1976 1.356 . S
C1974 O1999 1.325 . S
C1975 C1974 1.348 . S
C1975 C1977 1.353 . S
C1975 H2016 0.929 . S
C1976 C1974 1.356 . S
C1976 C1978 1.358 . S
C1976 H2017 0.930 . S
C1977 C1975 1.353 . S
C1977 N1979 1.314 . S
C1977 H2018 0.930 . S
C1978 C1976 1.358 . S
C1978 N1979 1.279 . S
C1978 H2019 0.930 . S
N1979 C1977 1.314 . S
N1979 C1978 1.279 . S
C1980 C1982 1.353 . S
C1980 N1983 1.314 . S
C1980 H1986 0.930 . S
C1981 N1983 1.279 . S
C1981 C1984 1.358 . S
C1981 H1987 0.930 . S
C1982 C1980 1.353 . S
C1982 C1985 1.348 . S
C1982 H2020 0.929 . S
N1983 Li1938 1.990 . S
N1983 C1980 1.314 . S
N1983 C1981 1.279 . S
C1984 C1981 1.358 . S
C1984 C1985 1.356 . S
C1984 H2021 0.930 . S
C1985 C1982 1.348 . S
C1985 C1984 1.356 . S
H1986 C1980 0.930 . S
H1987 C1981 0.930 . S
C1988 N1989 1.314 . S
C1988 C1990 1.353 . S
C1988 H1994 0.930 . S
N1989 Li1939 1.990 . S
N1989 C1988 1.314 . S
N1989 C1992 1.279 . S
C1990 C1988 1.353 . S
C1990 C1993 1.348 . S
C1990 H2022 0.929 . S
C1991 C1992 1.358 . S
C1991 C1993 1.356 . S
C1991 H2023 0.930 . S
C1992 N1989 1.279 . S
C1992 C1991 1.358 . S
C1992 H1995 0.930 . S
C1993 C1990 1.348 . S
C1993 C1991 1.356 . S
H1994 C1988 0.930 . S
H1995 C1992 0.930 . S
O1996 Li1936 1.956 . S
O1996 Li1937 1.970 . S
O1996 Li1938 1.961 . S
O1996 C1940 1.325 . S
O1997 Li1936 1.970 . S
O1997 Li1937 1.956 . S
O1997 Li1939 1.961 . S
O1997 C1946 1.325 . S
O1998 Li1936 1.961 . S
O1998 Li1938 1.956 . S
O1998 Li1939 1.970 . S
O1998 C1968 1.325 . S
O1999 Li1937 1.961 . S
O1999 Li1938 1.970 . S
O1999 Li1939 1.956 . S
O1999 C1974 1.325 . S
H2000 C1942 0.929 . S
H2001 C1943 0.930 . S
H2002 C1944 0.930 . S
H2003 C1945 0.930 . S
H2004 C1947 0.930 . S
H2005 C1949 0.929 . S
H2006 C1950 0.930 . S
H2007 C1951 0.930 . S
H2008 C1954 0.930 . S
H2009 C1957 0.929 . S
H2010 C1962 0.929 . S
H2011 C1963 0.930 . S
H2012 C1970 0.929 . S
H2013 C1971 0.930 . S
H2014 C1972 0.930 . S
H2015 C1973 0.930 . S
H2016 C1975 0.929 . S
H2017 C1976 0.930 . S
H2018 C1977 0.930 . S
H2019 C1978 0.930 . S
H2020 C1982 0.929 . S
H2021 C1984 0.930 . S
H2022 C1990 0.929 . S
H2023 C1991 0.930 . S
Li2024 N2041 1.990 . S
Li2024 O2084 1.956 . S
Li2024 O2085 1.970 . S
Li2024 O2086 1.961 . S
Li2025 N2049 1.990 . S
Li2025 O2084 1.970 . S
Li2025 O2085 1.956 . S
Li2025 O2087 1.961 . S
Li2026 N2071 1.990 . S
Li2026 O2084 1.961 . S
Li2026 O2086 1.956 . S
Li2026 O2087 1.970 . S
Li2027 N2077 1.990 . S
Li2027 O2085 1.961 . S
Li2027 O2086 1.970 . S
Li2027 O2087 1.956 . S
C2028 C2030 1.348 . S
C2028 C2031 1.356 . S
C2028 O2084 1.325 . S
N2029 C2032 1.314 . S
N2029 C2033 1.279 . S
C2030 C2028 1.348 . S
C2030 C2032 1.353 . S
C2030 H2088 0.929 . S
C2031 C2028 1.356 . S
C2031 C2033 1.358 . S
C2031 H2089 0.930 . S
C2032 N2029 1.314 . S
C2032 C2030 1.353 . S
C2032 H2090 0.930 . S
C2033 N2029 1.279 . S
C2033 C2031 1.358 . S
C2033 H2091 0.930 . S
C2034 C2037 1.348 . S
C2034 C2038 1.356 . S
C2034 O2085 1.325 . S
C2035 N2036 1.279 . S
C2035 C2038 1.358 . S
C2035 H2092 0.930 . S
N2036 C2035 1.279 . S
N2036 C2039 1.314 . S
C2037 C2034 1.348 . S
C2037 C2039 1.353 . S
C2037 H2093 0.929 . S
C2038 C2034 1.356 . S
C2038 C2035 1.358 . S
C2038 H2094 0.930 . S
C2039 N2036 1.314 . S
C2039 C2037 1.353 . S
C2039 H2095 0.930 . S
C2040 N2041 1.314 . S
C2040 C2045 1.353 . S
C2040 H2046 0.930 . S
N2041 Li2024 1.990 . S
N2041 C2040 1.314 . S
N2041 C2043 1.279 . S
C2042 C2043 1.358 . S
C2042 C2044 1.356 . S
C2042 H2096 0.930 . S
C2043 N2041 1.279 . S
C2043 C2042 1.358 . S
C2043 H2047 0.930 . S
C2044 C2042 1.356 . S
C2044 C2045 1.348 . S
C2045 C2040 1.353 . S
C2045 C2044 1.348 . S
C2045 H2097 0.929 . S
H2046 C2040 0.930 . S
H2047 C2043 0.930 . S
C2048 N2049 1.314 . S
C2048 C2050 1.353 . S
C2048 H2054 0.930 . S
N2049 Li2025 1.990 . S
N2049 C2048 1.314 . S
N2049 C2052 1.279 . S
C2050 C2048 1.353 . S
C2050 C2053 1.348 . S
C2050 H2098 0.929 . S
C2051 C2052 1.358 . S
C2051 C2053 1.356 . S
C2051 H2099 0.930 . S
C2052 N2049 1.279 . S
C2052 C2051 1.358 . S
C2052 H2055 0.930 . S
C2053 C2050 1.348 . S
C2053 C2051 1.356 . S
H2054 C2048 0.930 . S
H2055 C2052 0.930 . S
C2056 C2058 1.348 . S
C2056 C2059 1.356 . S
C2056 O2086 1.325 . S
N2057 C2060 1.314 . S
N2057 C2061 1.279 . S
C2058 C2056 1.348 . S
C2058 C2060 1.353 . S
C2058 H2100 0.929 . S
C2059 C2056 1.356 . S
C2059 C2061 1.358 . S
C2059 H2101 0.930 . S
C2060 N2057 1.314 . S
C2060 C2058 1.353 . S
C2060 H2102 0.930 . S
C2061 N2057 1.279 . S
C2061 C2059 1.358 . S
C2061 H2103 0.930 . S
C2062 C2063 1.348 . S
C2062 C2064 1.356 . S
C2062 O2087 1.325 . S
C2063 C2062 1.348 . S
C2063 C2065 1.353 . S
C2063 H2104 0.929 . S
C2064 C2062 1.356 . S
C2064 C2066 1.358 . S
C2064 H2105 0.930 . S
C2065 C2063 1.353 . S
C2065 N2067 1.314 . S
C2065 H2106 0.930 . S
C2066 C2064 1.358 . S
C2066 N2067 1.279 . S
C2066 H2107 0.930 . S
N2067 C2065 1.314 . S
N2067 C2066 1.279 . S
C2068 C2070 1.353 . S
C2068 N2071 1.314 . S
C2068 H2074 0.930 . S
C2069 N2071 1.279 . S
C2069 C2072 1.358 . S
C2069 H2075 0.930 . S
C2070 C2068 1.353 . S
C2070 C2073 1.348 . S
C2070 H2108 0.929 . S
N2071 Li2026 1.990 . S
N2071 C2068 1.314 . S
N2071 C2069 1.279 . S
C2072 C2069 1.358 . S
C2072 C2073 1.356 . S
C2072 H2109 0.930 . S
C2073 C2070 1.348 . S
C2073 C2072 1.356 . S
H2074 C2068 0.930 . S
H2075 C2069 0.930 . S
C2076 N2077 1.314 . S
C2076 C2078 1.353 . S
C2076 H2082 0.930 . S
N2077 Li2027 1.990 . S
N2077 C2076 1.314 . S
N2077 C2080 1.279 . S
C2078 C2076 1.353 . S
C2078 C2081 1.348 . S
C2078 H2110 0.929 . S
C2079 C2080 1.358 . S
C2079 C2081 1.356 . S
C2079 H2111 0.930 . S
C2080 N2077 1.279 . S
C2080 C2079 1.358 . S
C2080 H2083 0.930 . S
C2081 C2078 1.348 . S
C2081 C2079 1.356 . S
H2082 C2076 0.930 . S
H2083 C2080 0.930 . S
O2084 Li2024 1.956 . S
O2084 Li2025 1.970 . S
O2084 Li2026 1.961 . S
O2084 C2028 1.325 . S
O2085 Li2024 1.970 . S
O2085 Li2025 1.956 . S
O2085 Li2027 1.961 . S
O2085 C2034 1.325 . S
O2086 Li2024 1.961 . S
O2086 Li2026 1.956 . S
O2086 Li2027 1.970 . S
O2086 C2056 1.325 . S
O2087 Li2025 1.961 . S
O2087 Li2026 1.970 . S
O2087 Li2027 1.956 . S
O2087 C2062 1.325 . S
H2088 C2030 0.929 . S
H2089 C2031 0.930 . S
H2090 C2032 0.930 . S
H2091 C2033 0.930 . S
H2092 C2035 0.930 . S
H2093 C2037 0.929 . S
H2094 C2038 0.930 . S
H2095 C2039 0.930 . S
H2096 C2042 0.930 . S
H2097 C2045 0.929 . S
H2098 C2050 0.929 . S
H2099 C2051 0.930 . S
H2100 C2058 0.929 . S
H2101 C2059 0.930 . S
H2102 C2060 0.930 . S
H2103 C2061 0.930 . S
H2104 C2063 0.929 . S
H2105 C2064 0.930 . S
H2106 C2065 0.930 . S
H2107 C2066 0.930 . S
H2108 C2070 0.929 . S
H2109 C2072 0.930 . S
H2110 C2078 0.929 . S
H2111 C2079 0.930 . S
C2112 C2114 1.422 1_556 S
C2112 C2116 1.415 . S
C2112 N2118 1.369 . S
C2113 C2114 1.421 . S
C2113 C2115 1.417 1_554 S
C2113 C2125 1.422 . S
C2114 C2112 1.422 1_554 S
C2114 C2113 1.421 . S
C2114 N2124 1.359 . S
C2115 C2113 1.417 1_556 S
C2115 C2117 1.329 . S
C2115 H2134 0.930 . S
C2116 C2112 1.415 . S
C2116 C2117 1.437 . S
C2116 C2120 1.413 . S
C2117 C2115 1.329 . S
C2117 C2116 1.437 . S
C2117 H2139 0.929 . S
N2118 C2112 1.369 . S
N2118 C2119 1.338 . S
N2118 Gd2123 2.622 1_566 S
C2119 N2118 1.338 . S
C2119 C2121 1.378 . S
C2119 H2131 0.929 . S
C2120 C2116 1.413 . S
C2120 C2121 1.348 . S
C2120 H2136 0.931 . S
C2121 C2119 1.378 . S
C2121 C2120 1.348 . S
C2121 H2137 0.930 . S
Gd2122 N2142 2.622 . S
Gd2122 N2149 2.570 . S
Gd2122 O2156 2.353 . S
Gd2122 O2157 2.468 . S
Gd2122 O2158 2.427 . S
Gd2122 O2160 2.388 . S
Gd2122 O2161 2.386 . S
Gd2122 O2165 2.307 . S
Gd2122 C2175 2.805 . S
Gd2123 N2118 2.622 1_544 S
Gd2123 N2124 2.570 1_545 S
Gd2123 O2155 2.386 1_645 S
Gd2123 O2159 2.307 1_655 S
Gd2123 O2162 2.353 1_655 S
Gd2123 O2163 2.468 . S
Gd2123 O2164 2.427 1_554 S
Gd2123 O2166 2.388 1_654 S
Gd2123 C2187 2.805 . S
N2124 C2114 1.359 . S
N2124 Gd2123 2.570 1_565 S
N2124 C2126 1.343 . S
C2125 C2113 1.422 . S
C2125 C2127 1.321 . S
C2125 H2133 0.931 . S
C2126 N2124 1.343 . S
C2126 C2127 1.390 . S
C2126 H2128 0.931 . S
C2127 C2125 1.321 . S
C2127 C2126 1.390 . S
C2127 H2129 0.930 . S
H2128 C2126 0.931 . S
H2129 C2127 0.930 . S
H2130 C2153 0.931 . S
H2131 C2119 0.929 . S
H2132 C2154 0.930 1_556 S
H2133 C2125 0.931 . S
H2134 C2115 0.930 . S
H2135 C2144 0.929 . S
H2136 C2120 0.931 . S
H2137 C2121 0.930 . S
H2138 C2176 0.930 . S
H2139 C2117 0.929 . S
H2140 C2145 0.931 . S
H2141 C2146 0.930 . S
N2142 Gd2122 2.622 . S
N2142 C2143 1.369 . S
N2142 C2144 1.338 . S
C2143 N2142 1.369 . S
C2143 C2147 1.415 . S
C2143 C2150 1.422 . S
C2144 H2135 0.929 . S
C2144 N2142 1.338 . S
C2144 C2146 1.378 . S
C2145 H2140 0.931 . S
C2145 C2146 1.348 . S
C2145 C2147 1.413 . S
C2146 H2141 0.930 . S
C2146 C2144 1.378 . S
C2146 C2145 1.348 . S
C2147 C2143 1.415 . S
C2147 C2145 1.413 . S
C2147 C2177 1.437 . S
H2148 C2177 0.929 . S
N2149 Gd2122 2.570 . S
N2149 C2150 1.359 . S
N2149 C2153 1.343 . S
C2150 C2143 1.422 . S
C2150 N2149 1.359 . S
C2150 C2152 1.421 . S
C2151 C2152 1.422 . S
C2151 C2154 1.321 . S
C2151 H2178 0.931 . S
C2152 C2150 1.421 . S
C2152 C2151 1.422 . S
C2152 C2176 1.417 . S
C2153 H2130 0.931 . S
C2153 N2149 1.343 . S
C2153 C2154 1.390 . S
C2154 H2132 0.930 1_554 S
C2154 C2151 1.321 . S
C2154 C2153 1.390 . S
O2155 Gd2123 2.386 1_465 S
O2155 C2167 1.265 . S
O2156 Gd2122 2.353 . S
O2156 C2167 1.242 1_545 S
O2157 Gd2122 2.468 . S
O2157 C2175 1.263 . S
O2158 Gd2122 2.427 . S
O2158 C2175 1.252 . S
O2159 Gd2123 2.307 1_455 S
O2159 C2168 1.261 . S
O2160 Gd2122 2.388 . S
O2160 C2168 1.252 . S
O2161 Gd2122 2.386 . S
O2161 C2179 1.265 . S
O2162 Gd2123 2.353 1_455 S
O2162 C2179 1.242 . S
O2163 Gd2123 2.468 . S
O2163 C2187 1.263 . S
O2164 Gd2123 2.427 1_556 S
O2164 C2187 1.252 1_556 S
O2165 Gd2122 2.307 . S
O2165 C2180 1.261 1_554 S
O2166 Gd2123 2.388 1_456 S
O2166 C2180 1.252 . S
C2167 O2155 1.265 . S
C2167 O2156 1.242 1_565 S
C2168 O2159 1.261 . S
C2168 O2160 1.252 . S
C2169 C2172 1.394 . S
C2169 C2174 1.370 . S
C2169 C2175 1.500 . S
C2170 C2173 1.383 . S
C2170 C2174 1.395 . S
C2171 C2172 1.396 . S
C2171 C2173 1.365 . S
C2171 H2188 0.929 . S
C2172 C2169 1.394 . S
C2172 C2171 1.396 . S
C2172 H2189 0.930 . S
C2173 C2170 1.383 . S
C2173 C2171 1.365 . S
C2173 H2190 0.929 1_545 S
C2174 C2169 1.370 . S
C2174 C2170 1.395 . S
C2174 H2191 0.930 . S
C2175 Gd2122 2.805 . S
C2175 O2157 1.263 . S
C2175 O2158 1.252 . S
C2175 C2169 1.500 . S
C2176 H2138 0.930 . S
C2176 C2152 1.417 . S
C2176 C2177 1.329 . S
C2177 C2147 1.437 . S
C2177 H2148 0.929 . S
C2177 C2176 1.329 . S
H2178 C2151 0.931 . S
C2179 O2161 1.265 . S
C2179 O2162 1.242 . S
C2180 O2165 1.261 1_556 S
C2180 O2166 1.252 . S
C2181 C2184 1.391 1_554 S
C2181 C2186 1.372 . S
C2181 C2187 1.500 . S
C2182 C2185 1.383 1_554 S
C2182 C2186 1.395 . S
C2183 C2184 1.396 . S
C2183 C2185 1.365 . S
C2183 H2192 0.929 . S
C2184 C2181 1.391 1_556 S
C2184 C2183 1.396 . S
C2184 H2193 0.930 . S
C2185 C2182 1.383 1_556 S
C2185 C2183 1.365 . S
C2185 H2194 0.931 . S
C2186 C2181 1.372 . S
C2186 C2182 1.395 . S
C2186 H2195 0.930 . S
C2187 Gd2123 2.805 . S
C2187 O2163 1.263 . S
C2187 O2164 1.252 1_554 S
C2187 C2181 1.500 . S
H2188 C2171 0.929 . S
H2189 C2172 0.930 . S
H2190 C2173 0.929 1_565 S
H2191 C2174 0.930 . S
H2192 C2183 0.929 . S
H2193 C2184 0.930 . S
H2194 C2185 0.931 . S
H2195 C2186 0.930 . S
C2196 C2198 1.422 . S
C2196 C2200 1.415 . S
C2196 N2202 1.369 . S
C2197 C2198 1.421 . S
C2197 C2199 1.417 . S
C2197 C2209 1.422 . S
C2198 C2196 1.422 . S
C2198 C2197 1.421 . S
C2198 N2208 1.359 . S
C2199 C2197 1.417 . S
C2199 C2201 1.329 . S
C2199 H2218 0.930 . S
C2200 C2196 1.415 . S
C2200 C2201 1.437 . S
C2200 C2204 1.413 . S
C2201 C2199 1.329 . S
C2201 C2200 1.437 . S
C2201 H2223 0.929 . S
N2202 C2196 1.369 . S
N2202 C2203 1.338 . S
N2202 Gd2207 2.622 . S
C2203 N2202 1.338 . S
C2203 C2205 1.378 . S
C2203 H2215 0.929 . S
C2204 C2200 1.413 . S
C2204 C2205 1.348 . S
C2204 H2220 0.931 . S
C2205 C2203 1.378 . S
C2205 C2204 1.348 . S
C2205 H2221 0.930 . S
Gd2206 N2226 2.622 . S
Gd2206 N2233 2.570 . S
Gd2206 O2240 2.353 . S
Gd2206 O2241 2.468 . S
Gd2206 O2242 2.427 . S
Gd2206 O2244 2.388 . S
Gd2206 O2245 2.386 . S
Gd2206 O2249 2.307 . S
Gd2206 C2259 2.805 . S
Gd2207 N2202 2.622 . S
Gd2207 N2208 2.570 . S
Gd2207 O2239 2.386 . S
Gd2207 O2243 2.307 . S
Gd2207 O2246 2.353 . S
Gd2207 O2247 2.468 . S
Gd2207 O2248 2.427 . S
Gd2207 O2250 2.388 . S
Gd2207 C2271 2.805 . S
N2208 C2198 1.359 . S
N2208 Gd2207 2.570 . S
N2208 C2210 1.343 . S
C2209 C2197 1.422 . S
C2209 C2211 1.321 . S
C2209 H2217 0.931 . S
C2210 N2208 1.343 . S
C2210 C2211 1.390 . S
C2210 H2212 0.931 . S
C2211 C2209 1.321 . S
C2211 C2210 1.390 . S
C2211 H2213 0.930 . S
H2212 C2210 0.931 . S
H2213 C2211 0.930 . S
H2214 C2237 0.931 . S
H2215 C2203 0.929 . S
H2216 C2238 0.930 . S
H2217 C2209 0.931 . S
H2218 C2199 0.930 . S
H2219 C2228 0.929 . S
H2220 C2204 0.931 . S
H2221 C2205 0.930 . S
H2222 C2260 0.930 . S
H2223 C2201 0.929 . S
H2224 C2229 0.931 . S
H2225 C2230 0.930 . S
N2226 Gd2206 2.622 . S
N2226 C2227 1.369 . S
N2226 C2228 1.338 . S
C2227 N2226 1.369 . S
C2227 C2231 1.415 . S
C2227 C2234 1.422 . S
C2228 H2219 0.929 . S
C2228 N2226 1.338 . S
C2228 C2230 1.378 . S
C2229 H2224 0.931 . S
C2229 C2230 1.348 . S
C2229 C2231 1.413 . S
C2230 H2225 0.930 . S
C2230 C2228 1.378 . S
C2230 C2229 1.348 . S
C2231 C2227 1.415 . S
C2231 C2229 1.413 . S
C2231 C2261 1.437 . S
H2232 C2261 0.929 . S
N2233 Gd2206 2.570 . S
N2233 C2234 1.359 . S
N2233 C2237 1.343 . S
C2234 C2227 1.422 . S
C2234 N2233 1.359 . S
C2234 C2236 1.421 . S
C2235 C2236 1.422 . S
C2235 C2238 1.321 . S
C2235 H2262 0.931 . S
C2236 C2234 1.421 . S
C2236 C2235 1.422 . S
C2236 C2260 1.417 . S
C2237 H2214 0.931 . S
C2237 N2233 1.343 . S
C2237 C2238 1.390 . S
C2238 H2216 0.930 . S
C2238 C2235 1.321 . S
C2238 C2237 1.390 . S
O2239 Gd2207 2.386 . S
O2239 C2251 1.265 . S
O2240 Gd2206 2.353 . S
O2240 C2251 1.242 . S
O2241 Gd2206 2.468 . S
O2241 C2259 1.263 . S
O2242 Gd2206 2.427 . S
O2242 C2259 1.252 . S
O2243 Gd2207 2.307 . S
O2243 C2252 1.261 . S
O2244 Gd2206 2.388 . S
O2244 C2252 1.252 . S
O2245 Gd2206 2.386 . S
O2245 C2263 1.265 . S
O2246 Gd2207 2.353 . S
O2246 C2263 1.242 . S
O2247 Gd2207 2.468 . S
O2247 C2271 1.263 . S
O2248 Gd2207 2.427 . S
O2248 C2271 1.252 . S
O2249 Gd2206 2.307 . S
O2249 C2264 1.261 . S
O2250 Gd2207 2.388 . S
O2250 C2264 1.252 . S
C2251 O2239 1.265 . S
C2251 O2240 1.242 . S
C2252 O2243 1.261 . S
C2252 O2244 1.252 . S
C2253 C2256 1.394 . S
C2253 C2258 1.370 . S
C2253 C2259 1.500 . S
C2254 C2257 1.383 . S
C2254 C2258 1.395 . S
C2255 C2256 1.396 . S
C2255 C2257 1.365 . S
C2255 H2272 0.929 . S
C2256 C2253 1.394 . S
C2256 C2255 1.396 . S
C2256 H2273 0.930 . S
C2257 C2254 1.383 . S
C2257 C2255 1.365 . S
C2257 H2274 0.931 . S
C2258 C2253 1.370 . S
C2258 C2254 1.395 . S
C2258 H2275 0.930 . S
C2259 Gd2206 2.805 . S
C2259 O2241 1.263 . S
C2259 O2242 1.252 . S
C2259 C2253 1.500 . S
C2260 H2222 0.930 . S
C2260 C2236 1.417 . S
C2260 C2261 1.329 . S
C2261 C2231 1.437 . S
C2261 H2232 0.929 . S
C2261 C2260 1.329 . S
H2262 C2235 0.931 . S
C2263 O2245 1.265 . S
C2263 O2246 1.242 . S
C2264 O2249 1.261 . S
C2264 O2250 1.252 . S
C2265 C2268 1.394 . S
C2265 C2270 1.370 . S
C2265 C2271 1.500 . S
C2266 C2269 1.383 . S
C2266 C2270 1.395 . S
C2267 C2268 1.396 . S
C2267 C2269 1.365 . S
C2267 H2276 0.929 . S
C2268 C2265 1.394 . S
C2268 C2267 1.396 . S
C2268 H2277 0.930 . S
C2269 C2266 1.383 . S
C2269 C2267 1.365 . S
C2269 H2278 0.931 . S
C2270 C2265 1.370 . S
C2270 C2266 1.395 . S
C2270 H2279 0.930 . S
C2271 Gd2207 2.805 . S
C2271 O2247 1.263 . S
C2271 O2248 1.252 . S
C2271 C2265 1.500 . S
H2272 C2255 0.929 . S
H2273 C2256 0.930 . S
H2274 C2257 0.931 . S
H2275 C2258 0.930 . S
H2276 C2267 0.929 . S
H2277 C2268 0.930 . S
H2278 C2269 0.931 . S
H2279 C2270 0.930 . S
C2280 C2282 1.422 . S
C2280 C2284 1.415 . S
C2280 N2286 1.369 . S
C2281 C2282 1.421 . S
C2281 C2283 1.417 . S
C2281 C2293 1.422 . S
C2282 C2280 1.422 . S
C2282 C2281 1.421 . S
C2282 N2292 1.359 . S
C2283 C2281 1.417 . S
C2283 C2285 1.329 . S
C2283 H2302 0.930 . S
C2284 C2280 1.415 . S
C2284 C2285 1.437 . S
C2284 C2288 1.413 . S
C2285 C2283 1.329 . S
C2285 C2284 1.437 . S
C2285 H2307 0.929 . S
N2286 C2280 1.369 . S
N2286 C2287 1.338 . S
N2286 Gd2291 2.622 . S
C2287 N2286 1.338 . S
C2287 C2289 1.378 . S
C2287 H2299 0.929 . S
C2288 C2284 1.413 . S
C2288 C2289 1.348 . S
C2288 H2304 0.931 . S
C2289 C2287 1.378 . S
C2289 C2288 1.348 . S
C2289 H2305 0.930 . S
Gd2290 N2310 2.628 . S
Gd2290 N2317 2.570 1_545 S
Gd2290 O2324 2.353 . S
Gd2290 O2325 2.468 . S
Gd2290 O2326 2.427 . S
Gd2290 O2328 2.388 . S
Gd2290 O2329 2.386 1_545 S
Gd2290 O2333 2.307 . S
Gd2290 C2343 2.805 . S
Gd2291 N2286 2.622 . S
Gd2291 N2292 2.570 . S
Gd2291 O2323 2.386 . S
Gd2291 O2327 2.307 . S
Gd2291 O2330 2.353 1_545 S
Gd2291 O2331 2.468 . S
Gd2291 O2332 2.427 . S
Gd2291 O2334 2.388 . S
Gd2291 C2355 2.805 . S
N2292 C2282 1.359 . S
N2292 Gd2291 2.570 . S
N2292 C2294 1.343 . S
C2293 C2281 1.422 . S
C2293 C2295 1.321 . S
C2293 H2301 0.931 . S
C2294 N2292 1.343 . S
C2294 C2295 1.390 . S
C2294 H2296 0.931 . S
C2295 C2293 1.321 . S
C2295 C2294 1.390 . S
C2295 H2297 0.930 . S
H2296 C2294 0.931 . S
H2297 C2295 0.930 . S
H2298 C2321 0.931 . S
H2299 C2287 0.929 . S
H2300 C2322 0.930 . S
H2301 C2293 0.931 . S
H2302 C2283 0.930 . S
H2303 C2312 0.929 . S
H2304 C2288 0.931 . S
H2305 C2289 0.930 . S
H2306 C2344 0.930 . S
H2307 C2285 0.929 . S
H2308 C2313 0.931 . S
H2309 C2314 0.930 . S
N2310 Gd2290 2.628 . S
N2310 C2311 1.363 1_545 S
N2310 C2312 1.337 . S
C2311 N2310 1.363 1_565 S
C2311 C2315 1.415 . S
C2311 C2318 1.422 . S
C2312 H2303 0.929 . S
C2312 N2310 1.337 . S
C2312 C2314 1.378 1_545 S
C2313 H2308 0.931 . S
C2313 C2314 1.348 . S
C2313 C2315 1.413 . S
C2314 H2309 0.930 . S
C2314 C2312 1.378 1_565 S
C2314 C2313 1.348 . S
C2315 C2311 1.415 . S
C2315 C2313 1.413 . S
C2315 C2345 1.437 . S
H2316 C2345 0.929 . S
N2317 Gd2290 2.570 1_565 S
N2317 C2318 1.359 . S
N2317 C2321 1.343 . S
C2318 C2311 1.422 . S
C2318 N2317 1.359 . S
C2318 C2320 1.421 . S
C2319 C2320 1.422 . S
C2319 C2322 1.321 . S
C2319 H2346 0.931 . S
C2320 C2318 1.421 . S
C2320 C2319 1.422 . S
C2320 C2344 1.417 . S
C2321 H2298 0.931 . S
C2321 N2317 1.343 . S
C2321 C2322 1.390 . S
C2322 H2300 0.930 . S
C2322 C2319 1.321 . S
C2322 C2321 1.390 . S
O2323 Gd2291 2.386 . S
O2323 C2335 1.265 . S
O2324 Gd2290 2.353 . S
O2324 C2335 1.242 . S
O2325 Gd2290 2.468 . S
O2325 C2343 1.263 . S
O2326 Gd2290 2.427 . S
O2326 C2343 1.252 . S
O2327 Gd2291 2.307 . S
O2327 C2336 1.261 . S
O2328 Gd2290 2.388 . S
O2328 C2336 1.252 . S
O2329 Gd2290 2.386 1_565 S
O2329 C2347 1.265 . S
O2330 Gd2291 2.353 1_565 S
O2330 C2347 1.242 . S
O2331 Gd2291 2.468 . S
O2331 C2355 1.263 . S
O2332 Gd2291 2.427 . S
O2332 C2355 1.252 . S
O2333 Gd2290 2.307 . S
O2333 C2348 1.261 . S
O2334 Gd2291 2.388 . S
O2334 C2348 1.252 . S
C2335 O2323 1.265 . S
C2335 O2324 1.242 . S
C2336 O2327 1.261 . S
C2336 O2328 1.252 . S
C2337 C2340 1.394 . S
C2337 C2342 1.370 . S
C2337 C2343 1.500 . S
C2338 C2341 1.383 . S
C2338 C2342 1.395 . S
C2339 C2340 1.396 . S
C2339 C2341 1.365 . S
C2339 H2356 0.929 . S
C2340 C2337 1.394 . S
C2340 C2339 1.396 . S
C2340 H2357 0.930 . S
C2341 C2338 1.383 . S
C2341 C2339 1.365 . S
C2341 H2358 0.931 . S
C2342 C2337 1.370 . S
C2342 C2338 1.395 . S
C2342 H2359 0.930 . S
C2343 Gd2290 2.805 . S
C2343 O2325 1.263 . S
C2343 O2326 1.252 . S
C2343 C2337 1.500 . S
C2344 H2306 0.930 . S
C2344 C2320 1.417 . S
C2344 C2345 1.329 . S
C2345 C2315 1.437 . S
C2345 H2316 0.929 . S
C2345 C2344 1.329 . S
H2346 C2319 0.931 . S
C2347 O2329 1.265 . S
C2347 O2330 1.242 . S
C2348 O2333 1.261 . S
C2348 O2334 1.252 . S
C2349 C2352 1.394 . S
C2349 C2354 1.370 . S
C2349 C2355 1.500 1_565 S
C2350 C2353 1.383 . S
C2350 C2354 1.395 . S
C2351 C2352 1.396 . S
C2351 C2353 1.365 . S
C2351 H2360 0.929 . S
C2352 C2349 1.394 . S
C2352 C2351 1.396 . S
C2352 H2361 0.930 . S
C2353 C2350 1.383 . S
C2353 C2351 1.365 . S
C2353 H2362 0.931 . S
C2354 C2349 1.370 . S
C2354 C2350 1.395 . S
C2354 H2363 0.930 . S
C2355 Gd2291 2.805 . S
C2355 O2331 1.263 . S
C2355 O2332 1.252 . S
C2355 C2349 1.500 1_545 S
H2356 C2339 0.929 . S
H2357 C2340 0.930 . S
H2358 C2341 0.931 . S
H2359 C2342 0.930 . S
H2360 C2351 0.929 . S
H2361 C2352 0.930 . S
H2362 C2353 0.931 . S
H2363 C2354 0.930 . S
C2364 C2366 1.422 . S
C2364 C2368 1.415 . S
C2364 N2370 1.369 . S
C2365 C2366 1.421 . S
C2365 C2367 1.417 . S
C2365 C2377 1.422 . S
C2366 C2364 1.422 . S
C2366 C2365 1.421 . S
C2366 N2376 1.359 . S
C2367 C2365 1.417 . S
C2367 C2369 1.329 . S
C2367 H2386 0.930 . S
C2368 C2364 1.415 . S
C2368 C2369 1.437 . S
C2368 C2372 1.413 . S
C2369 C2367 1.329 . S
C2369 C2368 1.437 . S
C2369 H2391 0.929 . S
N2370 C2364 1.369 . S
N2370 C2371 1.338 . S
N2370 Gd2375 2.622 . S
C2371 N2370 1.338 . S
C2371 C2373 1.378 . S
C2371 H2383 0.929 . S
C2372 C2368 1.413 . S
C2372 C2373 1.348 . S
C2372 H2388 0.931 . S
C2373 C2371 1.378 . S
C2373 C2372 1.348 . S
C2373 H2389 0.930 . S
Gd2374 N2394 2.622 . S
Gd2374 N2401 2.570 . S
Gd2374 O2408 2.353 . S
Gd2374 O2409 2.468 . S
Gd2374 O2410 2.427 . S
Gd2374 O2412 2.388 . S
Gd2374 O2413 2.386 . S
Gd2374 O2417 2.307 . S
Gd2374 C2427 2.805 . S
Gd2375 N2370 2.622 . S
Gd2375 N2376 2.570 . S
Gd2375 O2407 2.386 . S
Gd2375 O2411 2.307 . S
Gd2375 O2414 2.353 . S
Gd2375 O2415 2.468 . S
Gd2375 O2416 2.427 . S
Gd2375 O2418 2.388 . S
Gd2375 C2439 2.805 . S
N2376 C2366 1.359 . S
N2376 Gd2375 2.570 . S
N2376 C2378 1.343 . S
C2377 C2365 1.422 . S
C2377 C2379 1.321 . S
C2377 H2385 0.931 . S
C2378 N2376 1.343 . S
C2378 C2379 1.390 . S
C2378 H2380 0.931 . S
C2379 C2377 1.321 . S
C2379 C2378 1.390 . S
C2379 H2381 0.930 . S
H2380 C2378 0.931 . S
H2381 C2379 0.930 . S
H2382 C2405 0.931 . S
H2383 C2371 0.929 . S
H2384 C2406 0.930 . S
H2385 C2377 0.931 . S
H2386 C2367 0.930 . S
H2387 C2396 0.929 . S
H2388 C2372 0.931 . S
H2389 C2373 0.930 . S
H2390 C2428 0.930 . S
H2391 C2369 0.929 . S
H2392 C2397 0.931 . S
H2393 C2398 0.930 . S
N2394 Gd2374 2.622 . S
N2394 C2395 1.369 . S
N2394 C2396 1.338 . S
C2395 N2394 1.369 . S
C2395 C2399 1.415 . S
C2395 C2402 1.422 . S
C2396 H2387 0.929 . S
C2396 N2394 1.338 . S
C2396 C2398 1.378 . S
C2397 H2392 0.931 . S
C2397 C2398 1.348 . S
C2397 C2399 1.413 . S
C2398 H2393 0.930 . S
C2398 C2396 1.378 . S
C2398 C2397 1.348 . S
C2399 C2395 1.415 . S
C2399 C2397 1.413 . S
C2399 C2429 1.437 . S
H2400 C2429 0.929 . S
N2401 Gd2374 2.570 . S
N2401 C2402 1.359 . S
N2401 C2405 1.343 . S
C2402 C2395 1.422 . S
C2402 N2401 1.359 . S
C2402 C2404 1.421 . S
C2403 C2404 1.422 . S
C2403 C2406 1.321 . S
C2403 H2430 0.931 . S
C2404 C2402 1.421 . S
C2404 C2403 1.422 . S
C2404 C2428 1.417 . S
C2405 H2382 0.931 . S
C2405 N2401 1.343 . S
C2405 C2406 1.390 . S
C2406 H2384 0.930 . S
C2406 C2403 1.321 . S
C2406 C2405 1.390 . S
O2407 Gd2375 2.386 . S
O2407 C2419 1.265 . S
O2408 Gd2374 2.353 . S
O2408 C2419 1.242 . S
O2409 Gd2374 2.468 . S
O2409 C2427 1.263 . S
O2410 Gd2374 2.427 . S
O2410 C2427 1.252 . S
O2411 Gd2375 2.307 . S
O2411 C2420 1.261 . S
O2412 Gd2374 2.388 . S
O2412 C2420 1.252 . S
O2413 Gd2374 2.386 . S
O2413 C2431 1.265 . S
O2414 Gd2375 2.353 . S
O2414 C2431 1.242 . S
O2415 Gd2375 2.468 . S
O2415 C2439 1.263 . S
O2416 Gd2375 2.427 . S
O2416 C2439 1.252 . S
O2417 Gd2374 2.307 . S
O2417 C2432 1.261 . S
O2418 Gd2375 2.388 . S
O2418 C2432 1.252 . S
C2419 O2407 1.265 . S
C2419 O2408 1.242 . S
C2420 O2411 1.261 . S
C2420 O2412 1.252 . S
C2421 C2424 1.394 . S
C2421 C2426 1.370 . S
C2421 C2427 1.500 . S
C2422 C2425 1.383 . S
C2422 C2426 1.395 . S
C2423 C2424 1.396 . S
C2423 C2425 1.365 . S
C2423 H2440 0.929 . S
C2424 C2421 1.394 . S
C2424 C2423 1.396 . S
C2424 H2441 0.930 . S
C2425 C2422 1.383 . S
C2425 C2423 1.365 . S
C2425 H2442 0.931 . S
C2426 C2421 1.370 . S
C2426 C2422 1.395 . S
C2426 H2443 0.930 . S
C2427 Gd2374 2.805 . S
C2427 O2409 1.263 . S
C2427 O2410 1.252 . S
C2427 C2421 1.500 . S
C2428 H2390 0.930 . S
C2428 C2404 1.417 . S
C2428 C2429 1.329 . S
C2429 C2399 1.437 . S
C2429 H2400 0.929 . S
C2429 C2428 1.329 . S
H2430 C2403 0.931 . S
C2431 O2413 1.265 . S
C2431 O2414 1.242 . S
C2432 O2417 1.261 . S
C2432 O2418 1.252 . S
C2433 C2436 1.394 . S
C2433 C2438 1.370 . S
C2433 C2439 1.500 . S
C2434 C2437 1.383 . S
C2434 C2438 1.395 . S
C2435 C2436 1.396 . S
C2435 C2437 1.365 . S
C2435 H2444 0.929 . S
C2436 C2433 1.394 . S
C2436 C2435 1.396 . S
C2436 H2445 0.930 . S
C2437 C2434 1.383 . S
C2437 C2435 1.365 . S
C2437 H2446 0.931 . S
C2438 C2433 1.370 . S
C2438 C2434 1.395 . S
C2438 H2447 0.930 . S
C2439 Gd2375 2.805 . S
C2439 O2415 1.263 . S
C2439 O2416 1.252 . S
C2439 C2433 1.500 . S
H2440 C2423 0.929 . S
H2441 C2424 0.930 . S
H2442 C2425 0.931 . S
H2443 C2426 0.930 . S
H2444 C2435 0.929 . S
H2445 C2436 0.930 . S
H2446 C2437 0.931 . S
H2447 C2438 0.930 . S
C2448 C2450 1.422 . S
C2448 C2452 1.415 1_455 S
C2448 N2454 1.369 1_455 S
C2449 C2450 1.421 . S
C2449 C2451 1.417 . S
C2449 C2461 1.422 . S
C2450 C2448 1.422 . S
C2450 C2449 1.421 . S
C2450 N2460 1.359 . S
C2451 C2449 1.417 . S
C2451 C2453 1.329 . S
C2451 H2470 0.930 . S
C2452 C2448 1.415 1_655 S
C2452 C2453 1.437 1_655 S
C2452 C2456 1.413 . S
C2453 C2451 1.329 . S
C2453 C2452 1.437 1_455 S
C2453 H2475 0.929 1_455 S
N2454 C2448 1.369 1_655 S
N2454 C2455 1.338 . S
N2454 Gd2459 2.622 1_655 S
C2455 N2454 1.338 . S
C2455 C2457 1.378 . S
C2455 H2467 0.929 . S
C2456 C2452 1.413 . S
C2456 C2457 1.348 . S
C2456 H2472 0.931 . S
C2457 C2455 1.378 . S
C2457 C2456 1.348 . S
C2457 H2473 0.930 . S
Gd2458 N2478 2.622 . S
Gd2458 N2485 2.570 . S
Gd2458 O2492 2.353 1_565 S
Gd2458 O2493 2.468 . S
Gd2458 O2494 2.427 . S
Gd2458 O2496 2.388 1_565 S
Gd2458 O2497 2.386 1_565 S
Gd2458 O2501 2.307 1_565 S
Gd2458 C2511 2.805 . S
Gd2459 N2454 2.622 1_455 S
Gd2459 N2460 2.570 . S
Gd2459 O2491 2.386 . S
Gd2459 O2495 2.307 . S
Gd2459 O2498 2.353 . S
Gd2459 O2499 2.468 . S
Gd2459 O2500 2.427 1_455 S
Gd2459 O2502 2.388 1_455 S
Gd2459 C2523 2.805 . S
N2460 C2450 1.359 . S
N2460 Gd2459 2.570 . S
N2460 C2462 1.343 . S
C2461 C2449 1.422 . S
C2461 C2463 1.321 . S
C2461 H2469 0.931 . S
C2462 N2460 1.343 . S
C2462 C2463 1.390 . S
C2462 H2464 0.931 . S
C2463 C2461 1.321 . S
C2463 C2462 1.390 . S
C2463 H2465 0.930 . S
H2464 C2462 0.931 . S
H2465 C2463 0.930 . S
H2466 C2489 0.955 . S
H2467 C2455 0.929 . S
H2468 C2490 0.930 . S
H2469 C2461 0.931 . S
H2470 C2451 0.930 . S
H2471 C2480 0.929 1_545 S
H2472 C2456 0.931 . S
H2473 C2457 0.930 . S
H2474 C2512 0.930 . S
H2475 C2453 0.929 1_655 S
H2476 C2481 0.931 . S
H2477 C2482 0.930 . S
N2478 Gd2458 2.622 . S
N2478 C2479 1.369 . S
N2478 C2480 1.338 . S
C2479 N2478 1.369 . S
C2479 C2483 1.415 . S
C2479 C2486 1.422 . S
C2480 H2471 0.929 1_565 S
C2480 N2478 1.338 . S
C2480 C2482 1.378 . S
C2481 H2476 0.931 . S
C2481 C2482 1.348 . S
C2481 C2483 1.413 . S
C2482 H2477 0.930 . S
C2482 C2480 1.378 . S
C2482 C2481 1.348 . S
C2483 C2479 1.415 . S
C2483 C2481 1.413 . S
C2483 C2513 1.437 . S
H2484 C2513 0.929 . S
N2485 Gd2458 2.570 . S
N2485 C2486 1.359 . S
N2485 C2489 1.309 1_455 S
C2486 C2479 1.422 . S
C2486 N2485 1.359 . S
C2486 C2488 1.421 . S
C2487 C2488 1.422 1_655 S
C2487 C2490 1.321 . S
C2487 H2514 0.931 . S
C2488 C2486 1.421 . S
C2488 C2487 1.422 1_455 S
C2488 C2512 1.417 . S
C2489 H2466 0.955 . S
C2489 N2485 1.309 1_655 S
C2489 C2490 1.401 . S
C2490 H2468 0.930 . S
C2490 C2487 1.321 . S
C2490 C2489 1.401 . S
O2491 Gd2459 2.386 . S
O2491 C2503 1.265 . S
O2492 Gd2458 2.353 1_545 S
O2492 C2503 1.242 . S
O2493 Gd2458 2.468 . S
O2493 C2511 1.263 . S
O2494 Gd2458 2.427 . S
O2494 C2511 1.252 . S
O2495 Gd2459 2.307 . S
O2495 C2504 1.261 . S
O2496 Gd2458 2.388 1_545 S
O2496 C2504 1.252 . S
O2497 Gd2458 2.386 1_545 S
O2497 C2515 1.265 . S
O2498 Gd2459 2.353 . S
O2498 C2515 1.242 . S
O2499 Gd2459 2.468 . S
O2499 C2523 1.263 . S
O2500 Gd2459 2.427 1_655 S
O2500 C2523 1.252 1_655 S
O2501 Gd2458 2.307 1_545 S
O2501 C2516 1.261 1_455 S
O2502 Gd2459 2.388 1_655 S
O2502 C2516 1.252 . S
C2503 O2491 1.265 . S
C2503 O2492 1.242 . S
C2504 O2495 1.261 . S
C2504 O2496 1.252 . S
C2505 C2508 1.394 . S
C2505 C2510 1.370 . S
C2505 C2511 1.500 . S
C2506 C2509 1.383 . S
C2506 C2510 1.395 . S
C2507 C2508 1.396 . S
C2507 C2509 1.365 . S
C2507 H2524 0.929 . S
C2508 C2505 1.394 . S
C2508 C2507 1.396 . S
C2508 H2525 0.930 . S
C2509 C2506 1.383 . S
C2509 C2507 1.365 . S
C2509 H2526 0.931 . S
C2510 C2505 1.370 . S
C2510 C2506 1.395 . S
C2510 H2527 0.930 . S
C2511 Gd2458 2.805 . S
C2511 O2493 1.263 . S
C2511 O2494 1.252 . S
C2511 C2505 1.500 . S
C2512 H2474 0.930 . S
C2512 C2488 1.417 . S
C2512 C2513 1.329 . S
C2513 C2483 1.437 . S
C2513 H2484 0.929 . S
C2513 C2512 1.329 . S
H2514 C2487 0.931 . S
C2515 O2497 1.265 . S
C2515 O2498 1.242 . S
C2516 O2501 1.261 1_655 S
C2516 O2502 1.252 . S
C2517 C2520 1.394 1_455 S
C2517 C2522 1.370 . S
C2517 C2523 1.500 . S
C2518 C2521 1.383 1_455 S
C2518 C2522 1.395 . S
C2519 C2520 1.396 . S
C2519 C2521 1.365 . S
C2519 H2528 0.929 . S
C2520 C2517 1.394 1_655 S
C2520 C2519 1.396 . S
C2520 H2529 0.930 . S
C2521 C2518 1.383 1_655 S
C2521 C2519 1.365 . S
C2521 H2530 0.931 . S
C2522 C2517 1.370 . S
C2522 C2518 1.395 . S
C2522 H2531 0.930 . S
C2523 Gd2459 2.805 . S
C2523 O2499 1.263 . S
C2523 O2500 1.252 1_455 S
C2523 C2517 1.500 . S
H2524 C2507 0.929 . S
H2525 C2508 0.930 . S
H2526 C2509 0.931 . S
H2527 C2510 0.930 . S
H2528 C2519 0.929 . S
H2529 C2520 0.930 . S
H2530 C2521 0.931 . S
H2531 C2522 0.930 . S
C2532 C2534 1.422 . S
C2532 C2536 1.415 . S
C2532 N2538 1.369 . S
C2533 C2534 1.421 . S
C2533 C2535 1.417 . S
C2533 C2545 1.422 . S
C2534 C2532 1.422 . S
C2534 C2533 1.421 . S
C2534 N2544 1.359 . S
C2535 C2533 1.417 . S
C2535 C2537 1.329 . S
C2535 H2554 0.930 . S
C2536 C2532 1.415 . S
C2536 C2537 1.437 . S
C2536 C2540 1.413 . S
C2537 C2535 1.329 . S
C2537 C2536 1.437 . S
C2537 H2559 0.929 . S
N2538 C2532 1.369 . S
N2538 C2539 1.338 . S
N2538 Gd2543 2.622 . S
C2539 N2538 1.338 . S
C2539 C2541 1.378 . S
C2539 H2551 0.929 . S
C2540 C2536 1.413 . S
C2540 C2541 1.348 . S
C2540 H2556 0.931 . S
C2541 C2539 1.378 . S
C2541 C2540 1.348 . S
C2541 H2557 0.930 . S
Gd2542 N2562 2.622 . S
Gd2542 N2569 2.570 . S
Gd2542 O2576 2.353 . S
Gd2542 O2577 2.468 . S
Gd2542 O2578 2.427 . S
Gd2542 O2580 2.388 . S
Gd2542 O2581 2.386 . S
Gd2542 O2585 2.307 . S
Gd2542 C2595 2.805 . S
Gd2543 N2538 2.622 . S
Gd2543 N2544 2.570 . S
Gd2543 O2575 2.386 . S
Gd2543 O2579 2.307 . S
Gd2543 O2582 2.353 . S
Gd2543 O2583 2.468 . S
Gd2543 O2584 2.427 . S
Gd2543 O2586 2.388 . S
Gd2543 C2607 2.805 . S
N2544 C2534 1.359 . S
N2544 Gd2543 2.570 . S
N2544 C2546 1.343 . S
C2545 C2533 1.422 . S
C2545 C2547 1.321 . S
C2545 H2553 0.931 . S
C2546 N2544 1.343 . S
C2546 C2547 1.390 . S
C2546 H2548 0.931 . S
C2547 C2545 1.321 . S
C2547 C2546 1.390 . S
C2547 H2549 0.930 . S
H2548 C2546 0.931 . S
H2549 C2547 0.930 . S
H2550 C2573 0.931 . S
H2551 C2539 0.929 . S
H2552 C2574 0.930 . S
H2553 C2545 0.931 . S
H2554 C2535 0.930 . S
H2555 C2564 0.929 . S
H2556 C2540 0.931 . S
H2557 C2541 0.930 . S
H2558 C2596 0.930 . S
H2559 C2537 0.929 . S
H2560 C2565 0.931 . S
H2561 C2566 0.930 . S
N2562 Gd2542 2.622 . S
N2562 C2563 1.369 . S
N2562 C2564 1.338 . S
C2563 N2562 1.369 . S
C2563 C2567 1.415 . S
C2563 C2570 1.422 . S
C2564 H2555 0.929 . S
C2564 N2562 1.338 . S
C2564 C2566 1.378 . S
C2565 H2560 0.931 . S
C2565 C2566 1.348 . S
C2565 C2567 1.413 . S
C2566 H2561 0.930 . S
C2566 C2564 1.378 . S
C2566 C2565 1.348 . S
C2567 C2563 1.415 . S
C2567 C2565 1.413 . S
C2567 C2597 1.437 . S
H2568 C2597 0.929 . S
N2569 Gd2542 2.570 . S
N2569 C2570 1.359 . S
N2569 C2573 1.343 . S
C2570 C2563 1.422 . S
C2570 N2569 1.359 . S
C2570 C2572 1.421 . S
C2571 C2572 1.422 . S
C2571 C2574 1.321 . S
C2571 H2598 0.931 . S
C2572 C2570 1.421 . S
C2572 C2571 1.422 . S
C2572 C2596 1.417 . S
C2573 H2550 0.931 . S
C2573 N2569 1.343 . S
C2573 C2574 1.390 . S
C2574 H2552 0.930 . S
C2574 C2571 1.321 . S
C2574 C2573 1.390 . S
O2575 Gd2543 2.386 . S
O2575 C2587 1.265 . S
O2576 Gd2542 2.353 . S
O2576 C2587 1.242 . S
O2577 Gd2542 2.468 . S
O2577 C2595 1.263 . S
O2578 Gd2542 2.427 . S
O2578 C2595 1.252 . S
O2579 Gd2543 2.307 . S
O2579 C2588 1.261 . S
O2580 Gd2542 2.388 . S
O2580 C2588 1.252 . S
O2581 Gd2542 2.386 . S
O2581 C2599 1.265 . S
O2582 Gd2543 2.353 . S
O2582 C2599 1.242 . S
O2583 Gd2543 2.468 . S
O2583 C2607 1.263 . S
O2584 Gd2543 2.427 . S
O2584 C2607 1.252 . S
O2585 Gd2542 2.307 . S
O2585 C2600 1.261 . S
O2586 Gd2543 2.388 . S
O2586 C2600 1.252 . S
C2587 O2575 1.265 . S
C2587 O2576 1.242 . S
C2588 O2579 1.261 . S
C2588 O2580 1.252 . S
C2589 C2592 1.394 . S
C2589 C2594 1.370 . S
C2589 C2595 1.500 . S
C2590 C2593 1.383 . S
C2590 C2594 1.395 . S
C2591 C2592 1.396 . S
C2591 C2593 1.365 . S
C2591 H2608 0.929 . S
C2592 C2589 1.394 . S
C2592 C2591 1.396 . S
C2592 H2609 0.930 . S
C2593 C2590 1.383 . S
C2593 C2591 1.365 . S
C2593 H2610 0.931 . S
C2594 C2589 1.370 . S
C2594 C2590 1.395 . S
C2594 H2611 0.930 . S
C2595 Gd2542 2.805 . S
C2595 O2577 1.263 . S
C2595 O2578 1.252 . S
C2595 C2589 1.500 . S
C2596 H2558 0.930 . S
C2596 C2572 1.417 . S
C2596 C2597 1.329 . S
C2597 C2567 1.437 . S
C2597 H2568 0.929 . S
C2597 C2596 1.329 . S
H2598 C2571 0.931 . S
C2599 O2581 1.265 . S
C2599 O2582 1.242 . S
C2600 O2585 1.261 . S
C2600 O2586 1.252 . S
C2601 C2604 1.394 . S
C2601 C2606 1.370 . S
C2601 C2607 1.500 . S
C2602 C2605 1.383 . S
C2602 C2606 1.395 . S
C2603 C2604 1.396 . S
C2603 C2605 1.365 . S
C2603 H2612 0.929 . S
C2604 C2601 1.394 . S
C2604 C2603 1.396 . S
C2604 H2613 0.930 . S
C2605 C2602 1.383 . S
C2605 C2603 1.365 . S
C2605 H2614 0.931 . S
C2606 C2601 1.370 . S
C2606 C2602 1.395 . S
C2606 H2615 0.930 . S
C2607 Gd2543 2.805 . S
C2607 O2583 1.263 . S
C2607 O2584 1.252 . S
C2607 C2601 1.500 . S
H2608 C2591 0.929 . S
H2609 C2592 0.930 . S
H2610 C2593 0.931 . S
H2611 C2594 0.930 . S
H2612 C2603 0.929 . S
H2613 C2604 0.930 . S
H2614 C2605 0.931 . S
H2615 C2606 0.930 . S
C2616 C2618 1.422 1_565 S
C2616 C2620 1.415 . S
C2616 N2622 1.369 . S
C2617 C2618 1.421 . S
C2617 C2619 1.417 . S
C2617 C2629 1.422 . S
C2618 C2616 1.422 1_545 S
C2618 C2617 1.421 . S
C2618 N2628 1.359 . S
C2619 C2617 1.417 . S
C2619 C2621 1.329 1_545 S
C2619 H2638 0.930 . S
C2620 C2616 1.415 . S
C2620 C2621 1.437 . S
C2620 C2624 1.413 . S
C2621 C2619 1.329 1_565 S
C2621 C2620 1.437 . S
C2621 H2643 0.929 . S
N2622 C2616 1.369 . S
N2622 C2623 1.338 . S
N2622 Gd2627 2.622 1_565 S
C2623 N2622 1.338 . S
C2623 C2625 1.378 . S
C2623 H2635 0.929 . S
C2624 C2620 1.413 . S
C2624 C2625 1.348 . S
C2624 H2640 0.931 . S
C2625 C2623 1.378 . S
C2625 C2624 1.348 . S
C2625 H2641 0.930 . S
Gd2626 N2646 2.622 . S
Gd2626 N2653 2.570 . S
Gd2626 O2660 2.353 1_556 S
Gd2626 O2661 2.468 . S
Gd2626 O2662 2.427 . S
Gd2626 O2664 2.388 1_556 S
Gd2626 O2665 2.386 1_556 S
Gd2626 O2669 2.307 1_556 S
Gd2626 C2679 2.805 . S
Gd2627 N2622 2.622 1_545 S
Gd2627 N2628 2.570 . S
Gd2627 O2659 2.386 . S
Gd2627 O2663 2.307 . S
Gd2627 O2666 2.353 . S
Gd2627 O2667 2.468 . S
Gd2627 O2668 2.427 1_545 S
Gd2627 O2670 2.388 1_545 S
Gd2627 C2691 2.795 1_545 S
N2628 C2618 1.359 . S
N2628 Gd2627 2.570 . S
N2628 C2630 1.343 . S
C2629 C2617 1.422 . S
C2629 C2631 1.321 . S
C2629 H2637 0.931 . S
C2630 N2628 1.343 . S
C2630 C2631 1.390 . S
C2630 H2632 0.931 . S
C2631 C2629 1.321 . S
C2631 C2630 1.390 . S
C2631 H2633 0.930 . S
H2632 C2630 0.931 . S
H2633 C2631 0.930 . S
H2634 C2657 0.931 1_565 S
H2635 C2623 0.929 . S
H2636 C2658 0.930 . S
H2637 C2629 0.931 . S
H2638 C2619 0.930 . S
H2639 C2648 0.929 1_554 S
H2640 C2624 0.931 . S
H2641 C2625 0.930 . S
H2642 C2680 0.930 . S
H2643 C2621 0.929 . S
H2644 C2649 0.931 . S
H2645 C2650 0.930 . S
N2646 Gd2626 2.622 . S
N2646 C2647 1.369 . S
N2646 C2648 1.338 . S
C2647 N2646 1.369 . S
C2647 C2651 1.415 . S
C2647 C2654 1.422 . S
C2648 H2639 0.929 1_556 S
C2648 N2646 1.338 . S
C2648 C2650 1.378 . S
C2649 H2644 0.931 . S
C2649 C2650 1.348 . S
C2649 C2651 1.413 . S
C2650 H2645 0.930 . S
C2650 C2648 1.378 . S
C2650 C2649 1.348 . S
C2651 C2647 1.415 . S
C2651 C2649 1.413 . S
C2651 C2681 1.437 . S
H2652 C2681 0.929 . S
N2653 Gd2626 2.570 . S
N2653 C2654 1.359 . S
N2653 C2657 1.343 . S
C2654 C2647 1.422 . S
C2654 N2653 1.359 . S
C2654 C2656 1.421 . S
C2655 C2656 1.422 . S
C2655 C2658 1.321 1_545 S
C2655 H2682 0.931 1_545 S
C2656 C2654 1.421 . S
C2656 C2655 1.422 . S
C2656 C2680 1.417 . S
C2657 H2634 0.931 1_545 S
C2657 N2653 1.343 . S
C2657 C2658 1.390 1_545 S
C2658 H2636 0.930 . S
C2658 C2655 1.321 1_565 S
C2658 C2657 1.390 1_565 S
O2659 Gd2627 2.386 . S
O2659 C2671 1.265 . S
O2660 Gd2626 2.353 1_554 S
O2660 C2671 1.242 . S
O2661 Gd2626 2.468 . S
O2661 C2679 1.263 . S
O2662 Gd2626 2.427 . S
O2662 C2679 1.252 . S
O2663 Gd2627 2.307 . S
O2663 C2672 1.261 . S
O2664 Gd2626 2.388 1_554 S
O2664 C2672 1.252 . S
O2665 Gd2626 2.386 1_554 S
O2665 C2683 1.265 . S
O2666 Gd2627 2.353 . S
O2666 C2683 1.242 . S
O2667 Gd2627 2.468 . S
O2667 C2691 1.223 1_545 S
O2668 Gd2627 2.427 1_565 S
O2668 C2691 1.282 . S
O2669 Gd2626 2.307 1_554 S
O2669 C2684 1.260 1_545 S
O2670 Gd2627 2.388 1_565 S
O2670 C2684 1.252 . S
C2671 O2659 1.265 . S
C2671 O2660 1.242 . S
C2672 O2663 1.261 . S
C2672 O2664 1.252 . S
C2673 C2676 1.394 . S
C2673 C2678 1.370 . S
C2673 C2679 1.500 . S
C2674 C2677 1.383 . S
C2674 C2678 1.395 . S
C2675 C2676 1.396 . S
C2675 C2677 1.365 . S
C2675 H2692 0.929 . S
C2676 C2673 1.394 . S
C2676 C2675 1.396 . S
C2676 H2693 0.930 . S
C2677 C2674 1.383 . S
C2677 C2675 1.365 . S
C2677 H2694 0.931 . S
C2678 C2673 1.370 . S
C2678 C2674 1.395 . S
C2678 H2695 0.930 . S
C2679 Gd2626 2.805 . S
C2679 O2661 1.263 . S
C2679 O2662 1.252 . S
C2679 C2673 1.500 . S
C2680 H2642 0.930 . S
C2680 C2656 1.417 . S
C2680 C2681 1.329 . S
C2681 C2651 1.437 . S
C2681 H2652 0.929 . S
C2681 C2680 1.329 . S
H2682 C2655 0.931 1_565 S
C2683 O2665 1.265 . S
C2683 O2666 1.242 . S
C2684 O2669 1.260 1_565 S
C2684 O2670 1.252 . S
C2685 C2688 1.394 . S
C2685 C2690 1.370 1_565 S
C2685 C2691 1.512 . S
C2686 C2689 1.381 1_545 S
C2686 C2690 1.396 . S
C2687 C2688 1.396 . S
C2687 C2689 1.365 . S
C2687 H2696 0.929 . S
C2688 C2685 1.394 . S
C2688 C2687 1.396 . S
C2688 H2697 0.930 . S
C2689 C2686 1.381 1_565 S
C2689 C2687 1.365 . S
C2689 H2698 0.931 . S
C2690 C2685 1.370 1_545 S
C2690 C2686 1.396 . S
C2690 H2699 0.930 . S
C2691 Gd2627 2.795 1_565 S
C2691 O2667 1.223 1_565 S
C2691 O2668 1.282 . S
C2691 C2685 1.512 . S
H2692 C2675 0.929 . S
H2693 C2676 0.930 . S
H2694 C2677 0.931 . S
H2695 C2678 0.930 . S
H2696 C2687 0.929 . S
H2697 C2688 0.930 . S
H2698 C2689 0.931 . S
H2699 C2690 0.930 . S
C2700 C2702 1.422 . S
C2700 C2704 1.415 . S
C2700 N2706 1.369 . S
C2701 C2702 1.421 . S
C2701 C2703 1.417 . S
C2701 C2713 1.422 . S
C2702 C2700 1.422 . S
C2702 C2701 1.421 . S
C2702 N2712 1.359 . S
C2703 C2701 1.417 . S
C2703 C2705 1.329 . S
C2703 H2722 0.930 . S
C2704 C2700 1.415 . S
C2704 C2705 1.437 . S
C2704 C2708 1.413 . S
C2705 C2703 1.329 . S
C2705 C2704 1.437 . S
C2705 H2727 0.929 . S
N2706 C2700 1.369 . S
N2706 C2707 1.338 . S
N2706 Gd2711 2.622 . S
C2707 N2706 1.338 . S
C2707 C2709 1.378 . S
C2707 H2719 0.929 . S
C2708 C2704 1.413 . S
C2708 C2709 1.348 . S
C2708 H2724 0.931 . S
C2709 C2707 1.378 . S
C2709 C2708 1.348 . S
C2709 H2725 0.930 . S
Gd2710 N2730 2.622 . S
Gd2710 N2737 2.570 . S
Gd2710 O2744 2.353 . S
Gd2710 O2745 2.468 . S
Gd2710 O2746 2.427 . S
Gd2710 O2748 2.388 . S
Gd2710 O2749 2.386 . S
Gd2710 O2753 2.307 . S
Gd2710 C2763 2.805 . S
Gd2711 N2706 2.622 . S
Gd2711 N2712 2.570 . S
Gd2711 O2743 2.386 . S
Gd2711 O2747 2.307 . S
Gd2711 O2750 2.353 . S
Gd2711 O2751 2.468 . S
Gd2711 O2752 2.427 . S
Gd2711 O2754 2.388 . S
Gd2711 C2775 2.805 . S
N2712 C2702 1.359 . S
N2712 Gd2711 2.570 . S
N2712 C2714 1.343 . S
C2713 C2701 1.422 . S
C2713 C2715 1.321 . S
C2713 H2721 0.931 . S
C2714 N2712 1.343 . S
C2714 C2715 1.390 . S
C2714 H2716 0.931 . S
C2715 C2713 1.321 . S
C2715 C2714 1.390 . S
C2715 H2717 0.930 . S
H2716 C2714 0.931 . S
H2717 C2715 0.930 . S
H2718 C2741 0.931 . S
H2719 C2707 0.929 . S
H2720 C2742 0.930 . S
H2721 C2713 0.931 . S
H2722 C2703 0.930 . S
H2723 C2732 0.929 . S
H2724 C2708 0.931 . S
H2725 C2709 0.930 . S
H2726 C2764 0.930 . S
H2727 C2705 0.929 . S
H2728 C2733 0.931 . S
H2729 C2734 0.930 . S
N2730 Gd2710 2.622 . S
N2730 C2731 1.369 . S
N2730 C2732 1.338 . S
C2731 N2730 1.369 . S
C2731 C2735 1.415 . S
C2731 C2738 1.422 . S
C2732 H2723 0.929 . S
C2732 N2730 1.338 . S
C2732 C2734 1.378 . S
C2733 H2728 0.931 . S
C2733 C2734 1.348 . S
C2733 C2735 1.413 . S
C2734 H2729 0.930 . S
C2734 C2732 1.378 . S
C2734 C2733 1.348 . S
C2735 C2731 1.415 . S
C2735 C2733 1.413 . S
C2735 C2765 1.437 . S
H2736 C2765 0.929 . S
N2737 Gd2710 2.570 . S
N2737 C2738 1.359 . S
N2737 C2741 1.343 . S
C2738 C2731 1.422 . S
C2738 N2737 1.359 . S
C2738 C2740 1.421 . S
C2739 C2740 1.422 . S
C2739 C2742 1.321 . S
C2739 H2766 0.931 . S
C2740 C2738 1.421 . S
C2740 C2739 1.422 . S
C2740 C2764 1.417 . S
C2741 H2718 0.931 . S
C2741 N2737 1.343 . S
C2741 C2742 1.390 . S
C2742 H2720 0.930 . S
C2742 C2739 1.321 . S
C2742 C2741 1.390 . S
O2743 Gd2711 2.386 . S
O2743 C2755 1.265 . S
O2744 Gd2710 2.353 . S
O2744 C2755 1.242 . S
O2745 Gd2710 2.468 . S
O2745 C2763 1.263 . S
O2746 Gd2710 2.427 . S
O2746 C2763 1.252 . S
O2747 Gd2711 2.307 . S
O2747 C2756 1.261 . S
O2748 Gd2710 2.388 . S
O2748 C2756 1.252 . S
O2749 Gd2710 2.386 . S
O2749 C2767 1.265 . S
O2750 Gd2711 2.353 . S
O2750 C2767 1.242 . S
O2751 Gd2711 2.468 . S
O2751 C2775 1.263 . S
O2752 Gd2711 2.427 . S
O2752 C2775 1.252 . S
O2753 Gd2710 2.307 . S
O2753 C2768 1.261 . S
O2754 Gd2711 2.388 . S
O2754 C2768 1.252 . S
C2755 O2743 1.265 . S
C2755 O2744 1.242 . S
C2756 O2747 1.261 . S
C2756 O2748 1.252 . S
C2757 C2760 1.394 . S
C2757 C2762 1.370 . S
C2757 C2763 1.500 . S
C2758 C2761 1.383 . S
C2758 C2762 1.395 . S
C2759 C2760 1.396 . S
C2759 C2761 1.365 . S
C2759 H2776 0.929 . S
C2760 C2757 1.394 . S
C2760 C2759 1.396 . S
C2760 H2777 0.930 . S
C2761 C2758 1.383 . S
C2761 C2759 1.365 . S
C2761 H2778 0.931 . S
C2762 C2757 1.370 . S
C2762 C2758 1.395 . S
C2762 H2779 0.930 . S
C2763 Gd2710 2.805 . S
C2763 O2745 1.263 . S
C2763 O2746 1.252 . S
C2763 C2757 1.500 . S
C2764 H2726 0.930 . S
C2764 C2740 1.417 . S
C2764 C2765 1.329 . S
C2765 C2735 1.437 . S
C2765 H2736 0.929 . S
C2765 C2764 1.329 . S
H2766 C2739 0.931 . S
C2767 O2749 1.265 . S
C2767 O2750 1.242 . S
C2768 O2753 1.261 . S
C2768 O2754 1.252 . S
C2769 C2772 1.394 . S
C2769 C2774 1.370 . S
C2769 C2775 1.500 . S
C2770 C2773 1.383 . S
C2770 C2774 1.395 . S
C2771 C2772 1.396 . S
C2771 C2773 1.365 . S
C2771 H2780 0.929 . S
C2772 C2769 1.394 . S
C2772 C2771 1.396 . S
C2772 H2781 0.930 . S
C2773 C2770 1.383 . S
C2773 C2771 1.365 . S
C2773 H2782 0.931 . S
C2774 C2769 1.370 . S
C2774 C2770 1.395 . S
C2774 H2783 0.930 . S
C2775 Gd2711 2.805 . S
C2775 O2751 1.263 . S
C2775 O2752 1.252 . S
C2775 C2769 1.500 . S
H2776 C2759 0.929 . S
H2777 C2760 0.930 . S
H2778 C2761 0.931 . S
H2779 C2762 0.930 . S
H2780 C2771 0.929 . S
H2781 C2772 0.930 . S
H2782 C2773 0.931 . S
H2783 C2774 0.930 . S
C2784 C2786 1.422 . S
C2784 C2788 1.415 . S
C2784 N2790 1.369 . S
C2785 C2786 1.421 . S
C2785 C2787 1.417 . S
C2785 C2797 1.422 . S
C2786 C2784 1.422 . S
C2786 C2785 1.421 . S
C2786 N2796 1.359 . S
C2787 C2785 1.417 . S
C2787 C2789 1.329 . S
C2787 H2806 0.930 . S
C2788 C2784 1.415 . S
C2788 C2789 1.437 . S
C2788 C2792 1.413 . S
C2789 C2787 1.329 . S
C2789 C2788 1.437 . S
C2789 H2811 0.929 . S
N2790 C2784 1.369 . S
N2790 C2791 1.338 . S
N2790 Gd2795 2.622 . S
C2791 N2790 1.338 . S
C2791 C2793 1.378 . S
C2791 H2803 0.929 . S
C2792 C2788 1.413 . S
C2792 C2793 1.348 . S
C2792 H2808 0.931 . S
C2793 C2791 1.378 . S
C2793 C2792 1.348 . S
C2793 H2809 0.930 . S
Gd2794 N2814 2.622 1_554 S
Gd2794 N2821 2.570 1_554 S
Gd2794 O2828 2.353 . S
Gd2794 O2829 2.468 . S
Gd2794 O2830 2.427 . S
Gd2794 O2832 2.388 . S
Gd2794 O2833 2.386 1_554 S
Gd2794 O2837 2.307 . S
Gd2794 C2847 2.805 . S
Gd2795 N2790 2.622 . S
Gd2795 N2796 2.570 . S
Gd2795 O2827 2.386 . S
Gd2795 O2831 2.307 . S
Gd2795 O2834 2.353 1_554 S
Gd2795 O2835 2.468 . S
Gd2795 O2836 2.427 . S
Gd2795 O2838 2.388 . S
Gd2795 C2859 2.805 . S
N2796 C2786 1.359 . S
N2796 Gd2795 2.570 . S
N2796 C2798 1.343 . S
C2797 C2785 1.422 . S
C2797 C2799 1.321 . S
C2797 H2805 0.931 . S
C2798 N2796 1.343 . S
C2798 C2799 1.390 . S
C2798 H2800 0.931 . S
C2799 C2797 1.321 . S
C2799 C2798 1.390 . S
C2799 H2801 0.930 . S
H2800 C2798 0.931 . S
H2801 C2799 0.930 . S
H2802 C2825 0.931 1_554 S
H2803 C2791 0.929 . S
H2804 C2826 0.930 . S
H2805 C2797 0.931 . S
H2806 C2787 0.930 . S
H2807 C2816 0.929 1_554 S
H2808 C2792 0.931 . S
H2809 C2793 0.930 . S
H2810 C2848 0.930 . S
H2811 C2789 0.929 . S
H2812 C2817 0.931 . S
H2813 C2818 0.930 . S
N2814 Gd2794 2.622 1_556 S
N2814 C2815 1.369 . S
N2814 C2816 1.338 . S
C2815 N2814 1.369 . S
C2815 C2819 1.415 . S
C2815 C2822 1.422 . S
C2816 H2807 0.929 1_556 S
C2816 N2814 1.338 . S
C2816 C2818 1.378 . S
C2817 H2812 0.931 . S
C2817 C2818 1.348 . S
C2817 C2819 1.413 . S
C2818 H2813 0.930 . S
C2818 C2816 1.378 . S
C2818 C2817 1.348 . S
C2819 C2815 1.415 . S
C2819 C2817 1.413 . S
C2819 C2849 1.437 . S
H2820 C2849 0.929 . S
N2821 Gd2794 2.570 1_556 S
N2821 C2822 1.359 . S
N2821 C2825 1.343 . S
C2822 C2815 1.422 . S
C2822 N2821 1.359 . S
C2822 C2824 1.421 . S
C2823 C2824 1.422 . S
C2823 C2826 1.321 . S
C2823 H2850 0.931 . S
C2824 C2822 1.421 . S
C2824 C2823 1.422 . S
C2824 C2848 1.417 . S
C2825 H2802 0.931 1_556 S
C2825 N2821 1.343 . S
C2825 C2826 1.390 . S
C2826 H2804 0.930 . S
C2826 C2823 1.321 . S
C2826 C2825 1.390 . S
O2827 Gd2795 2.386 . S
O2827 C2839 1.265 . S
O2828 Gd2794 2.353 . S
O2828 C2839 1.242 . S
O2829 Gd2794 2.468 . S
O2829 C2847 1.263 . S
O2830 Gd2794 2.427 . S
O2830 C2847 1.252 . S
O2831 Gd2795 2.307 . S
O2831 C2840 1.261 . S
O2832 Gd2794 2.388 . S
O2832 C2840 1.252 . S
O2833 Gd2794 2.386 1_556 S
O2833 C2851 1.265 . S
O2834 Gd2795 2.353 1_556 S
O2834 C2851 1.242 . S
O2835 Gd2795 2.468 . S
O2835 C2859 1.263 . S
O2836 Gd2795 2.427 . S
O2836 C2859 1.252 . S
O2837 Gd2794 2.307 . S
O2837 C2852 1.261 . S
O2838 Gd2795 2.388 . S
O2838 C2852 1.252 . S
C2839 O2827 1.265 . S
C2839 O2828 1.242 . S
C2840 O2831 1.261 . S
C2840 O2832 1.252 . S
C2841 C2844 1.394 . S
C2841 C2846 1.370 . S
C2841 C2847 1.500 . S
C2842 C2845 1.383 . S
C2842 C2846 1.395 . S
C2843 C2844 1.396 . S
C2843 C2845 1.365 . S
C2843 H2860 0.929 . S
C2844 C2841 1.394 . S
C2844 C2843 1.396 . S
C2844 H2861 0.930 . S
C2845 C2842 1.383 . S
C2845 C2843 1.365 . S
C2845 H2862 0.931 . S
C2846 C2841 1.370 . S
C2846 C2842 1.395 . S
C2846 H2863 0.930 . S
C2847 Gd2794 2.805 . S
C2847 O2829 1.263 . S
C2847 O2830 1.252 . S
C2847 C2841 1.500 . S
C2848 H2810 0.930 . S
C2848 C2824 1.417 . S
C2848 C2849 1.329 . S
C2849 C2819 1.437 . S
C2849 H2820 0.929 . S
C2849 C2848 1.329 . S
H2850 C2823 0.931 . S
C2851 O2833 1.265 . S
C2851 O2834 1.242 . S
C2852 O2837 1.261 . S
C2852 O2838 1.252 . S
C2853 C2856 1.394 . S
C2853 C2858 1.370 . S
C2853 C2859 1.500 1_556 S
C2854 C2857 1.383 . S
C2854 C2858 1.395 . S
C2855 C2856 1.396 . S
C2855 C2857 1.365 . S
C2855 H2864 0.929 . S
C2856 C2853 1.394 . S
C2856 C2855 1.396 . S
C2856 H2865 0.930 . S
C2857 C2854 1.383 . S
C2857 C2855 1.365 . S
C2857 H2866 0.931 . S
C2858 C2853 1.370 . S
C2858 C2854 1.395 . S
C2858 H2867 0.930 . S
C2859 Gd2795 2.805 . S
C2859 O2835 1.263 . S
C2859 O2836 1.252 . S
C2859 C2853 1.500 1_554 S
H2860 C2843 0.929 . S
H2861 C2844 0.930 . S
H2862 C2845 0.931 . S
H2863 C2846 0.930 . S
H2864 C2855 0.929 . S
H2865 C2856 0.930 . S
H2866 C2857 0.931 . S
H2867 C2858 0.930 . S
C2868 C2870 1.422 . S
C2868 C2872 1.415 . S
C2868 N2874 1.369 . S
C2869 C2870 1.421 . S
C2869 C2871 1.417 . S
C2869 C2881 1.422 . S
C2870 C2868 1.422 . S
C2870 C2869 1.421 . S
C2870 N2880 1.359 . S
C2871 C2869 1.417 . S
C2871 C2873 1.329 . S
C2871 H2890 0.930 . S
C2872 C2868 1.415 . S
C2872 C2873 1.437 . S
C2872 C2876 1.413 . S
C2873 C2871 1.329 . S
C2873 C2872 1.437 . S
C2873 H2895 0.929 . S
N2874 C2868 1.369 . S
N2874 C2875 1.338 . S
N2874 Gd2879 2.622 . S
C2875 N2874 1.338 . S
C2875 C2877 1.378 . S
C2875 H2887 0.929 . S
C2876 C2872 1.413 . S
C2876 C2877 1.348 . S
C2876 H2892 0.931 . S
C2877 C2875 1.378 . S
C2877 C2876 1.348 . S
C2877 H2893 0.930 . S
Gd2878 N2898 2.622 . S
Gd2878 N2905 2.570 . S
Gd2878 O2912 2.353 . S
Gd2878 O2913 2.468 . S
Gd2878 O2914 2.427 . S
Gd2878 O2916 2.388 . S
Gd2878 O2917 2.386 . S
Gd2878 O2921 2.307 . S
Gd2878 C2931 2.805 . S
Gd2879 N2874 2.622 . S
Gd2879 N2880 2.570 . S
Gd2879 O2911 2.386 . S
Gd2879 O2915 2.307 . S
Gd2879 O2918 2.353 . S
Gd2879 O2919 2.468 . S
Gd2879 O2920 2.427 . S
Gd2879 O2922 2.388 . S
Gd2879 C2943 2.805 . S
N2880 C2870 1.359 . S
N2880 Gd2879 2.570 . S
N2880 C2882 1.343 . S
C2881 C2869 1.422 . S
C2881 C2883 1.321 . S
C2881 H2889 0.931 . S
C2882 N2880 1.343 . S
C2882 C2883 1.390 . S
C2882 H2884 0.931 . S
C2883 C2881 1.321 . S
C2883 C2882 1.390 . S
C2883 H2885 0.930 . S
H2884 C2882 0.931 . S
H2885 C2883 0.930 . S
H2886 C2909 0.931 . S
H2887 C2875 0.929 . S
H2888 C2910 0.930 . S
H2889 C2881 0.931 . S
H2890 C2871 0.930 . S
H2891 C2900 0.929 . S
H2892 C2876 0.931 . S
H2893 C2877 0.930 . S
H2894 C2932 0.930 . S
H2895 C2873 0.929 . S
H2896 C2901 0.931 . S
H2897 C2902 0.930 . S
N2898 Gd2878 2.622 . S
N2898 C2899 1.369 . S
N2898 C2900 1.338 . S
C2899 N2898 1.369 . S
C2899 C2903 1.415 . S
C2899 C2906 1.422 . S
C2900 H2891 0.929 . S
C2900 N2898 1.338 . S
C2900 C2902 1.378 . S
C2901 H2896 0.931 . S
C2901 C2902 1.348 . S
C2901 C2903 1.413 . S
C2902 H2897 0.930 . S
C2902 C2900 1.378 . S
C2902 C2901 1.348 . S
C2903 C2899 1.415 . S
C2903 C2901 1.413 . S
C2903 C2933 1.437 . S
H2904 C2933 0.929 . S
N2905 Gd2878 2.570 . S
N2905 C2906 1.359 . S
N2905 C2909 1.343 . S
C2906 C2899 1.422 . S
C2906 N2905 1.359 . S
C2906 C2908 1.421 . S
C2907 C2908 1.422 . S
C2907 C2910 1.321 . S
C2907 H2934 0.931 . S
C2908 C2906 1.421 . S
C2908 C2907 1.422 . S
C2908 C2932 1.417 . S
C2909 H2886 0.931 . S
C2909 N2905 1.343 . S
C2909 C2910 1.390 . S
C2910 H2888 0.930 . S
C2910 C2907 1.321 . S
C2910 C2909 1.390 . S
O2911 Gd2879 2.386 . S
O2911 C2923 1.265 . S
O2912 Gd2878 2.353 . S
O2912 C2923 1.242 . S
O2913 Gd2878 2.468 . S
O2913 C2931 1.263 . S
O2914 Gd2878 2.427 . S
O2914 C2931 1.252 . S
O2915 Gd2879 2.307 . S
O2915 C2924 1.261 . S
O2916 Gd2878 2.388 . S
O2916 C2924 1.252 . S
O2917 Gd2878 2.386 . S
O2917 C2935 1.265 . S
O2918 Gd2879 2.353 . S
O2918 C2935 1.242 . S
O2919 Gd2879 2.468 . S
O2919 C2943 1.263 . S
O2920 Gd2879 2.427 . S
O2920 C2943 1.252 . S
O2921 Gd2878 2.307 . S
O2921 C2936 1.261 . S
O2922 Gd2879 2.388 . S
O2922 C2936 1.252 . S
C2923 O2911 1.265 . S
C2923 O2912 1.242 . S
C2924 O2915 1.261 . S
C2924 O2916 1.252 . S
C2925 C2928 1.394 . S
C2925 C2930 1.370 . S
C2925 C2931 1.500 . S
C2926 C2929 1.383 . S
C2926 C2930 1.395 . S
C2927 C2928 1.396 . S
C2927 C2929 1.365 . S
C2927 H2944 0.929 . S
C2928 C2925 1.394 . S
C2928 C2927 1.396 . S
C2928 H2945 0.930 . S
C2929 C2926 1.383 . S
C2929 C2927 1.365 . S
C2929 H2946 0.931 . S
C2930 C2925 1.370 . S
C2930 C2926 1.395 . S
C2930 H2947 0.930 . S
C2931 Gd2878 2.805 . S
C2931 O2913 1.263 . S
C2931 O2914 1.252 . S
C2931 C2925 1.500 . S
C2932 H2894 0.930 . S
C2932 C2908 1.417 . S
C2932 C2933 1.329 . S
C2933 C2903 1.437 . S
C2933 H2904 0.929 . S
C2933 C2932 1.329 . S
H2934 C2907 0.931 . S
C2935 O2917 1.265 . S
C2935 O2918 1.242 . S
C2936 O2921 1.261 . S
C2936 O2922 1.252 . S
C2937 C2940 1.394 . S
C2937 C2942 1.370 . S
C2937 C2943 1.500 . S
C2938 C2941 1.383 . S
C2938 C2942 1.395 . S
C2939 C2940 1.396 . S
C2939 C2941 1.365 . S
C2939 H2948 0.929 . S
C2940 C2937 1.394 . S
C2940 C2939 1.396 . S
C2940 H2949 0.930 . S
C2941 C2938 1.383 . S
C2941 C2939 1.365 . S
C2941 H2950 0.931 . S
C2942 C2937 1.370 . S
C2942 C2938 1.395 . S
C2942 H2951 0.930 . S
C2943 Gd2879 2.805 . S
C2943 O2919 1.263 . S
C2943 O2920 1.252 . S
C2943 C2937 1.500 . S
H2944 C2927 0.929 . S
H2945 C2928 0.930 . S
H2946 C2929 0.931 . S
H2947 C2930 0.930 . S
H2948 C2939 0.929 . S
H2949 C2940 0.930 . S
H2950 C2941 0.931 . S
H2951 C2942 0.930 . S
C2952 C2954 1.422 . S
C2952 C2956 1.415 . S
C2952 N2958 1.369 . S
C2953 C2954 1.421 . S
C2953 C2955 1.417 . S
C2953 C2965 1.422 . S
C2954 C2952 1.422 . S
C2954 C2953 1.421 . S
C2954 N2964 1.359 . S
C2955 C2953 1.417 . S
C2955 C2957 1.329 . S
C2955 H2974 0.930 . S
C2956 C2952 1.415 . S
C2956 C2957 1.437 . S
C2956 C2960 1.413 . S
C2957 C2955 1.329 . S
C2957 C2956 1.437 . S
C2957 H2979 0.929 . S
N2958 C2952 1.369 . S
N2958 C2959 1.338 . S
N2958 Gd2963 2.622 . S
C2959 N2958 1.338 . S
C2959 C2961 1.378 . S
C2959 H2971 0.929 . S
C2960 C2956 1.413 . S
C2960 C2961 1.348 . S
C2960 H2976 0.931 . S
C2961 C2959 1.378 . S
C2961 C2960 1.348 . S
C2961 H2977 0.930 . S
Gd2962 N2982 2.622 1_455 S
Gd2962 N2989 2.570 1_455 S
Gd2962 O2996 2.353 . S
Gd2962 O2997 2.468 . S
Gd2962 O2998 2.427 . S
Gd2962 O3000 2.388 . S
Gd2962 O3001 2.386 1_455 S
Gd2962 O3005 2.307 . S
Gd2962 C3015 2.805 . S
Gd2963 N2958 2.622 . S
Gd2963 N2964 2.570 . S
Gd2963 O2995 2.386 . S
Gd2963 O2999 2.307 . S
Gd2963 O3002 2.353 1_455 S
Gd2963 O3003 2.468 . S
Gd2963 O3004 2.427 . S
Gd2963 O3006 2.388 . S
Gd2963 C3027 2.805 . S
N2964 C2954 1.359 . S
N2964 Gd2963 2.570 . S
N2964 C2966 1.343 . S
C2965 C2953 1.422 . S
C2965 C2967 1.321 . S
C2965 H2973 0.931 . S
C2966 N2964 1.343 . S
C2966 C2967 1.390 . S
C2966 H2968 0.931 . S
C2967 C2965 1.321 . S
C2967 C2966 1.390 . S
C2967 H2969 0.930 . S
H2968 C2966 0.931 . S
H2969 C2967 0.930 . S
H2970 C2993 0.931 1_455 S
H2971 C2959 0.929 . S
H2972 C2994 0.930 . S
H2973 C2965 0.931 . S
H2974 C2955 0.930 . S
H2975 C2984 0.917 1_455 S
H2976 C2960 0.931 . S
H2977 C2961 0.930 . S
H2978 C3016 0.930 . S
H2979 C2957 0.929 . S
H2980 C2985 0.931 . S
H2981 C2986 0.930 . S
N2982 Gd2962 2.622 1_655 S
N2982 C2983 1.369 . S
N2982 C2984 1.334 . S
C2983 N2982 1.369 . S
C2983 C2987 1.415 . S
C2983 C2990 1.422 . S
C2984 H2975 0.917 1_655 S
C2984 N2982 1.334 . S
C2984 C2986 1.394 . S
C2985 H2980 0.931 . S
C2985 C2986 1.348 . S
C2985 C2987 1.413 . S
C2986 H2981 0.930 . S
C2986 C2984 1.394 . S
C2986 C2985 1.348 . S
C2987 C2983 1.415 . S
C2987 C2985 1.413 . S
C2987 C3017 1.437 . S
H2988 C3017 0.929 . S
N2989 Gd2962 2.570 1_655 S
N2989 C2990 1.359 . S
N2989 C2993 1.343 . S
C2990 C2983 1.422 . S
C2990 N2989 1.359 . S
C2990 C2992 1.421 . S
C2991 C2992 1.422 . S
C2991 C2994 1.321 . S
C2991 H3018 0.931 . S
C2992 C2990 1.421 . S
C2992 C2991 1.422 . S
C2992 C3016 1.417 . S
C2993 H2970 0.931 1_655 S
C2993 N2989 1.343 . S
C2993 C2994 1.390 . S
C2994 H2972 0.930 . S
C2994 C2991 1.321 . S
C2994 C2993 1.390 . S
O2995 Gd2963 2.386 . S
O2995 C3007 1.265 . S
O2996 Gd2962 2.353 . S
O2996 C3007 1.242 . S
O2997 Gd2962 2.468 . S
O2997 C3015 1.263 . S
O2998 Gd2962 2.427 . S
O2998 C3015 1.252 . S
O2999 Gd2963 2.307 . S
O2999 C3008 1.261 . S
O3000 Gd2962 2.388 . S
O3000 C3008 1.252 . S
O3001 Gd2962 2.386 1_655 S
O3001 C3019 1.265 . S
O3002 Gd2963 2.353 1_655 S
O3002 C3019 1.242 . S
O3003 Gd2963 2.468 . S
O3003 C3027 1.263 . S
O3004 Gd2963 2.427 . S
O3004 C3027 1.252 . S
O3005 Gd2962 2.307 . S
O3005 C3020 1.261 . S
O3006 Gd2963 2.388 . S
O3006 C3020 1.252 . S
C3007 O2995 1.265 . S
C3007 O2996 1.242 . S
C3008 O2999 1.261 . S
C3008 O3000 1.252 . S
C3009 C3012 1.394 . S
C3009 C3014 1.370 . S
C3009 C3015 1.500 . S
C3010 C3013 1.383 . S
C3010 C3014 1.395 . S
C3011 C3012 1.396 . S
C3011 C3013 1.365 . S
C3011 H3028 0.929 . S
C3012 C3009 1.394 . S
C3012 C3011 1.396 . S
C3012 H3029 0.930 . S
C3013 C3010 1.383 . S
C3013 C3011 1.365 . S
C3013 H3030 0.931 . S
C3014 C3009 1.370 . S
C3014 C3010 1.395 . S
C3014 H3031 0.930 . S
C3015 Gd2962 2.805 . S
C3015 O2997 1.263 . S
C3015 O2998 1.252 . S
C3015 C3009 1.500 . S
C3016 H2978 0.930 . S
C3016 C2992 1.417 . S
C3016 C3017 1.329 . S
C3017 C2987 1.437 . S
C3017 H2988 0.929 . S
C3017 C3016 1.329 . S
H3018 C2991 0.931 . S
C3019 O3001 1.265 . S
C3019 O3002 1.242 . S
C3020 O3005 1.261 . S
C3020 O3006 1.252 . S
C3021 C3024 1.394 . S
C3021 C3026 1.370 . S
C3021 C3027 1.500 1_655 S
C3022 C3025 1.383 . S
C3022 C3026 1.395 . S
C3023 C3024 1.396 . S
C3023 C3025 1.365 . S
C3023 H3032 0.929 . S
C3024 C3021 1.394 . S
C3024 C3023 1.396 . S
C3024 H3033 0.930 . S
C3025 C3022 1.383 . S
C3025 C3023 1.365 . S
C3025 H3034 0.931 . S
C3026 C3021 1.370 . S
C3026 C3022 1.395 . S
C3026 H3035 0.930 . S
C3027 Gd2963 2.805 . S
C3027 O3003 1.263 . S
C3027 O3004 1.252 . S
C3027 C3021 1.500 1_455 S
H3028 C3011 0.929 . S
H3029 C3012 0.930 . S
H3030 C3013 0.931 . S
H3031 C3014 0.930 . S
H3032 C3023 0.929 . S
H3033 C3024 0.930 . S
H3034 C3025 0.931 . S
H3035 C3026 0.930 . S
C3036 C3038 1.422 . S
C3036 C3040 1.415 . S
C3036 N3042 1.369 . S
C3037 C3038 1.421 . S
C3037 C3039 1.417 . S
C3037 C3049 1.422 . S
C3038 C3036 1.422 . S
C3038 C3037 1.421 . S
C3038 N3048 1.359 . S
C3039 C3037 1.417 . S
C3039 C3041 1.329 . S
C3039 H3058 0.930 . S
C3040 C3036 1.415 . S
C3040 C3041 1.437 . S
C3040 C3044 1.413 . S
C3041 C3039 1.329 . S
C3041 C3040 1.437 . S
C3041 H3063 0.929 . S
N3042 C3036 1.369 . S
N3042 C3043 1.338 . S
N3042 Gd3047 2.622 . S
C3043 N3042 1.338 . S
C3043 C3045 1.378 . S
C3043 H3055 0.929 . S
C3044 C3040 1.413 . S
C3044 C3045 1.348 . S
C3044 H3060 0.931 . S
C3045 C3043 1.378 . S
C3045 C3044 1.348 . S
C3045 H3061 0.930 . S
Gd3046 N3066 2.622 . S
Gd3046 N3073 2.570 . S
Gd3046 O3080 2.353 . S
Gd3046 O3081 2.468 . S
Gd3046 O3082 2.427 . S
Gd3046 O3084 2.388 . S
Gd3046 O3085 2.386 . S
Gd3046 O3089 2.307 . S
Gd3046 C3099 2.805 . S
Gd3047 N3042 2.622 . S
Gd3047 N3048 2.570 . S
Gd3047 O3079 2.386 . S
Gd3047 O3083 2.307 . S
Gd3047 O3086 2.353 . S
Gd3047 O3087 2.468 . S
Gd3047 O3088 2.427 . S
Gd3047 O3090 2.388 . S
Gd3047 C3111 2.805 . S
N3048 C3038 1.359 . S
N3048 Gd3047 2.570 . S
N3048 C3050 1.343 . S
C3049 C3037 1.422 . S
C3049 C3051 1.321 . S
C3049 H3057 0.931 . S
C3050 N3048 1.343 . S
C3050 C3051 1.390 . S
C3050 H3052 0.931 . S
C3051 C3049 1.321 . S
C3051 C3050 1.390 . S
C3051 H3053 0.930 . S
H3052 C3050 0.931 . S
H3053 C3051 0.930 . S
H3054 C3077 0.931 . S
H3055 C3043 0.929 . S
H3056 C3078 0.930 . S
H3057 C3049 0.931 . S
H3058 C3039 0.930 . S
H3059 C3068 0.929 . S
H3060 C3044 0.931 . S
H3061 C3045 0.930 . S
H3062 C3100 0.930 . S
H3063 C3041 0.929 . S
H3064 C3069 0.931 . S
H3065 C3070 0.930 . S
N3066 Gd3046 2.622 . S
N3066 C3067 1.369 . S
N3066 C3068 1.338 . S
C3067 N3066 1.369 . S
C3067 C3071 1.415 . S
C3067 C3074 1.422 . S
C3068 H3059 0.929 . S
C3068 N3066 1.338 . S
C3068 C3070 1.378 . S
C3069 H3064 0.931 . S
C3069 C3070 1.348 . S
C3069 C3071 1.413 . S
C3070 H3065 0.930 . S
C3070 C3068 1.378 . S
C3070 C3069 1.348 . S
C3071 C3067 1.415 . S
C3071 C3069 1.413 . S
C3071 C3101 1.437 . S
H3072 C3101 0.929 . S
N3073 Gd3046 2.570 . S
N3073 C3074 1.359 . S
N3073 C3077 1.343 . S
C3074 C3067 1.422 . S
C3074 N3073 1.359 . S
C3074 C3076 1.421 . S
C3075 C3076 1.422 . S
C3075 C3078 1.321 . S
C3075 H3102 0.931 . S
C3076 C3074 1.421 . S
C3076 C3075 1.422 . S
C3076 C3100 1.417 . S
C3077 H3054 0.931 . S
C3077 N3073 1.343 . S
C3077 C3078 1.390 . S
C3078 H3056 0.930 . S
C3078 C3075 1.321 . S
C3078 C3077 1.390 . S
O3079 Gd3047 2.386 . S
O3079 C3091 1.265 . S
O3080 Gd3046 2.353 . S
O3080 C3091 1.242 . S
O3081 Gd3046 2.468 . S
O3081 C3099 1.263 . S
O3082 Gd3046 2.427 . S
O3082 C3099 1.252 . S
O3083 Gd3047 2.307 . S
O3083 C3092 1.261 . S
O3084 Gd3046 2.388 . S
O3084 C3092 1.252 . S
O3085 Gd3046 2.386 . S
O3085 C3103 1.265 . S
O3086 Gd3047 2.353 . S
O3086 C3103 1.242 . S
O3087 Gd3047 2.468 . S
O3087 C3111 1.263 . S
O3088 Gd3047 2.427 . S
O3088 C3111 1.252 . S
O3089 Gd3046 2.307 . S
O3089 C3104 1.261 . S
O3090 Gd3047 2.388 . S
O3090 C3104 1.252 . S
C3091 O3079 1.265 . S
C3091 O3080 1.242 . S
C3092 O3083 1.261 . S
C3092 O3084 1.252 . S
C3093 C3096 1.394 . S
C3093 C3098 1.370 . S
C3093 C3099 1.500 . S
C3094 C3097 1.383 . S
C3094 C3098 1.395 . S
C3095 C3096 1.396 . S
C3095 C3097 1.365 . S
C3095 H3112 0.929 . S
C3096 C3093 1.394 . S
C3096 C3095 1.396 . S
C3096 H3113 0.930 . S
C3097 C3094 1.383 . S
C3097 C3095 1.365 . S
C3097 H3114 0.931 . S
C3098 C3093 1.370 . S
C3098 C3094 1.395 . S
C3098 H3115 0.930 . S
C3099 Gd3046 2.805 . S
C3099 O3081 1.263 . S
C3099 O3082 1.252 . S
C3099 C3093 1.500 . S
C3100 H3062 0.930 . S
C3100 C3076 1.417 . S
C3100 C3101 1.329 . S
C3101 C3071 1.437 . S
C3101 H3072 0.929 . S
C3101 C3100 1.329 . S
H3102 C3075 0.931 . S
C3103 O3085 1.265 . S
C3103 O3086 1.242 . S
C3104 O3089 1.261 . S
C3104 O3090 1.252 . S
C3105 C3108 1.394 . S
C3105 C3110 1.370 . S
C3105 C3111 1.500 . S
C3106 C3109 1.383 . S
C3106 C3110 1.395 . S
C3107 C3108 1.396 . S
C3107 C3109 1.365 . S
C3107 H3116 0.929 . S
C3108 C3105 1.394 . S
C3108 C3107 1.396 . S
C3108 H3117 0.930 . S
C3109 C3106 1.383 . S
C3109 C3107 1.365 . S
C3109 H3118 0.931 . S
C3110 C3105 1.370 . S
C3110 C3106 1.395 . S
C3110 H3119 0.930 . S
C3111 Gd3047 2.805 . S
C3111 O3087 1.263 . S
C3111 O3088 1.252 . S
C3111 C3105 1.500 . S
H3112 C3095 0.929 . S
H3113 C3096 0.930 . S
H3114 C3097 0.931 . S
H3115 C3098 0.930 . S
H3116 C3107 0.929 . S
H3117 C3108 0.930 . S
H3118 C3109 0.931 . S
H3119 C3110 0.930 . S
C3120 C3122 1.422 . S
C3120 C3124 1.415 . S
C3120 N3126 1.369 . S
C3121 C3122 1.421 . S
C3121 C3123 1.417 . S
C3121 C3133 1.422 . S
C3122 C3120 1.422 . S
C3122 C3121 1.421 . S
C3122 N3132 1.359 . S
C3123 C3121 1.417 . S
C3123 C3125 1.329 . S
C3123 H3142 0.930 . S
C3124 C3120 1.415 . S
C3124 C3125 1.437 . S
C3124 C3128 1.413 . S
C3125 C3123 1.329 . S
C3125 C3124 1.437 . S
C3125 H3147 0.929 . S
N3126 C3120 1.369 . S
N3126 C3127 1.338 . S
N3126 Gd3131 2.622 . S
C3127 N3126 1.338 . S
C3127 C3129 1.378 . S
C3127 H3139 0.929 . S
C3128 C3124 1.413 . S
C3128 C3129 1.348 . S
C3128 H3144 0.931 . S
C3129 C3127 1.378 . S
C3129 C3128 1.348 . S
C3129 H3145 0.930 . S
Gd3130 N3150 2.622 . S
Gd3130 N3157 2.570 . S
Gd3130 O3164 2.353 . S
Gd3130 O3165 2.468 . S
Gd3130 O3166 2.427 . S
Gd3130 O3168 2.388 . S
Gd3130 O3169 2.386 . S
Gd3130 O3173 2.307 . S
Gd3130 C3183 2.805 . S
Gd3131 N3126 2.622 . S
Gd3131 N3132 2.570 . S
Gd3131 O3163 2.386 . S
Gd3131 O3167 2.307 . S
Gd3131 O3170 2.353 . S
Gd3131 O3171 2.468 . S
Gd3131 O3172 2.427 . S
Gd3131 O3174 2.388 . S
Gd3131 C3195 2.805 . S
N3132 C3122 1.359 . S
N3132 Gd3131 2.570 . S
N3132 C3134 1.343 . S
C3133 C3121 1.422 . S
C3133 C3135 1.321 . S
C3133 H3141 0.931 . S
C3134 N3132 1.343 . S
C3134 C3135 1.390 . S
C3134 H3136 0.931 . S
C3135 C3133 1.321 . S
C3135 C3134 1.390 . S
C3135 H3137 0.930 . S
H3136 C3134 0.931 . S
H3137 C3135 0.930 . S
H3138 C3161 0.931 . S
H3139 C3127 0.929 . S
H3140 C3162 0.930 . S
H3141 C3133 0.931 . S
H3142 C3123 0.930 . S
H3143 C3152 0.929 . S
H3144 C3128 0.931 . S
H3145 C3129 0.930 . S
H3146 C3184 0.930 . S
H3147 C3125 0.929 . S
H3148 C3153 0.931 . S
H3149 C3154 0.930 . S
N3150 Gd3130 2.622 . S
N3150 C3151 1.369 . S
N3150 C3152 1.338 . S
C3151 N3150 1.369 . S
C3151 C3155 1.415 . S
C3151 C3158 1.422 . S
C3152 H3143 0.929 . S
C3152 N3150 1.338 . S
C3152 C3154 1.378 . S
C3153 H3148 0.931 . S
C3153 C3154 1.348 . S
C3153 C3155 1.413 . S
C3154 H3149 0.930 . S
C3154 C3152 1.378 . S
C3154 C3153 1.348 . S
C3155 C3151 1.415 . S
C3155 C3153 1.413 . S
C3155 C3185 1.437 . S
H3156 C3185 0.929 . S
N3157 Gd3130 2.570 . S
N3157 C3158 1.359 . S
N3157 C3161 1.343 . S
C3158 C3151 1.422 . S
C3158 N3157 1.359 . S
C3158 C3160 1.421 . S
C3159 C3160 1.422 . S
C3159 C3162 1.321 . S
C3159 H3186 0.931 . S
C3160 C3158 1.421 . S
C3160 C3159 1.422 . S
C3160 C3184 1.417 . S
C3161 H3138 0.931 . S
C3161 N3157 1.343 . S
C3161 C3162 1.390 . S
C3162 H3140 0.930 . S
C3162 C3159 1.321 . S
C3162 C3161 1.390 . S
O3163 Gd3131 2.386 . S
O3163 C3175 1.265 . S
O3164 Gd3130 2.353 . S
O3164 C3175 1.242 . S
O3165 Gd3130 2.468 . S
O3165 C3183 1.263 . S
O3166 Gd3130 2.427 . S
O3166 C3183 1.252 . S
O3167 Gd3131 2.307 . S
O3167 C3176 1.261 . S
O3168 Gd3130 2.388 . S
O3168 C3176 1.252 . S
O3169 Gd3130 2.386 . S
O3169 C3187 1.265 . S
O3170 Gd3131 2.353 . S
O3170 C3187 1.242 . S
O3171 Gd3131 2.468 . S
O3171 C3195 1.263 . S
O3172 Gd3131 2.427 . S
O3172 C3195 1.252 . S
O3173 Gd3130 2.307 . S
O3173 C3188 1.261 . S
O3174 Gd3131 2.388 . S
O3174 C3188 1.252 . S
C3175 O3163 1.265 . S
C3175 O3164 1.242 . S
C3176 O3167 1.261 . S
C3176 O3168 1.252 . S
C3177 C3180 1.394 . S
C3177 C3182 1.370 . S
C3177 C3183 1.500 . S
C3178 C3181 1.383 . S
C3178 C3182 1.395 . S
C3179 C3180 1.396 . S
C3179 C3181 1.365 . S
C3179 H3196 0.929 . S
C3180 C3177 1.394 . S
C3180 C3179 1.396 . S
C3180 H3197 0.930 . S
C3181 C3178 1.383 . S
C3181 C3179 1.365 . S
C3181 H3198 0.931 . S
C3182 C3177 1.370 . S
C3182 C3178 1.395 . S
C3182 H3199 0.930 . S
C3183 Gd3130 2.805 . S
C3183 O3165 1.263 . S
C3183 O3166 1.252 . S
C3183 C3177 1.500 . S
C3184 H3146 0.930 . S
C3184 C3160 1.417 . S
C3184 C3185 1.329 . S
C3185 C3155 1.437 . S
C3185 H3156 0.929 . S
C3185 C3184 1.329 . S
H3186 C3159 0.931 . S
C3187 O3169 1.265 . S
C3187 O3170 1.242 . S
C3188 O3173 1.261 . S
C3188 O3174 1.252 . S
C3189 C3192 1.394 . S
C3189 C3194 1.370 . S
C3189 C3195 1.500 . S
C3190 C3193 1.383 . S
C3190 C3194 1.395 . S
C3191 C3192 1.396 . S
C3191 C3193 1.365 . S
C3191 H3200 0.929 . S
C3192 C3189 1.394 . S
C3192 C3191 1.396 . S
C3192 H3201 0.930 . S
C3193 C3190 1.383 . S
C3193 C3191 1.365 . S
C3193 H3202 0.931 . S
C3194 C3189 1.370 . S
C3194 C3190 1.395 . S
C3194 H3203 0.930 . S
C3195 Gd3131 2.805 . S
C3195 O3171 1.263 . S
C3195 O3172 1.252 . S
C3195 C3189 1.500 . S
H3196 C3179 0.929 . S
H3197 C3180 0.930 . S
H3198 C3181 0.931 . S
H3199 C3182 0.930 . S
H3200 C3191 0.929 . S
H3201 C3192 0.930 . S
H3202 C3193 0.931 . S
H3203 C3194 0.930 . S
C3204 C3206 1.422 . S
C3204 C3208 1.415 . S
C3204 N3210 1.369 . S
C3205 C3206 1.421 . S
C3205 C3207 1.417 . S
C3205 C3217 1.422 . S
C3206 C3204 1.422 . S
C3206 C3205 1.421 . S
C3206 N3216 1.359 . S
C3207 C3205 1.417 . S
C3207 C3209 1.329 . S
C3207 H3226 0.930 . S
C3208 C3204 1.415 . S
C3208 C3209 1.437 . S
C3208 C3212 1.413 . S
C3209 C3207 1.329 . S
C3209 C3208 1.437 . S
C3209 H3231 0.929 . S
N3210 C3204 1.369 . S
N3210 C3211 1.338 . S
N3210 Gd3215 2.622 . S
C3211 N3210 1.338 . S
C3211 C3213 1.378 . S
C3211 H3223 0.929 . S
C3212 C3208 1.413 . S
C3212 C3213 1.348 . S
C3212 H3228 0.931 . S
C3213 C3211 1.378 . S
C3213 C3212 1.348 . S
C3213 H3229 0.930 . S
Gd3214 N3234 2.622 . S
Gd3214 N3241 2.570 . S
Gd3214 O3248 2.353 . S
Gd3214 O3249 2.468 . S
Gd3214 O3250 2.427 . S
Gd3214 O3252 2.388 . S
Gd3214 O3253 2.386 . S
Gd3214 O3257 2.307 . S
Gd3214 C3267 2.805 . S
Gd3215 N3210 2.622 . S
Gd3215 N3216 2.570 . S
Gd3215 O3247 2.386 . S
Gd3215 O3251 2.307 . S
Gd3215 O3254 2.353 . S
Gd3215 O3255 2.468 . S
Gd3215 O3256 2.427 . S
Gd3215 O3258 2.388 . S
Gd3215 C3279 2.805 . S
N3216 C3206 1.359 . S
N3216 Gd3215 2.570 . S
N3216 C3218 1.343 . S
C3217 C3205 1.422 . S
C3217 C3219 1.321 . S
C3217 H3225 0.931 . S
C3218 N3216 1.343 . S
C3218 C3219 1.390 . S
C3218 H3220 0.931 . S
C3219 C3217 1.321 . S
C3219 C3218 1.390 . S
C3219 H3221 0.930 . S
H3220 C3218 0.931 . S
H3221 C3219 0.930 . S
H3222 C3245 0.931 . S
H3223 C3211 0.929 . S
H3224 C3246 0.930 . S
H3225 C3217 0.931 . S
H3226 C3207 0.930 . S
H3227 C3236 0.929 . S
H3228 C3212 0.931 . S
H3229 C3213 0.930 . S
H3230 C3268 0.930 . S
H3231 C3209 0.929 . S
H3232 C3237 0.931 . S
H3233 C3238 0.930 . S
N3234 Gd3214 2.622 . S
N3234 C3235 1.369 . S
N3234 C3236 1.338 . S
C3235 N3234 1.369 . S
C3235 C3239 1.415 . S
C3235 C3242 1.422 . S
C3236 H3227 0.929 . S
C3236 N3234 1.338 . S
C3236 C3238 1.378 . S
C3237 H3232 0.931 . S
C3237 C3238 1.348 . S
C3237 C3239 1.413 . S
C3238 H3233 0.930 . S
C3238 C3236 1.378 . S
C3238 C3237 1.348 . S
C3239 C3235 1.415 . S
C3239 C3237 1.413 . S
C3239 C3269 1.437 . S
H3240 C3269 0.929 . S
N3241 Gd3214 2.570 . S
N3241 C3242 1.359 . S
N3241 C3245 1.343 . S
C3242 C3235 1.422 . S
C3242 N3241 1.359 . S
C3242 C3244 1.421 . S
C3243 C3244 1.422 . S
C3243 C3246 1.321 . S
C3243 H3270 0.931 . S
C3244 C3242 1.421 . S
C3244 C3243 1.422 . S
C3244 C3268 1.417 . S
C3245 H3222 0.931 . S
C3245 N3241 1.343 . S
C3245 C3246 1.390 . S
C3246 H3224 0.930 . S
C3246 C3243 1.321 . S
C3246 C3245 1.390 . S
O3247 Gd3215 2.386 . S
O3247 C3259 1.265 . S
O3248 Gd3214 2.353 . S
O3248 C3259 1.242 . S
O3249 Gd3214 2.468 . S
O3249 C3267 1.263 . S
O3250 Gd3214 2.427 . S
O3250 C3267 1.252 . S
O3251 Gd3215 2.307 . S
O3251 C3260 1.261 . S
O3252 Gd3214 2.388 . S
O3252 C3260 1.252 . S
O3253 Gd3214 2.386 . S
O3253 C3271 1.265 . S
O3254 Gd3215 2.353 . S
O3254 C3271 1.242 . S
O3255 Gd3215 2.468 . S
O3255 C3279 1.263 . S
O3256 Gd3215 2.427 . S
O3256 C3279 1.252 . S
O3257 Gd3214 2.307 . S
O3257 C3272 1.261 . S
O3258 Gd3215 2.388 . S
O3258 C3272 1.252 . S
C3259 O3247 1.265 . S
C3259 O3248 1.242 . S
C3260 O3251 1.261 . S
C3260 O3252 1.252 . S
C3261 C3264 1.394 . S
C3261 C3266 1.370 . S
C3261 C3267 1.500 . S
C3262 C3265 1.383 . S
C3262 C3266 1.395 . S
C3263 C3264 1.396 . S
C3263 C3265 1.365 . S
C3263 H3280 0.929 . S
C3264 C3261 1.394 . S
C3264 C3263 1.396 . S
C3264 H3281 0.930 . S
C3265 C3262 1.383 . S
C3265 C3263 1.365 . S
C3265 H3282 0.931 . S
C3266 C3261 1.370 . S
C3266 C3262 1.395 . S
C3266 H3283 0.930 . S
C3267 Gd3214 2.805 . S
C3267 O3249 1.263 . S
C3267 O3250 1.252 . S
C3267 C3261 1.500 . S
C3268 H3230 0.930 . S
C3268 C3244 1.417 . S
C3268 C3269 1.329 . S
C3269 C3239 1.437 . S
C3269 H3240 0.929 . S
C3269 C3268 1.329 . S
H3270 C3243 0.931 . S
C3271 O3253 1.265 . S
C3271 O3254 1.242 . S
C3272 O3257 1.261 . S
C3272 O3258 1.252 . S
C3273 C3276 1.394 . S
C3273 C3278 1.370 . S
C3273 C3279 1.500 . S
C3274 C3277 1.383 . S
C3274 C3278 1.395 . S
C3275 C3276 1.396 . S
C3275 C3277 1.365 . S
C3275 H3284 0.929 . S
C3276 C3273 1.394 . S
C3276 C3275 1.396 . S
C3276 H3285 0.930 . S
C3277 C3274 1.383 . S
C3277 C3275 1.365 . S
C3277 H3286 0.931 . S
C3278 C3273 1.370 . S
C3278 C3274 1.395 . S
C3278 H3287 0.930 . S
C3279 Gd3215 2.805 . S
C3279 O3255 1.263 . S
C3279 O3256 1.252 . S
C3279 C3273 1.500 . S
H3280 C3263 0.929 . S
H3281 C3264 0.930 . S
H3282 C3265 0.931 . S
H3283 C3266 0.930 . S
H3284 C3275 0.929 . S
H3285 C3276 0.930 . S
H3286 C3277 0.931 . S
H3287 C3278 0.930 . S
C3288 C3290 1.422 . S
C3288 C3292 1.415 . S
C3288 N3294 1.369 . S
C3289 C3290 1.421 . S
C3289 C3291 1.417 . S
C3289 C3301 1.422 . S
C3290 C3288 1.422 . S
C3290 C3289 1.421 . S
C3290 N3300 1.359 . S
C3291 C3289 1.417 . S
C3291 C3293 1.329 . S
C3291 H3310 0.930 . S
C3292 C3288 1.415 . S
C3292 C3293 1.437 . S
C3292 C3296 1.413 . S
C3293 C3291 1.329 . S
C3293 C3292 1.437 . S
C3293 H3315 0.929 . S
N3294 C3288 1.369 . S
N3294 C3295 1.338 . S
N3294 Gd3299 2.622 . S
C3295 N3294 1.338 . S
C3295 C3297 1.378 . S
C3295 H3307 0.929 . S
C3296 C3292 1.413 . S
C3296 C3297 1.348 . S
C3296 H3312 0.931 . S
C3297 C3295 1.378 . S
C3297 C3296 1.348 . S
C3297 H3313 0.930 . S
Gd3298 N3318 2.622 . S
Gd3298 N3325 2.570 . S
Gd3298 O3332 2.353 . S
Gd3298 O3333 2.468 . S
Gd3298 O3334 2.427 . S
Gd3298 O3336 2.388 . S
Gd3298 O3337 2.386 . S
Gd3298 O3341 2.307 . S
Gd3298 C3351 2.805 . S
Gd3299 N3294 2.622 . S
Gd3299 N3300 2.570 . S
Gd3299 O3331 2.386 . S
Gd3299 O3335 2.307 . S
Gd3299 O3338 2.353 . S
Gd3299 O3339 2.468 . S
Gd3299 O3340 2.427 . S
Gd3299 O3342 2.388 . S
Gd3299 C3363 2.805 . S
N3300 C3290 1.359 . S
N3300 Gd3299 2.570 . S
N3300 C3302 1.343 . S
C3301 C3289 1.422 . S
C3301 C3303 1.321 . S
C3301 H3309 0.931 . S
C3302 N3300 1.343 . S
C3302 C3303 1.390 . S
C3302 H3304 0.931 . S
C3303 C3301 1.321 . S
C3303 C3302 1.390 . S
C3303 H3305 0.930 . S
H3304 C3302 0.931 . S
H3305 C3303 0.930 . S
H3306 C3329 0.931 . S
H3307 C3295 0.929 . S
H3308 C3330 0.930 . S
H3309 C3301 0.931 . S
H3310 C3291 0.930 . S
H3311 C3320 0.929 . S
H3312 C3296 0.931 . S
H3313 C3297 0.930 . S
H3314 C3352 0.930 . S
H3315 C3293 0.929 . S
H3316 C3321 0.931 . S
H3317 C3322 0.930 . S
N3318 Gd3298 2.622 . S
N3318 C3319 1.369 . S
N3318 C3320 1.338 . S
C3319 N3318 1.369 . S
C3319 C3323 1.415 . S
C3319 C3326 1.422 . S
C3320 H3311 0.929 . S
C3320 N3318 1.338 . S
C3320 C3322 1.378 . S
C3321 H3316 0.931 . S
C3321 C3322 1.348 . S
C3321 C3323 1.413 . S
C3322 H3317 0.930 . S
C3322 C3320 1.378 . S
C3322 C3321 1.348 . S
C3323 C3319 1.415 . S
C3323 C3321 1.413 . S
C3323 C3353 1.437 . S
H3324 C3353 0.929 . S
N3325 Gd3298 2.570 . S
N3325 C3326 1.359 . S
N3325 C3329 1.343 . S
C3326 C3319 1.422 . S
C3326 N3325 1.359 . S
C3326 C3328 1.421 . S
C3327 C3328 1.422 . S
C3327 C3330 1.321 . S
C3327 H3354 0.931 . S
C3328 C3326 1.421 . S
C3328 C3327 1.422 . S
C3328 C3352 1.417 . S
C3329 H3306 0.931 . S
C3329 N3325 1.343 . S
C3329 C3330 1.390 . S
C3330 H3308 0.930 . S
C3330 C3327 1.321 . S
C3330 C3329 1.390 . S
O3331 Gd3299 2.386 . S
O3331 C3343 1.265 . S
O3332 Gd3298 2.353 . S
O3332 C3343 1.242 . S
O3333 Gd3298 2.468 . S
O3333 C3351 1.263 . S
O3334 Gd3298 2.427 . S
O3334 C3351 1.252 . S
O3335 Gd3299 2.307 . S
O3335 C3344 1.261 . S
O3336 Gd3298 2.388 . S
O3336 C3344 1.252 . S
O3337 Gd3298 2.386 . S
O3337 C3355 1.265 . S
O3338 Gd3299 2.353 . S
O3338 C3355 1.242 . S
O3339 Gd3299 2.468 . S
O3339 C3363 1.263 . S
O3340 Gd3299 2.427 . S
O3340 C3363 1.252 . S
O3341 Gd3298 2.307 . S
O3341 C3356 1.261 . S
O3342 Gd3299 2.388 . S
O3342 C3356 1.252 . S
C3343 O3331 1.265 . S
C3343 O3332 1.242 . S
C3344 O3335 1.261 . S
C3344 O3336 1.252 . S
C3345 C3348 1.394 . S
C3345 C3350 1.370 . S
C3345 C3351 1.500 . S
C3346 C3349 1.383 . S
C3346 C3350 1.395 . S
C3347 C3348 1.396 . S
C3347 C3349 1.365 . S
C3347 H3364 0.929 . S
C3348 C3345 1.394 . S
C3348 C3347 1.396 . S
C3348 H3365 0.930 . S
C3349 C3346 1.383 . S
C3349 C3347 1.365 . S
C3349 H3366 0.931 . S
C3350 C3345 1.370 . S
C3350 C3346 1.395 . S
C3350 H3367 0.930 . S
C3351 Gd3298 2.805 . S
C3351 O3333 1.263 . S
C3351 O3334 1.252 . S
C3351 C3345 1.500 . S
C3352 H3314 0.930 . S
C3352 C3328 1.417 . S
C3352 C3353 1.329 . S
C3353 C3323 1.437 . S
C3353 H3324 0.929 . S
C3353 C3352 1.329 . S
H3354 C3327 0.931 . S
C3355 O3337 1.265 . S
C3355 O3338 1.242 . S
C3356 O3341 1.261 . S
C3356 O3342 1.252 . S
C3357 C3360 1.394 . S
C3357 C3362 1.370 . S
C3357 C3363 1.500 . S
C3358 C3361 1.383 . S
C3358 C3362 1.395 . S
C3359 C3360 1.396 . S
C3359 C3361 1.365 . S
C3359 H3368 0.929 . S
C3360 C3357 1.394 . S
C3360 C3359 1.396 . S
C3360 H3369 0.930 . S
C3361 C3358 1.383 . S
C3361 C3359 1.365 . S
C3361 H3370 0.931 . S
C3362 C3357 1.370 . S
C3362 C3358 1.395 . S
C3362 H3371 0.930 . S
C3363 Gd3299 2.805 . S
C3363 O3339 1.263 . S
C3363 O3340 1.252 . S
C3363 C3357 1.500 . S
H3364 C3347 0.929 . S
H3365 C3348 0.930 . S
H3366 C3349 0.931 . S
H3367 C3350 0.930 . S
H3368 C3359 0.929 . S
H3369 C3360 0.930 . S
H3370 C3361 0.931 . S
H3371 C3362 0.930 . S
C3372 C3374 1.422 1_556 S
C3372 C3376 1.415 . S
C3372 N3378 1.369 . S
C3373 C3374 1.421 . S
C3373 C3375 1.417 1_554 S
C3373 C3385 1.422 . S
C3374 C3372 1.422 1_554 S
C3374 C3373 1.421 . S
C3374 N3384 1.359 . S
C3375 C3373 1.417 1_556 S
C3375 C3377 1.329 . S
C3375 H3394 0.930 1_556 S
C3376 C3372 1.415 . S
C3376 C3377 1.437 . S
C3376 C3380 1.413 . S
C3377 C3375 1.329 . S
C3377 C3376 1.437 . S
C3377 H3399 0.929 . S
N3378 C3372 1.369 . S
N3378 C3379 1.338 . S
N3378 Gd3383 2.622 1_556 S
C3379 N3378 1.338 . S
C3379 C3381 1.378 . S
C3379 H3391 0.929 . S
C3380 C3376 1.413 . S
C3380 C3381 1.348 . S
C3380 H3396 0.931 . S
C3381 C3379 1.378 . S
C3381 C3380 1.348 . S
C3381 H3397 0.930 . S
Gd3382 N3402 2.627 . S
Gd3382 N3409 2.583 . S
Gd3382 O3416 2.347 1_655 S
Gd3382 O3417 2.486 . S
Gd3382 O3418 2.442 . S
Gd3382 O3420 2.373 1_655 S
Gd3382 O3421 2.375 1_655 S
Gd3382 O3425 2.303 1_655 S
Gd3382 C3435 2.823 . S
Gd3383 N3378 2.622 1_554 S
Gd3383 N3384 2.570 . S
Gd3383 O3415 2.386 . S
Gd3383 O3419 2.307 . S
Gd3383 O3422 2.353 . S
Gd3383 O3423 2.468 . S
Gd3383 O3424 2.427 1_554 S
Gd3383 O3426 2.388 1_554 S
Gd3383 C3447 2.805 . S
N3384 C3374 1.359 . S
N3384 Gd3383 2.570 . S
N3384 C3386 1.343 . S
C3385 C3373 1.422 . S
C3385 C3387 1.321 . S
C3385 H3393 0.931 . S
C3386 N3384 1.343 . S
C3386 C3387 1.390 . S
C3386 H3388 0.931 . S
C3387 C3385 1.321 . S
C3387 C3386 1.390 . S
C3387 H3389 0.930 . S
H3388 C3386 0.931 . S
H3389 C3387 0.930 . S
H3390 C3413 0.931 . S
H3391 C3379 0.929 . S
H3392 C3414 0.930 1_556 S
H3393 C3385 0.931 . S
H3394 C3375 0.930 1_554 S
H3395 C3404 0.929 1_455 S
H3396 C3380 0.931 . S
H3397 C3381 0.930 . S
H3398 C3436 0.930 . S
H3399 C3377 0.929 . S
H3400 C3405 0.931 . S
H3401 C3406 0.925 1_455 S
N3402 Gd3382 2.627 . S
N3402 C3403 1.369 . S
N3402 C3404 1.338 . S
C3403 N3402 1.369 . S
C3403 C3407 1.415 . S
C3403 C3410 1.422 . S
C3404 H3395 0.929 1_655 S
C3404 N3402 1.338 . S
C3404 C3406 1.378 . S
C3405 H3400 0.931 . S
C3405 C3406 1.348 . S
C3405 C3407 1.413 . S
C3406 H3401 0.925 1_655 S
C3406 C3404 1.378 . S
C3406 C3405 1.348 . S
C3407 C3403 1.415 . S
C3407 C3405 1.413 . S
C3407 C3437 1.437 . S
H3408 C3437 0.929 . S
N3409 Gd3382 2.583 . S
N3409 C3410 1.359 . S
N3409 C3413 1.343 . S
C3410 C3403 1.422 . S
C3410 N3409 1.359 . S
C3410 C3412 1.421 . S
C3411 C3412 1.422 . S
C3411 C3414 1.321 . S
C3411 H3438 0.931 . S
C3412 C3410 1.421 . S
C3412 C3411 1.422 . S
C3412 C3436 1.417 . S
C3413 H3390 0.931 . S
C3413 N3409 1.343 . S
C3413 C3414 1.390 . S
C3414 H3392 0.930 1_554 S
C3414 C3411 1.321 . S
C3414 C3413 1.390 . S
O3415 Gd3383 2.386 . S
O3415 C3427 1.265 . S
O3416 Gd3382 2.347 1_455 S
O3416 C3427 1.242 . S
O3417 Gd3382 2.486 . S
O3417 C3435 1.263 . S
O3418 Gd3382 2.442 . S
O3418 C3435 1.252 . S
O3419 Gd3383 2.307 . S
O3419 C3428 1.261 . S
O3420 Gd3382 2.373 1_455 S
O3420 C3428 1.252 . S
O3421 Gd3382 2.375 1_455 S
O3421 C3439 1.265 . S
O3422 Gd3383 2.353 . S
O3422 C3439 1.242 . S
O3423 Gd3383 2.468 . S
O3423 C3447 1.263 . S
O3424 Gd3383 2.427 1_556 S
O3424 C3447 1.252 1_556 S
O3425 Gd3382 2.303 1_455 S
O3425 C3440 1.261 1_554 S
O3426 Gd3383 2.388 1_556 S
O3426 C3440 1.252 . S
C3427 O3415 1.265 . S
C3427 O3416 1.242 . S
C3428 O3419 1.261 . S
C3428 O3420 1.252 . S
C3429 C3432 1.394 . S
C3429 C3434 1.370 . S
C3429 C3435 1.500 . S
C3430 C3433 1.383 . S
C3430 C3434 1.395 . S
C3431 C3432 1.396 . S
C3431 C3433 1.365 . S
C3431 H3448 0.929 . S
C3432 C3429 1.394 . S
C3432 C3431 1.396 . S
C3432 H3449 0.930 . S
C3433 C3430 1.383 . S
C3433 C3431 1.365 . S
C3433 H3450 0.931 . S
C3434 C3429 1.370 . S
C3434 C3430 1.395 . S
C3434 H3451 0.930 . S
C3435 Gd3382 2.823 . S
C3435 O3417 1.263 . S
C3435 O3418 1.252 . S
C3435 C3429 1.500 . S
C3436 H3398 0.930 . S
C3436 C3412 1.417 . S
C3436 C3437 1.329 . S
C3437 C3407 1.437 . S
C3437 H3408 0.929 . S
C3437 C3436 1.329 . S
H3438 C3411 0.931 . S
C3439 O3421 1.265 . S
C3439 O3422 1.242 . S
C3440 O3425 1.261 1_556 S
C3440 O3426 1.252 . S
C3441 C3444 1.394 . S
C3441 C3446 1.370 1_556 S
C3441 C3447 1.500 1_556 S
C3442 C3445 1.383 1_554 S
C3442 C3446 1.395 . S
C3443 C3444 1.396 . S
C3443 C3445 1.365 . S
C3443 H3452 0.929 . S
C3444 C3441 1.394 . S
C3444 C3443 1.396 . S
C3444 H3453 0.930 . S
C3445 C3442 1.383 1_556 S
C3445 C3443 1.365 . S
C3445 H3454 0.931 . S
C3446 C3441 1.370 1_554 S
C3446 C3442 1.395 . S
C3446 H3455 0.930 . S
C3447 Gd3383 2.805 . S
C3447 O3423 1.263 . S
C3447 O3424 1.252 1_554 S
C3447 C3441 1.500 1_554 S
H3448 C3431 0.929 . S
H3449 C3432 0.930 . S
H3450 C3433 0.931 . S
H3451 C3434 0.930 . S
H3452 C3443 0.929 . S
H3453 C3444 0.930 . S
H3454 C3445 0.931 . S
H3455 C3446 0.930 . S
C3456 C3457 1.369 . S
C3456 C3458 1.419 . S
C3456 H3460 0.930 . S
C3457 C3456 1.369 . S
C3457 C3466 1.427 1_554 S
C3458 C3456 1.419 . S
C3458 C3459 1.363 . S
C3458 H3461 0.929 . S
C3459 C3458 1.363 . S
C3459 C3465 1.408 1_554 S
H3460 C3456 0.930 . S
H3461 C3458 0.929 . S
S3462 N3463 1.613 . S
S3462 N3464 1.610 1_655 S
N3463 S3462 1.613 . S
N3463 C3466 1.345 1_655 S
N3464 S3462 1.610 1_455 S
N3464 C3465 1.370 . S
C3465 C3459 1.408 1_556 S
C3465 N3464 1.370 . S
C3465 C3466 1.444 . S
C3466 C3457 1.427 1_556 S
C3466 N3463 1.345 1_455 S
C3466 C3465 1.444 . S
C3467 C3468 1.369 . S
C3467 C3469 1.419 . S
C3467 H3471 0.930 . S
C3468 C3467 1.369 . S
C3468 C3477 1.429 . S
C3469 C3467 1.419 . S
C3469 C3470 1.363 . S
C3469 H3472 0.929 . S
C3470 C3469 1.363 . S
C3470 C3476 1.428 . S
H3471 C3467 0.930 . S
H3472 C3469 0.929 . S
S3473 N3474 1.613 . S
S3473 N3475 1.610 . S
N3474 S3473 1.613 . S
N3474 C3477 1.350 . S
N3475 S3473 1.610 . S
N3475 C3476 1.351 . S
C3476 C3470 1.428 . S
C3476 N3475 1.351 . S
C3476 C3477 1.434 . S
C3477 C3468 1.429 . S
C3477 N3474 1.350 . S
C3477 C3476 1.434 . S
C3478 C3479 1.369 . S
C3478 C3480 1.419 . S
C3478 H3482 0.930 . S
C3479 C3478 1.369 . S
C3479 C3488 1.429 . S
C3480 C3478 1.419 . S
C3480 C3481 1.363 . S
C3480 H3483 0.929 . S
C3481 C3480 1.363 . S
C3481 C3487 1.428 . S
H3482 C3478 0.930 . S
H3483 C3480 0.929 . S
S3484 N3485 1.613 . S
S3484 N3486 1.610 . S
N3485 S3484 1.613 . S
N3485 C3488 1.350 . S
N3486 S3484 1.610 . S
N3486 C3487 1.351 . S
C3487 C3481 1.428 . S
C3487 N3486 1.351 . S
C3487 C3488 1.434 . S
C3488 C3479 1.429 . S
C3488 N3485 1.350 . S
C3488 C3487 1.434 . S
C3489 C3490 1.369 . S
C3489 C3491 1.419 . S
C3489 H3493 0.930 . S
C3490 C3489 1.369 . S
C3490 C3499 1.429 . S
C3491 C3489 1.419 . S
C3491 C3492 1.363 . S
C3491 H3494 0.929 . S
C3492 C3491 1.363 . S
C3492 C3498 1.428 . S
H3493 C3489 0.930 . S
H3494 C3491 0.929 . S
S3495 N3496 1.613 . S
S3495 N3497 1.610 . S
N3496 S3495 1.613 . S
N3496 C3499 1.350 . S
N3497 S3495 1.610 . S
N3497 C3498 1.351 . S
C3498 C3492 1.428 . S
C3498 N3497 1.351 . S
C3498 C3499 1.434 . S
C3499 C3490 1.429 . S
C3499 N3496 1.350 . S
C3499 C3498 1.434 . S
C3500 C3501 1.369 . S
C3500 C3502 1.419 . S
C3500 H3504 0.930 . S
C3501 C3500 1.369 . S
C3501 C3510 1.429 . S
C3502 C3500 1.419 . S
C3502 C3503 1.363 . S
C3502 H3505 0.929 . S
C3503 C3502 1.363 . S
C3503 C3509 1.428 . S
H3504 C3500 0.930 . S
H3505 C3502 0.929 . S
S3506 N3507 1.613 1_655 S
S3506 N3508 1.610 1_655 S
N3507 S3506 1.613 1_455 S
N3507 C3510 1.350 . S
N3508 S3506 1.610 1_455 S
N3508 C3509 1.351 . S
C3509 C3503 1.428 . S
C3509 N3508 1.351 . S
C3509 C3510 1.434 . S
C3510 C3501 1.429 . S
C3510 N3507 1.350 . S
C3510 C3509 1.434 . S
C3511 C3512 1.369 . S
C3511 C3513 1.419 . S
C3511 H3515 0.930 . S
C3512 C3511 1.369 . S
C3512 C3521 1.429 . S
C3513 C3511 1.419 . S
C3513 C3514 1.363 . S
C3513 H3516 0.929 . S
C3514 C3513 1.363 . S
C3514 C3520 1.428 . S
H3515 C3511 0.930 . S
H3516 C3513 0.929 . S
S3517 N3518 1.613 . S
S3517 N3519 1.610 . S
N3518 S3517 1.613 . S
N3518 C3521 1.350 . S
N3519 S3517 1.610 . S
N3519 C3520 1.351 . S
C3520 C3514 1.428 . S
C3520 N3519 1.351 . S
C3520 C3521 1.434 . S
C3521 C3512 1.429 . S
C3521 N3518 1.350 . S
C3521 C3520 1.434 . S
C3522 C3523 1.369 . S
C3522 C3524 1.419 . S
C3522 H3526 0.930 . S
C3523 C3522 1.369 . S
C3523 C3532 1.429 . S
C3524 C3522 1.419 . S
C3524 C3525 1.363 . S
C3524 H3527 0.929 . S
C3525 C3524 1.363 . S
C3525 C3531 1.428 . S
H3526 C3522 0.930 . S
H3527 C3524 0.929 . S
S3528 N3529 1.613 . S
S3528 N3530 1.610 . S
N3529 S3528 1.613 . S
N3529 C3532 1.350 . S
N3530 S3528 1.610 . S
N3530 C3531 1.351 . S
C3531 C3525 1.428 . S
C3531 N3530 1.351 . S
C3531 C3532 1.434 . S
C3532 C3523 1.429 . S
C3532 N3529 1.350 . S
C3532 C3531 1.434 . S
C3533 C3534 1.369 . S
C3533 C3535 1.419 . S
C3533 H3537 0.930 . S
C3534 C3533 1.369 . S
C3534 C3543 1.429 . S
C3535 C3533 1.419 . S
C3535 C3536 1.363 . S
C3535 H3538 0.929 . S
C3536 C3535 1.363 . S
C3536 C3542 1.428 . S
H3537 C3533 0.930 . S
H3538 C3535 0.929 . S
S3539 N3540 1.613 . S
S3539 N3541 1.610 . S
N3540 S3539 1.613 . S
N3540 C3543 1.350 . S
N3541 S3539 1.610 . S
N3541 C3542 1.351 . S
C3542 C3536 1.428 . S
C3542 N3541 1.351 . S
C3542 C3543 1.434 . S
C3543 C3534 1.429 . S
C3543 N3540 1.350 . S
C3543 C3542 1.434 . S
C3544 C3545 1.369 1_455 S
C3544 C3546 1.419 . S
C3544 H3548 0.930 . S
C3545 C3544 1.369 1_655 S
C3545 C3554 1.429 . S
C3546 C3544 1.419 . S
C3546 C3547 1.363 . S
C3546 H3549 0.929 . S
C3547 C3546 1.363 . S
C3547 C3553 1.428 1_455 S
H3548 C3544 0.930 . S
H3549 C3546 0.929 . S
S3550 N3551 1.613 . S
S3550 N3552 1.610 . S
N3551 S3550 1.613 . S
N3551 C3554 1.350 1_565 S
N3552 S3550 1.610 . S
N3552 C3553 1.351 1_565 S
C3553 C3547 1.428 1_655 S
C3553 N3552 1.351 1_545 S
C3553 C3554 1.434 . S
C3554 C3545 1.429 . S
C3554 N3551 1.350 1_545 S
C3554 C3553 1.434 . S
C3555 C3556 1.369 . S
C3555 C3557 1.419 . S
C3555 H3559 0.930 . S
C3556 C3555 1.369 . S
C3556 C3565 1.429 . S
C3557 C3555 1.419 . S
C3557 C3558 1.363 . S
C3557 H3560 0.929 . S
C3558 C3557 1.363 . S
C3558 C3564 1.428 . S
H3559 C3555 0.930 . S
H3560 C3557 0.929 . S
S3561 N3562 1.613 . S
S3561 N3563 1.610 . S
N3562 S3561 1.613 . S
N3562 C3565 1.350 . S
N3563 S3561 1.610 . S
N3563 C3564 1.351 . S
C3564 C3558 1.428 . S
C3564 N3563 1.351 . S
C3564 C3565 1.434 . S
C3565 C3556 1.429 . S
C3565 N3562 1.350 . S
C3565 C3564 1.434 . S
C3566 C3567 1.369 . S
C3566 C3568 1.419 . S
C3566 H3570 0.930 . S
C3567 C3566 1.369 . S
C3567 C3576 1.429 . S
C3568 C3566 1.419 . S
C3568 C3569 1.363 . S
C3568 H3571 0.929 . S
C3569 C3568 1.363 . S
C3569 C3575 1.428 . S
H3570 C3566 0.930 . S
H3571 C3568 0.929 . S
S3572 N3573 1.613 . S
S3572 N3574 1.610 . S
N3573 S3572 1.613 . S
N3573 C3576 1.350 . S
N3574 S3572 1.610 . S
N3574 C3575 1.351 . S
C3575 C3569 1.428 . S
C3575 N3574 1.351 . S
C3575 C3576 1.434 . S
C3576 C3567 1.429 . S
C3576 N3573 1.350 . S
C3576 C3575 1.434 . S
C3577 C3578 1.369 . S
C3577 C3579 1.419 . S
C3577 H3581 0.930 . S
C3578 C3577 1.369 . S
C3578 C3587 1.429 . S
C3579 C3577 1.419 . S
C3579 C3580 1.363 . S
C3579 H3582 0.929 . S
C3580 C3579 1.363 . S
C3580 C3586 1.428 . S
H3581 C3577 0.930 . S
H3582 C3579 0.929 . S
S3583 N3584 1.613 . S
S3583 N3585 1.610 . S
N3584 S3583 1.613 . S
N3584 C3587 1.350 . S
N3585 S3583 1.610 . S
N3585 C3586 1.351 . S
C3586 C3580 1.428 . S
C3586 N3585 1.351 . S
C3586 C3587 1.434 . S
C3587 C3578 1.429 . S
C3587 N3584 1.350 . S
C3587 C3586 1.434 . S
C3588 C3589 1.369 1_655 S
C3588 C3590 1.419 . S
C3588 H3592 0.930 . S
C3589 C3588 1.369 1_455 S
C3589 C3598 1.429 . S
C3590 C3588 1.419 . S
C3590 C3591 1.363 1_655 S
C3590 H3593 0.929 . S
C3591 C3590 1.363 1_455 S
C3591 C3597 1.428 . S
H3592 C3588 0.930 . S
H3593 C3590 0.929 . S
S3594 N3595 1.613 . S
S3594 N3596 1.610 . S
N3595 S3594 1.613 . S
N3595 C3598 1.350 . S
N3596 S3594 1.610 . S
N3596 C3597 1.351 . S
C3597 C3591 1.428 . S
C3597 N3596 1.351 . S
C3597 C3598 1.434 . S
C3598 C3589 1.429 . S
C3598 N3595 1.350 . S
C3598 C3597 1.434 . S
C3599 C3600 1.369 . S
C3599 C3601 1.419 . S
C3599 H3603 0.930 . S
C3600 C3599 1.369 . S
C3600 C3609 1.429 . S
C3601 C3599 1.419 . S
C3601 C3602 1.363 . S
C3601 H3604 0.929 . S
C3602 C3601 1.363 . S
C3602 C3608 1.428 . S
H3603 C3599 0.930 . S
H3604 C3601 0.929 . S
S3605 N3606 1.613 . S
S3605 N3607 1.610 . S
N3606 S3605 1.613 . S
N3606 C3609 1.350 . S
N3607 S3605 1.610 . S
N3607 C3608 1.351 . S
C3608 C3602 1.428 . S
C3608 N3607 1.351 . S
C3608 C3609 1.434 . S
C3609 C3600 1.429 . S
C3609 N3606 1.350 . S
C3609 C3608 1.434 . S
C3610 C3611 1.369 . S
C3610 C3612 1.419 . S
C3610 H3614 0.930 . S
C3611 C3610 1.369 . S
C3611 C3620 1.429 . S
C3612 C3610 1.419 . S
C3612 C3613 1.363 . S
C3612 H3615 0.929 . S
C3613 C3612 1.363 . S
C3613 C3619 1.428 . S
H3614 C3610 0.930 . S
H3615 C3612 0.929 . S
S3616 N3617 1.613 . S
S3616 N3618 1.610 . S
N3617 S3616 1.613 . S
N3617 C3620 1.350 . S
N3618 S3616 1.610 . S
N3618 C3619 1.351 . S
C3619 C3613 1.428 . S
C3619 N3618 1.351 . S
C3619 C3620 1.434 . S
C3620 C3611 1.429 . S
C3620 N3617 1.350 . S
C3620 C3619 1.434 . S
C3621 C3622 1.369 . S
C3621 C3623 1.419 . S
C3621 H3625 0.930 . S
C3622 C3621 1.369 . S
C3622 C3631 1.429 . S
C3623 C3621 1.419 . S
C3623 C3624 1.363 . S
C3623 H3626 0.929 . S
C3624 C3623 1.363 . S
C3624 C3630 1.428 . S
H3625 C3621 0.930 . S
H3626 C3623 0.929 . S
S3627 N3628 1.613 . S
S3627 N3629 1.610 . S
N3628 S3627 1.613 . S
N3628 C3631 1.350 . S
N3629 S3627 1.610 . S
N3629 C3630 1.351 . S
C3630 C3624 1.428 . S
C3630 N3629 1.351 . S
C3630 C3631 1.434 . S
C3631 C3622 1.429 . S
C3631 N3628 1.350 . S
C3631 C3630 1.434 . S
C3632 C3633 1.369 1_546 S
C3632 C3634 1.419 1_556 S
C3632 H3636 0.930 . S
C3633 C3632 1.369 1_564 S
C3633 C3642 1.429 . S
C3634 C3632 1.419 1_554 S
C3634 C3635 1.363 1_545 S
C3634 H3637 0.931 . S
C3635 C3634 1.363 1_565 S
C3635 C3641 1.428 . S
H3636 C3632 0.930 . S
H3637 C3634 0.931 . S
S3638 N3639 1.613 . S
S3638 N3640 1.610 . S
N3639 S3638 1.613 . S
N3639 C3642 1.350 . S
N3640 S3638 1.610 . S
N3640 C3641 1.351 . S
C3641 C3635 1.428 . S
C3641 N3640 1.351 . S
C3641 C3642 1.434 . S
C3642 C3633 1.429 . S
C3642 N3639 1.350 . S
C3642 C3641 1.434 . S
C3643 C3644 1.369 1_556 S
C3643 C3645 1.419 . S
C3643 H3647 0.930 . S
C3644 C3643 1.369 1_554 S
C3644 C3653 1.429 . S
C3645 C3643 1.419 . S
C3645 C3646 1.363 1_556 S
C3645 H3648 0.929 . S
C3646 C3645 1.363 1_554 S
C3646 C3652 1.428 . S
H3647 C3643 0.930 . S
H3648 C3645 0.929 . S
S3649 N3650 1.613 . S
S3649 N3651 1.610 . S
N3650 S3649 1.613 . S
N3650 C3653 1.350 . S
N3651 S3649 1.610 . S
N3651 C3652 1.351 . S
C3652 C3646 1.428 . S
C3652 N3651 1.351 . S
C3652 C3653 1.434 . S
C3653 C3644 1.429 . S
C3653 N3650 1.350 . S
C3653 C3652 1.434 . S
C3654 C3655 1.369 . S
C3654 C3656 1.419 . S
C3654 H3658 0.930 . S
C3655 C3654 1.369 . S
C3655 C3664 1.429 . S
C3656 C3654 1.419 . S
C3656 C3657 1.363 . S
C3656 H3659 0.929 . S
C3657 C3656 1.363 . S
C3657 C3663 1.428 . S
H3658 C3654 0.930 . S
H3659 C3656 0.929 . S
S3660 N3661 1.613 . S
S3660 N3662 1.610 . S
N3661 S3660 1.613 . S
N3661 C3664 1.350 . S
N3662 S3660 1.610 . S
N3662 C3663 1.351 . S
C3663 C3657 1.428 . S
C3663 N3662 1.351 . S
C3663 C3664 1.434 . S
C3664 C3655 1.429 . S
C3664 N3661 1.350 . S
C3664 C3663 1.434 . S
C3665 C3666 1.369 . S
C3665 C3667 1.419 . S
C3665 H3669 0.930 . S
C3666 C3665 1.369 . S
C3666 C3675 1.429 . S
C3667 C3665 1.419 . S
C3667 C3668 1.363 . S
C3667 H3670 0.929 . S
C3668 C3667 1.363 . S
C3668 C3674 1.428 . S
H3669 C3665 0.930 . S
H3670 C3667 0.929 . S
S3671 N3672 1.613 . S
S3671 N3673 1.610 . S
N3672 S3671 1.613 . S
N3672 C3675 1.350 . S
N3673 S3671 1.610 . S
N3673 C3674 1.351 . S
C3674 C3668 1.428 . S
C3674 N3673 1.351 . S
C3674 C3675 1.434 . S
C3675 C3666 1.429 . S
C3675 N3672 1.350 . S
C3675 C3674 1.434 . S
C3676 C3677 1.369 . S
C3676 C3678 1.419 . S
C3676 H3680 0.930 . S
C3677 C3676 1.369 . S
C3677 C3686 1.429 . S
C3678 C3676 1.419 . S
C3678 C3679 1.363 . S
C3678 H3681 0.929 . S
C3679 C3678 1.363 . S
C3679 C3685 1.428 . S
H3680 C3676 0.930 . S
H3681 C3678 0.929 . S
S3682 N3683 1.613 . S
S3682 N3684 1.610 . S
N3683 S3682 1.613 . S
N3683 C3686 1.350 . S
N3684 S3682 1.610 . S
N3684 C3685 1.351 . S
C3685 C3679 1.428 . S
C3685 N3684 1.351 . S
C3685 C3686 1.434 . S
C3686 C3677 1.429 . S
C3686 N3683 1.350 . S
C3686 C3685 1.434 . S
C3687 C3688 1.369 . S
C3687 C3689 1.419 . S
C3687 H3691 0.930 . S
C3688 C3687 1.369 . S
C3688 C3697 1.429 . S
C3689 C3687 1.419 . S
C3689 C3690 1.363 . S
C3689 H3692 0.929 . S
C3690 C3689 1.363 . S
C3690 C3696 1.428 . S
H3691 C3687 0.930 . S
H3692 C3689 0.929 . S
S3693 N3694 1.613 . S
S3693 N3695 1.610 . S
N3694 S3693 1.613 . S
N3694 C3697 1.350 . S
N3695 S3693 1.610 . S
N3695 C3696 1.351 . S
C3696 C3690 1.428 . S
C3696 N3695 1.351 . S
C3696 C3697 1.434 . S
C3697 C3688 1.429 . S
C3697 N3694 1.350 . S
C3697 C3696 1.434 . S
C3698 C3699 1.369 . S
C3698 C3700 1.419 . S
C3698 H3702 0.930 . S
C3699 C3698 1.369 . S
C3699 C3708 1.429 . S
C3700 C3698 1.419 . S
C3700 C3701 1.363 . S
C3700 H3703 0.929 . S
C3701 C3700 1.363 . S
C3701 C3707 1.428 . S
H3702 C3698 0.930 . S
H3703 C3700 0.929 . S
S3704 N3705 1.613 . S
S3704 N3706 1.610 . S
N3705 S3704 1.613 . S
N3705 C3708 1.350 . S
N3706 S3704 1.610 . S
N3706 C3707 1.351 . S
C3707 C3701 1.428 . S
C3707 N3706 1.351 . S
C3707 C3708 1.434 . S
C3708 C3699 1.429 . S
C3708 N3705 1.350 . S
C3708 C3707 1.434 . S
C3709 C3710 1.369 . S
C3709 C3711 1.419 . S
C3709 H3713 0.930 . S
C3710 C3709 1.369 . S
C3710 C3719 1.429 . S
C3711 C3709 1.419 . S
C3711 C3712 1.363 . S
C3711 H3714 0.929 . S
C3712 C3711 1.363 . S
C3712 C3718 1.428 . S
H3713 C3709 0.930 . S
H3714 C3711 0.929 . S
S3715 N3716 1.613 . S
S3715 N3717 1.610 . S
N3716 S3715 1.613 . S
N3716 C3719 1.350 . S
N3717 S3715 1.610 . S
N3717 C3718 1.351 . S
C3718 C3712 1.428 . S
C3718 N3717 1.351 . S
C3718 C3719 1.434 . S
C3719 C3710 1.429 . S
C3719 N3716 1.350 . S
C3719 C3718 1.434 . S
C3720 C3721 1.369 . S
C3720 C3722 1.419 . S
C3720 H3724 0.930 . S
C3721 C3720 1.369 . S
C3721 C3730 1.429 . S
C3722 C3720 1.419 . S
C3722 C3723 1.363 . S
C3722 H3725 0.929 . S
C3723 C3722 1.363 . S
C3723 C3729 1.428 . S
H3724 C3720 0.930 . S
H3725 C3722 0.929 . S
S3726 N3727 1.613 . S
S3726 N3728 1.610 . S
N3727 S3726 1.613 . S
N3727 C3730 1.350 . S
N3728 S3726 1.610 . S
N3728 C3729 1.351 . S
C3729 C3723 1.428 . S
C3729 N3728 1.351 . S
C3729 C3730 1.434 . S
C3730 C3721 1.429 . S
C3730 N3727 1.350 . S
C3730 C3729 1.434 . S
C3731 C3732 1.369 . S
C3731 C3733 1.419 . S
C3731 H3735 0.930 . S
C3732 C3731 1.369 . S
C3732 C3741 1.429 . S
C3733 C3731 1.419 . S
C3733 C3734 1.363 . S
C3733 H3736 0.929 . S
C3734 C3733 1.363 . S
C3734 C3740 1.428 . S
H3735 C3731 0.930 . S
H3736 C3733 0.929 . S
S3737 N3738 1.613 . S
S3737 N3739 1.610 . S
N3738 S3737 1.613 . S
N3738 C3741 1.350 . S
N3739 S3737 1.610 . S
N3739 C3740 1.351 . S
C3740 C3734 1.428 . S
C3740 N3739 1.351 . S
C3740 C3741 1.434 . S
C3741 C3732 1.429 . S
C3741 N3738 1.350 . S
C3741 C3740 1.434 . S
C3742 C3743 1.369 . S
C3742 C3744 1.419 . S
C3742 H3746 0.930 . S
C3743 C3742 1.369 . S
C3743 C3752 1.429 . S
C3744 C3742 1.419 . S
C3744 C3745 1.363 . S
C3744 H3747 0.929 . S
C3745 C3744 1.363 . S
C3745 C3751 1.428 . S
H3746 C3742 0.930 . S
H3747 C3744 0.929 . S
S3748 N3749 1.613 . S
S3748 N3750 1.610 . S
N3749 S3748 1.613 . S
N3749 C3752 1.350 . S
N3750 S3748 1.610 . S
N3750 C3751 1.351 . S
C3751 C3745 1.428 . S
C3751 N3750 1.351 . S
C3751 C3752 1.434 . S
C3752 C3743 1.429 . S
C3752 N3749 1.350 . S
C3752 C3751 1.434 . S
C3753 C3754 1.369 . S
C3753 C3755 1.419 . S
C3753 H3757 0.930 . S
C3754 C3753 1.369 . S
C3754 C3763 1.429 . S
C3755 C3753 1.419 . S
C3755 C3756 1.363 . S
C3755 H3758 0.929 . S
C3756 C3755 1.363 . S
C3756 C3762 1.428 . S
H3757 C3753 0.930 . S
H3758 C3755 0.929 . S
S3759 N3760 1.613 . S
S3759 N3761 1.610 . S
N3760 S3759 1.613 . S
N3760 C3763 1.350 . S
N3761 S3759 1.610 . S
N3761 C3762 1.351 . S
C3762 C3756 1.428 . S
C3762 N3761 1.351 . S
C3762 C3763 1.434 . S
C3763 C3754 1.429 . S
C3763 N3760 1.350 . S
C3763 C3762 1.434 . S
C3764 C3765 1.369 . S
C3764 C3766 1.419 . S
C3764 H3768 0.930 . S
C3765 C3764 1.369 . S
C3765 C3774 1.429 . S
C3766 C3764 1.419 . S
C3766 C3767 1.363 . S
C3766 H3769 0.929 . S
C3767 C3766 1.363 . S
C3767 C3773 1.428 . S
H3768 C3764 0.930 . S
H3769 C3766 0.929 . S
S3770 N3771 1.613 . S
S3770 N3772 1.610 . S
N3771 S3770 1.613 . S
N3771 C3774 1.350 . S
N3772 S3770 1.610 . S
N3772 C3773 1.351 . S
C3773 C3767 1.428 . S
C3773 N3772 1.351 . S
C3773 C3774 1.434 . S
C3774 C3765 1.429 . S
C3774 N3771 1.350 . S
C3774 C3773 1.434 . S
C3775 C3776 1.369 . S
C3775 C3777 1.419 . S
C3775 H3779 0.930 . S
C3776 C3775 1.369 . S
C3776 C3785 1.429 . S
C3777 C3775 1.419 . S
C3777 C3778 1.363 . S
C3777 H3780 0.929 . S
C3778 C3777 1.363 . S
C3778 C3784 1.428 . S
H3779 C3775 0.930 . S
H3780 C3777 0.929 . S
S3781 N3782 1.613 . S
S3781 N3783 1.610 . S
N3782 S3781 1.613 . S
N3782 C3785 1.350 . S
N3783 S3781 1.610 . S
N3783 C3784 1.351 . S
C3784 C3778 1.428 . S
C3784 N3783 1.351 . S
C3784 C3785 1.434 . S
C3785 C3776 1.429 . S
C3785 N3782 1.350 . S
C3785 C3784 1.434 . S
C3786 C3787 1.369 . S
C3786 C3788 1.419 . S
C3786 H3790 0.930 . S
C3787 C3786 1.369 . S
C3787 C3796 1.429 . S
C3788 C3786 1.419 . S
C3788 C3789 1.363 . S
C3788 H3791 0.929 1_556 S
C3789 C3788 1.363 . S
C3789 C3795 1.428 . S
H3790 C3786 0.930 . S
H3791 C3788 0.929 1_554 S
S3792 N3793 1.613 . S
S3792 N3794 1.610 . S
N3793 S3792 1.613 . S
N3793 C3796 1.350 . S
N3794 S3792 1.610 . S
N3794 C3795 1.351 . S
C3795 C3789 1.428 . S
C3795 N3794 1.351 . S
C3795 C3796 1.434 . S
C3796 C3787 1.429 . S
C3796 N3793 1.350 . S
C3796 C3795 1.434 . S
C3797 C3798 1.369 . S
C3797 C3799 1.419 . S
C3797 H3801 0.930 . S
C3798 C3797 1.369 . S
C3798 C3807 1.429 . S
C3799 C3797 1.419 . S
C3799 C3800 1.363 . S
C3799 H3802 0.929 . S
C3800 C3799 1.363 . S
C3800 C3806 1.428 . S
H3801 C3797 0.930 . S
H3802 C3799 0.929 . S
S3803 N3804 1.613 . S
S3803 N3805 1.610 . S
N3804 S3803 1.613 . S
N3804 C3807 1.350 . S
N3805 S3803 1.610 . S
N3805 C3806 1.351 . S
C3806 C3800 1.428 . S
C3806 N3805 1.351 . S
C3806 C3807 1.434 . S
C3807 C3798 1.429 . S
C3807 N3804 1.350 . S
C3807 C3806 1.434 . S
C3808 C3809 1.369 . S
C3808 C3810 1.419 . S
C3808 H3812 0.930 . S
C3809 C3808 1.369 . S
C3809 C3818 1.429 . S
C3810 C3808 1.419 . S
C3810 C3811 1.363 . S
C3810 H3813 0.929 . S
C3811 C3810 1.363 . S
C3811 C3817 1.428 . S
H3812 C3808 0.930 . S
H3813 C3810 0.929 . S
S3814 N3815 1.613 . S
S3814 N3816 1.610 . S
N3815 S3814 1.613 . S
N3815 C3818 1.350 . S
N3816 S3814 1.610 . S
N3816 C3817 1.351 . S
C3817 C3811 1.428 . S
C3817 N3816 1.351 . S
C3817 C3818 1.434 . S
C3818 C3809 1.429 . S
C3818 N3815 1.350 . S
C3818 C3817 1.434 . S
C3819 C3820 1.369 . S
C3819 C3821 1.419 . S
C3819 H3823 0.930 . S
C3820 C3819 1.369 . S
C3820 C3829 1.429 . S
C3821 C3819 1.419 . S
C3821 C3822 1.363 . S
C3821 H3824 0.929 . S
C3822 C3821 1.363 . S
C3822 C3828 1.428 . S
H3823 C3819 0.930 . S
H3824 C3821 0.929 . S
S3825 N3826 1.613 . S
S3825 N3827 1.610 . S
N3826 S3825 1.613 . S
N3826 C3829 1.350 . S
N3827 S3825 1.610 . S
N3827 C3828 1.351 . S
C3828 C3822 1.428 . S
C3828 N3827 1.351 . S
C3828 C3829 1.434 . S
C3829 C3820 1.429 . S
C3829 N3826 1.350 . S
C3829 C3828 1.434 . S
C3830 C3831 1.369 . S
C3830 C3832 1.419 . S
C3830 H3834 0.930 . S
C3831 C3830 1.369 . S
C3831 C3840 1.429 . S
C3832 C3830 1.419 . S
C3832 C3833 1.363 . S
C3832 H3835 0.929 . S
C3833 C3832 1.363 . S
C3833 C3839 1.428 . S
H3834 C3830 0.930 . S
H3835 C3832 0.929 . S
S3836 N3837 1.613 . S
S3836 N3838 1.610 . S
N3837 S3836 1.613 . S
N3837 C3840 1.350 . S
N3838 S3836 1.610 . S
N3838 C3839 1.351 . S
C3839 C3833 1.428 . S
C3839 N3838 1.351 . S
C3839 C3840 1.434 . S
C3840 C3831 1.429 . S
C3840 N3837 1.350 . S
C3840 C3839 1.434 . S
C3841 C3842 1.369 . S
C3841 C3843 1.419 . S
C3841 H3845 0.930 . S
C3842 C3841 1.369 . S
C3842 C3851 1.429 . S
C3843 C3841 1.419 . S
C3843 C3844 1.363 . S
C3843 H3846 0.929 . S
C3844 C3843 1.363 . S
C3844 C3850 1.428 . S
H3845 C3841 0.930 . S
H3846 C3843 0.929 . S
S3847 N3848 1.613 . S
S3847 N3849 1.610 . S
N3848 S3847 1.613 . S
N3848 C3851 1.350 . S
N3849 S3847 1.610 . S
N3849 C3850 1.351 . S
C3850 C3844 1.428 . S
C3850 N3849 1.351 . S
C3850 C3851 1.434 . S
C3851 C3842 1.429 . S
C3851 N3848 1.350 . S
C3851 C3850 1.434 . S
C3852 C3853 1.369 . S
C3852 C3854 1.419 . S
C3852 H3856 0.930 1_545 S
C3853 C3852 1.369 . S
C3853 C3862 1.429 . S
C3854 C3852 1.419 . S
C3854 C3855 1.363 . S
C3854 H3857 0.903 1_545 S
C3855 C3854 1.363 . S
C3855 C3861 1.428 . S
H3856 C3852 0.930 1_565 S
H3857 C3854 0.903 1_565 S
S3858 N3859 1.613 . S
S3858 N3860 1.610 . S
N3859 S3858 1.613 . S
N3859 C3862 1.350 . S
N3860 S3858 1.610 . S
N3860 C3861 1.351 . S
C3861 C3855 1.428 . S
C3861 N3860 1.351 . S
C3861 C3862 1.434 . S
C3862 C3853 1.429 . S
C3862 N3859 1.350 . S
C3862 C3861 1.434 . S
C3863 C3864 1.369 . S
C3863 C3865 1.419 . S
C3863 H3867 0.930 . S
C3864 C3863 1.369 . S
C3864 C3873 1.429 . S
C3865 C3863 1.419 . S
C3865 C3866 1.363 . S
C3865 H3868 0.929 . S
C3866 C3865 1.363 . S
C3866 C3872 1.428 . S
H3867 C3863 0.930 . S
H3868 C3865 0.929 . S
S3869 N3870 1.613 . S
S3869 N3871 1.610 . S
N3870 S3869 1.613 . S
N3870 C3873 1.350 . S
N3871 S3869 1.610 . S
N3871 C3872 1.351 . S
C3872 C3866 1.428 . S
C3872 N3871 1.351 . S
C3872 C3873 1.434 . S
C3873 C3864 1.429 . S
C3873 N3870 1.350 . S
C3873 C3872 1.434 . S
C3874 C3875 1.369 1_565 S
C3874 C3876 1.419 . S
C3874 H3878 0.930 . S
C3875 C3874 1.369 1_545 S
C3875 C3884 1.429 . S
C3876 C3874 1.419 . S
C3876 C3877 1.363 1_565 S
C3876 H3879 0.929 . S
C3877 C3876 1.363 1_545 S
C3877 C3883 1.428 . S
H3878 C3874 0.930 . S
H3879 C3876 0.929 . S
S3880 N3881 1.613 . S
S3880 N3882 1.610 . S
N3881 S3880 1.613 . S
N3881 C3884 1.350 . S
N3882 S3880 1.610 . S
N3882 C3883 1.351 . S
C3883 C3877 1.428 . S
C3883 N3882 1.351 . S
C3883 C3884 1.434 . S
C3884 C3875 1.429 . S
C3884 N3881 1.350 . S
C3884 C3883 1.434 . S
C3885 C3886 1.369 . S
C3885 C3887 1.419 . S
C3885 H3889 0.930 . S
C3886 C3885 1.369 . S
C3886 C3895 1.429 . S
C3887 C3885 1.419 . S
C3887 C3888 1.363 . S
C3887 H3890 0.929 . S
C3888 C3887 1.363 . S
C3888 C3894 1.428 . S
H3889 C3885 0.930 . S
H3890 C3887 0.929 . S
S3891 N3892 1.613 . S
S3891 N3893 1.610 . S
N3892 S3891 1.613 . S
N3892 C3895 1.350 . S
N3893 S3891 1.610 . S
N3893 C3894 1.351 . S
C3894 C3888 1.428 . S
C3894 N3893 1.351 . S
C3894 C3895 1.434 . S
C3895 C3886 1.429 . S
C3895 N3892 1.350 . S
C3895 C3894 1.434 . S
C3896 C3897 1.369 . S
C3896 C3898 1.419 . S
C3896 H3900 0.930 . S
C3897 C3896 1.369 . S
C3897 C3906 1.429 . S
C3898 C3896 1.419 . S
C3898 C3899 1.363 . S
C3898 H3901 0.929 . S
C3899 C3898 1.363 . S
C3899 C3905 1.428 . S
H3900 C3896 0.930 . S
H3901 C3898 0.929 . S
S3902 N3903 1.613 . S
S3902 N3904 1.610 . S
N3903 S3902 1.613 . S
N3903 C3906 1.350 . S
N3904 S3902 1.610 . S
N3904 C3905 1.351 . S
C3905 C3899 1.428 . S
C3905 N3904 1.351 . S
C3905 C3906 1.434 . S
C3906 C3897 1.429 . S
C3906 N3903 1.350 . S
C3906 C3905 1.434 . S
C3907 C3908 1.369 . S
C3907 C3909 1.419 . S
C3907 H3911 0.930 . S
C3908 C3907 1.369 . S
C3908 C3917 1.429 . S
C3909 C3907 1.419 . S
C3909 C3910 1.363 . S
C3909 H3912 0.929 . S
C3910 C3909 1.363 . S
C3910 C3916 1.428 . S
H3911 C3907 0.930 . S
H3912 C3909 0.929 . S
S3913 N3914 1.613 . S
S3913 N3915 1.610 . S
N3914 S3913 1.613 . S
N3914 C3917 1.350 . S
N3915 S3913 1.610 . S
N3915 C3916 1.351 . S
C3916 C3910 1.428 . S
C3916 N3915 1.351 . S
C3916 C3917 1.434 . S
C3917 C3908 1.429 . S
C3917 N3914 1.350 . S
C3917 C3916 1.434 . S
C3918 C3919 1.369 . S
C3918 C3920 1.419 . S
C3918 H3922 0.930 . S
C3919 C3918 1.369 . S
C3919 C3928 1.429 . S
C3920 C3918 1.419 . S
C3920 C3921 1.363 . S
C3920 H3923 0.929 . S
C3921 C3920 1.363 . S
C3921 C3927 1.428 . S
H3922 C3918 0.930 . S
H3923 C3920 0.929 . S
S3924 N3925 1.613 . S
S3924 N3926 1.610 . S
N3925 S3924 1.613 . S
N3925 C3928 1.350 . S
N3926 S3924 1.610 . S
N3926 C3927 1.351 . S
C3927 C3921 1.428 . S
C3927 N3926 1.351 . S
C3927 C3928 1.434 . S
C3928 C3919 1.429 . S
C3928 N3925 1.350 . S
C3928 C3927 1.434 . S
C3929 C3930 1.369 . S
C3929 C3931 1.419 . S
C3929 H3933 0.930 . S
C3930 C3929 1.369 . S
C3930 C3939 1.429 . S
C3931 C3929 1.419 . S
C3931 C3932 1.363 . S
C3931 H3934 0.929 . S
C3932 C3931 1.363 . S
C3932 C3938 1.428 . S
H3933 C3929 0.930 . S
H3934 C3931 0.929 . S
S3935 N3936 1.613 . S
S3935 N3937 1.610 . S
N3936 S3935 1.613 . S
N3936 C3939 1.350 . S
N3937 S3935 1.610 . S
N3937 C3938 1.351 . S
C3938 C3932 1.428 . S
C3938 N3937 1.351 . S
C3938 C3939 1.434 . S
C3939 C3930 1.429 . S
C3939 N3936 1.350 . S
C3939 C3938 1.434 . S
C3940 C3941 1.369 . S
C3940 C3942 1.419 . S
C3940 H3944 0.930 . S
C3941 C3940 1.369 . S
C3941 C3950 1.429 . S
C3942 C3940 1.419 . S
C3942 C3943 1.363 . S
C3942 H3945 0.929 . S
C3943 C3942 1.363 . S
C3943 C3949 1.428 . S
H3944 C3940 0.930 . S
H3945 C3942 0.929 . S
S3946 N3947 1.613 . S
S3946 N3948 1.610 . S
N3947 S3946 1.613 . S
N3947 C3950 1.350 . S
N3948 S3946 1.610 . S
N3948 C3949 1.351 . S
C3949 C3943 1.428 . S
C3949 N3948 1.351 . S
C3949 C3950 1.434 . S
C3950 C3941 1.429 . S
C3950 N3947 1.350 . S
C3950 C3949 1.434 . S
C3951 C3952 1.369 . S
C3951 C3953 1.419 . S
C3951 H3955 0.930 . S
C3952 C3951 1.369 . S
C3952 C3961 1.429 . S
C3953 C3951 1.419 . S
C3953 C3954 1.363 . S
C3953 H3956 0.929 . S
C3954 C3953 1.363 . S
C3954 C3960 1.428 . S
H3955 C3951 0.930 . S
H3956 C3953 0.929 . S
S3957 N3958 1.613 . S
S3957 N3959 1.610 . S
N3958 S3957 1.613 . S
N3958 C3961 1.350 . S
N3959 S3957 1.610 . S
N3959 C3960 1.351 . S
C3960 C3954 1.428 . S
C3960 N3959 1.351 . S
C3960 C3961 1.434 . S
C3961 C3952 1.429 . S
C3961 N3958 1.350 . S
C3961 C3960 1.434 . S
C3962 C3963 1.369 . S
C3962 C3964 1.419 . S
C3962 H3966 0.930 . S
C3963 C3962 1.369 . S
C3963 C3972 1.429 . S
C3964 C3962 1.419 . S
C3964 C3965 1.363 . S
C3964 H3967 0.929 . S
C3965 C3964 1.363 . S
C3965 C3971 1.428 . S
H3966 C3962 0.930 . S
H3967 C3964 0.929 . S
S3968 N3969 1.613 . S
S3968 N3970 1.610 . S
N3969 S3968 1.613 . S
N3969 C3972 1.350 . S
N3970 S3968 1.610 . S
N3970 C3971 1.351 . S
C3971 C3965 1.428 . S
C3971 N3970 1.351 . S
C3971 C3972 1.434 . S
C3972 C3963 1.429 . S
C3972 N3969 1.350 . S
C3972 C3971 1.434 . S
C3973 C3974 1.369 . S
C3973 C3975 1.419 . S
C3973 H3977 0.930 . S
C3974 C3973 1.369 . S
C3974 C3983 1.429 . S
C3975 C3973 1.419 . S
C3975 C3976 1.363 . S
C3975 H3978 0.929 . S
C3976 C3975 1.363 . S
C3976 C3982 1.428 . S
H3977 C3973 0.930 . S
H3978 C3975 0.929 . S
S3979 N3980 1.613 . S
S3979 N3981 1.610 . S
N3980 S3979 1.613 . S
N3980 C3983 1.350 . S
N3981 S3979 1.610 . S
N3981 C3982 1.351 . S
C3982 C3976 1.428 . S
C3982 N3981 1.351 . S
C3982 C3983 1.434 . S
C3983 C3974 1.429 . S
C3983 N3980 1.350 . S
C3983 C3982 1.434 . S
C3984 C3985 1.369 . S
C3984 C3986 1.419 . S
C3984 H3988 0.930 . S
C3985 C3984 1.369 . S
C3985 C3994 1.429 . S
C3986 C3984 1.419 . S
C3986 C3987 1.363 . S
C3986 H3989 0.929 . S
C3987 C3986 1.363 . S
C3987 C3993 1.428 . S
H3988 C3984 0.930 . S
H3989 C3986 0.929 . S
S3990 N3991 1.613 . S
S3990 N3992 1.610 . S
N3991 S3990 1.613 . S
N3991 C3994 1.350 . S
N3992 S3990 1.610 . S
N3992 C3993 1.351 . S
C3993 C3987 1.428 . S
C3993 N3992 1.351 . S
C3993 C3994 1.434 . S
C3994 C3985 1.429 . S
C3994 N3991 1.350 . S
C3994 C3993 1.434 . S
C3995 C3996 1.369 . S
C3995 C3997 1.419 . S
C3995 H3999 0.930 . S
C3996 C3995 1.369 . S
C3996 C4005 1.429 . S
C3997 C3995 1.419 . S
C3997 C3998 1.363 . S
C3997 H4000 0.929 . S
C3998 C3997 1.363 . S
C3998 C4004 1.428 . S
H3999 C3995 0.930 . S
H4000 C3997 0.929 . S
S4001 N4002 1.613 . S
S4001 N4003 1.610 . S
N4002 S4001 1.613 . S
N4002 C4005 1.350 . S
N4003 S4001 1.610 . S
N4003 C4004 1.351 . S
C4004 C3998 1.428 . S
C4004 N4003 1.351 . S
C4004 C4005 1.434 . S
C4005 C3996 1.429 . S
C4005 N4002 1.350 . S
C4005 C4004 1.434 . S
C4006 C4007 1.369 . S
C4006 C4008 1.419 . S
C4006 H4010 0.930 . S
C4007 C4006 1.369 . S
C4007 C4016 1.429 . S
C4008 C4006 1.419 . S
C4008 C4009 1.363 . S
C4008 H4011 0.929 . S
C4009 C4008 1.363 . S
C4009 C4015 1.446 . S
H4010 C4006 0.930 . S
H4011 C4008 0.929 . S
S4012 N4013 1.613 . S
S4012 N4014 1.610 . S
N4013 S4012 1.613 . S
N4013 C4016 1.350 1_556 S
N4014 S4012 1.610 . S
N4014 C4015 1.327 1_556 S
C4015 C4009 1.446 . S
C4015 N4014 1.327 1_554 S
C4015 C4016 1.440 . S
C4016 C4007 1.429 . S
C4016 N4013 1.350 1_554 S
C4016 C4015 1.440 . S
C4017 C4018 1.369 . S
C4017 C4019 1.419 . S
C4017 H4021 0.930 . S
C4018 C4017 1.369 . S
C4018 C4027 1.429 . S
C4019 C4017 1.419 . S
C4019 C4020 1.363 . S
C4019 H4022 0.929 . S
C4020 C4019 1.363 . S
C4020 C4026 1.428 . S
H4021 C4017 0.930 . S
H4022 C4019 0.929 . S
S4023 N4024 1.613 . S
S4023 N4025 1.610 . S
N4024 S4023 1.613 . S
N4024 C4027 1.350 . S
N4025 S4023 1.610 . S
N4025 C4026 1.351 . S
C4026 C4020 1.428 . S
C4026 N4025 1.351 . S
C4026 C4027 1.434 . S
C4027 C4018 1.429 . S
C4027 N4024 1.350 . S
C4027 C4026 1.434 . S
C4028 C4029 1.369 . S
C4028 C4030 1.419 . S
C4028 H4032 0.930 . S
C4029 C4028 1.369 . S
C4029 C4038 1.429 . S
C4030 C4028 1.419 . S
C4030 C4031 1.363 . S
C4030 H4033 0.929 . S
C4031 C4030 1.363 . S
C4031 C4037 1.428 . S
H4032 C4028 0.930 . S
H4033 C4030 0.929 . S
S4034 N4035 1.613 . S
S4034 N4036 1.610 . S
N4035 S4034 1.613 . S
N4035 C4038 1.350 . S
N4036 S4034 1.610 . S
N4036 C4037 1.351 . S
C4037 C4031 1.428 . S
C4037 N4036 1.351 . S
C4037 C4038 1.434 . S
C4038 C4029 1.429 . S
C4038 N4035 1.350 . S
C4038 C4037 1.434 . S
C4039 C4040 1.369 . S
C4039 C4041 1.419 . S
C4039 H4043 0.930 . S
C4040 C4039 1.369 . S
C4040 C4049 1.429 . S
C4041 C4039 1.419 . S
C4041 C4042 1.363 . S
C4041 H4044 0.929 . S
C4042 C4041 1.363 . S
C4042 C4048 1.428 . S
H4043 C4039 0.930 . S
H4044 C4041 0.929 . S
S4045 N4046 1.613 . S
S4045 N4047 1.610 . S
N4046 S4045 1.613 . S
N4046 C4049 1.350 . S
N4047 S4045 1.610 . S
N4047 C4048 1.351 . S
C4048 C4042 1.428 . S
C4048 N4047 1.351 . S
C4048 C4049 1.434 . S
C4049 C4040 1.429 . S
C4049 N4046 1.350 . S
C4049 C4048 1.434 . S
C4050 C4051 1.369 . S
C4050 C4052 1.419 . S
C4050 H4054 0.930 . S
C4051 C4050 1.369 . S
C4051 C4060 1.429 . S
C4052 C4050 1.419 . S
C4052 C4053 1.363 . S
C4052 H4055 0.929 . S
C4053 C4052 1.363 . S
C4053 C4059 1.428 . S
H4054 C4050 0.930 . S
H4055 C4052 0.929 . S
S4056 N4057 1.613 . S
S4056 N4058 1.610 1_655 S
N4057 S4056 1.613 . S
N4057 C4060 1.350 1_655 S
N4058 S4056 1.610 1_455 S
N4058 C4059 1.351 . S
C4059 C4053 1.428 . S
C4059 N4058 1.351 . S
C4059 C4060 1.434 . S
C4060 C4051 1.429 . S
C4060 N4057 1.350 1_455 S
C4060 C4059 1.434 . S
C4061 C4062 1.369 . S
C4061 C4063 1.419 . S
C4061 H4065 0.930 . S
C4062 C4061 1.369 . S
C4062 C4071 1.429 . S
C4063 C4061 1.419 . S
C4063 C4064 1.363 . S
C4063 H4066 0.929 . S
C4064 C4063 1.363 . S
C4064 C4070 1.428 . S
H4065 C4061 0.930 . S
H4066 C4063 0.929 . S
S4067 N4068 1.613 . S
S4067 N4069 1.610 . S
N4068 S4067 1.613 . S
N4068 C4071 1.350 . S
N4069 S4067 1.610 . S
N4069 C4070 1.351 . S
C4070 C4064 1.428 . S
C4070 N4069 1.351 . S
C4070 C4071 1.434 . S
C4071 C4062 1.429 . S
C4071 N4068 1.350 . S
C4071 C4070 1.434 . S
C4072 C4073 1.369 . S
C4072 C4074 1.419 . S
C4072 H4076 0.930 . S
C4073 C4072 1.369 . S
C4073 C4082 1.429 . S
C4074 C4072 1.419 . S
C4074 C4075 1.363 . S
C4074 H4077 0.929 . S
C4075 C4074 1.363 . S
C4075 C4081 1.428 . S
H4076 C4072 0.930 . S
H4077 C4074 0.929 . S
S4078 N4079 1.613 . S
S4078 N4080 1.610 . S
N4079 S4078 1.613 . S
N4079 C4082 1.350 . S
N4080 S4078 1.610 . S
N4080 C4081 1.351 . S
C4081 C4075 1.428 . S
C4081 N4080 1.351 . S
C4081 C4082 1.434 . S
C4082 C4073 1.429 . S
C4082 N4079 1.350 . S
C4082 C4081 1.434 . S
C4083 C4084 1.369 . S
C4083 C4085 1.419 . S
C4083 H4087 0.930 . S
C4084 C4083 1.369 . S
C4084 C4093 1.429 . S
C4085 C4083 1.419 . S
C4085 C4086 1.363 . S
C4085 H4088 0.929 . S
C4086 C4085 1.363 . S
C4086 C4092 1.428 . S
H4087 C4083 0.930 . S
H4088 C4085 0.929 . S
S4089 N4090 1.613 . S
S4089 N4091 1.610 . S
N4090 S4089 1.613 . S
N4090 C4093 1.350 . S
N4091 S4089 1.610 . S
N4091 C4092 1.351 . S
C4092 C4086 1.428 . S
C4092 N4091 1.351 . S
C4092 C4093 1.434 . S
C4093 C4084 1.429 . S
C4093 N4090 1.350 . S
C4093 C4092 1.434 . S
C4094 C4095 1.369 . S
C4094 C4096 1.419 . S
C4094 H4098 0.930 . S
C4095 C4094 1.369 . S
C4095 C4104 1.429 . S
C4096 C4094 1.419 . S
C4096 C4097 1.363 . S
C4096 H4099 0.929 . S
C4097 C4096 1.363 . S
C4097 C4103 1.428 . S
H4098 C4094 0.930 . S
H4099 C4096 0.929 . S
S4100 N4101 1.613 . S
S4100 N4102 1.610 . S
N4101 S4100 1.613 . S
N4101 C4104 1.350 . S
N4102 S4100 1.610 . S
N4102 C4103 1.351 . S
C4103 C4097 1.428 . S
C4103 N4102 1.351 . S
C4103 C4104 1.434 . S
C4104 C4095 1.429 . S
C4104 N4101 1.350 . S
C4104 C4103 1.434 . S
C4105 C4106 1.369 . S
C4105 C4107 1.419 . S
C4105 H4109 0.930 . S
C4106 C4105 1.369 . S
C4106 C4115 1.429 . S
C4107 C4105 1.419 . S
C4107 C4108 1.363 . S
C4107 H4110 0.929 . S
C4108 C4107 1.363 . S
C4108 C4114 1.428 . S
H4109 C4105 0.930 . S
H4110 C4107 0.929 . S
S4111 N4112 1.613 . S
S4111 N4113 1.610 . S
N4112 S4111 1.613 . S
N4112 C4115 1.350 . S
N4113 S4111 1.610 . S
N4113 C4114 1.351 . S
C4114 C4108 1.428 . S
C4114 N4113 1.351 . S
C4114 C4115 1.434 . S
C4115 C4106 1.429 . S
C4115 N4112 1.350 . S
C4115 C4114 1.434 . S
C4116 C4117 1.369 . S
C4116 C4118 1.419 . S
C4116 H4120 0.930 . S
C4117 C4116 1.369 . S
C4117 C4126 1.429 . S
C4118 C4116 1.419 . S
C4118 C4119 1.363 . S
C4118 H4121 0.929 . S
C4119 C4118 1.363 . S
C4119 C4125 1.428 . S
H4120 C4116 0.930 . S
H4121 C4118 0.929 . S
S4122 N4123 1.613 . S
S4122 N4124 1.610 . S
N4123 S4122 1.613 . S
N4123 C4126 1.350 . S
N4124 S4122 1.610 . S
N4124 C4125 1.351 . S
C4125 C4119 1.428 . S
C4125 N4124 1.351 . S
C4125 C4126 1.434 . S
C4126 C4117 1.429 . S
C4126 N4123 1.350 . S
C4126 C4125 1.434 . S
C4127 C4128 1.369 . S
C4127 C4129 1.419 . S
C4127 H4131 0.930 . S
C4128 C4127 1.369 . S
C4128 C4137 1.429 . S
C4129 C4127 1.419 . S
C4129 C4130 1.363 . S
C4129 H4132 0.929 . S
C4130 C4129 1.363 . S
C4130 C4136 1.428 . S
H4131 C4127 0.930 . S
H4132 C4129 0.929 . S
S4133 N4134 1.613 . S
S4133 N4135 1.610 . S
N4134 S4133 1.613 . S
N4134 C4137 1.350 . S
N4135 S4133 1.610 . S
N4135 C4136 1.351 . S
C4136 C4130 1.428 . S
C4136 N4135 1.351 . S
C4136 C4137 1.434 . S
C4137 C4128 1.429 . S
C4137 N4134 1.350 . S
C4137 C4136 1.434 . S
C4138 C4139 1.369 . S
C4138 C4140 1.419 . S
C4138 H4142 0.930 . S
C4139 C4138 1.369 . S
C4139 C4148 1.429 . S
C4140 C4138 1.419 . S
C4140 C4141 1.363 . S
C4140 H4143 0.929 . S
C4141 C4140 1.363 . S
C4141 C4147 1.428 . S
H4142 C4138 0.930 . S
H4143 C4140 0.929 . S
S4144 N4145 1.613 . S
S4144 N4146 1.610 . S
N4145 S4144 1.613 . S
N4145 C4148 1.350 . S
N4146 S4144 1.610 . S
N4146 C4147 1.351 . S
C4147 C4141 1.428 . S
C4147 N4146 1.351 . S
C4147 C4148 1.434 . S
C4148 C4139 1.429 . S
C4148 N4145 1.350 . S
C4148 C4147 1.434 . S
C4149 C4150 1.369 . S
C4149 C4151 1.419 . S
C4149 H4153 0.930 . S
C4150 C4149 1.369 . S
C4150 C4159 1.429 . S
C4151 C4149 1.419 . S
C4151 C4152 1.363 . S
C4151 H4154 0.929 . S
C4152 C4151 1.363 . S
C4152 C4158 1.428 . S
H4153 C4149 0.930 . S
H4154 C4151 0.929 . S
S4155 N4156 1.613 . S
S4155 N4157 1.610 . S
N4156 S4155 1.613 . S
N4156 C4159 1.350 . S
N4157 S4155 1.610 . S
N4157 C4158 1.351 . S
C4158 C4152 1.428 . S
C4158 N4157 1.351 . S
C4158 C4159 1.434 . S
C4159 C4150 1.429 . S
C4159 N4156 1.350 . S
C4159 C4158 1.434 . S
C4160 C4161 1.369 . S
C4160 C4162 1.419 . S
C4160 H4164 0.930 . S
C4161 C4160 1.369 . S
C4161 C4170 1.429 . S
C4162 C4160 1.419 . S
C4162 C4163 1.363 . S
C4162 H4165 0.929 . S
C4163 C4162 1.363 . S
C4163 C4169 1.428 . S
H4164 C4160 0.930 . S
H4165 C4162 0.929 . S
S4166 N4167 1.613 . S
S4166 N4168 1.610 . S
N4167 S4166 1.613 . S
N4167 C4170 1.350 . S
N4168 S4166 1.610 . S
N4168 C4169 1.351 . S
C4169 C4163 1.428 . S
C4169 N4168 1.351 . S
C4169 C4170 1.434 . S
C4170 C4161 1.429 . S
C4170 N4167 1.350 . S
C4170 C4169 1.434 . S
C4171 C4172 1.369 . S
C4171 C4173 1.419 . S
C4171 H4175 0.930 . S
C4172 C4171 1.369 . S
C4172 C4181 1.429 . S
C4173 C4171 1.419 . S
C4173 C4174 1.363 . S
C4173 H4176 0.929 . S
C4174 C4173 1.363 . S
C4174 C4180 1.428 . S
H4175 C4171 0.930 . S
H4176 C4173 0.929 . S
S4177 N4178 1.613 . S
S4177 N4179 1.610 . S
N4178 S4177 1.613 . S
N4178 C4181 1.350 . S
N4179 S4177 1.610 . S
N4179 C4180 1.351 . S
C4180 C4174 1.428 . S
C4180 N4179 1.351 . S
C4180 C4181 1.434 . S
C4181 C4172 1.429 . S
C4181 N4178 1.350 . S
C4181 C4180 1.434 . S
C4182 C4183 1.369 . S
C4182 C4184 1.419 . S
C4182 H4186 0.930 . S
C4183 C4182 1.369 . S
C4183 C4192 1.429 . S
C4184 C4182 1.419 . S
C4184 C4185 1.363 . S
C4184 H4187 0.929 . S
C4185 C4184 1.363 . S
C4185 C4191 1.428 . S
H4186 C4182 0.930 . S
H4187 C4184 0.929 . S
S4188 N4189 1.613 . S
S4188 N4190 1.610 . S
N4189 S4188 1.613 . S
N4189 C4192 1.350 . S
N4190 S4188 1.610 . S
N4190 C4191 1.351 . S
C4191 C4185 1.428 . S
C4191 N4190 1.351 . S
C4191 C4192 1.434 . S
C4192 C4183 1.429 . S
C4192 N4189 1.350 . S
C4192 C4191 1.434 . S
C4193 C4194 1.369 . S
C4193 C4195 1.419 . S
C4193 H4197 0.930 . S
C4194 C4193 1.369 . S
C4194 C4203 1.429 1_545 S
C4195 C4193 1.419 . S
C4195 C4196 1.363 . S
C4195 H4198 0.929 . S
C4196 C4195 1.363 . S
C4196 C4202 1.428 1_545 S
H4197 C4193 0.930 . S
H4198 C4195 0.929 . S
S4199 N4200 1.613 . S
S4199 N4201 1.610 . S
N4200 S4199 1.613 . S
N4200 C4203 1.350 . S
N4201 S4199 1.610 . S
N4201 C4202 1.351 . S
C4202 C4196 1.428 1_565 S
C4202 N4201 1.351 . S
C4202 C4203 1.434 . S
C4203 C4194 1.429 1_565 S
C4203 N4200 1.350 . S
C4203 C4202 1.434 . S
C4204 C4205 1.369 . S
C4204 C4206 1.419 . S
C4204 H4208 0.930 . S
C4205 C4204 1.369 . S
C4205 C4214 1.429 . S
C4206 C4204 1.419 . S
C4206 C4207 1.363 . S
C4206 H4209 0.929 . S
C4207 C4206 1.363 . S
C4207 C4213 1.428 . S
H4208 C4204 0.930 . S
H4209 C4206 0.929 . S
S4210 N4211 1.613 . S
S4210 N4212 1.610 . S
N4211 S4210 1.613 . S
N4211 C4214 1.350 . S
N4212 S4210 1.610 . S
N4212 C4213 1.351 . S
C4213 C4207 1.428 . S
C4213 N4212 1.351 . S
C4213 C4214 1.434 . S
C4214 C4205 1.429 . S
C4214 N4211 1.350 . S
C4214 C4213 1.434 . S
C4215 C4216 1.369 . S
C4215 C4217 1.419 . S
C4215 H4219 0.930 1_554 S
C4216 C4215 1.369 . S
C4216 C4225 1.429 . S
C4217 C4215 1.419 . S
C4217 C4218 1.363 . S
C4217 H4220 0.929 . S
C4218 C4217 1.363 . S
C4218 C4224 1.428 . S
H4219 C4215 0.930 1_556 S
H4220 C4217 0.929 . S
S4221 N4222 1.613 . S
S4221 N4223 1.610 . S
N4222 S4221 1.613 . S
N4222 C4225 1.350 . S
N4223 S4221 1.610 . S
N4223 C4224 1.351 . S
C4224 C4218 1.428 . S
C4224 N4223 1.351 . S
C4224 C4225 1.434 . S
C4225 C4216 1.429 . S
C4225 N4222 1.350 . S
C4225 C4224 1.434 . S
C4226 C4227 1.369 . S
C4226 C4228 1.419 . S
C4226 H4230 0.930 . S
C4227 C4226 1.369 . S
C4227 C4236 1.429 . S
C4228 C4226 1.419 . S
C4228 C4229 1.363 . S
C4228 H4231 0.929 . S
C4229 C4228 1.363 . S
C4229 C4235 1.428 . S
H4230 C4226 0.930 . S
H4231 C4228 0.929 . S
S4232 N4233 1.613 . S
S4232 N4234 1.610 . S
N4233 S4232 1.613 . S
N4233 C4236 1.350 . S
N4234 S4232 1.610 . S
N4234 C4235 1.351 . S
C4235 C4229 1.428 . S
C4235 N4234 1.351 . S
C4235 C4236 1.434 . S
C4236 C4227 1.429 . S
C4236 N4233 1.350 . S
C4236 C4235 1.434 . S
C4237 C4238 1.369 . S
C4237 C4239 1.419 . S
C4237 H4241 0.930 . S
C4238 C4237 1.369 . S
C4238 C4247 1.429 . S
C4239 C4237 1.419 . S
C4239 C4240 1.363 . S
C4239 H4242 0.929 . S
C4240 C4239 1.363 . S
C4240 C4246 1.428 . S
H4241 C4237 0.930 . S
H4242 C4239 0.929 . S
S4243 N4244 1.613 . S
S4243 N4245 1.610 . S
N4244 S4243 1.613 . S
N4244 C4247 1.350 . S
N4245 S4243 1.610 . S
N4245 C4246 1.351 . S
C4246 C4240 1.428 . S
C4246 N4245 1.351 . S
C4246 C4247 1.434 . S
C4247 C4238 1.429 . S
C4247 N4244 1.350 . S
C4247 C4246 1.434 . S
C4248 C4249 1.369 . S
C4248 C4250 1.419 . S
C4248 H4252 0.930 . S
C4249 C4248 1.369 . S
C4249 C4258 1.429 . S
C4250 C4248 1.419 . S
C4250 C4251 1.363 . S
C4250 H4253 0.929 . S
C4251 C4250 1.363 . S
C4251 C4257 1.428 . S
H4252 C4248 0.930 . S
H4253 C4250 0.929 . S
S4254 N4255 1.613 . S
S4254 N4256 1.610 . S
N4255 S4254 1.613 . S
N4255 C4258 1.350 . S
N4256 S4254 1.610 . S
N4256 C4257 1.351 . S
C4257 C4251 1.428 . S
C4257 N4256 1.351 . S
C4257 C4258 1.434 . S
C4258 C4249 1.429 . S
C4258 N4255 1.350 . S
C4258 C4257 1.434 . S
C4259 C4260 1.369 . S
C4259 C4261 1.419 . S
C4259 H4263 0.930 . S
C4260 C4259 1.369 . S
C4260 C4269 1.429 . S
C4261 C4259 1.419 . S
C4261 C4262 1.363 . S
C4261 H4264 0.929 . S
C4262 C4261 1.363 . S
C4262 C4268 1.428 . S
H4263 C4259 0.930 . S
H4264 C4261 0.929 . S
S4265 N4266 1.613 . S
S4265 N4267 1.610 . S
N4266 S4265 1.613 . S
N4266 C4269 1.350 . S
N4267 S4265 1.610 . S
N4267 C4268 1.351 . S
C4268 C4262 1.428 . S
C4268 N4267 1.351 . S
C4268 C4269 1.434 . S
C4269 C4260 1.429 . S
C4269 N4266 1.350 . S
C4269 C4268 1.434 . S
C4270 C4271 1.369 . S
C4270 C4272 1.419 . S
C4270 H4274 0.930 . S
C4271 C4270 1.369 . S
C4271 C4280 1.429 . S
C4272 C4270 1.419 . S
C4272 C4273 1.363 . S
C4272 H4275 0.929 . S
C4273 C4272 1.363 . S
C4273 C4279 1.428 . S
H4274 C4270 0.930 . S
H4275 C4272 0.929 . S
S4276 N4277 1.613 . S
S4276 N4278 1.610 . S
N4277 S4276 1.613 . S
N4277 C4280 1.350 1_556 S
N4278 S4276 1.610 . S
N4278 C4279 1.351 1_556 S
C4279 C4273 1.428 . S
C4279 N4278 1.351 1_554 S
C4279 C4280 1.434 . S
C4280 C4271 1.429 . S
C4280 N4277 1.350 1_554 S
C4280 C4279 1.434 . S
C4281 C4282 1.369 . S
C4281 C4283 1.419 . S
C4281 H4285 0.930 . S
C4282 C4281 1.369 . S
C4282 C4291 1.429 . S
C4283 C4281 1.419 . S
C4283 C4284 1.363 . S
C4283 H4286 0.929 . S
C4284 C4283 1.363 . S
C4284 C4290 1.428 . S
H4285 C4281 0.930 . S
H4286 C4283 0.929 . S
S4287 N4288 1.613 . S
S4287 N4289 1.610 . S
N4288 S4287 1.613 . S
N4288 C4291 1.350 . S
N4289 S4287 1.610 . S
N4289 C4290 1.351 . S
C4290 C4284 1.428 . S
C4290 N4289 1.351 . S
C4290 C4291 1.434 . S
C4291 C4282 1.429 . S
C4291 N4288 1.350 . S
C4291 C4290 1.434 . S
C4292 C4293 1.369 . S
C4292 C4294 1.419 . S
C4292 H4296 0.930 . S
C4293 C4292 1.369 . S
C4293 C4302 1.429 . S
C4294 C4292 1.419 . S
C4294 C4295 1.363 . S
C4294 H4297 0.929 . S
C4295 C4294 1.363 . S
C4295 C4301 1.428 . S
H4296 C4292 0.930 . S
H4297 C4294 0.929 . S
S4298 N4299 1.613 . S
S4298 N4300 1.610 . S
N4299 S4298 1.613 . S
N4299 C4302 1.350 . S
N4300 S4298 1.610 . S
N4300 C4301 1.351 . S
C4301 C4295 1.428 . S
C4301 N4300 1.351 . S
C4301 C4302 1.434 . S
C4302 C4293 1.429 . S
C4302 N4299 1.350 . S
C4302 C4301 1.434 . S
C4303 C4304 1.369 . S
C4303 C4305 1.419 . S
C4303 H4307 0.930 . S
C4304 C4303 1.369 . S
C4304 C4313 1.429 . S
C4305 C4303 1.419 . S
C4305 C4306 1.363 . S
C4305 H4308 0.929 . S
C4306 C4305 1.363 . S
C4306 C4312 1.428 . S
H4307 C4303 0.930 . S
H4308 C4305 0.929 . S
S4309 N4310 1.613 . S
S4309 N4311 1.610 . S
N4310 S4309 1.613 . S
N4310 C4313 1.350 . S
N4311 S4309 1.610 . S
N4311 C4312 1.351 . S
C4312 C4306 1.428 . S
C4312 N4311 1.351 . S
C4312 C4313 1.434 . S
C4313 C4304 1.429 . S
C4313 N4310 1.350 . S
C4313 C4312 1.434 . S
C4314 C4315 1.369 . S
C4314 C4316 1.419 . S
C4314 H4318 0.930 . S
C4315 C4314 1.369 . S
C4315 C4324 1.429 . S
C4316 C4314 1.419 . S
C4316 C4317 1.363 . S
C4316 H4319 0.929 . S
C4317 C4316 1.363 . S
C4317 C4323 1.428 . S
H4318 C4314 0.930 . S
H4319 C4316 0.929 . S
S4320 N4321 1.613 . S
S4320 N4322 1.610 . S
N4321 S4320 1.613 . S
N4321 C4324 1.350 . S
N4322 S4320 1.610 . S
N4322 C4323 1.351 . S
C4323 C4317 1.428 . S
C4323 N4322 1.351 . S
C4323 C4324 1.434 . S
C4324 C4315 1.429 . S
C4324 N4321 1.350 . S
C4324 C4323 1.434 . S
C4325 C4326 1.369 . S
C4325 C4327 1.419 . S
C4325 H4329 0.930 . S
C4326 C4325 1.369 . S
C4326 C4335 1.429 . S
C4327 C4325 1.419 . S
C4327 C4328 1.363 . S
C4327 H4330 0.929 . S
C4328 C4327 1.363 . S
C4328 C4334 1.428 . S
H4329 C4325 0.930 . S
H4330 C4327 0.929 . S
S4331 N4332 1.613 . S
S4331 N4333 1.610 . S
N4332 S4331 1.613 . S
N4332 C4335 1.350 . S
N4333 S4331 1.610 . S
N4333 C4334 1.351 . S
C4334 C4328 1.428 . S
C4334 N4333 1.351 . S
C4334 C4335 1.434 . S
C4335 C4326 1.429 . S
C4335 N4332 1.350 . S
C4335 C4334 1.434 . S
C4336 C4337 1.369 . S
C4336 C4338 1.419 . S
C4336 H4340 0.930 . S
C4337 C4336 1.369 . S
C4337 C4346 1.429 . S
C4338 C4336 1.419 . S
C4338 C4339 1.363 . S
C4338 H4341 0.929 . S
C4339 C4338 1.363 . S
C4339 C4345 1.428 . S
H4340 C4336 0.930 . S
H4341 C4338 0.929 . S
S4342 N4343 1.613 . S
S4342 N4344 1.610 . S
N4343 S4342 1.613 . S
N4343 C4346 1.350 . S
N4344 S4342 1.610 . S
N4344 C4345 1.351 . S
C4345 C4339 1.428 . S
C4345 N4344 1.351 . S
C4345 C4346 1.434 . S
C4346 C4337 1.429 . S
C4346 N4343 1.350 . S
C4346 C4345 1.434 . S
C4347 C4348 1.369 . S
C4347 C4349 1.419 . S
C4347 H4351 0.930 . S
C4348 C4347 1.369 . S
C4348 C4357 1.429 . S
C4349 C4347 1.419 . S
C4349 C4350 1.363 . S
C4349 H4352 0.929 . S
C4350 C4349 1.363 . S
C4350 C4356 1.428 . S
H4351 C4347 0.930 . S
H4352 C4349 0.929 . S
S4353 N4354 1.613 . S
S4353 N4355 1.610 . S
N4354 S4353 1.613 . S
N4354 C4357 1.350 . S
N4355 S4353 1.610 . S
N4355 C4356 1.351 . S
C4356 C4350 1.428 . S
C4356 N4355 1.351 . S
C4356 C4357 1.434 . S
C4357 C4348 1.429 . S
C4357 N4354 1.350 . S
C4357 C4356 1.434 . S
C4358 C4359 1.369 . S
C4358 C4360 1.419 . S
C4358 H4362 0.930 . S
C4359 C4358 1.369 . S
C4359 C4368 1.429 . S
C4360 C4358 1.419 . S
C4360 C4361 1.363 . S
C4360 H4363 0.929 . S
C4361 C4360 1.363 . S
C4361 C4367 1.428 . S
H4362 C4358 0.930 . S
H4363 C4360 0.929 . S
S4364 N4365 1.613 . S
S4364 N4366 1.610 . S
N4365 S4364 1.613 . S
N4365 C4368 1.350 . S
N4366 S4364 1.610 . S
N4366 C4367 1.351 . S
C4367 C4361 1.428 . S
C4367 N4366 1.351 . S
C4367 C4368 1.434 . S
C4368 C4359 1.429 . S
C4368 N4365 1.350 . S
C4368 C4367 1.434 . S
C4369 C4370 1.369 . S
C4369 C4371 1.419 . S
C4369 H4373 0.930 . S
C4370 C4369 1.369 . S
C4370 C4379 1.429 . S
C4371 C4369 1.419 . S
C4371 C4372 1.363 . S
C4371 H4374 0.929 . S
C4372 C4371 1.363 . S
C4372 C4378 1.428 . S
H4373 C4369 0.930 . S
H4374 C4371 0.929 . S
S4375 N4376 1.613 . S
S4375 N4377 1.610 . S
N4376 S4375 1.613 . S
N4376 C4379 1.350 . S
N4377 S4375 1.610 . S
N4377 C4378 1.351 . S
C4378 C4372 1.428 . S
C4378 N4377 1.351 . S
C4378 C4379 1.434 . S
C4379 C4370 1.429 . S
C4379 N4376 1.350 . S
C4379 C4378 1.434 . S
C4380 C4381 1.369 . S
C4380 C4382 1.419 . S
C4380 H4384 0.930 . S
C4381 C4380 1.369 . S
C4381 C4390 1.429 . S
C4382 C4380 1.419 . S
C4382 C4383 1.363 . S
C4382 H4385 0.929 . S
C4383 C4382 1.363 . S
C4383 C4389 1.428 . S
H4384 C4380 0.930 . S
H4385 C4382 0.929 . S
S4386 N4387 1.613 . S
S4386 N4388 1.610 . S
N4387 S4386 1.613 . S
N4387 C4390 1.350 . S
N4388 S4386 1.610 . S
N4388 C4389 1.351 . S
C4389 C4383 1.428 . S
C4389 N4388 1.351 . S
C4389 C4390 1.434 . S
C4390 C4381 1.429 . S
C4390 N4387 1.350 . S
C4390 C4389 1.434 . S
C4391 C4392 1.369 . S
C4391 C4393 1.419 . S
C4391 H4395 0.930 . S
C4392 C4391 1.369 . S
C4392 C4401 1.429 . S
C4393 C4391 1.419 . S
C4393 C4394 1.363 . S
C4393 H4396 0.929 . S
C4394 C4393 1.363 . S
C4394 C4400 1.428 . S
H4395 C4391 0.930 . S
H4396 C4393 0.929 . S
S4397 N4398 1.613 . S
S4397 N4399 1.610 . S
N4398 S4397 1.613 . S
N4398 C4401 1.350 . S
N4399 S4397 1.610 . S
N4399 C4400 1.351 . S
C4400 C4394 1.428 . S
C4400 N4399 1.351 . S
C4400 C4401 1.434 . S
C4401 C4392 1.429 . S
C4401 N4398 1.350 . S
C4401 C4400 1.434 . S
C4402 C4403 1.369 . S
C4402 C4404 1.419 . S
C4402 H4406 0.930 . S
C4403 C4402 1.369 . S
C4403 C4412 1.429 . S
C4404 C4402 1.419 . S
C4404 C4405 1.363 . S
C4404 H4407 0.929 . S
C4405 C4404 1.363 . S
C4405 C4411 1.428 . S
H4406 C4402 0.930 . S
H4407 C4404 0.929 . S
S4408 N4409 1.613 1_455 S
S4408 N4410 1.611 1_455 S
N4409 S4408 1.613 1_655 S
N4409 C4412 1.350 . S
N4410 S4408 1.611 1_655 S
N4410 C4411 1.357 . S
C4411 C4405 1.428 . S
C4411 N4410 1.357 . S
C4411 C4412 1.434 . S
C4412 C4403 1.429 . S
C4412 N4409 1.350 . S
C4412 C4411 1.434 . S
C4413 C4414 1.369 . S
C4413 C4415 1.419 . S
C4413 H4417 0.930 . S
C4414 C4413 1.369 . S
C4414 C4423 1.429 . S
C4415 C4413 1.419 . S
C4415 C4416 1.363 . S
C4415 H4418 0.929 . S
C4416 C4415 1.363 . S
C4416 C4422 1.428 . S
H4417 C4413 0.930 . S
H4418 C4415 0.929 . S
S4419 N4420 1.613 . S
S4419 N4421 1.610 . S
N4420 S4419 1.613 . S
N4420 C4423 1.350 . S
N4421 S4419 1.610 . S
N4421 C4422 1.351 . S
C4422 C4416 1.428 . S
C4422 N4421 1.351 . S
C4422 C4423 1.434 . S
C4423 C4414 1.429 . S
C4423 N4420 1.350 . S
C4423 C4422 1.434 . S
C4424 C4425 1.369 . S
C4424 C4426 1.419 . S
C4424 H4428 0.930 . S
C4425 C4424 1.369 . S
C4425 C4434 1.429 . S
C4426 C4424 1.419 . S
C4426 C4427 1.363 . S
C4426 H4429 0.929 . S
C4427 C4426 1.363 . S
C4427 C4433 1.428 . S
H4428 C4424 0.930 . S
H4429 C4426 0.929 . S
S4430 N4431 1.613 . S
S4430 N4432 1.610 . S
N4431 S4430 1.613 . S
N4431 C4434 1.350 . S
N4432 S4430 1.610 . S
N4432 C4433 1.351 . S
C4433 C4427 1.428 . S
C4433 N4432 1.351 . S
C4433 C4434 1.434 . S
C4434 C4425 1.429 . S
C4434 N4431 1.350 . S
C4434 C4433 1.434 . S
C4435 C4436 1.369 . S
C4435 C4437 1.419 . S
C4435 H4439 0.930 . S
C4436 C4435 1.369 . S
C4436 C4445 1.429 . S
C4437 C4435 1.419 . S
C4437 C4438 1.363 . S
C4437 H4440 0.929 . S
C4438 C4437 1.363 . S
C4438 C4444 1.428 1_565 S
H4439 C4435 0.930 . S
H4440 C4437 0.929 . S
S4441 N4442 1.613 . S
S4441 N4443 1.610 . S
N4442 S4441 1.613 . S
N4442 C4445 1.350 1_545 S
N4443 S4441 1.610 . S
N4443 C4444 1.351 . S
C4444 C4438 1.428 1_545 S
C4444 N4443 1.351 . S
C4444 C4445 1.434 1_545 S
C4445 C4436 1.429 . S
C4445 N4442 1.350 1_565 S
C4445 C4444 1.434 1_565 S
C4446 C4447 1.369 . S
C4446 C4448 1.419 . S
C4446 H4450 0.930 . S
C4447 C4446 1.369 . S
C4447 C4456 1.429 . S
C4448 C4446 1.419 . S
C4448 C4449 1.363 . S
C4448 H4451 0.929 . S
C4449 C4448 1.363 . S
C4449 C4455 1.428 . S
H4450 C4446 0.930 . S
H4451 C4448 0.929 . S
S4452 N4453 1.613 . S
S4452 N4454 1.610 . S
N4453 S4452 1.613 . S
N4453 C4456 1.350 . S
N4454 S4452 1.610 . S
N4454 C4455 1.351 . S
C4455 C4449 1.428 . S
C4455 N4454 1.351 . S
C4455 C4456 1.434 . S
C4456 C4447 1.429 . S
C4456 N4453 1.350 . S
C4456 C4455 1.434 . S
C4457 C4458 1.369 . S
C4457 C4459 1.419 . S
C4457 H4461 0.930 . S
C4458 C4457 1.369 . S
C4458 C4467 1.429 . S
C4459 C4457 1.419 . S
C4459 C4460 1.363 . S
C4459 H4462 0.929 . S
C4460 C4459 1.363 . S
C4460 C4466 1.428 . S
H4461 C4457 0.930 . S
H4462 C4459 0.929 . S
S4463 N4464 1.613 . S
S4463 N4465 1.610 . S
N4464 S4463 1.613 . S
N4464 C4467 1.350 . S
N4465 S4463 1.610 . S
N4465 C4466 1.351 . S
C4466 C4460 1.428 . S
C4466 N4465 1.351 . S
C4466 C4467 1.434 . S
C4467 C4458 1.429 . S
C4467 N4464 1.350 . S
C4467 C4466 1.434 . S
C4468 C4469 1.369 . S
C4468 C4470 1.419 . S
C4468 H4472 0.930 . S
C4469 C4468 1.369 . S
C4469 C4478 1.429 . S
C4470 C4468 1.419 . S
C4470 C4471 1.363 . S
C4470 H4473 0.929 . S
C4471 C4470 1.363 . S
C4471 C4477 1.428 . S
H4472 C4468 0.930 . S
H4473 C4470 0.929 . S
S4474 N4475 1.613 . S
S4474 N4476 1.610 . S
N4475 S4474 1.613 . S
N4475 C4478 1.350 . S
N4476 S4474 1.610 . S
N4476 C4477 1.351 . S
C4477 C4471 1.428 . S
C4477 N4476 1.351 . S
C4477 C4478 1.434 . S
C4478 C4469 1.429 . S
C4478 N4475 1.350 . S
C4478 C4477 1.434 . S
C4479 C4480 1.369 . S
C4479 C4481 1.419 . S
C4479 H4483 0.930 . S
C4480 C4479 1.369 . S
C4480 C4489 1.429 . S
C4481 C4479 1.419 . S
C4481 C4482 1.363 . S
C4481 H4484 0.929 . S
C4482 C4481 1.363 . S
C4482 C4488 1.428 . S
H4483 C4479 0.930 . S
H4484 C4481 0.929 . S
S4485 N4486 1.613 1_556 S
S4485 N4487 1.610 . S
N4486 S4485 1.613 1_554 S
N4486 C4489 1.350 . S
N4487 S4485 1.610 . S
N4487 C4488 1.351 1_556 S
C4488 C4482 1.428 . S
C4488 N4487 1.351 1_554 S
C4488 C4489 1.434 . S
C4489 C4480 1.429 . S
C4489 N4486 1.350 . S
C4489 C4488 1.434 . S
C4490 C4491 1.369 . S
C4490 C4492 1.419 . S
C4490 H4494 0.930 . S
C4491 C4490 1.369 . S
C4491 C4500 1.429 . S
C4492 C4490 1.419 . S
C4492 C4493 1.363 . S
C4492 H4495 0.929 . S
C4493 C4492 1.363 . S
C4493 C4499 1.428 . S
H4494 C4490 0.930 . S
H4495 C4492 0.929 . S
S4496 N4497 1.613 . S
S4496 N4498 1.610 . S
N4497 S4496 1.613 . S
N4497 C4500 1.350 . S
N4498 S4496 1.610 . S
N4498 C4499 1.351 . S
C4499 C4493 1.428 . S
C4499 N4498 1.351 . S
C4499 C4500 1.434 . S
C4500 C4491 1.429 . S
C4500 N4497 1.350 . S
C4500 C4499 1.434 . S
C4501 C4502 1.369 . S
C4501 C4503 1.419 . S
C4501 H4505 0.930 . S
C4502 C4501 1.369 . S
C4502 C4511 1.429 . S
C4503 C4501 1.419 . S
C4503 C4504 1.363 . S
C4503 H4506 0.929 . S
C4504 C4503 1.363 . S
C4504 C4510 1.428 . S
H4505 C4501 0.930 . S
H4506 C4503 0.929 . S
S4507 N4508 1.613 . S
S4507 N4509 1.610 . S
N4508 S4507 1.613 . S
N4508 C4511 1.350 . S
N4509 S4507 1.610 . S
N4509 C4510 1.351 . S
C4510 C4504 1.428 . S
C4510 N4509 1.351 . S
C4510 C4511 1.434 . S
C4511 C4502 1.429 . S
C4511 N4508 1.350 . S
C4511 C4510 1.434 . S
C3457 C665 2.235 1_455 S
C3459 C2179 2.305 . S
C3468 C381 1.874 . S
C3470 C2252 1.901 . S
C3479 C460 2.043 . S
C3481 C2347 2.122 . S
C3492 C2422 1.364 . S
C3490 C585 1.465 . S
C3501 C108 1.466 . S
C3503 C2506 1.365 . S
C3514 C2599 2.124 . S
C3512 C196 2.039 . S
C3525 C2672 1.902 . S
C3523 C313 1.878 . S
C3534 C49 2.238 . S
C3536 C2767 2.304 . S
C3547 C2168 1.674 . S
C3545 C1457 1.740 . S
C3556 C1545 0.866 . S
C3558 C2254 0.846 . S
C3569 C2336 1.082 . S
C3567 C1721 1.091 . S
C3580 C2431 1.733 . S
C3578 C1113 1.709 . S
C3589 C1428 1.708 1_455 S
C3591 C2515 1.733 . S
C3602 C2588 1.083 . S
C3600 C1516 1.093 . S
C3613 C2674 0.839 . S
C3611 C1692 0.867 . S
C3624 C2756 1.681 . S
C3622 C1085 1.736 . S
C3635 C2170 1.168 1_565 S
C3633 C988 1.112 1_554 S
C3644 C1817 1.672 . S
C3646 C2840 1.672 . S
C3657 C2926 1.334 . S
C3655 C2081 1.373 . S
C3668 C3019 0.966 . S
C3666 C1993 0.944 . S
C3677 C761 1.119 . S
C3679 C2758 1.167 . S
C3688 C821 1.376 . S
C3690 C2338 1.341 . S
C3699 C2053 1.675 . S
C3701 C3092 1.674 . S
C3712 C3187 0.963 . S
C3710 C1868 0.947 . S
C3723 C2167 2.299 . S
C3721 C372 2.238 . S
C3734 C3188 1.899 . S
C3732 C645 1.867 . S
C3743 C577 2.039 . S
C3745 C2335 2.117 . S
C3754 C497 1.464 . S
C3756 C3106 1.361 . S
C3767 C2518 1.367 . S
C3765 C57 1.464 . S
C3776 C293 2.039 . S
C3778 C2923 2.117 . S
C3789 C2684 1.900 1_556 S
C3787 C205 1.869 . S
C3800 C3259 2.301 . S
C3798 C145 2.233 . S
C3811 C2180 1.677 . S
C3809 C909 1.734 . S
C3822 C3190 0.838 . S
C3820 C1956 0.864 . S
C3831 C724 1.091 . S
C3833 C2348 1.079 . S
C3842 C1780 1.705 . S
C3844 C3091 1.728 . S
C3853 C937 1.702 . S
C3855 C2503 1.731 . S
C3866 C2936 1.081 . S
C3864 C1985 1.091 . S
C3875 C753 0.862 . S
C3877 C2686 0.845 . S
C3886 C1809 1.739 . S
C3888 C3272 1.672 . S
C3897 C1173 1.130 . S
C3899 C2182 1.164 . S
C3908 C1105 1.665 . S
C3910 C2852 1.670 . S
C3919 C1633 1.377 . S
C3921 C2602 1.339 . S
C3930 C1553 0.944 . S
C3932 C3007 0.955 . S
C3943 C3274 1.163 . S
C3941 C1729 1.127 . S
C3952 C1340 1.373 . S
C3954 C2350 1.332 . S
C3965 C2432 1.673 . S
C3963 C1604 1.666 . S
C3976 C2251 0.964 . S
C3974 C1252 0.932 . S
C3985 C489 2.238 . S
C3987 C3355 2.303 . S
C3998 C3176 1.902 . S
C3996 C557 1.877 . S
C4007 C636 2.035 . S
C4009 C3439 2.125 . S
C4018 C409 1.465 . S
C4020 C3094 1.362 . S
C4029 C284 1.466 . S
C4031 C2842 1.367 . S
C4042 C2935 2.123 . S
C4040 C20 2.042 . S
C4053 C3008 1.901 . S
C4051 C137 1.877 . S
C4064 C3271 2.304 . S
C4062 C225 2.239 . S
C4075 C3344 1.681 . S
C4073 C1641 1.736 . S
C4084 C1193 0.865 . S
C4086 C3178 0.836 . S
C4097 C3428 1.082 . S
C4095 C1289 1.091 . S
C4108 C3103 1.732 . S
C4106 C1377 1.709 . S
C4119 C2851 1.736 . S
C4117 C1613 1.704 . S
C4128 C1164 1.091 . S
C4130 C2924 1.078 . S
C4141 C3010 0.846 . S
C4139 C1261 0.866 . S
C4150 C1349 1.741 . S
C4152 C3260 1.674 . S
C4163 C3346 1.171 . S
C4161 C1965 1.134 . S
C4172 C849 1.670 . S
C4174 C2504 1.674 . S
C4185 C2590 1.341 . S
C4183 C929 1.376 . S
C4196 C2683 0.968 . S
C4194 C1017 0.951 . S
C4207 C3262 1.172 . S
C4205 C1897 1.129 . S
C4216 C1789 1.371 . S
C4218 C3430 1.334 . S
C4229 C2420 1.672 . S
C4227 C900 1.670 . S
C4240 C2263 0.965 . S
C4238 C733 0.946 . S
C4249 C548 2.237 . S
C4251 C3343 2.301 . S
C4262 C2264 1.899 . S
C4260 C469 1.866 . S
C4271 C401 2.039 . S
C4273 C3427 2.117 . S
C4282 C673 1.464 . S
C4284 C2434 1.367 . S
C4293 C233 1.464 . S
C4295 C2854 1.361 . S
C4306 C2587 2.121 . S
C4304 C117 2.032 . S
C4315 C29 1.872 . S
C4317 C3020 1.900 . S
C4326 C321 2.240 . S
C4328 C2755 2.298 . S
C4339 C3356 1.677 . S
C4337 C2044 1.735 . S
C4348 C997 0.862 . S
C4350 C2266 0.832 . S
C4361 C3440 1.076 1_655 S
C4359 C1877 1.090 . S
C4370 C812 1.700 . S
C4372 C2419 1.730 . S
C4381 C2073 1.704 . S
C4383 C2839 1.728 . S
C4394 C2600 1.078 . S
C4392 C1025 1.093 . S
C4403 C1905 0.863 . S
C4405 C3022 0.842 . S
C4416 C2768 1.672 . S
C4414 C841 1.737 . S
C4427 C3358 1.164 . S
C4425 C1525 1.131 . S
C4438 C2516 1.670 1_565 S
C4436 C1369 1.666 . S
C4447 C1465 1.376 . S
C4449 C2938 1.337 . S
C4460 C2671 0.963 . S
C4458 C1201 0.935 . S
C4469 C1281 1.129 . S
C4471 C2770 1.169 . S
C4480 C1076 1.373 . S
C4482 C3442 1.332 . S
C4493 C3104 1.674 . S
C4491 C1437 1.667 . S
C4504 C3175 0.958 . S
C4502 C1701 0.939 . S
