# Generated by pormake.
# Topology gar, (4,6)-cn, num edge types: 1
# Building blocks:
#     Node 0, Type 0, BuildingBlock: CEKHIL_clean_sbu_0, # of connection points: 4
#     Node 1, Type 0, BuildingBlock: CEKHIL_clean_sbu_0, # of connection points: 4
#     Node 2, Type 0, BuildingBlock: CEKHIL_clean_sbu_0, # of connection points: 4
#     Node 3, Type 0, BuildingBlock: CEKHIL_clean_sbu_0, # of connection points: 4
#     Node 4, Type 0, BuildingBlock: CEKHIL_clean_sbu_0, # of connection points: 4
#     Node 5, Type 0, BuildingBlock: CEKHIL_clean_sbu_0, # of connection points: 4
#     Node 6, Type 0, BuildingBlock: CEKHIL_clean_sbu_0, # of connection points: 4
#     Node 7, Type 0, BuildingBlock: CEKHIL_clean_sbu_0, # of connection points: 4
#     Node 8, Type 0, BuildingBlock: CEKHIL_clean_sbu_0, # of connection points: 4
#     Node 9, Type 0, BuildingBlock: CEKHIL_clean_sbu_0, # of connection points: 4
#     Node 10, Type 0, BuildingBlock: CEKHIL_clean_sbu_0, # of connection points: 4
#     Node 11, Type 0, BuildingBlock: CEKHIL_clean_sbu_0, # of connection points: 4
#     Node 12, Type 0, BuildingBlock: CEKHIL_clean_sbu_0, # of connection points: 4
#     Node 13, Type 0, BuildingBlock: CEKHIL_clean_sbu_0, # of connection points: 4
#     Node 14, Type 0, BuildingBlock: CEKHIL_clean_sbu_0, # of connection points: 4
#     Node 15, Type 0, BuildingBlock: CEKHIL_clean_sbu_0, # of connection points: 4
#     Node 16, Type 0, BuildingBlock: CEKHIL_clean_sbu_0, # of connection points: 4
#     Node 17, Type 0, BuildingBlock: CEKHIL_clean_sbu_0, # of connection points: 4
#     Node 18, Type 0, BuildingBlock: CEKHIL_clean_sbu_0, # of connection points: 4
#     Node 19, Type 0, BuildingBlock: CEKHIL_clean_sbu_0, # of connection points: 4
#     Node 20, Type 0, BuildingBlock: CEKHIL_clean_sbu_0, # of connection points: 4
#     Node 21, Type 0, BuildingBlock: CEKHIL_clean_sbu_0, # of connection points: 4
#     Node 22, Type 0, BuildingBlock: CEKHIL_clean_sbu_0, # of connection points: 4
#     Node 23, Type 0, BuildingBlock: CEKHIL_clean_sbu_0, # of connection points: 4
#     Node 24, Type 1, BuildingBlock: NUHQIS_clean_sbu_0, # of connection points: 6
#     Node 25, Type 1, BuildingBlock: NUHQIS_clean_sbu_0, # of connection points: 6
#     Node 26, Type 1, BuildingBlock: NUHQIS_clean_sbu_0, # of connection points: 6
#     Node 27, Type 1, BuildingBlock: NUHQIS_clean_sbu_0, # of connection points: 6
#     Node 28, Type 1, BuildingBlock: NUHQIS_clean_sbu_0, # of connection points: 6
#     Node 29, Type 1, BuildingBlock: NUHQIS_clean_sbu_0, # of connection points: 6
#     Node 30, Type 1, BuildingBlock: NUHQIS_clean_sbu_0, # of connection points: 6
#     Node 31, Type 1, BuildingBlock: NUHQIS_clean_sbu_0, # of connection points: 6
#     Node 32, Type 1, BuildingBlock: NUHQIS_clean_sbu_0, # of connection points: 6
#     Node 33, Type 1, BuildingBlock: NUHQIS_clean_sbu_0, # of connection points: 6
#     Node 34, Type 1, BuildingBlock: NUHQIS_clean_sbu_0, # of connection points: 6
#     Node 35, Type 1, BuildingBlock: NUHQIS_clean_sbu_0, # of connection points: 6
#     Node 36, Type 1, BuildingBlock: NUHQIS_clean_sbu_0, # of connection points: 6
#     Node 37, Type 1, BuildingBlock: NUHQIS_clean_sbu_0, # of connection points: 6
#     Node 38, Type 1, BuildingBlock: NUHQIS_clean_sbu_0, # of connection points: 6
#     Node 39, Type 1, BuildingBlock: NUHQIS_clean_sbu_0, # of connection points: 6
#     Edge 40, Type (0, 1), BuildingBlock: AJUNOK_clean_linker_0, # of connection points: 2
#     Edge 41, Type (0, 1), BuildingBlock: AJUNOK_clean_linker_0, # of connection points: 2
#     Edge 42, Type (0, 1), BuildingBlock: AJUNOK_clean_linker_0, # of connection points: 2
#     Edge 43, Type (0, 1), BuildingBlock: AJUNOK_clean_linker_0, # of connection points: 2
#     Edge 44, Type (0, 1), BuildingBlock: AJUNOK_clean_linker_0, # of connection points: 2
#     Edge 45, Type (0, 1), BuildingBlock: AJUNOK_clean_linker_0, # of connection points: 2
#     Edge 46, Type (0, 1), BuildingBlock: AJUNOK_clean_linker_0, # of connection points: 2
#     Edge 47, Type (0, 1), BuildingBlock: AJUNOK_clean_linker_0, # of connection points: 2
#     Edge 48, Type (0, 1), BuildingBlock: AJUNOK_clean_linker_0, # of connection points: 2
#     Edge 49, Type (0, 1), BuildingBlock: AJUNOK_clean_linker_0, # of connection points: 2
#     Edge 50, Type (0, 1), BuildingBlock: AJUNOK_clean_linker_0, # of connection points: 2
#     Edge 51, Type (0, 1), BuildingBlock: AJUNOK_clean_linker_0, # of connection points: 2
#     Edge 52, Type (0, 1), BuildingBlock: AJUNOK_clean_linker_0, # of connection points: 2
#     Edge 53, Type (0, 1), BuildingBlock: AJUNOK_clean_linker_0, # of connection points: 2
#     Edge 54, Type (0, 1), BuildingBlock: AJUNOK_clean_linker_0, # of connection points: 2
#     Edge 55, Type (0, 1), BuildingBlock: AJUNOK_clean_linker_0, # of connection points: 2
#     Edge 56, Type (0, 1), BuildingBlock: AJUNOK_clean_linker_0, # of connection points: 2
#     Edge 57, Type (0, 1), BuildingBlock: AJUNOK_clean_linker_0, # of connection points: 2
#     Edge 58, Type (0, 1), BuildingBlock: AJUNOK_clean_linker_0, # of connection points: 2
#     Edge 59, Type (0, 1), BuildingBlock: AJUNOK_clean_linker_0, # of connection points: 2
#     Edge 60, Type (0, 1), BuildingBlock: AJUNOK_clean_linker_0, # of connection points: 2
#     Edge 61, Type (0, 1), BuildingBlock: AJUNOK_clean_linker_0, # of connection points: 2
#     Edge 62, Type (0, 1), BuildingBlock: AJUNOK_clean_linker_0, # of connection points: 2
#     Edge 63, Type (0, 1), BuildingBlock: AJUNOK_clean_linker_0, # of connection points: 2
#     Edge 64, Type (0, 1), BuildingBlock: AJUNOK_clean_linker_0, # of connection points: 2
#     Edge 65, Type (0, 1), BuildingBlock: AJUNOK_clean_linker_0, # of connection points: 2
#     Edge 66, Type (0, 1), BuildingBlock: AJUNOK_clean_linker_0, # of connection points: 2
#     Edge 67, Type (0, 1), BuildingBlock: AJUNOK_clean_linker_0, # of connection points: 2
#     Edge 68, Type (0, 1), BuildingBlock: AJUNOK_clean_linker_0, # of connection points: 2
#     Edge 69, Type (0, 1), BuildingBlock: AJUNOK_clean_linker_0, # of connection points: 2
#     Edge 70, Type (0, 1), BuildingBlock: AJUNOK_clean_linker_0, # of connection points: 2
#     Edge 71, Type (0, 1), BuildingBlock: AJUNOK_clean_linker_0, # of connection points: 2
#     Edge 72, Type (0, 1), BuildingBlock: AJUNOK_clean_linker_0, # of connection points: 2
#     Edge 73, Type (0, 1), BuildingBlock: AJUNOK_clean_linker_0, # of connection points: 2
#     Edge 74, Type (0, 1), BuildingBlock: AJUNOK_clean_linker_0, # of connection points: 2
#     Edge 75, Type (0, 1), BuildingBlock: AJUNOK_clean_linker_0, # of connection points: 2
#     Edge 76, Type (0, 1), BuildingBlock: AJUNOK_clean_linker_0, # of connection points: 2
#     Edge 77, Type (0, 1), BuildingBlock: AJUNOK_clean_linker_0, # of connection points: 2
#     Edge 78, Type (0, 1), BuildingBlock: AJUNOK_clean_linker_0, # of connection points: 2
#     Edge 79, Type (0, 1), BuildingBlock: AJUNOK_clean_linker_0, # of connection points: 2
#     Edge 80, Type (0, 1), BuildingBlock: AJUNOK_clean_linker_0, # of connection points: 2
#     Edge 81, Type (0, 1), BuildingBlock: AJUNOK_clean_linker_0, # of connection points: 2
#     Edge 82, Type (0, 1), BuildingBlock: AJUNOK_clean_linker_0, # of connection points: 2
#     Edge 83, Type (0, 1), BuildingBlock: AJUNOK_clean_linker_0, # of connection points: 2
#     Edge 84, Type (0, 1), BuildingBlock: AJUNOK_clean_linker_0, # of connection points: 2
#     Edge 85, Type (0, 1), BuildingBlock: AJUNOK_clean_linker_0, # of connection points: 2
#     Edge 86, Type (0, 1), BuildingBlock: AJUNOK_clean_linker_0, # of connection points: 2
#     Edge 87, Type (0, 1), BuildingBlock: AJUNOK_clean_linker_0, # of connection points: 2
#     Edge 88, Type (0, 1), BuildingBlock: AJUNOK_clean_linker_0, # of connection points: 2
#     Edge 89, Type (0, 1), BuildingBlock: AJUNOK_clean_linker_0, # of connection points: 2
#     Edge 90, Type (0, 1), BuildingBlock: AJUNOK_clean_linker_0, # of connection points: 2
#     Edge 91, Type (0, 1), BuildingBlock: AJUNOK_clean_linker_0, # of connection points: 2
#     Edge 92, Type (0, 1), BuildingBlock: AJUNOK_clean_linker_0, # of connection points: 2
#     Edge 93, Type (0, 1), BuildingBlock: AJUNOK_clean_linker_0, # of connection points: 2
#     Edge 94, Type (0, 1), BuildingBlock: AJUNOK_clean_linker_0, # of connection points: 2
#     Edge 95, Type (0, 1), BuildingBlock: AJUNOK_clean_linker_0, # of connection points: 2
#     Edge 96, Type (0, 1), BuildingBlock: AJUNOK_clean_linker_0, # of connection points: 2
#     Edge 97, Type (0, 1), BuildingBlock: AJUNOK_clean_linker_0, # of connection points: 2
#     Edge 98, Type (0, 1), BuildingBlock: AJUNOK_clean_linker_0, # of connection points: 2
#     Edge 99, Type (0, 1), BuildingBlock: AJUNOK_clean_linker_0, # of connection points: 2
#     Edge 100, Type (0, 1), BuildingBlock: AJUNOK_clean_linker_0, # of connection points: 2
#     Edge 101, Type (0, 1), BuildingBlock: AJUNOK_clean_linker_0, # of connection points: 2
#     Edge 102, Type (0, 1), BuildingBlock: AJUNOK_clean_linker_0, # of connection points: 2
#     Edge 103, Type (0, 1), BuildingBlock: AJUNOK_clean_linker_0, # of connection points: 2
#     Edge 104, Type (0, 1), BuildingBlock: AJUNOK_clean_linker_0, # of connection points: 2
#     Edge 105, Type (0, 1), BuildingBlock: AJUNOK_clean_linker_0, # of connection points: 2
#     Edge 106, Type (0, 1), BuildingBlock: AJUNOK_clean_linker_0, # of connection points: 2
#     Edge 107, Type (0, 1), BuildingBlock: AJUNOK_clean_linker_0, # of connection points: 2
#     Edge 108, Type (0, 1), BuildingBlock: AJUNOK_clean_linker_0, # of connection points: 2
#     Edge 109, Type (0, 1), BuildingBlock: AJUNOK_clean_linker_0, # of connection points: 2
#     Edge 110, Type (0, 1), BuildingBlock: AJUNOK_clean_linker_0, # of connection points: 2
#     Edge 111, Type (0, 1), BuildingBlock: AJUNOK_clean_linker_0, # of connection points: 2
#     Edge 112, Type (0, 1), BuildingBlock: AJUNOK_clean_linker_0, # of connection points: 2
#     Edge 113, Type (0, 1), BuildingBlock: AJUNOK_clean_linker_0, # of connection points: 2
#     Edge 114, Type (0, 1), BuildingBlock: AJUNOK_clean_linker_0, # of connection points: 2
#     Edge 115, Type (0, 1), BuildingBlock: AJUNOK_clean_linker_0, # of connection points: 2
#     Edge 116, Type (0, 1), BuildingBlock: AJUNOK_clean_linker_0, # of connection points: 2
#     Edge 117, Type (0, 1), BuildingBlock: AJUNOK_clean_linker_0, # of connection points: 2
#     Edge 118, Type (0, 1), BuildingBlock: AJUNOK_clean_linker_0, # of connection points: 2
#     Edge 119, Type (0, 1), BuildingBlock: AJUNOK_clean_linker_0, # of connection points: 2
#     Edge 120, Type (0, 1), BuildingBlock: AJUNOK_clean_linker_0, # of connection points: 2
#     Edge 121, Type (0, 1), BuildingBlock: AJUNOK_clean_linker_0, # of connection points: 2
#     Edge 122, Type (0, 1), BuildingBlock: AJUNOK_clean_linker_0, # of connection points: 2
#     Edge 123, Type (0, 1), BuildingBlock: AJUNOK_clean_linker_0, # of connection points: 2
#     Edge 124, Type (0, 1), BuildingBlock: AJUNOK_clean_linker_0, # of connection points: 2
#     Edge 125, Type (0, 1), BuildingBlock: AJUNOK_clean_linker_0, # of connection points: 2
#     Edge 126, Type (0, 1), BuildingBlock: AJUNOK_clean_linker_0, # of connection points: 2
#     Edge 127, Type (0, 1), BuildingBlock: AJUNOK_clean_linker_0, # of connection points: 2
#     Edge 128, Type (0, 1), BuildingBlock: AJUNOK_clean_linker_0, # of connection points: 2
#     Edge 129, Type (0, 1), BuildingBlock: AJUNOK_clean_linker_0, # of connection points: 2
#     Edge 130, Type (0, 1), BuildingBlock: AJUNOK_clean_linker_0, # of connection points: 2
#     Edge 131, Type (0, 1), BuildingBlock: AJUNOK_clean_linker_0, # of connection points: 2
#     Edge 132, Type (0, 1), BuildingBlock: AJUNOK_clean_linker_0, # of connection points: 2
#     Edge 133, Type (0, 1), BuildingBlock: AJUNOK_clean_linker_0, # of connection points: 2
#     Edge 134, Type (0, 1), BuildingBlock: AJUNOK_clean_linker_0, # of connection points: 2
#     Edge 135, Type (0, 1), BuildingBlock: AJUNOK_clean_linker_0, # of connection points: 2
# Relax obj value: 0.299
# Max RMSD: 0.362
# Mean RMSD: 0.148
data_MOF--net-gar--node1-CEKHIL_clean_sbu_0--node2-NUHQIS_clean_sbu_0--edge1-AJUNOK_clean_linker_0
_symmetry_space_group_name_H-M    P1
_symmetry_Int_Tables_number       1
_symmetry_cell_setting            triclinic
loop_
_symmetry_equiv_pos_as_xyz
'x, y, z'
_cell_length_a     42.214574
_cell_length_b     44.066127
_cell_length_c     40.973751
_cell_angle_alpha  92.552606
_cell_angle_beta   96.534391
_cell_angle_gamma 99.528061
loop_
_atom_site_label
_atom_site_type_symbol
_atom_site_fract_x
_atom_site_fract_y
_atom_site_fract_z
_atom_type_partial_charge
Co0 Co 0.13361 0.34871 0.4342 0.0
O1 O 0.18331 0.35507 0.43885 0.0
O2 O 0.15452 0.33653 0.39411 0.0
C3 C 0.12789 0.40077 0.45771 0.0
O4 O 0.08446 0.3422 0.41121 0.0
Co5 Co 0.08948 0.34484 0.4831 0.0
O6 O 1.05163 0.34605 0.44946 0.0
C7 C 0.11553 0.28713 0.47648 0.0
C8 C 0.18382 0.34533 0.40842 0.0
C9 C 1.05553 0.34343 0.41924 0.0
O10 O 0.12942 0.30125 0.45217 0.0
O11 O 0.09922 0.30242 0.49355 0.0
O12 O 0.13507 0.39494 0.42829 0.0
O13 O 0.12684 0.37565 0.47376 0.0
Co14 Co 0.09885 0.8525 0.676 0.0
O15 O 1.04918 0.84963 0.67303 0.0
O16 O 0.0773 0.84225 0.71734 0.0
C17 C 0.10956 0.90398 0.65049 0.0
O18 O 0.14796 0.85504 0.69884 0.0
Co19 Co 0.14318 0.8533 0.62844 0.0
O20 O 0.1825 0.86293 0.66193 0.0
C21 C 0.10855 0.79012 0.63381 0.0
C22 C 1.04853 0.84449 0.70407 0.0
C23 C 0.17781 0.86004 0.69178 0.0
O24 O 0.09598 0.80353 0.6581 0.0
O25 O 0.12719 0.80746 0.61715 0.0
O26 O 0.10392 0.89994 0.68069 0.0
O27 O 0.1079 0.87688 0.63535 0.0
Co28 Co 0.63527 0.84982 0.93644 0.0
O29 O 0.68496 0.85615 0.94013 0.0
O30 O 0.65552 0.83822 0.89559 0.0
C31 C 0.63005 0.90179 0.96115 0.0
O32 O 0.58558 0.84277 0.91473 0.0
Co33 Co 0.59245 0.84604 0.98692 0.0
O34 O 0.55395 0.84661 0.95409 0.0
C35 C 0.61837 0.78825 0.97875 0.0
C36 C 0.68502 0.84673 0.90951 0.0
C37 C 0.55688 0.84353 0.92366 0.0
O38 O 0.63174 0.80231 0.95413 0.0
O39 O 0.60232 0.80351 0.99615 0.0
O40 O 0.6363 0.89634 0.93128 0.0
O41 O 0.62952 0.87641 0.97661 0.0
Co42 Co 0.59698 0.35308 0.17723 0.0
O43 O 0.54746 0.34963 0.17454 0.0
O44 O 0.57619 0.34243 0.21873 0.0
C45 C 0.6074 0.40469 0.15234 0.0
O46 O 0.64625 0.35596 0.19886 0.0
Co47 Co 0.6395 0.35379 0.12748 0.0
O48 O 0.67913 0.3627 0.16026 0.0
C49 C 0.60672 0.29067 0.13529 0.0
C50 C 0.54726 0.34424 0.20556 0.0
C51 C 0.67554 0.36047 0.19046 0.0
O52 O 0.59438 0.30431 0.15952 0.0
O53 O 0.62461 0.3077 0.11772 0.0
O54 O 0.60185 0.40037 0.18251 0.0
O55 O 0.60522 0.37773 0.13671 0.0
Co56 Co 0.18703 0.93917 0.19323 0.0
O57 O 0.14408 0.91615 0.19078 0.0
O58 O 0.17807 0.92865 0.23672 0.0
C59 C 0.17399 0.9752 0.16025 0.0
O60 O 0.23238 0.96273 0.20501 0.0
Co61 Co 0.2259 0.94926 0.13394 0.0
O62 O 0.26378 0.95174 0.16837 0.0
C63 C 0.21577 0.8885 0.16267 0.0
C64 C 0.14996 0.91483 0.22245 0.0
C65 C 0.25849 0.9541 0.19825 0.0
O66 O 0.20388 0.9003 0.18658 0.0
O67 O 0.22327 0.90333 0.13764 0.0
O68 O 0.17037 0.97747 0.19131 0.0
O69 O 0.184 0.95096 0.14953 0.0
Co70 Co 0.56566 0.76301 0.43945 0.0
O71 O 0.61108 0.76697 0.43667 0.0
O72 O 0.57272 0.73365 0.4062 0.0
C73 C 0.56582 0.81361 0.44119 0.0
O74 O 0.51671 0.75295 0.43276 0.0
Co75 Co 0.53567 0.78977 0.4972 0.0
O76 O 0.49813 0.78813 0.46267 0.0
C77 C 0.57539 0.7412 0.50633 0.0
C78 C 0.60318 0.74545 0.413 0.0
C79 C 0.49516 0.76947 0.43743 0.0
O80 O 0.57018 0.73392 0.47516 0.0
O81 O 0.56584 0.76425 0.51975 0.0
O82 O 0.56375 0.79846 0.4128 0.0
O83 O 0.56809 0.79798 0.46695 0.0
Co84 Co 0.66872 0.41962 0.68778 0.0
O85 O 0.63124 0.3885 0.68893 0.0
O86 O 0.66546 0.40916 0.73237 0.0
C87 C 0.64379 0.44941 0.65351 0.0
O88 O 0.70863 0.45223 0.69629 0.0
Co89 Co 0.70198 0.43828 0.62645 0.0
O90 O 0.74146 0.45023 0.65898 0.0
C91 C 0.70426 0.37736 0.65383 0.0
C92 C 0.63938 0.39008 0.72062 0.0
C93 C 0.73673 0.44968 0.68903 0.0
O94 O 0.69514 0.38697 0.68066 0.0
O95 O 0.70509 0.39308 0.62824 0.0
O96 O 0.64143 0.45123 0.68493 0.0
O97 O 0.66017 0.42927 0.64371 0.0
Co98 Co 0.06572 0.28438 0.94049 0.0
O99 O 0.11127 0.28619 0.94813 0.0
O100 O 0.07777 0.25141 0.91446 0.0
C101 C 0.06929 0.33429 0.93303 0.0
O102 O 1.01749 0.27719 0.92432 0.0
Co103 Co 1.03044 0.31963 0.98749 0.0
O104 O 0.99626 0.31427 0.9492 0.0
C105 C 1.06302 0.26946 1.0102 0.0
C106 C 0.10742 0.26359 0.92589 0.0
C107 C 0.99516 0.29363 0.92614 0.0
O108 O 1.06129 0.25931 0.97997 0.0
O109 O 1.05405 0.29464 1.01877 0.0
O110 O 0.07143 0.31534 0.90856 0.0
O111 O 0.0666 0.32284 0.96133 0.0
Co112 Co 0.56227 0.16272 0.35412 0.0
O113 O 0.55658 0.19364 0.32257 0.0
O114 O 0.52177 0.15091 0.32681 0.0
C115 C 0.57951 0.19324 0.40061 0.0
O116 O 0.55668 0.12627 0.38233 0.0
Co117 Co 0.62727 0.1556 0.39479 0.0
O118 O 0.60197 0.11989 0.41368 0.0
C119 C 0.61033 0.12701 0.3271 0.0
C120 C 0.52883 0.17622 0.31228 0.0
C121 C 0.57201 0.11172 0.40347 0.0
O122 O 0.58384 0.1381 0.32334 0.0
O123 O 0.63128 0.1332 0.35258 0.0
O124 O 0.54907 0.18814 0.38856 0.0
O125 O 0.59873 0.18425 0.38135 0.0
Co126 Co 0.39049 0.21713 0.55388 0.0
O127 O 0.43991 0.22386 0.55705 0.0
O128 O 0.41207 0.18071 0.56637 0.0
C129 C 0.38339 0.24006 0.50039 0.0
O130 O 0.34104 0.19397 0.55237 0.0
Co131 Co 0.34305 0.25964 0.54772 0.0
O132 O 0.30511 0.22559 0.54437 0.0
C133 C 0.37581 0.2571 0.61566 0.0
C134 C 0.44082 0.19532 0.56359 0.0
C135 C 0.31094 0.19862 0.54879 0.0
O136 O 0.39041 0.2352 0.60406 0.0
O137 O 0.35769 0.27042 0.59586 0.0
O138 O 0.3885 0.21199 0.50385 0.0
O139 O 0.38241 0.25372 0.52886 0.0
Co140 Co 0.29692 0.13227 0.91393 0.0
O141 O 0.30553 0.09141 0.90709 0.0
O142 O 0.33471 0.1343 0.89195 0.0
C143 C 0.28596 0.12796 0.96535 0.0
O144 O 0.29631 0.17778 0.91612 0.0
Co145 Co 0.2302 0.14607 0.93002 0.0
O146 O 0.24825 0.18997 0.9249 0.0
C147 C 0.23759 0.11809 0.86546 0.0
C148 C 0.32933 0.10447 0.89219 0.0
C149 C 0.27741 0.19736 0.91902 0.0
O150 O 0.26843 0.12677 0.87076 0.0
O151 O 0.21886 0.12013 0.88762 0.0
O152 O 0.31612 0.13506 0.96021 0.0
O153 O 0.26465 0.12255 0.93996 0.0
Co154 Co 0.3766 0.94447 0.06582 0.0
O155 O 0.33074 0.94344 0.07149 0.0
O156 O 0.37075 0.98197 0.08763 0.0
C157 C 0.36995 0.92534 1.01124 0.0
O158 O 0.42419 0.95989 0.06473 0.0
Co159 Co 0.4138 0.89387 0.05362 0.0
O160 O 0.45409 0.92489 0.05316 0.0
C161 C 0.39496 0.90177 0.12008 0.0
C162 C 0.34035 0.97093 0.08608 0.0
C163 C 0.45146 0.9527 0.05997 0.0
O164 O 0.38484 0.92652 0.11083 0.0
O165 O 0.40553 0.88402 0.09987 0.0
O166 O 0.36828 0.95384 1.01947 0.0
O167 O 0.37373 0.90836 0.03611 0.0
Co168 Co 0.33939 0.4735 0.05818 0.0
O169 O 0.28966 0.4681 0.05347 0.0
O170 O 0.31978 0.5111 0.06974 0.0
C171 C 0.34458 0.44772 1.00585 0.0
O172 O 0.38961 0.49537 0.06292 0.0
Co173 Co 0.38513 0.42709 0.06037 0.0
O174 O 0.42049 0.46064 0.05119 0.0
C175 C 0.35292 0.43336 0.12057 0.0
C176 C 0.29015 0.49708 0.06205 0.0
C177 C 0.4176 0.48867 0.05654 0.0
O178 O 0.34216 0.4575 0.1078 0.0
O179 O 0.36865 0.41712 0.10381 0.0
O180 O 0.33753 0.47536 1.00844 0.0
O181 O 0.34635 0.43584 0.0342 0.0
Co182 Co 0.84244 0.25362 0.03877 0.0
O183 O 0.8885 0.26108 0.03524 0.0
O184 O 0.86088 0.21815 0.05067 0.0
C185 C 0.82752 0.27181 0.98879 0.0
O186 O 0.79667 0.23334 0.04287 0.0
Co187 Co 0.79701 0.29901 0.04078 0.0
O188 O 0.76106 0.26335 1.02762 0.0
C189 C 0.84202 0.29505 0.10075 0.0
C190 C 0.88806 0.23273 0.04324 0.0
C191 C 0.76762 0.23685 0.03364 0.0
O192 O 0.85004 0.27108 0.08673 0.0
O193 O 0.82269 0.31085 0.08568 0.0
O194 O 0.83377 0.24409 0.99131 0.0
O195 O 0.83146 0.28851 1.01637 0.0
Co196 Co 0.16697 0.52071 0.26265 0.0
O197 O 0.18353 0.4953 0.2953 0.0
O198 O 0.21043 0.51726 0.25644 0.0
C199 C 0.14583 0.55035 0.29711 0.0
O200 O 0.15919 0.54934 0.22641 0.0
Co201 Co 0.09213 0.52832 0.24697 0.0
O202 O 0.11453 0.56899 0.23344 0.0
C203 C 0.11864 0.48001 0.2206 0.0
C204 C 0.21048 0.5014 0.28239 0.0
C205 C 0.14281 0.57142 0.22438 0.0
O206 O 0.14866 0.48389 0.23169 0.0
O207 O 0.09939 0.48444 0.24136 0.0
O208 O 0.17663 0.55582 0.29464 0.0
O209 O 0.12912 0.52628 0.28032 0.0
Co210 Co 0.83649 0.9721 0.5536 0.0
O211 O 0.78697 0.96716 0.54764 0.0
O212 O 0.81708 1.01015 0.56427 0.0
C213 C 0.84179 0.94583 0.50149 0.0
O214 O 0.88672 0.99356 0.55929 0.0
Co215 Co 0.88062 0.92538 0.55741 0.0
O216 O 0.91683 0.95812 0.54832 0.0
C217 C 0.84948 0.9332 0.61757 0.0
C218 C 0.78752 0.99619 0.5559 0.0
C219 C 0.91452 0.98636 0.55326 0.0
O220 O 0.83803 0.95646 0.60346 0.0
O221 O 0.86581 0.91682 0.60183 0.0
O222 O 0.83646 0.97407 0.50403 0.0
O223 O 0.8423 0.93373 0.52976 0.0
Co224 Co 0.94501 0.05773 0.22551 0.0
O225 O 0.9528 0.10142 0.2329 0.0
O226 O 0.91315 0.07469 0.19768 0.0
C227 C 0.94891 0.04782 0.27861 0.0
O228 O 0.92846 1.01237 0.21334 0.0
Co229 Co 0.99863 1.02012 0.25158 0.0
O230 O 0.96329 0.98503 0.23934 0.0
C231 C 1.00671 0.05865 0.19535 0.0
C232 C 0.9269 0.10112 0.21247 0.0
C233 C 0.93662 0.98686 0.2222 0.0
O234 O 0.97655 0.06126 0.19175 0.0
O235 O 1.02016 0.04649 0.2198 0.0
O236 O 0.92182 0.0539 0.26438 0.0
O237 O 0.97287 0.05078 0.26157 0.0
Co238 Co 0.34724 0.74675 0.5436 0.0
O239 O 0.39379 0.75515 0.54369 0.0
O240 O 0.36553 0.71104 0.55555 0.0
C241 C 0.33588 0.76634 0.49337 0.0
O242 O 0.3007 0.72626 0.54424 0.0
Co243 Co 0.30065 0.79209 0.54091 0.0
O244 O 0.26705 0.7562 0.52293 0.0
C245 C 0.33822 0.78423 0.6056 0.0
C246 C 0.39322 0.72647 0.5504 0.0
C247 C 0.27273 0.72994 0.53102 0.0
O248 O 0.35088 0.76282 0.59196 0.0
O249 O 0.31917 0.79916 0.58877 0.0
O250 O 0.34214 0.73863 0.49576 0.0
O251 O 0.33771 0.78212 0.52119 0.0
Co252 Co 0.43944 0.57283 0.71945 0.0
O253 O 0.43313 0.61451 0.71451 0.0
O254 O 0.39507 0.57313 0.70219 0.0
C255 C 0.46635 0.5817 0.77044 0.0
O256 O 0.43583 0.52657 0.72295 0.0
Co257 Co 0.50752 0.55333 0.7336 0.0
O258 O 0.48227 0.51582 0.74841 0.0
C259 C 0.48292 0.57093 0.66727 0.0
C260 C 0.40297 0.60299 0.7049 0.0
C261 C 0.45217 0.50836 0.73852 0.0
O262 O 0.45404 0.5712 0.67438 0.0
O263 O 0.50664 0.5667 0.68793 0.0
O264 O 0.43489 0.57716 0.76643 0.0
O265 O 0.47998 0.58234 0.74394 0.0
Co266 Co 0.6606 1.00643 0.75924 0.0
O267 O 0.67481 0.98006 0.79221 0.0
O268 O 0.70522 1.00404 0.75722 0.0
C269 C 0.63537 1.0339 0.79193 0.0
O270 O 0.65574 1.03698 0.72429 0.0
Co271 Co 0.586 1.01235 0.73716 0.0
O272 O 0.60884 0.05409 0.72745 0.0
C273 C 0.61744 0.96825 0.70993 0.0
C274 C 0.70322 0.98735 0.78249 0.0
C275 C 0.63821 0.05815 0.72126 0.0
O276 O 0.64586 0.9709 0.72554 0.0
O277 O 0.59464 0.96956 0.72742 0.0
O278 O 0.66665 1.03997 0.79275 0.0
O279 O 0.62049 1.01022 0.77324 0.0
Co280 Co 0.89285 0.71698 0.05203 0.0
O281 O 0.94242 0.72271 0.05625 0.0
O282 O 0.91333 0.67968 0.06362 0.0
C283 C 0.88623 0.74164 0.99905 0.0
O284 O 0.8427 0.69512 0.04958 0.0
Co285 Co 0.84894 0.76292 0.0493 0.0
O286 O 0.81005 0.73011 0.04728 0.0
C287 C 0.87926 0.75472 0.11626 0.0
C288 C 0.94256 0.69396 0.06233 0.0
C289 C 0.81354 0.70208 0.04879 0.0
O290 O 0.89269 0.73289 0.1028 0.0
O291 O 0.86229 0.77043 0.09809 0.0
O292 O 0.89098 0.71336 1.00178 0.0
O293 O 0.88628 0.75478 1.02808 0.0
Co294 Co 1.06326 0.64844 0.85219 0.0
O295 O 1.05671 0.67973 0.82153 0.0
O296 O 1.02281 0.63627 0.82493 0.0
C297 C 0.07969 0.67821 0.89899 0.0
O298 O 1.05898 0.61147 0.87941 0.0
Co299 Co 0.12884 0.64216 0.89252 0.0
O300 O 0.10457 0.60504 0.91026 0.0
C301 C 0.1145 0.61926 0.82301 0.0
C302 C 1.02905 0.66217 0.8112 0.0
C303 C 0.07465 0.59668 0.89996 0.0
O304 O 0.08575 0.62568 0.82095 0.0
O305 O 0.13592 0.62666 0.84796 0.0
O306 O 1.04919 0.67237 0.88722 0.0
O307 O 0.09924 0.67013 0.8796 0.0
Co308 Co 0.87663 0.43698 0.56301 0.0
O309 O 0.83084 0.43139 0.56899 0.0
O310 O 0.86797 0.47182 0.58782 0.0
C311 C 0.87042 0.42133 0.50777 0.0
O312 O 0.92396 0.45477 0.56252 0.0
Co313 Co 0.91505 0.38766 0.54631 0.0
O314 O 0.95201 0.42138 0.54205 0.0
C315 C 0.89629 0.39171 0.61319 0.0
C316 C 0.83825 0.45797 0.5858 0.0
C317 C 0.95013 0.44834 0.55324 0.0
O318 O 0.88638 0.41696 0.60592 0.0
O319 O 0.90666 0.37491 0.59185 0.0
O320 O 0.86718 0.44897 0.51777 0.0
O321 O 0.87519 0.40317 0.5313 0.0
Co322 Co 0.77876 0.63663 0.40484 0.0
O323 O 0.76924 0.60009 0.37544 0.0
O324 O 0.8113 0.63781 0.37585 0.0
C325 C 0.7694 0.61246 0.45026 0.0
O326 O 0.79837 0.67622 0.43119 0.0
Co327 Co 0.73186 0.66199 0.44705 0.0
O328 O 0.75967 0.70221 0.44166 0.0
C329 C 0.72112 0.66077 0.37497 0.0
C330 C 0.79587 0.61107 0.36365 0.0
C331 C 0.78788 0.70162 0.4339 0.0
O332 O 0.75082 0.65787 0.37356 0.0
O333 O 0.70803 0.65896 0.40163 0.0
O334 O 0.79741 0.61337 0.43961 0.0
O335 O 0.74825 0.62506 0.43316 0.0
Tb336 Tb 0.11294 0.12 0.04541 0.0
Eu337 Eu 0.1739 0.14312 0.10564 0.0
C338 C 0.18378 0.14013 0.03228 0.0
C339 C 0.1526 0.07451 0.07894 0.0
C340 C 1.03351 0.12224 1.00735 0.0
C341 C 0.99589 0.15537 0.98706 0.0
C342 C 1.02 0.13797 0.98172 0.0
C343 C 1.0216 0.1233 0.03803 0.0
C344 C 0.99781 0.14078 0.04341 0.0
C345 C 0.98524 0.1577 1.01829 0.0
C346 C 1.06325 0.10926 1.00418 0.0
O347 O 0.09196 0.12967 0.08976 0.0
O348 O 0.13162 0.11809 0.12755 0.0
O349 O 0.14607 0.18248 0.1058 0.0
O350 O 0.12237 0.1699 0.05195 0.0
C351 C 0.10111 0.11912 0.11801 0.0
O352 O 0.19925 0.13508 0.15332 0.0
O353 O 0.22441 0.16465 0.12035 0.0
O354 O 0.18497 0.16011 0.05701 0.0
O355 O 0.15807 0.11853 1.02474 0.0
O356 O 0.12319 0.07836 0.06821 0.0
O357 O 0.17648 0.09764 0.08087 0.0
C358 C 0.12893 0.1886 0.07869 0.0
O359 O 0.08862 0.12945 1.00018 0.0
O360 O 0.07031 0.08993 1.02599 0.0
C361 C 0.24883 0.12297 0.14025 0.0
C362 C 0.27491 0.06867 0.1279 0.0
C363 C 0.26852 0.07709 0.15978 0.0
C364 C 0.25569 0.10398 0.16589 0.0
C365 C 0.2564 0.11506 0.10868 0.0
C366 C 0.26922 0.08834 0.10263 0.0
C367 C 0.2273 0.1461 0.14416 0.0
H368 H 0.98597 0.16737 0.96687 0.0
H369 H 1.02891 0.1377 0.95795 0.0
H370 H 1.03159 0.11166 0.05847 0.0
H371 H 0.9902 0.14203 0.06773 0.0
H372 H 0.2722 0.06228 0.17975 0.0
H373 H 0.24933 0.10893 0.19021 0.0
H374 H 0.25101 0.12872 0.08811 0.0
H375 H 0.27437 0.08289 0.07795 0.0
Tb376 Tb 0.38009 0.87063 0.33272 0.0
Eu377 Eu 0.34527 0.80688 0.28767 0.0
C378 C 0.31779 0.87392 0.28613 0.0
C379 C 0.33244 0.8197 0.365 0.0
C380 C 0.44247 0.94068 0.3741 0.0
C381 C 0.45634 0.9965 0.37687 0.0
C382 C 0.43379 0.96946 0.368 0.0
C383 C 0.47361 0.93934 0.38939 0.0
C384 C 0.496 0.96618 0.39827 0.0
C385 C 0.48774 0.99508 0.39203 0.0
C386 C 0.4196 0.91147 0.36762 0.0
O387 O 0.39638 0.83064 0.353 0.0
O388 O 0.39402 0.79723 0.30868 0.0
O389 O 0.38038 0.83044 0.25586 0.0
O390 O 0.38798 0.87909 0.28101 0.0
C391 C 0.40504 0.80665 0.33916 0.0
O392 O 0.33772 0.75705 0.27565 0.0
O393 O 0.3107 0.78574 0.24597 0.0
O394 O 0.31768 0.84555 0.27419 0.0
O395 O 0.3375 0.88705 0.31182 0.0
O396 O 0.3474 0.84861 0.36585 0.0
O397 O 0.3286 0.80099 0.33821 0.0
C398 C 0.3883 0.86041 0.25493 0.0
O399 O 0.38829 0.91107 0.36422 0.0
O400 O 0.42812 0.88965 0.3496 0.0
C401 C 0.28731 0.73256 0.24621 0.0
C402 C 0.23494 0.68322 0.23024 0.0
C403 C 0.2668 0.67762 0.23721 0.0
C404 C 0.29266 0.702 0.2448 0.0
C405 C 0.25544 0.73828 0.24027 0.0
C406 C 0.22947 0.71383 0.23244 0.0
C407 C 0.31553 0.7578 0.25101 0.0
H408 H 0.44937 1.01851 0.37155 0.0
H409 H 0.40974 0.97105 0.35657 0.0
H410 H 0.48045 0.91733 0.39491 0.0
H411 H 0.51971 0.9643 0.41027 0.0
H412 H 0.2718 0.6543 0.23703 0.0
H413 H 0.317 0.69696 0.24921 0.0
H414 H 0.25072 0.76163 0.24127 0.0
H415 H 0.2052 0.7189 0.2276 0.0
Tb416 Tb 0.59446 0.07355 0.54309 0.0
Eu417 Eu 0.63454 0.11815 0.58659 0.0
C418 C 0.62722 0.05122 0.60523 0.0
C419 C 0.55954 0.12964 0.56774 0.0
C420 C 0.5581 0.99932 0.49633 0.0
C421 C 0.53284 0.9476 0.47596 0.0
C422 C 0.53067 0.97621 0.49069 0.0
C423 C 0.58734 0.99423 0.48575 0.0
C424 C 0.58948 0.96573 0.47092 0.0
C425 C 0.56243 0.94208 0.46663 0.0
C426 C 0.55582 1.02884 0.51262 0.0
O427 O 0.60222 0.11038 0.51005 0.0
O428 O 0.63488 0.14812 0.54409 0.0
O429 O 0.67463 0.09181 0.57115 0.0
O430 O 0.64104 0.05472 0.53795 0.0
C431 C 0.61754 0.13881 0.51592 0.0
O432 O 0.68046 0.14127 0.61237 0.0
O433 O 0.63751 0.13607 0.63771 0.0
O434 O 0.60772 0.07051 0.59686 0.0
O435 O 0.60738 0.07055 0.59699 0.0
O436 O 0.55589 0.10093 0.5547 0.0
O437 O 0.58928 0.14271 0.58047 0.0
C438 C 0.67083 0.06554 0.55297 0.0
O439 O 0.56254 1.03157 0.54463 0.0
O440 O 0.56935 0.05287 0.4988 0.0
C441 C 0.67573 0.18258 0.64736 0.0
C442 C 0.69461 0.24678 0.6519 0.0
C443 C 0.66202 0.23357 0.64286 0.0
C444 C 0.65261 0.20166 0.64058 0.0
C445 C 0.70815 0.1959 0.6575 0.0
C446 C 0.71753 0.22791 0.66009 0.0
C447 C 0.6677 0.14946 0.63818 0.0
H448 H 0.51182 0.92944 0.47303 0.0
H449 H 0.50783 0.98007 0.49832 0.0
H450 H 0.60861 1.01208 0.48944 0.0
H451 H 0.6125 0.96173 0.46389 0.0
H452 H 0.64404 0.24797 0.63659 0.0
H453 H 0.6276 0.19196 0.63199 0.0
H454 H 0.72647 0.18155 0.66204 0.0
H455 H 0.74276 0.23784 0.66714 0.0
Tb456 Tb 0.33173 0.34683 0.8029 0.0
Eu457 Eu 0.40259 0.33749 0.83296 0.0
C458 C 0.39129 0.39436 0.78704 0.0
C459 C 0.37281 0.31321 0.75498 0.0
C460 C 0.24815 0.3298 0.80754 0.0
C461 C 0.19414 0.30426 0.81445 0.0
C462 C 0.21534 0.32152 0.79551 0.0
C463 C 0.25952 0.32064 0.83838 0.0
C464 C 0.23885 0.30262 0.85661 0.0
C465 C 0.20582 0.29416 0.84508 0.0
C466 C 0.27209 0.34484 0.78757 0.0
O467 O 0.3296 0.30118 0.82117 0.0
O468 O 0.36872 0.31119 0.86398 0.0
O469 O 0.3894 0.36861 0.87472 0.0
O470 O 0.33678 0.36979 0.85414 0.0
C471 C 0.3408 0.29595 0.85094 0.0
O472 O 0.43571 0.30493 0.84267 0.0
O473 O 0.45189 0.35372 0.85586 0.0
O474 O 0.41126 0.37812 0.8021 0.0
O475 O 0.35976 0.38705 0.7857 0.0
O476 O 0.35105 0.33152 0.75755 0.0
O477 O 0.39173 0.30885 0.78203 0.0
C478 C 0.3613 0.37737 0.87818 0.0
O479 O 0.29126 0.36917 0.80193 0.0
O480 O 0.28838 0.32591 0.77448 0.0
C481 C 0.48794 0.32697 0.83302 0.0
C482 C 0.54192 0.33582 0.7982 0.0
C483 C 0.54505 0.3269 0.83082 0.0
C484 C 0.51815 0.3227 0.84823 0.0
C485 C 0.48441 0.33412 0.79997 0.0
C486 C 0.51116 0.33857 0.78273 0.0
C487 C 0.46048 0.3268 0.85179 0.0
H488 H 0.16863 0.29944 0.80533 0.0
H489 H 0.20618 0.32835 0.77167 0.0
H490 H 0.28479 0.32668 0.8481 0.0
H491 H 0.24899 0.29519 0.87976 0.0
H492 H 0.56837 0.32404 0.84309 0.0
H493 H 0.52113 0.31707 0.87375 0.0
H494 H 0.46117 0.33757 0.78792 0.0
H495 H 0.508 0.34567 0.75776 0.0
Tb496 Tb 0.11593 0.07758 0.52299 0.0
Eu497 Eu 0.11227 0.10878 0.59046 0.0
C498 C 0.18272 0.11636 0.55804 0.0
C499 C 0.11987 1.03306 0.58654 0.0
C500 C 0.07868 0.0465 0.4427 0.0
C501 C 1.04809 1.02403 0.39133 0.0
C502 C 0.07662 1.02853 0.4133 0.0
C503 C 1.0515 0.05848 0.45065 0.0
C504 C 1.0228 0.05305 0.42947 0.0
C505 C 1.02126 1.03709 0.39888 0.0
C506 C 0.10926 0.0549 0.46442 0.0
O507 O 0.06381 0.06273 0.52956 0.0
O508 O 1.0581 0.08866 0.57693 0.0
O509 O 0.10274 0.14943 0.55792 0.0
O510 O 0.1164 0.12849 0.5111 0.0
C511 C 1.04541 0.06841 0.55237 0.0
O512 O 0.09129 0.11132 0.63661 0.0
O513 O 0.13288 0.14452 0.62896 0.0
O514 O 0.16589 0.1243 0.58146 0.0
O515 O 0.16867 0.09452 0.53534 0.0
O516 O 0.1214 1.03629 0.55433 0.0
O517 O 0.1187 0.05859 0.60481 0.0
C518 C 0.11014 0.15339 0.52756 0.0
O519 O 0.11694 0.08413 0.47275 0.0
O520 O 0.11277 1.03872 0.48988 0.0
C521 C 0.13215 0.12442 0.68042 0.0
C522 C 0.16657 0.10928 0.73794 0.0
C523 C 0.1401 0.12463 0.73967 0.0
C524 C 0.12296 0.13222 0.71096 0.0
C525 C 0.15798 0.10822 0.67862 0.0
C526 C 0.17533 0.10095 0.70731 0.0
C527 C 0.1147 0.13253 0.65024 0.0
H528 H 1.04768 1.0118 0.36772 0.0
H529 H 0.09741 1.01926 0.40668 0.0
H530 H 1.05277 0.07333 0.47259 0.0
H531 H 1.00236 0.06278 0.43631 0.0
H532 H 0.13337 0.13161 0.76326 0.0
H533 H 0.10289 0.14447 0.71258 0.0
H534 H 0.16501 0.10165 0.65503 0.0
H535 H 0.19575 0.08919 0.70565 0.0
Tb536 Tb 0.35141 0.81691 0.82027 0.0
Eu537 Eu 0.38287 0.88277 0.79897 0.0
C538 C 0.35779 0.87484 0.87218 0.0
C539 C 0.30371 0.85871 0.78046 0.0
C540 C 0.33382 0.73457 0.80881 0.0
C541 C 0.31043 0.69379 0.76657 0.0
C542 C 0.30656 0.71588 0.79089 0.0
C543 C 0.36487 0.73004 0.80277 0.0
C544 C 0.36865 0.70835 0.77858 0.0
C545 C 0.34159 0.69061 0.75965 0.0
C546 C 0.33034 0.7616 0.82988 0.0
O547 O 0.36752 0.80613 0.77207 0.0
O548 O 0.37287 0.85376 0.75172 0.0
O549 O 0.42693 0.8597 0.81414 0.0
O550 O 0.4018 0.82568 0.84683 0.0
C551 C 0.36883 0.82384 0.74701 0.0
O552 O 0.3911 0.91703 0.76264 0.0
O553 O 0.41789 0.92509 0.81112 0.0
O554 O 0.37164 0.89266 0.851 0.0
O555 O 0.34563 0.8455 0.86405 0.0
O556 O 0.30821 0.83236 0.79323 0.0
O557 O 0.32819 0.88226 0.7834 0.0
C558 C 0.429 0.8413 0.8385 0.0
O559 O 0.35703 0.77726 0.84536 0.0
O560 O 0.31218 0.77984 0.81636 0.0
C561 C 0.3985 0.96633 0.7882 0.0
C562 C 0.37852 1.02022 0.80999 0.0
C563 C 0.41026 1.02126 0.80229 0.0
C564 C 0.42027 0.99427 0.79142 0.0
C565 C 0.36652 0.96561 0.79458 0.0
C566 C 0.35666 0.99226 0.80554 0.0
C567 C 0.40966 0.93714 0.7837 0.0
H568 H 0.28925 0.6798 0.75269 0.0
H569 H 0.28238 0.71906 0.79495 0.0
H570 H 0.38649 0.74395 0.81593 0.0
H571 H 0.39295 0.70553 0.77452 0.0
H572 H 0.42754 1.04259 0.80594 0.0
H573 H 0.44521 0.99491 0.78711 0.0
H574 H 0.34966 0.94405 0.79302 0.0
H575 H 0.33244 0.99053 0.81246 0.0
Tb576 Tb 0.633 0.08766 0.08193 0.0
Eu577 Eu 0.58792 0.10105 1.01894 0.0
C578 C 0.6192 1.03377 1.02053 0.0
C579 C 0.66406 0.13055 1.02983 0.0
C580 C 0.66365 0.05831 0.16097 0.0
C581 C 0.67674 0.06194 0.21996 0.0
C582 C 0.68655 0.06546 0.18884 0.0
C583 C 0.63307 1.04121 0.16393 0.0
C584 C 0.62313 1.03787 0.19509 0.0
C585 C 0.64399 0.05131 0.22301 0.0
C586 C 0.66673 0.07911 0.13438 0.0
O587 O 0.6211 0.13529 0.09699 0.0
O588 O 0.58821 0.14536 0.05226 0.0
O589 O 0.55335 0.07941 0.05219 0.0
O590 O 0.58826 0.05492 0.08296 0.0
C591 C 0.60392 0.15478 0.08179 0.0
O592 O 0.56322 0.13246 0.98988 0.0
O593 O 0.55528 0.08429 0.97426 0.0
O594 O 0.60448 0.0537 1.00304 0.0
O595 O 0.63122 1.04281 0.05167 0.0
O596 O 0.66817 0.1125 0.05392 0.0
O597 O 0.63582 0.12978 1.01263 0.0
C598 C 0.5588 0.05667 0.0702 0.0
O599 O 0.67124 0.06807 0.10561 0.0
O600 O 0.64499 0.09697 0.13232 0.0
C601 C 0.55932 0.11942 0.93376 0.0
C602 C 0.57715 0.11354 0.87064 0.0
C603 C 0.54441 0.11292 0.87485 0.0
C604 C 0.53544 0.11514 0.90655 0.0
C605 C 0.59202 0.12566 0.92912 0.0
C606 C 0.60093 0.12276 0.89774 0.0
C607 C 0.55109 0.11175 0.96631 0.0
H608 H 0.69347 0.07228 0.24108 0.0
H609 H 0.71037 0.0784 0.18688 0.0
H610 H 0.61521 1.03517 0.14248 0.0
H611 H 0.59791 1.02907 0.19696 0.0
H612 H 0.52564 0.10731 0.85413 0.0
H613 H 0.51003 0.11091 0.90987 0.0
H614 H 0.61076 0.12948 0.94995 0.0
H615 H 0.62642 0.12389 0.89555 0.0
Tb616 Tb 0.38376 0.36861 0.33028 0.0
Eu617 Eu 0.35025 0.30802 0.29033 0.0
C618 C 0.37898 0.30617 0.37047 0.0
C619 C 0.42803 0.33727 0.28271 0.0
C620 C 0.38644 0.44685 0.35916 0.0
C621 C 0.33838 0.46449 0.37469 0.0
C622 C 0.36489 0.44982 0.38243 0.0
C623 C 0.38407 0.46326 0.3306 0.0
C624 C 0.35743 0.47759 0.32274 0.0
C625 C 0.33315 0.47631 0.34363 0.0
C626 C 0.40433 0.42071 0.36002 0.0
O627 O 0.36794 0.38659 0.28088 0.0
O628 O 0.34094 0.34295 0.25146 0.0
O629 O 0.30562 0.32034 0.31358 0.0
O630 O 0.33236 0.36383 0.34373 0.0
C631 C 0.35249 0.37284 0.25247 0.0
O632 O 0.32992 0.27919 0.24523 0.0
O633 O 0.33905 0.258 0.29078 0.0
O634 O 0.36283 0.29175 0.34299 0.0
O635 O 0.39218 0.3356 0.36952 0.0
O636 O 0.42751 0.35554 0.30938 0.0
O637 O 0.40102 0.31807 0.27156 0.0
C638 C 0.30536 0.34296 0.33613 0.0
O639 O 0.39106 0.39688 0.37416 0.0
O640 O 0.41343 0.4122 0.33228 0.0
C641 C 0.35751 0.23619 0.24563 0.0
C642 C 0.41514 0.21167 0.24547 0.0
C643 C 0.41222 0.23948 0.23087 0.0
C644 C 0.38359 0.25158 0.23081 0.0
C645 C 0.35911 0.20676 0.25668 0.0
C646 C 0.38769 0.19466 0.25676 0.0
C647 C 0.33448 0.25387 0.2589 0.0
H648 H 0.32074 0.4645 0.39194 0.0
H649 H 0.36656 0.43808 0.40508 0.0
H650 H 0.40077 0.46218 0.31253 0.0
H651 H 0.35443 0.48711 0.29889 0.0
H652 H 0.43283 0.25297 0.22172 0.0
H653 H 0.38308 0.27431 0.22197 0.0
H654 H 0.33955 0.19462 0.26859 0.0
H655 H 0.38918 0.17341 0.26868 0.0
Tb656 Tb 0.61846 0.57891 1.02695 0.0
Eu657 Eu 0.61579 0.61094 0.0942 0.0
C658 C 0.68426 0.62017 0.05968 0.0
C659 C 0.62027 0.53482 0.09122 0.0
C660 C 0.58996 0.5525 0.94203 0.0
C661 C 0.57107 0.54158 0.8841 0.0
C662 C 0.59343 0.53916 0.91131 0.0
C663 C 0.56333 0.56711 0.94567 0.0
C664 C 0.54088 0.56929 0.91864 0.0
C665 C 0.54512 0.55732 0.88754 0.0
C666 C 0.61478 0.55297 0.97003 0.0
O667 O 0.56496 0.57108 1.03086 0.0
O668 O 0.56416 0.58308 0.08522 0.0
O669 O 0.60745 0.65076 0.06028 0.0
O670 O 0.61729 0.62888 1.01218 0.0
C671 C 0.54901 0.56967 0.05708 0.0
O672 O 0.59406 0.63818 0.12902 0.0
O673 O 0.64272 0.62736 0.14124 0.0
O674 O 0.6657 0.63143 0.07921 0.0
O675 O 0.67169 0.59446 0.04156 0.0
O676 O 0.62292 0.53817 0.05923 0.0
O677 O 0.61885 0.5603 0.10948 0.0
C678 C 0.61292 0.65425 1.02929 0.0
O679 O 0.63179 0.57994 0.97908 0.0
O680 O 0.60492 0.53897 0.99513 0.0
C681 C 0.61809 0.64512 0.18535 0.0
C682 C 0.63839 0.65591 0.25261 0.0
C683 C 0.63349 0.6806 0.23341 0.0
C684 C 0.62303 0.67515 0.1999 0.0
C685 C 0.61978 0.6201 0.20504 0.0
C686 C 0.62972 0.62552 0.23877 0.0
C687 C 0.62021 0.64191 0.15021 0.0
H688 H 0.57458 0.53211 0.86018 0.0
H689 H 0.61387 0.5278 0.9082 0.0
H690 H 0.56053 0.57787 0.96916 0.0
H691 H 0.52121 0.58174 0.92168 0.0
H692 H 0.64045 0.70415 0.24366 0.0
H693 H 0.62213 0.69468 0.18484 0.0
H694 H 0.61639 0.59681 0.19399 0.0
H695 H 0.63369 0.60626 0.25333 0.0
Tb696 Tb 0.85147 0.32147 0.31313 0.0
Eu697 Eu 0.88197 0.38883 0.294 0.0
C698 C 0.85755 0.37695 0.3672 0.0
C699 C 0.80259 0.36084 0.27683 0.0
C700 C 0.84416 0.24102 0.29758 0.0
C701 C 0.83983 0.18857 0.27478 0.0
C702 C 0.82944 0.21 0.29569 0.0
C703 C 0.86858 0.25049 0.27789 0.0
C704 C 0.87811 0.22954 0.25638 0.0
C705 C 0.86445 0.19821 0.255 0.0
C706 C 0.83424 0.26459 0.31871 0.0
O707 O 0.85493 0.31789 0.25991 0.0
O708 O 0.89417 0.35836 0.25337 0.0
O709 O 0.92789 0.37382 0.31837 0.0
O710 O 0.90466 0.32564 0.33087 0.0
C711 C 0.87489 0.33294 0.24154 0.0
O712 O 0.8837 0.42296 0.25699 0.0
O713 O 0.91001 0.43503 0.30533 0.0
O714 O 0.86754 0.39633 0.34537 0.0
O715 O 0.8489 0.34715 0.3594 0.0
O716 O 0.80605 0.33992 0.29866 0.0
O717 O 0.8286 0.37981 0.27055 0.0
C718 C 0.93047 0.34786 0.33243 0.0
O719 O 0.85784 0.28159 0.33776 0.0
O720 O 0.81583 0.28155 0.30333 0.0
C721 C 0.88212 0.47129 0.28128 0.0
C722 C 0.85123 0.52151 0.29354 0.0
C723 C 0.87838 0.52514 0.27614 0.0
C724 C 0.8939 0.50009 0.2702 0.0
C725 C 0.8541 0.46727 0.29703 0.0
C726 C 0.83885 0.49217 0.30321 0.0
C727 C 0.899 0.44523 0.27769 0.0
H728 H 0.82947 0.16443 0.27506 0.0
H729 H 0.81054 0.20231 0.31075 0.0
H730 H 0.88077 0.27419 0.27943 0.0
H731 H 0.89697 0.23781 0.24148 0.0
H732 H 0.88806 0.54744 0.26795 0.0
H733 H 0.91535 0.50334 0.25767 0.0
H734 H 0.84462 0.44501 0.30552 0.0
H735 H 0.81822 0.48871 0.31695 0.0
Tb736 Tb 0.12685 0.58513 0.57874 0.0
Eu737 Eu 0.09088 0.60209 0.51164 0.0
C738 C 0.11664 0.5332 0.51468 0.0
C739 C 0.16587 0.62766 0.52889 0.0
C740 C 0.15379 0.54784 0.65375 0.0
C741 C 0.17443 0.54019 0.70953 0.0
C742 C 0.17987 0.54494 0.67704 0.0
C743 C 0.12212 0.53832 0.661 0.0
C744 C 0.11681 0.53513 0.69366 0.0
C745 C 0.14334 0.54074 0.71849 0.0
C746 C 0.15919 0.5708 0.62942 0.0
O747 O 0.11325 0.63106 0.59595 0.0
O748 O 0.09614 0.64749 0.54617 0.0
O749 O 1.05265 0.56999 0.5325 0.0
O750 O 0.07894 0.55853 0.58137 0.0
C751 C 0.10405 0.65377 0.57847 0.0
O752 O 1.06148 0.63371 0.48846 0.0
O753 O 0.06846 0.59301 0.461 0.0
O754 O 0.10601 0.5545 0.49598 0.0
O755 O 0.12439 0.54077 0.54688 0.0
O756 O 0.16358 0.61614 0.55766 0.0
O757 O 0.1419 0.622 0.50504 0.0
C758 C 1.05378 0.5542 0.5587 0.0
O759 O 0.16277 0.56122 0.59981 0.0
O760 O 0.14007 0.59119 0.62933 0.0
C761 C 0.0661 0.63652 0.43194 0.0
C762 C 0.08861 0.63641 0.37104 0.0
C763 C 1.05531 0.63517 0.37274 0.0
C764 C 1.04393 0.6341 0.40345 0.0
C765 C 0.09901 0.64653 0.43001 0.0
C766 C 0.11042 0.64637 0.39946 0.0
C767 C 1.05728 0.61881 0.45978 0.0
H768 H 0.19513 0.54219 0.72822 0.0
H769 H 0.20453 0.55107 0.67151 0.0
H770 H 0.10158 0.53923 0.64283 0.0
H771 H 0.09227 0.53397 0.6995 0.0
H772 H 1.03804 0.62913 0.35083 0.0
H773 H 1.01826 0.62707 0.4046 0.0
H774 H 0.11613 0.64922 0.45204 0.0
H775 H 0.1363 0.64858 0.39893 0.0
Tb776 Tb 0.82617 0.83645 0.30294 0.0
Eu777 Eu 0.902 0.84179 0.32828 0.0
C778 C 0.87509 0.8842 0.27369 0.0
C779 C 0.87179 0.80589 0.25526 0.0
C780 C 0.74068 0.80332 0.29445 0.0
C781 C 0.68555 0.78836 0.30599 0.0
C782 C 0.70863 0.80824 0.29173 0.0
C783 C 0.74896 0.7773 0.3097 0.0
C784 C 0.72622 0.75802 0.32472 0.0
C785 C 0.69456 0.76377 0.32354 0.0
C786 C 0.7661 0.82637 0.28409 0.0
O787 O 0.83101 0.79474 0.32748 0.0
O788 O 0.87664 0.81138 0.36305 0.0
O789 O 0.88468 0.87745 0.36269 0.0
O790 O 0.83064 0.85747 0.35499 0.0
C791 C 0.84891 0.79318 0.35531 0.0
O792 O 0.94451 0.82059 0.34141 0.0
O793 O 0.94807 0.87041 0.34667 0.0
O794 O 0.89826 0.86937 0.28415 0.0
O795 O 0.84717 0.87994 0.28528 0.0
O796 O 0.84527 0.81761 0.25888 0.0
O797 O 0.89535 0.80928 0.28034 0.0
C798 C 0.85565 0.8757 0.37266 0.0
O799 O 0.78004 0.84782 0.30647 0.0
O800 O 0.78725 0.81504 0.26884 0.0
C801 C 0.99181 0.85136 0.32867 0.0
C802 C 1.04588 0.86375 0.29436 0.0
C803 C 1.04959 0.85576 0.32726 0.0
C804 C 1.02264 0.8496 0.34434 0.0
C805 C 0.98792 0.85861 0.29566 0.0
C806 C 1.01476 0.865 0.27872 0.0
C807 C 0.96378 0.84723 0.3469 0.0
H808 H 0.6613 0.79357 0.30545 0.0
H809 H 0.70183 0.82814 0.27997 0.0
H810 H 0.77337 0.77263 0.31143 0.0
H811 H 0.73377 0.73967 0.33878 0.0
H812 H 0.07335 0.8547 0.33983 0.0
H813 H 1.02591 0.84404 0.36987 0.0
H814 H 0.96421 0.86017 0.28328 0.0
H815 H 1.01124 0.87194 0.25372 0.0
Tb816 Tb 0.86573 0.37354 0.82017 0.0
Eu817 Eu 0.82769 0.30759 0.78239 0.0
C818 C 0.80426 0.37225 0.7736 0.0
C819 C 0.82351 0.3231 0.85944 0.0
C820 C 0.92344 0.44596 0.85756 0.0
C821 C 0.94939 0.49924 0.86938 0.0
C822 C 0.92182 0.47745 0.85883 0.0
C823 C 0.95332 0.4365 0.86609 0.0
C824 C 0.98097 0.4584 0.8767 0.0
C825 C 0.97918 0.48998 0.87908 0.0
C826 C 0.89302 0.42383 0.85083 0.0
O827 O 0.90124 0.34288 0.81847 0.0
O828 O 0.86731 0.29651 0.819 0.0
O829 O 0.86588 0.32547 0.75016 0.0
O830 O 0.87781 0.37652 0.76951 0.0
C831 C 0.89587 0.31392 0.82613 0.0
O832 O 0.82272 0.2607 0.7595 0.0
O833 O 0.78176 0.28522 0.75654 0.0
O834 O 0.81053 0.3476 0.75867 0.0
O835 O 0.81621 0.37945 0.80438 0.0
O836 O 0.84677 0.34696 0.85952 0.0
O837 O 0.80848 0.30839 0.83184 0.0
C838 C 0.87799 0.35452 0.74654 0.0
O839 O 0.87712 0.42206 0.82146 0.0
O840 O 0.89238 0.39689 0.86273 0.0
C841 C 0.76874 0.23066 0.74896 0.0
C842 C 0.72319 0.17551 0.73614 0.0
C843 C 0.75657 0.17472 0.74181 0.0
C844 C 0.77914 0.20204 0.74769 0.0
C845 C 0.73532 0.23131 0.74521 0.0
C846 C 0.71285 0.20411 0.7388 0.0
C847 C 0.79202 0.25971 0.74909 0.0
H848 H 0.94729 0.52343 0.87016 0.0
H849 H 0.89897 0.48519 0.85247 0.0
H850 H 0.95515 0.41225 0.8654 0.0
H851 H 1.00345 0.4505 0.8838 0.0
H852 H 0.76537 0.153 0.74132 0.0
H853 H 0.8047 0.20076 0.75035 0.0
H854 H 0.7264 0.25295 0.74584 0.0
H855 H 0.68739 0.20567 0.73451 0.0
Tb856 Tb 0.88413 0.87131 0.82784 0.0
Eu857 Eu 0.85058 0.81128 0.7889 0.0
C858 C 0.87973 0.80943 0.8693 0.0
C859 C 0.92864 0.84063 0.7809 0.0
C860 C 0.88188 0.94539 0.86661 0.0
C861 C 0.82554 0.94424 0.87419 0.0
C862 C 0.85422 0.93253 0.8805 0.0
C863 C 0.88241 0.9738 0.85237 0.0
C864 C 0.85392 0.986 0.84669 0.0
C865 C 0.82462 0.96977 0.85499 0.0
C866 C 0.90313 0.92471 0.85555 0.0
O867 O 0.87239 0.8858 0.7757 0.0
O868 O 0.8344 0.84588 0.75242 0.0
O869 O 0.80568 0.82291 0.81207 0.0
O870 O 0.83316 0.86538 0.84332 0.0
C871 C 0.85101 0.87377 0.75004 0.0
O872 O 0.84213 0.78207 0.74294 0.0
O873 O 0.82977 0.76217 0.78759 0.0
O874 O 0.86656 0.79448 0.84088 0.0
O875 O 0.88976 0.83964 0.86918 0.0
O876 O 0.92852 0.85769 0.80858 0.0
O877 O 0.90085 0.82311 0.76868 0.0
C878 C 0.80588 0.84482 0.83553 0.0
O879 O 0.90437 0.89957 0.87074 0.0
O880 O 0.89864 0.91871 0.82396 0.0
C881 C 0.86469 0.73928 0.75805 0.0
C882 C 0.92004 0.71148 0.7569 0.0
C883 C 0.89149 0.6996 0.73577 0.0
C884 C 0.86393 0.71375 0.73605 0.0
C885 C 0.89308 0.75048 0.77932 0.0
C886 C 0.92029 0.73685 0.77878 0.0
C887 C 0.83802 0.7569 0.75848 0.0
H888 H 0.80355 0.93113 0.88107 0.0
H889 H 0.85354 0.91104 0.89231 0.0
H890 H 0.90356 0.98433 0.84167 0.0
H891 H 0.8541 1.00628 0.83266 0.0
H892 H 0.89062 0.67963 0.7191 0.0
H893 H 0.84234 0.70493 0.71924 0.0
H894 H 0.8944 0.77014 0.79646 0.0
H895 H 0.94146 0.74587 0.79614 0.0
Tb896 Tb 0.61547 0.60755 0.54246 0.0
Eu897 Eu 0.66074 0.60912 0.61461 0.0
C898 C 0.68714 0.59668 0.54385 0.0
C899 C 0.62423 0.54808 0.57678 0.0
C900 C 0.54604 0.63065 0.50015 0.0
C901 C 0.51549 0.67284 0.4941 0.0
C902 C 0.53994 0.65738 0.48493 0.0
C903 C 0.52655 0.61923 0.5241 0.0
C904 C 0.50219 0.63466 0.53325 0.0
C905 C 0.49683 0.66201 0.5189 0.0
C906 C 0.57604 0.61834 0.49582 0.0
O907 O 0.59069 0.62524 0.5805 0.0
O908 O 0.6082 0.59783 0.62253 0.0
O909 O 0.64983 0.65701 0.60762 0.0
O910 O 0.65492 0.64568 0.55531 0.0
C911 C 0.5853 0.61017 0.60646 0.0
O912 O 0.67081 0.58625 0.65995 0.0
O913 O 0.70341 0.6273 0.64963 0.0
O914 O 0.69326 0.60835 0.57457 0.0
O915 O 0.65755 0.59032 0.52768 0.0
O916 O 0.60225 0.56259 0.5624 0.0
O917 O 0.65308 0.56288 0.58778 0.0
C918 C 0.65229 0.66635 0.57804 0.0
O919 O 0.60259 0.6374 0.50652 0.0
O920 O 0.57743 0.59045 0.50494 0.0
C921 C 0.72571 0.58255 0.66192 0.0
C922 C 0.76035 0.53634 0.64337 0.0
C923 C 0.74482 0.53413 0.67194 0.0
C924 C 0.72721 0.55691 0.68092 0.0
C925 C 0.7434 0.58558 0.63475 0.0
C926 C 0.76022 0.56261 0.62542 0.0
C927 C 0.70036 0.6017 0.66501 0.0
H928 H 0.51137 0.69345 0.48201 0.0
H929 H 0.55491 0.66696 0.46683 0.0
H930 H 0.53096 0.59904 0.53682 0.0
H931 H 0.48822 0.62571 0.55238 0.0
H932 H 0.74518 0.51427 0.68646 0.0
H933 H 0.71344 0.55372 0.70163 0.0
H934 H 0.74282 0.6049 0.61942 0.0
H935 H 0.77253 0.565 0.60361 0.0
Tb936 Tb 0.09562 0.57255 0.04265 0.0
Eu937 Eu 0.14068 0.62285 0.09347 0.0
C938 C 0.10653 0.55831 0.11472 0.0
C939 C 1.06248 0.62923 0.07217 0.0
C940 C 1.06211 0.51413 0.97344 0.0
C941 C 1.04073 0.46442 0.94572 0.0
C942 C 1.03621 0.49006 0.96436 0.0
C943 C 0.09177 0.51397 0.96117 0.0
C944 C 0.09624 0.4883 0.94219 0.0
C945 C 0.0712 0.46275 0.93595 0.0
C946 C 1.0591 0.53625 0.99973 0.0
O947 O 0.12536 0.60536 1.01588 0.0
O948 O 0.12878 0.64817 0.0493 0.0
O949 O 0.17647 0.59403 0.0726 0.0
O950 O 0.14147 0.55126 0.04961 0.0
C951 C 0.1263 0.63514 1.0199 0.0
O952 O 0.18668 0.65331 0.10565 0.0
O953 O 0.15292 0.64611 0.1424 0.0
O954 O 0.133 0.57858 0.11788 0.0
O955 O 0.08374 0.55875 0.09055 0.0
O956 O 1.06082 0.60443 0.05197 0.0
O957 O 0.09005 0.63934 0.09197 0.0
C958 C 0.17185 0.56488 0.0605 0.0
O959 O 0.06853 0.52875 1.0292 0.0
O960 O 0.06934 0.56514 0.99553 0.0
C961 C 0.18963 0.69369 0.14547 0.0
C962 C 0.20729 0.75728 0.15921 0.0
C963 C 0.23004 0.74009 0.14948 0.0
C964 C 0.22132 0.70836 0.14297 0.0
C965 C 0.16717 0.71076 0.15634 0.0
C966 C 0.17604 0.74245 0.16327 0.0
C967 C 0.18056 0.66095 0.13519 0.0
H968 H 1.0214 0.44462 0.94192 0.0
H969 H 1.01324 0.49 0.97381 0.0
H970 H 0.112 0.53253 0.96823 0.0
H971 H 0.12001 0.48714 0.93517 0.0
H972 H 0.25426 0.75129 0.14636 0.0
H973 H 0.23904 0.69537 0.13499 0.0
H974 H 0.14263 0.69988 0.1586 0.0
H975 H 0.15816 0.75559 0.17056 0.0
C976 C 0.11463 0.25524 0.03322 0.0
C977 C 0.08152 0.25439 0.03517 0.0
C978 C 0.13245 0.23748 0.05309 0.0
C979 C 0.11751 0.21788 0.07503 0.0
H980 H 0.1264 0.26836 1.01488 0.0
H981 H 0.15701 0.23632 0.04845 0.0
S982 S 1.03248 0.21085 0.09247 0.0
N983 N 1.03548 0.23601 0.06377 0.0
N984 N 0.06867 0.20114 0.10011 0.0
C985 C 0.08517 0.21908 0.07935 0.0
C986 C 0.06712 0.23763 0.05948 0.0
C987 C 0.2888 0.91104 0.20986 0.0
C988 C 0.27523 0.93575 0.222 0.0
C989 C 0.30073 0.89036 0.23086 0.0
C990 C 0.30065 0.89394 0.26509 0.0
H991 H 0.2895 0.90697 0.1837 0.0
H992 H 0.3111 0.87192 0.22012 0.0
S993 S 0.26886 0.95509 0.3098 0.0
N994 N 0.26228 0.96249 0.27066 0.0
N995 N 0.28661 0.92435 0.31049 0.0
C996 C 0.28784 0.91881 0.27783 0.0
C997 C 0.2747 0.93949 0.25622 0.0
C998 C 0.54854 0.86244 0.42339 0.0
C999 C 0.56775 0.84706 0.44497 0.0
C1000 C 0.54759 0.89381 0.42977 0.0
C1001 C 0.56626 0.91045 0.45745 0.0
H1002 H 0.5332 0.84993 0.40243 0.0
H1003 H 0.53184 0.90498 0.41342 0.0
S1004 S 0.62243 0.88111 0.51961 0.0
N1005 N 0.60733 0.85108 0.49372 0.0
N1006 N 0.60547 0.90987 0.5055 0.0
C1007 C 0.5866 0.89558 0.47821 0.0
C1008 C 0.58734 0.86384 0.472 0.0
C1009 C 0.59283 0.34945 0.72845 0.0
C1010 C 0.61838 0.37266 0.74232 0.0
C1011 C 0.56942 0.3359 0.74739 0.0
C1012 C 0.57056 0.34522 0.78084 0.0
H1013 H 0.59014 0.34246 0.70246 0.0
H1014 H 0.54945 0.31896 0.73539 0.0
S1015 S 0.63411 0.4032 0.82962 0.0
N1016 N 0.64507 0.40252 0.79223 0.0
N1017 N 0.60047 0.37768 0.8276 0.0
C1018 C 0.59708 0.36704 0.79552 0.0
C1019 C 0.62113 0.38065 0.77629 0.0
C1020 C 0.11454 0.94117 0.59963 0.0
C1021 C 0.11309 0.93698 0.63404 0.0
C1022 C 0.11708 0.97105 0.58489 0.0
C1023 C 0.1186 1.00009 0.60293 0.0
H1024 H 0.11344 0.92086 0.5834 0.0
H1025 H 0.1176 0.97116 0.55855 0.0
S1026 S 0.11667 1.00432 0.69409 0.0
N1027 N 0.11406 0.96696 0.68537 0.0
N1028 N 0.11875 1.02085 0.65884 0.0
C1029 C 0.11744 0.99618 0.63737 0.0
C1030 C 0.11478 0.96584 0.65231 0.0
C1031 C 0.52275 0.85527 0.86957 0.0
C1032 C 0.52535 0.84003 0.89931 0.0
C1033 C 0.49221 0.85521 0.84996 0.0
C1034 C 0.46222 0.83956 0.85847 0.0
H1035 H 0.54436 0.86843 0.86193 0.0
H1036 H 0.49214 0.86809 0.82807 0.0
S1037 S 0.45528 0.79409 0.93261 0.0
N1038 N 0.49439 0.80765 0.93503 0.0
N1039 N 0.43855 0.80706 0.89883 0.0
C1040 C 0.46483 0.82344 0.88757 0.0
C1041 C 0.49567 0.82383 0.9076 0.0
C1042 C 0.61145 0.23103 0.14398 0.0
C1043 C 0.60096 0.25456 0.12443 0.0
C1044 C 0.61222 0.19969 0.13097 0.0
C1045 C 0.60248 0.18875 0.09717 0.0
H1046 H 0.62048 0.23712 0.16963 0.0
H1047 H 0.62104 0.1839 0.14785 0.0
S1048 S 0.57395 0.24025 0.03422 0.0
N1049 N 0.58153 0.26308 0.06824 0.0
N1050 N 0.58222 0.20647 0.04487 0.0
C1051 C 0.59181 0.21209 0.07767 0.0
C1052 C 0.5914 0.24381 0.09075 0.0
C1053 C 0.21504 0.32694 0.36061 0.0
C1054 C 0.21527 0.34502 0.3905 0.0
C1055 C 0.24327 0.32641 0.34364 0.0
C1056 C 0.2743 0.34454 0.35442 0.0
H1057 H 0.19258 0.3125 0.35012 0.0
H1058 H 0.24051 0.31147 0.32144 0.0
S1059 S 0.28941 0.39753 0.43038 0.0
N1060 N 0.25079 0.38226 0.42933 0.0
N1061 N 0.30211 0.38203 0.39789 0.0
C1062 C 0.27474 0.36312 0.38401 0.0
C1063 C 0.24613 0.36318 0.40165 0.0
C1064 C 1.02305 0.09808 0.15551 0.0
C1065 C 1.02822 0.07151 0.17167 0.0
C1066 C 1.04671 0.11351 0.1378 0.0
C1067 C 0.07626 0.10302 0.13634 0.0
H1068 H 1.00131 0.1077 0.15767 0.0
H1069 H 1.04228 0.13421 0.12603 0.0
S1070 S 0.09899 1.03159 0.16951 0.0
N1071 N 1.06308 1.03306 0.18109 0.0
N1072 N 0.1077 0.06259 0.14894 0.0
C1073 C 0.08088 0.07563 0.15088 0.0
C1074 C 1.05675 0.05968 0.16822 0.0
C1075 C 0.33547 0.81185 0.45798 0.0
C1076 C 0.32962 0.77971 0.46071 0.0
C1077 C 0.33396 0.82473 0.42703 0.0
C1078 C 0.32617 0.8061 0.39727 0.0
H1079 H 0.34284 0.82723 0.47988 0.0
H1080 H 0.34048 0.84951 0.42652 0.0
S1081 S 0.30374 0.72054 0.39123 0.0
N1082 N 0.3123 0.72966 0.43113 0.0
N1083 N 0.30894 0.75351 0.37332 0.0
C1084 C 0.31795 0.77395 0.39991 0.0
C1085 C 0.31988 0.76088 0.43143 0.0
C1086 C 0.64371 0.99048 0.66265 0.0
C1087 C 0.61592 0.98476 0.67897 0.0
C1088 C 0.64602 1.01145 0.63811 0.0
C1089 C 0.62077 1.0275 0.62883 0.0
H1090 H 0.66459 0.9799 0.67003 0.0
H1091 H 0.66843 1.01606 0.6272 0.0
S1092 S 0.53983 1.01576 0.65779 0.0
N1093 N 0.56002 0.99272 0.67926 0.0
N1094 N 0.56511 1.03303 0.63376 0.0
C1095 C 0.59169 1.02018 0.64257 0.0
C1096 C 0.58904 0.99837 0.66734 0.0
C1097 C 0.37183 0.41026 0.97117 0.0
C1098 C 0.34893 0.43043 0.97291 0.0
C1099 C 0.37603 0.39405 0.94108 0.0
C1100 C 0.35686 0.3958 0.9105 0.0
H1101 H 0.38718 0.4072 0.99338 0.0
H1102 H 0.39432 0.37944 0.94204 0.0
S1103 S 0.2922 0.44413 0.90073 0.0
N1104 N 0.30661 0.45064 0.94009 0.0
N1105 N 0.31316 0.41972 0.88516 0.0
C1106 C 0.33349 0.4155 0.91208 0.0
C1107 C 0.32993 0.43274 0.94249 0.0
C1108 C 0.96225 1.01401 0.32224 0.0
C1109 C 0.95461 1.04255 0.31338 0.0
C1110 C 0.98144 1.01166 0.35187 0.0
C1111 C 0.99397 1.03795 0.37305 0.0
H1112 H 0.95576 0.99401 0.30495 0.0
H1113 H 0.98854 0.98966 0.35702 0.0
S1114 S 0.97762 0.1174 0.36157 0.0
N1115 N 0.95754 0.09667 0.32888 0.0
N1116 N 0.9947 0.09298 0.38411 0.0
C1117 C 0.98389 0.0661 0.3656 0.0
C1118 C 0.96386 0.0682 0.33575 0.0
C1119 C 0.36804 0.77965 0.66312 0.0
C1120 C 0.3452 0.79249 0.64235 0.0
C1121 C 0.37513 0.78855 0.69735 0.0
C1122 C 0.35988 0.81089 0.71204 0.0
H1123 H 0.38093 0.76296 0.65282 0.0
H1124 H 0.39332 0.77865 0.71207 0.0
S1125 S 0.29577 0.84911 0.67039 0.0
N1126 N 0.30549 0.82701 0.64091 0.0
N1127 N 0.31921 0.84362 0.70382 0.0
C1128 C 0.33634 0.82294 0.69189 0.0
C1129 C 0.32892 0.81384 0.65754 0.0
C1130 C 0.6321 0.08657 0.81425 0.0
C1131 C 0.61745 0.05568 0.80672 0.0
C1132 C 0.61659 0.10692 0.83111 0.0
C1133 C 0.58647 0.0967 0.84213 0.0
H1134 H 0.65611 0.0949 0.80793 0.0
H1135 H 0.62943 0.13013 0.83789 0.0
S1136 S 0.53648 1.0186 0.82468 0.0
N1137 N 0.56963 1.01671 0.80746 0.0
N1138 N 0.54114 0.05419 0.84099 0.0
C1139 C 0.57048 0.06642 0.83228 0.0
C1140 C 0.58598 0.04599 0.81435 0.0
C1141 C 0.33786 0.38882 0.15813 0.0
C1142 C 0.34745 0.42108 0.15531 0.0
C1143 C 0.33841 0.37435 0.18886 0.0
C1144 C 0.34935 0.3906 0.21993 0.0
H1145 H 0.33048 0.37405 0.1358 0.0
H1146 H 0.33106 0.34956 0.18794 0.0
S1147 S 0.37793 0.47577 0.22837 0.0
N1148 N 0.36841 0.46884 0.18814 0.0
N1149 N 0.36996 0.44222 0.24492 0.0
C1150 C 0.35873 0.42308 0.21776 0.0
C1151 C 0.35771 0.43797 0.18617 0.0
C1152 C 0.2906 0.99585 0.0824 0.0
C1153 C 0.31906 0.99014 0.10056 0.0
C1154 C 0.27548 1.02043 0.09224 0.0
C1155 C 0.28815 1.03995 0.12067 0.0
H1156 H 0.28124 0.98269 0.05937 0.0
H1157 H 0.25435 1.02488 0.07683 0.0
S1158 S 0.36023 1.03212 0.17846 0.0
N1159 N 0.35762 1.00405 0.14973 0.0
N1160 N 0.32951 0.04997 0.16802 0.0
C1161 C 0.3153 1.03296 0.14011 0.0
C1162 C 0.33067 1.00816 0.13006 0.0
C1163 C 0.75705 0.68892 0.06746 0.0
C1164 C 0.78231 0.67859 0.05223 0.0
C1165 C 0.72679 0.66987 0.0701 0.0
C1166 C 0.71864 0.63879 0.05721 0.0
H1167 H 0.76061 0.7125 0.07771 0.0
H1168 H 0.70916 0.68015 0.08203 0.0
S1169 S 0.77525 0.59889 1.01466 0.0
N1170 N 0.79641 0.63383 1.02432 0.0
N1171 N 0.73983 0.59858 1.02836 0.0
C1172 C 0.74362 0.6278 0.04191 0.0
C1173 C 0.77504 0.64729 0.03975 0.0
C1174 C 0.79026 0.56775 0.32111 0.0
C1175 C 0.81005 0.5923 0.34046 0.0
C1176 C 0.80379 0.54623 0.3035 0.0
C1177 C 0.83757 0.5483 0.3051 0.0
H1178 H 0.76419 0.56441 0.3206 0.0
H1179 H 0.78774 0.52691 0.28995 0.0
S1180 S 0.89987 0.60939 0.35087 0.0
N1181 N 0.86503 0.61881 0.35838 0.0
N1182 N 0.89044 0.57771 0.32628 0.0
C1183 C 0.85757 0.57378 0.32282 0.0
C1184 C 0.84379 0.59595 0.34033 0.0
C1185 C 0.98401 0.49621 0.58237 0.0
C1186 C 0.97843 0.47369 0.55574 0.0
C1187 C 1.00902 0.52194 0.58407 0.0
C1188 C 1.02852 0.52652 0.55859 0.0
H1189 H 0.9688 0.49398 0.60202 0.0
H1190 H 1.01247 0.53874 0.60484 0.0
S1191 S 1.02456 0.47426 0.484 0.0
N1192 N 0.99552 0.45729 0.50417 0.0
N1193 N 1.04132 0.50611 0.50647 0.0
C1194 C 1.02342 0.50404 0.53209 0.0
C1195 C 0.9987 0.47749 0.53087 0.0
C1196 C 0.50083 0.21694 0.28739 0.0
C1197 C 0.50428 0.1858 0.28801 0.0
C1198 C 0.47286 0.22549 0.27108 0.0
C1199 C 0.44756 0.20319 0.2546 0.0
H1200 H 0.51856 0.23454 0.30173 0.0
H1201 H 0.47004 0.24945 0.27356 0.0
S1202 S 0.44856 0.11948 0.2427 0.0
N1203 N 0.48266 0.13324 0.26648 0.0
N1204 N 0.43054 0.1494 0.23521 0.0
C1205 C 0.45238 0.17242 0.25226 0.0
C1206 C 0.48064 0.1637 0.26911 0.0
C1207 C 0.46951 0.14673 0.56311 0.0
C1208 C 0.47184 0.17943 0.5656 0.0
C1209 C 0.49717 0.13132 0.56366 0.0
C1210 C 0.52978 0.14716 0.56756 0.0
H1211 H 0.44571 0.13254 0.56015 0.0
H1212 H 0.49274 0.10637 0.56118 0.0
S1213 S 0.55105 0.233 0.57533 0.0
N1214 N 0.51107 0.22689 0.57178 0.0
N1215 N 0.56184 0.19863 0.57389 0.0
C1216 C 0.53256 0.17988 0.57042 0.0
C1217 C 0.5043 0.19562 0.56916 0.0
C1218 C 0.78925 0.75087 0.40638 0.0
C1219 C 0.80626 0.72904 0.42094 0.0
C1220 C 0.80371 0.77202 0.38576 0.0
C1221 C 0.83575 0.7724 0.37934 0.0
H1222 H 0.76394 0.75034 0.40908 0.0
H1223 H 0.78947 0.78783 0.3742 0.0
S1224 S 0.89219 0.72318 0.41467 0.0
N1225 N 0.85804 0.7112 0.42991 0.0
N1226 N 0.88519 0.75162 0.39144 0.0
C1227 C 0.85388 0.75249 0.39561 0.0
C1228 C 0.8391 0.73061 0.41635 0.0
C1229 C 1.0285 0.56436 0.91984 0.0
C1230 C 1.05761 0.56618 0.90606 0.0
C1231 C 1.00417 0.53841 0.913 0.0
C1232 C 1.00786 0.51371 0.89149 0.0
H1233 H 1.02347 0.58414 0.93376 0.0
H1234 H 0.98155 0.53852 0.92306 0.0
S1235 S 0.08137 0.50645 0.85201 0.0
N1236 N 0.09044 0.54025 0.87299 0.0
N1237 N 1.04437 0.49171 0.85905 0.0
C1238 C 1.03802 0.51425 0.8798 0.0
C1239 C 1.063 0.5405 0.88736 0.0
C1240 C 0.18689 1.02869 0.14526 0.0
C1241 C 0.16822 0.99942 0.13853 0.0
C1242 C 0.18212 0.05232 0.12483 0.0
C1243 C 0.15815 0.04768 0.09739 0.0
H1244 H 0.20531 1.03333 0.1664 0.0
H1245 H 0.19657 0.07475 0.13138 0.0
S1246 S 0.1021 0.97482 0.07041 0.0
N1247 N 0.12487 0.96633 0.10315 0.0
N1248 N 0.115 1.01157 0.06508 0.0
C1249 C 0.13905 1.01841 0.0906 0.0
C1250 C 0.14442 0.994 0.1111 0.0
C1251 C 0.9368 0.28803 0.90412 0.0
C1252 C 0.96936 0.29179 0.89839 0.0
C1253 C 0.91265 0.29296 0.87941 0.0
C1254 C 0.92057 0.30296 0.84873 0.0
H1255 H 0.93018 0.28243 0.9282 0.0
H1256 H 0.88797 0.29093 0.8851 0.0
S1257 S 1.00202 0.31506 0.82131 0.0
N1258 N 1.00797 0.30413 0.85925 0.0
N1259 N 0.96277 0.31518 0.81351 0.0
C1260 C 0.95281 0.30587 0.84241 0.0
C1261 C 0.9772 0.29978 0.86711 0.0
C1262 C 0.71703 0.3306 0.68085 0.0
C1263 C 0.71001 0.34527 0.65167 0.0
C1264 C 0.71432 0.29851 0.68055 0.0
C1265 C 0.7044 0.28026 0.65112 0.0
H1266 H 0.72284 0.34381 0.70434 0.0
H1267 H 0.71791 0.28786 0.70365 0.0
S1268 S 0.68876 0.3073 0.56751 0.0
N1269 N 0.69707 0.33913 0.59198 0.0
N1270 N 0.6918 0.27872 0.59175 0.0
C1271 C 0.70018 0.29466 0.6215 0.0
C1272 C 0.70318 0.32729 0.62167 0.0
C1273 C 0.66015 0.74903 0.40233 0.0
C1274 C 0.62712 0.73923 0.39131 0.0
C1275 C 0.68281 0.75351 0.37998 0.0
C1276 C 0.67299 0.74876 0.34597 0.0
H1277 H 0.66818 0.75587 0.42805 0.0
H1278 H 0.70754 0.76372 0.38919 0.0
S1279 S 0.5909 0.71641 0.30512 0.0
N1280 N 0.58675 0.71924 0.34469 0.0
N1281 N 0.62958 0.72891 0.30258 0.0
C1282 C 0.64085 0.7356 0.33491 0.0
C1283 C 0.61779 0.73039 0.35771 0.0
C1284 C 0.10438 0.24289 0.51752 0.0
C1285 C 0.11633 0.25235 0.48741 0.0
C1286 C 0.10255 0.2122 0.5294 0.0
C1287 C 0.11209 0.18684 0.51248 0.0
H1288 H 0.09602 0.25978 0.53289 0.0
H1289 H 0.09319 0.20841 0.55268 0.0
S1290 S 0.14581 0.1962 0.43209 0.0
N1291 N 0.13843 0.23115 0.44098 0.0
N1292 N 0.13488 0.17489 0.46248 0.0
C1293 C 0.12425 0.1956 0.48219 0.0
C1294 C 0.12637 0.22731 0.47009 0.0
C1295 C 0.70928 0.34447 0.24286 0.0
C1296 C 0.70668 0.36273 0.21526 0.0
C1297 C 0.73959 0.34416 0.26284 0.0
C1298 C 0.76926 0.36245 0.25693 0.0
H1299 H 0.68791 0.32935 0.24846 0.0
H1300 H 0.73974 0.32899 0.2829 0.0
S1301 S 0.776 0.41598 0.18907 0.0
N1302 N 0.73728 0.40052 0.18441 0.0
N1303 N 0.79255 0.40044 0.22121 0.0
C1304 C 0.76655 0.38144 0.22998 0.0
C1305 C 0.73603 0.38142 0.20956 0.0
C1306 C 0.61996 0.96025 0.95738 0.0
C1307 C 0.62707 0.93531 0.97676 0.0
C1308 C 0.61717 0.99078 0.97097 0.0
C1309 C 0.62207 0.99997 1.00543 0.0
H1310 H 0.61609 0.95614 0.93087 0.0
H1311 H 0.61135 1.00761 0.95383 0.0
S1312 S 0.64222 0.94502 0.06852 0.0
N1313 N 0.6389 0.92374 0.03367 0.0
N1314 N 0.63518 0.97936 0.05835 0.0
C1315 C 0.62959 0.97532 1.02504 0.0
C1316 C 0.63165 0.94406 1.01122 0.0
C1317 C 0.98516 0.83617 0.70894 0.0
C1318 C 1.01797 0.84305 0.72395 0.0
C1319 C 0.95744 0.83491 0.72714 0.0
C1320 C 0.95974 0.84139 0.76198 0.0
H1321 H 0.98062 0.83131 0.68253 0.0
H1322 H 0.93359 0.82922 0.71331 0.0
S1323 S 1.03933 0.86091 0.81458 0.0
N1324 N 1.04992 0.85596 0.77736 0.0
N1325 N 0.99935 0.85503 0.8102 0.0
C1326 C 0.99237 0.84856 0.77723 0.0
C1327 C 1.0206 0.84898 0.75885 0.0
C1328 C 0.26696 0.16008 1.00552 0.0
C1329 C 0.27387 0.13092 0.99686 0.0
C1330 C 0.23775 0.16287 1.01754 0.0
C1331 C 0.21478 0.13656 1.02097 0.0
H1332 H 0.28202 0.18073 0.99891 0.0
H1333 H 0.23223 0.18571 1.02214 0.0
S1334 S 0.22623 0.05522 1.01047 0.0
N1335 N 0.25932 0.07562 0.99944 0.0
N1336 N 0.204 0.08057 1.02134 0.0
C1337 C 0.22341 0.10738 1.0164 0.0
C1338 C 0.25347 0.1047 1.0051 0.0
C1339 C 0.89538 0.40361 0.67388 0.0
C1340 C 0.89523 0.38174 0.64766 0.0
C1341 C 0.89196 0.39476 0.70608 0.0
C1342 C 0.88765 0.3635 0.71362 0.0
H1343 H 0.89751 0.42787 0.66942 0.0
H1344 H 0.89114 0.41261 0.72485 0.0
S1345 S 0.888 0.29713 0.65442 0.0
N1346 N 0.89262 0.32743 0.63203 0.0
N1347 N 0.88575 0.31076 0.69211 0.0
C1348 C 0.88885 0.34148 0.68788 0.0
C1349 C 0.89272 0.35057 0.65513 0.0
C1350 C 0.56586 0.1759 0.45464 0.0
C1351 C 0.58873 0.19179 0.43631 0.0
C1352 C 0.57584 0.16047 0.48198 0.0
C1353 C 0.60887 0.16119 0.49246 0.0
H1354 H 0.54027 0.17211 0.44569 0.0
H1355 H 0.55752 0.14614 0.49367 0.0
S1356 S 0.67784 0.20682 0.4588 0.0
N1357 N 0.64559 0.21267 0.43463 0.0
N1358 N 0.66415 0.18403 0.48691 0.0
C1359 C 0.63179 0.18066 0.47754 0.0
C1360 C 0.62168 0.19612 0.44931 0.0
C1361 C 0.90677 0.77342 0.17685 0.0
C1362 C 0.87895 0.76185 0.15392 0.0
C1363 C 0.90468 0.78643 0.20947 0.0
C1364 C 0.87468 0.78932 0.2213 0.0
H1365 H 0.9305 0.77372 0.16913 0.0
H1366 H 0.927 0.79544 0.22511 0.0
S1367 S 0.79437 0.76106 0.17241 0.0
N1368 N 0.82029 0.75326 0.14731 0.0
N1369 N 0.81649 0.77723 0.20648 0.0
C1370 C 0.84694 0.77705 0.19881 0.0
C1371 C 0.84905 0.76367 0.16609 0.0
C1372 C 0.23658 0.12199 0.80504 0.0
C1373 C 0.22216 0.1091 0.83167 0.0
C1374 C 0.21904 0.11986 0.77374 0.0
C1375 C 0.18669 0.10482 0.76833 0.0
H1376 H 0.26067 0.13567 0.80882 0.0
H1377 H 0.23005 0.13191 0.75427 0.0
S1378 S 0.1404 0.06159 0.82793 0.0
N1379 N 0.17558 0.07639 0.84926 0.0
N1380 N 0.14257 0.07286 0.79023 0.0
C1381 C 0.17307 0.0894 0.79385 0.0
C1382 C 0.19089 0.09139 0.82564 0.0
C1383 C 0.86303 0.37903 0.46188 0.0
C1384 C 0.86658 0.41065 0.47171 0.0
C1385 C 0.85898 0.36841 0.42831 0.0
C1386 C 0.85861 0.38883 0.40266 0.0
H1387 H 0.86335 0.36219 0.48032 0.0
H1388 H 0.85687 0.34388 0.42252 0.0
S1389 S 0.86663 0.47404 0.41472 0.0
N1390 N 0.86896 0.4623 0.45251 0.0
N1391 N 0.86186 0.44257 0.39 0.0
C1392 C 0.86198 0.42053 0.41216 0.0
C1393 C 0.8658 0.43132 0.44636 0.0
C1394 C 0.60039 0.10337 0.26953 0.0
C1395 C 0.61645 0.10462 0.30162 0.0
C1396 C 0.60734 0.08361 0.2447 0.0
C1397 C 0.63043 0.06422 0.25111 0.0
H1398 H 0.58336 0.11869 0.26315 0.0
H1399 H 0.59612 0.08512 0.21983 0.0
S1400 S 0.67491 0.05459 0.33209 0.0
N1401 N 0.65341 0.08166 0.33942 0.0
N1402 N 0.66635 1.04468 0.29234 0.0
C1403 C 0.64487 0.06355 0.28349 0.0
C1404 C 0.63794 0.08373 0.30884 0.0
C1405 C 0.88761 0.7913 0.96455 0.0
C1406 C 0.88454 0.7586 0.96564 0.0
C1407 C 0.88679 0.80717 0.93431 0.0
C1408 C 0.88232 0.79181 0.90225 0.0
H1409 H 0.89095 0.80514 0.98758 0.0
H1410 H 0.88926 0.83205 0.93625 0.0
S1411 S 0.87276 0.7062 0.88953 0.0
N1412 N 0.87702 0.71182 0.93005 0.0
N1413 N 0.8747 0.74068 0.87485 0.0
C1414 C 0.87903 0.7591 0.90301 0.0
C1415 C 0.88036 0.74299 0.9338 0.0
C1416 C 0.91327 0.18566 0.05029 0.0
C1417 C 0.91522 0.21581 0.0397 0.0
C1418 C 0.93593 0.16716 0.04328 0.0
C1419 C 0.96149 0.17795 1.02525 0.0
H1420 H 0.89359 0.17586 0.0635 0.0
H1421 H 0.93293 0.14393 0.05145 0.0
S1422 S 0.97865 0.25577 0.99371 0.0
N1423 N 0.94559 0.25608 1.01152 0.0
N1424 N 0.98841 0.22137 0.99848 0.0
C1425 C 0.96423 0.20832 1.01523 0.0
C1426 C 0.94117 0.22726 1.02254 0.0
C1427 C 0.46332 0.53401 0.08179 0.0
C1428 C 0.44843 0.51308 0.05496 0.0
C1429 C 0.49487 0.55247 0.082 0.0
C1430 C 0.51366 0.55168 0.05525 0.0
H1431 H 0.45114 0.53523 0.10356 0.0
H1432 H 0.5049 0.56714 0.10388 0.0
S1433 S 0.48565 0.50196 0.97805 0.0
N1434 N 0.45558 0.49367 1.00044 0.0
N1435 N 0.51301 0.5281 1.00043 0.0
C1436 C 0.49845 0.53152 1.02794 0.0
C1437 C 0.46671 0.51246 1.02796 0.0
C1438 C 0.35221 0.61399 0.72375 0.0
C1439 C 0.3784 0.62293 0.70585 0.0
C1440 C 0.33687 0.63618 0.73811 0.0
C1441 C 0.34714 0.66769 0.73446 0.0
H1442 H 0.34622 0.59031 0.73017 0.0
H1443 H 0.31959 0.62891 0.75504 0.0
S1444 S 0.4075 0.70157 0.68143 0.0
N1445 N 0.40898 0.6643 0.6793 0.0
N1446 N 0.37936 0.70596 0.70531 0.0
C1447 C 0.36959 0.67623 0.71225 0.0
C1448 C 0.38551 0.65378 0.69815 0.0
C1449 C 0.24451 0.68321 0.55417 0.0
C1450 C 0.2461 0.70324 0.52848 0.0
C1451 C 0.21946 0.65792 0.55306 0.0
C1452 C 0.19502 0.65124 0.52599 0.0
H1453 H 0.2623 0.68761 0.57584 0.0
H1454 H 0.2189 0.64406 0.57423 0.0
S1455 S 0.19179 0.69391 0.44977 0.0
N1456 N 0.22353 0.7132 0.47368 0.0
N1457 N 0.17676 0.66507 0.47096 0.0
C1458 C 0.19762 0.6701 0.49915 0.0
C1459 C 0.22297 0.69629 0.5006 0.0
C1460 C 0.76106 0.98177 0.78601 0.0
C1461 C 0.73289 0.98063 0.80143 0.0
C1462 C 0.79055 0.9789 0.80381 0.0
C1463 C 0.79328 0.97525 0.83794 0.0
H1464 H 0.76038 0.98495 0.75988 0.0
H1465 H 0.81129 0.97904 0.79046 0.0
S1466 S 0.72684 0.97204 0.89036 0.0
N1467 N 0.70943 0.97597 0.85295 0.0
N1468 N 0.76526 0.9713 0.88666 0.0
C1469 C 0.76527 0.97412 0.85377 0.0
C1470 C 0.73501 0.97665 0.83547 0.0
C1471 C 0.75951 1.04435 0.56671 0.0
C1472 C 0.75701 1.01302 0.55477 0.0
C1473 C 0.73239 0.0606 0.56567 0.0
C1474 C 0.70017 0.04731 0.55208 0.0
H1475 H 0.78299 0.05673 0.57737 0.0
H1476 H 0.73697 0.08423 0.57586 0.0
S1477 S 0.67855 0.96578 0.51734 0.0
N1478 N 0.71788 0.96955 0.52891 0.0
N1479 N 0.6683 0.99942 0.52664 0.0
C1480 C 0.69724 1.01598 0.53997 0.0
C1481 C 0.72488 0.99927 0.54135 0.0
C1482 C 0.45332 0.45532 0.75675 0.0
C1483 C 0.43523 0.47811 0.74683 0.0
C1484 C 0.43867 0.428 0.76876 0.0
C1485 C 0.40531 0.42235 0.77149 0.0
H1486 H 0.47923 0.45883 0.75591 0.0
H1487 H 0.4539 0.41148 0.77654 0.0
S1488 S 0.3467 0.4741 0.74737 0.0
N1489 N 0.38185 0.49277 0.73926 0.0
N1490 N 0.35424 0.44136 0.76189 0.0
C1491 C 0.38663 0.44444 0.7605 0.0
C1492 C 0.4016 0.47231 0.74815 0.0
C1493 C 0.15632 0.62847 0.23574 0.0
C1494 C 0.1604 0.6019 0.21745 0.0
C1495 C 0.17962 0.65548 0.23823 0.0
C1496 C 0.20764 0.65688 0.2223 0.0
H1497 H 0.13651 0.62764 0.25049 0.0
H1498 H 0.17671 0.67456 0.25456 0.0
S1499 S 0.225 0.59619 0.16446 0.0
N1500 N 0.19134 0.58047 0.17847 0.0
N1501 N 0.23473 0.6313 0.1825 0.0
C1502 C 0.2101 0.63153 0.20115 0.0
C1503 C 0.18651 0.60408 0.19876 0.0
C1504 C 0.58939 0.71559 0.55799 0.0
C1505 C 0.59691 0.72496 0.527 0.0
C1506 C 0.60969 0.69932 0.57724 0.0
C1507 C 0.63826 0.69267 0.56613 0.0
H1508 H 0.56706 0.71957 0.56669 0.0
H1509 H 0.60178 0.69001 0.59956 0.0
S1510 S 0.6717 0.71779 0.49006 0.0
N1511 N 0.63678 0.7302 0.48836 0.0
N1512 N 0.67531 0.70056 0.5249 0.0
C1513 C 0.64742 0.70468 0.53681 0.0
C1514 C 0.62652 0.72042 0.51698 0.0
C1515 C 0.754 0.43287 0.74538 0.0
C1516 C 0.7581 0.43411 0.71171 0.0
C1517 C 0.76985 0.41373 0.76588 0.0
C1518 C 0.78958 0.39451 0.75316 0.0
H1519 H 0.73767 0.4461 0.75575 0.0
H1520 H 0.76554 0.413 0.79142 0.0
S1521 S 0.81006 0.39039 0.66731 0.0
N1522 N 0.78568 0.41594 0.66749 0.0
N1523 N 0.81381 0.37922 0.7052 0.0
C1524 C 0.79472 0.39634 0.71985 0.0
C1525 C 0.77949 0.41637 0.69937 0.0
C1526 C 1.05829 0.38027 0.90383 0.0
C1527 C 0.07471 0.36748 0.93007 0.0
C1528 C 1.05991 0.41224 0.90357 0.0
C1529 C 0.07854 0.43193 0.92916 0.0
H1530 H 1.04254 0.36551 0.88469 0.0
H1531 H 1.04505 0.42144 0.88449 0.0
S1532 S 0.13031 0.40935 1.00009 0.0
N1533 N 0.11321 0.37648 0.97971 0.0
N1534 N 0.11663 0.4366 0.97909 0.0
C1535 C 0.09746 0.41935 0.9537 0.0
C1536 C 0.09533 0.38697 0.95427 0.0
C1537 C 0.12563 0.9077 0.27479 0.0
C1538 C 0.12532 0.89887 0.24136 0.0
C1539 C 0.10048 0.89516 0.29228 0.0
C1540 C 0.07442 0.87316 0.27697 0.0
H1541 H 0.14466 0.92538 0.28715 0.0
H1542 H 0.10074 0.90378 0.3175 0.0
S1543 S 0.06532 0.8385 0.19156 0.0
N1544 N 0.09882 0.86434 0.19465 0.0
N1545 N 1.05194 0.84026 0.2278 0.0
C1546 C 0.07498 0.86269 0.24419 0.0
C1547 C 0.10036 0.87567 0.2263 0.0
C1548 C 0.61455 0.44281 0.10265 0.0
C1549 C 0.61139 0.43794 0.13662 0.0
C1550 C 0.6177 0.47299 0.08862 0.0
C1551 C 0.6181 0.50162 0.10702 0.0
H1552 H 0.61445 0.42285 0.08624 0.0
H1553 H 0.61964 0.47368 0.06255 0.0
S1554 S 0.61093 0.50388 0.1972 0.0
N1555 N 0.60923 0.46674 0.18795 0.0
N1556 N 0.61488 0.5212 0.16262 0.0
C1557 C 0.61508 0.497 0.141 0.0
C1558 C 0.61187 0.46637 0.15523 0.0
C1559 C 1.02305 0.3613 0.36763 0.0
C1560 C 1.02501 0.34145 0.39385 0.0
C1561 C 0.9931 0.36286 0.34775 0.0
C1562 C 0.96315 0.34419 0.3522 0.0
H1563 H 1.04463 0.37686 0.36328 0.0
H1564 H 0.99344 0.3793 0.32889 0.0
S1565 S 0.95458 0.2874 0.41662 0.0
N1566 N 0.99347 0.3024 0.42244 0.0
N1567 N 0.93869 0.30445 0.38522 0.0
C1568 C 0.96514 0.32362 0.37769 0.0
C1569 C 0.99537 0.32255 0.3983 0.0
C1570 C 0.10171 0.74472 0.58783 0.0
C1571 C 0.1029 0.75401 0.62202 0.0
C1572 C 0.10133 0.71347 0.57483 0.0
C1573 C 0.10308 0.68771 0.59454 0.0
H1574 H 0.10142 0.76232 0.57022 0.0
H1575 H 0.10043 0.7097 0.54842 0.0
S1576 S 0.1075 0.69685 0.68633 0.0
N1577 N 0.106 0.73234 0.67549 0.0
N1578 N 0.10617 0.67529 0.65194 0.0
C1579 C 0.10435 0.69639 0.62899 0.0
C1580 C 0.10407 0.72845 0.64227 0.0
C1581 C 0.71465 0.83374 0.85804 0.0
C1582 C 0.71623 0.84638 0.89108 0.0
C1583 C 0.74272 0.83328 0.84072 0.0
C1584 C 0.77509 0.84593 0.85451 0.0
H1585 H 0.69117 0.82376 0.84514 0.0
H1586 H 0.73878 0.82293 0.81581 0.0
S1587 S 0.79459 0.88076 0.94074 0.0
N1588 N 0.75475 0.87128 0.9367 0.0
N1589 N 0.80589 0.87025 0.90525 0.0
C1590 C 0.77699 0.85841 0.88761 0.0
C1591 C 0.74845 0.85869 0.90532 0.0
C1592 C 0.50912 0.55812 0.6207 0.0
C1593 C 0.49209 0.57896 0.6351 0.0
C1594 C 0.53912 0.56866 0.61027 0.0
C1595 C 0.55164 0.6003 0.61197 0.0
H1596 H 0.50223 0.53357 0.62303 0.0
H1597 H 0.55336 0.55191 0.60272 0.0
S1598 S 0.50902 0.66395 0.63314 0.0
N1599 N 0.48472 0.63234 0.64091 0.0
N1600 N 0.54038 0.65234 0.61879 0.0
C1601 C 0.53158 0.62132 0.61938 0.0
C1602 C 0.5014 0.61049 0.63091 0.0
C1603 C 0.82839 0.31676 0.95257 0.0
C1604 C 0.82135 0.28475 0.95589 0.0
C1605 C 0.82717 0.32909 0.92136 0.0
C1606 C 0.8182 0.31008 0.892 0.0
H1607 H 0.83644 0.33239 0.97418 0.0
H1608 H 0.8344 0.35375 0.92023 0.0
S1609 S 0.79454 0.22483 0.88717 0.0
N1610 N 0.80305 0.23441 0.92701 0.0
N1611 N 0.80026 0.2575 0.86871 0.0
C1612 C 0.80933 0.27816 0.89509 0.0
C1613 C 0.81107 0.26556 0.92686 0.0
C1614 C 0.08298 0.50472 0.1802 0.0
C1615 C 0.11168 0.49248 0.18793 0.0
C1616 C 0.08007 0.52453 0.15459 0.0
C1617 C 0.10559 0.53232 0.13586 0.0
H1618 H 1.06358 0.50093 0.19551 0.0
H1619 H 1.05887 0.53547 0.15104 0.0
S1620 S 0.1814 0.49982 0.13943 0.0
N1621 N 0.16281 0.48448 0.16964 0.0
N1622 N 0.15735 0.52199 0.12195 0.0
C1623 C 0.1325 0.51738 0.14056 0.0
C1624 C 0.13543 0.49714 0.16634 0.0
C1625 C 0.86473 0.94077 0.4449 0.0
C1626 C 0.84493 0.92792 0.46845 0.0
C1627 C 0.86835 0.92407 0.41486 0.0
C1628 C 0.85141 0.89368 0.4053 0.0
H1629 H 0.87826 0.96392 0.45003 0.0
H1630 H 0.88443 0.93542 0.39864 0.0
S1631 S 0.79581 0.8489 0.45706 0.0
N1632 N 0.80842 0.88187 0.47918 0.0
N1633 N 0.81361 0.85194 0.42318 0.0
C1634 C 0.83113 0.88084 0.42837 0.0
C1635 C 0.82837 0.89738 0.45947 0.0
C1636 C 0.47156 0.56301 0.82728 0.0
C1637 C 0.48566 0.57873 0.80198 0.0
C1638 C 0.4909 0.55612 0.85521 0.0
C1639 C 0.52478 0.5645 0.85831 0.0
H1640 H 0.44566 0.55507 0.82499 0.0
H1641 H 0.47943 0.54359 0.87411 0.0
S1642 S 0.573 0.60914 0.80094 0.0
N1643 N 0.53524 0.6049 0.78336 0.0
N1644 N 0.57133 0.59155 0.83558 0.0
C1645 C 0.53895 0.58122 0.83386 0.0
C1646 C 0.51942 0.58847 0.80575 0.0
C1647 C 0.85334 0.28279 0.16036 0.0
C1648 C 0.85449 0.30456 0.13616 0.0
C1649 C 0.86101 0.292 0.19425 0.0
C1650 C 0.87135 0.32325 0.20544 0.0
H1651 H 0.84492 0.25858 0.1532 0.0
H1652 H 0.85808 0.27449 0.21186 0.0
S1653 S 0.88021 0.38918 0.15188 0.0
N1654 N 0.86754 0.35875 0.12583 0.0
N1655 N 0.8832 0.3758 0.18891 0.0
C1656 C 0.87394 0.34504 0.1813 0.0
C1657 C 0.86521 0.33578 0.14693 0.0
C1658 C 0.14429 0.60414 0.31807 0.0
C1659 C 0.12966 0.57296 0.31309 0.0
C1660 C 0.12931 0.62562 0.33409 0.0
C1661 C 0.0994 0.61649 0.34595 0.0
H1662 H 0.16766 0.61194 0.30995 0.0
H1663 H 0.14192 0.64919 0.33868 0.0
S1664 S 1.05159 0.53699 0.33907 0.0
N1665 N 0.08363 0.53398 0.32041 0.0
N1666 N 1.05586 0.57372 0.3514 0.0
C1667 C 0.08417 0.58537 0.34007 0.0
C1668 C 0.09927 0.56374 0.32353 0.0
C1669 C 0.86603 0.93467 0.68162 0.0
C1670 C 0.84436 0.92258 0.653 0.0
C1671 C 0.86722 0.91981 0.71244 0.0
C1672 C 0.8473 0.89121 0.71722 0.0
H1673 H 0.88344 0.95534 0.67986 0.0
H1674 H 0.88498 0.93054 0.73255 0.0
S1675 S 0.78653 0.84856 0.65055 0.0
N1676 N 0.80267 0.87919 0.63256 0.0
N1677 N 0.80464 0.85202 0.68877 0.0
C1678 C 0.82531 0.87913 0.68885 0.0
C1679 C 0.82408 0.89432 0.65762 0.0
C1680 C 0.82581 0.48898 0.63337 0.0
C1681 C 0.81497 0.47251 0.60276 0.0
C1682 C 0.8069 0.50797 0.64768 0.0
C1683 C 0.77675 0.51154 0.63156 0.0
H1684 H 0.84968 0.48806 0.64578 0.0
H1685 H 0.81669 0.52128 0.67053 0.0
S1686 S 0.73625 0.4718 0.55247 0.0
N1687 N 0.7711 0.45921 0.55816 0.0
N1688 N 0.73579 0.49566 0.58463 0.0
C1689 C 0.76489 0.49407 0.60182 0.0
C1690 C 0.78391 0.47425 0.58755 0.0
C1691 C 0.26697 0.17088 0.58142 0.0
C1692 C 0.28148 0.17325 0.55181 0.0
C1693 C 0.23621 0.15201 0.58352 0.0
C1694 C 0.21755 0.13406 0.55612 0.0
H1695 H 0.27907 0.18468 0.60321 0.0
H1696 H 0.22664 0.15208 0.60694 0.0
S1697 S 0.24275 0.13332 0.47182 0.0
N1698 N 0.27312 0.15658 0.49389 0.0
N1699 N 0.21666 0.1214 0.49763 0.0
C1700 C 0.23193 0.13614 0.52636 0.0
C1701 C 0.26316 0.15555 0.52424 0.0
C1702 C 0.37529 0.08053 0.8769 0.0
C1703 C 0.34368 0.08618 0.8695 0.0
C1704 C 0.38769 0.06079 0.85587 0.0
C1705 C 0.36881 0.04671 0.8269 0.0
H1706 H 0.38983 0.09027 0.8996 0.0
H1707 H 0.41133 0.05506 0.86334 0.0
S1708 S 0.28636 0.05864 0.79481 0.0
N1709 N 0.29494 0.07911 0.8304 0.0
N1710 N 0.31864 1.04301 0.79009 0.0
C1711 C 0.3381 0.05434 0.81822 0.0
C1712 C 0.32537 0.07383 0.83985 0.0
C1713 C 0.47437 1.00859 0.05797 0.0
C1714 C 0.47978 0.97831 0.06305 0.0
C1715 C 0.49983 1.0338 0.06172 0.0
C1716 C 0.53198 1.03012 0.0712 0.0
H1717 H 0.45014 1.01292 0.05054 0.0
H1718 H 0.49422 0.05637 0.05665 0.0
S1719 S 0.55922 0.95585 0.08914 0.0
N1720 N 0.5197 0.9462 0.07905 0.0
N1721 N 0.56771 0.99355 0.08646 0.0
C1722 C 0.53775 1.00003 0.07713 0.0
C1723 C 0.5117 0.97418 0.07285 0.0
C1724 C 0.97259 0.6539 0.78265 0.0
C1725 C 1.00357 0.67243 0.78846 0.0
C1726 C 0.94569 0.66564 0.7686 0.0
C1727 C 0.94888 0.69625 0.75967 0.0
H1728 H 0.96849 0.63086 0.79128 0.0
H1729 H 0.92192 0.65159 0.76754 0.0
S1730 S 1.02551 0.75182 0.76194 0.0
N1731 N 1.03658 0.72114 0.77859 0.0
N1732 N 0.98594 0.743 0.75172 0.0
C1733 C 0.98019 0.71374 0.76155 0.0
C1734 C 1.0076 0.7019 0.77609 0.0
C1735 C 1.0058 0.69361 0.07453 0.0
C1736 C 0.97339 0.67764 0.06585 0.0
C1737 C 1.03383 0.67835 0.07763 0.0
C1738 C 1.03197 0.64591 0.07141 0.0
H1739 H 1.00971 0.71839 0.07926 0.0
H1740 H 1.05745 0.69245 0.08426 0.0
S1741 S 0.95363 0.59249 0.04734 0.0
N1742 N 0.94234 0.62646 0.05141 0.0
N1743 N 0.99345 0.59884 0.05574 0.0
C1744 C 0.99974 0.62986 0.06245 0.0
C1745 C 0.97128 0.64522 0.06013 0.0
C1746 C 0.31689 0.24576 0.92014 0.0
C1747 C 0.28798 0.22716 0.90588 0.0
C1748 C 0.3334 0.26851 0.90245 0.0
C1749 C 0.32212 0.27261 0.86949 0.0
H1750 H 0.32759 0.24167 0.94451 0.0
H1751 H 0.35576 0.28218 0.91437 0.0
S1752 S 0.2476 0.22849 0.82098 0.0
N1753 N 0.24825 0.2143 0.8576 0.0
N1754 N 0.28 0.2556 0.82343 0.0
C1755 C 0.29284 0.25425 0.8552 0.0
C1756 C 0.27554 0.23193 0.87368 0.0
C1757 C 0.52422 0.07807 0.42 0.0
C1758 C 0.55521 0.08111 0.4099 0.0
C1759 C 0.50308 0.0497 0.41574 0.0
C1760 C 0.51202 1.02363 0.40057 0.0
H1761 H 0.51563 0.09817 0.4295 0.0
H1762 H 0.47908 0.04851 0.42309 0.0
S1763 S 0.59092 1.02002 0.36998 0.0
N1764 N 0.59441 0.05585 0.38533 0.0
N1765 N 0.55449 1.00276 0.37615 0.0
C1766 C 0.54362 1.02615 0.39178 0.0
C1767 C 0.56528 0.05488 0.39674 0.0
C1768 C 0.6162 0.49444 0.64274 0.0
C1769 C 0.63072 0.47051 0.63058 0.0
C1770 C 0.6089 0.51786 0.62273 0.0
C1771 C 0.61581 0.51804 0.58998 0.0
H1772 H 0.61251 0.49633 0.66843 0.0
H1773 H 0.60106 0.53756 0.63405 0.0
S1774 S 0.64768 0.45782 0.54445 0.0
N1775 N 0.6468 0.44587 0.58202 0.0
N1776 N 0.63381 0.49071 0.54498 0.0
C1777 C 0.62722 0.49282 0.57662 0.0
C1778 C 0.63453 0.4688 0.59682 0.0
C1779 C 0.4398 0.77923 0.41876 0.0
C1780 C 0.46843 0.77009 0.41084 0.0
C1781 C 0.41783 0.78814 0.39444 0.0
C1782 C 0.42376 0.78863 0.36126 0.0
H1783 H 0.43523 0.78128 0.4442 0.0
H1784 H 0.39699 0.79663 0.4021 0.0
S1785 S 0.49298 0.76298 0.32692 0.0
N1786 N 0.49978 0.75863 0.36681 0.0
N1787 N 0.45838 0.77602 0.32117 0.0
C1788 C 0.4507 0.77693 0.35246 0.0
C1789 C 0.47312 0.76754 0.37729 0.0
C1790 C 0.22409 0.8392 0.13531 0.0
C1791 C 0.21938 0.85586 0.16393 0.0
C1792 C 0.22203 0.80719 0.13458 0.0
C1793 C 0.21496 0.79098 0.16232 0.0
H1794 H 0.2278 0.85065 0.11286 0.0
H1795 H 0.22419 0.79487 0.11167 0.0
S1796 S 0.2062 0.82388 0.24477 0.0
N1797 N 0.21231 0.85393 0.22224 0.0
N1798 N 0.20662 0.79354 0.21985 0.0
C1799 C 0.21229 0.80736 0.19159 0.0
C1800 C 0.21508 0.83993 0.19267 0.0
C1801 C 0.16562 0.27627 0.92138 0.0
C1802 C 0.13522 0.2595 0.90839 0.0
C1803 C 0.18901 0.28587 0.90094 0.0
C1804 C 0.18356 0.27791 0.86684 0.0
H1805 H 0.17013 0.28516 0.94688 0.0
H1806 H 0.21029 0.30181 0.91183 0.0
S1807 S 0.11275 0.22432 0.82324 0.0
N1808 N 0.10372 0.22894 0.86113 0.0
N1809 N 0.14908 0.24504 0.82288 0.0
C1810 C 0.15542 0.25681 0.85461 0.0
C1811 C 0.13103 0.24774 0.87543 0.0
C1812 C 0.6227 0.72692 0.97003 0.0
C1813 C 0.62002 0.75373 0.99015 0.0
C1814 C 0.62041 0.69567 0.98184 0.0
C1815 C 0.61506 0.68803 1.01485 0.0
H1816 H 0.62596 0.7298 0.94447 0.0
H1817 H 0.62269 0.67715 0.96448 0.0
S1818 S 0.60824 0.74863 0.07922 0.0
N1819 N 0.61312 0.76846 0.04645 0.0
N1820 N 0.6087 0.71252 0.06725 0.0
C1821 C 0.61296 0.71473 0.03501 0.0
C1822 C 0.61538 0.74617 1.02323 0.0
C1823 C 0.21225 0.83857 0.74003 0.0
C1824 C 0.20818 0.86182 0.71776 0.0
C1825 C 0.24233 0.83801 0.76032 0.0
C1826 C 0.27042 0.86103 0.76045 0.0
H1827 H 0.19236 0.81975 0.74087 0.0
H1828 H 0.24362 0.81888 0.77581 0.0
S1829 S 0.27298 0.92808 0.70792 0.0
N1830 N 0.23581 0.90888 0.698 0.0
N1831 N 0.29052 0.9086 0.73615 0.0
C1832 C 0.26619 0.8849 0.73903 0.0
C1833 C 0.23591 0.88504 0.71788 0.0
C1834 C 0.12608 0.44325 0.5065 0.0
C1835 C 0.12458 0.43455 0.47219 0.0
C1836 C 0.1239 0.4741 0.51952 0.0
C1837 C 0.11943 0.49944 0.49965 0.0
H1838 H 0.12937 0.42596 0.52395 0.0
H1839 H 0.12554 0.47799 0.54598 0.0
S1840 S 0.11259 0.4906 0.40787 0.0
N1841 N 0.11776 0.45592 0.41875 0.0
N1842 N 0.11294 0.5116 0.44237 0.0
C1843 C 0.11739 0.4909 0.46529 0.0
C1844 C 0.12013 0.45965 0.45206 0.0
C1845 C 0.48425 0.33234 0.21094 0.0
C1846 C 0.5169 0.34205 0.22552 0.0
C1847 C 0.45666 0.33022 0.22931 0.0
C1848 C 0.45899 0.33859 0.26376 0.0
H1849 H 0.47978 0.32585 0.18482 0.0
H1850 H 0.43287 0.32236 0.21592 0.0
S1851 S 0.53825 0.36613 0.31494 0.0
N1852 N 0.54887 0.35984 0.27797 0.0
N1853 N 0.49834 0.35738 0.31109 0.0
C1854 C 0.49145 0.34866 0.27852 0.0
C1855 C 0.51961 0.34994 0.26004 0.0
C1856 C 0.7337 0.5748 0.4763 0.0
C1857 C 0.76056 0.59876 0.48026 0.0
C1858 C 0.71095 0.57255 0.4987 0.0
C1859 C 0.71487 0.59389 0.5259 0.0
H1860 H 0.72798 0.56035 0.45359 0.0
H1861 H 0.68902 0.5556 0.49327 0.0
S1862 S 0.7852 0.65641 0.55062 0.0
N1863 N 0.79281 0.64076 0.51561 0.0
N1864 N 0.75067 0.63627 0.55863 0.0
C1865 C 0.74409 0.61509 0.53255 0.0
C1866 C 0.76702 0.61746 0.50948 0.0
C1867 C 0.4018 0.86394 0.16412 0.0
C1868 C 0.39465 0.89296 0.15536 0.0
C1869 C 0.40095 0.85428 0.1964 0.0
C1870 C 0.39339 0.87323 0.22203 0.0
H1871 H 0.40757 0.84804 0.14568 0.0
H1872 H 0.40583 0.83141 0.20115 0.0
S1873 S 0.37342 0.95176 0.21318 0.0
N1874 N 0.38009 0.94082 0.17585 0.0
N1875 N 0.37905 0.92294 0.23634 0.0
C1876 C 0.38697 0.90265 0.21399 0.0
C1877 C 0.38739 0.91238 0.18086 0.0
C1878 C 0.06865 0.65849 0.95281 0.0
C1879 C 0.08948 0.67709 0.93447 0.0
C1880 C 0.08094 0.64562 0.98109 0.0
C1881 C 0.1142 0.65155 0.99225 0.0
H1882 H 1.0433 0.65122 0.94359 0.0
H1883 H 0.06451 0.62983 0.99342 0.0
S1884 S 0.17763 0.70366 0.95715 0.0
N1885 N 0.14416 0.70431 0.93217 0.0
N1886 N 0.16696 0.68063 0.98624 0.0
C1887 C 0.1347 0.67265 0.97639 0.0
C1888 C 0.12232 0.68549 0.94732 0.0
C1889 C 0.35313 0.28647 0.66112 0.0
C1890 C 0.37681 0.2687 0.65275 0.0
C1891 C 0.35237 0.30003 0.69323 0.0
C1892 C 0.37516 0.29721 0.72055 0.0
H1893 H 0.33431 0.29034 0.64231 0.0
H1894 H 0.33327 0.31311 0.6965 0.0
S1895 S 0.44307 0.25335 0.71463 0.0
N1896 N 0.42427 0.24929 0.6766 0.0
N1897 N 0.42288 0.27432 0.73641 0.0
C1898 C 0.39904 0.27923 0.71314 0.0
C1899 C 0.39984 0.26524 0.67989 0.0
C1900 C 0.66636 0.65411 0.34294 0.0
C1901 C 0.70013 0.66368 0.34436 0.0
C1902 C 0.64602 0.65274 0.31332 0.0
C1903 C 0.65869 0.66176 0.28448 0.0
H1904 H 0.65565 0.64617 0.3645 0.0
H1905 H 0.62043 0.64385 0.31275 0.0
S1906 S 0.74443 0.6913 0.27525 0.0
N1907 N 0.74483 0.68386 0.31443 0.0
N1908 N 0.7062 0.68239 0.25895 0.0
C1909 C 0.69196 0.67299 0.28577 0.0
C1910 C 0.71282 0.67367 0.31569 0.0
C1911 C 0.36098 0.88077 0.96712 0.0
C1912 C 0.36604 0.91282 0.97556 0.0
C1913 C 0.35704 0.8687 0.93389 0.0
C1914 C 0.35836 0.88802 0.90723 0.0
H1915 H 0.36005 0.86472 0.98638 0.0
H1916 H 0.3538 0.84394 0.92918 0.0
S1917 S 0.37054 0.97373 0.91535 0.0
N1918 N 0.37148 0.96358 0.95372 0.0
N1919 N 0.36467 0.94122 0.89214 0.0
C1920 C 0.36319 0.92011 0.91535 0.0
C1921 C 0.36684 0.93236 0.9491 0.0
C1922 C 0.1032 0.57046 0.78822 0.0
C1923 C 0.1226 0.59937 0.79695 0.0
C1924 C 0.11171 0.55008 0.76488 0.0
C1925 C 0.13956 0.55828 0.74913 0.0
H1926 H 0.08144 0.5635 0.79965 0.0
H1927 H 0.09574 0.52826 0.75821 0.0
S1928 S 0.19814 0.63217 0.76438 0.0
N1929 N 0.17103 0.63509 0.78982 0.0
N1930 N 0.18648 0.59804 0.74449 0.0
C1931 C 0.15949 0.58717 0.75852 0.0
C1932 C 0.15106 0.60747 0.78274 0.0
C1933 C 0.38704 0.28918 0.46556 0.0
C1934 C 0.38229 0.25646 0.46688 0.0
C1935 C 0.38684 0.3047 0.43522 0.0
C1936 C 0.38122 0.28888 0.40342 0.0
H1937 H 0.39128 0.30327 0.48848 0.0
H1938 H 0.3906 0.32965 0.43684 0.0
S1939 S 0.36709 0.20303 0.39147 0.0
N1940 N 0.37208 0.20911 0.43196 0.0
N1941 N 0.37063 0.23742 0.37639 0.0
C1942 C 0.37622 0.25615 0.4044 0.0
C1943 C 0.37706 0.24038 0.43531 0.0
C1944 C 0.41557 0.67819 0.54049 0.0
C1945 C 0.42102 0.71047 0.54672 0.0
C1946 C 0.44029 0.66272 0.53207 0.0
C1947 C 0.4715 0.67887 0.5296 0.0
H1948 H 0.39167 0.66479 0.54082 0.0
H1949 H 0.43462 0.63803 0.52645 0.0
S1950 S 0.49952 0.76278 0.54888 0.0
N1951 N 0.46067 0.75755 0.55323 0.0
N1952 N 0.50729 0.72848 0.53797 0.0
C1953 C 0.47764 0.7109 0.53746 0.0
C1954 C 0.45241 0.72668 0.54591 0.0
C1955 C 0.9579 1.03528 0.57498 0.0
C1956 C 0.94563 1.01035 0.55128 0.0
C1957 C 0.98922 0.05422 0.5749 0.0
C1958 C 1.01032 0.04983 0.55091 0.0
H1959 H 0.94377 1.03952 0.59464 0.0
H1960 H 0.99722 0.07216 0.59441 0.0
S1961 S 0.98921 0.98921 0.48179 0.0
N1962 N 0.95738 0.98382 0.50212 0.0
N1963 N 1.01447 1.01845 0.50182 0.0
C1964 C 0.99764 1.02556 0.5266 0.0
C1965 C 0.96612 1.00629 0.52685 0.0
C1966 C 0.92863 0.15619 0.22733 0.0
C1967 C 0.91067 0.12824 0.21277 0.0
C1968 C 0.9133 0.17928 0.23928 0.0
C1969 C 0.87932 0.17562 0.23661 0.0
H1970 H 0.95479 0.15932 0.23207 0.0
H1971 H 0.9284 0.19918 0.25279 0.0
S1972 S 0.8213 0.10984 0.19332 0.0
N1973 N 0.8572 0.10005 0.19143 0.0
N1974 N 0.82823 0.1443 0.21296 0.0
C1975 C 0.86106 0.14925 0.2188 0.0
C1976 C 0.87679 0.12544 0.20683 0.0
C1977 C 0.70959 0.21046 1.01768 0.0
C1978 C 0.74163 0.20894 1.03066 0.0
C1979 C 0.68495 0.18436 1.01522 0.0
C1980 C 0.69129 0.1557 1.0258 0.0
H1981 H 0.70331 0.23207 1.0098 0.0
H1982 H 0.66047 0.18711 1.00641 0.0
S1983 S 0.77133 0.13832 0.05911 0.0
N1984 N 0.77844 0.1753 0.05234 0.0
N1985 N 0.73229 0.12684 0.04766 0.0
C1986 C 0.72336 0.15352 0.03758 0.0
C1987 C 0.74842 0.17993 0.04005 0.0
C1988 C 0.26998 0.51467 0.2965 0.0
C1989 C 0.24101 0.49436 0.29876 0.0
C1990 C 0.29946 0.5095 0.31249 0.0
C1991 C 0.30115 0.48357 0.33094 0.0
H1992 H 0.26988 0.53497 0.28253 0.0
H1993 H 0.32118 0.52575 0.31001 0.0
S1994 S 0.23209 0.42262 0.34312 0.0
N1995 N 0.21551 0.4474 0.32064 0.0
N1996 N 0.27121 0.43665 0.34954 0.0
C1997 C 0.27223 0.46303 0.33341 0.0
C1998 C 0.24208 0.46866 0.31756 0.0
C1999 C 0.22699 0.49949 0.05092 0.0
C2000 C 0.2596 0.51394 0.06193 0.0
C2001 C 0.19943 0.51545 0.05014 0.0
C2002 C 0.20193 0.54734 0.06028 0.0
H2003 H 0.22252 0.47534 0.04259 0.0
H2004 H 0.1757 0.50235 0.04152 0.0
S2005 S 0.28113 0.59694 0.09166 0.0
N2006 N 0.29146 0.56314 0.08347 0.0
N2007 N 0.24151 0.59215 0.08203 0.0
C2008 C 0.2344 0.56189 0.07138 0.0
C2009 C 0.26231 0.54572 0.07216 0.0
C2010 C 0.88458 0.96073 0.23627 0.0
C2011 C 0.91186 0.95924 0.21987 0.0
C2012 C 0.86993 0.93494 0.25117 0.0
C2013 C 0.88222 0.90727 0.24962 0.0
H2014 H 0.87738 0.98275 0.24153 0.0
H2015 H 0.85143 0.93771 0.26681 0.0
S2016 S 0.94615 0.88956 0.20039 0.0
N2017 N 0.94554 0.92661 0.19641 0.0
N2018 N 0.91742 0.87773 0.22342 0.0
C2019 C 0.90581 0.90432 0.22861 0.0
C2020 C 0.92076 0.93051 0.21376 0.0
C2021 C 0.64822 0.11439 0.73647 0.0
C2022 C 0.65516 0.0896 0.71737 0.0
C2023 C 0.66995 0.14233 0.74174 0.0
C2024 C 0.69911 0.14673 0.72754 0.0
H2025 H 0.62712 0.11149 0.74953 0.0
H2026 H 0.66456 0.15999 0.75846 0.0
S2027 S 0.72412 0.09133 0.66863 0.0
N2028 N 0.69031 0.07267 0.67996 0.0
N2029 N 0.73061 0.12559 0.68861 0.0
C2030 C 0.70466 0.12305 0.70577 0.0
C2031 C 0.68273 0.09446 0.70083 0.0
loop_
_geom_bond_atom_site_label_1
_geom_bond_atom_site_label_2
_geom_bond_distance
_geom_bond_site_symmetry_2
_ccdc_geom_bond_type
Co0 O1 2.216 . S
Co0 O2 2.091 . S
Co0 O4 2.004 . S
Co0 O10 2.021 . S
Co0 O12 2.137 . S
Co0 O13 2.244 . S
O1 Co0 2.216 . S
O1 C8 1.247 . S
O2 Co0 2.091 . S
O2 C8 1.261 . S
C3 O12 1.247 . S
C3 O13 1.272 . S
O4 Co0 2.004 . S
O4 C9 1.259 1_455 S
Co5 O6 2.061 1_455 S
Co5 O11 2.052 . S
Co5 O13 2.135 . S
O6 Co5 2.061 1_655 S
O6 C9 1.235 . S
C7 O10 1.238 . S
C7 O11 1.241 . S
C8 O1 1.247 . S
C8 O2 1.261 . S
C9 O4 1.259 1_655 S
C9 O6 1.235 . S
O10 Co0 2.021 . S
O10 C7 1.238 . S
O11 Co5 2.052 . S
O11 C7 1.241 . S
O12 Co0 2.137 . S
O12 C3 1.247 . S
O13 Co0 2.244 . S
O13 C3 1.272 . S
O13 Co5 2.135 . S
Co14 O15 2.216 1_455 S
Co14 O16 2.091 . S
Co14 O18 2.004 . S
Co14 O24 2.021 . S
Co14 O26 2.137 . S
Co14 O27 2.244 . S
O15 Co14 2.216 1_655 S
O15 C22 1.247 . S
O16 Co14 2.091 . S
O16 C22 1.261 1_455 S
C17 O26 1.247 . S
C17 O27 1.272 . S
O18 Co14 2.004 . S
O18 C23 1.259 . S
Co19 O20 2.061 . S
Co19 O25 2.052 . S
Co19 O27 2.135 . S
O20 Co19 2.061 . S
O20 C23 1.235 . S
C21 O24 1.238 . S
C21 O25 1.241 . S
C22 O15 1.247 . S
C22 O16 1.261 1_655 S
C23 O18 1.259 . S
C23 O20 1.235 . S
O24 Co14 2.021 . S
O24 C21 1.238 . S
O25 Co19 2.052 . S
O25 C21 1.241 . S
O26 Co14 2.137 . S
O26 C17 1.247 . S
O27 Co14 2.244 . S
O27 C17 1.272 . S
O27 Co19 2.135 . S
Co28 O29 2.216 . S
Co28 O30 2.091 . S
Co28 O32 2.004 . S
Co28 O38 2.021 . S
Co28 O40 2.137 . S
Co28 O41 2.244 . S
O29 Co28 2.216 . S
O29 C36 1.247 . S
O30 Co28 2.091 . S
O30 C36 1.261 . S
C31 O40 1.247 . S
C31 O41 1.272 . S
O32 Co28 2.004 . S
O32 C37 1.259 . S
Co33 O34 2.061 . S
Co33 O39 2.052 . S
Co33 O41 2.135 . S
O34 Co33 2.061 . S
O34 C37 1.235 . S
C35 O38 1.238 . S
C35 O39 1.241 . S
C36 O29 1.247 . S
C36 O30 1.261 . S
C37 O32 1.259 . S
C37 O34 1.235 . S
O38 Co28 2.021 . S
O38 C35 1.238 . S
O39 Co33 2.052 . S
O39 C35 1.241 . S
O40 Co28 2.137 . S
O40 C31 1.247 . S
O41 Co28 2.244 . S
O41 C31 1.272 . S
O41 Co33 2.135 . S
Co42 O43 2.216 . S
Co42 O44 2.091 . S
Co42 O46 2.004 . S
Co42 O52 2.021 . S
Co42 O54 2.137 . S
Co42 O55 2.244 . S
O43 Co42 2.216 . S
O43 C50 1.247 . S
O44 Co42 2.091 . S
O44 C50 1.261 . S
C45 O54 1.247 . S
C45 O55 1.272 . S
O46 Co42 2.004 . S
O46 C51 1.259 . S
Co47 O48 2.061 . S
Co47 O53 2.052 . S
Co47 O55 2.135 . S
O48 Co47 2.061 . S
O48 C51 1.235 . S
C49 O52 1.238 . S
C49 O53 1.241 . S
C50 O43 1.247 . S
C50 O44 1.261 . S
C51 O46 1.259 . S
C51 O48 1.235 . S
O52 Co42 2.021 . S
O52 C49 1.238 . S
O53 Co47 2.052 . S
O53 C49 1.241 . S
O54 Co42 2.137 . S
O54 C45 1.247 . S
O55 Co42 2.244 . S
O55 C45 1.272 . S
O55 Co47 2.135 . S
Co56 O57 2.216 . S
Co56 O58 2.091 . S
Co56 O60 2.004 . S
Co56 O66 2.021 . S
Co56 O68 2.137 . S
Co56 O69 2.244 . S
O57 Co56 2.216 . S
O57 C64 1.247 . S
O58 Co56 2.091 . S
O58 C64 1.261 . S
C59 O68 1.247 . S
C59 O69 1.272 . S
O60 Co56 2.004 . S
O60 C65 1.259 . S
Co61 O62 2.061 . S
Co61 O67 2.052 . S
Co61 O69 2.135 . S
O62 Co61 2.061 . S
O62 C65 1.235 . S
C63 O66 1.238 . S
C63 O67 1.241 . S
C64 O57 1.247 . S
C64 O58 1.261 . S
C65 O60 1.259 . S
C65 O62 1.235 . S
O66 Co56 2.021 . S
O66 C63 1.238 . S
O67 Co61 2.052 . S
O67 C63 1.241 . S
O68 Co56 2.137 . S
O68 C59 1.247 . S
O69 Co56 2.244 . S
O69 C59 1.272 . S
O69 Co61 2.135 . S
Co70 O71 2.216 . S
Co70 O72 2.091 . S
Co70 O74 2.004 . S
Co70 O80 2.021 . S
Co70 O82 2.137 . S
Co70 O83 2.244 . S
O71 Co70 2.216 . S
O71 C78 1.247 . S
O72 Co70 2.091 . S
O72 C78 1.261 . S
C73 O82 1.247 . S
C73 O83 1.272 . S
O74 Co70 2.004 . S
O74 C79 1.259 . S
Co75 O76 2.061 . S
Co75 O81 2.052 . S
Co75 O83 2.135 . S
O76 Co75 2.061 . S
O76 C79 1.235 . S
C77 O80 1.238 . S
C77 O81 1.241 . S
C78 O71 1.247 . S
C78 O72 1.261 . S
C79 O74 1.259 . S
C79 O76 1.235 . S
O80 Co70 2.021 . S
O80 C77 1.238 . S
O81 Co75 2.052 . S
O81 C77 1.241 . S
O82 Co70 2.137 . S
O82 C73 1.247 . S
O83 Co70 2.244 . S
O83 C73 1.272 . S
O83 Co75 2.135 . S
Co84 O85 2.216 . S
Co84 O86 2.091 . S
Co84 O88 2.004 . S
Co84 O94 2.021 . S
Co84 O96 2.137 . S
Co84 O97 2.244 . S
O85 Co84 2.216 . S
O85 C92 1.247 . S
O86 Co84 2.091 . S
O86 C92 1.261 . S
C87 O96 1.247 . S
C87 O97 1.272 . S
O88 Co84 2.004 . S
O88 C93 1.259 . S
Co89 O90 2.061 . S
Co89 O95 2.052 . S
Co89 O97 2.135 . S
O90 Co89 2.061 . S
O90 C93 1.235 . S
C91 O94 1.238 . S
C91 O95 1.241 . S
C92 O85 1.247 . S
C92 O86 1.261 . S
C93 O88 1.259 . S
C93 O90 1.235 . S
O94 Co84 2.021 . S
O94 C91 1.238 . S
O95 Co89 2.052 . S
O95 C91 1.241 . S
O96 Co84 2.137 . S
O96 C87 1.247 . S
O97 Co84 2.244 . S
O97 C87 1.272 . S
O97 Co89 2.135 . S
Co98 O99 2.216 . S
Co98 O100 2.091 . S
Co98 O102 2.004 1_455 S
Co98 O108 2.022 1_455 S
Co98 O110 2.137 . S
Co98 O111 2.244 1_455 S
O99 Co98 2.216 . S
O99 C106 1.247 . S
O100 Co98 2.091 . S
O100 C106 1.261 . S
C101 O110 1.247 . S
C101 O111 1.272 1_455 S
O102 Co98 2.004 1_655 S
O102 C107 1.259 . S
Co103 O104 2.061 . S
Co103 O109 2.052 . S
Co103 O111 2.135 . S
O104 Co103 2.061 . S
O104 C107 1.235 . S
C105 O108 1.245 . S
C105 O109 1.241 . S
C106 O99 1.247 . S
C106 O100 1.261 . S
C107 O102 1.259 . S
C107 O104 1.235 . S
O108 Co98 2.022 1_655 S
O108 C105 1.245 . S
O109 Co103 2.052 . S
O109 C105 1.241 . S
O110 Co98 2.137 . S
O110 C101 1.247 . S
O111 Co98 2.244 1_655 S
O111 C101 1.272 1_655 S
O111 Co103 2.135 . S
Co112 O113 2.216 . S
Co112 O114 2.091 . S
Co112 O116 2.004 . S
Co112 O122 2.021 . S
Co112 O124 2.137 . S
Co112 O125 2.244 . S
O113 Co112 2.216 . S
O113 C120 1.247 . S
O114 Co112 2.091 . S
O114 C120 1.261 . S
C115 O124 1.247 . S
C115 O125 1.272 . S
O116 Co112 2.004 . S
O116 C121 1.259 . S
Co117 O118 2.061 . S
Co117 O123 2.052 . S
Co117 O125 2.135 . S
O118 Co117 2.061 . S
O118 C121 1.235 . S
C119 O122 1.238 . S
C119 O123 1.241 . S
C120 O113 1.247 . S
C120 O114 1.261 . S
C121 O116 1.259 . S
C121 O118 1.235 . S
O122 Co112 2.021 . S
O122 C119 1.238 . S
O123 Co117 2.052 . S
O123 C119 1.241 . S
O124 Co112 2.137 . S
O124 C115 1.247 . S
O125 Co112 2.244 . S
O125 C115 1.272 . S
O125 Co117 2.135 . S
Co126 O127 2.216 . S
Co126 O128 2.091 . S
Co126 O130 2.004 . S
Co126 O136 2.021 . S
Co126 O138 2.137 . S
Co126 O139 2.244 . S
O127 Co126 2.216 . S
O127 C134 1.247 . S
O128 Co126 2.091 . S
O128 C134 1.261 . S
C129 O138 1.247 . S
C129 O139 1.272 . S
O130 Co126 2.004 . S
O130 C135 1.259 . S
Co131 O132 2.061 . S
Co131 O137 2.052 . S
Co131 O139 2.135 . S
O132 Co131 2.061 . S
O132 C135 1.235 . S
C133 O136 1.238 . S
C133 O137 1.241 . S
C134 O127 1.247 . S
C134 O128 1.261 . S
C135 O130 1.259 . S
C135 O132 1.235 . S
O136 Co126 2.021 . S
O136 C133 1.238 . S
O137 Co131 2.052 . S
O137 C133 1.241 . S
O138 Co126 2.137 . S
O138 C129 1.247 . S
O139 Co126 2.244 . S
O139 C129 1.272 . S
O139 Co131 2.135 . S
Co140 O141 2.216 . S
Co140 O142 2.091 . S
Co140 O144 2.004 . S
Co140 O150 2.021 . S
Co140 O152 2.137 . S
Co140 O153 2.244 . S
O141 Co140 2.216 . S
O141 C148 1.247 . S
O142 Co140 2.091 . S
O142 C148 1.261 . S
C143 O152 1.247 . S
C143 O153 1.272 . S
O144 Co140 2.004 . S
O144 C149 1.259 . S
Co145 O146 2.061 . S
Co145 O151 2.052 . S
Co145 O153 2.135 . S
O146 Co145 2.061 . S
O146 C149 1.235 . S
C147 O150 1.238 . S
C147 O151 1.241 . S
C148 O141 1.247 . S
C148 O142 1.261 . S
C149 O144 1.259 . S
C149 O146 1.235 . S
O150 Co140 2.021 . S
O150 C147 1.238 . S
O151 Co145 2.052 . S
O151 C147 1.241 . S
O152 Co140 2.137 . S
O152 C143 1.247 . S
O153 Co140 2.244 . S
O153 C143 1.272 . S
O153 Co145 2.135 . S
Co154 O155 2.216 . S
Co154 O156 2.091 . S
Co154 O158 2.004 . S
Co154 O164 2.021 . S
Co154 O166 2.137 . S
Co154 O167 2.244 . S
O155 Co154 2.216 . S
O155 C162 1.247 . S
O156 Co154 2.091 . S
O156 C162 1.261 . S
C157 O166 1.247 . S
C157 O167 1.272 . S
O158 Co154 2.004 . S
O158 C163 1.259 . S
Co159 O160 2.061 . S
Co159 O165 2.052 . S
Co159 O167 2.135 . S
O160 Co159 2.061 . S
O160 C163 1.235 . S
C161 O164 1.238 . S
C161 O165 1.241 . S
C162 O155 1.247 . S
C162 O156 1.261 . S
C163 O158 1.259 . S
C163 O160 1.235 . S
O164 Co154 2.021 . S
O164 C161 1.238 . S
O165 Co159 2.052 . S
O165 C161 1.241 . S
O166 Co154 2.137 . S
O166 C157 1.247 . S
O167 Co154 2.244 . S
O167 C157 1.272 . S
O167 Co159 2.135 . S
Co168 O169 2.216 . S
Co168 O170 2.091 . S
Co168 O172 2.004 . S
Co168 O178 2.021 . S
Co168 O180 2.137 1_554 S
Co168 O181 2.244 . S
O169 Co168 2.216 . S
O169 C176 1.247 . S
O170 Co168 2.091 . S
O170 C176 1.261 . S
C171 O180 1.247 . S
C171 O181 1.272 1_556 S
O172 Co168 2.004 . S
O172 C177 1.259 . S
Co173 O174 2.061 . S
Co173 O179 2.052 . S
Co173 O181 2.135 . S
O174 Co173 2.061 . S
O174 C177 1.235 . S
C175 O178 1.238 . S
C175 O179 1.241 . S
C176 O169 1.247 . S
C176 O170 1.261 . S
C177 O172 1.259 . S
C177 O174 1.235 . S
O178 Co168 2.021 . S
O178 C175 1.238 . S
O179 Co173 2.052 . S
O179 C175 1.241 . S
O180 Co168 2.137 1_556 S
O180 C171 1.247 . S
O181 Co168 2.244 . S
O181 C171 1.272 1_554 S
O181 Co173 2.135 . S
Co182 O183 2.216 1_556 S
Co182 O184 2.091 1_556 S
Co182 O186 2.004 . S
Co182 O192 2.021 1_556 S
Co182 O194 2.137 . S
Co182 O195 2.244 . S
O183 Co182 2.216 1_554 S
O183 C190 1.247 . S
O184 Co182 2.091 1_554 S
O184 C190 1.261 . S
C185 O194 1.247 . S
C185 O195 1.272 . S
O186 Co182 2.004 . S
O186 C191 1.259 . S
Co187 O188 2.061 . S
Co187 O193 2.052 1_556 S
Co187 O195 2.135 . S
O188 Co187 2.061 . S
O188 C191 1.235 . S
C189 O192 1.238 . S
C189 O193 1.241 . S
C190 O183 1.247 . S
C190 O184 1.261 . S
C191 O186 1.259 . S
C191 O188 1.235 . S
O192 Co182 2.021 1_554 S
O192 C189 1.238 . S
O193 Co187 2.052 1_554 S
O193 C189 1.241 . S
O194 Co182 2.137 . S
O194 C185 1.247 . S
O195 Co182 2.244 . S
O195 C185 1.272 . S
O195 Co187 2.135 . S
Co196 O197 2.216 . S
Co196 O198 2.091 . S
Co196 O200 2.004 . S
Co196 O206 2.021 . S
Co196 O208 2.137 . S
Co196 O209 2.244 . S
O197 Co196 2.216 . S
O197 C204 1.247 . S
O198 Co196 2.091 . S
O198 C204 1.261 . S
C199 O208 1.247 . S
C199 O209 1.272 . S
O200 Co196 2.004 . S
O200 C205 1.259 . S
Co201 O202 2.061 . S
Co201 O207 2.052 . S
Co201 O209 2.135 . S
O202 Co201 2.061 . S
O202 C205 1.235 . S
C203 O206 1.238 . S
C203 O207 1.241 . S
C204 O197 1.247 . S
C204 O198 1.261 . S
C205 O200 1.259 . S
C205 O202 1.235 . S
O206 Co196 2.021 . S
O206 C203 1.238 . S
O207 Co201 2.052 . S
O207 C203 1.241 . S
O208 Co196 2.137 . S
O208 C199 1.247 . S
O209 Co196 2.244 . S
O209 C199 1.272 . S
O209 Co201 2.135 . S
Co210 O211 2.216 . S
Co210 O212 2.091 . S
Co210 O214 2.004 . S
Co210 O220 2.021 . S
Co210 O222 2.137 . S
Co210 O223 2.244 . S
O211 Co210 2.216 . S
O211 C218 1.247 . S
O212 Co210 2.091 . S
O212 C218 1.261 . S
C213 O222 1.247 . S
C213 O223 1.272 . S
O214 Co210 2.004 . S
O214 C219 1.259 . S
Co215 O216 2.061 . S
Co215 O221 2.052 . S
Co215 O223 2.135 . S
O216 Co215 2.061 . S
O216 C219 1.235 . S
C217 O220 1.238 . S
C217 O221 1.241 . S
C218 O211 1.247 . S
C218 O212 1.261 . S
C219 O214 1.259 . S
C219 O216 1.235 . S
O220 Co210 2.021 . S
O220 C217 1.238 . S
O221 Co215 2.052 . S
O221 C217 1.241 . S
O222 Co210 2.137 . S
O222 C213 1.247 . S
O223 Co210 2.244 . S
O223 C213 1.272 . S
O223 Co215 2.135 . S
Co224 O225 2.216 . S
Co224 O226 2.091 . S
Co224 O228 2.004 1_545 S
Co224 O234 2.021 . S
Co224 O236 2.137 . S
Co224 O237 2.244 1_545 S
O225 Co224 2.216 . S
O225 C232 1.247 . S
O226 Co224 2.091 . S
O226 C232 1.261 . S
C227 O236 1.247 . S
C227 O237 1.272 1_545 S
O228 Co224 2.004 1_565 S
O228 C233 1.259 . S
Co229 O230 2.061 . S
Co229 O235 2.052 . S
Co229 O237 2.135 . S
O230 Co229 2.061 . S
O230 C233 1.235 . S
C231 O234 1.238 1_565 S
C231 O235 1.241 . S
C232 O225 1.247 . S
C232 O226 1.261 . S
C233 O228 1.259 . S
C233 O230 1.235 . S
O234 Co224 2.021 . S
O234 C231 1.238 1_545 S
O235 Co229 2.052 . S
O235 C231 1.241 . S
O236 Co224 2.137 . S
O236 C227 1.247 . S
O237 Co224 2.244 1_565 S
O237 C227 1.272 1_565 S
O237 Co229 2.135 . S
Co238 O239 2.216 . S
Co238 O240 2.091 . S
Co238 O242 2.004 . S
Co238 O248 2.021 . S
Co238 O250 2.137 . S
Co238 O251 2.244 . S
O239 Co238 2.216 . S
O239 C246 1.247 . S
O240 Co238 2.091 . S
O240 C246 1.261 . S
C241 O250 1.247 . S
C241 O251 1.272 . S
O242 Co238 2.004 . S
O242 C247 1.259 . S
Co243 O244 2.061 . S
Co243 O249 2.052 . S
Co243 O251 2.135 . S
O244 Co243 2.061 . S
O244 C247 1.235 . S
C245 O248 1.238 . S
C245 O249 1.241 . S
C246 O239 1.247 . S
C246 O240 1.261 . S
C247 O242 1.259 . S
C247 O244 1.235 . S
O248 Co238 2.021 . S
O248 C245 1.238 . S
O249 Co243 2.052 . S
O249 C245 1.241 . S
O250 Co238 2.137 . S
O250 C241 1.247 . S
O251 Co238 2.244 . S
O251 C241 1.272 . S
O251 Co243 2.135 . S
Co252 O253 2.216 . S
Co252 O254 2.091 . S
Co252 O256 2.004 . S
Co252 O262 2.021 . S
Co252 O264 2.137 . S
Co252 O265 2.244 . S
O253 Co252 2.216 . S
O253 C260 1.247 . S
O254 Co252 2.091 . S
O254 C260 1.261 . S
C255 O264 1.247 . S
C255 O265 1.272 . S
O256 Co252 2.004 . S
O256 C261 1.259 . S
Co257 O258 2.061 . S
Co257 O263 2.052 . S
Co257 O265 2.135 . S
O258 Co257 2.061 . S
O258 C261 1.235 . S
C259 O262 1.238 . S
C259 O263 1.241 . S
C260 O253 1.247 . S
C260 O254 1.261 . S
C261 O256 1.259 . S
C261 O258 1.235 . S
O262 Co252 2.021 . S
O262 C259 1.238 . S
O263 Co257 2.052 . S
O263 C259 1.241 . S
O264 Co252 2.137 . S
O264 C255 1.247 . S
O265 Co252 2.244 . S
O265 C255 1.272 . S
O265 Co257 2.135 . S
Co266 O267 2.216 1_545 S
Co266 O268 2.091 1_545 S
Co266 O270 2.004 . S
Co266 O276 2.021 . S
Co266 O278 2.137 . S
Co266 O279 2.244 . S
O267 Co266 2.216 1_565 S
O267 C274 1.247 . S
O268 Co266 2.091 1_565 S
O268 C274 1.261 . S
C269 O278 1.247 . S
C269 O279 1.272 . S
O270 Co266 2.004 . S
O270 C275 1.259 . S
Co271 O272 2.061 . S
Co271 O277 2.052 . S
Co271 O279 2.135 . S
O272 Co271 2.061 . S
O272 C275 1.235 . S
C273 O276 1.238 . S
C273 O277 1.241 . S
C274 O267 1.247 . S
C274 O268 1.261 . S
C275 O270 1.259 . S
C275 O272 1.235 . S
O276 Co266 2.021 . S
O276 C273 1.238 . S
O277 Co271 2.052 . S
O277 C273 1.241 . S
O278 Co266 2.137 . S
O278 C269 1.247 . S
O279 Co266 2.244 . S
O279 C269 1.272 . S
O279 Co271 2.135 . S
Co280 O281 2.216 . S
Co280 O282 2.091 . S
Co280 O284 2.004 . S
Co280 O290 2.021 . S
Co280 O292 2.137 1_554 S
Co280 O293 2.244 1_554 S
O281 Co280 2.216 . S
O281 C288 1.247 . S
O282 Co280 2.091 . S
O282 C288 1.261 . S
C283 O292 1.247 . S
C283 O293 1.272 . S
O284 Co280 2.004 . S
O284 C289 1.259 . S
Co285 O286 2.061 . S
Co285 O291 2.052 . S
Co285 O293 2.135 1_554 S
O286 Co285 2.061 . S
O286 C289 1.235 . S
C287 O290 1.238 . S
C287 O291 1.241 . S
C288 O281 1.247 . S
C288 O282 1.261 . S
C289 O284 1.259 . S
C289 O286 1.235 . S
O290 Co280 2.021 . S
O290 C287 1.238 . S
O291 Co285 2.052 . S
O291 C287 1.241 . S
O292 Co280 2.137 1_556 S
O292 C283 1.247 . S
O293 Co280 2.244 1_556 S
O293 C283 1.272 . S
O293 Co285 2.135 1_556 S
Co294 O295 2.216 1_655 S
Co294 O296 2.091 . S
Co294 O298 2.004 . S
Co294 O304 2.021 1_655 S
Co294 O306 2.137 . S
Co294 O307 2.244 1_655 S
O295 Co294 2.216 1_455 S
O295 C302 1.247 1_455 S
O296 Co294 2.091 . S
O296 C302 1.261 . S
C297 O306 1.249 1_455 S
C297 O307 1.272 . S
O298 Co294 2.004 . S
O298 C303 1.259 . S
Co299 O300 2.061 . S
Co299 O305 2.052 . S
Co299 O307 2.135 . S
O300 Co299 2.061 . S
O300 C303 1.235 1_455 S
C301 O304 1.238 . S
C301 O305 1.241 . S
C302 O295 1.247 1_655 S
C302 O296 1.261 . S
C303 O298 1.259 . S
C303 O300 1.235 1_655 S
O304 Co294 2.021 1_455 S
O304 C301 1.238 . S
O305 Co299 2.052 . S
O305 C301 1.241 . S
O306 Co294 2.137 . S
O306 C297 1.249 1_655 S
O307 Co294 2.244 1_455 S
O307 C297 1.272 . S
O307 Co299 2.135 . S
Co308 O309 2.216 . S
Co308 O310 2.091 . S
Co308 O312 2.004 . S
Co308 O318 2.021 . S
Co308 O320 2.137 . S
Co308 O321 2.244 . S
O309 Co308 2.216 . S
O309 C316 1.247 . S
O310 Co308 2.091 . S
O310 C316 1.261 . S
C311 O320 1.247 . S
C311 O321 1.272 . S
O312 Co308 2.004 . S
O312 C317 1.259 . S
Co313 O314 2.061 . S
Co313 O319 2.052 . S
Co313 O321 2.135 . S
O314 Co313 2.061 . S
O314 C317 1.235 . S
C315 O318 1.238 . S
C315 O319 1.241 . S
C316 O309 1.247 . S
C316 O310 1.261 . S
C317 O312 1.259 . S
C317 O314 1.235 . S
O318 Co308 2.021 . S
O318 C315 1.238 . S
O319 Co313 2.052 . S
O319 C315 1.241 . S
O320 Co308 2.137 . S
O320 C311 1.247 . S
O321 Co308 2.244 . S
O321 C311 1.272 . S
O321 Co313 2.135 . S
Co322 O323 2.216 . S
Co322 O324 2.091 . S
Co322 O326 2.004 . S
Co322 O332 2.021 . S
Co322 O334 2.137 . S
Co322 O335 2.244 . S
O323 Co322 2.216 . S
O323 C330 1.247 . S
O324 Co322 2.091 . S
O324 C330 1.261 . S
C325 O334 1.247 . S
C325 O335 1.272 . S
O326 Co322 2.004 . S
O326 C331 1.259 . S
Co327 O328 2.061 . S
Co327 O333 2.052 . S
Co327 O335 2.135 . S
O328 Co327 2.061 . S
O328 C331 1.235 . S
C329 O332 1.238 . S
C329 O333 1.241 . S
C330 O323 1.247 . S
C330 O324 1.261 . S
C331 O326 1.259 . S
C331 O328 1.235 . S
O332 Co322 2.021 . S
O332 C329 1.238 . S
O333 Co327 2.052 . S
O333 C329 1.241 . S
O334 Co322 2.137 . S
O334 C325 1.247 . S
O335 Co322 2.244 . S
O335 C325 1.272 . S
O335 Co327 2.135 . S
Tb336 C346 2.825 1_454 S
Tb336 O347 2.347 . S
Tb336 O350 2.366 . S
Tb336 O355 2.418 1_554 S
Tb336 O356 2.384 . S
Tb336 O359 2.479 1_454 S
Tb336 O360 2.471 1_455 S
Eu337 O348 2.418 . S
Eu337 O349 2.384 . S
Eu337 O352 2.479 . S
Eu337 O353 2.471 . S
Eu337 O354 2.347 . S
Eu337 O357 2.366 . S
Eu337 C367 2.825 . S
C338 O354 1.259 1_556 S
C338 O355 1.265 . S
C339 O356 1.255 . S
C339 O357 1.265 . S
C340 C342 1.380 . S
C340 C343 1.374 . S
C340 C346 1.507 . S
C341 C342 1.384 . S
C341 C345 1.387 . S
C341 H368 0.930 . S
C342 C340 1.380 . S
C342 C341 1.384 . S
C342 H369 0.931 . S
C343 C340 1.374 . S
C343 C344 1.390 . S
C343 H370 0.930 1_556 S
C344 C343 1.390 . S
C344 C345 1.391 . S
C344 H371 0.930 . S
C345 C341 1.387 . S
C345 C344 1.391 . S
C346 Tb336 2.825 1_656 S
C346 C340 1.507 . S
C346 O359 1.238 . S
C346 O360 1.247 1_556 S
O347 Tb336 2.347 . S
O347 C351 1.259 . S
O348 Eu337 2.418 . S
O348 C351 1.265 . S
O349 Eu337 2.384 . S
O349 C358 1.255 . S
O350 Tb336 2.366 . S
O350 C358 1.265 . S
C351 O347 1.259 . S
C351 O348 1.265 . S
O352 Eu337 2.479 . S
O352 C367 1.238 . S
O353 Eu337 2.471 . S
O353 C367 1.247 . S
O354 Eu337 2.347 . S
O354 C338 1.259 1_554 S
O355 Tb336 2.418 1_556 S
O355 C338 1.265 . S
O356 Tb336 2.384 . S
O356 C339 1.255 . S
O357 Eu337 2.366 . S
O357 C339 1.265 . S
C358 O349 1.255 . S
C358 O350 1.265 . S
O359 Tb336 2.479 1_656 S
O359 C346 1.238 . S
O360 Tb336 2.471 1_655 S
O360 C346 1.247 1_554 S
C361 C364 1.380 . S
C361 C365 1.374 . S
C361 C367 1.507 . S
C362 C363 1.387 . S
C362 C366 1.391 . S
C363 C362 1.387 . S
C363 C364 1.384 . S
C363 H372 0.930 . S
C364 C361 1.380 . S
C364 C363 1.384 . S
C364 H373 0.931 . S
C365 C361 1.374 . S
C365 C366 1.390 . S
C365 H374 0.930 . S
C366 C362 1.391 . S
C366 C365 1.390 . S
C366 H375 0.930 . S
C367 Eu337 2.825 . S
C367 O352 1.238 . S
C367 O353 1.247 . S
C367 C361 1.507 . S
H368 C341 0.930 . S
H369 C342 0.931 . S
H370 C343 0.930 1_554 S
H371 C344 0.930 . S
H372 C363 0.930 . S
H373 C364 0.931 . S
H374 C365 0.930 . S
H375 C366 0.930 . S
Tb376 C386 2.825 . S
Tb376 O387 2.347 . S
Tb376 O390 2.366 . S
Tb376 O395 2.418 . S
Tb376 O396 2.384 . S
Tb376 O399 2.479 . S
Tb376 O400 2.471 . S
Eu377 O388 2.418 . S
Eu377 O389 2.384 . S
Eu377 O392 2.479 . S
Eu377 O393 2.471 . S
Eu377 O394 2.347 . S
Eu377 O397 2.366 . S
Eu377 C407 2.825 . S
C378 O394 1.259 . S
C378 O395 1.265 . S
C379 O396 1.255 . S
C379 O397 1.265 . S
C380 C382 1.380 . S
C380 C383 1.374 . S
C380 C386 1.507 . S
C381 C382 1.384 . S
C381 C385 1.387 . S
C381 H408 0.930 . S
C382 C380 1.380 . S
C382 C381 1.384 . S
C382 H409 0.931 . S
C383 C380 1.374 . S
C383 C384 1.390 . S
C383 H410 0.930 . S
C384 C383 1.390 . S
C384 C385 1.391 . S
C384 H411 0.930 . S
C385 C381 1.387 . S
C385 C384 1.391 . S
C386 Tb376 2.825 . S
C386 C380 1.507 . S
C386 O399 1.238 . S
C386 O400 1.247 . S
O387 Tb376 2.347 . S
O387 C391 1.259 . S
O388 Eu377 2.418 . S
O388 C391 1.265 . S
O389 Eu377 2.384 . S
O389 C398 1.255 . S
O390 Tb376 2.366 . S
O390 C398 1.265 . S
C391 O387 1.259 . S
C391 O388 1.265 . S
O392 Eu377 2.479 . S
O392 C407 1.238 . S
O393 Eu377 2.471 . S
O393 C407 1.247 . S
O394 Eu377 2.347 . S
O394 C378 1.259 . S
O395 Tb376 2.418 . S
O395 C378 1.265 . S
O396 Tb376 2.384 . S
O396 C379 1.255 . S
O397 Eu377 2.366 . S
O397 C379 1.265 . S
C398 O389 1.255 . S
C398 O390 1.265 . S
O399 Tb376 2.479 . S
O399 C386 1.238 . S
O400 Tb376 2.471 . S
O400 C386 1.247 . S
C401 C404 1.380 . S
C401 C405 1.374 . S
C401 C407 1.507 . S
C402 C403 1.387 . S
C402 C406 1.391 . S
C403 C402 1.387 . S
C403 C404 1.384 . S
C403 H412 0.930 . S
C404 C401 1.380 . S
C404 C403 1.384 . S
C404 H413 0.931 . S
C405 C401 1.374 . S
C405 C406 1.390 . S
C405 H414 0.930 . S
C406 C402 1.391 . S
C406 C405 1.390 . S
C406 H415 0.930 . S
C407 Eu377 2.825 . S
C407 O392 1.238 . S
C407 O393 1.247 . S
C407 C401 1.507 . S
H408 C381 0.930 . S
H409 C382 0.931 . S
H410 C383 0.930 . S
H411 C384 0.930 . S
H412 C403 0.930 . S
H413 C404 0.931 . S
H414 C405 0.930 . S
H415 C406 0.930 . S
Tb416 C426 2.825 1_545 S
Tb416 O427 2.347 . S
Tb416 O430 2.366 . S
Tb416 O435 2.418 . S
Tb416 O436 2.384 . S
Tb416 O439 2.479 1_545 S
Tb416 O440 2.471 1_545 S
Eu417 O428 2.418 . S
Eu417 O429 2.384 . S
Eu417 O432 2.479 . S
Eu417 O433 2.471 . S
Eu417 O434 2.347 . S
Eu417 O437 2.366 . S
Eu417 C447 2.825 . S
C418 O434 1.259 . S
C418 O435 1.265 . S
C419 O436 1.255 . S
C419 O437 1.265 . S
C420 C422 1.380 . S
C420 C423 1.374 . S
C420 C426 1.507 . S
C421 C422 1.384 . S
C421 C425 1.387 . S
C421 H448 0.930 . S
C422 C420 1.380 . S
C422 C421 1.384 . S
C422 H449 0.931 . S
C423 C420 1.374 . S
C423 C424 1.390 . S
C423 H450 0.930 . S
C424 C423 1.390 . S
C424 C425 1.391 . S
C424 H451 0.930 . S
C425 C421 1.387 . S
C425 C424 1.391 . S
C426 Tb416 2.825 1_565 S
C426 C420 1.507 . S
C426 O439 1.238 . S
C426 O440 1.247 . S
O427 Tb416 2.347 . S
O427 C431 1.259 . S
O428 Eu417 2.418 . S
O428 C431 1.265 . S
O429 Eu417 2.384 . S
O429 C438 1.255 . S
O430 Tb416 2.366 . S
O430 C438 1.265 . S
C431 O427 1.259 . S
C431 O428 1.265 . S
O432 Eu417 2.479 . S
O432 C447 1.238 . S
O433 Eu417 2.471 . S
O433 C447 1.247 . S
O434 Eu417 2.347 . S
O434 C418 1.259 . S
O435 Tb416 2.418 . S
O435 C418 1.265 . S
O436 Tb416 2.384 . S
O436 C419 1.255 . S
O437 Eu417 2.366 . S
O437 C419 1.265 . S
C438 O429 1.255 . S
C438 O430 1.265 . S
O439 Tb416 2.479 1_565 S
O439 C426 1.238 . S
O440 Tb416 2.471 1_565 S
O440 C426 1.247 . S
C441 C444 1.380 . S
C441 C445 1.374 . S
C441 C447 1.507 . S
C442 C443 1.387 . S
C442 C446 1.391 . S
C443 C442 1.387 . S
C443 C444 1.384 . S
C443 H452 0.930 . S
C444 C441 1.380 . S
C444 C443 1.384 . S
C444 H453 0.931 . S
C445 C441 1.374 . S
C445 C446 1.390 . S
C445 H454 0.930 . S
C446 C442 1.391 . S
C446 C445 1.390 . S
C446 H455 0.930 . S
C447 Eu417 2.825 . S
C447 O432 1.238 . S
C447 O433 1.247 . S
C447 C441 1.507 . S
H448 C421 0.930 . S
H449 C422 0.931 . S
H450 C423 0.930 . S
H451 C424 0.930 . S
H452 C443 0.930 . S
H453 C444 0.931 . S
H454 C445 0.930 . S
H455 C446 0.930 . S
Tb456 C466 2.825 . S
Tb456 O467 2.347 . S
Tb456 O470 2.366 . S
Tb456 O475 2.418 . S
Tb456 O476 2.384 . S
Tb456 O479 2.479 . S
Tb456 O480 2.471 . S
Eu457 O468 2.418 . S
Eu457 O469 2.384 . S
Eu457 O472 2.479 . S
Eu457 O473 2.471 . S
Eu457 O474 2.347 . S
Eu457 O477 2.366 . S
Eu457 C487 2.825 . S
C458 O474 1.259 . S
C458 O475 1.265 . S
C459 O476 1.255 . S
C459 O477 1.265 . S
C460 C462 1.380 . S
C460 C463 1.374 . S
C460 C466 1.507 . S
C461 C462 1.384 . S
C461 C465 1.387 . S
C461 H488 0.930 . S
C462 C460 1.380 . S
C462 C461 1.384 . S
C462 H489 0.931 . S
C463 C460 1.374 . S
C463 C464 1.390 . S
C463 H490 0.930 . S
C464 C463 1.390 . S
C464 C465 1.391 . S
C464 H491 0.930 . S
C465 C461 1.387 . S
C465 C464 1.391 . S
C466 Tb456 2.825 . S
C466 C460 1.507 . S
C466 O479 1.238 . S
C466 O480 1.247 . S
O467 Tb456 2.347 . S
O467 C471 1.259 . S
O468 Eu457 2.418 . S
O468 C471 1.265 . S
O469 Eu457 2.384 . S
O469 C478 1.255 . S
O470 Tb456 2.366 . S
O470 C478 1.265 . S
C471 O467 1.259 . S
C471 O468 1.265 . S
O472 Eu457 2.479 . S
O472 C487 1.238 . S
O473 Eu457 2.471 . S
O473 C487 1.247 . S
O474 Eu457 2.347 . S
O474 C458 1.259 . S
O475 Tb456 2.418 . S
O475 C458 1.265 . S
O476 Tb456 2.384 . S
O476 C459 1.255 . S
O477 Eu457 2.366 . S
O477 C459 1.265 . S
C478 O469 1.255 . S
C478 O470 1.265 . S
O479 Tb456 2.479 . S
O479 C466 1.238 . S
O480 Tb456 2.471 . S
O480 C466 1.247 . S
C481 C484 1.380 . S
C481 C485 1.374 . S
C481 C487 1.507 . S
C482 C483 1.387 . S
C482 C486 1.391 . S
C483 C482 1.387 . S
C483 C484 1.384 . S
C483 H492 0.930 . S
C484 C481 1.380 . S
C484 C483 1.384 . S
C484 H493 0.931 . S
C485 C481 1.374 . S
C485 C486 1.390 . S
C485 H494 0.930 . S
C486 C482 1.391 . S
C486 C485 1.390 . S
C486 H495 0.930 . S
C487 Eu457 2.825 . S
C487 O472 1.238 . S
C487 O473 1.247 . S
C487 C481 1.507 . S
H488 C461 0.930 . S
H489 C462 0.931 . S
H490 C463 0.930 . S
H491 C464 0.930 . S
H492 C483 0.930 . S
H493 C484 0.931 . S
H494 C485 0.930 . S
H495 C486 0.930 . S
Tb496 C506 2.825 . S
Tb496 O507 2.347 . S
Tb496 O510 2.366 . S
Tb496 O515 2.418 . S
Tb496 O516 2.400 . S
Tb496 O519 2.479 . S
Tb496 O520 2.471 . S
Eu497 O508 2.418 . S
Eu497 O509 2.384 . S
Eu497 O512 2.479 . S
Eu497 O513 2.471 . S
Eu497 O514 2.347 . S
Eu497 O517 2.366 . S
Eu497 C527 2.825 . S
C498 O514 1.259 . S
C498 O515 1.265 . S
C499 O516 1.256 . S
C499 O517 1.265 . S
C500 C502 1.380 . S
C500 C503 1.374 1_455 S
C500 C506 1.507 . S
C501 C502 1.384 . S
C501 C505 1.387 1_455 S
C501 H528 0.930 . S
C502 C500 1.380 . S
C502 C501 1.384 . S
C502 H529 0.931 . S
C503 C500 1.374 1_655 S
C503 C504 1.390 . S
C503 H530 0.930 . S
C504 C503 1.390 . S
C504 C505 1.391 . S
C504 H531 0.930 . S
C505 C501 1.387 1_655 S
C505 C504 1.391 . S
C506 Tb496 2.825 . S
C506 C500 1.507 . S
C506 O519 1.238 . S
C506 O520 1.247 . S
O507 Tb496 2.347 . S
O507 C511 1.259 1_455 S
O508 Eu497 2.418 . S
O508 C511 1.265 1_455 S
O509 Eu497 2.384 . S
O509 C518 1.255 . S
O510 Tb496 2.366 . S
O510 C518 1.265 . S
C511 O507 1.259 1_655 S
C511 O508 1.265 1_655 S
O512 Eu497 2.479 . S
O512 C527 1.238 . S
O513 Eu497 2.471 . S
O513 C527 1.247 . S
O514 Eu497 2.347 . S
O514 C498 1.259 . S
O515 Tb496 2.418 . S
O515 C498 1.265 . S
O516 Tb496 2.400 . S
O516 C499 1.256 . S
O517 Eu497 2.366 . S
O517 C499 1.265 . S
C518 O509 1.255 . S
C518 O510 1.265 . S
O519 Tb496 2.479 . S
O519 C506 1.238 . S
O520 Tb496 2.471 . S
O520 C506 1.247 . S
C521 C524 1.380 . S
C521 C525 1.374 . S
C521 C527 1.507 . S
C522 C523 1.387 . S
C522 C526 1.391 . S
C523 C522 1.387 . S
C523 C524 1.384 . S
C523 H532 0.930 . S
C524 C521 1.380 . S
C524 C523 1.384 . S
C524 H533 0.931 . S
C525 C521 1.374 . S
C525 C526 1.390 . S
C525 H534 0.930 . S
C526 C522 1.391 . S
C526 C525 1.390 . S
C526 H535 0.930 . S
C527 Eu497 2.825 . S
C527 O512 1.238 . S
C527 O513 1.247 . S
C527 C521 1.507 . S
H528 C501 0.930 . S
H529 C502 0.931 . S
H530 C503 0.930 . S
H531 C504 0.930 . S
H532 C523 0.930 . S
H533 C524 0.931 . S
H534 C525 0.930 . S
H535 C526 0.930 . S
Tb536 C546 2.825 . S
Tb536 O547 2.347 . S
Tb536 O550 2.366 . S
Tb536 O555 2.418 . S
Tb536 O556 2.384 . S
Tb536 O559 2.479 . S
Tb536 O560 2.471 . S
Eu537 O548 2.418 . S
Eu537 O549 2.384 . S
Eu537 O552 2.479 . S
Eu537 O553 2.471 . S
Eu537 O554 2.347 . S
Eu537 O557 2.366 . S
Eu537 C567 2.825 . S
C538 O554 1.259 . S
C538 O555 1.265 . S
C539 O556 1.255 . S
C539 O557 1.265 . S
C540 C542 1.380 . S
C540 C543 1.374 . S
C540 C546 1.507 . S
C541 C542 1.384 . S
C541 C545 1.387 . S
C541 H568 0.930 . S
C542 C540 1.380 . S
C542 C541 1.384 . S
C542 H569 0.931 . S
C543 C540 1.374 . S
C543 C544 1.390 . S
C543 H570 0.930 . S
C544 C543 1.390 . S
C544 C545 1.391 . S
C544 H571 0.930 . S
C545 C541 1.387 . S
C545 C544 1.391 . S
C546 Tb536 2.825 . S
C546 C540 1.507 . S
C546 O559 1.238 . S
C546 O560 1.247 . S
O547 Tb536 2.347 . S
O547 C551 1.259 . S
O548 Eu537 2.418 . S
O548 C551 1.265 . S
O549 Eu537 2.384 . S
O549 C558 1.255 . S
O550 Tb536 2.366 . S
O550 C558 1.265 . S
C551 O547 1.259 . S
C551 O548 1.265 . S
O552 Eu537 2.479 . S
O552 C567 1.238 . S
O553 Eu537 2.471 . S
O553 C567 1.247 . S
O554 Eu537 2.347 . S
O554 C538 1.259 . S
O555 Tb536 2.418 . S
O555 C538 1.265 . S
O556 Tb536 2.384 . S
O556 C539 1.255 . S
O557 Eu537 2.366 . S
O557 C539 1.265 . S
C558 O549 1.255 . S
C558 O550 1.265 . S
O559 Tb536 2.479 . S
O559 C546 1.238 . S
O560 Tb536 2.471 . S
O560 C546 1.247 . S
C561 C564 1.380 . S
C561 C565 1.374 . S
C561 C567 1.507 . S
C562 C563 1.387 . S
C562 C566 1.391 . S
C563 C562 1.387 . S
C563 C564 1.384 . S
C563 H572 0.930 . S
C564 C561 1.380 . S
C564 C563 1.384 . S
C564 H573 0.931 . S
C565 C561 1.374 . S
C565 C566 1.390 . S
C565 H574 0.930 . S
C566 C562 1.391 . S
C566 C565 1.390 . S
C566 H575 0.930 . S
C567 Eu537 2.825 . S
C567 O552 1.238 . S
C567 O553 1.247 . S
C567 C561 1.507 . S
H568 C541 0.930 . S
H569 C542 0.931 . S
H570 C543 0.930 . S
H571 C544 0.930 . S
H572 C563 0.930 . S
H573 C564 0.931 . S
H574 C565 0.930 . S
H575 C566 0.930 . S
Tb576 C586 2.825 . S
Tb576 O587 2.347 . S
Tb576 O590 2.366 . S
Tb576 O595 2.414 1_545 S
Tb576 O596 2.384 . S
Tb576 O599 2.479 . S
Tb576 O600 2.471 . S
Eu577 O588 2.418 1_556 S
Eu577 O589 2.384 1_556 S
Eu577 O592 2.479 . S
Eu577 O593 2.471 . S
Eu577 O594 2.347 1_556 S
Eu577 O597 2.366 . S
Eu577 C607 2.825 . S
C578 O594 1.267 . S
C578 O595 1.263 1_545 S
C579 O596 1.255 . S
C579 O597 1.265 1_554 S
C580 C582 1.380 . S
C580 C583 1.374 . S
C580 C586 1.507 . S
C581 C582 1.384 . S
C581 C585 1.387 . S
C581 H608 0.930 1_545 S
C582 C580 1.380 . S
C582 C581 1.384 . S
C582 H609 0.950 . S
C583 C580 1.374 . S
C583 C584 1.390 . S
C583 H610 0.930 . S
C584 C583 1.390 . S
C584 C585 1.391 . S
C584 H611 0.930 . S
C585 C581 1.387 . S
C585 C584 1.391 . S
C586 Tb576 2.825 . S
C586 C580 1.507 . S
C586 O599 1.238 . S
C586 O600 1.247 . S
O587 Tb576 2.347 . S
O587 C591 1.259 . S
O588 Eu577 2.418 1_554 S
O588 C591 1.265 . S
O589 Eu577 2.384 1_554 S
O589 C598 1.255 . S
O590 Tb576 2.366 . S
O590 C598 1.265 . S
C591 O587 1.259 . S
C591 O588 1.265 . S
O592 Eu577 2.479 . S
O592 C607 1.238 . S
O593 Eu577 2.471 . S
O593 C607 1.247 . S
O594 Eu577 2.347 1_554 S
O594 C578 1.267 . S
O595 Tb576 2.414 1_565 S
O595 C578 1.263 1_565 S
O596 Tb576 2.384 . S
O596 C579 1.255 . S
O597 Eu577 2.366 . S
O597 C579 1.265 1_556 S
C598 O589 1.255 . S
C598 O590 1.265 . S
O599 Tb576 2.479 . S
O599 C586 1.238 . S
O600 Tb576 2.471 . S
O600 C586 1.247 . S
C601 C604 1.380 . S
C601 C605 1.374 . S
C601 C607 1.507 . S
C602 C603 1.387 . S
C602 C606 1.391 . S
C603 C602 1.387 . S
C603 C604 1.384 . S
C603 H612 0.930 . S
C604 C601 1.380 . S
C604 C603 1.384 . S
C604 H613 0.931 . S
C605 C601 1.374 . S
C605 C606 1.390 . S
C605 H614 0.930 . S
C606 C602 1.391 . S
C606 C605 1.390 . S
C606 H615 0.930 . S
C607 Eu577 2.825 . S
C607 O592 1.238 . S
C607 O593 1.247 . S
C607 C601 1.507 . S
H608 C581 0.930 1_565 S
H609 C582 0.950 . S
H610 C583 0.930 . S
H611 C584 0.930 . S
H612 C603 0.930 . S
H613 C604 0.931 . S
H614 C605 0.930 . S
H615 C606 0.930 . S
Tb616 C626 2.825 . S
Tb616 O627 2.347 . S
Tb616 O630 2.366 . S
Tb616 O635 2.418 . S
Tb616 O636 2.384 . S
Tb616 O639 2.479 . S
Tb616 O640 2.471 . S
Eu617 O628 2.418 . S
Eu617 O629 2.384 . S
Eu617 O632 2.479 . S
Eu617 O633 2.471 . S
Eu617 O634 2.347 . S
Eu617 O637 2.366 . S
Eu617 C647 2.825 . S
C618 O634 1.259 . S
C618 O635 1.265 . S
C619 O636 1.255 . S
C619 O637 1.265 . S
C620 C622 1.380 . S
C620 C623 1.374 . S
C620 C626 1.507 . S
C621 C622 1.384 . S
C621 C625 1.387 . S
C621 H648 0.930 . S
C622 C620 1.380 . S
C622 C621 1.384 . S
C622 H649 0.931 . S
C623 C620 1.374 . S
C623 C624 1.390 . S
C623 H650 0.930 . S
C624 C623 1.390 . S
C624 C625 1.391 . S
C624 H651 0.930 . S
C625 C621 1.387 . S
C625 C624 1.391 . S
C626 Tb616 2.825 . S
C626 C620 1.507 . S
C626 O639 1.238 . S
C626 O640 1.247 . S
O627 Tb616 2.347 . S
O627 C631 1.259 . S
O628 Eu617 2.418 . S
O628 C631 1.265 . S
O629 Eu617 2.384 . S
O629 C638 1.255 . S
O630 Tb616 2.366 . S
O630 C638 1.265 . S
C631 O627 1.259 . S
C631 O628 1.265 . S
O632 Eu617 2.479 . S
O632 C647 1.238 . S
O633 Eu617 2.471 . S
O633 C647 1.247 . S
O634 Eu617 2.347 . S
O634 C618 1.259 . S
O635 Tb616 2.418 . S
O635 C618 1.265 . S
O636 Tb616 2.384 . S
O636 C619 1.255 . S
O637 Eu617 2.366 . S
O637 C619 1.265 . S
C638 O629 1.255 . S
C638 O630 1.265 . S
O639 Tb616 2.479 . S
O639 C626 1.238 . S
O640 Tb616 2.471 . S
O640 C626 1.247 . S
C641 C644 1.380 . S
C641 C645 1.374 . S
C641 C647 1.507 . S
C642 C643 1.387 . S
C642 C646 1.391 . S
C643 C642 1.387 . S
C643 C644 1.384 . S
C643 H652 0.930 . S
C644 C641 1.380 . S
C644 C643 1.384 . S
C644 H653 0.931 . S
C645 C641 1.374 . S
C645 C646 1.390 . S
C645 H654 0.930 . S
C646 C642 1.391 . S
C646 C645 1.390 . S
C646 H655 0.930 . S
C647 Eu617 2.825 . S
C647 O632 1.238 . S
C647 O633 1.247 . S
C647 C641 1.507 . S
H648 C621 0.930 . S
H649 C622 0.931 . S
H650 C623 0.930 . S
H651 C624 0.930 . S
H652 C643 0.930 . S
H653 C644 0.931 . S
H654 C645 0.930 . S
H655 C646 0.930 . S
Tb656 C666 2.825 . S
Tb656 O667 2.347 1_556 S
Tb656 O670 2.366 . S
Tb656 O675 2.418 . S
Tb656 O676 2.384 1_556 S
Tb656 O679 2.479 . S
Tb656 O680 2.471 . S
Eu657 O668 2.418 . S
Eu657 O669 2.384 . S
Eu657 O672 2.479 . S
Eu657 O673 2.471 . S
Eu657 O674 2.347 . S
Eu657 O677 2.366 . S
Eu657 C687 2.825 . S
C658 O674 1.259 . S
C658 O675 1.265 1_554 S
C659 O676 1.255 . S
C659 O677 1.265 . S
C660 C662 1.380 . S
C660 C663 1.374 . S
C660 C666 1.507 . S
C661 C662 1.384 . S
C661 C665 1.387 . S
C661 H688 0.930 . S
C662 C660 1.380 . S
C662 C661 1.384 . S
C662 H689 0.931 . S
C663 C660 1.374 . S
C663 C664 1.390 . S
C663 H690 0.930 . S
C664 C663 1.390 . S
C664 C665 1.391 . S
C664 H691 0.930 . S
C665 C661 1.387 . S
C665 C664 1.391 . S
C666 Tb656 2.825 . S
C666 C660 1.507 . S
C666 O679 1.238 . S
C666 O680 1.247 . S
O667 Tb656 2.347 1_554 S
O667 C671 1.259 . S
O668 Eu657 2.418 . S
O668 C671 1.265 . S
O669 Eu657 2.384 . S
O669 C678 1.255 1_554 S
O670 Tb656 2.366 . S
O670 C678 1.265 . S
C671 O667 1.259 . S
C671 O668 1.265 . S
O672 Eu657 2.479 . S
O672 C687 1.238 . S
O673 Eu657 2.471 . S
O673 C687 1.247 . S
O674 Eu657 2.347 . S
O674 C658 1.259 . S
O675 Tb656 2.418 . S
O675 C658 1.265 1_556 S
O676 Tb656 2.384 1_554 S
O676 C659 1.255 . S
O677 Eu657 2.366 . S
O677 C659 1.265 . S
C678 O669 1.255 1_556 S
C678 O670 1.265 . S
O679 Tb656 2.479 . S
O679 C666 1.238 . S
O680 Tb656 2.471 . S
O680 C666 1.247 . S
C681 C684 1.380 . S
C681 C685 1.374 . S
C681 C687 1.507 . S
C682 C683 1.387 . S
C682 C686 1.391 . S
C683 C682 1.387 . S
C683 C684 1.384 . S
C683 H692 0.930 . S
C684 C681 1.380 . S
C684 C683 1.384 . S
C684 H693 0.931 . S
C685 C681 1.374 . S
C685 C686 1.390 . S
C685 H694 0.930 . S
C686 C682 1.391 . S
C686 C685 1.390 . S
C686 H695 0.930 . S
C687 Eu657 2.825 . S
C687 O672 1.238 . S
C687 O673 1.247 . S
C687 C681 1.507 . S
H688 C661 0.930 . S
H689 C662 0.931 . S
H690 C663 0.930 . S
H691 C664 0.930 . S
H692 C683 0.930 . S
H693 C684 0.931 . S
H694 C685 0.930 . S
H695 C686 0.930 . S
Tb696 C706 2.825 . S
Tb696 O707 2.347 . S
Tb696 O710 2.366 . S
Tb696 O715 2.418 . S
Tb696 O716 2.384 . S
Tb696 O719 2.479 . S
Tb696 O720 2.471 . S
Eu697 O708 2.418 . S
Eu697 O709 2.384 . S
Eu697 O712 2.479 . S
Eu697 O713 2.471 . S
Eu697 O714 2.347 . S
Eu697 O717 2.366 . S
Eu697 C727 2.825 . S
C698 O714 1.259 . S
C698 O715 1.265 . S
C699 O716 1.255 . S
C699 O717 1.265 . S
C700 C702 1.380 . S
C700 C703 1.374 . S
C700 C706 1.507 . S
C701 C702 1.384 . S
C701 C705 1.387 . S
C701 H728 0.930 . S
C702 C700 1.380 . S
C702 C701 1.384 . S
C702 H729 0.931 . S
C703 C700 1.374 . S
C703 C704 1.390 . S
C703 H730 0.930 . S
C704 C703 1.390 . S
C704 C705 1.391 . S
C704 H731 0.930 . S
C705 C701 1.387 . S
C705 C704 1.391 . S
C706 Tb696 2.825 . S
C706 C700 1.507 . S
C706 O719 1.238 . S
C706 O720 1.247 . S
O707 Tb696 2.347 . S
O707 C711 1.259 . S
O708 Eu697 2.418 . S
O708 C711 1.265 . S
O709 Eu697 2.384 . S
O709 C718 1.255 . S
O710 Tb696 2.366 . S
O710 C718 1.265 . S
C711 O707 1.259 . S
C711 O708 1.265 . S
O712 Eu697 2.479 . S
O712 C727 1.238 . S
O713 Eu697 2.471 . S
O713 C727 1.247 . S
O714 Eu697 2.347 . S
O714 C698 1.259 . S
O715 Tb696 2.418 . S
O715 C698 1.265 . S
O716 Tb696 2.384 . S
O716 C699 1.255 . S
O717 Eu697 2.366 . S
O717 C699 1.265 . S
C718 O709 1.255 . S
C718 O710 1.265 . S
O719 Tb696 2.479 . S
O719 C706 1.238 . S
O720 Tb696 2.471 . S
O720 C706 1.247 . S
C721 C724 1.380 . S
C721 C725 1.374 . S
C721 C727 1.507 . S
C722 C723 1.387 . S
C722 C726 1.391 . S
C723 C722 1.387 . S
C723 C724 1.384 . S
C723 H732 0.930 . S
C724 C721 1.380 . S
C724 C723 1.384 . S
C724 H733 0.931 . S
C725 C721 1.374 . S
C725 C726 1.390 . S
C725 H734 0.930 . S
C726 C722 1.391 . S
C726 C725 1.390 . S
C726 H735 0.930 . S
C727 Eu697 2.825 . S
C727 O712 1.238 . S
C727 O713 1.247 . S
C727 C721 1.507 . S
H728 C701 0.930 . S
H729 C702 0.931 . S
H730 C703 0.930 . S
H731 C704 0.930 . S
H732 C723 0.930 . S
H733 C724 0.931 . S
H734 C725 0.930 . S
H735 C726 0.930 . S
Tb736 C746 2.825 . S
Tb736 O747 2.347 . S
Tb736 O750 2.366 . S
Tb736 O755 2.418 . S
Tb736 O756 2.384 . S
Tb736 O759 2.479 . S
Tb736 O760 2.471 . S
Eu737 O748 2.418 . S
Eu737 O749 2.384 1_455 S
Eu737 O752 2.479 . S
Eu737 O753 2.471 . S
Eu737 O754 2.347 . S
Eu737 O757 2.366 . S
Eu737 C767 2.825 . S
C738 O754 1.259 . S
C738 O755 1.265 . S
C739 O756 1.255 . S
C739 O757 1.265 . S
C740 C742 1.380 . S
C740 C743 1.374 . S
C740 C746 1.507 . S
C741 C742 1.384 . S
C741 C745 1.387 . S
C741 H768 0.930 . S
C742 C740 1.380 . S
C742 C741 1.384 . S
C742 H769 0.931 . S
C743 C740 1.374 . S
C743 C744 1.390 . S
C743 H770 0.930 . S
C744 C743 1.390 . S
C744 C745 1.391 . S
C744 H771 0.930 1_455 S
C745 C741 1.387 . S
C745 C744 1.391 . S
C746 Tb736 2.825 . S
C746 C740 1.507 . S
C746 O759 1.238 . S
C746 O760 1.247 . S
O747 Tb736 2.347 . S
O747 C751 1.259 . S
O748 Eu737 2.418 . S
O748 C751 1.265 . S
O749 Eu737 2.384 1_655 S
O749 C758 1.255 . S
O750 Tb736 2.366 . S
O750 C758 1.265 1_455 S
C751 O747 1.259 . S
C751 O748 1.265 . S
O752 Eu737 2.479 . S
O752 C767 1.238 . S
O753 Eu737 2.471 . S
O753 C767 1.247 . S
O754 Eu737 2.347 . S
O754 C738 1.259 . S
O755 Tb736 2.418 . S
O755 C738 1.265 . S
O756 Tb736 2.384 . S
O756 C739 1.255 . S
O757 Eu737 2.366 . S
O757 C739 1.265 . S
C758 O749 1.255 . S
C758 O750 1.265 1_655 S
O759 Tb736 2.479 . S
O759 C746 1.238 . S
O760 Tb736 2.471 . S
O760 C746 1.247 . S
C761 C764 1.380 . S
C761 C765 1.374 . S
C761 C767 1.507 . S
C762 C763 1.387 . S
C762 C766 1.391 . S
C763 C762 1.387 . S
C763 C764 1.384 . S
C763 H772 0.930 . S
C764 C761 1.380 . S
C764 C763 1.384 . S
C764 H773 0.931 . S
C765 C761 1.374 . S
C765 C766 1.390 . S
C765 H774 0.930 . S
C766 C762 1.391 . S
C766 C765 1.390 . S
C766 H775 0.930 . S
C767 Eu737 2.825 . S
C767 O752 1.238 . S
C767 O753 1.247 . S
C767 C761 1.507 . S
H768 C741 0.930 . S
H769 C742 0.931 . S
H770 C743 0.930 . S
H771 C744 0.930 1_655 S
H772 C763 0.930 . S
H773 C764 0.931 . S
H774 C765 0.930 . S
H775 C766 0.930 . S
Tb776 C786 2.825 . S
Tb776 O787 2.347 . S
Tb776 O790 2.366 . S
Tb776 O795 2.418 . S
Tb776 O796 2.384 . S
Tb776 O799 2.479 . S
Tb776 O800 2.471 . S
Eu777 O788 2.418 . S
Eu777 O789 2.384 . S
Eu777 O792 2.479 . S
Eu777 O793 2.471 . S
Eu777 O794 2.347 . S
Eu777 O797 2.366 . S
Eu777 C807 2.825 . S
C778 O794 1.259 . S
C778 O795 1.265 . S
C779 O796 1.255 . S
C779 O797 1.265 . S
C780 C782 1.380 . S
C780 C783 1.374 . S
C780 C786 1.507 . S
C781 C782 1.384 . S
C781 C785 1.387 . S
C781 H808 0.930 . S
C782 C780 1.380 . S
C782 C781 1.384 . S
C782 H809 0.931 . S
C783 C780 1.374 . S
C783 C784 1.390 . S
C783 H810 0.930 . S
C784 C783 1.390 . S
C784 C785 1.391 . S
C784 H811 0.930 . S
C785 C781 1.387 . S
C785 C784 1.391 . S
C786 Tb776 2.825 . S
C786 C780 1.507 . S
C786 O799 1.238 . S
C786 O800 1.247 . S
O787 Tb776 2.347 . S
O787 C791 1.259 . S
O788 Eu777 2.418 . S
O788 C791 1.265 . S
O789 Eu777 2.384 . S
O789 C798 1.255 . S
O790 Tb776 2.366 . S
O790 C798 1.265 . S
C791 O787 1.259 . S
C791 O788 1.265 . S
O792 Eu777 2.479 . S
O792 C807 1.238 . S
O793 Eu777 2.471 . S
O793 C807 1.247 . S
O794 Eu777 2.347 . S
O794 C778 1.259 . S
O795 Tb776 2.418 . S
O795 C778 1.265 . S
O796 Tb776 2.384 . S
O796 C779 1.255 . S
O797 Eu777 2.366 . S
O797 C779 1.265 . S
C798 O789 1.255 . S
C798 O790 1.265 . S
O799 Tb776 2.479 . S
O799 C786 1.238 . S
O800 Tb776 2.471 . S
O800 C786 1.247 . S
C801 C804 1.380 . S
C801 C805 1.374 . S
C801 C807 1.507 . S
C802 C803 1.387 . S
C802 C806 1.391 . S
C803 C802 1.387 . S
C803 C804 1.384 . S
C803 H812 0.930 . S
C804 C801 1.380 . S
C804 C803 1.384 . S
C804 H813 0.931 . S
C805 C801 1.374 . S
C805 C806 1.390 . S
C805 H814 0.930 . S
C806 C802 1.391 . S
C806 C805 1.390 . S
C806 H815 0.930 . S
C807 Eu777 2.825 . S
C807 O792 1.238 . S
C807 O793 1.247 . S
C807 C801 1.507 . S
H808 C781 0.930 . S
H809 C782 0.931 . S
H810 C783 0.930 . S
H811 C784 0.930 . S
H812 C803 0.930 . S
H813 C804 0.931 . S
H814 C805 0.930 . S
H815 C806 0.930 . S
Tb816 C826 2.825 . S
Tb816 O827 2.347 . S
Tb816 O830 2.366 . S
Tb816 O835 2.418 . S
Tb816 O836 2.384 . S
Tb816 O839 2.479 . S
Tb816 O840 2.471 . S
Eu817 O828 2.418 . S
Eu817 O829 2.384 . S
Eu817 O832 2.479 . S
Eu817 O833 2.471 . S
Eu817 O834 2.347 . S
Eu817 O837 2.366 . S
Eu817 C847 2.825 . S
C818 O834 1.259 . S
C818 O835 1.265 . S
C819 O836 1.255 . S
C819 O837 1.265 . S
C820 C822 1.380 . S
C820 C823 1.374 . S
C820 C826 1.507 . S
C821 C822 1.384 . S
C821 C825 1.387 . S
C821 H848 0.930 . S
C822 C820 1.380 . S
C822 C821 1.384 . S
C822 H849 0.931 . S
C823 C820 1.374 . S
C823 C824 1.390 . S
C823 H850 0.930 . S
C824 C823 1.390 . S
C824 C825 1.391 . S
C824 H851 0.930 . S
C825 C821 1.387 . S
C825 C824 1.391 . S
C826 Tb816 2.825 . S
C826 C820 1.507 . S
C826 O839 1.238 . S
C826 O840 1.247 . S
O827 Tb816 2.347 . S
O827 C831 1.259 . S
O828 Eu817 2.418 . S
O828 C831 1.265 . S
O829 Eu817 2.384 . S
O829 C838 1.255 . S
O830 Tb816 2.366 . S
O830 C838 1.265 . S
C831 O827 1.259 . S
C831 O828 1.265 . S
O832 Eu817 2.479 . S
O832 C847 1.238 . S
O833 Eu817 2.471 . S
O833 C847 1.247 . S
O834 Eu817 2.347 . S
O834 C818 1.259 . S
O835 Tb816 2.418 . S
O835 C818 1.265 . S
O836 Tb816 2.384 . S
O836 C819 1.255 . S
O837 Eu817 2.366 . S
O837 C819 1.265 . S
C838 O829 1.255 . S
C838 O830 1.265 . S
O839 Tb816 2.479 . S
O839 C826 1.238 . S
O840 Tb816 2.471 . S
O840 C826 1.247 . S
C841 C844 1.380 . S
C841 C845 1.374 . S
C841 C847 1.507 . S
C842 C843 1.387 . S
C842 C846 1.391 . S
C843 C842 1.387 . S
C843 C844 1.384 . S
C843 H852 0.930 . S
C844 C841 1.380 . S
C844 C843 1.384 . S
C844 H853 0.931 . S
C845 C841 1.374 . S
C845 C846 1.390 . S
C845 H854 0.930 . S
C846 C842 1.391 . S
C846 C845 1.390 . S
C846 H855 0.930 . S
C847 Eu817 2.825 . S
C847 O832 1.238 . S
C847 O833 1.247 . S
C847 C841 1.507 . S
H848 C821 0.930 . S
H849 C822 0.931 . S
H850 C823 0.930 . S
H851 C824 0.930 . S
H852 C843 0.930 . S
H853 C844 0.931 . S
H854 C845 0.930 . S
H855 C846 0.930 . S
Tb856 C866 2.825 . S
Tb856 O867 2.347 . S
Tb856 O870 2.366 . S
Tb856 O875 2.418 . S
Tb856 O876 2.384 . S
Tb856 O879 2.479 . S
Tb856 O880 2.471 . S
Eu857 O868 2.418 . S
Eu857 O869 2.384 . S
Eu857 O872 2.479 . S
Eu857 O873 2.471 . S
Eu857 O874 2.347 . S
Eu857 O877 2.366 . S
Eu857 C887 2.825 . S
C858 O874 1.259 . S
C858 O875 1.265 . S
C859 O876 1.255 . S
C859 O877 1.265 . S
C860 C862 1.380 . S
C860 C863 1.374 . S
C860 C866 1.507 . S
C861 C862 1.384 . S
C861 C865 1.387 . S
C861 H888 0.930 . S
C862 C860 1.380 . S
C862 C861 1.384 . S
C862 H889 0.931 . S
C863 C860 1.374 . S
C863 C864 1.390 . S
C863 H890 0.930 . S
C864 C863 1.390 . S
C864 C865 1.391 . S
C864 H891 0.930 . S
C865 C861 1.387 . S
C865 C864 1.391 . S
C866 Tb856 2.825 . S
C866 C860 1.507 . S
C866 O879 1.238 . S
C866 O880 1.247 . S
O867 Tb856 2.347 . S
O867 C871 1.259 . S
O868 Eu857 2.418 . S
O868 C871 1.265 . S
O869 Eu857 2.384 . S
O869 C878 1.255 . S
O870 Tb856 2.366 . S
O870 C878 1.265 . S
C871 O867 1.259 . S
C871 O868 1.265 . S
O872 Eu857 2.479 . S
O872 C887 1.238 . S
O873 Eu857 2.471 . S
O873 C887 1.247 . S
O874 Eu857 2.347 . S
O874 C858 1.259 . S
O875 Tb856 2.418 . S
O875 C858 1.265 . S
O876 Tb856 2.384 . S
O876 C859 1.255 . S
O877 Eu857 2.366 . S
O877 C859 1.265 . S
C878 O869 1.255 . S
C878 O870 1.265 . S
O879 Tb856 2.479 . S
O879 C866 1.238 . S
O880 Tb856 2.471 . S
O880 C866 1.247 . S
C881 C884 1.380 . S
C881 C885 1.374 . S
C881 C887 1.507 . S
C882 C883 1.387 . S
C882 C886 1.391 . S
C883 C882 1.387 . S
C883 C884 1.384 . S
C883 H892 0.930 . S
C884 C881 1.380 . S
C884 C883 1.384 . S
C884 H893 0.931 . S
C885 C881 1.374 . S
C885 C886 1.390 . S
C885 H894 0.930 . S
C886 C882 1.391 . S
C886 C885 1.390 . S
C886 H895 0.930 . S
C887 Eu857 2.825 . S
C887 O872 1.238 . S
C887 O873 1.247 . S
C887 C881 1.507 . S
H888 C861 0.930 . S
H889 C862 0.931 . S
H890 C863 0.930 . S
H891 C864 0.930 . S
H892 C883 0.930 . S
H893 C884 0.931 . S
H894 C885 0.930 . S
H895 C886 0.930 . S
Tb896 C906 2.825 . S
Tb896 O907 2.347 . S
Tb896 O910 2.366 . S
Tb896 O915 2.418 . S
Tb896 O916 2.384 . S
Tb896 O919 2.479 . S
Tb896 O920 2.471 . S
Eu897 O908 2.418 . S
Eu897 O909 2.384 . S
Eu897 O912 2.479 . S
Eu897 O913 2.471 . S
Eu897 O914 2.347 . S
Eu897 O917 2.366 . S
Eu897 C927 2.825 . S
C898 O914 1.259 . S
C898 O915 1.265 . S
C899 O916 1.255 . S
C899 O917 1.265 . S
C900 C902 1.380 . S
C900 C903 1.374 . S
C900 C906 1.507 . S
C901 C902 1.384 . S
C901 C905 1.387 . S
C901 H928 0.930 . S
C902 C900 1.380 . S
C902 C901 1.384 . S
C902 H929 0.931 . S
C903 C900 1.374 . S
C903 C904 1.390 . S
C903 H930 0.930 . S
C904 C903 1.390 . S
C904 C905 1.391 . S
C904 H931 0.930 . S
C905 C901 1.387 . S
C905 C904 1.391 . S
C906 Tb896 2.825 . S
C906 C900 1.507 . S
C906 O919 1.238 . S
C906 O920 1.247 . S
O907 Tb896 2.347 . S
O907 C911 1.259 . S
O908 Eu897 2.418 . S
O908 C911 1.265 . S
O909 Eu897 2.384 . S
O909 C918 1.255 . S
O910 Tb896 2.366 . S
O910 C918 1.265 . S
C911 O907 1.259 . S
C911 O908 1.265 . S
O912 Eu897 2.479 . S
O912 C927 1.238 . S
O913 Eu897 2.471 . S
O913 C927 1.247 . S
O914 Eu897 2.347 . S
O914 C898 1.259 . S
O915 Tb896 2.418 . S
O915 C898 1.265 . S
O916 Tb896 2.384 . S
O916 C899 1.255 . S
O917 Eu897 2.366 . S
O917 C899 1.265 . S
C918 O909 1.255 . S
C918 O910 1.265 . S
O919 Tb896 2.479 . S
O919 C906 1.238 . S
O920 Tb896 2.471 . S
O920 C906 1.247 . S
C921 C924 1.380 . S
C921 C925 1.374 . S
C921 C927 1.507 . S
C922 C923 1.387 . S
C922 C926 1.391 . S
C923 C922 1.387 . S
C923 C924 1.384 . S
C923 H932 0.930 . S
C924 C921 1.380 . S
C924 C923 1.384 . S
C924 H933 0.931 . S
C925 C921 1.374 . S
C925 C926 1.390 . S
C925 H934 0.930 . S
C926 C922 1.391 . S
C926 C925 1.390 . S
C926 H935 0.930 . S
C927 Eu897 2.825 . S
C927 O912 1.238 . S
C927 O913 1.247 . S
C927 C921 1.507 . S
H928 C901 0.930 . S
H929 C902 0.931 . S
H930 C903 0.930 . S
H931 C904 0.930 . S
H932 C923 0.930 . S
H933 C924 0.931 . S
H934 C925 0.930 . S
H935 C926 0.930 . S
Tb936 C946 2.825 1_554 S
Tb936 O947 2.347 1_554 S
Tb936 O950 2.366 . S
Tb936 O955 2.418 . S
Tb936 O956 2.384 . S
Tb936 O959 2.479 . S
Tb936 O960 2.471 1_554 S
Eu937 O948 2.418 1_554 S
Eu937 O949 2.384 . S
Eu937 O952 2.479 . S
Eu937 O953 2.471 . S
Eu937 O954 2.347 . S
Eu937 O957 2.366 . S
Eu937 C967 2.825 . S
C938 O954 1.259 . S
C938 O955 1.265 . S
C939 O956 1.255 . S
C939 O957 1.265 . S
C940 C942 1.382 . S
C940 C943 1.374 . S
C940 C946 1.507 . S
C941 C942 1.386 . S
C941 C945 1.387 . S
C941 H968 0.930 . S
C942 C940 1.382 . S
C942 C941 1.386 . S
C942 H969 0.926 1_556 S
C943 C940 1.374 . S
C943 C944 1.390 . S
C943 H970 0.930 . S
C944 C943 1.390 . S
C944 C945 1.391 . S
C944 H971 0.930 . S
C945 C941 1.387 . S
C945 C944 1.391 . S
C946 Tb936 2.825 1_556 S
C946 C940 1.507 . S
C946 O959 1.238 1_556 S
C946 O960 1.247 . S
O947 Tb936 2.347 1_556 S
O947 C951 1.259 . S
O948 Eu937 2.418 1_556 S
O948 C951 1.265 . S
O949 Eu937 2.384 . S
O949 C958 1.255 . S
O950 Tb936 2.366 . S
O950 C958 1.265 . S
C951 O947 1.259 . S
C951 O948 1.265 . S
O952 Eu937 2.479 . S
O952 C967 1.238 . S
O953 Eu937 2.471 . S
O953 C967 1.247 . S
O954 Eu937 2.347 . S
O954 C938 1.259 . S
O955 Tb936 2.418 . S
O955 C938 1.265 . S
O956 Tb936 2.384 . S
O956 C939 1.255 . S
O957 Eu937 2.366 . S
O957 C939 1.265 . S
C958 O949 1.255 . S
C958 O950 1.265 . S
O959 Tb936 2.479 . S
O959 C946 1.238 1_554 S
O960 Tb936 2.471 1_556 S
O960 C946 1.247 . S
C961 C964 1.380 . S
C961 C965 1.374 . S
C961 C967 1.507 . S
C962 C963 1.387 . S
C962 C966 1.391 . S
C963 C962 1.387 . S
C963 C964 1.384 . S
C963 H972 0.930 . S
C964 C961 1.380 . S
C964 C963 1.384 . S
C964 H973 0.931 . S
C965 C961 1.374 . S
C965 C966 1.390 . S
C965 H974 0.930 . S
C966 C962 1.391 . S
C966 C965 1.390 . S
C966 H975 0.930 . S
C967 Eu937 2.825 . S
C967 O952 1.238 . S
C967 O953 1.247 . S
C967 C961 1.507 . S
H968 C941 0.930 . S
H969 C942 0.926 1_554 S
H970 C943 0.930 . S
H971 C944 0.930 . S
H972 C963 0.930 . S
H973 C964 0.931 . S
H974 C965 0.930 . S
H975 C966 0.930 . S
C976 C977 1.369 . S
C976 C978 1.419 . S
C976 H980 0.930 . S
C977 C976 1.369 . S
C977 C986 1.429 . S
C978 C976 1.419 . S
C978 C979 1.364 . S
C978 H981 0.929 . S
C979 C978 1.364 . S
C979 C985 1.428 1_556 S
H980 C976 0.930 . S
H981 C978 0.929 . S
S982 N983 1.613 1_554 S
S982 N984 1.610 1_655 S
N983 S982 1.613 1_556 S
N983 C986 1.350 1_655 S
N984 S982 1.610 1_455 S
N984 C985 1.351 . S
C985 C979 1.428 1_554 S
C985 N984 1.351 . S
C985 C986 1.434 1_554 S
C986 C977 1.429 . S
C986 N983 1.350 1_455 S
C986 C985 1.434 1_556 S
C987 C988 1.369 . S
C987 C989 1.419 . S
C987 H991 0.930 . S
C988 C987 1.369 . S
C988 C997 1.429 . S
C989 C987 1.419 . S
C989 C990 1.363 . S
C989 H992 0.929 . S
C990 C989 1.363 . S
C990 C996 1.428 . S
H991 C987 0.930 . S
H992 C989 0.929 . S
S993 N994 1.613 . S
S993 N995 1.610 . S
N994 S993 1.613 . S
N994 C997 1.350 . S
N995 S993 1.610 . S
N995 C996 1.351 . S
C996 C990 1.428 . S
C996 N995 1.351 . S
C996 C997 1.434 . S
C997 C988 1.429 . S
C997 N994 1.350 . S
C997 C996 1.434 . S
C998 C999 1.369 . S
C998 C1000 1.419 . S
C998 H1002 0.930 . S
C999 C998 1.369 . S
C999 C1008 1.429 . S
C1000 C998 1.419 . S
C1000 C1001 1.363 . S
C1000 H1003 0.929 . S
C1001 C1000 1.363 . S
C1001 C1007 1.428 . S
H1002 C998 0.930 . S
H1003 C1000 0.929 . S
S1004 N1005 1.613 . S
S1004 N1006 1.610 . S
N1005 S1004 1.613 . S
N1005 C1008 1.350 . S
N1006 S1004 1.610 . S
N1006 C1007 1.351 . S
C1007 C1001 1.428 . S
C1007 N1006 1.351 . S
C1007 C1008 1.434 . S
C1008 C999 1.429 . S
C1008 N1005 1.350 . S
C1008 C1007 1.434 . S
C1009 C1010 1.369 . S
C1009 C1011 1.419 . S
C1009 H1013 0.930 . S
C1010 C1009 1.369 . S
C1010 C1019 1.429 . S
C1011 C1009 1.419 . S
C1011 C1012 1.363 . S
C1011 H1014 0.929 . S
C1012 C1011 1.363 . S
C1012 C1018 1.428 . S
H1013 C1009 0.930 . S
H1014 C1011 0.929 . S
S1015 N1016 1.613 . S
S1015 N1017 1.610 . S
N1016 S1015 1.613 . S
N1016 C1019 1.350 . S
N1017 S1015 1.610 . S
N1017 C1018 1.351 . S
C1018 C1012 1.428 . S
C1018 N1017 1.351 . S
C1018 C1019 1.434 . S
C1019 C1010 1.429 . S
C1019 N1016 1.350 . S
C1019 C1018 1.434 . S
C1020 C1021 1.369 . S
C1020 C1022 1.419 . S
C1020 H1024 0.930 . S
C1021 C1020 1.369 . S
C1021 C1030 1.429 . S
C1022 C1020 1.419 . S
C1022 C1023 1.363 . S
C1022 H1025 0.929 . S
C1023 C1022 1.363 . S
C1023 C1029 1.428 . S
H1024 C1020 0.930 . S
H1025 C1022 0.929 . S
S1026 N1027 1.613 . S
S1026 N1028 1.610 . S
N1027 S1026 1.613 . S
N1027 C1030 1.350 . S
N1028 S1026 1.610 . S
N1028 C1029 1.351 . S
C1029 C1023 1.428 . S
C1029 N1028 1.351 . S
C1029 C1030 1.434 . S
C1030 C1021 1.429 . S
C1030 N1027 1.350 . S
C1030 C1029 1.434 . S
C1031 C1032 1.369 . S
C1031 C1033 1.419 . S
C1031 H1035 0.930 . S
C1032 C1031 1.369 . S
C1032 C1041 1.429 . S
C1033 C1031 1.419 . S
C1033 C1034 1.363 . S
C1033 H1036 0.929 . S
C1034 C1033 1.363 . S
C1034 C1040 1.428 . S
H1035 C1031 0.930 . S
H1036 C1033 0.929 . S
S1037 N1038 1.613 . S
S1037 N1039 1.610 . S
N1038 S1037 1.613 . S
N1038 C1041 1.350 . S
N1039 S1037 1.610 . S
N1039 C1040 1.351 . S
C1040 C1034 1.428 . S
C1040 N1039 1.351 . S
C1040 C1041 1.434 . S
C1041 C1032 1.429 . S
C1041 N1038 1.350 . S
C1041 C1040 1.434 . S
C1042 C1043 1.369 . S
C1042 C1044 1.419 . S
C1042 H1046 0.930 . S
C1043 C1042 1.369 . S
C1043 C1052 1.429 . S
C1044 C1042 1.419 . S
C1044 C1045 1.363 . S
C1044 H1047 0.929 . S
C1045 C1044 1.363 . S
C1045 C1051 1.428 . S
H1046 C1042 0.930 . S
H1047 C1044 0.929 . S
S1048 N1049 1.613 . S
S1048 N1050 1.610 . S
N1049 S1048 1.613 . S
N1049 C1052 1.350 . S
N1050 S1048 1.610 . S
N1050 C1051 1.351 . S
C1051 C1045 1.428 . S
C1051 N1050 1.351 . S
C1051 C1052 1.434 . S
C1052 C1043 1.429 . S
C1052 N1049 1.350 . S
C1052 C1051 1.434 . S
C1053 C1054 1.369 . S
C1053 C1055 1.419 . S
C1053 H1057 0.930 . S
C1054 C1053 1.369 . S
C1054 C1063 1.429 . S
C1055 C1053 1.419 . S
C1055 C1056 1.363 . S
C1055 H1058 0.929 . S
C1056 C1055 1.363 . S
C1056 C1062 1.428 . S
H1057 C1053 0.930 . S
H1058 C1055 0.929 . S
S1059 N1060 1.613 . S
S1059 N1061 1.610 . S
N1060 S1059 1.613 . S
N1060 C1063 1.350 . S
N1061 S1059 1.610 . S
N1061 C1062 1.351 . S
C1062 C1056 1.428 . S
C1062 N1061 1.351 . S
C1062 C1063 1.434 . S
C1063 C1054 1.429 . S
C1063 N1060 1.350 . S
C1063 C1062 1.434 . S
C1064 C1065 1.369 . S
C1064 C1066 1.419 . S
C1064 H1068 0.930 . S
C1065 C1064 1.369 . S
C1065 C1074 1.455 . S
C1066 C1064 1.419 . S
C1066 C1067 1.363 1_655 S
C1066 H1069 0.929 . S
C1067 C1066 1.363 1_455 S
C1067 C1073 1.428 . S
H1068 C1064 0.930 . S
H1069 C1066 0.929 . S
S1070 N1071 1.613 1_455 S
S1070 N1072 1.624 . S
N1071 S1070 1.613 1_655 S
N1071 C1074 1.311 1_565 S
N1072 S1070 1.624 . S
N1072 C1073 1.339 1_565 S
C1073 C1067 1.428 . S
C1073 N1072 1.339 1_545 S
C1073 C1074 1.447 1_455 S
C1074 C1065 1.455 . S
C1074 N1071 1.311 1_545 S
C1074 C1073 1.447 1_655 S
C1075 C1076 1.369 . S
C1075 C1077 1.419 . S
C1075 H1079 0.930 . S
C1076 C1075 1.369 . S
C1076 C1085 1.429 . S
C1077 C1075 1.419 . S
C1077 C1078 1.363 . S
C1077 H1080 0.929 . S
C1078 C1077 1.363 . S
C1078 C1084 1.428 . S
H1079 C1075 0.930 . S
H1080 C1077 0.929 . S
S1081 N1082 1.613 . S
S1081 N1083 1.610 . S
N1082 S1081 1.613 . S
N1082 C1085 1.350 . S
N1083 S1081 1.610 . S
N1083 C1084 1.351 . S
C1084 C1078 1.428 . S
C1084 N1083 1.351 . S
C1084 C1085 1.434 . S
C1085 C1076 1.429 . S
C1085 N1082 1.350 . S
C1085 C1084 1.434 . S
C1086 C1087 1.369 . S
C1086 C1088 1.419 . S
C1086 H1090 0.930 . S
C1087 C1086 1.369 . S
C1087 C1096 1.429 1_545 S
C1088 C1086 1.419 . S
C1088 C1089 1.363 . S
C1088 H1091 0.929 . S
C1089 C1088 1.363 . S
C1089 C1095 1.428 . S
H1090 C1086 0.930 . S
H1091 C1088 0.929 . S
S1092 N1093 1.613 . S
S1092 N1094 1.607 . S
N1093 S1092 1.613 . S
N1093 C1096 1.350 . S
N1094 S1092 1.607 . S
N1094 C1095 1.352 1_565 S
C1095 C1089 1.428 . S
C1095 N1094 1.352 1_545 S
C1095 C1096 1.434 1_545 S
C1096 C1087 1.429 1_565 S
C1096 N1093 1.350 . S
C1096 C1095 1.434 1_565 S
C1097 C1098 1.369 . S
C1097 C1099 1.419 . S
C1097 H1101 0.930 . S
C1098 C1097 1.369 . S
C1098 C1107 1.429 . S
C1099 C1097 1.419 . S
C1099 C1100 1.363 . S
C1099 H1102 0.929 . S
C1100 C1099 1.363 . S
C1100 C1106 1.428 . S
H1101 C1097 0.930 . S
H1102 C1099 0.929 . S
S1103 N1104 1.613 . S
S1103 N1105 1.610 . S
N1104 S1103 1.613 . S
N1104 C1107 1.350 . S
N1105 S1103 1.610 . S
N1105 C1106 1.351 . S
C1106 C1100 1.428 . S
C1106 N1105 1.351 . S
C1106 C1107 1.434 . S
C1107 C1098 1.429 . S
C1107 N1104 1.350 . S
C1107 C1106 1.434 . S
C1108 C1109 1.369 1_565 S
C1108 C1110 1.419 1_565 S
C1108 H1112 0.930 . S
C1109 C1108 1.369 1_545 S
C1109 C1118 1.429 . S
C1110 C1108 1.419 1_545 S
C1110 C1111 1.363 . S
C1110 H1113 0.945 . S
C1111 C1110 1.363 . S
C1111 C1117 1.428 . S
H1112 C1108 0.930 . S
H1113 C1110 0.945 . S
S1114 N1115 1.613 . S
S1114 N1116 1.610 . S
N1115 S1114 1.613 . S
N1115 C1118 1.350 . S
N1116 S1114 1.610 . S
N1116 C1117 1.351 . S
C1117 C1111 1.428 . S
C1117 N1116 1.351 . S
C1117 C1118 1.434 . S
C1118 C1109 1.429 . S
C1118 N1115 1.350 . S
C1118 C1117 1.434 . S
C1119 C1120 1.369 . S
C1119 C1121 1.419 . S
C1119 H1123 0.930 . S
C1120 C1119 1.369 . S
C1120 C1129 1.429 . S
C1121 C1119 1.419 . S
C1121 C1122 1.363 . S
C1121 H1124 0.929 . S
C1122 C1121 1.363 . S
C1122 C1128 1.428 . S
H1123 C1119 0.930 . S
H1124 C1121 0.929 . S
S1125 N1126 1.613 . S
S1125 N1127 1.610 . S
N1126 S1125 1.613 . S
N1126 C1129 1.350 . S
N1127 S1125 1.610 . S
N1127 C1128 1.351 . S
C1128 C1122 1.428 . S
C1128 N1127 1.351 . S
C1128 C1129 1.434 . S
C1129 C1120 1.429 . S
C1129 N1126 1.350 . S
C1129 C1128 1.434 . S
C1130 C1131 1.369 . S
C1130 C1132 1.419 . S
C1130 H1134 0.930 . S
C1131 C1130 1.369 . S
C1131 C1140 1.429 . S
C1132 C1130 1.419 . S
C1132 C1133 1.363 . S
C1132 H1135 0.929 . S
C1133 C1132 1.363 . S
C1133 C1139 1.428 . S
H1134 C1130 0.930 . S
H1135 C1132 0.929 . S
S1136 N1137 1.613 . S
S1136 N1138 1.610 . S
N1137 S1136 1.613 . S
N1137 C1140 1.350 . S
N1138 S1136 1.610 . S
N1138 C1139 1.351 . S
C1139 C1133 1.428 . S
C1139 N1138 1.351 . S
C1139 C1140 1.434 . S
C1140 C1131 1.429 . S
C1140 N1137 1.350 . S
C1140 C1139 1.434 . S
C1141 C1142 1.369 . S
C1141 C1143 1.419 . S
C1141 H1145 0.930 . S
C1142 C1141 1.369 . S
C1142 C1151 1.429 . S
C1143 C1141 1.419 . S
C1143 C1144 1.363 . S
C1143 H1146 0.929 . S
C1144 C1143 1.363 . S
C1144 C1150 1.428 . S
H1145 C1141 0.930 . S
H1146 C1143 0.929 . S
S1147 N1148 1.613 . S
S1147 N1149 1.610 . S
N1148 S1147 1.613 . S
N1148 C1151 1.350 . S
N1149 S1147 1.610 . S
N1149 C1150 1.351 . S
C1150 C1144 1.428 . S
C1150 N1149 1.351 . S
C1150 C1151 1.434 . S
C1151 C1142 1.429 . S
C1151 N1148 1.350 . S
C1151 C1150 1.434 . S
C1152 C1153 1.369 . S
C1152 C1154 1.419 . S
C1152 H1156 0.930 . S
C1153 C1152 1.369 . S
C1153 C1162 1.429 . S
C1154 C1152 1.419 . S
C1154 C1155 1.363 . S
C1154 H1157 0.929 . S
C1155 C1154 1.363 . S
C1155 C1161 1.428 . S
H1156 C1152 0.930 . S
H1157 C1154 0.929 . S
S1158 N1159 1.613 1_545 S
S1158 N1160 1.610 . S
N1159 S1158 1.613 1_565 S
N1159 C1162 1.350 . S
N1160 S1158 1.610 . S
N1160 C1161 1.351 1_545 S
C1161 C1155 1.428 . S
C1161 N1160 1.351 1_565 S
C1161 C1162 1.434 . S
C1162 C1153 1.429 . S
C1162 N1159 1.350 . S
C1162 C1161 1.434 . S
C1163 C1164 1.369 . S
C1163 C1165 1.419 . S
C1163 H1167 0.932 . S
C1164 C1163 1.369 . S
C1164 C1173 1.429 . S
C1165 C1163 1.419 . S
C1165 C1166 1.363 . S
C1165 H1168 0.929 . S
C1166 C1165 1.363 . S
C1166 C1172 1.428 . S
H1167 C1163 0.932 . S
H1168 C1165 0.929 . S
S1169 N1170 1.613 . S
S1169 N1171 1.610 . S
N1170 S1169 1.613 . S
N1170 C1173 1.350 . S
N1171 S1169 1.610 . S
N1171 C1172 1.351 . S
C1172 C1166 1.428 . S
C1172 N1171 1.351 . S
C1172 C1173 1.434 . S
C1173 C1164 1.429 . S
C1173 N1170 1.350 . S
C1173 C1172 1.434 . S
C1174 C1175 1.369 . S
C1174 C1176 1.419 . S
C1174 H1178 0.930 . S
C1175 C1174 1.369 . S
C1175 C1184 1.429 . S
C1176 C1174 1.419 . S
C1176 C1177 1.363 . S
C1176 H1179 0.929 . S
C1177 C1176 1.363 . S
C1177 C1183 1.428 . S
H1178 C1174 0.930 . S
H1179 C1176 0.929 . S
S1180 N1181 1.613 . S
S1180 N1182 1.610 . S
N1181 S1180 1.613 . S
N1181 C1184 1.350 . S
N1182 S1180 1.610 . S
N1182 C1183 1.351 . S
C1183 C1177 1.428 . S
C1183 N1182 1.351 . S
C1183 C1184 1.434 . S
C1184 C1175 1.429 . S
C1184 N1181 1.350 . S
C1184 C1183 1.434 . S
C1185 C1186 1.369 . S
C1185 C1187 1.419 . S
C1185 H1189 0.930 . S
C1186 C1185 1.369 . S
C1186 C1195 1.429 . S
C1187 C1185 1.419 . S
C1187 C1188 1.363 . S
C1187 H1190 0.929 . S
C1188 C1187 1.363 . S
C1188 C1194 1.428 . S
H1189 C1185 0.930 . S
H1190 C1187 0.929 . S
S1191 N1192 1.613 . S
S1191 N1193 1.610 . S
N1192 S1191 1.613 . S
N1192 C1195 1.350 . S
N1193 S1191 1.610 . S
N1193 C1194 1.351 . S
C1194 C1188 1.428 . S
C1194 N1193 1.351 . S
C1194 C1195 1.434 . S
C1195 C1186 1.429 . S
C1195 N1192 1.350 . S
C1195 C1194 1.434 . S
C1196 C1197 1.369 . S
C1196 C1198 1.419 . S
C1196 H1200 0.930 . S
C1197 C1196 1.369 . S
C1197 C1206 1.429 . S
C1198 C1196 1.419 . S
C1198 C1199 1.363 . S
C1198 H1201 0.929 . S
C1199 C1198 1.363 . S
C1199 C1205 1.428 . S
H1200 C1196 0.930 . S
H1201 C1198 0.929 . S
S1202 N1203 1.613 . S
S1202 N1204 1.610 . S
N1203 S1202 1.613 . S
N1203 C1206 1.350 . S
N1204 S1202 1.610 . S
N1204 C1205 1.351 . S
C1205 C1199 1.428 . S
C1205 N1204 1.351 . S
C1205 C1206 1.434 . S
C1206 C1197 1.429 . S
C1206 N1203 1.350 . S
C1206 C1205 1.434 . S
C1207 C1208 1.369 . S
C1207 C1209 1.419 . S
C1207 H1211 0.930 . S
C1208 C1207 1.369 . S
C1208 C1217 1.429 . S
C1209 C1207 1.419 . S
C1209 C1210 1.363 . S
C1209 H1212 0.929 . S
C1210 C1209 1.363 . S
C1210 C1216 1.428 . S
H1211 C1207 0.930 . S
H1212 C1209 0.929 . S
S1213 N1214 1.613 . S
S1213 N1215 1.610 . S
N1214 S1213 1.613 . S
N1214 C1217 1.350 . S
N1215 S1213 1.610 . S
N1215 C1216 1.351 . S
C1216 C1210 1.428 . S
C1216 N1215 1.351 . S
C1216 C1217 1.434 . S
C1217 C1208 1.429 . S
C1217 N1214 1.350 . S
C1217 C1216 1.434 . S
C1218 C1219 1.369 . S
C1218 C1220 1.419 . S
C1218 H1222 0.930 . S
C1219 C1218 1.369 . S
C1219 C1228 1.429 . S
C1220 C1218 1.419 . S
C1220 C1221 1.363 . S
C1220 H1223 0.929 . S
C1221 C1220 1.363 . S
C1221 C1227 1.428 . S
H1222 C1218 0.930 . S
H1223 C1220 0.929 . S
S1224 N1225 1.613 . S
S1224 N1226 1.610 . S
N1225 S1224 1.613 . S
N1225 C1228 1.350 . S
N1226 S1224 1.610 . S
N1226 C1227 1.351 . S
C1227 C1221 1.428 . S
C1227 N1226 1.351 . S
C1227 C1228 1.434 . S
C1228 C1219 1.429 . S
C1228 N1225 1.350 . S
C1228 C1227 1.434 . S
C1229 C1230 1.369 . S
C1229 C1231 1.419 . S
C1229 H1233 0.930 . S
C1230 C1229 1.369 . S
C1230 C1239 1.429 . S
C1231 C1229 1.419 . S
C1231 C1232 1.363 . S
C1231 H1234 0.929 . S
C1232 C1231 1.363 . S
C1232 C1238 1.428 . S
H1233 C1229 0.930 . S
H1234 C1231 0.929 . S
S1235 N1236 1.610 . S
S1235 N1237 1.588 1_455 S
N1236 S1235 1.610 . S
N1236 C1239 1.350 1_455 S
N1237 S1235 1.588 1_655 S
N1237 C1238 1.351 . S
C1238 C1232 1.428 . S
C1238 N1237 1.351 . S
C1238 C1239 1.434 . S
C1239 C1230 1.429 . S
C1239 N1236 1.350 1_655 S
C1239 C1238 1.434 . S
C1240 C1241 1.369 . S
C1240 C1242 1.419 . S
C1240 H1244 0.930 . S
C1241 C1240 1.369 . S
C1241 C1250 1.429 . S
C1242 C1240 1.419 . S
C1242 C1243 1.363 . S
C1242 H1245 0.929 . S
C1243 C1242 1.363 . S
C1243 C1249 1.428 . S
H1244 C1240 0.930 . S
H1245 C1242 0.929 . S
S1246 N1247 1.613 . S
S1246 N1248 1.610 . S
N1247 S1246 1.613 . S
N1247 C1250 1.350 . S
N1248 S1246 1.610 . S
N1248 C1249 1.351 . S
C1249 C1243 1.428 . S
C1249 N1248 1.351 . S
C1249 C1250 1.434 . S
C1250 C1241 1.429 . S
C1250 N1247 1.350 . S
C1250 C1249 1.434 . S
C1251 C1252 1.369 . S
C1251 C1253 1.419 . S
C1251 H1255 0.930 . S
C1252 C1251 1.369 . S
C1252 C1261 1.429 . S
C1253 C1251 1.419 . S
C1253 C1254 1.363 . S
C1253 H1256 0.929 . S
C1254 C1253 1.363 . S
C1254 C1260 1.428 . S
H1255 C1251 0.930 . S
H1256 C1253 0.929 . S
S1257 N1258 1.613 . S
S1257 N1259 1.610 . S
N1258 S1257 1.613 . S
N1258 C1261 1.350 . S
N1259 S1257 1.610 . S
N1259 C1260 1.351 . S
C1260 C1254 1.428 . S
C1260 N1259 1.351 . S
C1260 C1261 1.434 . S
C1261 C1252 1.429 . S
C1261 N1258 1.350 . S
C1261 C1260 1.434 . S
C1262 C1263 1.369 . S
C1262 C1264 1.419 . S
C1262 H1266 0.930 . S
C1263 C1262 1.369 . S
C1263 C1272 1.429 . S
C1264 C1262 1.419 . S
C1264 C1265 1.363 . S
C1264 H1267 0.929 . S
C1265 C1264 1.363 . S
C1265 C1271 1.428 . S
H1266 C1262 0.930 . S
H1267 C1264 0.929 . S
S1268 N1269 1.613 . S
S1268 N1270 1.610 . S
N1269 S1268 1.613 . S
N1269 C1272 1.350 . S
N1270 S1268 1.610 . S
N1270 C1271 1.351 . S
C1271 C1265 1.428 . S
C1271 N1270 1.351 . S
C1271 C1272 1.434 . S
C1272 C1263 1.429 . S
C1272 N1269 1.350 . S
C1272 C1271 1.434 . S
C1273 C1274 1.369 . S
C1273 C1275 1.419 . S
C1273 H1277 0.930 . S
C1274 C1273 1.369 . S
C1274 C1283 1.429 . S
C1275 C1273 1.419 . S
C1275 C1276 1.363 . S
C1275 H1278 0.929 . S
C1276 C1275 1.363 . S
C1276 C1282 1.428 . S
H1277 C1273 0.930 . S
H1278 C1275 0.929 . S
S1279 N1280 1.613 . S
S1279 N1281 1.610 . S
N1280 S1279 1.613 . S
N1280 C1283 1.350 . S
N1281 S1279 1.610 . S
N1281 C1282 1.351 . S
C1282 C1276 1.428 . S
C1282 N1281 1.351 . S
C1282 C1283 1.434 . S
C1283 C1274 1.429 . S
C1283 N1280 1.350 . S
C1283 C1282 1.434 . S
C1284 C1285 1.369 . S
C1284 C1286 1.419 . S
C1284 H1288 0.930 . S
C1285 C1284 1.369 . S
C1285 C1294 1.429 . S
C1286 C1284 1.419 . S
C1286 C1287 1.363 . S
C1286 H1289 0.929 . S
C1287 C1286 1.363 . S
C1287 C1293 1.428 . S
H1288 C1284 0.930 . S
H1289 C1286 0.929 . S
S1290 N1291 1.608 1_655 S
S1290 N1292 1.603 1_655 S
N1291 S1290 1.608 1_455 S
N1291 C1294 1.350 . S
N1292 S1290 1.603 1_455 S
N1292 C1293 1.351 . S
C1293 C1287 1.428 . S
C1293 N1292 1.351 . S
C1293 C1294 1.434 . S
C1294 C1285 1.429 . S
C1294 N1291 1.350 . S
C1294 C1293 1.434 . S
C1295 C1296 1.369 . S
C1295 C1297 1.419 . S
C1295 H1299 0.930 . S
C1296 C1295 1.369 . S
C1296 C1305 1.429 . S
C1297 C1295 1.419 . S
C1297 C1298 1.363 . S
C1297 H1300 0.929 . S
C1298 C1297 1.363 . S
C1298 C1304 1.428 . S
H1299 C1295 0.930 . S
H1300 C1297 0.929 . S
S1301 N1302 1.613 . S
S1301 N1303 1.610 . S
N1302 S1301 1.613 . S
N1302 C1305 1.350 . S
N1303 S1301 1.610 . S
N1303 C1304 1.351 . S
C1304 C1298 1.428 . S
C1304 N1303 1.351 . S
C1304 C1305 1.434 . S
C1305 C1296 1.429 . S
C1305 N1302 1.350 . S
C1305 C1304 1.434 . S
C1306 C1307 1.369 . S
C1306 C1308 1.419 . S
C1306 H1310 0.930 . S
C1307 C1306 1.369 . S
C1307 C1316 1.429 . S
C1308 C1306 1.419 . S
C1308 C1309 1.363 . S
C1308 H1311 0.929 . S
C1309 C1308 1.363 . S
C1309 C1315 1.428 . S
H1310 C1306 0.930 . S
H1311 C1308 0.929 . S
S1312 N1313 1.613 1_554 S
S1312 N1314 1.610 . S
N1313 S1312 1.613 1_556 S
N1313 C1316 1.350 . S
N1314 S1312 1.610 . S
N1314 C1315 1.351 1_554 S
C1315 C1309 1.428 . S
C1315 N1314 1.351 1_556 S
C1315 C1316 1.434 . S
C1316 C1307 1.429 . S
C1316 N1313 1.350 . S
C1316 C1315 1.434 . S
C1317 C1318 1.369 . S
C1317 C1319 1.419 . S
C1317 H1321 0.930 . S
C1318 C1317 1.369 . S
C1318 C1327 1.429 . S
C1319 C1317 1.419 . S
C1319 C1320 1.363 . S
C1319 H1322 0.929 . S
C1320 C1319 1.363 . S
C1320 C1326 1.428 . S
H1321 C1317 0.930 . S
H1322 C1319 0.929 . S
S1323 N1324 1.613 . S
S1323 N1325 1.610 . S
N1324 S1323 1.613 . S
N1324 C1327 1.350 . S
N1325 S1323 1.610 . S
N1325 C1326 1.351 . S
C1326 C1320 1.428 . S
C1326 N1325 1.351 . S
C1326 C1327 1.434 . S
C1327 C1318 1.429 . S
C1327 N1324 1.350 . S
C1327 C1326 1.434 . S
C1328 C1329 1.369 . S
C1328 C1330 1.419 . S
C1328 H1332 0.930 . S
C1329 C1328 1.369 . S
C1329 C1338 1.429 . S
C1330 C1328 1.419 . S
C1330 C1331 1.363 . S
C1330 H1333 0.925 1_556 S
C1331 C1330 1.363 . S
C1331 C1337 1.428 . S
H1332 C1328 0.930 . S
H1333 C1330 0.925 1_554 S
S1334 N1335 1.613 . S
S1334 N1336 1.610 . S
N1335 S1334 1.613 . S
N1335 C1338 1.350 . S
N1336 S1334 1.610 . S
N1336 C1337 1.351 . S
C1337 C1331 1.428 . S
C1337 N1336 1.351 . S
C1337 C1338 1.434 . S
C1338 C1329 1.429 . S
C1338 N1335 1.350 . S
C1338 C1337 1.434 . S
C1339 C1340 1.369 . S
C1339 C1341 1.419 . S
C1339 H1343 0.930 . S
C1340 C1339 1.369 . S
C1340 C1349 1.429 . S
C1341 C1339 1.419 . S
C1341 C1342 1.363 . S
C1341 H1344 0.929 . S
C1342 C1341 1.363 . S
C1342 C1348 1.428 . S
H1343 C1339 0.930 . S
H1344 C1341 0.929 . S
S1345 N1346 1.613 . S
S1345 N1347 1.610 . S
N1346 S1345 1.613 . S
N1346 C1349 1.350 . S
N1347 S1345 1.610 . S
N1347 C1348 1.351 . S
C1348 C1342 1.428 . S
C1348 N1347 1.351 . S
C1348 C1349 1.434 . S
C1349 C1340 1.429 . S
C1349 N1346 1.350 . S
C1349 C1348 1.434 . S
C1350 C1351 1.369 . S
C1350 C1352 1.419 . S
C1350 H1354 0.930 . S
C1351 C1350 1.369 . S
C1351 C1360 1.429 . S
C1352 C1350 1.419 . S
C1352 C1353 1.363 . S
C1352 H1355 0.929 . S
C1353 C1352 1.363 . S
C1353 C1359 1.428 . S
H1354 C1350 0.930 . S
H1355 C1352 0.929 . S
S1356 N1357 1.613 . S
S1356 N1358 1.610 . S
N1357 S1356 1.613 . S
N1357 C1360 1.350 . S
N1358 S1356 1.610 . S
N1358 C1359 1.351 . S
C1359 C1353 1.428 . S
C1359 N1358 1.351 . S
C1359 C1360 1.434 . S
C1360 C1351 1.429 . S
C1360 N1357 1.350 . S
C1360 C1359 1.434 . S
C1361 C1362 1.369 . S
C1361 C1363 1.419 . S
C1361 H1365 0.930 . S
C1362 C1361 1.369 . S
C1362 C1371 1.429 . S
C1363 C1361 1.419 . S
C1363 C1364 1.363 . S
C1363 H1366 0.929 . S
C1364 C1363 1.363 . S
C1364 C1370 1.428 . S
H1365 C1361 0.930 . S
H1366 C1363 0.929 . S
S1367 N1368 1.613 . S
S1367 N1369 1.610 . S
N1368 S1367 1.613 . S
N1368 C1371 1.350 . S
N1369 S1367 1.610 . S
N1369 C1370 1.351 . S
C1370 C1364 1.428 . S
C1370 N1369 1.351 . S
C1370 C1371 1.434 . S
C1371 C1362 1.429 . S
C1371 N1368 1.350 . S
C1371 C1370 1.434 . S
C1372 C1373 1.369 . S
C1372 C1374 1.419 . S
C1372 H1376 0.930 . S
C1373 C1372 1.369 . S
C1373 C1382 1.429 . S
C1374 C1372 1.419 . S
C1374 C1375 1.363 . S
C1374 H1377 0.929 . S
C1375 C1374 1.363 . S
C1375 C1381 1.428 . S
H1376 C1372 0.930 . S
H1377 C1374 0.929 . S
S1378 N1379 1.613 . S
S1378 N1380 1.610 . S
N1379 S1378 1.613 . S
N1379 C1382 1.350 . S
N1380 S1378 1.610 . S
N1380 C1381 1.351 . S
C1381 C1375 1.428 . S
C1381 N1380 1.351 . S
C1381 C1382 1.434 . S
C1382 C1373 1.429 . S
C1382 N1379 1.350 . S
C1382 C1381 1.434 . S
C1383 C1384 1.369 . S
C1383 C1385 1.419 . S
C1383 H1387 0.930 . S
C1384 C1383 1.369 . S
C1384 C1393 1.429 . S
C1385 C1383 1.419 . S
C1385 C1386 1.363 . S
C1385 H1388 0.929 . S
C1386 C1385 1.363 . S
C1386 C1392 1.428 . S
H1387 C1383 0.930 . S
H1388 C1385 0.929 . S
S1389 N1390 1.613 . S
S1389 N1391 1.610 . S
N1390 S1389 1.613 . S
N1390 C1393 1.350 . S
N1391 S1389 1.610 . S
N1391 C1392 1.351 . S
C1392 C1386 1.428 . S
C1392 N1391 1.351 . S
C1392 C1393 1.434 . S
C1393 C1384 1.429 . S
C1393 N1390 1.350 . S
C1393 C1392 1.434 . S
C1394 C1395 1.369 . S
C1394 C1396 1.419 . S
C1394 H1398 0.930 . S
C1395 C1394 1.369 . S
C1395 C1404 1.429 . S
C1396 C1394 1.419 . S
C1396 C1397 1.363 . S
C1396 H1399 0.929 . S
C1397 C1396 1.363 . S
C1397 C1403 1.428 . S
H1398 C1394 0.930 . S
H1399 C1396 0.929 . S
S1400 N1401 1.613 . S
S1400 N1402 1.610 . S
N1401 S1400 1.613 . S
N1401 C1404 1.350 . S
N1402 S1400 1.610 . S
N1402 C1403 1.351 . S
C1403 C1397 1.428 . S
C1403 N1402 1.351 . S
C1403 C1404 1.434 . S
C1404 C1395 1.429 . S
C1404 N1401 1.350 . S
C1404 C1403 1.434 . S
C1405 C1406 1.369 . S
C1405 C1407 1.419 . S
C1405 H1409 0.930 . S
C1406 C1405 1.369 . S
C1406 C1415 1.429 . S
C1407 C1405 1.419 . S
C1407 C1408 1.363 . S
C1407 H1410 0.929 . S
C1408 C1407 1.363 . S
C1408 C1414 1.428 . S
H1409 C1405 0.930 . S
H1410 C1407 0.929 . S
S1411 N1412 1.613 . S
S1411 N1413 1.610 . S
N1412 S1411 1.613 . S
N1412 C1415 1.350 . S
N1413 S1411 1.610 . S
N1413 C1414 1.351 . S
C1414 C1408 1.428 . S
C1414 N1413 1.351 . S
C1414 C1415 1.434 . S
C1415 C1406 1.429 . S
C1415 N1412 1.350 . S
C1415 C1414 1.434 . S
C1416 C1417 1.369 . S
C1416 C1418 1.419 . S
C1416 H1420 0.930 . S
C1417 C1416 1.369 . S
C1417 C1426 1.429 . S
C1418 C1416 1.419 . S
C1418 C1419 1.363 . S
C1418 H1421 0.929 . S
C1419 C1418 1.363 . S
C1419 C1425 1.428 . S
H1420 C1416 0.930 . S
H1421 C1418 0.929 . S
S1422 N1423 1.613 . S
S1422 N1424 1.610 . S
N1423 S1422 1.613 . S
N1423 C1426 1.350 . S
N1424 S1422 1.610 . S
N1424 C1425 1.351 . S
C1425 C1419 1.428 . S
C1425 N1424 1.351 . S
C1425 C1426 1.434 . S
C1426 C1417 1.429 . S
C1426 N1423 1.350 . S
C1426 C1425 1.434 . S
C1427 C1428 1.369 . S
C1427 C1429 1.419 . S
C1427 H1431 0.930 . S
C1428 C1427 1.369 . S
C1428 C1437 1.429 . S
C1429 C1427 1.419 . S
C1429 C1430 1.363 . S
C1429 H1432 0.929 . S
C1430 C1429 1.363 . S
C1430 C1436 1.428 . S
H1431 C1427 0.930 . S
H1432 C1429 0.929 . S
S1433 N1434 1.608 1_556 S
S1433 N1435 1.610 . S
N1434 S1433 1.608 1_554 S
N1434 C1437 1.354 . S
N1435 S1433 1.610 . S
N1435 C1436 1.351 1_556 S
C1436 C1430 1.428 . S
C1436 N1435 1.351 1_554 S
C1436 C1437 1.434 . S
C1437 C1428 1.429 . S
C1437 N1434 1.354 . S
C1437 C1436 1.434 . S
C1438 C1439 1.369 . S
C1438 C1440 1.419 . S
C1438 H1442 0.930 . S
C1439 C1438 1.369 . S
C1439 C1448 1.429 . S
C1440 C1438 1.419 . S
C1440 C1441 1.363 . S
C1440 H1443 0.929 . S
C1441 C1440 1.363 . S
C1441 C1447 1.428 . S
H1442 C1438 0.930 . S
H1443 C1440 0.929 . S
S1444 N1445 1.613 . S
S1444 N1446 1.610 . S
N1445 S1444 1.613 . S
N1445 C1448 1.350 . S
N1446 S1444 1.610 . S
N1446 C1447 1.351 . S
C1447 C1441 1.428 . S
C1447 N1446 1.351 . S
C1447 C1448 1.434 . S
C1448 C1439 1.429 . S
C1448 N1445 1.350 . S
C1448 C1447 1.434 . S
C1449 C1450 1.369 . S
C1449 C1451 1.419 . S
C1449 H1453 0.930 . S
C1450 C1449 1.369 . S
C1450 C1459 1.429 . S
C1451 C1449 1.419 . S
C1451 C1452 1.363 . S
C1451 H1454 0.929 . S
C1452 C1451 1.363 . S
C1452 C1458 1.428 . S
H1453 C1449 0.930 . S
H1454 C1451 0.929 . S
S1455 N1456 1.613 . S
S1455 N1457 1.610 . S
N1456 S1455 1.613 . S
N1456 C1459 1.350 . S
N1457 S1455 1.610 . S
N1457 C1458 1.351 . S
C1458 C1452 1.428 . S
C1458 N1457 1.351 . S
C1458 C1459 1.434 . S
C1459 C1450 1.429 . S
C1459 N1456 1.350 . S
C1459 C1458 1.434 . S
C1460 C1461 1.369 . S
C1460 C1462 1.419 . S
C1460 H1464 0.930 . S
C1461 C1460 1.369 . S
C1461 C1470 1.429 . S
C1462 C1460 1.419 . S
C1462 C1463 1.363 . S
C1462 H1465 0.929 . S
C1463 C1462 1.363 . S
C1463 C1469 1.428 . S
H1464 C1460 0.930 . S
H1465 C1462 0.929 . S
S1466 N1467 1.613 1_545 S
S1466 N1468 1.610 1_545 S
N1467 S1466 1.613 1_565 S
N1467 C1470 1.350 . S
N1468 S1466 1.610 1_565 S
N1468 C1469 1.351 . S
C1469 C1463 1.428 . S
C1469 N1468 1.351 . S
C1469 C1470 1.434 . S
C1470 C1461 1.429 . S
C1470 N1467 1.350 . S
C1470 C1469 1.434 . S
C1471 C1472 1.369 . S
C1471 C1473 1.419 1_565 S
C1471 H1475 0.930 1_565 S
C1472 C1471 1.369 . S
C1472 C1481 1.429 . S
C1473 C1471 1.419 1_545 S
C1473 C1474 1.363 1_545 S
C1473 H1476 0.929 . S
C1474 C1473 1.363 1_565 S
C1474 C1480 1.428 . S
H1475 C1471 0.930 1_545 S
H1476 C1473 0.929 . S
S1477 N1478 1.613 . S
S1477 N1479 1.610 . S
N1478 S1477 1.613 . S
N1478 C1481 1.350 . S
N1479 S1477 1.610 . S
N1479 C1480 1.351 . S
C1480 C1474 1.428 . S
C1480 N1479 1.351 . S
C1480 C1481 1.434 . S
C1481 C1472 1.429 . S
C1481 N1478 1.350 . S
C1481 C1480 1.434 . S
C1482 C1483 1.369 . S
C1482 C1484 1.419 . S
C1482 H1486 0.930 . S
C1483 C1482 1.369 . S
C1483 C1492 1.429 . S
C1484 C1482 1.419 . S
C1484 C1485 1.363 . S
C1484 H1487 0.929 . S
C1485 C1484 1.363 . S
C1485 C1491 1.428 . S
H1486 C1482 0.930 . S
H1487 C1484 0.929 . S
S1488 N1489 1.613 . S
S1488 N1490 1.610 . S
N1489 S1488 1.613 . S
N1489 C1492 1.350 . S
N1490 S1488 1.610 . S
N1490 C1491 1.351 . S
C1491 C1485 1.428 . S
C1491 N1490 1.351 . S
C1491 C1492 1.434 . S
C1492 C1483 1.429 . S
C1492 N1489 1.350 . S
C1492 C1491 1.434 . S
C1493 C1494 1.369 . S
C1493 C1495 1.419 . S
C1493 H1497 0.930 . S
C1494 C1493 1.369 . S
C1494 C1503 1.429 . S
C1495 C1493 1.419 . S
C1495 C1496 1.363 . S
C1495 H1498 0.929 . S
C1496 C1495 1.363 . S
C1496 C1502 1.428 . S
H1497 C1493 0.930 . S
H1498 C1495 0.929 . S
S1499 N1500 1.613 . S
S1499 N1501 1.610 . S
N1500 S1499 1.613 . S
N1500 C1503 1.350 . S
N1501 S1499 1.610 . S
N1501 C1502 1.351 . S
C1502 C1496 1.428 . S
C1502 N1501 1.351 . S
C1502 C1503 1.434 . S
C1503 C1494 1.429 . S
C1503 N1500 1.350 . S
C1503 C1502 1.434 . S
C1504 C1505 1.369 . S
C1504 C1506 1.419 . S
C1504 H1508 0.930 . S
C1505 C1504 1.369 . S
C1505 C1514 1.429 . S
C1506 C1504 1.419 . S
C1506 C1507 1.363 . S
C1506 H1509 0.929 . S
C1507 C1506 1.363 . S
C1507 C1513 1.428 . S
H1508 C1504 0.930 . S
H1509 C1506 0.929 . S
S1510 N1511 1.613 . S
S1510 N1512 1.610 . S
N1511 S1510 1.613 . S
N1511 C1514 1.350 . S
N1512 S1510 1.610 . S
N1512 C1513 1.351 . S
C1513 C1507 1.428 . S
C1513 N1512 1.351 . S
C1513 C1514 1.434 . S
C1514 C1505 1.429 . S
C1514 N1511 1.350 . S
C1514 C1513 1.434 . S
C1515 C1516 1.369 . S
C1515 C1517 1.419 . S
C1515 H1519 0.930 . S
C1516 C1515 1.369 . S
C1516 C1525 1.429 . S
C1517 C1515 1.419 . S
C1517 C1518 1.363 . S
C1517 H1520 0.929 . S
C1518 C1517 1.363 . S
C1518 C1524 1.428 . S
H1519 C1515 0.930 . S
H1520 C1517 0.929 . S
S1521 N1522 1.613 . S
S1521 N1523 1.610 . S
N1522 S1521 1.613 . S
N1522 C1525 1.350 . S
N1523 S1521 1.610 . S
N1523 C1524 1.351 . S
C1524 C1518 1.428 . S
C1524 N1523 1.351 . S
C1524 C1525 1.434 . S
C1525 C1516 1.429 . S
C1525 N1522 1.350 . S
C1525 C1524 1.434 . S
C1526 C1527 1.369 1_655 S
C1526 C1528 1.419 . S
C1526 H1530 0.930 . S
C1527 C1526 1.369 1_455 S
C1527 C1536 1.429 . S
C1528 C1526 1.419 . S
C1528 C1529 1.363 1_655 S
C1528 H1531 0.929 . S
C1529 C1528 1.363 1_455 S
C1529 C1535 1.428 . S
H1530 C1526 0.930 . S
H1531 C1528 0.929 . S
S1532 N1533 1.613 . S
S1532 N1534 1.610 . S
N1533 S1532 1.613 . S
N1533 C1536 1.350 . S
N1534 S1532 1.610 . S
N1534 C1535 1.351 . S
C1535 C1529 1.428 . S
C1535 N1534 1.351 . S
C1535 C1536 1.434 . S
C1536 C1527 1.429 . S
C1536 N1533 1.350 . S
C1536 C1535 1.434 . S
C1537 C1538 1.369 . S
C1537 C1539 1.419 . S
C1537 H1541 0.930 . S
C1538 C1537 1.369 . S
C1538 C1547 1.429 . S
C1539 C1537 1.419 . S
C1539 C1540 1.363 1_455 S
C1539 H1542 0.929 . S
C1540 C1539 1.363 1_655 S
C1540 C1546 1.428 . S
H1541 C1537 0.930 . S
H1542 C1539 0.929 . S
S1543 N1544 1.613 1_655 S
S1543 N1545 1.610 . S
N1544 S1543 1.613 1_455 S
N1544 C1547 1.350 . S
N1545 S1543 1.610 . S
N1545 C1546 1.351 . S
C1546 C1540 1.428 . S
C1546 N1545 1.351 . S
C1546 C1547 1.434 1_655 S
C1547 C1538 1.429 . S
C1547 N1544 1.350 . S
C1547 C1546 1.434 1_455 S
C1548 C1549 1.369 . S
C1548 C1550 1.419 . S
C1548 H1552 0.930 . S
C1549 C1548 1.369 . S
C1549 C1558 1.429 . S
C1550 C1548 1.419 . S
C1550 C1551 1.363 . S
C1550 H1553 0.929 . S
C1551 C1550 1.363 . S
C1551 C1557 1.428 . S
H1552 C1548 0.930 . S
H1553 C1550 0.929 . S
S1554 N1555 1.613 . S
S1554 N1556 1.610 . S
N1555 S1554 1.613 . S
N1555 C1558 1.350 . S
N1556 S1554 1.610 . S
N1556 C1557 1.351 . S
C1557 C1551 1.428 . S
C1557 N1556 1.351 . S
C1557 C1558 1.434 . S
C1558 C1549 1.429 . S
C1558 N1555 1.350 . S
C1558 C1557 1.434 . S
C1559 C1560 1.369 . S
C1559 C1561 1.419 . S
C1559 H1563 0.930 . S
C1560 C1559 1.369 . S
C1560 C1569 1.429 . S
C1561 C1559 1.419 . S
C1561 C1562 1.363 . S
C1561 H1564 0.929 . S
C1562 C1561 1.363 . S
C1562 C1568 1.428 . S
H1563 C1559 0.930 . S
H1564 C1561 0.929 . S
S1565 N1566 1.613 . S
S1565 N1567 1.610 . S
N1566 S1565 1.613 . S
N1566 C1569 1.350 . S
N1567 S1565 1.610 . S
N1567 C1568 1.351 . S
C1568 C1562 1.428 . S
C1568 N1567 1.351 . S
C1568 C1569 1.434 . S
C1569 C1560 1.429 . S
C1569 N1566 1.350 . S
C1569 C1568 1.434 . S
C1570 C1571 1.369 . S
C1570 C1572 1.419 . S
C1570 H1574 0.930 . S
C1571 C1570 1.369 . S
C1571 C1580 1.429 . S
C1572 C1570 1.419 . S
C1572 C1573 1.363 . S
C1572 H1575 0.929 . S
C1573 C1572 1.363 . S
C1573 C1579 1.428 . S
H1574 C1570 0.930 . S
H1575 C1572 0.929 . S
S1576 N1577 1.613 . S
S1576 N1578 1.610 . S
N1577 S1576 1.613 . S
N1577 C1580 1.350 . S
N1578 S1576 1.610 . S
N1578 C1579 1.351 . S
C1579 C1573 1.428 . S
C1579 N1578 1.351 . S
C1579 C1580 1.434 . S
C1580 C1571 1.429 . S
C1580 N1577 1.350 . S
C1580 C1579 1.434 . S
C1581 C1582 1.369 . S
C1581 C1583 1.419 . S
C1581 H1585 0.930 . S
C1582 C1581 1.369 . S
C1582 C1591 1.429 . S
C1583 C1581 1.419 . S
C1583 C1584 1.363 . S
C1583 H1586 0.929 . S
C1584 C1583 1.363 . S
C1584 C1590 1.428 . S
H1585 C1581 0.930 . S
H1586 C1583 0.929 . S
S1587 N1588 1.613 . S
S1587 N1589 1.610 . S
N1588 S1587 1.613 . S
N1588 C1591 1.350 . S
N1589 S1587 1.610 . S
N1589 C1590 1.351 . S
C1590 C1584 1.428 . S
C1590 N1589 1.351 . S
C1590 C1591 1.434 . S
C1591 C1582 1.429 . S
C1591 N1588 1.350 . S
C1591 C1590 1.434 . S
C1592 C1593 1.369 . S
C1592 C1594 1.419 . S
C1592 H1596 0.930 . S
C1593 C1592 1.369 . S
C1593 C1602 1.429 . S
C1594 C1592 1.419 . S
C1594 C1595 1.363 . S
C1594 H1597 0.929 . S
C1595 C1594 1.363 . S
C1595 C1601 1.428 . S
H1596 C1592 0.930 . S
H1597 C1594 0.929 . S
S1598 N1599 1.613 . S
S1598 N1600 1.610 . S
N1599 S1598 1.613 . S
N1599 C1602 1.350 . S
N1600 S1598 1.610 . S
N1600 C1601 1.351 . S
C1601 C1595 1.428 . S
C1601 N1600 1.351 . S
C1601 C1602 1.434 . S
C1602 C1593 1.429 . S
C1602 N1599 1.350 . S
C1602 C1601 1.434 . S
C1603 C1604 1.369 . S
C1603 C1605 1.419 . S
C1603 H1607 0.930 . S
C1604 C1603 1.369 . S
C1604 C1613 1.429 . S
C1605 C1603 1.419 . S
C1605 C1606 1.363 . S
C1605 H1608 0.929 . S
C1606 C1605 1.363 . S
C1606 C1612 1.428 . S
H1607 C1603 0.930 . S
H1608 C1605 0.929 . S
S1609 N1610 1.613 . S
S1609 N1611 1.610 . S
N1610 S1609 1.613 . S
N1610 C1613 1.350 . S
N1611 S1609 1.610 . S
N1611 C1612 1.351 . S
C1612 C1606 1.428 . S
C1612 N1611 1.351 . S
C1612 C1613 1.434 . S
C1613 C1604 1.429 . S
C1613 N1610 1.350 . S
C1613 C1612 1.434 . S
C1614 C1615 1.369 . S
C1614 C1616 1.419 . S
C1614 H1618 0.930 . S
C1615 C1614 1.369 . S
C1615 C1624 1.429 . S
C1616 C1614 1.419 . S
C1616 C1617 1.363 . S
C1616 H1619 0.929 . S
C1617 C1616 1.363 . S
C1617 C1623 1.428 . S
H1618 C1614 0.930 . S
H1619 C1616 0.929 . S
S1620 N1621 1.613 . S
S1620 N1622 1.610 . S
N1621 S1620 1.613 . S
N1621 C1624 1.350 . S
N1622 S1620 1.610 . S
N1622 C1623 1.351 . S
C1623 C1617 1.428 . S
C1623 N1622 1.351 . S
C1623 C1624 1.434 . S
C1624 C1615 1.429 . S
C1624 N1621 1.350 . S
C1624 C1623 1.434 . S
C1625 C1626 1.369 . S
C1625 C1627 1.419 . S
C1625 H1629 0.930 . S
C1626 C1625 1.369 . S
C1626 C1635 1.429 . S
C1627 C1625 1.419 . S
C1627 C1628 1.363 . S
C1627 H1630 0.929 . S
C1628 C1627 1.363 . S
C1628 C1634 1.428 . S
H1629 C1625 0.930 . S
H1630 C1627 0.929 . S
S1631 N1632 1.613 . S
S1631 N1633 1.610 . S
N1632 S1631 1.613 . S
N1632 C1635 1.350 . S
N1633 S1631 1.610 . S
N1633 C1634 1.351 . S
C1634 C1628 1.428 . S
C1634 N1633 1.351 . S
C1634 C1635 1.434 . S
C1635 C1626 1.429 . S
C1635 N1632 1.350 . S
C1635 C1634 1.434 . S
C1636 C1637 1.369 . S
C1636 C1638 1.419 . S
C1636 H1640 0.930 . S
C1637 C1636 1.369 . S
C1637 C1646 1.429 . S
C1638 C1636 1.419 . S
C1638 C1639 1.363 . S
C1638 H1641 0.929 . S
C1639 C1638 1.363 . S
C1639 C1645 1.428 . S
H1640 C1636 0.930 . S
H1641 C1638 0.929 . S
S1642 N1643 1.613 . S
S1642 N1644 1.610 . S
N1643 S1642 1.613 . S
N1643 C1646 1.350 . S
N1644 S1642 1.610 . S
N1644 C1645 1.351 . S
C1645 C1639 1.428 . S
C1645 N1644 1.351 . S
C1645 C1646 1.434 . S
C1646 C1637 1.429 . S
C1646 N1643 1.350 . S
C1646 C1645 1.434 . S
C1647 C1648 1.369 . S
C1647 C1649 1.419 . S
C1647 H1651 0.930 . S
C1648 C1647 1.369 . S
C1648 C1657 1.429 . S
C1649 C1647 1.419 . S
C1649 C1650 1.363 . S
C1649 H1652 0.929 . S
C1650 C1649 1.363 . S
C1650 C1656 1.428 . S
H1651 C1647 0.930 . S
H1652 C1649 0.929 . S
S1653 N1654 1.613 . S
S1653 N1655 1.610 . S
N1654 S1653 1.613 . S
N1654 C1657 1.350 . S
N1655 S1653 1.610 . S
N1655 C1656 1.351 . S
C1656 C1650 1.428 . S
C1656 N1655 1.351 . S
C1656 C1657 1.434 . S
C1657 C1648 1.429 . S
C1657 N1654 1.350 . S
C1657 C1656 1.434 . S
C1658 C1659 1.369 . S
C1658 C1660 1.419 . S
C1658 H1662 0.930 . S
C1659 C1658 1.369 . S
C1659 C1668 1.429 . S
C1660 C1658 1.419 . S
C1660 C1661 1.363 . S
C1660 H1663 0.929 . S
C1661 C1660 1.363 . S
C1661 C1667 1.428 . S
H1662 C1658 0.930 . S
H1663 C1660 0.929 . S
S1664 N1665 1.613 . S
S1664 N1666 1.610 . S
N1665 S1664 1.613 . S
N1665 C1668 1.350 . S
N1666 S1664 1.610 . S
N1666 C1667 1.351 . S
C1667 C1661 1.428 . S
C1667 N1666 1.351 . S
C1667 C1668 1.434 . S
C1668 C1659 1.429 . S
C1668 N1665 1.350 . S
C1668 C1667 1.434 . S
C1669 C1670 1.369 . S
C1669 C1671 1.419 . S
C1669 H1673 0.930 . S
C1670 C1669 1.369 . S
C1670 C1679 1.429 . S
C1671 C1669 1.419 . S
C1671 C1672 1.363 . S
C1671 H1674 0.929 . S
C1672 C1671 1.363 . S
C1672 C1678 1.428 . S
H1673 C1669 0.930 . S
H1674 C1671 0.929 . S
S1675 N1676 1.613 . S
S1675 N1677 1.610 . S
N1676 S1675 1.613 . S
N1676 C1679 1.350 . S
N1677 S1675 1.610 . S
N1677 C1678 1.351 . S
C1678 C1672 1.428 . S
C1678 N1677 1.351 . S
C1678 C1679 1.434 . S
C1679 C1670 1.429 . S
C1679 N1676 1.350 . S
C1679 C1678 1.434 . S
C1680 C1681 1.369 . S
C1680 C1682 1.419 . S
C1680 H1684 0.930 . S
C1681 C1680 1.369 . S
C1681 C1690 1.429 . S
C1682 C1680 1.419 . S
C1682 C1683 1.363 . S
C1682 H1685 0.929 . S
C1683 C1682 1.363 . S
C1683 C1689 1.428 . S
H1684 C1680 0.930 . S
H1685 C1682 0.929 . S
S1686 N1687 1.613 . S
S1686 N1688 1.610 . S
N1687 S1686 1.613 . S
N1687 C1690 1.350 . S
N1688 S1686 1.610 . S
N1688 C1689 1.351 . S
C1689 C1683 1.428 . S
C1689 N1688 1.351 . S
C1689 C1690 1.434 . S
C1690 C1681 1.429 . S
C1690 N1687 1.350 . S
C1690 C1689 1.434 . S
C1691 C1692 1.369 . S
C1691 C1693 1.419 . S
C1691 H1695 0.930 . S
C1692 C1691 1.369 . S
C1692 C1701 1.429 . S
C1693 C1691 1.419 . S
C1693 C1694 1.363 . S
C1693 H1696 0.929 . S
C1694 C1693 1.363 . S
C1694 C1700 1.428 . S
H1695 C1691 0.930 . S
H1696 C1693 0.929 . S
S1697 N1698 1.613 . S
S1697 N1699 1.610 . S
N1698 S1697 1.613 . S
N1698 C1701 1.350 . S
N1699 S1697 1.610 . S
N1699 C1700 1.351 . S
C1700 C1694 1.428 . S
C1700 N1699 1.351 . S
C1700 C1701 1.434 . S
C1701 C1692 1.429 . S
C1701 N1698 1.350 . S
C1701 C1700 1.434 . S
C1702 C1703 1.369 . S
C1702 C1704 1.419 1_545 S
C1702 H1706 0.930 . S
C1703 C1702 1.369 . S
C1703 C1712 1.429 . S
C1704 C1702 1.419 1_565 S
C1704 C1705 1.363 . S
C1704 H1707 0.929 . S
C1705 C1704 1.363 . S
C1705 C1711 1.428 . S
H1706 C1702 0.930 . S
H1707 C1704 0.929 . S
S1708 N1709 1.613 . S
S1708 N1710 1.610 1_545 S
N1709 S1708 1.613 . S
N1709 C1712 1.350 . S
N1710 S1708 1.610 1_565 S
N1710 C1711 1.351 . S
C1711 C1705 1.428 . S
C1711 N1710 1.351 . S
C1711 C1712 1.434 1_565 S
C1712 C1703 1.429 . S
C1712 N1709 1.350 . S
C1712 C1711 1.434 1_545 S
C1713 C1714 1.369 . S
C1713 C1715 1.419 . S
C1713 H1717 0.930 . S
C1714 C1713 1.369 . S
C1714 C1723 1.429 . S
C1715 C1713 1.419 . S
C1715 C1716 1.363 . S
C1715 H1718 0.929 . S
C1716 C1715 1.363 . S
C1716 C1722 1.428 . S
H1717 C1713 0.930 . S
H1718 C1715 0.929 . S
S1719 N1720 1.613 . S
S1719 N1721 1.610 1_565 S
N1720 S1719 1.613 . S
N1720 C1723 1.350 . S
N1721 S1719 1.610 1_545 S
N1721 C1722 1.351 1_545 S
C1722 C1716 1.428 . S
C1722 N1721 1.351 1_565 S
C1722 C1723 1.434 . S
C1723 C1714 1.429 . S
C1723 N1720 1.350 . S
C1723 C1722 1.434 . S
C1724 C1725 1.369 . S
C1724 C1726 1.419 . S
C1724 H1728 0.930 . S
C1725 C1724 1.369 . S
C1725 C1734 1.429 . S
C1726 C1724 1.419 . S
C1726 C1727 1.363 . S
C1726 H1729 0.929 . S
C1727 C1726 1.363 . S
C1727 C1733 1.428 . S
H1728 C1724 0.930 . S
H1729 C1726 0.929 . S
S1730 N1731 1.613 . S
S1730 N1732 1.610 . S
N1731 S1730 1.613 . S
N1731 C1734 1.350 . S
N1732 S1730 1.610 . S
N1732 C1733 1.351 . S
C1733 C1727 1.428 . S
C1733 N1732 1.351 . S
C1733 C1734 1.434 . S
C1734 C1725 1.429 . S
C1734 N1731 1.350 . S
C1734 C1733 1.434 . S
C1735 C1736 1.369 . S
C1735 C1737 1.419 . S
C1735 H1739 0.930 . S
C1736 C1735 1.369 . S
C1736 C1745 1.429 . S
C1737 C1735 1.419 . S
C1737 C1738 1.363 . S
C1737 H1740 0.929 . S
C1738 C1737 1.363 . S
C1738 C1744 1.428 . S
H1739 C1735 0.930 . S
H1740 C1737 0.929 . S
S1741 N1742 1.613 . S
S1741 N1743 1.610 . S
N1742 S1741 1.613 . S
N1742 C1745 1.350 1_556 S
N1743 S1741 1.610 . S
N1743 C1744 1.351 1_556 S
C1744 C1738 1.428 . S
C1744 N1743 1.351 1_554 S
C1744 C1745 1.434 . S
C1745 C1736 1.429 . S
C1745 N1742 1.350 1_554 S
C1745 C1744 1.434 . S
C1746 C1747 1.369 . S
C1746 C1748 1.419 . S
C1746 H1750 0.930 . S
C1747 C1746 1.369 . S
C1747 C1756 1.429 . S
C1748 C1746 1.419 . S
C1748 C1749 1.363 . S
C1748 H1751 0.929 . S
C1749 C1748 1.363 . S
C1749 C1755 1.428 . S
H1750 C1746 0.930 . S
H1751 C1748 0.929 . S
S1752 N1753 1.613 . S
S1752 N1754 1.610 . S
N1753 S1752 1.613 . S
N1753 C1756 1.350 . S
N1754 S1752 1.610 . S
N1754 C1755 1.351 . S
C1755 C1749 1.428 . S
C1755 N1754 1.351 . S
C1755 C1756 1.434 . S
C1756 C1747 1.429 . S
C1756 N1753 1.350 . S
C1756 C1755 1.434 . S
C1757 C1758 1.369 . S
C1757 C1759 1.419 1_545 S
C1757 H1761 0.930 . S
C1758 C1757 1.369 . S
C1758 C1767 1.429 . S
C1759 C1757 1.419 1_565 S
C1759 C1760 1.363 . S
C1759 H1762 0.929 . S
C1760 C1759 1.363 . S
C1760 C1766 1.428 . S
H1761 C1757 0.930 . S
H1762 C1759 0.929 . S
S1763 N1764 1.613 . S
S1763 N1765 1.610 1_545 S
N1764 S1763 1.613 . S
N1764 C1767 1.350 . S
N1765 S1763 1.610 1_565 S
N1765 C1766 1.351 . S
C1766 C1760 1.428 . S
C1766 N1765 1.351 . S
C1766 C1767 1.434 1_565 S
C1767 C1758 1.429 . S
C1767 N1764 1.350 . S
C1767 C1766 1.434 1_545 S
C1768 C1769 1.369 . S
C1768 C1770 1.419 . S
C1768 H1772 0.930 . S
C1769 C1768 1.369 . S
C1769 C1778 1.429 . S
C1770 C1768 1.419 . S
C1770 C1771 1.363 . S
C1770 H1773 0.929 . S
C1771 C1770 1.363 . S
C1771 C1777 1.428 . S
H1772 C1768 0.930 . S
H1773 C1770 0.929 . S
S1774 N1775 1.613 . S
S1774 N1776 1.610 . S
N1775 S1774 1.613 . S
N1775 C1778 1.350 . S
N1776 S1774 1.610 . S
N1776 C1777 1.351 . S
C1777 C1771 1.428 . S
C1777 N1776 1.351 . S
C1777 C1778 1.434 . S
C1778 C1769 1.429 . S
C1778 N1775 1.350 . S
C1778 C1777 1.434 . S
C1779 C1780 1.369 . S
C1779 C1781 1.419 . S
C1779 H1783 0.930 . S
C1780 C1779 1.369 . S
C1780 C1789 1.429 . S
C1781 C1779 1.419 . S
C1781 C1782 1.363 . S
C1781 H1784 0.929 . S
C1782 C1781 1.363 . S
C1782 C1788 1.428 . S
H1783 C1779 0.930 . S
H1784 C1781 0.929 . S
S1785 N1786 1.613 . S
S1785 N1787 1.610 . S
N1786 S1785 1.613 . S
N1786 C1789 1.350 . S
N1787 S1785 1.610 . S
N1787 C1788 1.351 . S
C1788 C1782 1.428 . S
C1788 N1787 1.351 . S
C1788 C1789 1.434 . S
C1789 C1780 1.429 . S
C1789 N1786 1.350 . S
C1789 C1788 1.434 . S
C1790 C1791 1.369 . S
C1790 C1792 1.419 . S
C1790 H1794 0.930 . S
C1791 C1790 1.369 . S
C1791 C1800 1.429 . S
C1792 C1790 1.419 . S
C1792 C1793 1.363 . S
C1792 H1795 0.929 . S
C1793 C1792 1.363 . S
C1793 C1799 1.428 . S
H1794 C1790 0.930 . S
H1795 C1792 0.929 . S
S1796 N1797 1.613 . S
S1796 N1798 1.610 . S
N1797 S1796 1.613 . S
N1797 C1800 1.350 . S
N1798 S1796 1.610 . S
N1798 C1799 1.351 . S
C1799 C1793 1.428 . S
C1799 N1798 1.351 . S
C1799 C1800 1.434 . S
C1800 C1791 1.429 . S
C1800 N1797 1.350 . S
C1800 C1799 1.434 . S
C1801 C1802 1.369 . S
C1801 C1803 1.419 . S
C1801 H1805 0.930 . S
C1802 C1801 1.369 . S
C1802 C1811 1.429 . S
C1803 C1801 1.419 . S
C1803 C1804 1.363 . S
C1803 H1806 0.929 . S
C1804 C1803 1.363 . S
C1804 C1810 1.428 . S
H1805 C1801 0.930 . S
H1806 C1803 0.929 . S
S1807 N1808 1.613 . S
S1807 N1809 1.610 . S
N1808 S1807 1.613 . S
N1808 C1811 1.350 . S
N1809 S1807 1.610 . S
N1809 C1810 1.351 . S
C1810 C1804 1.428 . S
C1810 N1809 1.351 . S
C1810 C1811 1.434 . S
C1811 C1802 1.429 . S
C1811 N1808 1.350 . S
C1811 C1810 1.434 . S
C1812 C1813 1.369 . S
C1812 C1814 1.419 . S
C1812 H1816 0.930 . S
C1813 C1812 1.369 . S
C1813 C1822 1.429 . S
C1814 C1812 1.419 . S
C1814 C1815 1.363 . S
C1814 H1817 0.929 . S
C1815 C1814 1.363 . S
C1815 C1821 1.428 . S
H1816 C1812 0.930 . S
H1817 C1814 0.929 . S
S1818 N1819 1.613 1_554 S
S1818 N1820 1.610 . S
N1819 S1818 1.613 1_556 S
N1819 C1822 1.350 . S
N1820 S1818 1.610 . S
N1820 C1821 1.351 1_554 S
C1821 C1815 1.428 . S
C1821 N1820 1.351 1_556 S
C1821 C1822 1.434 . S
C1822 C1813 1.429 . S
C1822 N1819 1.350 . S
C1822 C1821 1.434 . S
C1823 C1824 1.369 . S
C1823 C1825 1.419 . S
C1823 H1827 0.930 . S
C1824 C1823 1.369 . S
C1824 C1833 1.429 . S
C1825 C1823 1.419 . S
C1825 C1826 1.363 . S
C1825 H1828 0.929 . S
C1826 C1825 1.363 . S
C1826 C1832 1.428 . S
H1827 C1823 0.930 . S
H1828 C1825 0.929 . S
S1829 N1830 1.613 . S
S1829 N1831 1.610 . S
N1830 S1829 1.613 . S
N1830 C1833 1.350 . S
N1831 S1829 1.610 . S
N1831 C1832 1.351 . S
C1832 C1826 1.428 . S
C1832 N1831 1.351 . S
C1832 C1833 1.434 . S
C1833 C1824 1.429 . S
C1833 N1830 1.350 . S
C1833 C1832 1.434 . S
C1834 C1835 1.369 . S
C1834 C1836 1.419 . S
C1834 H1838 0.930 . S
C1835 C1834 1.369 . S
C1835 C1844 1.429 . S
C1836 C1834 1.419 . S
C1836 C1837 1.363 . S
C1836 H1839 0.929 . S
C1837 C1836 1.363 . S
C1837 C1843 1.428 . S
H1838 C1834 0.930 . S
H1839 C1836 0.929 . S
S1840 N1841 1.613 . S
S1840 N1842 1.610 . S
N1841 S1840 1.613 . S
N1841 C1844 1.350 . S
N1842 S1840 1.610 . S
N1842 C1843 1.351 . S
C1843 C1837 1.428 . S
C1843 N1842 1.351 . S
C1843 C1844 1.434 . S
C1844 C1835 1.429 . S
C1844 N1841 1.350 . S
C1844 C1843 1.434 . S
C1845 C1846 1.369 . S
C1845 C1847 1.419 . S
C1845 H1849 0.930 . S
C1846 C1845 1.369 . S
C1846 C1855 1.429 . S
C1847 C1845 1.419 . S
C1847 C1848 1.363 . S
C1847 H1850 0.929 . S
C1848 C1847 1.363 . S
C1848 C1854 1.428 . S
H1849 C1845 0.930 . S
H1850 C1847 0.929 . S
S1851 N1852 1.613 . S
S1851 N1853 1.610 . S
N1852 S1851 1.613 . S
N1852 C1855 1.350 . S
N1853 S1851 1.610 . S
N1853 C1854 1.351 . S
C1854 C1848 1.428 . S
C1854 N1853 1.351 . S
C1854 C1855 1.434 . S
C1855 C1846 1.429 . S
C1855 N1852 1.350 . S
C1855 C1854 1.434 . S
C1856 C1857 1.369 . S
C1856 C1858 1.419 . S
C1856 H1860 0.930 . S
C1857 C1856 1.369 . S
C1857 C1866 1.429 . S
C1858 C1856 1.419 . S
C1858 C1859 1.363 . S
C1858 H1861 0.929 . S
C1859 C1858 1.363 . S
C1859 C1865 1.428 . S
H1860 C1856 0.930 . S
H1861 C1858 0.929 . S
S1862 N1863 1.613 . S
S1862 N1864 1.610 . S
N1863 S1862 1.613 . S
N1863 C1866 1.350 . S
N1864 S1862 1.610 . S
N1864 C1865 1.351 . S
C1865 C1859 1.428 . S
C1865 N1864 1.351 . S
C1865 C1866 1.434 . S
C1866 C1857 1.429 . S
C1866 N1863 1.350 . S
C1866 C1865 1.434 . S
C1867 C1868 1.369 . S
C1867 C1869 1.419 . S
C1867 H1871 0.930 . S
C1868 C1867 1.369 . S
C1868 C1877 1.429 . S
C1869 C1867 1.419 . S
C1869 C1870 1.363 . S
C1869 H1872 0.929 . S
C1870 C1869 1.363 . S
C1870 C1876 1.428 . S
H1871 C1867 0.930 . S
H1872 C1869 0.929 . S
S1873 N1874 1.613 . S
S1873 N1875 1.610 . S
N1874 S1873 1.613 . S
N1874 C1877 1.350 . S
N1875 S1873 1.610 . S
N1875 C1876 1.351 . S
C1876 C1870 1.428 . S
C1876 N1875 1.351 . S
C1876 C1877 1.434 . S
C1877 C1868 1.429 . S
C1877 N1874 1.350 . S
C1877 C1876 1.434 . S
C1878 C1879 1.369 . S
C1878 C1880 1.419 . S
C1878 H1882 0.930 1_455 S
C1879 C1878 1.369 . S
C1879 C1888 1.429 . S
C1880 C1878 1.419 . S
C1880 C1881 1.363 . S
C1880 H1883 0.927 1_455 S
C1881 C1880 1.363 . S
C1881 C1887 1.428 . S
H1882 C1878 0.930 1_655 S
H1883 C1880 0.927 1_655 S
S1884 N1885 1.613 . S
S1884 N1886 1.610 . S
N1885 S1884 1.613 . S
N1885 C1888 1.350 . S
N1886 S1884 1.610 . S
N1886 C1887 1.351 . S
C1887 C1881 1.428 . S
C1887 N1886 1.351 . S
C1887 C1888 1.434 . S
C1888 C1879 1.429 . S
C1888 N1885 1.350 . S
C1888 C1887 1.434 . S
C1889 C1890 1.369 . S
C1889 C1891 1.419 . S
C1889 H1893 0.930 . S
C1890 C1889 1.369 . S
C1890 C1899 1.429 . S
C1891 C1889 1.419 . S
C1891 C1892 1.363 . S
C1891 H1894 0.929 . S
C1892 C1891 1.363 . S
C1892 C1898 1.428 . S
H1893 C1889 0.930 . S
H1894 C1891 0.929 . S
S1895 N1896 1.613 . S
S1895 N1897 1.610 . S
N1896 S1895 1.613 . S
N1896 C1899 1.350 . S
N1897 S1895 1.610 . S
N1897 C1898 1.351 . S
C1898 C1892 1.428 . S
C1898 N1897 1.351 . S
C1898 C1899 1.434 . S
C1899 C1890 1.429 . S
C1899 N1896 1.350 . S
C1899 C1898 1.434 . S
C1900 C1901 1.369 . S
C1900 C1902 1.419 . S
C1900 H1904 0.930 . S
C1901 C1900 1.369 . S
C1901 C1910 1.429 . S
C1902 C1900 1.419 . S
C1902 C1903 1.363 . S
C1902 H1905 0.929 . S
C1903 C1902 1.363 . S
C1903 C1909 1.428 . S
H1904 C1900 0.930 . S
H1905 C1902 0.929 . S
S1906 N1907 1.613 . S
S1906 N1908 1.610 . S
N1907 S1906 1.613 . S
N1907 C1910 1.350 . S
N1908 S1906 1.610 . S
N1908 C1909 1.351 . S
C1909 C1903 1.428 . S
C1909 N1908 1.351 . S
C1909 C1910 1.434 . S
C1910 C1901 1.429 . S
C1910 N1907 1.350 . S
C1910 C1909 1.434 . S
C1911 C1912 1.369 . S
C1911 C1913 1.419 . S
C1911 H1915 0.930 . S
C1912 C1911 1.369 . S
C1912 C1921 1.429 . S
C1913 C1911 1.419 . S
C1913 C1914 1.363 . S
C1913 H1916 0.929 . S
C1914 C1913 1.363 . S
C1914 C1920 1.428 . S
H1915 C1911 0.930 . S
H1916 C1913 0.929 . S
S1917 N1918 1.613 . S
S1917 N1919 1.610 . S
N1918 S1917 1.613 . S
N1918 C1921 1.350 . S
N1919 S1917 1.610 . S
N1919 C1920 1.351 . S
C1920 C1914 1.428 . S
C1920 N1919 1.351 . S
C1920 C1921 1.434 . S
C1921 C1912 1.429 . S
C1921 N1918 1.350 . S
C1921 C1920 1.434 . S
C1922 C1923 1.369 1_655 S
C1922 C1924 1.419 . S
C1922 H1926 0.930 . S
C1923 C1922 1.369 1_455 S
C1923 C1932 1.429 . S
C1924 C1922 1.419 . S
C1924 C1925 1.363 1_655 S
C1924 H1927 0.929 . S
C1925 C1924 1.363 1_455 S
C1925 C1931 1.428 . S
H1926 C1922 0.930 . S
H1927 C1924 0.929 . S
S1928 N1929 1.613 . S
S1928 N1930 1.610 . S
N1929 S1928 1.613 . S
N1929 C1932 1.350 . S
N1930 S1928 1.610 . S
N1930 C1931 1.351 . S
C1931 C1925 1.428 . S
C1931 N1930 1.351 . S
C1931 C1932 1.434 . S
C1932 C1923 1.429 . S
C1932 N1929 1.350 . S
C1932 C1931 1.434 . S
C1933 C1934 1.369 . S
C1933 C1935 1.419 . S
C1933 H1937 0.930 . S
C1934 C1933 1.369 . S
C1934 C1943 1.429 . S
C1935 C1933 1.419 . S
C1935 C1936 1.363 . S
C1935 H1938 0.929 . S
C1936 C1935 1.363 . S
C1936 C1942 1.428 . S
H1937 C1933 0.930 . S
H1938 C1935 0.929 . S
S1939 N1940 1.613 . S
S1939 N1941 1.610 . S
N1940 S1939 1.613 . S
N1940 C1943 1.350 . S
N1941 S1939 1.610 . S
N1941 C1942 1.351 . S
C1942 C1936 1.428 . S
C1942 N1941 1.351 . S
C1942 C1943 1.434 . S
C1943 C1934 1.429 . S
C1943 N1940 1.350 . S
C1943 C1942 1.434 . S
C1944 C1945 1.369 . S
C1944 C1946 1.419 . S
C1944 H1948 0.930 . S
C1945 C1944 1.369 . S
C1945 C1954 1.429 . S
C1946 C1944 1.419 . S
C1946 C1947 1.363 . S
C1946 H1949 0.929 . S
C1947 C1946 1.363 . S
C1947 C1953 1.428 . S
H1948 C1944 0.930 . S
H1949 C1946 0.929 . S
S1950 N1951 1.613 . S
S1950 N1952 1.610 . S
N1951 S1950 1.613 . S
N1951 C1954 1.350 . S
N1952 S1950 1.610 . S
N1952 C1953 1.351 . S
C1953 C1947 1.428 . S
C1953 N1952 1.351 . S
C1953 C1954 1.434 . S
C1954 C1945 1.429 . S
C1954 N1951 1.350 . S
C1954 C1953 1.434 . S
C1955 C1956 1.369 . S
C1955 C1957 1.419 . S
C1955 H1959 0.930 . S
C1956 C1955 1.369 . S
C1956 C1965 1.429 . S
C1957 C1955 1.419 . S
C1957 C1958 1.363 1_565 S
C1957 H1960 0.929 . S
C1958 C1957 1.363 1_545 S
C1958 C1964 1.428 . S
H1959 C1955 0.930 . S
H1960 C1957 0.929 . S
S1961 N1962 1.613 . S
S1961 N1963 1.610 . S
N1962 S1961 1.613 . S
N1962 C1965 1.350 1_545 S
N1963 S1961 1.610 . S
N1963 C1964 1.351 . S
C1964 C1958 1.428 . S
C1964 N1963 1.351 . S
C1964 C1965 1.434 1_545 S
C1965 C1956 1.429 . S
C1965 N1962 1.350 1_565 S
C1965 C1964 1.434 1_565 S
C1966 C1967 1.369 . S
C1966 C1968 1.419 . S
C1966 H1970 0.930 . S
C1967 C1966 1.369 . S
C1967 C1976 1.429 . S
C1968 C1966 1.419 . S
C1968 C1969 1.363 . S
C1968 H1971 0.929 . S
C1969 C1968 1.363 . S
C1969 C1975 1.428 . S
H1970 C1966 0.930 . S
H1971 C1968 0.929 . S
S1972 N1973 1.613 . S
S1972 N1974 1.610 . S
N1973 S1972 1.613 . S
N1973 C1976 1.350 . S
N1974 S1972 1.610 . S
N1974 C1975 1.351 . S
C1975 C1969 1.428 . S
C1975 N1974 1.351 . S
C1975 C1976 1.434 . S
C1976 C1967 1.429 . S
C1976 N1973 1.350 . S
C1976 C1975 1.434 . S
C1977 C1978 1.369 . S
C1977 C1979 1.419 . S
C1977 H1981 0.930 . S
C1978 C1977 1.369 . S
C1978 C1987 1.429 1_556 S
C1979 C1977 1.419 . S
C1979 C1980 1.363 1_556 S
C1979 H1982 0.929 . S
C1980 C1979 1.363 1_554 S
C1980 C1986 1.428 . S
H1981 C1977 0.930 . S
H1982 C1979 0.929 . S
S1983 N1984 1.613 . S
S1983 N1985 1.610 . S
N1984 S1983 1.613 . S
N1984 C1987 1.350 . S
N1985 S1983 1.610 . S
N1985 C1986 1.351 . S
C1986 C1980 1.428 . S
C1986 N1985 1.351 . S
C1986 C1987 1.434 . S
C1987 C1978 1.429 1_554 S
C1987 N1984 1.350 . S
C1987 C1986 1.434 . S
C1988 C1989 1.369 . S
C1988 C1990 1.419 . S
C1988 H1992 0.930 . S
C1989 C1988 1.369 . S
C1989 C1998 1.429 . S
C1990 C1988 1.419 . S
C1990 C1991 1.363 . S
C1990 H1993 0.929 . S
C1991 C1990 1.363 . S
C1991 C1997 1.428 . S
H1992 C1988 0.930 . S
H1993 C1990 0.929 . S
S1994 N1995 1.613 . S
S1994 N1996 1.610 . S
N1995 S1994 1.613 . S
N1995 C1998 1.350 . S
N1996 S1994 1.610 . S
N1996 C1997 1.351 . S
C1997 C1991 1.428 . S
C1997 N1996 1.351 . S
C1997 C1998 1.434 . S
C1998 C1989 1.429 . S
C1998 N1995 1.350 . S
C1998 C1997 1.434 . S
C1999 C2000 1.369 . S
C1999 C2001 1.419 . S
C1999 H2003 0.930 . S
C2000 C1999 1.369 . S
C2000 C2009 1.429 . S
C2001 C1999 1.419 . S
C2001 C2002 1.363 . S
C2001 H2004 0.929 . S
C2002 C2001 1.363 . S
C2002 C2008 1.428 . S
H2003 C1999 0.930 . S
H2004 C2001 0.929 . S
S2005 N2006 1.613 . S
S2005 N2007 1.610 . S
N2006 S2005 1.613 . S
N2006 C2009 1.350 . S
N2007 S2005 1.610 . S
N2007 C2008 1.351 . S
C2008 C2002 1.428 . S
C2008 N2007 1.351 . S
C2008 C2009 1.434 . S
C2009 C2000 1.429 . S
C2009 N2006 1.350 . S
C2009 C2008 1.434 . S
C2010 C2011 1.369 . S
C2010 C2012 1.419 . S
C2010 H2014 0.930 . S
C2011 C2010 1.369 . S
C2011 C2020 1.429 . S
C2012 C2010 1.419 . S
C2012 C2013 1.363 . S
C2012 H2015 0.929 . S
C2013 C2012 1.363 . S
C2013 C2019 1.428 . S
H2014 C2010 0.930 . S
H2015 C2012 0.929 . S
S2016 N2017 1.613 . S
S2016 N2018 1.610 . S
N2017 S2016 1.613 . S
N2017 C2020 1.350 . S
N2018 S2016 1.610 . S
N2018 C2019 1.351 . S
C2019 C2013 1.428 . S
C2019 N2018 1.351 . S
C2019 C2020 1.434 . S
C2020 C2011 1.429 . S
C2020 N2017 1.350 . S
C2020 C2019 1.434 . S
C2021 C2022 1.369 . S
C2021 C2023 1.419 . S
C2021 H2025 0.930 . S
C2022 C2021 1.369 . S
C2022 C2031 1.429 . S
C2023 C2021 1.419 . S
C2023 C2024 1.363 . S
C2023 H2026 0.929 . S
C2024 C2023 1.363 . S
C2024 C2030 1.428 . S
H2025 C2021 0.930 . S
H2026 C2023 0.929 . S
S2027 N2028 1.613 . S
S2027 N2029 1.610 . S
N2028 S2027 1.613 . S
N2028 C2031 1.350 . S
N2029 S2027 1.610 . S
N2029 C2030 1.351 . S
C2030 C2024 1.428 . S
C2030 N2029 1.351 . S
C2030 C2031 1.434 . S
C2031 C2022 1.429 . S
C2031 N2028 1.350 . S
C2031 C2030 1.434 . S
C977 C105 1.926 1_455 S
C979 C358 1.921 1_556 S
C988 C65 1.461 . S
C990 C378 1.432 . S
C999 C73 0.877 . S
C1001 C425 0.873 . S
C1012 C482 1.260 . S
C1010 C92 1.305 . S
C1021 C17 2.687 . S
C1023 C499 2.663 1_565 S
C1034 C558 1.929 . S
C1032 C37 1.941 . S
C1045 C591 2.766 . S
C1043 C49 2.692 . S
C1054 C8 2.563 . S
C1056 C638 2.516 . S
C1067 C351 1.909 . S
C1065 C231 1.781 1_545 S
C1076 C241 1.605 . S
C1078 C379 1.603 . S
C1089 C418 0.619 . S
C1087 C273 0.677 . S
C1100 C478 2.277 . S
C1098 C171 2.268 . S
C1109 C227 0.683 . S
C1111 C505 0.706 . S
C1122 C551 2.268 . S
C1120 C245 2.263 . S
C1133 C602 0.925 . S
C1131 C269 0.935 . S
C1144 C631 2.396 . S
C1142 C175 2.316 . S
C1155 C362 2.122 1_565 S
C1153 C162 2.200 . S
C1164 C289 2.228 . S
C1166 C658 2.193 . S
C1177 C722 1.595 . S
C1175 C330 1.627 . S
C1188 C758 1.616 . S
C1186 C317 1.643 . S
C1197 C120 1.877 . S
C1199 C642 1.922 . S
C1208 C134 2.613 . S
C1210 C419 2.616 . S
C1219 C331 1.552 . S
C1221 C791 1.611 . S
C1232 C825 0.619 . S
C1230 C303 0.540 . S
C1243 C339 1.991 1_565 S
C1241 C59 1.999 . S
C1254 C831 1.610 . S
C1252 C107 1.600 . S
C1263 C91 0.943 . S
C1265 C442 0.921 . S
C1274 C78 1.311 . S
C1276 C785 1.293 . S
C1287 C518 2.705 . S
C1285 C7 2.687 . S
C1296 C51 1.981 . S
C1298 C699 1.969 . S
C1309 C578 2.770 1_566 S
C1307 C31 2.781 . S
C1320 C859 2.534 . S
C1318 C22 2.558 . S
C1331 C338 1.829 . S
C1329 C143 1.770 . S
C1342 C838 1.677 . S
C1340 C315 1.685 . S
C1351 C115 0.647 . S
C1353 C431 0.656 . S
C1362 C287 2.193 . S
C1364 C779 2.293 . S
C1373 C147 0.731 . S
C1375 C522 0.748 . S
C1386 C698 2.308 . S
C1384 C311 2.308 . S
C1395 C119 0.900 . S
C1397 C585 0.933 . S
C1406 C283 2.400 . S
C1408 C858 2.398 . S
C1417 C190 2.046 1_556 S
C1419 C345 2.011 . S
C1428 C177 2.207 . S
C1430 C671 2.187 . S
C1439 C260 1.591 . S
C1441 C545 1.613 . S
C1450 C247 1.685 . S
C1452 C739 1.655 . S
C1463 C865 1.840 . S
C1461 C274 1.736 . S
C1472 C218 2.632 . S
C1474 C438 2.637 1_565 S
C1485 C458 1.631 . S
C1483 C261 1.541 . S
C1496 C402 0.711 . S
C1494 C205 0.717 . S
C1505 C77 2.042 . S
C1507 C918 2.030 . S
C1518 C818 1.437 . S
C1516 C93 1.466 . S
C1527 C101 0.813 . S
C1529 C945 0.814 . S
C1538 C64 1.355 . S
C1540 C802 1.288 . S
C1549 C45 2.676 . S
C1551 C659 2.653 . S
C1562 C718 1.954 . S
C1560 C9 1.966 . S
C1573 C751 2.774 . S
C1571 C21 2.704 . S
C1584 C878 2.465 . S
C1582 C36 2.516 . S
C1595 C911 1.866 . S
C1593 C259 1.745 . S
C1604 C185 1.583 . S
C1606 C819 1.585 . S
C1617 C938 0.657 . S
C1615 C203 0.649 . S
C1628 C798 2.272 . S
C1626 C213 2.263 . S
C1639 C665 0.696 . S
C1637 C255 0.680 . S
C1648 C189 2.296 . S
C1650 C711 2.294 . S
C1661 C762 0.915 . S
C1659 C199 0.927 . S
C1670 C217 2.299 . S
C1672 C871 2.376 . S
C1683 C922 2.133 . S
C1681 C316 2.223 . S
C1692 C135 2.255 . S
C1694 C498 2.219 . S
C1705 C562 1.567 . S
C1703 C148 1.587 . S
C1716 C598 1.621 1_565 S
C1714 C163 1.647 . S
C1727 C882 1.717 . S
C1725 C302 1.705 . S
C1736 C288 2.631 . S
C1738 C939 2.633 1_655 S
C1749 C471 1.637 . S
C1747 C149 1.581 . S
C1760 C385 0.689 . S
C1758 C121 0.659 . S
C1769 C87 2.028 . S
C1771 C899 2.023 . S
C1782 C391 1.448 . S
C1780 C79 1.435 . S
C1791 C63 0.945 . S
C1793 C962 0.926 . S
C1802 C106 1.211 . S
C1804 C465 1.198 . S
C1813 C35 2.682 . S
C1815 C678 2.698 . S
C1826 C539 1.989 . S
C1824 C23 2.002 . S
C1835 C3 2.805 . S
C1837 C738 2.803 . S
C1846 C50 2.523 . S
C1848 C619 2.494 . S
C1859 C898 1.856 . S
C1857 C325 1.804 . S
C1868 C161 1.681 . S
C1870 C398 1.670 . S
C1881 C951 0.586 . S
C1879 C297 0.574 . S
C1890 C133 2.218 . S
C1892 C459 2.306 . S
C1901 C329 0.719 . S
C1903 C682 0.717 . S
C1914 C538 2.335 . S
C1912 C157 2.334 1_556 S
C1923 C301 0.876 . S
C1925 C745 0.888 . S
C1936 C618 2.393 . S
C1934 C129 2.397 . S
C1947 C905 2.067 . S
C1945 C246 2.102 . S
C1958 C511 2.225 . S
C1956 C219 2.245 . S
C1967 C232 1.559 . S
C1969 C705 1.583 . S
C1980 C579 1.620 . S
C1978 C191 1.646 . S
C1989 C204 1.748 . S
C1991 C625 1.825 . S
C2000 C176 2.658 . S
C2002 C958 2.664 . S
C2013 C778 1.644 . S
C2011 C233 1.569 . S
C2024 C842 0.749 . S
C2022 C275 0.737 . S
