# Generated by pormake.
# Topology ant, (3,6)-cn, num edge types: 1
# Building blocks:
#     Node 0, Type 0, BuildingBlock: WUSLED_clean_sbu_0, # of connection points: 3
#     Node 1, Type 0, BuildingBlock: WUSLED_clean_sbu_0, # of connection points: 3
#     Node 2, Type 0, BuildingBlock: WUSLED_clean_sbu_0, # of connection points: 3
#     Node 3, Type 0, BuildingBlock: WUSLED_clean_sbu_0, # of connection points: 3
#     Node 4, Type 0, BuildingBlock: WUSLED_clean_sbu_0, # of connection points: 3
#     Node 5, Type 0, BuildingBlock: WUSLED_clean_sbu_0, # of connection points: 3
#     Node 6, Type 0, BuildingBlock: WUSLED_clean_sbu_0, # of connection points: 3
#     Node 7, Type 0, BuildingBlock: WUSLED_clean_sbu_0, # of connection points: 3
#     Node 8, Type 1, BuildingBlock: MIDCAF_clean_sbu_0, # of connection points: 6
#     Node 9, Type 1, BuildingBlock: MIDCAF_clean_sbu_0, # of connection points: 6
#     Node 10, Type 1, BuildingBlock: MIDCAF_clean_sbu_0, # of connection points: 6
#     Node 11, Type 1, BuildingBlock: MIDCAF_clean_sbu_0, # of connection points: 6
#     Edge 12, Type (0, 1), BuildingBlock: OJICUG_clean_linker_0, # of connection points: 2
#     Edge 13, Type (0, 1), BuildingBlock: OJICUG_clean_linker_0, # of connection points: 2
#     Edge 14, Type (0, 1), BuildingBlock: OJICUG_clean_linker_0, # of connection points: 2
#     Edge 15, Type (0, 1), BuildingBlock: OJICUG_clean_linker_0, # of connection points: 2
#     Edge 16, Type (0, 1), BuildingBlock: OJICUG_clean_linker_0, # of connection points: 2
#     Edge 17, Type (0, 1), BuildingBlock: OJICUG_clean_linker_0, # of connection points: 2
#     Edge 18, Type (0, 1), BuildingBlock: OJICUG_clean_linker_0, # of connection points: 2
#     Edge 19, Type (0, 1), BuildingBlock: OJICUG_clean_linker_0, # of connection points: 2
#     Edge 20, Type (0, 1), BuildingBlock: OJICUG_clean_linker_0, # of connection points: 2
#     Edge 21, Type (0, 1), BuildingBlock: OJICUG_clean_linker_0, # of connection points: 2
#     Edge 22, Type (0, 1), BuildingBlock: OJICUG_clean_linker_0, # of connection points: 2
#     Edge 23, Type (0, 1), BuildingBlock: OJICUG_clean_linker_0, # of connection points: 2
#     Edge 24, Type (0, 1), BuildingBlock: OJICUG_clean_linker_0, # of connection points: 2
#     Edge 25, Type (0, 1), BuildingBlock: OJICUG_clean_linker_0, # of connection points: 2
#     Edge 26, Type (0, 1), BuildingBlock: OJICUG_clean_linker_0, # of connection points: 2
#     Edge 27, Type (0, 1), BuildingBlock: OJICUG_clean_linker_0, # of connection points: 2
#     Edge 28, Type (0, 1), BuildingBlock: OJICUG_clean_linker_0, # of connection points: 2
#     Edge 29, Type (0, 1), BuildingBlock: OJICUG_clean_linker_0, # of connection points: 2
#     Edge 30, Type (0, 1), BuildingBlock: OJICUG_clean_linker_0, # of connection points: 2
#     Edge 31, Type (0, 1), BuildingBlock: OJICUG_clean_linker_0, # of connection points: 2
#     Edge 32, Type (0, 1), BuildingBlock: OJICUG_clean_linker_0, # of connection points: 2
#     Edge 33, Type (0, 1), BuildingBlock: OJICUG_clean_linker_0, # of connection points: 2
#     Edge 34, Type (0, 1), BuildingBlock: OJICUG_clean_linker_0, # of connection points: 2
#     Edge 35, Type (0, 1), BuildingBlock: OJICUG_clean_linker_0, # of connection points: 2
# Relax obj value: 0.097
# Max RMSD: 0.155
# Mean RMSD: 0.100
data_MOF--net-ant--node1-WUSLED_clean_sbu_0--node2-MIDCAF_clean_sbu_0--edge1-OJICUG_clean_linker_0
_symmetry_space_group_name_H-M    P1
_symmetry_Int_Tables_number       1
_symmetry_cell_setting            triclinic
loop_
_symmetry_equiv_pos_as_xyz
'x, y, z'
_cell_length_a     29.581479
_cell_length_b     29.371178
_cell_length_c     77.97702
_cell_angle_alpha  89.927849
_cell_angle_beta   94.241351
_cell_angle_gamma 90.165768
loop_
_atom_site_label
_atom_site_type_symbol
_atom_site_fract_x
_atom_site_fract_y
_atom_site_fract_z
_atom_type_partial_charge
C0 C 0.20967 0.11976 0.10358 0.0
C1 C 0.19662 0.08869 0.09046 0.0
C2 C 0.21817 0.02424 0.10928 0.0
C3 C 0.20065 0.04168 0.09328 0.0
C4 C 0.23176 0.05568 0.12235 0.0
C5 C 0.22756 0.10287 0.11951 0.0
U6 U 0.18541 0.21669 0.07227 0.0
O7 O 0.14302 0.27816 0.07275 0.0
O8 O 0.21573 0.28511 0.06936 0.0
C9 C 0.17694 0.30619 0.07065 0.0
C10 C 0.20437 0.16948 0.1006 0.0
C11 C 0.17723 0.35138 0.07939 0.0
C12 C 0.14369 0.40666 0.09808 0.0
C13 C 0.14693 0.36195 0.09187 0.0
C14 C 0.20086 0.43139 0.07951 0.0
C15 C 0.17042 0.44221 0.09193 0.0
C16 C 0.20417 0.38668 0.07335 0.0
C17 C 0.16406 0.17982 0.02506 0.0
C18 C 0.16158 0.23215 1.00093 0.0
C19 C 0.13931 0.15342 0.9963 0.0
C20 C 0.14847 0.14481 0.01389 0.0
C21 C 0.14559 0.19728 0.9896 0.0
C22 C 0.17049 0.22355 0.01848 0.0
C23 C 0.17407 0.17007 0.04346 0.0
O24 O 0.2356 0.18867 0.09182 0.0
O25 O 0.16317 0.18288 0.09546 0.0
O26 O 0.14111 0.17831 0.05341 0.0
O27 O 0.21379 0.18415 0.05009 0.0
H28 H 0.18273 0.10083 0.07805 0.0
H29 H 0.18879 0.019 0.08296 0.0
H30 H 0.24575 0.0439 0.13478 0.0
H31 H 0.23809 0.12617 0.12981 0.0
H32 H 0.11945 0.41351 0.10749 0.0
H33 H 0.125 0.33592 0.09659 0.0
H34 H 0.22249 0.45743 0.07461 0.0
H35 H 0.22724 0.37986 0.0635 0.0
H36 H 0.16773 0.26613 0.99622 0.0
H37 H 0.12673 0.12592 0.988 0.0
H38 H 0.14332 0.11079 0.01878 0.0
H39 H 0.18268 0.25099 0.02689 0.0
C40 C 0.20891 0.79519 0.35037 0.0
C41 C 0.23783 0.78265 0.33769 0.0
C42 C 0.30508 0.79903 0.35712 0.0
C43 C 0.28518 0.78446 0.34101 0.0
C44 C 0.27575 0.81218 0.36969 0.0
C45 C 0.22837 0.81025 0.36635 0.0
U46 U 0.10214 0.77914 0.31985 0.0
O47 O 0.03449 0.81074 0.31864 0.0
O48 O 0.04075 0.73656 0.32192 0.0
C49 C 0.01326 0.7716 0.31998 0.0
C50 C 0.15872 0.79163 0.34725 0.0
C51 C 0.96943 0.77076 0.32816 0.0
C52 C 0.91538 0.80332 0.34684 0.0
C53 C 0.95948 0.80105 0.34126 0.0
C54 C 0.89063 0.74469 0.32651 0.0
C55 C 0.87991 0.77583 0.33929 0.0
C56 C 0.93471 0.74221 0.32107 0.0
C57 C 0.12052 0.76287 0.27158 0.0
C58 C 0.12587 0.71639 0.24604 0.0
C59 C 0.08187 0.78578 0.24418 0.0
C60 C 0.09256 0.79347 0.26179 0.0
C61 C 0.09875 0.74728 0.23605 0.0
C62 C 0.13662 0.72415 0.26352 0.0
C63 C 0.13616 0.77164 0.28979 0.0
O64 O 0.13847 0.82524 0.3386 0.0
O65 O 0.14299 0.75149 0.34225 0.0
O66 O 0.13284 0.73728 0.30044 0.0
O67 O 0.12543 0.81091 0.29645 0.0
H68 H 0.22377 0.7708 0.32526 0.0
H69 H 0.30614 0.77319 0.33104 0.0
H70 H 0.28934 0.82411 0.38216 0.0
H71 H 0.20686 0.82024 0.37635 0.0
H72 H 0.9091 0.827 0.357 0.0
H73 H 0.98547 0.82363 0.34692 0.0
H74 H 0.86463 0.72324 0.3202 0.0
H75 H 0.94131 0.71896 0.31077 0.0
H76 H 0.14052 0.68697 0.24022 0.0
H77 H 0.06086 0.81021 0.2369 0.0
H78 H 0.07966 0.82378 0.26761 0.0
H79 H 0.15868 0.70031 0.27067 0.0
C80 C 0.70628 0.61645 0.60347 0.0
C81 C 0.69332 0.58517 0.59041 0.0
C82 C 0.71658 0.52109 0.60916 0.0
C83 C 0.69821 0.53823 0.59323 0.0
C84 C 0.73007 0.55275 0.62216 0.0
C85 C 0.72499 0.59985 0.61933 0.0
U86 U 0.68323 0.71316 0.57197 0.0
O87 O 0.64074 0.77465 0.57197 0.0
O88 O 0.71382 0.78153 0.56933 0.0
C89 C 0.67491 0.80268 0.57027 0.0
C90 C 0.7005 0.66611 0.60044 0.0
C91 C 0.6747 0.84781 0.57908 0.0
C92 C 0.63723 0.90473 0.59591 0.0
C93 C 0.64068 0.85985 0.58991 0.0
C94 C 0.7017 0.92674 0.58048 0.0
C95 C 0.66747 0.93904 0.5912 0.0
C96 C 0.70518 0.88185 0.57451 0.0
C97 C 0.66715 0.67459 0.52457 0.0
C98 C 0.67612 0.72214 0.49958 0.0
C99 C 0.64677 0.64542 0.49581 0.0
C100 C 0.65027 0.63946 0.51369 0.0
C101 C 0.6606 0.68652 0.48856 0.0
C102 C 0.67927 0.71628 0.51742 0.0
C103 C 0.67455 0.66616 0.54319 0.0
O104 O 0.73225 0.68571 0.59205 0.0
O105 O 0.65947 0.67906 0.59486 0.0
O106 O 0.64039 0.67507 0.55248 0.0
O107 O 0.7137 0.68009 0.5504 0.0
H108 H 0.67888 0.59707 0.57804 0.0
H109 H 0.6864 0.51536 0.58297 0.0
H110 H 0.74469 0.5412 0.63454 0.0
H111 H 0.73554 0.62333 0.62957 0.0
H112 H 0.61006 0.91273 0.60398 0.0
H113 H 0.61596 0.83491 0.59343 0.0
H114 H 0.72608 0.95176 0.57674 0.0
H115 H 0.73123 0.87399 0.56591 0.0
H116 H 0.68621 0.75453 0.49438 0.0
H117 H 0.63472 0.61744 0.48765 0.0
H118 H 0.64077 0.607 0.51901 0.0
H119 H 0.69208 0.74393 0.5256 0.0
C120 C 0.70425 0.29066 0.84989 0.0
C121 C 0.73373 0.28578 0.83668 0.0
C122 C 0.80013 0.29382 0.8573 0.0
C123 C 0.78103 0.28737 0.84033 0.0
C124 C 0.77022 0.2996 0.8704 0.0
C125 C 0.72299 0.29802 0.86673 0.0
U126 U 0.5977 0.27908 0.81877 0.0
O127 O 0.53664 0.23553 0.81971 0.0
O128 O 0.52982 0.30999 0.8186 0.0
C129 C 0.50886 0.27046 0.81879 0.0
C130 C 0.65419 0.28678 0.84645 0.0
C131 C 0.46583 0.26754 0.82739 0.0
C132 C 0.41867 0.28418 0.85093 0.0
C133 C 0.46142 0.28364 0.84411 0.0
C134 C 0.38439 0.25205 0.82453 0.0
C135 C 0.37923 0.26919 0.84112 0.0
C136 C 0.42706 0.25121 0.81782 0.0
C137 C 0.61465 0.27453 0.7702 0.0
C138 C 0.57336 0.23281 0.74701 0.0
C139 C 0.62286 0.29513 0.74035 0.0
C140 C 0.63321 0.30255 0.75793 0.0
C141 C 0.59392 0.25925 0.73467 0.0
C142 C 0.58349 0.24046 0.76461 0.0
C143 C 0.63123 0.27908 0.78849 0.0
O144 O 0.63361 0.32174 0.83878 0.0
O145 O 0.63916 0.24753 0.84022 0.0
O146 O 0.62864 0.24248 0.79809 0.0
O147 O 0.62007 0.31655 0.79632 0.0
H148 H 0.72017 0.27997 0.82358 0.0
H149 H 0.80261 0.28211 0.82989 0.0
H150 H 0.78327 0.30522 0.88357 0.0
H151 H 0.70103 0.30204 0.87714 0.0
H152 H 0.41658 0.29674 0.86389 0.0
H153 H 0.49076 0.29644 0.85176 0.0
H154 H 0.35525 0.24072 0.81643 0.0
H155 H 0.42955 0.23895 0.80482 0.0
H156 H 0.55067 0.20513 0.74305 0.0
H157 H 0.63979 0.31575 0.73123 0.0
H158 H 0.6573 0.32902 0.76193 0.0
H159 H 0.56827 0.21861 0.77381 0.0
C160 C 0.07728 0.87507 0.92312 0.0
C161 C 0.04169 0.90667 0.92347 0.0
C162 C 0.09418 0.97026 0.92083 0.0
C163 C 0.05002 0.95359 0.92242 0.0
C164 C 0.13014 0.93878 0.92159 0.0
C165 C 0.12181 0.89184 0.92265 0.0
U166 U 0.06212 0.74506 0.93468 0.0
O167 O 0.07875 0.6875 0.91829 0.0
O168 O 0.00771 0.69994 0.92338 0.0
C169 C 0.03624 0.67467 0.91545 0.0
C170 C 0.06687 0.82589 0.9201 0.0
C171 C 0.02682 0.62537 0.9135 0.0
C172 C 0.99237 0.56537 0.89529 0.0
C173 C 0.99662 0.61139 0.89977 0.0
C174 C 0.04639 0.5459 0.91897 0.0
C175 C 0.01799 0.53212 0.90457 0.0
C176 C 0.05102 0.59219 0.92334 0.0
C177 C 0.08592 0.70794 0.98353 0.0
C178 C 0.13425 0.66969 0.00584 0.0
C179 C 0.05821 0.6918 0.01158 0.0
C180 C 0.05106 0.70865 0.99483 0.0
C181 C 0.10054 0.67372 0.01761 0.0
C182 C 0.12714 0.68685 0.98905 0.0
C183 C 0.0824 0.7375 0.96799 0.0
O184 O 0.10067 0.79681 0.92129 0.0
O185 O 0.02968 0.80945 0.92601 0.0
O186 O 0.04162 0.74757 0.96119 0.0
O187 O 0.11249 0.73285 0.9565 0.0
H188 H 0.00691 0.89508 0.92354 0.0
H189 H 0.02134 0.97651 0.92165 0.0
H190 H 0.16466 0.95031 0.92061 0.0
H191 H 0.1501 0.86867 0.92221 0.0
H192 H 0.97009 0.55593 0.88421 0.0
H193 H 0.9778 0.63641 0.89193 0.0
H194 H 0.06698 0.52117 0.92628 0.0
H195 H 0.0748 0.60215 0.93391 0.0
H196 H 0.16702 0.65535 0.00985 0.0
H197 H 0.03146 0.69639 0.02017 0.0
H198 H 0.01914 0.72526 0.99117 0.0
H199 H 0.15494 0.68604 0.98077 0.0
C200 C 0.54661 0.78704 0.1556 0.0
C201 C 0.51816 0.77467 0.16849 0.0
C202 C 0.4503 0.79047 0.14935 0.0
C203 C 0.47077 0.77622 0.1654 0.0
C204 C 0.47914 0.80356 0.13657 0.0
C205 C 0.5266 0.80183 0.13966 0.0
U206 U 0.65438 0.77746 0.18592 0.0
O207 O 0.72247 0.80806 0.18542 0.0
O208 O 0.71503 0.73356 0.18527 0.0
C209 C 0.74307 0.76842 0.18566 0.0
C210 C 0.59686 0.78348 0.15848 0.0
C211 C 0.78623 0.76442 0.17718 0.0
C212 C 0.83487 0.78071 0.154 0.0
C213 C 0.79191 0.78148 0.16066 0.0
C214 C 0.86686 0.74552 0.18017 0.0
C215 C 0.87331 0.76338 0.16377 0.0
C216 C 0.82398 0.74599 0.18672 0.0
C217 C 0.63742 0.77624 0.23469 0.0
C218 C 0.67564 0.73496 0.25868 0.0
C219 C 0.62961 0.80061 0.26415 0.0
C220 C 0.62016 0.80657 0.24644 0.0
C221 C 0.65635 0.7639 0.27051 0.0
C222 C 0.66638 0.74111 0.24094 0.0
C223 C 0.62134 0.77953 0.21629 0.0
O224 O 0.61799 0.8189 0.16563 0.0
O225 O 0.61231 0.74463 0.16491 0.0
O226 O 0.62373 0.74229 0.20708 0.0
O227 O 0.6328 0.81642 0.20809 0.0
H228 H 0.5326 0.76308 0.1809 0.0
H229 H 0.45024 0.76496 0.17553 0.0
H230 H 0.46511 0.81525 0.12412 0.0
H231 H 0.54773 0.81172 0.12951 0.0
H232 H 0.83789 0.79394 0.14117 0.0
H233 H 0.7634 0.79597 0.15304 0.0
H234 H 0.89521 0.73244 0.18826 0.0
H235 H 0.82057 0.73301 0.19958 0.0
H236 H 0.6967 0.7066 0.26315 0.0
H237 H 0.6137 0.82319 0.27286 0.0
H238 H 0.59768 0.83385 0.24194 0.0
H239 H 0.68053 0.71739 0.23218 0.0
C240 C 0.5705 0.37575 0.42299 0.0
C241 C 0.53426 0.40665 0.42146 0.0
C242 C 0.58659 0.47105 0.42096 0.0
C243 C 0.54213 0.45358 0.42049 0.0
C244 C 0.62293 0.44023 0.42345 0.0
C245 C 0.61501 0.39315 0.4244 0.0
U246 U 0.56366 0.24562 0.43514 0.0
O247 O 0.57693 0.1889 0.41787 0.0
O248 O 0.50834 0.19839 0.42632 0.0
C249 C 0.53477 0.17428 0.41701 0.0
C250 C 0.56095 0.32638 0.42031 0.0
C251 C 0.52737 0.12457 0.41589 0.0
C252 C 0.4926 0.06131 0.39951 0.0
C253 C 0.49599 0.10798 0.40299 0.0
C254 C 0.55045 0.04667 0.42244 0.0
C255 C 0.52041 0.03007 0.40894 0.0
C256 C 0.55405 0.09353 0.42583 0.0
C257 C 0.60437 0.21076 0.48299 0.0
C258 C 0.57807 0.16213 0.50557 0.0
C259 C 0.64866 0.2035 0.51042 0.0
C260 C 0.6433 0.22078 0.49368 0.0
C261 C 0.61515 0.17549 0.51692 0.0
C262 C 0.57254 0.17987 0.48881 0.0
C263 C 0.59472 0.23939 0.46753 0.0
O264 O 0.59556 0.2985 0.41997 0.0
O265 O 0.52676 0.3088 0.42792 0.0
O266 O 0.55198 0.24739 0.4626 0.0
O267 O 0.62085 0.23529 0.45468 0.0
H268 H 0.49961 0.39437 0.42006 0.0
H269 H 0.51318 0.47584 0.41829 0.0
H270 H 0.65762 0.45234 0.42408 0.0
H271 H 0.64382 0.3704 0.42551 0.0
H272 H 0.46894 0.04976 0.38914 0.0
H273 H 0.47522 0.1314 0.3951 0.0
H274 H 0.57283 0.02365 0.42983 0.0
H275 H 0.57877 0.10557 0.43575 0.0
H276 H 0.55201 0.13986 0.50991 0.0
H277 H 0.67742 0.21526 0.51863 0.0
H278 H 0.66818 0.24478 0.48953 0.0
H279 H 0.54221 0.17141 0.4808 0.0
C280 C 0.04706 0.28323 0.65517 0.0
C281 C 0.01839 0.27242 0.66818 0.0
C282 C 0.95082 0.28613 0.64863 0.0
C283 C 0.97102 0.27373 0.66495 0.0
C284 C 0.97989 0.29776 0.63574 0.0
C285 C 0.02731 0.29629 0.63898 0.0
U286 U 0.15447 0.27544 0.68576 0.0
O287 O 0.21501 0.23113 0.68566 0.0
O288 O 0.22264 0.3056 0.6851 0.0
C289 C 0.24315 0.26588 0.68569 0.0
C290 C 0.09727 0.27972 0.65819 0.0
C291 C 0.28627 0.26118 0.67721 0.0
C292 C 0.33726 0.28193 0.65528 0.0
C293 C 0.29391 0.28264 0.6616 0.0
C294 C 0.36579 0.23787 0.67993 0.0
C295 C 0.37423 0.26031 0.66452 0.0
C296 C 0.32247 0.23828 0.68613 0.0
C297 C 0.13713 0.27755 0.73445 0.0
C298 C 0.17588 0.23773 0.75867 0.0
C299 C 0.12839 0.30259 0.76376 0.0
C300 C 0.1191 0.3079 0.74601 0.0
C301 C 0.15571 0.26653 0.77033 0.0
C302 C 0.16681 0.24325 0.7409 0.0
C303 C 0.12111 0.27983 0.71604 0.0
O304 O 0.11839 0.31557 0.66501 0.0
O305 O 0.11257 0.24129 0.66504 0.0
O306 O 0.12336 0.24196 0.70718 0.0
O307 O 0.13286 0.31608 0.70752 0.0
H308 H 0.03265 0.26218 0.68079 0.0
H309 H 0.95029 0.26368 0.67519 0.0
H310 H 0.96607 0.30805 0.62309 0.0
H311 H 0.04862 0.30496 0.62873 0.0
H312 H 0.34177 0.29874 0.64316 0.0
H313 H 0.2667 0.30068 0.65448 0.0
H314 H 0.39299 0.22129 0.68759 0.0
H315 H 0.31761 0.2219 0.69833 0.0
H316 H 0.19738 0.20988 0.76332 0.0
H317 H 0.11184 0.32503 0.77234 0.0
H318 H 0.09611 0.33456 0.74134 0.0
H319 H 0.18158 0.21958 0.73227 0.0
Zn320 Zn 0.19893 0.68328 0.1488 0.0
Zn321 Zn 0.10238 0.78236 0.10721 0.0
Zn322 Zn 0.15343 0.73327 0.12745 0.0
C323 C 0.12079 0.70534 0.08836 0.0
C324 C 0.17939 0.83538 0.11538 0.0
O325 O 0.11765 0.73124 0.15181 0.0
O326 O 0.16519 0.69187 0.16928 0.0
C327 C 0.17346 0.62415 0.12221 0.0
O328 O 0.14185 0.69393 0.10283 0.0
O329 O 0.10075 0.74308 0.08681 0.0
O330 O 0.14102 0.83702 0.10722 0.0
O331 O 0.19223 0.79867 0.12353 0.0
O332 O 0.1909 0.62388 0.13746 0.0
O333 O 0.15989 0.66242 0.11532 0.0
O334 O 0.22282 0.76672 0.13219 0.0
O335 O 0.25836 0.71428 0.14848 0.0
C336 C 0.25931 0.75154 0.14045 0.0
O337 O 0.08559 0.74751 0.13917 0.0
O338 O 0.04625 0.78689 0.11911 0.0
C339 C 0.12917 0.7145 0.16682 0.0
C340 C 0.04838 0.76775 0.13362 0.0
Zn341 Zn 0.55791 0.69318 0.36137 0.0
Zn342 Zn 0.65782 0.81053 0.39469 0.0
Zn343 Zn 0.60409 0.75419 0.37937 0.0
C344 C 0.574 0.85365 0.39147 0.0
C345 C 0.70412 0.79314 0.36728 0.0
O346 O 0.60354 0.6887 0.39463 0.0
O347 O 0.56916 0.63972 0.37643 0.0
C348 C 0.49669 0.76403 0.36772 0.0
O349 O 0.56173 0.81569 0.38417 0.0
O350 O 0.61472 0.86014 0.39685 0.0
O351 O 0.70761 0.81992 0.37992 0.0
O352 O 0.66832 0.76758 0.36493 0.0
O353 O 0.49839 0.72463 0.36134 0.0
O354 O 0.53303 0.7828 0.37482 0.0
O355 O 0.6336 0.74738 0.35389 0.0
O356 O 0.58976 0.6963 0.34002 0.0
C357 C 0.62237 0.72412 0.34017 0.0
O358 O 0.6248 0.72325 0.40492 0.0
O359 O 0.6724 0.77544 0.41589 0.0
C360 C 0.58949 0.64796 0.39088 0.0
C361 C 0.65193 0.73809 0.41741 0.0
Zn362 Zn 0.60155 0.2806 0.60826 0.0
Zn363 Zn 0.69928 0.17836 0.6479 0.0
Zn364 Zn 0.65345 0.23006 0.6272 0.0
C365 C 0.75994 0.24643 0.6394 0.0
C366 C 0.671 0.12105 0.62106 0.0
O367 O 0.58643 0.24399 0.63967 0.0
O368 O 0.54697 0.28708 0.62084 0.0
C369 C 0.67976 0.33226 0.61538 0.0
O370 O 0.7231 0.26276 0.63178 0.0
O371 O 0.75917 0.20838 0.6469 0.0
O372 O 0.68856 0.11962 0.63628 0.0
O373 O 0.65843 0.15991 0.61442 0.0
O374 O 0.641 0.33439 0.60756 0.0
O375 O 0.69262 0.29534 0.62339 0.0
O376 O 0.64012 0.19246 0.60218 0.0
O377 O 0.59578 0.24198 0.58773 0.0
C378 C 0.61663 0.20458 0.58829 0.0
O379 O 0.61929 0.22719 0.6519 0.0
O380 O 0.66745 0.18722 0.66887 0.0
C381 C 0.54956 0.26595 0.63494 0.0
C382 C 0.63155 0.21022 0.66681 0.0
Zn383 Zn 0.0568 0.19234 0.86111 0.0
Zn384 Zn 0.14511 0.31168 0.89266 0.0
Zn385 Zn 0.09984 0.25351 0.87874 0.0
C386 C 0.12583 0.25006 0.9182 0.0
C387 C 0.06986 0.3575 0.88354 0.0
O388 O 0.13189 0.24821 0.85374 0.0
O389 O 0.08571 0.20028 0.83925 0.0
C390 C 0.09263 0.14687 0.88997 0.0
O391 O 0.11661 0.22522 0.90478 0.0
O392 O 0.13519 0.29164 0.9164 0.0
O393 O 0.11162 0.36646 0.88491 0.0
O394 O 0.05656 0.31558 0.88239 0.0
O395 O 0.07478 0.13846 0.87513 0.0
O396 O 0.102 0.1884 0.89445 0.0
O397 O 0.02832 0.28003 0.87374 0.0
O398 O 0.99493 0.21811 0.86268 0.0
C399 C 0.99214 0.25855 0.86796 0.0
O400 O 0.16587 0.2657 0.86531 0.0
O401 O 0.20629 0.30519 0.88495 0.0
C402 C 0.11932 0.22691 0.83969 0.0
C403 C 0.20413 0.28404 0.87087 0.0
C404 C 0.17127 0.52886 0.08852 0.0
C405 C 0.16783 0.48975 0.09898 0.0
H406 H 0.17516 0.60225 0.08742 0.0
C407 C 0.16322 0.49626 0.1166 0.0
H408 H 0.17443 0.52533 0.07485 0.0
C409 C 0.16335 0.53996 0.12365 0.0
C410 C 0.16794 0.57905 0.11341 0.0
H411 H 0.16103 0.46742 0.12516 0.0
H412 H 0.16069 0.54305 0.13739 0.0
C413 C 0.17108 0.57308 0.09565 0.0
C414 C 0.81562 0.82319 0.34928 0.0
C415 C 0.83201 0.78052 0.34445 0.0
H416 H 0.76222 0.86061 0.35978 0.0
C417 C 0.80231 0.74274 0.34484 0.0
H418 H 0.83638 0.85348 0.34864 0.0
C419 C 0.75874 0.74722 0.35084 0.0
C420 C 0.744 0.78945 0.35674 0.0
H421 H 0.81337 0.70921 0.34126 0.0
H422 H 0.73786 0.71712 0.3519 0.0
C423 C 0.77256 0.8275 0.35542 0.0
C424 C 0.70919 0.45167 0.62825 0.0
C425 C 0.71905 0.47052 0.61229 0.0
H426 H 0.69094 0.39165 0.64199 0.0
C427 C 0.72682 0.44024 0.59881 0.0
H428 H 0.70266 0.47353 0.63895 0.0
C429 C 0.72007 0.39325 0.60063 0.0
C430 C 0.70636 0.37503 0.61608 0.0
H431 H 0.73567 0.45302 0.58646 0.0
H432 H 0.72192 0.37155 0.58948 0.0
C433 C 0.70294 0.40448 0.63011 0.0
C434 C 0.869 0.26992 0.87646 0.0
C435 C 0.85072 0.29191 0.86143 0.0
H436 H 0.9284 0.24319 0.89044 0.0
C437 C 0.88132 0.30929 0.84997 0.0
H438 H 0.84692 0.25541 0.88551 0.0
C439 C 0.92837 0.30259 0.85299 0.0
C440 C 0.94606 0.27861 0.86756 0.0
H441 H 0.86886 0.3269 0.83837 0.0
H442 H 0.95066 0.31375 0.84339 0.0
C443 C 0.9159 0.26311 0.87939 0.0
C444 C 0.02603 0.47599 0.8807 0.0
C445 C 0.01916 0.48433 0.8981 0.0
H446 H 0.04653 0.42771 0.86217 0.0
C447 C 0.01856 0.44705 0.90942 0.0
H448 H 0.0271 0.50395 0.87167 0.0
C449 C 0.02824 0.40304 0.90376 0.0
C450 C 0.03941 0.39562 0.88678 0.0
H451 H 0.01311 0.4523 0.92285 0.0
H452 H 0.03161 0.3757 0.91311 0.0
C453 C 0.03659 0.4322 0.87516 0.0
C454 C 0.93209 0.80167 0.14667 0.0
C455 C 0.91991 0.76526 0.15713 0.0
H456 H 0.98183 0.83124 0.1315 0.0
C457 C 0.9528 0.73123 0.16117 0.0
H458 H 0.90876 0.82936 0.14364 0.0
C459 C 0.99572 0.73288 0.15442 0.0
C460 C 0.0067 0.7684 0.14335 0.0
H461 H 0.94497 0.70241 0.1691 0.0
H462 H 0.01939 0.70534 0.15722 0.0
C463 C 0.97451 0.80306 0.13985 0.0
C464 C 0.62809 0.53224 0.40568 0.0
C465 C 0.59444 0.52013 0.41673 0.0
H466 H 0.65333 0.58324 0.3891 0.0
C467 C 0.56485 0.55443 0.42175 0.0
H468 H 0.65113 0.50693 0.40129 0.0
C469 C 0.5663 0.59836 0.41469 0.0
C470 C 0.59774 0.60908 0.40268 0.0
H471 H 0.53892 0.54668 0.43042 0.0
H472 H 0.54071 0.62286 0.41766 0.0
C473 C 0.62952 0.57611 0.39868 0.0
C474 C 0.87072 0.29498 0.65794 0.0
C475 C 0.89997 0.28476 0.64498 0.0
H476 H 0.80294 0.29206 0.66608 0.0
C477 C 0.88006 0.26996 0.62892 0.0
H478 H 0.8842 0.30736 0.67035 0.0
C479 C 0.83301 0.26251 0.62636 0.0
C480 C 0.80454 0.26984 0.63973 0.0
H481 H 0.90105 0.26119 0.61862 0.0
H482 H 0.8194 0.24763 0.61435 0.0
C483 C 0.82383 0.28719 0.65539 0.0
C484 C 0.45257 0.22627 0.66108 0.0
C485 C 0.42138 0.2625 0.65841 0.0
H486 H 0.51801 0.19901 0.65615 0.0
C487 C 0.43571 0.30136 0.64972 0.0
H488 H 0.44309 0.19562 0.66767 0.0
C489 C 0.47835 0.303 0.64309 0.0
C490 C 0.50861 0.26614 0.64505 0.0
H491 H 0.41382 0.33069 0.64786 0.0
H492 H 0.48723 0.33304 0.63597 0.0
C493 C 0.49575 0.22816 0.65455 0.0
C494 C 0.37887 0.77691 0.12963 0.0
C495 C 0.39938 0.78963 0.14587 0.0
H496 H 0.31765 0.75635 0.11498 0.0
C497 C 0.37064 0.79825 0.15913 0.0
H498 H 0.39945 0.76948 0.11907 0.0
C499 C 0.32372 0.79064 0.1567 0.0
C500 C 0.30383 0.77516 0.14084 0.0
H501 H 0.38454 0.80914 0.1717 0.0
H502 H 0.30328 0.79413 0.16759 0.0
C503 C 0.33172 0.76972 0.12717 0.0
C504 C 0.3231 0.3101 0.85844 0.0
C505 C 0.33293 0.27327 0.84784 0.0
H506 H 0.27527 0.34251 0.87355 0.0
C507 C 0.29795 0.24128 0.84368 0.0
H508 H 0.34811 0.33634 0.86155 0.0
C509 C 0.25512 0.24538 0.85038 0.0
C510 C 0.24637 0.28139 0.86152 0.0
H511 H 0.30396 0.21226 0.83561 0.0
H512 H 0.22962 0.21953 0.84739 0.0
C513 C 0.2808 0.31392 0.86519 0.0
C514 C 0.37563 0.78599 0.37727 0.0
C515 C 0.35589 0.79858 0.3609 0.0
H516 H 0.43631 0.76658 0.39242 0.0
C517 C 0.38532 0.80771 0.34788 0.0
H518 H 0.35451 0.7781 0.38764 0.0
C519 C 0.43231 0.80115 0.35072 0.0
C520 C 0.45149 0.78614 0.36675 0.0
H521 H 0.37194 0.81835 0.33521 0.0
H522 H 0.45343 0.80519 0.34004 0.0
C523 C 0.42276 0.77973 0.38012 0.0
C524 C 0.67334 0.02542 0.58783 0.0
C525 C 0.6643 0.98686 0.59794 0.0
H526 H 0.682 0.09836 0.58698 0.0
C527 C 0.65362 0.9942 0.61497 0.0
H528 H 0.68125 0.02131 0.57458 0.0
C529 C 0.65361 0.0381 0.62188 0.0
C530 C 0.66403 0.07647 0.61205 0.0
H531 H 0.64698 0.96579 0.62329 0.0
H532 H 0.64663 0.0419 0.63525 0.0
C533 C 0.67303 0.06977 0.5948 0.0
C534 C 0.20896 0.95496 0.12829 0.0
C535 C 0.21968 0.97364 0.1124 0.0
H536 H 0.18959 0.89516 0.14193 0.0
C537 C 0.22751 0.94323 0.09896 0.0
H538 H 0.20234 0.97693 0.13895 0.0
C539 C 0.22015 0.89633 0.10075 0.0
C540 C 0.20577 0.8783 0.11613 0.0
H541 H 0.23698 0.95587 0.08668 0.0
H542 H 0.22223 0.87456 0.08963 0.0
C543 C 0.20209 0.90784 0.13011 0.0
C544 C 0.52586 0.94669 0.41635 0.0
C545 C 0.5213 0.9811 0.40381 0.0
H546 H 0.54405 0.8774 0.42189 0.0
C547 C 0.52287 0.96877 0.38639 0.0
H548 H 0.52415 0.95481 0.42983 0.0
C549 C 0.53361 0.92407 0.38183 0.0
C550 C 0.54247 0.89091 0.39459 0.0
H551 H 0.51975 0.99442 0.37639 0.0
H552 H 0.53951 0.91671 0.36857 0.0
C553 C 0.53633 0.90211 0.41177 0.0
C554 C 0.07619 0.05464 0.92261 0.0
C555 C 0.10156 0.01897 0.91596 0.0
H556 H 0.05464 0.12449 0.9199 0.0
C557 C 0.13019 0.02932 0.90285 0.0
H558 H 0.0541 0.04807 0.93281 0.0
C559 C 0.13052 0.07287 0.89561 0.0
C560 C 0.10284 0.10748 0.9014 0.0
H561 H 0.14979 0.00293 0.8972 0.0
H562 H 0.15016 0.07866 0.88461 0.0
C563 C 0.07691 0.09857 0.91541 0.0
C564 C 0.11598 0.24924 0.96596 0.0
C565 C 0.13546 0.20731 0.97097 0.0
H566 H 0.09746 0.295 0.94538 0.0
C567 C 0.14688 0.17661 0.95807 0.0
H568 H 0.10536 0.27311 0.97543 0.0
C569 C 0.14141 0.18896 0.94061 0.0
C570 C 0.12482 0.23226 0.93589 0.0
H571 H 0.16194 0.14397 0.96148 0.0
H572 H 0.15242 0.1658 0.93097 0.0
C573 C 0.11108 0.26165 0.94869 0.0
C574 C 0.09705 0.77731 0.20565 0.0
C575 C 0.09206 0.74064 0.21704 0.0
H576 H 0.11126 0.79756 0.1801 0.0
C577 C 0.08756 0.69643 0.21019 0.0
H578 H 0.10064 0.81181 0.21045 0.0
C579 C 0.0941 0.68841 0.1929 0.0
C580 C 0.10418 0.72449 0.18201 0.0
H581 H 0.08239 0.66753 0.21847 0.0
H582 H 0.09508 0.65357 0.18839 0.0
C583 C 0.10288 0.76926 0.18822 0.0
C584 C 0.69785 0.71254 0.46257 0.0
C585 C 0.66036 0.69237 0.46962 0.0
H586 H 0.72495 0.74133 0.44036 0.0
C587 C 0.62235 0.68044 0.45858 0.0
H588 H 0.72806 0.72105 0.47065 0.0
C589 C 0.62062 0.69193 0.44104 0.0
C590 C 0.65698 0.71519 0.43435 0.0
H591 H 0.593 0.6647 0.46366 0.0
H592 H 0.58974 0.68556 0.43307 0.0
C593 C 0.6962 0.72377 0.44517 0.0
C594 C 0.59755 0.19971 0.71194 0.0
C595 C 0.59094 0.24555 0.71622 0.0
H596 H 0.61494 0.15255 0.69262 0.0
C597 C 0.58834 0.27825 0.70294 0.0
H598 H 0.60003 0.17366 0.72181 0.0
C599 C 0.59624 0.26586 0.68604 0.0
C600 C 0.60765 0.22077 0.68229 0.0
H601 H 0.58281 0.31378 0.70581 0.0
H602 H 0.59752 0.29216 0.67633 0.0
C603 C 0.60613 0.18755 0.69519 0.0
C604 C 0.1533 0.67958 0.04448 0.0
C605 C 0.11101 0.66613 0.03651 0.0
H606 H 0.19015 0.70069 0.06786 0.0
C607 C 0.07663 0.65317 0.04713 0.0
H608 H 0.18067 0.69012 0.03688 0.0
C609 C 0.08217 0.65979 0.06495 0.0
C610 C 0.12259 0.67824 0.07257 0.0
H611 H 0.04405 0.64141 0.04158 0.0
H612 H 0.05336 0.65461 0.07255 0.0
C613 C 0.159 0.68544 0.06234 0.0
C614 C 0.66296 0.78677 0.30187 0.0
C615 C 0.65867 0.75253 0.2892 0.0
H616 H 0.6562 0.80432 0.3283 0.0
C617 C 0.65053 0.70757 0.29436 0.0
H618 H 0.66974 0.82167 0.29833 0.0
C619 C 0.64271 0.69778 0.31142 0.0
C620 C 0.6433 0.73257 0.32379 0.0
H621 H 0.64673 0.68038 0.285 0.0
H622 H 0.63337 0.66332 0.31471 0.0
C623 C 0.65569 0.7768 0.31906 0.0
C624 C 0.57457 0.16985 0.54407 0.0
C625 C 0.61539 0.16723 0.53592 0.0
H626 H 0.54324 0.18213 0.56748 0.0
C627 C 0.65637 0.16487 0.5464 0.0
H628 H 0.54225 0.17208 0.53665 0.0
C629 C 0.65676 0.17102 0.56427 0.0
C630 C 0.61617 0.17892 0.572 0.0
H631 H 0.68847 0.16173 0.54068 0.0
H632 H 0.68901 0.17415 0.57172 0.0
C633 C 0.57503 0.17562 0.56186 0.0
C634 C 0.16112 0.28967 0.80165 0.0
C635 C 0.15746 0.25533 0.78901 0.0
H636 H 0.15337 0.30723 0.82804 0.0
C637 C 0.14923 0.21038 0.79414 0.0
H638 H 0.16788 0.32456 0.79811 0.0
C639 C 0.14066 0.20065 0.81112 0.0
C640 C 0.14072 0.23548 0.82344 0.0
H641 H 0.14587 0.18313 0.78477 0.0
H642 H 0.13124 0.16621 0.81437 0.0
C643 C 0.15323 0.27971 0.81879 0.0
loop_
_geom_bond_atom_site_label_1
_geom_bond_atom_site_label_2
_geom_bond_distance
_geom_bond_site_symmetry_2
_ccdc_geom_bond_type
C0 C1 1.264 . S
C0 C5 1.479 . S
C0 C10 1.465 . S
C1 C0 1.264 . S
C1 C3 1.339 . S
C1 H28 0.931 . S
C2 C3 1.395 . S
C2 C4 1.320 . S
C3 C1 1.339 . S
C3 C2 1.395 . S
C3 H29 0.929 . S
C4 C2 1.320 . S
C4 C5 1.405 . S
C4 H30 0.930 . S
C5 C0 1.479 . S
C5 C4 1.405 . S
C5 H31 0.931 . S
U6 O7 2.454 . S
U6 O8 2.458 . S
U6 C9 2.984 . S
U6 C10 2.847 . S
U6 C23 2.882 . S
U6 O24 2.441 . S
U6 O25 2.420 . S
U6 O26 2.455 . S
U6 O27 2.449 . S
O7 U6 2.454 . S
O7 C9 1.353 . S
O8 U6 2.458 . S
O8 C9 1.286 . S
C9 U6 2.984 . S
C9 O7 1.353 . S
C9 O8 1.286 . S
C9 C11 1.363 . S
C10 C0 1.465 . S
C10 U6 2.847 . S
C10 O24 1.249 . S
C10 O25 1.202 . S
C11 C9 1.363 . S
C11 C13 1.408 . S
C11 C16 1.342 . S
C12 C13 1.310 . S
C12 C15 1.461 . S
C12 H32 0.932 . S
C13 C11 1.408 . S
C13 C12 1.310 . S
C13 H33 0.930 . S
C14 C15 1.474 . S
C14 C16 1.285 . S
C14 H34 0.929 . S
C15 C12 1.461 . S
C15 C14 1.474 . S
C16 C11 1.342 . S
C16 C14 1.285 . S
C16 H35 0.930 . S
C17 C20 1.424 . S
C17 C22 1.245 . S
C17 C23 1.428 . S
C18 C21 1.260 . S
C18 C22 1.477 1_556 S
C18 H36 0.932 . S
C19 C20 1.384 1_556 S
C19 C21 1.479 . S
C19 H37 0.929 . S
C20 C17 1.424 . S
C20 C19 1.384 1_554 S
C20 H38 0.928 . S
C21 C18 1.260 . S
C21 C19 1.479 . S
C22 C17 1.245 . S
C22 C18 1.477 1_554 S
C22 H39 0.932 . S
C23 U6 2.882 . S
C23 C17 1.428 . S
C23 O26 1.301 . S
C23 O27 1.282 . S
O24 U6 2.441 . S
O24 C10 1.249 . S
O25 U6 2.420 . S
O25 C10 1.202 . S
O26 U6 2.455 . S
O26 C23 1.301 . S
O27 U6 2.449 . S
O27 C23 1.282 . S
H28 C1 0.931 . S
H29 C3 0.929 . S
H30 C4 0.930 . S
H31 C5 0.931 . S
H32 C12 0.932 . S
H33 C13 0.930 . S
H34 C14 0.929 . S
H35 C16 0.930 . S
H36 C18 0.932 . S
H37 C19 0.929 . S
H38 C20 0.928 . S
H39 C22 0.932 . S
C40 C41 1.264 . S
C40 C45 1.479 . S
C40 C50 1.465 . S
C41 C40 1.264 . S
C41 C43 1.339 . S
C41 H68 0.931 . S
C42 C43 1.395 . S
C42 C44 1.320 . S
C43 C41 1.339 . S
C43 C42 1.395 . S
C43 H69 0.929 . S
C44 C42 1.320 . S
C44 C45 1.405 . S
C44 H70 0.930 . S
C45 C40 1.479 . S
C45 C44 1.405 . S
C45 H71 0.931 . S
U46 O47 2.454 . S
U46 O48 2.458 . S
U46 C49 2.984 . S
U46 C50 2.847 . S
U46 C63 2.882 . S
U46 O64 2.441 . S
U46 O65 2.420 . S
U46 O66 2.455 . S
U46 O67 2.449 . S
O47 U46 2.454 . S
O47 C49 1.353 . S
O48 U46 2.458 . S
O48 C49 1.286 . S
C49 U46 2.984 . S
C49 O47 1.353 . S
C49 O48 1.286 . S
C49 C51 1.363 1_455 S
C50 C40 1.465 . S
C50 U46 2.847 . S
C50 O64 1.249 . S
C50 O65 1.202 . S
C51 C49 1.363 1_655 S
C51 C53 1.408 . S
C51 C56 1.342 . S
C52 C53 1.310 . S
C52 C55 1.461 . S
C52 H72 0.932 . S
C53 C51 1.408 . S
C53 C52 1.310 . S
C53 H73 0.930 1_655 S
C54 C55 1.474 . S
C54 C56 1.285 . S
C54 H74 0.929 . S
C55 C52 1.461 . S
C55 C54 1.474 . S
C56 C51 1.342 . S
C56 C54 1.285 . S
C56 H75 0.930 . S
C57 C60 1.424 . S
C57 C62 1.245 . S
C57 C63 1.428 . S
C58 C61 1.260 . S
C58 C62 1.477 . S
C58 H76 0.932 . S
C59 C60 1.384 . S
C59 C61 1.479 . S
C59 H77 0.929 . S
C60 C57 1.424 . S
C60 C59 1.384 . S
C60 H78 0.928 . S
C61 C58 1.260 . S
C61 C59 1.479 . S
C62 C57 1.245 . S
C62 C58 1.477 . S
C62 H79 0.932 . S
C63 U46 2.882 . S
C63 C57 1.428 . S
C63 O66 1.301 . S
C63 O67 1.282 . S
O64 U46 2.441 . S
O64 C50 1.249 . S
O65 U46 2.420 . S
O65 C50 1.202 . S
O66 U46 2.455 . S
O66 C63 1.301 . S
O67 U46 2.449 . S
O67 C63 1.282 . S
H68 C41 0.931 . S
H69 C43 0.929 . S
H70 C44 0.930 . S
H71 C45 0.931 . S
H72 C52 0.932 . S
H73 C53 0.930 1_455 S
H74 C54 0.929 . S
H75 C56 0.930 . S
H76 C58 0.932 . S
H77 C59 0.929 . S
H78 C60 0.928 . S
H79 C62 0.932 . S
C80 C81 1.264 . S
C80 C85 1.479 . S
C80 C90 1.465 . S
C81 C80 1.264 . S
C81 C83 1.339 . S
C81 H108 0.931 . S
C82 C83 1.395 . S
C82 C84 1.320 . S
C83 C81 1.339 . S
C83 C82 1.395 . S
C83 H109 0.929 . S
C84 C82 1.320 . S
C84 C85 1.405 . S
C84 H110 0.930 . S
C85 C80 1.479 . S
C85 C84 1.405 . S
C85 H111 0.931 . S
U86 O87 2.454 . S
U86 O88 2.458 . S
U86 C89 2.984 . S
U86 C90 2.847 . S
U86 C103 2.882 . S
U86 O104 2.441 . S
U86 O105 2.420 . S
U86 O106 2.455 . S
U86 O107 2.449 . S
O87 U86 2.454 . S
O87 C89 1.353 . S
O88 U86 2.458 . S
O88 C89 1.286 . S
C89 U86 2.984 . S
C89 O87 1.353 . S
C89 O88 1.286 . S
C89 C91 1.363 . S
C90 C80 1.465 . S
C90 U86 2.847 . S
C90 O104 1.249 . S
C90 O105 1.202 . S
C91 C89 1.363 . S
C91 C93 1.408 . S
C91 C96 1.342 . S
C92 C93 1.310 . S
C92 C95 1.461 . S
C92 H112 0.932 . S
C93 C91 1.408 . S
C93 C92 1.310 . S
C93 H113 0.930 . S
C94 C95 1.474 . S
C94 C96 1.285 . S
C94 H114 0.929 . S
C95 C92 1.461 . S
C95 C94 1.474 . S
C96 C91 1.342 . S
C96 C94 1.285 . S
C96 H115 0.930 . S
C97 C100 1.424 . S
C97 C102 1.245 . S
C97 C103 1.428 . S
C98 C101 1.260 . S
C98 C102 1.477 . S
C98 H116 0.932 . S
C99 C100 1.384 . S
C99 C101 1.479 . S
C99 H117 0.929 . S
C100 C97 1.424 . S
C100 C99 1.384 . S
C100 H118 0.928 . S
C101 C98 1.260 . S
C101 C99 1.479 . S
C102 C97 1.245 . S
C102 C98 1.477 . S
C102 H119 0.932 . S
C103 U86 2.882 . S
C103 C97 1.428 . S
C103 O106 1.301 . S
C103 O107 1.282 . S
O104 U86 2.441 . S
O104 C90 1.249 . S
O105 U86 2.420 . S
O105 C90 1.202 . S
O106 U86 2.455 . S
O106 C103 1.301 . S
O107 U86 2.449 . S
O107 C103 1.282 . S
H108 C81 0.931 . S
H109 C83 0.929 . S
H110 C84 0.930 . S
H111 C85 0.931 . S
H112 C92 0.932 . S
H113 C93 0.930 . S
H114 C94 0.929 . S
H115 C96 0.930 . S
H116 C98 0.932 . S
H117 C99 0.929 . S
H118 C100 0.928 . S
H119 C102 0.932 . S
C120 C121 1.264 . S
C120 C125 1.479 . S
C120 C130 1.465 . S
C121 C120 1.264 . S
C121 C123 1.339 . S
C121 H148 0.931 . S
C122 C123 1.395 . S
C122 C124 1.320 . S
C123 C121 1.339 . S
C123 C122 1.395 . S
C123 H149 0.929 . S
C124 C122 1.320 . S
C124 C125 1.405 . S
C124 H150 0.930 . S
C125 C120 1.479 . S
C125 C124 1.405 . S
C125 H151 0.931 . S
U126 O127 2.454 . S
U126 O128 2.458 . S
U126 C129 2.984 . S
U126 C130 2.847 . S
U126 C143 2.882 . S
U126 O144 2.441 . S
U126 O145 2.420 . S
U126 O146 2.455 . S
U126 O147 2.449 . S
O127 U126 2.454 . S
O127 C129 1.353 . S
O128 U126 2.458 . S
O128 C129 1.286 . S
C129 U126 2.984 . S
C129 O127 1.353 . S
C129 O128 1.286 . S
C129 C131 1.363 . S
C130 C120 1.465 . S
C130 U126 2.847 . S
C130 O144 1.249 . S
C130 O145 1.202 . S
C131 C129 1.363 . S
C131 C133 1.408 . S
C131 C136 1.342 . S
C132 C133 1.310 . S
C132 C135 1.461 . S
C132 H152 0.932 . S
C133 C131 1.408 . S
C133 C132 1.310 . S
C133 H153 0.930 . S
C134 C135 1.474 . S
C134 C136 1.285 . S
C134 H154 0.929 . S
C135 C132 1.461 . S
C135 C134 1.474 . S
C136 C131 1.342 . S
C136 C134 1.285 . S
C136 H155 0.930 . S
C137 C140 1.424 . S
C137 C142 1.245 . S
C137 C143 1.428 . S
C138 C141 1.260 . S
C138 C142 1.477 . S
C138 H156 0.932 . S
C139 C140 1.384 . S
C139 C141 1.479 . S
C139 H157 0.929 . S
C140 C137 1.424 . S
C140 C139 1.384 . S
C140 H158 0.928 . S
C141 C138 1.260 . S
C141 C139 1.479 . S
C142 C137 1.245 . S
C142 C138 1.477 . S
C142 H159 0.932 . S
C143 U126 2.882 . S
C143 C137 1.428 . S
C143 O146 1.301 . S
C143 O147 1.282 . S
O144 U126 2.441 . S
O144 C130 1.249 . S
O145 U126 2.420 . S
O145 C130 1.202 . S
O146 U126 2.455 . S
O146 C143 1.301 . S
O147 U126 2.449 . S
O147 C143 1.282 . S
H148 C121 0.931 . S
H149 C123 0.929 . S
H150 C124 0.930 . S
H151 C125 0.931 . S
H152 C132 0.932 . S
H153 C133 0.930 . S
H154 C134 0.929 . S
H155 C136 0.930 . S
H156 C138 0.932 . S
H157 C139 0.929 . S
H158 C140 0.928 . S
H159 C142 0.932 . S
C160 C161 1.264 . S
C160 C165 1.479 . S
C160 C170 1.465 . S
C161 C160 1.264 . S
C161 C163 1.339 . S
C161 H188 0.931 . S
C162 C163 1.395 . S
C162 C164 1.320 . S
C163 C161 1.339 . S
C163 C162 1.395 . S
C163 H189 0.929 . S
C164 C162 1.320 . S
C164 C165 1.405 . S
C164 H190 0.930 . S
C165 C160 1.479 . S
C165 C164 1.405 . S
C165 H191 0.931 . S
U166 O167 2.454 . S
U166 O168 2.458 . S
U166 C169 2.984 . S
U166 C170 2.847 . S
U166 C183 2.882 . S
U166 O184 2.441 . S
U166 O185 2.420 . S
U166 O186 2.455 . S
U166 O187 2.449 . S
O167 U166 2.454 . S
O167 C169 1.353 . S
O168 U166 2.458 . S
O168 C169 1.286 . S
C169 U166 2.984 . S
C169 O167 1.353 . S
C169 O168 1.286 . S
C169 C171 1.363 . S
C170 C160 1.465 . S
C170 U166 2.847 . S
C170 O184 1.249 . S
C170 O185 1.202 . S
C171 C169 1.363 . S
C171 C173 1.408 . S
C171 C176 1.342 . S
C172 C173 1.310 . S
C172 C175 1.461 . S
C172 H192 0.932 . S
C173 C171 1.408 . S
C173 C172 1.310 . S
C173 H193 0.930 . S
C174 C175 1.474 . S
C174 C176 1.285 . S
C174 H194 0.929 . S
C175 C172 1.461 . S
C175 C174 1.474 . S
C176 C171 1.342 . S
C176 C174 1.285 . S
C176 H195 0.930 . S
C177 C180 1.424 . S
C177 C182 1.245 . S
C177 C183 1.428 . S
C178 C181 1.260 . S
C178 C182 1.477 1_554 S
C178 H196 0.932 . S
C179 C180 1.384 1_554 S
C179 C181 1.479 . S
C179 H197 0.929 . S
C180 C177 1.424 . S
C180 C179 1.384 1_556 S
C180 H198 0.928 . S
C181 C178 1.260 . S
C181 C179 1.479 . S
C182 C177 1.245 . S
C182 C178 1.477 1_556 S
C182 H199 0.932 . S
C183 U166 2.882 . S
C183 C177 1.428 . S
C183 O186 1.301 . S
C183 O187 1.282 . S
O184 U166 2.441 . S
O184 C170 1.249 . S
O185 U166 2.420 . S
O185 C170 1.202 . S
O186 U166 2.455 . S
O186 C183 1.301 . S
O187 U166 2.449 . S
O187 C183 1.282 . S
H188 C161 0.931 . S
H189 C163 0.929 . S
H190 C164 0.930 . S
H191 C165 0.931 . S
H192 C172 0.932 . S
H193 C173 0.930 . S
H194 C174 0.929 . S
H195 C176 0.930 . S
H196 C178 0.932 . S
H197 C179 0.929 . S
H198 C180 0.928 . S
H199 C182 0.932 . S
C200 C201 1.264 . S
C200 C205 1.479 . S
C200 C210 1.465 . S
C201 C200 1.264 . S
C201 C203 1.339 . S
C201 H228 0.931 . S
C202 C203 1.395 . S
C202 C204 1.320 . S
C203 C201 1.339 . S
C203 C202 1.395 . S
C203 H229 0.929 . S
C204 C202 1.320 . S
C204 C205 1.405 . S
C204 H230 0.930 . S
C205 C200 1.479 . S
C205 C204 1.405 . S
C205 H231 0.931 . S
U206 O207 2.454 . S
U206 O208 2.458 . S
U206 C209 2.984 . S
U206 C210 2.847 . S
U206 C223 2.882 . S
U206 O224 2.441 . S
U206 O225 2.420 . S
U206 O226 2.455 . S
U206 O227 2.449 . S
O207 U206 2.454 . S
O207 C209 1.353 . S
O208 U206 2.458 . S
O208 C209 1.286 . S
C209 U206 2.984 . S
C209 O207 1.353 . S
C209 O208 1.286 . S
C209 C211 1.363 . S
C210 C200 1.465 . S
C210 U206 2.847 . S
C210 O224 1.249 . S
C210 O225 1.202 . S
C211 C209 1.363 . S
C211 C213 1.408 . S
C211 C216 1.342 . S
C212 C213 1.310 . S
C212 C215 1.461 . S
C212 H232 0.932 . S
C213 C211 1.408 . S
C213 C212 1.310 . S
C213 H233 0.930 . S
C214 C215 1.474 . S
C214 C216 1.285 . S
C214 H234 0.929 . S
C215 C212 1.461 . S
C215 C214 1.474 . S
C216 C211 1.342 . S
C216 C214 1.285 . S
C216 H235 0.930 . S
C217 C220 1.424 . S
C217 C222 1.245 . S
C217 C223 1.428 . S
C218 C221 1.260 . S
C218 C222 1.477 . S
C218 H236 0.932 . S
C219 C220 1.384 . S
C219 C221 1.479 . S
C219 H237 0.929 . S
C220 C217 1.424 . S
C220 C219 1.384 . S
C220 H238 0.928 . S
C221 C218 1.260 . S
C221 C219 1.479 . S
C222 C217 1.245 . S
C222 C218 1.477 . S
C222 H239 0.932 . S
C223 U206 2.882 . S
C223 C217 1.428 . S
C223 O226 1.301 . S
C223 O227 1.282 . S
O224 U206 2.441 . S
O224 C210 1.249 . S
O225 U206 2.420 . S
O225 C210 1.202 . S
O226 U206 2.455 . S
O226 C223 1.301 . S
O227 U206 2.449 . S
O227 C223 1.282 . S
H228 C201 0.931 . S
H229 C203 0.929 . S
H230 C204 0.930 . S
H231 C205 0.931 . S
H232 C212 0.932 . S
H233 C213 0.930 . S
H234 C214 0.929 . S
H235 C216 0.930 . S
H236 C218 0.932 . S
H237 C219 0.929 . S
H238 C220 0.928 . S
H239 C222 0.932 . S
C240 C241 1.264 . S
C240 C245 1.479 . S
C240 C250 1.465 . S
C241 C240 1.264 . S
C241 C243 1.339 . S
C241 H268 0.931 . S
C242 C243 1.395 . S
C242 C244 1.320 . S
C243 C241 1.339 . S
C243 C242 1.395 . S
C243 H269 0.929 . S
C244 C242 1.320 . S
C244 C245 1.405 . S
C244 H270 0.930 . S
C245 C240 1.479 . S
C245 C244 1.405 . S
C245 H271 0.931 . S
U246 O247 2.454 . S
U246 O248 2.458 . S
U246 C249 2.984 . S
U246 C250 2.847 . S
U246 C263 2.882 . S
U246 O264 2.441 . S
U246 O265 2.420 . S
U246 O266 2.455 . S
U246 O267 2.449 . S
O247 U246 2.454 . S
O247 C249 1.353 . S
O248 U246 2.458 . S
O248 C249 1.286 . S
C249 U246 2.984 . S
C249 O247 1.353 . S
C249 O248 1.286 . S
C249 C251 1.363 . S
C250 C240 1.465 . S
C250 U246 2.847 . S
C250 O264 1.249 . S
C250 O265 1.202 . S
C251 C249 1.363 . S
C251 C253 1.408 . S
C251 C256 1.342 . S
C252 C253 1.310 . S
C252 C255 1.461 . S
C252 H272 0.932 . S
C253 C251 1.408 . S
C253 C252 1.310 . S
C253 H273 0.930 . S
C254 C255 1.474 . S
C254 C256 1.285 . S
C254 H274 0.929 . S
C255 C252 1.461 . S
C255 C254 1.474 . S
C256 C251 1.342 . S
C256 C254 1.285 . S
C256 H275 0.930 . S
C257 C260 1.424 . S
C257 C262 1.245 . S
C257 C263 1.428 . S
C258 C261 1.260 . S
C258 C262 1.477 . S
C258 H276 0.932 . S
C259 C260 1.384 . S
C259 C261 1.479 . S
C259 H277 0.929 . S
C260 C257 1.424 . S
C260 C259 1.384 . S
C260 H278 0.928 . S
C261 C258 1.260 . S
C261 C259 1.479 . S
C262 C257 1.245 . S
C262 C258 1.477 . S
C262 H279 0.932 . S
C263 U246 2.882 . S
C263 C257 1.428 . S
C263 O266 1.301 . S
C263 O267 1.282 . S
O264 U246 2.441 . S
O264 C250 1.249 . S
O265 U246 2.420 . S
O265 C250 1.202 . S
O266 U246 2.455 . S
O266 C263 1.301 . S
O267 U246 2.449 . S
O267 C263 1.282 . S
H268 C241 0.931 . S
H269 C243 0.929 . S
H270 C244 0.930 . S
H271 C245 0.931 . S
H272 C252 0.932 . S
H273 C253 0.930 . S
H274 C254 0.929 . S
H275 C256 0.930 . S
H276 C258 0.932 . S
H277 C259 0.929 . S
H278 C260 0.928 . S
H279 C262 0.932 . S
C280 C281 1.264 1_455 S
C280 C285 1.479 . S
C280 C290 1.465 . S
C281 C280 1.264 1_655 S
C281 C283 1.339 . S
C281 H308 0.931 . S
C282 C283 1.395 . S
C282 C284 1.320 . S
C283 C281 1.339 . S
C283 C282 1.395 . S
C283 H309 0.929 . S
C284 C282 1.320 . S
C284 C285 1.405 1_655 S
C284 H310 0.930 . S
C285 C280 1.479 . S
C285 C284 1.405 1_455 S
C285 H311 0.931 . S
U286 O287 2.454 . S
U286 O288 2.458 . S
U286 C289 2.984 . S
U286 C290 2.847 . S
U286 C303 2.882 . S
U286 O304 2.441 . S
U286 O305 2.420 . S
U286 O306 2.455 . S
U286 O307 2.449 . S
O287 U286 2.454 . S
O287 C289 1.353 . S
O288 U286 2.458 . S
O288 C289 1.286 . S
C289 U286 2.984 . S
C289 O287 1.353 . S
C289 O288 1.286 . S
C289 C291 1.363 . S
C290 C280 1.465 . S
C290 U286 2.847 . S
C290 O304 1.249 . S
C290 O305 1.202 . S
C291 C289 1.363 . S
C291 C293 1.408 . S
C291 C296 1.342 . S
C292 C293 1.310 . S
C292 C295 1.461 . S
C292 H312 0.932 . S
C293 C291 1.408 . S
C293 C292 1.310 . S
C293 H313 0.930 . S
C294 C295 1.474 . S
C294 C296 1.285 . S
C294 H314 0.929 . S
C295 C292 1.461 . S
C295 C294 1.474 . S
C296 C291 1.342 . S
C296 C294 1.285 . S
C296 H315 0.930 . S
C297 C300 1.424 . S
C297 C302 1.245 . S
C297 C303 1.428 . S
C298 C301 1.260 . S
C298 C302 1.477 . S
C298 H316 0.932 . S
C299 C300 1.384 . S
C299 C301 1.479 . S
C299 H317 0.929 . S
C300 C297 1.424 . S
C300 C299 1.384 . S
C300 H318 0.928 . S
C301 C298 1.260 . S
C301 C299 1.479 . S
C302 C297 1.245 . S
C302 C298 1.477 . S
C302 H319 0.932 . S
C303 U286 2.882 . S
C303 C297 1.428 . S
C303 O306 1.301 . S
C303 O307 1.282 . S
O304 U286 2.441 . S
O304 C290 1.249 . S
O305 U286 2.420 . S
O305 C290 1.202 . S
O306 U286 2.455 . S
O306 C303 1.301 . S
O307 U286 2.449 . S
O307 C303 1.282 . S
H308 C281 0.931 . S
H309 C283 0.929 . S
H310 C284 0.930 . S
H311 C285 0.931 . S
H312 C292 0.932 . S
H313 C293 0.930 . S
H314 C294 0.929 . S
H315 C296 0.930 . S
H316 C298 0.932 . S
H317 C299 0.929 . S
H318 C300 0.928 . S
H319 C302 0.932 . S
Zn320 O326 1.920 . S
Zn320 O332 1.898 . S
Zn320 O335 1.905 . S
Zn321 O329 1.905 . S
Zn321 O330 1.898 . S
Zn321 O338 1.920 . S
Zn322 O325 2.080 . S
Zn322 O328 2.114 . S
Zn322 O331 2.120 . S
Zn322 O333 2.120 . S
Zn322 O334 2.114 . S
Zn322 O337 2.080 . S
C323 O328 1.166 . S
C323 O329 1.182 . S
C324 O330 1.167 . S
C324 O331 1.299 . S
O325 Zn322 2.080 . S
O325 C339 1.305 . S
O326 Zn320 1.920 . S
O326 C339 1.234 . S
C327 O332 1.167 . S
C327 O333 1.299 . S
O328 Zn322 2.114 . S
O328 C323 1.166 . S
O329 Zn321 1.905 . S
O329 C323 1.182 . S
O330 Zn321 1.898 . S
O330 C324 1.167 . S
O331 Zn322 2.120 . S
O331 C324 1.299 . S
O332 Zn320 1.898 . S
O332 C327 1.167 . S
O333 Zn322 2.120 . S
O333 C327 1.299 . S
O334 Zn322 2.114 . S
O334 C336 1.166 . S
O335 Zn320 1.905 . S
O335 C336 1.182 . S
C336 O334 1.166 . S
C336 O335 1.182 . S
O337 Zn322 2.080 . S
O337 C340 1.305 . S
O338 Zn321 1.920 . S
O338 C340 1.234 . S
C339 O325 1.305 . S
C339 O326 1.234 . S
C340 O337 1.305 . S
C340 O338 1.234 . S
Zn341 O347 1.920 . S
Zn341 O353 1.898 . S
Zn341 O356 1.905 . S
Zn342 O350 1.905 . S
Zn342 O351 1.898 . S
Zn342 O359 1.920 . S
Zn343 O346 2.080 . S
Zn343 O349 2.114 . S
Zn343 O352 2.120 . S
Zn343 O354 2.120 . S
Zn343 O355 2.114 . S
Zn343 O358 2.080 . S
C344 O349 1.166 . S
C344 O350 1.182 . S
C345 O351 1.167 . S
C345 O352 1.299 . S
O346 Zn343 2.080 . S
O346 C360 1.305 . S
O347 Zn341 1.920 . S
O347 C360 1.234 . S
C348 O353 1.167 . S
C348 O354 1.299 . S
O349 Zn343 2.114 . S
O349 C344 1.166 . S
O350 Zn342 1.905 . S
O350 C344 1.182 . S
O351 Zn342 1.898 . S
O351 C345 1.167 . S
O352 Zn343 2.120 . S
O352 C345 1.299 . S
O353 Zn341 1.898 . S
O353 C348 1.167 . S
O354 Zn343 2.120 . S
O354 C348 1.299 . S
O355 Zn343 2.114 . S
O355 C357 1.166 . S
O356 Zn341 1.905 . S
O356 C357 1.182 . S
C357 O355 1.166 . S
C357 O356 1.182 . S
O358 Zn343 2.080 . S
O358 C361 1.305 . S
O359 Zn342 1.920 . S
O359 C361 1.234 . S
C360 O346 1.305 . S
C360 O347 1.234 . S
C361 O358 1.305 . S
C361 O359 1.234 . S
Zn362 O368 1.920 . S
Zn362 O374 1.898 . S
Zn362 O377 1.905 . S
Zn363 O371 1.905 . S
Zn363 O372 1.898 . S
Zn363 O380 1.920 . S
Zn364 O367 2.080 . S
Zn364 O370 2.114 . S
Zn364 O373 2.120 . S
Zn364 O375 2.120 . S
Zn364 O376 2.114 . S
Zn364 O379 2.080 . S
C365 O370 1.166 . S
C365 O371 1.182 . S
C366 O372 1.167 . S
C366 O373 1.299 . S
O367 Zn364 2.080 . S
O367 C381 1.305 . S
O368 Zn362 1.920 . S
O368 C381 1.234 . S
C369 O374 1.167 . S
C369 O375 1.299 . S
O370 Zn364 2.114 . S
O370 C365 1.166 . S
O371 Zn363 1.905 . S
O371 C365 1.182 . S
O372 Zn363 1.898 . S
O372 C366 1.167 . S
O373 Zn364 2.120 . S
O373 C366 1.299 . S
O374 Zn362 1.898 . S
O374 C369 1.167 . S
O375 Zn364 2.120 . S
O375 C369 1.299 . S
O376 Zn364 2.114 . S
O376 C378 1.166 . S
O377 Zn362 1.905 . S
O377 C378 1.182 . S
C378 O376 1.166 . S
C378 O377 1.182 . S
O379 Zn364 2.080 . S
O379 C382 1.305 . S
O380 Zn363 1.920 . S
O380 C382 1.234 . S
C381 O367 1.305 . S
C381 O368 1.234 . S
C382 O379 1.305 . S
C382 O380 1.234 . S
Zn383 O389 1.920 . S
Zn383 O395 1.898 . S
Zn383 O398 1.905 . S
Zn384 O392 1.905 . S
Zn384 O393 1.898 . S
Zn384 O401 1.920 . S
Zn385 O388 2.080 . S
Zn385 O391 2.114 . S
Zn385 O394 2.120 . S
Zn385 O396 2.120 . S
Zn385 O397 2.114 . S
Zn385 O400 2.080 . S
C386 O391 1.166 . S
C386 O392 1.182 . S
C387 O393 1.167 . S
C387 O394 1.299 . S
O388 Zn385 2.080 . S
O388 C402 1.305 . S
O389 Zn383 1.920 . S
O389 C402 1.234 . S
C390 O395 1.167 . S
C390 O396 1.299 . S
O391 Zn385 2.114 . S
O391 C386 1.166 . S
O392 Zn384 1.905 . S
O392 C386 1.182 . S
O393 Zn384 1.898 . S
O393 C387 1.167 . S
O394 Zn385 2.120 . S
O394 C387 1.299 . S
O395 Zn383 1.898 . S
O395 C390 1.167 . S
O396 Zn385 2.120 . S
O396 C390 1.299 . S
O397 Zn385 2.114 . S
O397 C399 1.166 . S
O398 Zn383 1.905 . S
O398 C399 1.182 . S
C399 O397 1.166 . S
C399 O398 1.182 . S
O400 Zn385 2.080 . S
O400 C403 1.305 . S
O401 Zn384 1.920 . S
O401 C403 1.234 . S
C402 O388 1.305 . S
C402 O389 1.234 . S
C403 O400 1.305 . S
C403 O401 1.234 . S
C404 C405 1.387 . S
C404 H408 0.950 . S
C404 C413 1.390 . S
C405 C404 1.387 . S
C405 C407 1.387 . S
H406 C413 0.950 . S
C407 C405 1.387 . S
C407 C409 1.390 . S
C407 H411 0.950 . S
H408 C404 0.950 . S
C409 C407 1.390 . S
C409 C410 1.387 . S
C409 H412 0.950 . S
C410 C409 1.387 . S
C410 C413 1.387 . S
H411 C407 0.950 . S
H412 C409 0.950 . S
C413 C404 1.390 . S
C413 H406 0.950 . S
C413 C410 1.387 . S
C414 C415 1.387 . S
C414 H418 0.950 . S
C414 C423 1.390 . S
C415 C414 1.387 . S
C415 C417 1.387 . S
H416 C423 0.950 . S
C417 C415 1.387 . S
C417 C419 1.390 . S
C417 H421 0.950 . S
H418 C414 0.950 . S
C419 C417 1.390 . S
C419 C420 1.387 . S
C419 H422 0.950 . S
C420 C419 1.387 . S
C420 C423 1.387 . S
H421 C417 0.950 . S
H422 C419 0.950 . S
C423 C414 1.390 . S
C423 H416 0.950 . S
C423 C420 1.387 . S
C424 C425 1.387 . S
C424 H428 0.950 . S
C424 C433 1.390 . S
C425 C424 1.387 . S
C425 C427 1.387 . S
H426 C433 0.950 . S
C427 C425 1.387 . S
C427 C429 1.390 . S
C427 H431 0.950 . S
H428 C424 0.950 . S
C429 C427 1.390 . S
C429 C430 1.387 . S
C429 H432 0.950 . S
C430 C429 1.387 . S
C430 C433 1.387 . S
H431 C427 0.950 . S
H432 C429 0.950 . S
C433 C424 1.390 . S
C433 H426 0.950 . S
C433 C430 1.387 . S
C434 C435 1.387 . S
C434 H438 0.950 . S
C434 C443 1.390 . S
C435 C434 1.387 . S
C435 C437 1.387 . S
H436 C443 0.950 . S
C437 C435 1.387 . S
C437 C439 1.390 . S
C437 H441 0.950 . S
H438 C434 0.950 . S
C439 C437 1.390 . S
C439 C440 1.387 . S
C439 H442 0.950 . S
C440 C439 1.387 . S
C440 C443 1.387 . S
H441 C437 0.950 . S
H442 C439 0.950 . S
C443 C434 1.390 . S
C443 H436 0.950 . S
C443 C440 1.387 . S
C444 C445 1.387 . S
C444 H448 0.950 . S
C444 C453 1.390 . S
C445 C444 1.387 . S
C445 C447 1.387 . S
H446 C453 0.950 . S
C447 C445 1.387 . S
C447 C449 1.390 . S
C447 H451 0.950 . S
H448 C444 0.950 . S
C449 C447 1.390 . S
C449 C450 1.387 . S
C449 H452 0.950 . S
C450 C449 1.387 . S
C450 C453 1.387 . S
H451 C447 0.950 . S
H452 C449 0.950 . S
C453 C444 1.390 . S
C453 H446 0.950 . S
C453 C450 1.387 . S
C454 C455 1.387 . S
C454 H458 0.950 . S
C454 C463 1.390 . S
C455 C454 1.387 . S
C455 C457 1.387 . S
H456 C463 0.950 . S
C457 C455 1.387 . S
C457 C459 1.390 . S
C457 H461 0.950 . S
H458 C454 0.950 . S
C459 C457 1.390 . S
C459 C460 1.387 . S
C459 H462 0.950 . S
C460 C459 1.387 . S
C460 C463 1.387 . S
H461 C457 0.950 . S
H462 C459 0.950 . S
C463 C454 1.390 . S
C463 H456 0.950 . S
C463 C460 1.387 . S
C464 C465 1.387 . S
C464 H468 0.950 . S
C464 C473 1.390 . S
C465 C464 1.387 . S
C465 C467 1.387 . S
H466 C473 0.950 . S
C467 C465 1.387 . S
C467 C469 1.390 . S
C467 H471 0.950 . S
H468 C464 0.950 . S
C469 C467 1.390 . S
C469 C470 1.387 . S
C469 H472 0.950 . S
C470 C469 1.387 . S
C470 C473 1.387 . S
H471 C467 0.950 . S
H472 C469 0.950 . S
C473 C464 1.390 . S
C473 H466 0.950 . S
C473 C470 1.387 . S
C474 C475 1.387 . S
C474 H478 0.950 . S
C474 C483 1.390 . S
C475 C474 1.387 . S
C475 C477 1.387 . S
H476 C483 0.950 . S
C477 C475 1.387 . S
C477 C479 1.390 . S
C477 H481 0.950 . S
H478 C474 0.950 . S
C479 C477 1.390 . S
C479 C480 1.387 . S
C479 H482 0.950 . S
C480 C479 1.387 . S
C480 C483 1.387 . S
H481 C477 0.950 . S
H482 C479 0.950 . S
C483 C474 1.390 . S
C483 H476 0.950 . S
C483 C480 1.387 . S
C484 C485 1.387 . S
C484 H488 0.950 . S
C484 C493 1.390 . S
C485 C484 1.387 . S
C485 C487 1.387 . S
H486 C493 0.950 . S
C487 C485 1.387 . S
C487 C489 1.390 . S
C487 H491 0.950 . S
H488 C484 0.950 . S
C489 C487 1.390 . S
C489 C490 1.387 . S
C489 H492 0.950 . S
C490 C489 1.387 . S
C490 C493 1.387 . S
H491 C487 0.950 . S
H492 C489 0.950 . S
C493 C484 1.390 . S
C493 H486 0.950 . S
C493 C490 1.387 . S
C494 C495 1.387 . S
C494 H498 0.950 . S
C494 C503 1.390 . S
C495 C494 1.387 . S
C495 C497 1.387 . S
H496 C503 0.950 . S
C497 C495 1.387 . S
C497 C499 1.390 . S
C497 H501 0.950 . S
H498 C494 0.950 . S
C499 C497 1.390 . S
C499 C500 1.387 . S
C499 H502 0.950 . S
C500 C499 1.387 . S
C500 C503 1.387 . S
H501 C497 0.950 . S
H502 C499 0.950 . S
C503 C494 1.390 . S
C503 H496 0.950 . S
C503 C500 1.387 . S
C504 C505 1.387 . S
C504 H508 0.950 . S
C504 C513 1.390 . S
C505 C504 1.387 . S
C505 C507 1.387 . S
H506 C513 0.950 . S
C507 C505 1.387 . S
C507 C509 1.390 . S
C507 H511 0.950 . S
H508 C504 0.950 . S
C509 C507 1.390 . S
C509 C510 1.387 . S
C509 H512 0.950 . S
C510 C509 1.387 . S
C510 C513 1.387 . S
H511 C507 0.950 . S
H512 C509 0.950 . S
C513 C504 1.390 . S
C513 H506 0.950 . S
C513 C510 1.387 . S
C514 C515 1.387 . S
C514 H518 0.950 . S
C514 C523 1.390 . S
C515 C514 1.387 . S
C515 C517 1.387 . S
H516 C523 0.950 . S
C517 C515 1.387 . S
C517 C519 1.390 . S
C517 H521 0.950 . S
H518 C514 0.950 . S
C519 C517 1.390 . S
C519 C520 1.387 . S
C519 H522 0.950 . S
C520 C519 1.387 . S
C520 C523 1.387 . S
H521 C517 0.950 . S
H522 C519 0.950 . S
C523 C514 1.390 . S
C523 H516 0.950 . S
C523 C520 1.387 . S
C524 C525 1.387 . S
C524 H528 0.950 . S
C524 C533 1.390 . S
C525 C524 1.387 . S
C525 C527 1.387 . S
H526 C533 0.950 . S
C527 C525 1.387 . S
C527 C529 1.390 . S
C527 H531 0.950 . S
H528 C524 0.950 . S
C529 C527 1.390 . S
C529 C530 1.387 . S
C529 H532 0.950 . S
C530 C529 1.387 . S
C530 C533 1.387 . S
H531 C527 0.950 . S
H532 C529 0.950 . S
C533 C524 1.390 . S
C533 H526 0.950 . S
C533 C530 1.387 . S
C534 C535 1.387 . S
C534 H538 0.950 . S
C534 C543 1.390 . S
C535 C534 1.387 . S
C535 C537 1.387 . S
H536 C543 0.950 . S
C537 C535 1.387 . S
C537 C539 1.390 . S
C537 H541 0.950 . S
H538 C534 0.950 . S
C539 C537 1.390 . S
C539 C540 1.387 . S
C539 H542 0.950 . S
C540 C539 1.387 . S
C540 C543 1.387 . S
H541 C537 0.950 . S
H542 C539 0.950 . S
C543 C534 1.390 . S
C543 H536 0.950 . S
C543 C540 1.387 . S
C544 C545 1.387 . S
C544 H548 0.950 . S
C544 C553 1.390 . S
C545 C544 1.387 . S
C545 C547 1.387 . S
H546 C553 0.950 . S
C547 C545 1.387 . S
C547 C549 1.390 . S
C547 H551 0.950 . S
H548 C544 0.950 . S
C549 C547 1.390 . S
C549 C550 1.387 . S
C549 H552 0.950 . S
C550 C549 1.387 . S
C550 C553 1.387 . S
H551 C547 0.950 . S
H552 C549 0.950 . S
C553 C544 1.390 . S
C553 H546 0.950 . S
C553 C550 1.387 . S
C554 C555 1.387 . S
C554 H558 0.950 . S
C554 C563 1.390 . S
C555 C554 1.387 . S
C555 C557 1.387 . S
H556 C563 0.950 . S
C557 C555 1.387 . S
C557 C559 1.390 . S
C557 H561 0.950 . S
H558 C554 0.950 . S
C559 C557 1.390 . S
C559 C560 1.387 . S
C559 H562 0.950 . S
C560 C559 1.387 . S
C560 C563 1.387 . S
H561 C557 0.950 . S
H562 C559 0.950 . S
C563 C554 1.390 . S
C563 H556 0.950 . S
C563 C560 1.387 . S
C564 C565 1.387 . S
C564 H568 0.950 . S
C564 C573 1.390 . S
C565 C564 1.387 . S
C565 C567 1.387 . S
H566 C573 0.950 . S
C567 C565 1.387 . S
C567 C569 1.390 . S
C567 H571 0.950 . S
H568 C564 0.950 . S
C569 C567 1.390 . S
C569 C570 1.387 . S
C569 H572 0.950 . S
C570 C569 1.387 . S
C570 C573 1.387 . S
H571 C567 0.950 . S
H572 C569 0.950 . S
C573 C564 1.390 . S
C573 H566 0.950 . S
C573 C570 1.387 . S
C574 C575 1.387 . S
C574 H578 0.950 . S
C574 C583 1.390 . S
C575 C574 1.387 . S
C575 C577 1.387 . S
H576 C583 0.950 . S
C577 C575 1.387 . S
C577 C579 1.390 . S
C577 H581 0.950 . S
H578 C574 0.950 . S
C579 C577 1.390 . S
C579 C580 1.387 . S
C579 H582 0.950 . S
C580 C579 1.387 . S
C580 C583 1.387 . S
H581 C577 0.950 . S
H582 C579 0.950 . S
C583 C574 1.390 . S
C583 H576 0.950 . S
C583 C580 1.387 . S
C584 C585 1.387 . S
C584 H588 0.950 . S
C584 C593 1.390 . S
C585 C584 1.387 . S
C585 C587 1.387 . S
H586 C593 0.950 . S
C587 C585 1.387 . S
C587 C589 1.390 . S
C587 H591 0.950 . S
H588 C584 0.950 . S
C589 C587 1.390 . S
C589 C590 1.387 . S
C589 H592 0.950 . S
C590 C589 1.387 . S
C590 C593 1.387 . S
H591 C587 0.950 . S
H592 C589 0.950 . S
C593 C584 1.390 . S
C593 H586 0.950 . S
C593 C590 1.387 . S
C594 C595 1.387 . S
C594 H598 0.950 . S
C594 C603 1.390 . S
C595 C594 1.387 . S
C595 C597 1.387 . S
H596 C603 0.950 . S
C597 C595 1.387 . S
C597 C599 1.390 . S
C597 H601 0.950 . S
H598 C594 0.950 . S
C599 C597 1.390 . S
C599 C600 1.387 . S
C599 H602 0.950 . S
C600 C599 1.387 . S
C600 C603 1.387 . S
H601 C597 0.950 . S
H602 C599 0.950 . S
C603 C594 1.390 . S
C603 H596 0.950 . S
C603 C600 1.387 . S
C604 C605 1.387 . S
C604 H608 0.950 . S
C604 C613 1.390 . S
C605 C604 1.387 . S
C605 C607 1.387 . S
H606 C613 0.950 . S
C607 C605 1.387 . S
C607 C609 1.390 . S
C607 H611 0.950 . S
H608 C604 0.950 . S
C609 C607 1.390 . S
C609 C610 1.387 . S
C609 H612 0.950 . S
C610 C609 1.387 . S
C610 C613 1.387 . S
H611 C607 0.950 . S
H612 C609 0.950 . S
C613 C604 1.390 . S
C613 H606 0.950 . S
C613 C610 1.387 . S
C614 C615 1.387 . S
C614 H618 0.950 . S
C614 C623 1.390 . S
C615 C614 1.387 . S
C615 C617 1.387 . S
H616 C623 0.950 . S
C617 C615 1.387 . S
C617 C619 1.390 . S
C617 H621 0.950 . S
H618 C614 0.950 . S
C619 C617 1.390 . S
C619 C620 1.387 . S
C619 H622 0.950 . S
C620 C619 1.387 . S
C620 C623 1.387 . S
H621 C617 0.950 . S
H622 C619 0.950 . S
C623 C614 1.390 . S
C623 H616 0.950 . S
C623 C620 1.387 . S
C624 C625 1.387 . S
C624 H628 0.950 . S
C624 C633 1.390 . S
C625 C624 1.387 . S
C625 C627 1.387 . S
H626 C633 0.950 . S
C627 C625 1.387 . S
C627 C629 1.390 . S
C627 H631 0.950 . S
H628 C624 0.950 . S
C629 C627 1.390 . S
C629 C630 1.387 . S
C629 H632 0.950 . S
C630 C629 1.387 . S
C630 C633 1.387 . S
H631 C627 0.950 . S
H632 C629 0.950 . S
C633 C624 1.390 . S
C633 H626 0.950 . S
C633 C630 1.387 . S
C634 C635 1.387 . S
C634 H638 0.950 . S
C634 C643 1.390 . S
C635 C634 1.387 . S
C635 C637 1.387 . S
H636 C643 0.950 . S
C637 C635 1.387 . S
C637 C639 1.390 . S
C637 H641 0.950 . S
H638 C634 0.950 . S
C639 C637 1.390 . S
C639 C640 1.387 . S
C639 H642 0.950 . S
C640 C639 1.387 . S
C640 C643 1.387 . S
H641 C637 0.950 . S
H642 C639 0.950 . S
C643 C634 1.390 . S
C643 H636 0.950 . S
C643 C640 1.387 . S
C410 C327 1.546 . S
C405 C15 1.736 . S
C420 C345 1.346 . S
C415 C55 1.474 . S
C425 C82 1.482 . S
C430 C369 1.512 . S
C440 C399 1.465 1_655 S
C435 C122 1.553 . S
C450 C387 1.533 . S
C445 C175 1.532 . S
C455 C215 1.484 . S
C460 C340 1.371 1_655 S
C465 C242 1.762 . S
C470 C360 1.529 . S
C475 C282 1.549 . S
C480 C365 1.465 . S
C485 C295 1.477 . S
C490 C381 1.361 . S
C495 C202 1.549 . S
C500 C336 1.450 . S
C510 C403 1.364 . S
C505 C135 1.479 . S
C520 C348 1.456 . S
C515 C42 1.545 . S
C525 C95 1.736 1_545 S
C530 C366 1.545 . S
C535 C2 1.490 1_565 S
C540 C324 1.519 . S
C550 C344 1.528 . S
C545 C255 1.521 1_565 S
C560 C390 1.534 . S
C555 C162 1.780 1_545 S
C570 C386 1.342 . S
C565 C21 1.500 . S
C580 C339 1.426 . S
C575 C61 1.452 . S
C585 C101 1.485 . S
C590 C361 1.320 . S
C595 C141 1.466 . S
C600 C382 1.433 . S
C610 C323 1.342 . S
C605 C181 1.578 . S
C615 C221 1.488 . S
C620 C357 1.454 . S
C630 C378 1.352 . S
C625 C261 1.584 . S
C640 C402 1.435 . S
C635 C301 1.467 . S
