# Generated by pormake.
# Topology eea, (3,6)-cn, num edge types: 1
# Building blocks:
#     Node 0, Type 0, BuildingBlock: OLANEW_clean_sbu_2, # of connection points: 3
#     Node 1, Type 0, BuildingBlock: OLANEW_clean_sbu_2, # of connection points: 3
#     Node 2, Type 0, BuildingBlock: OLANEW_clean_sbu_2, # of connection points: 3
#     Node 3, Type 0, BuildingBlock: OLANEW_clean_sbu_2, # of connection points: 3
#     Node 4, Type 0, BuildingBlock: OLANEW_clean_sbu_2, # of connection points: 3
#     Node 5, Type 0, BuildingBlock: OLANEW_clean_sbu_2, # of connection points: 3
#     Node 6, Type 0, BuildingBlock: OLANEW_clean_sbu_2, # of connection points: 3
#     Node 7, Type 0, BuildingBlock: OLANEW_clean_sbu_2, # of connection points: 3
#     Node 8, Type 0, BuildingBlock: OLANEW_clean_sbu_2, # of connection points: 3
#     Node 9, Type 0, BuildingBlock: OLANEW_clean_sbu_2, # of connection points: 3
#     Node 10, Type 0, BuildingBlock: OLANEW_clean_sbu_2, # of connection points: 3
#     Node 11, Type 0, BuildingBlock: OLANEW_clean_sbu_2, # of connection points: 3
#     Node 12, Type 0, BuildingBlock: OLANEW_clean_sbu_2, # of connection points: 3
#     Node 13, Type 0, BuildingBlock: OLANEW_clean_sbu_2, # of connection points: 3
#     Node 14, Type 0, BuildingBlock: OLANEW_clean_sbu_2, # of connection points: 3
#     Node 15, Type 0, BuildingBlock: OLANEW_clean_sbu_2, # of connection points: 3
#     Node 16, Type 0, BuildingBlock: OLANEW_clean_sbu_2, # of connection points: 3
#     Node 17, Type 0, BuildingBlock: OLANEW_clean_sbu_2, # of connection points: 3
#     Node 18, Type 1, BuildingBlock: CUWYAW_clean_sbu_0, # of connection points: 6
#     Node 19, Type 1, BuildingBlock: CUWYAW_clean_sbu_0, # of connection points: 6
#     Node 20, Type 1, BuildingBlock: CUWYAW_clean_sbu_0, # of connection points: 6
#     Node 21, Type 1, BuildingBlock: CUWYAW_clean_sbu_0, # of connection points: 6
#     Node 22, Type 1, BuildingBlock: CUWYAW_clean_sbu_0, # of connection points: 6
#     Node 23, Type 1, BuildingBlock: CUWYAW_clean_sbu_0, # of connection points: 6
#     Node 24, Type 1, BuildingBlock: CUWYAW_clean_sbu_0, # of connection points: 6
#     Node 25, Type 1, BuildingBlock: CUWYAW_clean_sbu_0, # of connection points: 6
#     Node 26, Type 1, BuildingBlock: CUWYAW_clean_sbu_0, # of connection points: 6
#     Edge 27, Type (0, 1), BuildingBlock: KIFKEQ_clean_linker_1, # of connection points: 2
#     Edge 28, Type (0, 1), BuildingBlock: KIFKEQ_clean_linker_1, # of connection points: 2
#     Edge 29, Type (0, 1), BuildingBlock: KIFKEQ_clean_linker_1, # of connection points: 2
#     Edge 30, Type (0, 1), BuildingBlock: KIFKEQ_clean_linker_1, # of connection points: 2
#     Edge 31, Type (0, 1), BuildingBlock: KIFKEQ_clean_linker_1, # of connection points: 2
#     Edge 32, Type (0, 1), BuildingBlock: KIFKEQ_clean_linker_1, # of connection points: 2
#     Edge 33, Type (0, 1), BuildingBlock: KIFKEQ_clean_linker_1, # of connection points: 2
#     Edge 34, Type (0, 1), BuildingBlock: KIFKEQ_clean_linker_1, # of connection points: 2
#     Edge 35, Type (0, 1), BuildingBlock: KIFKEQ_clean_linker_1, # of connection points: 2
#     Edge 36, Type (0, 1), BuildingBlock: KIFKEQ_clean_linker_1, # of connection points: 2
#     Edge 37, Type (0, 1), BuildingBlock: KIFKEQ_clean_linker_1, # of connection points: 2
#     Edge 38, Type (0, 1), BuildingBlock: KIFKEQ_clean_linker_1, # of connection points: 2
#     Edge 39, Type (0, 1), BuildingBlock: KIFKEQ_clean_linker_1, # of connection points: 2
#     Edge 40, Type (0, 1), BuildingBlock: KIFKEQ_clean_linker_1, # of connection points: 2
#     Edge 41, Type (0, 1), BuildingBlock: KIFKEQ_clean_linker_1, # of connection points: 2
#     Edge 42, Type (0, 1), BuildingBlock: KIFKEQ_clean_linker_1, # of connection points: 2
#     Edge 43, Type (0, 1), BuildingBlock: KIFKEQ_clean_linker_1, # of connection points: 2
#     Edge 44, Type (0, 1), BuildingBlock: KIFKEQ_clean_linker_1, # of connection points: 2
#     Edge 45, Type (0, 1), BuildingBlock: KIFKEQ_clean_linker_1, # of connection points: 2
#     Edge 46, Type (0, 1), BuildingBlock: KIFKEQ_clean_linker_1, # of connection points: 2
#     Edge 47, Type (0, 1), BuildingBlock: KIFKEQ_clean_linker_1, # of connection points: 2
#     Edge 48, Type (0, 1), BuildingBlock: KIFKEQ_clean_linker_1, # of connection points: 2
#     Edge 49, Type (0, 1), BuildingBlock: KIFKEQ_clean_linker_1, # of connection points: 2
#     Edge 50, Type (0, 1), BuildingBlock: KIFKEQ_clean_linker_1, # of connection points: 2
#     Edge 51, Type (0, 1), BuildingBlock: KIFKEQ_clean_linker_1, # of connection points: 2
#     Edge 52, Type (0, 1), BuildingBlock: KIFKEQ_clean_linker_1, # of connection points: 2
#     Edge 53, Type (0, 1), BuildingBlock: KIFKEQ_clean_linker_1, # of connection points: 2
#     Edge 54, Type (0, 1), BuildingBlock: KIFKEQ_clean_linker_1, # of connection points: 2
#     Edge 55, Type (0, 1), BuildingBlock: KIFKEQ_clean_linker_1, # of connection points: 2
#     Edge 56, Type (0, 1), BuildingBlock: KIFKEQ_clean_linker_1, # of connection points: 2
#     Edge 57, Type (0, 1), BuildingBlock: KIFKEQ_clean_linker_1, # of connection points: 2
#     Edge 58, Type (0, 1), BuildingBlock: KIFKEQ_clean_linker_1, # of connection points: 2
#     Edge 59, Type (0, 1), BuildingBlock: KIFKEQ_clean_linker_1, # of connection points: 2
#     Edge 60, Type (0, 1), BuildingBlock: KIFKEQ_clean_linker_1, # of connection points: 2
#     Edge 61, Type (0, 1), BuildingBlock: KIFKEQ_clean_linker_1, # of connection points: 2
#     Edge 62, Type (0, 1), BuildingBlock: KIFKEQ_clean_linker_1, # of connection points: 2
#     Edge 63, Type (0, 1), BuildingBlock: KIFKEQ_clean_linker_1, # of connection points: 2
#     Edge 64, Type (0, 1), BuildingBlock: KIFKEQ_clean_linker_1, # of connection points: 2
#     Edge 65, Type (0, 1), BuildingBlock: KIFKEQ_clean_linker_1, # of connection points: 2
#     Edge 66, Type (0, 1), BuildingBlock: KIFKEQ_clean_linker_1, # of connection points: 2
#     Edge 67, Type (0, 1), BuildingBlock: KIFKEQ_clean_linker_1, # of connection points: 2
#     Edge 68, Type (0, 1), BuildingBlock: KIFKEQ_clean_linker_1, # of connection points: 2
#     Edge 69, Type (0, 1), BuildingBlock: KIFKEQ_clean_linker_1, # of connection points: 2
#     Edge 70, Type (0, 1), BuildingBlock: KIFKEQ_clean_linker_1, # of connection points: 2
#     Edge 71, Type (0, 1), BuildingBlock: KIFKEQ_clean_linker_1, # of connection points: 2
#     Edge 72, Type (0, 1), BuildingBlock: KIFKEQ_clean_linker_1, # of connection points: 2
#     Edge 73, Type (0, 1), BuildingBlock: KIFKEQ_clean_linker_1, # of connection points: 2
#     Edge 74, Type (0, 1), BuildingBlock: KIFKEQ_clean_linker_1, # of connection points: 2
#     Edge 75, Type (0, 1), BuildingBlock: KIFKEQ_clean_linker_1, # of connection points: 2
#     Edge 76, Type (0, 1), BuildingBlock: KIFKEQ_clean_linker_1, # of connection points: 2
#     Edge 77, Type (0, 1), BuildingBlock: KIFKEQ_clean_linker_1, # of connection points: 2
#     Edge 78, Type (0, 1), BuildingBlock: KIFKEQ_clean_linker_1, # of connection points: 2
#     Edge 79, Type (0, 1), BuildingBlock: KIFKEQ_clean_linker_1, # of connection points: 2
#     Edge 80, Type (0, 1), BuildingBlock: KIFKEQ_clean_linker_1, # of connection points: 2
# Relax obj value: 0.027
# Max RMSD: 0.190
# Mean RMSD: 0.125
data_MOF--net-eea--node1-OLANEW_clean_sbu_2--node2-CUWYAW_clean_sbu_0--edge1-KIFKEQ_clean_linker_1
_symmetry_space_group_name_H-M    P1
_symmetry_Int_Tables_number       1
_symmetry_cell_setting            triclinic
loop_
_symmetry_equiv_pos_as_xyz
'x, y, z'
_cell_length_a     61.428307
_cell_length_b     59.771036
_cell_length_c     73.086931
_cell_angle_alpha  97.0315
_cell_angle_beta   93.350253
_cell_angle_gamma 120.72857
loop_
_atom_site_label
_atom_site_type_symbol
_atom_site_fract_x
_atom_site_fract_y
_atom_site_fract_z
_atom_type_partial_charge
O0 O 0.26313 0.14989 0.44084 0.0
Cd1 Cd 0.2483 0.13931 0.40747 0.0
O2 O 0.2935 0.14112 0.43756 0.0
Cd3 Cd 0.27815 0.12169 0.40862 0.0
O4 O 0.25641 0.08419 0.38918 0.0
C5 C 0.26791 0.0725 0.38372 0.0
O6 O 0.29271 0.08439 0.3888 0.0
C7 C 0.28227 0.14944 0.44793 0.0
C8 C 0.23689 0.1756 0.39636 0.0
O9 O 0.22003 0.15493 0.40207 0.0
O10 O 0.25926 0.17915 0.39588 0.0
O11 O 0.90206 0.2075 0.42794 0.0
Cd12 Cd 0.91234 0.21732 0.39706 0.0
O13 O 0.87887 0.16562 0.41554 0.0
Cd14 Cd 0.85164 0.123 0.41225 0.0
O15 O 0.82726 0.08008 0.4045 0.0
C16 C 0.80398 0.06965 0.39762 0.0
O17 O 0.79486 0.08504 0.39574 0.0
C18 C 0.88723 0.1837 0.42988 0.0
C19 C 0.96123 0.22882 0.39155 0.0
O20 O 0.95744 0.24685 0.39905 0.0
O21 O 0.94188 0.20518 0.38687 0.0
O22 O 0.90548 0.76132 0.44516 0.0
Cd23 Cd 0.90928 0.77777 0.41562 0.0
O24 O 0.89009 0.78475 0.45795 0.0
Cd25 Cd 0.88361 0.79928 0.43343 0.0
O26 O 0.85792 0.80843 0.41855 0.0
C27 C 0.83502 0.78951 0.41302 0.0
O28 O 0.8286 0.76557 0.41544 0.0
C29 C 0.8979 0.76888 0.45913 0.0
C30 C 0.95372 0.78687 0.40089 0.0
O31 O 0.95361 0.80506 0.41209 0.0
O32 O 0.93286 0.76428 0.3967 0.0
O33 O 0.15158 0.25592 0.57366 0.0
Cd34 Cd 0.1416 0.2389 0.60273 0.0
O35 O 0.11607 0.25576 0.57305 0.0
Cd36 Cd 0.08215 0.25859 0.56797 0.0
O37 O 0.04822 0.25066 0.581 0.0
C38 C 0.02728 0.2464 0.57281 0.0
O39 O 0.02512 0.24737 0.55498 0.0
C40 C 0.1358 0.2605 0.56548 0.0
C41 C 0.17613 0.22618 0.6171 0.0
O42 O 0.15606 0.20899 0.60573 0.0
O43 O 0.17995 0.24946 0.62157 0.0
O44 O 0.69818 0.79713 0.59258 0.0
Cd45 Cd 0.70075 0.78687 0.62361 0.0
O46 O 0.71828 0.83913 0.60463 0.0
Cd47 Cd 0.73395 0.88156 0.60676 0.0
O48 O 0.75256 0.92419 0.61559 0.0
C49 C 0.74857 0.93863 0.60623 0.0
O50 O 0.73286 0.92768 0.59047 0.0
C51 C 0.70731 0.8209 0.59036 0.0
C52 C 0.73865 0.7753 0.63046 0.0
O53 O 0.7167 0.75788 0.62125 0.0
O54 O 0.74288 0.79845 0.63639 0.0
O55 O 0.10566 0.85877 0.579 0.0
Cd56 Cd 0.10372 0.87128 0.61179 0.0
O57 O 0.13906 0.85511 0.58527 0.0
Cd58 Cd 0.14671 0.87455 0.61414 0.0
O59 O 0.16828 0.91155 0.63409 0.0
C60 C 0.16474 0.9302 0.63155 0.0
O61 O 0.14728 0.92574 0.61796 0.0
C62 C 0.12165 0.85284 0.5735 0.0
C63 C 0.05891 0.83384 0.62368 0.0
O64 O 0.05985 0.85265 0.61631 0.0
O65 O 0.07918 0.83267 0.62539 0.0
O66 O 0.91164 0.47137 0.77241 0.0
Cd67 Cd 0.89297 0.45995 0.73977 0.0
O68 O 0.94872 0.47794 0.76585 0.0
Cd69 Cd 0.93271 0.45876 0.73694 0.0
O70 O 0.91301 0.42074 0.71797 0.0
C71 C 0.91176 0.40201 0.72536 0.0
O72 O 0.92211 0.40733 0.74279 0.0
C73 C 0.93472 0.47861 0.77778 0.0
C74 C 0.88578 0.49931 0.72934 0.0
O75 O 0.86831 0.48005 0.73594 0.0
O76 O 0.90674 0.49996 0.72765 0.0
O77 O 0.5648 0.5335 0.76269 0.0
Cd78 Cd 0.57278 0.53814 0.73066 0.0
O79 O 0.54874 0.49171 0.75172 0.0
Cd80 Cd 0.53008 0.4491 0.75076 0.0
O81 O 0.50751 0.40647 0.74129 0.0
C82 C 0.48923 0.39139 0.74953 0.0
O83 O 0.48442 0.40168 0.76454 0.0
C84 C 0.55327 0.50971 0.76529 0.0
C85 C 0.62341 0.55826 0.725 0.0
O86 O 0.61445 0.57343 0.72775 0.0
O87 O 0.60856 0.5336 0.72534 0.0
O88 O 0.57559 0.0854 0.77798 0.0
Cd89 Cd 0.57967 0.10108 0.74825 0.0
O90 O 0.54842 0.09799 0.78413 0.0
Cd91 Cd 0.54523 0.11186 0.75852 0.0
O92 O 0.51838 0.12019 0.74476 0.0
C93 C 0.50192 0.11949 0.75483 0.0
O94 O 0.50306 0.11446 0.77175 0.0
C95 C 0.56119 0.08778 0.78884 0.0
C96 C 0.625 0.1121 0.73459 0.0
O97 O 0.62387 0.1299 0.74546 0.0
O98 O 0.60475 0.08901 0.73034 0.0
O99 O 0.81383 0.58573 0.90901 0.0
Cd100 Cd 0.80544 0.56718 0.93762 0.0
O101 O 0.77891 0.58667 0.90976 0.0
Cd102 Cd 0.74661 0.59238 0.90516 0.0
O103 O 0.71141 0.58777 0.91441 0.0
C104 C 0.69276 0.56438 0.91402 0.0
O105 O 0.69498 0.54439 0.90713 0.0
C106 C 0.79825 0.59125 0.90171 0.0
C107 C 0.84267 0.55721 0.95077 0.0
O108 O 0.82278 0.53945 0.93948 0.0
O109 O 0.84502 0.57976 0.95573 0.0
O110 O 0.38127 0.13918 0.93355 0.0
Cd111 Cd 0.39018 0.13833 0.9664 0.0
O112 O 0.39936 0.18145 0.9438 0.0
Cd113 Cd 0.41545 0.22349 0.94351 0.0
O114 O 0.43123 0.26586 0.95071 0.0
C115 C 0.42291 0.27789 0.94218 0.0
O116 O 0.40445 0.26456 0.92804 0.0
C117 C 0.38824 0.1621 0.93024 0.0
C118 C 0.42 0.11669 0.97329 0.0
O119 O 0.3955 0.10243 0.97092 0.0
O120 O 0.43047 0.14121 0.97212 0.0
O121 O 0.7767 0.19226 0.90055 0.0
Cd122 Cd 0.77195 0.20338 0.93295 0.0
O123 O 0.8168 0.20374 0.90779 0.0
Cd124 Cd 0.82161 0.22244 0.93655 0.0
O125 O 0.84392 0.25794 0.95791 0.0
C126 C 0.84022 0.27699 0.95776 0.0
O127 O 0.82183 0.27395 0.94564 0.0
C128 C 0.79707 0.19419 0.89571 0.0
C129 C 0.72791 0.16384 0.94461 0.0
O130 O 0.72743 0.18158 0.93666 0.0
O131 O 0.74914 0.16458 0.94686 0.0
O132 O 0.60751 0.81339 0.09712 0.0
Cd133 Cd 0.60239 0.80876 0.06326 0.0
O134 O 0.64383 0.81439 0.09802 0.0
Cd135 Cd 0.63515 0.79731 0.06853 0.0
O136 O 0.61285 0.76098 0.04806 0.0
C137 C 0.58968 0.74564 0.05017 0.0
O138 O 0.5803 0.75318 0.06365 0.0
C139 C 0.62742 0.8168 0.10646 0.0
C140 C 0.5862 0.8413 0.05202 0.0
O141 O 0.6099 0.85047 0.05746 0.0
O142 O 0.57019 0.81671 0.05177 0.0
O143 O 0.25045 0.8743 0.10642 0.0
Cd144 Cd 0.2606 0.88394 0.07539 0.0
O145 O 0.22329 0.83325 0.09338 0.0
Cd146 Cd 0.19218 0.79184 0.08976 0.0
O147 O 0.16492 0.74953 0.08069 0.0
C148 C 0.16572 0.739 0.06474 0.0
O149 O 0.18265 0.75393 0.05463 0.0
C150 C 0.23341 0.85097 0.108 0.0
C151 C 0.30934 0.8962 0.06853 0.0
O152 O 0.30554 0.91399 0.07652 0.0
O153 O 0.29015 0.87242 0.06418 0.0
O154 O 0.23448 0.40892 0.10775 0.0
Cd155 Cd 0.23558 0.4191 0.07625 0.0
O156 O 0.22625 0.43889 0.11999 0.0
Cd157 Cd 0.21847 0.44905 0.09372 0.0
O158 O 0.19121 0.45475 0.07746 0.0
C159 C 0.18911 0.4743 0.08358 0.0
O160 O 0.20455 0.49103 0.09847 0.0
C161 C 0.23101 0.42088 0.12184 0.0
C162 C 0.28356 0.43786 0.06453 0.0
O163 O 0.27667 0.45388 0.07095 0.0
O164 O 0.26791 0.41307 0.06378 0.0
O165 O 0.46734 0.90348 0.2354 0.0
Cd166 Cd 0.4534 0.88487 0.26355 0.0
O167 O 0.43462 0.90805 0.22822 0.0
Cd168 Cd 0.41297 0.89139 0.25082 0.0
O169 O 0.37974 0.87759 0.26581 0.0
C170 C 0.37643 0.89459 0.27538 0.0
O171 O 0.39377 0.91981 0.27677 0.0
C172 C 0.45579 0.91066 0.22478 0.0
C173 C 0.48886 0.87478 0.28048 0.0
O174 O 0.47009 0.85705 0.26832 0.0
O175 O 0.49079 0.89724 0.28473 0.0
O176 O 0.02956 0.45869 0.25693 0.0
Cd177 Cd 0.02827 0.44491 0.28708 0.0
O178 O 0.0459 0.49939 0.2711 0.0
Cd179 Cd 0.05998 0.54171 0.27579 0.0
O180 O 0.07732 0.58353 0.28738 0.0
C181 C 0.07706 0.60002 0.27807 0.0
O182 O 0.06598 0.5918 0.26067 0.0
C183 C 0.038 0.48277 0.25597 0.0
C184 C 0.06554 0.43267 0.29466 0.0
O185 O 0.04403 0.41571 0.28469 0.0
O186 O 0.06956 0.4556 0.30106 0.0
O187 O 0.4308 0.52614 0.23166 0.0
Cd188 Cd 0.42575 0.53757 0.26393 0.0
O189 O 0.46711 0.52865 0.23991 0.0
Cd190 Cd 0.47115 0.5468 0.26868 0.0
O191 O 0.49197 0.58375 0.28882 0.0
C192 C 0.50855 0.60316 0.28208 0.0
O193 O 0.51121 0.59912 0.26448 0.0
C194 C 0.44932 0.52369 0.22728 0.0
C195 C 0.38266 0.49787 0.27627 0.0
O196 O 0.3814 0.51492 0.26792 0.0
O197 O 0.40423 0.49933 0.27856 0.0
C198 C 0.55758 0.01701 0.06183 0.0
Eu199 Eu 0.53898 0.00872 0.02704 0.0
C200 C 0.54748 0.00581 0.07842 0.0
C201 C 0.55819 0.02153 0.09613 0.0
C202 C 0.54854 0.01127 0.112 0.0
C203 C 0.52793 0.98505 0.11043 0.0
C204 C 0.51725 0.96937 0.09259 0.0
C205 C 0.52692 0.97965 0.07674 0.0
C206 C 0.52074 0.03511 0.01045 0.0
C207 C 0.47739 0.96371 0.02049 0.0
C208 C 0.49233 0.97129 0.95242 0.0
Eu209 Eu 0.51041 0.98236 0.9876 0.0
C210 C 0.50158 0.98426 0.93635 0.0
C211 C 0.49283 0.96934 0.91832 0.0
C212 C 0.50208 0.98147 0.903 0.0
C213 C 0.52041 0.00873 0.9055 0.0
C214 C 0.52922 0.02352 0.92368 0.0
C215 C 0.51977 0.01141 0.93894 0.0
C216 C 0.52618 0.95498 0.00508 0.0
C217 C 0.5708 0.0306 0.99435 0.0
O218 O 0.55925 0.00131 0.0486 0.0
O219 O 0.54866 0.03069 0.0554 0.0
O220 O 0.54214 0.04698 0.02177 0.0
O221 O 0.50963 0.01048 0.00946 0.0
O222 O 0.49948 0.97636 0.03173 0.0
O223 O 0.47614 0.96508 0.00259 0.0
O224 O 0.48635 0.98372 0.96524 0.0
O225 O 0.50545 0.96191 0.95943 0.0
O226 O 0.50443 0.94398 0.9944 0.0
O227 O 0.53903 0.97958 0.00539 0.0
O228 O 0.54842 0.0177 0.98349 0.0
O229 O 0.57287 0.02784 0.01189 0.0
H230 H 0.57396 0.04181 0.09768 0.0
H231 H 0.55697 0.02401 0.12549 0.0
H232 H 0.50159 0.94903 0.09087 0.0
H233 H 0.51836 0.96714 0.06319 0.0
H234 H 0.47879 0.94833 0.91609 0.0
H235 H 0.49456 0.96956 0.88919 0.0
H236 H 0.54357 0.04444 0.92617 0.0
H237 H 0.52672 0.02327 0.95277 0.0
C238 C 0.01123 0.53727 0.07277 0.0
Eu239 Eu 0.00349 0.51331 0.03867 0.0
C240 C 0.01656 0.53289 0.09144 0.0
C241 C 0.00646 0.50718 0.09518 0.0
C242 C 0.01114 0.50325 0.11308 0.0
C243 C 0.02629 0.52494 0.12756 0.0
C244 C 0.03676 0.55068 0.12362 0.0
C245 C 0.03188 0.55459 0.10572 0.0
C246 C 0.96894 0.46154 0.02533 0.0
C247 C 0.04207 0.49093 0.03357 0.0
C248 C 0.00165 0.4695 0.96594 0.0
Eu249 Eu 0.00898 0.49333 0.0 0.0
C250 C 0.99525 0.47318 0.94736 0.0
C251 C 0.99567 0.49628 0.94485 0.0
C252 C 0.99052 0.50003 0.92696 0.0
C253 C 0.9848 0.48068 0.91133 0.0
C254 C 0.98395 0.45734 0.91406 0.0
C255 C 0.9892 0.45368 0.93192 0.0
C256 C 0.04332 0.54518 0.01359 0.0
C257 C 0.97139 0.51677 0.00465 0.0
O258 O 0.02943 0.54356 0.06234 0.0
O259 O 0.9885 0.52014 0.06356 0.0
O260 O 0.96386 0.47679 0.03596 0.0
O261 O 0.99227 0.47356 0.02348 0.0
O262 O 0.03646 0.5065 0.04403 0.0
O263 O 0.0302 0.47934 0.01646 0.0
O264 O 0.98364 0.46225 0.9766 0.0
O265 O 0.02415 0.48791 0.97483 0.0
O266 O 0.04871 0.53013 0.00303 0.0
O267 O 0.01998 0.53288 0.01519 0.0
O268 O 0.9765 0.50068 0.99433 0.0
O269 O 0.98309 0.52803 0.02187 0.0
H270 H 0.99471 0.49013 0.08431 0.0
H271 H 0.00244 0.48316 0.11562 0.0
H272 H 0.04884 0.56783 0.13433 0.0
H273 H 0.04001 0.57457 0.10303 0.0
H274 H 1.00029 0.51153 0.95669 0.0
H275 H 0.99152 0.51829 0.92536 0.0
H276 H 0.9791 0.4418 0.90238 0.0
H277 H 0.98866 0.43567 0.93367 0.0
C278 C 0.45552 0.48277 0.9397 0.0
Eu279 Eu 0.47649 0.50293 0.97425 0.0
C280 C 0.46482 0.4814 0.92172 0.0
C281 C 0.45472 0.48675 0.90633 0.0
C282 C 0.46427 0.48712 0.88942 0.0
C283 C 0.48413 0.4821 0.88756 0.0
C284 C 0.494 0.47639 0.90299 0.0
C285 C 0.48442 0.47604 0.91991 0.0
C286 C 0.49592 0.55349 0.99122 0.0
C287 C 0.53793 0.52503 0.97718 0.0
C288 C 0.52868 0.53928 0.04683 0.0
Eu289 Eu 0.50859 0.51884 0.01219 0.0
C290 C 0.51864 0.53483 0.0647 0.0
C291 C 0.4986 0.50979 0.0668 0.0
C292 C 0.48872 0.50598 0.08368 0.0
C293 C 0.49846 0.52723 0.09865 0.0
C294 C 0.51839 0.55231 0.09644 0.0
C295 C 0.52843 0.55604 0.07961 0.0
C296 C 0.49095 0.46899 0.99509 0.0
C297 C 0.44649 0.49577 0.009 0.0
O298 O 0.45806 0.46918 0.9515 0.0
O299 O 0.46131 0.5063 0.94769 0.0
O300 O 0.47333 0.53917 0.98149 0.0
O301 O 0.50732 0.54102 0.99078 0.0
O302 O 0.5149 0.50981 0.9673 0.0
O303 O 0.54089 0.53484 0.995 0.0
O304 O 0.5199 0.5499 0.03624 0.0
O305 O 0.52996 0.51995 0.03746 0.0
O306 O 0.51308 0.48371 0.0054 0.0
O307 O 0.47848 0.48044 0.99542 0.0
O308 O 0.46913 0.50812 0.01951 0.0
O309 O 0.4438 0.48917 0.99076 0.0
H310 H 0.4397 0.49111 0.90749 0.0
H311 H 0.4565 0.492 0.87794 0.0
H312 H 0.50909 0.47216 0.90198 0.0
H313 H 0.49252 0.47181 0.9316 0.0
H314 H 0.49045 0.49321 0.05535 0.0
H315 H 0.47317 0.48653 0.08492 0.0
H316 H 0.52641 0.569 0.10779 0.0
H317 H 0.54375 0.57554 0.07821 0.0
C318 C 0.21068 0.35205 0.39393 0.0
Eu319 Eu 0.19398 0.34116 0.35845 0.0
C320 C 0.19994 0.3439 0.41114 0.0
C321 C 0.20924 0.36267 0.42757 0.0
C322 C 0.20007 0.35525 0.44423 0.0
C323 C 0.18146 0.32881 0.44482 0.0
C324 C 0.17166 0.31016 0.42816 0.0
C325 C 0.18078 0.31764 0.41147 0.0
C326 C 0.1748 0.36515 0.33976 0.0
C327 C 0.13289 0.29421 0.35055 0.0
C328 C 0.15233 0.30231 0.28314 0.0
Eu329 Eu 0.16783 0.31325 0.31872 0.0
C330 C 0.16239 0.31614 0.26748 0.0
C331 C 0.16209 0.3019 0.25064 0.0
C332 C 0.17254 0.31489 0.23589 0.0
C333 C 0.18332 0.34236 0.23771 0.0
C334 C 0.18359 0.3566 0.25461 0.0
C335 C 0.17337 0.34364 0.26941 0.0
C336 C 0.18399 0.28742 0.3378 0.0
C337 C 0.22728 0.36291 0.32652 0.0
O338 O 0.21149 0.33424 0.38212 0.0
O339 O 0.20359 0.36601 0.38573 0.0
O340 O 0.19596 0.37821 0.35135 0.0
O341 O 0.16456 0.34076 0.33944 0.0
O342 O 0.15436 0.30828 0.36249 0.0
O343 O 0.13257 0.29468 0.33252 0.0
O344 O 0.14398 0.31298 0.29537 0.0
O345 O 0.16594 0.29391 0.29086 0.0
O346 O 0.16306 0.2757 0.32606 0.0
O347 O 0.19628 0.3121 0.33814 0.0
O348 O 0.20522 0.34963 0.31531 0.0
O349 O 0.22882 0.3602 0.34412 0.0
H350 H 0.22383 0.38308 0.42755 0.0
H351 H 0.2077 0.37024 0.45668 0.0
H352 H 0.15752 0.28959 0.4281 0.0
H353 H 0.17314 0.30282 0.39891 0.0
H354 H 0.15389 0.28072 0.24894 0.0
H355 H 0.17188 0.30341 0.22296 0.0
H356 H 0.19203 0.37782 0.25645 0.0
H357 H 0.17422 0.35516 0.28239 0.0
C358 C 0.66144 0.86124 0.40532 0.0
Eu359 Eu 0.65521 0.83896 0.37095 0.0
C360 C 0.66744 0.85742 0.42408 0.0
C361 C 0.65464 0.83232 0.42919 0.0
C362 C 0.65987 0.82929 0.44726 0.0
C363 C 0.67817 0.85122 0.46052 0.0
C364 C 0.69139 0.8762 0.45525 0.0
C365 C 0.68597 0.87928 0.4372 0.0
C366 C 0.62385 0.78684 0.35652 0.0
C367 C 0.69653 0.82033 0.36511 0.0
C368 C 0.65687 0.80028 0.29751 0.0
Eu369 Eu 0.66253 0.82225 0.33184 0.0
C370 C 0.65145 0.80477 0.27896 0.0
C371 C 0.65769 0.83003 0.27601 0.0
C372 C 0.65351 0.83422 0.25808 0.0
C373 C 0.64277 0.81315 0.2429 0.0
C374 C 0.63592 0.78775 0.24605 0.0
C375 C 0.64029 0.78363 0.26394 0.0
C376 C 0.69386 0.87435 0.34642 0.0
C377 C 0.62111 0.84063 0.33724 0.0
O378 O 0.67987 0.86927 0.39501 0.0
O379 O 0.63913 0.84315 0.39591 0.0
O380 O 0.61706 0.80005 0.36766 0.0
O381 O 0.64705 0.80097 0.35486 0.0
O382 O 0.69018 0.83499 0.37589 0.0
O383 O 0.68465 0.80891 0.34798 0.0
O384 O 0.63817 0.79233 0.30758 0.0
O385 O 0.67907 0.81829 0.3071 0.0
O386 O 0.70071 0.86113 0.33535 0.0
O387 O 0.67061 0.86024 0.34791 0.0
O388 O 0.62791 0.82633 0.32657 0.0
O389 O 0.63232 0.8516 0.35461 0.0
H390 H 0.64045 0.81506 0.41927 0.0
H391 H 0.64967 0.80974 0.45087 0.0
H392 H 0.70548 0.89346 0.46522 0.0
H393 H 0.69608 0.89879 0.43353 0.0
H394 H 0.66609 0.84655 0.28753 0.0
H395 H 0.65871 0.85392 0.25607 0.0
H396 H 0.62786 0.77121 0.23458 0.0
H397 H 0.63531 0.76401 0.26602 0.0
C398 C 0.13254 0.80453 0.28165 0.0
Eu399 Eu 0.14933 0.82556 0.31668 0.0
C400 C 0.14341 0.80918 0.26409 0.0
C401 C 0.16022 0.83495 0.26106 0.0
C402 C 0.1704 0.83904 0.24433 0.0
C403 C 0.16422 0.81745 0.23042 0.0
C404 C 0.14774 0.79166 0.23363 0.0
C405 C 0.13736 0.78759 0.25031 0.0
C406 C 0.17071 0.87731 0.33163 0.0
C407 C 0.21034 0.84518 0.32499 0.0
C408 C 0.193 0.86133 0.39164 0.0
Eu409 Eu 0.17594 0.84104 0.35656 0.0
C410 C 0.18185 0.85746 0.40907 0.0
C411 C 0.16045 0.83306 0.41075 0.0
C412 C 0.15018 0.82963 0.42748 0.0
C413 C 0.16093 0.85066 0.4427 0.0
C414 C 0.18211 0.87516 0.44083 0.0
C415 C 0.1925 0.8785 0.42416 0.0
C416 C 0.15528 0.78967 0.341 0.0
C417 C 0.1153 0.82203 0.34864 0.0
O418 O 0.14181 0.79522 0.29307 0.0
O419 O 0.1293 0.82297 0.29021 0.0
O420 O 0.14989 0.86414 0.31977 0.0
O421 O 0.18016 0.86333 0.33381 0.0
O422 O 0.1886 0.83125 0.31334 0.0
O423 O 0.21091 0.85501 0.34233 0.0
O424 O 0.1853 0.87197 0.38024 0.0
O425 O 0.19438 0.84163 0.38308 0.0
O426 O 0.17641 0.80302 0.35254 0.0
O427 O 0.14534 0.80331 0.33933 0.0
O428 O 0.13715 0.83589 0.36009 0.0
O429 O 0.1144 0.81215 0.33121 0.0
H430 H 0.16551 0.85194 0.27162 0.0
H431 H 0.18332 0.85911 0.24234 0.0
H432 H 0.14255 0.77467 0.22311 0.0
H433 H 0.12456 0.76756 0.25244 0.0
H434 H 0.15173 0.81667 0.39914 0.0
H435 H 0.1337 0.81064 0.42848 0.0
H436 H 0.19093 0.89163 0.45238 0.0
H437 H 0.20894 0.89748 0.42307 0.0
C438 C 0.87203 0.68327 0.7304 0.0
Eu439 Eu 0.858 0.6754 0.6947 0.0
C440 C 0.86046 0.67471 0.74731 0.0
C441 C 0.86681 0.69379 0.76317 0.0
C442 C 0.85736 0.68624 0.77972 0.0
C443 C 0.84146 0.65935 0.78085 0.0
C444 C 0.83449 0.64027 0.76474 0.0
C445 C 0.84384 0.64787 0.74812 0.0
C446 C 0.84215 0.70247 0.67636 0.0
C447 C 0.7966 0.63096 0.68367 0.0
C448 C 0.82194 0.64293 0.61797 0.0
Eu449 Eu 0.83481 0.65125 0.65381 0.0
C450 C 0.83298 0.65674 0.60241 0.0
C451 C 0.83662 0.64326 0.58695 0.0
C452 C 0.847 0.65586 0.57203 0.0
C453 C 0.85379 0.68223 0.57217 0.0
C454 C 0.85029 0.69577 0.58778 0.0
C455 C 0.8401 0.68321 0.60277 0.0
C456 C 0.84728 0.62229 0.67245 0.0
C457 C 0.89473 0.69904 0.66486 0.0
O458 O 0.87267 0.66561 0.7183 0.0
O459 O 0.86643 0.69854 0.72251 0.0
O460 O 0.86233 0.7141 0.68888 0.0
O461 O 0.83109 0.67785 0.67502 0.0
O462 O 0.81719 0.6426 0.69645 0.0
O463 O 0.79814 0.63363 0.66602 0.0
O464 O 0.81372 0.65393 0.63005 0.0
O465 O 0.83418 0.63319 0.62582 0.0
O466 O 0.82726 0.61214 0.65997 0.0
O467 O 0.86061 0.64712 0.67383 0.0
O468 O 0.87358 0.68744 0.65272 0.0
O469 O 0.89436 0.69449 0.68209 0.0
H470 H 0.87944 0.71461 0.76282 0.0
H471 H 0.86273 0.70152 0.79171 0.0
H472 H 0.8225 0.61938 0.7651 0.0
H473 H 0.83847 0.63271 0.73604 0.0
H474 H 0.83143 0.6229 0.58642 0.0
H475 H 0.84982 0.64494 0.56043 0.0
H476 H 0.85493 0.71594 0.58831 0.0
H477 H 0.83766 0.6942 0.61456 0.0
C478 C 0.32857 0.19069 0.74398 0.0
Eu479 Eu 0.32373 0.1695 0.70951 0.0
C480 C 0.33572 0.18776 0.76281 0.0
C481 C 0.31731 0.17886 0.77495 0.0
C482 C 0.32355 0.17613 0.79288 0.0
C483 C 0.34849 0.18256 0.79919 0.0
C484 C 0.36695 0.19148 0.78699 0.0
C485 C 0.36063 0.19401 0.76897 0.0
C486 C 0.28896 0.11867 0.69391 0.0
C487 C 0.36151 0.14613 0.70535 0.0
C488 C 0.32694 0.13046 0.63684 0.0
Eu489 Eu 0.332 0.15175 0.67125 0.0
C490 C 0.32244 0.13608 0.61844 0.0
C491 C 0.33275 0.1622 0.61548 0.0
C492 C 0.32868 0.16719 0.5978 0.0
C493 C 0.31394 0.14614 0.5829 0.0
C494 C 0.30328 0.12003 0.58602 0.0
C495 C 0.30758 0.11506 0.60365 0.0
C496 C 0.36664 0.20261 0.68694 0.0
C497 C 0.29502 0.17621 0.67507 0.0
O498 O 0.34663 0.20065 0.73344 0.0
O499 O 0.30693 0.17104 0.73472 0.0
O500 O 0.28332 0.13389 0.70399 0.0
O501 O 0.31266 0.13028 0.69339 0.0
O502 O 0.35604 0.16195 0.71566 0.0
O503 O 0.35037 0.13529 0.68801 0.0
O504 O 0.3079 0.12256 0.64659 0.0
O505 O 0.34909 0.14755 0.64688 0.0
O506 O 0.37241 0.18774 0.67657 0.0
O507 O 0.34297 0.19074 0.68735 0.0
O508 O 0.30086 0.16077 0.6647 0.0
O509 O 0.3049 0.18575 0.69279 0.0
H510 H 0.29799 0.17393 0.77054 0.0
H511 H 0.30871 0.16875 0.80173 0.0
H512 H 0.38642 0.19694 0.79145 0.0
H513 H 0.3753 0.20099 0.75996 0.0
H514 H 0.34403 0.17874 0.62679 0.0
H515 H 0.33688 0.18748 0.59581 0.0
H516 H 0.29204 0.10344 0.57474 0.0
H517 H 0.29941 0.09479 0.60571 0.0
C518 C 0.79209 0.14274 0.60533 0.0
Eu519 Eu 0.8126 0.16445 0.63973 0.0
C520 C 0.80191 0.1461 0.58732 0.0
C521 C 0.81881 0.17137 0.58351 0.0
C522 C 0.82883 0.17422 0.5667 0.0
C523 C 0.82248 0.15186 0.55345 0.0
C524 C 0.80563 0.12658 0.5574 0.0
C525 C 0.79541 0.12375 0.57416 0.0
C526 C 0.83163 0.21524 0.65596 0.0
C527 C 0.87462 0.18905 0.64227 0.0
C528 C 0.86601 0.20245 0.71222 0.0
Eu529 Eu 0.84556 0.18171 0.67765 0.0
C530 C 0.85661 0.19838 0.73035 0.0
C531 C 0.83933 0.17291 0.73373 0.0
C532 C 0.83016 0.1695 0.75088 0.0
C533 C 0.8378 0.1915 0.76484 0.0
C534 C 0.85491 0.21696 0.76133 0.0
C535 C 0.86427 0.22034 0.74426 0.0
C536 C 0.82707 0.13121 0.66117 0.0
C537 C 0.7835 0.1578 0.67485 0.0
O538 O 0.80084 0.13249 0.61629 0.0
O539 O 0.79101 0.16247 0.61425 0.0
O540 O 0.8093 0.20078 0.64587 0.0
O541 O 0.8432 0.20295 0.65588 0.0
O542 O 0.8516 0.17378 0.6324 0.0
O543 O 0.87761 0.19814 0.66024 0.0
O544 O 0.85679 0.21275 0.7017 0.0
O545 O 0.8674 0.18321 0.70282 0.0
O546 O 0.84943 0.14592 0.67116 0.0
O547 O 0.81508 0.14311 0.66147 0.0
O548 O 0.80648 0.17256 0.68489 0.0
O549 O 0.78055 0.14879 0.65691 0.0
H550 H 0.82439 0.18895 0.59354 0.0
H551 H 0.84139 0.19401 0.56406 0.0
H552 H 0.80063 0.10891 0.5477 0.0
H553 H 0.78267 0.10408 0.57697 0.0
H554 H 0.8328 0.15565 0.72309 0.0
H555 H 0.8168 0.14968 0.75312 0.0
H556 H 0.86131 0.23427 0.77189 0.0
H557 H 0.87744 0.24015 0.74188 0.0
H558 H 0.32154 0.86564 0.0457 0.0
H559 H 0.35473 0.94282 0.07997 0.0
H560 H 0.36284 0.8789 0.0352 0.0
H561 H 0.39593 0.95598 0.06949 0.0
H562 H 0.47132 0.96506 0.05734 0.0
H563 H 0.43122 0.94602 0.07044 0.0
H564 H 0.38891 0.91176 0.01504 0.0
H565 H 0.42891 0.93071 0.00188 0.0
C566 C 0.3377 0.8853 0.05118 0.0
C567 C 0.33484 0.90324 0.06359 0.0
C568 C 0.3613 0.89291 0.0451 0.0
C569 C 0.38257 0.91848 0.05149 0.0
C570 C 0.37994 0.93605 0.06446 0.0
C571 C 0.35629 0.92856 0.07037 0.0
C572 C 0.4535 0.95316 0.04794 0.0
C573 C 0.45332 0.94959 0.02854 0.0
C574 C 0.43054 0.94238 0.05546 0.0
C575 C 0.40695 0.92755 0.04375 0.0
C576 C 0.4068 0.92294 0.02442 0.0
C577 C 0.42973 0.93394 0.01688 0.0
H578 H 0.14835 0.43844 0.0573 0.0
H579 H 0.18219 0.51593 0.09122 0.0
H580 H 0.11214 0.44141 0.04553 0.0
H581 H 0.14646 0.5193 0.079 0.0
H582 H 0.06689 0.50615 0.06927 0.0
H583 H 0.10217 0.50164 0.08096 0.0
H584 H 0.09968 0.46329 0.02608 0.0
H585 H 0.06392 0.46702 0.01457 0.0
C586 C 0.14823 0.45626 0.06206 0.0
C587 C 0.16813 0.47691 0.07524 0.0
C588 C 0.12748 0.458 0.05527 0.0
C589 C 0.12624 0.48053 0.06139 0.0
C590 C 0.14647 0.50142 0.07427 0.0
C591 C 0.16711 0.49959 0.08115 0.0
C592 C 0.07376 0.49659 0.05973 0.0
C593 C 0.06256 0.48694 0.04098 0.0
C594 C 0.09414 0.49419 0.0664 0.0
C595 C 0.10395 0.48227 0.05444 0.0
C596 C 0.09246 0.47229 0.03575 0.0
C597 C 0.07197 0.47452 0.02912 0.0
H598 H 0.6051 0.72147 0.02436 0.0
H599 H 0.53972 0.70838 0.05123 0.0
H600 H 0.58131 0.67533 0.00887 0.0
H601 H 0.51609 0.66216 0.03588 0.0
H602 H 0.47518 0.58462 0.99255 0.0
H603 H 0.49694 0.63207 0.00507 0.0
H604 H 0.56661 0.63326 0.02024 0.0
H605 H 0.54505 0.58622 0.00768 0.0
C606 C 0.58558 0.70884 0.02682 0.0
C607 C 0.57439 0.71855 0.03916 0.0
C608 C 0.57202 0.68237 0.01804 0.0
C609 C 0.54694 0.66506 0.02133 0.0
C610 C 0.53533 0.67505 0.033 0.0
C611 C 0.54894 0.7015 0.04186 0.0
C612 C 0.49513 0.59511 0.99858 0.0
C613 C 0.50846 0.58183 0.99913 0.0
C614 C 0.50756 0.6222 0.00576 0.0
C615 C 0.53355 0.63642 0.01348 0.0
C616 C 0.54673 0.62297 0.01408 0.0
C617 C 0.53431 0.59598 0.00702 0.0
H618 H 0.88473 0.29255 0.98005 0.0
H619 H 0.8361 0.32067 0.96213 0.0
H620 H 0.91565 0.33668 0.9975 0.0
H621 H 0.86709 0.36474 0.97945 0.0
H622 H 0.9177 0.43465 0.02647 0.0
H623 H 0.88595 0.38926 0.0116 0.0
H624 H 0.94569 0.38077 0.98974 0.0
H625 H 0.97746 0.42615 0.00478 0.0
C626 C 0.88052 0.30806 0.97995 0.0
C627 C 0.85797 0.3031 0.96964 0.0
C628 C 0.89833 0.33338 0.98984 0.0
C629 C 0.89388 0.35422 0.98977 0.0
C630 C 0.87099 0.34906 0.97991 0.0
C631 C 0.85327 0.32381 0.96991 0.0
C632 C 0.92403 0.42302 0.01856 0.0
C633 C 0.95 0.43387 0.01676 0.0
C634 C 0.90586 0.39709 0.00998 0.0
C635 C 0.91331 0.38143 0.99949 0.0
C636 C 0.93939 0.39223 0.99791 0.0
C637 C 0.95755 0.41823 0.00642 0.0
H638 H 0.64845 0.5171 0.91262 0.0
H639 H 0.68478 0.60054 0.93453 0.0
H640 H 0.6113 0.50841 0.92777 0.0
H641 H 0.64736 0.59178 0.94962 0.0
H642 H 0.58863 0.55917 0.99136 0.0
H643 H 0.62584 0.5695 0.97558 0.0
H644 H 0.57586 0.51653 0.92576 0.0
H645 H 0.53883 0.50601 0.94146 0.0
C646 C 0.64845 0.53364 0.92056 0.0
C647 C 0.66961 0.55952 0.92236 0.0
C648 C 0.62708 0.52865 0.92919 0.0
C649 C 0.62638 0.5494 0.93993 0.0
C650 C 0.64744 0.57534 0.94161 0.0
C651 C 0.66878 0.58037 0.93284 0.0
C652 C 0.58558 0.54972 0.97705 0.0
C653 C 0.56069 0.53165 0.96773 0.0
C654 C 0.6069 0.55579 0.96797 0.0
C655 C 0.6038 0.54379 0.94943 0.0
C656 C 0.57892 0.52587 0.94011 0.0
C657 C 0.55766 0.51992 0.94913 0.0
H658 H 0.40367 0.06845 0.98275 0.0
H659 H 0.47173 0.13913 0.97398 0.0
H660 H 0.42921 0.0499 0.99102 0.0
H661 H 0.49735 0.12007 0.98156 0.0
H662 H 0.53734 0.08792 0.0165 0.0
H663 H 0.51368 0.10828 0.00683 0.0
H664 H 0.45206 0.03176 0.97801 0.0
H665 H 0.47494 0.01152 0.98858 0.0
C666 C 0.42409 0.07991 0.98237 0.0
C667 C 0.43566 0.10523 0.97767 0.0
C668 C 0.43877 0.0692 0.987 0.0
C669 C 0.46539 0.08337 0.98683 0.0
C670 C 0.47697 0.10871 0.98205 0.0
C671 C 0.46226 0.11956 0.97758 0.0
C672 C 0.5188 0.07559 0.00801 0.0
C673 C 0.50797 0.04816 0.00329 0.0
C674 C 0.50528 0.08723 0.00237 0.0
C675 C 0.48079 0.07164 0.99177 0.0
C676 C 0.47056 0.04434 0.9865 0.0
C677 C 0.48387 0.03274 0.99234 0.0
H678 H 0.67962 0.15542 0.94006 0.0
H679 H 0.72386 0.12617 0.96443 0.0
H680 H 0.64188 0.12276 0.95185 0.0
H681 H 0.686 0.09332 0.97606 0.0
H682 H 0.62038 0.06012 0.01185 0.0
H683 H 0.65817 0.09167 0.99949 0.0
H684 H 0.61165 0.07475 0.94714 0.0
H685 H 0.57387 0.04343 0.95949 0.0
C686 C 0.68127 0.14195 0.94785 0.0
C687 C 0.70478 0.14344 0.95131 0.0
C688 C 0.65959 0.12312 0.95453 0.0
C689 C 0.66092 0.10543 0.96492 0.0
C690 C 0.6844 0.10685 0.9683 0.0
C691 C 0.70606 0.12558 0.96153 0.0
C692 C 0.61818 0.06306 0.99769 0.0
C693 C 0.59399 0.04926 0.98671 0.0
C694 C 0.6399 0.08106 0.99057 0.0
C695 C 0.63794 0.08578 0.97233 0.0
C696 C 0.61379 0.07184 0.96132 0.0
C697 C 0.59211 0.05376 0.9684 0.0
H698 H 0.8874 0.59118 0.97406 0.0
H699 H 0.84197 0.51082 0.94406 0.0
H700 H 0.91906 0.5819 0.98656 0.0
H701 H 0.87334 0.50138 0.95689 0.0
H702 H 0.94695 0.50107 0.96881 0.0
H703 H 0.91665 0.51148 0.95537 0.0
H704 H 0.92356 0.55684 0.00851 0.0
H705 H 0.95426 0.54694 0.02186 0.0
C706 C 0.88414 0.57152 0.97016 0.0
C707 C 0.86215 0.55173 0.95808 0.0
C708 C 0.90223 0.56615 0.97741 0.0
C709 C 0.89872 0.54087 0.97278 0.0
C710 C 0.87681 0.52116 0.96056 0.0
C711 C 0.85874 0.52653 0.95329 0.0
C712 C 0.94204 0.51329 0.97764 0.0
C713 C 0.95304 0.52316 0.99643 0.0
C714 C 0.92456 0.51915 0.96994 0.0
C715 C 0.91764 0.53497 0.98086 0.0
C716 C 0.92873 0.54491 0.99963 0.0
C717 C 0.94624 0.53909 0.00732 0.0
H718 H 0.4107 0.31048 0.92693 0.0
H719 H 0.45856 0.30975 0.97234 0.0
H720 H 0.4275 0.35732 0.93835 0.0
H721 H 0.47474 0.35607 0.98393 0.0
H722 H 0.51765 0.44455 0.99072 0.0
H723 H 0.5017 0.39899 0.9764 0.0
H724 H 0.426 0.38609 0.96427 0.0
H725 H 0.4423 0.43212 0.97823 0.0
C726 C 0.42477 0.32028 0.93933 0.0
C727 C 0.43332 0.30639 0.9487 0.0
C728 C 0.43428 0.34707 0.94593 0.0
C729 C 0.45252 0.36047 0.96202 0.0
C730 C 0.46106 0.34652 0.97131 0.0
C731 C 0.45165 0.31986 0.96471 0.0
C732 C 0.49763 0.43199 0.98492 0.0
C733 C 0.48114 0.44171 0.9857 0.0
C734 C 0.48845 0.40586 0.97679 0.0
C735 C 0.4625 0.38879 0.96937 0.0
C736 C 0.44612 0.39877 0.96973 0.0
C737 C 0.45539 0.42504 0.9778 0.0
H738 H 0.12916 0.70218 0.08228 0.0
H739 H 0.16203 0.7111 0.031 0.0
H740 H 0.10002 0.65509 0.07038 0.0
H741 H 0.13258 0.66423 0.01899 0.0
H742 H 0.09408 0.57447 0.01078 0.0
H743 H 0.12404 0.62115 0.02372 0.0
H744 H 0.06308 0.62591 0.04689 0.0
H745 H 0.03334 0.57915 0.03426 0.0
C746 C 0.13012 0.69413 0.06846 0.0
C747 C 0.14793 0.71041 0.0576 0.0
C748 C 0.11333 0.66716 0.0616 0.0
C749 C 0.11397 0.65588 0.04373 0.0
C750 C 0.13182 0.67219 0.03291 0.0
C751 C 0.14861 0.69912 0.03976 0.0
C752 C 0.08716 0.58554 0.01866 0.0
C753 C 0.06143 0.57329 0.02148 0.0
C754 C 0.10425 0.61228 0.026 0.0
C755 C 0.09594 0.62729 0.0363 0.0
C756 C 0.07018 0.61487 0.03922 0.0
C757 C 0.05311 0.58813 0.03188 0.0
H758 H 0.31069 0.41328 0.06142 0.0
H759 H 0.31275 0.48434 0.05224 0.0
H760 H 0.35134 0.42873 0.04909 0.0
H761 H 0.353 0.4993 0.0394 0.0
H762 H 0.40126 0.48835 0.99372 0.0
H763 H 0.36274 0.47576 0.0084 0.0
H764 H 0.40062 0.47336 0.05905 0.0
H765 H 0.43955 0.48673 0.0446 0.0
C766 C 0.31984 0.43219 0.05679 0.0
C767 C 0.30856 0.44761 0.05776 0.0
C768 C 0.3431 0.44104 0.04984 0.0
C769 C 0.35516 0.46514 0.04332 0.0
C770 C 0.34398 0.48062 0.04434 0.0
C771 C 0.32104 0.47209 0.05172 0.0
C772 C 0.40141 0.48523 0.008 0.0
C773 C 0.42338 0.48849 0.01801 0.0
C774 C 0.37945 0.47816 0.0164 0.0
C775 C 0.37883 0.47363 0.0348 0.0
C776 C 0.4007 0.47673 0.04482 0.0
C777 C 0.42292 0.48444 0.03657 0.0
H778 H 0.54275 0.82664 0.02924 0.0
H779 H 0.61021 0.89494 0.06158 0.0
H780 H 0.52882 0.855 0.0189 0.0
H781 H 0.59558 0.9234 0.05227 0.0
H782 H 0.57555 0.96946 0.01592 0.0
H783 H 0.5903 0.94238 0.02785 0.0
H784 H 0.51165 0.88042 0.02758 0.0
H785 H 0.49722 0.9069 0.01448 0.0
C786 C 0.55442 0.84774 0.03433 0.0
C787 C 0.57756 0.8586 0.04616 0.0
C788 C 0.54634 0.86407 0.02855 0.0
C789 C 0.56093 0.89163 0.03482 0.0
C790 C 0.58401 0.90239 0.04686 0.0
C791 C 0.59236 0.88608 0.05231 0.0
C792 C 0.56154 0.95007 0.01851 0.0
C793 C 0.53531 0.94003 0.01409 0.0
C794 C 0.56993 0.93455 0.02547 0.0
C795 C 0.5522 0.90894 0.02852 0.0
C796 C 0.52591 0.89962 0.02489 0.0
C797 C 0.51759 0.91486 0.01754 0.0
H798 H 0.00654 0.27526 0.4036 0.0
H799 H 0.97424 0.1973 0.37072 0.0
H800 H 0.04851 0.2875 0.39509 0.0
H801 H 0.01637 0.20962 0.36224 0.0
H802 H 0.08545 0.25988 0.33072 0.0
H803 H 0.04441 0.2412 0.34236 0.0
H804 H 0.08335 0.27749 0.39853 0.0
H805 H 0.12452 0.29633 0.38694 0.0
C806 C 0.00845 0.26064 0.39472 0.0
C807 C 0.98703 0.23538 0.38772 0.0
C808 C 0.03254 0.2676 0.38996 0.0
C809 C 0.03569 0.24952 0.37798 0.0
C810 C 0.01443 0.224 0.37139 0.0
C811 C 0.99036 0.21695 0.3763 0.0
C812 C 0.08532 0.26357 0.34559 0.0
C813 C 0.10827 0.27983 0.35787 0.0
C814 C 0.06178 0.25273 0.35226 0.0
C815 C 0.06068 0.25806 0.37134 0.0
C816 C 0.08364 0.27331 0.38373 0.0
C817 C 0.10721 0.28398 0.37708 0.0
H818 H 0.83923 0.83723 0.41178 0.0
H819 H 0.78607 0.7529 0.39696 0.0
H820 H 0.80581 0.84495 0.40038 0.0
H821 H 0.7528 0.76065 0.3857 0.0
H822 H 0.7092 0.78578 0.34877 0.0
H823 H 0.74309 0.779 0.36 0.0
H824 H 0.76398 0.83799 0.40899 0.0
H825 H 0.73 0.84499 0.39769 0.0
C826 C 0.82049 0.82036 0.40601 0.0
C827 C 0.81533 0.79444 0.40526 0.0
C828 C 0.80131 0.82479 0.39963 0.0
C829 C 0.77666 0.80341 0.39219 0.0
C830 C 0.77165 0.77754 0.39121 0.0
C831 C 0.79072 0.77311 0.39772 0.0
C832 C 0.72095 0.79733 0.36196 0.0
C833 C 0.71683 0.81592 0.37235 0.0
C834 C 0.74032 0.79333 0.36842 0.0
C835 C 0.7562 0.80794 0.38538 0.0
C836 C 0.75219 0.82661 0.39578 0.0
C837 C 0.73261 0.83048 0.38937 0.0
H838 H 0.21587 0.03935 0.3761 0.0
H839 H 0.28679 0.04274 0.36901 0.0
H840 H 0.19201 0.99231 0.36291 0.0
H841 H 0.26293 0.99592 0.35538 0.0
H842 H 0.21563 0.90729 0.35496 0.0
H843 H 0.23866 0.95479 0.36627 0.0
H844 H 0.17977 0.9598 0.33506 0.0
H845 H 0.15635 0.91197 0.32416 0.0
C846 C 0.22636 0.03016 0.37146 0.0
C847 C 0.25325 0.04475 0.37375 0.0
C848 C 0.21266 0.00319 0.36383 0.0
C849 C 0.22555 0.99024 0.35827 0.0
C850 C 0.25241 0.00513 0.3599 0.0
C851 C 0.26609 0.03204 0.36758 0.0
C852 C 0.20758 0.91854 0.35056 0.0
C853 C 0.18423 0.906 0.33868 0.0
C854 C 0.22088 0.94581 0.35691 0.0
C855 C 0.2112 0.96119 0.35145 0.0
C856 C 0.18768 0.94853 0.33965 0.0
C857 C 0.17431 0.92118 0.33335 0.0
H858 H 0.54638 0.64733 0.27149 0.0
H859 H 0.50782 0.61931 0.31878 0.0
H860 H 0.57377 0.69112 0.29018 0.0
H861 H 0.53567 0.66336 0.33765 0.0
H862 H 0.57282 0.75414 0.35764 0.0
H863 H 0.54447 0.70918 0.34021 0.0
H864 H 0.60858 0.71268 0.31625 0.0
H865 H 0.63669 0.75751 0.33347 0.0
C866 C 0.54377 0.65047 0.28591 0.0
C867 C 0.52493 0.62977 0.29365 0.0
C868 C 0.55961 0.67558 0.29666 0.0
C869 C 0.55702 0.68068 0.31543 0.0
C870 C 0.53801 0.66008 0.32318 0.0
C871 C 0.52215 0.63484 0.3124 0.0
C872 C 0.5808 0.74517 0.34871 0.0
C873 C 0.60688 0.7593 0.34681 0.0
C874 C 0.56462 0.71943 0.33881 0.0
C875 C 0.57425 0.70744 0.32676 0.0
C876 C 0.60048 0.7215 0.32518 0.0
C877 C 0.61661 0.74713 0.33511 0.0
H878 H 0.36494 0.92575 0.29815 0.0
H879 H 0.33382 0.84484 0.27135 0.0
H880 H 0.3249 0.91291 0.31038 0.0
H881 H 0.29377 0.83196 0.28378 0.0
H882 H 0.2172 0.82792 0.29052 0.0
H883 H 0.25755 0.83901 0.27921 0.0
H884 H 0.29896 0.88691 0.33279 0.0
H885 H 0.25878 0.87612 0.34406 0.0
C886 C 0.34964 0.90517 0.29498 0.0
C887 C 0.3526 0.88634 0.28374 0.0
C888 C 0.32671 0.89779 0.30207 0.0
C889 C 0.30612 0.87142 0.29803 0.0
C890 C 0.30917 0.8525 0.28697 0.0
C891 C 0.33219 0.85985 0.27996 0.0
C892 C 0.2349 0.84076 0.29991 0.0
C893 C 0.23471 0.8512 0.31819 0.0
C894 C 0.25802 0.84698 0.29345 0.0
C895 C 0.28147 0.86389 0.30509 0.0
C896 C 0.28125 0.87409 0.3234 0.0
C897 C 0.25816 0.86779 0.32989 0.0
H898 H 0.10594 0.45733 0.32276 0.0
H899 H 0.06849 0.39189 0.27658 0.0
H900 H 0.1347 0.44259 0.33201 0.0
H901 H 0.09791 0.37785 0.2852 0.0
H902 H 0.12669 0.33879 0.32122 0.0
H903 H 0.10284 0.35697 0.30886 0.0
H904 H 0.16897 0.43596 0.32584 0.0
H905 H 0.1927 0.41746 0.33894 0.0
C906 C 0.10418 0.44008 0.31439 0.0
C907 C 0.08474 0.42552 0.29912 0.0
C908 C 0.12079 0.43171 0.3196 0.0
C909 C 0.11847 0.40881 0.3095 0.0
C910 C 0.09985 0.39516 0.29362 0.0
C911 C 0.08304 0.40327 0.28859 0.0
C912 C 0.13626 0.36004 0.32218 0.0
C913 C 0.16152 0.37675 0.33109 0.0
C914 C 0.12261 0.3705 0.31494 0.0
C915 C 0.13395 0.39798 0.31624 0.0
C916 C 0.15953 0.41473 0.32479 0.0
C917 C 0.17318 0.40418 0.3322 0.0
H918 H 0.38003 0.46134 0.29675 0.0
H919 H 0.33396 0.48828 0.27193 0.0
H920 H 0.34276 0.42825 0.30882 0.0
H921 H 0.29686 0.45546 0.28416 0.0
H922 H 0.23032 0.37561 0.29172 0.0
H923 H 0.26787 0.40744 0.27951 0.0
H924 H 0.31436 0.42566 0.33215 0.0
H925 H 0.27671 0.39345 0.34441 0.0
C926 C 0.36197 0.4602 0.29386 0.0
C927 C 0.35998 0.47744 0.28334 0.0
C928 C 0.34065 0.44135 0.30088 0.0
C929 C 0.31684 0.43921 0.29746 0.0
C930 C 0.31485 0.45637 0.28686 0.0
C931 C 0.33616 0.47528 0.27992 0.0
C932 C 0.24852 0.3863 0.30074 0.0
C933 C 0.25044 0.38197 0.3191 0.0
C934 C 0.27005 0.4047 0.29373 0.0
C935 C 0.2941 0.41919 0.30487 0.0
C936 C 0.29614 0.41464 0.32315 0.0
C937 C 0.27453 0.39628 0.33021 0.0
H938 H 0.53154 0.90887 0.30576 0.0
H939 H 0.48926 0.8289 0.27492 0.0
H940 H 0.56332 0.90059 0.31952 0.0
H941 H 0.52071 0.82044 0.28898 0.0
H942 H 0.59637 0.82409 0.30147 0.0
H943 H 0.56454 0.83242 0.28807 0.0
H944 H 0.56907 0.87601 0.34133 0.0
H945 H 0.60137 0.86817 0.35468 0.0
C946 C 0.52893 0.88947 0.302 0.0
C947 C 0.50787 0.86957 0.2892 0.0
C948 C 0.54709 0.88467 0.30998 0.0
C949 C 0.54462 0.85985 0.30536 0.0
C950 C 0.52344 0.83991 0.29265 0.0
C951 C 0.5053 0.84471 0.28467 0.0
C952 C 0.5906 0.83544 0.31036 0.0
C953 C 0.60148 0.84547 0.32918 0.0
C954 C 0.5722 0.84009 0.30268 0.0
C955 C 0.56416 0.85485 0.31361 0.0
C956 C 0.57503 0.86485 0.33244 0.0
C957 C 0.59347 0.86022 0.34013 0.0
H958 H 0.10188 0.62307 0.31353 0.0
H959 H 0.07912 0.64049 0.26266 0.0
H960 H 0.12087 0.66899 0.32835 0.0
H961 H 0.09858 0.68667 0.27747 0.0
H962 H 0.11026 0.75905 0.31765 0.0
H963 H 0.09166 0.71335 0.302 0.0
H964 H 0.1569 0.71285 0.32699 0.0
H965 H 0.17526 0.75841 0.34281 0.0
C966 C 0.10102 0.63672 0.30546 0.0
C967 C 0.08894 0.62809 0.2869 0.0
C968 C 0.11206 0.6631 0.31394 0.0
C969 C 0.11128 0.68149 0.30409 0.0
C970 C 0.09925 0.6729 0.28551 0.0
C971 C 0.08822 0.64648 0.27699 0.0
C972 C 0.12059 0.74913 0.31976 0.0
C973 C 0.14413 0.76216 0.33147 0.0
C974 C 0.11004 0.72304 0.31072 0.0
C975 C 0.12279 0.70946 0.31327 0.0
C976 C 0.14644 0.72264 0.32493 0.0
C977 C 0.157 0.74874 0.33394 0.0
H978 H 0.75359 0.04124 0.38239 0.0
H979 H 0.81752 0.0326 0.39801 0.0
H980 H 0.7272 0.99388 0.37053 0.0
H981 H 0.79095 0.98513 0.38639 0.0
H982 H 0.74398 0.90782 0.34338 0.0
H983 H 0.77065 0.95496 0.35644 0.0
H984 H 0.70713 0.95149 0.38134 0.0
H985 H 0.68043 0.90452 0.36802 0.0
C986 C 0.76198 0.02922 0.38341 0.0
C987 C 0.78768 0.04072 0.39111 0.0
C988 C 0.7468 0.00205 0.3767 0.0
C989 C 0.75698 0.98575 0.37749 0.0
C990 C 0.78263 0.99721 0.38536 0.0
C991 C 0.7978 0.02439 0.39212 0.0
C992 C 0.73579 0.91718 0.35166 0.0
C993 C 0.71016 0.90263 0.35463 0.0
C994 C 0.75107 0.94411 0.35924 0.0
C995 C 0.74099 0.95698 0.3699 0.0
C996 C 0.71537 0.94225 0.37298 0.0
C997 C 0.70012 0.91534 0.36544 0.0
H998 H 0.96001 0.75244 0.3767 0.0
H999 H 1.00059 0.83265 0.4071 0.0
H1000 H 0.99878 0.7607 0.3639 0.0
H1001 H 0.03914 0.84103 0.39406 0.0
H1002 H 0.06622 0.7941 0.33001 0.0
H1003 H 0.02708 0.78562 0.34235 0.0
H1004 H 0.07106 0.82881 0.39632 0.0
H1005 H 0.11008 0.83767 0.38401 0.0
C1006 C 0.97717 0.77186 0.38061 0.0
C1007 C 0.9772 0.79186 0.39298 0.0
C1008 C 0.99936 0.77665 0.37317 0.0
C1009 C 0.02212 0.80152 0.37795 0.0
C1010 C 0.02207 0.82152 0.39027 0.0
C1011 C 0.99991 0.81676 0.39768 0.0
C1012 C 0.06754 0.80182 0.3445 0.0
C1013 C 0.09135 0.81666 0.35597 0.0
C1014 C 0.04507 0.79682 0.3516 0.0
C1015 C 0.04591 0.80659 0.37033 0.0
C1016 C 0.06973 0.82134 0.38177 0.0
C1017 C 0.09214 0.8263 0.3747 0.0
H1018 H 0.26692 0.21888 0.38067 0.0
H1019 H 0.1923 0.17493 0.39789 0.0
H1020 H 0.25492 0.2478 0.36825 0.0
H1021 H 0.18057 0.20414 0.3859 0.0
H1022 H 0.15722 0.2353 0.33924 0.0
H1023 H 0.17096 0.21024 0.35505 0.0
H1024 H 0.24381 0.28175 0.37592 0.0
H1025 H 0.23006 0.30692 0.35957 0.0
C1026 C 0.24808 0.21558 0.38201 0.0
C1027 C 0.23045 0.19441 0.39007 0.0
C1028 C 0.24127 0.23227 0.375 0.0
C1029 C 0.21672 0.22814 0.37595 0.0
C1030 C 0.19947 0.20756 0.38464 0.0
C1031 C 0.20623 0.19086 0.39158 0.0
C1032 C 0.17615 0.24573 0.34724 0.0
C1033 C 0.1926 0.27303 0.34817 0.0
C1034 C 0.18396 0.23139 0.35645 0.0
C1035 C 0.20843 0.244 0.36685 0.0
C1036 C 0.2249 0.27144 0.36792 0.0
C1037 C 0.21701 0.28587 0.35867 0.0
H1038 H 0.65427 0.60509 0.71385 0.0
H1039 H 0.65182 0.53491 0.72594 0.0
H1040 H 0.69632 0.62095 0.70409 0.0
H1041 H 0.69429 0.55119 0.71645 0.0
H1042 H 0.78406 0.61261 0.71643 0.0
H1043 H 0.74223 0.59405 0.72737 0.0
H1044 H 0.71005 0.60083 0.67577 0.0
H1045 H 0.75143 0.61888 0.66466 0.0
C1046 C 0.66283 0.5932 0.71463 0.0
C1047 C 0.64971 0.56871 0.72058 0.0
C1048 C 0.68681 0.60222 0.70897 0.0
C1049 C 0.69835 0.58716 0.70943 0.0
C1050 C 0.68573 0.56313 0.716 0.0
C1051 C 0.66146 0.55383 0.72136 0.0
C1052 C 0.76796 0.6098 0.70734 0.0
C1053 C 0.77104 0.61722 0.68969 0.0
C1054 C 0.74409 0.59917 0.71359 0.0
C1055 C 0.72311 0.5963 0.70244 0.0
C1056 C 0.72605 0.60311 0.68467 0.0
C1057 C 0.7497 0.61326 0.67829 0.0
H1058 H 0.49271 0.12867 0.72021 0.0
H1059 H 0.4647 0.11959 0.77335 0.0
H1060 H 0.45842 0.13487 0.70859 0.0
H1061 H 0.43028 0.12532 0.76164 0.0
H1062 H 0.38943 0.16554 0.74018 0.0
H1063 H 0.42358 0.15943 0.75214 0.0
H1064 H 0.41182 0.10907 0.70018 0.0
H1065 H 0.37801 0.11546 0.68808 0.0
C1066 C 0.47925 0.12797 0.7294 0.0
C1067 C 0.48144 0.12364 0.7477 0.0
C1068 C 0.45951 0.13135 0.72271 0.0
C1069 C 0.4416 0.13053 0.73419 0.0
C1070 C 0.44393 0.12637 0.75252 0.0
C1071 C 0.4636 0.12294 0.75919 0.0
C1072 C 0.39401 0.15303 0.73134 0.0
C1073 C 0.381 0.14102 0.71316 0.0
C1074 C 0.41355 0.14948 0.73822 0.0
C1075 C 0.4205 0.13388 0.72706 0.0
C1076 C 0.4072 0.12155 0.709 0.0
C1077 C 0.38766 0.12506 0.70214 0.0
H1078 H 0.88503 0.38266 0.68997 0.0
H1079 H 0.91003 0.35954 0.73678 0.0
H1080 H 0.86503 0.33748 0.67262 0.0
H1081 H 0.89 0.31468 0.71956 0.0
H1082 H 0.87895 0.24732 0.67576 0.0
H1083 H 0.89776 0.2926 0.69201 0.0
H1084 H 0.82884 0.29109 0.67358 0.0
H1085 H 0.80991 0.24547 0.65721 0.0
C1086 C 0.88622 0.36798 0.69656 0.0
C1087 C 0.89922 0.37473 0.71472 0.0
C1088 C 0.87465 0.3421 0.68667 0.0
C1089 C 0.87608 0.3226 0.6947 0.0
C1090 C 0.88889 0.32936 0.7129 0.0
C1091 C 0.90027 0.35508 0.7228 0.0
C1092 C 0.86778 0.25661 0.67519 0.0
C1093 C 0.84291 0.24285 0.66535 0.0
C1094 C 0.87852 0.28252 0.68455 0.0
C1095 C 0.86471 0.29534 0.68417 0.0
C1096 C 0.83998 0.28175 0.67401 0.0
C1097 C 0.82912 0.25566 0.66473 0.0
H1098 H 0.20821 0.94852 0.656 0.0
H1099 H 0.15984 0.97307 0.63143 0.0
H1100 H 0.23795 0.99395 0.67183 0.0
H1101 H 0.18964 0.01843 0.64719 0.0
H1102 H 0.23728 0.09185 0.69293 0.0
H1103 H 0.20647 0.04569 0.67904 0.0
H1104 H 0.26815 0.03676 0.66193 0.0
H1105 H 0.29895 0.08289 0.67589 0.0
C1106 C 0.2038 0.96354 0.6541 0.0
C1107 C 0.18169 0.95719 0.64241 0.0
C1108 C 0.22093 0.98958 0.66306 0.0
C1109 C 0.21619 0.00976 0.66066 0.0
C1110 C 0.19372 0.00327 0.64941 0.0
C1111 C 0.1767 0.97729 0.64033 0.0
C1112 C 0.24421 0.07997 0.68622 0.0
C1113 C 0.27045 0.09085 0.68549 0.0
C1114 C 0.22659 0.05362 0.67822 0.0
C1115 C 0.23491 0.0376 0.66945 0.0
C1116 C 0.26121 0.04852 0.66881 0.0
C1117 C 0.27881 0.07494 0.67669 0.0
H1118 H 0.9802 0.2378 0.56036 0.0
H1119 H 0.02443 0.23854 0.60888 0.0
H1120 H 0.94373 0.22478 0.57737 0.0
H1121 H 0.98785 0.22483 0.62567 0.0
H1122 H 0.92505 0.22448 0.65632 0.0
H1123 H 0.96197 0.23949 0.63964 0.0
H1124 H 0.91244 0.18739 0.58934 0.0
H1125 H 0.87555 0.17295 0.60582 0.0
C1126 C 0.98215 0.23516 0.57464 0.0
C1127 C 0.00525 0.23921 0.58323 0.0
C1128 C 0.96118 0.22751 0.58437 0.0
C1129 C 0.96277 0.22364 0.6029 0.0
C1130 C 0.98599 0.22796 0.61152 0.0
C1131 C 0.00697 0.2357 0.60183 0.0
C1132 C 0.92205 0.21618 0.64172 0.0
C1133 C 0.89731 0.19749 0.63244 0.0
C1134 C 0.94325 0.22472 0.63215 0.0
C1135 C 0.94023 0.21471 0.61311 0.0
C1136 C 0.91548 0.19588 0.6039 0.0
C1137 C 0.89431 0.18742 0.61343 0.0
H1138 H 0.74265 0.73582 0.61147 0.0
H1139 H 0.77818 0.79898 0.65917 0.0
H1140 H 0.77151 0.72113 0.62021 0.0
H1141 H 0.80623 0.78345 0.6686 0.0
H1142 H 0.8619 0.75557 0.67727 0.0
H1143 H 0.84033 0.77606 0.6638 0.0
H1144 H 0.77374 0.69835 0.64326 0.0
H1145 H 0.79547 0.67833 0.65594 0.0
C1146 C 0.7567 0.74658 0.62383 0.0
C1147 C 0.75797 0.76831 0.63477 0.0
C1148 C 0.77317 0.7381 0.62893 0.0
C1149 C 0.79089 0.75074 0.64535 0.0
C1150 C 0.79298 0.77332 0.65581 0.0
C1151 C 0.77679 0.78214 0.65048 0.0
C1152 C 0.84277 0.74304 0.66966 0.0
C1153 C 0.83036 0.71542 0.66763 0.0
C1154 C 0.83035 0.75471 0.66203 0.0
C1155 C 0.80528 0.7389 0.65235 0.0
C1156 C 0.79322 0.71124 0.65019 0.0
C1157 C 0.80563 0.6997 0.65762 0.0
H1158 H 0.05177 0.79385 0.64208 0.0
H1159 H 0.01216 0.82909 0.61959 0.0
H1160 H 0.01233 0.76107 0.65219 0.0
H1161 H 0.9729 0.79651 0.62984 0.0
H1162 H 0.90179 0.71637 0.63157 0.0
H1163 H 0.94157 0.74864 0.62188 0.0
H1164 H 0.98288 0.75814 0.67497 0.0
H1165 H 0.94299 0.72553 0.68471 0.0
C1166 C 0.03468 0.79465 0.63932 0.0
C1167 C 0.0351 0.81405 0.62998 0.0
C1168 C 0.01214 0.77595 0.64522 0.0
C1169 C 0.98949 0.77616 0.64178 0.0
C1170 C 0.98995 0.79562 0.63249 0.0
C1171 C 0.0125 0.81438 0.6267 0.0
C1172 C 0.91932 0.72524 0.64122 0.0
C1173 C 0.91916 0.71835 0.65896 0.0
C1174 C 0.94212 0.74389 0.63567 0.0
C1175 C 0.96536 0.75604 0.64768 0.0
C1176 C 0.9653 0.74896 0.66535 0.0
C1177 C 0.94243 0.73037 0.67095 0.0
H1178 H 0.22011 0.25815 0.64159 0.0
H1179 H 0.17286 0.17846 0.61073 0.0
H1180 H 0.24931 0.24643 0.65521 0.0
H1181 H 0.2018 0.16663 0.62462 0.0
H1182 H 0.27295 0.16239 0.63869 0.0
H1183 H 0.24496 0.17502 0.62435 0.0
H1184 H 0.25008 0.21947 0.67739 0.0
H1185 H 0.27845 0.20728 0.6917 0.0
C1186 C 0.21594 0.23813 0.63772 0.0
C1187 C 0.19414 0.21923 0.62509 0.0
C1188 C 0.2326 0.23137 0.64562 0.0
C1189 C 0.22785 0.20558 0.64105 0.0
C1190 C 0.20617 0.18675 0.62827 0.0
C1191 C 0.1895 0.1935 0.62039 0.0
C1192 C 0.26813 0.17487 0.64731 0.0
C1193 C 0.27795 0.18381 0.66636 0.0
C1194 C 0.25198 0.182 0.63909 0.0
C1195 C 0.24527 0.19824 0.64972 0.0
C1196 C 0.25514 0.20723 0.66876 0.0
C1197 C 0.2713 0.2001 0.67698 0.0
H1198 H 0.78185 0.96693 0.63825 0.0
H1199 H 0.74339 0.97525 0.59047 0.0
H1200 H 0.80121 0.01372 0.65068 0.0
H1201 H 0.76322 0.02232 0.60281 0.0
H1202 H 0.77889 0.09682 0.64284 0.0
H1203 H 0.76058 0.05057 0.62869 0.0
H1204 H 0.83274 0.05718 0.64479 0.0
H1205 H 0.85087 0.10331 0.65917 0.0
C1206 C 0.77765 0.97877 0.63032 0.0
C1207 C 0.761 0.96731 0.61338 0.0
C1208 C 0.7889 0.00566 0.6374 0.0
C1209 C 0.78378 0.02176 0.62773 0.0
C1210 C 0.76731 0.01038 0.6107 0.0
C1211 C 0.75606 0.98344 0.60358 0.0
C1212 C 0.79083 0.08838 0.64326 0.0
C1213 C 0.81624 0.10355 0.65214 0.0
C1214 C 0.78041 0.06195 0.63508 0.0
C1215 C 0.79519 0.05018 0.63565 0.0
C1216 C 0.82075 0.06555 0.64434 0.0
C1217 C 0.83116 0.09198 0.6525 0.0
H1218 H 0.44848 0.35345 0.76339 0.0
H1219 H 0.49209 0.36501 0.71739 0.0
H1220 H 0.41959 0.30715 0.74913 0.0
H1221 H 0.4629 0.31903 0.70296 0.0
H1222 H 0.41856 0.22919 0.68957 0.0
H1223 H 0.44917 0.27411 0.70596 0.0
H1224 H 0.38667 0.28205 0.7225 0.0
H1225 H 0.35623 0.23698 0.70647 0.0
C1226 C 0.45194 0.34611 0.75027 0.0
C1227 C 0.47253 0.36295 0.7415 0.0
C1228 C 0.43529 0.31963 0.74204 0.0
C1229 C 0.43884 0.30941 0.72485 0.0
C1230 C 0.45977 0.32614 0.7163 0.0
C1231 C 0.47644 0.35258 0.72454 0.0
C1232 C 0.41144 0.24059 0.69674 0.0
C1233 C 0.38509 0.22972 0.69674 0.0
C1234 C 0.42893 0.26632 0.70607 0.0
C1235 C 0.42037 0.28169 0.71554 0.0
C1236 C 0.39394 0.27064 0.71559 0.0
C1237 C 0.37649 0.2449 0.7063 0.0
H1238 H 0.67096 0.15899 0.74105 0.0
H1239 H 0.63282 0.07901 0.71044 0.0
H1240 H 0.70945 0.16956 0.72707 0.0
H1241 H 0.67145 0.08948 0.6967 0.0
H1242 H 0.73331 0.12748 0.6591 0.0
H1243 H 0.69556 0.11612 0.67418 0.0
H1244 H 0.74375 0.15998 0.72673 0.0
H1245 H 0.78164 0.17174 0.71162 0.0
C1246 C 0.67084 0.14361 0.73145 0.0
C1247 C 0.64877 0.11819 0.7268 0.0
C1248 C 0.69296 0.14963 0.72352 0.0
C1249 C 0.6935 0.13039 0.71072 0.0
C1250 C 0.67155 0.10486 0.7063 0.0
C1251 C 0.64945 0.09882 0.71426 0.0
C1252 C 0.73591 0.1347 0.67388 0.0
C1253 C 0.76054 0.15059 0.68412 0.0
C1254 C 0.71423 0.12803 0.68255 0.0
C1255 C 0.71663 0.13711 0.70166 0.0
C1256 C 0.74125 0.15292 0.71193 0.0
C1257 C 0.76297 0.15956 0.70327 0.0
H1258 H 0.91849 0.54192 0.71403 0.0
H1259 H 0.84346 0.50299 0.73126 0.0
H1260 H 0.91001 0.57363 0.7022 0.0
H1261 H 0.83521 0.53487 0.71972 0.0
H1262 H 0.89179 0.63823 0.69507 0.0
H1263 H 0.90215 0.61031 0.71106 0.0
H1264 H 0.82757 0.54234 0.68847 0.0
H1265 H 0.81725 0.57008 0.67287 0.0
C1266 C 0.90031 0.54029 0.71547 0.0
C1267 C 0.88153 0.51974 0.72339 0.0
C1268 C 0.89554 0.55858 0.70881 0.0
C1269 C 0.87188 0.55663 0.7099 0.0
C1270 C 0.85348 0.53664 0.71842 0.0
C1271 C 0.85824 0.51841 0.72508 0.0
C1272 C 0.87763 0.61736 0.69371 0.0
C1273 C 0.85376 0.60626 0.68274 0.0
C1274 C 0.88357 0.60138 0.70275 0.0
C1275 C 0.86563 0.57414 0.70107 0.0
C1276 C 0.84167 0.5633 0.69029 0.0
C1277 C 0.83582 0.57916 0.68122 0.0
H1278 H 0.49906 0.91654 0.2117 0.0
H1279 H 0.43745 0.93034 0.20033 0.0
H1280 H 0.51647 0.93426 0.18411 0.0
H1281 H 0.45519 0.94859 0.17307 0.0
H1282 H 0.47775 0.95296 0.11479 0.0
H1283 H 0.46073 0.93472 0.14227 0.0
H1284 H 0.53745 0.97517 0.17207 0.0
H1285 H 0.55456 0.99245 0.14431 0.0
C1286 C 0.4893 0.92348 0.20339 0.0
C1287 C 0.4668 0.92193 0.20823 0.0
C1288 C 0.49937 0.93378 0.18762 0.0
C1289 C 0.48721 0.94281 0.17633 0.0
C1290 C 0.46482 0.94142 0.18127 0.0
C1291 C 0.45474 0.93109 0.19699 0.0
C1292 C 0.49103 0.95773 0.12713 0.0
C1293 C 0.51754 0.97416 0.12731 0.0
C1294 C 0.48124 0.94753 0.14298 0.0
C1295 C 0.49771 0.95353 0.15942 0.0
C1296 C 0.52423 0.96992 0.1596 0.0
C1297 C 0.53402 0.9801 0.14374 0.0
H1298 H 0.0087 0.45064 0.2237 0.0
H1299 H 0.06717 0.53181 0.246 0.0
H1300 H 0.00779 0.46206 0.19294 0.0
H1301 H 0.0655 0.54338 0.21527 0.0
H1302 H 0.02823 0.55327 0.16082 0.0
H1303 H 0.03297 0.54448 0.1921 0.0
H1304 H 0.03812 0.47762 0.16901 0.0
H1305 H 0.03419 0.48675 0.13779 0.0
C1306 C 0.02127 0.47098 0.2221 0.0
C1307 C 0.03759 0.49044 0.23748 0.0
C1308 C 0.02077 0.47748 0.20446 0.0
C1309 C 0.03652 0.50361 0.20175 0.0
C1310 C 0.05287 0.52314 0.21706 0.0
C1311 C 0.05359 0.51656 0.23473 0.0
C1312 C 0.03087 0.537 0.1624 0.0
C1313 C 0.03063 0.5206 0.14672 0.0
C1314 C 0.03351 0.53195 0.18033 0.0
C1315 C 0.03569 0.51025 0.18294 0.0
C1316 C 0.03605 0.49423 0.16736 0.0
C1317 C 0.03369 0.49942 0.14947 0.0
H1318 H 0.42254 0.52485 0.19649 0.0
H1319 H 0.48235 0.51051 0.21321 0.0
H1320 H 0.43147 0.52248 0.1644 0.0
H1321 H 0.49119 0.50814 0.18115 0.0
H1322 H 0.4884 0.48764 0.1183 0.0
H1323 H 0.47276 0.4824 0.14848 0.0
H1324 H 0.46935 0.55294 0.14958 0.0
H1325 H 0.48477 0.55805 0.11941 0.0
C1326 C 0.43725 0.5207 0.19328 0.0
C1327 C 0.45186 0.51806 0.20745 0.0
C1328 C 0.44248 0.51953 0.17493 0.0
C1329 C 0.46218 0.51536 0.17031 0.0
C1330 C 0.4758 0.51124 0.18426 0.0
C1331 C 0.47079 0.51271 0.20265 0.0
C1332 C 0.48402 0.50183 0.12492 0.0
C1333 C 0.48792 0.52333 0.11656 0.0
C1334 C 0.47522 0.49891 0.14222 0.0
C1335 C 0.4698 0.51723 0.15137 0.0
C1336 C 0.4731 0.53834 0.14277 0.0
C1337 C 0.48218 0.54143 0.1256 0.0
H1338 H 0.90789 0.47495 0.80696 0.0
H1339 H 0.98337 0.49685 0.79421 0.0
H1340 H 0.92202 0.47925 0.83965 0.0
H1341 H 0.99775 0.50197 0.82707 0.0
H1342 H 0.00085 0.46815 0.87972 0.0
H1343 H 0.99049 0.47191 0.8481 0.0
H1344 H 0.94839 0.50759 0.86808 0.0
H1345 H 0.95767 0.50251 0.8997 0.0
C1346 C 0.92766 0.48123 0.81118 0.0
C1347 C 0.94441 0.48523 0.79792 0.0
C1348 C 0.93581 0.48384 0.82998 0.0
C1349 C 0.96096 0.49067 0.83598 0.0
C1350 C 0.9781 0.49613 0.82286 0.0
C1351 C 0.9699 0.49337 0.80403 0.0
C1352 C 0.98924 0.47664 0.87738 0.0
C1353 C 0.97984 0.48473 0.89223 0.0
C1354 C 0.98363 0.47921 0.85925 0.0
C1355 C 0.96861 0.49008 0.85552 0.0
C1356 C 0.95979 0.49886 0.87044 0.0
C1357 C 0.96532 0.4962 0.88859 0.0
H1358 H 0.57419 0.54166 0.7992 0.0
H1359 H 0.51207 0.46435 0.77242 0.0
H1360 H 0.55814 0.53321 0.82889 0.0
H1361 H 0.49689 0.45524 0.80219 0.0
H1362 H 0.45818 0.46407 0.85213 0.0
H1363 H 0.47591 0.46947 0.82296 0.0
H1364 H 0.55211 0.50776 0.85335 0.0
H1365 H 0.53443 0.50351 0.88263 0.0
C1366 C 0.55742 0.52263 0.79973 0.0
C1367 C 0.54474 0.50346 0.7835 0.0
C1368 C 0.54833 0.5177 0.81677 0.0
C1369 C 0.52626 0.4935 0.81796 0.0
C1370 C 0.51386 0.47415 0.80177 0.0
C1371 C 0.5229 0.47915 0.78472 0.0
C1372 C 0.47873 0.47375 0.85261 0.0
C1373 C 0.49487 0.48354 0.86973 0.0
C1374 C 0.48889 0.47653 0.83585 0.0
C1375 C 0.51546 0.48907 0.83579 0.0
C1376 C 0.53158 0.49827 0.8529 0.0
C1377 C 0.52141 0.49555 0.86968 0.0
H1378 H 0.58417 0.06366 0.80398 0.0
H1379 H 0.53105 0.0894 0.81415 0.0
H1380 H 0.57724 0.04606 0.83305 0.0
H1381 H 0.52374 0.07139 0.84261 0.0
H1382 H 0.53041 0.05755 0.90052 0.0
H1383 H 0.54394 0.07845 0.87347 0.0
H1384 H 0.54365 0.01004 0.84594 0.0
H1385 H 0.53147 0.98967 0.87351 0.0
C1386 C 0.57112 0.06564 0.81241 0.0
C1387 C 0.5582 0.07796 0.80673 0.0
C1388 C 0.56704 0.05543 0.82899 0.0
C1389 C 0.55001 0.0574 0.84019 0.0
C1390 C 0.53735 0.06996 0.83454 0.0
C1391 C 0.54144 0.08014 0.81808 0.0
C1392 C 0.53372 0.04714 0.88888 0.0
C1393 C 0.52971 0.02184 0.88919 0.0
C1394 C 0.54119 0.05901 0.87325 0.0
C1395 C 0.54462 0.04581 0.85745 0.0
C1396 C 0.54133 0.02083 0.85792 0.0
C1397 C 0.53398 0.00899 0.87363 0.0
H1398 H 0.1061 0.27136 0.54247 0.0
H1399 H 0.17765 0.27361 0.54828 0.0
H1400 H 0.1162 0.28922 0.51366 0.0
H1401 H 0.18734 0.29076 0.51958 0.0
H1402 H 0.21138 0.34573 0.47865 0.0
H1403 H 0.19913 0.33086 0.50789 0.0
H1404 H 0.12131 0.27705 0.48126 0.0
H1405 H 0.13334 0.29288 0.452 0.0
C1406 C 0.12391 0.27562 0.53769 0.0
C1407 C 0.14108 0.27115 0.54785 0.0
C1408 C 0.12964 0.28573 0.5211 0.0
C1409 C 0.15269 0.29166 0.51439 0.0
C1410 C 0.16967 0.28696 0.52451 0.0
C1411 C 0.16396 0.2769 0.54096 0.0
C1412 C 0.19153 0.33112 0.47904 0.0
C1413 C 0.17339 0.32049 0.4629 0.0
C1414 C 0.18456 0.32233 0.4958 0.0
C1415 C 0.15929 0.30253 0.49689 0.0
C1416 C 0.14091 0.2924 0.48092 0.0
C1417 C 0.14789 0.30126 0.4641 0.0
H1418 H 0.67112 0.78702 0.5613 0.0
H1419 H 0.73635 0.86669 0.57642 0.0
H1420 H 0.66485 0.79497 0.53019 0.0
H1421 H 0.72906 0.8753 0.54561 0.0
H1422 H 0.72431 0.87107 0.48198 0.0
H1423 H 0.73197 0.86451 0.51352 0.0
H1424 H 0.65034 0.81828 0.5143 0.0
H1425 H 0.64284 0.82432 0.4827 0.0
C1426 C 0.68396 0.80639 0.55807 0.0
C1427 C 0.70384 0.82645 0.57156 0.0
C1428 C 0.68019 0.81104 0.54025 0.0
C1429 C 0.69619 0.83591 0.53543 0.0
C1430 C 0.71635 0.8559 0.54883 0.0
C1431 C 0.72022 0.85116 0.56667 0.0
C1432 C 0.70806 0.85963 0.48899 0.0
C1433 C 0.68298 0.84801 0.47986 0.0
C1434 C 0.71242 0.85594 0.50707 0.0
C1435 C 0.69177 0.84072 0.51644 0.0
C1436 C 0.6667 0.82961 0.50738 0.0
C1437 C 0.66237 0.8331 0.48928 0.0
H1438 H 0.14993 0.83472 0.5571 0.0
H1439 H 0.09423 0.8563 0.54425 0.0
H1440 H 0.15537 0.83049 0.52435 0.0
H1441 H 0.09967 0.85193 0.51144 0.0
H1442 H 0.15045 0.88353 0.46441 0.0
H1443 H 0.13658 0.87946 0.49508 0.0
H1444 H 0.13389 0.80545 0.49215 0.0
H1445 H 0.1481 0.80972 0.46148 0.0
C1446 C 0.1385 0.8381 0.54725 0.0
C1447 C 0.12184 0.84611 0.55334 0.0
C1448 C 0.14154 0.83554 0.52846 0.0
C1449 C 0.12811 0.84112 0.51537 0.0
C1450 C 0.1105 0.84783 0.52128 0.0
C1451 C 0.10728 0.85017 0.54006 0.0
C1452 C 0.14677 0.86634 0.47029 0.0
C1453 C 0.15051 0.84704 0.46063 0.0
C1454 C 0.13857 0.86386 0.48775 0.0
C1455 C 0.13415 0.84212 0.49601 0.0
C1456 C 0.13729 0.82248 0.48615 0.0
C1457 C 0.14525 0.82483 0.46858 0.0
H1458 H 0.59263 0.8149 0.12893 0.0
H1459 H 0.66923 0.82913 0.13058 0.0
H1460 H 0.59617 0.81782 0.16269 0.0
H1461 H 0.67261 0.83187 0.16425 0.0
H1462 H 0.67743 0.85295 0.22652 0.0
H1463 H 0.67391 0.85817 0.19402 0.0
H1464 H 0.59799 0.78836 0.18341 0.0
H1465 H 0.60134 0.78343 0.21594 0.0
C1466 C 0.61034 0.81899 0.1365 0.0
C1467 C 0.63058 0.82156 0.12705 0.0
C1468 C 0.61228 0.82053 0.15581 0.0
C1469 C 0.63459 0.82492 0.16607 0.0
C1470 C 0.65526 0.82869 0.15673 0.0
C1471 C 0.65325 0.82696 0.13742 0.0
C1472 C 0.65982 0.83904 0.21731 0.0
C1473 C 0.63969 0.8177 0.2237 0.0
C1474 C 0.65789 0.8419 0.1987 0.0
C1475 C 0.63573 0.82362 0.18619 0.0
C1476 C 0.61522 0.80289 0.19277 0.0
C1477 C 0.61722 0.79991 0.21133 0.0
H1478 H 0.21006 0.80351 0.12076 0.0
H1479 H 0.23808 0.88661 0.13723 0.0
H1480 H 0.1928 0.79498 0.14998 0.0
H1481 H 0.22252 0.87847 0.16697 0.0
H1482 H 0.16627 0.85216 0.20862 0.0
H1483 H 0.18339 0.85969 0.17928 0.0
H1484 H 0.20363 0.8007 0.18269 0.0
H1485 H 0.18575 0.79272 0.21186 0.0
C1486 C 0.21227 0.81991 0.13047 0.0
C1487 C 0.22463 0.84558 0.12631 0.0
C1488 C 0.20286 0.81512 0.14746 0.0
C1489 C 0.20592 0.83598 0.1608 0.0
C1490 C 0.21919 0.86179 0.15688 0.0
C1491 C 0.22837 0.86651 0.13987 0.0
C1492 C 0.17449 0.84091 0.20313 0.0
C1493 C 0.17473 0.82191 0.21255 0.0
C1494 C 0.18441 0.84527 0.18633 0.0
C1495 C 0.19509 0.83094 0.17861 0.0
C1496 C 0.19526 0.81186 0.18805 0.0
C1497 C 0.18509 0.80731 0.20479 0.0
H1498 H 0.23313 0.44712 0.15586 0.0
H1499 H 0.22571 0.3746 0.12891 0.0
H1500 H 0.22542 0.43028 0.185 0.0
H1501 H 0.21691 0.35726 0.15779 0.0
H1502 H 0.21548 0.33738 0.21554 0.0
H1503 H 0.23151 0.3588 0.18885 0.0
H1504 H 0.18985 0.39877 0.19723 0.0
H1505 H 0.17464 0.37801 0.22417 0.0
C1506 C 0.23002 0.42763 0.1562 0.0
C1507 C 0.22984 0.41212 0.14004 0.0
C1508 C 0.22538 0.41787 0.17287 0.0
C1509 C 0.22011 0.39221 0.17374 0.0
C1510 C 0.22111 0.37719 0.15776 0.0
C1511 C 0.22608 0.3871 0.14113 0.0
C1512 C 0.20987 0.35084 0.21165 0.0
C1513 C 0.19379 0.35601 0.22189 0.0
C1514 C 0.219 0.36308 0.19634 0.0
C1515 C 0.212 0.38055 0.19081 0.0
C1516 C 0.19612 0.3859 0.20126 0.0
C1517 C 0.18725 0.37389 0.21666 0.0
H1518 H 0.76538 0.5957 0.87691 0.0
H1519 H 0.84276 0.61262 0.88713 0.0
H1520 H 0.77473 0.614 0.84821 0.0
H1521 H 0.85176 0.62996 0.85843 0.0
H1522 H 0.86972 0.68135 0.81547 0.0
H1523 H 0.85789 0.66703 0.84491 0.0
H1524 H 0.78374 0.60366 0.81696 0.0
H1525 H 0.79514 0.61885 0.78745 0.0
C1526 C 0.7844 0.60354 0.8732 0.0
C1527 C 0.80336 0.6029 0.88448 0.0
C1528 C 0.78969 0.61376 0.85662 0.0
C1529 C 0.81406 0.62363 0.85105 0.0
C1530 C 0.83294 0.62303 0.86242 0.0
C1531 C 0.82767 0.61283 0.87886 0.0
C1532 C 0.85067 0.66471 0.81558 0.0
C1533 C 0.83343 0.65124 0.79899 0.0
C1534 C 0.844 0.65627 0.83248 0.0
C1535 C 0.81996 0.634 0.8333 0.0
C1536 C 0.80237 0.62096 0.81685 0.0
C1537 C 0.80903 0.62948 0.79989 0.0
H1538 H 0.38165 0.20083 0.91943 0.0
H1539 H 0.38239 0.13079 0.89767 0.0
H1540 H 0.37436 0.2071 0.88798 0.0
H1541 H 0.37311 0.13584 0.86606 0.0
H1542 H 0.37999 0.16561 0.81108 0.0
H1543 H 0.39092 0.16192 0.84268 0.0
H1544 H 0.3417 0.18876 0.86237 0.0
H1545 H 0.33215 0.19411 0.83108 0.0
C1546 C 0.3808 0.18706 0.90795 0.0
C1547 C 0.38349 0.16584 0.91108 0.0
C1548 C 0.37596 0.19027 0.88984 0.0
C1549 C 0.37318 0.17201 0.8744 0.0
C1550 C 0.3756 0.15058 0.87757 0.0
C1551 C 0.38069 0.14754 0.8957 0.0
C1552 C 0.37181 0.17112 0.82219 0.0
C1553 C 0.35516 0.18015 0.81847 0.0
C1554 C 0.3778 0.16864 0.84031 0.0
C1555 C 0.36717 0.17498 0.85513 0.0
C1556 C 0.35055 0.18403 0.85139 0.0
C1557 C 0.34474 0.18671 0.83334 0.0
H1558 H 0.76525 0.1877 0.865 0.0
H1559 H 0.83345 0.18676 0.88146 0.0
H1560 H 0.77203 0.18345 0.83241 0.0
H1561 H 0.84012 0.18249 0.84899 0.0
H1562 H 0.83489 0.15647 0.78683 0.0
H1563 H 0.82142 0.15252 0.81773 0.0
H1564 H 0.8059 0.2149 0.81497 0.0
H1565 H 0.81916 0.2187 0.78406 0.0
C1566 C 0.7814 0.1861 0.86165 0.0
C1567 C 0.79891 0.18775 0.87584 0.0
C1568 C 0.78537 0.18386 0.84302 0.0
C1569 C 0.80669 0.18282 0.83817 0.0
C1570 C 0.82342 0.18307 0.85226 0.0
C1571 C 0.81965 0.18565 0.87088 0.0
C1572 C 0.82828 0.16908 0.79274 0.0
C1573 C 0.82822 0.188 0.78309 0.0
C1574 C 0.82071 0.16692 0.81045 0.0
C1575 C 0.81262 0.1834 0.81876 0.0
C1576 C 0.8118 0.20175 0.80885 0.0
C1577 C 0.81965 0.20412 0.79125 0.0
H1578 H 0.32435 0.1545 0.46747 0.0
H1579 H 0.25689 0.15832 0.47467 0.0
H1580 H 0.33304 0.15807 0.50101 0.0
H1581 H 0.26572 0.16196 0.50824 0.0
H1582 H 0.26931 0.12267 0.55907 0.0
H1583 H 0.26343 0.1286 0.52708 0.0
H1584 H 0.34399 0.18725 0.53214 0.0
H1585 H 0.34992 0.18107 0.56415 0.0
C1586 C 0.31163 0.15658 0.47622 0.0
C1587 C 0.28977 0.15584 0.46837 0.0
C1588 C 0.31669 0.15875 0.49545 0.0
C1589 C 0.29991 0.16004 0.5072 0.0
C1590 C 0.27879 0.16066 0.49947 0.0
C1591 C 0.27384 0.15872 0.48025 0.0
C1592 C 0.28572 0.13691 0.55336 0.0
C1593 C 0.31008 0.15129 0.56402 0.0
C1594 C 0.28232 0.14052 0.53513 0.0
C1595 C 0.30327 0.15841 0.52714 0.0
C1596 C 0.32755 0.17324 0.53794 0.0
C1597 C 0.3309 0.16983 0.55626 0.0
H1598 H 0.86786 0.13674 0.4433 0.0
H1599 H 0.88949 0.2183 0.45883 0.0
H1600 H 0.85245 0.12784 0.47316 0.0
H1601 H 0.87522 0.2096 0.48896 0.0
H1602 H 0.87072 0.18876 0.54756 0.0
H1603 H 0.88737 0.19574 0.51795 0.0
H1604 H 0.81597 0.12861 0.48925 0.0
H1605 H 0.79878 0.1221 0.5187 0.0
C1606 C 0.86891 0.15264 0.45283 0.0
C1607 C 0.87911 0.17801 0.44832 0.0
C1608 C 0.86041 0.14761 0.47007 0.0
C1609 C 0.86253 0.16801 0.48329 0.0
C1610 C 0.87349 0.19354 0.47905 0.0
C1611 C 0.88161 0.19846 0.46176 0.0
C1612 C 0.85842 0.1756 0.53495 0.0
C1613 C 0.83326 0.15503 0.53555 0.0
C1614 C 0.86805 0.17953 0.51802 0.0
C1615 C 0.85292 0.16275 0.50135 0.0
C1616 C 0.82811 0.14167 0.50195 0.0
C1617 C 0.81832 0.13794 0.51885 0.0
H1618 H 0.90021 0.72541 0.46435 0.0
H1619 H 0.89174 0.78752 0.49317 0.0
H1620 H 0.89276 0.70494 0.49218 0.0
H1621 H 0.88432 0.76708 0.52083 0.0
H1622 H 0.89109 0.73398 0.57233 0.0
H1623 H 0.9053 0.75589 0.54558 0.0
H1624 H 0.85396 0.68206 0.50844 0.0
H1625 H 0.83917 0.66025 0.53506 0.0
C1626 C 0.89714 0.7349 0.47668 0.0
C1627 C 0.89641 0.75801 0.4765 0.0
C1628 C 0.89272 0.72309 0.49256 0.0
C1629 C 0.88784 0.73435 0.50865 0.0
C1630 C 0.88823 0.75805 0.50871 0.0
C1631 C 0.89233 0.76967 0.4928 0.0
C1632 C 0.8827 0.7224 0.55848 0.0
C1633 C 0.86382 0.69533 0.55591 0.0
C1634 C 0.89097 0.73496 0.54316 0.0
C1635 C 0.88076 0.72069 0.52492 0.0
C1636 C 0.86247 0.6935 0.52233 0.0
C1637 C 0.85402 0.681 0.53762 0.0
loop_
_geom_bond_atom_site_label_1
_geom_bond_atom_site_label_2
_geom_bond_distance
_geom_bond_site_symmetry_2
_ccdc_geom_bond_type
O0 Cd1 2.300 . S
O0 C7 1.275 . S
Cd1 O0 2.300 . S
Cd1 O9 2.381 . S
Cd1 O10 2.378 . S
O2 Cd3 2.385 . S
O2 C7 1.255 . S
Cd3 O2 2.385 . S
Cd3 O4 2.317 . S
O4 Cd3 2.317 . S
O4 C5 1.232 . S
C5 O4 1.232 . S
C5 O6 1.218 . S
O6 C5 1.218 . S
C7 O0 1.275 . S
C7 O2 1.255 . S
C8 O9 1.258 . S
C8 O10 1.256 . S
O9 Cd1 2.381 . S
O9 C8 1.258 . S
O10 Cd1 2.378 . S
O10 C8 1.256 . S
O11 Cd12 2.300 . S
O11 C18 1.275 . S
Cd12 O11 2.300 . S
Cd12 O20 2.381 . S
Cd12 O21 2.378 . S
O13 Cd14 2.385 . S
O13 C18 1.255 . S
Cd14 O13 2.385 . S
Cd14 O15 2.317 . S
O15 Cd14 2.317 . S
O15 C16 1.232 . S
C16 O15 1.232 . S
C16 O17 1.218 . S
O17 C16 1.218 . S
C18 O11 1.275 . S
C18 O13 1.255 . S
C19 O20 1.258 . S
C19 O21 1.256 . S
O20 Cd12 2.381 . S
O20 C19 1.258 . S
O21 Cd12 2.378 . S
O21 C19 1.256 . S
O22 Cd23 2.300 . S
O22 C29 1.275 . S
Cd23 O22 2.300 . S
Cd23 O31 2.381 . S
Cd23 O32 2.378 . S
O24 Cd25 2.385 . S
O24 C29 1.255 . S
Cd25 O24 2.385 . S
Cd25 O26 2.317 . S
O26 Cd25 2.317 . S
O26 C27 1.232 . S
C27 O26 1.232 . S
C27 O28 1.218 . S
O28 C27 1.218 . S
C29 O22 1.275 . S
C29 O24 1.255 . S
C30 O31 1.258 . S
C30 O32 1.256 . S
O31 Cd23 2.381 . S
O31 C30 1.258 . S
O32 Cd23 2.378 . S
O32 C30 1.256 . S
O33 Cd34 2.300 . S
O33 C40 1.275 . S
Cd34 O33 2.300 . S
Cd34 O42 2.381 . S
Cd34 O43 2.378 . S
O35 Cd36 2.385 . S
O35 C40 1.255 . S
Cd36 O35 2.385 . S
Cd36 O37 2.317 . S
O37 Cd36 2.317 . S
O37 C38 1.232 . S
C38 O37 1.232 . S
C38 O39 1.218 . S
O39 C38 1.218 . S
C40 O33 1.275 . S
C40 O35 1.255 . S
C41 O42 1.258 . S
C41 O43 1.256 . S
O42 Cd34 2.381 . S
O42 C41 1.258 . S
O43 Cd34 2.378 . S
O43 C41 1.256 . S
O44 Cd45 2.300 . S
O44 C51 1.275 . S
Cd45 O44 2.300 . S
Cd45 O53 2.381 . S
Cd45 O54 2.378 . S
O46 Cd47 2.385 . S
O46 C51 1.255 . S
Cd47 O46 2.385 . S
Cd47 O48 2.317 . S
O48 Cd47 2.317 . S
O48 C49 1.232 . S
C49 O48 1.232 . S
C49 O50 1.218 . S
O50 C49 1.218 . S
C51 O44 1.275 . S
C51 O46 1.255 . S
C52 O53 1.258 . S
C52 O54 1.256 . S
O53 Cd45 2.381 . S
O53 C52 1.258 . S
O54 Cd45 2.378 . S
O54 C52 1.256 . S
O55 Cd56 2.300 . S
O55 C62 1.275 . S
Cd56 O55 2.300 . S
Cd56 O64 2.381 . S
Cd56 O65 2.378 . S
O57 Cd58 2.385 . S
O57 C62 1.255 . S
Cd58 O57 2.385 . S
Cd58 O59 2.317 . S
O59 Cd58 2.317 . S
O59 C60 1.232 . S
C60 O59 1.232 . S
C60 O61 1.218 . S
O61 C60 1.218 . S
C62 O55 1.275 . S
C62 O57 1.255 . S
C63 O64 1.258 . S
C63 O65 1.256 . S
O64 Cd56 2.381 . S
O64 C63 1.258 . S
O65 Cd56 2.378 . S
O65 C63 1.256 . S
O66 Cd67 2.300 . S
O66 C73 1.275 . S
Cd67 O66 2.300 . S
Cd67 O75 2.381 . S
Cd67 O76 2.378 . S
O68 Cd69 2.385 . S
O68 C73 1.255 . S
Cd69 O68 2.385 . S
Cd69 O70 2.317 . S
O70 Cd69 2.317 . S
O70 C71 1.232 . S
C71 O70 1.232 . S
C71 O72 1.218 . S
O72 C71 1.218 . S
C73 O66 1.275 . S
C73 O68 1.255 . S
C74 O75 1.258 . S
C74 O76 1.256 . S
O75 Cd67 2.381 . S
O75 C74 1.258 . S
O76 Cd67 2.378 . S
O76 C74 1.256 . S
O77 Cd78 2.300 . S
O77 C84 1.275 . S
Cd78 O77 2.300 . S
Cd78 O86 2.381 . S
Cd78 O87 2.378 . S
O79 Cd80 2.385 . S
O79 C84 1.255 . S
Cd80 O79 2.385 . S
Cd80 O81 2.317 . S
O81 Cd80 2.317 . S
O81 C82 1.232 . S
C82 O81 1.232 . S
C82 O83 1.218 . S
O83 C82 1.218 . S
C84 O77 1.275 . S
C84 O79 1.255 . S
C85 O86 1.258 . S
C85 O87 1.256 . S
O86 Cd78 2.381 . S
O86 C85 1.258 . S
O87 Cd78 2.378 . S
O87 C85 1.256 . S
O88 Cd89 2.300 . S
O88 C95 1.275 . S
Cd89 O88 2.300 . S
Cd89 O97 2.381 . S
Cd89 O98 2.378 . S
O90 Cd91 2.385 . S
O90 C95 1.255 . S
Cd91 O90 2.385 . S
Cd91 O92 2.317 . S
O92 Cd91 2.317 . S
O92 C93 1.232 . S
C93 O92 1.232 . S
C93 O94 1.218 . S
O94 C93 1.218 . S
C95 O88 1.275 . S
C95 O90 1.255 . S
C96 O97 1.258 . S
C96 O98 1.256 . S
O97 Cd89 2.381 . S
O97 C96 1.258 . S
O98 Cd89 2.378 . S
O98 C96 1.256 . S
O99 Cd100 2.300 . S
O99 C106 1.275 . S
Cd100 O99 2.300 . S
Cd100 O108 2.381 . S
Cd100 O109 2.378 . S
O101 Cd102 2.385 . S
O101 C106 1.255 . S
Cd102 O101 2.385 . S
Cd102 O103 2.317 . S
O103 Cd102 2.317 . S
O103 C104 1.232 . S
C104 O103 1.232 . S
C104 O105 1.218 . S
O105 C104 1.218 . S
C106 O99 1.275 . S
C106 O101 1.255 . S
C107 O108 1.258 . S
C107 O109 1.256 . S
O108 Cd100 2.381 . S
O108 C107 1.258 . S
O109 Cd100 2.378 . S
O109 C107 1.256 . S
O110 Cd111 2.300 . S
O110 C117 1.275 . S
Cd111 O110 2.300 . S
Cd111 O119 2.381 . S
Cd111 O120 2.378 . S
O112 Cd113 2.385 . S
O112 C117 1.255 . S
Cd113 O112 2.385 . S
Cd113 O114 2.317 . S
O114 Cd113 2.317 . S
O114 C115 1.232 . S
C115 O114 1.232 . S
C115 O116 1.218 . S
O116 C115 1.218 . S
C117 O110 1.275 . S
C117 O112 1.255 . S
C118 O119 1.258 . S
C118 O120 1.256 . S
O119 Cd111 2.381 . S
O119 C118 1.258 . S
O120 Cd111 2.378 . S
O120 C118 1.256 . S
O121 Cd122 2.300 . S
O121 C128 1.275 . S
Cd122 O121 2.300 . S
Cd122 O130 2.381 . S
Cd122 O131 2.378 . S
O123 Cd124 2.385 . S
O123 C128 1.255 . S
Cd124 O123 2.385 . S
Cd124 O125 2.317 . S
O125 Cd124 2.317 . S
O125 C126 1.232 . S
C126 O125 1.232 . S
C126 O127 1.218 . S
O127 C126 1.218 . S
C128 O121 1.275 . S
C128 O123 1.255 . S
C129 O130 1.258 . S
C129 O131 1.256 . S
O130 Cd122 2.381 . S
O130 C129 1.258 . S
O131 Cd122 2.378 . S
O131 C129 1.256 . S
O132 Cd133 2.300 . S
O132 C139 1.275 . S
Cd133 O132 2.300 . S
Cd133 O141 2.381 . S
Cd133 O142 2.378 . S
O134 Cd135 2.385 . S
O134 C139 1.255 . S
Cd135 O134 2.385 . S
Cd135 O136 2.317 . S
O136 Cd135 2.317 . S
O136 C137 1.232 . S
C137 O136 1.232 . S
C137 O138 1.218 . S
O138 C137 1.218 . S
C139 O132 1.275 . S
C139 O134 1.255 . S
C140 O141 1.258 . S
C140 O142 1.256 . S
O141 Cd133 2.381 . S
O141 C140 1.258 . S
O142 Cd133 2.378 . S
O142 C140 1.256 . S
O143 Cd144 2.300 . S
O143 C150 1.275 . S
Cd144 O143 2.300 . S
Cd144 O152 2.381 . S
Cd144 O153 2.378 . S
O145 Cd146 2.385 . S
O145 C150 1.255 . S
Cd146 O145 2.385 . S
Cd146 O147 2.317 . S
O147 Cd146 2.317 . S
O147 C148 1.232 . S
C148 O147 1.232 . S
C148 O149 1.218 . S
O149 C148 1.218 . S
C150 O143 1.275 . S
C150 O145 1.255 . S
C151 O152 1.258 . S
C151 O153 1.256 . S
O152 Cd144 2.381 . S
O152 C151 1.258 . S
O153 Cd144 2.378 . S
O153 C151 1.256 . S
O154 Cd155 2.300 . S
O154 C161 1.275 . S
Cd155 O154 2.300 . S
Cd155 O163 2.381 . S
Cd155 O164 2.378 . S
O156 Cd157 2.385 . S
O156 C161 1.255 . S
Cd157 O156 2.385 . S
Cd157 O158 2.317 . S
O158 Cd157 2.317 . S
O158 C159 1.232 . S
C159 O158 1.232 . S
C159 O160 1.218 . S
O160 C159 1.218 . S
C161 O154 1.275 . S
C161 O156 1.255 . S
C162 O163 1.258 . S
C162 O164 1.256 . S
O163 Cd155 2.381 . S
O163 C162 1.258 . S
O164 Cd155 2.378 . S
O164 C162 1.256 . S
O165 Cd166 2.300 . S
O165 C172 1.275 . S
Cd166 O165 2.300 . S
Cd166 O174 2.381 . S
Cd166 O175 2.378 . S
O167 Cd168 2.385 . S
O167 C172 1.255 . S
Cd168 O167 2.385 . S
Cd168 O169 2.317 . S
O169 Cd168 2.317 . S
O169 C170 1.232 . S
C170 O169 1.232 . S
C170 O171 1.218 . S
O171 C170 1.218 . S
C172 O165 1.275 . S
C172 O167 1.255 . S
C173 O174 1.258 . S
C173 O175 1.256 . S
O174 Cd166 2.381 . S
O174 C173 1.258 . S
O175 Cd166 2.378 . S
O175 C173 1.256 . S
O176 Cd177 2.300 . S
O176 C183 1.275 . S
Cd177 O176 2.300 . S
Cd177 O185 2.381 . S
Cd177 O186 2.378 . S
O178 Cd179 2.385 . S
O178 C183 1.255 . S
Cd179 O178 2.385 . S
Cd179 O180 2.317 . S
O180 Cd179 2.317 . S
O180 C181 1.232 . S
C181 O180 1.232 . S
C181 O182 1.218 . S
O182 C181 1.218 . S
C183 O176 1.275 . S
C183 O178 1.255 . S
C184 O185 1.258 . S
C184 O186 1.256 . S
O185 Cd177 2.381 . S
O185 C184 1.258 . S
O186 Cd177 2.378 . S
O186 C184 1.256 . S
O187 Cd188 2.300 . S
O187 C194 1.275 . S
Cd188 O187 2.300 . S
Cd188 O196 2.381 . S
Cd188 O197 2.378 . S
O189 Cd190 2.385 . S
O189 C194 1.255 . S
Cd190 O189 2.385 . S
Cd190 O191 2.317 . S
O191 Cd190 2.317 . S
O191 C192 1.232 . S
C192 O191 1.232 . S
C192 O193 1.218 . S
O193 C192 1.218 . S
C194 O187 1.275 . S
C194 O189 1.255 . S
C195 O196 1.258 . S
C195 O197 1.256 . S
O196 Cd188 2.381 . S
O196 C195 1.258 . S
O197 Cd188 2.378 . S
O197 C195 1.256 . S
C198 Eu199 2.835 . S
C198 C200 1.500 1_545 S
C198 O218 1.257 1_545 S
C198 O219 1.260 . S
Eu199 C198 2.835 . S
Eu199 O218 2.473 1_545 S
Eu199 O219 2.480 . S
Eu199 O220 2.430 . S
Eu199 O221 2.710 . S
Eu199 O222 2.394 1_545 S
Eu199 O227 2.355 1_545 S
Eu199 O229 2.374 . S
C200 C198 1.500 1_565 S
C200 C201 1.377 1_565 S
C200 C205 1.377 . S
C201 C200 1.377 1_545 S
C201 C202 1.395 . S
C201 H230 0.931 . S
C202 C201 1.395 . S
C202 C203 1.383 1_545 S
C202 H231 0.931 . S
C203 C202 1.383 1_565 S
C203 C204 1.394 . S
C204 C203 1.394 . S
C204 C205 1.378 . S
C204 H232 0.931 . S
C205 C200 1.377 . S
C205 C204 1.378 . S
C205 H233 0.931 . S
C206 O220 1.259 . S
C206 O221 1.288 . S
C207 O222 1.251 . S
C207 O223 1.251 1_554 S
C208 Eu209 2.835 1_545 S
C208 C210 1.500 . S
C208 O224 1.257 . S
C208 O225 1.260 1_545 S
Eu209 C208 2.835 1_565 S
Eu209 O221 2.334 1_566 S
Eu209 O223 2.374 . S
Eu209 O224 2.473 1_565 S
Eu209 O225 2.480 . S
Eu209 O226 2.430 . S
Eu209 O227 2.670 1_556 S
Eu209 O228 2.394 1_565 S
C210 C208 1.500 . S
C210 C211 1.377 1_545 S
C210 C215 1.377 . S
C211 C210 1.377 1_565 S
C211 C212 1.400 . S
C211 H234 0.931 . S
C212 C211 1.400 . S
C212 C213 1.365 1_565 S
C212 H235 0.945 . S
C213 C212 1.365 1_545 S
C213 C214 1.394 . S
C214 C213 1.394 . S
C214 C215 1.378 . S
C214 H236 0.931 . S
C215 C210 1.377 . S
C215 C214 1.378 . S
C215 H237 0.931 . S
C216 O226 1.259 1_554 S
C216 O227 1.270 . S
C217 O228 1.285 . S
C217 O229 1.189 1_556 S
O218 C198 1.257 1_565 S
O218 Eu199 2.473 1_565 S
O219 C198 1.260 . S
O219 Eu199 2.480 . S
O220 Eu199 2.430 . S
O220 C206 1.259 . S
O221 Eu199 2.710 . S
O221 C206 1.288 . S
O221 Eu209 2.334 1_544 S
O222 Eu199 2.394 1_565 S
O222 C207 1.251 . S
O223 C207 1.251 1_556 S
O223 Eu209 2.374 . S
O224 C208 1.257 . S
O224 Eu209 2.473 1_545 S
O225 C208 1.260 1_565 S
O225 Eu209 2.480 . S
O226 Eu209 2.430 . S
O226 C216 1.259 1_556 S
O227 Eu199 2.355 1_565 S
O227 Eu209 2.670 1_554 S
O227 C216 1.270 . S
O228 Eu209 2.394 1_545 S
O228 C217 1.285 . S
O229 Eu199 2.374 . S
O229 C217 1.189 1_554 S
H230 C201 0.931 . S
H231 C202 0.931 . S
H232 C204 0.931 . S
H233 C205 0.931 . S
H234 C211 0.931 . S
H235 C212 0.945 . S
H236 C214 0.931 . S
H237 C215 0.931 . S
C238 Eu239 2.835 1_455 S
C238 C240 1.500 . S
C238 O258 1.257 . S
C238 O259 1.260 1_455 S
Eu239 C238 2.835 1_655 S
Eu239 O258 2.473 1_655 S
Eu239 O259 2.480 . S
Eu239 O260 2.430 . S
Eu239 O261 2.670 . S
Eu239 O262 2.394 1_655 S
Eu239 O267 2.355 1_655 S
Eu239 O269 2.374 . S
C240 C238 1.500 . S
C240 C241 1.377 . S
C240 C245 1.377 . S
C241 C240 1.377 . S
C241 C242 1.395 . S
C241 H270 0.931 1_455 S
C242 C241 1.395 . S
C242 C243 1.383 . S
C242 H271 0.931 . S
C243 C242 1.383 . S
C243 C244 1.394 . S
C244 C243 1.394 . S
C244 C245 1.378 . S
C244 H272 0.931 . S
C245 C240 1.377 . S
C245 C244 1.378 . S
C245 H273 0.931 . S
C246 O260 1.259 . S
C246 O261 1.270 . S
C247 O262 1.251 . S
C247 O263 1.251 . S
C248 Eu249 2.835 1_655 S
C248 C250 1.500 . S
C248 O264 1.257 . S
C248 O265 1.260 1_655 S
Eu249 C248 2.835 1_455 S
Eu249 O261 2.355 1_456 S
Eu249 O263 2.374 1_556 S
Eu249 O264 2.473 1_455 S
Eu249 O265 2.480 . S
Eu249 O266 2.430 . S
Eu249 O267 2.670 1_556 S
Eu249 O268 2.394 1_455 S
C250 C248 1.500 . S
C250 C251 1.377 . S
C250 C255 1.377 . S
C251 C250 1.377 . S
C251 C252 1.395 . S
C251 H274 0.931 1_655 S
C252 C251 1.395 . S
C252 C253 1.383 . S
C252 H275 0.931 . S
C253 C252 1.383 . S
C253 C254 1.394 . S
C254 C253 1.394 . S
C254 C255 1.378 . S
C254 H276 0.931 . S
C255 C250 1.377 . S
C255 C254 1.378 . S
C255 H277 0.931 . S
C256 O266 1.259 1_554 S
C256 O267 1.270 . S
C257 O268 1.281 . S
C257 O269 1.203 1_556 S
O258 C238 1.257 . S
O258 Eu239 2.473 1_455 S
O259 C238 1.260 1_655 S
O259 Eu239 2.480 . S
O260 Eu239 2.430 . S
O260 C246 1.259 . S
O261 Eu239 2.670 . S
O261 C246 1.270 . S
O261 Eu249 2.355 1_654 S
O262 Eu239 2.394 1_455 S
O262 C247 1.251 . S
O263 C247 1.251 . S
O263 Eu249 2.374 1_554 S
O264 C248 1.257 . S
O264 Eu249 2.473 1_655 S
O265 C248 1.260 1_455 S
O265 Eu249 2.480 . S
O266 Eu249 2.430 . S
O266 C256 1.259 1_556 S
O267 Eu239 2.355 1_455 S
O267 Eu249 2.670 1_554 S
O267 C256 1.270 . S
O268 Eu249 2.394 1_655 S
O268 C257 1.281 . S
O269 Eu239 2.374 . S
O269 C257 1.203 1_554 S
H270 C241 0.931 1_655 S
H271 C242 0.931 . S
H272 C244 0.931 . S
H273 C245 0.931 . S
H274 C251 0.931 1_455 S
H275 C252 0.931 . S
H276 C254 0.931 . S
H277 C255 0.931 . S
C278 Eu279 2.835 . S
C278 C280 1.500 . S
C278 O298 1.257 . S
C278 O299 1.260 . S
Eu279 C278 2.835 . S
Eu279 O298 2.473 . S
Eu279 O299 2.480 . S
Eu279 O300 2.430 . S
Eu279 O301 2.670 1_556 S
Eu279 O302 2.394 . S
Eu279 O307 2.355 . S
Eu279 O309 2.374 . S
C280 C278 1.500 . S
C280 C281 1.377 . S
C280 C285 1.377 . S
C281 C280 1.377 . S
C281 C282 1.395 . S
C281 H310 0.931 . S
C282 C281 1.395 . S
C282 C283 1.383 . S
C282 H311 0.931 . S
C283 C282 1.383 . S
C283 C284 1.394 . S
C284 C283 1.394 . S
C284 C285 1.378 . S
C284 H312 0.931 . S
C285 C280 1.377 . S
C285 C284 1.378 . S
C285 H313 0.931 . S
C286 O300 1.259 1_554 S
C286 O301 1.270 . S
C287 O302 1.251 . S
C287 O303 1.251 1_556 S
C288 Eu289 2.835 . S
C288 C290 1.500 . S
C288 O304 1.257 . S
C288 O305 1.260 . S
Eu289 C288 2.835 . S
Eu289 O301 2.355 . S
Eu289 O303 2.374 . S
Eu289 O304 2.473 . S
Eu289 O305 2.480 . S
Eu289 O306 2.430 . S
Eu289 O307 2.670 1_554 S
Eu289 O308 2.394 . S
C290 C288 1.500 . S
C290 C291 1.377 . S
C290 C295 1.377 . S
C291 C290 1.377 . S
C291 C292 1.395 . S
C291 H314 0.931 . S
C292 C291 1.395 . S
C292 C293 1.383 . S
C292 H315 0.931 . S
C293 C292 1.383 . S
C293 C294 1.394 . S
C294 C293 1.394 . S
C294 C295 1.378 . S
C294 H316 0.931 . S
C295 C290 1.377 . S
C295 C294 1.378 . S
C295 H317 0.931 . S
C296 O306 1.259 . S
C296 O307 1.270 1_554 S
C297 O308 1.251 . S
C297 O309 1.251 1_554 S
O298 C278 1.257 . S
O298 Eu279 2.473 . S
O299 C278 1.260 . S
O299 Eu279 2.480 . S
O300 Eu279 2.430 . S
O300 C286 1.259 1_556 S
O301 Eu279 2.670 1_554 S
O301 C286 1.270 . S
O301 Eu289 2.355 . S
O302 Eu279 2.394 . S
O302 C287 1.251 . S
O303 C287 1.251 1_554 S
O303 Eu289 2.374 . S
O304 C288 1.257 . S
O304 Eu289 2.473 . S
O305 C288 1.260 . S
O305 Eu289 2.480 . S
O306 Eu289 2.430 . S
O306 C296 1.259 . S
O307 Eu279 2.355 . S
O307 Eu289 2.670 1_556 S
O307 C296 1.270 1_556 S
O308 Eu289 2.394 . S
O308 C297 1.251 . S
O309 Eu279 2.374 . S
O309 C297 1.251 1_556 S
H310 C281 0.931 . S
H311 C282 0.931 . S
H312 C284 0.931 . S
H313 C285 0.931 . S
H314 C291 0.931 . S
H315 C292 0.931 . S
H316 C294 0.931 . S
H317 C295 0.931 . S
C318 Eu319 2.835 . S
C318 C320 1.500 . S
C318 O338 1.257 . S
C318 O339 1.260 . S
Eu319 C318 2.835 . S
Eu319 O338 2.473 . S
Eu319 O339 2.480 . S
Eu319 O340 2.430 . S
Eu319 O341 2.670 . S
Eu319 O342 2.394 . S
Eu319 O347 2.355 . S
Eu319 O349 2.374 . S
C320 C318 1.500 . S
C320 C321 1.377 . S
C320 C325 1.377 . S
C321 C320 1.377 . S
C321 C322 1.395 . S
C321 H350 0.931 . S
C322 C321 1.395 . S
C322 C323 1.383 . S
C322 H351 0.931 . S
C323 C322 1.383 . S
C323 C324 1.394 . S
C324 C323 1.394 . S
C324 C325 1.378 . S
C324 H352 0.931 . S
C325 C320 1.377 . S
C325 C324 1.378 . S
C325 H353 0.931 . S
C326 O340 1.259 . S
C326 O341 1.270 . S
C327 O342 1.251 . S
C327 O343 1.251 . S
C328 Eu329 2.835 . S
C328 C330 1.500 . S
C328 O344 1.257 . S
C328 O345 1.260 . S
Eu329 C328 2.835 . S
Eu329 O341 2.355 . S
Eu329 O343 2.374 . S
Eu329 O344 2.473 . S
Eu329 O345 2.480 . S
Eu329 O346 2.430 . S
Eu329 O347 2.670 . S
Eu329 O348 2.394 . S
C330 C328 1.500 . S
C330 C331 1.377 . S
C330 C335 1.377 . S
C331 C330 1.377 . S
C331 C332 1.395 . S
C331 H354 0.931 . S
C332 C331 1.395 . S
C332 C333 1.383 . S
C332 H355 0.931 . S
C333 C332 1.383 . S
C333 C334 1.394 . S
C334 C333 1.394 . S
C334 C335 1.378 . S
C334 H356 0.931 . S
C335 C330 1.377 . S
C335 C334 1.378 . S
C335 H357 0.931 . S
C336 O346 1.259 . S
C336 O347 1.270 . S
C337 O348 1.251 . S
C337 O349 1.251 . S
O338 C318 1.257 . S
O338 Eu319 2.473 . S
O339 C318 1.260 . S
O339 Eu319 2.480 . S
O340 Eu319 2.430 . S
O340 C326 1.259 . S
O341 Eu319 2.670 . S
O341 C326 1.270 . S
O341 Eu329 2.355 . S
O342 Eu319 2.394 . S
O342 C327 1.251 . S
O343 C327 1.251 . S
O343 Eu329 2.374 . S
O344 C328 1.257 . S
O344 Eu329 2.473 . S
O345 C328 1.260 . S
O345 Eu329 2.480 . S
O346 Eu329 2.430 . S
O346 C336 1.259 . S
O347 Eu319 2.355 . S
O347 Eu329 2.670 . S
O347 C336 1.270 . S
O348 Eu329 2.394 . S
O348 C337 1.251 . S
O349 Eu319 2.374 . S
O349 C337 1.251 . S
H350 C321 0.931 . S
H351 C322 0.931 . S
H352 C324 0.931 . S
H353 C325 0.931 . S
H354 C331 0.931 . S
H355 C332 0.931 . S
H356 C334 0.931 . S
H357 C335 0.931 . S
C358 Eu359 2.835 . S
C358 C360 1.500 . S
C358 O378 1.257 . S
C358 O379 1.260 . S
Eu359 C358 2.835 . S
Eu359 O378 2.473 . S
Eu359 O379 2.480 . S
Eu359 O380 2.430 . S
Eu359 O381 2.670 . S
Eu359 O382 2.394 . S
Eu359 O387 2.355 . S
Eu359 O389 2.374 . S
C360 C358 1.500 . S
C360 C361 1.377 . S
C360 C365 1.377 . S
C361 C360 1.377 . S
C361 C362 1.395 . S
C361 H390 0.931 . S
C362 C361 1.395 . S
C362 C363 1.383 . S
C362 H391 0.931 . S
C363 C362 1.383 . S
C363 C364 1.394 . S
C364 C363 1.394 . S
C364 C365 1.378 . S
C364 H392 0.931 . S
C365 C360 1.377 . S
C365 C364 1.378 . S
C365 H393 0.931 . S
C366 O380 1.259 . S
C366 O381 1.270 . S
C367 O382 1.251 . S
C367 O383 1.251 . S
C368 Eu369 2.835 . S
C368 C370 1.500 . S
C368 O384 1.257 . S
C368 O385 1.260 . S
Eu369 C368 2.835 . S
Eu369 O381 2.355 . S
Eu369 O383 2.374 . S
Eu369 O384 2.473 . S
Eu369 O385 2.480 . S
Eu369 O386 2.430 . S
Eu369 O387 2.670 . S
Eu369 O388 2.394 . S
C370 C368 1.500 . S
C370 C371 1.377 . S
C370 C375 1.377 . S
C371 C370 1.377 . S
C371 C372 1.395 . S
C371 H394 0.931 . S
C372 C371 1.395 . S
C372 C373 1.383 . S
C372 H395 0.931 . S
C373 C372 1.383 . S
C373 C374 1.394 . S
C374 C373 1.394 . S
C374 C375 1.378 . S
C374 H396 0.931 . S
C375 C370 1.377 . S
C375 C374 1.378 . S
C375 H397 0.931 . S
C376 O386 1.259 . S
C376 O387 1.270 . S
C377 O388 1.251 . S
C377 O389 1.251 . S
O378 C358 1.257 . S
O378 Eu359 2.473 . S
O379 C358 1.260 . S
O379 Eu359 2.480 . S
O380 Eu359 2.430 . S
O380 C366 1.259 . S
O381 Eu359 2.670 . S
O381 C366 1.270 . S
O381 Eu369 2.355 . S
O382 Eu359 2.394 . S
O382 C367 1.251 . S
O383 C367 1.251 . S
O383 Eu369 2.374 . S
O384 C368 1.257 . S
O384 Eu369 2.473 . S
O385 C368 1.260 . S
O385 Eu369 2.480 . S
O386 Eu369 2.430 . S
O386 C376 1.259 . S
O387 Eu359 2.355 . S
O387 Eu369 2.670 . S
O387 C376 1.270 . S
O388 Eu369 2.394 . S
O388 C377 1.251 . S
O389 Eu359 2.374 . S
O389 C377 1.251 . S
H390 C361 0.931 . S
H391 C362 0.931 . S
H392 C364 0.931 . S
H393 C365 0.931 . S
H394 C371 0.931 . S
H395 C372 0.931 . S
H396 C374 0.931 . S
H397 C375 0.931 . S
C398 Eu399 2.835 . S
C398 C400 1.500 . S
C398 O418 1.257 . S
C398 O419 1.260 . S
Eu399 C398 2.835 . S
Eu399 O418 2.473 . S
Eu399 O419 2.480 . S
Eu399 O420 2.430 . S
Eu399 O421 2.670 . S
Eu399 O422 2.394 . S
Eu399 O427 2.355 . S
Eu399 O429 2.374 . S
C400 C398 1.500 . S
C400 C401 1.377 . S
C400 C405 1.377 . S
C401 C400 1.377 . S
C401 C402 1.395 . S
C401 H430 0.931 . S
C402 C401 1.395 . S
C402 C403 1.383 . S
C402 H431 0.931 . S
C403 C402 1.383 . S
C403 C404 1.394 . S
C404 C403 1.394 . S
C404 C405 1.378 . S
C404 H432 0.931 . S
C405 C400 1.377 . S
C405 C404 1.378 . S
C405 H433 0.931 . S
C406 O420 1.259 . S
C406 O421 1.270 . S
C407 O422 1.251 . S
C407 O423 1.251 . S
C408 Eu409 2.835 . S
C408 C410 1.500 . S
C408 O424 1.257 . S
C408 O425 1.260 . S
Eu409 C408 2.835 . S
Eu409 O421 2.355 . S
Eu409 O423 2.374 . S
Eu409 O424 2.473 . S
Eu409 O425 2.480 . S
Eu409 O426 2.430 . S
Eu409 O427 2.670 . S
Eu409 O428 2.394 . S
C410 C408 1.500 . S
C410 C411 1.377 . S
C410 C415 1.377 . S
C411 C410 1.377 . S
C411 C412 1.395 . S
C411 H434 0.931 . S
C412 C411 1.395 . S
C412 C413 1.383 . S
C412 H435 0.931 . S
C413 C412 1.383 . S
C413 C414 1.394 . S
C414 C413 1.394 . S
C414 C415 1.378 . S
C414 H436 0.931 . S
C415 C410 1.377 . S
C415 C414 1.378 . S
C415 H437 0.931 . S
C416 O426 1.259 . S
C416 O427 1.270 . S
C417 O428 1.251 . S
C417 O429 1.251 . S
O418 C398 1.257 . S
O418 Eu399 2.473 . S
O419 C398 1.260 . S
O419 Eu399 2.480 . S
O420 Eu399 2.430 . S
O420 C406 1.259 . S
O421 Eu399 2.670 . S
O421 C406 1.270 . S
O421 Eu409 2.355 . S
O422 Eu399 2.394 . S
O422 C407 1.251 . S
O423 C407 1.251 . S
O423 Eu409 2.374 . S
O424 C408 1.257 . S
O424 Eu409 2.473 . S
O425 C408 1.260 . S
O425 Eu409 2.480 . S
O426 Eu409 2.430 . S
O426 C416 1.259 . S
O427 Eu399 2.355 . S
O427 Eu409 2.670 . S
O427 C416 1.270 . S
O428 Eu409 2.394 . S
O428 C417 1.251 . S
O429 Eu399 2.374 . S
O429 C417 1.251 . S
H430 C401 0.931 . S
H431 C402 0.931 . S
H432 C404 0.931 . S
H433 C405 0.931 . S
H434 C411 0.931 . S
H435 C412 0.931 . S
H436 C414 0.931 . S
H437 C415 0.931 . S
C438 Eu439 2.835 . S
C438 C440 1.500 . S
C438 O458 1.257 . S
C438 O459 1.260 . S
Eu439 C438 2.835 . S
Eu439 O458 2.473 . S
Eu439 O459 2.480 . S
Eu439 O460 2.430 . S
Eu439 O461 2.670 . S
Eu439 O462 2.394 . S
Eu439 O467 2.355 . S
Eu439 O469 2.374 . S
C440 C438 1.500 . S
C440 C441 1.377 . S
C440 C445 1.377 . S
C441 C440 1.377 . S
C441 C442 1.395 . S
C441 H470 0.931 . S
C442 C441 1.395 . S
C442 C443 1.383 . S
C442 H471 0.931 . S
C443 C442 1.383 . S
C443 C444 1.394 . S
C444 C443 1.394 . S
C444 C445 1.378 . S
C444 H472 0.931 . S
C445 C440 1.377 . S
C445 C444 1.378 . S
C445 H473 0.931 . S
C446 O460 1.259 . S
C446 O461 1.270 . S
C447 O462 1.251 . S
C447 O463 1.251 . S
C448 Eu449 2.835 . S
C448 C450 1.500 . S
C448 O464 1.257 . S
C448 O465 1.260 . S
Eu449 C448 2.835 . S
Eu449 O461 2.355 . S
Eu449 O463 2.374 . S
Eu449 O464 2.473 . S
Eu449 O465 2.480 . S
Eu449 O466 2.430 . S
Eu449 O467 2.670 . S
Eu449 O468 2.394 . S
C450 C448 1.500 . S
C450 C451 1.377 . S
C450 C455 1.377 . S
C451 C450 1.377 . S
C451 C452 1.395 . S
C451 H474 0.931 . S
C452 C451 1.395 . S
C452 C453 1.383 . S
C452 H475 0.931 . S
C453 C452 1.383 . S
C453 C454 1.394 . S
C454 C453 1.394 . S
C454 C455 1.378 . S
C454 H476 0.931 . S
C455 C450 1.377 . S
C455 C454 1.378 . S
C455 H477 0.931 . S
C456 O466 1.259 . S
C456 O467 1.270 . S
C457 O468 1.251 . S
C457 O469 1.251 . S
O458 C438 1.257 . S
O458 Eu439 2.473 . S
O459 C438 1.260 . S
O459 Eu439 2.480 . S
O460 Eu439 2.430 . S
O460 C446 1.259 . S
O461 Eu439 2.670 . S
O461 C446 1.270 . S
O461 Eu449 2.355 . S
O462 Eu439 2.394 . S
O462 C447 1.251 . S
O463 C447 1.251 . S
O463 Eu449 2.374 . S
O464 C448 1.257 . S
O464 Eu449 2.473 . S
O465 C448 1.260 . S
O465 Eu449 2.480 . S
O466 Eu449 2.430 . S
O466 C456 1.259 . S
O467 Eu439 2.355 . S
O467 Eu449 2.670 . S
O467 C456 1.270 . S
O468 Eu449 2.394 . S
O468 C457 1.251 . S
O469 Eu439 2.374 . S
O469 C457 1.251 . S
H470 C441 0.931 . S
H471 C442 0.931 . S
H472 C444 0.931 . S
H473 C445 0.931 . S
H474 C451 0.931 . S
H475 C452 0.931 . S
H476 C454 0.931 . S
H477 C455 0.931 . S
C478 Eu479 2.835 . S
C478 C480 1.500 . S
C478 O498 1.257 . S
C478 O499 1.260 . S
Eu479 C478 2.835 . S
Eu479 O498 2.473 . S
Eu479 O499 2.480 . S
Eu479 O500 2.430 . S
Eu479 O501 2.670 . S
Eu479 O502 2.394 . S
Eu479 O507 2.355 . S
Eu479 O509 2.374 . S
C480 C478 1.500 . S
C480 C481 1.377 . S
C480 C485 1.377 . S
C481 C480 1.377 . S
C481 C482 1.395 . S
C481 H510 0.931 . S
C482 C481 1.395 . S
C482 C483 1.383 . S
C482 H511 0.931 . S
C483 C482 1.383 . S
C483 C484 1.394 . S
C484 C483 1.394 . S
C484 C485 1.378 . S
C484 H512 0.931 . S
C485 C480 1.377 . S
C485 C484 1.378 . S
C485 H513 0.931 . S
C486 O500 1.259 . S
C486 O501 1.270 . S
C487 O502 1.251 . S
C487 O503 1.251 . S
C488 Eu489 2.835 . S
C488 C490 1.500 . S
C488 O504 1.257 . S
C488 O505 1.260 . S
Eu489 C488 2.835 . S
Eu489 O501 2.355 . S
Eu489 O503 2.374 . S
Eu489 O504 2.473 . S
Eu489 O505 2.480 . S
Eu489 O506 2.430 . S
Eu489 O507 2.670 . S
Eu489 O508 2.394 . S
C490 C488 1.500 . S
C490 C491 1.377 . S
C490 C495 1.377 . S
C491 C490 1.377 . S
C491 C492 1.395 . S
C491 H514 0.931 . S
C492 C491 1.395 . S
C492 C493 1.383 . S
C492 H515 0.931 . S
C493 C492 1.383 . S
C493 C494 1.394 . S
C494 C493 1.394 . S
C494 C495 1.378 . S
C494 H516 0.931 . S
C495 C490 1.377 . S
C495 C494 1.378 . S
C495 H517 0.931 . S
C496 O506 1.259 . S
C496 O507 1.270 . S
C497 O508 1.251 . S
C497 O509 1.251 . S
O498 C478 1.257 . S
O498 Eu479 2.473 . S
O499 C478 1.260 . S
O499 Eu479 2.480 . S
O500 Eu479 2.430 . S
O500 C486 1.259 . S
O501 Eu479 2.670 . S
O501 C486 1.270 . S
O501 Eu489 2.355 . S
O502 Eu479 2.394 . S
O502 C487 1.251 . S
O503 C487 1.251 . S
O503 Eu489 2.374 . S
O504 C488 1.257 . S
O504 Eu489 2.473 . S
O505 C488 1.260 . S
O505 Eu489 2.480 . S
O506 Eu489 2.430 . S
O506 C496 1.259 . S
O507 Eu479 2.355 . S
O507 Eu489 2.670 . S
O507 C496 1.270 . S
O508 Eu489 2.394 . S
O508 C497 1.251 . S
O509 Eu479 2.374 . S
O509 C497 1.251 . S
H510 C481 0.931 . S
H511 C482 0.931 . S
H512 C484 0.931 . S
H513 C485 0.931 . S
H514 C491 0.931 . S
H515 C492 0.931 . S
H516 C494 0.931 . S
H517 C495 0.931 . S
C518 Eu519 2.835 . S
C518 C520 1.500 . S
C518 O538 1.257 . S
C518 O539 1.260 . S
Eu519 C518 2.835 . S
Eu519 O538 2.473 . S
Eu519 O539 2.480 . S
Eu519 O540 2.430 . S
Eu519 O541 2.670 . S
Eu519 O542 2.394 . S
Eu519 O547 2.355 . S
Eu519 O549 2.374 . S
C520 C518 1.500 . S
C520 C521 1.377 . S
C520 C525 1.377 . S
C521 C520 1.377 . S
C521 C522 1.395 . S
C521 H550 0.931 . S
C522 C521 1.395 . S
C522 C523 1.383 . S
C522 H551 0.931 . S
C523 C522 1.383 . S
C523 C524 1.394 . S
C524 C523 1.394 . S
C524 C525 1.378 . S
C524 H552 0.931 . S
C525 C520 1.377 . S
C525 C524 1.378 . S
C525 H553 0.931 . S
C526 O540 1.259 . S
C526 O541 1.270 . S
C527 O542 1.251 . S
C527 O543 1.251 . S
C528 Eu529 2.835 . S
C528 C530 1.500 . S
C528 O544 1.257 . S
C528 O545 1.260 . S
Eu529 C528 2.835 . S
Eu529 O541 2.355 . S
Eu529 O543 2.374 . S
Eu529 O544 2.473 . S
Eu529 O545 2.480 . S
Eu529 O546 2.430 . S
Eu529 O547 2.670 . S
Eu529 O548 2.394 . S
C530 C528 1.500 . S
C530 C531 1.377 . S
C530 C535 1.377 . S
C531 C530 1.377 . S
C531 C532 1.395 . S
C531 H554 0.931 . S
C532 C531 1.395 . S
C532 C533 1.383 . S
C532 H555 0.931 . S
C533 C532 1.383 . S
C533 C534 1.394 . S
C534 C533 1.394 . S
C534 C535 1.378 . S
C534 H556 0.931 . S
C535 C530 1.377 . S
C535 C534 1.378 . S
C535 H557 0.931 . S
C536 O546 1.259 . S
C536 O547 1.270 . S
C537 O548 1.251 . S
C537 O549 1.251 . S
O538 C518 1.257 . S
O538 Eu519 2.473 . S
O539 C518 1.260 . S
O539 Eu519 2.480 . S
O540 Eu519 2.430 . S
O540 C526 1.259 . S
O541 Eu519 2.670 . S
O541 C526 1.270 . S
O541 Eu529 2.355 . S
O542 Eu519 2.394 . S
O542 C527 1.251 . S
O543 C527 1.251 . S
O543 Eu529 2.374 . S
O544 C528 1.257 . S
O544 Eu529 2.473 . S
O545 C528 1.260 . S
O545 Eu529 2.480 . S
O546 Eu529 2.430 . S
O546 C536 1.259 . S
O547 Eu519 2.355 . S
O547 Eu529 2.670 . S
O547 C536 1.270 . S
O548 Eu529 2.394 . S
O548 C537 1.251 . S
O549 Eu519 2.374 . S
O549 C537 1.251 . S
H550 C521 0.931 . S
H551 C522 0.931 . S
H552 C524 0.931 . S
H553 C525 0.931 . S
H554 C531 0.931 . S
H555 C532 0.931 . S
H556 C534 0.931 . S
H557 C535 0.931 . S
H558 C566 0.950 . S
H559 C571 0.950 . S
H560 C568 0.950 . S
H561 C570 0.950 . S
H562 C572 0.950 . S
H563 C574 0.950 . S
H564 C576 0.950 . S
H565 C577 0.950 1_556 S
C566 H558 0.950 . S
C566 C567 1.386 . S
C566 C568 1.391 . S
C567 C566 1.386 . S
C567 C571 1.393 . S
C568 H560 0.950 . S
C568 C566 1.391 . S
C568 C569 1.400 . S
C569 C568 1.400 . S
C569 C570 1.398 . S
C569 C575 1.491 . S
C570 H561 0.950 . S
C570 C569 1.398 . S
C570 C571 1.391 . S
C571 H559 0.950 . S
C571 C567 1.393 . S
C571 C570 1.391 . S
C572 H562 0.950 . S
C572 C573 1.386 . S
C572 C574 1.391 . S
C573 C572 1.386 . S
C573 C577 1.393 . S
C574 H563 0.950 . S
C574 C572 1.391 . S
C574 C575 1.400 . S
C575 C569 1.491 . S
C575 C574 1.400 . S
C575 C576 1.398 . S
C576 H564 0.950 . S
C576 C575 1.398 . S
C576 C577 1.391 . S
C577 H565 0.950 1_554 S
C577 C573 1.393 . S
C577 C576 1.391 . S
H578 C586 0.950 . S
H579 C591 0.950 . S
H580 C588 0.950 . S
H581 C590 0.950 . S
H582 C592 0.950 . S
H583 C594 0.950 . S
H584 C596 0.950 . S
H585 C597 0.950 . S
C586 H578 0.950 . S
C586 C587 1.386 . S
C586 C588 1.391 . S
C587 C586 1.386 . S
C587 C591 1.393 . S
C588 H580 0.950 . S
C588 C586 1.391 . S
C588 C589 1.400 . S
C589 C588 1.400 . S
C589 C590 1.398 . S
C589 C595 1.491 . S
C590 H581 0.950 . S
C590 C589 1.398 . S
C590 C591 1.391 . S
C591 H579 0.950 . S
C591 C587 1.393 . S
C591 C590 1.391 . S
C592 H582 0.950 . S
C592 C593 1.386 . S
C592 C594 1.391 . S
C593 C592 1.386 . S
C593 C597 1.393 . S
C594 H583 0.950 . S
C594 C592 1.391 . S
C594 C595 1.400 . S
C595 C589 1.491 . S
C595 C594 1.400 . S
C595 C596 1.398 . S
C596 H584 0.950 . S
C596 C595 1.398 . S
C596 C597 1.391 . S
C597 H585 0.950 . S
C597 C593 1.393 . S
C597 C596 1.391 . S
H598 C606 0.950 . S
H599 C611 0.950 . S
H600 C608 0.950 . S
H601 C610 0.950 . S
H602 C612 0.950 . S
H603 C614 0.950 . S
H604 C616 0.950 . S
H605 C617 0.950 . S
C606 H598 0.950 . S
C606 C607 1.386 . S
C606 C608 1.391 . S
C607 C606 1.386 . S
C607 C611 1.393 . S
C608 H600 0.950 . S
C608 C606 1.391 . S
C608 C609 1.400 . S
C609 C608 1.400 . S
C609 C610 1.398 . S
C609 C615 1.491 . S
C610 H601 0.950 . S
C610 C609 1.398 . S
C610 C611 1.391 . S
C611 H599 0.950 . S
C611 C607 1.393 . S
C611 C610 1.391 . S
C612 H602 0.950 . S
C612 C613 1.386 . S
C612 C614 1.391 . S
C613 C612 1.386 . S
C613 C617 1.393 . S
C614 H603 0.950 . S
C614 C612 1.391 . S
C614 C615 1.400 . S
C615 C609 1.491 . S
C615 C614 1.400 . S
C615 C616 1.398 . S
C616 H604 0.950 . S
C616 C615 1.398 . S
C616 C617 1.391 . S
C617 H605 0.950 . S
C617 C613 1.393 . S
C617 C616 1.391 . S
H618 C626 0.950 . S
H619 C631 0.950 . S
H620 C628 0.950 . S
H621 C630 0.950 . S
H622 C632 0.950 . S
H623 C634 0.950 . S
H624 C636 0.955 . S
H625 C637 0.950 . S
C626 H618 0.950 . S
C626 C627 1.386 . S
C626 C628 1.391 . S
C627 C626 1.386 . S
C627 C631 1.393 . S
C628 H620 0.950 . S
C628 C626 1.391 . S
C628 C629 1.400 . S
C629 C628 1.400 . S
C629 C630 1.398 . S
C629 C635 1.491 . S
C630 H621 0.950 . S
C630 C629 1.398 . S
C630 C631 1.391 . S
C631 H619 0.950 . S
C631 C627 1.393 . S
C631 C630 1.391 . S
C632 H622 0.950 . S
C632 C633 1.386 . S
C632 C634 1.391 . S
C633 C632 1.386 . S
C633 C637 1.393 1_556 S
C634 H623 0.950 . S
C634 C632 1.391 . S
C634 C635 1.400 . S
C635 C629 1.491 . S
C635 C634 1.400 . S
C635 C636 1.398 . S
C636 H624 0.955 . S
C636 C635 1.398 . S
C636 C637 1.391 1_556 S
C637 H625 0.950 . S
C637 C633 1.393 1_554 S
C637 C636 1.391 1_554 S
H638 C646 0.950 . S
H639 C651 0.950 . S
H640 C648 0.950 . S
H641 C650 0.950 . S
H642 C652 0.889 1_554 S
H643 C654 0.950 1_554 S
H644 C656 0.950 . S
H645 C657 0.950 . S
C646 H638 0.950 . S
C646 C647 1.386 . S
C646 C648 1.391 . S
C647 C646 1.386 . S
C647 C651 1.393 . S
C648 H640 0.950 . S
C648 C646 1.391 . S
C648 C649 1.400 . S
C649 C648 1.400 . S
C649 C650 1.398 . S
C649 C655 1.491 . S
C650 H641 0.950 . S
C650 C649 1.398 . S
C650 C651 1.391 . S
C651 H639 0.950 . S
C651 C647 1.393 . S
C651 C650 1.391 . S
C652 H642 0.889 1_556 S
C652 C653 1.423 . S
C652 C654 1.416 . S
C653 C652 1.423 . S
C653 C657 1.393 . S
C654 H643 0.950 1_556 S
C654 C652 1.416 . S
C654 C655 1.400 . S
C655 C649 1.491 . S
C655 C654 1.400 . S
C655 C656 1.398 . S
C656 H644 0.950 . S
C656 C655 1.398 . S
C656 C657 1.391 . S
C657 H645 0.950 . S
C657 C653 1.393 . S
C657 C656 1.391 . S
H658 C666 0.950 . S
H659 C671 0.950 . S
H660 C668 0.950 . S
H661 C670 0.950 . S
H662 C672 0.950 . S
H663 C674 0.950 . S
H664 C676 0.950 . S
H665 C677 0.950 . S
C666 H658 0.950 . S
C666 C667 1.386 . S
C666 C668 1.391 . S
C667 C666 1.386 . S
C667 C671 1.393 1_556 S
C668 H660 0.950 . S
C668 C666 1.391 . S
C668 C669 1.400 . S
C669 C668 1.400 . S
C669 C670 1.398 1_556 S
C669 C675 1.491 . S
C670 H661 0.950 . S
C670 C669 1.398 1_554 S
C670 C671 1.391 . S
C671 H659 0.950 . S
C671 C667 1.393 1_554 S
C671 C670 1.391 . S
C672 H662 0.950 . S
C672 C673 1.386 . S
C672 C674 1.391 . S
C673 C672 1.386 . S
C673 C677 1.393 1_554 S
C674 H663 0.950 . S
C674 C672 1.391 . S
C674 C675 1.400 1_554 S
C675 C669 1.491 . S
C675 C674 1.400 1_556 S
C675 C676 1.398 . S
C676 H664 0.950 . S
C676 C675 1.398 . S
C676 C677 1.391 . S
C677 H665 0.950 . S
C677 C673 1.393 1_556 S
C677 C676 1.391 . S
H678 C686 0.950 . S
H679 C691 0.950 . S
H680 C688 0.950 . S
H681 C690 0.950 . S
H682 C692 0.950 1_554 S
H683 C694 0.950 . S
H684 C696 0.950 . S
H685 C697 0.950 . S
C686 H678 0.950 . S
C686 C687 1.386 . S
C686 C688 1.391 . S
C687 C686 1.386 . S
C687 C691 1.393 . S
C688 H680 0.950 . S
C688 C686 1.391 . S
C688 C689 1.400 . S
C689 C688 1.400 . S
C689 C690 1.398 . S
C689 C695 1.491 . S
C690 H681 0.950 . S
C690 C689 1.398 . S
C690 C691 1.391 . S
C691 H679 0.950 . S
C691 C687 1.393 . S
C691 C690 1.391 . S
C692 H682 0.950 1_556 S
C692 C693 1.386 . S
C692 C694 1.391 . S
C693 C692 1.386 . S
C693 C697 1.393 . S
C694 H683 0.950 . S
C694 C692 1.391 . S
C694 C695 1.400 . S
C695 C689 1.491 . S
C695 C694 1.400 . S
C695 C696 1.398 . S
C696 H684 0.950 . S
C696 C695 1.398 . S
C696 C697 1.391 . S
C697 H685 0.950 . S
C697 C693 1.393 . S
C697 C696 1.391 . S
H698 C706 0.950 . S
H699 C711 0.950 . S
H700 C708 0.950 1_554 S
H701 C710 0.950 . S
H702 C712 0.950 . S
H703 C714 0.950 . S
H704 C716 0.985 . S
H705 C717 0.950 . S
C706 H698 0.950 . S
C706 C707 1.386 . S
C706 C708 1.391 . S
C707 C706 1.386 . S
C707 C711 1.393 . S
C708 H700 0.950 1_556 S
C708 C706 1.391 . S
C708 C709 1.400 . S
C709 C708 1.400 . S
C709 C710 1.398 . S
C709 C715 1.491 . S
C710 H701 0.950 . S
C710 C709 1.398 . S
C710 C711 1.391 . S
C711 H699 0.950 . S
C711 C707 1.393 . S
C711 C710 1.391 . S
C712 H702 0.950 . S
C712 C713 1.386 . S
C712 C714 1.391 . S
C713 C712 1.386 . S
C713 C717 1.393 1_556 S
C714 H703 0.950 . S
C714 C712 1.391 . S
C714 C715 1.400 . S
C715 C709 1.491 . S
C715 C714 1.400 . S
C715 C716 1.354 1_556 S
C716 H704 0.985 . S
C716 C715 1.354 1_554 S
C716 C717 1.403 . S
C717 H705 0.950 . S
C717 C713 1.393 1_554 S
C717 C716 1.403 . S
H718 C726 0.950 1_554 S
H719 C731 0.950 . S
H720 C728 0.950 1_554 S
H721 C730 0.950 . S
H722 C732 0.950 . S
H723 C734 0.950 . S
H724 C736 0.950 . S
H725 C737 0.950 . S
C726 H718 0.950 1_556 S
C726 C727 1.386 . S
C726 C728 1.391 . S
C727 C726 1.386 . S
C727 C731 1.393 . S
C728 H720 0.950 1_556 S
C728 C726 1.391 . S
C728 C729 1.400 . S
C729 C728 1.400 . S
C729 C730 1.398 . S
C729 C735 1.491 . S
C730 H721 0.950 . S
C730 C729 1.398 . S
C730 C731 1.391 . S
C731 H719 0.950 . S
C731 C727 1.393 . S
C731 C730 1.391 . S
C732 H722 0.950 . S
C732 C733 1.386 . S
C732 C734 1.391 . S
C733 C732 1.386 . S
C733 C737 1.393 1_556 S
C734 H723 0.950 . S
C734 C732 1.391 . S
C734 C735 1.400 . S
C735 C729 1.491 . S
C735 C734 1.400 . S
C735 C736 1.398 1_556 S
C736 H724 0.950 . S
C736 C735 1.398 1_554 S
C736 C737 1.391 . S
C737 H725 0.950 . S
C737 C733 1.393 1_554 S
C737 C736 1.391 . S
H738 C746 0.950 . S
H739 C751 0.950 . S
H740 C748 0.950 . S
H741 C750 0.950 . S
H742 C752 0.950 . S
H743 C754 0.950 . S
H744 C756 0.950 . S
H745 C757 0.950 . S
C746 H738 0.950 . S
C746 C747 1.386 . S
C746 C748 1.391 . S
C747 C746 1.386 . S
C747 C751 1.393 . S
C748 H740 0.950 . S
C748 C746 1.391 . S
C748 C749 1.400 . S
C749 C748 1.400 . S
C749 C750 1.398 . S
C749 C755 1.491 . S
C750 H741 0.950 . S
C750 C749 1.398 . S
C750 C751 1.391 . S
C751 H739 0.950 . S
C751 C747 1.393 . S
C751 C750 1.391 . S
C752 H742 0.950 . S
C752 C753 1.386 . S
C752 C754 1.391 . S
C753 C752 1.386 . S
C753 C757 1.393 . S
C754 H743 0.950 . S
C754 C752 1.391 . S
C754 C755 1.400 . S
C755 C749 1.491 . S
C755 C754 1.400 . S
C755 C756 1.398 . S
C756 H744 0.950 . S
C756 C755 1.398 . S
C756 C757 1.391 . S
C757 H745 0.950 . S
C757 C753 1.393 . S
C757 C756 1.391 . S
H758 C766 0.950 . S
H759 C771 0.950 . S
H760 C768 0.950 . S
H761 C770 0.950 . S
H762 C772 0.950 . S
H763 C774 0.950 . S
H764 C776 0.950 . S
H765 C777 0.950 . S
C766 H758 0.950 . S
C766 C767 1.386 . S
C766 C768 1.391 . S
C767 C766 1.386 . S
C767 C771 1.393 . S
C768 H760 0.950 . S
C768 C766 1.391 . S
C768 C769 1.400 . S
C769 C768 1.400 . S
C769 C770 1.398 . S
C769 C775 1.491 . S
C770 H761 0.950 . S
C770 C769 1.398 . S
C770 C771 1.391 . S
C771 H759 0.950 . S
C771 C767 1.393 . S
C771 C770 1.391 . S
C772 H762 0.950 . S
C772 C773 1.386 . S
C772 C774 1.391 . S
C773 C772 1.386 . S
C773 C777 1.393 . S
C774 H763 0.950 . S
C774 C772 1.391 . S
C774 C775 1.400 . S
C775 C769 1.491 . S
C775 C774 1.400 . S
C775 C776 1.398 . S
C776 H764 0.950 . S
C776 C775 1.398 . S
C776 C777 1.391 . S
C777 H765 0.950 . S
C777 C773 1.393 . S
C777 C776 1.391 . S
H778 C786 0.950 . S
H779 C791 0.950 . S
H780 C788 0.948 1_556 S
H781 C790 0.950 . S
H782 C792 0.950 . S
H783 C794 0.950 . S
H784 C796 0.950 1_556 S
H785 C797 0.968 . S
C786 H778 0.950 . S
C786 C787 1.386 . S
C786 C788 1.391 . S
C787 C786 1.386 . S
C787 C791 1.393 . S
C788 H780 0.948 1_554 S
C788 C786 1.391 . S
C788 C789 1.400 . S
C789 C788 1.400 . S
C789 C790 1.398 . S
C789 C795 1.491 . S
C790 H781 0.950 . S
C790 C789 1.398 . S
C790 C791 1.391 . S
C791 H779 0.950 . S
C791 C787 1.393 . S
C791 C790 1.391 . S
C792 H782 0.950 . S
C792 C793 1.386 . S
C792 C794 1.391 . S
C793 C792 1.386 . S
C793 C797 1.380 1_554 S
C794 H783 0.950 . S
C794 C792 1.391 . S
C794 C795 1.400 . S
C795 C789 1.491 . S
C795 C794 1.400 . S
C795 C796 1.398 . S
C796 H784 0.950 1_554 S
C796 C795 1.398 . S
C796 C797 1.386 1_554 S
C797 H785 0.968 . S
C797 C793 1.380 1_556 S
C797 C796 1.386 1_556 S
H798 C806 0.950 . S
H799 C811 0.950 . S
H800 C808 0.950 . S
H801 C810 0.950 1_455 S
H802 C812 0.950 . S
H803 C814 0.950 . S
H804 C816 0.950 . S
H805 C817 0.950 . S
C806 H798 0.950 . S
C806 C807 1.386 . S
C806 C808 1.391 1_655 S
C807 C806 1.386 . S
C807 C811 1.393 . S
C808 H800 0.950 . S
C808 C806 1.391 1_455 S
C808 C809 1.400 . S
C809 C808 1.400 . S
C809 C810 1.398 1_455 S
C809 C815 1.491 . S
C810 H801 0.950 1_655 S
C810 C809 1.398 1_655 S
C810 C811 1.391 . S
C811 H799 0.950 . S
C811 C807 1.393 . S
C811 C810 1.391 . S
C812 H802 0.950 . S
C812 C813 1.386 . S
C812 C814 1.391 . S
C813 C812 1.386 . S
C813 C817 1.393 . S
C814 H803 0.950 . S
C814 C812 1.391 . S
C814 C815 1.400 . S
C815 C809 1.491 . S
C815 C814 1.400 . S
C815 C816 1.398 . S
C816 H804 0.950 . S
C816 C815 1.398 . S
C816 C817 1.391 . S
C817 H805 0.950 . S
C817 C813 1.393 . S
C817 C816 1.391 . S
H818 C826 0.950 . S
H819 C831 0.950 . S
H820 C828 0.950 . S
H821 C830 0.950 . S
H822 C832 0.950 . S
H823 C834 0.950 . S
H824 C836 0.950 . S
H825 C837 0.950 . S
C826 H818 0.950 . S
C826 C827 1.386 . S
C826 C828 1.391 . S
C827 C826 1.386 . S
C827 C831 1.393 . S
C828 H820 0.950 . S
C828 C826 1.391 . S
C828 C829 1.400 . S
C829 C828 1.400 . S
C829 C830 1.398 . S
C829 C835 1.491 . S
C830 H821 0.950 . S
C830 C829 1.398 . S
C830 C831 1.391 . S
C831 H819 0.950 . S
C831 C827 1.393 . S
C831 C830 1.391 . S
C832 H822 0.950 . S
C832 C833 1.386 . S
C832 C834 1.391 . S
C833 C832 1.386 . S
C833 C837 1.393 . S
C834 H823 0.950 . S
C834 C832 1.391 . S
C834 C835 1.400 . S
C835 C829 1.491 . S
C835 C834 1.400 . S
C835 C836 1.398 . S
C836 H824 0.950 . S
C836 C835 1.398 . S
C836 C837 1.391 . S
C837 H825 0.950 . S
C837 C833 1.393 . S
C837 C836 1.391 . S
H838 C846 0.950 . S
H839 C851 0.950 . S
H840 C848 0.950 . S
H841 C850 0.950 . S
H842 C852 0.950 . S
H843 C854 0.950 . S
H844 C856 0.950 . S
H845 C857 0.950 . S
C846 H838 0.950 . S
C846 C847 1.386 . S
C846 C848 1.391 . S
C847 C846 1.386 . S
C847 C851 1.393 . S
C848 H840 0.950 . S
C848 C846 1.391 . S
C848 C849 1.400 . S
C849 C848 1.400 . S
C849 C850 1.398 . S
C849 C855 1.491 1_545 S
C850 H841 0.950 . S
C850 C849 1.398 . S
C850 C851 1.391 . S
C851 H839 0.950 . S
C851 C847 1.393 . S
C851 C850 1.391 . S
C852 H842 0.950 . S
C852 C853 1.386 . S
C852 C854 1.391 . S
C853 C852 1.386 . S
C853 C857 1.393 . S
C854 H843 0.950 . S
C854 C852 1.391 . S
C854 C855 1.400 . S
C855 C849 1.491 1_565 S
C855 C854 1.400 . S
C855 C856 1.398 . S
C856 H844 0.950 . S
C856 C855 1.398 . S
C856 C857 1.391 . S
C857 H845 0.950 . S
C857 C853 1.393 . S
C857 C856 1.391 . S
H858 C866 0.950 . S
H859 C871 0.950 . S
H860 C868 0.950 . S
H861 C870 0.950 . S
H862 C872 0.950 . S
H863 C874 0.950 . S
H864 C876 0.950 . S
H865 C877 0.950 . S
C866 H858 0.950 . S
C866 C867 1.386 . S
C866 C868 1.391 . S
C867 C866 1.386 . S
C867 C871 1.393 . S
C868 H860 0.950 . S
C868 C866 1.391 . S
C868 C869 1.400 . S
C869 C868 1.400 . S
C869 C870 1.398 . S
C869 C875 1.491 . S
C870 H861 0.950 . S
C870 C869 1.398 . S
C870 C871 1.391 . S
C871 H859 0.950 . S
C871 C867 1.393 . S
C871 C870 1.391 . S
C872 H862 0.950 . S
C872 C873 1.386 . S
C872 C874 1.391 . S
C873 C872 1.386 . S
C873 C877 1.393 . S
C874 H863 0.950 . S
C874 C872 1.391 . S
C874 C875 1.400 . S
C875 C869 1.491 . S
C875 C874 1.400 . S
C875 C876 1.398 . S
C876 H864 0.950 . S
C876 C875 1.398 . S
C876 C877 1.391 . S
C877 H865 0.950 . S
C877 C873 1.393 . S
C877 C876 1.391 . S
H878 C886 0.950 . S
H879 C891 0.950 . S
H880 C888 0.950 . S
H881 C890 0.950 . S
H882 C892 0.950 . S
H883 C894 0.950 . S
H884 C896 0.950 . S
H885 C897 0.950 . S
C886 H878 0.950 . S
C886 C887 1.386 . S
C886 C888 1.391 . S
C887 C886 1.386 . S
C887 C891 1.393 . S
C888 H880 0.950 . S
C888 C886 1.391 . S
C888 C889 1.400 . S
C889 C888 1.400 . S
C889 C890 1.398 . S
C889 C895 1.491 . S
C890 H881 0.950 . S
C890 C889 1.398 . S
C890 C891 1.391 . S
C891 H879 0.950 . S
C891 C887 1.393 . S
C891 C890 1.391 . S
C892 H882 0.950 . S
C892 C893 1.386 . S
C892 C894 1.391 . S
C893 C892 1.386 . S
C893 C897 1.393 . S
C894 H883 0.950 . S
C894 C892 1.391 . S
C894 C895 1.400 . S
C895 C889 1.491 . S
C895 C894 1.400 . S
C895 C896 1.398 . S
C896 H884 0.950 . S
C896 C895 1.398 . S
C896 C897 1.391 . S
C897 H885 0.950 . S
C897 C893 1.393 . S
C897 C896 1.391 . S
H898 C906 0.950 . S
H899 C911 0.950 . S
H900 C908 0.950 . S
H901 C910 0.950 . S
H902 C912 0.950 . S
H903 C914 0.950 . S
H904 C916 0.950 . S
H905 C917 0.950 . S
C906 H898 0.950 . S
C906 C907 1.386 . S
C906 C908 1.391 . S
C907 C906 1.386 . S
C907 C911 1.393 . S
C908 H900 0.950 . S
C908 C906 1.391 . S
C908 C909 1.400 . S
C909 C908 1.400 . S
C909 C910 1.398 . S
C909 C915 1.491 . S
C910 H901 0.950 . S
C910 C909 1.398 . S
C910 C911 1.391 . S
C911 H899 0.950 . S
C911 C907 1.393 . S
C911 C910 1.391 . S
C912 H902 0.950 . S
C912 C913 1.386 . S
C912 C914 1.391 . S
C913 C912 1.386 . S
C913 C917 1.393 . S
C914 H903 0.950 . S
C914 C912 1.391 . S
C914 C915 1.400 . S
C915 C909 1.491 . S
C915 C914 1.400 . S
C915 C916 1.398 . S
C916 H904 0.950 . S
C916 C915 1.398 . S
C916 C917 1.391 . S
C917 H905 0.950 . S
C917 C913 1.393 . S
C917 C916 1.391 . S
H918 C926 0.950 . S
H919 C931 0.950 . S
H920 C928 0.950 . S
H921 C930 0.950 . S
H922 C932 0.950 . S
H923 C934 0.950 . S
H924 C936 0.950 . S
H925 C937 0.950 . S
C926 H918 0.950 . S
C926 C927 1.386 . S
C926 C928 1.391 . S
C927 C926 1.386 . S
C927 C931 1.393 . S
C928 H920 0.950 . S
C928 C926 1.391 . S
C928 C929 1.400 . S
C929 C928 1.400 . S
C929 C930 1.398 . S
C929 C935 1.491 . S
C930 H921 0.950 . S
C930 C929 1.398 . S
C930 C931 1.391 . S
C931 H919 0.950 . S
C931 C927 1.393 . S
C931 C930 1.391 . S
C932 H922 0.950 . S
C932 C933 1.386 . S
C932 C934 1.391 . S
C933 C932 1.386 . S
C933 C937 1.393 . S
C934 H923 0.950 . S
C934 C932 1.391 . S
C934 C935 1.400 . S
C935 C929 1.491 . S
C935 C934 1.400 . S
C935 C936 1.398 . S
C936 H924 0.950 . S
C936 C935 1.398 . S
C936 C937 1.391 . S
C937 H925 0.950 . S
C937 C933 1.393 . S
C937 C936 1.391 . S
H938 C946 0.950 . S
H939 C951 0.950 . S
H940 C948 0.950 . S
H941 C950 0.950 . S
H942 C952 0.950 . S
H943 C954 0.950 . S
H944 C956 0.950 . S
H945 C957 0.950 . S
C946 H938 0.950 . S
C946 C947 1.386 . S
C946 C948 1.391 . S
C947 C946 1.386 . S
C947 C951 1.393 . S
C948 H940 0.950 . S
C948 C946 1.391 . S
C948 C949 1.400 . S
C949 C948 1.400 . S
C949 C950 1.398 . S
C949 C955 1.491 . S
C950 H941 0.950 . S
C950 C949 1.398 . S
C950 C951 1.391 . S
C951 H939 0.950 . S
C951 C947 1.393 . S
C951 C950 1.391 . S
C952 H942 0.950 . S
C952 C953 1.386 . S
C952 C954 1.391 . S
C953 C952 1.386 . S
C953 C957 1.393 . S
C954 H943 0.950 . S
C954 C952 1.391 . S
C954 C955 1.400 . S
C955 C949 1.491 . S
C955 C954 1.400 . S
C955 C956 1.398 . S
C956 H944 0.950 . S
C956 C955 1.398 . S
C956 C957 1.391 . S
C957 H945 0.950 . S
C957 C953 1.393 . S
C957 C956 1.391 . S
H958 C966 0.950 . S
H959 C971 0.950 . S
H960 C968 0.950 . S
H961 C970 0.950 . S
H962 C972 0.950 . S
H963 C974 0.950 . S
H964 C976 0.950 . S
H965 C977 0.950 . S
C966 H958 0.950 . S
C966 C967 1.386 . S
C966 C968 1.391 . S
C967 C966 1.386 . S
C967 C971 1.393 . S
C968 H960 0.950 . S
C968 C966 1.391 . S
C968 C969 1.400 . S
C969 C968 1.400 . S
C969 C970 1.398 . S
C969 C975 1.491 . S
C970 H961 0.950 . S
C970 C969 1.398 . S
C970 C971 1.391 . S
C971 H959 0.950 . S
C971 C967 1.393 . S
C971 C970 1.391 . S
C972 H962 0.950 . S
C972 C973 1.386 . S
C972 C974 1.391 . S
C973 C972 1.386 . S
C973 C977 1.393 . S
C974 H963 0.950 . S
C974 C972 1.391 . S
C974 C975 1.400 . S
C975 C969 1.491 . S
C975 C974 1.400 . S
C975 C976 1.398 . S
C976 H964 0.950 . S
C976 C975 1.398 . S
C976 C977 1.391 . S
C977 H965 0.950 . S
C977 C973 1.393 . S
C977 C976 1.391 . S
H978 C986 0.950 . S
H979 C991 0.950 . S
H980 C988 0.950 1_565 S
H981 C990 0.950 1_565 S
H982 C992 0.950 . S
H983 C994 0.950 . S
H984 C996 0.950 . S
H985 C997 0.950 . S
C986 H978 0.950 . S
C986 C987 1.386 . S
C986 C988 1.391 . S
C987 C986 1.386 . S
C987 C991 1.393 . S
C988 H980 0.950 1_545 S
C988 C986 1.391 . S
C988 C989 1.400 1_545 S
C989 C988 1.400 1_565 S
C989 C990 1.398 1_565 S
C989 C995 1.491 . S
C990 H981 0.950 1_545 S
C990 C989 1.398 1_545 S
C990 C991 1.391 . S
C991 H979 0.950 . S
C991 C987 1.393 . S
C991 C990 1.391 . S
C992 H982 0.950 . S
C992 C993 1.386 . S
C992 C994 1.391 . S
C993 C992 1.386 . S
C993 C997 1.393 . S
C994 H983 0.950 . S
C994 C992 1.391 . S
C994 C995 1.400 . S
C995 C989 1.491 . S
C995 C994 1.400 . S
C995 C996 1.398 . S
C996 H984 0.950 . S
C996 C995 1.398 . S
C996 C997 1.391 . S
C997 H985 0.950 . S
C997 C993 1.393 . S
C997 C996 1.391 . S
H998 C1006 0.950 . S
H999 C1011 0.950 . S
H1000 C1008 0.950 . S
H1001 C1010 0.950 . S
H1002 C1012 0.950 . S
H1003 C1014 0.950 . S
H1004 C1016 0.950 . S
H1005 C1017 0.950 . S
C1006 H998 0.950 . S
C1006 C1007 1.386 . S
C1006 C1008 1.391 1_655 S
C1007 C1006 1.386 . S
C1007 C1011 1.393 . S
C1008 H1000 0.950 . S
C1008 C1006 1.391 1_455 S
C1008 C1009 1.400 . S
C1009 C1008 1.400 . S
C1009 C1010 1.398 . S
C1009 C1015 1.491 . S
C1010 H1001 0.950 . S
C1010 C1009 1.398 . S
C1010 C1011 1.391 1_455 S
C1011 H999 0.950 . S
C1011 C1007 1.393 . S
C1011 C1010 1.391 1_655 S
C1012 H1002 0.950 . S
C1012 C1013 1.386 . S
C1012 C1014 1.391 . S
C1013 C1012 1.386 . S
C1013 C1017 1.393 . S
C1014 H1003 0.950 . S
C1014 C1012 1.391 . S
C1014 C1015 1.400 . S
C1015 C1009 1.491 . S
C1015 C1014 1.400 . S
C1015 C1016 1.398 . S
C1016 H1004 0.950 . S
C1016 C1015 1.398 . S
C1016 C1017 1.391 . S
C1017 H1005 0.950 . S
C1017 C1013 1.393 . S
C1017 C1016 1.391 . S
H1018 C1026 0.950 . S
H1019 C1031 0.950 . S
H1020 C1028 0.950 . S
H1021 C1030 0.950 . S
H1022 C1032 0.950 . S
H1023 C1034 0.950 . S
H1024 C1036 0.950 . S
H1025 C1037 0.950 . S
C1026 H1018 0.950 . S
C1026 C1027 1.386 . S
C1026 C1028 1.391 . S
C1027 C1026 1.386 . S
C1027 C1031 1.393 . S
C1028 H1020 0.950 . S
C1028 C1026 1.391 . S
C1028 C1029 1.400 . S
C1029 C1028 1.400 . S
C1029 C1030 1.398 . S
C1029 C1035 1.491 . S
C1030 H1021 0.950 . S
C1030 C1029 1.398 . S
C1030 C1031 1.391 . S
C1031 H1019 0.950 . S
C1031 C1027 1.393 . S
C1031 C1030 1.391 . S
C1032 H1022 0.950 . S
C1032 C1033 1.386 . S
C1032 C1034 1.391 . S
C1033 C1032 1.386 . S
C1033 C1037 1.393 . S
C1034 H1023 0.950 . S
C1034 C1032 1.391 . S
C1034 C1035 1.400 . S
C1035 C1029 1.491 . S
C1035 C1034 1.400 . S
C1035 C1036 1.398 . S
C1036 H1024 0.950 . S
C1036 C1035 1.398 . S
C1036 C1037 1.391 . S
C1037 H1025 0.950 . S
C1037 C1033 1.393 . S
C1037 C1036 1.391 . S
H1038 C1046 0.950 . S
H1039 C1051 0.950 . S
H1040 C1048 0.950 . S
H1041 C1050 0.950 . S
H1042 C1052 0.950 . S
H1043 C1054 0.950 . S
H1044 C1056 0.950 . S
H1045 C1057 0.950 . S
C1046 H1038 0.950 . S
C1046 C1047 1.386 . S
C1046 C1048 1.391 . S
C1047 C1046 1.386 . S
C1047 C1051 1.393 . S
C1048 H1040 0.950 . S
C1048 C1046 1.391 . S
C1048 C1049 1.400 . S
C1049 C1048 1.400 . S
C1049 C1050 1.398 . S
C1049 C1055 1.491 . S
C1050 H1041 0.950 . S
C1050 C1049 1.398 . S
C1050 C1051 1.391 . S
C1051 H1039 0.950 . S
C1051 C1047 1.393 . S
C1051 C1050 1.391 . S
C1052 H1042 0.950 . S
C1052 C1053 1.386 . S
C1052 C1054 1.391 . S
C1053 C1052 1.386 . S
C1053 C1057 1.393 . S
C1054 H1043 0.950 . S
C1054 C1052 1.391 . S
C1054 C1055 1.400 . S
C1055 C1049 1.491 . S
C1055 C1054 1.400 . S
C1055 C1056 1.398 . S
C1056 H1044 0.950 . S
C1056 C1055 1.398 . S
C1056 C1057 1.391 . S
C1057 H1045 0.950 . S
C1057 C1053 1.393 . S
C1057 C1056 1.391 . S
H1058 C1066 0.950 . S
H1059 C1071 0.950 . S
H1060 C1068 0.950 . S
H1061 C1070 0.950 . S
H1062 C1072 0.950 . S
H1063 C1074 0.950 . S
H1064 C1076 0.950 . S
H1065 C1077 0.950 . S
C1066 H1058 0.950 . S
C1066 C1067 1.386 . S
C1066 C1068 1.391 . S
C1067 C1066 1.386 . S
C1067 C1071 1.393 . S
C1068 H1060 0.950 . S
C1068 C1066 1.391 . S
C1068 C1069 1.400 . S
C1069 C1068 1.400 . S
C1069 C1070 1.398 . S
C1069 C1075 1.491 . S
C1070 H1061 0.950 . S
C1070 C1069 1.398 . S
C1070 C1071 1.391 . S
C1071 H1059 0.950 . S
C1071 C1067 1.393 . S
C1071 C1070 1.391 . S
C1072 H1062 0.950 . S
C1072 C1073 1.386 . S
C1072 C1074 1.391 . S
C1073 C1072 1.386 . S
C1073 C1077 1.393 . S
C1074 H1063 0.950 . S
C1074 C1072 1.391 . S
C1074 C1075 1.400 . S
C1075 C1069 1.491 . S
C1075 C1074 1.400 . S
C1075 C1076 1.398 . S
C1076 H1064 0.950 . S
C1076 C1075 1.398 . S
C1076 C1077 1.391 . S
C1077 H1065 0.950 . S
C1077 C1073 1.393 . S
C1077 C1076 1.391 . S
H1078 C1086 0.950 . S
H1079 C1091 0.950 . S
H1080 C1088 0.950 . S
H1081 C1090 0.950 . S
H1082 C1092 0.950 . S
H1083 C1094 0.950 . S
H1084 C1096 0.950 . S
H1085 C1097 0.950 . S
C1086 H1078 0.950 . S
C1086 C1087 1.386 . S
C1086 C1088 1.391 . S
C1087 C1086 1.386 . S
C1087 C1091 1.393 . S
C1088 H1080 0.950 . S
C1088 C1086 1.391 . S
C1088 C1089 1.400 . S
C1089 C1088 1.400 . S
C1089 C1090 1.398 . S
C1089 C1095 1.491 . S
C1090 H1081 0.950 . S
C1090 C1089 1.398 . S
C1090 C1091 1.391 . S
C1091 H1079 0.950 . S
C1091 C1087 1.393 . S
C1091 C1090 1.391 . S
C1092 H1082 0.950 . S
C1092 C1093 1.386 . S
C1092 C1094 1.391 . S
C1093 C1092 1.386 . S
C1093 C1097 1.393 . S
C1094 H1083 0.950 . S
C1094 C1092 1.391 . S
C1094 C1095 1.400 . S
C1095 C1089 1.491 . S
C1095 C1094 1.400 . S
C1095 C1096 1.398 . S
C1096 H1084 0.950 . S
C1096 C1095 1.398 . S
C1096 C1097 1.391 . S
C1097 H1085 0.950 . S
C1097 C1093 1.393 . S
C1097 C1096 1.391 . S
H1098 C1106 0.950 . S
H1099 C1111 0.950 . S
H1100 C1108 0.950 . S
H1101 C1110 0.950 1_545 S
H1102 C1112 0.950 . S
H1103 C1114 0.950 . S
H1104 C1116 0.950 . S
H1105 C1117 0.950 . S
C1106 H1098 0.950 . S
C1106 C1107 1.386 . S
C1106 C1108 1.391 . S
C1107 C1106 1.386 . S
C1107 C1111 1.393 . S
C1108 H1100 0.950 . S
C1108 C1106 1.391 . S
C1108 C1109 1.400 1_565 S
C1109 C1108 1.400 1_545 S
C1109 C1110 1.398 1_545 S
C1109 C1115 1.491 . S
C1110 H1101 0.950 1_565 S
C1110 C1109 1.398 1_565 S
C1110 C1111 1.391 . S
C1111 H1099 0.950 . S
C1111 C1107 1.393 . S
C1111 C1110 1.391 . S
C1112 H1102 0.950 . S
C1112 C1113 1.386 . S
C1112 C1114 1.391 . S
C1113 C1112 1.386 . S
C1113 C1117 1.393 . S
C1114 H1103 0.950 . S
C1114 C1112 1.391 . S
C1114 C1115 1.400 . S
C1115 C1109 1.491 . S
C1115 C1114 1.400 . S
C1115 C1116 1.398 . S
C1116 H1104 0.950 . S
C1116 C1115 1.398 . S
C1116 C1117 1.391 . S
C1117 H1105 0.950 . S
C1117 C1113 1.393 . S
C1117 C1116 1.391 . S
H1118 C1126 0.950 . S
H1119 C1131 0.950 . S
H1120 C1128 0.950 . S
H1121 C1130 0.950 . S
H1122 C1132 0.950 . S
H1123 C1134 0.950 . S
H1124 C1136 0.950 . S
H1125 C1137 0.950 . S
C1126 H1118 0.950 . S
C1126 C1127 1.386 . S
C1126 C1128 1.391 1_455 S
C1127 C1126 1.386 . S
C1127 C1131 1.393 . S
C1128 H1120 0.950 . S
C1128 C1126 1.391 1_655 S
C1128 C1129 1.400 . S
C1129 C1128 1.400 . S
C1129 C1130 1.398 1_655 S
C1129 C1135 1.491 . S
C1130 H1121 0.950 . S
C1130 C1129 1.398 1_455 S
C1130 C1131 1.391 . S
C1131 H1119 0.950 . S
C1131 C1127 1.393 . S
C1131 C1130 1.391 . S
C1132 H1122 0.950 . S
C1132 C1133 1.386 . S
C1132 C1134 1.391 . S
C1133 C1132 1.386 . S
C1133 C1137 1.393 . S
C1134 H1123 0.950 . S
C1134 C1132 1.391 . S
C1134 C1135 1.400 . S
C1135 C1129 1.491 . S
C1135 C1134 1.400 . S
C1135 C1136 1.398 . S
C1136 H1124 0.950 . S
C1136 C1135 1.398 . S
C1136 C1137 1.391 . S
C1137 H1125 0.950 . S
C1137 C1133 1.393 . S
C1137 C1136 1.391 . S
H1138 C1146 0.950 . S
H1139 C1151 0.950 . S
H1140 C1148 0.950 . S
H1141 C1150 0.950 . S
H1142 C1152 0.950 . S
H1143 C1154 0.950 . S
H1144 C1156 0.950 . S
H1145 C1157 0.950 . S
C1146 H1138 0.950 . S
C1146 C1147 1.386 . S
C1146 C1148 1.391 . S
C1147 C1146 1.386 . S
C1147 C1151 1.393 . S
C1148 H1140 0.950 . S
C1148 C1146 1.391 . S
C1148 C1149 1.400 . S
C1149 C1148 1.400 . S
C1149 C1150 1.398 . S
C1149 C1155 1.491 . S
C1150 H1141 0.950 . S
C1150 C1149 1.398 . S
C1150 C1151 1.391 . S
C1151 H1139 0.950 . S
C1151 C1147 1.393 . S
C1151 C1150 1.391 . S
C1152 H1142 0.950 . S
C1152 C1153 1.386 . S
C1152 C1154 1.391 . S
C1153 C1152 1.386 . S
C1153 C1157 1.393 . S
C1154 H1143 0.950 . S
C1154 C1152 1.391 . S
C1154 C1155 1.400 . S
C1155 C1149 1.491 . S
C1155 C1154 1.400 . S
C1155 C1156 1.398 . S
C1156 H1144 0.950 . S
C1156 C1155 1.398 . S
C1156 C1157 1.391 . S
C1157 H1145 0.950 . S
C1157 C1153 1.393 . S
C1157 C1156 1.391 . S
H1158 C1166 0.950 . S
H1159 C1171 0.950 . S
H1160 C1168 0.950 . S
H1161 C1170 0.950 . S
H1162 C1172 0.950 . S
H1163 C1174 0.950 . S
H1164 C1176 0.950 . S
H1165 C1177 0.950 . S
C1166 H1158 0.950 . S
C1166 C1167 1.386 . S
C1166 C1168 1.391 1_455 S
C1167 C1166 1.386 . S
C1167 C1171 1.393 . S
C1168 H1160 0.950 . S
C1168 C1166 1.391 1_655 S
C1168 C1169 1.400 . S
C1169 C1168 1.400 . S
C1169 C1170 1.398 . S
C1169 C1175 1.491 . S
C1170 H1161 0.950 . S
C1170 C1169 1.398 . S
C1170 C1171 1.391 1_655 S
C1171 H1159 0.950 . S
C1171 C1167 1.393 . S
C1171 C1170 1.391 1_455 S
C1172 H1162 0.950 . S
C1172 C1173 1.386 . S
C1172 C1174 1.391 . S
C1173 C1172 1.386 . S
C1173 C1177 1.393 . S
C1174 H1163 0.950 . S
C1174 C1172 1.391 . S
C1174 C1175 1.400 . S
C1175 C1169 1.491 . S
C1175 C1174 1.400 . S
C1175 C1176 1.398 . S
C1176 H1164 0.950 . S
C1176 C1175 1.398 . S
C1176 C1177 1.391 . S
C1177 H1165 0.950 . S
C1177 C1173 1.393 . S
C1177 C1176 1.391 . S
H1178 C1186 0.950 . S
H1179 C1191 0.950 . S
H1180 C1188 0.950 . S
H1181 C1190 0.950 . S
H1182 C1192 0.950 . S
H1183 C1194 0.950 . S
H1184 C1196 0.950 . S
H1185 C1197 0.950 . S
C1186 H1178 0.950 . S
C1186 C1187 1.386 . S
C1186 C1188 1.391 . S
C1187 C1186 1.386 . S
C1187 C1191 1.393 . S
C1188 H1180 0.950 . S
C1188 C1186 1.391 . S
C1188 C1189 1.400 . S
C1189 C1188 1.400 . S
C1189 C1190 1.398 . S
C1189 C1195 1.491 . S
C1190 H1181 0.950 . S
C1190 C1189 1.398 . S
C1190 C1191 1.391 . S
C1191 H1179 0.950 . S
C1191 C1187 1.393 . S
C1191 C1190 1.391 . S
C1192 H1182 0.950 . S
C1192 C1193 1.386 . S
C1192 C1194 1.391 . S
C1193 C1192 1.386 . S
C1193 C1197 1.393 . S
C1194 H1183 0.950 . S
C1194 C1192 1.391 . S
C1194 C1195 1.400 . S
C1195 C1189 1.491 . S
C1195 C1194 1.400 . S
C1195 C1196 1.398 . S
C1196 H1184 0.950 . S
C1196 C1195 1.398 . S
C1196 C1197 1.391 . S
C1197 H1185 0.950 . S
C1197 C1193 1.393 . S
C1197 C1196 1.391 . S
H1198 C1206 0.950 . S
H1199 C1211 0.950 . S
H1200 C1208 0.950 1_545 S
H1201 C1210 0.950 . S
H1202 C1212 0.950 . S
H1203 C1214 0.950 . S
H1204 C1216 0.950 . S
H1205 C1217 0.950 . S
C1206 H1198 0.950 . S
C1206 C1207 1.386 . S
C1206 C1208 1.391 . S
C1207 C1206 1.386 . S
C1207 C1211 1.393 . S
C1208 H1200 0.950 1_565 S
C1208 C1206 1.391 . S
C1208 C1209 1.400 1_565 S
C1209 C1208 1.400 1_545 S
C1209 C1210 1.398 1_545 S
C1209 C1215 1.491 . S
C1210 H1201 0.950 . S
C1210 C1209 1.398 1_565 S
C1210 C1211 1.391 . S
C1211 H1199 0.950 . S
C1211 C1207 1.393 . S
C1211 C1210 1.391 . S
C1212 H1202 0.950 . S
C1212 C1213 1.386 . S
C1212 C1214 1.391 . S
C1213 C1212 1.386 . S
C1213 C1217 1.393 . S
C1214 H1203 0.950 . S
C1214 C1212 1.391 . S
C1214 C1215 1.400 . S
C1215 C1209 1.491 . S
C1215 C1214 1.400 . S
C1215 C1216 1.398 . S
C1216 H1204 0.950 . S
C1216 C1215 1.398 . S
C1216 C1217 1.391 . S
C1217 H1205 0.950 . S
C1217 C1213 1.393 . S
C1217 C1216 1.391 . S
H1218 C1226 0.950 . S
H1219 C1231 0.950 . S
H1220 C1228 0.950 . S
H1221 C1230 0.950 . S
H1222 C1232 0.950 . S
H1223 C1234 0.950 . S
H1224 C1236 0.950 . S
H1225 C1237 0.950 . S
C1226 H1218 0.950 . S
C1226 C1227 1.386 . S
C1226 C1228 1.391 . S
C1227 C1226 1.386 . S
C1227 C1231 1.393 . S
C1228 H1220 0.950 . S
C1228 C1226 1.391 . S
C1228 C1229 1.400 . S
C1229 C1228 1.400 . S
C1229 C1230 1.398 . S
C1229 C1235 1.491 . S
C1230 H1221 0.950 . S
C1230 C1229 1.398 . S
C1230 C1231 1.391 . S
C1231 H1219 0.950 . S
C1231 C1227 1.393 . S
C1231 C1230 1.391 . S
C1232 H1222 0.950 . S
C1232 C1233 1.386 . S
C1232 C1234 1.391 . S
C1233 C1232 1.386 . S
C1233 C1237 1.393 . S
C1234 H1223 0.950 . S
C1234 C1232 1.391 . S
C1234 C1235 1.400 . S
C1235 C1229 1.491 . S
C1235 C1234 1.400 . S
C1235 C1236 1.398 . S
C1236 H1224 0.950 . S
C1236 C1235 1.398 . S
C1236 C1237 1.391 . S
C1237 H1225 0.950 . S
C1237 C1233 1.393 . S
C1237 C1236 1.391 . S
H1238 C1246 0.950 . S
H1239 C1251 0.950 . S
H1240 C1248 0.950 . S
H1241 C1250 0.950 . S
H1242 C1252 0.950 . S
H1243 C1254 0.950 . S
H1244 C1256 0.950 . S
H1245 C1257 0.950 . S
C1246 H1238 0.950 . S
C1246 C1247 1.386 . S
C1246 C1248 1.391 . S
C1247 C1246 1.386 . S
C1247 C1251 1.393 . S
C1248 H1240 0.950 . S
C1248 C1246 1.391 . S
C1248 C1249 1.400 . S
C1249 C1248 1.400 . S
C1249 C1250 1.398 . S
C1249 C1255 1.491 . S
C1250 H1241 0.950 . S
C1250 C1249 1.398 . S
C1250 C1251 1.391 . S
C1251 H1239 0.950 . S
C1251 C1247 1.393 . S
C1251 C1250 1.391 . S
C1252 H1242 0.950 . S
C1252 C1253 1.386 . S
C1252 C1254 1.391 . S
C1253 C1252 1.386 . S
C1253 C1257 1.393 . S
C1254 H1243 0.950 . S
C1254 C1252 1.391 . S
C1254 C1255 1.400 . S
C1255 C1249 1.491 . S
C1255 C1254 1.400 . S
C1255 C1256 1.398 . S
C1256 H1244 0.950 . S
C1256 C1255 1.398 . S
C1256 C1257 1.391 . S
C1257 H1245 0.950 . S
C1257 C1253 1.393 . S
C1257 C1256 1.391 . S
H1258 C1266 0.950 . S
H1259 C1271 0.950 . S
H1260 C1268 0.950 . S
H1261 C1270 0.950 . S
H1262 C1272 0.950 . S
H1263 C1274 0.950 . S
H1264 C1276 0.950 . S
H1265 C1277 0.950 . S
C1266 H1258 0.950 . S
C1266 C1267 1.386 . S
C1266 C1268 1.391 . S
C1267 C1266 1.386 . S
C1267 C1271 1.393 . S
C1268 H1260 0.950 . S
C1268 C1266 1.391 . S
C1268 C1269 1.400 . S
C1269 C1268 1.400 . S
C1269 C1270 1.398 . S
C1269 C1275 1.491 . S
C1270 H1261 0.950 . S
C1270 C1269 1.398 . S
C1270 C1271 1.391 . S
C1271 H1259 0.950 . S
C1271 C1267 1.393 . S
C1271 C1270 1.391 . S
C1272 H1262 0.950 . S
C1272 C1273 1.386 . S
C1272 C1274 1.391 . S
C1273 C1272 1.386 . S
C1273 C1277 1.393 . S
C1274 H1263 0.950 . S
C1274 C1272 1.391 . S
C1274 C1275 1.400 . S
C1275 C1269 1.491 . S
C1275 C1274 1.400 . S
C1275 C1276 1.398 . S
C1276 H1264 0.950 . S
C1276 C1275 1.398 . S
C1276 C1277 1.391 . S
C1277 H1265 0.950 . S
C1277 C1273 1.393 . S
C1277 C1276 1.391 . S
H1278 C1286 0.950 . S
H1279 C1291 0.950 . S
H1280 C1288 0.950 . S
H1281 C1290 0.950 . S
H1282 C1292 0.950 . S
H1283 C1294 0.950 . S
H1284 C1296 0.950 . S
H1285 C1297 0.950 1_545 S
C1286 H1278 0.950 . S
C1286 C1287 1.386 . S
C1286 C1288 1.391 . S
C1287 C1286 1.386 . S
C1287 C1291 1.393 . S
C1288 H1280 0.950 . S
C1288 C1286 1.391 . S
C1288 C1289 1.400 . S
C1289 C1288 1.400 . S
C1289 C1290 1.398 . S
C1289 C1295 1.491 . S
C1290 H1281 0.950 . S
C1290 C1289 1.398 . S
C1290 C1291 1.391 . S
C1291 H1279 0.950 . S
C1291 C1287 1.393 . S
C1291 C1290 1.391 . S
C1292 H1282 0.950 . S
C1292 C1293 1.386 . S
C1292 C1294 1.391 . S
C1293 C1292 1.386 . S
C1293 C1297 1.393 . S
C1294 H1283 0.950 . S
C1294 C1292 1.391 . S
C1294 C1295 1.400 . S
C1295 C1289 1.491 . S
C1295 C1294 1.400 . S
C1295 C1296 1.398 . S
C1296 H1284 0.950 . S
C1296 C1295 1.398 . S
C1296 C1297 1.391 . S
C1297 H1285 0.950 1_565 S
C1297 C1293 1.393 . S
C1297 C1296 1.391 . S
H1298 C1306 0.950 . S
H1299 C1311 0.950 . S
H1300 C1308 0.950 . S
H1301 C1310 0.950 . S
H1302 C1312 0.950 . S
H1303 C1314 0.950 . S
H1304 C1316 0.950 . S
H1305 C1317 0.950 . S
C1306 H1298 0.950 . S
C1306 C1307 1.386 . S
C1306 C1308 1.391 . S
C1307 C1306 1.386 . S
C1307 C1311 1.393 . S
C1308 H1300 0.950 . S
C1308 C1306 1.391 . S
C1308 C1309 1.400 . S
C1309 C1308 1.400 . S
C1309 C1310 1.398 . S
C1309 C1315 1.491 . S
C1310 H1301 0.950 . S
C1310 C1309 1.398 . S
C1310 C1311 1.391 . S
C1311 H1299 0.950 . S
C1311 C1307 1.393 . S
C1311 C1310 1.391 . S
C1312 H1302 0.950 . S
C1312 C1313 1.386 . S
C1312 C1314 1.391 . S
C1313 C1312 1.386 . S
C1313 C1317 1.393 . S
C1314 H1303 0.950 . S
C1314 C1312 1.391 . S
C1314 C1315 1.400 . S
C1315 C1309 1.491 . S
C1315 C1314 1.400 . S
C1315 C1316 1.398 . S
C1316 H1304 0.950 . S
C1316 C1315 1.398 . S
C1316 C1317 1.391 . S
C1317 H1305 0.950 . S
C1317 C1313 1.393 . S
C1317 C1316 1.391 . S
H1318 C1326 0.950 . S
H1319 C1331 0.950 . S
H1320 C1328 0.950 . S
H1321 C1330 0.950 . S
H1322 C1332 0.950 . S
H1323 C1334 0.950 . S
H1324 C1336 0.950 . S
H1325 C1337 0.950 . S
C1326 H1318 0.950 . S
C1326 C1327 1.386 . S
C1326 C1328 1.391 . S
C1327 C1326 1.386 . S
C1327 C1331 1.393 . S
C1328 H1320 0.950 . S
C1328 C1326 1.391 . S
C1328 C1329 1.400 . S
C1329 C1328 1.400 . S
C1329 C1330 1.398 . S
C1329 C1335 1.491 . S
C1330 H1321 0.950 . S
C1330 C1329 1.398 . S
C1330 C1331 1.391 . S
C1331 H1319 0.950 . S
C1331 C1327 1.393 . S
C1331 C1330 1.391 . S
C1332 H1322 0.950 . S
C1332 C1333 1.386 . S
C1332 C1334 1.391 . S
C1333 C1332 1.386 . S
C1333 C1337 1.393 . S
C1334 H1323 0.950 . S
C1334 C1332 1.391 . S
C1334 C1335 1.400 . S
C1335 C1329 1.491 . S
C1335 C1334 1.400 . S
C1335 C1336 1.398 . S
C1336 H1324 0.950 . S
C1336 C1335 1.398 . S
C1336 C1337 1.391 . S
C1337 H1325 0.950 . S
C1337 C1333 1.393 . S
C1337 C1336 1.391 . S
H1338 C1346 0.950 . S
H1339 C1351 0.950 . S
H1340 C1348 0.950 . S
H1341 C1350 0.950 . S
H1342 C1352 0.950 . S
H1343 C1354 0.950 . S
H1344 C1356 0.950 . S
H1345 C1357 0.950 . S
C1346 H1338 0.950 . S
C1346 C1347 1.386 . S
C1346 C1348 1.391 . S
C1347 C1346 1.386 . S
C1347 C1351 1.393 . S
C1348 H1340 0.950 . S
C1348 C1346 1.391 . S
C1348 C1349 1.400 . S
C1349 C1348 1.400 . S
C1349 C1350 1.398 . S
C1349 C1355 1.491 . S
C1350 H1341 0.950 . S
C1350 C1349 1.398 . S
C1350 C1351 1.391 . S
C1351 H1339 0.950 . S
C1351 C1347 1.393 . S
C1351 C1350 1.391 . S
C1352 H1342 0.950 . S
C1352 C1353 1.386 . S
C1352 C1354 1.391 . S
C1353 C1352 1.386 . S
C1353 C1357 1.393 . S
C1354 H1343 0.950 . S
C1354 C1352 1.391 . S
C1354 C1355 1.400 . S
C1355 C1349 1.491 . S
C1355 C1354 1.400 . S
C1355 C1356 1.398 . S
C1356 H1344 0.950 . S
C1356 C1355 1.398 . S
C1356 C1357 1.391 . S
C1357 H1345 0.950 . S
C1357 C1353 1.393 . S
C1357 C1356 1.391 . S
H1358 C1366 0.950 . S
H1359 C1371 0.950 . S
H1360 C1368 0.950 . S
H1361 C1370 0.950 . S
H1362 C1372 0.950 . S
H1363 C1374 0.950 . S
H1364 C1376 0.950 . S
H1365 C1377 0.950 . S
C1366 H1358 0.950 . S
C1366 C1367 1.386 . S
C1366 C1368 1.391 . S
C1367 C1366 1.386 . S
C1367 C1371 1.393 . S
C1368 H1360 0.950 . S
C1368 C1366 1.391 . S
C1368 C1369 1.400 . S
C1369 C1368 1.400 . S
C1369 C1370 1.398 . S
C1369 C1375 1.491 . S
C1370 H1361 0.950 . S
C1370 C1369 1.398 . S
C1370 C1371 1.391 . S
C1371 H1359 0.950 . S
C1371 C1367 1.393 . S
C1371 C1370 1.391 . S
C1372 H1362 0.950 . S
C1372 C1373 1.386 . S
C1372 C1374 1.391 . S
C1373 C1372 1.386 . S
C1373 C1377 1.393 . S
C1374 H1363 0.950 . S
C1374 C1372 1.391 . S
C1374 C1375 1.400 . S
C1375 C1369 1.491 . S
C1375 C1374 1.400 . S
C1375 C1376 1.398 . S
C1376 H1364 0.950 . S
C1376 C1375 1.398 . S
C1376 C1377 1.391 . S
C1377 H1365 0.950 . S
C1377 C1373 1.393 . S
C1377 C1376 1.391 . S
H1378 C1386 0.950 . S
H1379 C1391 0.950 . S
H1380 C1388 0.950 . S
H1381 C1390 0.950 . S
H1382 C1392 0.950 . S
H1383 C1394 0.950 . S
H1384 C1396 0.950 . S
H1385 C1397 0.950 . S
C1386 H1378 0.950 . S
C1386 C1387 1.386 . S
C1386 C1388 1.391 . S
C1387 C1386 1.386 . S
C1387 C1391 1.393 . S
C1388 H1380 0.950 . S
C1388 C1386 1.391 . S
C1388 C1389 1.400 . S
C1389 C1388 1.400 . S
C1389 C1390 1.398 . S
C1389 C1395 1.491 . S
C1390 H1381 0.950 . S
C1390 C1389 1.398 . S
C1390 C1391 1.391 . S
C1391 H1379 0.950 . S
C1391 C1387 1.393 . S
C1391 C1390 1.391 . S
C1392 H1382 0.950 . S
C1392 C1393 1.386 . S
C1392 C1394 1.391 . S
C1393 C1392 1.386 . S
C1393 C1397 1.393 . S
C1394 H1383 0.950 . S
C1394 C1392 1.391 . S
C1394 C1395 1.400 . S
C1395 C1389 1.491 . S
C1395 C1394 1.400 . S
C1395 C1396 1.398 . S
C1396 H1384 0.950 . S
C1396 C1395 1.398 . S
C1396 C1397 1.391 . S
C1397 H1385 0.950 . S
C1397 C1393 1.393 . S
C1397 C1396 1.391 . S
H1398 C1406 0.950 . S
H1399 C1411 0.950 . S
H1400 C1408 0.950 . S
H1401 C1410 0.950 . S
H1402 C1412 0.950 . S
H1403 C1414 0.950 . S
H1404 C1416 0.950 . S
H1405 C1417 0.950 . S
C1406 H1398 0.950 . S
C1406 C1407 1.386 . S
C1406 C1408 1.391 . S
C1407 C1406 1.386 . S
C1407 C1411 1.393 . S
C1408 H1400 0.950 . S
C1408 C1406 1.391 . S
C1408 C1409 1.400 . S
C1409 C1408 1.400 . S
C1409 C1410 1.398 . S
C1409 C1415 1.491 . S
C1410 H1401 0.950 . S
C1410 C1409 1.398 . S
C1410 C1411 1.391 . S
C1411 H1399 0.950 . S
C1411 C1407 1.393 . S
C1411 C1410 1.391 . S
C1412 H1402 0.950 . S
C1412 C1413 1.386 . S
C1412 C1414 1.391 . S
C1413 C1412 1.386 . S
C1413 C1417 1.393 . S
C1414 H1403 0.950 . S
C1414 C1412 1.391 . S
C1414 C1415 1.400 . S
C1415 C1409 1.491 . S
C1415 C1414 1.400 . S
C1415 C1416 1.398 . S
C1416 H1404 0.950 . S
C1416 C1415 1.398 . S
C1416 C1417 1.391 . S
C1417 H1405 0.950 . S
C1417 C1413 1.393 . S
C1417 C1416 1.391 . S
H1418 C1426 0.950 . S
H1419 C1431 0.950 . S
H1420 C1428 0.950 . S
H1421 C1430 0.950 . S
H1422 C1432 0.950 . S
H1423 C1434 0.950 . S
H1424 C1436 0.950 . S
H1425 C1437 0.950 . S
C1426 H1418 0.950 . S
C1426 C1427 1.386 . S
C1426 C1428 1.391 . S
C1427 C1426 1.386 . S
C1427 C1431 1.393 . S
C1428 H1420 0.950 . S
C1428 C1426 1.391 . S
C1428 C1429 1.400 . S
C1429 C1428 1.400 . S
C1429 C1430 1.398 . S
C1429 C1435 1.491 . S
C1430 H1421 0.950 . S
C1430 C1429 1.398 . S
C1430 C1431 1.391 . S
C1431 H1419 0.950 . S
C1431 C1427 1.393 . S
C1431 C1430 1.391 . S
C1432 H1422 0.950 . S
C1432 C1433 1.386 . S
C1432 C1434 1.391 . S
C1433 C1432 1.386 . S
C1433 C1437 1.393 . S
C1434 H1423 0.950 . S
C1434 C1432 1.391 . S
C1434 C1435 1.400 . S
C1435 C1429 1.491 . S
C1435 C1434 1.400 . S
C1435 C1436 1.398 . S
C1436 H1424 0.950 . S
C1436 C1435 1.398 . S
C1436 C1437 1.391 . S
C1437 H1425 0.950 . S
C1437 C1433 1.393 . S
C1437 C1436 1.391 . S
H1438 C1446 0.950 . S
H1439 C1451 0.950 . S
H1440 C1448 0.950 . S
H1441 C1450 0.950 . S
H1442 C1452 0.950 . S
H1443 C1454 0.950 . S
H1444 C1456 0.950 . S
H1445 C1457 0.950 . S
C1446 H1438 0.950 . S
C1446 C1447 1.386 . S
C1446 C1448 1.391 . S
C1447 C1446 1.386 . S
C1447 C1451 1.393 . S
C1448 H1440 0.950 . S
C1448 C1446 1.391 . S
C1448 C1449 1.400 . S
C1449 C1448 1.400 . S
C1449 C1450 1.398 . S
C1449 C1455 1.491 . S
C1450 H1441 0.950 . S
C1450 C1449 1.398 . S
C1450 C1451 1.391 . S
C1451 H1439 0.950 . S
C1451 C1447 1.393 . S
C1451 C1450 1.391 . S
C1452 H1442 0.950 . S
C1452 C1453 1.386 . S
C1452 C1454 1.391 . S
C1453 C1452 1.386 . S
C1453 C1457 1.393 . S
C1454 H1443 0.950 . S
C1454 C1452 1.391 . S
C1454 C1455 1.400 . S
C1455 C1449 1.491 . S
C1455 C1454 1.400 . S
C1455 C1456 1.398 . S
C1456 H1444 0.950 . S
C1456 C1455 1.398 . S
C1456 C1457 1.391 . S
C1457 H1445 0.950 . S
C1457 C1453 1.393 . S
C1457 C1456 1.391 . S
H1458 C1466 0.950 . S
H1459 C1471 0.950 . S
H1460 C1468 0.950 . S
H1461 C1470 0.950 . S
H1462 C1472 0.950 . S
H1463 C1474 0.950 . S
H1464 C1476 0.950 . S
H1465 C1477 0.950 . S
C1466 H1458 0.950 . S
C1466 C1467 1.386 . S
C1466 C1468 1.391 . S
C1467 C1466 1.386 . S
C1467 C1471 1.393 . S
C1468 H1460 0.950 . S
C1468 C1466 1.391 . S
C1468 C1469 1.400 . S
C1469 C1468 1.400 . S
C1469 C1470 1.398 . S
C1469 C1475 1.491 . S
C1470 H1461 0.950 . S
C1470 C1469 1.398 . S
C1470 C1471 1.391 . S
C1471 H1459 0.950 . S
C1471 C1467 1.393 . S
C1471 C1470 1.391 . S
C1472 H1462 0.950 . S
C1472 C1473 1.386 . S
C1472 C1474 1.391 . S
C1473 C1472 1.386 . S
C1473 C1477 1.393 . S
C1474 H1463 0.950 . S
C1474 C1472 1.391 . S
C1474 C1475 1.400 . S
C1475 C1469 1.491 . S
C1475 C1474 1.400 . S
C1475 C1476 1.398 . S
C1476 H1464 0.950 . S
C1476 C1475 1.398 . S
C1476 C1477 1.391 . S
C1477 H1465 0.950 . S
C1477 C1473 1.393 . S
C1477 C1476 1.391 . S
H1478 C1486 0.950 . S
H1479 C1491 0.950 . S
H1480 C1488 0.950 . S
H1481 C1490 0.950 . S
H1482 C1492 0.950 . S
H1483 C1494 0.950 . S
H1484 C1496 0.950 . S
H1485 C1497 0.950 . S
C1486 H1478 0.950 . S
C1486 C1487 1.386 . S
C1486 C1488 1.391 . S
C1487 C1486 1.386 . S
C1487 C1491 1.393 . S
C1488 H1480 0.950 . S
C1488 C1486 1.391 . S
C1488 C1489 1.400 . S
C1489 C1488 1.400 . S
C1489 C1490 1.398 . S
C1489 C1495 1.491 . S
C1490 H1481 0.950 . S
C1490 C1489 1.398 . S
C1490 C1491 1.391 . S
C1491 H1479 0.950 . S
C1491 C1487 1.393 . S
C1491 C1490 1.391 . S
C1492 H1482 0.950 . S
C1492 C1493 1.386 . S
C1492 C1494 1.391 . S
C1493 C1492 1.386 . S
C1493 C1497 1.393 . S
C1494 H1483 0.950 . S
C1494 C1492 1.391 . S
C1494 C1495 1.400 . S
C1495 C1489 1.491 . S
C1495 C1494 1.400 . S
C1495 C1496 1.398 . S
C1496 H1484 0.950 . S
C1496 C1495 1.398 . S
C1496 C1497 1.391 . S
C1497 H1485 0.950 . S
C1497 C1493 1.393 . S
C1497 C1496 1.391 . S
H1498 C1506 0.950 . S
H1499 C1511 0.950 . S
H1500 C1508 0.950 . S
H1501 C1510 0.950 . S
H1502 C1512 0.950 . S
H1503 C1514 0.950 . S
H1504 C1516 0.950 . S
H1505 C1517 0.950 . S
C1506 H1498 0.950 . S
C1506 C1507 1.386 . S
C1506 C1508 1.391 . S
C1507 C1506 1.386 . S
C1507 C1511 1.393 . S
C1508 H1500 0.950 . S
C1508 C1506 1.391 . S
C1508 C1509 1.400 . S
C1509 C1508 1.400 . S
C1509 C1510 1.398 . S
C1509 C1515 1.491 . S
C1510 H1501 0.950 . S
C1510 C1509 1.398 . S
C1510 C1511 1.391 . S
C1511 H1499 0.950 . S
C1511 C1507 1.393 . S
C1511 C1510 1.391 . S
C1512 H1502 0.950 . S
C1512 C1513 1.386 . S
C1512 C1514 1.391 . S
C1513 C1512 1.386 . S
C1513 C1517 1.393 . S
C1514 H1503 0.950 . S
C1514 C1512 1.391 . S
C1514 C1515 1.400 . S
C1515 C1509 1.491 . S
C1515 C1514 1.400 . S
C1515 C1516 1.398 . S
C1516 H1504 0.950 . S
C1516 C1515 1.398 . S
C1516 C1517 1.391 . S
C1517 H1505 0.950 . S
C1517 C1513 1.393 . S
C1517 C1516 1.391 . S
H1518 C1526 0.950 . S
H1519 C1531 0.950 . S
H1520 C1528 0.950 . S
H1521 C1530 0.950 . S
H1522 C1532 0.950 . S
H1523 C1534 0.950 . S
H1524 C1536 0.950 . S
H1525 C1537 0.950 . S
C1526 H1518 0.950 . S
C1526 C1527 1.386 . S
C1526 C1528 1.391 . S
C1527 C1526 1.386 . S
C1527 C1531 1.393 . S
C1528 H1520 0.950 . S
C1528 C1526 1.391 . S
C1528 C1529 1.400 . S
C1529 C1528 1.400 . S
C1529 C1530 1.398 . S
C1529 C1535 1.491 . S
C1530 H1521 0.950 . S
C1530 C1529 1.398 . S
C1530 C1531 1.391 . S
C1531 H1519 0.950 . S
C1531 C1527 1.393 . S
C1531 C1530 1.391 . S
C1532 H1522 0.950 . S
C1532 C1533 1.386 . S
C1532 C1534 1.391 . S
C1533 C1532 1.386 . S
C1533 C1537 1.393 . S
C1534 H1523 0.950 . S
C1534 C1532 1.391 . S
C1534 C1535 1.400 . S
C1535 C1529 1.491 . S
C1535 C1534 1.400 . S
C1535 C1536 1.398 . S
C1536 H1524 0.950 . S
C1536 C1535 1.398 . S
C1536 C1537 1.391 . S
C1537 H1525 0.950 . S
C1537 C1533 1.393 . S
C1537 C1536 1.391 . S
H1538 C1546 0.950 . S
H1539 C1551 0.950 . S
H1540 C1548 0.950 . S
H1541 C1550 0.950 . S
H1542 C1552 0.950 . S
H1543 C1554 0.950 . S
H1544 C1556 0.950 . S
H1545 C1557 0.950 . S
C1546 H1538 0.950 . S
C1546 C1547 1.386 . S
C1546 C1548 1.391 . S
C1547 C1546 1.386 . S
C1547 C1551 1.393 . S
C1548 H1540 0.950 . S
C1548 C1546 1.391 . S
C1548 C1549 1.400 . S
C1549 C1548 1.400 . S
C1549 C1550 1.398 . S
C1549 C1555 1.491 . S
C1550 H1541 0.950 . S
C1550 C1549 1.398 . S
C1550 C1551 1.391 . S
C1551 H1539 0.950 . S
C1551 C1547 1.393 . S
C1551 C1550 1.391 . S
C1552 H1542 0.950 . S
C1552 C1553 1.386 . S
C1552 C1554 1.391 . S
C1553 C1552 1.386 . S
C1553 C1557 1.393 . S
C1554 H1543 0.950 . S
C1554 C1552 1.391 . S
C1554 C1555 1.400 . S
C1555 C1549 1.491 . S
C1555 C1554 1.400 . S
C1555 C1556 1.398 . S
C1556 H1544 0.950 . S
C1556 C1555 1.398 . S
C1556 C1557 1.391 . S
C1557 H1545 0.950 . S
C1557 C1553 1.393 . S
C1557 C1556 1.391 . S
H1558 C1566 0.950 . S
H1559 C1571 0.950 . S
H1560 C1568 0.950 . S
H1561 C1570 0.950 . S
H1562 C1572 0.950 . S
H1563 C1574 0.950 . S
H1564 C1576 0.950 . S
H1565 C1577 0.950 . S
C1566 H1558 0.950 . S
C1566 C1567 1.386 . S
C1566 C1568 1.391 . S
C1567 C1566 1.386 . S
C1567 C1571 1.393 . S
C1568 H1560 0.950 . S
C1568 C1566 1.391 . S
C1568 C1569 1.400 . S
C1569 C1568 1.400 . S
C1569 C1570 1.398 . S
C1569 C1575 1.491 . S
C1570 H1561 0.950 . S
C1570 C1569 1.398 . S
C1570 C1571 1.391 . S
C1571 H1559 0.950 . S
C1571 C1567 1.393 . S
C1571 C1570 1.391 . S
C1572 H1562 0.950 . S
C1572 C1573 1.386 . S
C1572 C1574 1.391 . S
C1573 C1572 1.386 . S
C1573 C1577 1.393 . S
C1574 H1563 0.950 . S
C1574 C1572 1.391 . S
C1574 C1575 1.400 . S
C1575 C1569 1.491 . S
C1575 C1574 1.400 . S
C1575 C1576 1.398 . S
C1576 H1564 0.950 . S
C1576 C1575 1.398 . S
C1576 C1577 1.391 . S
C1577 H1565 0.950 . S
C1577 C1573 1.393 . S
C1577 C1576 1.391 . S
H1578 C1586 0.950 . S
H1579 C1591 0.950 . S
H1580 C1588 0.950 . S
H1581 C1590 0.950 . S
H1582 C1592 0.950 . S
H1583 C1594 0.950 . S
H1584 C1596 0.950 . S
H1585 C1597 0.950 . S
C1586 H1578 0.950 . S
C1586 C1587 1.386 . S
C1586 C1588 1.391 . S
C1587 C1586 1.386 . S
C1587 C1591 1.393 . S
C1588 H1580 0.950 . S
C1588 C1586 1.391 . S
C1588 C1589 1.400 . S
C1589 C1588 1.400 . S
C1589 C1590 1.398 . S
C1589 C1595 1.491 . S
C1590 H1581 0.950 . S
C1590 C1589 1.398 . S
C1590 C1591 1.391 . S
C1591 H1579 0.950 . S
C1591 C1587 1.393 . S
C1591 C1590 1.391 . S
C1592 H1582 0.950 . S
C1592 C1593 1.386 . S
C1592 C1594 1.391 . S
C1593 C1592 1.386 . S
C1593 C1597 1.393 . S
C1594 H1583 0.950 . S
C1594 C1592 1.391 . S
C1594 C1595 1.400 . S
C1595 C1589 1.491 . S
C1595 C1594 1.400 . S
C1595 C1596 1.398 . S
C1596 H1584 0.950 . S
C1596 C1595 1.398 . S
C1596 C1597 1.391 . S
C1597 H1585 0.950 . S
C1597 C1593 1.393 . S
C1597 C1596 1.391 . S
H1598 C1606 0.950 . S
H1599 C1611 0.950 . S
H1600 C1608 0.950 . S
H1601 C1610 0.950 . S
H1602 C1612 0.950 . S
H1603 C1614 0.950 . S
H1604 C1616 0.950 . S
H1605 C1617 0.950 . S
C1606 H1598 0.950 . S
C1606 C1607 1.386 . S
C1606 C1608 1.391 . S
C1607 C1606 1.386 . S
C1607 C1611 1.393 . S
C1608 H1600 0.950 . S
C1608 C1606 1.391 . S
C1608 C1609 1.400 . S
C1609 C1608 1.400 . S
C1609 C1610 1.398 . S
C1609 C1615 1.491 . S
C1610 H1601 0.950 . S
C1610 C1609 1.398 . S
C1610 C1611 1.391 . S
C1611 H1599 0.950 . S
C1611 C1607 1.393 . S
C1611 C1610 1.391 . S
C1612 H1602 0.950 . S
C1612 C1613 1.386 . S
C1612 C1614 1.391 . S
C1613 C1612 1.386 . S
C1613 C1617 1.393 . S
C1614 H1603 0.950 . S
C1614 C1612 1.391 . S
C1614 C1615 1.400 . S
C1615 C1609 1.491 . S
C1615 C1614 1.400 . S
C1615 C1616 1.398 . S
C1616 H1604 0.950 . S
C1616 C1615 1.398 . S
C1616 C1617 1.391 . S
C1617 H1605 0.950 . S
C1617 C1613 1.393 . S
C1617 C1616 1.391 . S
H1618 C1626 0.950 . S
H1619 C1631 0.950 . S
H1620 C1628 0.950 . S
H1621 C1630 0.950 . S
H1622 C1632 0.950 . S
H1623 C1634 0.950 . S
H1624 C1636 0.950 . S
H1625 C1637 0.950 . S
C1626 H1618 0.950 . S
C1626 C1627 1.386 . S
C1626 C1628 1.391 . S
C1627 C1626 1.386 . S
C1627 C1631 1.393 . S
C1628 H1620 0.950 . S
C1628 C1626 1.391 . S
C1628 C1629 1.400 . S
C1629 C1628 1.400 . S
C1629 C1630 1.398 . S
C1629 C1635 1.491 . S
C1630 H1621 0.950 . S
C1630 C1629 1.398 . S
C1630 C1631 1.391 . S
C1631 H1619 0.950 . S
C1631 C1627 1.393 . S
C1631 C1630 1.391 . S
C1632 H1622 0.950 . S
C1632 C1633 1.386 . S
C1632 C1634 1.391 . S
C1633 C1632 1.386 . S
C1633 C1637 1.393 . S
C1634 H1623 0.950 . S
C1634 C1632 1.391 . S
C1634 C1635 1.400 . S
C1635 C1629 1.491 . S
C1635 C1634 1.400 . S
C1635 C1636 1.398 . S
C1636 H1624 0.950 . S
C1636 C1635 1.398 . S
C1636 C1637 1.391 . S
C1637 H1625 0.950 . S
C1637 C1633 1.393 . S
C1637 C1636 1.391 . S
C567 C151 1.322 . S
C573 C207 1.339 . S
C587 C159 1.898 . S
C593 C247 2.054 . S
C607 C137 1.550 . S
C613 C286 1.619 . S
C627 C126 1.382 . S
C633 C246 1.455 1_556 S
C653 C287 1.828 . S
C647 C104 1.732 . S
C667 C118 1.084 . S
C673 C206 1.125 . S
C693 C217 1.624 . S
C687 C129 1.630 . S
C713 C257 1.770 . S
C707 C107 1.787 . S
C727 C115 1.296 . S
C733 C296 1.645 1_556 S
C747 C148 1.194 . S
C753 C256 1.441 . S
C767 C162 1.562 . S
C773 C297 1.544 . S
C793 C216 1.407 . S
C787 C140 1.425 . S
C813 C327 1.320 . S
C807 C19 1.297 . S
C827 C27 1.903 . S
C833 C367 2.053 . S
C847 C5 1.549 . S
C853 C406 1.635 . S
C867 C192 1.392 . S
C873 C366 1.458 . S
C887 C170 1.728 . S
C893 C407 1.828 . S
C907 C184 1.098 . S
C913 C326 1.130 . S
C927 C195 1.632 . S
C933 C337 1.593 . S
C947 C173 1.787 . S
C953 C377 1.755 . S
C973 C416 1.623 . S
C967 C181 1.291 . S
C987 C16 1.164 . S
C993 C376 1.456 . S
C1013 C417 1.544 . S
C1007 C30 1.563 . S
C1027 C8 1.434 . S
C1033 C336 1.421 . S
C1053 C447 1.321 . S
C1047 C85 1.297 . S
C1067 C93 1.896 . S
C1073 C487 2.052 . S
C1093 C526 1.629 . S
C1087 C71 1.540 . S
C1113 C486 1.456 . S
C1107 C60 1.369 . S
C1133 C527 1.832 . S
C1127 C38 1.724 . S
C1147 C52 1.079 . S
C1153 C446 1.105 . S
C1167 C63 1.629 . S
C1173 C457 1.586 . S
C1187 C41 1.785 . S
C1193 C497 1.752 . S
C1213 C536 1.623 . S
C1207 C49 1.284 . S
C1227 C82 1.212 . S
C1233 C496 1.462 . S
C1247 C96 1.563 . S
C1253 C537 1.543 . S
C1267 C74 1.427 . S
C1273 C456 1.414 . S
C1287 C172 1.498 . S
C1293 C203 1.537 . S
C1313 C243 1.656 . S
C1307 C183 1.555 . S
C1327 C194 1.536 . S
C1333 C293 1.551 . S
C1347 C73 1.787 . S
C1353 C253 1.812 . S
C1367 C84 1.295 . S
C1373 C283 1.359 . S
C1393 C213 1.473 . S
C1387 C95 1.426 . S
C1407 C40 1.500 . S
C1413 C323 1.528 . S
C1427 C51 1.550 . S
C1433 C363 1.654 . S
C1447 C62 1.520 . S
C1453 C413 1.554 . S
C1467 C139 1.796 . S
C1473 C373 1.819 . S
C1493 C403 1.355 . S
C1487 C150 1.272 . S
C1507 C161 1.426 . S
C1513 C333 1.472 . S
C1527 C106 1.500 . S
C1533 C443 1.528 . S
C1547 C117 1.531 . S
C1553 C483 1.647 . S
C1573 C533 1.551 . S
C1567 C128 1.536 . S
C1587 C7 1.780 . S
C1593 C493 1.817 . S
C1607 C18 1.269 . S
C1613 C523 1.354 . S
C1627 C29 1.419 . S
C1633 C453 1.471 . S
