# Generated by pormake.
# Topology zzz, (3,6)-cn, num edge types: 1
# Building blocks:
#     Node 0, Type 0, BuildingBlock: OLANEW_clean_sbu_2, # of connection points: 3
#     Node 1, Type 0, BuildingBlock: OLANEW_clean_sbu_2, # of connection points: 3
#     Node 2, Type 0, BuildingBlock: OLANEW_clean_sbu_2, # of connection points: 3
#     Node 3, Type 0, BuildingBlock: OLANEW_clean_sbu_2, # of connection points: 3
#     Node 4, Type 0, BuildingBlock: OLANEW_clean_sbu_2, # of connection points: 3
#     Node 5, Type 0, BuildingBlock: OLANEW_clean_sbu_2, # of connection points: 3
#     Node 6, Type 0, BuildingBlock: OLANEW_clean_sbu_2, # of connection points: 3
#     Node 7, Type 0, BuildingBlock: OLANEW_clean_sbu_2, # of connection points: 3
#     Node 8, Type 1, BuildingBlock: BETDIP_clean_sbu_0, # of connection points: 6
#     Node 9, Type 1, BuildingBlock: BETDIP_clean_sbu_0, # of connection points: 6
#     Node 10, Type 1, BuildingBlock: BETDIP_clean_sbu_0, # of connection points: 6
#     Node 11, Type 1, BuildingBlock: BETDIP_clean_sbu_0, # of connection points: 6
#     Edge 12, Type (0, 1), BuildingBlock: XUDNAN_clean_linker_2, # of connection points: 2
#     Edge 13, Type (0, 1), BuildingBlock: XUDNAN_clean_linker_2, # of connection points: 2
#     Edge 14, Type (0, 1), BuildingBlock: XUDNAN_clean_linker_2, # of connection points: 2
#     Edge 15, Type (0, 1), BuildingBlock: XUDNAN_clean_linker_2, # of connection points: 2
#     Edge 16, Type (0, 1), BuildingBlock: XUDNAN_clean_linker_2, # of connection points: 2
#     Edge 17, Type (0, 1), BuildingBlock: XUDNAN_clean_linker_2, # of connection points: 2
#     Edge 18, Type (0, 1), BuildingBlock: XUDNAN_clean_linker_2, # of connection points: 2
#     Edge 19, Type (0, 1), BuildingBlock: XUDNAN_clean_linker_2, # of connection points: 2
#     Edge 20, Type (0, 1), BuildingBlock: XUDNAN_clean_linker_2, # of connection points: 2
#     Edge 21, Type (0, 1), BuildingBlock: XUDNAN_clean_linker_2, # of connection points: 2
#     Edge 22, Type (0, 1), BuildingBlock: XUDNAN_clean_linker_2, # of connection points: 2
#     Edge 23, Type (0, 1), BuildingBlock: XUDNAN_clean_linker_2, # of connection points: 2
#     Edge 24, Type (0, 1), BuildingBlock: XUDNAN_clean_linker_2, # of connection points: 2
#     Edge 25, Type (0, 1), BuildingBlock: XUDNAN_clean_linker_2, # of connection points: 2
#     Edge 26, Type (0, 1), BuildingBlock: XUDNAN_clean_linker_2, # of connection points: 2
#     Edge 27, Type (0, 1), BuildingBlock: XUDNAN_clean_linker_2, # of connection points: 2
#     Edge 28, Type (0, 1), BuildingBlock: XUDNAN_clean_linker_2, # of connection points: 2
#     Edge 29, Type (0, 1), BuildingBlock: XUDNAN_clean_linker_2, # of connection points: 2
#     Edge 30, Type (0, 1), BuildingBlock: XUDNAN_clean_linker_2, # of connection points: 2
#     Edge 31, Type (0, 1), BuildingBlock: XUDNAN_clean_linker_2, # of connection points: 2
#     Edge 32, Type (0, 1), BuildingBlock: XUDNAN_clean_linker_2, # of connection points: 2
#     Edge 33, Type (0, 1), BuildingBlock: XUDNAN_clean_linker_2, # of connection points: 2
#     Edge 34, Type (0, 1), BuildingBlock: XUDNAN_clean_linker_2, # of connection points: 2
#     Edge 35, Type (0, 1), BuildingBlock: XUDNAN_clean_linker_2, # of connection points: 2
# Relax obj value: 0.242
# Max RMSD: 0.169
# Mean RMSD: 0.159
data_MOF--net-zzz--node1-OLANEW_clean_sbu_2--node2-BETDIP_clean_sbu_0--edge1-XUDNAN_clean_linker_2
_symmetry_space_group_name_H-M    P1
_symmetry_Int_Tables_number       1
_symmetry_cell_setting            triclinic
loop_
_symmetry_equiv_pos_as_xyz
'x, y, z'
_cell_length_a     56.181295
_cell_length_b     56.205361
_cell_length_c     15.380401
_cell_angle_alpha  89.714648
_cell_angle_beta   89.884056
_cell_angle_gamma 89.959588
loop_
_atom_site_label
_atom_site_type_symbol
_atom_site_fract_x
_atom_site_fract_y
_atom_site_fract_z
_atom_type_partial_charge
O0 O 0.71425 0.55213 0.12236 0.0
Cd1 Cd 0.67592 0.56275 0.1885 0.0
O2 O 0.72919 0.55187 0.25345 0.0
Cd3 Cd 0.75677 0.55067 0.35294 0.0
O4 O 0.78418 0.54491 0.45058 0.0
C5 C 0.80432 0.55485 0.44171 0.0
O6 O 0.80787 0.5693 0.37554 0.0
C7 C 0.73212 0.54932 0.17196 0.0
C8 C 0.63829 0.56319 0.07017 0.0
O9 O 0.65157 0.58151 0.0803 0.0
O10 O 0.64285 0.5446 0.11582 0.0
O11 O 0.93478 0.7206 0.232 0.0
Cd12 Cd 0.91473 0.68407 0.27861 0.0
O13 O 0.95681 0.71594 0.34807 0.0
Cd14 Cd 0.98268 0.7296 0.44031 0.0
O15 O 0.99982 0.76231 0.47985 0.0
C16 C 0.99357 0.77323 0.54824 0.0
O17 O 0.97794 0.76336 0.60085 0.0
C18 C 0.95171 0.72774 0.27971 0.0
C19 C 0.92429 0.64728 0.16305 0.0
O20 O 0.90626 0.66099 0.1529 0.0
O21 O 0.93776 0.65075 0.22893 0.0
O22 O 0.76624 0.90234 0.14285 0.0
Cd23 Cd 0.80088 0.87733 0.17547 0.0
O24 O 0.76797 0.91734 0.27443 0.0
Cd25 Cd 0.75114 0.93969 0.37304 0.0
O26 O 0.72489 0.95997 0.44698 0.0
C27 C 0.70338 0.95946 0.42148 0.0
O28 O 0.6979 0.9466 0.35332 0.0
C29 C 0.75823 0.9165 0.20001 0.0
C30 C 0.84351 0.89857 0.12254 0.0
O31 O 0.83181 0.88502 0.07123 0.0
O32 O 0.83506 0.90204 0.19892 0.0
O33 O 0.58328 0.76775 0.0752 0.0
Cd34 Cd 0.60633 0.80306 0.11424 0.0
O35 O 0.56783 0.7716 0.20517 0.0
Cd36 Cd 0.5466 0.7569 0.3111 0.0
O37 O 0.52773 0.7277 0.3733 0.0
C38 C 0.5204 0.72843 0.4513 0.0
O39 O 0.52385 0.7478 0.49709 0.0
C40 C 0.56901 0.76043 0.13356 0.0
C41 C 0.59396 0.84331 0.01771 0.0
O42 O 0.61094 0.82958 0.99357 0.0
O43 O 0.58267 0.83794 0.08759 0.0
O44 O 0.25166 0.39691 0.23742 0.0
Cd45 Cd 0.29366 0.3862 0.21554 0.0
O46 O 0.25003 0.41249 0.10646 0.0
Cd47 Cd 0.23392 0.43286 0.99892 0.0
O48 O 0.23522 0.45264 0.8759 0.0
C49 C 0.21985 0.46169 0.82476 0.0
O50 O 0.22754 0.47172 0.75264 0.0
C51 C 0.23977 0.4072 0.17779 0.0
C52 C 0.3254 0.4177 0.29439 0.0
O53 O 0.3175 0.42144 0.21738 0.0
O54 O 0.31824 0.39901 0.3347 0.0
O55 O 0.10034 0.25695 0.39324 0.0
Cd56 Cd 0.12373 0.29284 0.36474 0.0
O57 O 0.11702 0.2355 0.29034 0.0
Cd58 Cd 0.11586 0.20359 0.20934 0.0
O59 O 0.10187 0.17341 0.1365 0.0
C60 C 0.08967 0.17784 0.06885 0.0
O61 O 0.08686 0.2001 0.0444 0.0
C62 C 0.10197 0.23752 0.3517 0.0
C63 C 0.09773 0.33256 0.41864 0.0
O64 O 0.09607 0.32476 0.34072 0.0
O65 O 0.11206 0.32188 0.47055 0.0
O66 O 0.22968 0.10272 0.35599 0.0
Cd67 Cd 0.19205 0.12035 0.30654 0.0
O68 O 0.24635 0.10063 0.22632 0.0
Cd69 Cd 0.27582 0.08833 0.14303 0.0
O70 O 0.30717 0.07324 0.07758 0.0
C71 C 0.30517 0.06269 0.00507 0.0
O72 O 0.28403 0.06114 0.96919 0.0
C73 C 0.24734 0.0973 0.30814 0.0
C74 C 0.15322 0.09504 0.37346 0.0
O75 O 0.16196 0.09031 0.29846 0.0
O76 O 0.16262 0.11204 0.41672 0.0
O77 O 0.41376 0.24854 0.27234 0.0
Cd78 Cd 0.41308 0.20658 0.22946 0.0
O79 O 0.40073 0.2569 0.14113 0.0
Cd80 Cd 0.39455 0.28462 0.04413 0.0
O81 O 0.40325 0.3165 0.96949 0.0
C82 C 0.41116 0.31484 0.89233 0.0
O83 O 0.41285 0.29372 0.85656 0.0
C84 C 0.40715 0.26376 0.21602 0.0
C85 C 0.42647 0.17471 0.36042 0.0
O86 O 0.44192 0.18324 0.30731 0.0
O87 O 0.4048 0.18152 0.35223 0.0
Tb88 Tb 0.02366 0.97659 0.85719 0.0
Tb89 Tb 0.00175 0.99503 0.68785 0.0
C90 C 0.03025 0.95401 0.99649 0.0
C91 C 0.0239 0.93021 0.02955 0.0
C92 C 0.0067 0.91622 0.98786 0.0
C93 C 0.00141 0.89336 0.01897 0.0
C94 C 0.01314 0.88415 0.09271 0.0
C95 C 0.02998 0.89856 0.1351 0.0
C96 C 0.03535 0.9213 0.10357 0.0
C97 C 0.05378 0.99308 0.74026 0.0
C98 C 0.01036 0.94105 0.70167 0.0
C99 C 0.99388 0.01852 0.55223 0.0
C100 C 0.00076 0.04289 0.52602 0.0
C101 C 0.01732 0.04634 0.45858 0.0
C102 C 0.02531 0.0692 0.43742 0.0
C103 C 0.01679 0.08908 0.48315 0.0
C104 C 1.00011 0.08559 0.55022 0.0
C105 C 0.99213 0.06278 0.57125 0.0
C106 C 0.97179 0.9775 0.8023 0.0
C107 C 0.01993 0.03112 0.83578 0.0
O108 O 0.01244 0.96869 0.98392 0.0
O109 O 0.04574 0.95459 0.93268 0.0
O110 O 0.03512 0.98144 0.72722 0.0
O111 O 0.05739 0.99453 0.8235 0.0
O112 O 0.01322 0.94416 0.78653 0.0
O113 O 0.00827 0.95906 0.64677 0.0
O114 O 0.01147 0.00338 0.55972 0.0
O115 O 0.97843 0.01652 0.61593 0.0
O116 O 0.9899 0.98989 0.81826 0.0
O117 O 0.96886 0.97597 0.71886 0.0
O118 O 0.01444 0.02722 0.75324 0.0
O119 O 0.02176 0.01369 0.89347 0.0
H120 H 0.99745 0.92289 0.93106 0.0
H121 H 0.98848 0.88277 0.98421 0.0
H122 H 0.03898 0.89233 0.19309 0.0
H123 H 0.04852 0.93193 0.13702 0.0
H124 H 0.02433 0.03129 0.42295 0.0
H125 H 0.03802 0.07131 0.38491 0.0
H126 H 0.99354 0.10045 0.58787 0.0
H127 H 0.97955 0.06078 0.62424 0.0
Tb128 Tb 0.51611 0.01858 0.82619 0.0
Tb129 Tb 0.50156 0.01466 0.6357 0.0
C130 C 0.53602 0.01268 0.97058 0.0
C131 C 0.56013 0.00602 0.99963 0.0
C132 C 0.56293 0.98793 0.06195 0.0
C133 C 0.58567 0.98093 0.08877 0.0
C134 C 0.60594 0.99228 0.05479 0.0
C135 C 0.60312 0.01056 0.99307 0.0
C136 C 0.58043 0.01728 0.9653 0.0
C137 C 0.49987 0.05784 0.75382 0.0
C138 C 0.55527 0.01937 0.67186 0.0
C139 C 0.47964 0.02065 0.49616 0.0
C140 C 0.45455 0.02735 0.47983 0.0
C141 C 0.44715 0.05117 0.48622 0.0
C142 C 0.42315 0.0572 0.47862 0.0
C143 C 0.40601 0.03946 0.46514 0.0
C144 C 0.41334 0.01568 0.45737 0.0
C145 C 0.43741 0.0097 0.464 0.0
C146 C 0.51877 0.97562 0.70479 0.0
C147 C 0.46223 0.0141 0.7883 0.0
O148 O 0.52391 0.99595 0.93135 0.0
O149 O 0.53377 0.03347 0.9324 0.0
O150 O 0.51289 0.04239 0.71872 0.0
O151 O 0.49665 0.05224 0.83491 0.0
O152 O 0.55017 0.0161 0.75549 0.0
O153 O 0.53864 0.02236 0.61202 0.0
O154 O 0.49329 0.03704 0.53068 0.0
O155 O 0.48291 0.99967 0.53187 0.0
O156 O 0.50554 0.99059 0.74242 0.0
O157 O 0.52081 0.9813 0.62327 0.0
O158 O 0.4677 0.01733 0.70538 0.0
O159 O 0.47863 0.01144 0.84915 0.0
H160 H 0.5475 0.97917 0.08968 0.0
H161 H 0.58742 0.96689 0.13684 0.0
H162 H 0.61851 0.01943 0.96544 0.0
H163 H 0.57881 0.03127 0.91702 0.0
H164 H 0.45982 0.06512 0.49901 0.0
H165 H 0.41794 0.07567 0.48528 0.0
H166 H 0.40047 0.00171 0.44577 0.0
H167 H 0.44253 0.99119 0.45844 0.0
Tb168 Tb 0.46735 0.52335 0.75708 0.0
Tb169 Tb 0.47499 0.51547 0.56145 0.0
C170 C 0.47251 0.53781 0.91001 0.0
C171 C 0.48292 0.55958 0.94657 0.0
C172 C 0.4986 0.57363 0.89708 0.0
C173 C 0.50679 0.59535 0.92904 0.0
C174 C 0.49954 0.60341 0.01147 0.0
C175 C 0.48457 0.58877 0.06218 0.0
C176 C 0.47627 0.5671 0.02979 0.0
C177 C 0.42898 0.5145 0.66497 0.0
C178 C 0.4734 0.56751 0.62403 0.0
C179 C 0.47041 0.49985 0.41021 0.0
C180 C 0.46192 0.47651 0.37902 0.0
C181 C 0.44198 0.47515 0.32442 0.0
C182 C 0.43256 0.45301 0.30115 0.0
C183 C 0.44278 0.43175 0.33279 0.0
C184 C 0.46285 0.43332 0.38703 0.0
C185 C 0.47241 0.45536 0.40908 0.0
C186 C 0.51329 0.52535 0.65126 0.0
C187 C 0.46736 0.47137 0.69505 0.0
O188 O 0.4875 0.52343 0.8714 0.0
O189 O 0.4529 0.54084 0.86526 0.0
O190 O 0.44671 0.52667 0.6426 0.0
O191 O 0.43153 0.50786 0.74549 0.0
O192 O 0.4749 0.55889 0.70428 0.0
O193 O 0.47051 0.55369 0.55543 0.0
O194 O 0.45431 0.51306 0.44834 0.0
O195 O 0.49075 0.49994 0.45198 0.0
O196 O 0.49601 0.51269 0.67587 0.0
O197 O 0.51034 0.53139 0.57041 0.0
O198 O 0.46702 0.47983 0.61427 0.0
O199 O 0.47023 0.48518 0.76344 0.0
H200 H 0.50408 0.56811 0.83281 0.0
H201 H 0.51808 0.60618 0.88769 0.0
H202 H 0.47902 0.59417 0.1266 0.0
H203 H 0.4643 0.55641 0.06912 0.0
H204 H 0.43347 0.49122 0.30081 0.0
H205 H 0.41729 0.45263 0.25839 0.0
H206 H 0.47091 0.41755 0.41489 0.0
H207 H 0.48768 0.45575 0.45191 0.0
Tb208 Tb 0.9925 0.48542 0.84277 0.0
Tb209 Tb 0.00884 0.49877 0.65863 0.0
C210 C 0.97001 0.48496 0.98354 0.0
C211 C 0.94584 0.4938 0.00381 0.0
C212 C 0.93806 0.51582 0.97118 0.0
C213 C 0.91448 0.52306 0.98155 0.0
C214 C 0.8978 0.50813 0.02286 0.0
C215 C 0.90572 0.48619 0.05698 0.0
C216 C 0.92953 0.47916 0.04775 0.0
C217 C 0.00312 0.44972 0.73972 0.0
C218 C 0.95469 0.50013 0.69519 0.0
C219 C 0.02724 0.49902 0.50992 0.0
C220 C 0.04699 0.48683 0.46678 0.0
C221 C 0.0537 0.494 0.38306 0.0
C222 C 0.07231 0.4825 0.34027 0.0
C223 C 0.08449 0.4636 0.38069 0.0
C224 C 0.07759 0.45636 0.46471 0.0
C225 C 0.05898 0.46793 0.50757 0.0
C226 C 0.99714 0.53502 0.75718 0.0
C227 C 0.04659 0.48403 0.80702 0.0
O228 O 0.98614 0.50106 0.96424 0.0
O229 O 0.97066 0.46681 0.93051 0.0
O230 O 0.99292 0.4688 0.71883 0.0
O231 O 0.00652 0.44939 0.8232 0.0
O232 O 0.95991 0.49763 0.77859 0.0
O233 O 0.97097 0.49857 0.6334 0.0
O234 O 0.00926 0.48547 0.53207 0.0
O235 O 0.03309 0.51408 0.57103 0.0
O236 O 0.00727 0.5161 0.78157 0.0
O237 O 0.9956 0.53493 0.67317 0.0
O238 O 0.04104 0.48532 0.72319 0.0
O239 O 0.03042 0.48658 0.86919 0.0
H240 H 0.95002 0.5272 0.93533 0.0
H241 H 0.90934 0.54029 0.95598 0.0
H242 H 0.8934 0.47405 0.08825 0.0
H243 H 0.93501 0.46191 0.0723 0.0
H244 H 0.04458 0.50857 0.35086 0.0
H245 H 0.07746 0.48869 0.27613 0.0
H246 H 0.08646 0.44166 0.49689 0.0
H247 H 0.0539 0.4621 0.5722 0.0
H248 H 0.13576 0.09558 0.54063 0.0
H249 H 0.12716 0.06094 0.29101 0.0
H250 H 0.0983 0.03311 0.35661 0.0
H251 H 0.13578 0.04591 0.66902 0.0
H252 H 0.11845 0.05773 0.75768 0.0
H253 H 0.13552 0.07747 0.68959 0.0
H254 H 0.09753 0.10195 0.65418 0.0
H255 H 0.08043 0.08244 0.72366 0.0
H256 H 0.07166 0.08699 0.61216 0.0
H257 H 0.07467 0.00608 0.45143 0.0
H258 H 0.05584 0.98263 0.56906 0.0
H259 H 0.07915 0.0346 0.75807 0.0
C260 C 0.12737 0.08249 0.49934 0.0
C261 C 0.13378 0.08039 0.41068 0.0
C262 C 0.1226 0.06287 0.35906 0.0
C263 C 0.10609 0.04704 0.39565 0.0
C264 C 0.10074 0.04911 0.48375 0.0
C265 C 0.11071 0.06662 0.5348 0.0
C266 C 0.10294 0.06399 0.62897 0.0
C267 C 0.12446 0.0611 0.68985 0.0
C268 C 0.08721 0.08509 0.65634 0.0
C269 C 0.0885 0.04128 0.62378 0.0
C270 C 0.087 0.03336 0.53899 0.0
C271 C 0.0754 0.01229 0.51784 0.0
C272 C 0.06487 0.99907 0.58499 0.0
C273 C 0.0661 0.00686 0.67213 0.0
C274 C 0.07811 0.02821 0.69185 0.0
H275 H 0.47029 0.15408 0.38617 0.0
H276 H 0.39814 0.15572 0.48796 0.0
H277 H 0.4094 0.12648 0.60086 0.0
H278 H 0.47966 0.09289 0.41149 0.0
H279 H 0.51014 0.09419 0.44761 0.0
H280 H 0.49844 0.11702 0.37714 0.0
H281 H 0.50909 0.15029 0.48281 0.0
H282 H 0.52263 0.12851 0.55344 0.0
H283 H 0.50002 0.14819 0.59506 0.0
H284 H 0.42864 0.09803 0.70514 0.0
H285 H 0.454 0.06997 0.78768 0.0
H286 H 0.51287 0.08467 0.61284 0.0
C287 C 0.45687 0.1484 0.43245 0.0
C288 C 0.43336 0.15733 0.42856 0.0
C289 C 0.41629 0.14924 0.48988 0.0
C290 C 0.42252 0.13265 0.55434 0.0
C291 C 0.44585 0.12428 0.5565 0.0
C292 C 0.46275 0.13176 0.49697 0.0
C293 C 0.48645 0.11954 0.51243 0.0
C294 C 0.49411 0.10502 0.43256 0.0
C295 C 0.50568 0.13772 0.53743 0.0
C296 C 0.48009 0.10371 0.58906 0.0
C297 C 0.45671 0.10709 0.61448 0.0
C298 C 0.44694 0.09516 0.6857 0.0
C299 C 0.46145 0.07933 0.73224 0.0
C300 C 0.48523 0.0752 0.70601 0.0
C301 C 0.49464 0.08747 0.63347 0.0
H302 H 0.34886 0.41301 0.45079 0.0
H303 H 0.33908 0.46115 0.23196 0.0
H304 H 0.36453 0.49083 0.3037 0.0
H305 H 0.3471 0.45579 0.61712 0.0
H306 H 0.37023 0.44255 0.68252 0.0
H307 H 0.35245 0.42418 0.61244 0.0
H308 H 0.39065 0.40858 0.53492 0.0
H309 H 0.4081 0.42638 0.60811 0.0
H310 H 0.41182 0.42975 0.49236 0.0
H311 H 0.38869 0.51624 0.40175 0.0
H312 H 0.41302 0.53483 0.51657 0.0
H313 H 0.408 0.47036 0.67154 0.0
C314 C 0.35218 0.42975 0.41778 0.0
C315 C 0.3418 0.43483 0.33597 0.0
C316 C 0.34675 0.45686 0.29465 0.0
C317 C 0.36119 0.47385 0.33487 0.0
C318 C 0.37075 0.46848 0.41607 0.0
C319 C 0.36678 0.44687 0.4567 0.0
C320 C 0.37914 0.44576 0.54429 0.0
C321 C 0.36115 0.44185 0.61846 0.0
C322 C 0.39858 0.42647 0.54487 0.0
C323 C 0.38994 0.47045 0.5477 0.0
C324 C 0.38499 0.48316 0.47268 0.0
C325 C 0.39282 0.50643 0.46053 0.0
C326 C 0.4065 0.51686 0.52607 0.0
C327 C 0.41227 0.50401 0.60239 0.0
C328 C 0.4036 0.48063 0.61397 0.0
H329 H 0.09648 0.35232 0.58139 0.0
H330 H 0.06487 0.3579 0.32471 0.0
H331 H 0.03772 0.38916 0.37826 0.0
H332 H 0.04378 0.35857 0.70222 0.0
H333 H 0.05678 0.37627 0.7872 0.0
H334 H 0.07497 0.35561 0.72755 0.0
H335 H 0.10398 0.3897 0.68587 0.0
H336 H 0.08594 0.41058 0.74548 0.0
H337 H 0.09249 0.41587 0.63233 0.0
H338 H 0.0121 0.41778 0.46244 0.0
H339 H 0.99147 0.44325 0.56971 0.0
H340 H 0.04025 0.41943 0.7701 0.0
C341 C 0.08404 0.36028 0.5361 0.0
C342 C 0.08277 0.3526 0.44886 0.0
C343 C 0.06618 0.36347 0.39183 0.0
C344 C 0.05067 0.38124 0.42162 0.0
C345 C 0.05204 0.38801 0.50848 0.0
C346 C 0.06846 0.37804 0.5647 0.0
C347 C 0.06594 0.38811 0.65542 0.0
C348 C 0.06001 0.36847 0.72199 0.0
C349 C 0.08843 0.40187 0.68138 0.0
C350 C 0.04511 0.40478 0.64206 0.0
C351 C 0.03744 0.40461 0.55672 0.0
C352 C 0.01813 0.41825 0.52918 0.0
C353 C 0.00658 0.43269 0.59032 0.0
C354 C 0.01447 0.43341 0.67752 0.0
C355 C 0.03384 0.41913 0.70374 0.0
H356 H 0.86536 0.89531 0.96332 0.0
H357 H 0.87183 0.92872 0.21604 0.0
H358 H 0.90757 0.95023 0.16501 0.0
H359 H 0.93021 0.88982 0.92066 0.0
H360 H 0.92664 0.89612 0.80644 0.0
H361 H 0.90317 0.88139 0.86593 0.0
H362 H 0.87345 0.91413 0.81658 0.0
H363 H 0.89683 0.92894 0.7575 0.0
H364 H 0.8801 0.94489 0.83866 0.0
H365 H 0.94078 0.97045 0.08296 0.0
H366 H 0.96836 0.98821 0.97498 0.0
H367 H 0.94 0.94175 0.77638 0.0
C368 C 0.87448 0.90687 0.00842 0.0
C369 C 0.86579 0.91031 0.09374 0.0
C370 C 0.87816 0.92576 0.15043 0.0
C371 C 0.89854 0.938 0.12214 0.0
C372 C 0.90642 0.93448 0.03721 0.0
C373 C 0.89485 0.91918 0.9813 0.0
C374 C 0.90611 0.91958 0.89174 0.0
C375 C 0.91719 0.89528 0.86995 0.0
C376 C 0.88804 0.92736 0.82205 0.0
C377 C 0.92516 0.93822 0.90501 0.0
C378 C 0.92538 0.94627 0.98976 0.0
C379 C 0.94095 0.96407 0.01669 0.0
C380 C 0.95657 0.97401 0.95513 0.0
C381 C 0.9563 0.96623 0.86785 0.0
C382 C 0.94053 0.948 0.84286 0.0
H383 H 0.55541 0.87293 0.03956 0.0
H384 H 0.61787 0.86168 0.87798 0.0
H385 H 0.60661 0.89621 0.78757 0.0
H386 H 0.51607 0.88858 0.86903 0.0
H387 H 0.50033 0.91093 0.93013 0.0
H388 H 0.51411 0.88629 0.98579 0.0
H389 H 0.53729 0.91581 0.08094 0.0
H390 H 0.52474 0.941 0.02418 0.0
H391 H 0.55662 0.93739 0.03052 0.0
H392 H 0.58738 0.9296 0.70848 0.0
H393 H 0.56137 0.96041 0.64536 0.0
H394 H 0.51144 0.95116 0.85842 0.0
C395 C 0.56685 0.87788 0.98568 0.0
C396 C 0.58753 0.86459 0.96581 0.0
C397 C 0.60192 0.87154 0.89437 0.0
C398 C 0.59573 0.89118 0.84278 0.0
C399 C 0.57511 0.90372 0.86353 0.0
C400 C 0.56088 0.89742 0.9332 0.0
C401 C 0.53916 0.9134 0.93903 0.0
C402 C 0.51606 0.89893 0.93045 0.0
C403 C 0.53945 0.92777 0.02372 0.0
C404 C 0.54315 0.92931 0.86045 0.0
C405 C 0.5641 0.92344 0.8183 0.0
C406 C 0.57108 0.93455 0.74137 0.0
C407 C 0.55612 0.95193 0.70586 0.0
C408 C 0.53451 0.95817 0.74744 0.0
C409 C 0.52808 0.94695 0.82631 0.0
H410 H 0.60277 0.53012 0.05137 0.0
H411 H 0.62955 0.59649 0.94389 0.0
H412 H 0.59854 0.59535 0.83049 0.0
H413 H 0.5904 0.50175 0.85714 0.0
H414 H 0.56314 0.48782 0.89262 0.0
H415 H 0.58581 0.49496 0.97066 0.0
H416 H 0.55529 0.51974 0.05917 0.0
H417 H 0.53247 0.51252 0.98142 0.0
H418 H 0.53885 0.54317 0.00582 0.0
H419 H 0.56751 0.5849 0.72034 0.0
H420 H 0.53711 0.56682 0.62533 0.0
H421 H 0.52984 0.50779 0.80592 0.0
C422 C 0.60193 0.54457 0.0046 0.0
C423 C 0.61866 0.56333 0.00615 0.0
C424 C 0.61693 0.58193 0.94398 0.0
C425 C 0.59935 0.58147 0.8794 0.0
C426 C 0.58342 0.56248 0.87872 0.0
C427 C 0.58431 0.54454 0.94039 0.0
C428 C 0.56555 0.52577 0.92337 0.0
C429 C 0.57691 0.50112 0.91014 0.0
C430 C 0.54694 0.52528 0.99682 0.0
C431 C 0.55487 0.53529 0.83993 0.0
C432 C 0.5652 0.55667 0.81596 0.0
C433 C 0.55908 0.56833 0.73904 0.0
C434 C 0.54197 0.55786 0.68524 0.0
C435 C 0.53116 0.53603 0.70887 0.0
C436 C 0.53762 0.52469 0.78729 0.0
H437 H 0.9616 0.61544 0.16431 0.0
H438 H 0.89982 0.6374 0.01457 0.0
H439 H 0.91076 0.60906 0.89967 0.0
H440 H 0.00124 0.61018 0.99118 0.0
H441 H 0.01629 0.58393 0.03055 0.0
H442 H 0.00252 0.60403 0.10626 0.0
H443 H 0.97761 0.56939 0.17025 0.0
H444 H 0.99119 0.54902 0.09471 0.0
H445 H 0.95926 0.5518 0.0993 0.0
H446 H 0.93005 0.58193 0.79547 0.0
H447 H 0.95574 0.55552 0.70938 0.0
H448 H 0.0049 0.54961 0.9257 0.0
C449 C 0.95017 0.61401 0.10798 0.0
C450 C 0.92987 0.6287 0.09834 0.0
C451 C 0.91544 0.62636 0.02347 0.0
C452 C 0.92148 0.61029 0.95785 0.0
C453 C 0.94187 0.5965 0.9684 0.0
C454 C 0.95588 0.5979 0.04187 0.0
C455 C 0.97738 0.58164 0.03485 0.0
C456 C 0.00073 0.5958 0.04106 0.0
C457 C 0.97629 0.56178 0.10388 0.0
C458 C 0.97378 0.57173 0.94438 0.0
C459 C 0.95301 0.58042 0.90788 0.0
C460 C 0.94618 0.57477 0.82365 0.0
C461 C 0.96096 0.55985 0.7752 0.0
C462 C 0.98215 0.55047 0.8114 0.0
C463 C 0.98863 0.55638 0.89719 0.0
H464 H 0.11206 0.18993 0.36488 0.0
H465 H 0.05469 0.24124 0.38606 0.0
H466 H 0.02639 0.20863 0.41807 0.0
H467 H 0.07831 0.14237 0.2647 0.0
H468 H 0.09312 0.11921 0.32542 0.0
H469 H 0.10856 0.1465 0.30072 0.0
H470 H 0.11695 0.15196 0.46468 0.0
H471 H 0.10068 0.12528 0.49101 0.0
H472 H 0.09242 0.15303 0.54042 0.0
H473 H 0.00439 0.17069 0.44516 0.0
H474 H 0.9903 0.12992 0.47491 0.0
H475 H 0.06238 0.10331 0.44273 0.0
C476 C 0.09346 0.19419 0.37498 0.0
C477 C 0.08535 0.21796 0.3715 0.0
C478 C 0.06111 0.22307 0.38807 0.0
C479 C 0.04495 0.2047 0.40587 0.0
C480 C 0.05343 0.1814 0.40796 0.0
C481 C 0.07714 0.17607 0.39375 0.0
C482 C 0.08178 0.14963 0.40385 0.0
C483 C 0.091 0.13879 0.31857 0.0
C484 C 0.09899 0.14471 0.47948 0.0
C485 C 0.05693 0.14093 0.42491 0.0
C486 C 0.04086 0.15954 0.42663 0.0
C487 C 0.01683 0.15597 0.44453 0.0
C488 C 0.00903 0.13277 0.46182 0.0
C489 C 0.02523 0.11342 0.46163 0.0
C490 C 0.04949 0.11765 0.44243 0.0
H491 H 0.29373 0.10814 0.27291 0.0
H492 H 0.24898 0.06304 0.4338 0.0
H493 H 0.28492 0.04404 0.49653 0.0
H494 H 0.33787 0.06546 0.22312 0.0
H495 H 0.3626 0.08577 0.22938 0.0
H496 H 0.33361 0.09669 0.19993 0.0
H497 H 0.33471 0.12699 0.32575 0.0
H498 H 0.3639 0.1165 0.35555 0.0
H499 H 0.34029 0.11668 0.43502 0.0
H500 H 0.32572 0.02823 0.53365 0.0
H501 H 0.36846 0.01828 0.54836 0.0
H502 H 0.38626 0.07469 0.36616 0.0
C503 C 0.29155 0.09416 0.32096 0.0
C504 C 0.26872 0.08665 0.34761 0.0
C505 C 0.26643 0.06886 0.41246 0.0
C506 C 0.28669 0.05801 0.44825 0.0
C507 C 0.30901 0.06553 0.41948 0.0
C508 C 0.31156 0.0834 0.35806 0.0
C509 C 0.33752 0.08824 0.33834 0.0
C510 C 0.34322 0.08376 0.24196 0.0
C511 C 0.34451 0.11361 0.3653 0.0
C512 C 0.34915 0.06985 0.39632 0.0
C513 C 0.33244 0.05695 0.44283 0.0
C514 C 0.33896 0.03834 0.49809 0.0
C515 C 0.3632 0.03273 0.50567 0.0
C516 C 0.38054 0.04577 0.45851 0.0
C517 C 0.37336 0.06466 0.4038 0.0
H518 H 0.44562 0.29103 0.25751 0.0
H519 H 0.36954 0.29395 0.21412 0.0
H520 H 0.3699 0.33745 0.24035 0.0
H521 H 0.44963 0.33587 0.42403 0.0
H522 H 0.47696 0.34829 0.38238 0.0
H523 H 0.4703 0.31732 0.36543 0.0
H524 H 0.47538 0.32327 0.19892 0.0
H525 H 0.482 0.35425 0.21556 0.0
H526 H 0.45811 0.34582 0.14403 0.0
H527 H 0.37873 0.38057 0.27566 0.0
H528 H 0.39556 0.42008 0.3073 0.0
H529 H 0.46653 0.38926 0.31041 0.0
C530 C 0.42906 0.30087 0.25481 0.0
C531 C 0.40747 0.28933 0.23557 0.0
C532 C 0.38616 0.30266 0.22992 0.0
C533 C 0.38622 0.32728 0.24458 0.0
C534 C 0.40785 0.33828 0.26301 0.0
C535 C 0.42892 0.32555 0.26706 0.0
C536 C 0.44991 0.3418 0.28291 0.0
C537 C 0.46243 0.33544 0.3688 0.0
C538 C 0.46737 0.34125 0.20575 0.0
C539 C 0.43733 0.36556 0.2887 0.0
C540 C 0.41307 0.36319 0.27774 0.0
C541 C 0.39776 0.38266 0.28319 0.0
C542 C 0.40755 0.40513 0.30053 0.0
C543 C 0.43246 0.40804 0.31126 0.0
C544 C 0.44741 0.38784 0.30415 0.0
H545 H 0.21863 0.41953 0.33121 0.0
H546 H 0.20382 0.40755 0.05822 0.0
H547 H 0.16191 0.41901 0.08174 0.0
H548 H 0.16174 0.39684 0.41219 0.0
H549 H 0.15967 0.41861 0.4975 0.0
H550 H 0.18843 0.40874 0.46016 0.0
H551 H 0.20054 0.45238 0.4276 0.0
H552 H 0.17191 0.46236 0.46542 0.0
H553 H 0.182 0.47038 0.35786 0.0
H554 H 0.12228 0.43384 0.13311 0.0
H555 H 0.08727 0.45011 0.21007 0.0
H556 H 0.12772 0.45173 0.45009 0.0
C557 C 0.2065 0.41924 0.27655 0.0
C558 C 0.21455 0.4133 0.19238 0.0
C559 C 0.19821 0.41297 0.12247 0.0
C560 C 0.17432 0.41916 0.13544 0.0
C561 C 0.16705 0.42543 0.21884 0.0
C562 C 0.1826 0.42538 0.28839 0.0
C563 C 0.17032 0.43329 0.37113 0.0
C564 C 0.17003 0.41316 0.43925 0.0
C565 C 0.18188 0.45595 0.4076 0.0
C566 C 0.14558 0.43821 0.33677 0.0
C567 C 0.14402 0.43343 0.24891 0.0
C568 C 0.1232 0.43746 0.20207 0.0
C569 C 0.10349 0.44682 0.24617 0.0
C570 C 0.10479 0.45209 0.33603 0.0
C571 C 0.12607 0.44745 0.3818 0.0
H572 H 0.93435 0.76893 0.20674 0.0
H573 H 0.99939 0.73538 0.29664 0.0
H574 H 0.02189 0.77187 0.26108 0.0
H575 H 0.96069 0.80017 0.02495 0.0
H576 H 0.94251 0.82636 0.03749 0.0
H577 H 0.93132 0.79777 0.07161 0.0
H578 H 0.92353 0.81429 0.22618 0.0
H579 H 0.93467 0.84293 0.19235 0.0
H580 H 0.94758 0.82801 0.28498 0.0
H581 H 0.03746 0.81151 0.2136 0.0
H582 H 0.04524 0.8519 0.15777 0.0
H583 H 0.97006 0.86036 0.09948 0.0
C584 C 0.95333 0.76933 0.21888 0.0
C585 C 0.96507 0.74957 0.25665 0.0
C586 C 0.98992 0.75062 0.2708 0.0
C587 C 0.00289 0.77117 0.2499 0.0
C588 C 0.99077 0.79048 0.21407 0.0
C589 C 0.96656 0.78978 0.19844 0.0
C590 C 0.95794 0.81304 0.15902 0.0
C591 C 0.9475 0.80909 0.06786 0.0
C592 C 0.93986 0.82529 0.21924 0.0
C593 C 0.98111 0.82682 0.15448 0.0
C594 C 0.99979 0.81345 0.18662 0.0
C595 C 0.02295 0.82222 0.18877 0.0
C596 C 0.02715 0.8453 0.15741 0.0
C597 C 0.00828 0.85952 0.12473 0.0
C598 C 0.98495 0.84998 0.12322 0.0
H599 H 0.71502 0.90336 0.13392 0.0
H600 H 0.75529 0.96414 0.22407 0.0
H601 H 0.7206 0.99028 0.19683 0.0
H602 H 0.68174 0.93325 0.96449 0.0
H603 H 0.65459 0.91719 0.9862 0.0
H604 H 0.68291 0.90356 0.00923 0.0
H605 H 0.66967 0.89636 0.1689 0.0
H606 H 0.64138 0.91012 0.14615 0.0
H607 H 0.65965 0.92118 0.23326 0.0
H608 H 0.68183 0.0097 0.15926 0.0
H609 H 0.641 0.02116 0.11576 0.0
H610 H 0.62507 0.94747 0.0575 0.0
C611 C 0.71649 0.92221 0.14702 0.0
C612 C 0.73769 0.9319 0.18075 0.0
C613 C 0.73907 0.95652 0.19838 0.0
C614 C 0.71953 0.97146 0.18294 0.0
C615 C 0.69869 0.96136 0.15091 0.0
C616 C 0.69696 0.9373 0.13356 0.0
C617 C 0.6722 0.93088 0.10264 0.0
C618 C 0.67291 0.92062 0.01013 0.0
C619 C 0.66001 0.91361 0.16657 0.0
C620 C 0.66042 0.95513 0.10413 0.0
C621 C 0.67603 0.97245 0.13212 0.0
C622 C 0.66942 0.9963 0.13737 0.0
C623 C 0.64628 0.00265 0.11241 0.0
C624 C 0.63002 0.98518 0.08354 0.0
C625 C 0.63715 0.96111 0.08018 0.0
H626 H 0.58242 0.71889 0.05391 0.0
H627 H 0.52278 0.75349 0.18054 0.0
H628 H 0.49927 0.71654 0.16922 0.0
H629 H 0.54713 0.68528 0.90047 0.0
H630 H 0.5661 0.65943 0.90485 0.0
H631 H 0.57837 0.68852 0.92414 0.0
H632 H 0.59461 0.67398 0.07291 0.0
H633 H 0.58223 0.64491 0.05411 0.0
H634 H 0.57441 0.66103 0.1511 0.0
H635 H 0.48234 0.67603 0.1451 0.0
H636 H 0.47198 0.63527 0.10121 0.0
H637 H 0.54255 0.62654 0.98964 0.0
C638 C 0.56436 0.71866 0.07872 0.0
C639 C 0.55457 0.73879 0.12024 0.0
C640 C 0.53085 0.73796 0.15128 0.0
C641 C 0.51732 0.71713 0.14456 0.0
C642 C 0.52768 0.69736 0.10554 0.0
C643 C 0.55056 0.69796 0.07233 0.0
C644 C 0.55724 0.67425 0.03235 0.0
C645 C 0.56251 0.67705 0.93465 0.0
C646 C 0.57838 0.66288 0.08052 0.0
C647 C 0.5345 0.66035 0.04786 0.0
C648 C 0.51775 0.67399 0.09064 0.0
C649 C 0.49532 0.66514 0.1117 0.0
C650 C 0.48969 0.64185 0.08712 0.0
C651 C 0.50643 0.62755 0.04206 0.0
C652 C 0.52922 0.637 0.02313 0.0
H653 H 0.769 0.52284 0.24202 0.0
H654 H 0.74864 0.564 0.01457 0.0
H655 H 0.78817 0.55668 0.9495 0.0
H656 H 0.8293 0.54184 0.25568 0.0
H657 H 0.84118 0.51314 0.28507 0.0
H658 H 0.81101 0.52044 0.31321 0.0
H659 H 0.79564 0.48338 0.23373 0.0
H660 H 0.82579 0.47558 0.20541 0.0
H661 H 0.80365 0.47877 0.1215 0.0
H662 H 0.83011 0.54604 0.91079 0.0
H663 H 0.87175 0.53276 0.9008 0.0
H664 H 0.86554 0.49937 0.15534 0.0
C665 C 0.77299 0.53063 0.17922 0.0
C666 C 0.75588 0.54441 0.13404 0.0
C667 C 0.7615 0.55346 0.05038 0.0
C668 C 0.78389 0.54941 0.01292 0.0
C669 C 0.80043 0.53598 0.05938 0.0
C670 C 0.79526 0.52657 0.14044 0.0
C671 C 0.81624 0.51252 0.17578 0.0
C672 C 0.82495 0.52263 0.26261 0.0
C673 C 0.80995 0.48599 0.1846 0.0
C674 C 0.83431 0.51654 0.10398 0.0
C675 C 0.82468 0.52976 0.0368 0.0
C676 C 0.83789 0.53578 0.96327 0.0
C677 C 0.86167 0.52832 0.95868 0.0
C678 C 0.87222 0.51521 0.02774 0.0
C679 C 0.85812 0.50915 0.10096 0.0
H680 H 0.08693 0.1304 0.11308 0.0
H681 H 0.06565 0.18144 0.915 0.0
H682 H 0.04477 0.1496 0.83606 0.0
H683 H 0.09655 0.08081 0.96935 0.0
H684 H 0.08483 0.05917 0.04494 0.0
H685 H 0.09857 0.0859 0.08479 0.0
H686 H 0.06034 0.09568 0.17215 0.0
H687 H 0.04642 0.06905 0.13212 0.0
H688 H 0.03221 0.0975 0.11636 0.0
H689 H 0.02662 0.11237 0.77775 0.0
H690 H 0.01221 0.07211 0.74396 0.0
H691 H 0.04394 0.04536 0.98245 0.0
C692 C 0.0779 0.1349 0.05313 0.0
C693 C 0.0779 0.15846 0.02036 0.0
C694 C 0.06589 0.16355 0.94151 0.0
C695 C 0.05395 0.14559 0.89618 0.0
C696 C 0.05405 0.12266 0.93083 0.0
C697 C 0.06569 0.11724 0.00747 0.0
C698 C 0.06285 0.09116 0.03089 0.0
C699 C 0.08715 0.07852 0.03255 0.0
C700 C 0.04967 0.08818 0.11804 0.0
C701 C 0.04779 0.08279 0.95535 0.0
C702 C 0.04303 0.10124 0.89825 0.0
C703 C 0.03008 0.09781 0.82228 0.0
C704 C 0.02194 0.07485 0.80369 0.0
C705 C 0.02669 0.05558 0.8609 0.0
C706 C 0.03963 0.05975 0.93811 0.0
H707 H 0.35129 0.06012 0.06574 0.0
H708 H 0.30699 0.04194 0.84478 0.0
H709 H 0.34201 0.02513 0.77016 0.0
H710 H 0.40245 0.07755 0.94371 0.0
H711 H 0.42354 0.06535 0.02 0.0
H712 H 0.39482 0.07524 0.05739 0.0
H713 H 0.38707 0.03371 0.12527 0.0
H714 H 0.41572 0.02361 0.08755 0.0
H715 H 0.38917 0.0076 0.058 0.0
H716 H 0.38186 0.01245 0.71588 0.0
H717 H 0.42419 0.00447 0.6853 0.0
H718 H 0.44288 0.02934 0.94301 0.0
C719 C 0.3489 0.05247 0.00196 0.0
C720 C 0.32631 0.05233 0.96129 0.0
C721 C 0.32404 0.04222 0.87749 0.0
C722 C 0.34383 0.03258 0.83457 0.0
C723 C 0.36578 0.03297 0.87649 0.0
C724 C 0.36846 0.0426 0.95835 0.0
C725 C 0.3942 0.04129 0.98782 0.0
C726 C 0.40434 0.06635 0.0031 0.0
C727 C 0.39668 0.02561 0.0695 0.0
C728 C 0.4056 0.02964 0.90928 0.0
C729 C 0.38882 0.02502 0.84589 0.0
C730 C 0.39511 0.01564 0.76544 0.0
C731 C 0.41921 0.01115 0.74876 0.0
C732 C 0.43678 0.01588 0.81235 0.0
C733 C 0.42978 0.02492 0.89412 0.0
H734 H 0.4168 0.35977 0.95755 0.0
H735 H 0.42553 0.31822 0.72232 0.0
H736 H 0.44169 0.3536 0.64669 0.0
H737 H 0.39922 0.41465 0.85207 0.0
H738 H 0.41505 0.43303 0.92822 0.0
H739 H 0.40362 0.40456 0.96238 0.0
H740 H 0.44587 0.39215 0.01282 0.0
H741 H 0.45747 0.4205 0.97792 0.0
H742 H 0.47027 0.39339 0.93659 0.0
H743 H 0.45696 0.39356 0.59699 0.0
H744 H 0.46971 0.43523 0.57688 0.0
H745 H 0.4517 0.45017 0.84537 0.0
C746 C 0.42194 0.35811 0.88994 0.0
C747 C 0.41985 0.33623 0.84574 0.0
C748 C 0.42697 0.3348 0.75748 0.0
C749 C 0.43618 0.35478 0.714 0.0
C750 C 0.43825 0.376 0.75986 0.0
C751 C 0.43129 0.3778 0.84579 0.0
C752 C 0.43554 0.40257 0.88058 0.0
C753 C 0.41195 0.41439 0.90736 0.0
C754 C 0.45335 0.40211 0.95645 0.0
C755 C 0.4461 0.41442 0.80083 0.0
C756 C 0.44744 0.39883 0.73179 0.0
C757 C 0.45609 0.40589 0.65075 0.0
C758 C 0.46326 0.4296 0.63979 0.0
C759 C 0.46185 0.44593 0.70939 0.0
C760 C 0.45336 0.43807 0.79113 0.0
H761 H 0.18437 0.46707 0.70703 0.0
H762 H 0.19656 0.45632 0.98285 0.0
H763 H 0.15311 0.45944 0.00957 0.0
H764 H 0.13929 0.51036 0.72664 0.0
H765 H 0.12251 0.49973 0.63489 0.0
H766 H 0.15422 0.49537 0.63863 0.0
H767 H 0.1481 0.45045 0.61756 0.0
H768 H 0.11626 0.45403 0.61648 0.0
H769 H 0.13 0.43393 0.69334 0.0
H770 H 0.10783 0.46655 0.00508 0.0
H771 H 0.06572 0.47532 0.96955 0.0
H772 H 0.08452 0.4805 0.69615 0.0
C773 C 0.17798 0.46511 0.77316 0.0
C774 C 0.1939 0.4613 0.84282 0.0
C775 C 0.18471 0.45884 0.92826 0.0
C776 C 0.16005 0.46072 0.94403 0.0
C777 C 0.14489 0.46481 0.87358 0.0
C778 C 0.15361 0.4668 0.78978 0.0
C779 C 0.13397 0.47168 0.72504 0.0
C780 C 0.13773 0.49572 0.67864 0.0
C781 C 0.13194 0.45129 0.65922 0.0
C782 C 0.11271 0.47246 0.78539 0.0
C783 C 0.11924 0.46852 0.87089 0.0
C784 C 0.10256 0.46945 0.93821 0.0
C785 C 0.07868 0.47454 0.91745 0.0
C786 C 0.0717 0.47862 0.83007 0.0
C787 C 0.08909 0.47739 0.76363 0.0
H788 H 0.98773 0.80093 0.69365 0.0
H789 H 0.01563 0.80204 0.42988 0.0
H790 H 0.02411 0.84478 0.44347 0.0
H791 H 0.95893 0.85652 0.68617 0.0
H792 H 0.96632 0.86506 0.79565 0.0
H793 H 0.96376 0.83406 0.76838 0.0
H794 H 0.00648 0.82652 0.82548 0.0
H795 H 0.00908 0.85752 0.85318 0.0
H796 H 0.03083 0.84393 0.78287 0.0
H797 H 0.02588 0.88761 0.47888 0.0
H798 H 0.02442 0.92806 0.53977 0.0
H799 H 0.99726 0.89952 0.78331 0.0
C800 C 0.99598 0.8101 0.63935 0.0
C801 C 0.00106 0.79813 0.56082 0.0
C802 C 0.01175 0.81076 0.49097 0.0
C803 C 0.01658 0.83507 0.49788 0.0
C804 C 0.01093 0.84642 0.57543 0.0
C805 C 0.00121 0.83437 0.64552 0.0
C806 C 0.99643 0.85108 0.72076 0.0
C807 C 0.96978 0.85171 0.74404 0.0
C808 C 0.01162 0.84436 0.80026 0.0
C809 C 0.0045 0.87443 0.68098 0.0
C810 C 0.0127 0.87128 0.59702 0.0
C811 C 0.01985 0.8903 0.54497 0.0
C812 C 0.01879 0.91319 0.57991 0.0
C813 C 0.01086 0.91681 0.66625 0.0
C814 C 0.00372 0.89716 0.71751 0.0
H815 H 0.65728 0.96697 0.37057 0.0
H816 H 0.70697 0.98141 0.57962 0.0
H817 H 0.67501 0.00156 0.66167 0.0
H818 H 0.62396 0.02271 0.38614 0.0
H819 H 0.59585 0.00866 0.36306 0.0
H820 H 0.62297 0.99661 0.31859 0.0
H821 H 0.61345 0.95564 0.38827 0.0
H822 H 0.58628 0.9675 0.43251 0.0
H823 H 0.60778 0.95373 0.50356 0.0
H824 H 0.63685 0.01661 0.72674 0.0
H825 H 0.59552 0.02665 0.76784 0.0
H826 H 0.57119 0.004 0.5139 0.0
C827 C 0.66152 0.97455 0.4333 0.0
C828 C 0.68462 0.97258 0.46884 0.0
C829 C 0.68942 0.98276 0.55103 0.0
C830 C 0.67139 0.99425 0.59808 0.0
C831 C 0.64875 0.99567 0.56156 0.0
C832 C 0.6438 0.98624 0.48077 0.0
C833 C 0.6178 0.98938 0.45752 0.0
C834 C 0.61499 0.00529 0.37654 0.0
C835 C 0.60562 0.96512 0.44476 0.0
C836 C 0.6088 0.00168 0.53861 0.0
C837 C 0.62692 0.00513 0.59787 0.0
C838 C 0.62259 0.01442 0.68028 0.0
C839 C 0.59907 0.02004 0.70313 0.0
C840 C 0.58024 0.01651 0.64358 0.0
C841 C 0.58531 0.00758 0.55985 0.0
H842 H 0.51077 0.68589 0.37265 0.0
H843 H 0.50583 0.72249 0.62016 0.0
H844 H 0.49039 0.68578 0.68863 0.0
H845 H 0.45731 0.64899 0.39962 0.0
H846 H 0.47082 0.62366 0.34763 0.0
H847 H 0.47962 0.65333 0.31661 0.0
H848 H 0.52354 0.64286 0.34951 0.0
H849 H 0.51494 0.61322 0.38106 0.0
H850 H 0.53143 0.63154 0.45554 0.0
H851 H 0.4789 0.64457 0.73263 0.0
H852 H 0.47108 0.6017 0.74919 0.0
H853 H 0.48297 0.59189 0.47248 0.0
C854 C 0.50613 0.68632 0.44103 0.0
C855 C 0.50949 0.70708 0.49115 0.0
C856 C 0.50335 0.70683 0.58047 0.0
C857 C 0.49454 0.68608 0.6199 0.0
C858 C 0.49182 0.66584 0.5689 0.0
C859 C 0.49728 0.66582 0.4813 0.0
C860 C 0.49381 0.64139 0.44206 0.0
C861 C 0.47422 0.64188 0.37238 0.0
C862 C 0.51733 0.63169 0.40491 0.0
C863 C 0.486 0.62755 0.52185 0.0
C864 C 0.48487 0.64203 0.59416 0.0
C865 C 0.47939 0.63311 0.67633 0.0
C866 C 0.47505 0.60869 0.68504 0.0
C867 C 0.47624 0.59345 0.61197 0.0
C868 C 0.48153 0.60313 0.52924 0.0
H869 H 0.85165 0.55538 0.40104 0.0
H870 H 0.80198 0.53687 0.60684 0.0
H871 H 0.8353 0.52147 0.69578 0.0
H872 H 0.8868 0.50344 0.42105 0.0
H873 H 0.91462 0.5181 0.3974 0.0
H874 H 0.88728 0.52971 0.35337 0.0
H875 H 0.89583 0.57072 0.42315 0.0
H876 H 0.92333 0.5593 0.46668 0.0
H877 H 0.90159 0.57242 0.53825 0.0
H878 H 0.87387 0.50744 0.76051 0.0
H879 H 0.91486 0.49499 0.79591 0.0
H880 H 0.93885 0.52036 0.54335 0.0
C881 C 0.84785 0.54848 0.46543 0.0
C882 C 0.82432 0.54752 0.49766 0.0
C883 C 0.81994 0.53784 0.58132 0.0
C884 C 0.83872 0.52907 0.63217 0.0
C885 C 0.86167 0.52984 0.59775 0.0
C886 C 0.86629 0.53923 0.51622 0.0
C887 C 0.89232 0.53672 0.4923 0.0
C888 C 0.89543 0.52106 0.41125 0.0
C889 C 0.90395 0.56125 0.47937 0.0
C890 C 0.90163 0.52441 0.57311 0.0
C891 C 0.88371 0.52082 0.63347 0.0
C892 C 0.88805 0.51013 0.71377 0.0
C893 C 0.91138 0.50308 0.73314 0.0
C894 C 0.92999 0.50647 0.67197 0.0
C895 C 0.92494 0.51718 0.59085 0.0
loop_
_geom_bond_atom_site_label_1
_geom_bond_atom_site_label_2
_geom_bond_distance
_geom_bond_site_symmetry_2
_ccdc_geom_bond_type
O0 Cd1 2.300 . S
O0 C7 1.275 . S
Cd1 O0 2.300 . S
Cd1 O9 2.381 . S
Cd1 O10 2.378 . S
O2 Cd3 2.385 . S
O2 C7 1.255 . S
Cd3 O2 2.385 . S
Cd3 O4 2.317 . S
O4 Cd3 2.317 . S
O4 C5 1.232 . S
C5 O4 1.232 . S
C5 O6 1.218 . S
O6 C5 1.218 . S
C7 O0 1.275 . S
C7 O2 1.255 . S
C8 O9 1.258 . S
C8 O10 1.256 . S
O9 Cd1 2.381 . S
O9 C8 1.258 . S
O10 Cd1 2.378 . S
O10 C8 1.256 . S
O11 Cd12 2.300 1_655 S
O11 C18 1.275 1_655 S
Cd12 O11 2.300 1_455 S
Cd12 O20 2.381 1_455 S
Cd12 O21 2.378 . S
O13 Cd14 2.385 . S
O13 C18 1.255 . S
Cd14 O13 2.385 . S
Cd14 O15 2.317 . S
O15 Cd14 2.317 . S
O15 C16 1.232 . S
C16 O15 1.232 . S
C16 O17 1.218 . S
O17 C16 1.218 . S
C18 O11 1.275 1_455 S
C18 O13 1.255 . S
C19 O20 1.258 1_455 S
C19 O21 1.256 . S
O20 Cd12 2.381 1_655 S
O20 C19 1.258 1_655 S
O21 Cd12 2.378 . S
O21 C19 1.256 . S
O22 Cd23 2.300 1_565 S
O22 C29 1.275 1_565 S
Cd23 O22 2.300 1_545 S
Cd23 O31 2.381 1_545 S
Cd23 O32 2.378 . S
O24 Cd25 2.385 . S
O24 C29 1.255 . S
Cd25 O24 2.385 . S
Cd25 O26 2.317 . S
O26 Cd25 2.317 . S
O26 C27 1.232 . S
C27 O26 1.232 . S
C27 O28 1.218 . S
O28 C27 1.218 . S
C29 O22 1.275 1_545 S
C29 O24 1.255 . S
C30 O31 1.258 1_545 S
C30 O32 1.256 . S
O31 Cd23 2.381 1_565 S
O31 C30 1.258 1_565 S
O32 Cd23 2.378 . S
O32 C30 1.256 . S
O33 Cd34 2.300 . S
O33 C40 1.275 . S
Cd34 O33 2.300 . S
Cd34 O42 2.381 . S
Cd34 O43 2.378 . S
O35 Cd36 2.385 . S
O35 C40 1.255 . S
Cd36 O35 2.385 . S
Cd36 O37 2.317 . S
O37 Cd36 2.317 . S
O37 C38 1.232 . S
C38 O37 1.232 . S
C38 O39 1.218 . S
O39 C38 1.218 . S
C40 O33 1.275 . S
C40 O35 1.255 . S
C41 O42 1.258 . S
C41 O43 1.256 . S
O42 Cd34 2.381 . S
O42 C41 1.258 . S
O43 Cd34 2.378 . S
O43 C41 1.256 . S
O44 Cd45 2.300 . S
O44 C51 1.275 . S
Cd45 O44 2.300 . S
Cd45 O53 2.381 . S
Cd45 O54 2.378 . S
O46 Cd47 2.385 1_554 S
O46 C51 1.255 . S
Cd47 O46 2.385 1_556 S
Cd47 O48 2.317 . S
O48 Cd47 2.317 . S
O48 C49 1.232 . S
C49 O48 1.232 . S
C49 O50 1.218 . S
O50 C49 1.218 . S
C51 O44 1.275 . S
C51 O46 1.255 . S
C52 O53 1.258 . S
C52 O54 1.256 . S
O53 Cd45 2.381 . S
O53 C52 1.258 . S
O54 Cd45 2.378 . S
O54 C52 1.256 . S
O55 Cd56 2.300 1_655 S
O55 C62 1.275 1_655 S
Cd56 O55 2.300 1_455 S
Cd56 O64 2.381 1_455 S
Cd56 O65 2.378 . S
O57 Cd58 2.389 . S
O57 C62 1.255 . S
Cd58 O57 2.389 . S
Cd58 O59 2.314 1_554 S
O59 Cd58 2.314 1_556 S
O59 C60 1.232 . S
C60 O59 1.232 . S
C60 O61 1.218 . S
O61 C60 1.218 . S
C62 O55 1.275 1_455 S
C62 O57 1.255 . S
C63 O64 1.258 1_455 S
C63 O65 1.256 . S
O64 Cd56 2.381 1_655 S
O64 C63 1.258 1_655 S
O65 Cd56 2.378 . S
O65 C63 1.256 . S
O66 Cd67 2.300 1_565 S
O66 C73 1.275 1_565 S
Cd67 O66 2.300 1_545 S
Cd67 O75 2.381 1_545 S
Cd67 O76 2.378 . S
O68 Cd69 2.385 1_554 S
O68 C73 1.255 . S
Cd69 O68 2.385 1_556 S
Cd69 O70 2.317 . S
O70 Cd69 2.317 . S
O70 C71 1.232 . S
C71 O70 1.232 . S
C71 O72 1.218 . S
O72 C71 1.218 . S
C73 O66 1.275 1_545 S
C73 O68 1.255 . S
C74 O75 1.258 1_545 S
C74 O76 1.256 . S
O75 Cd67 2.381 1_565 S
O75 C74 1.258 1_565 S
O76 Cd67 2.378 . S
O76 C74 1.256 . S
O77 Cd78 2.300 . S
O77 C84 1.275 . S
Cd78 O77 2.300 . S
Cd78 O86 2.381 . S
Cd78 O87 2.378 . S
O79 Cd80 2.385 1_554 S
O79 C84 1.255 . S
Cd80 O79 2.385 1_556 S
Cd80 O81 2.317 . S
O81 Cd80 2.317 . S
O81 C82 1.232 . S
C82 O81 1.232 . S
C82 O83 1.218 . S
O83 C82 1.218 . S
C84 O77 1.275 . S
C84 O79 1.255 . S
C85 O86 1.258 . S
C85 O87 1.256 . S
O86 Cd78 2.381 . S
O86 C85 1.258 . S
O87 Cd78 2.378 . S
O87 C85 1.256 . S
Tb88 C90 2.809 . S
Tb88 O108 2.484 . S
Tb88 O109 2.440 . S
Tb88 O110 2.658 1_565 S
Tb88 O111 2.409 . S
Tb88 O112 2.378 . S
Tb88 O116 2.325 1_455 S
Tb88 O119 2.341 1_565 S
Tb89 C99 2.809 . S
Tb89 O110 2.325 1_655 S
Tb89 O113 2.341 1_545 S
Tb89 O114 2.501 . S
Tb89 O115 2.440 . S
Tb89 O116 2.658 1_545 S
Tb89 O117 2.409 . S
Tb89 O118 2.378 . S
C90 Tb88 2.809 . S
C90 C91 1.514 . S
C90 O108 1.248 . S
C90 O109 1.266 . S
C91 C90 1.514 . S
C91 C92 1.359 . S
C91 C96 1.348 . S
C92 C91 1.359 . S
C92 C93 1.380 1_556 S
C92 H120 0.929 1_455 S
C93 C92 1.380 1_554 S
C93 C94 1.347 . S
C93 H121 0.931 1_455 S
C94 C93 1.347 . S
C94 C95 1.369 1_554 S
C95 C94 1.369 1_556 S
C95 C96 1.408 . S
C95 H122 0.930 . S
C96 C91 1.348 . S
C96 C95 1.408 . S
C96 H123 0.930 . S
C97 O110 1.281 1_565 S
C97 O111 1.254 . S
C98 O112 1.236 1_655 S
C98 O113 1.266 . S
C99 Tb89 2.809 . S
C99 C100 1.514 . S
C99 O114 1.286 . S
C99 O115 1.266 . S
C100 C99 1.514 . S
C100 C101 1.359 . S
C100 C105 1.348 . S
C101 C100 1.359 . S
C101 C102 1.380 . S
C101 H124 0.929 1_655 S
C102 C101 1.380 . S
C102 C103 1.347 . S
C102 H125 0.931 1_655 S
C103 C102 1.347 . S
C103 C104 1.369 . S
C104 C103 1.369 . S
C104 C105 1.408 . S
C104 H126 0.930 . S
C105 C100 1.348 . S
C105 C104 1.408 . S
C105 H127 0.930 . S
C106 O116 1.281 1_545 S
C106 O117 1.254 . S
C107 O118 1.236 1_455 S
C107 O119 1.266 . S
O108 Tb88 2.484 . S
O108 C90 1.248 . S
O109 Tb88 2.440 . S
O109 C90 1.266 . S
O110 Tb88 2.658 1_545 S
O110 Tb89 2.325 1_455 S
O110 C97 1.281 1_545 S
O111 Tb88 2.409 . S
O111 C97 1.254 . S
O112 Tb88 2.378 . S
O112 C98 1.236 1_455 S
O113 Tb89 2.341 1_565 S
O113 C98 1.266 . S
O114 Tb89 2.501 . S
O114 C99 1.286 . S
O115 Tb89 2.440 . S
O115 C99 1.266 . S
O116 Tb88 2.325 1_655 S
O116 Tb89 2.658 1_565 S
O116 C106 1.281 1_565 S
O117 Tb89 2.409 . S
O117 C106 1.254 . S
O118 Tb89 2.378 . S
O118 C107 1.236 1_655 S
O119 Tb88 2.341 1_545 S
O119 C107 1.266 . S
H120 C92 0.929 1_655 S
H121 C93 0.931 1_655 S
H122 C95 0.930 . S
H123 C96 0.930 . S
H124 C101 0.929 1_455 S
H125 C102 0.931 1_455 S
H126 C104 0.930 . S
H127 C105 0.930 . S
Tb128 C130 2.809 . S
Tb128 O148 2.499 . S
Tb128 O149 2.440 . S
Tb128 O150 2.658 . S
Tb128 O151 2.409 . S
Tb128 O152 2.378 . S
Tb128 O156 2.325 1_545 S
Tb128 O159 2.341 . S
Tb129 C139 2.809 . S
Tb129 O150 2.325 1_565 S
Tb129 O153 2.341 . S
Tb129 O154 2.495 . S
Tb129 O155 2.440 . S
Tb129 O156 2.658 . S
Tb129 O157 2.409 . S
Tb129 O158 2.378 . S
C130 Tb128 2.809 . S
C130 C131 1.514 . S
C130 O148 1.282 . S
C130 O149 1.266 . S
C131 C130 1.514 . S
C131 C132 1.359 . S
C131 C136 1.348 . S
C132 C131 1.359 . S
C132 C133 1.380 1_556 S
C132 H160 0.929 1_545 S
C133 C132 1.380 1_554 S
C133 C134 1.347 . S
C133 H161 0.931 1_545 S
C134 C133 1.347 . S
C134 C135 1.369 1_554 S
C135 C134 1.369 1_556 S
C135 C136 1.408 . S
C135 H162 0.930 . S
C136 C131 1.348 . S
C136 C135 1.408 . S
C136 H163 0.930 . S
C137 O150 1.281 . S
C137 O151 1.254 . S
C138 O152 1.236 1_565 S
C138 O153 1.266 . S
C139 Tb129 2.809 . S
C139 C140 1.514 . S
C139 O154 1.271 . S
C139 O155 1.266 . S
C140 C139 1.514 . S
C140 C141 1.359 . S
C140 C145 1.348 . S
C141 C140 1.359 . S
C141 C142 1.380 . S
C141 H164 0.929 1_565 S
C142 C141 1.380 . S
C142 C143 1.347 . S
C142 H165 0.931 1_565 S
C143 C142 1.347 . S
C143 C144 1.369 . S
C144 C143 1.369 . S
C144 C145 1.408 . S
C144 H166 0.930 . S
C145 C140 1.348 . S
C145 C144 1.408 . S
C145 H167 0.930 . S
C146 O156 1.281 . S
C146 O157 1.254 . S
C147 O158 1.236 1_545 S
C147 O159 1.266 . S
O148 Tb128 2.499 . S
O148 C130 1.282 . S
O149 Tb128 2.440 . S
O149 C130 1.266 . S
O150 Tb128 2.658 . S
O150 Tb129 2.325 1_545 S
O150 C137 1.281 . S
O151 Tb128 2.409 . S
O151 C137 1.254 . S
O152 Tb128 2.378 . S
O152 C138 1.236 1_545 S
O153 Tb129 2.341 . S
O153 C138 1.266 . S
O154 Tb129 2.495 . S
O154 C139 1.271 . S
O155 Tb129 2.440 . S
O155 C139 1.266 . S
O156 Tb128 2.325 1_565 S
O156 Tb129 2.658 . S
O156 C146 1.281 . S
O157 Tb129 2.409 . S
O157 C146 1.254 . S
O158 Tb129 2.378 . S
O158 C147 1.236 1_565 S
O159 Tb128 2.341 . S
O159 C147 1.266 . S
H160 C132 0.929 1_565 S
H161 C133 0.931 1_565 S
H162 C135 0.930 . S
H163 C136 0.930 . S
H164 C141 0.929 1_545 S
H165 C142 0.931 1_545 S
H166 C144 0.930 . S
H167 C145 0.930 . S
Tb168 C170 2.809 . S
Tb168 O188 2.484 . S
Tb168 O189 2.440 . S
Tb168 O190 2.658 . S
Tb168 O191 2.409 . S
Tb168 O192 2.378 . S
Tb168 O196 2.325 . S
Tb168 O199 2.341 . S
Tb169 C179 2.809 . S
Tb169 O190 2.325 . S
Tb169 O193 2.341 . S
Tb169 O194 2.484 . S
Tb169 O195 2.440 . S
Tb169 O196 2.658 . S
Tb169 O197 2.409 . S
Tb169 O198 2.378 . S
C170 Tb168 2.809 . S
C170 C171 1.514 . S
C170 O188 1.248 . S
C170 O189 1.266 . S
C171 C170 1.514 . S
C171 C172 1.359 . S
C171 C176 1.348 . S
C172 C171 1.359 . S
C172 C173 1.380 1_556 S
C172 H200 0.929 . S
C173 C172 1.380 1_554 S
C173 C174 1.347 . S
C173 H201 0.931 . S
C174 C173 1.347 . S
C174 C175 1.369 1_554 S
C175 C174 1.369 1_556 S
C175 C176 1.408 . S
C175 H202 0.930 . S
C176 C171 1.348 . S
C176 C175 1.408 . S
C176 H203 0.930 . S
C177 O190 1.281 . S
C177 O191 1.254 . S
C178 O192 1.236 . S
C178 O193 1.266 . S
C179 Tb169 2.809 . S
C179 C180 1.514 . S
C179 O194 1.248 . S
C179 O195 1.266 . S
C180 C179 1.514 . S
C180 C181 1.359 . S
C180 C185 1.348 . S
C181 C180 1.359 . S
C181 C182 1.380 . S
C181 H204 0.929 . S
C182 C181 1.380 . S
C182 C183 1.347 . S
C182 H205 0.931 . S
C183 C182 1.347 . S
C183 C184 1.369 . S
C184 C183 1.369 . S
C184 C185 1.408 . S
C184 H206 0.930 . S
C185 C180 1.348 . S
C185 C184 1.408 . S
C185 H207 0.930 . S
C186 O196 1.281 . S
C186 O197 1.254 . S
C187 O198 1.236 . S
C187 O199 1.266 . S
O188 Tb168 2.484 . S
O188 C170 1.248 . S
O189 Tb168 2.440 . S
O189 C170 1.266 . S
O190 Tb168 2.658 . S
O190 Tb169 2.325 . S
O190 C177 1.281 . S
O191 Tb168 2.409 . S
O191 C177 1.254 . S
O192 Tb168 2.378 . S
O192 C178 1.236 . S
O193 Tb169 2.341 . S
O193 C178 1.266 . S
O194 Tb169 2.484 . S
O194 C179 1.248 . S
O195 Tb169 2.440 . S
O195 C179 1.266 . S
O196 Tb168 2.325 . S
O196 Tb169 2.658 . S
O196 C186 1.281 . S
O197 Tb169 2.409 . S
O197 C186 1.254 . S
O198 Tb169 2.378 . S
O198 C187 1.236 . S
O199 Tb168 2.341 . S
O199 C187 1.266 . S
H200 C172 0.929 . S
H201 C173 0.931 . S
H202 C175 0.930 . S
H203 C176 0.930 . S
H204 C181 0.929 . S
H205 C182 0.931 . S
H206 C184 0.930 . S
H207 C185 0.930 . S
Tb208 C210 2.809 . S
Tb208 O228 2.484 . S
Tb208 O229 2.440 . S
Tb208 O230 2.658 1_655 S
Tb208 O231 2.409 . S
Tb208 O232 2.378 . S
Tb208 O236 2.325 . S
Tb208 O239 2.341 1_655 S
Tb209 C219 2.809 . S
Tb209 O230 2.325 . S
Tb209 O233 2.341 1_455 S
Tb209 O234 2.484 . S
Tb209 O235 2.440 . S
Tb209 O236 2.658 1_455 S
Tb209 O237 2.409 . S
Tb209 O238 2.378 . S
C210 Tb208 2.809 . S
C210 C211 1.514 . S
C210 O228 1.248 . S
C210 O229 1.266 . S
C211 C210 1.514 . S
C211 C212 1.359 . S
C211 C216 1.348 . S
C212 C211 1.359 . S
C212 C213 1.380 1_556 S
C212 H240 0.929 . S
C213 C212 1.380 1_554 S
C213 C214 1.347 . S
C213 H241 0.931 . S
C214 C213 1.347 . S
C214 C215 1.369 1_554 S
C215 C214 1.369 1_556 S
C215 C216 1.408 . S
C215 H242 0.930 . S
C216 C211 1.348 . S
C216 C215 1.408 . S
C216 H243 0.930 . S
C217 O230 1.272 1_655 S
C217 O231 1.266 . S
C218 O232 1.236 . S
C218 O233 1.266 . S
C219 Tb209 2.809 . S
C219 C220 1.514 . S
C219 O234 1.248 . S
C219 O235 1.266 . S
C220 C219 1.514 . S
C220 C221 1.359 . S
C220 C225 1.348 . S
C221 C220 1.359 . S
C221 C222 1.380 . S
C221 H244 0.929 . S
C222 C221 1.380 . S
C222 C223 1.347 . S
C222 H245 0.931 . S
C223 C222 1.347 . S
C223 C224 1.369 . S
C224 C223 1.369 . S
C224 C225 1.408 . S
C224 H246 0.930 . S
C225 C220 1.348 . S
C225 C224 1.408 . S
C225 H247 0.930 . S
C226 O236 1.268 1_455 S
C226 O237 1.272 . S
C227 O238 1.236 . S
C227 O239 1.266 . S
O228 Tb208 2.484 . S
O228 C210 1.248 . S
O229 Tb208 2.440 . S
O229 C210 1.266 . S
O230 Tb208 2.658 1_455 S
O230 Tb209 2.325 . S
O230 C217 1.272 1_455 S
O231 Tb208 2.409 . S
O231 C217 1.266 . S
O232 Tb208 2.378 . S
O232 C218 1.236 . S
O233 Tb209 2.341 1_655 S
O233 C218 1.266 . S
O234 Tb209 2.484 . S
O234 C219 1.248 . S
O235 Tb209 2.440 . S
O235 C219 1.266 . S
O236 Tb208 2.325 . S
O236 Tb209 2.658 1_655 S
O236 C226 1.268 1_655 S
O237 Tb209 2.409 . S
O237 C226 1.272 . S
O238 Tb209 2.378 . S
O238 C227 1.236 . S
O239 Tb208 2.341 1_455 S
O239 C227 1.266 . S
H240 C212 0.929 . S
H241 C213 0.931 . S
H242 C215 0.930 . S
H243 C216 0.930 . S
H244 C221 0.929 . S
H245 C222 0.931 . S
H246 C224 0.930 . S
H247 C225 0.930 . S
H248 C260 0.930 . S
H249 C262 0.930 . S
H250 C263 0.930 . S
H251 C267 0.959 . S
H252 C267 0.959 . S
H253 C267 0.961 . S
H254 C268 0.960 . S
H255 C268 0.961 . S
H256 C268 0.959 . S
H257 C271 0.929 . S
H258 C272 0.931 . S
H259 C274 0.930 . S
C260 H248 0.930 . S
C260 C261 1.399 1_545 S
C260 C265 1.399 . S
C261 C260 1.399 1_565 S
C261 C262 1.376 . S
C262 H249 0.930 . S
C262 C261 1.376 . S
C262 C263 1.388 . S
C263 H250 0.930 . S
C263 C262 1.388 . S
C263 C264 1.390 . S
C264 C263 1.390 . S
C264 C265 1.394 1_565 S
C264 C270 1.465 . S
C265 C260 1.399 . S
C265 C264 1.394 1_545 S
C265 C266 1.516 . S
C266 C265 1.516 . S
C266 C267 1.502 . S
C266 C268 1.561 . S
C266 C269 1.526 . S
C267 H251 0.959 . S
C267 H252 0.959 . S
C267 H253 0.961 . S
C267 C266 1.502 . S
C268 H254 0.960 . S
C268 H255 0.961 . S
C268 H256 0.959 . S
C268 C266 1.561 . S
C269 C266 1.526 . S
C269 C270 1.396 1_545 S
C269 C274 1.390 . S
C270 C264 1.465 . S
C270 C269 1.396 1_565 S
C270 C271 1.399 . S
C271 H257 0.929 . S
C271 C270 1.399 . S
C271 C272 1.385 . S
C272 H258 0.931 . S
C272 C271 1.385 . S
C272 C273 1.389 . S
C273 C272 1.389 . S
C273 C274 1.387 1_565 S
C274 H259 0.930 . S
C274 C269 1.390 . S
C274 C273 1.387 1_545 S
H275 C287 0.930 . S
H276 C289 0.930 . S
H277 C290 0.930 . S
H278 C294 0.959 . S
H279 C294 0.959 . S
H280 C294 0.961 . S
H281 C295 0.960 . S
H282 C295 0.961 . S
H283 C295 0.959 . S
H284 C298 0.929 . S
H285 C299 0.931 . S
H286 C301 0.930 . S
C287 H275 0.930 . S
C287 C288 1.399 . S
C287 C292 1.399 . S
C288 C287 1.399 . S
C288 C289 1.376 . S
C289 H276 0.930 . S
C289 C288 1.376 . S
C289 C290 1.388 . S
C290 H277 0.930 . S
C290 C289 1.388 . S
C290 C291 1.390 . S
C291 C290 1.390 . S
C291 C292 1.394 . S
C291 C297 1.465 . S
C292 C287 1.399 . S
C292 C291 1.394 . S
C292 C293 1.516 . S
C293 C292 1.516 . S
C293 C294 1.502 . S
C293 C295 1.561 . S
C293 C296 1.526 . S
C294 H278 0.959 . S
C294 H279 0.959 . S
C294 H280 0.961 . S
C294 C293 1.502 . S
C295 H281 0.960 . S
C295 H282 0.961 . S
C295 H283 0.959 . S
C295 C293 1.561 . S
C296 C293 1.526 . S
C296 C297 1.396 . S
C296 C301 1.390 . S
C297 C291 1.465 . S
C297 C296 1.396 . S
C297 C298 1.399 . S
C298 H284 0.929 . S
C298 C297 1.399 . S
C298 C299 1.385 . S
C299 H285 0.931 . S
C299 C298 1.385 . S
C299 C300 1.389 . S
C300 C299 1.389 . S
C300 C301 1.387 . S
C301 H286 0.930 . S
C301 C296 1.390 . S
C301 C300 1.387 . S
H302 C314 0.930 . S
H303 C316 0.930 . S
H304 C317 0.930 . S
H305 C321 0.959 . S
H306 C321 0.959 . S
H307 C321 0.961 . S
H308 C322 0.960 . S
H309 C322 0.961 . S
H310 C322 0.959 . S
H311 C325 0.929 . S
H312 C326 0.931 . S
H313 C328 0.930 . S
C314 H302 0.930 . S
C314 C315 1.399 . S
C314 C319 1.399 . S
C315 C314 1.399 . S
C315 C316 1.376 . S
C316 H303 0.930 . S
C316 C315 1.376 . S
C316 C317 1.388 . S
C317 H304 0.930 . S
C317 C316 1.388 . S
C317 C318 1.390 . S
C318 C317 1.390 . S
C318 C319 1.394 . S
C318 C324 1.465 . S
C319 C314 1.399 . S
C319 C318 1.394 . S
C319 C320 1.516 . S
C320 C319 1.516 . S
C320 C321 1.502 . S
C320 C322 1.561 . S
C320 C323 1.526 . S
C321 H305 0.959 . S
C321 H306 0.959 . S
C321 H307 0.961 . S
C321 C320 1.502 . S
C322 H308 0.960 . S
C322 H309 0.961 . S
C322 H310 0.959 . S
C322 C320 1.561 . S
C323 C320 1.526 . S
C323 C324 1.396 . S
C323 C328 1.390 . S
C324 C318 1.465 . S
C324 C323 1.396 . S
C324 C325 1.399 . S
C325 H311 0.929 . S
C325 C324 1.399 . S
C325 C326 1.385 . S
C326 H312 0.931 . S
C326 C325 1.385 . S
C326 C327 1.389 . S
C327 C326 1.389 . S
C327 C328 1.387 . S
C328 H313 0.930 . S
C328 C323 1.390 . S
C328 C327 1.387 . S
H329 C341 0.930 . S
H330 C343 0.930 . S
H331 C344 0.930 . S
H332 C348 0.959 . S
H333 C348 0.959 . S
H334 C348 0.961 . S
H335 C349 0.960 . S
H336 C349 0.961 . S
H337 C349 0.959 1_655 S
H338 C352 0.929 . S
H339 C353 0.931 . S
H340 C355 0.930 . S
C341 H329 0.930 . S
C341 C342 1.399 1_455 S
C341 C346 1.399 . S
C342 C341 1.399 1_655 S
C342 C343 1.376 . S
C343 H330 0.930 . S
C343 C342 1.376 . S
C343 C344 1.388 . S
C344 H331 0.930 . S
C344 C343 1.388 . S
C344 C345 1.390 . S
C345 C344 1.390 . S
C345 C346 1.394 1_655 S
C345 C351 1.465 . S
C346 C341 1.399 . S
C346 C345 1.394 1_455 S
C346 C347 1.516 . S
C347 C346 1.516 . S
C347 C348 1.502 . S
C347 C349 1.561 . S
C347 C350 1.526 . S
C348 H332 0.959 . S
C348 H333 0.959 . S
C348 H334 0.961 . S
C348 C347 1.502 . S
C349 H335 0.960 . S
C349 H336 0.961 . S
C349 H337 0.959 1_455 S
C349 C347 1.561 . S
C350 C347 1.526 . S
C350 C351 1.396 1_455 S
C350 C355 1.390 . S
C351 C345 1.465 . S
C351 C350 1.396 1_655 S
C351 C352 1.399 . S
C352 H338 0.929 . S
C352 C351 1.399 . S
C352 C353 1.385 . S
C353 H339 0.931 . S
C353 C352 1.385 . S
C353 C354 1.423 . S
C354 C353 1.423 . S
C354 C355 1.363 1_655 S
C355 H340 0.930 . S
C355 C350 1.390 . S
C355 C354 1.363 1_455 S
H356 C368 0.930 . S
H357 C370 0.930 . S
H358 C371 0.930 . S
H359 C375 0.959 . S
H360 C375 0.959 . S
H361 C375 0.961 . S
H362 C376 0.960 . S
H363 C376 0.961 1_556 S
H364 C376 0.959 1_556 S
H365 C379 0.929 . S
H366 C380 0.931 . S
H367 C382 0.930 . S
C368 H356 0.930 . S
C368 C369 1.399 1_565 S
C368 C373 1.399 . S
C369 C368 1.399 1_545 S
C369 C370 1.376 . S
C370 H357 0.930 . S
C370 C369 1.376 . S
C370 C371 1.388 . S
C371 H358 0.930 . S
C371 C370 1.388 . S
C371 C372 1.390 . S
C372 C371 1.390 . S
C372 C373 1.394 1_545 S
C372 C378 1.465 . S
C373 C368 1.399 . S
C373 C372 1.394 1_565 S
C373 C374 1.516 . S
C374 C373 1.516 . S
C374 C375 1.502 . S
C374 C376 1.561 . S
C374 C377 1.526 . S
C375 H359 0.959 . S
C375 H360 0.959 . S
C375 H361 0.961 . S
C375 C374 1.502 . S
C376 H362 0.960 . S
C376 H363 0.961 1_554 S
C376 H364 0.959 1_554 S
C376 C374 1.561 . S
C377 C374 1.526 . S
C377 C378 1.396 1_565 S
C377 C382 1.390 1_554 S
C378 C372 1.465 . S
C378 C377 1.396 1_545 S
C378 C379 1.399 1_554 S
C379 H365 0.929 . S
C379 C378 1.399 1_556 S
C379 C380 1.385 . S
C380 H366 0.931 . S
C380 C379 1.385 . S
C380 C381 1.389 . S
C381 C380 1.389 . S
C381 C382 1.387 1_545 S
C382 H367 0.930 . S
C382 C377 1.390 1_556 S
C382 C381 1.387 1_565 S
H383 C395 0.930 . S
H384 C397 0.930 . S
H385 C398 0.930 . S
H386 C402 0.959 . S
H387 C402 0.959 . S
H388 C402 0.961 . S
H389 C403 0.960 . S
H390 C403 0.961 . S
H391 C403 0.959 . S
H392 C406 0.929 . S
H393 C407 0.931 . S
H394 C409 0.930 . S
C395 H383 0.930 . S
C395 C396 1.399 . S
C395 C400 1.399 . S
C396 C395 1.399 . S
C396 C397 1.376 . S
C397 H384 0.930 . S
C397 C396 1.376 . S
C397 C398 1.388 . S
C398 H385 0.930 . S
C398 C397 1.388 . S
C398 C399 1.390 . S
C399 C398 1.390 . S
C399 C400 1.394 . S
C399 C405 1.465 . S
C400 C395 1.399 . S
C400 C399 1.394 . S
C400 C401 1.516 . S
C401 C400 1.516 . S
C401 C402 1.502 . S
C401 C403 1.561 . S
C401 C404 1.526 . S
C402 H386 0.959 . S
C402 H387 0.959 . S
C402 H388 0.961 . S
C402 C401 1.502 . S
C403 H389 0.960 . S
C403 H390 0.961 . S
C403 H391 0.959 . S
C403 C401 1.561 . S
C404 C401 1.526 . S
C404 C405 1.396 . S
C404 C409 1.390 1_554 S
C405 C399 1.465 . S
C405 C404 1.396 . S
C405 C406 1.399 1_554 S
C406 H392 0.929 . S
C406 C405 1.399 1_556 S
C406 C407 1.385 . S
C407 H393 0.931 . S
C407 C406 1.385 . S
C407 C408 1.389 . S
C408 C407 1.389 . S
C408 C409 1.387 . S
C409 H394 0.930 . S
C409 C404 1.390 1_556 S
C409 C408 1.387 . S
H410 C422 0.930 . S
H411 C424 0.930 . S
H412 C425 0.930 . S
H413 C429 0.959 . S
H414 C429 0.959 . S
H415 C429 0.961 . S
H416 C430 0.960 . S
H417 C430 0.961 . S
H418 C430 0.959 . S
H419 C433 0.929 . S
H420 C434 0.931 . S
H421 C436 0.930 . S
C422 H410 0.930 . S
C422 C423 1.399 . S
C422 C427 1.399 . S
C423 C422 1.399 . S
C423 C424 1.376 . S
C424 H411 0.930 . S
C424 C423 1.376 . S
C424 C425 1.388 . S
C425 H412 0.930 . S
C425 C424 1.388 . S
C425 C426 1.390 . S
C426 C425 1.390 . S
C426 C427 1.394 . S
C426 C432 1.465 . S
C427 C422 1.399 . S
C427 C426 1.394 . S
C427 C428 1.516 . S
C428 C427 1.516 . S
C428 C429 1.502 . S
C428 C430 1.561 . S
C428 C431 1.526 . S
C429 H413 0.959 . S
C429 H414 0.959 . S
C429 H415 0.961 . S
C429 C428 1.502 . S
C430 H416 0.960 . S
C430 H417 0.961 . S
C430 H418 0.959 . S
C430 C428 1.561 . S
C431 C428 1.526 . S
C431 C432 1.396 . S
C431 C436 1.390 1_554 S
C432 C426 1.465 . S
C432 C431 1.396 . S
C432 C433 1.399 1_554 S
C433 H419 0.929 . S
C433 C432 1.399 1_556 S
C433 C434 1.385 . S
C434 H420 0.931 . S
C434 C433 1.385 . S
C434 C435 1.389 . S
C435 C434 1.389 . S
C435 C436 1.387 . S
C436 H421 0.930 . S
C436 C431 1.390 1_556 S
C436 C435 1.387 . S
H437 C449 0.930 . S
H438 C451 0.930 . S
H439 C452 0.930 . S
H440 C456 0.959 1_655 S
H441 C456 0.959 . S
H442 C456 0.961 . S
H443 C457 0.960 . S
H444 C457 0.961 1_556 S
H445 C457 0.959 . S
H446 C460 0.929 . S
H447 C461 0.931 . S
H448 C463 0.930 . S
C449 H437 0.930 . S
C449 C450 1.388 1_455 S
C449 C454 1.399 . S
C450 C449 1.388 1_655 S
C450 C451 1.390 . S
C451 H438 0.930 . S
C451 C450 1.390 . S
C451 C452 1.388 . S
C452 H439 0.930 . S
C452 C451 1.388 . S
C452 C453 1.390 . S
C453 C452 1.390 . S
C453 C454 1.394 1_655 S
C453 C459 1.465 . S
C454 C449 1.399 . S
C454 C453 1.394 1_455 S
C454 C455 1.516 . S
C455 C454 1.516 . S
C455 C456 1.502 1_554 S
C455 C457 1.561 . S
C455 C458 1.526 1_554 S
C456 H440 0.959 1_455 S
C456 H441 0.959 . S
C456 H442 0.961 . S
C456 C455 1.502 1_556 S
C457 H443 0.960 . S
C457 H444 0.961 1_554 S
C457 H445 0.959 . S
C457 C455 1.561 . S
C458 C455 1.526 1_556 S
C458 C459 1.396 1_456 S
C458 C463 1.390 . S
C459 C453 1.465 . S
C459 C458 1.396 1_654 S
C459 C460 1.399 . S
C460 H446 0.929 . S
C460 C459 1.399 . S
C460 C461 1.385 1_554 S
C461 H447 0.931 . S
C461 C460 1.385 1_556 S
C461 C462 1.389 . S
C462 C461 1.389 . S
C462 C463 1.387 1_655 S
C463 H448 0.930 . S
C463 C458 1.390 . S
C463 C462 1.387 1_455 S
H464 C476 0.930 . S
H465 C478 0.930 . S
H466 C479 0.930 . S
H467 C483 0.959 . S
H468 C483 0.959 . S
H469 C483 0.961 . S
H470 C484 0.960 . S
H471 C484 0.961 . S
H472 C484 0.959 . S
H473 C487 0.929 . S
H474 C488 0.931 . S
H475 C490 0.930 . S
C476 H464 0.930 . S
C476 C477 1.396 1_455 S
C476 C481 1.399 1_455 S
C477 C476 1.396 1_655 S
C477 C478 1.394 . S
C478 H465 0.930 . S
C478 C477 1.394 . S
C478 C479 1.388 . S
C479 H466 0.930 . S
C479 C478 1.388 . S
C479 C480 1.390 . S
C480 C479 1.390 . S
C480 C481 1.394 . S
C480 C486 1.465 . S
C481 C476 1.399 1_655 S
C481 C480 1.394 . S
C481 C482 1.516 . S
C482 C481 1.516 . S
C482 C483 1.502 1_655 S
C482 C484 1.561 . S
C482 C485 1.526 . S
C483 H467 0.959 . S
C483 H468 0.959 . S
C483 H469 0.961 . S
C483 C482 1.502 1_455 S
C484 H470 0.960 . S
C484 H471 0.961 . S
C484 H472 0.959 . S
C484 C482 1.561 . S
C485 C482 1.526 . S
C485 C486 1.396 . S
C485 C490 1.390 . S
C486 C480 1.465 . S
C486 C485 1.396 . S
C486 C487 1.399 . S
C487 H473 0.929 . S
C487 C486 1.399 . S
C487 C488 1.385 . S
C488 H474 0.931 . S
C488 C487 1.385 . S
C488 C489 1.389 . S
C489 C488 1.389 . S
C489 C490 1.387 . S
C490 H475 0.930 . S
C490 C485 1.390 . S
C490 C489 1.387 . S
H491 C503 0.930 . S
H492 C505 0.930 . S
H493 C506 0.930 . S
H494 C510 0.959 . S
H495 C510 0.959 . S
H496 C510 0.961 . S
H497 C511 0.960 . S
H498 C511 0.961 . S
H499 C511 0.959 . S
H500 C514 0.929 . S
H501 C515 0.931 . S
H502 C517 0.930 1_545 S
C503 H491 0.930 . S
C503 C504 1.399 1_545 S
C503 C508 1.399 . S
C504 C503 1.399 1_565 S
C504 C505 1.376 . S
C505 H492 0.930 . S
C505 C504 1.376 . S
C505 C506 1.388 . S
C506 H493 0.930 . S
C506 C505 1.388 . S
C506 C507 1.390 . S
C507 C506 1.390 . S
C507 C508 1.394 1_565 S
C507 C513 1.465 . S
C508 C503 1.399 . S
C508 C507 1.394 1_545 S
C508 C509 1.516 . S
C509 C508 1.516 . S
C509 C510 1.502 . S
C509 C511 1.561 . S
C509 C512 1.526 1_545 S
C510 H494 0.959 . S
C510 H495 0.959 . S
C510 H496 0.961 . S
C510 C509 1.502 . S
C511 H497 0.960 . S
C511 H498 0.961 . S
C511 H499 0.959 . S
C511 C509 1.561 . S
C512 C509 1.526 1_565 S
C512 C513 1.396 . S
C512 C517 1.390 . S
C513 C507 1.465 . S
C513 C512 1.396 . S
C513 C514 1.399 . S
C514 H500 0.929 . S
C514 C513 1.399 . S
C514 C515 1.385 . S
C515 H501 0.931 . S
C515 C514 1.385 . S
C515 C516 1.389 . S
C516 C515 1.389 . S
C516 C517 1.387 . S
C517 H502 0.930 1_565 S
C517 C512 1.390 . S
C517 C516 1.387 . S
H518 C530 0.930 . S
H519 C532 0.930 . S
H520 C533 0.930 . S
H521 C537 0.959 . S
H522 C537 0.959 . S
H523 C537 0.961 . S
H524 C538 0.960 . S
H525 C538 0.961 . S
H526 C538 0.959 . S
H527 C541 0.929 . S
H528 C542 0.931 . S
H529 C544 0.930 . S
C530 H518 0.930 . S
C530 C531 1.399 . S
C530 C535 1.399 . S
C531 C530 1.399 . S
C531 C532 1.376 . S
C532 H519 0.930 . S
C532 C531 1.376 . S
C532 C533 1.388 . S
C533 H520 0.930 . S
C533 C532 1.388 . S
C533 C534 1.390 . S
C534 C533 1.390 . S
C534 C535 1.394 . S
C534 C540 1.465 . S
C535 C530 1.399 . S
C535 C534 1.394 . S
C535 C536 1.516 . S
C536 C535 1.516 . S
C536 C537 1.502 . S
C536 C538 1.561 . S
C536 C539 1.526 . S
C537 H521 0.959 . S
C537 H522 0.959 . S
C537 H523 0.961 . S
C537 C536 1.502 . S
C538 H524 0.960 . S
C538 H525 0.961 . S
C538 H526 0.959 . S
C538 C536 1.561 . S
C539 C536 1.526 . S
C539 C540 1.396 . S
C539 C544 1.390 . S
C540 C534 1.465 . S
C540 C539 1.396 . S
C540 C541 1.399 . S
C541 H527 0.929 . S
C541 C540 1.399 . S
C541 C542 1.385 . S
C542 H528 0.931 . S
C542 C541 1.385 . S
C542 C543 1.389 . S
C543 C542 1.389 . S
C543 C544 1.387 . S
C544 H529 0.930 . S
C544 C539 1.390 . S
C544 C543 1.387 . S
H545 C557 0.930 . S
H546 C559 0.930 . S
H547 C560 0.930 . S
H548 C564 0.959 . S
H549 C564 0.959 . S
H550 C564 0.961 . S
H551 C565 0.960 . S
H552 C565 0.961 . S
H553 C565 0.959 . S
H554 C568 0.929 . S
H555 C569 0.931 . S
H556 C571 0.930 . S
C557 H545 0.930 . S
C557 C558 1.399 . S
C557 C562 1.399 . S
C558 C557 1.399 . S
C558 C559 1.376 . S
C559 H546 0.930 . S
C559 C558 1.376 . S
C559 C560 1.388 . S
C560 H547 0.930 . S
C560 C559 1.388 . S
C560 C561 1.390 . S
C561 C560 1.390 . S
C561 C562 1.394 . S
C561 C567 1.465 . S
C562 C557 1.399 . S
C562 C561 1.394 . S
C562 C563 1.516 . S
C563 C562 1.516 . S
C563 C564 1.502 . S
C563 C565 1.561 . S
C563 C566 1.526 . S
C564 H548 0.959 . S
C564 H549 0.959 . S
C564 H550 0.961 . S
C564 C563 1.502 . S
C565 H551 0.960 . S
C565 H552 0.961 . S
C565 H553 0.959 . S
C565 C563 1.561 . S
C566 C563 1.526 . S
C566 C567 1.396 . S
C566 C571 1.390 . S
C567 C561 1.465 . S
C567 C566 1.396 . S
C567 C568 1.399 . S
C568 H554 0.929 . S
C568 C567 1.399 . S
C568 C569 1.385 . S
C569 H555 0.931 . S
C569 C568 1.385 . S
C569 C570 1.389 . S
C570 C569 1.389 . S
C570 C571 1.387 . S
C571 H556 0.930 . S
C571 C566 1.390 . S
C571 C570 1.387 . S
H572 C584 0.930 . S
H573 C586 0.930 . S
H574 C587 0.930 . S
H575 C591 0.959 . S
H576 C591 0.959 . S
H577 C591 0.961 . S
H578 C592 0.960 . S
H579 C592 0.961 . S
H580 C592 0.979 . S
H581 C595 0.929 . S
H582 C596 0.931 . S
H583 C598 0.930 1_655 S
C584 H572 0.930 . S
C584 C585 1.399 1_655 S
C584 C589 1.410 . S
C585 C584 1.399 1_455 S
C585 C586 1.376 . S
C586 H573 0.930 . S
C586 C585 1.376 . S
C586 C587 1.388 . S
C587 H574 0.930 . S
C587 C586 1.388 . S
C587 C588 1.390 . S
C588 C587 1.390 . S
C588 C589 1.371 1_455 S
C588 C594 1.465 . S
C589 C584 1.410 . S
C589 C588 1.371 1_655 S
C589 C590 1.525 . S
C590 C589 1.525 . S
C590 C591 1.502 . S
C590 C592 1.561 . S
C590 C593 1.526 1_655 S
C591 H575 0.959 . S
C591 H576 0.959 . S
C591 H577 0.961 . S
C591 C590 1.502 . S
C592 H578 0.960 . S
C592 H579 0.961 . S
C592 H580 0.979 . S
C592 C590 1.561 . S
C593 C590 1.526 1_455 S
C593 C594 1.396 . S
C593 C598 1.390 . S
C594 C588 1.465 . S
C594 C593 1.396 . S
C594 C595 1.399 . S
C595 H581 0.929 . S
C595 C594 1.399 . S
C595 C596 1.385 . S
C596 H582 0.931 . S
C596 C595 1.385 . S
C596 C597 1.389 . S
C597 C596 1.389 . S
C597 C598 1.387 . S
C598 H583 0.930 1_455 S
C598 C593 1.390 . S
C598 C597 1.387 . S
H599 C611 0.930 . S
H600 C613 0.930 . S
H601 C614 0.930 . S
H602 C618 0.959 . S
H603 C618 0.959 1_556 S
H604 C618 0.961 . S
H605 C619 0.960 . S
H606 C619 0.961 . S
H607 C619 0.959 . S
H608 C622 0.929 . S
H609 C623 0.931 . S
H610 C625 0.930 1_565 S
C611 H599 0.930 . S
C611 C612 1.375 1_565 S
C611 C616 1.399 . S
C612 C611 1.375 1_545 S
C612 C613 1.420 . S
C613 H600 0.930 . S
C613 C612 1.420 . S
C613 C614 1.388 . S
C614 H601 0.930 . S
C614 C613 1.388 . S
C614 C615 1.390 . S
C615 C614 1.390 . S
C615 C616 1.394 1_545 S
C615 C621 1.465 . S
C616 C611 1.399 . S
C616 C615 1.394 1_565 S
C616 C617 1.516 . S
C617 C616 1.516 . S
C617 C618 1.502 . S
C617 C619 1.561 . S
C617 C620 1.526 1_565 S
C618 H602 0.959 . S
C618 H603 0.959 1_554 S
C618 H604 0.961 . S
C618 C617 1.502 . S
C619 H605 0.960 . S
C619 H606 0.961 . S
C619 H607 0.959 . S
C619 C617 1.561 . S
C620 C617 1.526 1_545 S
C620 C621 1.396 . S
C620 C625 1.390 . S
C621 C615 1.465 . S
C621 C620 1.396 . S
C621 C622 1.399 . S
C622 H608 0.929 . S
C622 C621 1.399 . S
C622 C623 1.385 . S
C623 H609 0.931 . S
C623 C622 1.385 . S
C623 C624 1.389 . S
C624 C623 1.389 . S
C624 C625 1.387 . S
C625 H610 0.930 1_545 S
C625 C620 1.390 . S
C625 C624 1.387 . S
H626 C638 0.930 . S
H627 C640 0.930 . S
H628 C641 0.930 . S
H629 C645 0.959 . S
H630 C645 0.959 . S
H631 C645 0.961 . S
H632 C646 0.960 . S
H633 C646 0.961 . S
H634 C646 0.959 . S
H635 C649 0.929 . S
H636 C650 0.931 1_556 S
H637 C652 0.930 . S
C638 H626 0.930 . S
C638 C639 1.399 . S
C638 C643 1.399 . S
C639 C638 1.399 . S
C639 C640 1.376 . S
C640 H627 0.930 . S
C640 C639 1.376 . S
C640 C641 1.388 . S
C641 H628 0.930 . S
C641 C640 1.388 . S
C641 C642 1.390 . S
C642 C641 1.390 . S
C642 C643 1.394 . S
C642 C648 1.465 . S
C643 C638 1.399 . S
C643 C642 1.394 . S
C643 C644 1.516 . S
C644 C643 1.516 . S
C644 C645 1.502 . S
C644 C646 1.561 . S
C644 C647 1.526 . S
C645 H629 0.959 . S
C645 H630 0.959 . S
C645 H631 0.961 . S
C645 C644 1.502 . S
C646 H632 0.960 . S
C646 H633 0.961 . S
C646 H634 0.959 . S
C646 C644 1.561 . S
C647 C644 1.526 . S
C647 C648 1.396 . S
C647 C652 1.390 . S
C648 C642 1.465 . S
C648 C647 1.396 . S
C648 C649 1.399 . S
C649 H635 0.929 . S
C649 C648 1.399 . S
C649 C650 1.385 . S
C650 H636 0.931 1_554 S
C650 C649 1.385 . S
C650 C651 1.389 . S
C651 C650 1.389 . S
C651 C652 1.387 . S
C652 H637 0.930 . S
C652 C647 1.390 . S
C652 C651 1.387 . S
H653 C665 0.930 . S
H654 C667 0.930 . S
H655 C668 0.930 . S
H656 C672 0.959 . S
H657 C672 0.959 . S
H658 C672 0.961 . S
H659 C673 0.960 . S
H660 C673 0.961 . S
H661 C673 0.959 . S
H662 C676 0.929 . S
H663 C677 0.931 1_556 S
H664 C679 0.930 . S
C665 H653 0.930 . S
C665 C666 1.399 . S
C665 C670 1.399 . S
C666 C665 1.399 . S
C666 C667 1.376 . S
C667 H654 0.930 . S
C667 C666 1.376 . S
C667 C668 1.388 . S
C668 H655 0.930 . S
C668 C667 1.388 . S
C668 C669 1.390 . S
C669 C668 1.390 . S
C669 C670 1.394 . S
C669 C675 1.465 . S
C670 C665 1.399 . S
C670 C669 1.394 . S
C670 C671 1.516 . S
C671 C670 1.516 . S
C671 C672 1.502 . S
C671 C673 1.561 . S
C671 C674 1.526 . S
C672 H656 0.959 . S
C672 H657 0.959 . S
C672 H658 0.961 . S
C672 C671 1.502 . S
C673 H659 0.960 . S
C673 H660 0.961 . S
C673 H661 0.959 . S
C673 C671 1.561 . S
C674 C671 1.526 . S
C674 C675 1.396 . S
C674 C679 1.390 . S
C675 C669 1.465 . S
C675 C674 1.396 . S
C675 C676 1.399 . S
C676 H662 0.929 . S
C676 C675 1.399 . S
C676 C677 1.385 . S
C677 H663 0.931 1_554 S
C677 C676 1.385 . S
C677 C678 1.389 . S
C678 C677 1.389 . S
C678 C679 1.387 . S
C679 H664 0.930 . S
C679 C674 1.390 . S
C679 C678 1.387 . S
H680 C692 0.930 . S
H681 C694 0.930 . S
H682 C695 0.930 . S
H683 C699 0.959 . S
H684 C699 0.959 . S
H685 C699 0.961 . S
H686 C700 0.964 . S
H687 C700 0.961 1_455 S
H688 C700 0.959 1_556 S
H689 C703 0.929 . S
H690 C704 0.931 . S
H691 C706 0.930 . S
C692 H680 0.930 . S
C692 C693 1.393 1_455 S
C692 C697 1.399 . S
C693 C692 1.393 1_655 S
C693 C694 1.383 . S
C694 H681 0.930 . S
C694 C693 1.383 . S
C694 C695 1.388 . S
C695 H682 0.930 . S
C695 C694 1.388 . S
C695 C696 1.390 . S
C696 C695 1.390 . S
C696 C697 1.394 1_655 S
C696 C702 1.465 . S
C697 C692 1.399 . S
C697 C696 1.394 1_455 S
C697 C698 1.516 . S
C698 C697 1.516 . S
C698 C699 1.502 . S
C698 C700 1.561 1_456 S
C698 C701 1.526 . S
C699 H683 0.959 . S
C699 H684 0.959 . S
C699 H685 0.961 . S
C699 C698 1.502 . S
C700 H686 0.964 . S
C700 H687 0.961 1_655 S
C700 H688 0.959 1_554 S
C700 C698 1.561 1_654 S
C701 C698 1.526 . S
C701 C702 1.396 1_455 S
C701 C706 1.390 . S
C702 C696 1.465 . S
C702 C701 1.396 1_655 S
C702 C703 1.399 . S
C703 H689 0.929 . S
C703 C702 1.399 . S
C703 C704 1.385 . S
C704 H690 0.931 . S
C704 C703 1.385 . S
C704 C705 1.389 1_655 S
C705 C704 1.389 1_455 S
C705 C706 1.387 . S
C706 H691 0.930 . S
C706 C701 1.390 . S
C706 C705 1.387 . S
H707 C719 0.930 . S
H708 C721 0.930 . S
H709 C722 0.930 . S
H710 C726 0.959 . S
H711 C726 0.959 . S
H712 C726 0.961 . S
H713 C727 0.960 . S
H714 C727 0.961 . S
H715 C727 0.959 . S
H716 C730 0.929 . S
H717 C731 0.931 . S
H718 C733 0.930 . S
C719 H707 0.930 . S
C719 C720 1.366 1_545 S
C719 C724 1.399 . S
C720 C719 1.366 1_565 S
C720 C721 1.416 . S
C721 H708 0.930 . S
C721 C720 1.416 . S
C721 C722 1.388 . S
C722 H709 0.930 . S
C722 C721 1.388 . S
C722 C723 1.390 . S
C723 C722 1.390 . S
C723 C724 1.394 1_565 S
C723 C729 1.465 . S
C724 C719 1.399 . S
C724 C723 1.394 1_545 S
C724 C725 1.516 . S
C725 C724 1.516 . S
C725 C726 1.502 . S
C725 C727 1.561 . S
C725 C728 1.526 . S
C726 H710 0.959 . S
C726 H711 0.959 . S
C726 H712 0.961 . S
C726 C725 1.502 . S
C727 H713 0.960 . S
C727 H714 0.961 . S
C727 H715 0.959 . S
C727 C725 1.561 . S
C728 C725 1.526 . S
C728 C729 1.396 1_545 S
C728 C733 1.390 . S
C729 C723 1.465 . S
C729 C728 1.396 1_565 S
C729 C730 1.399 . S
C730 H716 0.929 . S
C730 C729 1.399 . S
C730 C731 1.385 . S
C731 H717 0.931 . S
C731 C730 1.385 . S
C731 C732 1.389 1_565 S
C732 C731 1.389 1_545 S
C732 C733 1.387 . S
C733 H718 0.930 . S
C733 C728 1.390 . S
C733 C732 1.387 . S
H734 C746 0.930 . S
H735 C748 0.930 . S
H736 C749 0.930 . S
H737 C753 0.959 . S
H738 C753 0.959 . S
H739 C753 0.961 . S
H740 C754 0.960 1_554 S
H741 C754 0.961 1_554 S
H742 C754 0.959 . S
H743 C757 0.929 . S
H744 C758 0.931 . S
H745 C760 0.930 . S
C746 H734 0.930 . S
C746 C747 1.399 . S
C746 C751 1.399 . S
C747 C746 1.399 . S
C747 C748 1.376 . S
C748 H735 0.930 . S
C748 C747 1.376 . S
C748 C749 1.388 . S
C749 H736 0.930 . S
C749 C748 1.388 . S
C749 C750 1.390 . S
C750 C749 1.390 . S
C750 C751 1.394 . S
C750 C756 1.465 . S
C751 C746 1.399 . S
C751 C750 1.394 . S
C751 C752 1.516 . S
C752 C751 1.516 . S
C752 C753 1.502 . S
C752 C754 1.561 . S
C752 C755 1.526 . S
C753 H737 0.959 . S
C753 H738 0.959 . S
C753 H739 0.961 . S
C753 C752 1.502 . S
C754 H740 0.960 1_556 S
C754 H741 0.961 1_556 S
C754 H742 0.959 . S
C754 C752 1.561 . S
C755 C752 1.526 . S
C755 C756 1.396 . S
C755 C760 1.390 . S
C756 C750 1.465 . S
C756 C755 1.396 . S
C756 C757 1.399 . S
C757 H743 0.929 . S
C757 C756 1.399 . S
C757 C758 1.385 . S
C758 H744 0.931 . S
C758 C757 1.385 . S
C758 C759 1.389 . S
C759 C758 1.389 . S
C759 C760 1.387 . S
C760 H745 0.930 . S
C760 C755 1.390 . S
C760 C759 1.387 . S
H761 C773 0.930 . S
H762 C775 0.930 . S
H763 C776 0.930 . S
H764 C780 0.959 . S
H765 C780 0.959 . S
H766 C780 0.961 . S
H767 C781 0.960 . S
H768 C781 0.961 . S
H769 C781 0.959 . S
H770 C784 0.929 . S
H771 C785 0.931 . S
H772 C787 0.930 . S
C773 H761 0.930 . S
C773 C774 1.399 . S
C773 C778 1.399 . S
C774 C773 1.399 . S
C774 C775 1.376 . S
C775 H762 0.930 . S
C775 C774 1.376 . S
C775 C776 1.388 . S
C776 H763 0.930 . S
C776 C775 1.388 . S
C776 C777 1.390 . S
C777 C776 1.390 . S
C777 C778 1.394 . S
C777 C783 1.465 . S
C778 C773 1.399 . S
C778 C777 1.394 . S
C778 C779 1.516 . S
C779 C778 1.516 . S
C779 C780 1.502 . S
C779 C781 1.561 . S
C779 C782 1.526 . S
C780 H764 0.959 . S
C780 H765 0.959 . S
C780 H766 0.961 . S
C780 C779 1.502 . S
C781 H767 0.960 . S
C781 H768 0.961 . S
C781 H769 0.959 . S
C781 C779 1.561 . S
C782 C779 1.526 . S
C782 C783 1.396 . S
C782 C787 1.390 . S
C783 C777 1.465 . S
C783 C782 1.396 . S
C783 C784 1.399 . S
C784 H770 0.929 . S
C784 C783 1.399 . S
C784 C785 1.385 . S
C785 H771 0.931 . S
C785 C784 1.385 . S
C785 C786 1.389 . S
C786 C785 1.389 . S
C786 C787 1.387 . S
C787 H772 0.930 . S
C787 C782 1.390 . S
C787 C786 1.387 . S
H788 C800 0.930 . S
H789 C802 0.930 . S
H790 C803 0.930 . S
H791 C807 0.959 . S
H792 C807 0.959 . S
H793 C807 0.961 . S
H794 C808 0.960 . S
H795 C808 0.961 1_655 S
H796 C808 0.959 . S
H797 C811 0.929 . S
H798 C812 0.931 . S
H799 C814 0.930 . S
C800 H788 0.930 . S
C800 C801 1.394 1_655 S
C800 C805 1.399 . S
C801 C800 1.394 1_455 S
C801 C802 1.382 . S
C802 H789 0.930 . S
C802 C801 1.382 . S
C802 C803 1.388 . S
C803 H790 0.930 . S
C803 C802 1.388 . S
C803 C804 1.390 . S
C804 C803 1.390 . S
C804 C805 1.394 1_455 S
C804 C810 1.465 . S
C805 C800 1.399 . S
C805 C804 1.394 1_655 S
C805 C806 1.516 . S
C806 C805 1.516 . S
C806 C807 1.502 . S
C806 C808 1.561 1_655 S
C806 C809 1.526 . S
C807 H791 0.959 . S
C807 H792 0.959 . S
C807 H793 0.961 . S
C807 C806 1.502 . S
C808 H794 0.960 . S
C808 H795 0.961 1_455 S
C808 H796 0.959 . S
C808 C806 1.561 1_455 S
C809 C806 1.526 . S
C809 C810 1.396 1_655 S
C809 C814 1.390 . S
C810 C804 1.465 . S
C810 C809 1.396 1_455 S
C810 C811 1.399 . S
C811 H797 0.929 . S
C811 C810 1.399 . S
C811 C812 1.385 . S
C812 H798 0.931 . S
C812 C811 1.385 . S
C812 C813 1.389 1_455 S
C813 C812 1.389 1_655 S
C813 C814 1.387 . S
C814 H799 0.930 . S
C814 C809 1.390 . S
C814 C813 1.387 . S
H815 C827 0.930 . S
H816 C829 0.930 . S
H817 C830 0.930 . S
H818 C834 0.959 . S
H819 C834 0.959 . S
H820 C834 0.961 . S
H821 C835 0.960 . S
H822 C835 0.961 . S
H823 C835 0.959 . S
H824 C838 0.929 . S
H825 C839 0.931 . S
H826 C841 0.930 . S
C827 H815 0.930 . S
C827 C828 1.406 . S
C827 C832 1.399 . S
C828 C827 1.406 . S
C828 C829 1.369 1_565 S
C829 H816 0.930 . S
C829 C828 1.369 1_545 S
C829 C830 1.388 . S
C830 H817 0.930 . S
C830 C829 1.388 . S
C830 C831 1.390 . S
C831 C830 1.390 . S
C831 C832 1.394 1_545 S
C831 C837 1.465 . S
C832 C827 1.399 . S
C832 C831 1.394 1_565 S
C832 C833 1.516 . S
C833 C832 1.516 . S
C833 C834 1.502 . S
C833 C835 1.561 . S
C833 C836 1.526 . S
C834 H818 0.959 . S
C834 H819 0.959 . S
C834 H820 0.961 . S
C834 C833 1.502 . S
C835 H821 0.960 . S
C835 H822 0.961 . S
C835 H823 0.959 . S
C835 C833 1.561 . S
C836 C833 1.526 . S
C836 C837 1.396 1_565 S
C836 C841 1.390 . S
C837 C831 1.465 . S
C837 C836 1.396 1_545 S
C837 C838 1.399 . S
C838 H824 0.929 . S
C838 C837 1.399 . S
C838 C839 1.385 . S
C839 H825 0.931 . S
C839 C838 1.385 . S
C839 C840 1.389 1_545 S
C840 C839 1.389 1_565 S
C840 C841 1.387 . S
C841 H826 0.930 . S
C841 C836 1.390 . S
C841 C840 1.387 . S
H842 C854 0.930 . S
H843 C856 0.930 . S
H844 C857 0.930 . S
H845 C861 0.959 . S
H846 C861 0.959 . S
H847 C861 0.961 . S
H848 C862 0.960 . S
H849 C862 0.961 . S
H850 C862 0.959 . S
H851 C865 0.929 . S
H852 C866 0.931 . S
H853 C868 0.930 . S
C854 H842 0.930 . S
C854 C855 1.399 . S
C854 C859 1.399 . S
C855 C854 1.399 . S
C855 C856 1.376 . S
C856 H843 0.930 . S
C856 C855 1.376 . S
C856 C857 1.388 . S
C857 H844 0.930 . S
C857 C856 1.388 . S
C857 C858 1.390 . S
C858 C857 1.390 . S
C858 C859 1.394 . S
C858 C864 1.465 . S
C859 C854 1.399 . S
C859 C858 1.394 . S
C859 C860 1.516 . S
C860 C859 1.516 . S
C860 C861 1.502 . S
C860 C862 1.561 . S
C860 C863 1.526 . S
C861 H845 0.959 . S
C861 H846 0.959 . S
C861 H847 0.961 . S
C861 C860 1.502 . S
C862 H848 0.960 . S
C862 H849 0.961 . S
C862 H850 0.959 . S
C862 C860 1.561 . S
C863 C860 1.526 . S
C863 C864 1.396 . S
C863 C868 1.390 . S
C864 C858 1.465 . S
C864 C863 1.396 . S
C864 C865 1.399 . S
C865 H851 0.929 . S
C865 C864 1.399 . S
C865 C866 1.385 . S
C866 H852 0.931 . S
C866 C865 1.385 . S
C866 C867 1.389 . S
C867 C866 1.389 . S
C867 C868 1.387 . S
C868 H853 0.930 . S
C868 C863 1.390 . S
C868 C867 1.387 . S
H869 C881 0.930 . S
H870 C883 0.930 . S
H871 C884 0.930 . S
H872 C888 0.959 . S
H873 C888 0.959 . S
H874 C888 0.961 . S
H875 C889 0.960 . S
H876 C889 0.961 . S
H877 C889 0.959 . S
H878 C892 0.929 . S
H879 C893 0.931 . S
H880 C895 0.930 . S
C881 H869 0.930 . S
C881 C882 1.399 . S
C881 C886 1.399 . S
C882 C881 1.399 . S
C882 C883 1.376 . S
C883 H870 0.930 . S
C883 C882 1.376 . S
C883 C884 1.388 . S
C884 H871 0.930 . S
C884 C883 1.388 . S
C884 C885 1.390 . S
C885 C884 1.390 . S
C885 C886 1.394 . S
C885 C891 1.465 . S
C886 C881 1.399 . S
C886 C885 1.394 . S
C886 C887 1.516 . S
C887 C886 1.516 . S
C887 C888 1.502 . S
C887 C889 1.561 . S
C887 C890 1.526 . S
C888 H872 0.959 . S
C888 H873 0.959 . S
C888 H874 0.961 . S
C888 C887 1.502 . S
C889 H875 0.960 . S
C889 H876 0.961 . S
C889 H877 0.959 . S
C889 C887 1.561 . S
C890 C887 1.526 . S
C890 C891 1.396 . S
C890 C895 1.390 . S
C891 C885 1.465 . S
C891 C890 1.396 . S
C891 C892 1.399 . S
C892 H878 0.929 . S
C892 C891 1.399 . S
C892 C893 1.385 . S
C893 H879 0.931 . S
C893 C892 1.385 . S
C893 C894 1.389 . S
C894 C893 1.389 . S
C894 C895 1.387 . S
C895 H880 0.930 . S
C895 C890 1.390 . S
C895 C894 1.387 . S
C261 C74 1.800 1_565 S
C273 C97 1.862 . S
C300 C137 1.873 . S
C288 C85 1.747 . S
C327 C177 1.881 . S
C315 C52 1.818 . S
C354 C217 1.865 . S
C342 C63 1.772 1_655 S
C381 C106 1.861 . S
C369 C30 1.739 . S
C396 C41 1.765 . S
C408 C146 1.883 . S
C423 C8 1.799 . S
C435 C186 1.892 . S
C450 C19 1.811 1_655 S
C462 C226 1.883 1_655 S
C489 C103 0.617 . S
C477 C62 0.587 1_655 S
C516 C143 0.666 . S
C504 C73 0.583 1_565 S
C543 C183 0.564 . S
C531 C84 0.565 . S
C558 C51 0.566 . S
C570 C223 0.525 . S
C585 C18 0.516 . S
C597 C94 0.659 . S
C624 C134 0.655 . S
C612 C29 0.599 . S
C651 C174 0.665 . S
C639 C40 0.526 . S
C666 C7 0.665 . S
C678 C214 0.542 . S
C693 C60 1.794 1_655 S
C705 C107 2.241 . S
C720 C71 1.739 1_565 S
C732 C147 2.211 . S
C759 C187 2.204 . S
C747 C82 1.746 . S
C786 C227 2.258 . S
C774 C49 1.638 . S
C801 C16 1.740 . S
C813 C98 2.257 . S
C840 C138 2.216 . S
C828 C27 1.775 1_565 S
C867 C178 2.230 . S
C855 C38 1.836 . S
C882 C5 1.823 . S
C894 C218 2.238 . S
