# Generated by pormake.
# Topology pyr, (3,6)-cn, num edge types: 1
# Building blocks:
#     Node 0, Type 0, BuildingBlock: OLANEW_clean_sbu_2, # of connection points: 3
#     Node 1, Type 0, BuildingBlock: OLANEW_clean_sbu_2, # of connection points: 3
#     Node 2, Type 0, BuildingBlock: OLANEW_clean_sbu_2, # of connection points: 3
#     Node 3, Type 0, BuildingBlock: OLANEW_clean_sbu_2, # of connection points: 3
#     Node 4, Type 0, BuildingBlock: OLANEW_clean_sbu_2, # of connection points: 3
#     Node 5, Type 0, BuildingBlock: OLANEW_clean_sbu_2, # of connection points: 3
#     Node 6, Type 0, BuildingBlock: OLANEW_clean_sbu_2, # of connection points: 3
#     Node 7, Type 0, BuildingBlock: OLANEW_clean_sbu_2, # of connection points: 3
#     Node 8, Type 1, BuildingBlock: FUNLAD_clean_sbu_0, # of connection points: 6
#     Node 9, Type 1, BuildingBlock: FUNLAD_clean_sbu_0, # of connection points: 6
#     Node 10, Type 1, BuildingBlock: FUNLAD_clean_sbu_0, # of connection points: 6
#     Node 11, Type 1, BuildingBlock: FUNLAD_clean_sbu_0, # of connection points: 6
#     Edge 12, Type (0, 1), BuildingBlock: XUDNAN_clean_linker_2, # of connection points: 2
#     Edge 13, Type (0, 1), BuildingBlock: XUDNAN_clean_linker_2, # of connection points: 2
#     Edge 14, Type (0, 1), BuildingBlock: XUDNAN_clean_linker_2, # of connection points: 2
#     Edge 15, Type (0, 1), BuildingBlock: XUDNAN_clean_linker_2, # of connection points: 2
#     Edge 16, Type (0, 1), BuildingBlock: XUDNAN_clean_linker_2, # of connection points: 2
#     Edge 17, Type (0, 1), BuildingBlock: XUDNAN_clean_linker_2, # of connection points: 2
#     Edge 18, Type (0, 1), BuildingBlock: XUDNAN_clean_linker_2, # of connection points: 2
#     Edge 19, Type (0, 1), BuildingBlock: XUDNAN_clean_linker_2, # of connection points: 2
#     Edge 20, Type (0, 1), BuildingBlock: XUDNAN_clean_linker_2, # of connection points: 2
#     Edge 21, Type (0, 1), BuildingBlock: XUDNAN_clean_linker_2, # of connection points: 2
#     Edge 22, Type (0, 1), BuildingBlock: XUDNAN_clean_linker_2, # of connection points: 2
#     Edge 23, Type (0, 1), BuildingBlock: XUDNAN_clean_linker_2, # of connection points: 2
#     Edge 24, Type (0, 1), BuildingBlock: XUDNAN_clean_linker_2, # of connection points: 2
#     Edge 25, Type (0, 1), BuildingBlock: XUDNAN_clean_linker_2, # of connection points: 2
#     Edge 26, Type (0, 1), BuildingBlock: XUDNAN_clean_linker_2, # of connection points: 2
#     Edge 27, Type (0, 1), BuildingBlock: XUDNAN_clean_linker_2, # of connection points: 2
#     Edge 28, Type (0, 1), BuildingBlock: XUDNAN_clean_linker_2, # of connection points: 2
#     Edge 29, Type (0, 1), BuildingBlock: XUDNAN_clean_linker_2, # of connection points: 2
#     Edge 30, Type (0, 1), BuildingBlock: XUDNAN_clean_linker_2, # of connection points: 2
#     Edge 31, Type (0, 1), BuildingBlock: XUDNAN_clean_linker_2, # of connection points: 2
#     Edge 32, Type (0, 1), BuildingBlock: XUDNAN_clean_linker_2, # of connection points: 2
#     Edge 33, Type (0, 1), BuildingBlock: XUDNAN_clean_linker_2, # of connection points: 2
#     Edge 34, Type (0, 1), BuildingBlock: XUDNAN_clean_linker_2, # of connection points: 2
#     Edge 35, Type (0, 1), BuildingBlock: XUDNAN_clean_linker_2, # of connection points: 2
# Relax obj value: 0.144
# Max RMSD: 0.170
# Mean RMSD: 0.117
data_MOF--net-pry--node1-OLANEW_clean_sbu_2--node2-FUNLAD_clean_sbu_0--edge1-XUDNAN_clean_linker_2
_symmetry_space_group_name_H-M    P1
_symmetry_Int_Tables_number       1
_symmetry_cell_setting            triclinic
loop_
_symmetry_equiv_pos_as_xyz
'x, y, z'
_cell_length_a     37.988476
_cell_length_b     40.696265
_cell_length_c     40.682433
_cell_angle_alpha  93.867923
_cell_angle_beta   89.041028
_cell_angle_gamma 90.646304
loop_
_atom_site_label
_atom_site_type_symbol
_atom_site_fract_x
_atom_site_fract_y
_atom_site_fract_z
_atom_type_partial_charge
O0 O 0.22421 0.18494 0.17321 0.0
Cd1 Cd 0.17111 0.21783 0.1898 0.0
O2 O 0.23199 0.14499 0.20725 0.0
Cd3 Cd 0.19064 0.15094 0.24639 0.0
O4 O 0.16363 0.14577 0.29487 0.0
C5 C 0.15533 0.11783 0.30543 0.0
O6 O 0.16189 0.09104 0.28657 0.0
C7 C 0.24125 0.16005 0.18187 0.0
C8 C 0.15415 0.26942 0.14895 0.0
O9 O 0.17006 0.27563 0.17624 0.0
O10 O 0.14685 0.2392 0.14067 0.0
O11 O 0.4161 0.88822 0.78705 0.0
Cd12 Cd 0.38816 0.85031 0.74496 0.0
O13 O 0.38701 0.93187 0.77355 0.0
Cd14 Cd 0.3531 0.90991 0.73458 0.0
O15 O 0.30898 0.92118 0.70297 0.0
C16 C 0.30858 0.95135 0.69665 0.0
O17 O 0.33416 0.97069 0.70807 0.0
C18 C 0.40948 0.91884 0.79139 0.0
C19 C 0.42889 0.79627 0.72099 0.0
O20 O 0.42556 0.8213 0.70384 0.0
O21 O 0.41362 0.79699 0.74935 0.0
O22 O 0.73466 0.54986 0.99424 0.0
Cd23 Cd 0.6732 0.56655 0.99559 0.0
O24 O 0.71175 0.50063 0.99657 0.0
Cd25 Cd 0.71003 0.44705 0.99672 0.0
O26 O 0.68529 0.3987 0.99922 0.0
C27 C 0.65184 0.39859 1.00041 0.0
O28 O 0.63533 0.42674 0.99976 0.0
C29 C 0.73889 0.51902 0.99504 0.0
C30 C 0.64227 0.54241 0.93724 0.0
O31 O 0.6433 0.52466 0.96204 0.0
O32 O 0.65512 0.57169 0.9404 0.0
O33 O 0.92107 0.66082 0.46737 0.0
Cd34 Cd 0.88643 0.61242 0.44963 0.0
O35 O 0.95958 0.63726 0.49781 0.0
Cd36 Cd 0.9264 0.59304 0.49544 0.0
O37 O 0.87393 0.57068 0.49488 0.0
C38 C 0.85545 0.57047 0.52117 0.0
O39 O 0.86967 0.58061 0.54933 0.0
C40 C 0.94875 0.66266 0.48459 0.0
C41 C 0.89656 0.60182 0.38196 0.0
O42 O 0.91556 0.58709 0.40203 0.0
O43 O 0.87209 0.62069 0.39395 0.0
O44 O 0.913 0.85938 0.82271 0.0
Cd45 Cd 0.88765 0.81921 0.86079 0.0
O46 O 0.87557 0.89914 0.83828 0.0
Cd47 Cd 0.8407 0.88171 0.87757 0.0
O48 O 0.79826 0.89748 0.91312 0.0
C49 C 0.80306 0.92587 0.92756 0.0
O50 O 0.83247 0.94175 0.92127 0.0
C51 C 0.90122 0.88837 0.82012 0.0
C52 C 0.92881 0.77728 0.8975 0.0
O53 O 0.92026 0.76875 0.86774 0.0
O54 O 0.91969 0.80607 0.90917 0.0
O55 O 0.65863 0.11679 0.36368 0.0
Cd56 Cd 0.67547 0.13615 0.42003 0.0
O57 O 0.62992 0.16055 0.34927 0.0
Cd58 Cd 0.63306 0.19514 0.39326 0.0
O59 O 0.61433 0.2432 0.41484 0.0
C60 C 0.617 0.25528 0.4444 0.0
O61 O 0.63303 0.23842 0.46605 0.0
C62 C 0.64117 0.13143 0.3426 0.0
C63 C 0.74346 0.11989 0.44009 0.0
O64 O 0.71764 0.09972 0.44319 0.0
O65 O 0.73731 0.14688 0.42678 0.0
O66 O 0.54321 0.66097 0.13023 0.0
Cd67 Cd 0.55794 0.60546 0.14387 0.0
O68 O 0.48982 0.64184 0.12211 0.0
Cd69 Cd 0.43437 0.64341 0.10894 0.0
O70 O 0.37752 0.64129 0.10273 0.0
C71 C 0.36375 0.62503 0.07836 0.0
O72 O 0.38433 0.60983 0.05609 0.0
C73 C 0.51131 0.66608 0.12343 0.0
C74 C 0.53302 0.59632 0.20747 0.0
O75 O 0.56449 0.60668 0.20232 0.0
O76 O 0.51352 0.58966 0.18244 0.0
O77 O 0.11951 0.44604 0.62686 0.0
Cd78 Cd 0.13463 0.50465 0.62714 0.0
O79 O 0.11099 0.40108 0.65338 0.0
Cd80 Cd 0.11331 0.38315 0.70277 0.0
O81 O 0.12609 0.38344 0.75521 0.0
C82 C 0.11755 0.36072 0.77388 0.0
O83 O 0.12403 0.36486 0.80551 0.0
C84 C 0.11692 0.43184 0.65366 0.0
C85 C 0.20761 0.51139 0.62922 0.0
O86 O 0.19175 0.50832 0.60161 0.0
O87 O 0.18886 0.51247 0.65572 0.0
C88 C 0.05427 0.05686 0.51905 0.0
N89 N 0.02747 0.10144 0.6122 0.0
C90 C 0.05894 0.11769 0.61238 0.0
C91 C 0.06335 0.14697 0.63175 0.0
C92 C 0.03499 0.15994 0.6509 0.0
C93 C 1.00244 0.1432 0.64933 0.0
C94 C 0.99929 0.11377 0.62984 0.0
Zn95 Zn 0.02375 0.05637 0.58746 0.0
C96 C 0.95789 0.04965 0.54895 0.0
N97 N 0.01693 0.96124 0.5379 0.0
C98 C 0.04649 0.94697 0.52435 0.0
C99 C 0.98618 0.94405 0.54003 0.0
C100 C 0.98473 0.91072 0.52963 0.0
C101 C 0.01531 0.8949 0.51721 0.0
C102 C 0.0463 0.91356 0.51393 0.0
Zn103 Zn 0.02001 1.00703 0.56114 0.0
O104 O 0.04846 0.07496 0.54526 0.0
C105 C 0.08719 0.01668 0.5984 0.0
O106 O 0.04543 0.0265 0.51834 0.0
H107 H 0.96315 0.95581 0.55126 0.0
H108 H 0.08101 0.10744 0.59819 0.0
H109 H 0.07065 0.96114 0.52292 0.0
O110 O 0.07294 0.04434 0.6053 0.0
O111 O 0.07085 0.99499 0.58038 0.0
H112 H 0.97451 0.10042 0.62934 0.0
O113 O 0.99516 0.98805 0.6044 0.0
O114 O 0.99893 0.03715 0.62963 0.0
O115 O 0.96917 0.02061 0.54172 0.0
O116 O 0.97526 0.06884 0.56866 0.0
C117 C 0.99006 1.00696 0.6302 0.0
H118 H 0.0891 0.15864 0.6325 0.0
H119 H 0.9797 0.15252 0.66323 0.0
H120 H 0.9604 0.89711 0.53293 0.0
H121 H 0.07031 0.90227 0.50418 0.0
C122 C 0.59099 0.01713 0.04089 0.0
N123 N 0.54572 0.11033 0.04251 0.0
C124 C 0.57587 0.12502 0.05393 0.0
C125 C 0.58377 0.15756 0.0474 0.0
C126 C 0.5605 0.17512 0.02877 0.0
C127 C 0.53006 0.15896 0.01655 0.0
C128 C 0.52308 0.1265 0.02386 0.0
Zn129 Zn 0.53275 0.064 0.05519 0.0
C130 C 0.50008 0.02313 0.99892 0.0
N131 N 0.50423 0.9676 0.08124 0.0
C132 C 0.52915 0.95055 0.09638 0.0
C133 C 0.4728 0.95343 0.07262 0.0
C134 C 0.4659 0.92048 0.0784 0.0
C135 C 0.49166 0.90202 0.09307 0.0
C136 C 0.52337 0.91766 0.10259 0.0
Zn137 Zn 0.51677 0.01406 0.06876 0.0
O138 O 0.58338 0.04744 0.04116 0.0
C139 C 0.55058 0.05339 0.12495 0.0
O140 O 0.56791 0.99679 0.05049 0.0
H141 H 0.45344 0.96744 0.06047 0.0
H142 H 0.59351 0.11172 0.06872 0.0
H143 H 0.55395 0.96226 0.10301 0.0
O144 O 0.55076 0.0758 0.10458 0.0
O145 O 0.538 0.02517 0.11616 0.0
H146 H 0.49923 0.11439 0.01505 0.0
O147 O 0.46545 0.0328 0.08649 0.0
O148 O 0.48222 0.08047 0.06915 0.0
O149 O 0.49648 1.00289 0.02119 0.0
O150 O 0.51462 0.05101 1.00603 0.0
C151 C 0.45873 0.06284 0.0821 0.0
H152 H 0.60733 0.16908 0.05768 0.0
H153 H 0.51166 0.17129 1.00162 0.0
H154 H 0.44118 0.9093 0.07049 0.0
H155 H 0.5437 0.90451 0.11448 0.0
C156 C 0.54004 0.47078 0.54412 0.0
N157 N 0.5592 0.5083 0.64151 0.0
C158 C 0.54242 0.48432 0.65776 0.0
C159 C 0.5507 0.4795 0.69049 0.0
C160 C 0.57659 0.49944 0.7064 0.0
C161 C 0.59497 0.52239 0.68818 0.0
C162 C 0.58553 0.52672 0.65591 0.0
Zn163 Zn 0.54194 0.52266 0.59737 0.0
C164 C 0.60058 0.54703 0.55603 0.0
N165 N 0.5059 0.5595 0.50843 0.0
C166 C 0.48406 0.53966 0.48959 0.0
C167 C 0.52012 0.58742 0.49693 0.0
C168 C 0.51403 0.59535 0.46467 0.0
C169 C 0.4932 0.57431 0.44402 0.0
C170 C 0.47731 0.54664 0.45718 0.0
Zn171 Zn 0.52234 0.54401 0.55229 0.0
O172 O 0.54751 0.47443 0.57453 0.0
C173 C 0.46358 0.51958 0.59314 0.0
O174 O 0.52891 0.49538 0.5297 0.0
H175 H 0.53744 0.60281 0.51233 0.0
H176 H 0.52146 0.47001 0.64593 0.0
H177 H 0.47317 0.51751 0.49917 0.0
O178 O 0.48901 0.51243 0.6112 0.0
O179 O 0.47002 0.53266 0.56616 0.0
H180 H 0.59826 0.54603 0.64296 0.0
O181 O 0.51598 0.59247 0.5761 0.0
O182 O 0.53621 0.57083 0.61979 0.0
O183 O 0.57503 0.55494 0.53856 0.0
O184 O 0.59433 0.53327 0.58262 0.0
C185 C 0.5243 0.59561 0.60634 0.0
H186 H 0.53578 0.46156 0.70362 0.0
H187 H 0.61571 0.53776 0.6991 0.0
H188 H 0.52636 0.61721 0.4557 0.0
H189 H 0.46137 0.52954 0.4421 0.0
C190 C 0.02905 0.58947 1.00533 0.0
N191 N 0.02603 0.5476 0.09759 0.0
C192 C 0.02687 0.57958 0.10973 0.0
C193 C 0.01061 0.58877 0.13991 0.0
C194 C 0.99386 0.56473 0.15794 0.0
C195 C 0.99455 0.53175 0.14551 0.0
C196 C 0.01063 0.52371 0.11497 0.0
Zn197 Zn 0.04502 0.5358 0.05111 0.0
C198 C 0.98976 0.50124 0.01039 0.0
N199 N 0.08109 0.51245 0.95267 0.0
C200 C 0.10192 0.53481 0.93796 0.0
C201 C 0.07075 0.48392 0.93607 0.0
C202 C 0.08061 0.47743 0.90307 0.0
C203 C 0.10171 0.5003 0.88723 0.0
C204 C 0.11284 0.52906 0.90517 0.0
Zn205 Zn 0.06302 0.52361 0.99961 0.0
O206 O 0.0245 0.58121 0.03476 0.0
C207 C 0.11777 0.55903 0.04147 0.0
O208 O 0.04561 0.57011 0.98488 0.0
H209 H 0.0543 0.46643 0.94825 0.0
H210 H 0.03944 0.59815 0.09564 0.0
H211 H 0.10951 0.55751 0.95145 0.0
O212 O 0.0927 0.55966 0.06251 0.0
O213 O 0.11322 0.5446 0.01309 0.0
H214 H 0.00996 0.49849 0.10474 0.0
O215 O 0.07977 0.47654 0.01469 0.0
O216 O 0.06599 0.49046 0.06631 0.0
O217 O 0.01244 0.50364 0.98735 0.0
O218 O 0.9971 0.51179 0.03953 0.0
C219 C 0.07857 0.46947 0.04476 0.0
H220 H 0.01086 0.61443 0.14895 0.0
H221 H 0.98167 0.51259 0.15869 0.0
H222 H 0.07178 0.45482 0.89002 0.0
H223 H 0.12888 0.54738 0.89367 0.0
H224 H 0.13166 0.06197 0.33417 0.0
H225 H 0.14384 0.16773 0.35316 0.0
H226 H 0.11983 0.1633 0.4095 0.0
H227 H 0.0495 0.0542 0.37963 0.0
H228 H 0.0606 0.01517 0.39499 0.0
H229 H 0.07862 0.0266 0.35609 0.0
H230 H 0.14165 0.01776 0.37691 0.0
H231 H 0.12382 1.00643 0.41592 0.0
H232 H 0.15571 0.03946 0.4146 0.0
H233 H 0.09567 0.14737 0.46421 0.0
H234 H 0.07102 0.12163 0.51271 0.0
H235 H 0.07335 0.02597 0.45853 0.0
C236 C 0.12921 0.08426 0.35011 0.0
C237 C 0.13975 0.11527 0.33908 0.0
C238 C 0.13598 0.14373 0.36086 0.0
C239 C 0.1224 0.14144 0.39299 0.0
C240 C 0.11252 0.11053 0.40309 0.0
C241 C 0.11555 0.08244 0.38226 0.0
C242 C 0.10281 0.05224 0.39925 0.0
C243 C 0.07099 0.03611 0.38143 0.0
C244 C 0.13279 0.02752 0.40182 0.0
C245 C 0.09223 0.06772 0.43293 0.0
C246 C 0.09818 0.10136 0.43458 0.0
C247 C 0.09082 0.12106 0.46313 0.0
C248 C 0.07684 0.10612 0.49065 0.0
C249 C 0.07013 0.07169 0.48962 0.0
C250 C 0.07808 0.05232 0.46023 0.0
H251 H 0.43483 0.89966 0.85014 0.0
H252 H 0.42131 0.98518 0.79363 0.0
H253 H 0.44515 0.02095 0.83961 0.0
H254 H 0.4068 0.93851 0.92662 0.0
H255 H 0.43748 0.91764 0.95112 0.0
H256 H 0.42252 0.89822 0.91272 0.0
H257 H 0.48711 0.89163 0.89203 0.0
H258 H 0.50227 0.91085 0.9305 0.0
H259 H 0.51565 0.92733 0.89215 0.0
H260 H 0.46914 0.0478 0.89244 0.0
H261 H 0.48938 0.06369 0.94885 0.0
H262 H 0.4841 0.9612 0.9721 0.0
C263 C 0.43754 0.92583 0.84723 0.0
C264 C 0.42657 0.93959 0.81813 0.0
C265 C 0.42969 0.97407 0.81562 0.0
C266 C 0.44324 0.99461 0.8416 0.0
C267 C 0.45327 0.98039 0.87017 0.0
C268 C 0.45047 0.9468 0.87321 0.0
C269 C 0.46107 0.93806 0.90731 0.0
C270 C 0.43012 0.92217 0.92551 0.0
C271 C 0.49345 0.91564 0.90537 0.0
C272 C 0.47002 0.97195 0.92296 0.0
C273 C 0.46574 0.996 0.90102 0.0
C274 C 0.47258 0.02916 0.90984 0.0
C275 C 0.48406 0.03797 0.94193 0.0
C276 C 0.48815 0.01377 0.96497 0.0
C277 C 0.48099 0.98035 0.95518 0.0
H278 H 0.62771 0.57676 0.88386 0.0
H279 H 0.6251 0.47822 0.91855 0.0
H280 H 0.60545 0.45602 0.86367 0.0
H281 H 0.5504 0.56667 0.83179 0.0
H282 H 0.56926 0.59151 0.8008 0.0
H283 H 0.58108 0.59939 0.84332 0.0
H284 H 0.64704 0.59296 0.82695 0.0
H285 H 0.63541 0.58481 0.78446 0.0
H286 H 0.66149 0.55563 0.80461 0.0
H287 H 0.59001 0.44447 0.8032 0.0
H288 H 0.57827 0.44508 0.74352 0.0
H289 H 0.58885 0.55165 0.75061 0.0
C290 C 0.62267 0.55054 0.88008 0.0
C291 C 0.62795 0.52921 0.90542 0.0
C292 C 0.62106 0.49504 0.89947 0.0
C293 C 0.60995 0.4822 0.86839 0.0
C294 C 0.60552 0.50393 0.84375 0.0
C295 C 0.61134 0.53742 0.84944 0.0
C296 C 0.60549 0.55556 0.81884 0.0
C297 C 0.57472 0.5797 0.824 0.0
C298 C 0.63938 0.57327 0.80809 0.0
C299 C 0.59621 0.52701 0.7948 0.0
C300 C 0.59623 0.49739 0.80948 0.0
C301 C 0.58956 0.46759 0.79155 0.0
C302 C 0.58282 0.46817 0.75771 0.0
C303 C 0.58291 0.49836 0.74226 0.0
C304 C 0.58926 0.52805 0.76138 0.0
H305 H 0.94171 0.55895 0.34825 0.0
H306 H 0.86865 0.63805 0.33477 0.0
H307 H 0.88469 0.63623 0.27566 0.0
H308 H 0.00867 0.58498 0.29446 0.0
H309 H 0.02036 0.54415 0.27835 0.0
H310 H 1.0019 0.55034 0.31931 0.0
H311 H 0.95225 0.50803 0.30436 0.0
H312 H 0.97071 0.50151 0.26339 0.0
H313 H 0.92536 0.5135 0.26908 0.0
H314 H 0.91188 0.62883 0.2192 0.0
H315 H 0.94516 0.61317 0.16787 0.0
H316 H 0.99891 0.53764 0.2175 0.0
C317 C 0.92878 0.57563 0.3328 0.0
C318 C 0.90394 0.59867 0.34611 0.0
C319 C 0.88765 0.62011 0.32509 0.0
C320 C 0.89664 0.61933 0.2915 0.0
C321 C 0.92167 0.59673 0.27928 0.0
C322 C 0.93719 0.57497 0.29916 0.0
C323 C 0.96363 0.55338 0.27991 0.0
C324 C 1.00083 0.55854 0.29384 0.0
C325 C 0.95229 0.51695 0.27914 0.0
C326 C 0.96095 0.56679 0.24624 0.0
C327 C 0.93669 0.59186 0.24645 0.0
C328 C 0.93068 0.60901 0.21862 0.0
C329 C 0.94983 0.60012 0.1897 0.0
C330 C 0.97443 0.5742 0.18885 0.0
C331 C 0.97993 0.55731 0.21747 0.0
H332 H 0.28455 0.10701 0.19119 0.0
H333 H 0.26913 0.18647 0.12686 0.0
H334 H 0.32079 0.16801 0.09359 0.0
H335 H 0.37891 0.11081 0.19051 0.0
H336 H 0.38467 0.06688 0.19022 0.0
H337 H 0.34566 0.08545 0.20872 0.0
H338 H 0.30685 0.04684 0.17095 0.0
H339 H 0.34577 0.02821 0.15224 0.0
H340 H 0.31343 0.04584 0.1269 0.0
H341 H 0.37494 0.14305 0.06846 0.0
H342 H 0.4291 0.11306 0.05271 0.0
H343 H 0.41057 0.04811 0.13174 0.0
C344 C 0.29192 0.12047 0.17003 0.0
C345 C 0.2725 0.14832 0.16177 0.0
C346 C 0.2833 0.16515 0.13385 0.0
C347 C 0.31267 0.1548 0.11469 0.0
C348 C 0.33112 0.12742 0.12351 0.0
C349 C 0.32127 0.11039 0.15045 0.0
C350 C 0.34638 0.08211 0.15472 0.0
C351 C 0.36501 0.08659 0.18802 0.0
C352 C 0.32694 0.04877 0.15098 0.0
C353 C 0.37206 0.08619 0.12615 0.0
C354 C 0.36252 0.11252 0.10855 0.0
C355 C 0.38253 0.12226 0.0819 0.0
C356 C 0.41334 0.10503 0.07319 0.0
C357 C 0.42409 0.07808 0.09084 0.0
C358 C 0.4028 0.06825 0.11746 0.0
H359 H 0.24851 0.91996 0.67149 0.0
H360 H 0.30193 0.01502 0.68164 0.0
H361 H 0.25238 0.04051 0.65537 0.0
H362 H 0.20915 0.93228 0.59098 0.0
H363 H 0.16851 0.91158 0.60083 0.0
H364 H 0.20903 0.89979 0.619 0.0
H365 H 0.18101 0.91001 0.67721 0.0
H366 H 0.14047 0.9219 0.65923 0.0
H367 H 0.16214 0.94958 0.68908 0.0
H368 H 0.19639 0.05704 0.6325 0.0
H369 H 0.13693 0.06353 0.61109 0.0
H370 H 0.1186 0.95812 0.61264 0.0
C371 C 0.24992 0.94604 0.6678 0.0
C372 C 0.27923 0.96545 0.67872 0.0
C373 C 0.27991 0.99955 0.67358 0.0
C374 C 0.25185 0.01434 0.65862 0.0
C375 C 0.22326 0.99474 0.64859 0.0
C376 C 0.22203 0.96131 0.65262 0.0
C377 C 0.18746 0.94637 0.64014 0.0
C378 C 0.19393 0.921 0.611 0.0
C379 C 0.16654 0.93107 0.66809 0.0
C380 C 0.16938 0.97679 0.6291 0.0
C381 C 0.1907 1.00433 0.63432 0.0
C382 C 0.17957 0.03565 0.6279 0.0
C383 C 0.14566 0.03907 0.61587 0.0
C384 C 0.12322 0.01133 0.61006 0.0
C385 C 0.1354 0.97967 0.61643 0.0
H386 H 0.79685 0.54106 0.96255 0.0
H387 H 0.76173 0.46732 0.02819 0.0
H388 H 0.82286 0.44807 0.03199 0.0
H389 H 0.86833 0.49021 0.92002 0.0
H390 H 0.8969 0.52563 0.91738 0.0
H391 H 0.84981 0.5303 0.91598 0.0
H392 H 0.8524 0.57422 0.96513 0.0
H393 H 0.89933 0.56974 0.96654 0.0
H394 H 0.87269 0.56403 1.00284 0.0
H395 H 0.88803 0.44419 0.03693 0.0
H396 H 0.95236 0.45403 0.04009 0.0
H397 H 0.94546 0.52695 0.96786 0.0
C398 C 0.80202 0.52034 0.97708 0.0
C399 C 0.77464 0.5053 0.9947 0.0
C400 C 0.78224 0.47857 0.01382 0.0
C401 C 0.8169 0.46758 0.01621 0.0
C402 C 0.84345 0.48321 0.99883 0.0
C403 C 0.83636 0.50873 0.97924 0.0
C404 C 0.86987 0.52297 0.96506 0.0
C405 C 0.8713 0.5169 0.92737 0.0
C406 C 0.87379 0.55991 0.97554 0.0
C407 C 0.89705 0.50266 0.98113 0.0
C408 C 0.88126 0.47968 1.00035 0.0
C409 C 0.90077 0.46121 0.02109 0.0
C410 C 0.93719 0.46688 0.02275 0.0
C411 C 0.95362 0.49035 1.00336 0.0
C412 C 0.9335 0.5078 0.98171 0.0
H413 H 0.80946 0.55945 0.57209 0.0
H414 H 0.81484 0.5673 0.46619 0.0
H415 H 0.75015 0.56247 0.46374 0.0
H416 H 0.73709 0.49917 0.57088 0.0
H417 H 0.71763 0.51681 0.60866 0.0
H418 H 0.7645 0.51973 0.60182 0.0
H419 H 0.76139 0.58319 0.61209 0.0
H420 H 0.71447 0.5805 0.61855 0.0
H421 H 0.73236 0.60607 0.58772 0.0
H422 H 0.68482 0.56128 0.47332 0.0
H423 H 0.62333 0.55712 0.49343 0.0
H424 H 0.66052 0.54739 0.59261 0.0
C425 C 0.79706 0.55975 0.54834 0.0
C426 C 0.81718 0.56379 0.51935 0.0
C427 C 0.79999 0.56404 0.48872 0.0
C428 C 0.76323 0.56149 0.48707 0.0
C429 C 0.74412 0.55828 0.5162 0.0
C430 C 0.76042 0.5568 0.54618 0.0
C431 C 0.73372 0.55307 0.57377 0.0
C432 C 0.73852 0.52024 0.58971 0.0
C433 C 0.73561 0.58246 0.59954 0.0
C434 C 0.69986 0.55315 0.55467 0.0
C435 C 0.70645 0.55645 0.52155 0.0
C436 C 0.67932 0.55831 0.49914 0.0
C437 C 0.64451 0.55614 0.51083 0.0
C438 C 0.63721 0.5518 0.54453 0.0
C439 C 0.66532 0.55046 0.56667 0.0
H440 H 0.14281 0.33526 0.16695 0.0
H441 H 0.14215 0.26391 0.08279 0.0
H442 H 0.12455 0.30743 0.04703 0.0
H443 H 0.06562 0.37826 0.14392 0.0
H444 H 0.08162 0.41834 0.15871 0.0
H445 H 0.09613 0.38211 0.17747 0.0
H446 H 0.16106 0.39827 0.16583 0.0
H447 H 0.14673 0.43457 0.14705 0.0
H448 H 0.17496 0.40553 0.12433 0.0
H449 H 0.10779 0.35897 0.02005 0.0
H450 H 0.0889 0.41364 1.00458 0.0
H451 H 0.0963 0.45128 0.10664 0.0
C452 C 0.13928 0.32889 0.14094 0.0
C453 C 0.14422 0.29613 0.12763 0.0
C454 C 0.13864 0.28875 0.09356 0.0
C455 C 0.1287 0.31336 0.07302 0.0
C456 C 0.12389 0.34531 0.08689 0.0
C457 C 0.12864 0.3531 0.12013 0.0
C458 C 0.12005 0.38906 0.12901 0.0
C459 C 0.08901 0.39211 0.15374 0.0
C460 C 0.15265 0.40797 0.14234 0.0
C461 C 0.10987 0.40026 0.09559 0.0
C462 C 0.11266 0.37469 0.07158 0.0
C463 C 0.10535 0.37911 0.0387 0.0
C464 C 0.0947 0.41033 0.03012 0.0
C465 C 0.09092 0.43683 0.05433 0.0
C466 C 0.09867 0.43154 0.08754 0.0
H467 H 0.67749 0.33569 1.00086 0.0
H468 H 0.58049 0.39144 1.0067 0.0
H469 H 0.54659 0.34018 0.01304 0.0
H470 H 0.64199 0.26374 0.95448 0.0
H471 H 0.66752 0.23515 0.97596 0.0
H472 H 0.6842 0.27617 0.97099 0.0
H473 H 0.69111 0.28536 0.03423 0.0
H474 H 0.67437 0.24443 0.0394 0.0
H475 H 0.65356 0.27937 0.06094 0.0
H476 H 0.52339 0.28347 0.0209 0.0
H477 H 0.51229 0.2248 0.02907 0.0
H478 H 0.62411 0.20549 0.01631 0.0
C479 C 0.64911 0.33711 1.00331 0.0
C480 C 0.63165 0.3676 1.0033 0.0
C481 C 0.59447 0.36839 1.00661 0.0
C482 C 0.57495 0.3394 0.01021 0.0
C483 C 0.59297 0.30982 0.01031 0.0
C484 C 0.62918 0.3084 1.00682 0.0
C485 C 0.64208 0.27343 0.00818 0.0
C486 C 0.66 0.26142 0.97545 0.0
C487 C 0.66673 0.27049 0.03743 0.0
C488 C 0.60748 0.25552 0.01336 0.0
C489 C 0.5795 0.27696 0.01444 0.0
C490 C 0.54504 0.26635 0.01975 0.0
C491 C 0.53899 0.2329 0.02414 0.0
C492 C 0.56726 0.21036 0.02309 0.0
C493 C 0.60192 0.22201 0.01749 0.0
H494 H 0.92671 0.72218 0.46637 0.0
H495 H 0.01259 0.67569 0.51417 0.0
H496 H 0.04206 0.73005 0.52334 0.0
H497 H 0.97914 0.78424 0.42645 0.0
H498 H 0.94581 0.81522 0.43347 0.0
H499 H 0.93332 0.77236 0.42823 0.0
H500 H 0.89959 0.77722 0.48426 0.0
H501 H 0.9119 0.82002 0.48965 0.0
H502 H 0.92243 0.79239 0.5208 0.0
H503 H 0.06033 0.79022 0.52968 0.0
H504 H 0.06414 0.85103 0.53559 0.0
H505 H 0.96564 0.85714 0.48407 0.0
C506 C 0.95196 0.72322 0.47839 0.0
C507 C 0.96746 0.69464 0.48941 0.0
C508 C 1.00027 0.69727 0.50546 0.0
C509 C 0.01725 0.728 0.51064 0.0
C510 C 1.00103 0.75571 0.4996 0.0
C511 C 0.96905 0.75353 0.4839 0.0
C512 C 0.95587 0.78706 0.47628 0.0
C513 C 0.95341 0.78987 0.43888 0.0
C514 C 0.92036 0.7946 0.49381 0.0
C515 C 0.98508 0.80864 0.49075 0.0
C516 C 0.01118 0.79015 0.50367 0.0
C517 C 0.04022 0.8049 0.51936 0.0
C518 C 0.04226 0.83942 0.52243 0.0
C519 C 0.01523 0.85872 0.51017 0.0
C520 C 0.98665 0.84299 0.49369 0.0
H521 H 0.43792 0.77147 0.65674 0.0
H522 H 0.46496 0.75469 0.75737 0.0
H523 H 0.49694 0.70445 0.73773 0.0
H524 H 0.41985 0.68754 0.63319 0.0
H525 H 0.43699 0.68893 0.59172 0.0
H526 H 0.41965 0.72562 0.61297 0.0
H527 H 0.47861 0.75623 0.60294 0.0
H528 H 0.49616 0.71955 0.58168 0.0
H529 H 0.51912 0.73911 0.61627 0.0
H530 H 0.52387 0.65545 0.7081 0.0
H531 H 0.54009 0.60766 0.6711 0.0
H532 H 0.49301 0.65329 0.5891 0.0
C533 C 0.45117 0.75749 0.67449 0.0
C534 C 0.4494 0.76715 0.70857 0.0
C535 C 0.46616 0.74779 0.73119 0.0
C536 C 0.48451 0.71932 0.72024 0.0
C537 C 0.4855 0.71024 0.68659 0.0
C538 C 0.46903 0.7285 0.664 0.0
C539 C 0.47163 0.71156 0.62958 0.0
C540 C 0.43485 0.7029 0.61608 0.0
C541 C 0.49264 0.73289 0.60624 0.0
C542 C 0.49177 0.68078 0.63647 0.0
C543 C 0.49993 0.68094 0.66947 0.0
C544 C 0.51772 0.65507 0.68219 0.0
C545 C 0.52682 0.62797 0.66086 0.0
C546 C 0.51784 0.62654 0.62707 0.0
C547 C 0.50049 0.65366 0.61469 0.0
H548 H 0.93341 0.8723 0.75905 0.0
H549 H 0.9026 0.95512 0.82575 0.0
H550 H 0.92226 0.99351 0.78485 0.0
H551 H 0.01129 0.91197 0.72311 0.0
H552 H 1.00374 0.89393 0.68212 0.0
H553 H 0.98938 0.87252 0.71739 0.0
H554 H 0.92601 0.86944 0.69488 0.0
H555 H 0.94012 0.89109 0.6597 0.0
H556 H 0.90436 0.90685 0.68562 0.0
H557 H 0.94342 0.02334 0.73695 0.0
H558 H 0.96555 0.04307 0.6845 0.0
H559 H 0.98149 0.94198 0.64637 0.0
C560 C 0.93141 0.89852 0.76519 0.0
C561 C 0.91659 0.91064 0.79584 0.0
C562 C 0.91381 0.94516 0.80258 0.0
C563 C 0.92493 0.96724 0.77946 0.0
C564 C 0.93869 0.95463 0.74935 0.0
C565 C 0.94208 0.92113 0.74202 0.0
C566 C 0.95662 0.91444 0.70711 0.0
C567 C 0.99239 0.89719 0.70746 0.0
C568 C 0.93019 0.89426 0.68556 0.0
C569 C 0.96066 0.94936 0.69611 0.0
C570 C 0.95029 0.97205 0.72106 0.0
C571 C 0.95166 1.00581 0.71722 0.0
C572 C 0.96427 0.01679 0.68723 0.0
C573 C 0.97521 0.9942 0.66111 0.0
C574 C 0.97311 0.95993 0.66569 0.0
H575 H 0.61589 0.15796 0.28717 0.0
H576 H 0.64525 0.06524 0.32546 0.0
H577 H 0.62597 0.03563 0.27379 0.0
H578 H 0.53887 0.12913 0.24566 0.0
H579 H 0.54562 0.15347 0.21064 0.0
H580 H 0.5627 0.16769 0.25017 0.0
H581 H 0.6253 0.17202 0.22449 0.0
H582 H 0.60836 0.158 0.18481 0.0
H583 H 0.64415 0.13653 0.20213 0.0
H584 H 0.5997 0.01572 0.21972 0.0
H585 H 0.57299 0.00706 0.16495 0.0
H586 H 0.56327 0.11279 0.16004 0.0
C587 C 0.61853 0.13144 0.28462 0.0
C588 C 0.63205 0.11394 0.31052 0.0
C589 C 0.63514 0.07925 0.30603 0.0
C590 C 0.62413 0.06218 0.27678 0.0
C591 C 0.61049 0.08014 0.252 0.0
C592 C 0.60809 0.11404 0.25539 0.0
C593 C 0.59253 0.1274 0.2249 0.0
C594 C 0.55787 0.14549 0.23336 0.0
C595 C 0.61918 0.14981 0.20809 0.0
C596 C 0.58607 0.09567 0.20401 0.0
C597 C 0.59644 0.06871 0.22025 0.0
C598 C 0.59184 0.03666 0.20663 0.0
C599 C 0.57647 0.03201 0.17554 0.0
C600 C 0.56614 0.05924 0.1581 0.0
C601 C 0.57118 0.0915 0.1726 0.0
H602 H 0.5694 0.60507 0.26503 0.0
H603 H 0.46608 0.57922 0.22656 0.0
H604 H 0.44355 0.57355 0.28326 0.0
H605 H 0.56822 0.54852 0.32818 0.0
H606 H 0.59112 0.57595 0.35739 0.0
H607 H 0.59849 0.57909 0.31389 0.0
H608 H 0.58146 0.64074 0.32017 0.0
H609 H 0.5738 0.63771 0.36369 0.0
H610 H 0.53946 0.65227 0.33847 0.0
H611 H 0.43273 0.56961 0.34435 0.0
H612 H 0.43509 0.56588 0.40469 0.0
H613 H 0.54579 0.59342 0.40239 0.0
C614 C 0.54199 0.59833 0.26848 0.0
C615 C 0.51949 0.59262 0.24135 0.0
C616 C 0.48383 0.58368 0.24697 0.0
C617 C 0.47076 0.58051 0.27908 0.0
C618 C 0.49367 0.58637 0.30528 0.0
C619 C 0.52855 0.59499 0.30029 0.0
C620 C 0.54801 0.59896 0.33248 0.0
C621 C 0.57823 0.57415 0.333 0.0
C622 C 0.56147 0.63454 0.33908 0.0
C623 C 0.51871 0.59096 0.35637 0.0
C624 C 0.4875 0.58396 0.34028 0.0
C625 C 0.45702 0.57511 0.35722 0.0
C626 C 0.45864 0.57293 0.39145 0.0
C627 C 0.49056 0.57949 0.40834 0.0
C628 C 0.52079 0.58892 0.39041 0.0
H629 H 0.066 0.44663 0.699 0.0
H630 H 0.1782 0.45454 0.68079 0.0
H631 H 0.18646 0.47726 0.73833 0.0
H632 H 0.058 0.52107 0.757 0.0
H633 H 0.02561 0.50154 0.78226 0.0
H634 H 0.02832 0.49048 0.73865 0.0
H635 H 0.03616 0.42884 0.75039 0.0
H636 H 0.03246 0.44038 0.79377 0.0
H637 H 0.07032 0.4181 0.77782 0.0
H638 H 0.18251 0.49462 0.79911 0.0
H639 H 0.16696 0.505 0.85827 0.0
H640 H 0.05744 0.48324 0.83667 0.0
C641 C 0.09209 0.45425 0.70699 0.0
C642 C 0.1214 0.45027 0.68551 0.0
C643 C 0.15541 0.45894 0.69677 0.0
C644 C 0.16029 0.47147 0.7294 0.0
C645 C 0.13082 0.47477 0.75027 0.0
C646 C 0.09734 0.46652 0.73944 0.0
C647 C 0.07035 0.47024 0.76719 0.0
C648 C 0.04402 0.49746 0.76089 0.0
C649 C 0.05123 0.43743 0.77256 0.0
C650 C 0.09404 0.48052 0.79563 0.0
C651 C 0.12871 0.48362 0.78533 0.0
C652 C 0.15541 0.49248 0.8074 0.0
C653 C 0.14639 0.49831 0.84087 0.0
C654 C 0.11109 0.4947 0.85189 0.0
C655 C 0.08468 0.48582 0.82889 0.0
H656 H 0.73523 0.90401 0.94228 0.0
H657 H 0.80885 0.98508 0.96235 0.0
H658 H 0.76365 0.01492 0.99588 0.0
H659 H 0.65957 0.95306 0.93419 0.0
H660 H 0.62939 0.92609 0.9543 0.0
H661 H 0.66808 0.90951 0.93339 0.0
H662 H 0.68703 0.88396 0.98686 0.0
H663 H 0.64832 0.90045 0.00793 0.0
H664 H 0.69133 0.90997 0.02427 0.0
H665 H 0.71019 0.03835 0.02323 0.0
H666 H 0.65123 0.05331 0.04502 0.0
H667 H 0.61099 0.9572 0.01015 0.0
C668 C 0.74194 0.92783 0.95412 0.0
C669 C 0.77577 0.94211 0.94957 0.0
C670 C 0.78329 0.97349 0.96531 0.0
C671 C 0.75775 0.99071 0.98452 0.0
C672 C 0.72467 0.97626 0.98812 0.0
C673 C 0.71662 0.94546 0.97365 0.0
C674 C 0.67843 0.93632 0.98085 0.0
C675 C 0.65765 0.93093 0.94877 0.0
C676 C 0.67615 0.90587 1.00119 0.0
C677 C 0.66629 0.96707 1.00104 0.0
C678 C 0.69356 0.98969 1.00486 0.0
C679 C 0.68872 0.0207 0.02081 0.0
C680 C 0.65509 0.029 0.03302 0.0
C681 C 0.6266 1.00636 0.02956 0.0
C682 C 0.63243 0.97478 0.01368 0.0
H683 H 0.76855 0.06223 0.46373 0.0
H684 H 0.79866 0.16294 0.44619 0.0
H685 H 0.85625 0.1546 0.47084 0.0
H686 H 0.81018 0.0587 0.54132 0.0
H687 H 0.82529 0.01696 0.5342 0.0
H688 H 0.78637 0.02989 0.51414 0.0
H689 H 0.81367 0.01125 0.45728 0.0
H690 H 0.85262 0.9981 0.47719 0.0
H691 H 0.85628 0.02707 0.44566 0.0
H692 H 0.90804 0.13778 0.50076 0.0
H693 H 0.95469 0.1117 0.53054 0.0
H694 H 0.89503 0.01992 0.52677 0.0
C695 C 0.78742 0.0824 0.46482 0.0
C696 C 0.77893 0.11333 0.45301 0.0
C697 C 0.80441 0.13905 0.45492 0.0
C698 C 0.83725 0.13458 0.46897 0.0
C699 C 0.8446 0.10408 0.48071 0.0
C700 C 0.82077 0.07821 0.47846 0.0
C701 C 0.83583 0.04801 0.49316 0.0
C702 C 0.81306 0.0378 0.52245 0.0
C703 C 0.83984 0.01941 0.46674 0.0
C704 C 0.87157 0.06126 0.50448 0.0
C705 C 0.87569 0.09377 0.49712 0.0
C706 C 0.90533 0.11224 0.50634 0.0
C707 C 0.9316 0.0972 0.52347 0.0
C708 C 0.92856 0.06377 0.531 0.0
C709 C 0.8982 0.0454 0.52108 0.0
H710 H 0.32543 0.58993 0.03092 0.0
H711 H 0.31442 0.65243 0.12129 0.0
H712 H 0.25005 0.64448 0.11982 0.0
H713 H 0.24516 0.61697 0.99219 0.0
H714 H 0.23499 0.57639 0.97411 0.0
H715 H 0.28016 0.58861 0.98101 0.0
H716 H 0.28886 0.53789 0.01516 0.0
H717 H 0.24375 0.52559 0.00845 0.0
H718 H 0.25992 0.53171 0.04983 0.0
H719 H 0.18778 0.62691 0.11094 0.0
H720 H 0.13087 0.60193 0.09432 0.0
H721 H 0.18165 0.5515 0.00907 0.0
C722 C 0.30947 0.60227 0.05019 0.0
C723 C 0.32501 0.62182 0.07623 0.0
C724 C 0.30317 0.63736 0.10108 0.0
C725 C 0.26655 0.63304 0.10045 0.0
C726 C 0.25215 0.61328 0.07472 0.0
C727 C 0.27283 0.5983 0.04991 0.0
C728 C 0.2507 0.57739 0.0257 0.0
C729 C 0.25289 0.59064 0.99121 0.0
C730 C 0.26145 0.54099 0.02475 0.0
C731 C 0.21446 0.58251 0.04116 0.0
C732 C 0.21594 0.60339 0.06935 0.0
C733 C 0.18619 0.61079 0.08873 0.0
C734 C 0.15401 0.59637 0.07913 0.0
C735 C 0.15181 0.57485 0.05035 0.0
C736 C 0.18245 0.56811 0.031 0.0
H737 H 0.25447 0.52105 0.57869 0.0
H738 H 0.24846 0.50313 0.68264 0.0
H739 H 0.31338 0.50147 0.68431 0.0
H740 H 0.3279 0.46899 0.55733 0.0
H741 H 0.34742 0.49647 0.52906 0.0
H742 H 0.30045 0.4961 0.5359 0.0
H743 H 0.30202 0.55881 0.5521 0.0
H744 H 0.34893 0.5594 0.54505 0.0
H745 H 0.33085 0.57458 0.58435 0.0
H746 H 0.37886 0.50023 0.67426 0.0
H747 H 0.44044 0.50411 0.65434 0.0
H748 H 0.40356 0.5246 0.55742 0.0
C749 C 0.26681 0.51685 0.60182 0.0
C750 C 0.24645 0.51217 0.63053 0.0
C751 C 0.26357 0.50692 0.66038 0.0
C752 C 0.3004 0.50577 0.66154 0.0
C753 C 0.31969 0.51018 0.63272 0.0
C754 C 0.30353 0.51597 0.60351 0.0
C755 C 0.33035 0.52073 0.57625 0.0
C756 C 0.32628 0.49397 0.54797 0.0
C757 C 0.32789 0.55544 0.56371 0.0
C758 C 0.36413 0.51659 0.59467 0.0
C759 C 0.35741 0.51024 0.62713 0.0
C760 C 0.38446 0.5053 0.64892 0.0
C761 C 0.41934 0.50742 0.63733 0.0
C762 C 0.42681 0.51471 0.60435 0.0
C763 C 0.39872 0.51906 0.58278 0.0
H764 H 0.95569 0.71551 0.87948 0.0
H765 H 0.94128 0.78578 0.9636 0.0
H766 H 0.96589 0.74594 0.99989 0.0
H767 H 0.93291 0.64333 0.92062 0.0
H768 H 0.9656 0.61761 0.8995 0.0
H769 H 0.94778 0.6519 0.87973 0.0
H770 H 0.01073 0.67531 0.87116 0.0
H771 H 0.02872 0.64098 0.89078 0.0
H772 H 0.03898 0.68251 0.90614 0.0
H773 H 0.98836 0.69697 0.02793 0.0
H774 H 0.01151 0.64421 0.04476 0.0
H775 H 0.01442 0.60634 0.94248 0.0
C776 C 0.95805 0.72267 0.90547 0.0
C777 C 0.94649 0.75395 0.91858 0.0
C778 C 0.95001 0.76215 0.95282 0.0
C779 C 0.96389 0.73959 0.97372 0.0
C780 C 0.97456 0.70887 0.96012 0.0
C781 C 0.97223 0.7005 0.92672 0.0
C782 C 0.98559 0.66579 0.91848 0.0
C783 C 0.95621 0.64334 0.90371 0.0
C784 C 0.01793 0.66618 0.89526 0.0
C785 C 0.99551 0.65592 0.95245 0.0
C786 C 0.98866 0.68106 0.97615 0.0
C787 C 0.9942 0.67727 0.0095 0.0
C788 C 0.00726 0.64715 0.01887 0.0
C789 C 0.01512 0.62119 0.99499 0.0
C790 C 0.00917 0.62584 0.96132 0.0
H791 H 0.55067 0.7153 0.09857 0.0
H792 H 0.44699 0.69381 0.1384 0.0
H793 H 0.42912 0.75101 0.13157 0.0
H794 H 0.55912 0.79413 0.13946 0.0
H795 H 0.58224 0.81224 0.106 0.0
H796 H 0.58571 0.76879 0.11096 0.0
H797 H 0.56425 0.75592 0.05126 0.0
H798 H 0.56091 0.79938 0.04606 0.0
H799 H 0.52321 0.77274 0.03887 0.0
H800 H 0.42378 0.81173 0.12322 0.0
H801 H 0.43179 0.871 0.11467 0.0
H802 H 0.53936 0.85258 0.08142 0.0
C803 C 0.52403 0.72252 0.10539 0.0
C804 C 0.4998 0.69979 0.1179 0.0
C805 C 0.46543 0.71031 0.12722 0.0
C806 C 0.4552 0.74292 0.12386 0.0
C807 C 0.47974 0.76471 0.11135 0.0
C808 C 0.51346 0.75493 0.10227 0.0
C809 C 0.5354 0.78346 0.09104 0.0
C810 C 0.56751 0.79003 0.1132 0.0
C811 C 0.54659 0.77751 0.05464 0.0
C812 C 0.50895 0.81093 0.09573 0.0
C813 C 0.47691 0.79966 0.10723 0.0
C814 C 0.44868 0.82079 0.11399 0.0
C815 C 0.45343 0.85437 0.10897 0.0
C816 C 0.48622 0.86642 0.09751 0.0
C817 C 0.51412 0.84422 0.09062 0.0
H818 H 0.12684 0.32885 0.71307 0.0
H819 H 0.06933 0.32337 0.80551 0.0
H820 H 0.03955 0.27233 0.78339 0.0
H821 H 0.05426 0.30081 0.6599 0.0
H822 H 0.0831 0.27845 0.63095 0.0
H823 H 0.09901 0.31474 0.65413 0.0
H824 H 0.15022 0.281 0.67575 0.0
H825 H 0.13434 0.2446 0.65286 0.0
H826 H 0.14041 0.24424 0.69668 0.0
H827 H 0.0179 0.22091 0.75154 0.0
H828 H 0.00665 0.17268 0.71301 0.0
H829 H 0.07528 0.21483 0.64007 0.0
C830 C 0.10708 0.31765 0.72826 0.0
C831 C 0.09953 0.33056 0.76061 0.0
C832 C 0.07519 0.31393 0.78051 0.0
C833 C 0.05807 0.28509 0.76812 0.0
C834 C 0.06565 0.27334 0.73583 0.0
C835 C 0.08954 0.28916 0.71618 0.0
C836 C 0.09381 0.27111 0.68266 0.0
C837 C 0.08182 0.29256 0.6553 0.0
C838 C 0.13195 0.25955 0.67666 0.0
C839 C 0.06893 0.24235 0.68664 0.0
C840 C 0.05289 0.24407 0.71742 0.0
C841 C 0.02995 0.21951 0.7272 0.0
C842 C 0.02353 0.1923 0.70501 0.0
C843 C 0.03992 0.18992 0.67336 0.0
C844 C 0.06253 0.21564 0.6641 0.0
H845 H 0.61937 0.29025 0.50501 0.0
H846 H 0.57985 0.29468 0.40585 0.0
H847 H 0.55421 0.34896 0.42139 0.0
H848 H 0.54476 0.32967 0.54754 0.0
H849 H 0.5713 0.3521 0.57795 0.0
H850 H 0.58611 0.31309 0.55946 0.0
H851 H 0.64448 0.34045 0.54115 0.0
H852 H 0.6299 0.37948 0.55969 0.0
H853 H 0.64303 0.37583 0.51683 0.0
H854 H 0.53374 0.40311 0.44697 0.0
H855 H 0.52082 0.45426 0.48069 0.0
H856 H 0.57322 0.4154 0.56363 0.0
C857 C 0.60523 0.30257 0.48658 0.0
C858 C 0.60164 0.28803 0.45416 0.0
C859 C 0.58302 0.30516 0.43082 0.0
C860 C 0.56827 0.33604 0.43942 0.0
C861 C 0.57226 0.34962 0.4715 0.0
C862 C 0.59032 0.33353 0.49475 0.0
C863 C 0.59133 0.35403 0.52733 0.0
C864 C 0.57223 0.33615 0.55468 0.0
C865 C 0.62945 0.36298 0.53679 0.0
C866 C 0.5712 0.38418 0.51867 0.0
C867 C 0.56037 0.38101 0.48635 0.0
C868 C 0.54197 0.40583 0.47235 0.0
C869 C 0.53475 0.43483 0.49176 0.0
C870 C 0.54587 0.43891 0.5249 0.0
C871 C 0.56408 0.41299 0.53851 0.0
loop_
_geom_bond_atom_site_label_1
_geom_bond_atom_site_label_2
_geom_bond_distance
_geom_bond_site_symmetry_2
_ccdc_geom_bond_type
O0 Cd1 2.300 . S
O0 C7 1.275 . S
Cd1 O0 2.300 . S
Cd1 O9 2.381 . S
Cd1 O10 2.378 . S
O2 Cd3 2.385 . S
O2 C7 1.255 . S
Cd3 O2 2.385 . S
Cd3 O4 2.317 . S
O4 Cd3 2.317 . S
O4 C5 1.232 . S
C5 O4 1.232 . S
C5 O6 1.218 . S
O6 C5 1.218 . S
C7 O0 1.275 . S
C7 O2 1.255 . S
C8 O9 1.258 . S
C8 O10 1.256 . S
O9 Cd1 2.381 . S
O9 C8 1.258 . S
O10 Cd1 2.378 . S
O10 C8 1.256 . S
O11 Cd12 2.300 . S
O11 C18 1.275 . S
Cd12 O11 2.300 . S
Cd12 O20 2.381 . S
Cd12 O21 2.378 . S
O13 Cd14 2.385 . S
O13 C18 1.255 . S
Cd14 O13 2.385 . S
Cd14 O15 2.317 . S
O15 Cd14 2.317 . S
O15 C16 1.232 . S
C16 O15 1.232 . S
C16 O17 1.218 . S
O17 C16 1.218 . S
C18 O11 1.275 . S
C18 O13 1.255 . S
C19 O20 1.258 . S
C19 O21 1.256 . S
O20 Cd12 2.381 . S
O20 C19 1.258 . S
O21 Cd12 2.378 . S
O21 C19 1.256 . S
O22 Cd23 2.300 . S
O22 C29 1.275 . S
Cd23 O22 2.300 . S
Cd23 O31 2.381 . S
Cd23 O32 2.378 . S
O24 Cd25 2.385 . S
O24 C29 1.255 . S
Cd25 O24 2.385 . S
Cd25 O26 2.317 . S
O26 Cd25 2.317 . S
O26 C27 1.232 . S
C27 O26 1.232 . S
C27 O28 1.218 1_556 S
O28 C27 1.218 1_554 S
C29 O22 1.275 . S
C29 O24 1.255 . S
C30 O31 1.258 . S
C30 O32 1.256 . S
O31 Cd23 2.381 . S
O31 C30 1.258 . S
O32 Cd23 2.378 . S
O32 C30 1.256 . S
O33 Cd34 2.300 . S
O33 C40 1.275 . S
Cd34 O33 2.300 . S
Cd34 O42 2.381 . S
Cd34 O43 2.378 . S
O35 Cd36 2.385 . S
O35 C40 1.255 . S
Cd36 O35 2.385 . S
Cd36 O37 2.317 . S
O37 Cd36 2.317 . S
O37 C38 1.232 . S
C38 O37 1.232 . S
C38 O39 1.218 . S
O39 C38 1.218 . S
C40 O33 1.275 . S
C40 O35 1.255 . S
C41 O42 1.258 . S
C41 O43 1.256 . S
O42 Cd34 2.381 . S
O42 C41 1.258 . S
O43 Cd34 2.378 . S
O43 C41 1.256 . S
O44 Cd45 2.300 . S
O44 C51 1.275 . S
Cd45 O44 2.300 . S
Cd45 O53 2.381 . S
Cd45 O54 2.378 . S
O46 Cd47 2.385 . S
O46 C51 1.255 . S
Cd47 O46 2.385 . S
Cd47 O48 2.317 . S
O48 Cd47 2.317 . S
O48 C49 1.232 . S
C49 O48 1.232 . S
C49 O50 1.218 . S
O50 C49 1.218 . S
C51 O44 1.275 . S
C51 O46 1.255 . S
C52 O53 1.258 . S
C52 O54 1.256 . S
O53 Cd45 2.381 . S
O53 C52 1.258 . S
O54 Cd45 2.378 . S
O54 C52 1.256 . S
O55 Cd56 2.300 . S
O55 C62 1.275 . S
Cd56 O55 2.300 . S
Cd56 O64 2.381 . S
Cd56 O65 2.378 . S
O57 Cd58 2.385 . S
O57 C62 1.255 . S
Cd58 O57 2.385 . S
Cd58 O59 2.317 . S
O59 Cd58 2.317 . S
O59 C60 1.232 . S
C60 O59 1.232 . S
C60 O61 1.218 . S
O61 C60 1.218 . S
C62 O55 1.275 . S
C62 O57 1.255 . S
C63 O64 1.258 . S
C63 O65 1.256 . S
O64 Cd56 2.381 . S
O64 C63 1.258 . S
O65 Cd56 2.378 . S
O65 C63 1.256 . S
O66 Cd67 2.300 . S
O66 C73 1.275 . S
Cd67 O66 2.300 . S
Cd67 O75 2.381 . S
Cd67 O76 2.378 . S
O68 Cd69 2.385 . S
O68 C73 1.255 . S
Cd69 O68 2.385 . S
Cd69 O70 2.317 . S
O70 Cd69 2.317 . S
O70 C71 1.232 . S
C71 O70 1.232 . S
C71 O72 1.218 . S
O72 C71 1.218 . S
C73 O66 1.275 . S
C73 O68 1.255 . S
C74 O75 1.258 . S
C74 O76 1.256 . S
O75 Cd67 2.381 . S
O75 C74 1.258 . S
O76 Cd67 2.378 . S
O76 C74 1.256 . S
O77 Cd78 2.300 . S
O77 C84 1.275 . S
Cd78 O77 2.300 . S
Cd78 O86 2.381 . S
Cd78 O87 2.378 . S
O79 Cd80 2.385 . S
O79 C84 1.255 . S
Cd80 O79 2.385 . S
Cd80 O81 2.317 . S
O81 Cd80 2.317 . S
O81 C82 1.232 . S
C82 O81 1.232 . S
C82 O83 1.218 . S
O83 C82 1.218 . S
C84 O77 1.275 . S
C84 O79 1.255 . S
C85 O86 1.258 . S
C85 O87 1.256 . S
O86 Cd78 2.381 . S
O86 C85 1.258 . S
O87 Cd78 2.378 . S
O87 C85 1.256 . S
C88 O104 1.251 . S
C88 O106 1.254 . S
N89 C90 1.333 . S
N89 C94 1.307 . S
N89 Zn95 2.020 . S
C90 N89 1.333 . S
C90 C91 1.379 . S
C90 H108 0.952 . S
C91 C90 1.379 . S
C91 C92 1.390 . S
C91 H118 0.949 . S
C92 C91 1.390 . S
C92 C93 1.357 . S
C93 C92 1.357 . S
C93 C94 1.370 . S
C93 H119 0.950 . S
C94 N89 1.307 . S
C94 C93 1.370 . S
C94 H112 0.948 . S
Zn95 N89 2.020 . S
Zn95 O104 2.039 . S
Zn95 O110 2.034 . S
Zn95 O114 2.025 . S
Zn95 O116 2.024 1_455 S
C96 O115 1.246 . S
C96 O116 1.249 . S
N97 C98 1.307 1_655 S
N97 C99 1.333 . S
N97 Zn103 2.020 1_655 S
C98 N97 1.307 1_455 S
C98 C102 1.370 1_455 S
C98 H109 0.948 . S
C99 N97 1.333 . S
C99 C100 1.379 . S
C99 H107 0.952 . S
C100 C99 1.379 . S
C100 C101 1.390 . S
C100 H120 0.949 . S
C101 C100 1.390 . S
C101 C102 1.357 . S
C102 C98 1.370 1_655 S
C102 C101 1.357 . S
C102 H121 0.950 1_655 S
Zn103 N97 2.020 1_455 S
Zn103 O106 2.025 1_565 S
Zn103 O111 2.024 . S
Zn103 O113 2.039 1_455 S
Zn103 O115 2.034 1_465 S
O104 C88 1.251 . S
O104 Zn95 2.039 . S
C105 O110 1.246 1_565 S
C105 O111 1.249 . S
O106 C88 1.254 . S
O106 Zn103 2.025 1_545 S
H107 C99 0.952 . S
H108 C90 0.952 . S
H109 C98 0.948 . S
O110 Zn95 2.034 . S
O110 C105 1.246 1_545 S
O111 Zn103 2.024 . S
O111 C105 1.249 . S
H112 C94 0.948 . S
O113 Zn103 2.039 1_655 S
O113 C117 1.251 1_565 S
O114 Zn95 2.025 . S
O114 C117 1.254 1_455 S
O115 C96 1.246 . S
O115 Zn103 2.034 1_645 S
O116 Zn95 2.024 1_655 S
O116 C96 1.249 . S
C117 O113 1.251 1_545 S
C117 O114 1.254 1_655 S
H118 C91 0.949 . S
H119 C93 0.950 . S
H120 C100 0.949 . S
H121 C102 0.950 1_455 S
C122 O138 1.251 . S
C122 O140 1.254 1_545 S
N123 C124 1.333 . S
N123 C128 1.307 . S
N123 Zn129 2.020 . S
C124 N123 1.333 . S
C124 C125 1.379 . S
C124 H142 0.952 . S
C125 C124 1.379 . S
C125 C126 1.390 . S
C125 H152 0.949 . S
C126 C125 1.390 . S
C126 C127 1.357 . S
C127 C126 1.357 . S
C127 C128 1.370 . S
C127 H153 0.950 . S
C128 N123 1.307 . S
C128 C127 1.370 . S
C128 H146 0.948 . S
Zn129 N123 2.020 . S
Zn129 O138 2.039 . S
Zn129 O144 2.034 . S
Zn129 O148 2.025 . S
Zn129 O150 2.024 . S
C130 O149 1.246 1_545 S
C130 O150 1.249 . S
N131 C132 1.307 . S
N131 C133 1.333 . S
N131 Zn137 2.020 . S
C132 N131 1.307 . S
C132 C136 1.370 . S
C132 H143 0.948 . S
C133 N131 1.333 . S
C133 C134 1.379 . S
C133 H141 0.952 . S
C134 C133 1.379 . S
C134 C135 1.390 . S
C134 H154 0.949 . S
C135 C134 1.390 . S
C135 C136 1.357 . S
C136 C132 1.370 . S
C136 C135 1.357 . S
C136 H155 0.950 . S
Zn137 N131 2.020 . S
Zn137 O140 2.025 . S
Zn137 O145 2.024 1_565 S
Zn137 O147 2.039 1_565 S
Zn137 O149 2.034 . S
O138 C122 1.251 . S
O138 Zn129 2.039 . S
C139 O144 1.246 . S
C139 O145 1.249 . S
O140 C122 1.254 1_565 S
O140 Zn137 2.025 . S
H141 C133 0.952 . S
H142 C124 0.952 . S
H143 C132 0.948 . S
O144 Zn129 2.034 . S
O144 C139 1.246 . S
O145 Zn137 2.024 1_545 S
O145 C139 1.249 . S
H146 C128 0.948 . S
O147 Zn137 2.039 1_545 S
O147 C151 1.251 . S
O148 Zn129 2.025 . S
O148 C151 1.254 . S
O149 C130 1.246 1_565 S
O149 Zn137 2.034 . S
O150 Zn129 2.024 . S
O150 C130 1.249 . S
C151 O147 1.251 . S
C151 O148 1.254 . S
H152 C125 0.949 . S
H153 C127 0.950 . S
H154 C134 0.949 . S
H155 C136 0.950 . S
C156 O172 1.251 . S
C156 O174 1.254 . S
N157 C158 1.333 . S
N157 C162 1.307 . S
N157 Zn163 2.020 . S
C158 N157 1.333 . S
C158 C159 1.379 . S
C158 H176 0.952 . S
C159 C158 1.379 . S
C159 C160 1.390 . S
C159 H186 0.949 . S
C160 C159 1.390 . S
C160 C161 1.357 . S
C161 C160 1.357 . S
C161 C162 1.370 . S
C161 H187 0.950 . S
C162 N157 1.307 . S
C162 C161 1.370 . S
C162 H180 0.948 . S
Zn163 N157 2.020 . S
Zn163 O172 2.039 . S
Zn163 O178 2.034 . S
Zn163 O182 2.025 . S
Zn163 O184 2.024 . S
C164 O183 1.246 . S
C164 O184 1.249 . S
N165 C166 1.307 . S
N165 C167 1.333 . S
N165 Zn171 2.020 . S
C166 N165 1.307 . S
C166 C170 1.370 . S
C166 H177 0.948 . S
C167 N165 1.333 . S
C167 C168 1.379 . S
C167 H175 0.952 . S
C168 C167 1.379 . S
C168 C169 1.390 . S
C168 H188 0.949 . S
C169 C168 1.390 . S
C169 C170 1.357 . S
C170 C166 1.370 . S
C170 C169 1.357 . S
C170 H189 0.950 . S
Zn171 N165 2.020 . S
Zn171 O174 2.025 . S
Zn171 O179 2.024 . S
Zn171 O181 2.039 . S
Zn171 O183 2.034 . S
O172 C156 1.251 . S
O172 Zn163 2.039 . S
C173 O178 1.246 . S
C173 O179 1.249 . S
O174 C156 1.254 . S
O174 Zn171 2.025 . S
H175 C167 0.952 . S
H176 C158 0.952 . S
H177 C166 0.948 . S
O178 Zn163 2.034 . S
O178 C173 1.246 . S
O179 Zn171 2.024 . S
O179 C173 1.249 . S
H180 C162 0.948 . S
O181 Zn171 2.039 . S
O181 C185 1.251 . S
O182 Zn163 2.025 . S
O182 C185 1.254 . S
O183 C164 1.246 . S
O183 Zn171 2.034 . S
O184 Zn163 2.024 . S
O184 C164 1.249 . S
C185 O181 1.251 . S
C185 O182 1.254 . S
H186 C159 0.949 . S
H187 C161 0.950 . S
H188 C168 0.949 . S
H189 C170 0.950 . S
C190 O206 1.251 . S
C190 O208 1.254 1_554 S
N191 C192 1.333 . S
N191 C196 1.307 1_455 S
N191 Zn197 2.020 . S
C192 N191 1.333 . S
C192 C193 1.379 1_455 S
C192 H210 0.952 . S
C193 C192 1.379 1_655 S
C193 C194 1.390 . S
C193 H220 0.949 . S
C194 C193 1.390 . S
C194 C195 1.357 . S
C195 C194 1.357 . S
C195 C196 1.370 . S
C195 H221 0.950 . S
C196 N191 1.307 1_655 S
C196 C195 1.370 . S
C196 H214 0.948 . S
Zn197 N191 2.020 . S
Zn197 O206 2.039 . S
Zn197 O212 2.034 . S
Zn197 O216 2.025 . S
Zn197 O218 2.024 1_455 S
C198 O217 1.246 1_554 S
C198 O218 1.249 . S
N199 C200 1.307 . S
N199 C201 1.333 . S
N199 Zn205 2.020 . S
C200 N199 1.307 . S
C200 C204 1.370 . S
C200 H211 0.948 . S
C201 N199 1.333 . S
C201 C202 1.379 . S
C201 H209 0.952 . S
C202 C201 1.379 . S
C202 C203 1.390 . S
C202 H222 0.949 . S
C203 C202 1.390 . S
C203 C204 1.357 . S
C204 C200 1.370 . S
C204 C203 1.357 . S
C204 H223 0.950 . S
Zn205 N199 2.020 . S
Zn205 O208 2.025 . S
Zn205 O213 2.024 1_556 S
Zn205 O215 2.039 1_556 S
Zn205 O217 2.034 1_455 S
O206 C190 1.251 . S
O206 Zn197 2.039 . S
C207 O212 1.246 . S
C207 O213 1.249 . S
O208 C190 1.254 1_556 S
O208 Zn205 2.025 . S
H209 C201 0.952 . S
H210 C192 0.952 . S
H211 C200 0.948 . S
O212 Zn197 2.034 . S
O212 C207 1.246 . S
O213 Zn205 2.024 1_554 S
O213 C207 1.249 . S
H214 C196 0.948 . S
O215 Zn205 2.039 1_554 S
O215 C219 1.251 . S
O216 Zn197 2.025 . S
O216 C219 1.254 . S
O217 C198 1.246 1_556 S
O217 Zn205 2.034 1_655 S
O218 Zn197 2.024 1_655 S
O218 C198 1.249 . S
C219 O215 1.251 . S
C219 O216 1.254 . S
H220 C193 0.949 . S
H221 C195 0.950 . S
H222 C202 0.949 . S
H223 C204 0.950 . S
H224 C236 0.930 . S
H225 C238 0.930 . S
H226 C239 0.930 . S
H227 C243 0.959 . S
H228 C243 0.959 1_565 S
H229 C243 0.961 . S
H230 C244 0.970 . S
H231 C244 0.990 . S
H232 C244 0.948 1_545 S
H233 C247 0.929 . S
H234 C248 0.931 . S
H235 C250 0.930 . S
C236 H224 0.930 . S
C236 C237 1.399 . S
C236 C241 1.399 . S
C237 C236 1.399 . S
C237 C238 1.376 . S
C238 H225 0.930 . S
C238 C237 1.376 . S
C238 C239 1.388 . S
C239 H226 0.930 . S
C239 C238 1.388 . S
C239 C240 1.390 . S
C240 C239 1.390 . S
C240 C241 1.394 . S
C240 C246 1.465 . S
C241 C236 1.399 . S
C241 C240 1.394 . S
C241 C242 1.516 . S
C242 C241 1.516 . S
C242 C243 1.502 . S
C242 C244 1.535 1_545 S
C242 C245 1.526 . S
C243 H227 0.959 . S
C243 H228 0.959 1_545 S
C243 H229 0.961 . S
C243 C242 1.502 . S
C244 H230 0.970 . S
C244 H231 0.990 . S
C244 H232 0.948 1_565 S
C244 C242 1.535 1_565 S
C245 C242 1.526 . S
C245 C246 1.396 . S
C245 C250 1.390 . S
C246 C240 1.465 . S
C246 C245 1.396 . S
C246 C247 1.399 . S
C247 H233 0.929 . S
C247 C246 1.399 . S
C247 C248 1.385 . S
C248 H234 0.931 . S
C248 C247 1.385 . S
C248 C249 1.389 . S
C249 C248 1.389 . S
C249 C250 1.387 . S
C250 H235 0.930 . S
C250 C245 1.390 . S
C250 C249 1.387 . S
H251 C263 0.930 . S
H252 C265 0.923 1_545 S
H253 C266 0.930 . S
H254 C270 0.959 . S
H255 C270 0.959 . S
H256 C270 0.961 . S
H257 C271 0.960 . S
H258 C271 0.961 . S
H259 C271 0.959 . S
H260 C274 0.929 . S
H261 C275 0.931 . S
H262 C277 0.930 . S
C263 H251 0.930 . S
C263 C264 1.399 . S
C263 C268 1.399 . S
C264 C263 1.399 . S
C264 C265 1.376 . S
C265 H252 0.923 1_565 S
C265 C264 1.376 . S
C265 C266 1.388 1_565 S
C266 H253 0.930 . S
C266 C265 1.388 1_545 S
C266 C267 1.390 1_545 S
C267 C266 1.390 1_565 S
C267 C268 1.394 . S
C267 C273 1.465 . S
C268 C263 1.399 . S
C268 C267 1.394 . S
C268 C269 1.516 . S
C269 C268 1.516 . S
C269 C270 1.502 . S
C269 C271 1.561 . S
C269 C272 1.526 . S
C270 H254 0.959 . S
C270 H255 0.959 . S
C270 H256 0.961 . S
C270 C269 1.502 . S
C271 H257 0.960 . S
C271 H258 0.961 . S
C271 H259 0.959 . S
C271 C269 1.561 . S
C272 C269 1.526 . S
C272 C273 1.396 . S
C272 C277 1.390 . S
C273 C267 1.465 . S
C273 C272 1.396 . S
C273 C274 1.399 1_565 S
C274 H260 0.929 . S
C274 C273 1.399 1_545 S
C274 C275 1.385 . S
C275 H261 0.931 . S
C275 C274 1.385 . S
C275 C276 1.389 . S
C276 C275 1.389 . S
C276 C277 1.387 1_545 S
C277 H262 0.930 . S
C277 C272 1.390 . S
C277 C276 1.387 1_565 S
H278 C290 0.930 . S
H279 C292 0.930 . S
H280 C293 0.930 . S
H281 C297 0.959 . S
H282 C297 0.959 . S
H283 C297 0.961 . S
H284 C298 0.960 . S
H285 C298 0.961 . S
H286 C298 0.959 . S
H287 C301 0.929 . S
H288 C302 0.931 . S
H289 C304 0.930 . S
C290 H278 0.930 . S
C290 C291 1.399 . S
C290 C295 1.399 . S
C291 C290 1.399 . S
C291 C292 1.376 . S
C292 H279 0.930 . S
C292 C291 1.376 . S
C292 C293 1.388 . S
C293 H280 0.930 . S
C293 C292 1.388 . S
C293 C294 1.390 . S
C294 C293 1.390 . S
C294 C295 1.394 . S
C294 C300 1.465 . S
C295 C290 1.399 . S
C295 C294 1.394 . S
C295 C296 1.516 . S
C296 C295 1.516 . S
C296 C297 1.502 . S
C296 C298 1.561 . S
C296 C299 1.526 . S
C297 H281 0.959 . S
C297 H282 0.959 . S
C297 H283 0.961 . S
C297 C296 1.502 . S
C298 H284 0.960 . S
C298 H285 0.961 . S
C298 H286 0.959 . S
C298 C296 1.561 . S
C299 C296 1.526 . S
C299 C300 1.396 . S
C299 C304 1.390 . S
C300 C294 1.465 . S
C300 C299 1.396 . S
C300 C301 1.399 . S
C301 H287 0.929 . S
C301 C300 1.399 . S
C301 C302 1.385 . S
C302 H288 0.931 . S
C302 C301 1.385 . S
C302 C303 1.389 . S
C303 C302 1.389 . S
C303 C304 1.387 . S
C304 H289 0.930 . S
C304 C299 1.390 . S
C304 C303 1.387 . S
H305 C317 0.930 . S
H306 C319 0.930 . S
H307 C320 0.930 . S
H308 C324 0.959 . S
H309 C324 0.959 . S
H310 C324 0.961 . S
H311 C325 0.960 . S
H312 C325 0.961 . S
H313 C325 0.959 . S
H314 C328 0.929 . S
H315 C329 0.931 . S
H316 C331 0.930 . S
C317 H305 0.930 . S
C317 C318 1.399 . S
C317 C322 1.399 . S
C318 C317 1.399 . S
C318 C319 1.376 . S
C319 H306 0.930 . S
C319 C318 1.376 . S
C319 C320 1.388 . S
C320 H307 0.930 . S
C320 C319 1.388 . S
C320 C321 1.390 . S
C321 C320 1.390 . S
C321 C322 1.394 . S
C321 C327 1.465 . S
C322 C317 1.399 . S
C322 C321 1.394 . S
C322 C323 1.516 . S
C323 C322 1.516 . S
C323 C324 1.502 1_655 S
C323 C325 1.561 . S
C323 C326 1.526 . S
C324 H308 0.959 . S
C324 H309 0.959 . S
C324 H310 0.961 . S
C324 C323 1.502 1_455 S
C325 H311 0.960 . S
C325 H312 0.961 . S
C325 H313 0.959 . S
C325 C323 1.561 . S
C326 C323 1.526 . S
C326 C327 1.396 . S
C326 C331 1.390 . S
C327 C321 1.465 . S
C327 C326 1.396 . S
C327 C328 1.399 . S
C328 H314 0.929 . S
C328 C327 1.399 . S
C328 C329 1.385 . S
C329 H315 0.931 . S
C329 C328 1.385 . S
C329 C330 1.389 . S
C330 C329 1.389 . S
C330 C331 1.387 . S
C331 H316 0.930 . S
C331 C326 1.390 . S
C331 C330 1.387 . S
H332 C344 0.930 . S
H333 C346 0.930 . S
H334 C347 0.930 . S
H335 C351 0.959 . S
H336 C351 0.959 . S
H337 C351 0.961 . S
H338 C352 0.960 . S
H339 C352 0.961 . S
H340 C352 0.959 . S
H341 C355 0.929 . S
H342 C356 0.931 . S
H343 C358 0.930 . S
C344 H332 0.930 . S
C344 C345 1.399 . S
C344 C349 1.399 . S
C345 C344 1.399 . S
C345 C346 1.376 . S
C346 H333 0.930 . S
C346 C345 1.376 . S
C346 C347 1.388 . S
C347 H334 0.930 . S
C347 C346 1.388 . S
C347 C348 1.390 . S
C348 C347 1.390 . S
C348 C349 1.394 . S
C348 C354 1.465 . S
C349 C344 1.399 . S
C349 C348 1.394 . S
C349 C350 1.516 . S
C350 C349 1.516 . S
C350 C351 1.502 . S
C350 C352 1.561 . S
C350 C353 1.526 . S
C351 H335 0.959 . S
C351 H336 0.959 . S
C351 H337 0.961 . S
C351 C350 1.502 . S
C352 H338 0.960 . S
C352 H339 0.961 . S
C352 H340 0.959 . S
C352 C350 1.561 . S
C353 C350 1.526 . S
C353 C354 1.396 . S
C353 C358 1.390 . S
C354 C348 1.465 . S
C354 C353 1.396 . S
C354 C355 1.399 . S
C355 H341 0.929 . S
C355 C354 1.399 . S
C355 C356 1.385 . S
C356 H342 0.931 . S
C356 C355 1.385 . S
C356 C357 1.389 . S
C357 C356 1.389 . S
C357 C358 1.387 . S
C358 H343 0.930 . S
C358 C353 1.390 . S
C358 C357 1.387 . S
H359 C371 0.930 . S
H360 C373 0.930 1_545 S
H361 C374 0.930 . S
H362 C378 0.959 . S
H363 C378 0.959 . S
H364 C378 0.961 . S
H365 C379 0.960 . S
H366 C379 0.961 . S
H367 C379 0.959 . S
H368 C382 0.929 . S
H369 C383 0.931 . S
H370 C385 0.930 . S
C371 H359 0.930 . S
C371 C372 1.399 . S
C371 C376 1.399 . S
C372 C371 1.399 . S
C372 C373 1.376 . S
C373 H360 0.930 1_565 S
C373 C372 1.376 . S
C373 C374 1.388 1_565 S
C374 H361 0.930 . S
C374 C373 1.388 1_545 S
C374 C375 1.390 1_545 S
C375 C374 1.390 1_565 S
C375 C376 1.394 . S
C375 C381 1.465 . S
C376 C371 1.399 . S
C376 C375 1.394 . S
C376 C377 1.516 . S
C377 C376 1.516 . S
C377 C378 1.502 . S
C377 C379 1.561 . S
C377 C380 1.526 . S
C378 H362 0.959 . S
C378 H363 0.959 . S
C378 H364 0.961 . S
C378 C377 1.502 . S
C379 H365 0.960 . S
C379 H366 0.961 . S
C379 H367 0.959 . S
C379 C377 1.561 . S
C380 C377 1.526 . S
C380 C381 1.396 . S
C380 C385 1.390 . S
C381 C375 1.465 . S
C381 C380 1.396 . S
C381 C382 1.399 1_565 S
C382 H368 0.929 . S
C382 C381 1.399 1_545 S
C382 C383 1.385 . S
C383 H369 0.931 . S
C383 C382 1.385 . S
C383 C384 1.389 1_545 S
C384 C383 1.389 1_565 S
C384 C385 1.387 . S
C385 H370 0.930 . S
C385 C380 1.390 . S
C385 C384 1.387 . S
H386 C398 0.930 . S
H387 C400 0.930 . S
H388 C401 0.930 . S
H389 C405 0.959 . S
H390 C405 0.959 . S
H391 C405 0.961 . S
H392 C406 0.960 . S
H393 C406 0.961 . S
H394 C406 0.959 . S
H395 C409 0.929 . S
H396 C410 0.931 . S
H397 C412 0.930 . S
C398 H386 0.930 . S
C398 C399 1.399 . S
C398 C403 1.399 . S
C399 C398 1.399 . S
C399 C400 1.376 1_556 S
C400 H387 0.930 . S
C400 C399 1.376 1_554 S
C400 C401 1.388 . S
C401 H388 0.930 . S
C401 C400 1.388 . S
C401 C402 1.390 . S
C402 C401 1.390 . S
C402 C403 1.394 1_554 S
C402 C408 1.465 . S
C403 C398 1.399 . S
C403 C402 1.394 1_556 S
C403 C404 1.516 . S
C404 C403 1.516 . S
C404 C405 1.502 . S
C404 C406 1.561 . S
C404 C407 1.526 . S
C405 H389 0.959 . S
C405 H390 0.959 . S
C405 H391 0.961 . S
C405 C404 1.502 . S
C406 H392 0.960 . S
C406 H393 0.961 . S
C406 H394 0.959 . S
C406 C404 1.561 . S
C407 C404 1.526 . S
C407 C408 1.396 1_556 S
C407 C412 1.390 . S
C408 C402 1.465 . S
C408 C407 1.396 1_554 S
C408 C409 1.399 . S
C409 H395 0.929 . S
C409 C408 1.399 . S
C409 C410 1.385 . S
C410 H396 0.931 . S
C410 C409 1.385 . S
C410 C411 1.389 . S
C411 C410 1.389 . S
C411 C412 1.387 1_554 S
C412 H397 0.930 . S
C412 C407 1.390 . S
C412 C411 1.387 1_556 S
H413 C425 0.930 . S
H414 C427 0.930 . S
H415 C428 0.930 . S
H416 C432 0.959 . S
H417 C432 0.959 . S
H418 C432 0.961 . S
H419 C433 0.960 . S
H420 C433 0.961 . S
H421 C433 0.959 . S
H422 C436 0.929 . S
H423 C437 0.931 . S
H424 C439 0.930 . S
C425 H413 0.930 . S
C425 C426 1.399 . S
C425 C430 1.399 . S
C426 C425 1.399 . S
C426 C427 1.376 . S
C427 H414 0.930 . S
C427 C426 1.376 . S
C427 C428 1.388 . S
C428 H415 0.930 . S
C428 C427 1.388 . S
C428 C429 1.390 . S
C429 C428 1.390 . S
C429 C430 1.394 . S
C429 C435 1.465 . S
C430 C425 1.399 . S
C430 C429 1.394 . S
C430 C431 1.516 . S
C431 C430 1.516 . S
C431 C432 1.502 . S
C431 C433 1.561 . S
C431 C434 1.526 . S
C432 H416 0.959 . S
C432 H417 0.959 . S
C432 H418 0.961 . S
C432 C431 1.502 . S
C433 H419 0.960 . S
C433 H420 0.961 . S
C433 H421 0.959 . S
C433 C431 1.561 . S
C434 C431 1.526 . S
C434 C435 1.396 . S
C434 C439 1.390 . S
C435 C429 1.465 . S
C435 C434 1.396 . S
C435 C436 1.399 . S
C436 H422 0.929 . S
C436 C435 1.399 . S
C436 C437 1.385 . S
C437 H423 0.931 . S
C437 C436 1.385 . S
C437 C438 1.389 . S
C438 C437 1.389 . S
C438 C439 1.387 . S
C439 H424 0.930 . S
C439 C434 1.390 . S
C439 C438 1.387 . S
H440 C452 0.930 . S
H441 C454 0.930 . S
H442 C455 0.930 . S
H443 C459 0.959 . S
H444 C459 0.959 . S
H445 C459 0.961 . S
H446 C460 0.960 . S
H447 C460 0.961 . S
H448 C460 0.959 . S
H449 C463 0.929 . S
H450 C464 0.931 . S
H451 C466 0.930 . S
C452 H440 0.930 . S
C452 C453 1.399 . S
C452 C457 1.399 . S
C453 C452 1.399 . S
C453 C454 1.376 . S
C454 H441 0.930 . S
C454 C453 1.376 . S
C454 C455 1.388 . S
C455 H442 0.930 . S
C455 C454 1.388 . S
C455 C456 1.390 . S
C456 C455 1.390 . S
C456 C457 1.394 . S
C456 C462 1.465 . S
C457 C452 1.399 . S
C457 C456 1.394 . S
C457 C458 1.516 . S
C458 C457 1.516 . S
C458 C459 1.502 . S
C458 C460 1.561 . S
C458 C461 1.526 . S
C459 H443 0.959 . S
C459 H444 0.959 . S
C459 H445 0.961 . S
C459 C458 1.502 . S
C460 H446 0.960 . S
C460 H447 0.961 . S
C460 H448 0.959 . S
C460 C458 1.561 . S
C461 C458 1.526 . S
C461 C462 1.396 . S
C461 C466 1.390 . S
C462 C456 1.465 . S
C462 C461 1.396 . S
C462 C463 1.399 . S
C463 H449 0.929 . S
C463 C462 1.399 . S
C463 C464 1.385 . S
C464 H450 0.931 . S
C464 C463 1.385 . S
C464 C465 1.389 . S
C465 C464 1.389 . S
C465 C466 1.387 . S
C466 H451 0.930 . S
C466 C461 1.390 . S
C466 C465 1.387 . S
H467 C479 0.930 . S
H468 C481 0.930 . S
H469 C482 0.930 . S
H470 C486 0.959 . S
H471 C486 0.959 . S
H472 C486 0.961 . S
H473 C487 0.960 . S
H474 C487 0.961 . S
H475 C487 0.959 1_554 S
H476 C490 0.929 . S
H477 C491 0.931 . S
H478 C493 0.930 1_556 S
C479 H467 0.930 . S
C479 C480 1.399 1_556 S
C479 C484 1.403 . S
C480 C479 1.399 1_554 S
C480 C481 1.376 . S
C481 H468 0.930 . S
C481 C480 1.376 . S
C481 C482 1.388 . S
C482 H469 0.930 . S
C482 C481 1.388 . S
C482 C483 1.390 . S
C483 C482 1.390 . S
C483 C484 1.384 1_554 S
C483 C489 1.465 . S
C484 C479 1.403 . S
C484 C483 1.384 1_556 S
C484 C485 1.521 . S
C485 C484 1.521 . S
C485 C486 1.502 . S
C485 C487 1.561 . S
C485 C488 1.526 1_556 S
C486 H470 0.959 . S
C486 H471 0.959 . S
C486 H472 0.961 . S
C486 C485 1.502 . S
C487 H473 0.960 . S
C487 H474 0.961 . S
C487 H475 0.959 1_556 S
C487 C485 1.561 . S
C488 C485 1.526 1_554 S
C488 C489 1.396 . S
C488 C493 1.390 . S
C489 C483 1.465 . S
C489 C488 1.396 . S
C489 C490 1.399 . S
C490 H476 0.929 . S
C490 C489 1.399 . S
C490 C491 1.385 . S
C491 H477 0.931 . S
C491 C490 1.385 . S
C491 C492 1.389 . S
C492 C491 1.389 . S
C492 C493 1.387 . S
C493 H478 0.930 1_554 S
C493 C488 1.390 . S
C493 C492 1.387 . S
H494 C506 0.930 . S
H495 C508 0.930 . S
H496 C509 0.930 . S
H497 C513 0.942 1_455 S
H498 C513 0.959 . S
H499 C513 0.961 . S
H500 C514 0.960 . S
H501 C514 0.961 . S
H502 C514 0.959 . S
H503 C517 0.929 . S
H504 C518 0.931 . S
H505 C520 0.930 . S
C506 H494 0.930 . S
C506 C507 1.399 . S
C506 C511 1.399 . S
C507 C506 1.399 . S
C507 C508 1.376 . S
C508 H495 0.930 . S
C508 C507 1.376 . S
C508 C509 1.388 . S
C509 H496 0.930 . S
C509 C508 1.388 . S
C509 C510 1.390 . S
C510 C509 1.390 . S
C510 C511 1.394 . S
C510 C516 1.465 . S
C511 C506 1.399 . S
C511 C510 1.394 . S
C511 C512 1.516 . S
C512 C511 1.516 . S
C512 C513 1.502 . S
C512 C514 1.561 . S
C512 C515 1.526 . S
C513 H497 0.942 1_655 S
C513 H498 0.959 . S
C513 H499 0.961 . S
C513 C512 1.502 . S
C514 H500 0.960 . S
C514 H501 0.961 . S
C514 H502 0.959 . S
C514 C512 1.561 . S
C515 C512 1.526 . S
C515 C516 1.396 . S
C515 C520 1.390 . S
C516 C510 1.465 . S
C516 C515 1.396 . S
C516 C517 1.399 . S
C517 H503 0.929 . S
C517 C516 1.399 . S
C517 C518 1.385 . S
C518 H504 0.931 . S
C518 C517 1.385 . S
C518 C519 1.389 . S
C519 C518 1.389 . S
C519 C520 1.387 . S
C520 H505 0.930 . S
C520 C515 1.390 . S
C520 C519 1.387 . S
H521 C533 0.930 . S
H522 C535 0.930 . S
H523 C536 0.930 . S
H524 C540 0.959 . S
H525 C540 0.959 . S
H526 C540 0.961 . S
H527 C541 0.960 . S
H528 C541 0.961 . S
H529 C541 0.959 . S
H530 C544 0.929 . S
H531 C545 0.931 . S
H532 C547 0.930 . S
C533 H521 0.930 . S
C533 C534 1.399 . S
C533 C538 1.399 . S
C534 C533 1.399 . S
C534 C535 1.376 . S
C535 H522 0.930 . S
C535 C534 1.376 . S
C535 C536 1.388 . S
C536 H523 0.930 . S
C536 C535 1.388 . S
C536 C537 1.390 . S
C537 C536 1.390 . S
C537 C538 1.394 . S
C537 C543 1.465 . S
C538 C533 1.399 . S
C538 C537 1.394 . S
C538 C539 1.516 . S
C539 C538 1.516 . S
C539 C540 1.502 . S
C539 C541 1.561 . S
C539 C542 1.526 . S
C540 H524 0.959 . S
C540 H525 0.959 . S
C540 H526 0.961 . S
C540 C539 1.502 . S
C541 H527 0.960 . S
C541 H528 0.961 . S
C541 H529 0.959 . S
C541 C539 1.561 . S
C542 C539 1.526 . S
C542 C543 1.396 . S
C542 C547 1.390 . S
C543 C537 1.465 . S
C543 C542 1.396 . S
C543 C544 1.399 . S
C544 H530 0.929 . S
C544 C543 1.399 . S
C544 C545 1.385 . S
C545 H531 0.931 . S
C545 C544 1.385 . S
C545 C546 1.389 . S
C546 C545 1.389 . S
C546 C547 1.387 . S
C547 H532 0.930 . S
C547 C542 1.390 . S
C547 C546 1.387 . S
H548 C560 0.930 . S
H549 C562 0.930 . S
H550 C563 0.930 1_545 S
H551 C567 0.959 . S
H552 C567 0.959 . S
H553 C567 0.961 . S
H554 C568 0.960 . S
H555 C568 0.961 . S
H556 C568 0.959 . S
H557 C571 0.929 . S
H558 C572 0.931 . S
H559 C574 0.930 1_455 S
C560 H548 0.930 . S
C560 C561 1.399 . S
C560 C565 1.399 . S
C561 C560 1.399 . S
C561 C562 1.376 . S
C562 H549 0.930 . S
C562 C561 1.376 . S
C562 C563 1.388 . S
C563 H550 0.930 1_565 S
C563 C562 1.388 . S
C563 C564 1.390 . S
C564 C563 1.390 . S
C564 C565 1.394 . S
C564 C570 1.465 . S
C565 C560 1.399 . S
C565 C564 1.394 . S
C565 C566 1.516 . S
C566 C565 1.516 . S
C566 C567 1.502 1_655 S
C566 C568 1.561 . S
C566 C569 1.526 . S
C567 H551 0.959 . S
C567 H552 0.959 . S
C567 H553 0.961 . S
C567 C566 1.502 1_455 S
C568 H554 0.960 . S
C568 H555 0.961 . S
C568 H556 0.959 . S
C568 C566 1.561 . S
C569 C566 1.526 . S
C569 C570 1.396 . S
C569 C574 1.390 . S
C570 C564 1.465 . S
C570 C569 1.396 . S
C570 C571 1.399 1_565 S
C571 H557 0.929 . S
C571 C570 1.399 1_545 S
C571 C572 1.385 . S
C572 H558 0.931 . S
C572 C571 1.385 . S
C572 C573 1.389 1_545 S
C573 C572 1.389 1_565 S
C573 C574 1.387 . S
C574 H559 0.930 1_655 S
C574 C569 1.390 . S
C574 C573 1.387 . S
H575 C587 0.930 . S
H576 C589 0.930 . S
H577 C590 0.930 . S
H578 C594 0.959 . S
H579 C594 0.959 . S
H580 C594 0.961 . S
H581 C595 0.960 . S
H582 C595 0.961 . S
H583 C595 0.959 . S
H584 C598 0.929 . S
H585 C599 0.931 . S
H586 C601 0.930 . S
C587 H575 0.930 . S
C587 C588 1.399 . S
C587 C592 1.399 . S
C588 C587 1.399 . S
C588 C589 1.376 . S
C589 H576 0.930 . S
C589 C588 1.376 . S
C589 C590 1.388 . S
C590 H577 0.930 . S
C590 C589 1.388 . S
C590 C591 1.390 . S
C591 C590 1.390 . S
C591 C592 1.394 . S
C591 C597 1.465 . S
C592 C587 1.399 . S
C592 C591 1.394 . S
C592 C593 1.516 . S
C593 C592 1.516 . S
C593 C594 1.502 . S
C593 C595 1.561 . S
C593 C596 1.526 . S
C594 H578 0.959 . S
C594 H579 0.959 . S
C594 H580 0.961 . S
C594 C593 1.502 . S
C595 H581 0.960 . S
C595 H582 0.961 . S
C595 H583 0.959 . S
C595 C593 1.561 . S
C596 C593 1.526 . S
C596 C597 1.396 . S
C596 C601 1.390 . S
C597 C591 1.465 . S
C597 C596 1.396 . S
C597 C598 1.399 . S
C598 H584 0.929 . S
C598 C597 1.399 . S
C598 C599 1.385 . S
C599 H585 0.931 . S
C599 C598 1.385 . S
C599 C600 1.389 . S
C600 C599 1.389 . S
C600 C601 1.387 . S
C601 H586 0.930 . S
C601 C596 1.390 . S
C601 C600 1.387 . S
H602 C614 0.930 . S
H603 C616 0.930 . S
H604 C617 0.930 . S
H605 C621 0.959 . S
H606 C621 0.959 . S
H607 C621 0.961 . S
H608 C622 0.960 . S
H609 C622 0.961 . S
H610 C622 0.959 . S
H611 C625 0.929 . S
H612 C626 0.931 . S
H613 C628 0.930 . S
C614 H602 0.930 . S
C614 C615 1.399 . S
C614 C619 1.399 . S
C615 C614 1.399 . S
C615 C616 1.376 . S
C616 H603 0.930 . S
C616 C615 1.376 . S
C616 C617 1.388 . S
C617 H604 0.930 . S
C617 C616 1.388 . S
C617 C618 1.390 . S
C618 C617 1.390 . S
C618 C619 1.394 . S
C618 C624 1.465 . S
C619 C614 1.399 . S
C619 C618 1.394 . S
C619 C620 1.516 . S
C620 C619 1.516 . S
C620 C621 1.502 . S
C620 C622 1.561 . S
C620 C623 1.526 . S
C621 H605 0.959 . S
C621 H606 0.959 . S
C621 H607 0.961 . S
C621 C620 1.502 . S
C622 H608 0.960 . S
C622 H609 0.961 . S
C622 H610 0.959 . S
C622 C620 1.561 . S
C623 C620 1.526 . S
C623 C624 1.396 . S
C623 C628 1.390 . S
C624 C618 1.465 . S
C624 C623 1.396 . S
C624 C625 1.399 . S
C625 H611 0.929 . S
C625 C624 1.399 . S
C625 C626 1.385 . S
C626 H612 0.931 . S
C626 C625 1.385 . S
C626 C627 1.389 . S
C627 C626 1.389 . S
C627 C628 1.387 . S
C628 H613 0.930 . S
C628 C623 1.390 . S
C628 C627 1.387 . S
H629 C641 0.930 . S
H630 C643 0.930 . S
H631 C644 0.930 . S
H632 C648 0.959 . S
H633 C648 0.959 . S
H634 C648 0.961 . S
H635 C649 0.960 . S
H636 C649 0.961 . S
H637 C649 0.959 . S
H638 C652 0.929 . S
H639 C653 0.931 . S
H640 C655 0.930 . S
C641 H629 0.930 . S
C641 C642 1.399 . S
C641 C646 1.399 . S
C642 C641 1.399 . S
C642 C643 1.376 . S
C643 H630 0.930 . S
C643 C642 1.376 . S
C643 C644 1.388 . S
C644 H631 0.930 . S
C644 C643 1.388 . S
C644 C645 1.390 . S
C645 C644 1.390 . S
C645 C646 1.394 . S
C645 C651 1.465 . S
C646 C641 1.399 . S
C646 C645 1.394 . S
C646 C647 1.516 . S
C647 C646 1.516 . S
C647 C648 1.502 . S
C647 C649 1.561 . S
C647 C650 1.526 . S
C648 H632 0.959 . S
C648 H633 0.959 . S
C648 H634 0.961 . S
C648 C647 1.502 . S
C649 H635 0.960 . S
C649 H636 0.961 . S
C649 H637 0.959 . S
C649 C647 1.561 . S
C650 C647 1.526 . S
C650 C651 1.396 . S
C650 C655 1.390 . S
C651 C645 1.465 . S
C651 C650 1.396 . S
C651 C652 1.399 . S
C652 H638 0.929 . S
C652 C651 1.399 . S
C652 C653 1.385 . S
C653 H639 0.931 . S
C653 C652 1.385 . S
C653 C654 1.389 . S
C654 C653 1.389 . S
C654 C655 1.387 . S
C655 H640 0.930 . S
C655 C650 1.390 . S
C655 C654 1.387 . S
H656 C668 0.930 . S
H657 C670 0.930 1_545 S
H658 C671 0.930 . S
H659 C675 0.959 . S
H660 C675 0.959 . S
H661 C675 0.961 . S
H662 C676 0.960 . S
H663 C676 0.961 . S
H664 C676 0.959 . S
H665 C679 0.929 . S
H666 C680 0.931 . S
H667 C682 0.930 . S
C668 H656 0.930 . S
C668 C669 1.399 . S
C668 C673 1.399 . S
C669 C668 1.399 . S
C669 C670 1.376 . S
C670 H657 0.930 1_565 S
C670 C669 1.376 . S
C670 C671 1.388 1_565 S
C671 H658 0.930 . S
C671 C670 1.388 1_545 S
C671 C672 1.390 1_545 S
C672 C671 1.390 1_565 S
C672 C673 1.394 . S
C672 C678 1.472 1_556 S
C673 C668 1.399 . S
C673 C672 1.394 . S
C673 C674 1.516 1_556 S
C674 C673 1.516 1_554 S
C674 C675 1.502 1_554 S
C674 C676 1.561 . S
C674 C677 1.526 . S
C675 H659 0.959 . S
C675 H660 0.959 . S
C675 H661 0.961 . S
C675 C674 1.502 1_556 S
C676 H662 0.960 . S
C676 H663 0.961 . S
C676 H664 0.959 . S
C676 C674 1.561 . S
C677 C674 1.526 . S
C677 C678 1.418 . S
C677 C682 1.390 . S
C678 C672 1.472 1_554 S
C678 C677 1.418 . S
C678 C679 1.376 1_565 S
C679 H665 0.929 . S
C679 C678 1.376 1_545 S
C679 C680 1.385 . S
C680 H666 0.931 . S
C680 C679 1.385 . S
C680 C681 1.389 . S
C681 C680 1.389 . S
C681 C682 1.387 1_545 S
C682 H667 0.930 . S
C682 C677 1.390 . S
C682 C681 1.387 1_565 S
H683 C695 0.930 . S
H684 C697 0.930 . S
H685 C698 0.930 . S
H686 C702 0.959 . S
H687 C702 0.959 1_565 S
H688 C702 0.961 . S
H689 C703 0.960 1_565 S
H690 C703 0.961 1_565 S
H691 C703 0.959 . S
H692 C706 0.929 . S
H693 C707 0.931 . S
H694 C709 0.930 . S
C695 H683 0.930 . S
C695 C696 1.399 . S
C695 C700 1.399 . S
C696 C695 1.399 . S
C696 C697 1.376 . S
C697 H684 0.930 . S
C697 C696 1.376 . S
C697 C698 1.388 . S
C698 H685 0.930 . S
C698 C697 1.388 . S
C698 C699 1.390 . S
C699 C698 1.390 . S
C699 C700 1.394 . S
C699 C705 1.465 . S
C700 C695 1.399 . S
C700 C699 1.394 . S
C700 C701 1.516 . S
C701 C700 1.516 . S
C701 C702 1.502 . S
C701 C703 1.561 . S
C701 C704 1.526 . S
C702 H686 0.959 . S
C702 H687 0.959 1_545 S
C702 H688 0.961 . S
C702 C701 1.502 . S
C703 H689 0.960 1_545 S
C703 H690 0.961 1_545 S
C703 H691 0.959 . S
C703 C701 1.561 . S
C704 C701 1.526 . S
C704 C705 1.396 . S
C704 C709 1.390 . S
C705 C699 1.465 . S
C705 C704 1.396 . S
C705 C706 1.399 . S
C706 H692 0.929 . S
C706 C705 1.399 . S
C706 C707 1.385 . S
C707 H693 0.931 . S
C707 C706 1.385 . S
C707 C708 1.389 . S
C708 C707 1.389 . S
C708 C709 1.387 . S
C709 H694 0.930 . S
C709 C704 1.390 . S
C709 C708 1.387 . S
H710 C722 0.930 . S
H711 C724 0.930 . S
H712 C725 0.930 . S
H713 C729 0.959 . S
H714 C729 0.959 1_556 S
H715 C729 0.961 . S
H716 C730 0.959 . S
H717 C730 0.958 . S
H718 C730 0.960 1_554 S
H719 C733 0.929 . S
H720 C734 0.931 . S
H721 C736 0.930 . S
C722 H710 0.930 . S
C722 C723 1.399 . S
C722 C727 1.399 . S
C723 C722 1.399 . S
C723 C724 1.376 . S
C724 H711 0.930 . S
C724 C723 1.376 . S
C724 C725 1.388 . S
C725 H712 0.930 . S
C725 C724 1.388 . S
C725 C726 1.390 . S
C726 C725 1.390 . S
C726 C727 1.394 . S
C726 C732 1.465 . S
C727 C722 1.399 . S
C727 C726 1.394 . S
C727 C728 1.516 . S
C728 C727 1.516 . S
C728 C729 1.502 . S
C728 C730 1.563 1_554 S
C728 C731 1.526 . S
C729 H713 0.959 . S
C729 H714 0.959 1_554 S
C729 H715 0.961 . S
C729 C728 1.502 . S
C730 H716 0.959 . S
C730 H717 0.958 . S
C730 H718 0.960 1_556 S
C730 C728 1.563 1_556 S
C731 C728 1.526 . S
C731 C732 1.396 . S
C731 C736 1.390 . S
C732 C726 1.465 . S
C732 C731 1.396 . S
C732 C733 1.399 . S
C733 H719 0.929 . S
C733 C732 1.399 . S
C733 C734 1.385 . S
C734 H720 0.931 . S
C734 C733 1.385 . S
C734 C735 1.389 . S
C735 C734 1.389 . S
C735 C736 1.387 . S
C736 H721 0.930 . S
C736 C731 1.390 . S
C736 C735 1.387 . S
H737 C749 0.930 . S
H738 C751 0.930 . S
H739 C752 0.930 . S
H740 C756 0.959 . S
H741 C756 0.959 . S
H742 C756 0.961 . S
H743 C757 0.960 . S
H744 C757 0.961 . S
H745 C757 0.959 . S
H746 C760 0.929 . S
H747 C761 0.931 . S
H748 C763 0.930 . S
C749 H737 0.930 . S
C749 C750 1.399 . S
C749 C754 1.399 . S
C750 C749 1.399 . S
C750 C751 1.376 . S
C751 H738 0.930 . S
C751 C750 1.376 . S
C751 C752 1.388 . S
C752 H739 0.930 . S
C752 C751 1.388 . S
C752 C753 1.390 . S
C753 C752 1.390 . S
C753 C754 1.394 . S
C753 C759 1.465 . S
C754 C749 1.399 . S
C754 C753 1.394 . S
C754 C755 1.516 . S
C755 C754 1.516 . S
C755 C756 1.502 . S
C755 C757 1.561 . S
C755 C758 1.526 . S
C756 H740 0.959 . S
C756 H741 0.959 . S
C756 H742 0.961 . S
C756 C755 1.502 . S
C757 H743 0.960 . S
C757 H744 0.961 . S
C757 H745 0.959 . S
C757 C755 1.561 . S
C758 C755 1.526 . S
C758 C759 1.396 . S
C758 C763 1.390 . S
C759 C753 1.465 . S
C759 C758 1.396 . S
C759 C760 1.399 . S
C760 H746 0.929 . S
C760 C759 1.399 . S
C760 C761 1.385 . S
C761 H747 0.931 . S
C761 C760 1.385 . S
C761 C762 1.389 . S
C762 C761 1.389 . S
C762 C763 1.387 . S
C763 H748 0.930 . S
C763 C758 1.390 . S
C763 C762 1.387 . S
H764 C776 0.930 . S
H765 C778 0.930 1_554 S
H766 C779 0.930 . S
H767 C783 0.959 . S
H768 C783 0.959 . S
H769 C783 0.961 . S
H770 C784 0.960 . S
H771 C784 0.961 . S
H772 C784 0.959 . S
H773 C787 0.929 . S
H774 C788 0.931 . S
H775 C790 0.930 . S
C776 H764 0.930 . S
C776 C777 1.399 . S
C776 C781 1.399 . S
C777 C776 1.399 . S
C777 C778 1.376 . S
C778 H765 0.930 1_556 S
C778 C777 1.376 . S
C778 C779 1.388 1_556 S
C779 H766 0.930 . S
C779 C778 1.388 1_554 S
C779 C780 1.390 1_554 S
C780 C779 1.390 1_556 S
C780 C781 1.394 . S
C780 C786 1.465 . S
C781 C776 1.399 . S
C781 C780 1.394 . S
C781 C782 1.516 . S
C782 C781 1.516 . S
C782 C783 1.502 . S
C782 C784 1.561 1_655 S
C782 C785 1.526 . S
C783 H767 0.959 . S
C783 H768 0.959 . S
C783 H769 0.961 . S
C783 C782 1.502 . S
C784 H770 0.960 . S
C784 H771 0.961 . S
C784 H772 0.959 . S
C784 C782 1.561 1_455 S
C785 C782 1.526 . S
C785 C786 1.396 . S
C785 C790 1.390 . S
C786 C780 1.465 . S
C786 C785 1.396 . S
C786 C787 1.399 1_656 S
C787 H773 0.929 . S
C787 C786 1.399 1_454 S
C787 C788 1.385 . S
C788 H774 0.931 . S
C788 C787 1.385 . S
C788 C789 1.366 1_554 S
C789 C788 1.366 1_556 S
C789 C790 1.413 1_455 S
C790 H775 0.930 . S
C790 C785 1.390 . S
C790 C789 1.413 1_655 S
H791 C803 0.930 . S
H792 C805 0.930 . S
H793 C806 0.930 . S
H794 C810 0.959 . S
H795 C810 0.959 . S
H796 C810 0.961 . S
H797 C811 0.960 . S
H798 C811 0.961 . S
H799 C811 0.959 . S
H800 C814 0.929 . S
H801 C815 0.931 . S
H802 C817 0.930 . S
C803 H791 0.930 . S
C803 C804 1.399 . S
C803 C808 1.399 . S
C804 C803 1.399 . S
C804 C805 1.376 . S
C805 H792 0.930 . S
C805 C804 1.376 . S
C805 C806 1.388 . S
C806 H793 0.930 . S
C806 C805 1.388 . S
C806 C807 1.390 . S
C807 C806 1.390 . S
C807 C808 1.394 . S
C807 C813 1.465 . S
C808 C803 1.399 . S
C808 C807 1.394 . S
C808 C809 1.516 . S
C809 C808 1.516 . S
C809 C810 1.502 . S
C809 C811 1.561 . S
C809 C812 1.526 . S
C810 H794 0.959 . S
C810 H795 0.959 . S
C810 H796 0.961 . S
C810 C809 1.502 . S
C811 H797 0.960 . S
C811 H798 0.961 . S
C811 H799 0.959 . S
C811 C809 1.561 . S
C812 C809 1.526 . S
C812 C813 1.396 . S
C812 C817 1.390 . S
C813 C807 1.465 . S
C813 C812 1.396 . S
C813 C814 1.399 . S
C814 H800 0.929 . S
C814 C813 1.399 . S
C814 C815 1.385 . S
C815 H801 0.931 . S
C815 C814 1.385 . S
C815 C816 1.389 . S
C816 C815 1.389 . S
C816 C817 1.387 . S
C817 H802 0.930 . S
C817 C812 1.390 . S
C817 C816 1.387 . S
H818 C830 0.930 . S
H819 C832 0.930 . S
H820 C833 0.930 . S
H821 C837 0.959 . S
H822 C837 0.959 . S
H823 C837 0.961 . S
H824 C838 0.960 . S
H825 C838 0.961 . S
H826 C838 0.959 . S
H827 C841 0.929 . S
H828 C842 0.931 . S
H829 C844 0.930 . S
C830 H818 0.930 . S
C830 C831 1.399 . S
C830 C835 1.399 . S
C831 C830 1.399 . S
C831 C832 1.376 . S
C832 H819 0.930 . S
C832 C831 1.376 . S
C832 C833 1.388 . S
C833 H820 0.930 . S
C833 C832 1.388 . S
C833 C834 1.390 . S
C834 C833 1.390 . S
C834 C835 1.394 . S
C834 C840 1.465 . S
C835 C830 1.399 . S
C835 C834 1.394 . S
C835 C836 1.516 . S
C836 C835 1.516 . S
C836 C837 1.502 . S
C836 C838 1.561 . S
C836 C839 1.526 . S
C837 H821 0.959 . S
C837 H822 0.959 . S
C837 H823 0.961 . S
C837 C836 1.502 . S
C838 H824 0.960 . S
C838 H825 0.961 . S
C838 H826 0.959 . S
C838 C836 1.561 . S
C839 C836 1.526 . S
C839 C840 1.396 . S
C839 C844 1.390 . S
C840 C834 1.465 . S
C840 C839 1.396 . S
C840 C841 1.399 . S
C841 H827 0.929 . S
C841 C840 1.399 . S
C841 C842 1.385 . S
C842 H828 0.931 . S
C842 C841 1.385 . S
C842 C843 1.389 . S
C843 C842 1.389 . S
C843 C844 1.387 . S
C844 H829 0.930 . S
C844 C839 1.390 . S
C844 C843 1.387 . S
H845 C857 0.930 . S
H846 C859 0.930 . S
H847 C860 0.930 . S
H848 C864 0.959 . S
H849 C864 0.959 . S
H850 C864 0.961 . S
H851 C865 0.960 . S
H852 C865 0.961 . S
H853 C865 0.959 . S
H854 C868 0.929 . S
H855 C869 0.931 . S
H856 C871 0.930 . S
C857 H845 0.930 . S
C857 C858 1.399 . S
C857 C862 1.399 . S
C858 C857 1.399 . S
C858 C859 1.376 . S
C859 H846 0.930 . S
C859 C858 1.376 . S
C859 C860 1.388 . S
C860 H847 0.930 . S
C860 C859 1.388 . S
C860 C861 1.390 . S
C861 C860 1.390 . S
C861 C862 1.394 . S
C861 C867 1.465 . S
C862 C857 1.399 . S
C862 C861 1.394 . S
C862 C863 1.516 . S
C863 C862 1.516 . S
C863 C864 1.502 . S
C863 C865 1.561 . S
C863 C866 1.526 . S
C864 H848 0.959 . S
C864 H849 0.959 . S
C864 H850 0.961 . S
C864 C863 1.502 . S
C865 H851 0.960 . S
C865 H852 0.961 . S
C865 H853 0.959 . S
C865 C863 1.561 . S
C866 C863 1.526 . S
C866 C867 1.396 . S
C866 C871 1.390 . S
C867 C861 1.465 . S
C867 C866 1.396 . S
C867 C868 1.399 . S
C868 H854 0.929 . S
C868 C867 1.399 . S
C868 C869 1.385 . S
C869 H855 0.931 . S
C869 C868 1.385 . S
C869 C870 1.389 . S
C870 C869 1.389 . S
C870 C871 1.387 . S
C871 H856 0.930 . S
C871 C866 1.390 . S
C871 C870 1.387 . S
C237 C5 2.510 . S
C249 C88 2.638 . S
C264 C18 2.276 . S
C276 C130 2.386 1_556 S
C303 C160 0.845 . S
C291 C30 0.738 . S
C318 C41 0.801 . S
C330 C194 0.864 . S
C357 C151 2.109 . S
C345 C7 2.022 . S
C384 C105 2.120 . S
C372 C16 1.783 . S
C411 C198 1.352 . S
C399 C29 1.313 . S
C438 C164 0.930 . S
C426 C38 0.950 . S
C453 C8 2.269 . S
C465 C219 2.275 . S
C492 C126 1.255 . S
C480 C27 1.120 1_554 S
C507 C40 1.098 . S
C519 C101 1.082 . S
C534 C19 1.740 . S
C546 C185 1.794 . S
C573 C117 2.424 1_565 S
C561 C51 2.388 . S
C588 C62 2.307 . S
C600 C139 2.459 . S
C615 C74 0.858 . S
C627 C169 0.890 . S
C642 C84 0.850 . S
C654 C203 0.906 . S
C669 C49 2.036 . S
C681 C122 2.204 . S
C708 C96 1.835 . S
C696 C63 1.758 . S
C735 C207 1.324 . S
C723 C71 1.067 . S
C762 C173 1.018 . S
C750 C85 0.919 . S
C777 C52 2.247 . S
C789 C190 2.236 1_556 S
C816 C135 1.341 . S
C804 C73 1.224 . S
C843 C92 1.015 . S
C831 C82 0.700 . S
C858 C60 1.922 . S
C870 C156 2.333 . S
