# Generated by pormake.
# Topology pyr, (3,6)-cn, num edge types: 1
# Building blocks:
#     Node 0, Type 0, BuildingBlock: WUSLED_clean_sbu_0, # of connection points: 3
#     Node 1, Type 0, BuildingBlock: WUSLED_clean_sbu_0, # of connection points: 3
#     Node 2, Type 0, BuildingBlock: WUSLED_clean_sbu_0, # of connection points: 3
#     Node 3, Type 0, BuildingBlock: WUSLED_clean_sbu_0, # of connection points: 3
#     Node 4, Type 0, BuildingBlock: WUSLED_clean_sbu_0, # of connection points: 3
#     Node 5, Type 0, BuildingBlock: WUSLED_clean_sbu_0, # of connection points: 3
#     Node 6, Type 0, BuildingBlock: WUSLED_clean_sbu_0, # of connection points: 3
#     Node 7, Type 0, BuildingBlock: WUSLED_clean_sbu_0, # of connection points: 3
#     Node 8, Type 1, BuildingBlock: LEVNOQ01_clean_sbu_1, # of connection points: 6
#     Node 9, Type 1, BuildingBlock: LEVNOQ01_clean_sbu_1, # of connection points: 6
#     Node 10, Type 1, BuildingBlock: LEVNOQ01_clean_sbu_1, # of connection points: 6
#     Node 11, Type 1, BuildingBlock: LEVNOQ01_clean_sbu_1, # of connection points: 6
#     Edge 12, Type (0, 1), BuildingBlock: EZIPEK_clean_linker_0, # of connection points: 2
#     Edge 13, Type (0, 1), BuildingBlock: EZIPEK_clean_linker_0, # of connection points: 2
#     Edge 14, Type (0, 1), BuildingBlock: EZIPEK_clean_linker_0, # of connection points: 2
#     Edge 15, Type (0, 1), BuildingBlock: EZIPEK_clean_linker_0, # of connection points: 2
#     Edge 16, Type (0, 1), BuildingBlock: EZIPEK_clean_linker_0, # of connection points: 2
#     Edge 17, Type (0, 1), BuildingBlock: EZIPEK_clean_linker_0, # of connection points: 2
#     Edge 18, Type (0, 1), BuildingBlock: EZIPEK_clean_linker_0, # of connection points: 2
#     Edge 19, Type (0, 1), BuildingBlock: EZIPEK_clean_linker_0, # of connection points: 2
#     Edge 20, Type (0, 1), BuildingBlock: EZIPEK_clean_linker_0, # of connection points: 2
#     Edge 21, Type (0, 1), BuildingBlock: EZIPEK_clean_linker_0, # of connection points: 2
#     Edge 22, Type (0, 1), BuildingBlock: EZIPEK_clean_linker_0, # of connection points: 2
#     Edge 23, Type (0, 1), BuildingBlock: EZIPEK_clean_linker_0, # of connection points: 2
#     Edge 24, Type (0, 1), BuildingBlock: EZIPEK_clean_linker_0, # of connection points: 2
#     Edge 25, Type (0, 1), BuildingBlock: EZIPEK_clean_linker_0, # of connection points: 2
#     Edge 26, Type (0, 1), BuildingBlock: EZIPEK_clean_linker_0, # of connection points: 2
#     Edge 27, Type (0, 1), BuildingBlock: EZIPEK_clean_linker_0, # of connection points: 2
#     Edge 28, Type (0, 1), BuildingBlock: EZIPEK_clean_linker_0, # of connection points: 2
#     Edge 29, Type (0, 1), BuildingBlock: EZIPEK_clean_linker_0, # of connection points: 2
#     Edge 30, Type (0, 1), BuildingBlock: EZIPEK_clean_linker_0, # of connection points: 2
#     Edge 31, Type (0, 1), BuildingBlock: EZIPEK_clean_linker_0, # of connection points: 2
#     Edge 32, Type (0, 1), BuildingBlock: EZIPEK_clean_linker_0, # of connection points: 2
#     Edge 33, Type (0, 1), BuildingBlock: EZIPEK_clean_linker_0, # of connection points: 2
#     Edge 34, Type (0, 1), BuildingBlock: EZIPEK_clean_linker_0, # of connection points: 2
#     Edge 35, Type (0, 1), BuildingBlock: EZIPEK_clean_linker_0, # of connection points: 2
# Relax obj value: 0.034
# Max RMSD: 0.109
# Mean RMSD: 0.044
data_MOF--net-pry--node1-WUSLED_clean_sbu_0--node2-LEVNOQ01_clean_sbu_1--edge1-EZIPEK_clean_linker_0
_symmetry_space_group_name_H-M    P1
_symmetry_Int_Tables_number       1
_symmetry_cell_setting            triclinic
loop_
_symmetry_equiv_pos_as_xyz
'x, y, z'
_cell_length_a     38.680377
_cell_length_b     37.381718
_cell_length_c     37.154738
_cell_angle_alpha  91.704706
_cell_angle_beta   91.63445
_cell_angle_gamma 94.201733
loop_
_atom_site_label
_atom_site_type_symbol
_atom_site_fract_x
_atom_site_fract_y
_atom_site_fract_z
_atom_type_partial_charge
C0 C 0.13146 0.24635 0.09627 0.0
C1 C 0.09819 0.24038 0.07965 0.0
C2 C 0.09341 0.30487 0.07471 0.0
C3 C 0.07941 0.26931 0.06902 0.0
C4 C 0.12645 0.31092 0.09141 0.0
C5 C 0.14526 0.28207 0.10194 0.0
U6 U 0.16206 0.16685 0.15269 0.0
O7 O 0.17808 0.11417 0.13334 0.0
O8 O 0.21512 0.15158 0.16387 0.0
C9 C 0.21003 0.12054 0.14621 0.0
C10 C 0.15336 0.21597 0.10423 0.0
C11 C 0.23865 0.10859 0.12389 0.0
C12 C 0.29454 0.11977 0.09571 0.0
C13 C 0.26522 0.13266 0.11182 0.0
C14 C 0.27083 0.0587 0.1024 0.0
C15 C 0.29787 0.08266 0.0915 0.0
C16 C 0.24154 0.07155 0.11836 0.0
C17 C 0.11466 0.14394 0.24186 0.0
C18 C 0.13278 0.10967 0.29315 0.0
C19 C 0.07338 0.12563 0.28739 0.0
C20 C 0.0811 0.14295 0.2554 0.0
C21 C 0.09908 0.10885 0.30664 0.0
C22 C 0.14052 0.12704 0.26093 0.0
C23 C 0.1217 0.16413 0.20875 0.0
O24 O 0.1757 0.22052 0.13164 0.0
O25 O 0.13843 0.18319 0.10157 0.0
O26 O 0.11352 0.14719 0.17784 0.0
O27 O 0.15104 0.18418 0.20814 0.0
H28 H 0.08684 0.21335 0.07427 0.0
H29 H 0.054 0.26396 0.05614 0.0
H30 H 0.13783 0.33808 0.09603 0.0
H31 H 0.17098 0.28775 0.11398 0.0
H32 H 0.3152 0.13872 0.08765 0.0
H33 H 0.26391 0.16134 0.11588 0.0
H34 H 0.27292 0.03002 0.0996 0.0
H35 H 0.22166 0.0524 0.12771 0.0
H36 H 0.15299 0.09684 0.30752 0.0
H37 H 0.04725 0.12531 0.2972 0.0
H38 H 0.06079 0.15591 0.24129 0.0
H39 H 0.16663 0.12746 0.25108 0.0
C40 C 0.27463 0.88589 0.58552 0.0
C41 C 0.27208 0.92287 0.59187 0.0
C42 C 0.21223 0.91733 0.56906 0.0
C43 C 0.24108 0.93849 0.58359 0.0
C44 C 0.21477 0.88046 0.56276 0.0
C45 C 0.24574 0.86489 0.57089 0.0
U46 U 0.35751 0.87396 0.64281 0.0
O47 O 0.37934 0.82405 0.65941 0.0
O48 O 0.40932 0.86113 0.62542 0.0
C49 C 0.40709 0.82946 0.64009 0.0
C50 C 0.3069 0.86849 0.59371 0.0
C51 C 0.41726 0.79826 0.61805 0.0
C52 C 0.44635 0.77321 0.56654 0.0
C53 C 0.43358 0.80265 0.58483 0.0
C54 C 0.42619 0.73441 0.6138 0.0
C55 C 0.44318 0.73901 0.58124 0.0
C56 C 0.41349 0.7637 0.63206 0.0
C57 C 0.37672 0.93562 0.72817 0.0
C58 C 0.41553 0.92566 0.77905 0.0
C59 C 0.38707 0.98118 0.77625 0.0
C60 C 0.37107 0.96947 0.74329 0.0
C61 C 0.40907 0.95919 0.79457 0.0
C62 C 0.39944 0.91391 0.74603 0.0
C63 C 0.35682 0.92293 0.69515 0.0
O64 O 0.33625 0.8879 0.5899 0.0
O65 O 0.3068 0.84936 0.62281 0.0
O66 O 0.34048 0.89091 0.69618 0.0
O67 O 0.37169 0.92895 0.66431 0.0
H68 H 0.29394 0.93961 0.60331 0.0
H69 H 0.23945 0.96696 0.58885 0.0
H70 H 0.19268 0.86373 0.5518 0.0
H71 H 0.24713 0.83634 0.56587 0.0
H72 H 0.45944 0.77723 0.54143 0.0
H73 H 0.43724 0.8289 0.57337 0.0
H74 H 0.42355 0.70822 0.62557 0.0
H75 H 0.40149 0.75943 0.65772 0.0
H76 H 0.43235 0.90829 0.79292 0.0
H77 H 0.38171 0.00704 0.78786 0.0
H78 H 0.35355 0.98656 0.72999 0.0
H79 H 0.40411 0.88765 0.73487 0.0
C80 C 0.61744 0.37198 0.75892 0.0
C81 C 0.60376 0.4057 0.76259 0.0
C82 C 0.60021 0.41013 0.69748 0.0
C83 C 0.59519 0.42457 0.73207 0.0
C84 C 0.61486 0.37708 0.69371 0.0
C85 C 0.62317 0.35803 0.72421 0.0
U86 U 0.66514 0.35483 0.84838 0.0
O87 O 0.64584 0.33053 0.89775 0.0
O88 O 0.68541 0.30488 0.86698 0.0
C89 C 0.66376 0.30219 0.8936 0.0
C90 C 0.62434 0.35015 0.79055 0.0
C91 C 0.64466 0.26681 0.8979 0.0
C92 C 0.60033 0.23033 0.92808 0.0
C93 C 0.61651 0.26387 0.92102 0.0
C94 C 0.63956 0.20171 0.88864 0.0
C95 C 0.61207 0.19906 0.91242 0.0
C96 C 0.65587 0.23535 0.88154 0.0
C97 C 0.73543 0.42163 0.8889 0.0
C98 C 0.76057 0.4168 0.94926 0.0
C99 C 0.79236 0.45034 0.90439 0.0
C100 C 0.765 0.4427 0.87942 0.0
C101 C 0.79057 0.43704 0.93925 0.0
C102 C 0.73319 0.4089 0.9241 0.0
C103 C 0.70851 0.41131 0.86099 0.0
O104 O 0.65476 0.33664 0.79197 0.0
O105 O 0.61469 0.36234 0.82202 0.0
O106 O 0.67623 0.40954 0.87139 0.0
O107 O 0.7154 0.3842 0.83973 0.0
H108 H 0.59908 0.41727 0.78891 0.0
H109 H 0.58396 0.45014 0.7354 0.0
H110 H 0.61892 0.36563 0.66717 0.0
H111 H 0.63356 0.33206 0.72067 0.0
H112 H 0.57916 0.22868 0.94659 0.0
H113 H 0.60749 0.28742 0.93441 0.0
H114 H 0.64897 0.17774 0.87646 0.0
H115 H 0.67774 0.2366 0.86394 0.0
H116 H 0.75879 0.40645 0.97612 0.0
H117 H 0.81532 0.46609 0.8963 0.0
H118 H 0.76727 0.45258 0.8524 0.0
H119 H 0.71064 0.39232 0.93186 0.0
C120 C 0.78454 0.59269 0.41189 0.0
C121 C 0.75991 0.61847 0.41531 0.0
C122 C 0.72386 0.57797 0.45084 0.0
C123 C 0.72979 0.61106 0.43445 0.0
C124 C 0.74975 0.55347 0.45018 0.0
C125 C 0.77968 0.56062 0.4305 0.0
U126 U 0.86764 0.64336 0.38186 0.0
O127 O 0.91373 0.62533 0.35491 0.0
O128 O 0.88095 0.66307 0.32857 0.0
C129 C 0.90736 0.64306 0.32568 0.0
C130 C 0.81347 0.59761 0.38674 0.0
C131 C 0.91021 0.62361 0.29086 0.0
C132 C 0.8848 0.59513 0.2354 0.0
C133 C 0.88086 0.61096 0.26963 0.0
C134 C 0.94726 0.60382 0.24365 0.0
C135 C 0.9181 0.59164 0.2222 0.0
C136 C 0.94334 0.61966 0.27765 0.0
C137 C 0.90341 0.72501 0.44221 0.0
C138 C 0.95709 0.75348 0.46948 0.0
C139 C 0.91269 0.79005 0.44668 0.0
C140 C 0.89189 0.75922 0.43642 0.0
C141 C 0.94537 0.78747 0.46325 0.0
C142 C 0.93625 0.72241 0.459 0.0
C143 C 0.87969 0.6928 0.43335 0.0
O144 O 0.8136 0.62627 0.36708 0.0
O145 O 0.84453 0.59103 0.39907 0.0
O146 O 0.89276 0.66129 0.43397 0.0
O147 O 0.85749 0.69555 0.40629 0.0
H148 H 0.76298 0.6437 0.40175 0.0
H149 H 0.71016 0.6303 0.43468 0.0
H150 H 0.74556 0.52773 0.46261 0.0
H151 H 0.79825 0.54037 0.42845 0.0
H152 H 0.86203 0.58579 0.21919 0.0
H153 H 0.855 0.61374 0.27927 0.0
H154 H 0.97314 0.60128 0.23391 0.0
H155 H 0.96627 0.62938 0.29347 0.0
H156 H 0.98223 0.75107 0.4824 0.0
H157 H 0.90319 0.8161 0.44184 0.0
H158 H 0.86651 0.76222 0.42428 0.0
H159 H 0.94568 0.69648 0.46443 0.0
C160 C 0.8821 0.78726 0.92888 0.0
C161 C 0.88886 0.75978 0.90387 0.0
C162 C 0.91853 0.72794 0.95078 0.0
C163 C 0.90693 0.73043 0.91475 0.0
C164 C 0.91269 0.75588 0.97544 0.0
C165 C 0.89461 0.78513 0.96461 0.0
U166 U 0.84974 0.86397 0.86958 0.0
O167 O 0.79617 0.87818 0.85933 0.0
O168 O 0.83343 0.91683 0.88797 0.0
C169 C 0.8012 0.90959 0.87632 0.0
C170 C 0.85989 0.81678 0.91958 0.0
C171 C 0.77317 0.92119 0.89967 0.0
C172 C 0.71842 0.90928 0.92988 0.0
C173 C 0.74734 0.89679 0.91267 0.0
C174 C 0.74113 0.97059 0.92258 0.0
C175 C 0.71476 0.9463 0.93433 0.0
C176 C 0.77001 0.95814 0.90549 0.0
C177 C 0.89545 0.88528 0.77891 0.0
C178 C 0.89865 0.93982 0.74441 0.0
C179 C 0.92259 0.88697 0.72063 0.0
C180 C 0.91144 0.86802 0.75067 0.0
C181 C 0.9204 0.92458 0.71873 0.0
C182 C 0.88755 0.92092 0.77473 0.0
C183 C 0.88893 0.86578 0.81256 0.0
O184 O 0.87477 0.84957 0.92087 0.0
O185 O 0.8375 0.81092 0.89234 0.0
O186 O 0.85983 0.84545 0.814 0.0
O187 O 0.89734 0.88347 0.84304 0.0
H188 H 0.8796 0.76059 0.87615 0.0
H189 H 0.91128 0.70927 0.89521 0.0
H190 H 0.92148 0.75464 1.00329 0.0
H191 H 0.88966 0.8058 0.98448 0.0
H192 H 0.69826 0.89008 0.93857 0.0
H193 H 0.74887 0.86816 0.90847 0.0
H194 H 0.73876 0.99921 0.92552 0.0
H195 H 0.78932 0.97754 0.89549 0.0
H196 H 0.88929 0.96601 0.74181 0.0
H197 H 0.93369 0.87174 0.69925 0.0
H198 H 0.91607 0.83985 0.75214 0.0
H199 H 0.87306 0.93428 0.795 0.0
C200 C 0.61202 0.13731 0.29779 0.0
C201 C 0.6113 0.09958 0.2982 0.0
C202 C 0.59416 0.09545 0.23447 0.0
C203 C 0.60248 0.0788 0.2667 0.0
C204 C 0.59594 0.13303 0.23389 0.0
C205 C 0.60473 0.15372 0.26522 0.0
U206 U 0.66156 0.17063 0.38647 0.0
O207 O 0.67336 0.22629 0.40683 0.0
O208 O 0.64053 0.18879 0.43777 0.0
C209 C 0.65325 0.22212 0.43456 0.0
C210 C 0.61791 0.1603 0.33091 0.0
C211 C 0.62977 0.25101 0.44157 0.0
C212 C 0.57271 0.2718 0.45337 0.0
C213 C 0.59376 0.2439 0.44492 0.0
C214 C 0.62313 0.31429 0.45479 0.0
C215 C 0.58726 0.30725 0.45821 0.0
C216 C 0.64416 0.28645 0.44668 0.0
C217 C 0.74502 0.12531 0.41639 0.0
C218 C 0.77995 0.08338 0.44737 0.0
C219 C 0.80451 0.14339 0.43648 0.0
C220 C 0.77303 0.15159 0.4202 0.0
C221 C 0.80855 0.10877 0.44893 0.0
C222 C 0.7485 0.09158 0.43124 0.0
C223 C 0.71419 0.13037 0.39291 0.0
O224 O 0.61308 0.14502 0.362 0.0
O225 O 0.645 0.1837 0.33143 0.0
O226 O 0.7149 0.15943 0.37377 0.0
O227 O 0.68357 0.12165 0.40596 0.0
H228 H 0.61687 0.08616 0.3229 0.0
H229 H 0.60136 0.04981 0.2676 0.0
H230 H 0.58974 0.14637 0.20929 0.0
H231 H 0.60505 0.18269 0.26419 0.0
H232 H 0.54508 0.26584 0.45593 0.0
H233 H 0.58187 0.21685 0.44125 0.0
H234 H 0.63488 0.34142 0.45845 0.0
H235 H 0.67183 0.29261 0.44459 0.0
H236 H 0.78259 0.0565 0.45671 0.0
H237 H 0.82636 0.16327 0.43729 0.0
H238 H 0.77129 0.17785 0.40903 0.0
H239 H 0.72745 0.0708 0.42855 0.0
C240 C 0.2693 0.61253 0.13837 0.0
C241 C 0.26997 0.63089 0.10587 0.0
C242 C 0.21509 0.59945 0.08665 0.0
C243 C 0.24305 0.6242 0.07997 0.0
C244 C 0.21508 0.58042 0.11864 0.0
C245 C 0.242 0.58692 0.14433 0.0
U246 U 0.34059 0.67619 0.18126 0.0
O247 O 0.35119 0.69331 0.23778 0.0
O248 O 0.39021 0.6656 0.208 0.0
C249 C 0.38075 0.67806 0.2394 0.0
C250 C 0.29556 0.62137 0.1672 0.0
C251 C 0.3859 0.65477 0.2701 0.0
C252 C 0.36359 0.61585 0.31687 0.0
C253 C 0.35777 0.63701 0.28713 0.0
C254 C 0.42555 0.6293 0.3123 0.0
C255 C 0.39757 0.61177 0.32949 0.0
C256 C 0.41975 0.65066 0.28289 0.0
C257 C 0.36499 0.76311 0.132 0.0
C258 C 0.40139 0.81465 0.15611 0.0
C259 C 0.38889 0.80778 0.09184 0.0
C260 C 0.36871 0.77608 0.09727 0.0
C261 C 0.40567 0.82709 0.12108 0.0
C262 C 0.38131 0.78259 0.16154 0.0
C263 C 0.34454 0.72889 0.13617 0.0
O264 O 0.32802 0.62202 0.15754 0.0
O265 O 0.28918 0.64865 0.18849 0.0
O266 O 0.32308 0.72745 0.16299 0.0
O267 O 0.36166 0.69999 0.13234 0.0
H268 H 0.29083 0.65093 0.10094 0.0
H269 H 0.24341 0.63907 0.05539 0.0
H270 H 0.19368 0.56119 0.12414 0.0
H271 H 0.24106 0.5726 0.16926 0.0
H272 H 0.34173 0.60254 0.32993 0.0
H273 H 0.33138 0.63962 0.2776 0.0
H274 H 0.45194 0.62648 0.32177 0.0
H275 H 0.44175 0.66409 0.27015 0.0
H276 H 0.4142 0.82928 0.17895 0.0
H277 H 0.3919 0.81701 0.06465 0.0
H278 H 0.35631 0.7614 0.07421 0.0
H279 H 0.3788 0.77284 0.18857 0.0
C280 C 0.07919 0.30752 0.62698 0.0
C281 C 0.084 0.30855 0.58961 0.0
C282 C 0.0611 0.24624 0.58247 0.0
C283 C 0.0746 0.27817 0.56739 0.0
C284 C 0.05515 0.24582 0.61954 0.0
C285 C 0.06405 0.27619 0.64156 0.0
U286 U 0.14631 0.38412 0.65525 0.0
O287 O 0.14127 0.43621 0.68302 0.0
O288 O 0.17172 0.39604 0.70853 0.0
C289 C 0.15819 0.42711 0.7122 0.0
C290 C 0.09219 0.33732 0.65182 0.0
C291 C 0.14199 0.43398 0.74705 0.0
C292 C 0.0915 0.44324 0.78283 0.0
C293 C 0.10589 0.43498 0.74971 0.0
C294 C 0.14884 0.44834 0.81136 0.0
C295 C 0.11292 0.45042 0.81376 0.0
C296 C 0.16326 0.44034 0.7782 0.0
C297 C 0.22329 0.40303 0.59274 0.0
C298 C 0.26587 0.45435 0.59605 0.0
C299 C 0.27806 0.40021 0.5627 0.0
C300 C 0.2457 0.38429 0.57139 0.0
C301 C 0.28846 0.43522 0.57517 0.0
C302 C 0.23344 0.43832 0.60488 0.0
C303 C 0.18995 0.38468 0.60231 0.0
O304 O 0.12123 0.33199 0.66936 0.0
O305 O 0.09137 0.37008 0.63996 0.0
O306 O 0.16296 0.40412 0.6029 0.0
O307 O 0.19137 0.36295 0.62936 0.0
H308 H 0.09588 0.3324 0.57779 0.0
H309 H 0.07926 0.27901 0.53881 0.0
H310 H 0.04463 0.22152 0.63165 0.0
H311 H 0.06018 0.27481 0.67027 0.0
H312 H 0.06369 0.44458 0.78425 0.0
H313 H 0.08886 0.42985 0.72619 0.0
H314 H 0.16571 0.45366 0.83497 0.0
H315 H 0.19113 0.43955 0.77677 0.0
H316 H 0.27371 0.48128 0.60618 0.0
H317 H 0.29533 0.38499 0.54687 0.0
H318 H 0.23834 0.35704 0.56185 0.0
H319 H 0.21658 0.4532 0.62154 0.0
O320 O 1.00414 0.02235 0.61295 0.0
Mg321 Mg 0.04408 0.04435 0.58222 0.0
O322 O 0.98284 0.99271 0.564 0.0
Mg323 Mg 0.01206 0.01669 0.5123 0.0
O324 O 0.03056 0.07332 0.53855 0.0
O325 O 0.05495 0.09735 0.59037 0.0
O326 O 0.04105 0.03955 0.4606 0.0
O327 O 0.96026 0.04526 0.49768 0.0
Mg328 Mg 0.97653 0.98874 0.44409 0.0
O329 O 0.99502 0.96 0.48556 0.0
O330 O 0.01304 0.01559 0.41204 0.0
O331 O 0.93145 0.01369 0.45386 0.0
O332 O 0.96944 0.9355 0.43456 0.0
C333 C 0.08831 0.99239 0.55072 0.0
C334 C 0.98281 0.99887 0.59818 0.0
C335 C 0.04242 0.10125 0.55829 0.0
C336 C 0.03742 0.03612 0.42621 0.0
C337 C 0.93334 0.03934 0.47686 0.0
C338 C 0.98367 0.93181 0.46594 0.0
O339 O 0.08748 0.01476 0.57677 0.0
O340 O 0.06386 0.98913 0.52664 0.0
O341 O 0.44657 0.08623 0.04197 0.0
Mg342 Mg 0.50052 0.09471 0.04197 0.0
O343 O 0.45059 0.02751 0.03585 0.0
Mg344 Mg 0.50748 0.01457 0.01623 0.0
O345 O 0.52311 0.07209 0.99883 0.0
O346 O 0.52221 0.13138 0.00815 0.0
O347 O 0.56443 1.00189 0.99637 0.0
O348 O 0.48149 0.00524 0.95739 0.0
Mg349 Mg 0.51118 0.93869 0.98731 0.0
O350 O 0.49199 0.95638 0.03511 0.0
O351 O 0.56482 0.94399 0.98228 0.0
O352 O 0.48059 0.94754 0.94173 0.0
O353 O 0.49337 0.89833 0.01797 0.0
C354 C 0.53799 0.0529 0.09689 0.0
C355 C 0.4327 0.05457 0.04199 0.0
C356 C 0.53178 0.10456 0.98922 0.0
C357 C 0.58057 0.97469 0.98615 0.0
C358 C 0.47312 0.97904 0.93507 0.0
C359 C 0.48526 0.92244 0.0412 0.0
O360 O 0.52793 0.0834 0.08946 0.0
O361 O 0.53279 0.02579 0.07492 0.0
O362 O 0.49576 0.59374 0.58605 0.0
Mg363 Mg 0.48935 0.53903 0.59547 0.0
O364 O 0.49334 0.57956 0.52787 0.0
Mg365 Mg 0.50309 0.51819 0.51639 0.0
O366 O 0.52446 0.50689 0.57365 0.0
O367 O 0.52149 0.51921 0.63284 0.0
O368 O 0.51291 0.45738 0.50355 0.0
O369 O 0.56244 0.53575 0.50443 0.0
Mg370 Mg 0.52257 0.51078 0.44192 0.0
O371 O 0.47793 0.52957 0.45941 0.0
O372 O 0.53065 0.45644 0.44762 0.0
O373 O 0.56534 0.54749 0.44695 0.0
O374 O 0.49024 0.52072 0.40104 0.0
C375 C 0.42736 0.49933 0.55881 0.0
C376 C 0.49262 0.60283 0.55376 0.0
C377 C 0.53501 0.50226 0.60663 0.0
C378 C 0.52462 0.44054 0.47657 0.0
C379 C 0.57969 0.54761 0.47784 0.0
C380 C 0.47008 0.53223 0.42521 0.0
O381 O 0.43895 0.51405 0.58834 0.0
O382 O 0.44607 0.49856 0.53096 0.0
O383 O 0.04015 0.45509 0.08111 0.0
Mg384 Mg 0.03442 0.50987 0.08477 0.0
O385 O 0.02217 0.45608 0.02427 0.0
Mg386 Mg 1.00395 0.51559 0.01312 0.0
O387 O 0.98683 0.52829 0.07296 0.0
O388 O 0.0099 0.52375 0.12899 0.0
O389 O 0.98577 0.57475 1.00167 0.0
O390 O 0.94662 0.48906 1.00674 0.0
Mg391 Mg 0.97437 0.5224 0.9382 0.0
O392 O 0.02043 0.50296 0.9537 0.0
O393 O 0.97115 0.57776 0.94392 0.0
O394 O 0.93006 0.49023 0.9493 0.0
O395 O 1.00133 0.50599 0.89609 0.0
C396 C 0.08334 0.55212 0.04382 0.0
C397 C 0.03429 0.4392 0.05091 0.0
C398 C 0.98494 0.53229 0.10793 0.0
C399 C 0.97545 0.59258 0.97486 0.0
C400 C 0.92419 0.48147 0.98122 0.0
C401 C 0.02474 0.49785 0.91924 0.0
O402 O 0.07778 0.5439 0.07589 0.0
O403 O 0.06104 0.5431 0.01858 0.0
C404 C 0.08233 0.11075 0.37188 0.0
C405 C 0.08998 0.09024 0.34065 0.0
C406 C 0.07527 0.03505 0.37287 0.0
C407 C 0.06143 0.05541 0.40119 0.0
N408 N 0.05023 0.11338 0.42694 0.0
N409 N 0.09081 0.03239 0.31021 0.0
C410 C 0.06507 0.09354 0.4009 0.0
C411 C 0.08609 0.0522 0.34096 0.0
N412 N 0.09179 0.14671 0.37379 0.0
N413 N 0.07828 0.99915 0.37673 0.0
H414 H 0.09869 0.04379 0.28624 0.0
H415 H 0.08426 0.00488 0.30765 0.0
H416 H 0.07141 0.98607 0.40021 0.0
H417 H 0.09092 0.98334 0.3585 0.0
H418 H 0.0901 0.1626 0.39709 0.0
H419 H 0.10443 0.15999 0.35303 0.0
H420 H 0.04836 0.14097 0.42571 0.0
H421 H 0.03767 0.1021 0.44878 0.0
C422 C 0.45707 0.9889 0.83483 0.0
C423 C 0.42373 0.97033 0.83108 0.0
C424 C 0.41911 0.97084 0.89689 0.0
C425 C 0.45428 0.98418 0.90051 0.0
N426 N 0.50696 0.00746 0.87415 0.0
N427 N 0.37257 0.94321 0.85794 0.0
C428 C 0.47317 0.99426 0.8698 0.0
C429 C 0.4044 0.96161 0.86199 0.0
N430 N 0.47316 1.00144 0.80493 0.0
N431 N 0.3999 0.96727 0.92707 0.0
H432 H 0.36054 0.93683 0.83285 0.0
H433 H 0.35882 0.93239 0.87922 0.0
H434 H 0.41024 0.97427 0.95281 0.0
H435 H 0.37329 0.96066 0.92655 0.0
H436 H 0.49601 0.01801 0.80584 0.0
H437 H 0.46232 0.99728 0.77898 0.0
H438 H 0.52384 0.01122 0.85306 0.0
H439 H 0.51853 0.01372 0.89947 0.0
C440 C 0.55684 0.41751 0.64704 0.0
C441 C 0.58854 0.42932 0.66542 0.0
C442 C 0.59112 0.48524 0.63255 0.0
C443 C 0.55842 0.47438 0.61616 0.0
N444 N 0.51553 0.42693 0.59842 0.0
N445 N 0.64037 0.4692 0.66918 0.0
C446 C 0.54338 0.43913 0.61996 0.0
C447 C 0.60731 0.46148 0.65579 0.0
N448 N 0.53834 0.38712 0.65732 0.0
N449 N 0.60561 0.519 0.62711 0.0
H450 H 0.65269 0.45209 0.68625 0.0
H451 H 0.65653 0.49085 0.66127 0.0
H452 H 0.59491 0.53589 0.60859 0.0
H453 H 0.62734 0.53059 0.64139 0.0
H454 H 0.51316 0.37952 0.64802 0.0
H455 H 0.54718 0.37051 0.67709 0.0
H456 H 0.50504 0.40045 0.5976 0.0
H457 H 0.50515 0.44255 0.57861 0.0
C458 C 0.93398 0.59814 0.15767 0.0
C459 C 0.92336 0.57541 0.18589 0.0
C460 C 0.93672 0.52298 0.14929 0.0
C461 C 0.95457 0.54611 0.12549 0.0
N462 N 0.96761 0.60522 0.10363 0.0
N463 N 0.91245 0.51593 0.20836 0.0
C464 C 0.95157 0.58358 0.12806 0.0
C465 C 0.92322 0.5376 0.18125 0.0
N466 N 0.92769 0.63361 0.15976 0.0
N467 N 0.93383 0.48693 0.14148 0.0
H468 H 0.9018 0.52574 0.23182 0.0
H469 H 0.91551 0.4885 0.20847 0.0
H470 H 0.94376 0.47617 0.11799 0.0
H471 H 0.91912 0.46838 0.15614 0.0
H472 H 0.93242 0.65131 0.13907 0.0
H473 H 0.9149 0.64466 0.18132 0.0
H474 H 0.97007 0.6331 0.10605 0.0
H475 H 0.9794 0.59488 0.08106 0.0
C476 C 0.35817 0.06333 0.10362 0.0
C477 C 0.33088 0.06892 0.07842 0.0
C478 C 0.36862 0.05475 0.02842 0.0
C479 C 0.39612 0.05042 0.05362 0.0
N480 N 0.41518 0.04154 0.11452 0.0
N481 N 0.30728 0.0627 0.01771 0.0
C482 C 0.39009 0.0516 0.09106 0.0
C483 C 0.3352 0.06214 0.04103 0.0
N484 N 0.35404 0.07068 0.13945 0.0
N485 N 0.37502 0.05311 0.99245 0.0
H486 H 0.2828 0.06874 0.02608 0.0
H487 H 0.30761 0.05485 0.99063 0.0
H488 H 0.39865 0.04579 0.98273 0.0
H489 H 0.35763 0.05999 0.97239 0.0
H490 H 0.37411 0.07137 0.15878 0.0
H491 H 0.33079 0.07826 0.14982 0.0
H492 H 0.41177 0.03874 0.142 0.0
H493 H 0.43859 0.03272 0.10578 0.0
C494 C 0.1523 0.93028 0.58744 0.0
C495 C 0.17879 0.93355 0.56185 0.0
C496 C 0.14366 0.97205 0.52544 0.0
C497 C 0.11703 0.96821 0.5508 0.0
N498 N 0.09203 0.93698 0.60068 0.0
N499 N 0.1974 0.9512 0.50321 0.0
C500 C 0.12016 0.94514 0.58016 0.0
C501 C 0.17369 0.95243 0.52973 0.0
N502 N 0.15838 0.91427 0.6194 0.0
N503 N 0.14101 0.99573 0.49833 0.0
H504 H 0.21987 0.93754 0.50577 0.0
H505 H 0.19357 0.96125 0.47769 0.0
H506 H 0.11905 0.0098 0.4939 0.0
H507 H 0.16123 1.00303 0.48151 0.0
H508 H 0.14169 0.91483 0.64087 0.0
H509 H 0.18142 0.90264 0.62563 0.0
H510 H 0.09147 0.91764 0.62029 0.0
H511 H 0.06796 0.94707 0.59567 0.0
C512 C 0.82778 0.4788 0.9802 0.0
C513 C 0.82113 0.444 0.96424 0.0
C514 C 0.88039 0.42976 0.98013 0.0
C515 C 0.88876 0.46653 0.98823 0.0
N516 N 0.87117 0.52562 1.00152 0.0
N517 N 0.83898 0.38447 0.95234 0.0
C518 C 0.86238 0.49073 0.99096 0.0
C519 C 0.84657 0.41852 0.96613 0.0
N520 N 0.80103 0.50039 0.98409 0.0
N521 N 0.90532 0.40616 0.98493 0.0
H522 H 0.81422 0.37529 0.94275 0.0
H523 H 0.85721 0.36557 0.94933 0.0
H524 H 0.9301 0.41459 0.99519 0.0
H525 H 0.90086 0.37844 0.98177 0.0
H526 H 0.80337 0.52541 0.99731 0.0
H527 H 0.77554 0.49183 0.9763 0.0
H528 H 0.85434 0.54605 1.00032 0.0
H529 H 0.89614 0.53419 0.01104 0.0
C530 C 0.66819 0.53957 0.44288 0.0
C531 C 0.68842 0.56683 0.46295 0.0
C532 C 0.6377 0.57876 0.49882 0.0
C533 C 0.61819 0.55084 0.47905 0.0
N534 N 0.6187 0.4964 0.44269 0.0
N535 N 0.69498 0.60689 0.51512 0.0
C536 C 0.63487 0.52845 0.45465 0.0
C537 C 0.67398 0.58468 0.49272 0.0
N538 N 0.67953 0.52592 0.41113 0.0
N539 N 0.62142 0.60031 0.52218 0.0
H540 H 0.72155 0.61143 0.51127 0.0
H541 H 0.68673 0.61829 0.539 0.0
H542 H 0.59519 0.59577 0.52769 0.0
H543 H 0.63339 0.62349 0.53462 0.0
H544 H 0.66383 0.50886 0.3938 0.0
H545 H 0.70306 0.53442 0.40004 0.0
H546 H 0.6309 0.4777 0.4271 0.0
H547 H 0.59466 0.48685 0.45196 0.0
C548 C 0.08491 0.3567 0.03374 0.0
C549 C 0.0737 0.33604 0.06336 0.0
C550 C 0.02759 0.37686 0.0732 0.0
C551 C 0.04272 0.40083 0.04817 0.0
N552 N 0.08661 0.41423 1.00479 0.0
N553 N 0.03545 0.32773 0.11308 0.0
C554 C 0.07124 0.39065 0.02795 0.0
C555 C 0.04496 0.34616 0.08326 0.0
N556 N 0.10842 0.34362 0.01096 0.0
N557 N 0.99642 0.38368 0.08733 0.0
H558 H 0.04748 0.30522 0.12149 0.0
H559 H 0.01742 0.33631 0.1311 0.0
H560 H 0.98307 0.40576 0.07996 0.0
H561 H 0.98228 0.3658 0.10326 0.0
H562 H 0.11519 0.35554 0.98693 0.0
H563 H 0.11886 0.31896 0.01448 0.0
H564 H 0.1101 0.41044 0.99276 0.0
H565 H 0.07676 0.43869 0.99898 0.0
C566 C 0.61127 0.14597 0.95219 0.0
C567 C 0.59619 0.16375 0.92306 0.0
C568 C 0.54177 0.12676 0.92803 0.0
C569 C 0.55549 0.11253 0.95973 0.0
N570 N 0.60505 0.0981 0.99507 0.0
N571 N 0.55175 0.16461 0.8766 0.0
C572 C 0.59114 0.11827 0.96905 0.0
C573 C 0.56298 0.15159 0.90849 0.0
N574 N 0.64369 0.15742 0.96534 0.0
N575 N 0.50785 0.11795 0.91822 0.0
H576 H 0.56715 0.18282 0.86208 0.0
H577 H 0.5286 0.15563 0.86323 0.0
H578 H 0.49277 0.09854 0.93164 0.0
H579 H 0.4946 0.12988 0.89756 0.0
H580 H 0.65458 0.14854 0.98909 0.0
H581 H 0.65937 0.17716 0.95317 0.0
H582 H 0.63142 0.09894 1.00172 0.0
H583 H 0.59019 0.07799 0.00774 0.0
C584 C 0.95619 0.84233 0.50313 0.0
C585 C 0.96658 0.82111 0.47365 0.0
C586 C 1.0042 0.87187 0.4543 0.0
C587 C 0.98694 0.89472 0.47764 0.0
N588 N 0.94932 0.90241 0.5273 0.0
N589 N 1.00251 0.81428 0.4223 0.0
C590 C 0.96454 0.88007 0.50381 0.0
C591 C 0.99201 0.83518 0.45012 0.0
N592 N 0.93767 0.82626 0.52975 0.0
N593 N 0.03147 0.88594 0.43541 0.0
H594 H 0.99461 0.78708 0.41895 0.0
H595 H 0.01776 0.82416 0.40165 0.0
H596 H 0.04045 0.91294 0.43848 0.0
H597 H 0.04697 0.87053 0.41966 0.0
H598 H 0.93134 0.83954 0.55341 0.0
H599 H 0.93137 0.79861 0.52941 0.0
H600 H 0.9297 0.89395 0.54438 0.0
H601 H 0.95576 0.92999 0.52885 0.0
C602 C 0.43711 0.68156 0.54414 0.0
C603 C 0.45882 0.70778 0.56394 0.0
C604 C 0.50696 0.66865 0.56065 0.0
C605 C 0.48342 0.64009 0.54767 0.0
N606 N 0.42584 0.61878 0.52622 0.0
N607 N 0.51484 0.72742 0.59054 0.0
C608 C 0.4486 0.64657 0.53823 0.0
C609 C 0.49414 0.70195 0.5714 0.0
N610 N 0.40541 0.69017 0.53136 0.0
N611 N 0.54155 0.6635 0.56292 0.0
H612 H 0.50659 0.75243 0.59806 0.0
H613 H 0.53956 0.7232 0.60059 0.0
H614 H 0.5512 0.63924 0.55489 0.0
H615 H 0.56072 0.68387 0.56938 0.0
H616 H 0.38953 0.67352 0.51388 0.0
H617 H 0.39638 0.71554 0.53567 0.0
H618 H 0.3992 0.62068 0.52337 0.0
H619 H 0.43331 0.59304 0.52063 0.0
C620 C 0.93172 0.98153 0.68039 0.0
C621 C 0.93884 0.94578 0.6888 0.0
C622 C 0.97288 0.9434 0.63347 0.0
C623 C 0.96111 0.97661 0.62292 0.0
N624 N 0.92458 0.02474 0.63399 0.0
N625 N 0.98694 0.9084 0.68449 0.0
C626 C 0.93849 0.99441 0.64543 0.0
C627 C 0.96501 0.93042 0.66822 0.0
N628 N 0.92691 0.00592 0.70743 0.0
N629 N 0.99254 0.92458 0.61078 0.0
H630 H 0.98666 0.90424 0.71213 0.0
H631 H 0.00854 0.89903 0.67214 0.0
H632 H 0.99934 0.93357 0.58546 0.0
H633 H 0.9991 0.89858 0.61578 0.0
H634 H 0.92371 0.03291 0.70298 0.0
H635 H 0.93368 1.00092 0.73409 0.0
H636 H 0.90583 0.03732 0.64834 0.0
H637 H 0.92942 0.03492 0.6086 0.0
C638 C 0.54714 0.06025 0.19706 0.0
C639 C 0.58228 0.07416 0.20121 0.0
C640 C 0.59112 0.06186 0.13695 0.0
C641 C 0.55556 0.05006 0.13256 0.0
N642 N 0.5026 0.02779 0.15868 0.0
N643 N 0.63983 0.07961 0.1781 0.0
C644 C 0.53464 0.0456 0.16292 0.0
C645 C 0.60504 0.07192 0.17205 0.0
N646 N 0.52523 0.06312 0.22506 0.0
N647 N 0.61098 0.06509 0.10722 0.0
H648 H 0.65051 0.087 0.20359 0.0
H649 H 0.65832 0.07589 0.1588 0.0
H650 H 0.60172 0.05614 0.0816 0.0
H651 H 0.63596 0.07751 0.10761 0.0
H652 H 0.4985 0.05744 0.22258 0.0
H653 H 0.53348 0.07322 0.25057 0.0
H654 H 0.48671 0.02109 0.17997 0.0
H655 H 0.49347 0.01658 0.13383 0.0
C656 C 0.41827 0.60717 0.39329 0.0
C657 C 0.40476 0.58967 0.36101 0.0
C658 C 0.41837 0.53196 0.3849 0.0
C659 C 0.4396 0.55039 0.41215 0.0
N660 N 0.45896 0.60591 0.44383 0.0
N661 N 0.39074 0.53491 0.32586 0.0
C662 C 0.4385 0.58803 0.41759 0.0
C663 C 0.40358 0.55175 0.35709 0.0
N664 N 0.4123 0.64225 0.4001 0.0
N665 N 0.41355 0.49543 0.38526 0.0
H666 H 0.3795 0.54848 0.30495 0.0
H667 H 0.39303 0.50783 0.31979 0.0
H668 H 0.42439 0.48079 0.40569 0.0
H669 H 0.39637 0.48028 0.36773 0.0
H670 H 0.41888 0.65577 0.42454 0.0
H671 H 0.39762 0.65672 0.38244 0.0
H672 H 0.46261 0.63377 0.44614 0.0
H673 H 0.47368 0.59287 0.46248 0.0
C674 C 0.09974 0.49794 0.85987 0.0
C675 C 0.09743 0.46122 0.8483 0.0
C676 C 0.05567 0.44667 0.89513 0.0
C677 C 0.05631 0.48361 0.9048 0.0
N678 N 0.08567 0.54229 0.90537 0.0
N679 N 0.08084 0.39948 0.86039 0.0
C680 C 0.08099 0.50844 0.8903 0.0
C681 C 0.07797 0.43512 0.86795 0.0
N682 N 0.11786 0.52303 0.84036 0.0
N683 N 0.03236 0.42313 0.91072 0.0
H684 H 0.09701 0.39045 0.84058 0.0
H685 H 0.0695 0.37897 0.87542 0.0
H686 H 0.01719 0.43096 0.93197 0.0
H687 H 0.02731 0.39646 0.90215 0.0
H688 H 0.11728 0.55057 0.84501 0.0
H689 H 0.13191 0.5165 0.81787 0.0
H690 H 0.10515 0.5612 0.89816 0.0
H691 H 0.07193 0.55011 0.92773 0.0
C692 C 0.65433 0.9657 0.92354 0.0
C693 C 0.68188 0.95962 0.94822 0.0
C694 C 0.64475 0.97298 0.99901 0.0
C695 C 0.6171 0.97818 0.97427 0.0
N696 N 0.59763 0.98851 0.91381 0.0
N697 N 0.70611 0.96447 0.00873 0.0
C698 C 0.62274 0.97758 0.93674 0.0
C699 C 0.67798 0.96565 0.98581 0.0
N700 N 0.65786 0.95867 0.88755 0.0
N701 N 0.63868 0.97363 0.03506 0.0
H702 H 0.73045 0.95848 0.9999 0.0
H703 H 0.70608 0.9718 0.03596 0.0
H704 H 0.61518 0.98073 0.04529 0.0
H705 H 0.65619 0.96603 0.05467 0.0
H706 H 0.63749 0.95833 0.86859 0.0
H707 H 0.68081 0.95086 0.87668 0.0
H708 H 0.60085 0.99183 0.88637 0.0
H709 H 0.5745 0.9976 0.92304 0.0
C710 C 0.86709 0.09125 0.43055 0.0
C711 C 0.84364 0.09717 0.45844 0.0
C712 C 0.88299 0.07097 0.50196 0.0
C713 C 0.90627 0.0654 0.47389 0.0
N714 N 0.92603 0.08121 0.41516 0.0
N715 N 0.83249 0.10044 0.52183 0.0
C716 C 0.9001 0.07935 0.43943 0.0
C717 C 0.85273 0.08962 0.49464 0.0
N718 N 0.85714 0.09469 0.39527 0.0
N719 N 0.88888 0.05696 0.53491 0.0
H720 H 0.81024 0.114 0.51709 0.0
H721 H 0.83924 0.09873 0.54902 0.0
H722 H 0.91114 0.04398 0.54116 0.0
H723 H 0.87103 0.05659 0.55537 0.0
H724 H 0.87176 0.08648 0.37383 0.0
H725 H 0.83294 0.10267 0.38715 0.0
H726 H 0.92407 0.094 0.39073 0.0
H727 H 0.95086 0.07344 0.42126 0.0
C728 C 0.15715 0.61754 0.06477 0.0
C729 C 0.18436 0.59422 0.06169 0.0
C730 C 0.14527 0.54906 0.02927 0.0
C731 C 0.11742 0.57038 0.03675 0.0
N732 N 0.09725 0.62828 0.04931 0.0
N733 N 0.20763 0.54371 0.03203 0.0
C734 C 0.12376 0.60609 0.04996 0.0
C735 C 0.17951 0.56202 0.04046 0.0
N736 N 0.16264 0.64923 0.08409 0.0
N737 N 0.13839 0.51555 0.0139 0.0
H738 H 0.23282 0.55309 0.04014 0.0
H739 H 0.20648 0.52111 0.01488 0.0
H740 H 0.11358 0.5064 1.0043 0.0
H741 H 0.15672 0.49669 0.01125 0.0
H742 H 0.143 0.66555 0.09088 0.0
H743 H 0.18696 0.65873 0.09463 0.0
H744 H 0.1002 0.65552 0.05629 0.0
H745 H 0.07271 0.61964 0.0385 0.0
C746 C 0.33079 0.47421 0.54034 0.0
C747 C 0.32427 0.45049 0.56893 0.0
C748 C 0.38644 0.45262 0.58389 0.0
C749 C 0.39249 0.47996 0.55864 0.0
N750 N 0.37046 0.51912 0.51441 0.0
N751 N 0.34505 0.42032 0.62092 0.0
C752 C 0.36473 0.49119 0.53694 0.0
C753 C 0.3519 0.44049 0.59148 0.0
N754 N 0.30463 0.48007 0.51621 0.0
N755 N 0.4139 0.43747 0.59983 0.0
H756 H 0.32011 0.41047 0.62728 0.0
H757 H 0.36371 0.4158 0.6407 0.0
H758 H 0.43962 0.44502 0.59416 0.0
H759 H 0.41122 0.41501 0.61572 0.0
H760 H 0.30844 0.494 0.49263 0.0
H761 H 0.27938 0.46863 0.51841 0.0
H762 H 0.35069 0.53126 0.50095 0.0
H763 H 0.39498 0.53183 0.51089 0.0
C764 C 0.91756 0.66907 0.98304 0.0
C765 C 0.93598 0.69557 0.9628 0.0
C766 C 0.98503 0.65735 0.95907 0.0
C767 C 0.96629 0.63062 0.97863 0.0
N768 N 0.91919 0.61482 0.01738 0.0
N769 N 0.99004 0.71882 0.939 0.0
C770 C 0.93411 0.63792 0.99352 0.0
C771 C 0.97069 0.69091 0.95322 0.0
N772 N 0.88354 0.67265 0.99045 0.0
N773 N 0.01619 0.65005 0.9452 0.0
H774 H 0.98025 0.7436 0.93436 0.0
H775 H 0.01645 0.71856 0.9345 0.0
H776 H 0.0284 0.62686 0.95123 0.0
H777 H 0.02932 0.66613 0.92685 0.0
H778 H 0.86745 0.65245 1.0013 0.0
H779 H 0.87044 0.69489 0.98325 0.0
H780 H 0.89736 0.62008 0.03182 0.0
H781 H 0.93068 0.5919 0.02549 0.0
C782 C 0.46486 0.85685 0.11137 0.0
C783 C 0.42857 0.85952 0.11365 0.0
C784 C 0.43227 0.91425 0.0788 0.0
C785 C 0.46785 0.90956 0.07382 0.0
N786 N 0.5201 0.88614 0.09347 0.0
N787 N 0.37998 0.89593 0.11039 0.0
C788 C 0.4848 0.88406 0.09357 0.0
C789 C 0.41314 0.89033 0.10127 0.0
N790 N 0.47951 0.82703 0.1233 0.0
N791 N 0.41629 0.93955 0.06001 0.0
H792 H 0.36573 0.87848 0.12679 0.0
H793 H 0.36789 0.91916 0.10463 0.0
H794 H 0.42977 0.95776 0.04389 0.0
H795 H 0.38959 0.94161 0.05918 0.0
H796 H 0.50474 0.82102 0.11797 0.0
H797 H 0.46574 0.80697 0.13704 0.0
H798 H 0.53565 0.87005 0.10845 0.0
H799 H 0.53565 0.87005 0.10845 0.0
C800 C 0.08351 0.1919 0.5518 0.0
C801 C 0.05501 0.21204 0.56083 0.0
C802 C 0.01489 0.15867 0.54982 0.0
C803 C 0.04375 0.13814 0.54501 0.0
N804 N 0.10258 0.1357 0.52756 0.0
N805 N 0.99356 0.21803 0.55727 0.0
C806 C 0.07704 0.15526 0.54077 0.0
C807 C 0.02055 0.19651 0.55567 0.0
N808 N 0.11673 0.20672 0.5567 0.0
N809 N 0.98257 0.14153 0.55118 0.0
H810 H 0.99751 0.24579 0.56142 0.0
H811 H 0.96784 0.20902 0.55155 0.0
H812 H 0.97811 0.11402 0.54553 0.0
H813 H 0.9606 0.15411 0.55857 0.0
H814 H 0.13849 0.19203 0.55476 0.0
H815 H 0.12271 0.23344 0.56471 0.0
H816 H 0.12701 0.14685 0.52116 0.0
H817 H 0.09776 0.10866 0.51975 0.0
C818 C 0.56996 0.35645 0.50021 0.0
C819 C 0.56531 0.33747 0.46655 0.0
C820 C 0.52289 0.37934 0.44793 0.0
C821 C 0.53315 0.40237 0.47801 0.0
N822 N 0.56954 0.41387 0.53189 0.0
N823 N 0.53964 0.33315 0.40638 0.0
C824 C 0.55703 0.391 0.50439 0.0
C825 C 0.54201 0.34921 0.43998 0.0
N826 N 0.58679 0.34144 0.52815 0.0
N827 N 0.49482 0.38645 0.4269 0.0
H828 H 0.55361 0.31141 0.39907 0.0
H829 H 0.52607 0.34338 0.38485 0.0
H830 H 0.47982 0.40789 0.43269 0.0
H831 H 0.48434 0.36903 0.40635 0.0
H832 H 0.58803 0.35241 0.55431 0.0
H833 H 0.5964 0.31613 0.52591 0.0
H834 H 0.58987 0.40824 0.5493 0.0
H835 H 0.56164 0.43966 0.53587 0.0
loop_
_geom_bond_atom_site_label_1
_geom_bond_atom_site_label_2
_geom_bond_distance
_geom_bond_site_symmetry_2
_ccdc_geom_bond_type
C0 C1 1.264 . S
C0 C5 1.479 . S
C0 C10 1.465 . S
C1 C0 1.264 . S
C1 C3 1.339 . S
C1 H28 0.931 . S
C2 C3 1.395 . S
C2 C4 1.320 . S
C3 C1 1.339 . S
C3 C2 1.395 . S
C3 H29 0.929 . S
C4 C2 1.320 . S
C4 C5 1.405 . S
C4 H30 0.930 . S
C5 C0 1.479 . S
C5 C4 1.405 . S
C5 H31 0.931 . S
U6 O7 2.454 . S
U6 O8 2.458 . S
U6 C9 2.984 . S
U6 C10 2.847 . S
U6 C23 2.882 . S
U6 O24 2.441 . S
U6 O25 2.420 . S
U6 O26 2.455 . S
U6 O27 2.449 . S
O7 U6 2.454 . S
O7 C9 1.353 . S
O8 U6 2.458 . S
O8 C9 1.286 . S
C9 U6 2.984 . S
C9 O7 1.353 . S
C9 O8 1.286 . S
C9 C11 1.363 . S
C10 C0 1.465 . S
C10 U6 2.847 . S
C10 O24 1.249 . S
C10 O25 1.202 . S
C11 C9 1.363 . S
C11 C13 1.408 . S
C11 C16 1.342 . S
C12 C13 1.310 . S
C12 C15 1.461 . S
C12 H32 0.932 . S
C13 C11 1.408 . S
C13 C12 1.310 . S
C13 H33 0.930 . S
C14 C15 1.474 . S
C14 C16 1.285 . S
C14 H34 0.929 . S
C15 C12 1.461 . S
C15 C14 1.474 . S
C16 C11 1.342 . S
C16 C14 1.285 . S
C16 H35 0.930 . S
C17 C20 1.424 . S
C17 C22 1.245 . S
C17 C23 1.428 . S
C18 C21 1.260 . S
C18 C22 1.477 . S
C18 H36 0.932 . S
C19 C20 1.384 . S
C19 C21 1.479 . S
C19 H37 0.929 . S
C20 C17 1.424 . S
C20 C19 1.384 . S
C20 H38 0.928 . S
C21 C18 1.260 . S
C21 C19 1.479 . S
C22 C17 1.245 . S
C22 C18 1.477 . S
C22 H39 0.932 . S
C23 U6 2.882 . S
C23 C17 1.428 . S
C23 O26 1.301 . S
C23 O27 1.282 . S
O24 U6 2.441 . S
O24 C10 1.249 . S
O25 U6 2.420 . S
O25 C10 1.202 . S
O26 U6 2.455 . S
O26 C23 1.301 . S
O27 U6 2.449 . S
O27 C23 1.282 . S
H28 C1 0.931 . S
H29 C3 0.929 . S
H30 C4 0.930 . S
H31 C5 0.931 . S
H32 C12 0.932 . S
H33 C13 0.930 . S
H34 C14 0.929 . S
H35 C16 0.930 . S
H36 C18 0.932 . S
H37 C19 0.929 . S
H38 C20 0.928 . S
H39 C22 0.932 . S
C40 C41 1.264 . S
C40 C45 1.479 . S
C40 C50 1.465 . S
C41 C40 1.264 . S
C41 C43 1.339 . S
C41 H68 0.931 . S
C42 C43 1.395 . S
C42 C44 1.320 . S
C43 C41 1.339 . S
C43 C42 1.395 . S
C43 H69 0.929 . S
C44 C42 1.320 . S
C44 C45 1.405 . S
C44 H70 0.930 . S
C45 C40 1.479 . S
C45 C44 1.405 . S
C45 H71 0.931 . S
U46 O47 2.454 . S
U46 O48 2.458 . S
U46 C49 2.984 . S
U46 C50 2.847 . S
U46 C63 2.882 . S
U46 O64 2.441 . S
U46 O65 2.420 . S
U46 O66 2.455 . S
U46 O67 2.449 . S
O47 U46 2.454 . S
O47 C49 1.353 . S
O48 U46 2.458 . S
O48 C49 1.286 . S
C49 U46 2.984 . S
C49 O47 1.353 . S
C49 O48 1.286 . S
C49 C51 1.363 . S
C50 C40 1.465 . S
C50 U46 2.847 . S
C50 O64 1.249 . S
C50 O65 1.202 . S
C51 C49 1.363 . S
C51 C53 1.408 . S
C51 C56 1.342 . S
C52 C53 1.310 . S
C52 C55 1.461 . S
C52 H72 0.932 . S
C53 C51 1.408 . S
C53 C52 1.310 . S
C53 H73 0.930 . S
C54 C55 1.474 . S
C54 C56 1.285 . S
C54 H74 0.929 . S
C55 C52 1.461 . S
C55 C54 1.474 . S
C56 C51 1.342 . S
C56 C54 1.285 . S
C56 H75 0.930 . S
C57 C60 1.424 . S
C57 C62 1.245 . S
C57 C63 1.428 . S
C58 C61 1.260 . S
C58 C62 1.477 . S
C58 H76 0.932 . S
C59 C60 1.384 . S
C59 C61 1.479 . S
C59 H77 0.929 . S
C60 C57 1.424 . S
C60 C59 1.384 . S
C60 H78 0.928 . S
C61 C58 1.260 . S
C61 C59 1.479 . S
C62 C57 1.245 . S
C62 C58 1.477 . S
C62 H79 0.932 . S
C63 U46 2.882 . S
C63 C57 1.428 . S
C63 O66 1.301 . S
C63 O67 1.282 . S
O64 U46 2.441 . S
O64 C50 1.249 . S
O65 U46 2.420 . S
O65 C50 1.202 . S
O66 U46 2.455 . S
O66 C63 1.301 . S
O67 U46 2.449 . S
O67 C63 1.282 . S
H68 C41 0.931 . S
H69 C43 0.929 . S
H70 C44 0.930 . S
H71 C45 0.931 . S
H72 C52 0.932 . S
H73 C53 0.930 . S
H74 C54 0.929 . S
H75 C56 0.930 . S
H76 C58 0.932 . S
H77 C59 0.929 . S
H78 C60 0.928 . S
H79 C62 0.932 . S
C80 C81 1.264 . S
C80 C85 1.479 . S
C80 C90 1.465 . S
C81 C80 1.264 . S
C81 C83 1.339 . S
C81 H108 0.931 . S
C82 C83 1.395 . S
C82 C84 1.320 . S
C83 C81 1.339 . S
C83 C82 1.395 . S
C83 H109 0.929 . S
C84 C82 1.320 . S
C84 C85 1.405 . S
C84 H110 0.930 . S
C85 C80 1.479 . S
C85 C84 1.405 . S
C85 H111 0.931 . S
U86 O87 2.454 . S
U86 O88 2.458 . S
U86 C89 2.984 . S
U86 C90 2.847 . S
U86 C103 2.882 . S
U86 O104 2.441 . S
U86 O105 2.420 . S
U86 O106 2.455 . S
U86 O107 2.449 . S
O87 U86 2.454 . S
O87 C89 1.353 . S
O88 U86 2.458 . S
O88 C89 1.286 . S
C89 U86 2.984 . S
C89 O87 1.353 . S
C89 O88 1.286 . S
C89 C91 1.363 . S
C90 C80 1.465 . S
C90 U86 2.847 . S
C90 O104 1.249 . S
C90 O105 1.202 . S
C91 C89 1.363 . S
C91 C93 1.408 . S
C91 C96 1.342 . S
C92 C93 1.310 . S
C92 C95 1.461 . S
C92 H112 0.932 . S
C93 C91 1.408 . S
C93 C92 1.310 . S
C93 H113 0.930 . S
C94 C95 1.474 . S
C94 C96 1.285 . S
C94 H114 0.929 . S
C95 C92 1.461 . S
C95 C94 1.474 . S
C96 C91 1.342 . S
C96 C94 1.285 . S
C96 H115 0.930 . S
C97 C100 1.424 . S
C97 C102 1.245 . S
C97 C103 1.428 . S
C98 C101 1.260 . S
C98 C102 1.477 . S
C98 H116 0.932 . S
C99 C100 1.384 . S
C99 C101 1.479 . S
C99 H117 0.929 . S
C100 C97 1.424 . S
C100 C99 1.384 . S
C100 H118 0.928 . S
C101 C98 1.260 . S
C101 C99 1.479 . S
C102 C97 1.245 . S
C102 C98 1.477 . S
C102 H119 0.932 . S
C103 U86 2.882 . S
C103 C97 1.428 . S
C103 O106 1.301 . S
C103 O107 1.282 . S
O104 U86 2.441 . S
O104 C90 1.249 . S
O105 U86 2.420 . S
O105 C90 1.202 . S
O106 U86 2.455 . S
O106 C103 1.301 . S
O107 U86 2.449 . S
O107 C103 1.282 . S
H108 C81 0.931 . S
H109 C83 0.929 . S
H110 C84 0.930 . S
H111 C85 0.931 . S
H112 C92 0.932 . S
H113 C93 0.930 . S
H114 C94 0.929 . S
H115 C96 0.930 . S
H116 C98 0.932 . S
H117 C99 0.929 . S
H118 C100 0.928 . S
H119 C102 0.932 . S
C120 C121 1.264 . S
C120 C125 1.479 . S
C120 C130 1.465 . S
C121 C120 1.264 . S
C121 C123 1.339 . S
C121 H148 0.931 . S
C122 C123 1.395 . S
C122 C124 1.320 . S
C123 C121 1.339 . S
C123 C122 1.395 . S
C123 H149 0.929 . S
C124 C122 1.320 . S
C124 C125 1.405 . S
C124 H150 0.930 . S
C125 C120 1.479 . S
C125 C124 1.405 . S
C125 H151 0.931 . S
U126 O127 2.454 . S
U126 O128 2.458 . S
U126 C129 2.984 . S
U126 C130 2.847 . S
U126 C143 2.882 . S
U126 O144 2.441 . S
U126 O145 2.420 . S
U126 O146 2.455 . S
U126 O147 2.449 . S
O127 U126 2.454 . S
O127 C129 1.353 . S
O128 U126 2.458 . S
O128 C129 1.286 . S
C129 U126 2.984 . S
C129 O127 1.353 . S
C129 O128 1.286 . S
C129 C131 1.363 . S
C130 C120 1.465 . S
C130 U126 2.847 . S
C130 O144 1.249 . S
C130 O145 1.202 . S
C131 C129 1.363 . S
C131 C133 1.408 . S
C131 C136 1.342 . S
C132 C133 1.310 . S
C132 C135 1.461 . S
C132 H152 0.932 . S
C133 C131 1.408 . S
C133 C132 1.310 . S
C133 H153 0.930 . S
C134 C135 1.474 . S
C134 C136 1.285 . S
C134 H154 0.929 . S
C135 C132 1.461 . S
C135 C134 1.474 . S
C136 C131 1.342 . S
C136 C134 1.285 . S
C136 H155 0.930 . S
C137 C140 1.424 . S
C137 C142 1.245 . S
C137 C143 1.428 . S
C138 C141 1.260 . S
C138 C142 1.477 . S
C138 H156 0.932 . S
C139 C140 1.384 . S
C139 C141 1.479 . S
C139 H157 0.929 . S
C140 C137 1.424 . S
C140 C139 1.384 . S
C140 H158 0.928 . S
C141 C138 1.260 . S
C141 C139 1.479 . S
C142 C137 1.245 . S
C142 C138 1.477 . S
C142 H159 0.932 . S
C143 U126 2.882 . S
C143 C137 1.428 . S
C143 O146 1.301 . S
C143 O147 1.282 . S
O144 U126 2.441 . S
O144 C130 1.249 . S
O145 U126 2.420 . S
O145 C130 1.202 . S
O146 U126 2.455 . S
O146 C143 1.301 . S
O147 U126 2.449 . S
O147 C143 1.282 . S
H148 C121 0.931 . S
H149 C123 0.929 . S
H150 C124 0.930 . S
H151 C125 0.931 . S
H152 C132 0.932 . S
H153 C133 0.930 . S
H154 C134 0.929 . S
H155 C136 0.930 . S
H156 C138 0.932 . S
H157 C139 0.929 . S
H158 C140 0.928 . S
H159 C142 0.932 . S
C160 C161 1.264 . S
C160 C165 1.479 . S
C160 C170 1.465 . S
C161 C160 1.264 . S
C161 C163 1.339 . S
C161 H188 0.931 . S
C162 C163 1.395 . S
C162 C164 1.320 . S
C163 C161 1.339 . S
C163 C162 1.395 . S
C163 H189 0.929 . S
C164 C162 1.320 . S
C164 C165 1.405 . S
C164 H190 0.930 . S
C165 C160 1.479 . S
C165 C164 1.405 . S
C165 H191 0.931 . S
U166 O167 2.454 . S
U166 O168 2.458 . S
U166 C169 2.984 . S
U166 C170 2.847 . S
U166 C183 2.882 . S
U166 O184 2.441 . S
U166 O185 2.420 . S
U166 O186 2.455 . S
U166 O187 2.449 . S
O167 U166 2.454 . S
O167 C169 1.353 . S
O168 U166 2.458 . S
O168 C169 1.286 . S
C169 U166 2.984 . S
C169 O167 1.353 . S
C169 O168 1.286 . S
C169 C171 1.363 . S
C170 C160 1.465 . S
C170 U166 2.847 . S
C170 O184 1.249 . S
C170 O185 1.202 . S
C171 C169 1.363 . S
C171 C173 1.408 . S
C171 C176 1.342 . S
C172 C173 1.310 . S
C172 C175 1.461 . S
C172 H192 0.932 . S
C173 C171 1.408 . S
C173 C172 1.310 . S
C173 H193 0.930 . S
C174 C175 1.474 . S
C174 C176 1.285 . S
C174 H194 0.929 . S
C175 C172 1.461 . S
C175 C174 1.474 . S
C176 C171 1.342 . S
C176 C174 1.285 . S
C176 H195 0.930 . S
C177 C180 1.424 . S
C177 C182 1.245 . S
C177 C183 1.428 . S
C178 C181 1.260 . S
C178 C182 1.477 . S
C178 H196 0.932 . S
C179 C180 1.384 . S
C179 C181 1.479 . S
C179 H197 0.929 . S
C180 C177 1.424 . S
C180 C179 1.384 . S
C180 H198 0.928 . S
C181 C178 1.260 . S
C181 C179 1.479 . S
C182 C177 1.245 . S
C182 C178 1.477 . S
C182 H199 0.932 . S
C183 U166 2.882 . S
C183 C177 1.428 . S
C183 O186 1.301 . S
C183 O187 1.282 . S
O184 U166 2.441 . S
O184 C170 1.249 . S
O185 U166 2.420 . S
O185 C170 1.202 . S
O186 U166 2.455 . S
O186 C183 1.301 . S
O187 U166 2.449 . S
O187 C183 1.282 . S
H188 C161 0.931 . S
H189 C163 0.929 . S
H190 C164 0.930 . S
H191 C165 0.931 . S
H192 C172 0.932 . S
H193 C173 0.930 . S
H194 C174 0.929 . S
H195 C176 0.930 . S
H196 C178 0.932 . S
H197 C179 0.929 . S
H198 C180 0.928 . S
H199 C182 0.932 . S
C200 C201 1.264 . S
C200 C205 1.479 . S
C200 C210 1.465 . S
C201 C200 1.264 . S
C201 C203 1.339 . S
C201 H228 0.931 . S
C202 C203 1.395 . S
C202 C204 1.320 . S
C203 C201 1.339 . S
C203 C202 1.395 . S
C203 H229 0.929 . S
C204 C202 1.320 . S
C204 C205 1.405 . S
C204 H230 0.930 . S
C205 C200 1.479 . S
C205 C204 1.405 . S
C205 H231 0.931 . S
U206 O207 2.454 . S
U206 O208 2.458 . S
U206 C209 2.984 . S
U206 C210 2.847 . S
U206 C223 2.882 . S
U206 O224 2.441 . S
U206 O225 2.420 . S
U206 O226 2.455 . S
U206 O227 2.449 . S
O207 U206 2.454 . S
O207 C209 1.353 . S
O208 U206 2.458 . S
O208 C209 1.286 . S
C209 U206 2.984 . S
C209 O207 1.353 . S
C209 O208 1.286 . S
C209 C211 1.363 . S
C210 C200 1.465 . S
C210 U206 2.847 . S
C210 O224 1.249 . S
C210 O225 1.202 . S
C211 C209 1.363 . S
C211 C213 1.408 . S
C211 C216 1.342 . S
C212 C213 1.310 . S
C212 C215 1.461 . S
C212 H232 0.932 . S
C213 C211 1.408 . S
C213 C212 1.310 . S
C213 H233 0.930 . S
C214 C215 1.474 . S
C214 C216 1.285 . S
C214 H234 0.929 . S
C215 C212 1.461 . S
C215 C214 1.474 . S
C216 C211 1.342 . S
C216 C214 1.285 . S
C216 H235 0.930 . S
C217 C220 1.424 . S
C217 C222 1.245 . S
C217 C223 1.428 . S
C218 C221 1.260 . S
C218 C222 1.477 . S
C218 H236 0.932 . S
C219 C220 1.384 . S
C219 C221 1.479 . S
C219 H237 0.929 . S
C220 C217 1.424 . S
C220 C219 1.384 . S
C220 H238 0.928 . S
C221 C218 1.260 . S
C221 C219 1.479 . S
C222 C217 1.245 . S
C222 C218 1.477 . S
C222 H239 0.932 . S
C223 U206 2.882 . S
C223 C217 1.428 . S
C223 O226 1.301 . S
C223 O227 1.282 . S
O224 U206 2.441 . S
O224 C210 1.249 . S
O225 U206 2.420 . S
O225 C210 1.202 . S
O226 U206 2.455 . S
O226 C223 1.301 . S
O227 U206 2.449 . S
O227 C223 1.282 . S
H228 C201 0.931 . S
H229 C203 0.929 . S
H230 C204 0.930 . S
H231 C205 0.931 . S
H232 C212 0.932 . S
H233 C213 0.930 . S
H234 C214 0.929 . S
H235 C216 0.930 . S
H236 C218 0.932 . S
H237 C219 0.929 . S
H238 C220 0.928 . S
H239 C222 0.932 . S
C240 C241 1.264 . S
C240 C245 1.479 . S
C240 C250 1.465 . S
C241 C240 1.264 . S
C241 C243 1.339 . S
C241 H268 0.931 . S
C242 C243 1.395 . S
C242 C244 1.320 . S
C243 C241 1.339 . S
C243 C242 1.395 . S
C243 H269 0.929 . S
C244 C242 1.320 . S
C244 C245 1.405 . S
C244 H270 0.930 . S
C245 C240 1.479 . S
C245 C244 1.405 . S
C245 H271 0.931 . S
U246 O247 2.454 . S
U246 O248 2.458 . S
U246 C249 2.984 . S
U246 C250 2.847 . S
U246 C263 2.882 . S
U246 O264 2.441 . S
U246 O265 2.420 . S
U246 O266 2.455 . S
U246 O267 2.449 . S
O247 U246 2.454 . S
O247 C249 1.353 . S
O248 U246 2.458 . S
O248 C249 1.286 . S
C249 U246 2.984 . S
C249 O247 1.353 . S
C249 O248 1.286 . S
C249 C251 1.363 . S
C250 C240 1.465 . S
C250 U246 2.847 . S
C250 O264 1.249 . S
C250 O265 1.202 . S
C251 C249 1.363 . S
C251 C253 1.408 . S
C251 C256 1.342 . S
C252 C253 1.310 . S
C252 C255 1.461 . S
C252 H272 0.932 . S
C253 C251 1.408 . S
C253 C252 1.310 . S
C253 H273 0.930 . S
C254 C255 1.474 . S
C254 C256 1.285 . S
C254 H274 0.929 . S
C255 C252 1.461 . S
C255 C254 1.474 . S
C256 C251 1.342 . S
C256 C254 1.285 . S
C256 H275 0.930 . S
C257 C260 1.424 . S
C257 C262 1.245 . S
C257 C263 1.428 . S
C258 C261 1.260 . S
C258 C262 1.477 . S
C258 H276 0.932 . S
C259 C260 1.384 . S
C259 C261 1.479 . S
C259 H277 0.929 . S
C260 C257 1.424 . S
C260 C259 1.384 . S
C260 H278 0.928 . S
C261 C258 1.260 . S
C261 C259 1.479 . S
C262 C257 1.245 . S
C262 C258 1.477 . S
C262 H279 0.932 . S
C263 U246 2.882 . S
C263 C257 1.428 . S
C263 O266 1.301 . S
C263 O267 1.282 . S
O264 U246 2.441 . S
O264 C250 1.249 . S
O265 U246 2.420 . S
O265 C250 1.202 . S
O266 U246 2.455 . S
O266 C263 1.301 . S
O267 U246 2.449 . S
O267 C263 1.282 . S
H268 C241 0.931 . S
H269 C243 0.929 . S
H270 C244 0.930 . S
H271 C245 0.931 . S
H272 C252 0.932 . S
H273 C253 0.930 . S
H274 C254 0.929 . S
H275 C256 0.930 . S
H276 C258 0.932 . S
H277 C259 0.929 . S
H278 C260 0.928 . S
H279 C262 0.932 . S
C280 C281 1.264 . S
C280 C285 1.479 . S
C280 C290 1.465 . S
C281 C280 1.264 . S
C281 C283 1.339 . S
C281 H308 0.931 . S
C282 C283 1.395 . S
C282 C284 1.320 . S
C283 C281 1.339 . S
C283 C282 1.395 . S
C283 H309 0.929 . S
C284 C282 1.320 . S
C284 C285 1.405 . S
C284 H310 0.930 . S
C285 C280 1.479 . S
C285 C284 1.405 . S
C285 H311 0.931 . S
U286 O287 2.454 . S
U286 O288 2.458 . S
U286 C289 2.984 . S
U286 C290 2.847 . S
U286 C303 2.882 . S
U286 O304 2.441 . S
U286 O305 2.420 . S
U286 O306 2.455 . S
U286 O307 2.449 . S
O287 U286 2.454 . S
O287 C289 1.353 . S
O288 U286 2.458 . S
O288 C289 1.286 . S
C289 U286 2.984 . S
C289 O287 1.353 . S
C289 O288 1.286 . S
C289 C291 1.363 . S
C290 C280 1.465 . S
C290 U286 2.847 . S
C290 O304 1.249 . S
C290 O305 1.202 . S
C291 C289 1.363 . S
C291 C293 1.408 . S
C291 C296 1.342 . S
C292 C293 1.310 . S
C292 C295 1.461 . S
C292 H312 0.932 . S
C293 C291 1.408 . S
C293 C292 1.310 . S
C293 H313 0.930 . S
C294 C295 1.474 . S
C294 C296 1.285 . S
C294 H314 0.929 . S
C295 C292 1.461 . S
C295 C294 1.474 . S
C296 C291 1.342 . S
C296 C294 1.285 . S
C296 H315 0.930 . S
C297 C300 1.424 . S
C297 C302 1.245 . S
C297 C303 1.428 . S
C298 C301 1.260 . S
C298 C302 1.477 . S
C298 H316 0.932 . S
C299 C300 1.384 . S
C299 C301 1.479 . S
C299 H317 0.929 . S
C300 C297 1.424 . S
C300 C299 1.384 . S
C300 H318 0.928 . S
C301 C298 1.260 . S
C301 C299 1.479 . S
C302 C297 1.245 . S
C302 C298 1.477 . S
C302 H319 0.932 . S
C303 U286 2.882 . S
C303 C297 1.428 . S
C303 O306 1.301 . S
C303 O307 1.282 . S
O304 U286 2.441 . S
O304 C290 1.249 . S
O305 U286 2.420 . S
O305 C290 1.202 . S
O306 U286 2.455 . S
O306 C303 1.301 . S
O307 U286 2.449 . S
O307 C303 1.282 . S
H308 C281 0.931 . S
H309 C283 0.929 . S
H310 C284 0.930 . S
H311 C285 0.931 . S
H312 C292 0.932 . S
H313 C293 0.930 . S
H314 C294 0.929 . S
H315 C296 0.930 . S
H316 C298 0.932 . S
H317 C299 0.929 . S
H318 C300 0.928 . S
H319 C302 0.932 . S
O320 Mg321 1.990 . S
O320 C334 1.253 1_445 S
Mg321 O320 1.990 . S
Mg321 O324 2.180 . S
Mg321 O325 2.117 . S
Mg321 O339 2.030 1_545 S
O322 Mg323 2.072 1_665 S
O322 C334 1.260 . S
Mg323 O322 2.072 1_445 S
Mg323 O324 2.099 . S
Mg323 O326 2.079 . S
Mg323 O327 2.072 1_455 S
Mg323 O329 2.099 1_445 S
Mg323 O340 2.079 1_545 S
O324 Mg321 2.180 . S
O324 Mg323 2.099 . S
O324 C335 1.279 . S
O325 Mg321 2.117 . S
O325 C335 1.250 . S
O326 Mg323 2.079 . S
O326 C336 1.264 . S
O327 Mg323 2.072 1_655 S
O327 C337 1.260 . S
Mg328 O329 2.180 . S
Mg328 O330 2.030 1_565 S
Mg328 O331 1.990 1_565 S
Mg328 O332 2.117 . S
O329 Mg323 2.099 1_665 S
O329 Mg328 2.180 . S
O329 C338 1.279 . S
O330 Mg328 2.030 1_545 S
O330 C336 1.248 1_655 S
O331 Mg328 1.990 1_545 S
O331 C337 1.253 . S
O332 Mg328 2.117 . S
O332 C338 1.250 . S
C333 O339 1.248 . S
C333 O340 1.264 . S
C334 O320 1.253 1_665 S
C334 O322 1.260 . S
C335 O324 1.279 . S
C335 O325 1.250 . S
C336 O326 1.264 . S
C336 O330 1.248 1_455 S
C337 O327 1.260 . S
C337 O331 1.253 . S
C338 O329 1.279 . S
C338 O332 1.250 . S
O339 Mg321 2.030 1_565 S
O339 C333 1.248 . S
O340 Mg323 2.079 1_565 S
O340 C333 1.264 . S
O341 Mg342 1.990 . S
O341 C355 1.253 . S
Mg342 O341 1.990 . S
Mg342 O345 2.180 . S
Mg342 O346 2.117 1_554 S
Mg342 O360 2.030 . S
O343 Mg344 2.072 . S
O343 C355 1.260 . S
Mg344 O343 2.072 . S
Mg344 O345 2.099 . S
Mg344 O347 2.083 1_554 S
Mg344 O348 2.072 1_554 S
Mg344 O350 2.099 1_545 S
Mg344 O361 2.079 . S
O345 Mg342 2.180 . S
O345 Mg344 2.099 . S
O345 C356 1.279 1_554 S
O346 Mg342 2.117 1_556 S
O346 C356 1.250 . S
O347 Mg344 2.083 1_556 S
O347 C357 1.255 1_545 S
O348 Mg344 2.072 1_556 S
O348 C358 1.260 1_545 S
Mg349 O350 2.180 1_556 S
Mg349 O351 2.030 . S
Mg349 O352 1.990 . S
Mg349 O353 2.117 1_556 S
O350 Mg344 2.099 1_565 S
O350 Mg349 2.180 1_554 S
O350 C359 1.279 . S
O351 Mg349 2.030 . S
O351 C357 1.248 . S
O352 Mg349 1.990 . S
O352 C358 1.253 . S
O353 Mg349 2.117 1_554 S
O353 C359 1.250 . S
C354 O360 1.248 . S
C354 O361 1.264 . S
C355 O341 1.253 . S
C355 O343 1.260 . S
C356 O345 1.279 1_556 S
C356 O346 1.250 . S
C357 O347 1.255 1_565 S
C357 O351 1.248 . S
C358 O348 1.260 1_565 S
C358 O352 1.253 . S
C359 O350 1.279 . S
C359 O353 1.250 . S
O360 Mg342 2.030 . S
O360 C354 1.248 . S
O361 Mg344 2.079 . S
O361 C354 1.264 . S
O362 Mg363 1.990 . S
O362 C376 1.253 . S
Mg363 O362 1.990 . S
Mg363 O366 2.180 . S
Mg363 O367 2.117 . S
Mg363 O381 2.030 . S
O364 Mg365 2.072 . S
O364 C376 1.260 . S
Mg365 O364 2.072 . S
Mg365 O366 2.099 . S
Mg365 O368 2.079 . S
Mg365 O369 2.072 . S
Mg365 O371 2.099 . S
Mg365 O382 2.079 . S
O366 Mg363 2.180 . S
O366 Mg365 2.099 . S
O366 C377 1.279 . S
O367 Mg363 2.117 . S
O367 C377 1.250 . S
O368 Mg365 2.079 . S
O368 C378 1.264 . S
O369 Mg365 2.072 . S
O369 C379 1.260 . S
Mg370 O371 2.180 . S
Mg370 O372 2.030 . S
Mg370 O373 1.990 . S
Mg370 O374 2.117 . S
O371 Mg365 2.099 . S
O371 Mg370 2.180 . S
O371 C380 1.279 . S
O372 Mg370 2.030 . S
O372 C378 1.248 . S
O373 Mg370 1.990 . S
O373 C379 1.253 . S
O374 Mg370 2.117 . S
O374 C380 1.250 . S
C375 O381 1.248 . S
C375 O382 1.264 . S
C376 O362 1.253 . S
C376 O364 1.260 . S
C377 O366 1.279 . S
C377 O367 1.250 . S
C378 O368 1.264 . S
C378 O372 1.248 . S
C379 O369 1.260 . S
C379 O373 1.253 . S
C380 O371 1.279 . S
C380 O374 1.250 . S
O381 Mg363 2.030 . S
O381 C375 1.248 . S
O382 Mg365 2.079 . S
O382 C375 1.264 . S
O383 Mg384 1.990 . S
O383 C397 1.253 . S
Mg384 O383 1.990 . S
Mg384 O387 2.157 1_455 S
Mg384 O388 2.117 1_455 S
Mg384 O402 2.030 . S
O385 Mg386 2.072 . S
O385 C397 1.260 . S
Mg386 O385 2.072 . S
Mg386 O387 2.093 1_455 S
Mg386 O389 2.079 1_454 S
Mg386 O390 2.072 1_455 S
Mg386 O392 2.099 1_554 S
Mg386 O403 2.079 . S
O387 Mg384 2.157 1_655 S
O387 Mg386 2.093 1_655 S
O387 C398 1.300 . S
O388 Mg384 2.117 1_655 S
O388 C398 1.250 . S
O389 Mg386 2.079 1_656 S
O389 C399 1.264 . S
O390 Mg386 2.072 1_655 S
O390 C400 1.260 1_554 S
Mg391 O392 2.180 1_655 S
Mg391 O393 2.030 . S
Mg391 O394 1.990 . S
Mg391 O395 2.115 . S
O392 Mg386 2.099 1_556 S
O392 Mg391 2.180 1_455 S
O392 C401 1.279 . S
O393 Mg391 2.030 . S
O393 C399 1.248 . S
O394 Mg391 1.990 . S
O394 C400 1.253 . S
O395 Mg391 2.115 . S
O395 C401 1.252 1_655 S
C396 O402 1.248 . S
C396 O403 1.264 . S
C397 O383 1.253 . S
C397 O385 1.260 . S
C398 O387 1.300 . S
C398 O388 1.250 . S
C399 O389 1.264 . S
C399 O393 1.248 . S
C400 O390 1.260 1_556 S
C400 O394 1.253 . S
C401 O392 1.279 . S
C401 O395 1.252 1_455 S
O402 Mg384 2.030 . S
O402 C396 1.248 . S
O403 Mg386 2.079 . S
O403 C396 1.264 . S
C404 C405 1.363 . S
C404 C410 1.379 . S
C404 N412 1.356 . S
C405 C404 1.363 . S
C405 C411 1.363 . S
C406 C407 1.363 . S
C406 C411 1.379 . S
C406 N413 1.356 1_545 S
C407 C406 1.363 . S
C407 C410 1.363 . S
N408 C410 1.356 . S
N408 H420 0.984 . S
N408 H421 0.985 . S
N409 C411 1.356 . S
N409 H414 0.984 . S
N409 H415 0.985 1_545 S
C410 C404 1.379 . S
C410 C407 1.363 . S
C410 N408 1.356 . S
C411 C405 1.363 . S
C411 C406 1.379 . S
C411 N409 1.356 . S
N412 C404 1.356 . S
N412 H418 0.984 . S
N412 H419 0.984 . S
N413 C406 1.356 1_565 S
N413 H416 0.985 . S
N413 H417 0.985 1_455 S
H414 N409 0.984 . S
H415 N409 0.985 1_565 S
H416 N413 0.985 . S
H417 N413 0.985 1_655 S
H418 N412 0.984 . S
H419 N412 0.984 . S
H420 N408 0.984 . S
H421 N408 0.985 . S
C422 C423 1.363 . S
C422 C428 1.379 1_565 S
C422 N430 1.356 1_565 S
C423 C422 1.363 . S
C423 C429 1.363 . S
C424 C425 1.363 . S
C424 C429 1.379 . S
C424 N431 1.356 . S
C425 C424 1.363 . S
C425 C428 1.363 1_565 S
N426 C428 1.356 . S
N426 H438 0.984 . S
N426 H439 0.985 . S
N427 C429 1.356 . S
N427 H432 0.984 . S
N427 H433 0.985 . S
C428 C422 1.379 1_545 S
C428 C425 1.363 1_545 S
C428 N426 1.356 . S
C429 C423 1.363 . S
C429 C424 1.379 . S
C429 N427 1.356 . S
N430 C422 1.356 1_545 S
N430 H436 0.984 . S
N430 H437 0.984 1_545 S
N431 C424 1.356 . S
N431 H434 0.984 . S
N431 H435 0.985 . S
H432 N427 0.984 . S
H433 N427 0.985 . S
H434 N431 0.984 . S
H435 N431 0.985 . S
H436 N430 0.984 . S
H437 N430 0.984 1_565 S
H438 N426 0.984 . S
H439 N426 0.985 . S
C440 C441 1.363 . S
C440 C446 1.379 . S
C440 N448 1.356 . S
C441 C440 1.363 . S
C441 C447 1.363 . S
C442 C443 1.363 . S
C442 C447 1.379 . S
C442 N449 1.356 . S
C443 C442 1.363 . S
C443 C446 1.363 . S
N444 C446 1.356 . S
N444 H456 0.984 . S
N444 H457 0.985 . S
N445 C447 1.356 . S
N445 H450 0.984 . S
N445 H451 0.985 . S
C446 C440 1.379 . S
C446 C443 1.363 . S
C446 N444 1.356 . S
C447 C441 1.363 . S
C447 C442 1.379 . S
C447 N445 1.356 . S
N448 C440 1.356 . S
N448 H454 0.984 . S
N448 H455 0.984 . S
N449 C442 1.356 . S
N449 H452 0.984 . S
N449 H453 0.985 . S
H450 N445 0.984 . S
H451 N445 0.985 . S
H452 N449 0.984 . S
H453 N449 0.985 . S
H454 N448 0.984 . S
H455 N448 0.984 . S
H456 N444 0.984 . S
H457 N444 0.985 . S
C458 C459 1.363 . S
C458 C464 1.379 . S
C458 N466 1.356 . S
C459 C458 1.363 . S
C459 C465 1.363 . S
C460 C461 1.363 . S
C460 C465 1.379 . S
C460 N467 1.356 . S
C461 C460 1.363 . S
C461 C464 1.363 . S
N462 C464 1.356 . S
N462 H474 0.984 . S
N462 H475 0.985 . S
N463 C465 1.356 . S
N463 H468 0.984 . S
N463 H469 0.985 . S
C464 C458 1.379 . S
C464 C461 1.363 . S
C464 N462 1.356 . S
C465 C459 1.363 . S
C465 C460 1.379 . S
C465 N463 1.356 . S
N466 C458 1.356 . S
N466 H472 0.984 . S
N466 H473 0.984 . S
N467 C460 1.356 . S
N467 H470 0.984 . S
N467 H471 0.985 1_655 S
H468 N463 0.984 . S
H469 N463 0.985 . S
H470 N467 0.984 . S
H471 N467 0.985 1_455 S
H472 N466 0.984 . S
H473 N466 0.984 . S
H474 N462 0.984 . S
H475 N462 0.985 . S
C476 C477 1.363 . S
C476 C482 1.379 . S
C476 N484 1.356 . S
C477 C476 1.363 . S
C477 C483 1.363 . S
C478 C479 1.363 . S
C478 C483 1.379 . S
C478 N485 1.356 1_554 S
C479 C478 1.363 . S
C479 C482 1.363 . S
N480 C482 1.356 . S
N480 H492 0.984 . S
N480 H493 0.985 . S
N481 C483 1.356 . S
N481 H486 0.984 . S
N481 H487 0.985 1_554 S
C482 C476 1.379 . S
C482 C479 1.363 . S
C482 N480 1.356 . S
C483 C477 1.363 . S
C483 C478 1.379 . S
C483 N481 1.356 . S
N484 C476 1.356 . S
N484 H490 0.984 . S
N484 H491 0.984 . S
N485 C478 1.356 1_556 S
N485 H488 0.987 . S
N485 H489 0.985 . S
H486 N481 0.984 . S
H487 N481 0.985 1_556 S
H488 N485 0.987 . S
H489 N485 0.985 . S
H490 N484 0.984 . S
H491 N484 0.984 . S
H492 N480 0.984 . S
H493 N480 0.985 . S
C494 C495 1.363 . S
C494 C500 1.379 . S
C494 N502 1.356 . S
C495 C494 1.363 . S
C495 C501 1.363 . S
C496 C497 1.363 . S
C496 C501 1.379 . S
C496 N503 1.356 . S
C497 C496 1.363 . S
C497 C500 1.363 . S
N498 C500 1.356 . S
N498 H510 0.984 . S
N498 H511 0.985 . S
N499 C501 1.356 . S
N499 H504 0.984 . S
N499 H505 0.985 . S
C500 C494 1.379 . S
C500 C497 1.363 . S
C500 N498 1.356 . S
C501 C495 1.363 . S
C501 C496 1.379 . S
C501 N499 1.356 . S
N502 C494 1.356 . S
N502 H508 0.984 . S
N502 H509 0.984 . S
N503 C496 1.356 . S
N503 H506 0.984 . S
N503 H507 0.985 . S
H504 N499 0.984 . S
H505 N499 0.985 . S
H506 N503 0.984 . S
H507 N503 0.985 . S
H508 N502 0.984 . S
H509 N502 0.984 . S
H510 N498 0.984 . S
H511 N498 0.985 . S
C512 C513 1.363 . S
C512 C518 1.379 . S
C512 N520 1.356 . S
C513 C512 1.363 . S
C513 C519 1.363 . S
C514 C515 1.363 . S
C514 C519 1.379 . S
C514 N521 1.356 1_556 S
C515 C514 1.363 . S
C515 C518 1.363 . S
N516 C518 1.356 . S
N516 H528 0.984 . S
N516 H529 0.985 . S
N517 C519 1.356 . S
N517 H522 0.984 . S
N517 H523 0.991 . S
C518 C512 1.379 . S
C518 C515 1.363 . S
C518 N516 1.356 . S
C519 C513 1.363 . S
C519 C514 1.379 . S
C519 N517 1.356 . S
N520 C512 1.356 . S
N520 H526 0.984 . S
N520 H527 0.984 . S
N521 C514 1.356 1_554 S
N521 H524 0.984 . S
N521 H525 0.985 . S
H522 N517 0.984 . S
H523 N517 0.991 . S
H524 N521 0.984 . S
H525 N521 0.985 . S
H526 N520 0.984 . S
H527 N520 0.984 . S
H528 N516 0.984 . S
H529 N516 0.985 . S
C530 C531 1.363 . S
C530 C536 1.379 . S
C530 N538 1.356 . S
C531 C530 1.363 . S
C531 C537 1.363 . S
C532 C533 1.363 . S
C532 C537 1.379 . S
C532 N539 1.356 . S
C533 C532 1.363 . S
C533 C536 1.363 . S
N534 C536 1.356 . S
N534 H546 0.984 . S
N534 H547 0.985 . S
N535 C537 1.356 . S
N535 H540 0.984 . S
N535 H541 0.985 . S
C536 C530 1.379 . S
C536 C533 1.363 . S
C536 N534 1.356 . S
C537 C531 1.363 . S
C537 C532 1.379 . S
C537 N535 1.356 . S
N538 C530 1.356 . S
N538 H544 0.984 . S
N538 H545 0.984 . S
N539 C532 1.356 . S
N539 H542 0.984 . S
N539 H543 0.985 . S
H540 N535 0.984 . S
H541 N535 0.985 . S
H542 N539 0.984 . S
H543 N539 0.985 . S
H544 N538 0.984 . S
H545 N538 0.984 . S
H546 N534 0.984 . S
H547 N534 0.985 . S
C548 C549 1.363 . S
C548 C554 1.379 . S
C548 N556 1.356 . S
C549 C548 1.363 . S
C549 C555 1.363 . S
C550 C551 1.363 . S
C550 C555 1.379 . S
C550 N557 1.356 . S
C551 C550 1.363 . S
C551 C554 1.363 . S
N552 C554 1.356 1_556 S
N552 H564 0.984 . S
N552 H565 0.985 . S
N553 C555 1.356 . S
N553 H558 0.984 . S
N553 H559 0.985 . S
C554 C548 1.379 . S
C554 C551 1.363 . S
C554 N552 1.356 1_554 S
C555 C549 1.363 . S
C555 C550 1.379 . S
C555 N553 1.356 . S
N556 C548 1.356 . S
N556 H562 0.984 1_554 S
N556 H563 0.984 . S
N557 C550 1.356 . S
N557 H560 0.984 . S
N557 H561 0.985 1_455 S
H558 N553 0.984 . S
H559 N553 0.985 . S
H560 N557 0.984 . S
H561 N557 0.985 1_655 S
H562 N556 0.984 1_556 S
H563 N556 0.984 . S
H564 N552 0.984 . S
H565 N552 0.985 . S
C566 C567 1.363 . S
C566 C572 1.379 . S
C566 N574 1.356 . S
C567 C566 1.363 . S
C567 C573 1.363 . S
C568 C569 1.363 . S
C568 C573 1.379 . S
C568 N575 1.356 . S
C569 C568 1.363 . S
C569 C572 1.363 . S
N570 C572 1.356 1_554 S
N570 H582 0.984 . S
N570 H583 0.989 . S
N571 C573 1.356 . S
N571 H576 0.984 . S
N571 H577 0.985 . S
C572 C566 1.379 . S
C572 C569 1.363 . S
C572 N570 1.356 1_556 S
C573 C567 1.363 . S
C573 C568 1.379 . S
C573 N571 1.356 . S
N574 C566 1.356 . S
N574 H580 0.984 1_556 S
N574 H581 0.984 . S
N575 C568 1.356 . S
N575 H578 0.984 . S
N575 H579 0.985 . S
H576 N571 0.984 . S
H577 N571 0.985 . S
H578 N575 0.984 . S
H579 N575 0.985 . S
H580 N574 0.984 1_554 S
H581 N574 0.984 . S
H582 N570 0.984 . S
H583 N570 0.989 . S
C584 C585 1.363 . S
C584 C590 1.379 . S
C584 N592 1.356 . S
C585 C584 1.363 . S
C585 C591 1.363 . S
C586 C587 1.363 . S
C586 C591 1.379 . S
C586 N593 1.356 1_655 S
C587 C586 1.363 . S
C587 C590 1.363 . S
N588 C590 1.356 . S
N588 H600 0.984 . S
N588 H601 0.985 . S
N589 C591 1.356 . S
N589 H594 0.984 . S
N589 H595 0.985 1_655 S
C590 C584 1.379 . S
C590 C587 1.363 . S
C590 N588 1.356 . S
C591 C585 1.363 . S
C591 C586 1.379 . S
C591 N589 1.356 . S
N592 C584 1.356 . S
N592 H598 0.984 . S
N592 H599 0.984 . S
N593 C586 1.356 1_455 S
N593 H596 0.988 . S
N593 H597 0.985 . S
H594 N589 0.984 . S
H595 N589 0.985 1_455 S
H596 N593 0.988 . S
H597 N593 0.985 . S
H598 N592 0.984 . S
H599 N592 0.984 . S
H600 N588 0.984 . S
H601 N588 0.985 . S
C602 C603 1.363 . S
C602 C608 1.379 . S
C602 N610 1.356 . S
C603 C602 1.363 . S
C603 C609 1.363 . S
C604 C605 1.363 . S
C604 C609 1.379 . S
C604 N611 1.356 . S
C605 C604 1.363 . S
C605 C608 1.363 . S
N606 C608 1.356 . S
N606 H618 0.984 . S
N606 H619 0.985 . S
N607 C609 1.356 . S
N607 H612 0.984 . S
N607 H613 0.985 . S
C608 C602 1.379 . S
C608 C605 1.363 . S
C608 N606 1.356 . S
C609 C603 1.363 . S
C609 C604 1.379 . S
C609 N607 1.356 . S
N610 C602 1.356 . S
N610 H616 0.984 . S
N610 H617 0.984 . S
N611 C604 1.356 . S
N611 H614 0.984 . S
N611 H615 0.985 . S
H612 N607 0.984 . S
H613 N607 0.985 . S
H614 N611 0.984 . S
H615 N611 0.985 . S
H616 N610 0.984 . S
H617 N610 0.984 . S
H618 N606 0.984 . S
H619 N606 0.985 . S
C620 C621 1.363 . S
C620 C626 1.379 . S
C620 N628 1.356 1_565 S
C621 C620 1.363 . S
C621 C627 1.363 . S
C622 C623 1.363 . S
C622 C627 1.379 . S
C622 N629 1.356 1_655 S
C623 C622 1.363 . S
C623 C626 1.363 . S
N624 C626 1.356 1_545 S
N624 H636 0.984 . S
N624 H637 0.985 . S
N625 C627 1.356 . S
N625 H630 0.984 . S
N625 H631 0.985 1_655 S
C626 C620 1.379 . S
C626 C623 1.363 . S
C626 N624 1.356 1_565 S
C627 C621 1.363 . S
C627 C622 1.379 . S
C627 N625 1.356 . S
N628 C620 1.356 1_545 S
N628 H634 0.984 . S
N628 H635 0.984 1_545 S
N629 C622 1.356 1_455 S
N629 H632 0.984 . S
N629 H633 0.985 . S
H630 N625 0.984 . S
H631 N625 0.985 1_455 S
H632 N629 0.984 . S
H633 N629 0.985 . S
H634 N628 0.984 . S
H635 N628 0.984 1_565 S
H636 N624 0.984 . S
H637 N624 0.985 . S
C638 C639 1.363 . S
C638 C644 1.379 . S
C638 N646 1.356 . S
C639 C638 1.363 . S
C639 C645 1.363 . S
C640 C641 1.363 . S
C640 C645 1.379 . S
C640 N647 1.356 . S
C641 C640 1.363 . S
C641 C644 1.363 . S
N642 C644 1.356 . S
N642 H654 0.984 . S
N642 H655 0.985 . S
N643 C645 1.356 . S
N643 H648 0.984 . S
N643 H649 0.985 . S
C644 C638 1.379 . S
C644 C641 1.363 . S
C644 N642 1.356 . S
C645 C639 1.363 . S
C645 C640 1.379 . S
C645 N643 1.356 . S
N646 C638 1.356 . S
N646 H652 0.984 . S
N646 H653 0.984 . S
N647 C640 1.356 . S
N647 H650 0.984 . S
N647 H651 0.985 . S
H648 N643 0.984 . S
H649 N643 0.985 . S
H650 N647 0.984 . S
H651 N647 0.985 . S
H652 N646 0.984 . S
H653 N646 0.984 . S
H654 N642 0.984 . S
H655 N642 0.985 . S
C656 C657 1.363 . S
C656 C662 1.379 . S
C656 N664 1.356 . S
C657 C656 1.363 . S
C657 C663 1.363 . S
C658 C659 1.363 . S
C658 C663 1.379 . S
C658 N665 1.356 . S
C659 C658 1.363 . S
C659 C662 1.363 . S
N660 C662 1.356 . S
N660 H672 0.984 . S
N660 H673 0.985 . S
N661 C663 1.356 . S
N661 H666 0.984 . S
N661 H667 0.985 . S
C662 C656 1.379 . S
C662 C659 1.363 . S
C662 N660 1.356 . S
C663 C657 1.363 . S
C663 C658 1.379 . S
C663 N661 1.356 . S
N664 C656 1.356 . S
N664 H670 0.984 . S
N664 H671 0.984 . S
N665 C658 1.356 . S
N665 H668 0.984 . S
N665 H669 0.985 . S
H666 N661 0.984 . S
H667 N661 0.985 . S
H668 N665 0.984 . S
H669 N665 0.985 . S
H670 N664 0.984 . S
H671 N664 0.984 . S
H672 N660 0.984 . S
H673 N660 0.985 . S
C674 C675 1.363 . S
C674 C680 1.379 . S
C674 N682 1.356 . S
C675 C674 1.363 . S
C675 C681 1.363 . S
C676 C677 1.363 . S
C676 C681 1.379 . S
C676 N683 1.356 . S
C677 C676 1.363 . S
C677 C680 1.363 . S
N678 C680 1.356 . S
N678 H690 0.984 . S
N678 H691 0.985 . S
N679 C681 1.356 . S
N679 H684 0.984 . S
N679 H685 0.985 1_455 S
C680 C674 1.379 . S
C680 C677 1.363 . S
C680 N678 1.356 . S
C681 C675 1.363 . S
C681 C676 1.379 . S
C681 N679 1.356 . S
N682 C674 1.356 . S
N682 H688 0.984 . S
N682 H689 0.984 . S
N683 C676 1.356 . S
N683 H686 0.984 . S
N683 H687 0.985 1_455 S
H684 N679 0.984 . S
H685 N679 0.985 1_655 S
H686 N683 0.984 . S
H687 N683 0.985 1_655 S
H688 N682 0.984 . S
H689 N682 0.984 . S
H690 N678 0.984 . S
H691 N678 0.985 . S
C692 C693 1.363 . S
C692 C698 1.379 . S
C692 N700 1.356 . S
C693 C692 1.363 . S
C693 C699 1.363 . S
C694 C695 1.363 . S
C694 C699 1.379 . S
C694 N701 1.356 1_566 S
C695 C694 1.363 . S
C695 C698 1.363 . S
N696 C698 1.356 . S
N696 H708 0.984 . S
N696 H709 0.985 . S
N697 C699 1.354 1_554 S
N697 H702 0.982 1_554 S
N697 H703 0.989 1_565 S
C698 C692 1.379 . S
C698 C695 1.363 . S
C698 N696 1.356 . S
C699 C693 1.363 . S
C699 C694 1.379 . S
C699 N697 1.354 1_556 S
N700 C692 1.356 . S
N700 H706 0.984 . S
N700 H707 0.984 . S
N701 C694 1.356 1_544 S
N701 H704 0.984 . S
N701 H705 0.985 . S
H702 N697 0.982 1_556 S
H703 N697 0.989 1_545 S
H704 N701 0.984 . S
H705 N701 0.985 . S
H706 N700 0.984 . S
H707 N700 0.984 . S
H708 N696 0.984 . S
H709 N696 0.985 . S
C710 C711 1.363 . S
C710 C716 1.379 . S
C710 N718 1.356 . S
C711 C710 1.363 . S
C711 C717 1.363 . S
C712 C713 1.363 . S
C712 C717 1.379 . S
C712 N719 1.356 . S
C713 C712 1.363 . S
C713 C716 1.363 . S
N714 C716 1.356 . S
N714 H726 0.984 1_545 S
N714 H727 0.985 . S
N715 C717 1.356 . S
N715 H720 0.984 . S
N715 H721 0.985 . S
C716 C710 1.379 . S
C716 C713 1.363 . S
C716 N714 1.356 . S
C717 C711 1.363 . S
C717 C712 1.379 . S
C717 N715 1.356 . S
N718 C710 1.356 . S
N718 H724 0.984 . S
N718 H725 0.984 . S
N719 C712 1.356 . S
N719 H722 0.984 . S
N719 H723 0.985 . S
H720 N715 0.984 . S
H721 N715 0.985 . S
H722 N719 0.984 . S
H723 N719 0.985 . S
H724 N718 0.984 . S
H725 N718 0.984 . S
H726 N714 0.984 1_565 S
H727 N714 0.985 . S
C728 C729 1.363 . S
C728 C734 1.379 . S
C728 N736 1.356 . S
C729 C728 1.363 . S
C729 C735 1.363 . S
C730 C731 1.363 . S
C730 C735 1.379 . S
C730 N737 1.356 . S
C731 C730 1.363 . S
C731 C734 1.363 . S
N732 C734 1.356 . S
N732 H744 0.984 . S
N732 H745 0.985 . S
N733 C735 1.356 . S
N733 H738 0.984 . S
N733 H739 0.985 . S
C734 C728 1.379 . S
C734 C731 1.363 . S
C734 N732 1.356 . S
C735 C729 1.363 . S
C735 C730 1.379 . S
C735 N733 1.356 . S
N736 C728 1.356 . S
N736 H742 0.984 . S
N736 H743 0.984 . S
N737 C730 1.356 . S
N737 H740 0.984 . S
N737 H741 0.985 . S
H738 N733 0.984 . S
H739 N733 0.985 . S
H740 N737 0.984 . S
H741 N737 0.985 . S
H742 N736 0.984 . S
H743 N736 0.984 . S
H744 N732 0.984 . S
H745 N732 0.985 . S
C746 C747 1.363 . S
C746 C752 1.379 . S
C746 N754 1.356 . S
C747 C746 1.363 . S
C747 C753 1.363 . S
C748 C749 1.363 . S
C748 C753 1.379 . S
C748 N755 1.356 . S
C749 C748 1.363 . S
C749 C752 1.363 . S
N750 C752 1.356 . S
N750 H762 0.984 . S
N750 H763 0.985 . S
N751 C753 1.356 . S
N751 H756 0.984 . S
N751 H757 0.985 . S
C752 C746 1.379 . S
C752 C749 1.363 . S
C752 N750 1.356 . S
C753 C747 1.363 . S
C753 C748 1.379 . S
C753 N751 1.356 . S
N754 C746 1.356 . S
N754 H760 0.984 . S
N754 H761 0.984 . S
N755 C748 1.356 . S
N755 H758 0.984 . S
N755 H759 0.985 . S
H756 N751 0.984 . S
H757 N751 0.985 . S
H758 N755 0.984 . S
H759 N755 0.985 . S
H760 N754 0.984 . S
H761 N754 0.984 . S
H762 N750 0.984 . S
H763 N750 0.985 . S
C764 C765 1.363 . S
C764 C770 1.379 . S
C764 N772 1.356 . S
C765 C764 1.363 . S
C765 C771 1.363 . S
C766 C767 1.363 . S
C766 C771 1.379 . S
C766 N773 1.356 1_556 S
C767 C766 1.363 . S
C767 C770 1.363 . S
N768 C770 1.356 . S
N768 H780 0.984 . S
N768 H781 0.985 . S
N769 C771 1.356 1_554 S
N769 H774 0.984 1_554 S
N769 H775 0.980 1_655 S
C770 C764 1.379 . S
C770 C767 1.363 . S
C770 N768 1.356 . S
C771 C765 1.363 . S
C771 C766 1.379 . S
C771 N769 1.356 1_556 S
N772 C764 1.356 . S
N772 H778 0.984 . S
N772 H779 0.984 . S
N773 C766 1.356 1_554 S
N773 H776 0.984 . S
N773 H777 0.985 1_655 S
H774 N769 0.984 1_556 S
H775 N769 0.980 1_455 S
H776 N773 0.984 . S
H777 N773 0.985 1_455 S
H778 N772 0.984 . S
H779 N772 0.984 . S
H780 N768 0.984 . S
H781 N768 0.985 . S
C782 C783 1.363 . S
C782 C788 1.379 . S
C782 N790 1.356 . S
C783 C782 1.363 . S
C783 C789 1.363 . S
C784 C785 1.363 . S
C784 C789 1.379 . S
C784 N791 1.356 . S
C785 C784 1.363 . S
C785 C788 1.363 . S
N786 C788 1.359 1_556 S
N786 H798 0.982 . S
N786 H799 0.985 1_556 S
N787 C789 1.356 . S
N787 H792 0.984 . S
N787 H793 0.985 . S
C788 C782 1.379 . S
C788 C785 1.363 . S
C788 N786 1.359 1_554 S
C789 C783 1.363 . S
C789 C784 1.379 . S
C789 N787 1.356 . S
N790 C782 1.356 . S
N790 H796 0.984 1_554 S
N790 H797 0.984 . S
N791 C784 1.356 . S
N791 H794 0.984 . S
N791 H795 0.985 . S
H792 N787 0.984 . S
H793 N787 0.985 . S
H794 N791 0.984 . S
H795 N791 0.985 . S
H796 N790 0.984 1_556 S
H797 N790 0.984 . S
H798 N786 0.982 . S
H799 N786 0.985 1_554 S
C800 C801 1.363 . S
C800 C806 1.379 . S
C800 N808 1.356 . S
C801 C800 1.363 . S
C801 C807 1.363 . S
C802 C803 1.363 . S
C802 C807 1.379 . S
C802 N809 1.356 1_455 S
C803 C802 1.363 . S
C803 C806 1.363 . S
N804 C806 1.356 . S
N804 H816 0.984 . S
N804 H817 0.985 . S
N805 C807 1.356 . S
N805 H810 0.984 . S
N805 H811 0.985 1_455 S
C806 C800 1.379 . S
C806 C803 1.363 . S
C806 N804 1.356 . S
C807 C801 1.363 . S
C807 C802 1.379 . S
C807 N805 1.356 . S
N808 C800 1.356 . S
N808 H814 0.984 . S
N808 H815 0.984 . S
N809 C802 1.356 1_655 S
N809 H812 0.984 . S
N809 H813 0.985 . S
H810 N805 0.984 . S
H811 N805 0.985 1_655 S
H812 N809 0.984 . S
H813 N809 0.985 . S
H814 N808 0.984 . S
H815 N808 0.984 . S
H816 N804 0.984 . S
H817 N804 0.985 . S
C818 C819 1.363 . S
C818 C824 1.379 . S
C818 N826 1.356 . S
C819 C818 1.363 . S
C819 C825 1.363 . S
C820 C821 1.363 . S
C820 C825 1.379 . S
C820 N827 1.356 . S
C821 C820 1.363 . S
C821 C824 1.363 . S
N822 C824 1.356 . S
N822 H834 0.984 . S
N822 H835 0.985 . S
N823 C825 1.356 . S
N823 H828 0.984 . S
N823 H829 0.985 . S
C824 C818 1.379 . S
C824 C821 1.363 . S
C824 N822 1.356 . S
C825 C819 1.363 . S
C825 C820 1.379 . S
C825 N823 1.356 . S
N826 C818 1.356 . S
N826 H832 0.984 . S
N826 H833 0.984 . S
N827 C820 1.356 . S
N827 H830 0.984 . S
N827 H831 0.985 . S
H828 N823 0.984 . S
H829 N823 0.985 . S
H830 N827 0.984 . S
H831 N827 0.985 . S
H832 N826 0.984 . S
H833 N826 0.984 . S
H834 N822 0.984 . S
H835 N822 0.985 . S
C405 C21 1.654 . S
C407 C336 1.577 . S
C423 C61 1.506 . S
C425 C358 1.533 . S
C443 C377 1.164 . S
C441 C82 1.496 . S
C459 C135 1.910 . S
C461 C398 1.482 . S
C479 C355 1.779 . S
C477 C15 1.817 . S
C497 C333 1.729 . S
C495 C42 1.704 . S
C515 C400 1.375 . S
C513 C101 1.443 . S
C533 C379 1.555 . S
C531 C122 1.595 . S
C549 C2 1.786 . S
C551 C397 1.743 . S
C569 C356 1.251 . S
C567 C95 1.622 . S
C585 C141 1.800 . S
C587 C338 1.693 . S
C603 C55 1.570 . S
C605 C376 1.602 . S
C623 C334 1.586 . S
C621 C181 1.630 . S
C639 C202 1.340 . S
C641 C354 1.373 . S
C657 C255 1.525 . S
C659 C380 1.228 . S
C675 C295 1.818 . S
C677 C401 1.400 . S
C693 C175 1.729 . S
C695 C357 1.734 . S
C713 C337 1.791 . S
C711 C221 1.787 . S
C731 C396 1.214 . S
C729 C242 1.234 . S
C749 C375 1.649 . S
C747 C301 1.701 . S
C765 C162 1.526 . S
C767 C399 1.567 . S
C785 C359 1.242 . S
C783 C261 1.498 . S
C803 C335 1.516 . S
C801 C282 1.608 . S
C819 C215 1.543 . S
C821 C378 1.577 . S
