# Generated by pormake.
# Topology csq, (4,8)-cn, num edge types: 1
# Building blocks:
#     Node 0, Type 0, BuildingBlock: KOZSID_clean_sbu_0, # of connection points: 4
#     Node 1, Type 0, BuildingBlock: KOZSID_clean_sbu_0, # of connection points: 4
#     Node 2, Type 0, BuildingBlock: KOZSID_clean_sbu_0, # of connection points: 4
#     Node 3, Type 0, BuildingBlock: KOZSID_clean_sbu_0, # of connection points: 4
#     Node 4, Type 0, BuildingBlock: KOZSID_clean_sbu_0, # of connection points: 4
#     Node 5, Type 0, BuildingBlock: KOZSID_clean_sbu_0, # of connection points: 4
#     Node 6, Type 1, BuildingBlock: TAGTUT_clean_sbu_1, # of connection points: 8
#     Node 7, Type 1, BuildingBlock: TAGTUT_clean_sbu_1, # of connection points: 8
#     Node 8, Type 1, BuildingBlock: TAGTUT_clean_sbu_1, # of connection points: 8
#     Edge 9, Type (0, 1), BuildingBlock: UVAHIK_clean_linker_0, # of connection points: 2
#     Edge 10, Type (0, 1), BuildingBlock: UVAHIK_clean_linker_0, # of connection points: 2
#     Edge 11, Type (0, 1), BuildingBlock: UVAHIK_clean_linker_0, # of connection points: 2
#     Edge 12, Type (0, 1), BuildingBlock: UVAHIK_clean_linker_0, # of connection points: 2
#     Edge 13, Type (0, 1), BuildingBlock: UVAHIK_clean_linker_0, # of connection points: 2
#     Edge 14, Type (0, 1), BuildingBlock: UVAHIK_clean_linker_0, # of connection points: 2
#     Edge 15, Type (0, 1), BuildingBlock: UVAHIK_clean_linker_0, # of connection points: 2
#     Edge 16, Type (0, 1), BuildingBlock: UVAHIK_clean_linker_0, # of connection points: 2
#     Edge 17, Type (0, 1), BuildingBlock: UVAHIK_clean_linker_0, # of connection points: 2
#     Edge 18, Type (0, 1), BuildingBlock: UVAHIK_clean_linker_0, # of connection points: 2
#     Edge 19, Type (0, 1), BuildingBlock: UVAHIK_clean_linker_0, # of connection points: 2
#     Edge 20, Type (0, 1), BuildingBlock: UVAHIK_clean_linker_0, # of connection points: 2
#     Edge 21, Type (0, 1), BuildingBlock: UVAHIK_clean_linker_0, # of connection points: 2
#     Edge 22, Type (0, 1), BuildingBlock: UVAHIK_clean_linker_0, # of connection points: 2
#     Edge 23, Type (0, 1), BuildingBlock: UVAHIK_clean_linker_0, # of connection points: 2
#     Edge 24, Type (0, 1), BuildingBlock: UVAHIK_clean_linker_0, # of connection points: 2
#     Edge 25, Type (0, 1), BuildingBlock: UVAHIK_clean_linker_0, # of connection points: 2
#     Edge 26, Type (0, 1), BuildingBlock: UVAHIK_clean_linker_0, # of connection points: 2
#     Edge 27, Type (0, 1), BuildingBlock: UVAHIK_clean_linker_0, # of connection points: 2
#     Edge 28, Type (0, 1), BuildingBlock: UVAHIK_clean_linker_0, # of connection points: 2
#     Edge 29, Type (0, 1), BuildingBlock: UVAHIK_clean_linker_0, # of connection points: 2
#     Edge 30, Type (0, 1), BuildingBlock: UVAHIK_clean_linker_0, # of connection points: 2
#     Edge 31, Type (0, 1), BuildingBlock: UVAHIK_clean_linker_0, # of connection points: 2
#     Edge 32, Type (0, 1), BuildingBlock: UVAHIK_clean_linker_0, # of connection points: 2
# Relax obj value: 0.034
# Max RMSD: 0.133
# Mean RMSD: 0.042
data_MOF--net-csq--node1-KOZSID_clean_sbu_0--node2-TAGTUT_clean_sbu_1--edge1-UVAHIK_clean_linker_0
_symmetry_space_group_name_H-M    P1
_symmetry_Int_Tables_number       1
_symmetry_cell_setting            triclinic
loop_
_symmetry_equiv_pos_as_xyz
'x, y, z'
_cell_length_a     70.82878
_cell_length_b     69.847989
_cell_length_c     25.910549
_cell_angle_alpha  88.59194
_cell_angle_beta   95.854203
_cell_angle_gamma 119.93817
loop_
_atom_site_label
_atom_site_type_symbol
_atom_site_fract_x
_atom_site_fract_y
_atom_site_fract_z
_atom_type_partial_charge
C0 C 0.28586 0.50851 0.2659 0.0
C1 C 0.3034 0.52699 0.2919 0.0
C2 C 0.305 0.54502 0.26681 0.0
C3 C 0.28859 0.53664 0.22685 0.0
N4 N 0.27656 0.51429 0.22469 0.0
Co5 Co 0.25153 0.49528 0.17185 0.0
N6 N 0.25415 0.52196 0.13478 0.0
C7 C 0.26854 0.54344 0.14782 0.0
C8 C 0.26654 0.55802 0.11457 0.0
C9 C 0.24993 0.54513 0.07786 0.0
C10 C 0.24278 0.52334 0.09095 0.0
N11 N 0.22653 0.47629 0.11899 0.0
C12 C 0.21783 0.48205 0.07664 0.0
C13 C 0.20085 0.46365 0.04925 0.0
C14 C 0.19873 0.44559 0.07525 0.0
C15 C 0.21448 0.45396 0.11671 0.0
N16 N 0.2489 0.46862 0.20892 0.0
C17 C 0.23416 0.44718 0.1965 0.0
C18 C 0.23598 0.43257 0.23 0.0
C19 C 0.25292 0.44542 0.26607 0.0
C20 C 0.26055 0.4672 0.25217 0.0
N21 N 0.23065 0.49627 0.21678 0.0
C22 C 0.2019 0.49791 0.28303 0.0
C23 C 0.19731 0.47796 0.25978 0.0
C24 C 0.2117 0.47753 0.22692 0.0
C25 C 0.22111 0.51698 0.27219 0.0
C26 C 0.23505 0.5158 0.23943 0.0
N27 N 0.27242 0.49439 0.12689 0.0
C28 C 0.28239 0.47444 0.0701 0.0
C29 C 0.30129 0.49391 0.05913 0.0
C30 C 0.30548 0.51352 0.08336 0.0
C31 C 0.29109 0.51338 0.11676 0.0
C32 C 0.26835 0.47504 0.10385 0.0
H33 H 0.29536 0.52894 0.13354 0.0
H34 H 0.25426 0.45964 0.11061 0.0
H35 H 0.20714 0.46184 0.21019 0.0
H36 H 0.24939 0.53097 0.23334 0.0
C37 C 0.2842 0.54938 0.19061 0.0
C38 C 0.27899 0.48587 0.28116 0.0
C39 C 0.22513 0.50458 0.06058 0.0
C40 C 0.21865 0.44127 0.15344 0.0
H41 H 0.31413 0.52754 0.32534 0.0
H42 H 0.31682 0.5622 0.27637 0.0
H43 H 0.27617 0.57589 0.11649 0.0
H44 H 0.24384 0.55108 0.04497 0.0
H45 H 0.19111 0.46333 0.01392 0.0
H46 H 0.18723 0.42841 0.06489 0.0
H47 H 0.22609 0.41472 0.22851 0.0
H48 H 0.25899 0.43945 0.29897 0.0
H49 H 0.18251 0.46272 0.26625 0.0
H50 H 0.22567 0.53284 0.2896 0.0
H51 H 0.27847 0.4587 0.05318 0.0
H52 H 0.31966 0.52916 0.07595 0.0
C53 C 0.81517 0.26211 0.06693 0.0
C54 C 0.83176 0.25725 0.06309 0.0
C55 C 0.82667 0.23878 0.09097 0.0
C56 C 0.80747 0.23353 0.11053 0.0
N57 N 0.79972 0.24729 0.09618 0.0
Co58 Co 0.77344 0.2469 0.12032 0.0
N59 N 0.76739 0.22127 0.16619 0.0
C60 C 0.77831 0.20992 0.17023 0.0
C61 C 0.76983 0.1924 0.20246 0.0
C62 C 0.7524 0.19249 0.22014 0.0
C63 C 0.75136 0.21031 0.19803 0.0
N64 N 0.74762 0.24703 0.14573 0.0
C65 C 0.73415 0.23444 0.18152 0.0
C66 C 0.71915 0.24105 0.1899 0.0
C67 C 0.72291 0.25802 0.15756 0.0
C68 C 0.7401 0.26103 0.13179 0.0
N69 N 0.77922 0.27224 0.07371 0.0
C70 C 0.76686 0.282 0.06487 0.0
C71 C 0.77504 0.29909 0.0313 0.0
C72 C 0.79391 0.30055 0.01843 0.0
C73 C 0.79624 0.28428 0.0453 0.0
N74 N 0.75424 0.22597 0.06235 0.0
C75 C 0.72999 0.19965 0.97304 0.0
C76 C 0.72577 0.21562 0.99126 0.0
C77 C 0.73786 0.22836 0.03566 0.0
C78 C 0.7459 0.19635 0.00153 0.0
C79 C 0.7577 0.20957 0.04582 0.0
N80 N 0.79288 0.26805 0.17696 0.0
C81 C 0.81032 0.30527 0.21216 0.0
C82 C 0.82739 0.30294 0.23728 0.0
C83 C 0.82578 0.2822 0.23631 0.0
C84 C 0.80833 0.26496 0.20618 0.0
C85 C 0.79315 0.2876 0.18303 0.0
H86 H 0.80822 0.24964 0.20503 0.0
H87 H 0.78086 0.2905 0.1637 0.0
H88 H 0.73368 0.24012 0.04719 0.0
H89 H 0.76967 0.20632 0.06553 0.0
C90 C 0.79684 0.21644 0.14435 0.0
C91 C 0.8153 0.2815 0.04409 0.0
C92 C 0.73469 0.21593 0.20802 0.0
C93 C 0.74924 0.27654 0.09348 0.0
H94 H 0.84632 0.26636 0.04328 0.0
H95 H 0.83619 0.23055 0.0975 0.0
H96 H 0.77563 0.18091 0.21196 0.0
H97 H 0.74164 0.18063 0.24618 0.0
H98 H 0.70669 0.2343 0.21653 0.0
H99 H 0.71414 0.26706 0.15328 0.0
H100 H 0.76854 0.3098 0.0193 0.0
H101 H 0.80502 0.3126 0.99322 0.0
H102 H 0.71304 0.21824 0.97152 0.0
H103 H 0.74956 0.18396 0.9892 0.0
H104 H 0.81059 0.3209 0.21361 0.0
H105 H 0.8385 0.27962 0.25624 0.0
C106 C 0.56186 0.77121 0.15381 0.0
C107 C 0.58126 0.77778 0.18538 0.0
C108 C 0.59711 0.7961 0.16402 0.0
C109 C 0.58662 0.79966 0.12066 0.0
N110 N 0.56485 0.78502 0.11378 0.0
Co111 Co 0.54371 0.78273 0.05302 0.0
N112 N 0.56772 0.807 0.01672 0.0
C113 C 0.58943 0.81765 0.03243 0.0
C114 C 0.60165 0.83457 0.00104 0.0
C115 C 0.58679 0.83514 0.96395 0.0
C116 C 0.56632 0.81852 0.97506 0.0
N117 N 0.52251 0.78082 0.99283 0.0
C118 C 0.5255 0.79505 0.95377 0.0
C119 C 0.50607 0.78908 0.92296 0.0
C120 C 0.49011 0.77075 0.94405 0.0
C121 C 0.50065 0.76665 0.98647 0.0
N122 N 0.51976 0.75816 0.08877 0.0
C123 C 0.49817 0.74684 0.07185 0.0
C124 C 0.48595 0.72985 0.103 0.0
C125 C 0.50072 0.72987 0.14124 0.0
C126 C 0.52116 0.74689 0.13097 0.0
N127 N 0.53906 0.80499 0.08637 0.0
C128 C 0.53299 0.84029 0.11056 0.0
C129 C 0.51501 0.81925 0.09919 0.0
C130 C 0.51841 0.80187 0.08759 0.0
C131 C 0.55394 0.84296 0.11401 0.0
C132 C 0.55657 0.82513 0.10257 0.0
N133 N 0.54838 0.76048 0.01941 0.0
C134 C 0.53344 0.72458 0.9777 0.0
C135 C 0.55375 0.72578 0.98621 0.0
C136 C 0.57157 0.74495 0.00903 0.0
C137 C 0.56861 0.76216 0.02437 0.0
C138 C 0.53111 0.74199 0.99469 0.0
H139 H 0.58286 0.77642 0.04113 0.0
H140 H 0.51509 0.73985 0.98853 0.0
H141 H 0.50413 0.7863 0.07788 0.0
H142 H 0.57295 0.82827 0.10524 0.0
C143 C 0.59724 0.81401 0.08135 0.0
C144 C 0.54153 0.7506 0.15997 0.0
C145 C 0.54592 0.81552 0.94789 0.0
C146 C 0.4902 0.75131 0.02421 0.0
H147 H 0.58404 0.76959 0.21879 0.0
H148 H 0.6145 0.80481 0.17654 0.0
H149 H 0.61909 0.84611 0.00657 0.0
H150 H 0.59044 0.84711 0.93374 0.0
H151 H 0.50345 0.79766 0.89016 0.0
H152 H 0.47271 0.76224 0.93173 0.0
H153 H 0.46855 0.71818 0.09724 0.0
H154 H 0.49703 0.71813 0.17201 0.0
H155 H 0.49844 0.81637 0.09734 0.0
H156 H 0.5683 0.85883 0.12491 0.0
H157 H 0.51929 0.71 0.95943 0.0
H158 H 0.58771 0.74666 0.01492 0.0
C159 C 0.80428 0.54592 0.18321 0.0
C160 C 0.82174 0.56566 0.20459 0.0
C161 C 0.82157 0.5822 0.17595 0.0
C162 C 0.80425 0.57171 0.13858 0.0
N163 N 0.79336 0.54942 0.14131 0.0
Co164 Co 0.76763 0.5278 0.09325 0.0
N165 N 0.76705 0.5523 0.05218 0.0
C166 C 0.78066 0.57428 0.06076 0.0
C167 C 0.7767 0.58709 0.02546 0.0
C168 C 0.75949 0.57247 0.99227 0.0
C169 C 0.75381 0.55146 0.00954 0.0
N170 N 0.74203 0.50617 0.04484 0.0
C171 C 0.73107 0.50968 0.00304 0.0
C172 C 0.71406 0.48991 0.98061 0.0
C173 C 0.7145 0.47335 0.00864 0.0
C174 C 0.73154 0.48385 0.04663 0.0
N175 N 0.76807 0.50331 0.13469 0.0
C176 C 0.75426 0.48133 0.12649 0.0
C177 C 0.75776 0.46855 0.16273 0.0
C178 C 0.7748 0.48317 0.1963 0.0
C179 C 0.7809 0.50416 0.17822 0.0
N180 N 0.74732 0.52862 0.13977 0.0
C181 C 0.71927 0.52941 0.20892 0.0
C182 C 0.71524 0.50956 0.18648 0.0
C183 C 0.72927 0.50955 0.15233 0.0
C184 C 0.73751 0.54893 0.19558 0.0
C185 C 0.75116 0.54817 0.16115 0.0
N186 N 0.78793 0.52696 0.04669 0.0
C187 C 0.79826 0.5062 0.99398 0.0
C188 C 0.81568 0.52562 0.97747 0.0
C189 C 0.81911 0.54573 0.99686 0.0
C190 C 0.80521 0.54602 0.03111 0.0
C191 C 0.78478 0.50723 0.02829 0.0
H192 H 0.80871 0.56189 0.04412 0.0
H193 H 0.77188 0.49182 0.03926 0.0
H194 H 0.72524 0.49384 0.13696 0.0
H195 H 0.76475 0.5636 0.15252 0.0
C196 C 0.79761 0.58237 0.101 0.0
C197 C 0.79878 0.52435 0.20419 0.0
C198 C 0.73587 0.5313 0.98372 0.0
C199 C 0.73778 0.47321 0.08516 0.0
H200 H 0.83343 0.56794 0.23753 0.0
H201 H 0.8327 0.59979 0.18176 0.0
H202 H 0.78551 0.60494 0.02361 0.0
H203 H 0.75209 0.57681 0.9588 0.0
H204 H 0.70241 0.48762 0.94758 0.0
H205 H 0.70357 0.45575 0.00233 0.0
H206 H 0.74877 0.45072 0.16493 0.0
H207 H 0.78175 0.47881 0.23056 0.0
H208 H 0.7015 0.49393 0.19587 0.0
H209 H 0.74119 0.5648 0.21121 0.0
H210 H 0.79514 0.49015 0.981 0.0
H211 H 0.83228 0.56128 0.98507 0.0
C212 C 0.26853 0.8151 0.16005 0.0
C213 C 0.26722 0.8343 0.15693 0.0
C214 C 0.2551 0.83284 0.11085 0.0
C215 C 0.24941 0.81279 0.08866 0.0
N216 N 0.257 0.80147 0.1183 0.0
Co217 Co 0.25171 0.77152 0.10183 0.0
N218 N 0.22672 0.76545 0.04989 0.0
C219 C 0.22281 0.78066 0.0262 0.0
C220 C 0.20422 0.77135 0.99174 0.0
C221 C 0.19605 0.74894 0.994 0.0
C222 C 0.2101 0.74583 0.03008 0.0
N223 N 0.24641 0.74159 0.08526 0.0
C224 C 0.22794 0.7238 0.06362 0.0
C225 C 0.23077 0.70553 0.06211 0.0
C226 C 0.25194 0.71244 0.08216 0.0
C227 C 0.26078 0.73438 0.09548 0.0
N228 N 0.27682 0.77755 0.15343 0.0
C229 C 0.28832 0.7669 0.15554 0.0
C230 C 0.30557 0.77532 0.19369 0.0
C231 C 0.30498 0.79245 0.2167 0.0
C232 C 0.28722 0.79345 0.19138 0.0
N233 N 0.23175 0.75932 0.15543 0.0
C234 C 0.1992 0.7368 0.22128 0.0
C235 C 0.21712 0.73343 0.22318 0.0
C236 C 0.23318 0.74477 0.1896 0.0
C237 C 0.19843 0.75247 0.18798 0.0
C238 C 0.21508 0.76384 0.15596 0.0
N239 N 0.27152 0.7836 0.04761 0.0
C240 C 0.27912 0.78194 0.9599 0.0
C241 C 0.2994 0.80125 0.96936 0.0
C242 C 0.30553 0.81152 0.01867 0.0
C243 C 0.29128 0.80257 0.05707 0.0
C244 C 0.26554 0.77323 0.99974 0.0
H245 H 0.29622 0.8111 0.09433 0.0
H246 H 0.25012 0.75814 0.99167 0.0
H247 H 0.24628 0.74111 0.18979 0.0
H248 H 0.21397 0.77563 0.13008 0.0
C249 C 0.23421 0.80262 0.04505 0.0
C250 C 0.28218 0.81105 0.20068 0.0
C251 C 0.20813 0.72429 0.04218 0.0
C252 C 0.28044 0.74719 0.12676 0.0
H253 H 0.27433 0.84801 0.18476 0.0
H254 H 0.25031 0.84462 0.09633 0.0
H255 H 0.1969 0.77975 0.96947 0.0
H256 H 0.18144 0.73636 0.97172 0.0
H257 H 0.21886 0.68886 0.04863 0.0
H258 H 0.25954 0.70234 0.08894 0.0
H259 H 0.31688 0.76939 0.20442 0.0
H260 H 0.31661 0.8032 0.24785 0.0
H261 H 0.21814 0.72135 0.24858 0.0
H262 H 0.18484 0.75559 0.18601 0.0
H263 H 0.27393 0.77353 0.92219 0.0
H264 H 0.32105 0.82662 0.02714 0.0
C265 C 0.50039 0.23281 0.26365 0.0
C266 C 0.51992 0.23559 0.28902 0.0
C267 C 0.53603 0.24796 0.25787 0.0
C268 C 0.52561 0.25213 0.21534 0.0
N269 N 0.50397 0.24362 0.21825 0.0
Co270 Co 0.48295 0.24515 0.16344 0.0
N271 N 0.50704 0.26843 0.12698 0.0
C272 C 0.52816 0.27362 0.13273 0.0
C273 C 0.54104 0.29132 0.10387 0.0
C274 C 0.52712 0.29766 0.07868 0.0
C275 C 0.50647 0.28331 0.0935 0.0
N276 N 0.46214 0.2468 0.10878 0.0
C277 C 0.46547 0.26352 0.07689 0.0
C278 C 0.4466 0.25857 0.04483 0.0
C279 C 0.4308 0.23796 0.05786 0.0
C280 C 0.44096 0.23155 0.09685 0.0
N281 N 0.45861 0.22176 0.19936 0.0
C282 C 0.43745 0.20992 0.17949 0.0
C283 C 0.42421 0.19503 0.21335 0.0
C284 C 0.43793 0.19721 0.25679 0.0
C285 C 0.4589 0.21321 0.24674 0.0
N286 N 0.48238 0.268 0.2043 0.0
C287 C 0.4822 0.30347 0.25195 0.0
C288 C 0.46259 0.28509 0.23145 0.0
C289 C 0.46302 0.26749 0.20822 0.0
C290 C 0.50181 0.30335 0.24964 0.0
C291 C 0.50155 0.28553 0.22564 0.0
N292 N 0.48362 0.22248 0.12184 0.0
C293 C 0.48436 0.18851 0.11706 0.0
C294 C 0.48457 0.18988 0.06324 0.0
C295 C 0.48435 0.20795 0.03912 0.0
C296 C 0.4841 0.22419 0.06919 0.0
C297 C 0.48378 0.20485 0.14537 0.0
H298 H 0.48433 0.23815 0.04983 0.0
H299 H 0.48354 0.20316 0.18637 0.0
H300 H 0.44771 0.25374 0.19217 0.0
H301 H 0.51697 0.28628 0.22299 0.0
C302 C 0.53583 0.26519 0.17391 0.0
C303 C 0.47869 0.21625 0.27834 0.0
C304 C 0.48649 0.28385 0.0755 0.0
C305 C 0.4303 0.21447 0.13078 0.0
H306 H 0.52224 0.22854 0.32505 0.0
H307 H 0.55326 0.25313 0.2652 0.0
H308 H 0.55866 0.29961 0.1039 0.0
H309 H 0.5318 0.31152 0.05341 0.0
H310 H 0.44443 0.26892 0.01581 0.0
H311 H 0.41365 0.22937 0.04302 0.0
H312 H 0.40671 0.18387 0.20718 0.0
H313 H 0.43328 0.18727 0.29089 0.0
H314 H 0.44702 0.28434 0.23317 0.0
H315 H 0.51737 0.31726 0.26476 0.0
H316 H 0.48428 0.17469 0.13719 0.0
H317 H 0.48466 0.20968 0.99751 0.0
C318 C 0.99179 0.44894 0.77953 0.0
C319 C 0.05704 0.49441 0.72564 0.0
C320 C 0.03306 0.55519 0.7276 0.0
Mg321 Mg 0.01034 0.46546 0.67349 0.0
O322 O 0.00415 0.48772 0.68955 0.0
Mg323 Mg 0.01754 0.50421 0.75776 0.0
Mg324 Mg 0.01214 0.51348 0.64396 0.0
O325 O 0.01975 0.53922 0.59863 0.0
Mg326 Mg 0.01186 0.56014 0.61611 0.0
Mg327 Mg 0.00663 0.52292 0.53002 0.0
C328 C 0.99163 0.47212 0.56065 0.0
C329 C 0.04882 0.5175 0.56879 0.0
O330 O 1.00053 0.46927 0.79506 0.0
O331 O 0.99316 0.44357 0.73361 0.0
O332 O 0.04938 0.50362 0.75233 0.0
O333 O 0.04503 0.47924 0.69144 0.0
O334 O 0.99723 0.46069 0.59161 0.0
O335 O 0.99299 0.49027 0.57503 0.0
C336 C 0.97549 0.50948 0.71856 0.0
O337 O 0.98175 0.51345 0.67261 0.0
O338 O 0.98625 0.5055 0.75584 0.0
O339 O 0.02293 0.55792 0.49421 0.0
O340 O 0.0287 0.5826 0.557 0.0
O341 O 0.9747 0.52346 0.53228 0.0
C342 C 0.03063 0.57793 0.51094 0.0
O343 O 0.97701 0.54613 0.59467 0.0
O344 O 0.02622 0.56596 0.69766 0.0
C345 C 0.96602 0.53199 0.55759 0.0
O346 O 0.03142 0.53693 0.71283 0.0
O347 O 0.04261 0.51332 0.61482 0.0
O348 O 0.03812 0.52186 0.53215 0.0
C349 C 0.47734 0.01905 0.75478 0.0
C350 C 0.4525 0.95771 0.66542 0.0
C351 C 0.5341 0.98377 0.63552 0.0
Mg352 Mg 0.46576 0.00518 0.63749 0.0
O353 O 0.49561 0.01372 0.64615 0.0
Mg354 Mg 0.5049 0.99814 0.69984 0.0
Mg355 Mg 0.50765 0.00872 0.58526 0.0
O356 O 0.51955 0.00373 0.52386 0.0
Mg357 Mg 0.54873 0.01 0.52945 0.0
Mg358 Mg 0.51048 0.02002 0.47131 0.0
C359 C 0.48118 0.03324 0.53555 0.0
C360 C 0.46673 0.97575 0.50251 0.0
O361 O 0.49158 0.01258 0.75864 0.0
O362 O 0.46581 0.01759 0.71203 0.0
O363 O 0.47163 0.96588 0.68988 0.0
O364 O 0.44669 0.96966 0.63791 0.0
O365 O 0.46686 0.02421 0.56831 0.0
O366 O 0.49827 0.03111 0.53803 0.0
C367 C 0.54814 0.04222 0.66754 0.0
O368 O 0.54083 0.03755 0.61946 0.0
O369 O 0.53747 0.03017 0.70395 0.0
O370 O 0.52281 0.00623 0.41092 0.0
O371 O 0.54668 0.99728 0.45289 0.0
O372 O 0.54482 0.05157 0.47888 0.0
C373 C 0.53574 0.9983 0.41127 0.0
O374 O 0.56954 0.04545 0.52518 0.0
O375 O 0.54771 0.99143 0.60074 0.0
C376 C 0.56445 0.05831 0.49919 0.0
O377 O 0.51753 0.98678 0.63365 0.0
O378 O 0.47423 0.97982 0.55062 0.0
O379 O 0.47738 0.98823 0.46662 0.0
C380 C 0.53906 0.57685 0.47998 0.0
C381 C 0.56706 0.53484 0.526 0.0
C382 C 0.48498 0.47191 0.55284 0.0
Mg383 Mg 0.55337 0.56295 0.58533 0.0
O384 O 0.52393 0.54058 0.57592 0.0
Mg385 Mg 0.51389 0.5224 0.50989 0.0
Mg386 Mg 0.51221 0.51665 0.62732 0.0
O387 O 0.50032 0.49283 0.67877 0.0
Mg388 Mg 0.47054 0.47092 0.66781 0.0
Mg389 Mg 0.50974 0.51166 0.74394 0.0
C390 C 0.54067 0.56009 0.7022 0.0
C391 C 0.55368 0.51828 0.69766 0.0
O392 O 0.52615 0.55624 0.46724 0.0
O393 O 0.55059 0.58317 0.52419 0.0
O394 O 0.54734 0.52463 0.50447 0.0
O395 O 0.57307 0.54965 0.56164 0.0
O396 O 0.55413 0.56992 0.66789 0.0
O397 O 0.52227 0.54219 0.69199 0.0
C398 C 0.47131 0.51697 0.56005 0.0
O399 O 0.47899 0.5145 0.60506 0.0
O400 O 0.48153 0.52034 0.51981 0.0
O401 O 0.49741 0.47848 0.78712 0.0
O402 O 0.47227 0.45131 0.73153 0.0
O403 O 0.4758 0.50869 0.74831 0.0
C404 C 0.48385 0.45793 0.77561 0.0
O405 O 0.45019 0.48385 0.69075 0.0
O406 O 0.47134 0.46214 0.58694 0.0
C407 C 0.45601 0.49831 0.72723 0.0
O408 O 0.50197 0.49121 0.56186 0.0
O409 O 0.54579 0.51896 0.65116 0.0
O410 O 0.54285 0.51516 0.73676 0.0
C411 C 0.18309 0.51698 0.31643 0.0
C412 C 0.18692 0.49904 0.31817 0.0
C413 C 0.16974 0.51862 0.35032 0.0
C414 C 0.12639 0.48605 0.43724 0.0
H415 H 0.14239 0.54434 0.48928 0.0
C416 C 0.07332 0.50064 0.57273 0.0
C417 C 0.06853 0.51713 0.55534 0.0
C418 C 0.08966 0.49836 0.55157 0.0
C419 C 0.13765 0.52792 0.47512 0.0
H420 H 0.1794 0.46862 0.3573 0.0
H421 H 0.15611 0.47148 0.41658 0.0
H422 H 0.16654 0.54004 0.43612 0.0
H423 H 0.07782 0.54476 0.50426 0.0
H424 H 0.10631 0.54113 0.46853 0.0
H425 H 0.0973 0.47407 0.47603 0.0
C426 C 0.16332 0.48422 0.3885 0.0
C427 C 0.15147 0.52545 0.44431 0.0
C428 C 0.17668 0.48257 0.35441 0.0
C429 C 0.08114 0.53191 0.51857 0.0
C430 C 0.09756 0.52987 0.49816 0.0
C431 C 0.11257 0.48853 0.46835 0.0
C432 C 0.1598 0.50239 0.38725 0.0
C433 C 0.14583 0.50456 0.42383 0.0
C434 C 0.10176 0.51278 0.51337 0.0
C435 C 0.11779 0.50958 0.48669 0.0
H436 H 0.19027 0.52976 0.2884 0.0
H437 H 0.16703 0.53256 0.34709 0.0
H438 H 0.12138 0.46971 0.42205 0.0
H439 H 0.0637 0.48883 0.60047 0.0
H440 H 0.09257 0.4851 0.56438 0.0
C441 C 0.72302 0.20023 0.2954 0.0
C442 C 0.71744 0.20196 0.2426 0.0
C443 C 0.70686 0.18652 0.32721 0.0
C444 C 0.64861 0.14007 0.31892 0.0
H445 H 0.6546 0.1533 0.4662 0.0
C446 C 0.57763 0.0912 0.44251 0.0
C447 C 0.58225 0.07998 0.48329 0.0
C448 C 0.59454 0.10835 0.41814 0.0
C449 C 0.65277 0.14944 0.42512 0.0
H450 H 0.69062 0.19123 0.18188 0.0
H451 H 0.66227 0.16843 0.23746 0.0
H452 H 0.68293 0.17861 0.4126 0.0
H453 H 0.60852 0.07959 0.53353 0.0
H454 H 0.63812 0.1101 0.49159 0.0
H455 H 0.61812 0.11129 0.33142 0.0
C456 C 0.67914 0.17682 0.2544 0.0
C457 C 0.66907 0.16384 0.39429 0.0
C458 C 0.69535 0.19013 0.22247 0.0
C459 C 0.60432 0.08775 0.50211 0.0
C460 C 0.62129 0.10522 0.47811 0.0
C461 C 0.63219 0.12601 0.34946 0.0
C462 C 0.68462 0.17452 0.30719 0.0
C463 C 0.66726 0.15937 0.3406 0.0
C464 C 0.61652 0.11503 0.43451 0.0
C465 C 0.63406 0.13051 0.40283 0.0
H466 H 0.73997 0.20925 0.31184 0.0
H467 H 0.71194 0.18506 0.36723 0.0
H468 H 0.64673 0.13551 0.27833 0.0
H469 H 0.5609 0.08584 0.42699 0.0
H470 H 0.59042 0.11584 0.38503 0.0
C471 C 0.53663 0.71257 0.16754 0.0
C472 C 0.54167 0.73256 0.19169 0.0
C473 C 0.53606 0.69525 0.19704 0.0
C474 C 0.53273 0.67555 0.33312 0.0
H475 H 0.55162 0.63722 0.27927 0.0
C476 C 0.54933 0.61616 0.46232 0.0
C477 C 0.53989 0.59414 0.44398 0.0
C478 C 0.54922 0.63241 0.42999 0.0
C479 C 0.54612 0.64769 0.2946 0.0
H480 H 0.54969 0.75014 0.26535 0.0
H481 H 0.54972 0.72043 0.31698 0.0
H482 H 0.55249 0.66708 0.22655 0.0
H483 H 0.52334 0.57218 0.37648 0.0
H484 H 0.52356 0.60086 0.31953 0.0
H485 H 0.52702 0.65651 0.40176 0.0
C486 C 0.54575 0.71776 0.27538 0.0
C487 C 0.54653 0.66479 0.26434 0.0
C488 C 0.54604 0.73495 0.24586 0.0
C489 C 0.53073 0.58894 0.39193 0.0
C490 C 0.53091 0.60536 0.35926 0.0
C491 C 0.53261 0.65868 0.36353 0.0
C492 C 0.54063 0.69758 0.25148 0.0
C493 C 0.53993 0.67906 0.28325 0.0
C494 C 0.53991 0.62721 0.37821 0.0
C495 C 0.53939 0.64461 0.34476 0.0
H496 H 0.533 0.71032 0.12574 0.0
H497 H 0.53167 0.67992 0.17712 0.0
H498 H 0.52698 0.68573 0.34873 0.0
H499 H 0.55651 0.62085 0.50213 0.0
H500 H 0.5565 0.64915 0.44556 0.0
C501 C 0.82474 0.51281 0.2467 0.0
C502 C 0.81207 0.5229 0.2508 0.0
C503 C 0.83739 0.51154 0.29019 0.0
C504 C 0.8681 0.54002 0.40996 0.0
H505 H 0.8666 0.48491 0.44366 0.0
C506 C 0.93432 0.53892 0.55711 0.0
C507 C 0.94334 0.52665 0.53943 0.0
C508 C 0.91444 0.53615 0.5329 0.0
C509 C 0.86731 0.50047 0.43475 0.0
H510 H 0.80264 0.53967 0.30291 0.0
H511 H 0.82558 0.5382 0.37912 0.0
H512 H 0.83956 0.48502 0.37749 0.0
H513 H 0.93764 0.50061 0.48526 0.0
H514 H 0.90372 0.49622 0.44281 0.0
H515 H 0.8967 0.55579 0.46438 0.0
C516 C 0.82538 0.53099 0.3424 0.0
C517 C 0.85175 0.50047 0.39701 0.0
C518 C 0.81234 0.53184 0.29903 0.0
C519 C 0.93134 0.51053 0.49964 0.0
C520 C 0.91164 0.50784 0.47548 0.0
C521 C 0.88392 0.54009 0.44715 0.0
C522 C 0.83794 0.52074 0.33833 0.0
C523 C 0.85238 0.52032 0.38332 0.0
C524 C 0.90322 0.52104 0.49066 0.0
C525 C 0.88413 0.5204 0.45883 0.0
H526 H 0.82488 0.50598 0.20974 0.0
H527 H 0.84717 0.50382 0.28594 0.0
H528 H 0.86895 0.55556 0.39988 0.0
H529 H 0.94305 0.55134 0.588 0.0
H530 H 0.90823 0.54632 0.54624 0.0
C531 C 0.31199 0.84939 0.22885 0.0
C532 C 0.29614 0.82813 0.2421 0.0
C533 C 0.32707 0.86455 0.26713 0.0
C534 C 0.35873 0.86694 0.3852 0.0
H535 H 0.37207 0.92774 0.39918 0.0
C536 C 0.44379 0.94217 0.44608 0.0
C537 C 0.44544 0.95598 0.48679 0.0
C538 C 0.42342 0.9247 0.42665 0.0
C539 C 0.36831 0.91072 0.39624 0.0
H540 H 0.28383 0.80586 0.30539 0.0
H541 H 0.31092 0.83225 0.37256 0.0
H542 H 0.33932 0.90121 0.34388 0.0
H543 H 0.42728 0.96252 0.53926 0.0
H544 H 0.39126 0.93217 0.50376 0.0
H545 H 0.38858 0.87686 0.43447 0.0
C546 C 0.31112 0.83732 0.33267 0.0
C547 C 0.34969 0.89563 0.36452 0.0
C548 C 0.29565 0.82232 0.29445 0.0
C549 C 0.4264 0.95183 0.50843 0.0
C550 C 0.40587 0.93464 0.48798 0.0
C551 C 0.37761 0.88216 0.41593 0.0
C552 C 0.32707 0.85851 0.31921 0.0
C553 C 0.34494 0.8737 0.35809 0.0
C554 C 0.40426 0.92106 0.44663 0.0
C555 C 0.38272 0.90424 0.42104 0.0
H556 H 0.31323 0.85403 0.18861 0.0
H557 H 0.33945 0.88065 0.25567 0.0
H558 H 0.35552 0.85017 0.38043 0.0
H559 H 0.45826 0.94515 0.42867 0.0
H560 H 0.42255 0.91458 0.39445 0.0
C561 C 0.46961 0.33136 0.24989 0.0
C562 C 0.48229 0.32282 0.2748 0.0
C563 C 0.46994 0.34978 0.27106 0.0
C564 C 0.50216 0.39658 0.36709 0.0
H565 H 0.4476 0.39701 0.36571 0.0
C566 C 0.46404 0.43785 0.49557 0.0
C567 C 0.48241 0.45907 0.50524 0.0
C568 C 0.46348 0.42368 0.45762 0.0
C569 C 0.463 0.39717 0.36645 0.0
H570 H 0.50504 0.32674 0.34175 0.0
H571 H 0.50532 0.35853 0.37925 0.0
H572 H 0.44813 0.36697 0.32138 0.0
H573 H 0.51382 0.48262 0.47928 0.0
H574 H 0.51263 0.45804 0.4122 0.0
H575 H 0.51681 0.42608 0.41455 0.0
C576 C 0.49552 0.3514 0.34266 0.0
C577 C 0.46335 0.38004 0.34051 0.0
C578 C 0.49529 0.33309 0.32133 0.0
C579 C 0.49946 0.46637 0.47317 0.0
C580 C 0.49887 0.45217 0.43501 0.0
C581 C 0.50179 0.41363 0.39325 0.0
C582 C 0.48288 0.36003 0.3178 0.0
C583 C 0.48285 0.37927 0.34142 0.0
C584 C 0.48122 0.43036 0.42805 0.0
C585 C 0.48211 0.41392 0.39421 0.0
H586 H 0.45969 0.32402 0.21352 0.0
H587 H 0.46023 0.35613 0.25046 0.0
H588 H 0.51758 0.39678 0.36777 0.0
H589 H 0.45052 0.43167 0.51923 0.0
H590 H 0.44966 0.407 0.45379 0.0
C591 C 0.54268 0.83297 0.86406 0.0
C592 C 0.54571 0.83398 0.91843 0.0
C593 C 0.54214 0.85023 0.83659 0.0
C594 C 0.55379 0.89396 0.78658 0.0
H595 H 0.52476 0.92318 0.83784 0.0
C596 C 0.55662 0.96916 0.68366 0.0
C597 C 0.53706 0.96992 0.67651 0.0
C598 C 0.55856 0.95408 0.71715 0.0
C599 C 0.53284 0.91514 0.82281 0.0
H600 H 0.55096 0.85371 0.98706 0.0
H601 H 0.55038 0.88417 0.93924 0.0
H602 H 0.52599 0.89347 0.88695 0.0
H603 H 0.50443 0.95581 0.70076 0.0
H604 H 0.50768 0.92932 0.75871 0.0
H605 H 0.56007 0.91505 0.72174 0.0
C606 C 0.54799 0.86993 0.91761 0.0
C607 C 0.53377 0.89824 0.85131 0.0
C608 C 0.5485 0.85262 0.94503 0.0
C609 C 0.51978 0.95581 0.70549 0.0
C610 C 0.52167 0.94059 0.73885 0.0
C611 C 0.55284 0.9108 0.75814 0.0
C612 C 0.54477 0.86896 0.86296 0.0
C613 C 0.54416 0.88734 0.83343 0.0
C614 C 0.54093 0.93919 0.74423 0.0
C615 C 0.54233 0.92162 0.77573 0.0
H616 H 0.54056 0.81874 0.84289 0.0
H617 H 0.53933 0.84873 0.79465 0.0
H618 H 0.56218 0.88619 0.77184 0.0
H619 H 0.57037 0.97991 0.66242 0.0
H620 H 0.57384 0.95389 0.7212 0.0
C621 C 0.7204 0.52532 0.88996 0.0
C622 C 0.72131 0.53289 0.94038 0.0
C623 C 0.70617 0.52638 0.84978 0.0
C624 C 0.67511 0.55483 0.81245 0.0
H625 H 0.6319 0.50024 0.73899 0.0
C626 C 0.58812 0.53425 0.75611 0.0
C627 C 0.5766 0.5234 0.70874 0.0
C628 C 0.60931 0.5384 0.76993 0.0
C629 C 0.64421 0.51577 0.75795 0.0
H630 H 0.70854 0.54766 0.98867 0.0
H631 H 0.68397 0.54992 0.91854 0.0
H632 H 0.66324 0.50173 0.79243 0.0
H633 H 0.57852 0.50913 0.63752 0.0
H634 H 0.61596 0.51584 0.66285 0.0
H635 H 0.65557 0.56855 0.78043 0.0
C636 C 0.69422 0.54324 0.90981 0.0
C637 C 0.66208 0.51661 0.78869 0.0
C638 C 0.70814 0.54186 0.94996 0.0
C639 C 0.58704 0.51738 0.67443 0.0
C640 C 0.60836 0.5212 0.68888 0.0
C641 C 0.65737 0.55403 0.78168 0.0
C642 C 0.69299 0.53542 0.85937 0.0
C643 C 0.67708 0.53585 0.81815 0.0
C644 C 0.61959 0.53166 0.73701 0.0
C645 C 0.64117 0.53419 0.75624 0.0
H646 H 0.73053 0.5184 0.88191 0.0
H647 H 0.70551 0.52023 0.81128 0.0
H648 H 0.68668 0.57 0.83397 0.0
H649 H 0.58065 0.53942 0.78301 0.0
H650 H 0.61738 0.5462 0.80753 0.0
C651 C 0.1887 0.69126 0.98097 0.0
C652 C 0.18803 0.7038 0.02155 0.0
C653 C 0.16967 0.67241 0.96047 0.0
C654 C 0.11317 0.65056 0.92656 0.0
H655 H 0.10752 0.5924 0.92672 0.0
C656 C 0.04099 0.58 0.80427 0.0
C657 C 0.04567 0.56587 0.77759 0.0
C658 C 0.05559 0.59378 0.84521 0.0
C659 C 0.10885 0.60852 0.92572 0.0
H660 H 0.16694 0.70734 0.07066 0.0
H661 H 0.1332 0.67466 0.03286 0.0
H662 H 0.13917 0.6231 0.97526 0.0
H663 H 0.06865 0.55417 0.77438 0.0
H664 H 0.09467 0.57888 0.84351 0.0
H665 H 0.08412 0.63693 0.874 0.0
C666 C 0.14867 0.67903 0.01858 0.0
C667 C 0.1269 0.62602 0.954 0.0
C668 C 0.16785 0.69762 0.04005 0.0
C669 C 0.06455 0.56479 0.7946 0.0
C670 C 0.07948 0.57901 0.83456 0.0
C671 C 0.09542 0.63324 0.89725 0.0
C672 C 0.1495 0.66622 0.97888 0.0
C673 C 0.12931 0.64721 0.95406 0.0
C674 C 0.07559 0.59429 0.85933 0.0
C675 C 0.09313 0.61199 0.89564 0.0
H676 H 0.20392 0.69621 0.96468 0.0
H677 H 0.17057 0.66302 0.92908 0.0
H678 H 0.11487 0.66686 0.92566 0.0
H679 H 0.02639 0.58097 0.79221 0.0
H680 H 0.05151 0.60463 0.86438 0.0
C681 C 0.46964 0.16237 0.98883 0.0
C682 C 0.48465 0.17224 0.03288 0.0
C683 C 0.46874 0.14471 0.96228 0.0
C684 C 0.48545 0.10185 0.97741 0.0
H685 H 0.4718 0.0961 0.82793 0.0
C686 C 0.49307 0.04162 0.83833 0.0
C687 C 0.47574 0.03118 0.79868 0.0
C688 C 0.49352 0.05712 0.87258 0.0
C689 C 0.47546 0.0974 0.86976 0.0
H690 H 0.51092 0.17189 0.08291 0.0
H691 H 0.50991 0.14158 0.03561 0.0
H692 H 0.47491 0.12758 0.87406 0.0
H693 H 0.44431 0.02718 0.76726 0.0
H694 H 0.44522 0.0541 0.82663 0.0
H695 H 0.4866 0.07179 0.97218 0.0
C696 C 0.49835 0.14695 0.02236 0.0
C697 C 0.47716 0.11541 0.8963 0.0
C698 C 0.49904 0.16442 0.04928 0.0
C699 C 0.45809 0.03518 0.79678 0.0
C700 C 0.4586 0.05065 0.83064 0.0
C701 C 0.48403 0.08393 0.95062 0.0
C702 C 0.48305 0.13672 0.97874 0.0
C703 C 0.48195 0.11779 0.95054 0.0
C704 C 0.4767 0.06239 0.86747 0.0
C705 C 0.47876 0.08143 0.89663 0.0
H706 H 0.45816 0.16788 0.97583 0.0
H707 H 0.45646 0.13703 0.92948 0.0
H708 H 0.48889 0.10295 0.01924 0.0
H709 H 0.50692 0.03893 0.8408 0.0
H710 H 0.50764 0.06594 0.90084 0.0
C711 C 0.30858 0.4802 0.97779 0.0
C712 C 0.31655 0.49397 0.02285 0.0
C713 C 0.32294 0.48085 0.94326 0.0
C714 C 0.38199 0.49937 0.93523 0.0
H715 H 0.36578 0.49397 0.78655 0.0
C716 C 0.44548 0.51622 0.793 0.0
C717 C 0.43911 0.50089 0.75148 0.0
C718 C 0.42995 0.51609 0.82259 0.0
C719 C 0.37051 0.49534 0.82797 0.0
H720 H 0.34622 0.51891 0.06694 0.0
H721 H 0.37097 0.52047 0.00656 0.0
H722 H 0.33995 0.49172 0.84559 0.0
H723 H 0.41099 0.47425 0.70682 0.0
H724 H 0.38386 0.47409 0.75845 0.0
H725 H 0.41251 0.5031 0.91781 0.0
C726 C 0.35364 0.50893 0.99797 0.0
C727 C 0.35565 0.49399 0.86195 0.0
C728 C 0.33933 0.50825 0.03245 0.0
C729 C 0.41656 0.48631 0.73844 0.0
C730 C 0.40097 0.48621 0.76812 0.0
C731 C 0.39682 0.50083 0.90137 0.0
C732 C 0.34571 0.49526 0.95278 0.0
C733 C 0.36122 0.49611 0.91615 0.0
C734 C 0.40753 0.50065 0.81163 0.0
C735 C 0.39139 0.49898 0.84723 0.0
H736 H 0.29117 0.46913 0.96865 0.0
H737 H 0.31617 0.46987 0.90929 0.0
H738 H 0.38678 0.50056 0.97658 0.0
H739 H 0.46263 0.52786 0.8041 0.0
H740 H 0.43561 0.52783 0.85493 0.0
C741 C 0.83983 0.29337 0.97242 0.0
C742 C 0.8347 0.29837 0.01927 0.0
C743 C 0.85799 0.30928 0.94898 0.0
C744 C 0.91 0.36291 0.97519 0.0
H745 H 0.90505 0.3659 0.8252 0.0
C746 C 0.97272 0.43617 0.86098 0.0
C747 C 0.97745 0.4311 0.81338 0.0
C748 C 0.95673 0.41958 0.88892 0.0
C749 C 0.90684 0.36512 0.8671 0.0
H750 H 0.84408 0.32377 0.07823 0.0
H751 H 0.8756 0.35189 0.03685 0.0
H752 H 0.87413 0.33812 0.86758 0.0
H753 H 0.96979 0.40423 0.75959 0.0
H754 H 0.94217 0.37547 0.80839 0.0
H755 H 0.94268 0.3903 0.9744 0.0
C756 C 0.86599 0.33557 0.01863 0.0
C757 C 0.88907 0.34914 0.89148 0.0
C758 C 0.84787 0.31958 0.04218 0.0
C759 C 0.96654 0.40886 0.79583 0.0
C760 C 0.95055 0.39234 0.82364 0.0
C761 C 0.92777 0.37901 0.95074 0.0
C762 C 0.8713 0.33065 0.97163 0.0
C763 C 0.89038 0.34775 0.94587 0.0
C764 C 0.94505 0.39755 0.86986 0.0
C765 C 0.92642 0.38027 0.89635 0.0
H766 H 0.8298 0.27711 0.95405 0.0
H767 H 0.86169 0.30474 0.91327 0.0
H768 H 0.91176 0.36218 0.01708 0.0
H769 H 0.98074 0.45308 0.87575 0.0
H770 H 0.95286 0.42419 0.92429 0.0
C771 C 0.82142 0.50916 0.89928 0.0
C772 C 0.83018 0.52482 0.94073 0.0
C773 C 0.8351 0.5078 0.866 0.0
C774 C 0.89118 0.53821 0.8238 0.0
H775 H 0.88061 0.47946 0.79238 0.0
C776 C 0.94871 0.52349 0.70631 0.0
C777 C 0.9554 0.50933 0.7305 0.0
C778 C 0.93121 0.52491 0.72318 0.0
C779 C 0.88373 0.49598 0.80057 0.0
H780 H 0.86029 0.55151 0.97917 0.0
H781 H 0.88412 0.54912 0.92125 0.0
H782 H 0.85488 0.48374 0.83974 0.0
H783 H 0.9484 0.48483 0.78969 0.0
H784 H 0.91808 0.48719 0.8187 0.0
H785 H 0.92055 0.55041 0.78634 0.0
C786 C 0.86661 0.53807 0.914 0.0
C787 C 0.86888 0.49845 0.82737 0.0
C788 C 0.85293 0.53942 0.94732 0.0
C789 C 0.9437 0.49598 0.7703 0.0
C790 C 0.92618 0.4972 0.78672 0.0
C791 C 0.90601 0.53574 0.79676 0.0
C792 C 0.85789 0.52209 0.87326 0.0
C793 C 0.87264 0.51959 0.84032 0.0
C794 C 0.91995 0.51196 0.76408 0.0
C795 C 0.90271 0.51459 0.78591 0.0
H796 H 0.80393 0.49794 0.89241 0.0
H797 H 0.82779 0.49552 0.83456 0.0
H798 H 0.89442 0.55473 0.83254 0.0
H799 H 0.95755 0.53417 0.67613 0.0
H800 H 0.92672 0.53637 0.7048 0.0
C801 C 0.33581 0.81573 0.93627 0.0
C802 C 0.31403 0.81102 0.92792 0.0
C803 C 0.35022 0.82664 0.89895 0.0
C804 C 0.3536 0.84675 0.76285 0.0
H805 H 0.41158 0.89121 0.82108 0.0
C806 C 0.41356 0.92685 0.66371 0.0
C807 C 0.43609 0.9346 0.6754 0.0
C808 C 0.39813 0.90723 0.68474 0.0
C809 C 0.3956 0.87861 0.804 0.0
H810 H 0.28991 0.81334 0.87391 0.0
H811 H 0.31529 0.83335 0.80945 0.0
H812 H 0.38574 0.86593 0.87807 0.0
H813 H 0.45997 0.92645 0.71266 0.0
H814 H 0.43308 0.89232 0.74895 0.0
H815 H 0.36347 0.86067 0.6888 0.0
C816 C 0.3212 0.82809 0.84397 0.0
C817 C 0.38072 0.864 0.83675 0.0
C818 C 0.30666 0.81676 0.88097 0.0
C819 C 0.44276 0.92119 0.70378 0.0
C820 C 0.42737 0.90165 0.72467 0.0
C821 C 0.36849 0.86165 0.73001 0.0
C822 C 0.3433 0.83358 0.85296 0.0
C823 C 0.35945 0.84795 0.81681 0.0
C824 C 0.40502 0.89507 0.71758 0.0
C825 C 0.3896 0.87779 0.75042 0.0
H826 H 0.34174 0.81117 0.972 0.0
H827 H 0.36694 0.83001 0.90669 0.0
H828 H 0.33746 0.83444 0.74599 0.0
H829 H 0.40788 0.93669 0.64156 0.0
H830 H 0.38098 0.90252 0.67856 0.0
C831 C 0.47948 0.31544 0.07178 0.0
C832 C 0.48729 0.30314 0.04889 0.0
C833 C 0.47881 0.33281 0.04533 0.0
C834 C 0.48979 0.37584 0.99102 0.0
H835 H 0.47136 0.36688 0.84328 0.0
C836 C 0.49855 0.44631 0.855 0.0
C837 C 0.48226 0.44105 0.81329 0.0
C838 C 0.49813 0.42977 0.88722 0.0
C839 C 0.47629 0.36959 0.88463 0.0
H840 H 0.50006 0.29863 0.98071 0.0
H841 H 0.49955 0.32937 0.93479 0.0
H842 H 0.47272 0.33748 0.89244 0.0
H843 H 0.45202 0.41453 0.77469 0.0
H844 H 0.45104 0.38589 0.83142 0.0
H845 H 0.49291 0.40788 0.98314 0.0
C846 C 0.49379 0.32564 0.9729 0.0
C847 C 0.47739 0.35283 0.91269 0.0
C848 C 0.49437 0.30826 0.99929 0.0
C849 C 0.46501 0.41911 0.806 0.0
C850 C 0.4645 0.40265 0.83839 0.0
C851 C 0.48863 0.39264 0.96289 0.0
C852 C 0.48582 0.338 0.99539 0.0
C853 C 0.4843 0.3558 0.96612 0.0
C854 C 0.48132 0.40767 0.87858 0.0
C855 C 0.48192 0.38972 0.90931 0.0
H856 H 0.47365 0.31142 0.10983 0.0
H857 H 0.4723 0.34178 0.06341 0.0
H858 H 0.49532 0.3787 0.03209 0.0
H859 H 0.51209 0.46305 0.86162 0.0
H860 H 0.51143 0.43418 0.91758 0.0
C861 C 0.19312 0.5078 0.0241 0.0
C862 C 0.21271 0.50851 0.0165 0.0
C863 C 0.18102 0.51111 0.9827 0.0
C864 C 0.16429 0.52989 0.89667 0.0
H865 H 0.15096 0.49633 0.76799 0.0
C866 C 0.09552 0.52293 0.75327 0.0
C867 C 0.08029 0.5011 0.73687 0.0
C868 C 0.11672 0.52855 0.77326 0.0
C869 C 0.15461 0.5059 0.80357 0.0
H870 H 0.23543 0.51325 0.96112 0.0
H871 H 0.21415 0.51916 0.88778 0.0
H872 H 0.17833 0.49704 0.83461 0.0
H873 H 0.07556 0.46842 0.72394 0.0
H874 H 0.1122 0.4778 0.76151 0.0
H875 H 0.13961 0.53743 0.86819 0.0
C876 C 0.20811 0.51597 0.9256 0.0
C877 C 0.17044 0.50648 0.84148 0.0
C878 C 0.22026 0.51268 0.96726 0.0
C879 C 0.08705 0.48536 0.73669 0.0
C880 C 0.10813 0.49083 0.75789 0.0
C881 C 0.14842 0.52918 0.85915 0.0
C882 C 0.18837 0.51523 0.93301 0.0
C883 C 0.17478 0.5178 0.88918 0.0
C884 C 0.12288 0.51226 0.77862 0.0
C885 C 0.14281 0.51655 0.81286 0.0
H886 H 0.18712 0.50449 0.062 0.0
H887 H 0.16565 0.50997 0.98941 0.0
H888 H 0.16763 0.53912 0.93268 0.0
H889 H 0.09077 0.53548 0.75258 0.0
H890 H 0.12788 0.54537 0.78726 0.0
C891 C 0.70882 0.1633 0.92384 0.0
C892 C 0.71735 0.18627 0.92539 0.0
C893 C 0.6946 0.15043 0.88137 0.0
C894 C 0.65361 0.1512 0.78689 0.0
H895 H 0.64795 0.09671 0.7354 0.0
C896 C 0.57186 0.07428 0.72755 0.0
C897 C 0.56928 0.06221 0.68235 0.0
C898 C 0.59213 0.09236 0.74446 0.0
C899 C 0.64956 0.1121 0.7486 0.0
H900 H 0.71927 0.21402 0.88187 0.0
H901 H 0.6943 0.19151 0.80792 0.0
H902 H 0.68152 0.12304 0.78817 0.0
H903 H 0.58569 0.05944 0.61933 0.0
H904 H 0.62158 0.0911 0.64961 0.0
H905 H 0.62125 0.13975 0.74968 0.0
C906 C 0.69832 0.18342 0.83986 0.0
C907 C 0.66863 0.12704 0.77911 0.0
C908 C 0.71252 0.19627 0.88225 0.0
C909 C 0.58724 0.06874 0.65378 0.0
C910 C 0.60773 0.08667 0.67127 0.0
C911 C 0.63453 0.13621 0.75685 0.0
C912 C 0.68869 0.16032 0.8397 0.0
C913 C 0.67054 0.1464 0.79988 0.0
C914 C 0.61031 0.09852 0.71697 0.0
C915 C 0.63205 0.11622 0.73893 0.0
H916 H 0.71216 0.15512 0.9566 0.0
H917 H 0.68724 0.13263 0.88263 0.0
H918 H 0.65449 0.16587 0.80265 0.0
H919 H 0.55823 0.06958 0.7502 0.0
H920 H 0.59377 0.10104 0.7802 0.0
C921 C 0.55019 0.69892 0.91954 0.0
C922 C 0.55639 0.7072 0.97087 0.0
C923 C 0.55295 0.68155 0.90456 0.0
C924 C 0.55262 0.6326 0.94424 0.0
H925 H 0.58431 0.64138 0.82426 0.0
C926 C 0.56871 0.58485 0.77186 0.0
C927 C 0.54663 0.57029 0.75466 0.0
C928 C 0.57423 0.59852 0.81562 0.0
C929 C 0.57588 0.63864 0.85864 0.0
H930 H 0.56981 0.7038 0.04727 0.0
H931 H 0.57412 0.67267 0.02099 0.0
H932 H 0.58582 0.67289 0.86613 0.0
H933 H 0.51317 0.5565 0.77299 0.0
H934 H 0.52273 0.58094 0.84841 0.0
H935 H 0.54149 0.59803 0.93453 0.0
C936 C 0.56746 0.67994 0.99252 0.0
C937 C 0.57662 0.65669 0.88222 0.0
C938 C 0.56509 0.69766 0.00733 0.0
C939 C 0.53031 0.5678 0.78516 0.0
C940 C 0.53583 0.58169 0.82865 0.0
C941 C 0.55168 0.61438 0.92023 0.0
C942 C 0.56162 0.67198 0.94089 0.0
C943 C 0.56437 0.65368 0.92386 0.0
C944 C 0.55775 0.59807 0.84238 0.0
C945 C 0.56269 0.61717 0.87601 0.0
H946 H 0.54349 0.7061 0.89091 0.0
H947 H 0.54818 0.67545 0.86459 0.0
H948 H 0.54304 0.63002 0.97641 0.0
H949 H 0.58165 0.58662 0.74975 0.0
H950 H 0.59129 0.61062 0.82613 0.0
C951 C 0.46951 0.17676 0.27871 0.0
C952 C 0.47706 0.19671 0.30654 0.0
C953 C 0.46977 0.15886 0.3028 0.0
C954 C 0.4865 0.13004 0.3534 0.0
H955 H 0.46481 0.11037 0.48721 0.0
C956 C 0.49694 0.06374 0.47225 0.0
C957 C 0.47914 0.04884 0.4988 0.0
C958 C 0.49646 0.08123 0.44588 0.0
C959 C 0.4708 0.1156 0.44964 0.0
H960 H 0.48973 0.21326 0.38193 0.0
H961 H 0.49015 0.18163 0.42478 0.0
H962 H 0.46451 0.14261 0.44934 0.0
H963 H 0.44622 0.03966 0.51499 0.0
H964 H 0.44537 0.06995 0.46865 0.0
H965 H 0.49256 0.1029 0.35339 0.0
C966 C 0.48419 0.18003 0.38404 0.0
C967 C 0.47087 0.1342 0.42832 0.0
C968 C 0.48399 0.19808 0.35969 0.0
C969 C 0.46033 0.05096 0.49549 0.0
C970 C 0.45988 0.06844 0.46931 0.0
C971 C 0.48656 0.11153 0.37485 0.0
C972 C 0.47746 0.16039 0.35544 0.0
C973 C 0.4785 0.14146 0.37972 0.0
C974 C 0.47818 0.08414 0.44563 0.0
C975 C 0.47849 0.10398 0.42294 0.0
H976 H 0.46358 0.17498 0.23798 0.0
H977 H 0.46395 0.14378 0.28009 0.0
H978 H 0.49273 0.13543 0.31609 0.0
H979 H 0.5117 0.06263 0.47408 0.0
H980 H 0.51081 0.09309 0.42791 0.0
C981 C 0.30574 0.47322 0.30583 0.0
C982 C 0.29303 0.48188 0.32107 0.0
C983 C 0.32183 0.47298 0.34104 0.0
C984 C 0.36581 0.49588 0.40126 0.0
H985 H 0.36662 0.48782 0.55 0.0
C986 C 0.44696 0.53041 0.52138 0.0
C987 C 0.44971 0.51518 0.55269 0.0
C988 C 0.42605 0.52626 0.50339 0.0
C989 C 0.36653 0.49006 0.50848 0.0
H990 H 0.28544 0.49516 0.38531 0.0
H991 H 0.31432 0.49561 0.44693 0.0
H992 H 0.33169 0.47671 0.49712 0.0
H993 H 0.43316 0.48454 0.59307 0.0
H994 H 0.39624 0.47689 0.5604 0.0
H995 H 0.4003 0.50897 0.41176 0.0
C996 C 0.3117 0.48871 0.40815 0.0
C997 C 0.34663 0.48378 0.47833 0.0
C998 C 0.29533 0.48863 0.37298 0.0
C999 C 0.43131 0.49659 0.56934 0.0
C1000 C 0.41024 0.49223 0.5506 0.0
C1001 C 0.38551 0.50214 0.43113 0.0
C1002 C 0.32573 0.48178 0.39178 0.0
C1003 C 0.34614 0.48669 0.42437 0.0
C1004 C 0.40754 0.50652 0.51537 0.0
C1005 C 0.38618 0.4996 0.48507 0.0
H1006 H 0.30397 0.46772 0.26598 0.0
H1007 H 0.33204 0.46703 0.32772 0.0
H1008 H 0.36612 0.49878 0.36001 0.0
H1009 H 0.46102 0.54495 0.50853 0.0
H1010 H 0.4244 0.53782 0.47733 0.0
C1011 C 0.85632 0.32166 0.3115 0.0
C1012 C 0.84728 0.32243 0.26135 0.0
C1013 C 0.87508 0.34027 0.33388 0.0
C1014 C 0.90751 0.40095 0.32343 0.0
H1015 H 0.94898 0.39325 0.41832 0.0
C1016 C 0.96314 0.46348 0.48658 0.0
C1017 C 0.98179 0.46287 0.50819 0.0
C1018 C 0.95027 0.4497 0.44392 0.0
C1019 C 0.93795 0.39593 0.39103 0.0
H1020 H 0.85101 0.34276 0.19433 0.0
H1021 H 0.88405 0.37514 0.23293 0.0
H1022 H 0.91957 0.36166 0.36906 0.0
H1023 H 0.00341 0.44995 0.49877 0.0
H1024 H 0.98171 0.42686 0.42246 0.0
H1025 H 0.92613 0.43535 0.34502 0.0
C1026 C 0.87638 0.36046 0.25563 0.0
C1027 C 0.92076 0.37763 0.3635 0.0
C1028 C 0.85749 0.34194 0.23353 0.0
C1029 C 0.98881 0.45032 0.48316 0.0
C1030 C 0.97628 0.43699 0.43978 0.0
C1031 C 0.9249 0.41937 0.35055 0.0
C1032 C 0.88534 0.35989 0.30618 0.0
C1033 C 0.90496 0.37979 0.33064 0.0
C1034 C 0.95615 0.43546 0.42169 0.0
C1035 C 0.93998 0.41697 0.38584 0.0
H1036 H 0.84864 0.30682 0.33373 0.0
H1037 H 0.88129 0.33938 0.37329 0.0
H1038 H 0.89559 0.40321 0.29849 0.0
H1039 H 0.95743 0.47307 0.50535 0.0
H1040 H 0.93487 0.44898 0.43127 0.0
C1041 C 0.51502 0.85796 0.15239 0.0
C1042 C 0.53013 0.85944 0.11927 0.0
C1043 C 0.51415 0.87675 0.1652 0.0
C1044 C 0.55104 0.93595 0.18106 0.0
H1045 H 0.49918 0.9341 0.22304 0.0
C1046 C 0.52304 0.98658 0.31767 0.0
C1047 C 0.53727 0.98903 0.36228 0.0
C1048 C 0.52293 0.97566 0.27314 0.0
C1049 C 0.5138 0.93518 0.21047 0.0
H1050 H 0.55482 0.8811 0.06993 0.0
H1051 H 0.55327 0.91402 0.09226 0.0
H1052 H 0.49529 0.90441 0.16766 0.0
H1053 H 0.5635 0.98323 0.39391 0.0
H1054 H 0.56309 0.96398 0.3168 0.0
H1055 H 0.56956 0.96632 0.22535 0.0
C1056 C 0.54242 0.89847 0.10913 0.0
C1057 C 0.51157 0.91805 0.17923 0.0
C1058 C 0.54337 0.87969 0.09653 0.0
C1059 C 0.5522 0.98146 0.36042 0.0
C1060 C 0.55214 0.97064 0.31593 0.0
C1061 C 0.55326 0.95311 0.21213 0.0
C1062 C 0.52828 0.89733 0.14485 0.0
C1063 C 0.5302 0.91774 0.16636 0.0
C1064 C 0.53713 0.96713 0.27231 0.0
C1065 C 0.53471 0.95232 0.22922 0.0
H1066 H 0.50469 0.84255 0.17052 0.0
H1067 H 0.5033 0.87537 0.19346 0.0
H1068 H 0.56575 0.93621 0.17196 0.0
H1069 H 0.51143 0.99238 0.31767 0.0
H1070 H 0.51132 0.97332 0.2399 0.0
C1071 C 0.68179 0.51536 0.23781 0.0
C1072 C 0.70459 0.52962 0.24603 0.0
C1073 C 0.66802 0.51507 0.27319 0.0
C1074 C 0.66503 0.5485 0.37704 0.0
H1075 H 0.61574 0.49255 0.41038 0.0
C1076 C 0.6061 0.54424 0.52144 0.0
C1077 C 0.58366 0.53098 0.50484 0.0
C1078 C 0.62187 0.54282 0.49581 0.0
C1079 C 0.62936 0.50833 0.40131 0.0
H1080 H 0.7307 0.55473 0.2984 0.0
H1081 H 0.70662 0.55434 0.35998 0.0
H1082 H 0.64123 0.49304 0.35307 0.0
H1083 H 0.56025 0.50485 0.45017 0.0
H1084 H 0.5876 0.50251 0.4056 0.0
H1085 H 0.65295 0.56383 0.42447 0.0
C1086 C 0.6994 0.54349 0.32581 0.0
C1087 C 0.64396 0.50862 0.36835 0.0
C1088 C 0.71321 0.54375 0.29041 0.0
C1089 C 0.57736 0.51541 0.46396 0.0
C1090 C 0.5931 0.51398 0.43845 0.0
C1091 C 0.65041 0.54822 0.40995 0.0
C1092 C 0.67663 0.52907 0.31776 0.0
C1093 C 0.66182 0.52872 0.35521 0.0
C1094 C 0.61557 0.52804 0.45316 0.0
C1095 C 0.63221 0.52815 0.42198 0.0
H1096 H 0.67451 0.50454 0.20362 0.0
H1097 H 0.65053 0.50408 0.26517 0.0
H1098 H 0.67846 0.5643 0.36733 0.0
H1099 H 0.61157 0.55631 0.553 0.0
H1100 H 0.63903 0.55361 0.50879 0.0
C1101 C 0.18364 0.72275 0.30537 0.0
C1102 C 0.18063 0.72287 0.25113 0.0
C1103 C 0.16613 0.70876 0.3332 0.0
C1104 C 0.10514 0.67154 0.31926 0.0
H1105 H 0.11829 0.64641 0.44337 0.0
C1106 C 0.04405 0.59293 0.42474 0.0
C1107 C 0.04434 0.59636 0.47816 0.0
C1108 C 0.05908 0.60977 0.39558 0.0
C1109 C 0.11445 0.65344 0.4089 0.0
H1110 H 0.15736 0.70863 0.183 0.0
H1111 H 0.127 0.68334 0.23102 0.0
H1112 H 0.14804 0.67287 0.3957 0.0
H1113 H 0.06015 0.62042 0.54235 0.0
H1114 H 0.08666 0.64944 0.49157 0.0
H1115 H 0.07128 0.6509 0.33177 0.0
C1116 C 0.14251 0.69455 0.25266 0.0
C1117 C 0.13148 0.66876 0.38172 0.0
C1118 C 0.1599 0.70891 0.225 0.0
C1119 C 0.05941 0.61721 0.50129 0.0
C1120 C 0.07465 0.63382 0.47241 0.0
C1121 C 0.08805 0.6558 0.34594 0.0
C1122 C 0.14539 0.69417 0.30719 0.0
C1123 C 0.12711 0.67812 0.33658 0.0
C1124 C 0.07485 0.63009 0.41963 0.0
C1125 C 0.09263 0.64675 0.39106 0.0
H1126 H 0.19953 0.73354 0.32615 0.0
H1127 H 0.16893 0.70939 0.37514 0.0
H1128 H 0.10107 0.67861 0.28527 0.0
H1129 H 0.03261 0.57708 0.4058 0.0
H1130 H 0.05906 0.60658 0.35485 0.0
loop_
_geom_bond_atom_site_label_1
_geom_bond_atom_site_label_2
_geom_bond_distance
_geom_bond_site_symmetry_2
_ccdc_geom_bond_type
C0 C1 1.443 . S
C0 N4 1.376 . S
C0 C38 1.389 . S
C1 C0 1.443 . S
C1 C2 1.340 . S
C1 H41 0.951 . S
C2 C1 1.340 . S
C2 C3 1.439 . S
C2 H42 0.950 . S
C3 C2 1.439 . S
C3 N4 1.374 . S
C3 C37 1.395 . S
N4 C0 1.376 . S
N4 C3 1.374 . S
N4 Co5 2.008 . S
Co5 N4 2.008 . S
Co5 N6 1.995 . S
Co5 N11 2.008 . S
Co5 N16 1.995 . S
Co5 N21 2.282 . S
Co5 N27 2.282 . S
N6 Co5 1.995 . S
N6 C7 1.376 . S
N6 C10 1.383 . S
C7 N6 1.376 . S
C7 C8 1.446 . S
C7 C37 1.391 . S
C8 C7 1.446 . S
C8 C9 1.339 . S
C8 H43 0.949 . S
C9 C8 1.339 . S
C9 C10 1.439 . S
C9 H44 0.950 . S
C10 N6 1.383 . S
C10 C9 1.439 . S
C10 C39 1.392 . S
N11 Co5 2.008 . S
N11 C12 1.376 . S
N11 C15 1.374 . S
C12 N11 1.376 . S
C12 C13 1.443 . S
C12 C39 1.389 . S
C13 C12 1.443 . S
C13 C14 1.340 . S
C13 H45 0.951 . S
C14 C13 1.340 . S
C14 C15 1.439 . S
C14 H46 0.950 . S
C15 N11 1.374 . S
C15 C14 1.439 . S
C15 C40 1.395 . S
N16 Co5 1.995 . S
N16 C17 1.376 . S
N16 C20 1.383 . S
C17 N16 1.376 . S
C17 C18 1.446 . S
C17 C40 1.391 . S
C18 C17 1.446 . S
C18 C19 1.339 . S
C18 H47 0.949 . S
C19 C18 1.339 . S
C19 C20 1.439 . S
C19 H48 0.950 . S
C20 N16 1.383 . S
C20 C19 1.439 . S
C20 C38 1.392 . S
N21 Co5 2.282 . S
N21 C24 1.332 . S
N21 C26 1.332 . S
C22 C23 1.386 . S
C22 C25 1.388 . S
C23 C22 1.386 . S
C23 C24 1.382 . S
C23 H49 0.950 . S
C24 N21 1.332 . S
C24 C23 1.382 . S
C24 H35 0.952 . S
C25 C22 1.388 . S
C25 C26 1.382 . S
C25 H50 0.950 . S
C26 N21 1.332 . S
C26 C25 1.382 . S
C26 H36 0.948 . S
N27 Co5 2.282 . S
N27 C31 1.332 . S
N27 C32 1.332 . S
C28 C29 1.388 . S
C28 C32 1.382 . S
C28 H51 0.950 . S
C29 C28 1.388 . S
C29 C30 1.386 . S
C30 C29 1.386 . S
C30 C31 1.382 . S
C30 H52 0.950 . S
C31 N27 1.332 . S
C31 C30 1.382 . S
C31 H33 0.952 . S
C32 N27 1.332 . S
C32 C28 1.382 . S
C32 H34 0.948 . S
H33 C31 0.952 . S
H34 C32 0.948 . S
H35 C24 0.952 . S
H36 C26 0.948 . S
C37 C3 1.395 . S
C37 C7 1.391 . S
C38 C0 1.389 . S
C38 C20 1.392 . S
C39 C10 1.392 . S
C39 C12 1.389 . S
C40 C15 1.395 . S
C40 C17 1.391 . S
H41 C1 0.951 . S
H42 C2 0.950 . S
H43 C8 0.949 . S
H44 C9 0.950 . S
H45 C13 0.951 . S
H46 C14 0.950 . S
H47 C18 0.949 . S
H48 C19 0.950 . S
H49 C23 0.950 . S
H50 C25 0.950 . S
H51 C28 0.950 . S
H52 C30 0.950 . S
C53 C54 1.443 . S
C53 N57 1.376 . S
C53 C91 1.389 . S
C54 C53 1.443 . S
C54 C55 1.340 . S
C54 H94 0.951 . S
C55 C54 1.340 . S
C55 C56 1.439 . S
C55 H95 0.950 . S
C56 C55 1.439 . S
C56 N57 1.374 . S
C56 C90 1.395 . S
N57 C53 1.376 . S
N57 C56 1.374 . S
N57 Co58 2.008 . S
Co58 N57 2.008 . S
Co58 N59 1.995 . S
Co58 N64 2.008 . S
Co58 N69 1.995 . S
Co58 N74 2.282 . S
Co58 N80 2.282 . S
N59 Co58 1.995 . S
N59 C60 1.376 . S
N59 C63 1.383 . S
C60 N59 1.376 . S
C60 C61 1.446 . S
C60 C90 1.391 . S
C61 C60 1.446 . S
C61 C62 1.339 . S
C61 H96 0.949 . S
C62 C61 1.339 . S
C62 C63 1.439 . S
C62 H97 0.950 . S
C63 N59 1.383 . S
C63 C62 1.439 . S
C63 C92 1.392 . S
N64 Co58 2.008 . S
N64 C65 1.376 . S
N64 C68 1.374 . S
C65 N64 1.376 . S
C65 C66 1.443 . S
C65 C92 1.389 . S
C66 C65 1.443 . S
C66 C67 1.340 . S
C66 H98 0.951 . S
C67 C66 1.340 . S
C67 C68 1.439 . S
C67 H99 0.950 . S
C68 N64 1.374 . S
C68 C67 1.439 . S
C68 C93 1.395 . S
N69 Co58 1.995 . S
N69 C70 1.376 . S
N69 C73 1.383 . S
C70 N69 1.376 . S
C70 C71 1.446 . S
C70 C93 1.391 . S
C71 C70 1.446 . S
C71 C72 1.339 . S
C71 H100 0.949 . S
C72 C71 1.339 . S
C72 C73 1.439 . S
C72 H101 0.950 . S
C73 N69 1.383 . S
C73 C72 1.439 . S
C73 C91 1.392 . S
N74 Co58 2.282 . S
N74 C77 1.332 . S
N74 C79 1.332 . S
C75 C76 1.386 . S
C75 C78 1.388 . S
C76 C75 1.386 . S
C76 C77 1.382 . S
C76 H102 0.950 . S
C77 N74 1.332 . S
C77 C76 1.382 . S
C77 H88 0.952 . S
C78 C75 1.388 . S
C78 C79 1.382 . S
C78 H103 0.950 . S
C79 N74 1.332 . S
C79 C78 1.382 . S
C79 H89 0.948 . S
N80 Co58 2.282 . S
N80 C84 1.332 . S
N80 C85 1.332 . S
C81 C82 1.388 . S
C81 C85 1.382 . S
C81 H104 0.950 . S
C82 C81 1.388 . S
C82 C83 1.386 . S
C83 C82 1.386 . S
C83 C84 1.382 . S
C83 H105 0.950 . S
C84 N80 1.332 . S
C84 C83 1.382 . S
C84 H86 0.952 . S
C85 N80 1.332 . S
C85 C81 1.382 . S
C85 H87 0.948 . S
H86 C84 0.952 . S
H87 C85 0.948 . S
H88 C77 0.952 . S
H89 C79 0.948 . S
C90 C56 1.395 . S
C90 C60 1.391 . S
C91 C53 1.389 . S
C91 C73 1.392 . S
C92 C63 1.392 . S
C92 C65 1.389 . S
C93 C68 1.395 . S
C93 C70 1.391 . S
H94 C54 0.951 . S
H95 C55 0.950 . S
H96 C61 0.949 . S
H97 C62 0.950 . S
H98 C66 0.951 . S
H99 C67 0.950 . S
H100 C71 0.949 . S
H101 C72 0.950 . S
H102 C76 0.950 . S
H103 C78 0.950 . S
H104 C81 0.950 . S
H105 C83 0.950 . S
C106 C107 1.443 . S
C106 N110 1.376 . S
C106 C144 1.389 . S
C107 C106 1.443 . S
C107 C108 1.340 . S
C107 H147 0.951 . S
C108 C107 1.340 . S
C108 C109 1.439 . S
C108 H148 0.950 . S
C109 C108 1.439 . S
C109 N110 1.374 . S
C109 C143 1.395 . S
N110 C106 1.376 . S
N110 C109 1.374 . S
N110 Co111 2.008 . S
Co111 N110 2.008 . S
Co111 N112 1.995 1_554 S
Co111 N117 2.008 1_554 S
Co111 N122 1.995 . S
Co111 N127 2.282 . S
Co111 N133 2.282 1_554 S
N112 Co111 1.995 1_556 S
N112 C113 1.376 . S
N112 C116 1.383 . S
C113 N112 1.376 . S
C113 C114 1.446 . S
C113 C143 1.391 1_556 S
C114 C113 1.446 . S
C114 C115 1.339 . S
C114 H149 0.949 . S
C115 C114 1.339 . S
C115 C116 1.439 . S
C115 H150 0.950 . S
C116 N112 1.383 . S
C116 C115 1.439 . S
C116 C145 1.392 . S
N117 Co111 2.008 1_556 S
N117 C118 1.376 . S
N117 C121 1.374 . S
C118 N117 1.376 . S
C118 C119 1.443 . S
C118 C145 1.389 . S
C119 C118 1.443 . S
C119 C120 1.340 . S
C119 H151 0.951 . S
C120 C119 1.340 . S
C120 C121 1.439 . S
C120 H152 0.950 . S
C121 N117 1.374 . S
C121 C120 1.439 . S
C121 C146 1.395 1_556 S
N122 Co111 1.995 . S
N122 C123 1.376 . S
N122 C126 1.383 . S
C123 N122 1.376 . S
C123 C124 1.446 . S
C123 C146 1.391 . S
C124 C123 1.446 . S
C124 C125 1.339 . S
C124 H153 0.949 . S
C125 C124 1.339 . S
C125 C126 1.439 . S
C125 H154 0.950 . S
C126 N122 1.383 . S
C126 C125 1.439 . S
C126 C144 1.392 . S
N127 Co111 2.282 . S
N127 C130 1.332 . S
N127 C132 1.332 . S
C128 C129 1.386 . S
C128 C131 1.388 . S
C129 C128 1.386 . S
C129 C130 1.382 . S
C129 H155 0.950 . S
C130 N127 1.332 . S
C130 C129 1.382 . S
C130 H141 0.952 . S
C131 C128 1.388 . S
C131 C132 1.382 . S
C131 H156 0.950 . S
C132 N127 1.332 . S
C132 C131 1.382 . S
C132 H142 0.948 . S
N133 Co111 2.282 1_556 S
N133 C137 1.332 . S
N133 C138 1.332 . S
C134 C135 1.388 . S
C134 C138 1.382 . S
C134 H157 0.950 . S
C135 C134 1.388 . S
C135 C136 1.386 . S
C136 C135 1.386 . S
C136 C137 1.382 . S
C136 H158 0.950 . S
C137 N133 1.332 . S
C137 C136 1.382 . S
C137 H139 0.952 . S
C138 N133 1.332 . S
C138 C134 1.382 . S
C138 H140 0.948 . S
H139 C137 0.952 . S
H140 C138 0.948 . S
H141 C130 0.952 . S
H142 C132 0.948 . S
C143 C109 1.395 . S
C143 C113 1.391 1_554 S
C144 C106 1.389 . S
C144 C126 1.392 . S
C145 C116 1.392 . S
C145 C118 1.389 . S
C146 C121 1.395 1_554 S
C146 C123 1.391 . S
H147 C107 0.951 . S
H148 C108 0.950 . S
H149 C114 0.949 . S
H150 C115 0.950 . S
H151 C119 0.951 . S
H152 C120 0.950 . S
H153 C124 0.949 . S
H154 C125 0.950 . S
H155 C129 0.950 . S
H156 C131 0.950 . S
H157 C134 0.950 . S
H158 C136 0.950 . S
C159 C160 1.443 . S
C159 N163 1.376 . S
C159 C197 1.389 . S
C160 C159 1.443 . S
C160 C161 1.340 . S
C160 H200 0.951 . S
C161 C160 1.340 . S
C161 C162 1.439 . S
C161 H201 0.950 . S
C162 C161 1.439 . S
C162 N163 1.374 . S
C162 C196 1.395 . S
N163 C159 1.376 . S
N163 C162 1.374 . S
N163 Co164 2.008 . S
Co164 N163 2.008 . S
Co164 N165 1.995 . S
Co164 N170 2.008 . S
Co164 N175 1.995 . S
Co164 N180 2.282 . S
Co164 N186 2.282 . S
N165 Co164 1.995 . S
N165 C166 1.376 . S
N165 C169 1.383 . S
C166 N165 1.376 . S
C166 C167 1.446 . S
C166 C196 1.391 . S
C167 C166 1.446 . S
C167 C168 1.339 1_554 S
C167 H202 0.949 . S
C168 C167 1.339 1_556 S
C168 C169 1.439 1_556 S
C168 H203 0.950 . S
C169 N165 1.383 . S
C169 C168 1.439 1_554 S
C169 C198 1.392 1_554 S
N170 Co164 2.008 . S
N170 C171 1.376 . S
N170 C174 1.374 . S
C171 N170 1.376 . S
C171 C172 1.443 1_554 S
C171 C198 1.389 1_554 S
C172 C171 1.443 1_556 S
C172 C173 1.340 1_556 S
C172 H204 0.951 . S
C173 C172 1.340 1_554 S
C173 C174 1.439 . S
C173 H205 0.950 . S
C174 N170 1.374 . S
C174 C173 1.439 . S
C174 C199 1.395 . S
N175 Co164 1.995 . S
N175 C176 1.376 . S
N175 C179 1.383 . S
C176 N175 1.376 . S
C176 C177 1.446 . S
C176 C199 1.391 . S
C177 C176 1.446 . S
C177 C178 1.339 . S
C177 H206 0.949 . S
C178 C177 1.339 . S
C178 C179 1.439 . S
C178 H207 0.950 . S
C179 N175 1.383 . S
C179 C178 1.439 . S
C179 C197 1.392 . S
N180 Co164 2.282 . S
N180 C183 1.332 . S
N180 C185 1.332 . S
C181 C182 1.386 . S
C181 C184 1.388 . S
C182 C181 1.386 . S
C182 C183 1.382 . S
C182 H208 0.950 . S
C183 N180 1.332 . S
C183 C182 1.382 . S
C183 H194 0.952 . S
C184 C181 1.388 . S
C184 C185 1.382 . S
C184 H209 0.950 . S
C185 N180 1.332 . S
C185 C184 1.382 . S
C185 H195 0.948 . S
N186 Co164 2.282 . S
N186 C190 1.332 1_554 S
N186 C191 1.332 . S
C187 C188 1.388 . S
C187 C191 1.382 1_556 S
C187 H210 0.950 . S
C188 C187 1.388 . S
C188 C189 1.386 . S
C189 C188 1.386 . S
C189 C190 1.382 . S
C189 H211 0.950 . S
C190 N186 1.332 1_556 S
C190 C189 1.382 . S
C190 H192 0.952 1_556 S
C191 N186 1.332 . S
C191 C187 1.382 1_554 S
C191 H193 0.948 . S
H192 C190 0.952 1_554 S
H193 C191 0.948 . S
H194 C183 0.952 . S
H195 C185 0.948 . S
C196 C162 1.395 . S
C196 C166 1.391 . S
C197 C159 1.389 . S
C197 C179 1.392 . S
C198 C169 1.392 1_556 S
C198 C171 1.389 1_556 S
C199 C174 1.395 . S
C199 C176 1.391 . S
H200 C160 0.951 . S
H201 C161 0.950 . S
H202 C167 0.949 . S
H203 C168 0.950 . S
H204 C172 0.951 . S
H205 C173 0.950 . S
H206 C177 0.949 . S
H207 C178 0.950 . S
H208 C182 0.950 . S
H209 C184 0.950 . S
H210 C187 0.950 . S
H211 C189 0.950 . S
C212 C213 1.443 . S
C212 N216 1.376 . S
C212 C250 1.389 . S
C213 C212 1.443 . S
C213 C214 1.340 . S
C213 H253 0.951 . S
C214 C213 1.340 . S
C214 C215 1.439 . S
C214 H254 0.950 . S
C215 C214 1.439 . S
C215 N216 1.374 . S
C215 C249 1.395 . S
N216 C212 1.376 . S
N216 C215 1.374 . S
N216 Co217 2.008 . S
Co217 N216 2.008 . S
Co217 N218 1.995 . S
Co217 N223 2.008 . S
Co217 N228 1.995 . S
Co217 N233 2.282 . S
Co217 N239 2.282 . S
N218 Co217 1.995 . S
N218 C219 1.376 . S
N218 C222 1.383 . S
C219 N218 1.376 . S
C219 C220 1.446 . S
C219 C249 1.391 . S
C220 C219 1.446 . S
C220 C221 1.339 1_554 S
C220 H255 0.949 1_554 S
C221 C220 1.339 1_556 S
C221 C222 1.439 1_556 S
C221 H256 0.950 . S
C222 N218 1.383 . S
C222 C221 1.439 1_554 S
C222 C251 1.392 . S
N223 Co217 2.008 . S
N223 C224 1.376 . S
N223 C227 1.374 . S
C224 N223 1.376 . S
C224 C225 1.443 . S
C224 C251 1.389 . S
C225 C224 1.443 . S
C225 C226 1.340 . S
C225 H257 0.951 1_554 S
C226 C225 1.340 . S
C226 C227 1.439 . S
C226 H258 0.950 . S
C227 N223 1.374 . S
C227 C226 1.439 . S
C227 C252 1.395 . S
N228 Co217 1.995 . S
N228 C229 1.376 . S
N228 C232 1.383 . S
C229 N228 1.376 . S
C229 C230 1.446 . S
C229 C252 1.391 . S
C230 C229 1.446 . S
C230 C231 1.339 . S
C230 H259 0.949 . S
C231 C230 1.339 . S
C231 C232 1.439 . S
C231 H260 0.950 . S
C232 N228 1.383 . S
C232 C231 1.439 . S
C232 C250 1.392 . S
N233 Co217 2.282 . S
N233 C236 1.332 . S
N233 C238 1.332 . S
C234 C235 1.386 . S
C234 C237 1.388 . S
C235 C234 1.386 . S
C235 C236 1.382 . S
C235 H261 0.950 . S
C236 N233 1.332 . S
C236 C235 1.382 . S
C236 H247 0.952 . S
C237 C234 1.388 . S
C237 C238 1.382 . S
C237 H262 0.950 . S
C238 N233 1.332 . S
C238 C237 1.382 . S
C238 H248 0.948 . S
N239 Co217 2.282 . S
N239 C243 1.332 1_554 S
N239 C244 1.332 . S
C240 C241 1.388 . S
C240 C244 1.382 1_556 S
C240 H263 0.950 . S
C241 C240 1.388 . S
C241 C242 1.386 . S
C242 C241 1.386 . S
C242 C243 1.382 . S
C242 H264 0.950 . S
C243 N239 1.332 1_556 S
C243 C242 1.382 . S
C243 H245 0.952 . S
C244 N239 1.332 . S
C244 C240 1.382 1_554 S
C244 H246 0.948 . S
H245 C243 0.952 . S
H246 C244 0.948 . S
H247 C236 0.952 . S
H248 C238 0.948 . S
C249 C215 1.395 . S
C249 C219 1.391 . S
C250 C212 1.389 . S
C250 C232 1.392 . S
C251 C222 1.392 . S
C251 C224 1.389 . S
C252 C227 1.395 . S
C252 C229 1.391 . S
H253 C213 0.951 . S
H254 C214 0.950 . S
H255 C220 0.949 1_556 S
H256 C221 0.950 . S
H257 C225 0.951 1_556 S
H258 C226 0.950 . S
H259 C230 0.949 . S
H260 C231 0.950 . S
H261 C235 0.950 . S
H262 C237 0.950 . S
H263 C240 0.950 . S
H264 C242 0.950 . S
C265 C266 1.443 . S
C265 N269 1.376 . S
C265 C303 1.389 . S
C266 C265 1.443 . S
C266 C267 1.340 . S
C266 H306 0.951 . S
C267 C266 1.340 . S
C267 C268 1.439 . S
C267 H307 0.950 . S
C268 C267 1.439 . S
C268 N269 1.374 . S
C268 C302 1.395 . S
N269 C265 1.376 . S
N269 C268 1.374 . S
N269 Co270 2.008 . S
Co270 N269 2.008 . S
Co270 N271 1.995 . S
Co270 N276 2.008 . S
Co270 N281 1.995 . S
Co270 N286 2.282 . S
Co270 N292 2.282 . S
N271 Co270 1.995 . S
N271 C272 1.376 . S
N271 C275 1.383 . S
C272 N271 1.376 . S
C272 C273 1.446 . S
C272 C302 1.391 . S
C273 C272 1.446 . S
C273 C274 1.339 . S
C273 H308 0.949 . S
C274 C273 1.339 . S
C274 C275 1.439 . S
C274 H309 0.950 . S
C275 N271 1.383 . S
C275 C274 1.439 . S
C275 C304 1.392 . S
N276 Co270 2.008 . S
N276 C277 1.376 . S
N276 C280 1.374 . S
C277 N276 1.376 . S
C277 C278 1.443 . S
C277 C304 1.389 . S
C278 C277 1.443 . S
C278 C279 1.340 . S
C278 H310 0.951 . S
C279 C278 1.340 . S
C279 C280 1.439 . S
C279 H311 0.950 . S
C280 N276 1.374 . S
C280 C279 1.439 . S
C280 C305 1.395 . S
N281 Co270 1.995 . S
N281 C282 1.376 . S
N281 C285 1.383 . S
C282 N281 1.376 . S
C282 C283 1.446 . S
C282 C305 1.391 . S
C283 C282 1.446 . S
C283 C284 1.339 . S
C283 H312 0.949 . S
C284 C283 1.339 . S
C284 C285 1.439 . S
C284 H313 0.950 . S
C285 N281 1.383 . S
C285 C284 1.439 . S
C285 C303 1.392 . S
N286 Co270 2.282 . S
N286 C289 1.332 . S
N286 C291 1.332 . S
C287 C288 1.386 . S
C287 C290 1.388 . S
C288 C287 1.386 . S
C288 C289 1.382 . S
C288 H314 0.950 . S
C289 N286 1.332 . S
C289 C288 1.382 . S
C289 H300 0.952 . S
C290 C287 1.388 . S
C290 C291 1.382 . S
C290 H315 0.950 . S
C291 N286 1.332 . S
C291 C290 1.382 . S
C291 H301 0.948 . S
N292 Co270 2.282 . S
N292 C296 1.332 . S
N292 C297 1.332 . S
C293 C294 1.388 . S
C293 C297 1.382 . S
C293 H316 0.950 . S
C294 C293 1.388 . S
C294 C295 1.386 . S
C295 C294 1.386 . S
C295 C296 1.382 . S
C295 H317 0.950 . S
C296 N292 1.332 . S
C296 C295 1.382 . S
C296 H298 0.952 . S
C297 N292 1.332 . S
C297 C293 1.382 . S
C297 H299 0.948 . S
H298 C296 0.952 . S
H299 C297 0.948 . S
H300 C289 0.952 . S
H301 C291 0.948 . S
C302 C268 1.395 . S
C302 C272 1.391 . S
C303 C265 1.389 . S
C303 C285 1.392 . S
C304 C275 1.392 . S
C304 C277 1.389 . S
C305 C280 1.395 . S
C305 C282 1.391 . S
H306 C266 0.951 . S
H307 C267 0.950 . S
H308 C273 0.949 . S
H309 C274 0.950 . S
H310 C278 0.951 . S
H311 C279 0.950 . S
H312 C283 0.949 . S
H313 C284 0.950 . S
H314 C288 0.950 . S
H315 C290 0.950 . S
H316 C293 0.950 . S
H317 C295 0.950 . S
C318 O330 1.241 . S
C318 O331 1.280 . S
C319 O332 1.277 . S
C319 O333 1.245 . S
C320 O344 1.247 . S
C320 O346 1.289 . S
Mg321 O322 1.926 . S
Mg321 O331 1.984 1_455 S
Mg321 O333 1.988 . S
Mg321 O334 2.061 1_455 S
O322 Mg321 1.926 . S
O322 Mg323 1.986 . S
O322 Mg324 1.917 . S
Mg323 O322 1.986 . S
Mg323 O330 2.042 1_455 S
Mg323 O332 2.041 . S
Mg323 O338 2.038 1_455 S
Mg323 O346 2.238 . S
Mg324 O322 1.917 . S
Mg324 O325 1.917 . S
Mg324 O335 2.106 1_455 S
Mg324 O337 2.079 1_455 S
Mg324 O346 2.106 . S
Mg324 O347 2.079 . S
O325 Mg324 1.917 . S
O325 Mg326 1.926 . S
O325 Mg327 1.986 . S
Mg326 O325 1.926 . S
Mg326 O340 1.984 . S
Mg326 O343 1.988 1_455 S
Mg326 O344 2.061 . S
Mg327 O325 1.986 . S
Mg327 O335 2.238 1_455 S
Mg327 O339 2.042 . S
Mg327 O341 2.041 1_455 S
Mg327 O348 2.038 . S
C328 O334 1.247 . S
C328 O335 1.289 . S
C329 O347 1.245 . S
C329 O348 1.274 . S
O330 C318 1.241 . S
O330 Mg323 2.042 1_655 S
O331 C318 1.280 . S
O331 Mg321 1.984 1_655 S
O332 C319 1.277 . S
O332 Mg323 2.041 . S
O333 C319 1.245 . S
O333 Mg321 1.988 . S
O334 Mg321 2.061 1_655 S
O334 C328 1.247 . S
O335 Mg324 2.106 1_655 S
O335 Mg327 2.238 1_655 S
O335 C328 1.289 . S
C336 O337 1.245 . S
C336 O338 1.274 . S
O337 Mg324 2.079 1_655 S
O337 C336 1.245 . S
O338 Mg323 2.038 1_655 S
O338 C336 1.274 . S
O339 Mg327 2.042 . S
O339 C342 1.241 . S
O340 Mg326 1.984 . S
O340 C342 1.280 . S
O341 Mg327 2.041 1_655 S
O341 C345 1.277 . S
C342 O339 1.241 . S
C342 O340 1.280 . S
O343 Mg326 1.988 1_655 S
O343 C345 1.245 . S
O344 C320 1.247 . S
O344 Mg326 2.061 . S
C345 O341 1.277 . S
C345 O343 1.245 . S
O346 C320 1.289 . S
O346 Mg323 2.238 . S
O346 Mg324 2.106 . S
O347 Mg324 2.079 . S
O347 C329 1.245 . S
O348 Mg327 2.038 . S
O348 C329 1.274 . S
C349 O361 1.241 . S
C349 O362 1.280 . S
C350 O363 1.277 . S
C350 O364 1.245 . S
C351 O375 1.247 . S
C351 O377 1.289 . S
Mg352 O353 1.926 . S
Mg352 O362 1.984 . S
Mg352 O364 1.988 1_545 S
Mg352 O365 2.061 . S
O353 Mg352 1.926 . S
O353 Mg354 1.986 . S
O353 Mg355 1.917 . S
Mg354 O353 1.986 . S
Mg354 O361 2.042 . S
Mg354 O363 2.041 1_545 S
Mg354 O369 2.038 . S
Mg354 O377 2.238 1_545 S
Mg355 O353 1.917 . S
Mg355 O356 1.917 . S
Mg355 O366 2.106 . S
Mg355 O368 2.079 . S
Mg355 O377 2.106 1_545 S
Mg355 O378 2.079 1_545 S
O356 Mg355 1.917 . S
O356 Mg357 1.926 . S
O356 Mg358 1.986 . S
Mg357 O356 1.926 . S
Mg357 O371 1.984 1_545 S
Mg357 O374 1.988 . S
Mg357 O375 2.061 1_545 S
Mg358 O356 1.986 . S
Mg358 O366 2.238 . S
Mg358 O370 2.042 1_545 S
Mg358 O372 2.041 . S
Mg358 O379 2.038 1_545 S
C359 O365 1.247 . S
C359 O366 1.289 . S
C360 O378 1.245 . S
C360 O379 1.274 . S
O361 C349 1.241 . S
O361 Mg354 2.042 . S
O362 C349 1.280 . S
O362 Mg352 1.984 . S
O363 C350 1.277 . S
O363 Mg354 2.041 1_565 S
O364 C350 1.245 . S
O364 Mg352 1.988 1_565 S
O365 Mg352 2.061 . S
O365 C359 1.247 . S
O366 Mg355 2.106 . S
O366 Mg358 2.238 . S
O366 C359 1.289 . S
C367 O368 1.245 . S
C367 O369 1.274 . S
O368 Mg355 2.079 . S
O368 C367 1.245 . S
O369 Mg354 2.038 . S
O369 C367 1.274 . S
O370 Mg358 2.042 1_565 S
O370 C373 1.241 . S
O371 Mg357 1.984 1_565 S
O371 C373 1.280 . S
O372 Mg358 2.041 . S
O372 C376 1.277 . S
C373 O370 1.241 . S
C373 O371 1.280 . S
O374 Mg357 1.988 . S
O374 C376 1.245 . S
O375 C351 1.247 . S
O375 Mg357 2.061 1_565 S
C376 O372 1.277 . S
C376 O374 1.245 . S
O377 C351 1.289 . S
O377 Mg354 2.238 1_565 S
O377 Mg355 2.106 1_565 S
O378 Mg355 2.079 1_565 S
O378 C360 1.245 . S
O379 Mg358 2.038 1_565 S
O379 C360 1.274 . S
C380 O392 1.241 . S
C380 O393 1.280 . S
C381 O394 1.277 . S
C381 O395 1.245 . S
C382 O406 1.247 . S
C382 O408 1.289 . S
Mg383 O384 1.926 . S
Mg383 O393 1.984 . S
Mg383 O395 1.988 . S
Mg383 O396 2.061 . S
O384 Mg383 1.926 . S
O384 Mg385 1.986 . S
O384 Mg386 1.917 . S
Mg385 O384 1.986 . S
Mg385 O392 2.042 . S
Mg385 O394 2.041 . S
Mg385 O400 2.038 . S
Mg385 O408 2.238 . S
Mg386 O384 1.917 . S
Mg386 O387 1.917 . S
Mg386 O397 2.106 . S
Mg386 O399 2.079 . S
Mg386 O408 2.106 . S
Mg386 O409 2.079 . S
O387 Mg386 1.917 . S
O387 Mg388 1.926 . S
O387 Mg389 1.986 . S
Mg388 O387 1.926 . S
Mg388 O402 1.984 . S
Mg388 O405 1.988 . S
Mg388 O406 2.061 . S
Mg389 O387 1.986 . S
Mg389 O397 2.238 . S
Mg389 O401 2.042 . S
Mg389 O403 2.041 . S
Mg389 O410 2.038 . S
C390 O396 1.247 . S
C390 O397 1.289 . S
C391 O409 1.245 . S
C391 O410 1.274 . S
O392 C380 1.241 . S
O392 Mg385 2.042 . S
O393 C380 1.280 . S
O393 Mg383 1.984 . S
O394 C381 1.277 . S
O394 Mg385 2.041 . S
O395 C381 1.245 . S
O395 Mg383 1.988 . S
O396 Mg383 2.061 . S
O396 C390 1.247 . S
O397 Mg386 2.106 . S
O397 Mg389 2.238 . S
O397 C390 1.289 . S
C398 O399 1.245 . S
C398 O400 1.274 . S
O399 Mg386 2.079 . S
O399 C398 1.245 . S
O400 Mg385 2.038 . S
O400 C398 1.274 . S
O401 Mg389 2.042 . S
O401 C404 1.241 . S
O402 Mg388 1.984 . S
O402 C404 1.280 . S
O403 Mg389 2.041 . S
O403 C407 1.277 . S
C404 O401 1.241 . S
C404 O402 1.280 . S
O405 Mg388 1.988 . S
O405 C407 1.245 . S
O406 C382 1.247 . S
O406 Mg388 2.061 . S
C407 O403 1.277 . S
C407 O405 1.245 . S
O408 C382 1.289 . S
O408 Mg385 2.238 . S
O408 Mg386 2.106 . S
O409 Mg386 2.079 . S
O409 C391 1.245 . S
O410 Mg389 2.038 . S
O410 C391 1.274 . S
C411 C412 1.349 . S
C411 C413 1.327 . S
C411 H436 0.950 . S
C412 C411 1.349 . S
C412 C428 1.349 . S
C413 C411 1.327 . S
C413 C432 1.429 . S
C413 H437 0.950 . S
C414 C431 1.574 . S
C414 C433 1.368 . S
C414 H438 0.949 . S
H415 C419 0.949 . S
C416 C417 1.349 . S
C416 C418 1.327 . S
C416 H439 0.950 . S
C417 C416 1.349 . S
C417 C429 1.349 . S
C418 C416 1.327 . S
C418 C434 1.429 . S
C418 H440 0.950 . S
C419 H415 0.949 . S
C419 C427 1.574 . S
C419 C435 1.368 . S
H420 C428 0.950 . S
H421 C426 0.950 . S
H422 C427 0.949 . S
H423 C429 0.950 . S
H424 C430 0.950 . S
H425 C431 0.949 . S
C426 H421 0.950 . S
C426 C428 1.327 . S
C426 C432 1.429 . S
C427 C419 1.574 . S
C427 H422 0.949 . S
C427 C433 1.368 . S
C428 C412 1.349 . S
C428 H420 0.950 . S
C428 C426 1.327 . S
C429 C417 1.349 . S
C429 H423 0.950 . S
C429 C430 1.327 . S
C430 H424 0.950 . S
C430 C429 1.327 . S
C430 C434 1.429 . S
C431 C414 1.574 . S
C431 H425 0.949 . S
C431 C435 1.368 . S
C432 C413 1.429 . S
C432 C426 1.429 . S
C432 C433 1.523 . S
C433 C414 1.368 . S
C433 C427 1.368 . S
C433 C432 1.523 . S
C434 C418 1.429 . S
C434 C430 1.429 . S
C434 C435 1.523 . S
C435 C419 1.368 . S
C435 C431 1.368 . S
C435 C434 1.523 . S
H436 C411 0.950 . S
H437 C413 0.950 . S
H438 C414 0.949 . S
H439 C416 0.950 . S
H440 C418 0.950 . S
C441 C442 1.349 . S
C441 C443 1.327 . S
C441 H466 0.950 . S
C442 C441 1.349 . S
C442 C458 1.349 . S
C443 C441 1.327 . S
C443 C462 1.429 . S
C443 H467 0.950 . S
C444 C461 1.574 . S
C444 C463 1.368 . S
C444 H468 0.949 . S
H445 C449 0.949 . S
C446 C447 1.349 . S
C446 C448 1.327 . S
C446 H469 0.950 . S
C447 C446 1.349 . S
C447 C459 1.349 . S
C448 C446 1.327 . S
C448 C464 1.429 . S
C448 H470 0.950 . S
C449 H445 0.949 . S
C449 C457 1.574 . S
C449 C465 1.368 . S
H450 C458 0.950 . S
H451 C456 0.950 . S
H452 C457 0.949 . S
H453 C459 0.950 . S
H454 C460 0.950 . S
H455 C461 0.949 . S
C456 H451 0.950 . S
C456 C458 1.327 . S
C456 C462 1.429 . S
C457 C449 1.574 . S
C457 H452 0.949 . S
C457 C463 1.368 . S
C458 C442 1.349 . S
C458 H450 0.950 . S
C458 C456 1.327 . S
C459 C447 1.349 . S
C459 H453 0.950 . S
C459 C460 1.327 . S
C460 H454 0.950 . S
C460 C459 1.327 . S
C460 C464 1.429 . S
C461 C444 1.574 . S
C461 H455 0.949 . S
C461 C465 1.368 . S
C462 C443 1.429 . S
C462 C456 1.429 . S
C462 C463 1.523 . S
C463 C444 1.368 . S
C463 C457 1.368 . S
C463 C462 1.523 . S
C464 C448 1.429 . S
C464 C460 1.429 . S
C464 C465 1.523 . S
C465 C449 1.368 . S
C465 C461 1.368 . S
C465 C464 1.523 . S
H466 C441 0.950 . S
H467 C443 0.950 . S
H468 C444 0.949 . S
H469 C446 0.950 . S
H470 C448 0.950 . S
C471 C472 1.349 . S
C471 C473 1.327 . S
C471 H496 0.950 . S
C472 C471 1.349 . S
C472 C488 1.349 . S
C473 C471 1.327 . S
C473 C492 1.429 . S
C473 H497 0.950 . S
C474 C491 1.574 . S
C474 C493 1.368 . S
C474 H498 0.949 . S
H475 C479 0.949 . S
C476 C477 1.349 . S
C476 C478 1.327 . S
C476 H499 0.950 . S
C477 C476 1.349 . S
C477 C489 1.349 . S
C478 C476 1.327 . S
C478 C494 1.429 . S
C478 H500 0.950 . S
C479 H475 0.949 . S
C479 C487 1.574 . S
C479 C495 1.368 . S
H480 C488 0.950 . S
H481 C486 0.950 . S
H482 C487 0.949 . S
H483 C489 0.950 . S
H484 C490 0.950 . S
H485 C491 0.949 . S
C486 H481 0.950 . S
C486 C488 1.327 . S
C486 C492 1.429 . S
C487 C479 1.574 . S
C487 H482 0.949 . S
C487 C493 1.368 . S
C488 C472 1.349 . S
C488 H480 0.950 . S
C488 C486 1.327 . S
C489 C477 1.349 . S
C489 H483 0.950 . S
C489 C490 1.327 . S
C490 H484 0.950 . S
C490 C489 1.327 . S
C490 C494 1.429 . S
C491 C474 1.574 . S
C491 H485 0.949 . S
C491 C495 1.368 . S
C492 C473 1.429 . S
C492 C486 1.429 . S
C492 C493 1.523 . S
C493 C474 1.368 . S
C493 C487 1.368 . S
C493 C492 1.523 . S
C494 C478 1.429 . S
C494 C490 1.429 . S
C494 C495 1.523 . S
C495 C479 1.368 . S
C495 C491 1.368 . S
C495 C494 1.523 . S
H496 C471 0.950 . S
H497 C473 0.950 . S
H498 C474 0.949 . S
H499 C476 0.950 . S
H500 C478 0.950 . S
C501 C502 1.349 . S
C501 C503 1.327 . S
C501 H526 0.950 . S
C502 C501 1.349 . S
C502 C518 1.349 . S
C503 C501 1.327 . S
C503 C522 1.429 . S
C503 H527 0.950 . S
C504 C521 1.574 . S
C504 C523 1.368 . S
C504 H528 0.949 . S
H505 C509 0.949 . S
C506 C507 1.349 . S
C506 C508 1.327 . S
C506 H529 0.950 . S
C507 C506 1.349 . S
C507 C519 1.349 . S
C508 C506 1.327 . S
C508 C524 1.429 . S
C508 H530 0.950 . S
C509 H505 0.949 . S
C509 C517 1.574 . S
C509 C525 1.368 . S
H510 C518 0.950 . S
H511 C516 0.950 . S
H512 C517 0.949 . S
H513 C519 0.950 . S
H514 C520 0.950 . S
H515 C521 0.949 . S
C516 H511 0.950 . S
C516 C518 1.327 . S
C516 C522 1.429 . S
C517 C509 1.574 . S
C517 H512 0.949 . S
C517 C523 1.368 . S
C518 C502 1.349 . S
C518 H510 0.950 . S
C518 C516 1.327 . S
C519 C507 1.349 . S
C519 H513 0.950 . S
C519 C520 1.327 . S
C520 H514 0.950 . S
C520 C519 1.327 . S
C520 C524 1.429 . S
C521 C504 1.574 . S
C521 H515 0.949 . S
C521 C525 1.368 . S
C522 C503 1.429 . S
C522 C516 1.429 . S
C522 C523 1.523 . S
C523 C504 1.368 . S
C523 C517 1.368 . S
C523 C522 1.523 . S
C524 C508 1.429 . S
C524 C520 1.429 . S
C524 C525 1.523 . S
C525 C509 1.368 . S
C525 C521 1.368 . S
C525 C524 1.523 . S
H526 C501 0.950 . S
H527 C503 0.950 . S
H528 C504 0.949 . S
H529 C506 0.950 . S
H530 C508 0.950 . S
C531 C532 1.349 . S
C531 C533 1.327 . S
C531 H556 0.950 . S
C532 C531 1.349 . S
C532 C548 1.349 . S
C533 C531 1.327 . S
C533 C552 1.429 . S
C533 H557 0.950 . S
C534 C551 1.574 . S
C534 C553 1.368 . S
C534 H558 0.949 . S
H535 C539 0.949 . S
C536 C537 1.349 . S
C536 C538 1.327 . S
C536 H559 0.950 . S
C537 C536 1.349 . S
C537 C549 1.349 . S
C538 C536 1.327 . S
C538 C554 1.429 . S
C538 H560 0.950 . S
C539 H535 0.949 . S
C539 C547 1.574 . S
C539 C555 1.368 . S
H540 C548 0.950 . S
H541 C546 0.950 . S
H542 C547 0.949 . S
H543 C549 0.950 . S
H544 C550 0.950 . S
H545 C551 0.949 . S
C546 H541 0.950 . S
C546 C548 1.327 . S
C546 C552 1.429 . S
C547 C539 1.574 . S
C547 H542 0.949 . S
C547 C553 1.368 . S
C548 C532 1.349 . S
C548 H540 0.950 . S
C548 C546 1.327 . S
C549 C537 1.349 . S
C549 H543 0.950 . S
C549 C550 1.327 . S
C550 H544 0.950 . S
C550 C549 1.327 . S
C550 C554 1.429 . S
C551 C534 1.574 . S
C551 H545 0.949 . S
C551 C555 1.368 . S
C552 C533 1.429 . S
C552 C546 1.429 . S
C552 C553 1.523 . S
C553 C534 1.368 . S
C553 C547 1.368 . S
C553 C552 1.523 . S
C554 C538 1.429 . S
C554 C550 1.429 . S
C554 C555 1.523 . S
C555 C539 1.368 . S
C555 C551 1.368 . S
C555 C554 1.523 . S
H556 C531 0.950 . S
H557 C533 0.950 . S
H558 C534 0.949 . S
H559 C536 0.950 . S
H560 C538 0.950 . S
C561 C562 1.349 . S
C561 C563 1.327 . S
C561 H586 0.950 . S
C562 C561 1.349 . S
C562 C578 1.349 . S
C563 C561 1.327 . S
C563 C582 1.429 . S
C563 H587 0.950 . S
C564 C581 1.574 . S
C564 C583 1.368 . S
C564 H588 0.949 . S
H565 C569 0.949 . S
C566 C567 1.349 . S
C566 C568 1.327 . S
C566 H589 0.950 . S
C567 C566 1.349 . S
C567 C579 1.349 . S
C568 C566 1.327 . S
C568 C584 1.429 . S
C568 H590 0.950 . S
C569 H565 0.949 . S
C569 C577 1.574 . S
C569 C585 1.368 . S
H570 C578 0.950 . S
H571 C576 0.950 . S
H572 C577 0.949 . S
H573 C579 0.950 . S
H574 C580 0.950 . S
H575 C581 0.949 . S
C576 H571 0.950 . S
C576 C578 1.327 . S
C576 C582 1.429 . S
C577 C569 1.574 . S
C577 H572 0.949 . S
C577 C583 1.368 . S
C578 C562 1.349 . S
C578 H570 0.950 . S
C578 C576 1.327 . S
C579 C567 1.349 . S
C579 H573 0.950 . S
C579 C580 1.327 . S
C580 H574 0.950 . S
C580 C579 1.327 . S
C580 C584 1.429 . S
C581 C564 1.574 . S
C581 H575 0.949 . S
C581 C585 1.368 . S
C582 C563 1.429 . S
C582 C576 1.429 . S
C582 C583 1.523 . S
C583 C564 1.368 . S
C583 C577 1.368 . S
C583 C582 1.523 . S
C584 C568 1.429 . S
C584 C580 1.429 . S
C584 C585 1.523 . S
C585 C569 1.368 . S
C585 C581 1.368 . S
C585 C584 1.523 . S
H586 C561 0.950 . S
H587 C563 0.950 . S
H588 C564 0.949 . S
H589 C566 0.950 . S
H590 C568 0.950 . S
C591 C592 1.349 . S
C591 C593 1.327 . S
C591 H616 0.950 . S
C592 C591 1.349 . S
C592 C608 1.349 . S
C593 C591 1.327 . S
C593 C612 1.429 . S
C593 H617 0.950 . S
C594 C611 1.574 . S
C594 C613 1.368 . S
C594 H618 0.949 . S
H595 C599 0.949 . S
C596 C597 1.349 . S
C596 C598 1.327 . S
C596 H619 0.950 . S
C597 C596 1.349 . S
C597 C609 1.349 . S
C598 C596 1.327 . S
C598 C614 1.429 . S
C598 H620 0.950 . S
C599 H595 0.949 . S
C599 C607 1.574 . S
C599 C615 1.368 . S
H600 C608 0.950 . S
H601 C606 0.950 . S
H602 C607 0.949 . S
H603 C609 0.950 . S
H604 C610 0.950 . S
H605 C611 0.949 . S
C606 H601 0.950 . S
C606 C608 1.327 . S
C606 C612 1.429 . S
C607 C599 1.574 . S
C607 H602 0.949 . S
C607 C613 1.368 . S
C608 C592 1.349 . S
C608 H600 0.950 . S
C608 C606 1.327 . S
C609 C597 1.349 . S
C609 H603 0.950 . S
C609 C610 1.327 . S
C610 H604 0.950 . S
C610 C609 1.327 . S
C610 C614 1.429 . S
C611 C594 1.574 . S
C611 H605 0.949 . S
C611 C615 1.368 . S
C612 C593 1.429 . S
C612 C606 1.429 . S
C612 C613 1.523 . S
C613 C594 1.368 . S
C613 C607 1.368 . S
C613 C612 1.523 . S
C614 C598 1.429 . S
C614 C610 1.429 . S
C614 C615 1.523 . S
C615 C599 1.368 . S
C615 C611 1.368 . S
C615 C614 1.523 . S
H616 C591 0.950 . S
H617 C593 0.950 . S
H618 C594 0.949 . S
H619 C596 0.950 . S
H620 C598 0.950 . S
C621 C622 1.349 . S
C621 C623 1.327 . S
C621 H646 0.950 . S
C622 C621 1.349 . S
C622 C638 1.349 . S
C623 C621 1.327 . S
C623 C642 1.429 . S
C623 H647 0.950 . S
C624 C641 1.574 . S
C624 C643 1.368 . S
C624 H648 0.949 . S
H625 C629 0.949 . S
C626 C627 1.349 . S
C626 C628 1.327 . S
C626 H649 0.950 . S
C627 C626 1.349 . S
C627 C639 1.349 . S
C628 C626 1.327 . S
C628 C644 1.429 . S
C628 H650 0.950 . S
C629 H625 0.949 . S
C629 C637 1.574 . S
C629 C645 1.368 . S
H630 C638 0.950 1_554 S
H631 C636 0.950 . S
H632 C637 0.949 . S
H633 C639 0.950 . S
H634 C640 0.950 . S
H635 C641 0.949 . S
C636 H631 0.950 . S
C636 C638 1.327 . S
C636 C642 1.429 . S
C637 C629 1.574 . S
C637 H632 0.949 . S
C637 C643 1.368 . S
C638 C622 1.349 . S
C638 H630 0.950 1_556 S
C638 C636 1.327 . S
C639 C627 1.349 . S
C639 H633 0.950 . S
C639 C640 1.327 . S
C640 H634 0.950 . S
C640 C639 1.327 . S
C640 C644 1.429 . S
C641 C624 1.574 . S
C641 H635 0.949 . S
C641 C645 1.368 . S
C642 C623 1.429 . S
C642 C636 1.429 . S
C642 C643 1.523 . S
C643 C624 1.368 . S
C643 C637 1.368 . S
C643 C642 1.523 . S
C644 C628 1.429 . S
C644 C640 1.429 . S
C644 C645 1.523 . S
C645 C629 1.368 . S
C645 C641 1.368 . S
C645 C644 1.523 . S
H646 C621 0.950 . S
H647 C623 0.950 . S
H648 C624 0.949 . S
H649 C626 0.950 . S
H650 C628 0.950 . S
C651 C652 1.349 . S
C651 C653 1.327 . S
C651 H676 0.950 . S
C652 C651 1.349 . S
C652 C668 1.349 . S
C653 C651 1.327 . S
C653 C672 1.429 . S
C653 H677 0.950 . S
C654 C671 1.574 . S
C654 C673 1.368 . S
C654 H678 0.949 . S
H655 C659 0.949 . S
C656 C657 1.349 . S
C656 C658 1.327 . S
C656 H679 0.950 . S
C657 C656 1.349 . S
C657 C669 1.349 . S
C658 C656 1.327 . S
C658 C674 1.429 . S
C658 H680 0.950 . S
C659 H655 0.949 . S
C659 C667 1.574 . S
C659 C675 1.368 . S
H660 C668 0.950 1_554 S
H661 C666 0.950 . S
H662 C667 0.949 . S
H663 C669 0.950 . S
H664 C670 0.950 . S
H665 C671 0.949 . S
C666 H661 0.950 . S
C666 C668 1.327 . S
C666 C672 1.429 . S
C667 C659 1.574 . S
C667 H662 0.949 . S
C667 C673 1.368 . S
C668 C652 1.349 . S
C668 H660 0.950 1_556 S
C668 C666 1.327 . S
C669 C657 1.349 . S
C669 H663 0.950 . S
C669 C670 1.327 . S
C670 H664 0.950 . S
C670 C669 1.327 . S
C670 C674 1.429 . S
C671 C654 1.574 . S
C671 H665 0.949 . S
C671 C675 1.368 . S
C672 C653 1.429 . S
C672 C666 1.429 . S
C672 C673 1.523 . S
C673 C654 1.368 . S
C673 C667 1.368 . S
C673 C672 1.523 . S
C674 C658 1.429 . S
C674 C670 1.429 . S
C674 C675 1.523 . S
C675 C659 1.368 . S
C675 C671 1.368 . S
C675 C674 1.523 . S
H676 C651 0.950 . S
H677 C653 0.950 . S
H678 C654 0.949 . S
H679 C656 0.950 . S
H680 C658 0.950 . S
C681 C682 1.349 1_556 S
C681 C683 1.327 . S
C681 H706 0.950 . S
C682 C681 1.349 1_554 S
C682 C698 1.349 . S
C683 C681 1.327 . S
C683 C702 1.429 . S
C683 H707 0.950 . S
C684 C701 1.574 . S
C684 C703 1.368 . S
C684 H708 0.949 . S
H685 C689 0.949 . S
C686 C687 1.349 . S
C686 C688 1.327 . S
C686 H709 0.950 . S
C687 C686 1.349 . S
C687 C699 1.349 . S
C688 C686 1.327 . S
C688 C704 1.429 . S
C688 H710 0.950 . S
C689 H685 0.949 . S
C689 C697 1.574 . S
C689 C705 1.368 . S
H690 C698 0.950 . S
H691 C696 0.950 . S
H692 C697 0.949 . S
H693 C699 0.950 . S
H694 C700 0.950 . S
H695 C701 0.949 . S
C696 H691 0.950 . S
C696 C698 1.327 . S
C696 C702 1.429 1_554 S
C697 C689 1.574 . S
C697 H692 0.949 . S
C697 C703 1.368 . S
C698 C682 1.349 . S
C698 H690 0.950 . S
C698 C696 1.327 . S
C699 C687 1.349 . S
C699 H693 0.950 . S
C699 C700 1.327 . S
C700 H694 0.950 . S
C700 C699 1.327 . S
C700 C704 1.429 . S
C701 C684 1.574 . S
C701 H695 0.949 . S
C701 C705 1.368 . S
C702 C683 1.429 . S
C702 C696 1.429 1_556 S
C702 C703 1.523 . S
C703 C684 1.368 . S
C703 C697 1.368 . S
C703 C702 1.523 . S
C704 C688 1.429 . S
C704 C700 1.429 . S
C704 C705 1.523 . S
C705 C689 1.368 . S
C705 C701 1.368 . S
C705 C704 1.523 . S
H706 C681 0.950 . S
H707 C683 0.950 . S
H708 C684 0.949 . S
H709 C686 0.950 . S
H710 C688 0.950 . S
C711 C712 1.349 1_556 S
C711 C713 1.327 . S
C711 H736 0.950 . S
C712 C711 1.349 1_554 S
C712 C728 1.349 . S
C713 C711 1.327 . S
C713 C732 1.429 . S
C713 H737 0.950 . S
C714 C731 1.574 . S
C714 C733 1.368 . S
C714 H738 0.949 . S
H715 C719 0.949 . S
C716 C717 1.349 . S
C716 C718 1.327 . S
C716 H739 0.950 . S
C717 C716 1.349 . S
C717 C729 1.349 . S
C718 C716 1.327 . S
C718 C734 1.429 . S
C718 H740 0.950 . S
C719 H715 0.949 . S
C719 C727 1.574 . S
C719 C735 1.368 . S
H720 C728 0.950 . S
H721 C726 0.950 . S
H722 C727 0.949 . S
H723 C729 0.950 . S
H724 C730 0.950 . S
H725 C731 0.949 . S
C726 H721 0.950 . S
C726 C728 1.327 . S
C726 C732 1.429 1_554 S
C727 C719 1.574 . S
C727 H722 0.949 . S
C727 C733 1.368 . S
C728 C712 1.349 . S
C728 H720 0.950 . S
C728 C726 1.327 . S
C729 C717 1.349 . S
C729 H723 0.950 . S
C729 C730 1.327 . S
C730 H724 0.950 . S
C730 C729 1.327 . S
C730 C734 1.429 . S
C731 C714 1.574 . S
C731 H725 0.949 . S
C731 C735 1.368 . S
C732 C713 1.429 . S
C732 C726 1.429 1_556 S
C732 C733 1.523 . S
C733 C714 1.368 . S
C733 C727 1.368 . S
C733 C732 1.523 . S
C734 C718 1.429 . S
C734 C730 1.429 . S
C734 C735 1.523 . S
C735 C719 1.368 . S
C735 C731 1.368 . S
C735 C734 1.523 . S
H736 C711 0.950 . S
H737 C713 0.950 . S
H738 C714 0.949 . S
H739 C716 0.950 . S
H740 C718 0.950 . S
C741 C742 1.349 1_556 S
C741 C743 1.327 . S
C741 H766 0.950 . S
C742 C741 1.349 1_554 S
C742 C758 1.349 . S
C743 C741 1.327 . S
C743 C762 1.429 . S
C743 H767 0.950 . S
C744 C761 1.574 . S
C744 C763 1.368 . S
C744 H768 0.949 1_556 S
H745 C749 0.949 . S
C746 C747 1.349 . S
C746 C748 1.327 . S
C746 H769 0.950 . S
C747 C746 1.349 . S
C747 C759 1.349 . S
C748 C746 1.327 . S
C748 C764 1.429 . S
C748 H770 0.950 . S
C749 H745 0.949 . S
C749 C757 1.574 . S
C749 C765 1.368 . S
H750 C758 0.950 . S
H751 C756 0.950 . S
H752 C757 0.949 . S
H753 C759 0.950 . S
H754 C760 0.950 . S
H755 C761 0.949 . S
C756 H751 0.950 . S
C756 C758 1.327 . S
C756 C762 1.429 1_554 S
C757 C749 1.574 . S
C757 H752 0.949 . S
C757 C763 1.368 . S
C758 C742 1.349 . S
C758 H750 0.950 . S
C758 C756 1.327 . S
C759 C747 1.349 . S
C759 H753 0.950 . S
C759 C760 1.327 . S
C760 H754 0.950 . S
C760 C759 1.327 . S
C760 C764 1.429 . S
C761 C744 1.574 . S
C761 H755 0.949 . S
C761 C765 1.368 . S
C762 C743 1.429 . S
C762 C756 1.429 1_556 S
C762 C763 1.523 . S
C763 C744 1.368 . S
C763 C757 1.368 . S
C763 C762 1.523 . S
C764 C748 1.429 . S
C764 C760 1.429 . S
C764 C765 1.523 . S
C765 C749 1.368 . S
C765 C761 1.368 . S
C765 C764 1.523 . S
H766 C741 0.950 . S
H767 C743 0.950 . S
H768 C744 0.949 1_554 S
H769 C746 0.950 . S
H770 C748 0.950 . S
C771 C772 1.349 . S
C771 C773 1.327 . S
C771 H796 0.950 . S
C772 C771 1.349 . S
C772 C788 1.349 . S
C773 C771 1.327 . S
C773 C792 1.429 . S
C773 H797 0.950 . S
C774 C791 1.574 . S
C774 C793 1.368 . S
C774 H798 0.949 . S
H775 C779 0.949 . S
C776 C777 1.349 . S
C776 C778 1.327 . S
C776 H799 0.950 . S
C777 C776 1.349 . S
C777 C789 1.349 . S
C778 C776 1.327 . S
C778 C794 1.429 . S
C778 H800 0.950 . S
C779 H775 0.949 . S
C779 C787 1.574 . S
C779 C795 1.368 . S
H780 C788 0.950 . S
H781 C786 0.950 . S
H782 C787 0.949 . S
H783 C789 0.950 . S
H784 C790 0.950 . S
H785 C791 0.949 . S
C786 H781 0.950 . S
C786 C788 1.327 . S
C786 C792 1.429 . S
C787 C779 1.574 . S
C787 H782 0.949 . S
C787 C793 1.368 . S
C788 C772 1.349 . S
C788 H780 0.950 . S
C788 C786 1.327 . S
C789 C777 1.349 . S
C789 H783 0.950 . S
C789 C790 1.327 . S
C790 H784 0.950 . S
C790 C789 1.327 . S
C790 C794 1.429 . S
C791 C774 1.574 . S
C791 H785 0.949 . S
C791 C795 1.368 . S
C792 C773 1.429 . S
C792 C786 1.429 . S
C792 C793 1.523 . S
C793 C774 1.368 . S
C793 C787 1.368 . S
C793 C792 1.523 . S
C794 C778 1.429 . S
C794 C790 1.429 . S
C794 C795 1.523 . S
C795 C779 1.368 . S
C795 C791 1.368 . S
C795 C794 1.523 . S
H796 C771 0.950 . S
H797 C773 0.950 . S
H798 C774 0.949 . S
H799 C776 0.950 . S
H800 C778 0.950 . S
C801 C802 1.349 . S
C801 C803 1.327 . S
C801 H826 0.950 . S
C802 C801 1.349 . S
C802 C818 1.349 . S
C803 C801 1.327 . S
C803 C822 1.429 . S
C803 H827 0.950 . S
C804 C821 1.574 . S
C804 C823 1.368 . S
C804 H828 0.949 . S
H805 C809 0.949 . S
C806 C807 1.349 . S
C806 C808 1.327 . S
C806 H829 0.950 . S
C807 C806 1.349 . S
C807 C819 1.349 . S
C808 C806 1.327 . S
C808 C824 1.429 . S
C808 H830 0.950 . S
C809 H805 0.949 . S
C809 C817 1.574 . S
C809 C825 1.368 . S
H810 C818 0.950 . S
H811 C816 0.950 . S
H812 C817 0.949 . S
H813 C819 0.950 . S
H814 C820 0.950 . S
H815 C821 0.949 . S
C816 H811 0.950 . S
C816 C818 1.327 . S
C816 C822 1.429 . S
C817 C809 1.574 . S
C817 H812 0.949 . S
C817 C823 1.368 . S
C818 C802 1.349 . S
C818 H810 0.950 . S
C818 C816 1.327 . S
C819 C807 1.349 . S
C819 H813 0.950 . S
C819 C820 1.327 . S
C820 H814 0.950 . S
C820 C819 1.327 . S
C820 C824 1.429 . S
C821 C804 1.574 . S
C821 H815 0.949 . S
C821 C825 1.368 . S
C822 C803 1.429 . S
C822 C816 1.429 . S
C822 C823 1.523 . S
C823 C804 1.368 . S
C823 C817 1.368 . S
C823 C822 1.523 . S
C824 C808 1.429 . S
C824 C820 1.429 . S
C824 C825 1.523 . S
C825 C809 1.368 . S
C825 C821 1.368 . S
C825 C824 1.523 . S
H826 C801 0.950 . S
H827 C803 0.950 . S
H828 C804 0.949 . S
H829 C806 0.950 . S
H830 C808 0.950 . S
C831 C832 1.349 . S
C831 C833 1.327 . S
C831 H856 0.950 . S
C832 C831 1.349 . S
C832 C848 1.349 . S
C833 C831 1.327 . S
C833 C852 1.434 . S
C833 H857 0.950 . S
C834 C851 1.574 . S
C834 C853 1.368 . S
C834 H858 0.949 . S
H835 C839 0.949 . S
C836 C837 1.349 . S
C836 C838 1.327 . S
C836 H859 0.950 . S
C837 C836 1.349 . S
C837 C849 1.349 . S
C838 C836 1.327 . S
C838 C854 1.429 . S
C838 H860 0.950 . S
C839 H835 0.949 . S
C839 C847 1.574 . S
C839 C855 1.368 . S
H840 C848 0.950 . S
H841 C846 0.950 . S
H842 C847 0.949 . S
H843 C849 0.950 . S
H844 C850 0.950 . S
H845 C851 0.949 . S
C846 H841 0.950 . S
C846 C848 1.327 . S
C846 C852 1.433 . S
C847 C839 1.574 . S
C847 H842 0.949 . S
C847 C853 1.368 . S
C848 C832 1.349 . S
C848 H840 0.950 . S
C848 C846 1.327 . S
C849 C837 1.349 . S
C849 H843 0.950 . S
C849 C850 1.327 . S
C850 H844 0.950 . S
C850 C849 1.327 . S
C850 C854 1.429 . S
C851 C834 1.574 . S
C851 H845 0.949 . S
C851 C855 1.368 . S
C852 C833 1.434 . S
C852 C846 1.433 . S
C852 C853 1.514 1_554 S
C853 C834 1.368 . S
C853 C847 1.368 . S
C853 C852 1.514 1_556 S
C854 C838 1.429 . S
C854 C850 1.429 . S
C854 C855 1.523 . S
C855 C839 1.368 . S
C855 C851 1.368 . S
C855 C854 1.523 . S
H856 C831 0.950 . S
H857 C833 0.950 . S
H858 C834 0.949 . S
H859 C836 0.950 . S
H860 C838 0.950 . S
C861 C862 1.349 . S
C861 C863 1.327 . S
C861 H886 0.950 . S
C862 C861 1.349 . S
C862 C878 1.349 . S
C863 C861 1.327 . S
C863 C882 1.429 1_554 S
C863 H887 0.950 . S
C864 C881 1.574 . S
C864 C883 1.368 . S
C864 H888 0.949 . S
H865 C869 0.949 . S
C866 C867 1.349 . S
C866 C868 1.327 . S
C866 H889 0.950 . S
C867 C866 1.349 . S
C867 C879 1.349 . S
C868 C866 1.327 . S
C868 C884 1.429 . S
C868 H890 0.950 . S
C869 H865 0.949 . S
C869 C877 1.574 . S
C869 C885 1.368 . S
H870 C878 0.950 . S
H871 C876 0.950 1_556 S
H872 C877 0.949 . S
H873 C879 0.950 . S
H874 C880 0.950 . S
H875 C881 0.949 . S
C876 H871 0.950 1_554 S
C876 C878 1.327 . S
C876 C882 1.429 1_554 S
C877 C869 1.574 . S
C877 H872 0.949 . S
C877 C883 1.368 . S
C878 C862 1.349 . S
C878 H870 0.950 . S
C878 C876 1.327 . S
C879 C867 1.349 . S
C879 H873 0.950 . S
C879 C880 1.327 . S
C880 H874 0.950 . S
C880 C879 1.327 . S
C880 C884 1.429 . S
C881 C864 1.574 . S
C881 H875 0.949 . S
C881 C885 1.368 . S
C882 C863 1.429 1_556 S
C882 C876 1.429 1_556 S
C882 C883 1.523 . S
C883 C864 1.368 . S
C883 C877 1.368 . S
C883 C882 1.523 . S
C884 C868 1.429 . S
C884 C880 1.429 . S
C884 C885 1.523 . S
C885 C869 1.368 . S
C885 C881 1.368 . S
C885 C884 1.523 . S
H886 C861 0.950 . S
H887 C863 0.950 . S
H888 C864 0.949 . S
H889 C866 0.950 . S
H890 C868 0.950 . S
C891 C892 1.349 . S
C891 C893 1.327 . S
C891 H916 0.950 1_556 S
C892 C891 1.349 . S
C892 C908 1.349 . S
C893 C891 1.327 . S
C893 C912 1.429 . S
C893 H917 0.950 . S
C894 C911 1.574 . S
C894 C913 1.368 . S
C894 H918 0.949 . S
H895 C899 0.949 . S
C896 C897 1.349 . S
C896 C898 1.327 . S
C896 H919 0.950 . S
C897 C896 1.349 . S
C897 C909 1.349 . S
C898 C896 1.327 . S
C898 C914 1.429 . S
C898 H920 0.950 . S
C899 H895 0.949 . S
C899 C907 1.574 . S
C899 C915 1.368 . S
H900 C908 0.950 . S
H901 C906 0.950 . S
H902 C907 0.949 . S
H903 C909 0.950 . S
H904 C910 0.950 . S
H905 C911 0.949 . S
C906 H901 0.950 . S
C906 C908 1.327 . S
C906 C912 1.429 . S
C907 C899 1.574 . S
C907 H902 0.949 . S
C907 C913 1.368 . S
C908 C892 1.349 . S
C908 H900 0.950 . S
C908 C906 1.327 . S
C909 C897 1.349 . S
C909 H903 0.950 . S
C909 C910 1.327 . S
C910 H904 0.950 . S
C910 C909 1.327 . S
C910 C914 1.429 . S
C911 C894 1.574 . S
C911 H905 0.949 . S
C911 C915 1.368 . S
C912 C893 1.429 . S
C912 C906 1.429 . S
C912 C913 1.523 . S
C913 C894 1.368 . S
C913 C907 1.368 . S
C913 C912 1.523 . S
C914 C898 1.429 . S
C914 C910 1.429 . S
C914 C915 1.523 . S
C915 C899 1.368 . S
C915 C911 1.368 . S
C915 C914 1.523 . S
H916 C891 0.950 1_554 S
H917 C893 0.950 . S
H918 C894 0.949 . S
H919 C896 0.950 . S
H920 C898 0.950 . S
C921 C922 1.349 . S
C921 C923 1.327 . S
C921 H946 0.950 . S
C922 C921 1.349 . S
C922 C938 1.349 . S
C923 C921 1.327 . S
C923 C942 1.429 . S
C923 H947 0.950 . S
C924 C941 1.574 . S
C924 C943 1.368 . S
C924 H948 0.949 . S
H925 C929 0.949 . S
C926 C927 1.349 . S
C926 C928 1.327 . S
C926 H949 0.950 . S
C927 C926 1.349 . S
C927 C939 1.349 . S
C928 C926 1.327 . S
C928 C944 1.429 . S
C928 H950 0.950 . S
C929 H925 0.949 . S
C929 C937 1.574 . S
C929 C945 1.368 . S
H930 C938 0.950 . S
H931 C936 0.950 . S
H932 C937 0.949 . S
H933 C939 0.950 . S
H934 C940 0.950 . S
H935 C941 0.949 . S
C936 H931 0.950 . S
C936 C938 1.327 . S
C936 C942 1.429 . S
C937 C929 1.574 . S
C937 H932 0.949 . S
C937 C943 1.368 . S
C938 C922 1.349 . S
C938 H930 0.950 . S
C938 C936 1.327 . S
C939 C927 1.349 . S
C939 H933 0.950 . S
C939 C940 1.327 . S
C940 H934 0.950 . S
C940 C939 1.327 . S
C940 C944 1.429 . S
C941 C924 1.574 . S
C941 H935 0.949 . S
C941 C945 1.368 . S
C942 C923 1.429 . S
C942 C936 1.429 . S
C942 C943 1.523 . S
C943 C924 1.368 . S
C943 C937 1.368 . S
C943 C942 1.523 . S
C944 C928 1.429 . S
C944 C940 1.429 . S
C944 C945 1.523 . S
C945 C929 1.368 . S
C945 C941 1.368 . S
C945 C944 1.523 . S
H946 C921 0.950 . S
H947 C923 0.950 . S
H948 C924 0.949 . S
H949 C926 0.950 . S
H950 C928 0.950 . S
C951 C952 1.349 . S
C951 C953 1.327 . S
C951 H976 0.950 . S
C952 C951 1.349 . S
C952 C968 1.349 . S
C953 C951 1.327 . S
C953 C972 1.429 . S
C953 H977 0.950 . S
C954 C971 1.574 . S
C954 C973 1.368 . S
C954 H978 0.949 . S
H955 C959 0.949 . S
C956 C957 1.349 . S
C956 C958 1.327 . S
C956 H979 0.950 . S
C957 C956 1.349 . S
C957 C969 1.349 . S
C958 C956 1.327 . S
C958 C974 1.429 . S
C958 H980 0.950 . S
C959 H955 0.949 . S
C959 C967 1.574 . S
C959 C975 1.368 . S
H960 C968 0.950 . S
H961 C966 0.950 . S
H962 C967 0.949 . S
H963 C969 0.950 . S
H964 C970 0.950 . S
H965 C971 0.949 . S
C966 H961 0.950 . S
C966 C968 1.327 . S
C966 C972 1.429 . S
C967 C959 1.574 . S
C967 H962 0.949 . S
C967 C973 1.368 . S
C968 C952 1.349 . S
C968 H960 0.950 . S
C968 C966 1.327 . S
C969 C957 1.349 . S
C969 H963 0.950 . S
C969 C970 1.327 . S
C970 H964 0.950 . S
C970 C969 1.327 . S
C970 C974 1.429 . S
C971 C954 1.574 . S
C971 H965 0.949 . S
C971 C975 1.368 . S
C972 C953 1.429 . S
C972 C966 1.429 . S
C972 C973 1.523 . S
C973 C954 1.368 . S
C973 C967 1.368 . S
C973 C972 1.523 . S
C974 C958 1.429 . S
C974 C970 1.429 . S
C974 C975 1.523 . S
C975 C959 1.368 . S
C975 C971 1.368 . S
C975 C974 1.523 . S
H976 C951 0.950 . S
H977 C953 0.950 . S
H978 C954 0.949 . S
H979 C956 0.950 . S
H980 C958 0.950 . S
C981 C982 1.349 . S
C981 C983 1.327 . S
C981 H1006 0.950 . S
C982 C981 1.349 . S
C982 C998 1.349 . S
C983 C981 1.327 . S
C983 C1002 1.429 . S
C983 H1007 0.950 . S
C984 C1001 1.574 . S
C984 C1003 1.368 . S
C984 H1008 0.949 . S
H985 C989 0.949 . S
C986 C987 1.349 . S
C986 C988 1.327 . S
C986 H1009 0.950 . S
C987 C986 1.349 . S
C987 C999 1.349 . S
C988 C986 1.327 . S
C988 C1004 1.429 . S
C988 H1010 0.950 . S
C989 H985 0.949 . S
C989 C997 1.574 . S
C989 C1005 1.368 . S
H990 C998 0.950 . S
H991 C996 0.950 . S
H992 C997 0.949 . S
H993 C999 0.950 . S
H994 C1000 0.950 . S
H995 C1001 0.949 . S
C996 H991 0.950 . S
C996 C998 1.327 . S
C996 C1002 1.429 . S
C997 C989 1.574 . S
C997 H992 0.949 . S
C997 C1003 1.368 . S
C998 C982 1.349 . S
C998 H990 0.950 . S
C998 C996 1.327 . S
C999 C987 1.349 . S
C999 H993 0.950 . S
C999 C1000 1.327 . S
C1000 H994 0.950 . S
C1000 C999 1.327 . S
C1000 C1004 1.429 . S
C1001 C984 1.574 . S
C1001 H995 0.949 . S
C1001 C1005 1.368 . S
C1002 C983 1.429 . S
C1002 C996 1.429 . S
C1002 C1003 1.523 . S
C1003 C984 1.368 . S
C1003 C997 1.368 . S
C1003 C1002 1.523 . S
C1004 C988 1.429 . S
C1004 C1000 1.429 . S
C1004 C1005 1.523 . S
C1005 C989 1.368 . S
C1005 C1001 1.368 . S
C1005 C1004 1.523 . S
H1006 C981 0.950 . S
H1007 C983 0.950 . S
H1008 C984 0.949 . S
H1009 C986 0.950 . S
H1010 C988 0.950 . S
C1011 C1012 1.349 . S
C1011 C1013 1.327 . S
C1011 H1036 0.950 . S
C1012 C1011 1.349 . S
C1012 C1028 1.349 . S
C1013 C1011 1.327 . S
C1013 C1032 1.429 . S
C1013 H1037 0.950 . S
C1014 C1031 1.574 . S
C1014 C1033 1.368 . S
C1014 H1038 0.949 . S
H1015 C1019 0.949 . S
C1016 C1017 1.349 . S
C1016 C1018 1.327 . S
C1016 H1039 0.950 . S
C1017 C1016 1.349 . S
C1017 C1029 1.349 . S
C1018 C1016 1.327 . S
C1018 C1034 1.429 . S
C1018 H1040 0.950 . S
C1019 H1015 0.949 . S
C1019 C1027 1.574 . S
C1019 C1035 1.368 . S
H1020 C1028 0.950 . S
H1021 C1026 0.950 . S
H1022 C1027 0.949 . S
H1023 C1029 0.950 . S
H1024 C1030 0.950 . S
H1025 C1031 0.949 . S
C1026 H1021 0.950 . S
C1026 C1028 1.327 . S
C1026 C1032 1.429 . S
C1027 C1019 1.574 . S
C1027 H1022 0.949 . S
C1027 C1033 1.368 . S
C1028 C1012 1.349 . S
C1028 H1020 0.950 . S
C1028 C1026 1.327 . S
C1029 C1017 1.349 . S
C1029 H1023 0.950 . S
C1029 C1030 1.327 . S
C1030 H1024 0.950 . S
C1030 C1029 1.327 . S
C1030 C1034 1.429 . S
C1031 C1014 1.574 . S
C1031 H1025 0.949 . S
C1031 C1035 1.368 . S
C1032 C1013 1.429 . S
C1032 C1026 1.429 . S
C1032 C1033 1.523 . S
C1033 C1014 1.368 . S
C1033 C1027 1.368 . S
C1033 C1032 1.523 . S
C1034 C1018 1.429 . S
C1034 C1030 1.429 . S
C1034 C1035 1.523 . S
C1035 C1019 1.368 . S
C1035 C1031 1.368 . S
C1035 C1034 1.523 . S
H1036 C1011 0.950 . S
H1037 C1013 0.950 . S
H1038 C1014 0.949 . S
H1039 C1016 0.950 . S
H1040 C1018 0.950 . S
C1041 C1042 1.349 . S
C1041 C1043 1.327 . S
C1041 H1066 0.950 . S
C1042 C1041 1.349 . S
C1042 C1058 1.349 . S
C1043 C1041 1.327 . S
C1043 C1062 1.429 . S
C1043 H1067 0.950 . S
C1044 C1061 1.574 . S
C1044 C1063 1.368 . S
C1044 H1068 0.949 . S
H1045 C1049 0.949 . S
C1046 C1047 1.349 . S
C1046 C1048 1.327 . S
C1046 H1069 0.950 . S
C1047 C1046 1.349 . S
C1047 C1059 1.349 . S
C1048 C1046 1.327 . S
C1048 C1064 1.429 . S
C1048 H1070 0.950 . S
C1049 H1045 0.949 . S
C1049 C1057 1.574 . S
C1049 C1065 1.368 . S
H1050 C1058 0.950 . S
H1051 C1056 0.950 . S
H1052 C1057 0.949 . S
H1053 C1059 0.950 . S
H1054 C1060 0.950 . S
H1055 C1061 0.949 . S
C1056 H1051 0.950 . S
C1056 C1058 1.327 . S
C1056 C1062 1.429 . S
C1057 C1049 1.574 . S
C1057 H1052 0.949 . S
C1057 C1063 1.368 . S
C1058 C1042 1.349 . S
C1058 H1050 0.950 . S
C1058 C1056 1.327 . S
C1059 C1047 1.349 . S
C1059 H1053 0.950 . S
C1059 C1060 1.327 . S
C1060 H1054 0.950 . S
C1060 C1059 1.327 . S
C1060 C1064 1.429 . S
C1061 C1044 1.574 . S
C1061 H1055 0.949 . S
C1061 C1065 1.368 . S
C1062 C1043 1.429 . S
C1062 C1056 1.429 . S
C1062 C1063 1.523 . S
C1063 C1044 1.368 . S
C1063 C1057 1.368 . S
C1063 C1062 1.523 . S
C1064 C1048 1.429 . S
C1064 C1060 1.429 . S
C1064 C1065 1.523 . S
C1065 C1049 1.368 . S
C1065 C1061 1.368 . S
C1065 C1064 1.523 . S
H1066 C1041 0.950 . S
H1067 C1043 0.950 . S
H1068 C1044 0.949 . S
H1069 C1046 0.950 . S
H1070 C1048 0.950 . S
C1071 C1072 1.349 . S
C1071 C1073 1.327 . S
C1071 H1096 0.950 . S
C1072 C1071 1.349 . S
C1072 C1088 1.349 . S
C1073 C1071 1.327 . S
C1073 C1092 1.429 . S
C1073 H1097 0.950 . S
C1074 C1091 1.574 . S
C1074 C1093 1.368 . S
C1074 H1098 0.949 . S
H1075 C1079 0.949 . S
C1076 C1077 1.349 . S
C1076 C1078 1.327 . S
C1076 H1099 0.950 . S
C1077 C1076 1.349 . S
C1077 C1089 1.349 . S
C1078 C1076 1.327 . S
C1078 C1094 1.429 . S
C1078 H1100 0.950 . S
C1079 H1075 0.949 . S
C1079 C1087 1.574 . S
C1079 C1095 1.368 . S
H1080 C1088 0.950 . S
H1081 C1086 0.950 . S
H1082 C1087 0.949 . S
H1083 C1089 0.950 . S
H1084 C1090 0.950 . S
H1085 C1091 0.949 . S
C1086 H1081 0.950 . S
C1086 C1088 1.327 . S
C1086 C1092 1.429 . S
C1087 C1079 1.574 . S
C1087 H1082 0.949 . S
C1087 C1093 1.368 . S
C1088 C1072 1.349 . S
C1088 H1080 0.950 . S
C1088 C1086 1.327 . S
C1089 C1077 1.349 . S
C1089 H1083 0.950 . S
C1089 C1090 1.327 . S
C1090 H1084 0.950 . S
C1090 C1089 1.327 . S
C1090 C1094 1.429 . S
C1091 C1074 1.574 . S
C1091 H1085 0.949 . S
C1091 C1095 1.368 . S
C1092 C1073 1.429 . S
C1092 C1086 1.429 . S
C1092 C1093 1.523 . S
C1093 C1074 1.368 . S
C1093 C1087 1.368 . S
C1093 C1092 1.523 . S
C1094 C1078 1.429 . S
C1094 C1090 1.429 . S
C1094 C1095 1.523 . S
C1095 C1079 1.368 . S
C1095 C1091 1.368 . S
C1095 C1094 1.523 . S
H1096 C1071 0.950 . S
H1097 C1073 0.950 . S
H1098 C1074 0.949 . S
H1099 C1076 0.950 . S
H1100 C1078 0.950 . S
C1101 C1102 1.349 . S
C1101 C1103 1.327 . S
C1101 H1126 0.950 . S
C1102 C1101 1.349 . S
C1102 C1118 1.349 . S
C1103 C1101 1.327 . S
C1103 C1122 1.429 . S
C1103 H1127 0.950 . S
C1104 C1121 1.574 . S
C1104 C1123 1.368 . S
C1104 H1128 0.949 . S
H1105 C1109 0.949 . S
C1106 C1107 1.349 . S
C1106 C1108 1.327 . S
C1106 H1129 0.950 . S
C1107 C1106 1.349 . S
C1107 C1119 1.349 . S
C1108 C1106 1.327 . S
C1108 C1124 1.429 . S
C1108 H1130 0.950 . S
C1109 H1105 0.949 . S
C1109 C1117 1.574 . S
C1109 C1125 1.368 . S
H1110 C1118 0.950 . S
H1111 C1116 0.950 . S
H1112 C1117 0.949 . S
H1113 C1119 0.950 . S
H1114 C1120 0.950 . S
H1115 C1121 0.949 . S
C1116 H1111 0.950 . S
C1116 C1118 1.327 . S
C1116 C1122 1.429 . S
C1117 C1109 1.574 . S
C1117 H1112 0.949 . S
C1117 C1123 1.368 . S
C1118 C1102 1.349 . S
C1118 H1110 0.950 . S
C1118 C1116 1.327 . S
C1119 C1107 1.349 . S
C1119 H1113 0.950 . S
C1119 C1120 1.327 . S
C1120 H1114 0.950 . S
C1120 C1119 1.327 . S
C1120 C1124 1.429 . S
C1121 C1104 1.574 . S
C1121 H1115 0.949 . S
C1121 C1125 1.368 . S
C1122 C1103 1.429 . S
C1122 C1116 1.429 . S
C1122 C1123 1.523 . S
C1123 C1104 1.368 . S
C1123 C1117 1.368 . S
C1123 C1122 1.523 . S
C1124 C1108 1.429 . S
C1124 C1120 1.429 . S
C1124 C1125 1.523 . S
C1125 C1109 1.368 . S
C1125 C1121 1.368 . S
C1125 C1124 1.523 . S
H1126 C1101 0.950 . S
H1127 C1103 0.950 . S
H1128 C1104 0.949 . S
H1129 C1106 0.950 . S
H1130 C1108 0.950 . S
C412 C22 1.873 . S
C417 C329 1.799 . S
C442 C92 1.884 . S
C447 C376 1.850 . S
C477 C380 2.017 . S
C472 C144 2.081 . S
C507 C345 1.701 . S
C502 C197 1.739 . S
C532 C250 1.994 . S
C537 C360 1.927 . S
C567 C382 0.963 . S
C562 C287 0.985 . S
C597 C351 1.487 . S
C592 C145 1.541 . S
C622 C198 1.511 . S
C627 C391 1.461 . S
C657 C320 1.435 . S
C652 C251 1.495 1_556 S
C682 C294 1.514 . S
C687 C349 1.469 . S
C712 C29 2.020 . S
C717 C407 1.969 . S
C747 C318 1.776 . S
C742 C91 1.817 . S
C777 C336 1.626 . S
C772 C188 1.687 . S
C807 C350 1.388 . S
C802 C241 1.423 . S
C837 C404 1.849 . S
C832 C304 1.910 . S
C867 C319 1.528 . S
C862 C39 1.559 . S
C897 C367 1.476 . S
C892 C75 1.544 1_556 S
C922 C135 0.790 . S
C927 C390 0.785 . S
C957 C359 1.295 . S
C952 C303 1.343 . S
C987 C398 1.283 . S
C982 C38 1.320 . S
C1017 C328 1.041 . S
C1012 C82 1.077 . S
C1047 C373 1.303 . S
C1042 C128 1.341 . S
C1072 C181 1.844 . S
C1077 C381 1.800 . S
C1102 C234 1.367 . S
C1107 C342 1.330 . S
