# Generated by pormake.
# Topology ssa, (4,4)-cn, num edge types: 1
# Building blocks:
#     Node 0, Type 0, BuildingBlock: ESEHIV_clean_sbu_0, # of connection points: 4
#     Node 1, Type 0, BuildingBlock: ESEHIV_clean_sbu_0, # of connection points: 4
#     Node 2, Type 0, BuildingBlock: ESEHIV_clean_sbu_0, # of connection points: 4
#     Node 3, Type 0, BuildingBlock: ESEHIV_clean_sbu_0, # of connection points: 4
#     Node 4, Type 0, BuildingBlock: ESEHIV_clean_sbu_0, # of connection points: 4
#     Node 5, Type 0, BuildingBlock: ESEHIV_clean_sbu_0, # of connection points: 4
#     Node 6, Type 1, BuildingBlock: MUDLON_clean_sbu_0, # of connection points: 4
#     Node 7, Type 1, BuildingBlock: MUDLON_clean_sbu_0, # of connection points: 4
#     Node 8, Type 1, BuildingBlock: MUDLON_clean_sbu_0, # of connection points: 4
#     Node 9, Type 1, BuildingBlock: MUDLON_clean_sbu_0, # of connection points: 4
#     Node 10, Type 1, BuildingBlock: MUDLON_clean_sbu_0, # of connection points: 4
#     Node 11, Type 1, BuildingBlock: MUDLON_clean_sbu_0, # of connection points: 4
#     Edge 12, Type (0, 1), BuildingBlock: XUDNAN_clean_linker_2, # of connection points: 2
#     Edge 13, Type (0, 1), BuildingBlock: XUDNAN_clean_linker_2, # of connection points: 2
#     Edge 14, Type (0, 1), BuildingBlock: XUDNAN_clean_linker_2, # of connection points: 2
#     Edge 15, Type (0, 1), BuildingBlock: XUDNAN_clean_linker_2, # of connection points: 2
#     Edge 16, Type (0, 1), BuildingBlock: XUDNAN_clean_linker_2, # of connection points: 2
#     Edge 17, Type (0, 1), BuildingBlock: XUDNAN_clean_linker_2, # of connection points: 2
#     Edge 18, Type (0, 1), BuildingBlock: XUDNAN_clean_linker_2, # of connection points: 2
#     Edge 19, Type (0, 1), BuildingBlock: XUDNAN_clean_linker_2, # of connection points: 2
#     Edge 20, Type (0, 1), BuildingBlock: XUDNAN_clean_linker_2, # of connection points: 2
#     Edge 21, Type (0, 1), BuildingBlock: XUDNAN_clean_linker_2, # of connection points: 2
#     Edge 22, Type (0, 1), BuildingBlock: XUDNAN_clean_linker_2, # of connection points: 2
#     Edge 23, Type (0, 1), BuildingBlock: XUDNAN_clean_linker_2, # of connection points: 2
#     Edge 24, Type (0, 1), BuildingBlock: XUDNAN_clean_linker_2, # of connection points: 2
#     Edge 25, Type (0, 1), BuildingBlock: XUDNAN_clean_linker_2, # of connection points: 2
#     Edge 26, Type (0, 1), BuildingBlock: XUDNAN_clean_linker_2, # of connection points: 2
#     Edge 27, Type (0, 1), BuildingBlock: XUDNAN_clean_linker_2, # of connection points: 2
#     Edge 28, Type (0, 1), BuildingBlock: XUDNAN_clean_linker_2, # of connection points: 2
#     Edge 29, Type (0, 1), BuildingBlock: XUDNAN_clean_linker_2, # of connection points: 2
#     Edge 30, Type (0, 1), BuildingBlock: XUDNAN_clean_linker_2, # of connection points: 2
#     Edge 31, Type (0, 1), BuildingBlock: XUDNAN_clean_linker_2, # of connection points: 2
#     Edge 32, Type (0, 1), BuildingBlock: XUDNAN_clean_linker_2, # of connection points: 2
#     Edge 33, Type (0, 1), BuildingBlock: XUDNAN_clean_linker_2, # of connection points: 2
#     Edge 34, Type (0, 1), BuildingBlock: XUDNAN_clean_linker_2, # of connection points: 2
#     Edge 35, Type (0, 1), BuildingBlock: XUDNAN_clean_linker_2, # of connection points: 2
# Relax obj value: 0.022
# Max RMSD: 0.109
# Mean RMSD: 0.059
data_MOF--net-ssa--node1-ESEHIV_clean_sbu_0--node2-MUDLON_clean_sbu_0--edge1-XUDNAN_clean_linker_2
_symmetry_space_group_name_H-M    P1
_symmetry_Int_Tables_number       1
_symmetry_cell_setting            triclinic
loop_
_symmetry_equiv_pos_as_xyz
'x, y, z'
_cell_length_a     43.201904
_cell_length_b     46.814999
_cell_length_c     41.47486
_cell_angle_alpha  87.709412
_cell_angle_beta   91.232774
_cell_angle_gamma 122.55507
loop_
_atom_site_label
_atom_site_type_symbol
_atom_site_fract_x
_atom_site_fract_y
_atom_site_fract_z
_atom_type_partial_charge
Cu0 Cu 0.99503 0.52687 0.04135 0.0
N1 N 0.95728 0.48187 0.03477 0.0
N2 N 0.91642 0.43515 1.00877 0.0
C3 C 0.93911 0.46927 1.00689 0.0
C4 C 0.9205 0.426 0.03908 0.0
C5 C 0.94574 0.45484 0.05502 0.0
O6 O 0.9981 0.55207 1.00175 0.0
C7 C 0.06676 0.54996 0.06804 0.0
O8 O 0.06751 0.57729 0.07534 0.0
H9 H 0.94385 0.48465 0.98515 0.0
H10 H 0.95594 0.45592 0.07927 0.0
N11 N 0.98431 0.54428 0.07626 0.0
N12 N 0.99746 0.58213 0.11398 0.0
C13 C 1.00228 0.57735 0.08302 0.0
C14 C 0.96587 0.52746 0.10333 0.0
C15 C 0.97385 0.55073 0.12661 0.0
C16 C 0.97248 0.55747 0.99628 0.0
O17 O 0.9477 0.54879 0.01879 0.0
H18 H 0.02157 0.59725 0.06649 0.0
H19 H 0.95071 0.50021 0.10696 0.0
O20 O 0.03984 0.5272 0.05178 0.0
H21 H 0.90676 0.40026 0.0489 0.0
H22 H 0.96621 0.54471 0.15181 0.0
Cu23 Cu 0.50859 0.00889 0.5239 0.0
N24 N 0.53259 0.00905 0.48675 0.0
N25 N 0.54226 0.98748 0.44371 0.0
C26 C 0.52518 0.98065 0.47244 0.0
C27 C 0.56143 0.02159 0.43987 0.0
C28 C 0.55548 0.03484 0.46649 0.0
O29 O 0.46122 0.96649 0.52199 0.0
C30 C 0.57011 0.03601 0.56368 0.0
O31 O 0.58688 0.05128 0.53646 0.0
H32 H 0.50618 0.95534 0.48222 0.0
H33 H 0.5663 0.06131 0.47032 0.0
N34 N 0.50266 0.04551 0.52504 0.0
N35 N 0.49392 0.0829 0.54818 0.0
C36 C 0.49358 0.05405 0.55223 0.0
C37 C 0.50892 0.06982 0.5028 0.0
C38 C 0.50378 0.09314 0.51716 0.0
C39 C 0.43172 0.96524 0.51485 0.0
O40 O 0.43093 0.99279 0.5164 0.0
H41 H 0.48817 0.03995 0.57495 0.0
H42 H 0.51728 0.07093 0.47818 0.0
O43 O 0.536 0.01312 0.56308 0.0
H44 H 0.5782 0.0359 0.41913 0.0
H45 H 0.50728 0.11593 0.5058 0.0
Cu46 Cu 0.51586 0.49442 0.04078 0.0
N47 N 0.515 0.45413 0.04183 0.0
N48 N 0.51155 0.41014 0.01884 0.0
C49 C 0.51104 0.43848 1.01422 0.0
C50 C 0.51558 0.40743 0.05099 0.0
C51 C 0.51794 0.43488 0.06519 0.0
O52 O 0.53998 0.51548 0.99991 0.0
C53 C 0.44845 0.46611 0.06848 0.0
O54 O 0.46392 0.45451 0.08796 0.0
H55 H 0.50753 0.44777 0.99099 0.0
H56 H 0.52159 0.44037 0.09057 0.0
N57 N 0.54058 0.52346 0.07479 0.0
N58 N 0.55464 0.56503 0.10852 0.0
C59 C 0.53725 0.54968 0.08107 0.0
C60 C 0.56082 0.52196 0.09911 0.0
C61 C 0.56956 0.54762 0.11997 0.0
C62 C 0.57373 0.52521 0.99881 0.0
O63 O 0.59062 0.5267 0.02602 0.0
H64 H 0.52098 0.5564 0.06633 0.0
H65 H 0.56804 0.50317 0.10185 0.0
O66 O 0.46597 0.48353 0.0434 0.0
H67 H 0.51739 0.38751 0.0632 0.0
H68 H 0.58548 0.55287 0.14192 0.0
Cu69 Cu 0.99077 0.46645 0.50696 0.0
N70 N 0.98334 0.43966 0.47189 0.0
N71 N 0.9992 0.41923 0.43205 0.0
C72 C 1.01094 0.44004 0.4572 0.0
C73 C 0.96246 0.40491 0.43107 0.0
C74 C 0.95274 0.41761 0.4557 0.0
O75 O 0.03745 0.50882 0.49748 0.0
C76 C 0.96041 0.41292 0.54982 0.0
O77 O 0.93491 0.40353 0.52758 0.0
H78 H 0.03918 0.45535 0.46511 0.0
H79 H 0.92535 0.41125 0.46126 0.0
N80 N 0.9523 0.47354 0.51147 0.0
N81 N 0.90883 0.47682 0.53613 0.0
C82 C 0.94065 0.47803 0.53962 0.0
C83 C 0.92714 0.46975 0.48939 0.0
C84 C 0.9002 0.47161 0.50458 0.0
C85 C 0.03732 0.52714 0.47395 0.0
O86 O 1.00577 0.51855 0.46053 0.0
H87 H 0.9541 0.48013 0.56253 0.0
H88 H 0.92761 0.46475 0.46424 0.0
O89 O 0.99037 0.44158 0.54596 0.0
H90 H 0.94401 0.38713 0.41347 0.0
H91 H 0.87581 0.46872 0.49345 0.0
Cu92 Cu 0.563 0.02674 0.04841 0.0
N93 N 0.55434 0.05964 0.03135 0.0
N94 N 0.55687 0.09997 0.99821 0.0
C95 C 0.56982 0.07969 1.00468 0.0
C96 C 0.53252 0.09253 0.02201 0.0
C97 C 0.53101 0.06769 0.04233 0.0
O98 O 0.58592 0.01649 1.01504 0.0
C99 C 0.52062 0.96737 0.08796 0.0
O100 O 0.55311 0.97333 0.09581 0.0
H101 H 0.59024 0.07937 0.99032 0.0
H102 H 0.51373 0.05595 0.06339 0.0
N103 N 0.59773 0.04485 0.0813 0.0
N104 N 0.63666 0.04317 0.11648 0.0
C105 C 0.62301 0.03677 0.08625 0.0
C106 C 0.59611 0.05804 0.10894 0.0
C107 C 0.62013 0.05701 0.13076 0.0
C108 C 0.57482 0.01122 0.98601 0.0
O109 O 0.54267 0.00662 0.97891 0.0
H110 H 0.62716 0.02186 0.06962 0.0
H111 H 0.57614 0.06446 0.11399 0.0
O112 O 0.51821 0.98642 0.06644 0.0
H113 H 0.51613 0.10351 0.02416 0.0
H114 H 0.62258 0.06296 0.156 0.0
Cu115 Cu 0.55705 0.54947 0.51547 0.0
N116 N 0.59756 0.57613 0.48907 0.0
N117 N 0.63559 0.62047 0.45697 0.0
C118 C 0.60574 0.60616 0.47616 0.0
C119 C 0.64662 0.59836 0.45781 0.0
C120 C 0.6231 0.57098 0.47785 0.0
O121 O 0.51713 0.54969 0.49208 0.0
C122 C 0.55724 0.5566 0.58261 0.0
O123 O 0.52738 0.52601 0.58226 0.0
H124 H 0.5891 0.61662 0.47994 0.0
H125 H 0.62417 0.54876 0.48342 0.0
N126 N 0.55093 0.50695 0.52432 0.0
N127 N 0.5571 0.46821 0.55211 0.0
C128 C 0.57099 0.50154 0.54624 0.0
C129 C 0.52388 0.47586 0.51544 0.0
C130 C 0.52745 0.45191 0.53275 0.0
C131 C 0.48267 0.52812 0.49041 0.0
O132 O 0.46764 0.50019 0.50852 0.0
H133 H 0.59395 0.52165 0.55921 0.0
H134 H 0.50231 0.47079 0.49848 0.0
O135 O 0.57039 0.5727 0.55592 0.0
H136 H 0.66976 0.60157 0.44475 0.0
H137 H 0.50921 0.42465 0.53173 0.0
Mg138 Mg 0.26473 0.50554 0.26468 0.0
C139 C 0.22152 0.50857 0.2127 0.0
O140 O 0.21355 0.47734 0.21662 0.0
C141 C 0.311 0.51126 0.32018 0.0
O142 O 0.28512 0.47893 0.31889 0.0
C143 C 0.19016 0.44261 0.29127 0.0
O144 O 0.18958 0.42513 0.267 0.0
O145 O 0.21718 0.4728 0.2947 0.0
O146 O 0.24457 0.53068 0.23208 0.0
O147 O 0.28098 0.48155 0.23073 0.0
C148 C 0.29684 0.50085 0.20607 0.0
O149 O 0.30297 0.53156 0.20513 0.0
O150 O 0.31049 0.53173 0.29917 0.0
Mg151 Mg 0.78307 0.2222 0.78622 0.0
C152 C 0.73961 0.18264 0.73035 0.0
O153 O 0.76964 0.18211 0.72885 0.0
C154 C 0.80321 0.26251 0.84506 0.0
O155 O 0.81295 0.2408 0.85209 0.0
C156 C 0.73632 0.15993 0.82235 0.0
O157 O 0.71543 0.1704 0.81075 0.0
O158 O 0.77064 0.17801 0.81649 0.0
O159 O 0.73725 0.19999 0.75193 0.0
O160 O 0.83318 0.24794 0.75723 0.0
C161 C 0.82982 0.2632 0.73263 0.0
O162 O 0.79866 0.26144 0.72816 0.0
O163 O 0.78761 0.26042 0.81805 0.0
Mg164 Mg 0.59835 0.80761 0.27316 0.0
C165 C 0.64849 0.86354 0.22213 0.0
O166 O 0.64722 0.83928 0.20611 0.0
C167 C 0.64097 0.80056 0.33309 0.0
O168 O 0.63553 0.82112 0.34909 0.0
C169 C 0.55317 0.81712 0.32613 0.0
O170 O 0.56254 0.80123 0.34698 0.0
O171 O 0.5609 0.81862 0.2964 0.0
O172 O 0.63341 0.85681 0.24968 0.0
O173 O 0.57458 0.76863 0.23659 0.0
C174 C 0.57123 0.74032 0.24366 0.0
O175 O 0.57821 0.73454 0.27335 0.0
O176 O 0.62963 0.79357 0.30423 0.0
Mg177 Mg 0.77379 0.53927 0.77265 0.0
C178 C 0.72263 0.54907 0.73726 0.0
O179 O 0.70656 0.51659 0.74482 0.0
C180 C 0.84664 0.55499 0.80038 0.0
O181 O 0.83919 0.53021 0.7815 0.0
C182 C 0.73417 0.52908 0.83308 0.0
O183 O 0.76639 0.55687 0.83762 0.0
O184 O 0.72918 0.51265 0.80772 0.0
O185 O 0.75593 0.56894 0.74584 0.0
O186 O 0.77862 0.50973 0.73575 0.0
C187 C 0.80602 0.52719 0.71697 0.0
O188 O 0.82812 0.5598 0.72164 0.0
O189 O 0.82495 0.56557 0.80072 0.0
Mg190 Mg 0.26525 0.76594 0.28623 0.0
C191 C 0.21012 0.74451 0.2334 0.0
O192 O 0.23709 0.74465 0.21921 0.0
C193 C 0.30583 0.80582 0.34298 0.0
O194 O 0.31806 0.78564 0.34072 0.0
C195 C 0.21887 0.71296 0.33186 0.0
O196 O 0.20787 0.7342 0.32875 0.0
O197 O 0.2466 0.71922 0.31538 0.0
O198 O 0.21473 0.75464 0.26212 0.0
O199 O 0.30657 0.78418 0.24754 0.0
C200 C 0.3398 0.809 0.24951 0.0
O201 O 0.35288 0.82247 0.27763 0.0
O202 O 0.28307 0.80429 0.32204 0.0
Mg203 Mg 0.53547 0.27328 0.77414 0.0
C204 C 0.5214 0.23397 0.71656 0.0
O205 O 0.55379 0.26179 0.71163 0.0
C206 C 0.51581 0.30872 0.81899 0.0
O207 O 0.54228 0.33381 0.80167 0.0
C208 C 0.57138 0.26176 0.83265 0.0
O209 O 0.55821 0.27805 0.84593 0.0
O210 O 0.57057 0.26017 0.80195 0.0
O211 O 0.50442 0.23058 0.74259 0.0
O212 O 0.55576 0.31739 0.74042 0.0
C213 C 0.58745 0.33936 0.72925 0.0
O214 O 0.6161 0.33875 0.7394 0.0
O215 O 0.50373 0.27847 0.81107 0.0
H216 H 0.11171 0.58062 0.12 0.0
H217 H 0.08391 0.50476 0.04893 0.0
H218 H 0.1266 0.49135 0.07538 0.0
H219 H 0.20976 0.6083 0.13109 0.0
H220 H 0.20836 0.61291 0.17388 0.0
H221 H 0.17961 0.61989 0.1469 0.0
H222 H 0.12234 0.57542 0.17985 0.0
H223 H 0.15081 0.56811 0.20675 0.0
H224 H 0.11297 0.53314 0.18621 0.0
H225 H 0.16752 0.48272 0.1114 0.0
H226 H 0.20207 0.47691 0.15618 0.0
H227 H 0.20323 0.55731 0.20592 0.0
C228 C 0.11532 0.5618 0.10949 0.0
C229 C 0.09479 0.54399 0.08206 0.0
C230 C 0.09948 0.51884 0.0697 0.0
C231 C 0.12379 0.51117 0.08452 0.0
C232 C 0.14313 0.52879 0.11177 0.0
C233 C 0.13921 0.55356 0.12423 0.0
C234 C 0.16078 0.56648 0.15547 0.0
C235 C 0.19145 0.60413 0.1516 0.0
C236 C 0.13519 0.5604 0.18374 0.0
C237 C 0.17657 0.54432 0.15915 0.0
C238 C 0.16643 0.52324 0.13327 0.0
C239 C 0.17587 0.49927 0.13161 0.0
C240 C 0.19542 0.49611 0.15731 0.0
C241 C 0.20537 0.51664 0.18459 0.0
C242 C 0.19651 0.54165 0.18519 0.0
H243 H 0.64376 0.07179 0.57595 0.0
H244 H 0.53836 0.03603 0.62017 0.0
H245 H 0.57008 0.07028 0.66781 0.0
H246 H 0.69098 0.07258 0.65136 0.0
H247 H 0.7337 0.10995 0.63838 0.0
H248 H 0.7023 0.08095 0.60903 0.0
H249 H 0.70209 0.13056 0.5792 0.0
H250 H 0.73287 0.15957 0.60881 0.0
H251 H 0.68947 0.15543 0.6009 0.0
H252 H 0.61396 0.11346 0.70821 0.0
H253 H 0.66622 0.1551 0.7415 0.0
H254 H 0.74233 0.15999 0.67162 0.0
C255 C 0.62736 0.07059 0.59597 0.0
C256 C 0.58863 0.05112 0.59447 0.0
C257 C 0.56809 0.05037 0.62103 0.0
C258 C 0.58587 0.07 0.64805 0.0
C259 C 0.62416 0.08978 0.64833 0.0
C260 C 0.64464 0.08956 0.62328 0.0
C261 C 0.6854 0.11299 0.62934 0.0
C262 C 0.7042 0.09292 0.63221 0.0
C263 C 0.7035 0.14131 0.60299 0.0
C264 C 0.68473 0.12695 0.66142 0.0
C265 C 0.6492 0.11356 0.67191 0.0
C266 C 0.64188 0.12377 0.7004 0.0
C267 C 0.67169 0.14764 0.719 0.0
C268 C 0.70825 0.16066 0.70916 0.0
C269 C 0.71465 0.15029 0.67986 0.0
H270 H 0.56311 0.58033 0.1723 0.0
H271 H 0.54788 0.6137 0.07752 0.0
H272 H 0.54746 0.66068 0.10189 0.0
H273 H 0.50549 0.59964 0.21577 0.0
H274 H 0.53483 0.61399 0.25079 0.0
H275 H 0.53333 0.58256 0.22596 0.0
H276 H 0.60387 0.62038 0.21808 0.0
H277 H 0.6056 0.65179 0.24306 0.0
H278 H 0.62427 0.66343 0.2028 0.0
H279 H 0.55015 0.70525 0.13672 0.0
H280 H 0.55698 0.74404 0.17908 0.0
H281 H 0.57018 0.68133 0.25092 0.0
C282 C 0.55994 0.5976 0.1566 0.0
C283 C 0.55539 0.59307 0.1229 0.0
C284 C 0.55089 0.6162 0.10339 0.0
C285 C 0.55075 0.64311 0.11702 0.0
C286 C 0.55505 0.64668 0.15029 0.0
C287 C 0.55961 0.62457 0.16982 0.0
C288 C 0.56407 0.63421 0.20484 0.0
C289 C 0.53255 0.60591 0.22555 0.0
C290 C 0.60169 0.64298 0.21796 0.0
C291 C 0.56169 0.66537 0.20191 0.0
C292 C 0.55636 0.67212 0.17027 0.0
C293 C 0.55417 0.7001 0.1616 0.0
C294 C 0.558 0.72198 0.18585 0.0
C295 C 0.56396 0.71576 0.2184 0.0
C296 C 0.56538 0.68678 0.22636 0.0
H297 H 0.93361 0.51876 0.58646 0.0
H298 H 0.83493 0.43739 0.54253 0.0
H299 H 0.79742 0.43883 0.58607 0.0
H300 H 0.90606 0.49429 0.67019 0.0
H301 H 0.92664 0.53735 0.6825 0.0
H302 H 0.94565 0.52831 0.64908 0.0
H303 H 0.93879 0.57071 0.61237 0.0
H304 H 0.91992 0.57997 0.64569 0.0
H305 H 0.89451 0.56575 0.60851 0.0
H306 H 0.77089 0.44904 0.63538 0.0
H307 H 0.75714 0.47133 0.68261 0.0
H308 H 0.87297 0.54849 0.69161 0.0
C309 C 0.90414 0.5011 0.58627 0.0
C310 C 0.88708 0.47783 0.56135 0.0
C311 C 0.8484 0.45548 0.56141 0.0
C312 C 0.82697 0.45598 0.58613 0.0
C313 C 0.84463 0.47931 0.61039 0.0
C314 C 0.88232 0.50175 0.61039 0.0
C315 C 0.8944 0.52573 0.63801 0.0
C316 C 0.91968 0.52113 0.66132 0.0
C317 C 0.91299 0.56272 0.62538 0.0
C318 C 0.85765 0.51343 0.65347 0.0
C319 C 0.82928 0.48624 0.6376 0.0
C320 C 0.7929 0.47042 0.64789 0.0
C321 C 0.78533 0.48311 0.67478 0.0
C322 C 0.81394 0.51171 0.69056 0.0
C323 C 0.8505 0.52675 0.67982 0.0
H324 H 0.51943 0.94302 0.14906 0.0
H325 H 0.4482 0.93127 0.06854 0.0
H326 H 0.39455 0.886 0.09976 0.0
H327 H 0.47211 0.85484 0.17664 0.0
H328 H 0.47912 0.86499 0.21871 0.0
H329 H 0.51177 0.89434 0.18904 0.0
H330 H 0.50357 0.94157 0.20893 0.0
H331 H 0.47092 0.91241 0.23862 0.0
H332 H 0.45822 0.93446 0.21011 0.0
H333 H 0.34879 0.84135 0.14024 0.0
H334 H 0.31377 0.80676 0.18824 0.0
H335 H 0.41481 0.85126 0.24355 0.0
C336 C 0.49259 0.93069 0.1378 0.0
C337 C 0.488 0.94035 0.10615 0.0
C338 C 0.45233 0.92416 0.09265 0.0
C339 C 0.42179 0.89832 0.11017 0.0
C340 C 0.42734 0.88936 0.14132 0.0
C341 C 0.46185 0.90545 0.15515 0.0
C342 C 0.46029 0.89297 0.18977 0.0
C343 C 0.48211 0.87575 0.19376 0.0
C344 C 0.47405 0.92208 0.21323 0.0
C345 C 0.4194 0.86742 0.19346 0.0
C346 C 0.40095 0.86518 0.16506 0.0
C347 C 0.363 0.84303 0.16258 0.0
C348 C 0.34334 0.82331 0.18997 0.0
C349 C 0.36149 0.82628 0.21972 0.0
C350 C 0.40012 0.84841 0.2212 0.0
H351 H 0.51408 0.41429 0.59244 0.0
H352 H 0.62727 0.48917 0.56757 0.0
H353 H 0.64813 0.46466 0.61036 0.0
H354 H 0.5287 0.41566 0.67837 0.0
H355 H 0.49551 0.37096 0.68472 0.0
H356 H 0.49004 0.39386 0.65149 0.0
H357 H 0.48765 0.35132 0.61167 0.0
H358 H 0.49313 0.32841 0.64486 0.0
H359 H 0.52472 0.3442 0.6114 0.0
H360 H 0.6562 0.43146 0.65656 0.0
H361 H 0.65084 0.39269 0.70158 0.0
H362 H 0.5321 0.3411 0.69719 0.0
C363 C 0.54323 0.42525 0.59583 0.0
C364 C 0.56913 0.45341 0.57653 0.0
C365 C 0.60707 0.46756 0.5821 0.0
C366 C 0.6191 0.45374 0.60626 0.0
C367 C 0.59282 0.42616 0.62514 0.0
C368 C 0.55566 0.4122 0.62025 0.0
C369 C 0.533 0.38326 0.64432 0.0
C370 C 0.51049 0.39144 0.666 0.0
C371 C 0.50817 0.34982 0.62703 0.0
C372 C 0.56311 0.38278 0.66329 0.0
C373 C 0.59746 0.40774 0.65196 0.0
C374 C 0.6294 0.41186 0.66561 0.0
C375 C 0.62608 0.3897 0.69122 0.0
C376 C 0.59109 0.36379 0.7031 0.0
C377 C 0.55932 0.36066 0.68891 0.0
H378 H 0.53448 0.92667 0.45761 0.0
H379 H 0.54208 0.99346 0.37846 0.0
H380 H 0.53734 0.9527 0.33947 0.0
H381 H 0.59019 0.90285 0.42352 0.0
H382 H 0.56416 0.85947 0.43858 0.0
H383 H 0.56357 0.89183 0.45999 0.0
H384 H 0.49248 0.85784 0.45635 0.0
H385 H 0.49289 0.82535 0.43478 0.0
H386 H 0.47057 0.84566 0.41749 0.0
H387 H 0.53553 0.90654 0.30919 0.0
H388 H 0.54301 0.86161 0.28978 0.0
H389 H 0.53869 0.82515 0.38856 0.0
C390 C 0.53451 0.93238 0.43206 0.0
C391 C 0.53859 0.96322 0.42104 0.0
C392 C 0.53927 0.97014 0.38742 0.0
C393 C 0.53619 0.94696 0.36511 0.0
C394 C 0.53251 0.91692 0.37676 0.0
C395 C 0.53186 0.90964 0.40945 0.0
C396 C 0.53077 0.87694 0.4156 0.0
C397 C 0.56416 0.88316 0.43559 0.0
C398 C 0.49452 0.84984 0.43203 0.0
C399 C 0.53254 0.86773 0.3813 0.0
C400 C 0.5325 0.89066 0.35927 0.0
C401 C 0.53533 0.8883 0.32622 0.0
C402 C 0.53951 0.86255 0.31541 0.0
C403 C 0.5415 0.83969 0.33758 0.0
C404 C 0.537 0.84195 0.37093 0.0
H405 H 0.64658 0.55298 0.98808 0.0
H406 H 0.54045 0.49846 0.94069 0.0
H407 H 0.56951 0.49186 0.89308 0.0
H408 H 0.70065 0.59717 0.91571 0.0
H409 H 0.73861 0.59405 0.92952 0.0
H410 H 0.70933 0.59612 0.95832 0.0
H411 H 0.69698 0.54026 0.986 0.0
H412 H 0.72551 0.53759 0.95684 0.0
H413 H 0.67861 0.50285 0.96255 0.0
H414 H 0.61009 0.48659 0.85263 0.0
H415 H 0.66008 0.49155 0.81963 0.0
H416 H 0.73868 0.54998 0.89423 0.0
C417 C 0.62946 0.54012 0.96749 0.0
C418 C 0.59128 0.52637 0.96807 0.0
C419 C 0.56985 0.5096 0.94065 0.0
C420 C 0.58603 0.50535 0.91368 0.0
C421 C 0.62358 0.51806 0.91451 0.0
C422 C 0.64508 0.53571 0.9405 0.0
C423 C 0.68473 0.54696 0.93571 0.0
C424 C 0.7098 0.58588 0.93474 0.0
C425 C 0.69716 0.53095 0.96183 0.0
C426 C 0.68227 0.53267 0.90304 0.0
C427 C 0.64679 0.51577 0.89122 0.0
C428 C 0.63802 0.50004 0.86157 0.0
C429 C 0.66649 0.50268 0.84314 0.0
C430 C 0.70325 0.52116 0.85437 0.0
C431 C 0.71088 0.53574 0.88496 0.0
H432 H 0.04605 0.58086 0.4383 0.0
H433 H 0.1056 0.53536 0.47352 0.0
H434 H 0.15969 0.57773 0.44074 0.0
H435 H 0.07825 0.5977 0.35849 0.0
H436 H 0.08096 0.63745 0.35412 0.0
H437 H 0.04829 0.60481 0.38163 0.0
H438 H 0.07524 0.64649 0.42864 0.0
H439 H 0.10766 0.67943 0.40116 0.0
H440 H 0.12374 0.66846 0.43712 0.0
H441 H 0.20619 0.62408 0.3997 0.0
H442 H 0.24114 0.67194 0.35987 0.0
H443 H 0.14975 0.68592 0.35418 0.0
C444 C 0.07066 0.58009 0.43956 0.0
C445 C 0.07171 0.55496 0.45859 0.0
C446 C 0.1044 0.55474 0.45946 0.0
C447 C 0.13512 0.57854 0.4407 0.0
C448 C 0.1328 0.60258 0.42155 0.0
C449 C 0.10144 0.6037 0.42139 0.0
C450 C 0.10523 0.63158 0.39886 0.0
C451 C 0.07648 0.617 0.37167 0.0
C452 C 0.10284 0.65806 0.41757 0.0
C453 C 0.1435 0.64596 0.38601 0.0
C454 C 0.15914 0.62897 0.39904 0.0
C455 C 0.1942 0.63768 0.38967 0.0
C456 C 0.2138 0.66474 0.36691 0.0
C457 C 0.19833 0.68285 0.35407 0.0
C458 C 0.16263 0.67292 0.36374 0.0
H459 H 0.5516 0.15559 0.99442 0.0
H460 H 0.58119 0.09701 0.93919 0.0
H461 H 0.59375 0.13541 0.89169 0.0
H462 H 0.50433 0.16976 0.93142 0.0
H463 H 0.51955 0.21214 0.94278 0.0
H464 H 0.51559 0.18158 0.97288 0.0
H465 H 0.58365 0.22264 0.98893 0.0
H466 H 0.58784 0.25327 0.95869 0.0
H467 H 0.6189 0.23872 0.95851 0.0
H468 H 0.59922 0.1782 0.84881 0.0
H469 H 0.59546 0.22078 0.81451 0.0
H470 H 0.56298 0.2514 0.89819 0.0
C471 C 0.56088 0.15084 0.97244 0.0
C472 C 0.56561 0.12326 0.97077 0.0
C473 C 0.57799 0.11822 0.94139 0.0
C474 C 0.58509 0.13984 0.91421 0.0
C475 C 0.58003 0.16666 0.91669 0.0
C476 C 0.56826 0.17225 0.94512 0.0
C477 C 0.56343 0.20196 0.94113 0.0
C478 C 0.52335 0.19068 0.94741 0.0
C479 C 0.59005 0.23086 0.96312 0.0
C480 C 0.57362 0.21181 0.90588 0.0
C481 C 0.58335 0.19132 0.89217 0.0
C482 C 0.59202 0.19462 0.85942 0.0
C483 C 0.58992 0.21896 0.8401 0.0
C484 C 0.57922 0.23974 0.85355 0.0
C485 C 0.57175 0.23636 0.88707 0.0
H486 H 0.41228 0.4822 0.46956 0.0
H487 H 0.50309 0.58642 0.45492 0.0
H488 H 0.46831 0.59476 0.41156 0.0
H489 H 0.39042 0.46567 0.38691 0.0
H490 H 0.3415 0.43923 0.39314 0.0
H491 H 0.37238 0.44229 0.42462 0.0
H492 H 0.34154 0.46098 0.46431 0.0
H493 H 0.31046 0.45788 0.43294 0.0
H494 H 0.33828 0.497 0.45365 0.0
H495 H 0.42387 0.59089 0.36756 0.0
H496 H 0.3745 0.57451 0.32699 0.0
H497 H 0.31389 0.47281 0.37016 0.0
C498 C 0.42467 0.50695 0.45763 0.0
C499 C 0.46042 0.53369 0.46594 0.0
C500 C 0.47573 0.56551 0.44918 0.0
C501 C 0.45615 0.57053 0.42447 0.0
C502 C 0.42119 0.54351 0.41658 0.0
C503 C 0.4056 0.51234 0.43272 0.0
C504 C 0.36836 0.48694 0.41866 0.0
C505 C 0.36818 0.45676 0.40502 0.0
C506 C 0.33786 0.47501 0.4439 0.0
C507 C 0.36556 0.50853 0.39194 0.0
C508 C 0.39611 0.54117 0.39118 0.0
C509 C 0.39975 0.56539 0.36808 0.0
C510 C 0.37156 0.5559 0.34511 0.0
C511 C 0.34023 0.5224 0.34524 0.0
C512 C 0.33738 0.49867 0.36924 0.0
H513 H 0.89893 0.3707 1.00079 0.0
H514 H 0.88613 0.44966 0.95763 0.0
H515 H 0.85203 0.41273 0.91211 0.0
H516 H 0.91502 0.34404 0.92825 0.0
H517 H 0.89049 0.29974 0.94032 0.0
H518 H 0.91146 0.33154 0.97037 0.0
H519 H 0.84879 0.30458 0.99944 0.0
H520 H 0.82759 0.27266 0.96944 0.0
H521 H 0.8095 0.29857 0.9772 0.0
H522 H 0.82093 0.36718 0.87005 0.0
H523 H 0.79827 0.31847 0.8345 0.0
H524 H 0.8323 0.27017 0.90563 0.0
C525 C 0.88837 0.38003 0.98212 0.0
C526 C 0.89505 0.41306 0.98293 0.0
C527 C 0.88154 0.42455 0.95748 0.0
C528 C 0.86194 0.40365 0.93162 0.0
C529 C 0.85609 0.37131 0.93149 0.0
C530 C 0.86901 0.35963 0.9561 0.0
C531 C 0.86087 0.32464 0.94954 0.0
C532 C 0.89658 0.32504 0.94696 0.0
C533 C 0.83515 0.29858 0.97544 0.0
C534 C 0.8417 0.31854 0.91723 0.0
C535 C 0.83883 0.34555 0.90728 0.0
C536 C 0.82288 0.34584 0.87773 0.0
C537 C 0.81001 0.31802 0.8577 0.0
C538 C 0.81345 0.29045 0.86722 0.0
C539 C 0.82913 0.29075 0.89759 0.0
H540 H 0.92148 0.57259 0.97824 0.0
H541 H 1.00844 0.56352 0.94007 0.0
H542 H 0.9909 0.57078 0.88469 0.0
H543 H 0.85625 0.52435 0.92275 0.0
H544 H 0.83554 0.54904 0.91952 0.0
H545 H 0.85887 0.54924 0.95599 0.0
H546 H 0.901 0.61473 0.95127 0.0
H547 H 0.87761 0.61476 0.91475 0.0
H548 H 0.92678 0.63468 0.91473 0.0
H549 H 0.95717 0.56872 0.83399 0.0
H550 H 0.91164 0.55996 0.79203 0.0
H551 H 0.84797 0.57269 0.86275 0.0
C552 C 0.93758 0.57312 0.95831 0.0
C553 C 0.96647 0.56761 0.96355 0.0
C554 C 0.98646 0.56801 0.93673 0.0
C555 C 0.97666 0.57212 0.90515 0.0
C556 C 0.9472 0.57633 0.90082 0.0
C557 C 0.92828 0.57736 0.92672 0.0
C558 C 0.89563 0.5791 0.9156 0.0
C559 C 0.85946 0.54862 0.92927 0.0
C560 C 0.90057 0.61283 0.92462 0.0
C561 C 0.89811 0.57733 0.87943 0.0
C562 C 0.92828 0.57609 0.87137 0.0
C563 C 0.93407 0.57061 0.83989 0.0
C564 C 0.90805 0.5656 0.81623 0.0
C565 C 0.87677 0.56636 0.82406 0.0
C566 C 0.8723 0.57316 0.8559 0.0
H567 H 0.43598 0.91552 0.48654 0.0
H568 H 0.36338 0.9517 0.49931 0.0
H569 H 0.32119 0.91217 0.45855 0.0
H570 H 0.42908 0.912 0.40376 0.0
H571 H 0.43021 0.8743 0.40042 0.0
H572 H 0.45182 0.90114 0.43418 0.0
H573 H 0.41311 0.85051 0.47397 0.0
H574 H 0.39172 0.82319 0.44039 0.0
H575 H 0.36376 0.82581 0.47031 0.0
H576 H 0.29142 0.87472 0.41148 0.0
H577 H 0.27294 0.83765 0.36479 0.0
H578 H 0.36501 0.82602 0.38272 0.0
C579 C 0.4106 0.91433 0.48164 0.0
C580 C 0.40286 0.93658 0.49629 0.0
C581 C 0.36976 0.93475 0.48855 0.0
C582 C 0.34568 0.91246 0.46535 0.0
C583 C 0.35505 0.89209 0.45022 0.0
C584 C 0.38645 0.89243 0.45837 0.0
C585 C 0.39164 0.86993 0.43682 0.0
C586 C 0.42781 0.89058 0.41766 0.0
C587 C 0.38992 0.84061 0.45656 0.0
C588 C 0.35853 0.85732 0.41496 0.0
C589 C 0.3378 0.87039 0.42308 0.0
C590 C 0.30707 0.86386 0.40521 0.0
C591 C 0.29693 0.84299 0.37861 0.0
C592 C 0.31738 0.8288 0.37027 0.0
C593 C 0.34857 0.83616 0.38875 0.0
H594 H 0.53697 0.42973 0.95783 0.0
H595 H 0.48051 0.34172 0.02288 0.0
H596 H 0.47239 0.30473 0.97793 0.0
H597 H 0.48047 0.39117 0.88806 0.0
H598 H 0.51883 0.41445 0.86079 0.0
H599 H 0.51894 0.43217 0.89859 0.0
H600 H 0.5818 0.43878 0.91269 0.0
H601 H 0.58058 0.42052 0.87495 0.0
H602 H 0.58503 0.40201 0.91231 0.0
H603 H 0.46949 0.27763 0.92434 0.0
H604 H 0.47691 0.26363 0.86922 0.0
H605 H 0.53468 0.37035 0.84058 0.0
C606 C 0.52267 0.40265 0.96266 0.0
C607 C 0.509 0.38851 0.99377 0.0
C608 C 0.4913 0.35303 0.99924 0.0
C609 C 0.48634 0.33188 0.97381 0.0
C610 C 0.49943 0.34672 0.94319 0.0
C611 C 0.51756 0.38138 0.93773 0.0
C612 C 0.52965 0.39144 0.903 0.0
C613 C 0.51086 0.40831 0.88664 0.0
C614 C 0.57175 0.41454 0.9006 0.0
C615 C 0.51564 0.35701 0.88955 0.0
C616 C 0.49803 0.33141 0.91291 0.0
C617 C 0.4832 0.29752 0.90591 0.0
C618 C 0.48731 0.28977 0.87446 0.0
C619 C 0.50627 0.31586 0.85051 0.0
C620 C 0.51994 0.34977 0.85823 0.0
H621 H 0.07183 0.46338 0.41995 0.0
H622 H 0.9781 0.36514 0.39434 0.0
H623 H 0.01743 0.35829 0.35702 0.0
H624 H 0.11147 0.48955 0.34293 0.0
H625 H 0.15806 0.5106 0.35751 0.0
H626 H 0.12253 0.50681 0.38264 0.0
H627 H 0.1391 0.47751 0.42792 0.0
H628 H 0.17471 0.48112 0.40292 0.0
H629 H 0.13939 0.44022 0.41925 0.0
H630 H 0.06782 0.36369 0.32085 0.0
H631 H 0.12351 0.38154 0.28874 0.0
H632 H 0.18306 0.47495 0.34102 0.0
C633 C 0.05947 0.44007 0.40707 0.0
C634 C 0.02179 0.4147 0.41037 0.0
C635 C 1.00681 0.38508 0.39212 0.0
C636 C 0.02901 0.38085 0.37103 0.0
C637 C 0.06613 0.40639 0.36861 0.0
C638 C 0.08114 0.43538 0.38623 0.0
C639 C 0.12142 0.45964 0.37887 0.0
C640 C 0.12877 0.49364 0.36463 0.0
C641 C 0.14504 0.46491 0.40904 0.0
C642 C 0.1268 0.44001 0.35399 0.0
C643 C 0.09477 0.40929 0.34836 0.0
C644 C 0.09311 0.38758 0.32529 0.0
C645 C 0.12487 0.39788 0.30722 0.0
C646 C 0.15771 0.42958 0.31238 0.0
C647 C 0.15856 0.45045 0.33651 0.0
H648 H 0.56765 0.02105 0.92159 0.0
H649 H 0.64462 0.02436 0.99255 0.0
H650 H 0.69462 0.05405 0.95266 0.0
H651 H 0.61536 0.01609 0.84694 0.0
H652 H 0.6046 0.04328 0.82418 0.0
H653 H 0.57348 0.01429 0.85498 0.0
H654 H 0.57665 0.06456 0.88316 0.0
H655 H 0.6072 0.09307 0.85218 0.0
H656 H 0.62109 0.10049 0.89384 0.0
H657 H 0.73814 0.09481 0.90992 0.0
H658 H 0.76972 0.14085 0.86815 0.0
H659 H 0.66433 0.1103 0.82528 0.0
C660 C 0.59464 0.02655 0.9283 0.0
C661 C 0.60211 0.02026 0.96017 0.0
C662 C 0.6381 0.02873 0.96821 0.0
C663 C 0.66675 0.04558 0.94564 0.0
C664 C 0.65892 0.05332 0.91495 0.0
C665 C 0.62351 0.04347 0.90608 0.0
C666 C 0.62298 0.059 0.87355 0.0
C667 C 0.60292 0.03152 0.84842 0.0
C668 C 0.60595 0.08052 0.87585 0.0
C669 C 0.66369 0.08093 0.86656 0.0
C670 C 0.68409 0.0768 0.89024 0.0
C671 C 0.72243 0.09756 0.89077 0.0
C672 C 0.74019 0.12369 0.86701 0.0
C673 C 0.71945 0.12906 0.84354 0.0
C674 C 0.68093 0.10662 0.84281 0.0
H675 H 0.63095 0.67441 0.46992 0.0
H676 H 0.67108 0.63591 0.39941 0.0
H677 H 0.68684 0.68479 0.36276 0.0
H678 H 0.58574 0.69675 0.41641 0.0
H679 H 0.59578 0.73438 0.43628 0.0
H680 H 0.59445 0.70037 0.45923 0.0
H681 H 0.6606 0.74193 0.47971 0.0
H682 H 0.66213 0.77621 0.45678 0.0
H683 H 0.69703 0.76691 0.45101 0.0
H684 H 0.68787 0.73155 0.33047 0.0
H685 H 0.67533 0.77307 0.30549 0.0
H686 H 0.63503 0.78171 0.3971 0.0
C687 C 0.64368 0.67655 0.44702 0.0
C688 C 0.64972 0.65125 0.43753 0.0
C689 C 0.66662 0.65514 0.40741 0.0
C690 C 0.67561 0.68282 0.38641 0.0
C691 C 0.668 0.70662 0.39609 0.0
C692 C 0.65277 0.70395 0.42586 0.0
C693 C 0.64378 0.73082 0.42926 0.0
C694 C 0.6025 0.7146 0.43565 0.0
C695 C 0.6673 0.75543 0.45576 0.0
C696 C 0.65473 0.74811 0.39616 0.0
C697 C 0.66913 0.73408 0.37754 0.0
C698 C 0.67752 0.74331 0.34505 0.0
C699 C 0.67023 0.76685 0.33105 0.0
C700 C 0.65474 0.78094 0.34952 0.0
C701 C 0.6479 0.77212 0.38268 0.0
H702 H 0.53145 0.15063 0.55687 0.0
H703 H 0.4439 0.05376 0.59625 0.0
H704 H 0.43724 0.08252 0.64191 0.0
H705 H 0.57344 0.1835 0.63092 0.0
H706 H 0.58682 0.2265 0.62093 0.0
H707 H 0.58146 0.19882 0.58946 0.0
H708 H 0.53483 0.20964 0.56032 0.0
H709 H 0.54015 0.2375 0.5917 0.0
H710 H 0.49514 0.20203 0.5819 0.0
H711 H 0.44306 0.12179 0.6852 0.0
H712 H 0.46283 0.16788 0.72349 0.0
H713 H 0.54777 0.2385 0.65617 0.0
C714 C 0.51026 0.13567 0.57467 0.0
C715 C 0.4879 0.10007 0.57295 0.0
C716 C 0.46123 0.0811 0.59722 0.0
C717 C 0.45716 0.09722 0.62311 0.0
C718 C 0.48012 0.13236 0.62446 0.0
C719 C 0.50619 0.15134 0.60089 0.0
C720 C 0.52954 0.18831 0.60935 0.0
C721 C 0.57021 0.19995 0.61288 0.0
C722 C 0.5246 0.21069 0.58433 0.0
C723 C 0.51291 0.18708 0.64154 0.0
C724 C 0.48412 0.15471 0.64971 0.0
C725 C 0.4654 0.14731 0.67893 0.0
C726 C 0.47677 0.17362 0.70052 0.0
C727 C 0.50683 0.20676 0.69287 0.0
C728 C 0.52465 0.21346 0.66277 0.0
H729 H 0.41036 0.43677 0.12431 0.0
H730 H 0.41262 0.49346 0.03802 0.0
H731 H 0.36479 0.49995 0.06149 0.0
H732 H 0.3096 0.39582 0.14389 0.0
H733 H 0.31935 0.40043 0.18651 0.0
H734 H 0.34737 0.39371 0.16018 0.0
H735 H 0.40544 0.44818 0.18061 0.0
H736 H 0.37774 0.45531 0.20665 0.0
H737 H 0.40775 0.48781 0.17755 0.0
H738 H 0.32666 0.50974 0.09776 0.0
H739 H 0.29951 0.52084 0.14351 0.0
H740 H 0.32135 0.45755 0.20658 0.0
C741 C 0.39991 0.44953 0.10981 0.0
C742 C 0.41513 0.46451 0.07924 0.0
C743 C 0.40118 0.48157 0.06136 0.0
C744 C 0.37395 0.48531 0.0745 0.0
C745 C 0.36073 0.47153 0.10534 0.0
C746 C 0.37292 0.45359 0.12263 0.0
C747 C 0.35784 0.44496 0.15673 0.0
C748 C 0.33199 0.40643 0.16213 0.0
C749 C 0.38905 0.45998 0.18184 0.0
C750 C 0.33681 0.4624 0.15652 0.0
C751 C 0.33833 0.47706 0.12644 0.0
C752 C 0.32449 0.49768 0.12115 0.0
C753 C 0.30935 0.50401 0.14732 0.0
C754 C 0.30816 0.48979 0.1784 0.0
C755 C 0.32115 0.468 0.18286 0.0
H756 H 0.89809 0.35193 0.56211 0.0
H757 H 1.0029 0.42496 0.60487 0.0
H758 H 0.98414 0.38964 0.65562 0.0
H759 H 0.84555 0.3391 0.62839 0.0
H760 H 0.81288 0.29471 0.62206 0.0
H761 H 0.83725 0.32284 0.58833 0.0
H762 H 0.86099 0.28471 0.57304 0.0
H763 H 0.83665 0.25639 0.60688 0.0
H764 H 0.88532 0.27478 0.60261 0.0
H765 H 0.95015 0.34762 0.70369 0.0
H766 H 0.90381 0.30696 0.74382 0.0
H767 H 0.82192 0.26474 0.66824 0.0
C768 C 0.9176 0.36036 0.58182 0.0
C769 C 0.95207 0.39117 0.57943 0.0
C770 C 0.97642 0.4013 0.60607 0.0
C771 C 0.966 0.38133 0.63494 0.0
C772 C 0.93129 0.35134 0.63659 0.0
C773 C 0.90758 0.34105 0.61055 0.0
C774 C 0.87049 0.30995 0.61885 0.0
C775 C 0.83976 0.31711 0.61415 0.0
C776 C 0.86294 0.27967 0.59918 0.0
C777 C 0.87634 0.30476 0.65403 0.0
C778 C 0.91174 0.32825 0.66389 0.0
C779 C 0.92255 0.32895 0.69603 0.0
C780 C 0.8962 0.30572 0.71862 0.0
C781 C 0.85952 0.28281 0.70891 0.0
C782 C 0.8499 0.28194 0.67617 0.0
H783 H 0.62296 0.01448 0.17684 0.0
H784 H 0.68682 0.03309 0.09056 0.0
H785 H 0.70476 0.99401 0.11215 0.0
H786 H 0.68398 1.0026 0.23515 0.0
H787 H 0.64458 0.96946 0.25718 0.0
H788 H 0.64314 1.00388 0.23777 0.0
H789 H 0.58443 0.96045 0.2069 0.0
H790 H 0.58595 0.92603 0.22577 0.0
H791 H 0.58554 0.93008 0.18239 0.0
H792 H 0.70554 0.94491 0.13826 0.0
H793 H 0.69244 0.89284 0.16849 0.0
H794 H 0.63007 0.9083 0.23851 0.0
C795 C 0.64217 0.01168 0.16318 0.0
C796 C 0.65383 0.02711 0.13214 0.0
C797 C 0.67775 0.0216 0.11446 0.0
C798 C 0.6881 0.9995 0.12656 0.0
C799 C 0.67466 0.98341 0.1566 0.0
C800 C 0.65269 0.98969 0.17493 0.0
C801 C 0.63845 0.96646 0.20469 0.0
C802 C 0.65345 0.98683 0.23553 0.0
C803 C 0.59612 0.94447 0.20492 0.0
C804 C 0.65475 0.94533 0.19967 0.0
C805 C 0.67574 0.95554 0.17193 0.0
C806 C 0.69005 0.93728 0.16052 0.0
C807 C 0.68238 0.90769 0.17775 0.0
C808 C 0.66077 0.89681 0.20611 0.0
C809 C 0.64754 0.91641 0.21742 0.0
H810 H 0.55119 0.5174 0.63559 0.0
H811 H 0.62029 0.61848 0.59278 0.0
H812 H 0.66834 0.63082 0.63331 0.0
H813 H 0.58267 0.53862 0.72167 0.0
H814 H 0.58087 0.49943 0.72803 0.0
H815 H 0.54922 0.50145 0.70046 0.0
H816 H 0.57069 0.47944 0.65488 0.0
H817 H 0.60221 0.47741 0.68236 0.0
H818 H 0.61889 0.50208 0.64513 0.0
H819 H 0.71284 0.62854 0.67275 0.0
H820 H 0.74822 0.61206 0.70805 0.0
H821 H 0.64971 0.51226 0.72344 0.0
C822 C 0.5757 0.54267 0.63556 0.0
C823 C 0.58175 0.56708 0.61119 0.0
C824 C 0.61485 0.59946 0.61142 0.0
C825 C 0.64235 0.60671 0.63436 0.0
C826 C 0.63626 0.58139 0.65705 0.0
C827 C 0.60347 0.55015 0.65804 0.0
C828 C 0.60524 0.52578 0.68192 0.0
C829 C 0.57788 0.51575 0.70968 0.0
C830 C 0.59886 0.49431 0.66508 0.0
C831 C 0.64449 0.54775 0.6934 0.0
C832 C 0.66193 0.57991 0.67924 0.0
C833 C 0.69922 0.60362 0.68445 0.0
C834 C 0.71915 0.59405 0.70444 0.0
C835 C 0.70179 0.56093 0.71853 0.0
C836 C 0.66386 0.53788 0.71322 0.0
H837 H 0.06901 0.62981 0.10108 0.0
H838 H 0.98156 0.60074 0.16947 0.0
H839 H 0.02611 0.646 0.2053 0.0
H840 H 0.13227 0.63952 0.15668 0.0
H841 H 0.17155 0.67474 0.13635 0.0
H842 H 0.13203 0.6452 0.11345 0.0
H843 H 0.1265 0.69403 0.08899 0.0
H844 H 0.16648 0.72408 0.11143 0.0
H845 H 0.12409 0.72248 0.11536 0.0
H846 H 0.0822 0.68966 0.23652 0.0
H847 H 0.14387 0.72564 0.26062 0.0
H848 H 0.1935 0.72416 0.17137 0.0
C849 C 0.05869 0.63362 0.12291 0.0
C850 C 0.02156 0.61186 0.13223 0.0
C851 C 1.00983 0.6172 0.16177 0.0
C852 C 0.03492 0.64293 0.18218 0.0
C853 C 0.07163 0.66313 0.17265 0.0
C854 C 0.08335 0.65876 0.14356 0.0
C855 C 0.12468 0.6806 0.1404 0.0
C856 C 0.14106 0.65871 0.13651 0.0
C857 C 0.1361 0.70686 0.11238 0.0
C858 C 0.13465 0.69736 0.17262 0.0
C859 C 0.10377 0.68749 0.19076 0.0
C860 C 0.10651 0.69798 0.22229 0.0
C861 C 0.14167 0.71846 0.23577 0.0
C862 C 0.17353 0.72783 0.21783 0.0
C863 C 0.16975 0.71771 0.18564 0.0
loop_
_geom_bond_atom_site_label_1
_geom_bond_atom_site_label_2
_geom_bond_distance
_geom_bond_site_symmetry_2
_ccdc_geom_bond_type
Cu0 N1 1.999 1_454 S
Cu0 O6 1.974 1_454 S
Cu0 N11 1.985 . S
Cu0 O20 1.959 . S
N1 Cu0 1.999 1_656 S
N1 C3 1.263 . S
N1 C5 1.389 1_556 S
N2 C3 1.358 . S
N2 C4 1.400 . S
C3 N1 1.263 . S
C3 N2 1.358 . S
C3 H9 0.930 . S
C4 N2 1.400 . S
C4 C5 1.351 1_556 S
C4 H21 0.930 . S
C5 N1 1.389 1_554 S
C5 C4 1.351 1_554 S
C5 H10 0.930 . S
O6 Cu0 1.974 1_656 S
O6 C16 1.282 1_655 S
C7 O8 1.261 . S
C7 O20 1.251 . S
O8 C7 1.261 . S
H9 C3 0.930 . S
H10 C5 0.930 . S
N11 Cu0 1.985 . S
N11 C13 1.335 . S
N11 C14 1.390 . S
N12 C13 1.345 . S
N12 C15 1.336 . S
C13 N11 1.335 . S
C13 N12 1.345 . S
C13 H18 0.930 . S
C14 N11 1.390 . S
C14 C15 1.346 . S
C14 H19 0.930 . S
C15 N12 1.336 . S
C15 C14 1.346 . S
C15 H22 0.929 . S
C16 O6 1.282 1_455 S
C16 O17 1.216 . S
O17 C16 1.216 . S
H18 C13 0.930 . S
H19 C14 0.930 . S
O20 Cu0 1.959 . S
O20 C7 1.251 . S
H21 C4 0.930 . S
H22 C15 0.929 . S
Cu23 N24 1.999 . S
Cu23 O29 1.974 . S
Cu23 N34 1.985 1_565 S
Cu23 O43 1.959 1_565 S
N24 Cu23 1.999 . S
N24 C26 1.263 . S
N24 C28 1.389 . S
N25 C26 1.358 . S
N25 C27 1.400 . S
C26 N24 1.263 . S
C26 N25 1.358 . S
C26 H32 0.930 . S
C27 N25 1.400 . S
C27 C28 1.351 . S
C27 H44 0.930 . S
C28 N24 1.389 . S
C28 C27 1.351 . S
C28 H33 0.930 . S
O29 Cu23 1.974 . S
O29 C39 1.282 . S
C30 O31 1.261 . S
C30 O43 1.251 . S
O31 C30 1.261 . S
H32 C26 0.930 . S
H33 C28 0.930 . S
N34 Cu23 1.985 1_545 S
N34 C36 1.335 . S
N34 C37 1.390 . S
N35 C36 1.345 . S
N35 C38 1.336 . S
C36 N34 1.335 . S
C36 N35 1.345 . S
C36 H41 0.930 . S
C37 N34 1.390 . S
C37 C38 1.346 . S
C37 H42 0.930 . S
C38 N35 1.336 . S
C38 C37 1.346 . S
C38 H45 0.929 . S
C39 O29 1.282 . S
C39 O40 1.216 1_565 S
O40 C39 1.216 1_545 S
H41 C36 0.930 . S
H42 C37 0.930 . S
O43 Cu23 1.959 1_545 S
O43 C30 1.251 . S
H44 C27 0.930 . S
H45 C38 0.929 . S
Cu46 N47 1.999 1_554 S
Cu46 O52 1.974 1_554 S
Cu46 N57 1.985 . S
Cu46 O66 1.959 . S
N47 Cu46 1.999 1_556 S
N47 C49 1.263 . S
N47 C51 1.389 . S
N48 C49 1.358 . S
N48 C50 1.400 . S
C49 N47 1.263 . S
C49 N48 1.358 . S
C49 H55 0.930 . S
C50 N48 1.400 . S
C50 C51 1.351 . S
C50 H67 0.930 . S
C51 N47 1.389 . S
C51 C50 1.351 . S
C51 H56 0.930 . S
O52 Cu46 1.974 1_556 S
O52 C62 1.282 . S
C53 O54 1.261 . S
C53 O66 1.251 . S
O54 C53 1.261 . S
H55 C49 0.930 . S
H56 C51 0.930 . S
N57 Cu46 1.985 . S
N57 C59 1.335 . S
N57 C60 1.390 . S
N58 C59 1.345 . S
N58 C61 1.336 . S
C59 N57 1.335 . S
C59 N58 1.345 . S
C59 H64 0.930 . S
C60 N57 1.390 . S
C60 C61 1.346 . S
C60 H65 0.930 . S
C61 N58 1.336 . S
C61 C60 1.346 . S
C61 H68 0.929 . S
C62 O52 1.282 . S
C62 O63 1.216 1_556 S
O63 C62 1.216 1_554 S
H64 C59 0.930 . S
H65 C60 0.930 . S
O66 Cu46 1.959 . S
O66 C53 1.251 . S
H67 C50 0.930 . S
H68 C61 0.929 . S
Cu69 N70 1.999 1_655 S
Cu69 O75 1.974 1_655 S
Cu69 N80 1.985 . S
Cu69 O89 1.959 . S
N70 Cu69 1.999 1_455 S
N70 C72 1.263 . S
N70 C74 1.389 1_455 S
N71 C72 1.358 . S
N71 C73 1.400 . S
C72 N70 1.263 . S
C72 N71 1.358 . S
C72 H78 0.930 . S
C73 N71 1.400 . S
C73 C74 1.351 1_455 S
C73 H90 0.930 1_455 S
C74 N70 1.389 1_655 S
C74 C73 1.351 1_655 S
C74 H79 0.930 . S
O75 Cu69 1.974 1_455 S
O75 C85 1.282 . S
C76 O77 1.261 1_655 S
C76 O89 1.251 . S
O77 C76 1.261 1_455 S
H78 C72 0.930 . S
H79 C74 0.930 . S
N80 Cu69 1.985 . S
N80 C82 1.335 . S
N80 C83 1.390 . S
N81 C82 1.345 . S
N81 C84 1.336 . S
C82 N80 1.335 . S
C82 N81 1.345 . S
C82 H87 0.930 . S
C83 N80 1.390 . S
C83 C84 1.346 . S
C83 H88 0.930 1_655 S
C84 N81 1.336 . S
C84 C83 1.346 . S
C84 H91 0.929 . S
C85 O75 1.282 . S
C85 O86 1.216 . S
O86 C85 1.216 . S
H87 C82 0.930 . S
H88 C83 0.930 1_455 S
O89 Cu69 1.959 . S
O89 C76 1.251 . S
H90 C73 0.930 1_655 S
H91 C84 0.929 . S
Cu92 N93 2.001 1_554 S
Cu92 O98 1.974 1_554 S
Cu92 N103 1.985 1_545 S
Cu92 O112 1.959 1_545 S
N93 Cu92 2.001 1_556 S
N93 C95 1.259 . S
N93 C97 1.391 1_556 S
N94 C95 1.358 . S
N94 C96 1.400 . S
C95 N93 1.259 . S
C95 N94 1.358 . S
C95 H101 0.930 . S
C96 N94 1.400 . S
C96 C97 1.351 1_556 S
C96 H113 0.930 . S
C97 N93 1.391 1_554 S
C97 C96 1.351 1_554 S
C97 H102 0.930 . S
O98 Cu92 1.974 1_556 S
O98 C108 1.282 . S
C99 O100 1.261 . S
C99 O112 1.251 . S
O100 C99 1.261 . S
H101 C95 0.930 . S
H102 C97 0.930 . S
N103 Cu92 1.985 1_565 S
N103 C105 1.335 . S
N103 C106 1.390 . S
N104 C105 1.345 . S
N104 C107 1.336 . S
C105 N103 1.335 . S
C105 N104 1.345 . S
C105 H110 0.930 . S
C106 N103 1.390 . S
C106 C107 1.346 . S
C106 H111 0.930 . S
C107 N104 1.336 . S
C107 C106 1.346 . S
C107 H114 0.929 . S
C108 O98 1.282 . S
C108 O109 1.216 1_545 S
O109 C108 1.216 1_565 S
H110 C105 0.930 . S
H111 C106 0.930 . S
O112 Cu92 1.959 1_565 S
O112 C99 1.251 . S
H113 C96 0.930 . S
H114 C107 0.929 . S
Cu115 N116 1.999 . S
Cu115 O121 1.974 . S
Cu115 N126 1.985 . S
Cu115 O135 1.959 . S
N116 Cu115 1.999 . S
N116 C118 1.263 . S
N116 C120 1.389 . S
N117 C118 1.358 . S
N117 C119 1.400 . S
C118 N116 1.263 . S
C118 N117 1.358 . S
C118 H124 0.930 . S
C119 N117 1.400 . S
C119 C120 1.351 . S
C119 H136 0.930 . S
C120 N116 1.389 . S
C120 C119 1.351 . S
C120 H125 0.930 . S
O121 Cu115 1.974 . S
O121 C131 1.282 . S
C122 O123 1.261 . S
C122 O135 1.251 . S
O123 C122 1.261 . S
H124 C118 0.930 . S
H125 C120 0.930 . S
N126 Cu115 1.985 . S
N126 C128 1.335 . S
N126 C129 1.390 . S
N127 C128 1.345 . S
N127 C130 1.336 . S
C128 N126 1.335 . S
C128 N127 1.345 . S
C128 H133 0.930 . S
C129 N126 1.390 . S
C129 C130 1.346 . S
C129 H134 0.930 . S
C130 N127 1.336 . S
C130 C129 1.346 . S
C130 H137 0.929 . S
C131 O121 1.282 . S
C131 O132 1.216 . S
O132 C131 1.216 . S
H133 C128 0.930 . S
H134 C129 0.930 . S
O135 Cu115 1.959 . S
O135 C122 1.251 . S
H136 C119 0.930 . S
H137 C130 0.929 . S
Mg138 O145 2.141 . S
Mg138 O146 2.048 . S
Mg138 O147 2.048 . S
Mg138 O150 2.141 . S
C139 O140 1.313 . S
C139 O146 1.195 . S
O140 C139 1.313 . S
C141 O142 1.245 . S
C141 O150 1.289 . S
O142 C141 1.245 . S
C143 O144 1.245 . S
C143 O145 1.289 . S
O144 C143 1.245 . S
O145 Mg138 2.141 . S
O145 C143 1.289 . S
O146 Mg138 2.048 . S
O146 C139 1.195 . S
O147 Mg138 2.048 . S
O147 C148 1.195 . S
C148 O147 1.195 . S
C148 O149 1.313 . S
O149 C148 1.313 . S
O150 Mg138 2.141 . S
O150 C141 1.289 . S
Mg151 O158 2.141 . S
Mg151 O159 2.048 . S
Mg151 O160 2.048 . S
Mg151 O163 2.141 . S
C152 O153 1.313 . S
C152 O159 1.195 . S
O153 C152 1.313 . S
C154 O155 1.245 . S
C154 O163 1.289 . S
O155 C154 1.245 . S
C156 O157 1.245 . S
C156 O158 1.289 . S
O157 C156 1.245 . S
O158 Mg151 2.141 . S
O158 C156 1.289 . S
O159 Mg151 2.048 . S
O159 C152 1.195 . S
O160 Mg151 2.048 . S
O160 C161 1.195 . S
C161 O160 1.195 . S
C161 O162 1.313 . S
O162 C161 1.313 . S
O163 Mg151 2.141 . S
O163 C154 1.289 . S
Mg164 O171 2.141 . S
Mg164 O172 2.048 . S
Mg164 O173 2.048 . S
Mg164 O176 2.141 . S
C165 O166 1.313 . S
C165 O172 1.195 . S
O166 C165 1.313 . S
C167 O168 1.245 . S
C167 O176 1.289 . S
O168 C167 1.245 . S
C169 O170 1.245 . S
C169 O171 1.289 . S
O170 C169 1.245 . S
O171 Mg164 2.141 . S
O171 C169 1.289 . S
O172 Mg164 2.048 . S
O172 C165 1.195 . S
O173 Mg164 2.048 . S
O173 C174 1.195 . S
C174 O173 1.195 . S
C174 O175 1.313 . S
O175 C174 1.313 . S
O176 Mg164 2.141 . S
O176 C167 1.289 . S
Mg177 O184 2.141 . S
Mg177 O185 2.048 . S
Mg177 O186 2.048 . S
Mg177 O189 2.141 . S
C178 O179 1.313 . S
C178 O185 1.195 . S
O179 C178 1.313 . S
C180 O181 1.245 . S
C180 O189 1.289 . S
O181 C180 1.245 . S
C182 O183 1.245 . S
C182 O184 1.289 . S
O183 C182 1.245 . S
O184 Mg177 2.141 . S
O184 C182 1.289 . S
O185 Mg177 2.048 . S
O185 C178 1.195 . S
O186 Mg177 2.048 . S
O186 C187 1.195 . S
C187 O186 1.195 . S
C187 O188 1.313 . S
O188 C187 1.313 . S
O189 Mg177 2.141 . S
O189 C180 1.289 . S
Mg190 O197 2.141 . S
Mg190 O198 2.048 . S
Mg190 O199 2.048 . S
Mg190 O202 2.141 . S
C191 O192 1.313 . S
C191 O198 1.195 . S
O192 C191 1.313 . S
C193 O194 1.245 . S
C193 O202 1.289 . S
O194 C193 1.245 . S
C195 O196 1.245 . S
C195 O197 1.289 . S
O196 C195 1.245 . S
O197 Mg190 2.141 . S
O197 C195 1.289 . S
O198 Mg190 2.048 . S
O198 C191 1.195 . S
O199 Mg190 2.048 . S
O199 C200 1.195 . S
C200 O199 1.195 . S
C200 O201 1.313 . S
O201 C200 1.313 . S
O202 Mg190 2.141 . S
O202 C193 1.289 . S
Mg203 O210 2.141 . S
Mg203 O211 2.048 . S
Mg203 O212 2.048 . S
Mg203 O215 2.141 . S
C204 O205 1.313 . S
C204 O211 1.195 . S
O205 C204 1.313 . S
C206 O207 1.245 . S
C206 O215 1.289 . S
O207 C206 1.245 . S
C208 O209 1.245 . S
C208 O210 1.289 . S
O209 C208 1.245 . S
O210 Mg203 2.141 . S
O210 C208 1.289 . S
O211 Mg203 2.048 . S
O211 C204 1.195 . S
O212 Mg203 2.048 . S
O212 C213 1.195 . S
C213 O212 1.195 . S
C213 O214 1.313 . S
O214 C213 1.313 . S
O215 Mg203 2.141 . S
O215 C206 1.289 . S
H216 C228 0.930 . S
H217 C230 0.930 . S
H218 C231 0.930 . S
H219 C235 0.959 . S
H220 C235 0.959 . S
H221 C235 0.961 . S
H222 C236 0.960 . S
H223 C236 0.961 . S
H224 C236 0.959 . S
H225 C239 0.929 . S
H226 C240 0.931 . S
H227 C242 0.930 . S
C228 H216 0.930 . S
C228 C229 1.399 . S
C228 C233 1.399 . S
C229 C228 1.399 . S
C229 C230 1.376 . S
C230 H217 0.930 . S
C230 C229 1.376 . S
C230 C231 1.388 . S
C231 H218 0.930 . S
C231 C230 1.388 . S
C231 C232 1.390 . S
C232 C231 1.390 . S
C232 C233 1.394 . S
C232 C238 1.465 . S
C233 C228 1.399 . S
C233 C232 1.394 . S
C233 C234 1.516 . S
C234 C233 1.516 . S
C234 C235 1.502 . S
C234 C236 1.561 . S
C234 C237 1.526 . S
C235 H219 0.959 . S
C235 H220 0.959 . S
C235 H221 0.961 . S
C235 C234 1.502 . S
C236 H222 0.960 . S
C236 H223 0.961 . S
C236 H224 0.959 . S
C236 C234 1.561 . S
C237 C234 1.526 . S
C237 C238 1.396 . S
C237 C242 1.390 . S
C238 C232 1.465 . S
C238 C237 1.396 . S
C238 C239 1.399 . S
C239 H225 0.929 . S
C239 C238 1.399 . S
C239 C240 1.385 . S
C240 H226 0.931 . S
C240 C239 1.385 . S
C240 C241 1.389 . S
C241 C240 1.389 . S
C241 C242 1.387 . S
C242 H227 0.930 . S
C242 C237 1.390 . S
C242 C241 1.387 . S
H243 C255 0.930 . S
H244 C257 0.930 . S
H245 C258 0.930 . S
H246 C262 0.959 . S
H247 C262 0.959 . S
H248 C262 0.961 . S
H249 C263 0.960 . S
H250 C263 0.961 . S
H251 C263 0.959 . S
H252 C266 0.929 . S
H253 C267 0.931 . S
H254 C269 0.930 . S
C255 H243 0.930 . S
C255 C256 1.399 . S
C255 C260 1.399 . S
C256 C255 1.399 . S
C256 C257 1.376 . S
C257 H244 0.930 . S
C257 C256 1.376 . S
C257 C258 1.388 . S
C258 H245 0.930 . S
C258 C257 1.388 . S
C258 C259 1.390 . S
C259 C258 1.390 . S
C259 C260 1.394 . S
C259 C265 1.465 . S
C260 C255 1.399 . S
C260 C259 1.394 . S
C260 C261 1.516 . S
C261 C260 1.516 . S
C261 C262 1.502 . S
C261 C263 1.561 . S
C261 C264 1.526 . S
C262 H246 0.959 . S
C262 H247 0.959 . S
C262 H248 0.961 . S
C262 C261 1.502 . S
C263 H249 0.960 . S
C263 H250 0.961 . S
C263 H251 0.959 . S
C263 C261 1.561 . S
C264 C261 1.526 . S
C264 C265 1.396 . S
C264 C269 1.390 . S
C265 C259 1.465 . S
C265 C264 1.396 . S
C265 C266 1.399 . S
C266 H252 0.929 . S
C266 C265 1.399 . S
C266 C267 1.385 . S
C267 H253 0.931 . S
C267 C266 1.385 . S
C267 C268 1.389 . S
C268 C267 1.389 . S
C268 C269 1.387 . S
C269 H254 0.930 . S
C269 C264 1.390 . S
C269 C268 1.387 . S
H270 C282 0.930 . S
H271 C284 0.930 . S
H272 C285 0.930 . S
H273 C289 0.959 . S
H274 C289 0.959 . S
H275 C289 0.961 . S
H276 C290 0.960 . S
H277 C290 0.961 . S
H278 C290 0.959 . S
H279 C293 0.929 . S
H280 C294 0.931 . S
H281 C296 0.930 . S
C282 H270 0.930 . S
C282 C283 1.399 . S
C282 C287 1.399 . S
C283 C282 1.399 . S
C283 C284 1.376 . S
C284 H271 0.930 . S
C284 C283 1.376 . S
C284 C285 1.388 . S
C285 H272 0.930 . S
C285 C284 1.388 . S
C285 C286 1.390 . S
C286 C285 1.390 . S
C286 C287 1.394 . S
C286 C292 1.465 . S
C287 C282 1.399 . S
C287 C286 1.394 . S
C287 C288 1.516 . S
C288 C287 1.516 . S
C288 C289 1.502 . S
C288 C290 1.561 . S
C288 C291 1.526 . S
C289 H273 0.959 . S
C289 H274 0.959 . S
C289 H275 0.961 . S
C289 C288 1.502 . S
C290 H276 0.960 . S
C290 H277 0.961 . S
C290 H278 0.959 . S
C290 C288 1.561 . S
C291 C288 1.526 . S
C291 C292 1.396 . S
C291 C296 1.390 . S
C292 C286 1.465 . S
C292 C291 1.396 . S
C292 C293 1.399 . S
C293 H279 0.929 . S
C293 C292 1.399 . S
C293 C294 1.385 . S
C294 H280 0.931 . S
C294 C293 1.385 . S
C294 C295 1.389 . S
C295 C294 1.389 . S
C295 C296 1.387 . S
C296 H281 0.930 . S
C296 C291 1.390 . S
C296 C295 1.387 . S
H297 C309 0.930 . S
H298 C311 0.930 . S
H299 C312 0.930 . S
H300 C316 0.959 . S
H301 C316 0.959 . S
H302 C316 0.961 . S
H303 C317 0.960 . S
H304 C317 0.961 . S
H305 C317 0.959 . S
H306 C320 0.929 . S
H307 C321 0.931 . S
H308 C323 0.930 . S
C309 H297 0.930 . S
C309 C310 1.399 . S
C309 C314 1.399 . S
C310 C309 1.399 . S
C310 C311 1.376 . S
C311 H298 0.930 . S
C311 C310 1.376 . S
C311 C312 1.388 . S
C312 H299 0.930 . S
C312 C311 1.388 . S
C312 C313 1.390 . S
C313 C312 1.390 . S
C313 C314 1.394 . S
C313 C319 1.465 . S
C314 C309 1.399 . S
C314 C313 1.394 . S
C314 C315 1.516 . S
C315 C314 1.516 . S
C315 C316 1.502 . S
C315 C317 1.561 . S
C315 C318 1.526 . S
C316 H300 0.959 . S
C316 H301 0.959 . S
C316 H302 0.961 . S
C316 C315 1.502 . S
C317 H303 0.960 . S
C317 H304 0.961 . S
C317 H305 0.959 . S
C317 C315 1.561 . S
C318 C315 1.526 . S
C318 C319 1.396 . S
C318 C323 1.390 . S
C319 C313 1.465 . S
C319 C318 1.396 . S
C319 C320 1.399 . S
C320 H306 0.929 . S
C320 C319 1.399 . S
C320 C321 1.385 . S
C321 H307 0.931 . S
C321 C320 1.385 . S
C321 C322 1.389 . S
C322 C321 1.389 . S
C322 C323 1.387 . S
C323 H308 0.930 . S
C323 C318 1.390 . S
C323 C322 1.387 . S
H324 C336 0.930 . S
H325 C338 0.930 . S
H326 C339 0.930 . S
H327 C343 0.959 . S
H328 C343 0.959 . S
H329 C343 0.961 . S
H330 C344 0.960 . S
H331 C344 0.961 . S
H332 C344 0.959 . S
H333 C347 0.929 . S
H334 C348 0.931 . S
H335 C350 0.930 . S
C336 H324 0.930 . S
C336 C337 1.399 . S
C336 C341 1.399 . S
C337 C336 1.399 . S
C337 C338 1.376 . S
C338 H325 0.930 . S
C338 C337 1.376 . S
C338 C339 1.388 . S
C339 H326 0.930 . S
C339 C338 1.388 . S
C339 C340 1.390 . S
C340 C339 1.390 . S
C340 C341 1.394 . S
C340 C346 1.465 . S
C341 C336 1.399 . S
C341 C340 1.394 . S
C341 C342 1.516 . S
C342 C341 1.516 . S
C342 C343 1.502 . S
C342 C344 1.561 . S
C342 C345 1.526 . S
C343 H327 0.959 . S
C343 H328 0.959 . S
C343 H329 0.961 . S
C343 C342 1.502 . S
C344 H330 0.960 . S
C344 H331 0.961 . S
C344 H332 0.959 . S
C344 C342 1.561 . S
C345 C342 1.526 . S
C345 C346 1.396 . S
C345 C350 1.390 . S
C346 C340 1.465 . S
C346 C345 1.396 . S
C346 C347 1.399 . S
C347 H333 0.929 . S
C347 C346 1.399 . S
C347 C348 1.385 . S
C348 H334 0.931 . S
C348 C347 1.385 . S
C348 C349 1.389 . S
C349 C348 1.389 . S
C349 C350 1.387 . S
C350 H335 0.930 . S
C350 C345 1.390 . S
C350 C349 1.387 . S
H351 C363 0.930 . S
H352 C365 0.930 . S
H353 C366 0.930 . S
H354 C370 0.959 . S
H355 C370 0.959 . S
H356 C370 0.961 . S
H357 C371 0.960 . S
H358 C371 0.961 . S
H359 C371 0.959 . S
H360 C374 0.929 . S
H361 C375 0.931 . S
H362 C377 0.930 . S
C363 H351 0.930 . S
C363 C364 1.399 . S
C363 C368 1.399 . S
C364 C363 1.399 . S
C364 C365 1.376 . S
C365 H352 0.930 . S
C365 C364 1.376 . S
C365 C366 1.388 . S
C366 H353 0.930 . S
C366 C365 1.388 . S
C366 C367 1.390 . S
C367 C366 1.390 . S
C367 C368 1.394 . S
C367 C373 1.465 . S
C368 C363 1.399 . S
C368 C367 1.394 . S
C368 C369 1.516 . S
C369 C368 1.516 . S
C369 C370 1.502 . S
C369 C371 1.561 . S
C369 C372 1.526 . S
C370 H354 0.959 . S
C370 H355 0.959 . S
C370 H356 0.961 . S
C370 C369 1.502 . S
C371 H357 0.960 . S
C371 H358 0.961 . S
C371 H359 0.959 . S
C371 C369 1.561 . S
C372 C369 1.526 . S
C372 C373 1.396 . S
C372 C377 1.390 . S
C373 C367 1.465 . S
C373 C372 1.396 . S
C373 C374 1.399 . S
C374 H360 0.929 . S
C374 C373 1.399 . S
C374 C375 1.385 . S
C375 H361 0.931 . S
C375 C374 1.385 . S
C375 C376 1.389 . S
C376 C375 1.389 . S
C376 C377 1.387 . S
C377 H362 0.930 . S
C377 C372 1.390 . S
C377 C376 1.387 . S
H378 C390 0.930 . S
H379 C392 0.930 . S
H380 C393 0.930 . S
H381 C397 0.959 . S
H382 C397 0.959 . S
H383 C397 0.961 . S
H384 C398 0.960 . S
H385 C398 0.961 . S
H386 C398 0.959 . S
H387 C401 0.929 . S
H388 C402 0.931 . S
H389 C404 0.930 . S
C390 H378 0.930 . S
C390 C391 1.399 . S
C390 C395 1.399 . S
C391 C390 1.399 . S
C391 C392 1.376 . S
C392 H379 0.930 . S
C392 C391 1.376 . S
C392 C393 1.388 . S
C393 H380 0.930 . S
C393 C392 1.388 . S
C393 C394 1.390 . S
C394 C393 1.390 . S
C394 C395 1.394 . S
C394 C400 1.465 . S
C395 C390 1.399 . S
C395 C394 1.394 . S
C395 C396 1.516 . S
C396 C395 1.516 . S
C396 C397 1.502 . S
C396 C398 1.561 . S
C396 C399 1.526 . S
C397 H381 0.959 . S
C397 H382 0.959 . S
C397 H383 0.961 . S
C397 C396 1.502 . S
C398 H384 0.960 . S
C398 H385 0.961 . S
C398 H386 0.959 . S
C398 C396 1.561 . S
C399 C396 1.526 . S
C399 C400 1.396 . S
C399 C404 1.390 . S
C400 C394 1.465 . S
C400 C399 1.396 . S
C400 C401 1.399 . S
C401 H387 0.929 . S
C401 C400 1.399 . S
C401 C402 1.385 . S
C402 H388 0.931 . S
C402 C401 1.385 . S
C402 C403 1.389 . S
C403 C402 1.389 . S
C403 C404 1.387 . S
C404 H389 0.930 . S
C404 C399 1.390 . S
C404 C403 1.387 . S
H405 C417 0.930 . S
H406 C419 0.930 . S
H407 C420 0.930 . S
H408 C424 0.959 . S
H409 C424 0.959 . S
H410 C424 0.961 . S
H411 C425 0.960 . S
H412 C425 0.961 . S
H413 C425 0.959 . S
H414 C428 0.929 . S
H415 C429 0.931 . S
H416 C431 0.930 . S
C417 H405 0.930 . S
C417 C418 1.399 . S
C417 C422 1.399 . S
C418 C417 1.399 . S
C418 C419 1.376 . S
C419 H406 0.930 . S
C419 C418 1.376 . S
C419 C420 1.388 . S
C420 H407 0.930 . S
C420 C419 1.388 . S
C420 C421 1.390 . S
C421 C420 1.390 . S
C421 C422 1.394 . S
C421 C427 1.465 . S
C422 C417 1.399 . S
C422 C421 1.394 . S
C422 C423 1.516 . S
C423 C422 1.516 . S
C423 C424 1.502 . S
C423 C425 1.561 . S
C423 C426 1.526 . S
C424 H408 0.959 . S
C424 H409 0.959 . S
C424 H410 0.961 . S
C424 C423 1.502 . S
C425 H411 0.960 . S
C425 H412 0.961 . S
C425 H413 0.959 . S
C425 C423 1.561 . S
C426 C423 1.526 . S
C426 C427 1.396 . S
C426 C431 1.390 . S
C427 C421 1.465 . S
C427 C426 1.396 . S
C427 C428 1.399 . S
C428 H414 0.929 . S
C428 C427 1.399 . S
C428 C429 1.385 . S
C429 H415 0.931 . S
C429 C428 1.385 . S
C429 C430 1.389 . S
C430 C429 1.389 . S
C430 C431 1.387 . S
C431 H416 0.930 . S
C431 C426 1.390 . S
C431 C430 1.387 . S
H432 C444 0.930 . S
H433 C446 0.930 . S
H434 C447 0.930 . S
H435 C451 0.959 . S
H436 C451 0.959 . S
H437 C451 0.961 . S
H438 C452 0.960 . S
H439 C452 0.961 . S
H440 C452 0.959 . S
H441 C455 0.929 . S
H442 C456 0.931 . S
H443 C458 0.930 . S
C444 H432 0.930 . S
C444 C445 1.399 . S
C444 C449 1.399 . S
C445 C444 1.399 . S
C445 C446 1.376 . S
C446 H433 0.930 . S
C446 C445 1.376 . S
C446 C447 1.388 . S
C447 H434 0.930 . S
C447 C446 1.388 . S
C447 C448 1.390 . S
C448 C447 1.390 . S
C448 C449 1.394 . S
C448 C454 1.465 . S
C449 C444 1.399 . S
C449 C448 1.394 . S
C449 C450 1.516 . S
C450 C449 1.516 . S
C450 C451 1.502 . S
C450 C452 1.561 . S
C450 C453 1.526 . S
C451 H435 0.959 . S
C451 H436 0.959 . S
C451 H437 0.961 . S
C451 C450 1.502 . S
C452 H438 0.960 . S
C452 H439 0.961 . S
C452 H440 0.959 . S
C452 C450 1.561 . S
C453 C450 1.526 . S
C453 C454 1.396 . S
C453 C458 1.390 . S
C454 C448 1.465 . S
C454 C453 1.396 . S
C454 C455 1.399 . S
C455 H441 0.929 . S
C455 C454 1.399 . S
C455 C456 1.385 . S
C456 H442 0.931 . S
C456 C455 1.385 . S
C456 C457 1.389 . S
C457 C456 1.389 . S
C457 C458 1.387 . S
C458 H443 0.930 . S
C458 C453 1.390 . S
C458 C457 1.387 . S
H459 C471 0.930 . S
H460 C473 0.930 . S
H461 C474 0.930 . S
H462 C478 0.959 . S
H463 C478 0.959 . S
H464 C478 0.961 . S
H465 C479 0.960 . S
H466 C479 0.961 . S
H467 C479 0.959 . S
H468 C482 0.929 . S
H469 C483 0.931 . S
H470 C485 0.930 . S
C471 H459 0.930 . S
C471 C472 1.399 . S
C471 C476 1.399 . S
C472 C471 1.399 . S
C472 C473 1.376 . S
C473 H460 0.930 . S
C473 C472 1.376 . S
C473 C474 1.388 . S
C474 H461 0.930 . S
C474 C473 1.388 . S
C474 C475 1.390 . S
C475 C474 1.390 . S
C475 C476 1.394 . S
C475 C481 1.465 . S
C476 C471 1.399 . S
C476 C475 1.394 . S
C476 C477 1.516 . S
C477 C476 1.516 . S
C477 C478 1.502 . S
C477 C479 1.561 . S
C477 C480 1.526 . S
C478 H462 0.959 . S
C478 H463 0.959 . S
C478 H464 0.961 . S
C478 C477 1.502 . S
C479 H465 0.960 . S
C479 H466 0.961 . S
C479 H467 0.959 . S
C479 C477 1.561 . S
C480 C477 1.526 . S
C480 C481 1.396 . S
C480 C485 1.390 . S
C481 C475 1.465 . S
C481 C480 1.396 . S
C481 C482 1.399 . S
C482 H468 0.929 . S
C482 C481 1.399 . S
C482 C483 1.385 . S
C483 H469 0.931 . S
C483 C482 1.385 . S
C483 C484 1.389 . S
C484 C483 1.389 . S
C484 C485 1.387 . S
C485 H470 0.930 . S
C485 C480 1.390 . S
C485 C484 1.387 . S
H486 C498 0.930 . S
H487 C500 0.930 . S
H488 C501 0.930 . S
H489 C505 0.959 . S
H490 C505 0.959 . S
H491 C505 0.961 . S
H492 C506 0.960 . S
H493 C506 0.961 . S
H494 C506 0.959 . S
H495 C509 0.929 . S
H496 C510 0.931 . S
H497 C512 0.930 . S
C498 H486 0.930 . S
C498 C499 1.399 . S
C498 C503 1.399 . S
C499 C498 1.399 . S
C499 C500 1.376 . S
C500 H487 0.930 . S
C500 C499 1.376 . S
C500 C501 1.388 . S
C501 H488 0.930 . S
C501 C500 1.388 . S
C501 C502 1.390 . S
C502 C501 1.390 . S
C502 C503 1.394 . S
C502 C508 1.465 . S
C503 C498 1.399 . S
C503 C502 1.394 . S
C503 C504 1.516 . S
C504 C503 1.516 . S
C504 C505 1.502 . S
C504 C506 1.561 . S
C504 C507 1.526 . S
C505 H489 0.959 . S
C505 H490 0.959 . S
C505 H491 0.961 . S
C505 C504 1.502 . S
C506 H492 0.960 . S
C506 H493 0.961 . S
C506 H494 0.959 . S
C506 C504 1.561 . S
C507 C504 1.526 . S
C507 C508 1.396 . S
C507 C512 1.390 . S
C508 C502 1.465 . S
C508 C507 1.396 . S
C508 C509 1.399 . S
C509 H495 0.929 . S
C509 C508 1.399 . S
C509 C510 1.385 . S
C510 H496 0.931 . S
C510 C509 1.385 . S
C510 C511 1.389 . S
C511 C510 1.389 . S
C511 C512 1.387 . S
C512 H497 0.930 . S
C512 C507 1.390 . S
C512 C511 1.387 . S
H513 C525 0.930 . S
H514 C527 0.930 . S
H515 C528 0.930 . S
H516 C532 0.959 . S
H517 C532 0.959 . S
H518 C532 0.961 . S
H519 C533 0.960 . S
H520 C533 0.961 . S
H521 C533 0.959 . S
H522 C536 0.929 . S
H523 C537 0.931 . S
H524 C539 0.930 . S
C525 H513 0.930 . S
C525 C526 1.399 . S
C525 C530 1.399 . S
C526 C525 1.399 . S
C526 C527 1.376 . S
C527 H514 0.930 . S
C527 C526 1.376 . S
C527 C528 1.388 . S
C528 H515 0.930 . S
C528 C527 1.388 . S
C528 C529 1.390 . S
C529 C528 1.390 . S
C529 C530 1.394 . S
C529 C535 1.465 . S
C530 C525 1.399 . S
C530 C529 1.394 . S
C530 C531 1.516 . S
C531 C530 1.516 . S
C531 C532 1.502 . S
C531 C533 1.561 . S
C531 C534 1.526 . S
C532 H516 0.959 . S
C532 H517 0.959 . S
C532 H518 0.961 . S
C532 C531 1.502 . S
C533 H519 0.960 . S
C533 H520 0.961 . S
C533 H521 0.959 . S
C533 C531 1.561 . S
C534 C531 1.526 . S
C534 C535 1.396 . S
C534 C539 1.390 . S
C535 C529 1.465 . S
C535 C534 1.396 . S
C535 C536 1.399 . S
C536 H522 0.929 . S
C536 C535 1.399 . S
C536 C537 1.385 . S
C537 H523 0.931 . S
C537 C536 1.385 . S
C537 C538 1.389 . S
C538 C537 1.389 . S
C538 C539 1.387 . S
C539 H524 0.930 . S
C539 C534 1.390 . S
C539 C538 1.387 . S
H540 C552 0.930 1_455 S
H541 C554 0.930 . S
H542 C555 0.930 . S
H543 C559 0.959 . S
H544 C559 0.959 . S
H545 C559 0.961 . S
H546 C560 0.958 1_455 S
H547 C560 0.962 1_455 S
H548 C560 0.958 . S
H549 C563 0.929 . S
H550 C564 0.931 . S
H551 C566 0.930 . S
C552 H540 0.930 1_655 S
C552 C553 1.399 . S
C552 C557 1.399 . S
C553 C552 1.399 . S
C553 C554 1.376 . S
C554 H541 0.930 . S
C554 C553 1.376 . S
C554 C555 1.388 . S
C555 H542 0.930 . S
C555 C554 1.388 . S
C555 C556 1.390 . S
C556 C555 1.390 . S
C556 C557 1.394 . S
C556 C562 1.465 . S
C557 C552 1.399 . S
C557 C556 1.394 . S
C557 C558 1.516 . S
C558 C557 1.516 . S
C558 C559 1.502 . S
C558 C560 1.563 . S
C558 C561 1.526 . S
C559 H543 0.959 . S
C559 H544 0.959 . S
C559 H545 0.961 . S
C559 C558 1.502 . S
C560 H546 0.958 1_655 S
C560 H547 0.962 1_655 S
C560 H548 0.958 . S
C560 C558 1.563 . S
C561 C558 1.526 . S
C561 C562 1.396 . S
C561 C566 1.390 . S
C562 C556 1.465 . S
C562 C561 1.396 . S
C562 C563 1.399 . S
C563 H549 0.929 . S
C563 C562 1.399 . S
C563 C564 1.385 . S
C564 H550 0.931 . S
C564 C563 1.385 . S
C564 C565 1.389 . S
C565 C564 1.389 . S
C565 C566 1.387 . S
C566 H551 0.930 . S
C566 C561 1.390 . S
C566 C565 1.387 . S
H567 C579 0.930 . S
H568 C581 0.930 . S
H569 C582 0.930 . S
H570 C586 0.959 . S
H571 C586 0.959 . S
H572 C586 0.961 . S
H573 C587 0.960 . S
H574 C587 0.961 . S
H575 C587 0.959 . S
H576 C590 0.929 . S
H577 C591 0.931 . S
H578 C593 0.930 . S
C579 H567 0.930 . S
C579 C580 1.399 . S
C579 C584 1.399 . S
C580 C579 1.399 . S
C580 C581 1.376 . S
C581 H568 0.930 . S
C581 C580 1.376 . S
C581 C582 1.388 . S
C582 H569 0.930 . S
C582 C581 1.388 . S
C582 C583 1.390 . S
C583 C582 1.390 . S
C583 C584 1.394 . S
C583 C589 1.465 . S
C584 C579 1.399 . S
C584 C583 1.394 . S
C584 C585 1.516 . S
C585 C584 1.516 . S
C585 C586 1.502 . S
C585 C587 1.561 . S
C585 C588 1.526 . S
C586 H570 0.959 . S
C586 H571 0.959 . S
C586 H572 0.961 . S
C586 C585 1.502 . S
C587 H573 0.960 . S
C587 H574 0.961 . S
C587 H575 0.959 . S
C587 C585 1.561 . S
C588 C585 1.526 . S
C588 C589 1.396 . S
C588 C593 1.390 . S
C589 C583 1.465 . S
C589 C588 1.396 . S
C589 C590 1.399 . S
C590 H576 0.929 . S
C590 C589 1.399 . S
C590 C591 1.385 . S
C591 H577 0.931 . S
C591 C590 1.385 . S
C591 C592 1.389 . S
C592 C591 1.389 . S
C592 C593 1.387 . S
C593 H578 0.930 . S
C593 C588 1.390 . S
C593 C592 1.387 . S
H594 C606 0.930 . S
H595 C608 0.930 . S
H596 C609 0.930 . S
H597 C613 0.959 . S
H598 C613 0.959 . S
H599 C613 0.961 . S
H600 C614 0.960 . S
H601 C614 0.961 . S
H602 C614 0.959 . S
H603 C617 0.929 . S
H604 C618 0.931 . S
H605 C620 0.930 . S
C606 H594 0.930 . S
C606 C607 1.399 . S
C606 C611 1.399 . S
C607 C606 1.399 . S
C607 C608 1.376 . S
C608 H595 0.930 . S
C608 C607 1.376 . S
C608 C609 1.388 . S
C609 H596 0.930 . S
C609 C608 1.388 . S
C609 C610 1.390 . S
C610 C609 1.390 . S
C610 C611 1.394 . S
C610 C616 1.465 . S
C611 C606 1.399 . S
C611 C610 1.394 . S
C611 C612 1.516 . S
C612 C611 1.516 . S
C612 C613 1.502 . S
C612 C614 1.561 . S
C612 C615 1.526 . S
C613 H597 0.959 . S
C613 H598 0.959 . S
C613 H599 0.961 . S
C613 C612 1.502 . S
C614 H600 0.960 . S
C614 H601 0.961 . S
C614 H602 0.959 . S
C614 C612 1.561 . S
C615 C612 1.526 . S
C615 C616 1.396 . S
C615 C620 1.390 . S
C616 C610 1.465 . S
C616 C615 1.396 . S
C616 C617 1.399 . S
C617 H603 0.929 . S
C617 C616 1.399 . S
C617 C618 1.385 . S
C618 H604 0.931 . S
C618 C617 1.385 . S
C618 C619 1.389 . S
C619 C618 1.389 . S
C619 C620 1.387 . S
C620 H605 0.930 . S
C620 C615 1.390 . S
C620 C619 1.387 . S
H621 C633 0.930 . S
H622 C635 0.930 . S
H623 C636 0.930 . S
H624 C640 0.959 . S
H625 C640 0.959 . S
H626 C640 0.961 . S
H627 C641 0.960 . S
H628 C641 0.961 . S
H629 C641 0.959 . S
H630 C644 0.929 . S
H631 C645 0.931 . S
H632 C647 0.930 . S
C633 H621 0.930 . S
C633 C634 1.399 . S
C633 C638 1.399 . S
C634 C633 1.399 . S
C634 C635 1.376 . S
C635 H622 0.930 . S
C635 C634 1.376 . S
C635 C636 1.388 . S
C636 H623 0.930 . S
C636 C635 1.388 . S
C636 C637 1.390 . S
C637 C636 1.390 . S
C637 C638 1.394 . S
C637 C643 1.465 . S
C638 C633 1.399 . S
C638 C637 1.394 . S
C638 C639 1.516 . S
C639 C638 1.516 . S
C639 C640 1.502 . S
C639 C641 1.561 . S
C639 C642 1.526 . S
C640 H624 0.959 . S
C640 H625 0.959 . S
C640 H626 0.961 . S
C640 C639 1.502 . S
C641 H627 0.960 . S
C641 H628 0.961 . S
C641 H629 0.959 . S
C641 C639 1.561 . S
C642 C639 1.526 . S
C642 C643 1.396 . S
C642 C647 1.390 . S
C643 C637 1.465 . S
C643 C642 1.396 . S
C643 C644 1.399 . S
C644 H630 0.929 . S
C644 C643 1.399 . S
C644 C645 1.385 . S
C645 H631 0.931 . S
C645 C644 1.385 . S
C645 C646 1.389 . S
C646 C645 1.389 . S
C646 C647 1.387 . S
C647 H632 0.930 . S
C647 C642 1.390 . S
C647 C646 1.387 . S
H648 C660 0.930 . S
H649 C662 0.930 . S
H650 C663 0.930 . S
H651 C667 0.959 . S
H652 C667 0.959 . S
H653 C667 0.961 . S
H654 C668 0.960 . S
H655 C668 0.961 . S
H656 C668 0.959 . S
H657 C671 0.929 . S
H658 C672 0.931 . S
H659 C674 0.930 . S
C660 H648 0.930 . S
C660 C661 1.399 . S
C660 C665 1.399 . S
C661 C660 1.399 . S
C661 C662 1.376 . S
C662 H649 0.930 . S
C662 C661 1.376 . S
C662 C663 1.388 . S
C663 H650 0.930 . S
C663 C662 1.388 . S
C663 C664 1.390 . S
C664 C663 1.390 . S
C664 C665 1.394 . S
C664 C670 1.465 . S
C665 C660 1.399 . S
C665 C664 1.394 . S
C665 C666 1.516 . S
C666 C665 1.516 . S
C666 C667 1.502 . S
C666 C668 1.561 . S
C666 C669 1.526 . S
C667 H651 0.959 . S
C667 H652 0.959 . S
C667 H653 0.961 . S
C667 C666 1.502 . S
C668 H654 0.960 . S
C668 H655 0.961 . S
C668 H656 0.959 . S
C668 C666 1.561 . S
C669 C666 1.526 . S
C669 C670 1.396 . S
C669 C674 1.390 . S
C670 C664 1.465 . S
C670 C669 1.396 . S
C670 C671 1.399 . S
C671 H657 0.929 . S
C671 C670 1.399 . S
C671 C672 1.385 . S
C672 H658 0.931 . S
C672 C671 1.385 . S
C672 C673 1.389 . S
C673 C672 1.389 . S
C673 C674 1.387 . S
C674 H659 0.930 . S
C674 C669 1.390 . S
C674 C673 1.387 . S
H675 C687 0.930 . S
H676 C689 0.930 . S
H677 C690 0.930 . S
H678 C694 0.959 . S
H679 C694 0.959 . S
H680 C694 0.961 . S
H681 C695 0.960 . S
H682 C695 0.961 . S
H683 C695 0.959 . S
H684 C698 0.929 . S
H685 C699 0.931 . S
H686 C701 0.930 . S
C687 H675 0.930 . S
C687 C688 1.399 . S
C687 C692 1.399 . S
C688 C687 1.399 . S
C688 C689 1.376 . S
C689 H676 0.930 . S
C689 C688 1.376 . S
C689 C690 1.388 . S
C690 H677 0.930 . S
C690 C689 1.388 . S
C690 C691 1.390 . S
C691 C690 1.390 . S
C691 C692 1.394 . S
C691 C697 1.465 . S
C692 C687 1.399 . S
C692 C691 1.394 . S
C692 C693 1.516 . S
C693 C692 1.516 . S
C693 C694 1.502 . S
C693 C695 1.561 . S
C693 C696 1.526 . S
C694 H678 0.959 . S
C694 H679 0.959 . S
C694 H680 0.961 . S
C694 C693 1.502 . S
C695 H681 0.960 . S
C695 H682 0.961 . S
C695 H683 0.959 . S
C695 C693 1.561 . S
C696 C693 1.526 . S
C696 C697 1.396 . S
C696 C701 1.390 . S
C697 C691 1.465 . S
C697 C696 1.396 . S
C697 C698 1.399 . S
C698 H684 0.929 . S
C698 C697 1.399 . S
C698 C699 1.385 . S
C699 H685 0.931 . S
C699 C698 1.385 . S
C699 C700 1.389 . S
C700 C699 1.389 . S
C700 C701 1.387 . S
C701 H686 0.930 . S
C701 C696 1.390 . S
C701 C700 1.387 . S
H702 C714 0.930 . S
H703 C716 0.930 . S
H704 C717 0.930 . S
H705 C721 0.959 . S
H706 C721 0.959 . S
H707 C721 0.961 . S
H708 C722 0.960 . S
H709 C722 0.961 . S
H710 C722 0.959 . S
H711 C725 0.929 . S
H712 C726 0.931 . S
H713 C728 0.930 . S
C714 H702 0.930 . S
C714 C715 1.399 . S
C714 C719 1.399 . S
C715 C714 1.399 . S
C715 C716 1.376 . S
C716 H703 0.930 . S
C716 C715 1.376 . S
C716 C717 1.388 . S
C717 H704 0.930 . S
C717 C716 1.388 . S
C717 C718 1.390 . S
C718 C717 1.390 . S
C718 C719 1.394 . S
C718 C724 1.465 . S
C719 C714 1.399 . S
C719 C718 1.394 . S
C719 C720 1.516 . S
C720 C719 1.516 . S
C720 C721 1.502 . S
C720 C722 1.561 . S
C720 C723 1.526 . S
C721 H705 0.959 . S
C721 H706 0.959 . S
C721 H707 0.961 . S
C721 C720 1.502 . S
C722 H708 0.960 . S
C722 H709 0.961 . S
C722 H710 0.959 . S
C722 C720 1.561 . S
C723 C720 1.526 . S
C723 C724 1.396 . S
C723 C728 1.390 . S
C724 C718 1.465 . S
C724 C723 1.396 . S
C724 C725 1.399 . S
C725 H711 0.929 . S
C725 C724 1.399 . S
C725 C726 1.385 . S
C726 H712 0.931 . S
C726 C725 1.385 . S
C726 C727 1.389 . S
C727 C726 1.389 . S
C727 C728 1.387 . S
C728 H713 0.930 . S
C728 C723 1.390 . S
C728 C727 1.387 . S
H729 C741 0.930 . S
H730 C743 0.930 . S
H731 C744 0.930 . S
H732 C748 0.959 . S
H733 C748 0.959 . S
H734 C748 0.961 . S
H735 C749 0.960 . S
H736 C749 0.961 . S
H737 C749 0.959 . S
H738 C752 0.929 . S
H739 C753 0.931 . S
H740 C755 0.930 . S
C741 H729 0.930 . S
C741 C742 1.399 . S
C741 C746 1.399 . S
C742 C741 1.399 . S
C742 C743 1.376 . S
C743 H730 0.930 . S
C743 C742 1.376 . S
C743 C744 1.388 . S
C744 H731 0.930 . S
C744 C743 1.388 . S
C744 C745 1.390 . S
C745 C744 1.390 . S
C745 C746 1.394 . S
C745 C751 1.465 . S
C746 C741 1.399 . S
C746 C745 1.394 . S
C746 C747 1.516 . S
C747 C746 1.516 . S
C747 C748 1.502 . S
C747 C749 1.561 . S
C747 C750 1.526 . S
C748 H732 0.959 . S
C748 H733 0.959 . S
C748 H734 0.961 . S
C748 C747 1.502 . S
C749 H735 0.960 . S
C749 H736 0.961 . S
C749 H737 0.959 . S
C749 C747 1.561 . S
C750 C747 1.526 . S
C750 C751 1.396 . S
C750 C755 1.390 . S
C751 C745 1.465 . S
C751 C750 1.396 . S
C751 C752 1.399 . S
C752 H738 0.929 . S
C752 C751 1.399 . S
C752 C753 1.385 . S
C753 H739 0.931 . S
C753 C752 1.385 . S
C753 C754 1.389 . S
C754 C753 1.389 . S
C754 C755 1.387 . S
C755 H740 0.930 . S
C755 C750 1.390 . S
C755 C754 1.387 . S
H756 C768 0.930 . S
H757 C770 0.930 . S
H758 C771 0.930 . S
H759 C775 0.959 . S
H760 C775 0.959 . S
H761 C775 0.961 1_455 S
H762 C776 0.960 1_455 S
H763 C776 0.961 . S
H764 C776 0.959 . S
H765 C779 0.929 . S
H766 C780 0.931 . S
H767 C782 0.930 . S
C768 H756 0.930 . S
C768 C769 1.399 . S
C768 C773 1.399 . S
C769 C768 1.399 . S
C769 C770 1.376 . S
C770 H757 0.930 . S
C770 C769 1.376 . S
C770 C771 1.388 . S
C771 H758 0.930 . S
C771 C770 1.388 . S
C771 C772 1.390 . S
C772 C771 1.390 . S
C772 C773 1.394 . S
C772 C778 1.465 . S
C773 C768 1.399 . S
C773 C772 1.394 . S
C773 C774 1.516 . S
C774 C773 1.516 . S
C774 C775 1.502 . S
C774 C776 1.561 . S
C774 C777 1.526 . S
C775 H759 0.959 . S
C775 H760 0.959 . S
C775 H761 0.961 1_655 S
C775 C774 1.502 . S
C776 H762 0.960 1_655 S
C776 H763 0.961 . S
C776 H764 0.959 . S
C776 C774 1.561 . S
C777 C774 1.526 . S
C777 C778 1.396 . S
C777 C782 1.390 . S
C778 C772 1.465 . S
C778 C777 1.396 . S
C778 C779 1.399 . S
C779 H765 0.929 . S
C779 C778 1.399 . S
C779 C780 1.385 . S
C780 H766 0.931 . S
C780 C779 1.385 . S
C780 C781 1.389 . S
C781 C780 1.389 . S
C781 C782 1.387 . S
C782 H767 0.930 . S
C782 C777 1.390 . S
C782 C781 1.387 . S
H783 C795 0.930 . S
H784 C797 0.930 . S
H785 C798 0.930 . S
H786 C802 0.959 . S
H787 C802 0.959 . S
H788 C802 0.961 . S
H789 C803 0.960 . S
H790 C803 0.961 . S
H791 C803 0.959 . S
H792 C806 0.929 . S
H793 C807 0.931 . S
H794 C809 0.930 . S
C795 H783 0.930 . S
C795 C796 1.399 . S
C795 C800 1.399 . S
C796 C795 1.399 . S
C796 C797 1.376 . S
C797 H784 0.930 . S
C797 C796 1.376 . S
C797 C798 1.388 . S
C798 H785 0.930 . S
C798 C797 1.388 . S
C798 C799 1.390 . S
C799 C798 1.390 . S
C799 C800 1.394 . S
C799 C805 1.465 . S
C800 C795 1.399 . S
C800 C799 1.394 . S
C800 C801 1.516 . S
C801 C800 1.516 . S
C801 C802 1.502 . S
C801 C803 1.561 . S
C801 C804 1.526 . S
C802 H786 0.959 . S
C802 H787 0.959 . S
C802 H788 0.961 . S
C802 C801 1.502 . S
C803 H789 0.960 . S
C803 H790 0.961 . S
C803 H791 0.959 . S
C803 C801 1.561 . S
C804 C801 1.526 . S
C804 C805 1.396 . S
C804 C809 1.390 . S
C805 C799 1.465 . S
C805 C804 1.396 . S
C805 C806 1.399 . S
C806 H792 0.929 . S
C806 C805 1.399 . S
C806 C807 1.385 . S
C807 H793 0.931 . S
C807 C806 1.385 . S
C807 C808 1.389 . S
C808 C807 1.389 . S
C808 C809 1.387 . S
C809 H794 0.930 . S
C809 C804 1.390 . S
C809 C808 1.387 . S
H810 C822 0.930 . S
H811 C824 0.930 . S
H812 C825 0.930 . S
H813 C829 0.959 . S
H814 C829 0.959 . S
H815 C829 0.961 . S
H816 C830 0.960 . S
H817 C830 0.961 . S
H818 C830 0.959 . S
H819 C833 0.929 . S
H820 C834 0.931 . S
H821 C836 0.930 . S
C822 H810 0.930 . S
C822 C823 1.399 . S
C822 C827 1.399 . S
C823 C822 1.399 . S
C823 C824 1.376 . S
C824 H811 0.930 . S
C824 C823 1.376 . S
C824 C825 1.388 . S
C825 H812 0.930 . S
C825 C824 1.388 . S
C825 C826 1.390 . S
C826 C825 1.390 . S
C826 C827 1.394 . S
C826 C832 1.465 . S
C827 C822 1.399 . S
C827 C826 1.394 . S
C827 C828 1.516 . S
C828 C827 1.516 . S
C828 C829 1.502 . S
C828 C830 1.561 . S
C828 C831 1.526 . S
C829 H813 0.959 . S
C829 H814 0.959 . S
C829 H815 0.961 . S
C829 C828 1.502 . S
C830 H816 0.960 . S
C830 H817 0.961 . S
C830 H818 0.959 . S
C830 C828 1.561 . S
C831 C828 1.526 . S
C831 C832 1.396 . S
C831 C836 1.390 . S
C832 C826 1.465 . S
C832 C831 1.396 . S
C832 C833 1.399 . S
C833 H819 0.929 . S
C833 C832 1.399 . S
C833 C834 1.385 . S
C834 H820 0.931 . S
C834 C833 1.385 . S
C834 C835 1.389 . S
C835 C834 1.389 . S
C835 C836 1.387 . S
C836 H821 0.930 . S
C836 C831 1.390 . S
C836 C835 1.387 . S
H837 C849 0.930 . S
H838 C851 0.930 . S
H839 C852 0.930 . S
H840 C856 0.959 . S
H841 C856 0.959 . S
H842 C856 0.961 . S
H843 C857 0.960 . S
H844 C857 0.961 . S
H845 C857 0.959 . S
H846 C860 0.929 . S
H847 C861 0.931 . S
H848 C863 0.930 . S
C849 H837 0.930 . S
C849 C850 1.399 . S
C849 C854 1.399 . S
C850 C849 1.399 . S
C850 C851 1.376 . S
C851 H838 0.930 . S
C851 C850 1.376 . S
C851 C852 1.388 . S
C852 H839 0.930 . S
C852 C851 1.388 . S
C852 C853 1.390 . S
C853 C852 1.390 . S
C853 C854 1.394 . S
C853 C859 1.465 . S
C854 C849 1.399 . S
C854 C853 1.394 . S
C854 C855 1.516 . S
C855 C854 1.516 . S
C855 C856 1.502 . S
C855 C857 1.561 . S
C855 C858 1.526 . S
C856 H840 0.959 . S
C856 H841 0.959 . S
C856 H842 0.961 . S
C856 C855 1.502 . S
C857 H843 0.960 . S
C857 H844 0.961 . S
C857 H845 0.959 . S
C857 C855 1.561 . S
C858 C855 1.526 . S
C858 C859 1.396 . S
C858 C863 1.390 . S
C859 C853 1.465 . S
C859 C858 1.396 . S
C859 C860 1.399 . S
C860 H846 0.929 . S
C860 C859 1.399 . S
C860 C861 1.385 . S
C861 H847 0.931 . S
C861 C860 1.385 . S
C861 C862 1.389 . S
C862 C861 1.389 . S
C862 C863 1.387 . S
C863 H848 0.930 . S
C863 C858 1.390 . S
C863 C862 1.387 . S
C229 C7 1.826 . S
C241 C139 1.849 . S
C256 C30 1.635 . S
C268 C152 1.621 . S
C295 C174 1.631 . S
C283 N58 1.627 . S
C322 C187 1.430 . S
C310 N81 1.432 . S
C349 C200 1.745 . S
C337 C99 1.786 . S
C376 C213 1.371 . S
C364 N127 1.461 . S
C391 N25 1.670 . S
C403 C169 1.595 . S
C418 C62 1.604 . S
C430 C182 1.502 . S
C457 C195 1.699 . S
C445 C85 1.750 . S
C484 C208 1.400 . S
C472 N94 1.467 . S
C499 C131 1.809 . S
C511 C141 1.804 . S
C538 C154 1.485 . S
C526 N2 1.478 . S
C565 C180 1.679 . S
C553 C16 1.783 1_655 S
C580 C39 1.592 . S
C592 C193 1.552 . S
C619 C206 1.565 . S
C607 N48 1.663 . S
C634 N71 1.429 . S
C646 C143 1.495 . S
C661 C108 1.767 . S
C673 C156 1.792 . S
C688 N117 1.407 . S
C700 C167 1.383 . S
C715 N35 1.613 . S
C727 C204 1.644 . S
C754 C148 1.598 . S
C742 C53 1.622 . S
C769 C76 1.818 . S
C781 C161 1.798 . S
C796 N104 1.443 . S
C808 C165 1.363 . S
C823 C122 1.766 . S
C835 C178 1.731 . S
C850 N12 1.434 . S
C862 C191 1.419 . S
