# Generated by pormake.
# Topology gar, (4,6)-cn, num edge types: 1
# Building blocks:
#     Node 0, Type 0, BuildingBlock: AZAVOO_clean_sbu_0, # of connection points: 4
#     Node 1, Type 0, BuildingBlock: AZAVOO_clean_sbu_0, # of connection points: 4
#     Node 2, Type 0, BuildingBlock: AZAVOO_clean_sbu_0, # of connection points: 4
#     Node 3, Type 0, BuildingBlock: AZAVOO_clean_sbu_0, # of connection points: 4
#     Node 4, Type 0, BuildingBlock: AZAVOO_clean_sbu_0, # of connection points: 4
#     Node 5, Type 0, BuildingBlock: AZAVOO_clean_sbu_0, # of connection points: 4
#     Node 6, Type 0, BuildingBlock: AZAVOO_clean_sbu_0, # of connection points: 4
#     Node 7, Type 0, BuildingBlock: AZAVOO_clean_sbu_0, # of connection points: 4
#     Node 8, Type 0, BuildingBlock: AZAVOO_clean_sbu_0, # of connection points: 4
#     Node 9, Type 0, BuildingBlock: AZAVOO_clean_sbu_0, # of connection points: 4
#     Node 10, Type 0, BuildingBlock: AZAVOO_clean_sbu_0, # of connection points: 4
#     Node 11, Type 0, BuildingBlock: AZAVOO_clean_sbu_0, # of connection points: 4
#     Node 12, Type 0, BuildingBlock: AZAVOO_clean_sbu_0, # of connection points: 4
#     Node 13, Type 0, BuildingBlock: AZAVOO_clean_sbu_0, # of connection points: 4
#     Node 14, Type 0, BuildingBlock: AZAVOO_clean_sbu_0, # of connection points: 4
#     Node 15, Type 0, BuildingBlock: AZAVOO_clean_sbu_0, # of connection points: 4
#     Node 16, Type 0, BuildingBlock: AZAVOO_clean_sbu_0, # of connection points: 4
#     Node 17, Type 0, BuildingBlock: AZAVOO_clean_sbu_0, # of connection points: 4
#     Node 18, Type 0, BuildingBlock: AZAVOO_clean_sbu_0, # of connection points: 4
#     Node 19, Type 0, BuildingBlock: AZAVOO_clean_sbu_0, # of connection points: 4
#     Node 20, Type 0, BuildingBlock: AZAVOO_clean_sbu_0, # of connection points: 4
#     Node 21, Type 0, BuildingBlock: AZAVOO_clean_sbu_0, # of connection points: 4
#     Node 22, Type 0, BuildingBlock: AZAVOO_clean_sbu_0, # of connection points: 4
#     Node 23, Type 0, BuildingBlock: AZAVOO_clean_sbu_0, # of connection points: 4
#     Node 24, Type 1, BuildingBlock: KUMJIN_clean_sbu_0, # of connection points: 6
#     Node 25, Type 1, BuildingBlock: KUMJIN_clean_sbu_0, # of connection points: 6
#     Node 26, Type 1, BuildingBlock: KUMJIN_clean_sbu_0, # of connection points: 6
#     Node 27, Type 1, BuildingBlock: KUMJIN_clean_sbu_0, # of connection points: 6
#     Node 28, Type 1, BuildingBlock: KUMJIN_clean_sbu_0, # of connection points: 6
#     Node 29, Type 1, BuildingBlock: KUMJIN_clean_sbu_0, # of connection points: 6
#     Node 30, Type 1, BuildingBlock: KUMJIN_clean_sbu_0, # of connection points: 6
#     Node 31, Type 1, BuildingBlock: KUMJIN_clean_sbu_0, # of connection points: 6
#     Node 32, Type 1, BuildingBlock: KUMJIN_clean_sbu_0, # of connection points: 6
#     Node 33, Type 1, BuildingBlock: KUMJIN_clean_sbu_0, # of connection points: 6
#     Node 34, Type 1, BuildingBlock: KUMJIN_clean_sbu_0, # of connection points: 6
#     Node 35, Type 1, BuildingBlock: KUMJIN_clean_sbu_0, # of connection points: 6
#     Node 36, Type 1, BuildingBlock: KUMJIN_clean_sbu_0, # of connection points: 6
#     Node 37, Type 1, BuildingBlock: KUMJIN_clean_sbu_0, # of connection points: 6
#     Node 38, Type 1, BuildingBlock: KUMJIN_clean_sbu_0, # of connection points: 6
#     Node 39, Type 1, BuildingBlock: KUMJIN_clean_sbu_0, # of connection points: 6
#     Edge 40, Type (0, 1), BuildingBlock: CIFDUS_clean_linker_0, # of connection points: 2
#     Edge 41, Type (0, 1), BuildingBlock: CIFDUS_clean_linker_0, # of connection points: 2
#     Edge 42, Type (0, 1), BuildingBlock: CIFDUS_clean_linker_0, # of connection points: 2
#     Edge 43, Type (0, 1), BuildingBlock: CIFDUS_clean_linker_0, # of connection points: 2
#     Edge 44, Type (0, 1), BuildingBlock: CIFDUS_clean_linker_0, # of connection points: 2
#     Edge 45, Type (0, 1), BuildingBlock: CIFDUS_clean_linker_0, # of connection points: 2
#     Edge 46, Type (0, 1), BuildingBlock: CIFDUS_clean_linker_0, # of connection points: 2
#     Edge 47, Type (0, 1), BuildingBlock: CIFDUS_clean_linker_0, # of connection points: 2
#     Edge 48, Type (0, 1), BuildingBlock: CIFDUS_clean_linker_0, # of connection points: 2
#     Edge 49, Type (0, 1), BuildingBlock: CIFDUS_clean_linker_0, # of connection points: 2
#     Edge 50, Type (0, 1), BuildingBlock: CIFDUS_clean_linker_0, # of connection points: 2
#     Edge 51, Type (0, 1), BuildingBlock: CIFDUS_clean_linker_0, # of connection points: 2
#     Edge 52, Type (0, 1), BuildingBlock: CIFDUS_clean_linker_0, # of connection points: 2
#     Edge 53, Type (0, 1), BuildingBlock: CIFDUS_clean_linker_0, # of connection points: 2
#     Edge 54, Type (0, 1), BuildingBlock: CIFDUS_clean_linker_0, # of connection points: 2
#     Edge 55, Type (0, 1), BuildingBlock: CIFDUS_clean_linker_0, # of connection points: 2
#     Edge 56, Type (0, 1), BuildingBlock: CIFDUS_clean_linker_0, # of connection points: 2
#     Edge 57, Type (0, 1), BuildingBlock: CIFDUS_clean_linker_0, # of connection points: 2
#     Edge 58, Type (0, 1), BuildingBlock: CIFDUS_clean_linker_0, # of connection points: 2
#     Edge 59, Type (0, 1), BuildingBlock: CIFDUS_clean_linker_0, # of connection points: 2
#     Edge 60, Type (0, 1), BuildingBlock: CIFDUS_clean_linker_0, # of connection points: 2
#     Edge 61, Type (0, 1), BuildingBlock: CIFDUS_clean_linker_0, # of connection points: 2
#     Edge 62, Type (0, 1), BuildingBlock: CIFDUS_clean_linker_0, # of connection points: 2
#     Edge 63, Type (0, 1), BuildingBlock: CIFDUS_clean_linker_0, # of connection points: 2
#     Edge 64, Type (0, 1), BuildingBlock: CIFDUS_clean_linker_0, # of connection points: 2
#     Edge 65, Type (0, 1), BuildingBlock: CIFDUS_clean_linker_0, # of connection points: 2
#     Edge 66, Type (0, 1), BuildingBlock: CIFDUS_clean_linker_0, # of connection points: 2
#     Edge 67, Type (0, 1), BuildingBlock: CIFDUS_clean_linker_0, # of connection points: 2
#     Edge 68, Type (0, 1), BuildingBlock: CIFDUS_clean_linker_0, # of connection points: 2
#     Edge 69, Type (0, 1), BuildingBlock: CIFDUS_clean_linker_0, # of connection points: 2
#     Edge 70, Type (0, 1), BuildingBlock: CIFDUS_clean_linker_0, # of connection points: 2
#     Edge 71, Type (0, 1), BuildingBlock: CIFDUS_clean_linker_0, # of connection points: 2
#     Edge 72, Type (0, 1), BuildingBlock: CIFDUS_clean_linker_0, # of connection points: 2
#     Edge 73, Type (0, 1), BuildingBlock: CIFDUS_clean_linker_0, # of connection points: 2
#     Edge 74, Type (0, 1), BuildingBlock: CIFDUS_clean_linker_0, # of connection points: 2
#     Edge 75, Type (0, 1), BuildingBlock: CIFDUS_clean_linker_0, # of connection points: 2
#     Edge 76, Type (0, 1), BuildingBlock: CIFDUS_clean_linker_0, # of connection points: 2
#     Edge 77, Type (0, 1), BuildingBlock: CIFDUS_clean_linker_0, # of connection points: 2
#     Edge 78, Type (0, 1), BuildingBlock: CIFDUS_clean_linker_0, # of connection points: 2
#     Edge 79, Type (0, 1), BuildingBlock: CIFDUS_clean_linker_0, # of connection points: 2
#     Edge 80, Type (0, 1), BuildingBlock: CIFDUS_clean_linker_0, # of connection points: 2
#     Edge 81, Type (0, 1), BuildingBlock: CIFDUS_clean_linker_0, # of connection points: 2
#     Edge 82, Type (0, 1), BuildingBlock: CIFDUS_clean_linker_0, # of connection points: 2
#     Edge 83, Type (0, 1), BuildingBlock: CIFDUS_clean_linker_0, # of connection points: 2
#     Edge 84, Type (0, 1), BuildingBlock: CIFDUS_clean_linker_0, # of connection points: 2
#     Edge 85, Type (0, 1), BuildingBlock: CIFDUS_clean_linker_0, # of connection points: 2
#     Edge 86, Type (0, 1), BuildingBlock: CIFDUS_clean_linker_0, # of connection points: 2
#     Edge 87, Type (0, 1), BuildingBlock: CIFDUS_clean_linker_0, # of connection points: 2
#     Edge 88, Type (0, 1), BuildingBlock: CIFDUS_clean_linker_0, # of connection points: 2
#     Edge 89, Type (0, 1), BuildingBlock: CIFDUS_clean_linker_0, # of connection points: 2
#     Edge 90, Type (0, 1), BuildingBlock: CIFDUS_clean_linker_0, # of connection points: 2
#     Edge 91, Type (0, 1), BuildingBlock: CIFDUS_clean_linker_0, # of connection points: 2
#     Edge 92, Type (0, 1), BuildingBlock: CIFDUS_clean_linker_0, # of connection points: 2
#     Edge 93, Type (0, 1), BuildingBlock: CIFDUS_clean_linker_0, # of connection points: 2
#     Edge 94, Type (0, 1), BuildingBlock: CIFDUS_clean_linker_0, # of connection points: 2
#     Edge 95, Type (0, 1), BuildingBlock: CIFDUS_clean_linker_0, # of connection points: 2
#     Edge 96, Type (0, 1), BuildingBlock: CIFDUS_clean_linker_0, # of connection points: 2
#     Edge 97, Type (0, 1), BuildingBlock: CIFDUS_clean_linker_0, # of connection points: 2
#     Edge 98, Type (0, 1), BuildingBlock: CIFDUS_clean_linker_0, # of connection points: 2
#     Edge 99, Type (0, 1), BuildingBlock: CIFDUS_clean_linker_0, # of connection points: 2
#     Edge 100, Type (0, 1), BuildingBlock: CIFDUS_clean_linker_0, # of connection points: 2
#     Edge 101, Type (0, 1), BuildingBlock: CIFDUS_clean_linker_0, # of connection points: 2
#     Edge 102, Type (0, 1), BuildingBlock: CIFDUS_clean_linker_0, # of connection points: 2
#     Edge 103, Type (0, 1), BuildingBlock: CIFDUS_clean_linker_0, # of connection points: 2
#     Edge 104, Type (0, 1), BuildingBlock: CIFDUS_clean_linker_0, # of connection points: 2
#     Edge 105, Type (0, 1), BuildingBlock: CIFDUS_clean_linker_0, # of connection points: 2
#     Edge 106, Type (0, 1), BuildingBlock: CIFDUS_clean_linker_0, # of connection points: 2
#     Edge 107, Type (0, 1), BuildingBlock: CIFDUS_clean_linker_0, # of connection points: 2
#     Edge 108, Type (0, 1), BuildingBlock: CIFDUS_clean_linker_0, # of connection points: 2
#     Edge 109, Type (0, 1), BuildingBlock: CIFDUS_clean_linker_0, # of connection points: 2
#     Edge 110, Type (0, 1), BuildingBlock: CIFDUS_clean_linker_0, # of connection points: 2
#     Edge 111, Type (0, 1), BuildingBlock: CIFDUS_clean_linker_0, # of connection points: 2
#     Edge 112, Type (0, 1), BuildingBlock: CIFDUS_clean_linker_0, # of connection points: 2
#     Edge 113, Type (0, 1), BuildingBlock: CIFDUS_clean_linker_0, # of connection points: 2
#     Edge 114, Type (0, 1), BuildingBlock: CIFDUS_clean_linker_0, # of connection points: 2
#     Edge 115, Type (0, 1), BuildingBlock: CIFDUS_clean_linker_0, # of connection points: 2
#     Edge 116, Type (0, 1), BuildingBlock: CIFDUS_clean_linker_0, # of connection points: 2
#     Edge 117, Type (0, 1), BuildingBlock: CIFDUS_clean_linker_0, # of connection points: 2
#     Edge 118, Type (0, 1), BuildingBlock: CIFDUS_clean_linker_0, # of connection points: 2
#     Edge 119, Type (0, 1), BuildingBlock: CIFDUS_clean_linker_0, # of connection points: 2
#     Edge 120, Type (0, 1), BuildingBlock: CIFDUS_clean_linker_0, # of connection points: 2
#     Edge 121, Type (0, 1), BuildingBlock: CIFDUS_clean_linker_0, # of connection points: 2
#     Edge 122, Type (0, 1), BuildingBlock: CIFDUS_clean_linker_0, # of connection points: 2
#     Edge 123, Type (0, 1), BuildingBlock: CIFDUS_clean_linker_0, # of connection points: 2
#     Edge 124, Type (0, 1), BuildingBlock: CIFDUS_clean_linker_0, # of connection points: 2
#     Edge 125, Type (0, 1), BuildingBlock: CIFDUS_clean_linker_0, # of connection points: 2
#     Edge 126, Type (0, 1), BuildingBlock: CIFDUS_clean_linker_0, # of connection points: 2
#     Edge 127, Type (0, 1), BuildingBlock: CIFDUS_clean_linker_0, # of connection points: 2
#     Edge 128, Type (0, 1), BuildingBlock: CIFDUS_clean_linker_0, # of connection points: 2
#     Edge 129, Type (0, 1), BuildingBlock: CIFDUS_clean_linker_0, # of connection points: 2
#     Edge 130, Type (0, 1), BuildingBlock: CIFDUS_clean_linker_0, # of connection points: 2
#     Edge 131, Type (0, 1), BuildingBlock: CIFDUS_clean_linker_0, # of connection points: 2
#     Edge 132, Type (0, 1), BuildingBlock: CIFDUS_clean_linker_0, # of connection points: 2
#     Edge 133, Type (0, 1), BuildingBlock: CIFDUS_clean_linker_0, # of connection points: 2
#     Edge 134, Type (0, 1), BuildingBlock: CIFDUS_clean_linker_0, # of connection points: 2
#     Edge 135, Type (0, 1), BuildingBlock: CIFDUS_clean_linker_0, # of connection points: 2
# Relax obj value: 0.156
# Max RMSD: 0.332
# Mean RMSD: 0.192
data_MOF--net-gar--node1-AZAVOO_clean_sbu_0--node2-KUMJIN_clean_sbu_0--edge1-CIFDUS_clean_linker_0
_symmetry_space_group_name_H-M    P1
_symmetry_Int_Tables_number       1
_symmetry_cell_setting            triclinic
loop_
_symmetry_equiv_pos_as_xyz
'x, y, z'
_cell_length_a     55.72363
_cell_length_b     48.658031
_cell_length_c     49.511746
_cell_angle_alpha  103.64715
_cell_angle_beta   93.39384
_cell_angle_gamma 103.90344
loop_
_atom_site_label
_atom_site_type_symbol
_atom_site_fract_x
_atom_site_fract_y
_atom_site_fract_z
_atom_type_partial_charge
Mg0 Mg 0.12468 0.31989 0.3731 0.0
O1 O 0.1388 0.36873 0.3956 0.0
O2 O 0.12192 0.36302 0.43307 0.0
Mg3 Mg 0.08077 0.34267 0.41575 0.0
C4 C 0.13648 0.37903 0.42101 0.0
C5 C 0.17264 0.33936 0.35096 0.0
O6 O 0.15896 0.35519 0.34299 0.0
O7 O 0.12891 0.30363 0.41274 0.0
O8 O 0.09274 0.30665 0.42963 0.0
O9 O 0.10868 0.33267 0.33758 0.0
O10 O 0.08807 0.32358 0.37266 0.0
C11 C 0.11264 0.29792 0.42922 0.0
C12 C 0.08888 0.33234 0.35 0.0
O13 O 0.1638 0.32095 0.36453 0.0
Mg14 Mg 0.00816 0.77379 0.67531 0.0
O15 O 0.998 0.7277 0.64858 0.0
O16 O 0.95908 0.71216 0.62722 0.0
Mg17 Mg 0.94442 0.75315 0.64126 0.0
C18 C 0.98037 0.70797 0.6326 0.0
C19 C 0.05456 0.76718 0.70162 0.0
O20 O 0.04154 0.77275 0.72247 0.0
O21 O 0.01149 0.78964 0.63663 0.0
O22 O 0.9721 0.77842 0.61667 0.0
O23 O 0.99399 0.75863 0.71123 0.0
O24 O 0.97142 0.77135 0.68018 0.0
C25 C 0.99544 0.7898 0.6173 0.0
C26 C 0.97293 0.76204 0.70241 0.0
O27 O 0.04746 0.76997 0.67789 0.0
Mg28 Mg 0.62403 0.82288 0.86788 0.0
O29 O 0.6434 0.87124 0.88891 0.0
O30 O 0.62944 0.8657 0.92765 0.0
Mg31 Mg 0.58742 0.85125 0.91873 0.0
C32 C 0.64081 0.88252 0.914 0.0
C33 C 0.65807 0.80923 0.82474 0.0
O34 O 0.63654 0.80267 0.80916 0.0
O35 O 0.6302 0.80425 0.90582 0.0
O36 O 0.59595 0.81064 0.92579 0.0
O37 O 0.60696 0.84053 0.83679 0.0
O38 O 0.59011 0.83167 0.87444 0.0
C39 C 0.61366 0.79815 0.92195 0.0
C40 C 0.58972 0.84228 0.85304 0.0
O41 O 0.65901 0.8169 0.85121 0.0
Mg42 Mg 0.50897 0.27165 0.17875 0.0
O43 O 0.49902 0.22812 0.14749 0.0
O44 O 0.4631 0.21857 0.12047 0.0
Mg45 Mg 0.44924 0.25949 0.13781 0.0
C46 C 0.4826 0.21144 0.12779 0.0
C47 C 0.55092 0.25949 0.20891 0.0
O48 O 0.5357 0.2635 0.22779 0.0
O49 O 0.51878 0.29303 0.14412 0.0
O50 O 0.48165 0.28648 0.12015 0.0
O51 O 0.48969 0.25105 0.20879 0.0
O52 O 0.47186 0.27044 0.17939 0.0
C53 C 0.50537 0.29643 0.12405 0.0
C54 C 0.47009 0.2569 0.19903 0.0
O55 O 0.54705 0.26523 0.18562 0.0
Mg56 Mg 0.11713 0.83768 0.12683 0.0
O57 O 0.10699 0.78915 0.09551 0.0
O58 O 0.0734 0.77918 0.06416 0.0
Mg59 Mg 0.0492 0.80685 0.08526 0.0
C60 C 0.09223 0.77234 0.07379 0.0
C61 C 0.16234 0.82867 0.15896 0.0
O62 O 0.17041 0.8466 0.14339 0.0
O63 O 0.10272 0.86579 0.09925 0.0
O64 O 0.06681 0.84847 0.07141 0.0
O65 O 0.09192 0.84449 0.16489 0.0
O66 O 0.07516 0.81933 0.12524 0.0
C67 C 0.08675 0.86867 0.08105 0.0
C68 C 0.07189 0.82961 0.15001 0.0
O69 O 0.13869 0.81801 0.1572 0.0
Mg70 Mg 0.51872 0.76785 0.42375 0.0
O71 O 0.52615 0.81416 0.45416 0.0
O72 O 0.49974 0.81131 0.4859 0.0
Mg73 Mg 0.47428 0.76306 0.47131 0.0
C74 C 0.51723 0.82627 0.47559 0.0
C75 C 0.56595 0.7649 0.39277 0.0
O76 O 0.55046 0.74057 0.37754 0.0
O77 O 0.53262 0.7439 0.45405 0.0
O78 O 0.50239 0.73476 0.48032 0.0
O79 O 0.49674 0.78405 0.39591 0.0
O80 O 0.47889 0.75959 0.42503 0.0
C81 C 0.52303 0.73102 0.47204 0.0
C82 C 0.47672 0.77408 0.40635 0.0
O83 O 0.55836 0.78079 0.41296 0.0
Mg84 Mg 0.61004 0.33383 0.62281 0.0
O85 O 0.60231 0.28524 0.59441 0.0
O86 O 0.56573 0.27496 0.56833 0.0
Mg87 Mg 0.54715 0.31313 0.58223 0.0
C88 C 0.58506 0.26743 0.57573 0.0
C89 C 0.65761 0.32839 0.65789 0.0
O90 O 0.63925 0.32339 0.67301 0.0
O91 O 0.61346 0.36167 0.58786 0.0
O92 O 0.57391 0.34928 0.56766 0.0
O93 O 0.58936 0.31757 0.65715 0.0
O94 O 0.57077 0.32905 0.62311 0.0
C95 C 0.59631 0.36506 0.57105 0.0
C96 C 0.56905 0.32026 0.64549 0.0
O97 O 0.65277 0.3346 0.63468 0.0
Mg98 Mg 0.01672 0.26083 0.91826 0.0
O99 O 0.02571 0.30767 0.94656 0.0
O100 O 0.99548 0.31285 0.97278 0.0
Mg101 Mg 0.96703 0.26627 0.9581 0.0
C102 C 0.01609 0.32374 0.96458 0.0
C103 C 0.06725 0.25448 0.89478 0.0
O104 O 0.05301 0.22938 0.87939 0.0
O105 O 0.02467 0.23746 0.95235 0.0
O106 O 0.98937 0.23427 0.97125 0.0
O107 O 1.0009 0.27841 0.8863 0.0
O108 O 0.97646 0.25745 0.91317 0.0
C109 C 0.00996 0.22708 0.96838 0.0
C110 C 0.97885 0.27133 0.89359 0.0
O111 O 0.05781 0.27082 0.9126 0.0
Mg112 Mg 0.44149 0.07578 0.31613 0.0
O113 O 0.41134 0.03272 0.30847 0.0
O114 O 0.40399 0.02152 0.3491 0.0
Mg115 Mg 0.4204 0.06525 0.38034 0.0
C116 C 0.4012 0.01503 0.32239 0.0
C117 C 0.455 0.07696 0.26111 0.0
O118 O 0.47549 0.08821 0.2788 0.0
O119 O 0.41606 0.10377 0.32685 0.0
O120 O 0.3934 0.08049 0.3541 0.0
O121 O 0.46785 0.04956 0.31698 0.0
O122 O 0.45159 0.07153 0.35383 0.0
C123 C 0.39595 0.09664 0.33712 0.0
C124 C 0.46458 0.05368 0.34318 0.0
O125 O 0.43438 0.07198 0.27069 0.0
Mg126 Mg 0.30048 0.19387 0.50071 0.0
O127 O 0.30355 0.22065 0.54615 0.0
O128 O 0.34285 0.24703 0.55981 0.0
Mg129 Mg 0.3655 0.23526 0.52291 0.0
C130 C 0.32038 0.23882 0.56477 0.0
C131 C 0.24686 0.15655 0.49255 0.0
O132 O 0.2606 0.13789 0.48716 0.0
O133 O 0.3043 0.23313 0.48133 0.0
O134 O 0.34558 0.25201 0.49029 0.0
O135 O 0.30888 0.15844 0.51775 0.0
O136 O 0.33813 0.19212 0.50692 0.0
C137 C 0.32439 0.25048 0.47778 0.0
C138 C 0.3323 0.16984 0.51732 0.0
O139 O 0.25765 0.18381 0.49816 0.0
Mg140 Mg 0.17989 1.01112 0.76992 0.0
O141 O 0.2101 0.05819 0.77669 0.0
O142 O 0.23589 0.06752 0.81576 0.0
Mg143 Mg 0.2211 0.03096 0.83946 0.0
C144 C 0.22907 0.07489 0.79394 0.0
C145 C 0.14365 0.0143 0.70839 0.0
O146 O 0.12502 1.0104 0.72335 0.0
O147 O 0.20919 0.97535 0.76773 0.0
O148 O 0.23082 0.99056 0.81035 0.0
O149 O 0.14991 0.02586 0.80108 0.0
O150 O 0.18184 0.0165 0.81785 0.0
C151 C 0.22568 0.97218 0.78619 0.0
C152 C 0.16146 0.02337 0.82314 0.0
O153 O 0.16543 0.01385 0.71968 0.0
Mg154 Mg 0.35808 0.98054 0.01958 0.0
O155 O 0.35146 0.93422 0.99285 0.0
O156 O 0.38638 0.91962 0.99605 0.0
Mg157 Mg 0.41467 0.95679 0.02835 0.0
C158 C 0.36372 0.91518 0.98594 0.0
C159 C 0.3083 0.99319 1.00561 0.0
O160 O 0.32244 1.0104 0.99269 0.0
O161 O 0.35392 0.96363 0.0579 0.0
O162 O 0.38943 0.95039 0.06219 0.0
O163 O 0.37308 0.99649 0.98321 0.0
O164 O 0.39504 0.98703 0.01721 0.0
C165 C 0.36889 0.95365 0.07072 0.0
C166 C 0.39383 0.9933 0.99354 0.0
O167 O 0.31732 0.97596 0.01596 0.0
Mg168 Mg 0.33725 0.40533 0.05163 0.0
O169 O 0.32994 0.37704 1.00633 0.0
O170 O 0.35495 0.34735 0.99918 0.0
Mg171 Mg 0.37981 0.35868 0.04178 0.0
C172 C 0.33802 0.35766 0.99008 0.0
C173 C 0.29684 0.44062 0.05254 0.0
O174 O 0.31589 0.46184 0.06667 0.0
O175 O 0.32062 0.36932 0.0725 0.0
O176 O 0.3498 0.34468 0.07033 0.0
O177 O 0.36436 0.43899 0.03778 0.0
O178 O 0.37486 0.40406 0.05359 0.0
C179 C 0.32999 0.35014 0.07948 0.0
C180 C 0.38138 0.42639 0.04332 0.0
O181 O 0.29956 0.41488 0.04445 0.0
Mg182 Mg 0.79524 0.11907 0.0204 0.0
O183 O 0.78279 0.14842 0.05836 0.0
O184 O 0.81752 0.18553 0.07243 0.0
Mg185 Mg 0.85059 0.17908 0.04922 0.0
C186 C 0.79481 0.17348 0.0743 0.0
C187 C 0.73446 0.08646 0.9971 0.0
O188 O 0.72037 0.06595 0.97616 0.0
O189 O 0.79472 0.15189 0.99572 0.0
O190 O 0.83015 0.18721 0.01115 0.0
O191 O 0.80732 0.09167 0.04575 0.0
O192 O 0.83078 0.13274 0.03993 0.0
C193 C 0.80989 0.17559 0.99464 0.0
C194 C 0.82904 0.11022 0.04977 0.0
O195 O 0.75781 0.09211 0.99721 0.0
Mg196 Mg 0.20373 0.524 0.2301 0.0
O197 O 0.22695 0.57127 0.23646 0.0
O198 O 0.24761 0.58503 0.27978 0.0
Mg199 Mg 0.238 0.54765 0.29999 0.0
C200 C 0.24244 0.58983 0.2562 0.0
C201 C 0.17224 0.50855 0.17843 0.0
O202 O 0.16004 0.49408 0.19488 0.0
O203 O 0.23817 0.51012 0.22121 0.0
O204 O 0.25796 0.52675 0.26474 0.0
O205 O 0.17246 0.53887 0.24728 0.0
O206 O 0.20228 0.53069 0.27327 0.0
C207 C 0.25738 0.51548 0.23854 0.0
C208 C 0.1824 0.53974 0.2718 0.0
O209 O 0.19515 0.52106 0.18556 0.0
Mg210 Mg 0.83424 0.9103 0.55033 0.0
O211 O 0.83024 0.88194 0.50547 0.0
O212 O 0.85691 0.85415 0.50165 0.0
Mg213 Mg 0.88008 0.86809 0.54571 0.0
C214 C 0.83997 0.86323 0.49073 0.0
C215 C 0.79012 0.93955 0.55316 0.0
O216 O 0.80608 0.95933 0.57307 0.0
O217 O 0.81784 0.87373 0.57021 0.0
O218 O 0.84976 0.85409 0.57396 0.0
O219 O 0.86015 0.94521 0.5371 0.0
O220 O 0.87204 0.91184 0.55464 0.0
C221 C 0.82868 0.85768 0.58067 0.0
C222 C 0.8776 0.93362 0.5435 0.0
O223 O 0.79612 0.91672 0.54062 0.0
Mg224 Mg 0.95459 0.08408 0.28187 0.0
O225 O 0.92303 0.03801 0.27732 0.0
O226 O 0.90359 0.04725 0.31537 0.0
Mg227 Mg 0.92268 0.09386 0.34463 0.0
C228 C 0.90625 0.02953 0.29275 0.0
C229 C 0.984 0.08535 0.22149 0.0
O230 O 1.00114 0.10544 0.23987 0.0
O231 O 0.92497 0.11487 0.27559 0.0
O232 O 0.90949 0.12296 0.31624 0.0
O233 O 0.98302 0.06649 0.3058 0.0
O234 O 0.9598 0.08994 0.32962 0.0
C235 C 0.91142 0.12805 0.29203 0.0
C236 C 0.97681 0.07577 0.33037 0.0
O237 O 0.96381 0.07322 0.23089 0.0
Mg238 Mg 0.28789 0.61312 0.51546 0.0
O239 O 0.29127 0.6486 0.55576 0.0
O240 O 0.32968 0.67828 0.56251 0.0
Mg241 Mg 0.35029 0.66276 0.52586 0.0
C242 C 0.30801 0.67085 0.56995 0.0
C243 C 0.24144 0.59524 0.54214 0.0
O244 O 0.25879 0.5991 0.56283 0.0
O245 O 0.28319 0.64604 0.49102 0.0
O246 O 0.32247 0.67379 0.4973 0.0
O247 O 0.30434 0.58573 0.53769 0.0
O248 O 0.32543 0.61903 0.51831 0.0
C249 C 0.29974 0.66723 0.48663 0.0
C250 C 0.3255 0.59962 0.53192 0.0
O251 O 0.24745 0.59872 0.5186 0.0
Mg252 Mg 0.4615 0.58918 0.78448 0.0
O253 O 0.43338 0.54085 0.7759 0.0
O254 O 0.40727 0.54324 0.8085 0.0
Mg255 Mg 0.42007 0.59001 0.84001 0.0
C256 C 0.41505 0.52845 0.78743 0.0
C257 C 0.49778 0.5905 0.73045 0.0
O258 O 0.51386 0.60483 0.75276 0.0
O259 O 0.43087 0.61868 0.7759 0.0
O260 O 0.40899 0.62042 0.81216 0.0
O261 O 0.48871 0.57404 0.81428 0.0
O262 O 0.45992 0.59314 0.8309 0.0
C263 C 0.41431 0.62879 0.79001 0.0
C264 C 0.47773 0.58141 0.83605 0.0
O265 O 0.47496 0.58081 0.73509 0.0
Mg266 Mg 0.69954 0.024 0.72695 0.0
O267 O 0.72346 0.07149 0.7431 0.0
O268 O 0.74027 0.08401 0.7879 0.0
Mg269 Mg 0.73093 0.04083 0.8003 0.0
C270 C 0.73638 0.09018 0.76465 0.0
C271 C 0.68348 0.05601 0.68851 0.0
O272 O 0.685 0.07349 0.71352 0.0
O273 O 0.73425 1.0099 0.71357 0.0
O274 O 0.74258 0.02441 0.75896 0.0
O275 O 0.66778 0.03554 0.74667 0.0
O276 O 0.69643 0.02352 0.77046 0.0
C277 C 0.74928 0.01504 0.73541 0.0
C278 C 0.67685 0.03307 0.7702 0.0
O279 O 0.69122 0.03308 0.68591 0.0
Mg280 Mg 0.80103 0.69043 1.00471 0.0
O281 O 0.80251 0.7207 0.04928 0.0
O282 O 0.83909 0.75446 0.05719 0.0
Mg283 Mg 0.86291 0.74243 0.02201 0.0
C284 C 0.8181 0.74366 0.06468 0.0
C285 C 0.7515 0.64372 0.99296 0.0
O286 O 0.76858 0.62965 0.98637 0.0
O287 O 0.7988 0.72539 0.98091 0.0
O288 O 0.83858 0.75163 0.9878 0.0
O289 O 0.8163 0.65955 0.02295 0.0
O290 O 0.83981 0.69673 0.01048 0.0
C291 C 0.81644 0.74475 0.97525 0.0
C292 C 0.83833 0.67451 0.02073 0.0
O293 O 0.75839 0.6716 1.00144 0.0
Mg294 Mg 0.94154 0.5738 0.80969 0.0
O295 O 0.91807 0.52633 0.80202 0.0
O296 O 0.90933 0.5189 0.84386 0.0
Mg297 Mg 0.92942 0.56016 0.87788 0.0
C298 C 0.90756 0.51021 0.81721 0.0
C299 C 0.93191 0.56562 0.74117 0.0
O300 O 0.9191 0.57072 0.72061 0.0
O301 O 0.90923 0.59003 0.82337 0.0
O302 O 0.90116 0.58349 0.86544 0.0
O303 O 0.9764 0.55833 0.81101 0.0
O304 O 0.95591 0.57071 0.84702 0.0
C305 C 0.89675 0.59248 0.84403 0.0
C306 C 0.97358 0.56009 0.83707 0.0
O307 O 0.92831 0.57614 0.76609 0.0
Mg308 Mg 0.85 0.48082 0.52423 0.0
O309 O 0.85568 0.44344 0.48925 0.0
O310 O 0.89414 0.43866 0.49846 0.0
Mg311 Mg 0.91216 0.47142 0.54013 0.0
C312 C 0.87323 0.43123 0.48312 0.0
C313 C 0.80115 0.48909 0.50088 0.0
O314 O 0.81761 0.51186 0.49725 0.0
O315 O 0.84327 0.45008 0.55319 0.0
O316 O 0.88261 0.44844 0.56296 0.0
O317 O 0.86837 0.51298 0.50074 0.0
O318 O 0.88779 0.49863 0.53302 0.0
C319 C 0.85957 0.44182 0.56622 0.0
C320 C 0.88891 0.51303 0.51434 0.0
O321 O 0.80889 0.46977 0.5095 0.0
Mg322 Mg 0.67677 0.50632 0.26824 0.0
O323 O 0.70423 0.5546 0.27412 0.0
O324 O 0.7302 0.56728 0.31339 0.0
Mg325 Mg 0.71663 0.53083 0.33787 0.0
C326 C 0.72263 0.5731 0.29096 0.0
C327 C 0.64048 0.51535 0.21204 0.0
O328 O 0.62729 0.52131 0.23273 0.0
O329 O 0.70887 0.47392 0.26582 0.0
O330 O 0.72826 0.49153 0.30928 0.0
O331 O 0.64619 0.5216 0.29618 0.0
O332 O 0.67716 0.51299 0.3165 0.0
C333 C 0.72512 0.47258 0.28557 0.0
C334 C 0.6565 0.52012 0.31949 0.0
O335 O 0.66073 0.50769 0.21811 0.0
Eu336 Eu 0.03496 0.03053 0.99994 0.0
C337 C 0.12243 0.13897 0.06721 0.0
C338 C 0.13487 0.16486 0.03204 0.0
C339 C 0.14865 0.18908 0.08119 0.0
C340 C 0.12233 0.13925 0.03938 0.0
C341 C 0.13554 0.16394 0.08846 0.0
C342 C 0.1483 0.18955 0.05304 0.0
C343 C 0.12241 0.13724 0.12266 0.0
N344 N 0.10974 0.1143 0.07357 0.0
C345 C 0.11012 0.11292 0.10089 0.0
C346 C 0.13526 0.16288 0.11642 0.0
Eu347 Eu 0.09389 0.07198 0.03567 0.0
N348 N 0.10904 0.11502 0.01958 0.0
C349 C 0.10696 0.11569 0.99203 0.0
C350 C 0.13328 0.16511 1.00385 0.0
C351 C 0.11899 0.14054 0.98382 0.0
H352 H 0.10143 0.09267 0.10595 0.0
H353 H 0.1172 0.14069 0.96197 0.0
H354 H 0.15825 0.20923 0.04773 0.0
H355 H 0.12247 0.13594 0.14418 0.0
H356 H 0.0957 0.09745 0.97595 0.0
H357 H 0.01211 0.96613 0.07772 0.0
H358 H 0.14262 0.18433 0.9974 0.0
H359 H 0.02894 1.00561 0.92931 0.0
H360 H 0.03038 1.0093 0.06246 0.0
H361 H 0.01271 0.95962 0.89301 0.0
H362 H 0.15899 0.20834 0.0972 0.0
H363 H 0.99341 0.91888 0.04321 0.0
H364 H 0.98287 0.89022 0.99339 0.0
H365 H 0.14511 0.18158 0.1333 0.0
H366 H 0.98372 0.88822 0.94348 0.0
N367 N 0.02196 0.98838 0.01842 0.0
C368 C 0.02182 0.98964 0.04643 0.0
C369 C 1.00128 0.93814 0.03605 0.0
C370 C 1.00138 0.93658 0.00755 0.0
C371 C 0.01173 0.96474 0.05554 0.0
C372 C 0.01203 0.96231 0.99921 0.0
H373 H 0.99515 0.91365 0.90609 0.0
N374 N 0.0236 0.9859 0.96358 0.0
C375 C 0.01306 0.95955 0.91487 0.0
C376 C 0.01303 0.96102 0.97108 0.0
C377 C 0.02283 0.98556 0.93573 0.0
C378 C 1.00306 0.93371 0.92233 0.0
C379 C 1.0027 0.93422 0.95063 0.0
O380 O 0.0066 0.03192 0.96868 0.0
O381 O 0.05705 0.07734 0.01957 0.0
O382 O 0.06654 0.08131 0.06816 0.0
O383 O 0.0286 0.04927 0.04669 0.0
O384 O 0.04157 0.06723 0.9785 0.0
O385 O 0.9972 0.03064 0.01083 0.0
O386 O 0.11972 0.06224 0.06436 0.0
O387 O 0.0712 0.02521 0.0167 0.0
O388 O 0.06257 0.02754 0.96594 0.0
O389 O 0.10105 0.05588 0.98931 0.0
O390 O 0.08425 0.03745 0.05917 0.0
O391 O 0.13004 0.06692 0.02371 0.0
C392 C 0.05276 0.08858 0.99956 0.0
C393 C 0.96405 0.03025 0.97595 0.0
C394 C 0.92311 0.03492 0.98658 0.0
C395 C 0.948 0.03748 0.99554 0.0
C396 C 0.91431 0.02541 0.95787 0.0
C397 C 0.95521 0.02109 0.94723 0.0
C398 C 0.93041 0.01872 0.93827 0.0
C399 C 0.0428 0.06817 0.06943 0.0
C400 C 0.98956 0.03068 0.98543 0.0
C401 C 0.99182 0.90886 0.95891 0.0
C402 C 0.99124 0.91002 0.9873 0.0
C403 C 0.07426 0.01553 0.03812 0.0
C404 C 0.16267 0.0748 0.05998 0.0
C405 C 0.18053 0.0635 0.04597 0.0
C406 C 0.20509 0.07115 0.05849 0.0
C407 C 0.21205 0.09076 0.08513 0.0
C408 C 0.16964 0.09472 0.08653 0.0
C409 C 0.19435 0.10281 0.09894 0.0
C410 C 0.08686 0.03929 0.9658 0.0
C411 C 0.13675 0.06226 0.04756 0.0
H412 H 0.95471 0.0447 0.01774 0.0
H413 H 0.89512 0.02359 0.95064 0.0
H414 H 0.96732 0.01527 0.93174 0.0
H415 H 0.92362 1.01154 0.91615 0.0
H416 H 0.17504 0.04753 0.02578 0.0
H417 H 0.23105 0.09664 0.09515 0.0
H418 H 0.15607 0.10339 0.09798 0.0
H419 H 0.19966 0.11791 0.11951 0.0
Eu420 Eu 0.33448 0.78764 0.2455 0.0
C421 C 0.30332 0.87477 0.34637 0.0
C422 C 0.3434 0.90277 0.37228 0.0
C423 C 0.30715 0.92157 0.38003 0.0
C424 C 0.32839 0.87725 0.35291 0.0
C425 C 0.29252 0.89707 0.35976 0.0
C426 C 0.33256 0.92448 0.3862 0.0
C427 C 0.25345 0.8698 0.33187 0.0
N428 N 0.28967 0.85118 0.3262 0.0
C429 C 0.26485 0.84831 0.3192 0.0
C430 C 0.26731 0.89426 0.35231 0.0
Eu431 Eu 0.30853 0.8121 0.31083 0.0
N432 N 0.33843 0.85591 0.33891 0.0
C433 C 0.36389 0.8606 0.34189 0.0
C434 C 0.36906 0.90636 0.37646 0.0
C435 C 0.37937 0.88548 0.36075 0.0
H436 H 0.25324 0.8289 0.30455 0.0
H437 H 0.39936 0.88867 0.36287 0.0
H438 H 0.34378 0.94394 0.40134 0.0
H439 H 0.2338 0.86715 0.32623 0.0
H440 H 0.37301 0.84614 0.32917 0.0
H441 H 0.24711 0.71119 0.18946 0.0
H442 H 0.38115 0.92569 0.39097 0.0
H443 H 0.39142 0.77632 0.25068 0.0
H444 H 0.27358 0.75746 0.21853 0.0
H445 H 0.41188 0.73647 0.23716 0.0
H446 H 0.2991 0.93871 0.39066 0.0
H447 H 0.26446 0.66867 0.17409 0.0
H448 H 0.30121 0.6476 0.17353 0.0
H449 H 0.25836 0.91083 0.36223 0.0
H450 H 0.34572 0.65412 0.18735 0.0
N451 N 0.30637 0.74228 0.22036 0.0
C452 C 0.28186 0.7396 0.21213 0.0
C453 C 0.27636 0.68915 0.18704 0.0
C454 C 0.30144 0.69192 0.19521 0.0
C455 C 0.26653 0.71309 0.19559 0.0
C456 C 0.31615 0.71907 0.2122 0.0
H457 H 0.38694 0.68689 0.21135 0.0
N458 N 0.3547 0.74901 0.23648 0.0
C459 C 0.39185 0.732 0.23288 0.0
C460 C 0.34101 0.72249 0.22061 0.0
C461 C 0.38007 0.7544 0.24115 0.0
C462 C 0.37773 0.70412 0.21822 0.0
C463 C 0.35209 0.69921 0.21137 0.0
O464 O 0.36608 0.8033 0.22466 0.0
O465 O 0.32749 0.82558 0.27613 0.0
O466 O 0.28235 0.81537 0.27415 0.0
O467 O 0.30168 0.80484 0.2336 0.0
O468 O 0.36302 0.83063 0.26427 0.0
O469 O 0.32825 0.7908 0.20211 0.0
O470 O 0.27082 0.78968 0.31586 0.0
O471 O 0.30627 0.77573 0.27285 0.0
O472 O 0.35918 0.78321 0.28247 0.0
O473 O 0.34436 0.80129 0.32484 0.0
O474 O 0.3093 0.76594 0.31109 0.0
O475 O 0.29977 0.80775 0.35249 0.0
C476 C 0.34826 0.84358 0.27814 0.0
C477 C 0.36334 0.80584 0.17701 0.0
C478 C 0.36472 0.83005 0.13973 0.0
C479 C 0.35261 0.82089 0.16112 0.0
C480 C 0.38717 0.82324 0.13343 0.0
C481 C 0.38587 0.79905 0.1709 0.0
C482 C 0.3976 0.80749 0.14888 0.0
C483 C 0.28324 0.81252 0.2468 0.0
C484 C 0.35218 0.79982 0.2015 0.0
C485 C 0.33751 0.67217 0.19464 0.0
C486 C 0.31221 0.66851 0.18666 0.0
C487 C 0.3065 0.75542 0.28436 0.0
C488 C 0.25793 0.78491 0.36053 0.0
C489 C 0.26073 0.76401 0.37463 0.0
C490 C 0.24501 0.75742 0.39469 0.0
C491 C 0.22566 0.77125 0.3995 0.0
C492 C 0.23867 0.79868 0.36548 0.0
C493 C 0.22249 0.79169 0.38482 0.0
C494 C 0.36082 0.79027 0.31037 0.0
C495 C 0.27663 0.79389 0.3427 0.0
H496 H 0.33571 0.82712 0.1665 0.0
H497 H 0.39695 0.83093 0.11725 0.0
H498 H 0.3945 0.78765 0.18336 0.0
H499 H 0.4151 0.80257 0.14434 0.0
H500 H 0.27562 0.75337 0.37038 0.0
H501 H 0.21352 0.76699 0.41517 0.0
H502 H 0.23651 0.81521 0.35493 0.0
H503 H 0.20784 0.80267 0.38895 0.0
Eu504 Eu 0.59144 0.05096 0.5066 0.0
C505 C 0.50529 1.00085 0.57202 0.0
C506 C 0.47993 0.95782 0.53767 0.0
C507 C 0.48156 0.95945 0.58717 0.0
C508 C 0.49668 0.98598 0.54431 0.0
C509 C 0.49744 0.98794 0.59376 0.0
C510 C 0.47286 0.94441 0.55919 0.0
C511 C 0.52037 0.03293 0.62706 0.0
N512 N 0.52067 0.02836 0.57779 0.0
C513 C 0.52772 0.04482 0.60482 0.0
C514 C 0.50538 1.00426 0.62152 0.0
Eu515 Eu 0.53309 0.04601 0.53886 0.0
N516 N 0.50364 0.99959 0.52397 0.0
C517 C 0.49291 0.98723 0.49685 0.0
C518 C 0.47016 0.94431 0.50969 0.0
C519 C 0.47636 0.95931 0.48927 0.0
H520 H 0.53938 0.06696 0.6092 0.0
H521 H 0.46844 0.94939 0.46765 0.0
H522 H 0.46019 0.9227 0.55445 0.0
H523 H 0.52628 0.04587 0.64845 0.0
H524 H 0.4973 0.99838 0.48068 0.0
H525 H 0.65765 0.13922 0.58547 0.0
H526 H 0.45729 0.92269 0.50374 0.0
H527 H 0.58901 0.03742 0.4372 0.0
H528 H 0.62702 0.09177 0.56761 0.0
H529 H 0.6037 0.06332 0.40133 0.0
H530 H 0.4755 0.94908 0.60359 0.0
H531 H 0.67047 0.17118 0.55395 0.0
H532 H 0.6685 0.17805 0.50529 0.0
H533 H 0.4997 0.99513 0.6388 0.0
H534 H 0.65384 0.15738 0.45504 0.0
N535 N 0.6216 0.09643 0.52603 0.0
C536 C 0.63218 0.10519 0.55335 0.0
C537 C 0.65684 0.15026 0.54587 0.0
C538 C 0.64705 0.1405 0.51759 0.0
C539 C 0.64973 0.13225 0.56369 0.0
C540 C 0.62941 0.113 0.50812 0.0
H541 H 0.63002 0.11442 0.41601 0.0
N542 N 0.60571 0.07405 0.47141 0.0
C543 C 0.60859 0.0744 0.42336 0.0
C544 C 0.62121 0.10142 0.4799 0.0
C545 C 0.60025 0.05985 0.44362 0.0
C546 C 0.62339 0.10326 0.43173 0.0
C547 C 0.63033 0.11693 0.46029 0.0
O548 O 0.60531 0.01634 0.48167 0.0
O549 O 0.55753 0.02049 0.51547 0.0
O550 O 0.55636 0.02765 0.56435 0.0
O551 O 0.59508 0.04815 0.5515 0.0
O552 O 0.56797 1.00925 0.47588 0.0
O553 O 0.62538 0.04141 0.52233 0.0
O554 O 0.52153 0.08625 0.55313 0.0
O555 O 0.5672 0.07642 0.53004 0.0
O556 O 0.56627 0.06726 0.48067 0.0
O557 O 0.52922 0.04234 0.493 0.0
O558 O 0.55772 0.08668 0.57009 0.0
O559 O 0.49541 0.04868 0.52579 0.0
C560 C 0.55272 1.00053 0.49265 0.0
C561 C 0.64816 0.01838 0.48877 0.0
C562 C 0.68688 1.00424 0.4936 0.0
C563 C 0.66589 1.0109 0.50496 0.0
C564 C 0.69031 1.00549 0.46603 0.0
C565 C 0.65202 0.02011 0.46134 0.0
C566 C 0.67306 0.01371 0.4501 0.0
C567 C 0.58082 0.03467 0.56736 0.0
C568 C 0.62463 0.02074 0.49981 0.0
C569 C 0.64681 0.14501 0.46975 0.0
C570 C 0.65515 0.15678 0.49836 0.0
C571 C 0.57306 0.09559 0.55338 0.0
C572 C 0.47929 0.08369 0.55622 0.0
C573 C 0.46265 0.09704 0.54509 0.0
C574 C 0.44518 0.1075 0.56137 0.0
C575 C 0.44496 0.10454 0.589 0.0
C576 C 0.47829 0.08051 0.58356 0.0
C577 C 0.46125 0.09097 0.59984 0.0
C578 C 0.54179 0.0581 0.47778 0.0
C579 C 0.49908 0.07573 0.54018 0.0
H580 H 0.6629 1.00916 0.52602 0.0
H581 H 0.70639 1.00025 0.45693 0.0
H582 H 0.63854 0.02568 0.44838 0.0
H583 H 0.67581 0.01471 0.42886 0.0
H584 H 0.4634 0.09929 0.52387 0.0
H585 H 0.43238 0.11305 0.60248 0.0
H586 H 0.49106 0.07059 0.59254 0.0
H587 H 0.46087 0.08889 0.62112 0.0
Eu588 Eu 0.28936 0.30603 0.77413 0.0
C589 C 0.37815 0.27045 0.82518 0.0
C590 C 0.39616 0.31348 0.86358 0.0
C591 C 0.40122 0.26613 0.86667 0.0
C592 C 0.38244 0.30037 0.83676 0.0
C593 C 0.38797 0.25318 0.83987 0.0
C594 C 0.40523 0.29617 0.87853 0.0
C595 C 0.37228 0.21168 0.79987 0.0
N596 N 0.36505 0.25832 0.79932 0.0
C597 C 0.3629 0.22958 0.78615 0.0
C598 C 0.38464 0.22344 0.82698 0.0
Eu599 Eu 0.35068 0.29064 0.77706 0.0
N600 N 0.37331 0.31668 0.82194 0.0
C601 C 0.37838 0.34646 0.83244 0.0
C602 C 0.40051 0.34369 0.87464 0.0
C603 C 0.39171 0.36024 0.85892 0.0
H604 H 0.35343 0.22034 0.76505 0.0
H605 H 0.3951 0.38368 0.86721 0.0
H606 H 0.41566 0.30589 0.89916 0.0
H607 H 0.37004 0.18884 0.78948 0.0
H608 H 0.37161 0.36002 0.82126 0.0
H609 H 0.24579 0.20844 0.68778 0.0
H610 H 0.41082 0.35448 0.89519 0.0
H611 H 0.28107 0.37297 0.78334 0.0
H612 H 0.26759 0.23486 0.73418 0.0
H613 H 0.26432 0.40253 0.75641 0.0
H614 H 0.40872 0.25314 0.87829 0.0
H615 H 0.2321 0.23528 0.65586 0.0
H616 H 0.22772 0.28284 0.64795 0.0
H617 H 0.39196 0.20954 0.83757 0.0
H618 H 0.23289 0.33572 0.66646 0.0
N619 N 0.26702 0.27734 0.7296 0.0
C620 C 0.2617 0.24738 0.72113 0.0
C621 C 0.24174 0.24726 0.67648 0.0
C622 C 0.24608 0.27767 0.68557 0.0
C623 C 0.24933 0.23204 0.69447 0.0
C624 C 0.25887 0.29229 0.71259 0.0
H625 H 0.24615 0.38041 0.70694 0.0
N626 N 0.27368 0.33523 0.74911 0.0
C627 C 0.26387 0.38004 0.7465 0.0
C628 C 0.26225 0.32211 0.7227 0.0
C629 C 0.2734 0.3633 0.76161 0.0
C630 C 0.25367 0.36749 0.71861 0.0
C631 C 0.2523 0.33802 0.70652 0.0
O632 O 0.27152 0.3271 0.80794 0.0
O633 O 0.32012 0.30051 0.80184 0.0
O634 O 0.3232 0.24897 0.78412 0.0
O635 O 0.28454 0.25939 0.78002 0.0
O636 O 0.30809 0.33823 0.81468 0.0
O637 O 0.25161 0.28455 0.78158 0.0
O638 O 0.36786 0.276 0.73962 0.0
O639 O 0.32004 0.29646 0.74958 0.0
O640 O 0.31607 0.34714 0.76738 0.0
O641 O 0.35552 0.33952 0.77506 0.0
O642 O 0.33131 0.258 0.73703 0.0
O643 O 0.39045 0.30953 0.77383 0.0
C644 C 0.32191 0.32275 0.82204 0.0
C645 C 0.22768 0.31512 0.80618 0.0
C646 C 0.18764 0.30852 0.82465 0.0
C647 C 0.20841 0.29812 0.81704 0.0
C648 C 0.18591 0.33557 0.82043 0.0
C649 C 0.22562 0.34225 0.80247 0.0
C650 C 0.20475 0.3522 0.80923 0.0
C651 C 0.2984 0.24135 0.78344 0.0
C652 C 0.25104 0.30617 0.8027 0.0
C653 C 0.24042 0.3238 0.67928 0.0
C654 C 0.23742 0.29369 0.66878 0.0
C655 C 0.31758 0.27371 0.72977 0.0
C656 C 0.41091 0.27889 0.7431 0.0
C657 C 0.43342 0.29416 0.73545 0.0
C658 C 0.45235 0.27981 0.72826 0.0
C659 C 0.44853 0.2504 0.72887 0.0
C660 C 0.40754 0.24919 0.74252 0.0
C661 C 0.42626 0.23521 0.7358 0.0
C662 C 0.34085 0.35665 0.77075 0.0
C663 C 0.39006 0.29277 0.74897 0.0
H664 H 0.21011 0.27755 0.82078 0.0
H665 H 0.16997 0.34387 0.82588 0.0
H666 H 0.24039 0.35634 0.79529 0.0
H667 H 0.20344 0.3732 0.80637 0.0
H668 H 0.4361 0.3168 0.73485 0.0
H669 H 0.46268 0.23891 0.72331 0.0
H670 H 0.39012 0.23639 0.74637 0.0
H671 H 0.4233 0.21232 0.73548 0.0
Eu672 Eu 0.05989 0.08184 0.53724 0.0
C673 C 0.07829 0.98817 0.44212 0.0
C674 C 0.04244 0.97866 0.40763 0.0
C675 C 0.08051 0.96747 0.39276 0.0
C676 C 0.05393 0.98907 0.43565 0.0
C677 C 0.09159 0.97672 0.42072 0.0
C678 C 0.05602 0.96846 0.38624 0.0
C679 C 0.12449 0.98023 0.45638 0.0
N680 N 0.08822 0.99603 0.46945 0.0
C681 C 0.11038 0.99078 0.47687 0.0
C682 C 0.11518 0.97347 0.42816 0.0
Eu683 Eu 0.06226 1.01083 0.50299 0.0
N684 N 0.04081 0.99771 0.45689 0.0
C685 C 0.01583 0.99506 0.45147 0.0
C686 C 0.01727 0.97748 0.402 0.0
C687 C 1.00388 0.9855 0.42405 0.0
H688 H 0.1172 0.99484 0.4987 0.0
H689 H 0.98427 0.98414 0.42 0.0
H690 H 0.04745 0.96036 0.36467 0.0
H691 H 0.1423 0.97678 0.4624 0.0
H692 H 1.00486 1.001 0.46797 0.0
H693 H 0.15053 0.11693 0.6047 0.0
H694 H 0.00783 0.96961 0.38079 0.0
H695 H 1.00327 0.08897 0.55578 0.0
H696 H 0.12338 0.09542 0.56121 0.0
H697 H 0.98522 0.10764 0.59797 0.0
H698 H 0.09045 0.9586 0.37611 0.0
H699 H 0.13363 0.13413 0.64853 0.0
H700 H 0.09737 0.14178 0.67302 0.0
H701 H 0.12591 0.9647 0.41234 0.0
H702 H 0.0528 0.13882 0.67138 0.0
N703 N 0.08972 0.10045 0.57857 0.0
C704 C 0.11489 0.10317 0.57935 0.0
C705 C 0.12116 0.1247 0.62915 0.0
C706 C 0.09564 0.12209 0.62862 0.0
C707 C 0.13077 0.11517 0.60445 0.0
C708 C 0.08002 0.10959 0.6028 0.0
H709 H 0.01122 0.12632 0.64382 0.0
N710 N 0.03957 0.0959 0.57724 0.0
C711 C 1.00465 0.10753 0.59951 0.0
C712 C 0.05452 0.10739 0.60207 0.0
C713 C 0.01512 0.09701 0.57559 0.0
C714 C 0.01937 0.11798 0.6253 0.0
C715 C 0.0446 0.11841 0.62683 0.0
O716 O 0.03276 0.10377 0.52446 0.0
O717 O 0.04334 0.04613 0.49689 0.0
O718 O 0.09716 0.04162 0.49432 0.0
O719 O 0.09755 0.08796 0.52171 0.0
O720 O 0.06205 0.08574 0.49205 0.0
O721 O 0.07035 0.12932 0.54566 0.0
O722 O 0.0588 0.97981 0.52939 0.0
O723 O 0.06808 0.04135 0.5467 0.0
O724 O 0.02709 0.04978 0.54797 0.0
O725 O 0.02334 1.00775 0.51318 0.0
O726 O 0.09597 0.02131 0.53648 0.0
O727 O 0.0471 0.96373 0.48533 0.0
C728 C 0.0479 0.06068 0.47826 0.0
C729 C 0.04269 0.15675 0.53278 0.0
C730 C 0.05573 0.20497 0.52428 0.0
C731 C 0.06118 0.17915 0.52728 0.0
C732 C 0.03164 0.20848 0.52752 0.0
C733 C 0.01862 0.16022 0.53554 0.0
C734 C 0.01321 0.18617 0.53315 0.0
C735 C 0.10791 0.06995 0.50499 0.0
C736 C 0.0485 0.12946 0.53449 0.0
C737 C 0.06017 0.13038 0.65228 0.0
C738 C 0.08556 0.13213 0.65319 0.0
C739 C 0.08864 0.03793 0.55707 0.0
C740 C 0.06182 0.93219 0.50775 0.0
C741 C 0.05498 0.9145 0.52602 0.0
C742 C 0.06465 0.89029 0.52528 0.0
C743 C 0.08186 0.88429 0.50665 0.0
C744 C 0.07822 0.92521 0.48832 0.0
C745 C 0.08849 0.90166 0.48813 0.0
C746 C 0.0147 0.02311 0.53389 0.0
C747 C 0.05063 0.95679 0.50862 0.0
H748 H 0.07967 0.17621 0.52466 0.0
H749 H 0.02686 0.22805 0.52482 0.0
H750 H 1.00409 0.14294 0.53958 0.0
H751 H 0.99462 0.18884 0.53523 0.0
H752 H 0.04187 0.91935 0.54063 0.0
H753 H 0.08949 0.86566 0.50583 0.0
H754 H 0.08273 0.93746 0.47295 0.0
H755 H 0.10124 0.89653 0.47323 0.0
Eu756 Eu 0.34662 0.81897 0.77184 0.0
C757 C 0.27594 0.73117 0.82345 0.0
C758 C 0.27993 0.68324 0.79929 0.0
C759 C 0.26491 0.69029 0.84479 0.0
C760 C 0.28234 0.71311 0.80046 0.0
C761 C 0.26691 0.71982 0.84573 0.0
C762 C 0.27136 0.67204 0.82162 0.0
C763 C 0.26017 0.76693 0.86717 0.0
N764 N 0.27737 0.75944 0.8235 0.0
C765 C 0.26864 0.77699 0.84434 0.0
C766 C 0.25944 0.73827 0.86796 0.0
Eu767 Eu 0.29035 0.77432 0.78328 0.0
N768 N 0.29023 0.7244 0.77893 0.0
C769 C 0.29557 0.70659 0.75544 0.0
C770 C 0.28576 0.66527 0.7755 0.0
C771 C 0.29359 0.67702 0.7535 0.0
H772 H 0.2685 0.79889 0.84339 0.0
H773 H 0.29805 0.66329 0.73491 0.0
H774 H 0.26935 0.64918 0.82099 0.0
H775 H 0.25387 0.78115 0.88393 0.0
H776 H 0.30175 0.71469 0.73796 0.0
H777 H 0.33569 0.9253 0.83002 0.0
H778 H 0.28407 0.64225 0.77382 0.0
H779 H 0.37113 0.80392 0.71127 0.0
H780 H 0.33744 0.87444 0.8234 0.0
H781 H 0.37986 0.82487 0.671 0.0
H782 H 0.25797 0.68121 0.86168 0.0
H783 H 0.34172 0.94902 0.7911 0.0
H784 H 0.35134 0.94617 0.742 0.0
H785 H 0.25249 0.73037 0.88546 0.0
H786 H 0.36259 0.9186 0.69847 0.0
N787 N 0.34393 0.86832 0.78055 0.0
C788 C 0.34019 0.88412 0.80602 0.0
C789 C 0.34245 0.92644 0.78792 0.0
C790 C 0.34727 0.91068 0.76226 0.0
C791 C 0.3391 0.91316 0.80995 0.0
C792 C 0.34802 0.88128 0.75915 0.0
H793 H 0.3731 0.87343 0.67176 0.0
N794 N 0.35637 0.83813 0.73276 0.0
C795 C 0.37225 0.83638 0.68848 0.0
C796 C 0.3542 0.86567 0.7345 0.0
C797 C 0.36679 0.82424 0.71101 0.0
C798 C 0.36845 0.8638 0.68902 0.0
C799 C 0.36002 0.87917 0.71253 0.0
O800 O 0.38362 0.8132 0.76747 0.0
O801 O 0.33164 0.77639 0.78442 0.0
O802 O 0.31315 0.78863 0.82548 0.0
O803 O 0.34339 0.82746 0.81836 0.0
O804 O 0.35663 0.77521 0.75597 0.0
O805 O 0.37875 0.84959 0.79995 0.0
O806 O 0.25354 0.7817 0.78325 0.0
O807 O 0.3051 0.81689 0.77006 0.0
O808 O 0.32478 0.79983 0.7292 0.0
O809 O 0.29725 0.76025 0.73807 0.0
O810 O 0.28281 0.81912 0.80149 0.0
O811 O 0.25932 0.74397 0.7534 0.0
C812 C 0.34402 0.75954 0.77063 0.0
C813 C 0.4184 0.85339 0.78359 0.0
C814 C 0.46309 0.86394 0.79566 0.0
C815 C 0.43877 0.85536 0.80229 0.0
C816 C 0.46664 0.87291 0.77077 0.0
C817 C 0.4221 0.86298 0.75924 0.0
C818 C 0.44623 0.87302 0.75304 0.0
C819 C 0.33172 0.81226 0.83468 0.0
C820 C 0.39435 0.8361 0.78781 0.0
C821 C 0.35831 0.90798 0.71518 0.0
C822 C 0.35197 0.92369 0.73999 0.0
C823 C 0.29365 0.83405 0.78519 0.0
C824 C 0.21892 0.74141 0.76706 0.0
C825 C 0.19958 0.73752 0.7463 0.0
C826 C 0.17478 0.73019 0.75166 0.0
C827 C 0.16959 0.72327 0.77718 0.0
C828 C 0.21366 0.73447 0.79237 0.0
C829 C 0.189 0.72479 0.79712 0.0
C830 C 0.30904 0.77378 0.72075 0.0
C831 C 0.24339 0.75816 0.76341 0.0
H832 H 0.43541 0.84846 0.82131 0.0
H833 H 0.485 0.87885 0.76435 0.0
H834 H 0.40654 0.86189 0.74467 0.0
H835 H 0.4491 0.87972 0.73387 0.0
H836 H 0.20407 0.74269 0.72675 0.0
H837 H 0.15075 0.71819 0.78249 0.0
H838 H 0.22836 0.73755 0.80879 0.0
H839 H 0.18492 0.72005 0.81691 0.0
Eu840 Eu 0.57359 0.03524 0.0583 0.0
C841 C 0.51991 0.07484 0.96794 0.0
C842 C 0.49838 0.0272 0.93769 0.0
C843 C 0.4792 0.06763 0.94242 0.0
C844 C 0.51914 0.0458 0.95656 0.0
C845 C 0.50024 0.08627 0.96036 0.0
C846 C 0.47827 0.03813 0.93113 0.0
C847 C 0.52443 0.13423 0.9869 0.0
N848 N 0.5402 0.09219 0.98573 0.0
C849 C 0.54334 0.12184 0.99392 0.0
C850 C 0.50254 0.11626 0.97053 0.0
Eu851 Eu 0.57122 0.06966 0.99798 0.0
N852 N 0.53859 0.03567 0.96398 0.0
C853 C 0.53861 1.00719 0.95232 0.0
C854 C 0.49834 0.99808 0.92608 0.0
C855 C 0.51863 0.98811 0.93329 0.0
H856 H 0.56028 0.1359 1.00662 0.0
H857 H 0.51871 0.96553 0.9246 0.0
H858 H 0.46202 0.02403 0.91711 0.0
H859 H 0.52673 0.15761 0.9942 0.0
H860 H 0.55345 0.99837 0.95809 0.0
H861 H 0.63326 0.13447 0.13276 0.0
H862 H 0.4827 0.98311 0.91168 0.0
H863 H 0.5784 0.96627 0.04548 0.0
H864 H 0.59886 0.10667 0.09664 0.0
H865 H 0.6058 0.93832 0.06086 0.0
H866 H 0.46375 0.07592 0.93676 0.0
H867 H 0.66228 0.10979 0.15052 0.0
H868 H 0.67513 0.06371 0.14891 0.0
H869 H 0.48786 0.12588 0.96518 0.0
H870 H 0.66808 1.01073 0.12904 0.0
N871 N 0.60682 0.06524 0.09373 0.0
C872 C 0.61049 0.09482 0.10436 0.0
C873 C 0.64674 0.09707 0.13478 0.0
C874 C 0.64303 0.06691 0.12409 0.0
C875 C 0.6304 0.11105 0.12485 0.0
C876 C 0.6226 0.05133 0.10342 0.0
H877 H 0.64247 0.96397 0.09621 0.0
N878 N 0.59996 1.00745 0.07102 0.0
C879 C 0.60991 0.96178 0.0695 0.0
C880 C 0.61908 0.02162 0.09169 0.0
C881 C 0.59453 0.97768 0.06077 0.0
C882 C 0.63053 0.97632 0.08951 0.0
C883 C 0.63523 1.00653 0.10106 0.0
O884 O 0.54762 0.99844 0.06745 0.0
O885 O 0.55128 0.04332 0.02417 0.0
O886 O 0.5551 0.0958 0.03285 0.0
O887 O 0.56141 0.07732 0.07183 0.0
O888 O 0.54004 1.00204 0.02972 0.0
O889 O 0.55574 0.04186 0.09643 0.0
O890 O 0.59453 0.10703 0.98695 0.0
O891 O 0.59409 0.06278 0.03264 0.0
O892 O 0.59249 1.01139 0.02517 0.0
O893 O 0.58836 0.03065 0.98629 0.0
O894 O 0.60308 0.10429 0.02685 0.0
O895 O 0.5879 0.06347 0.95889 0.0
C896 C 0.53458 0.01978 0.01621 0.0
C897 C 0.54199 1.00069 0.11451 0.0
C898 C 0.51758 0.98885 0.15116 0.0
C899 C 0.51945 0.99646 0.12564 0.0
C900 C 0.53783 0.98145 0.16336 0.0
C901 C 0.56226 0.99382 0.12693 0.0
C902 C 0.55989 0.98345 0.15094 0.0
C903 C 0.55441 0.09619 0.05966 0.0
C904 C 0.54368 0.01418 0.0911 0.0
C905 C 0.6554 0.02193 0.12173 0.0
C906 C 0.65936 0.05206 0.13312 0.0
C907 C 0.60984 0.08736 0.04063 0.0
C908 C 0.59592 0.10385 0.93863 0.0
C909 C 0.60513 0.09162 0.91425 0.0
C910 C 0.60603 0.10432 0.89154 0.0
C911 C 0.59707 0.1293 0.89335 0.0
C912 C 0.58692 0.12871 0.94008 0.0
C913 C 0.58744 0.14125 0.91745 0.0
C914 C 0.59562 1.01235 0.99912 0.0
C915 C 0.59781 0.09153 0.9628 0.0
H916 H 0.50383 1.00137 0.11538 0.0
H917 H 0.53725 0.97583 0.18325 0.0
H918 H 0.57984 0.99687 0.11849 0.0
H919 H 0.57559 0.97835 0.16071 0.0
H920 H 0.61179 0.07223 0.91314 0.0
H921 H 0.59789 0.13991 0.87638 0.0
H922 H 0.57994 0.13881 0.95878 0.0
H923 H 0.58072 0.16057 0.91875 0.0
Eu924 Eu 0.3488 0.34718 0.3003 0.0
C925 C 0.2466 0.25373 0.24758 0.0
C926 C 0.22621 0.24941 0.28874 0.0
C927 C 0.2026 0.22831 0.24259 0.0
C928 C 0.24794 0.25802 0.27623 0.0
C929 C 0.22386 0.23886 0.23039 0.0
C930 C 0.20372 0.2338 0.27175 0.0
C931 C 0.2448 0.24548 0.19028 0.0
N932 N 0.26753 0.26433 0.23656 0.0
C933 C 0.26687 0.25997 0.20815 0.0
C934 C 0.22319 0.23473 0.20142 0.0
Eu935 Eu 0.30561 0.27584 0.26637 0.0
N936 N 0.27018 0.27238 0.29193 0.0
C937 C 0.27095 0.28251 0.3203 0.0
C938 C 0.22756 0.25754 0.31791 0.0
C939 C 0.24987 0.27498 0.33369 0.0
H940 H 0.28367 0.26566 0.1988 0.0
H941 H 0.25085 0.28279 0.35619 0.0
H942 H 0.187 0.22638 0.28097 0.0
H943 H 0.2447 0.24175 0.16783 0.0
H944 H 0.28747 0.29718 0.33279 0.0
H945 H 0.40905 0.35844 0.21615 0.0
H946 H 0.21127 0.25159 0.32833 0.0
H947 H 0.36636 0.35138 0.3683 0.0
H948 H 0.37013 0.34468 0.23419 0.0
H949 H 0.40441 0.36495 0.40051 0.0
H950 H 0.18511 0.2164 0.2297 0.0
H951 H 0.44864 0.3746 0.24737 0.0
H952 H 0.47085 0.38493 0.29502 0.0
H953 H 0.2062 0.22307 0.18749 0.0
H954 H 0.46966 0.38572 0.34458 0.0
N955 N 0.38579 0.35262 0.27693 0.0
C956 C 0.38648 0.35176 0.24905 0.0
C957 C 0.43124 0.36819 0.25579 0.0
C958 C 0.43087 0.36846 0.28398 0.0
C959 C 0.40897 0.35929 0.23819 0.0
C960 C 0.40767 0.35973 0.29401 0.0
H961 H 0.44532 0.37756 0.3836 0.0
N962 N 0.38469 0.35101 0.33132 0.0
C963 C 0.40552 0.36274 0.37838 0.0
C964 C 0.40709 0.35909 0.32187 0.0
C965 C 0.38381 0.35405 0.35955 0.0
C966 C 0.42852 0.36999 0.36878 0.0
C967 C 0.42957 0.36866 0.34042 0.0
O968 O 0.34176 0.37489 0.33899 0.0
O969 O 0.30962 0.31991 0.29393 0.0
O970 O 0.30999 0.30522 0.23568 0.0
O971 O 0.33718 0.3517 0.25698 0.0
O972 O 0.31492 0.36252 0.29034 0.0
O973 O 0.36721 0.39371 0.31256 0.0
O974 O 0.31403 0.24899 0.22767 0.0
O975 O 0.34409 0.30417 0.27079 0.0
O976 O 0.34214 0.31655 0.32976 0.0
O977 O 0.31602 0.26969 0.30882 0.0
O978 O 0.34067 0.26327 0.27747 0.0
O979 O 0.29055 0.2288 0.25518 0.0
C980 C 0.29864 0.33817 0.2886 0.0
C981 C 0.34669 0.42435 0.34044 0.0
C982 C 0.32494 0.45447 0.32208 0.0
C983 C 0.33416 0.42995 0.31811 0.0
C984 C 0.32861 0.47419 0.34862 0.0
C985 C 0.35022 0.44365 0.36719 0.0
C986 C 0.34122 0.46865 0.37123 0.0
C987 C 0.32251 0.33208 0.23512 0.0
C988 C 0.35644 0.39868 0.33535 0.0
C989 C 0.45239 0.37796 0.33052 0.0
C990 C 0.45305 0.37766 0.30235 0.0
C991 C 0.35623 0.28656 0.27478 0.0
C992 C 0.30944 0.1984 0.22418 0.0
C993 C 0.32064 0.18871 0.2448 0.0
C994 C 0.32231 0.15957 0.23951 0.0
C995 C 0.31445 0.14128 0.21206 0.0
C996 C 0.30253 0.18031 0.19697 0.0
C997 C 0.30539 0.15195 0.19086 0.0
C998 C 0.33049 0.28952 0.33033 0.0
C999 C 0.30065 0.22475 0.23188 0.0
H1000 H 0.33208 0.41564 0.29724 0.0
H1001 H 0.32167 0.49355 0.3518 0.0
H1002 H 0.36008 0.43954 0.38473 0.0
H1003 H 0.34406 0.48371 0.39178 0.0
H1004 H 0.32688 0.20382 0.2652 0.0
H1005 H 0.31444 0.11844 0.20669 0.0
H1006 H 0.29381 0.18764 0.18081 0.0
H1007 H 0.29945 0.1377 0.16996 0.0
Eu1008 Eu 0.55987 0.58258 0.04062 0.0
C1009 C 0.57591 0.48651 0.94096 0.0
C1010 C 0.53625 0.47215 0.91175 0.0
C1011 C 0.573 0.46304 0.89124 0.0
C1012 C 0.55075 0.48489 0.93816 0.0
C1013 C 0.58724 0.47517 0.9176 0.0
C1014 C 0.54757 0.46157 0.88831 0.0
C1015 C 0.62552 0.48653 0.94839 0.0
N1016 N 0.58914 0.49796 0.96673 0.0
C1017 C 0.61341 0.49718 0.97092 0.0
C1018 C 0.61243 0.47567 0.92155 0.0
Eu1019 Eu 0.56748 0.51411 1.00452 0.0
N1020 N 0.54028 0.49491 0.96133 0.0
C1021 C 0.51505 0.49168 0.95938 0.0
C1022 C 0.5107 0.46984 0.90969 0.0
C1023 C 0.50005 0.47953 0.93366 0.0
H1024 H 0.62346 0.50504 0.99177 0.0
H1025 H 0.48024 0.47763 0.93237 0.0
H1026 H 0.53672 0.45176 0.86792 0.0
H1027 H 0.64487 0.48645 0.95179 0.0
H1028 H 0.50605 0.4991 0.97727 0.0
H1029 H 0.64525 0.62172 0.11511 0.0
H1030 H 0.49898 0.46025 0.8898 0.0
H1031 H 0.50455 0.59534 0.05098 0.0
H1032 H 0.62058 0.60142 0.06918 0.0
H1033 H 0.48149 0.61184 0.09018 0.0
H1034 H 0.5814 0.45429 0.87307 0.0
H1035 H 0.62468 0.63416 0.15747 0.0
H1036 H 0.5857 0.63916 0.1784 0.0
H1037 H 0.62177 0.46714 0.90414 0.0
H1038 H 0.54103 0.63634 0.17169 0.0
N1039 N 0.58549 0.60074 0.08467 0.0
C1040 C 0.61093 0.60637 0.08716 0.0
C1041 C 0.61353 0.62486 0.13721 0.0
C1042 C 0.58772 0.62084 0.13449 0.0
C1043 C 0.6252 0.618 0.11337 0.0
C1044 C 0.57403 0.60871 0.10758 0.0
H1045 H 0.50209 0.62637 0.13892 0.0
N1046 N 0.5368 0.59771 0.07743 0.0
C1047 C 0.50033 0.61028 0.09438 0.0
C1048 C 0.5489 0.60712 0.10384 0.0
C1049 C 0.5133 0.60064 0.07229 0.0
C1050 C 0.51201 0.61842 0.12185 0.0
C1051 C 0.53678 0.61762 0.12682 0.0
O1052 O 0.54432 0.61442 0.02674 0.0
O1053 O 0.55686 0.55392 0.99633 0.0
O1054 O 0.59857 0.54655 0.9919 0.0
O1055 O 0.59767 0.58876 0.02499 0.0
O1056 O 0.52714 0.57093 1.00606 0.0
O1057 O 0.58347 0.62647 0.04361 0.0
O1058 O 0.58509 0.48337 0.01772 0.0
O1059 O 0.57117 0.54291 0.04914 0.0
O1060 O 0.52748 0.55094 0.05109 0.0
O1061 O 0.52936 0.50784 0.01991 0.0
O1062 O 0.60167 0.52827 0.037 0.0
O1063 O 0.54505 0.47086 1.00583 0.0
C1064 C 0.53615 0.55661 0.98551 0.0
C1065 C 0.56413 0.66474 0.04237 0.0
C1066 C 0.56879 0.71014 0.02907 0.0
C1067 C 0.57416 0.68319 0.02601 0.0
C1068 C 0.55431 0.71954 0.04981 0.0
C1069 C 0.54997 0.67405 0.0635 0.0
C1070 C 0.54539 0.70172 0.06743 0.0
C1071 C 0.60826 0.57438 1.00526 0.0
C1072 C 0.56531 0.63456 0.0328 0.0
C1073 C 0.55005 0.6283 0.15379 0.0
C1074 C 0.57548 0.62991 0.15761 0.0
C1075 C 0.59288 0.54139 0.0584 0.0
C1076 C 0.56515 0.43269 1.00492 0.0
C1077 C 0.55064 0.41249 0.0172 0.0
C1078 C 0.55374 0.38417 0.01296 0.0
C1079 C 0.57114 0.3758 0.99555 0.0
C1080 C 0.58225 0.42415 0.98716 0.0
C1081 C 0.58507 0.39566 0.98238 0.0
C1082 C 0.51793 0.52313 0.03799 0.0
C1083 C 0.56433 0.4632 0.01463 0.0
H1084 H 0.5843 0.6754 0.00899 0.0
H1085 H 0.54943 0.74012 0.0518 0.0
H1086 H 0.54182 0.65972 0.07612 0.0
H1087 H 0.53405 0.70879 0.08331 0.0
H1088 H 0.538 0.41944 0.0316 0.0
H1089 H 0.57406 0.3541 0.99239 0.0
H1090 H 0.59387 0.43961 0.97774 0.0
H1091 H 0.59854 0.3892 0.96906 0.0
Eu1092 Eu 0.84538 0.31694 0.27035 0.0
C1093 C 0.77863 0.23319 0.3269 0.0
C1094 C 0.78358 0.18572 0.30271 0.0
C1095 C 0.77071 0.19293 0.34929 0.0
C1096 C 0.78464 0.21523 0.30355 0.0
C1097 C 0.77109 0.222 0.34978 0.0
C1098 C 0.77699 0.17486 0.32584 0.0
C1099 C 0.76254 0.26821 0.37091 0.0
N1100 N 0.77877 0.26109 0.32668 0.0
C1101 C 0.77002 0.2783 0.34774 0.0
C1102 C 0.76335 0.24006 0.37209 0.0
Eu1103 Eu 0.78978 0.27581 0.28588 0.0
N1104 N 0.79032 0.22609 0.28117 0.0
C1105 C 0.79401 0.20804 0.25688 0.0
C1106 C 0.78846 0.16768 0.27833 0.0
C1107 C 0.79351 0.17886 0.25526 0.0
H1108 H 0.76922 0.30003 0.34675 0.0
H1109 H 0.79696 0.16499 0.23612 0.0
H1110 H 0.77612 0.1523 0.32554 0.0
H1111 H 0.7561 0.28211 0.3878 0.0
H1112 H 0.79801 0.21591 0.23866 0.0
H1113 H 0.84316 0.42966 0.31998 0.0
H1114 H 0.78787 0.14496 0.27691 0.0
H1115 H 0.86397 0.29074 0.20876 0.0
H1116 H 0.83986 0.37826 0.31752 0.0
H1117 H 0.87614 0.30721 0.16674 0.0
H1118 H 0.76505 0.18401 0.36671 0.0
H1119 H 0.85201 0.4488 0.27866 0.0
H1120 H 0.86202 0.43998 0.2293 0.0
H1121 H 0.75738 0.23222 0.38998 0.0
H1122 H 0.87083 0.40676 0.18762 0.0
N1123 N 0.84628 0.36698 0.27462 0.0
C1124 C 0.84367 0.38568 0.29903 0.0
C1125 C 0.85042 0.42586 0.27726 0.0
C1126 C 0.8539 0.40701 0.2526 0.0
C1127 C 0.84552 0.41518 0.30064 0.0
C1128 C 0.85174 0.3773 0.25189 0.0
H1129 H 0.87622 0.35739 0.16418 0.0
N1130 N 0.85614 0.33071 0.22901 0.0
C1131 C 0.87064 0.32184 0.18388 0.0
C1132 C 0.85672 0.3586 0.22838 0.0
C1133 C 0.86375 0.31259 0.20764 0.0
C1134 C 0.87057 0.35014 0.18247 0.0
C1135 C 0.86398 0.36908 0.20504 0.0
O1136 O 0.88245 0.31029 0.26619 0.0
O1137 O 0.83057 0.27595 0.28525 0.0
O1138 O 0.81424 0.29199 0.32727 0.0
O1139 O 0.84119 0.33081 0.31648 0.0
O1140 O 0.85161 0.27116 0.25287 0.0
O1141 O 0.87733 0.34461 0.30039 0.0
O1142 O 0.75303 0.28297 0.28918 0.0
O1143 O 0.8044 0.31718 0.27111 0.0
O1144 O 0.81988 0.30156 0.22966 0.0
O1145 O 0.79284 0.2621 0.23929 0.0
O1146 O 0.78364 0.32166 0.30351 0.0
O1147 O 0.75763 0.24572 0.25759 0.0
C1148 C 0.841 0.25766 0.27029 0.0
C1149 C 0.91739 0.35005 0.28539 0.0
C1150 C 0.96249 0.36402 0.29741 0.0
C1151 C 0.93867 0.34816 0.30065 0.0
C1152 C 0.96466 0.38213 0.27884 0.0
C1153 C 0.91984 0.36821 0.26702 0.0
C1154 C 0.94342 0.38423 0.26384 0.0
C1155 C 0.83161 0.31694 0.33482 0.0
C1156 C 0.89311 0.3316 0.28801 0.0
C1157 C 0.86532 0.39835 0.20536 0.0
C1158 C 0.86031 0.41727 0.22909 0.0
C1159 C 0.79434 0.33574 0.28649 0.0
C1160 C 0.71824 0.24236 0.27408 0.0
C1161 C 0.69844 0.23578 0.2531 0.0
C1162 C 0.6738 0.22771 0.25893 0.0
C1163 C 0.66954 0.2229 0.2855 0.0
C1164 C 0.71381 0.23706 0.30019 0.0
C1165 C 0.6895 0.22681 0.30565 0.0
C1166 C 0.80243 0.27666 0.22147 0.0
C1167 C 0.74215 0.25961 0.26937 0.0
H1168 H 0.93671 0.33356 0.31437 0.0
H1169 H 0.98277 0.39466 0.27596 0.0
H1170 H 0.90367 0.36981 0.25501 0.0
H1171 H 0.94526 0.39814 0.24953 0.0
H1172 H 0.70244 0.23925 0.23283 0.0
H1173 H 0.65097 0.21757 0.29147 0.0
H1174 H 0.72886 0.24179 0.31663 0.0
H1175 H 0.68606 0.22348 0.32609 0.0
Eu1176 Eu 0.0652 0.52852 0.55385 0.0
C1177 C 0.00511 0.57233 0.4698 0.0
C1178 C 0.97936 0.52718 0.43899 0.0
C1179 C 0.9633 0.5701 0.45042 0.0
C1180 C 1.00174 0.54322 0.45644 0.0
C1181 C 0.98628 0.58644 0.46608 0.0
C1182 C 0.95985 0.54047 0.43689 0.0
C1183 C 0.0154 0.6324 0.49024 0.0
N1184 N 0.0276 0.58744 0.48451 0.0
C1185 C 0.03348 0.6174 0.49321 0.0
C1186 C 0.99151 0.61676 0.47713 0.0
Eu1187 Eu 0.05652 0.56007 0.4917 0.0
N1188 N 0.02103 0.53118 0.45891 0.0
C1189 C 0.01989 0.50407 0.44216 0.0
C1190 C 0.97759 0.49863 0.42341 0.0
C1191 C 0.99819 0.48727 0.42456 0.0
H1192 H 0.05194 0.62951 0.50352 0.0
H1193 H 0.99745 0.46562 0.41182 0.0
H1194 H 0.94237 0.52833 0.42405 0.0
H1195 H 0.01991 0.65599 0.49804 0.0
H1196 H 0.03563 0.49524 0.44174 0.0
H1197 H 0.12122 0.62714 0.63198 0.0
H1198 H 0.96077 0.4856 0.40978 0.0
H1199 H 0.07317 0.46073 0.54077 0.0
H1200 H 0.08505 0.59749 0.59906 0.0
H1201 H 0.1059 0.43618 0.54939 0.0
H1202 H 0.94845 0.58043 0.44775 0.0
H1203 H 0.15742 0.60756 0.639 0.0
H1204 H 0.17698 0.56573 0.62795 0.0
H1205 H 0.97757 0.62843 0.47469 0.0
H1206 H 0.17302 0.51391 0.6052 0.0
N1207 N 0.09972 0.56017 0.5865 0.0
C1208 C 0.10025 0.58793 0.60145 0.0
C1209 C 0.14133 0.59405 0.62439 0.0
C1210 C 0.14055 0.56546 0.60978 0.0
C1211 C 0.12093 0.60514 0.62052 0.0
C1212 C 0.11908 0.54867 0.59103 0.0
H1213 H 0.14643 0.46537 0.57647 0.0
N1214 N 0.09542 0.50338 0.56183 0.0
C1215 C 0.10934 0.45966 0.5574 0.0
C1216 C 0.11691 0.5195 0.57819 0.0
C1217 C 0.09087 0.47357 0.55262 0.0
C1218 C 0.1322 0.47622 0.57263 0.0
C1219 C 0.13606 0.5064 0.58374 0.0
O1220 O 0.04305 0.49217 0.56762 0.0
O1221 O 0.04071 0.53287 0.51938 0.0
O1222 O 0.04078 0.5851 0.52681 0.0
O1223 O 0.05186 0.57019 0.56673 0.0
O1224 O 0.03181 0.49268 0.5276 0.0
O1225 O 0.04969 0.53685 0.59354 0.0
O1226 O 0.0829 0.59378 0.47876 0.0
O1227 O 0.08097 0.55561 0.52609 0.0
O1228 O 0.08529 0.50795 0.51963 0.0
O1229 O 0.06583 0.51582 0.4799 0.0
O1230 O 0.08931 0.59565 0.51828 0.0
O1231 O 0.07149 0.54973 0.45165 0.0
C1232 C 0.02504 0.50852 0.51259 0.0
C1233 C 0.04092 0.49839 0.61622 0.0
C1234 C 0.02147 0.48939 0.65711 0.0
C1235 C 0.02168 0.4996 0.6329 0.0
C1236 C 0.0409 0.47794 0.66472 0.0
C1237 C 0.06023 0.48662 0.62366 0.0
C1238 C 0.06013 0.47637 0.64786 0.0
C1239 C 0.04283 0.58735 0.55395 0.0
C1240 C 0.03962 0.50903 0.59098 0.0
C1241 C 0.158 0.52351 0.60102 0.0
C1242 C 0.16024 0.55299 0.61401 0.0
C1243 C 0.0971 0.5797 0.53249 0.0
C1244 C 0.08316 0.58899 0.43045 0.0
C1245 C 0.09657 0.58043 0.40836 0.0
C1246 C 0.09672 0.59263 0.38536 0.0
C1247 C 0.08349 0.61375 0.38479 0.0
C1248 C 0.06993 0.61003 0.42959 0.0
C1249 C 0.07021 0.62241 0.40687 0.0
C1250 C 0.07954 0.50236 0.49226 0.0
C1251 C 0.08426 0.57672 0.45468 0.0
H1252 H 0.00686 0.50889 0.62717 0.0
H1253 H 0.0411 0.47011 0.68346 0.0
H1254 H 0.07523 0.48536 0.61089 0.0
H1255 H 0.075 0.46728 0.6536 0.0
H1256 H 0.10665 0.56404 0.40896 0.0
H1257 H 0.08352 0.62364 0.36735 0.0
H1258 H 0.0596 0.61711 0.44652 0.0
H1259 H 0.06015 0.63878 0.40638 0.0
Eu1260 Eu 0.79144 0.80091 0.27392 0.0
C1261 C 0.87858 0.77509 0.33273 0.0
C1262 C 0.89498 0.82038 0.36897 0.0
C1263 C 0.89821 0.77441 0.37783 0.0
C1264 C 0.88294 0.80539 0.3416 0.0
C1265 C 0.88696 0.75954 0.35054 0.0
C1266 C 0.90212 0.80471 0.38705 0.0
C1267 C 0.87477 0.71586 0.3124 0.0
N1268 N 0.8672 0.76086 0.30644 0.0
C1269 C 0.86663 0.73199 0.29562 0.0
C1270 C 0.88448 0.72954 0.34019 0.0
Eu1271 Eu 0.85374 0.7897 0.27911 0.0
N1272 N 0.87566 0.82022 0.32374 0.0
C1273 C 0.88111 0.85031 0.33221 0.0
C1274 C 0.89967 0.85079 0.37757 0.0
C1275 C 0.89291 0.86578 0.35902 0.0
H1276 H 0.85914 0.72093 0.2741 0.0
H1277 H 0.89662 0.88942 0.36543 0.0
H1278 H 0.91111 0.81593 0.40812 0.0
H1279 H 0.87348 0.69285 0.30387 0.0
H1280 H 0.87611 0.86338 0.31937 0.0
H1281 H 0.74937 0.71203 0.18053 0.0
H1282 H 0.90871 0.86294 0.3984 0.0
H1283 H 0.78722 0.87135 0.28862 0.0
H1284 H 0.77001 0.73363 0.22839 0.0
H1285 H 0.77367 0.90469 0.26418 0.0
H1286 H 0.90442 0.76272 0.39182 0.0
H1287 H 0.73967 0.74373 0.15148 0.0
H1288 H 0.73875 0.79376 0.14775 0.0
H1289 H 0.89076 0.71697 0.3532 0.0
H1290 H 0.74539 0.84607 0.17043 0.0
N1291 N 0.77257 0.77781 0.22723 0.0
C1292 C 0.76584 0.74806 0.21647 0.0
C1293 C 0.74876 0.75352 0.17272 0.0
C1294 C 0.75444 0.78381 0.18425 0.0
C1295 C 0.7541 0.73555 0.18907 0.0
C1296 C 0.76632 0.79554 0.21205 0.0
H1297 H 0.75793 0.88736 0.21375 0.0
N1298 N 0.78012 0.8356 0.25223 0.0
C1299 C 0.77273 0.88246 0.25281 0.0
C1300 C 0.77023 0.82519 0.22485 0.0
C1301 C 0.7802 0.86341 0.26661 0.0
C1302 C 0.76397 0.87263 0.22434 0.0
C1303 C 0.76214 0.84358 0.21013 0.0
O1304 O 0.7708 0.79889 0.31019 0.0
O1305 O 0.82247 0.79826 0.30311 0.0
O1306 O 0.82551 0.74668 0.28208 0.0
O1307 O 0.78554 0.75278 0.27566 0.0
O1308 O 0.80824 0.83485 0.31433 0.0
O1309 O 0.75057 0.79024 0.26985 0.0
O1310 O 0.86664 0.75881 0.24757 0.0
O1311 O 0.81805 0.77979 0.25012 0.0
O1312 O 0.81947 0.84452 0.27139 0.0
O1313 O 0.85929 0.83703 0.27612 0.0
O1314 O 0.85065 0.80133 0.23776 0.0
O1315 O 0.89352 0.79905 0.27249 0.0
C1316 C 0.82334 0.82099 0.32245 0.0
C1317 C 0.73179 0.80981 0.30876 0.0
C1318 C 0.69261 0.81102 0.32813 0.0
C1319 C 0.70891 0.79509 0.31563 0.0
C1320 C 0.69911 0.84167 0.33267 0.0
C1321 C 0.73815 0.84043 0.31432 0.0
C1322 C 0.72173 0.85621 0.32578 0.0
C1323 C 0.80075 0.73658 0.27995 0.0
C1324 C 0.74899 0.79308 0.2963 0.0
C1325 C 0.75149 0.83219 0.18207 0.0
C1326 C 0.74769 0.8024 0.16915 0.0
C1327 C 0.82728 0.78934 0.23023 0.0
C1328 C 0.90967 0.76515 0.23739 0.0
C1329 C 0.93179 0.78511 0.23396 0.0
C1330 C 0.94965 0.7747 0.2181 0.0
C1331 C 0.94538 0.74446 0.20642 0.0
C1332 C 0.90614 0.73505 0.2254 0.0
C1333 C 0.9239 0.72485 0.21018 0.0
C1334 C 0.84428 0.85399 0.27327 0.0
C1335 C 0.88971 0.7748 0.25267 0.0
H1336 H 0.70413 0.77145 0.31193 0.0
H1337 H 0.6867 0.85441 0.34168 0.0
H1338 H 0.75592 0.85215 0.31017 0.0
H1339 H 0.72668 0.87984 0.32966 0.0
H1340 H 0.93481 0.80842 0.24292 0.0
H1341 H 0.95882 0.73598 0.19433 0.0
H1342 H 0.88956 0.71926 0.22782 0.0
H1343 H 0.92092 0.70159 0.20111 0.0
Eu1344 Eu 0.82962 0.28518 0.74495 0.0
C1345 C 0.80564 0.38091 0.8393 0.0
C1346 C 0.847 0.40684 0.86283 0.0
C1347 C 0.8131 0.43004 0.87003 0.0
C1348 C 0.83022 0.3813 0.84552 0.0
C1349 C 0.79686 0.40544 0.85129 0.0
C1350 C 0.83817 0.43081 0.87567 0.0
C1351 C 0.75675 0.38006 0.82479 0.0
N1352 N 0.79062 0.35713 0.82047 0.0
C1353 C 0.76626 0.35635 0.81345 0.0
C1354 C 0.77208 0.40468 0.84391 0.0
Eu1355 Eu 0.80568 0.31447 0.80963 0.0
N1356 N 0.83813 0.35772 0.83273 0.0
C1357 C 0.8632 0.36007 0.83377 0.0
C1358 C 0.87233 0.40807 0.86582 0.0
C1359 C 0.88052 0.38488 0.85059 0.0
H1360 H 0.75354 0.337 0.80006 0.0
H1361 H 0.90023 0.38623 0.8515 0.0
H1362 H 0.85071 0.45035 0.8894 0.0
H1363 H 0.73742 0.37904 0.81921 0.0
H1364 H 0.87039 0.34356 0.82104 0.0
H1365 H 0.74054 0.20719 0.69197 0.0
H1366 H 0.88581 0.42734 0.87875 0.0
H1367 H 0.88522 0.27056 0.75777 0.0
H1368 H 0.76608 0.25252 0.7227 0.0
H1369 H 0.90452 0.23012 0.74469 0.0
H1370 H 0.80659 0.44889 0.87969 0.0
H1371 H 0.75888 0.16624 0.67351 0.0
H1372 H 0.79579 0.14583 0.67186 0.0
H1373 H 0.76461 0.42298 0.85281 0.0
H1374 H 0.83976 0.15152 0.68726 0.0
N1375 N 0.80028 0.23972 0.72093 0.0
C1376 C 0.77526 0.23602 0.71427 0.0
C1377 C 0.77059 0.18658 0.68693 0.0
C1378 C 0.79572 0.18962 0.69488 0.0
C1379 C 0.76023 0.20968 0.69714 0.0
C1380 C 0.81023 0.21656 0.71255 0.0
H1381 H 0.87992 0.18221 0.715 0.0
N1382 N 0.84842 0.24527 0.73941 0.0
C1383 C 0.88481 0.22656 0.73861 0.0
C1384 C 0.83488 0.21942 0.72202 0.0
C1385 C 0.87344 0.24932 0.74667 0.0
C1386 C 0.87091 0.19966 0.72173 0.0
C1387 C 0.84578 0.19589 0.71292 0.0
O1388 O 0.86681 0.30344 0.73506 0.0
O1389 O 0.83238 0.32481 0.77986 0.0
O1390 O 0.78053 0.31486 0.7711 0.0
O1391 O 0.795 0.29715 0.72851 0.0
O1392 O 0.83184 0.33061 0.73961 0.0
O1393 O 0.83685 0.27819 0.70142 0.0
O1394 O 0.7673 0.29778 0.81673 0.0
O1395 O 0.8021 0.27529 0.77377 0.0
O1396 O 0.85436 0.2844 0.78486 0.0
O1397 O 0.83828 0.30092 0.8267 0.0
O1398 O 0.80362 0.26877 0.814 0.0
O1399 O 0.79634 0.31786 0.85225 0.0
C1400 C 0.83242 0.34325 0.76569 0.0
C1401 C 0.87329 0.30687 0.68883 0.0
C1402 C 0.87859 0.34295 0.66183 0.0
C1403 C 0.8656 0.3294 0.68064 0.0
C1404 C 0.89899 0.33381 0.65119 0.0
C1405 C 0.8937 0.29788 0.67808 0.0
C1406 C 0.90646 0.31129 0.65926 0.0
C1407 C 0.77857 0.30811 0.74319 0.0
C1408 C 0.86051 0.29176 0.70819 0.0
C1409 C 0.83158 0.16958 0.69466 0.0
C1410 C 0.80659 0.1664 0.68577 0.0
C1411 C 0.80184 0.25659 0.78761 0.0
C1412 C 0.75917 0.28478 0.85917 0.0
C1413 C 0.77148 0.27615 0.88003 0.0
C1414 C 0.75767 0.25895 0.89573 0.0
C1415 C 0.73161 0.25014 0.89049 0.0
C1416 C 0.73302 0.27582 0.85413 0.0
C1417 C 0.71935 0.25853 0.86968 0.0
C1418 C 0.85479 0.28965 0.81275 0.0
C1419 C 0.7727 0.30498 0.84394 0.0
H1420 H 0.84985 0.33643 0.68889 0.0
H1421 H 0.9091 0.34413 0.6366 0.0
H1422 H 0.89971 0.28039 0.68421 0.0
H1423 H 0.92216 0.30424 0.65096 0.0
H1424 H 0.79164 0.28289 0.88427 0.0
H1425 H 0.72081 0.23676 0.90247 0.0
H1426 H 0.72314 0.28257 0.8384 0.0
H1427 H 0.69921 0.2518 0.86573 0.0
Eu1428 Eu 0.84544 0.84507 0.79452 0.0
C1429 C 0.74572 0.75221 0.74733 0.0
C1430 C 0.72408 0.74829 0.78788 0.0
C1431 C 0.70072 0.73143 0.74157 0.0
C1432 C 0.74643 0.7558 0.77597 0.0
C1433 C 0.72274 0.73994 0.72985 0.0
C1434 C 0.70138 0.73563 0.77052 0.0
C1435 C 0.74484 0.74338 0.68998 0.0
N1436 N 0.76737 0.76046 0.73651 0.0
C1437 C 0.76712 0.75493 0.70794 0.0
C1438 C 0.72252 0.73594 0.70097 0.0
Eu1439 Eu 0.8047 0.77064 0.76772 0.0
N1440 N 0.76869 0.768 0.7923 0.0
C1441 C 0.76915 0.77627 0.8208 0.0
C1442 C 0.72503 0.75449 0.81698 0.0
C1443 C 0.7476 0.76917 0.8335 0.0
H1444 H 0.78408 0.75773 0.69829 0.0
H1445 H 0.74839 0.77553 0.85608 0.0
H1446 H 0.68416 0.72951 0.77933 0.0
H1447 H 0.74503 0.73926 0.66754 0.0
H1448 H 0.78566 0.78955 0.83418 0.0
H1449 H 0.90805 0.84223 0.71173 0.0
H1450 H 0.70829 0.74922 0.82688 0.0
H1451 H 0.86109 0.86609 0.86451 0.0
H1452 H 0.8686 0.83139 0.72989 0.0
H1453 H 0.89834 0.88865 0.89861 0.0
H1454 H 0.68303 0.72177 0.72841 0.0
H1455 H 0.94695 0.86561 0.74384 0.0
H1456 H 0.96808 0.8863 0.79262 0.0
H1457 H 0.7053 0.72644 0.68692 0.0
H1458 H 0.96558 0.89803 0.84318 0.0
N1459 N 0.88345 0.84878 0.77319 0.0
C1460 C 0.88472 0.84203 0.74488 0.0
C1461 C 0.92937 0.8608 0.75228 0.0
C1462 C 0.92836 0.86724 0.78111 0.0
C1463 C 0.90747 0.8478 0.73414 0.0
C1464 C 0.90493 0.86043 0.79114 0.0
H1465 H 0.93995 0.89849 0.88267 0.0
N1466 N 0.881 0.85973 0.82893 0.0
C1467 C 0.90021 0.88203 0.87654 0.0
C1468 C 0.90365 0.8662 0.81972 0.0
C1469 C 0.87908 0.86868 0.85695 0.0
C1470 C 0.92361 0.88761 0.86747 0.0
C1471 C 0.92557 0.8801 0.83881 0.0
O1472 O 0.83533 0.87676 0.82835 0.0
O1473 O 0.80744 0.81566 0.79182 0.0
O1474 O 0.81031 0.7947 0.7332 0.0
O1475 O 0.83458 0.84317 0.749 0.0
O1476 O 0.80943 0.85464 0.7812 0.0
O1477 O 0.85735 0.89137 0.79617 0.0
O1478 O 0.81032 0.73932 0.73072 0.0
O1479 O 0.84241 0.79996 0.7697 0.0
O1480 O 0.84277 0.81978 0.82914 0.0
O1481 O 0.81729 0.77163 0.81208 0.0
O1482 O 0.84092 0.76115 0.78023 0.0
O1483 O 0.79052 0.72386 0.76307 0.0
C1484 C 0.79461 0.83105 0.78408 0.0
C1485 C 0.84811 0.92912 0.83229 0.0
C1486 C 0.84086 0.97429 0.82525 0.0
C1487 C 0.84688 0.94771 0.81504 0.0
C1488 C 0.83963 0.98398 0.85417 0.0
C1489 C 0.84659 0.93868 0.861 0.0
C1490 C 0.84308 0.96646 0.872 0.0
C1491 C 0.82093 0.82053 0.72905 0.0
C1492 C 0.84716 0.8986 0.81907 0.0
C1493 C 0.94869 0.88718 0.82881 0.0
C1494 C 0.95009 0.88062 0.80005 0.0
C1495 C 0.85566 0.78422 0.77597 0.0
C1496 C 0.80945 0.69167 0.73374 0.0
C1497 C 0.82322 0.68641 0.75551 0.0
C1498 C 0.8313 0.66088 0.75114 0.0
C1499 C 0.82623 0.64089 0.72462 0.0
C1500 C 0.80467 0.67195 0.70711 0.0
C1501 C 0.81317 0.64666 0.70256 0.0
C1502 C 0.83165 0.79336 0.83237 0.0
C1503 C 0.7987 0.71665 0.73885 0.0
H1504 H 0.84842 0.94019 0.79294 0.0
H1505 H 0.83477 1.00425 0.86281 0.0
H1506 H 0.84753 0.92448 0.87469 0.0
H1507 H 0.84169 0.97376 0.89413 0.0
H1508 H 0.82682 0.70156 0.77615 0.0
H1509 H 0.83241 0.62098 0.72104 0.0
H1510 H 0.79402 0.67588 0.69004 0.0
H1511 H 0.8093 0.63132 0.68207 0.0
Eu1512 Eu 0.54345 0.5318 0.50296 0.0
C1513 C 0.61374 0.64506 0.56447 0.0
C1514 C 0.62832 0.66739 0.52752 0.0
C1515 C 0.6288 0.69827 0.5738 0.0
C1516 C 0.61846 0.64198 0.53683 0.0
C1517 C 0.61935 0.67334 0.58327 0.0
C1518 C 0.63326 0.69531 0.54602 0.0
C1519 C 0.60938 0.65068 0.62083 0.0
N1520 N 0.60532 0.62066 0.57362 0.0
C1521 C 0.60465 0.62331 0.60176 0.0
C1522 C 0.61645 0.67586 0.6115 0.0
Eu1523 Eu 0.60103 0.57441 0.54129 0.0
N1524 N 0.61406 0.61454 0.51928 0.0
C1525 C 0.61824 0.61203 0.49176 0.0
C1526 C 0.63339 0.66427 0.49992 0.0
C1527 C 0.62825 0.63649 0.48199 0.0
H1528 H 0.60147 0.6044 0.61013 0.0
H1529 H 0.63143 0.63382 0.46027 0.0
H1530 H 0.64091 0.71481 0.53911 0.0
H1531 H 0.60835 0.65229 0.6429 0.0
H1532 H 0.6133 0.59183 0.47606 0.0
H1533 H 0.52438 0.45588 0.5699 0.0
H1534 H 0.641 0.68319 0.49214 0.0
H1535 H 0.53572 0.51733 0.43326 0.0
H1536 H 0.5404 0.50297 0.55936 0.0
H1537 H 0.51818 0.4753 0.39229 0.0
H1538 H 0.63326 0.71999 0.588 0.0
H1539 H 0.50675 0.4112 0.53153 0.0
H1540 H 0.49504 0.38821 0.4801 0.0
H1541 H 0.62071 0.69711 0.62646 0.0
H1542 H 0.49345 0.39342 0.43186 0.0
N1543 N 0.53304 0.48591 0.51497 0.0
C1544 C 0.533 0.48399 0.54212 0.0
C1545 C 0.51415 0.43195 0.52665 0.0
C1546 C 0.51368 0.43396 0.49894 0.0
C1547 C 0.52397 0.4571 0.54833 0.0
C1548 C 0.52362 0.46153 0.49371 0.0
H1549 H 0.50229 0.42563 0.39894 0.0
N1550 N 0.53202 0.49139 0.46262 0.0
C1551 C 0.51967 0.47183 0.41306 0.0
C1552 C 0.52304 0.46437 0.46666 0.0
C1553 C 0.5299 0.49551 0.43628 0.0
C1554 C 0.51071 0.44385 0.41689 0.0
C1555 C 0.51209 0.43985 0.44395 0.0
O1556 O 0.51452 0.54103 0.47754 0.0
O1557 O 0.56467 0.57861 0.52375 0.0
O1558 O 0.57189 0.57191 0.57387 0.0
O1559 O 0.53379 0.54619 0.54814 0.0
O1560 O 0.55306 0.56891 0.4816 0.0
O1561 O 0.50656 0.52948 0.51625 0.0
O1562 O 0.61811 0.5672 0.57894 0.0
O1563 O 0.57442 0.52989 0.53276 0.0
O1564 O 0.57271 0.52669 0.47087 0.0
O1565 O 0.61068 0.55512 0.49668 0.0
O1566 O 0.61046 0.53061 0.5263 0.0
O1567 O 0.64084 0.59222 0.55435 0.0
C1568 C 0.56231 0.59011 0.50354 0.0
C1569 C 0.47239 0.52265 0.48286 0.0
C1570 C 0.43002 0.5265 0.4817 0.0
C1571 C 0.45494 0.5374 0.49285 0.0
C1572 C 0.42224 0.50026 0.46053 0.0
C1573 C 0.46491 0.49639 0.46165 0.0
C1574 C 0.43975 0.48518 0.45057 0.0
C1575 C 0.54732 0.56091 0.57257 0.0
C1576 C 0.49814 0.53667 0.49466 0.0
C1577 C 0.50214 0.4124 0.449 0.0
C1578 C 0.503 0.40944 0.47645 0.0
C1579 C 0.589 0.51331 0.52677 0.0
C1580 C 0.6605 0.56749 0.58104 0.0
C1581 C 0.67401 0.55715 0.55959 0.0
C1582 C 0.69358 0.5452 0.56561 0.0
C1583 C 0.69956 0.54369 0.59311 0.0
C1584 C 0.66672 0.56594 0.6084 0.0
C1585 C 0.68619 0.55407 0.61438 0.0
C1586 C 0.59732 0.53817 0.47245 0.0
C1587 C 0.64047 0.581 0.57584 0.0
H1588 H 0.46087 0.55796 0.50899 0.0
H1589 H 0.40291 0.49188 0.45144 0.0
H1590 H 0.47836 0.48484 0.45357 0.0
H1591 H 0.43388 0.46507 0.43403 0.0
H1592 H 0.66944 0.55839 0.53839 0.0
H1593 H 0.71491 0.53498 0.5982 0.0
H1594 H 0.65661 0.57416 0.6252 0.0
H1595 H 0.69106 0.55315 0.63558 0.0
Eu1596 Eu 0.09389 0.55285 0.01277 0.0
C1597 C 1.00115 0.49911 0.06573 0.0
C1598 C 0.97771 0.45744 0.02851 0.0
C1599 C 0.97574 0.45586 0.0769 0.0
C1600 C 0.9941 0.48597 0.03727 0.0
C1601 C 0.9912 0.48448 0.08573 0.0
C1602 C 0.96915 0.44231 0.04837 0.0
C1603 C 0.01049 0.52841 0.12204 0.0
N1604 N 0.01659 0.52661 0.074 0.0
C1605 C 0.0202 0.54187 0.10164 0.0
C1606 C 0.99638 0.49936 0.11412 0.0
Eu1607 Eu 0.03233 0.54781 0.03783 0.0
N1608 N 1.00259 0.50108 0.01825 0.0
C1609 C 0.99329 0.48937 0.99043 0.0
C1610 C 0.96994 0.44494 1.0 0.0
C1611 C 0.97743 0.46118 0.98098 0.0
H1612 H 0.03143 0.56432 0.10812 0.0
H1613 H 0.97074 0.45212 0.95892 0.0
H1614 H 0.95683 0.42036 0.04188 0.0
H1615 H 0.01404 0.54042 0.14389 0.0
H1616 H 0.99735 0.50104 0.9747 0.0
H1617 H 0.15328 0.6553 0.08095 0.0
H1618 H 0.95753 0.42311 0.99254 0.0
H1619 H 0.09204 0.52724 0.94333 0.0
H1620 H 0.12567 0.60579 0.0698 0.0
H1621 H 0.10655 0.54529 0.90281 0.0
H1622 H 0.9683 0.44423 0.09199 0.0
H1623 H 0.16508 0.67921 0.04312 0.0
H1624 H 0.16384 0.67557 0.99175 0.0
H1625 H 0.98894 0.48891 0.12999 0.0
H1626 H 0.15117 0.64564 0.94323 0.0
N1627 N 0.12066 0.60116 0.0257 0.0
C1628 C 0.1303 0.61559 0.05283 0.0
C1629 C 0.15268 0.65732 0.03799 0.0
C1630 C 0.14395 0.6419 0.01016 0.0
C1631 C 0.14615 0.64388 0.05937 0.0
C1632 C 0.12787 0.61339 1.00457 0.0
H1633 H 0.13019 0.59697 0.90993 0.0
N1634 N 0.10647 0.5686 0.97272 0.0
C1635 C 0.11048 0.56001 0.92361 0.0
C1636 C 0.12065 0.59658 0.97726 0.0
C1637 C 0.10228 0.54988 0.94653 0.0
C1638 C 0.12375 0.58922 0.9277 0.0
C1639 C 0.12943 0.60776 0.95482 0.0
O1640 O 0.1086 0.51434 1.00293 0.0
O1641 O 0.0601 0.52264 0.02321 0.0
O1642 O 0.05801 0.54367 0.07281 0.0
O1643 O 0.09716 0.55984 0.05951 0.0
O1644 O 0.07277 0.50831 0.98526 0.0
O1645 O 0.13265 0.55508 0.02724 0.0
O1646 O 0.02225 0.5839 0.06581 0.0
O1647 O 0.07092 0.57777 0.03915 0.0
O1648 O 0.06859 0.56247 0.98026 0.0
O1649 O 0.03089 0.53814 0.99152 0.0
O1650 O 0.04105 0.59178 0.02707 0.0
O1651 O 0.9966 0.55709 0.0287 0.0
C1652 C 0.05703 0.50079 1.0021 0.0
C1653 C 0.15143 0.52084 0.99988 0.0
C1654 C 0.18936 0.50428 0.9992 0.0
C1655 C 0.17098 0.5141 0.01398 0.0
C1656 C 0.18836 0.5017 0.9703 0.0
C1657 C 0.15076 0.51834 0.97099 0.0
C1658 C 0.16922 0.50896 0.95634 0.0
C1659 C 0.0825 0.55161 0.0777 0.0
C1660 C 0.13089 0.52783 0.01518 0.0
C1661 C 0.14442 0.63661 0.96022 0.0
C1662 C 0.15164 0.65366 0.98784 0.0
C1663 C 0.06481 0.59909 0.03277 0.0
C1664 C 0.97957 0.58505 0.0656 0.0
C1665 C 0.96031 0.59248 0.05152 0.0
C1666 C 0.94077 0.59996 0.06574 0.0
C1667 C 0.94046 0.59984 0.094 0.0
C1668 C 0.97918 0.58572 0.0941 0.0
C1669 C 0.95962 0.59283 0.10809 0.0
C1670 C 0.04417 0.55152 0.97509 0.0
C1671 C 1.00082 0.57938 0.05083 0.0
H1672 H 0.17151 0.51567 0.03624 0.0
H1673 H 0.20244 0.49422 0.95863 0.0
H1674 H 0.13573 0.52295 0.95964 0.0
H1675 H 0.16851 0.50696 0.93404 0.0
H1676 H 0.96065 0.59275 0.0297 0.0
H1677 H 0.92551 0.60557 0.10524 0.0
H1678 H 0.99413 0.5814 0.10583 0.0
H1679 H 0.95947 0.59328 0.13004 0.0
H1680 H 0.0484 0.22036 1.00377 0.0
H1681 H 0.97942 0.17278 0.95127 0.0
H1682 H 0.98618 0.12657 0.95674 0.0
H1683 H 0.01305 0.09902 0.97289 0.0
H1684 H 0.07709 0.14507 0.03352 0.0
H1685 H 0.0713 0.19202 0.02831 0.0
C1686 C 0.03467 0.19991 0.99393 0.0
C1687 C 0.01339 0.20028 0.97683 0.0
C1688 C 0.0382 0.17296 0.99808 0.0
C1689 C 0.99582 0.1734 0.96453 0.0
C1690 C 0.99977 0.14682 0.96752 0.0
C1691 C 0.02585 0.11924 0.98519 0.0
C1692 C 0.04689 0.11798 1.00199 0.0
C1693 C 0.02113 0.14622 0.9837 0.0
C1694 C 0.06206 0.1448 0.01877 0.0
C1695 C 0.05836 0.17188 0.01612 0.0
H1696 H 0.21202 0.83774 0.15619 0.0
H1697 H 0.15566 0.80668 0.20584 0.0
H1698 H 0.18792 0.80063 0.23848 0.0
H1699 H 0.23281 0.80403 0.25282 0.0
H1700 H 0.28773 0.8334 0.20074 0.0
H1701 H 0.25557 0.8404 0.16958 0.0
C1702 C 0.2066 0.82953 0.17409 0.0
C1703 C 0.1812 0.82263 0.17833 0.0
C1704 C 0.22522 0.82596 0.19259 0.0
C1705 C 0.17488 0.81193 0.20172 0.0
C1706 C 0.19343 0.80864 0.22053 0.0
C1707 C 0.23774 0.81226 0.23482 0.0
C1708 C 0.26292 0.81835 0.22941 0.0
C1709 C 0.21877 0.81565 0.21626 0.0
C1710 C 0.26871 0.8285 0.2056 0.0
C1711 C 0.25024 0.83249 0.18764 0.0
H1712 H 0.51319 0.86344 0.44398 0.0
H1713 H 0.53575 0.86299 0.52845 0.0
H1714 H 0.54687 0.91703 0.54245 0.0
H1715 H 0.55181 0.96509 0.52969 0.0
H1716 H 0.52835 0.96351 0.44466 0.0
H1717 H 0.51522 0.9101 0.4322 0.0
C1718 C 0.52057 0.87517 0.46548 0.0
C1719 C 0.52398 0.85912 0.48501 0.0
C1720 C 0.52638 0.90612 0.47341 0.0
C1721 C 0.53307 0.87472 0.51293 0.0
C1722 C 0.53938 0.90568 0.52093 0.0
C1723 C 0.54331 0.953 0.50864 0.0
C1724 C 0.54084 0.96847 0.48815 0.0
C1725 C 0.53623 0.92176 0.50131 0.0
C1726 C 0.53034 0.9523 0.46083 0.0
C1727 C 0.52296 0.92167 0.45362 0.0
H1728 H 0.56164 0.31202 0.69735 0.0
H1729 H 0.52249 0.31731 0.62174 0.0
H1730 H 0.4833 0.309 0.64184 0.0
H1731 H 0.45939 0.29711 0.68013 0.0
H1732 H 0.49866 0.29216 0.75566 0.0
H1733 H 0.53838 0.30419 0.73685 0.0
C1734 C 0.54453 0.31121 0.6852 0.0
C1735 C 0.54508 0.31458 0.65773 0.0
C1736 C 0.52198 0.30693 0.69713 0.0
C1737 C 0.52272 0.31418 0.64264 0.0
C1738 C 0.50022 0.30964 0.65424 0.0
C1739 C 0.47675 0.29954 0.6927 0.0
C1740 C 0.47617 0.29414 0.71939 0.0
C1741 C 0.49954 0.30572 0.68139 0.0
C1742 C 0.49873 0.29664 0.73523 0.0
C1743 C 0.5214 0.30317 0.72434 0.0
H1744 H 0.04331 0.81409 0.61153 0.0
H1745 H 0.96754 0.80087 0.57555 0.0
H1746 H 0.98254 0.83059 0.54347 0.0
H1747 H 0.01713 0.8621 0.52721 0.0
H1748 H 0.09262 0.8748 0.56307 0.0
H1749 H 0.07771 0.84352 0.59404 0.0
C1750 C 0.02999 0.81751 0.5966 0.0
C1751 C 1.0043 0.80543 0.5961 0.0
C1752 C 0.0387 0.83468 0.57843 0.0
C1753 C 0.98741 0.80995 0.57643 0.0
C1754 C 0.99596 0.82702 0.55816 0.0
C1755 C 0.03022 0.8579 0.54184 0.0
C1756 C 0.05584 0.87067 0.54317 0.0
C1757 C 0.02152 0.8398 0.55927 0.0
C1758 C 0.07282 0.865 0.5618 0.0
C1759 C 0.0643 0.84722 0.57945 0.0
H1760 H 0.54225 0.82223 0.85994 0.0
H1761 H 0.59193 0.88898 0.83118 0.0
H1762 H 0.5565 0.90526 0.81527 0.0
H1763 H 0.51147 0.89659 0.80499 0.0
H1764 H 0.4625 0.82253 0.8253 0.0
H1765 H 0.49742 0.81386 0.85007 0.0
C1766 C 0.54525 0.84064 0.85057 0.0
C1767 C 0.56932 0.85445 0.84649 0.0
C1768 C 0.52488 0.84854 0.84001 0.0
C1769 C 0.5733 0.87803 0.83417 0.0
C1770 C 0.55313 0.88725 0.82512 0.0
C1771 C 0.50836 0.87841 0.81461 0.0
C1772 C 0.48421 0.86042 0.81308 0.0
C1773 C 0.52879 0.87195 0.82705 0.0
C1774 C 0.48063 0.83743 0.82651 0.0
C1775 C 0.50071 0.83205 0.84044 0.0
H1776 H 0.51118 0.18147 0.14713 0.0
H1777 H 0.46805 0.18264 0.0723 0.0
H1778 H 0.48663 0.14627 0.04425 0.0
H1779 H 0.518 0.11802 0.04099 0.0
H1780 H 0.56158 0.11834 0.1162 0.0
H1781 H 0.54011 0.15091 0.14428 0.0
C1782 C 0.50556 0.17346 0.1247 0.0
C1783 C 0.48853 0.18488 0.11169 0.0
C1784 C 0.51681 0.15349 0.10883 0.0
C1785 C 0.48107 0.17403 0.08275 0.0
C1786 C 0.49193 0.15359 0.06672 0.0
C1787 C 0.52308 0.12557 0.06345 0.0
C1788 C 0.54189 0.11651 0.07643 0.0
C1789 C 0.51044 0.14398 0.07948 0.0
C1790 C 0.54749 0.12543 0.10569 0.0
C1791 C 0.53512 0.14388 0.12176 0.0
H1792 H 0.18503 0.31971 0.30006 0.0
H1793 H 0.2154 0.36657 0.38509 0.0
H1794 H 0.25783 0.37214 0.37231 0.0
H1795 H 0.28581 0.3613 0.33747 0.0
H1796 H 0.25603 0.316 0.25206 0.0
H1797 H 0.21336 0.31139 0.26426 0.0
C1798 C 0.20107 0.33107 0.31561 0.0
C1799 C 0.19766 0.34244 0.34338 0.0
C1800 C 0.22514 0.33402 0.30809 0.0
C1801 C 0.21809 0.35735 0.36368 0.0
C1802 C 0.24215 0.3606 0.35637 0.0
C1803 C 0.26985 0.35068 0.32162 0.0
C1804 C 0.27343 0.33791 0.29431 0.0
C1805 C 0.24582 0.34871 0.32876 0.0
C1806 C 0.25316 0.32487 0.27345 0.0
C1807 C 0.22898 0.3225 0.28039 0.0
H1808 H 0.02372 0.11289 0.19798 0.0
H1809 H 0.95774 0.04082 0.1739 0.0
H1810 H 0.9689 0.02938 0.12575 0.0
H1811 H 0.99868 0.0392 0.08956 0.0
H1812 H 0.06326 0.11323 0.11586 0.0
H1813 H 0.05151 0.12381 0.16281 0.0
C1814 C 0.01149 0.09459 0.18241 0.0
C1815 C 0.98964 0.07788 0.1906 0.0
C1816 C 0.01803 0.08817 0.15443 0.0
C1817 C 0.97455 0.0544 0.16913 0.0
C1818 C 0.98107 0.04777 0.14125 0.0
C1819 C 0.01016 0.05785 0.1054 0.0
C1820 C 0.0325 0.075 0.09813 0.0
C1821 C 1.00292 0.06441 0.13342 0.0
C1822 C 0.04654 0.09895 0.11985 0.0
C1823 C 0.03964 0.10526 0.14716 0.0
H1824 H 0.25305 0.6664 0.4651 0.0
H1825 H 0.33122 0.70878 0.46812 0.0
H1826 H 0.32086 0.74023 0.44047 0.0
H1827 H 0.29015 0.75689 0.4168 0.0
H1828 H 0.21189 0.71464 0.41148 0.0
H1829 H 0.22177 0.68244 0.43942 0.0
C1830 C 0.26779 0.68244 0.45961 0.0
C1831 C 0.29285 0.6853 0.46889 0.0
C1832 C 0.26174 0.70069 0.44361 0.0
C1833 C 0.31174 0.70619 0.46154 0.0
C1834 C 0.30588 0.72425 0.44569 0.0
C1835 C 0.2752 0.74032 0.42129 0.0
C1836 C 0.25036 0.73792 0.41181 0.0
C1837 C 0.28101 0.72181 0.43682 0.0
C1838 C 0.23119 0.71698 0.41866 0.0
C1839 C 0.23684 0.69848 0.43446 0.0
H1840 H 0.66254 0.01358 0.64187 0.0
H1841 H 0.66435 0.10199 0.68656 0.0
H1842 H 0.62847 0.10082 0.65517 0.0
H1843 H 0.59701 0.07464 0.61499 0.0
H1844 H 0.59583 0.98699 0.56994 0.0
H1845 H 0.63061 0.98714 0.60268 0.0
C1846 C 0.65533 0.03275 0.64453 0.0
C1847 C 0.66595 0.05779 0.66636 0.0
C1848 C 0.63436 0.03157 0.62719 0.0
C1849 C 0.65643 0.08248 0.66969 0.0
C1850 C 0.63578 0.08171 0.65209 0.0
C1851 C 0.60388 0.05528 0.61327 0.0
C1852 C 0.5939 0.03052 0.59118 0.0
C1853 C 0.62441 0.0562 0.63113 0.0
C1854 C 0.60305 1.00574 0.58778 0.0
C1855 C 0.62316 1.00614 0.60597 0.0
H1856 H 0.34208 0.31142 0.94671 0.0
H1857 H 0.31906 0.39192 0.96355 0.0
H1858 H 0.31399 0.38892 0.91392 0.0
H1859 H 0.31797 0.36547 0.86589 0.0
H1860 H 0.33305 0.2807 0.84636 0.0
H1861 H 0.34017 0.28375 0.89658 0.0
C1862 C 0.33564 0.32806 0.93947 0.0
C1863 C 0.33119 0.35201 0.9592 0.0
C1864 C 0.33204 0.32591 0.91036 0.0
C1865 C 0.32261 0.37318 0.94919 0.0
C1866 C 0.31988 0.37167 0.92067 0.0
C1867 C 0.32287 0.3476 0.87251 0.0
C1868 C 0.3264 0.32364 0.85232 0.0
C1869 C 0.32495 0.34849 0.90115 0.0
C1870 C 0.33169 0.30021 0.86144 0.0
C1871 C 0.3353 0.30173 0.89019 0.0
H1872 H 0.96524 0.07701 0.38762 0.0
H1873 H 0.02202 0.06417 0.33397 0.0
H1874 H 0.04748 0.0574 0.37212 0.0
H1875 H 0.05585 0.05643 0.42202 0.0
H1876 H 0.99904 0.06552 0.476 0.0
H1877 H 0.97254 0.0721 0.43771 0.0
C1878 C 0.98316 0.07278 0.38408 0.0
C1879 C 0.99115 0.07159 0.35679 0.0
C1880 C 0.99827 0.068 0.4068 0.0
C1881 C 0.01466 0.06552 0.35386 0.0
C1882 C 0.0296 0.06156 0.37606 0.0
C1883 C 0.0375 0.05936 0.42548 0.0
C1884 C 0.02983 0.05994 0.45262 0.0
C1885 C 0.02188 0.06283 0.40279 0.0
C1886 C 0.00582 0.06429 0.45581 0.0
C1887 C 0.99052 0.06834 0.43363 0.0
H1888 H 0.34071 0.69908 0.61508 0.0
H1889 H 0.26307 0.68047 0.58421 0.0
H1890 H 0.25581 0.71144 0.62839 0.0
H1891 H 0.27266 0.74505 0.67614 0.0
H1892 H 0.34995 0.75839 0.70551 0.0
H1893 H 0.35632 0.72863 0.66177 0.0
C1894 C 0.32221 0.70193 0.61791 0.0
C1895 C 0.30263 0.68811 0.59644 0.0
C1896 C 0.31821 0.71918 0.64309 0.0
C1897 C 0.27853 0.6912 0.60059 0.0
C1898 C 0.27439 0.70891 0.62576 0.0
C1899 C 0.29085 0.7416 0.67258 0.0
C1900 C 0.3113 0.75553 0.69336 0.0
C1901 C 0.29424 0.72329 0.64717 0.0
C1902 C 0.33447 0.74987 0.68921 0.0
C1903 C 0.33804 0.73225 0.6643 0.0
H1904 H 0.63687 0.05472 0.77354 0.0
H1905 H 0.69333 0.03595 0.82456 0.0
H1906 H 0.67664 0.05709 0.86685 0.0
H1907 H 0.64651 0.08193 0.889 0.0
H1908 H 0.58896 0.098 0.83707 0.0
H1909 H 0.60608 0.0773 0.79523 0.0
C1910 C 0.64557 0.05516 0.79388 0.0
C1911 C 0.66649 0.04414 0.79595 0.0
C1912 C 0.63582 0.06706 0.81787 0.0
C1913 C 0.67739 0.04464 0.82243 0.0
C1914 C 0.66782 0.05668 0.8466 0.0
C1915 C 0.63749 0.08056 0.86853 0.0
C1916 C 0.6165 0.09161 0.86619 0.0
C1917 C 0.64711 0.06809 0.84451 0.0
C1918 C 0.60536 0.09015 0.83951 0.0
C1919 C 0.615 0.07809 0.81557 0.0
H1920 H 0.33065 0.38564 0.13008 0.0
H1921 H 0.3145 0.29435 0.08628 0.0
H1922 H 0.30869 0.28068 0.13069 0.0
H1923 H 0.31289 0.29525 0.18231 0.0
H1924 H 0.33137 0.38683 0.22617 0.0
H1925 H 0.3327 0.4 0.18148 0.0
C1926 C 0.32529 0.36271 0.13022 0.0
C1927 C 0.32254 0.34095 0.10492 0.0
C1928 C 0.3231 0.35521 0.15592 0.0
C1929 C 0.31642 0.3114 0.10544 0.0
C1930 C 0.3133 0.30367 0.13085 0.0
C1931 C 0.31622 0.31802 0.18218 0.0
C1932 C 0.3213 0.33994 0.20777 0.0
C1933 C 0.31715 0.32543 0.15631 0.0
C1934 C 0.32711 0.36947 0.20694 0.0
C1935 C 0.32785 0.37702 0.18134 0.0
H1936 H 0.27869 0.02044 0.98275 0.0
H1937 H 0.28755 0.98163 0.05141 0.0
H1938 H 0.25614 1.00262 0.07407 0.0
H1939 H 0.22918 0.03607 0.07661 0.0
H1940 H 0.21872 0.07317 0.00733 0.0
H1941 H 0.24773 0.04876 0.98253 0.0
C1942 C 0.27336 0.01619 1.0024 0.0
C1943 C 0.2856 1.00001 0.01556 0.0
C1944 C 0.25541 0.02845 0.01544 0.0
C1945 C 0.27837 0.99413 0.04083 0.0
C1946 C 0.2606 1.00635 0.05399 0.0
C1947 C 0.23352 0.03889 0.05619 0.0
C1948 C 0.2228 0.057 0.04403 0.0
C1949 C 0.24965 0.02435 0.04193 0.0
C1950 C 0.22751 0.0598 0.01716 0.0
C1951 C 0.24387 0.04576 1.00299 0.0
H1952 H 0.71005 0.66442 1.00159 0.0
H1953 H 0.73368 0.58449 0.98156 0.0
H1954 H 0.69132 0.55579 0.98119 0.0
H1955 H 0.6478 0.5532 0.98894 0.0
H1956 H 0.62401 0.63282 0.00982 0.0
H1957 H 0.6658 0.66152 0.00705 0.0
C1958 C 0.7059 0.64073 0.997 0.0
C1959 C 0.72518 0.62678 0.9917 0.0
C1960 C 0.68133 0.62413 0.99685 0.0
C1961 C 0.71934 0.59597 0.98571 0.0
C1962 C 0.69504 0.57942 0.98548 0.0
C1963 C 0.65161 0.57671 0.99232 0.0
C1964 C 0.63274 0.59073 0.99955 0.0
C1965 C 0.67589 0.59323 0.99124 0.0
C1966 C 0.63822 0.62141 1.00436 0.0
C1967 C 0.66216 0.63791 1.00285 0.0
H1968 H 0.7253 0.41539 0.24561 0.0
H1969 H 0.76294 0.47494 0.32415 0.0
H1970 H 0.78614 0.44091 0.33088 0.0
H1971 H 0.79547 0.3924 0.31791 0.0
H1972 H 0.76362 0.33328 0.23796 0.0
H1973 H 0.73948 0.36745 0.22931 0.0
C1974 C 0.73873 0.4214 0.26411 0.0
C1975 C 0.74105 0.44912 0.28444 0.0
C1976 C 0.75359 0.40101 0.26811 0.0
C1977 C 0.7593 0.4547 0.30786 0.0
C1978 C 0.77311 0.4348 0.312 0.0
C1979 C 0.78397 0.38708 0.29801 0.0
C1980 C 0.78271 0.35972 0.27841 0.0
C1981 C 0.77038 0.40764 0.2927 0.0
C1982 C 0.76632 0.35396 0.25345 0.0
C1983 C 0.75207 0.37378 0.24855 0.0
H1984 H 0.91001 0.48112 0.47675 0.0
H1985 H 0.92218 0.56568 0.53448 0.0
H1986 H 0.96725 0.57231 0.53683 0.0
H1987 H 1.00115 0.5493 0.53067 0.0
H1988 H 0.9896 0.4617 0.47884 0.0
H1989 H 0.94531 0.45916 0.46771 0.0
C1990 C 0.92271 0.50119 0.48908 0.0
C1991 C 0.91313 0.52287 0.50528 0.0
C1992 C 0.94821 0.50327 0.4926 0.0
C1993 C 0.92936 0.54905 0.52137 0.0
C1994 C 0.95499 0.55242 0.52328 0.0
C1995 C 0.98933 0.53013 0.51609 0.0
C1996 C 0.99872 0.50618 0.50471 0.0
C1997 C 0.96436 0.52897 0.51024 0.0
C1998 C 0.98267 0.48051 0.48746 0.0
C1999 C 0.95754 0.47921 0.48101 0.0
H2000 H 0.36758 0.135 0.3487 0.0
H2001 H 0.37827 0.06153 0.28695 0.0
H2002 H 0.35646 0.07495 0.25014 0.0
H2003 H 0.34159 0.1121 0.23531 0.0
H2004 H 0.32286 0.18061 0.29716 0.0
H2005 H 0.34189 0.16532 0.33417 0.0
C2006 C 0.36386 0.1212 0.32742 0.0
C2007 C 0.37426 0.09748 0.32021 0.0
C2008 C 0.35111 0.1289 0.30633 0.0
C2009 C 0.36992 0.07973 0.29268 0.0
C2010 C 0.35791 0.08768 0.27162 0.0
C2011 C 0.34046 0.12328 0.25664 0.0
C2012 C 0.33132 0.14829 0.26269 0.0
C2013 C 0.34944 0.11298 0.27811 0.0
C2014 C 0.33097 0.16235 0.29111 0.0
C2015 C 0.34136 0.15323 0.31264 0.0
H2016 H 0.3811 0.1776 0.50771 0.0
H2017 H 0.32606 0.13424 0.55236 0.0
H2018 H 0.35588 0.11097 0.5692 0.0
H2019 H 0.39679 0.10153 0.57022 0.0
H2020 H 0.45281 0.14491 0.52669 0.0
H2021 H 0.42316 0.16871 0.50967 0.0
C2022 C 0.37576 0.16324 0.52131 0.0
C2023 C 0.35136 0.15764 0.52875 0.0
C2024 C 0.39301 0.14953 0.53073 0.0
C2025 C 0.34464 0.13881 0.5462 0.0
C2026 C 0.36168 0.12544 0.55582 0.0
C2027 C 0.40275 0.11651 0.55735 0.0
C2028 C 0.42714 0.1215 0.55001 0.0
C2029 C 0.3858 0.13044 0.54806 0.0
C2030 C 0.43413 0.14036 0.53254 0.0
C2031 C 0.41723 0.15421 0.52299 0.0
H2032 H 0.76898 0.61302 0.31277 0.0
H2033 H 0.70343 0.60139 0.2561 0.0
H2034 H 0.72073 0.64962 0.24807 0.0
H2035 H 0.75454 0.69648 0.25736 0.0
H2036 H 0.82085 0.70683 0.31221 0.0
H2037 H 0.80356 0.65871 0.32023 0.0
C2038 C 0.75842 0.62084 0.29852 0.0
C2039 C 0.73458 0.60279 0.28518 0.0
C2040 C 0.76883 0.64889 0.29347 0.0
C2041 C 0.72168 0.61403 0.26673 0.0
C2042 C 0.73163 0.64196 0.26214 0.0
C2043 C 0.76536 0.68825 0.27098 0.0
C2044 C 0.7895 0.70588 0.28378 0.0
C2045 C 0.7552 0.65981 0.2754 0.0
C2046 C 0.80274 0.69413 0.30137 0.0
C2047 C 0.79263 0.66641 0.30624 0.0
H2048 H 0.85911 0.48037 0.81377 0.0
H2049 H 0.93099 0.47086 0.79212 0.0
H2050 H 0.91418 0.41767 0.77558 0.0
H2051 H 0.87941 0.37387 0.76904 0.0
H2052 H 0.80593 0.38343 0.78171 0.0
H2053 H 0.82271 0.43661 0.80065 0.0
C2054 C 0.87087 0.46653 0.8051 0.0
C2055 C 0.89616 0.47909 0.80416 0.0
C2056 C 0.86088 0.43612 0.79478 0.0
C2057 C 0.91141 0.46134 0.79281 0.0
C2058 C 0.90187 0.43105 0.78355 0.0
C2059 C 0.86722 0.38774 0.77617 0.0
C2060 C 0.84189 0.37502 0.77631 0.0
C2061 C 0.87675 0.41821 0.78481 0.0
C2062 C 0.8258 0.39291 0.78368 0.0
C2063 C 0.83534 0.42325 0.79391 0.0
H2064 H 0.0682 0.881 0.03289 0.0
H2065 H 0.11175 0.92247 0.11365 0.0
H2066 H 0.11159 0.97051 0.10716 0.0
H2067 H 0.09624 1.00081 0.08093 0.0
H2068 H 0.06034 0.96229 0.99644 0.0
H2069 H 0.05968 0.9132 1.00217 0.0
C2070 C 0.0779 0.90056 0.04893 0.0
C2071 C 0.08964 0.89776 0.07408 0.0
C2072 C 0.07843 0.92866 0.0447 0.0
C2073 C 0.10248 0.92359 0.09423 0.0
C2074 C 0.10226 0.95123 0.09061 0.0
C2075 C 0.08824 0.9818 0.06355 0.0
C2076 C 0.07652 0.98534 0.03889 0.0
C2077 C 0.08979 0.95402 0.0663 0.0
C2078 C 0.06773 0.96028 0.01633 0.0
C2079 C 0.06782 0.93217 0.01951 0.0
H2080 H 0.92834 0.26254 0.90139 0.0
H2081 H 0.98101 0.29054 0.84643 0.0
H2082 H 0.9481 0.29701 0.81631 0.0
H2083 H 0.90417 0.29576 0.80496 0.0
H2084 H 0.85114 0.27034 0.8602 0.0
H2085 H 0.88382 0.26209 0.89019 0.0
C2086 C 0.93262 0.27011 0.88289 0.0
C2087 C 0.95746 0.27593 0.87654 0.0
C2088 C 0.91331 0.27428 0.86531 0.0
C2089 C 0.96233 0.28584 0.85229 0.0
C2090 C 0.94339 0.28955 0.83476 0.0
C2091 C 0.89965 0.28797 0.82328 0.0
C2092 C 0.875 0.28334 0.82992 0.0
C2093 C 0.91876 0.28384 0.84093 0.0
C2094 C 0.86986 0.27407 0.85439 0.0
C2095 C 0.88863 0.26933 0.87165 0.0
H2096 H 0.60789 0.23375 0.60083 0.0
H2097 H 0.56198 0.2292 0.52589 0.0
H2098 H 0.55723 0.1764 0.5102 0.0
H2099 H 0.56258 0.1301 0.51976 0.0
H2100 H 0.60369 0.13425 0.59765 0.0
H2101 H 0.61432 0.18783 0.60965 0.0
C2102 C 0.59731 0.22137 0.58076 0.0
C2103 C 0.58554 0.2359 0.56454 0.0
C2104 C 0.59379 0.1905 0.57227 0.0
C2105 C 0.57141 0.21897 0.53887 0.0
C2106 C 0.5686 0.18858 0.52986 0.0
C2107 C 0.57447 0.1428 0.53896 0.0
C2108 C 0.58308 0.128 0.55733 0.0
C2109 C 0.57925 0.17388 0.54661 0.0
C2110 C 0.5974 0.14494 0.58277 0.0
C2111 C 0.60329 0.17569 0.58978 0.0
H2112 H 0.58526 0.74291 0.34551 0.0
H2113 H 0.60446 0.80837 0.42475 0.0
H2114 H 0.64591 0.8268 0.4124 0.0
H2115 H 0.67572 0.82659 0.37804 0.0
H2116 H 0.65677 0.76226 0.29831 0.0
H2117 H 0.6163 0.74089 0.312 0.0
C2118 C 0.59857 0.76108 0.36015 0.0
C2119 C 0.59162 0.77449 0.38587 0.0
C2120 C 0.62237 0.77185 0.35278 0.0
C2121 C 0.60917 0.7979 0.40466 0.0
C2122 C 0.63291 0.80845 0.39764 0.0
C2123 C 0.66272 0.80786 0.36368 0.0
C2124 C 0.66906 0.79622 0.3371 0.0
C2125 C 0.63951 0.79599 0.37156 0.0
C2126 C 0.6523 0.77157 0.31891 0.0
C2127 C 0.62913 0.75947 0.32668 0.0
H2128 H 0.10989 0.31233 0.48396 0.0
H2129 H 0.12086 0.2436 0.41703 0.0
H2130 H 0.10798 0.20792 0.44452 0.0
H2131 H 0.08377 0.19527 0.48195 0.0
H2132 H 0.0692 0.26402 0.54643 0.0
H2133 H 0.09335 0.30096 0.52569 0.0
C2134 C 0.11039 0.2897 0.47598 0.0
C2135 C 0.11581 0.28022 0.44859 0.0
C2136 C 0.1016 0.26933 0.49115 0.0
C2137 C 0.11671 0.25115 0.43819 0.0
C2138 C 0.10896 0.23076 0.45372 0.0
C2139 C 0.08656 0.21838 0.49191 0.0
C2140 C 0.07438 0.22707 0.5153 0.0
C2141 C 0.09979 0.23935 0.47936 0.0
C2142 C 0.07801 0.25698 0.52805 0.0
C2143 C 0.09185 0.27802 0.51627 0.0
H2144 H 0.59724 0.27147 0.19429 0.0
H2145 H 0.54717 0.2152 0.23367 0.0
H2146 H 0.58055 0.19426 0.2463 0.0
H2147 H 0.6248 0.1973 0.25196 0.0
H2148 H 0.67583 0.26215 0.22147 0.0
H2149 H 0.64139 0.27245 0.19778 0.0
C2150 C 0.59373 0.25434 0.20529 0.0
C2151 C 0.57028 0.24517 0.21364 0.0
C2152 C 0.61321 0.2436 0.21376 0.0
C2153 C 0.5655 0.22291 0.2277 0.0
C2154 C 0.58446 0.21087 0.23476 0.0
C2155 C 0.62853 0.21384 0.24034 0.0
C2156 C 0.65312 0.22921 0.23939 0.0
C2157 C 0.60862 0.22199 0.22896 0.0
C2158 C 0.65734 0.24946 0.22277 0.0
C2159 C 0.63753 0.25593 0.20944 0.0
H2160 H 0.65924 0.92357 0.96159 0.0
H2161 H 0.61318 0.90608 0.88342 0.0
H2162 H 0.596 0.94743 0.90234 0.0
H2163 H 0.59008 0.98415 0.94358 0.0
H2164 H 0.63455 0.99848 0.0225 0.0
H2165 H 0.65695 0.96367 1.00078 0.0
C2166 C 0.64624 0.9297 0.94844 0.0
C2167 C 0.63768 0.91229 0.92121 0.0
C2168 C 0.63593 0.95277 0.95978 0.0
C2169 C 0.62041 0.91976 0.9043 0.0
C2170 C 0.61032 0.94311 0.91527 0.0
C2171 C 0.60486 0.97985 0.95584 0.0
C2172 C 0.61035 0.99339 0.98465 0.0
C2173 C 0.61727 0.95907 0.94336 0.0
C2174 C 0.62966 0.98786 1.00036 0.0
C2175 C 0.64256 0.96803 0.98797 0.0
H2176 H 0.92536 0.75742 0.68563 0.0
H2177 H 0.97521 0.76309 0.75792 0.0
H2178 H 0.94305 0.77104 0.78825 0.0
H2179 H 0.9015 0.78048 0.79418 0.0
H2180 H 0.85286 0.77396 0.72085 0.0
H2181 H 0.88398 0.76295 0.6908 0.0
C2182 C 0.9291 0.75999 0.70794 0.0
C2183 C 0.9525 0.76004 0.7196 0.0
C2184 C 0.91097 0.76517 0.72508 0.0
C2185 C 0.95711 0.76293 0.74851 0.0
C2186 C 0.93889 0.76782 0.76589 0.0
C2187 C 0.89805 0.77682 0.77166 0.0
C2188 C 0.8756 0.7792 0.75951 0.0
C2189 C 0.91596 0.76983 0.75445 0.0
C2190 C 0.87057 0.77335 0.73037 0.0
C2191 C 0.88817 0.76671 0.71324 0.0
H2192 H 0.11729 0.03792 0.84036 0.0
H2193 H 0.18116 0.01481 0.87245 0.0
H2194 H 0.16488 0.01725 0.91766 0.0
H2195 H 0.13229 0.02653 0.94983 0.0
H2196 H 0.06736 0.04675 0.91657 0.0
H2197 H 0.0842 0.04554 0.87181 0.0
C2198 C 0.12792 0.03361 0.85719 0.0
C2199 C 0.15113 0.02659 0.8521 0.0
C2200 C 0.11807 0.03469 0.88376 0.0
C2201 C 0.16375 0.02077 0.87492 0.0
C2202 C 0.15425 0.02207 0.90116 0.0
C2203 C 0.12163 0.03053 0.93282 0.0
C2204 C 0.09801 0.03658 0.93743 0.0
C2205 C 0.1314 0.02909 0.90613 0.0
C2206 C 0.08511 0.04158 0.91435 0.0
C2207 C 0.09494 0.04101 0.88842 0.0
H2208 H 0.88145 0.4526 0.61816 0.0
H2209 H 0.82287 0.39078 0.55768 0.0
H2210 H 0.82047 0.35498 0.58577 0.0
H2211 H 0.84104 0.33871 0.62273 0.0
H2212 H 0.90153 0.40037 0.68083 0.0
H2213 H 0.89711 0.43921 0.65887 0.0
C2214 C 0.86764 0.43158 0.61165 0.0
C2215 C 0.85251 0.42401 0.586 0.0
C2216 C 0.86702 0.4111 0.62734 0.0
C2217 C 0.83458 0.39694 0.57754 0.0
C2218 C 0.83344 0.37644 0.59342 0.0
C2219 C 0.85259 0.36094 0.63099 0.0
C2220 C 0.87155 0.36703 0.65318 0.0
C2221 C 0.85041 0.38284 0.61765 0.0
C2222 C 0.8868 0.39556 0.66377 0.0
C2223 C 0.88436 0.41761 0.65114 0.0
H2224 H 0.45362 0.04825 0.39337 0.0
H2225 H 0.50523 0.03141 0.33411 0.0
H2226 H 0.53558 0.0313 0.37209 0.0
H2227 H 0.5493 0.04476 0.42322 0.0
H2228 H 0.4999 0.07433 0.48064 0.0
H2229 H 0.46715 0.06343 0.44227 0.0
C2230 C 0.47147 0.04459 0.38867 0.0
C2231 C 0.47786 0.04155 0.36161 0.0
C2232 C 0.48959 0.0486 0.41046 0.0
C2233 C 0.50029 0.03463 0.35525 0.0
C2234 C 0.51779 0.03525 0.37693 0.0
C2235 C 0.53173 0.04981 0.42702 0.0
C2236 C 0.52683 0.06057 0.45431 0.0
C2237 C 0.5132 0.04426 0.40476 0.0
C2238 C 0.50383 0.06629 0.45947 0.0
C2239 C 0.48504 0.05955 0.43775 0.0
H2240 H 0.80675 0.71452 0.10452 0.0
H2241 H 0.8215 0.80074 0.09052 0.0
H2242 H 0.82231 0.8224 0.14071 0.0
H2243 H 0.82414 0.81725 0.18933 0.0
H2244 H 0.81398 0.73144 0.20344 0.0
H2245 H 0.80627 0.70915 0.15285 0.0
C2246 C 0.80948 0.73796 0.11244 0.0
C2247 C 0.81376 0.75601 0.09384 0.0
C2248 C 0.81118 0.75035 0.14151 0.0
C2249 C 0.81798 0.78643 0.10443 0.0
C2250 C 0.81862 0.79881 0.13314 0.0
C2251 C 0.81967 0.79363 0.1812 0.0
C2252 C 0.81878 0.77588 0.20001 0.0
C2253 C 0.81604 0.78109 0.15201 0.0
C2254 C 0.81393 0.74541 0.18933 0.0
C2255 C 0.8097 0.73271 0.16041 0.0
H2256 H 0.09788 1.01125 0.67935 0.0
H2257 H 0.17618 0.03217 0.67046 0.0
H2258 H 0.16663 0.04271 0.62534 0.0
H2259 H 0.13559 0.04442 0.58637 0.0
H2260 H 0.0577 0.02567 0.59706 0.0
H2261 H 0.06746 0.01573 0.64225 0.0
C2262 C 0.11311 0.01803 0.66773 0.0
C2263 C 0.13808 0.02026 0.67922 0.0
C2264 C 0.10738 0.02449 0.64143 0.0
C2265 C 0.15691 0.02949 0.66292 0.0
C2266 C 0.15133 0.03572 0.6368 0.0
C2267 C 0.12066 0.03861 0.5987 0.0
C2268 C 0.09562 0.0363 0.58752 0.0
C2269 C 0.1266 0.03315 0.62553 0.0
C2270 C 0.07702 0.02841 0.6045 0.0
C2271 C 0.08269 0.02242 0.63059 0.0
H2272 H 0.84133 0.37716 0.46405 0.0
H2273 H 0.89926 0.44017 0.4404 0.0
H2274 H 0.89233 0.40955 0.39257 0.0
H2275 H 0.8681 0.36671 0.35701 0.0
H2276 H 0.81329 0.3004 0.38075 0.0
H2277 H 0.82086 0.33017 0.42909 0.0
C2278 C 0.85254 0.38384 0.44838 0.0
C2279 C 0.87056 0.41087 0.45545 0.0
C2280 C 0.84889 0.3657 0.421 0.0
C2281 C 0.88525 0.41945 0.43532 0.0
C2282 C 0.88128 0.40197 0.40796 0.0
C2283 C 0.85782 0.35855 0.37268 0.0
C2284 C 0.8391 0.332 0.36488 0.0
C2285 C 0.86289 0.37531 0.4005 0.0
C2286 C 0.82679 0.32142 0.3858 0.0
C2287 C 0.83132 0.33834 0.41356 0.0
H2288 H 0.45492 0.02064 0.24816 0.0
H2289 H 0.46041 0.09517 0.21387 0.0
H2290 H 0.47534 0.06985 0.17204 0.0
H2291 H 0.4957 0.03292 0.15222 0.0
H2292 H 0.49379 0.95927 0.18746 0.0
H2293 H 0.46847 0.97803 0.22252 0.0
C2294 C 0.45863 0.03073 0.23095 0.0
C2295 C 0.45684 0.05952 0.23359 0.0
C2296 C 0.46835 0.01663 0.20785 0.0
C2297 C 0.46176 0.07294 0.21181 0.0
C2298 C 0.47041 0.05856 0.18817 0.0
C2299 C 0.48895 0.01999 0.1666 0.0
C2300 C 0.49706 0.99489 0.16743 0.0
C2301 C 0.47511 0.03122 0.18685 0.0
C2302 C 0.48835 0.97904 0.18681 0.0
C2303 C 0.47385 0.98973 0.20678 0.0
H2304 H 0.84626 0.79067 0.95988 0.0
H2305 H 0.77967 0.71953 0.9312 0.0
H2306 H 0.77964 0.72734 0.88436 0.0
H2307 H 0.80001 0.75158 0.8508 0.0
H2308 H 0.86597 0.82342 0.87893 0.0
H2309 H 0.86499 0.81773 0.92654 0.0
C2310 C 0.83142 0.77726 0.94355 0.0
C2311 C 0.81299 0.75448 0.94925 0.0
C2312 C 0.83165 0.78162 0.9164 0.0
C2313 C 0.79393 0.7374 0.92771 0.0
C2314 C 0.79409 0.74159 0.90073 0.0
C2315 C 0.81415 0.76627 0.86725 0.0
C2316 C 0.83275 0.7885 0.86108 0.0
C2317 C 0.81318 0.76313 0.8947 0.0
C2318 C 0.85102 0.80677 0.88292 0.0
C2319 C 0.85052 0.80338 0.91025 0.0
H2320 H 0.83195 0.05517 0.04632 0.0
H2321 H 0.87693 0.14442 0.06505 0.0
H2322 H 0.91322 0.12716 0.0513 0.0
H2323 H 0.92831 0.08785 0.02205 0.0
H2324 H 0.88059 0.99992 0.99626 0.0
H2325 H 0.84904 0.01525 0.02415 0.0
C2326 C 0.84992 0.07084 0.04849 0.0
C2327 C 0.85165 0.10101 0.05577 0.0
C2328 C 0.86996 0.06087 0.03813 0.0
C2329 C 0.8751 0.12105 0.05898 0.0
C2330 C 0.89575 0.11119 0.05068 0.0
C2331 C 0.91124 0.07204 0.02326 0.0
C2332 C 0.90636 0.043 0.00706 0.0
C2333 C 0.89281 0.08134 0.03822 0.0
C2334 C 0.88433 0.02248 0.00843 0.0
C2335 C 0.86642 0.03123 0.02438 0.0
H2336 H 0.40281 0.48253 0.04473 0.0
H2337 H 0.41915 0.39895 0.03664 0.0
H2338 H 0.46317 0.42144 0.03453 0.0
H2339 H 0.49712 0.46545 0.0353 0.0
H2340 H 0.47989 0.54883 0.04596 0.0
H2341 H 0.43634 0.52605 0.04724 0.0
C2342 C 0.41595 0.46915 0.04225 0.0
C2343 C 0.40772 0.43909 0.04049 0.0
C2344 C 0.4412 0.48236 0.04198 0.0
C2345 C 0.42504 0.42215 0.03788 0.0
C2346 C 0.45021 0.43502 0.03676 0.0
C2347 C 0.48382 0.4786 0.03817 0.0
C2348 C 0.49193 0.50903 0.04113 0.0
C2349 C 0.45854 0.4652 0.03894 0.0
C2350 C 0.47446 0.52571 0.04461 0.0
C2351 C 0.44938 0.51256 0.04492 0.0
H2352 H 0.37905 0.657 0.81646 0.0
H2353 H 0.42061 0.65543 0.74562 0.0
H2354 H 0.40273 0.69309 0.73375 0.0
H2355 H 0.37558 0.72811 0.74311 0.0
H2356 H 0.33534 0.73182 0.81491 0.0
H2357 H 0.35156 0.69237 0.82584 0.0
C2358 C 0.38426 0.66456 0.79821 0.0
C2359 C 0.40167 0.65209 0.78203 0.0
C2360 C 0.37372 0.6871 0.79135 0.0
C2361 C 0.40758 0.66343 0.75871 0.0
C2362 C 0.3972 0.68541 0.75185 0.0
C2363 C 0.37007 0.72037 0.7612 0.0
C2364 C 0.35328 0.73355 0.77763 0.0
C2365 C 0.38026 0.69765 0.76793 0.0
C2366 C 0.34734 0.72255 0.80112 0.0
C2367 C 0.35701 0.6998 0.80759 0.0
H2368 H 0.20162 0.56248 0.50624 0.0
H2369 H 0.22389 0.6211 0.58876 0.0
H2370 H 0.18066 0.6227 0.59312 0.0
H2371 H 0.13712 0.61066 0.57105 0.0
H2372 H 0.11537 0.54982 0.48982 0.0
H2373 H 0.15793 0.54647 0.48665 0.0
C2374 C 0.19682 0.57512 0.52535 0.0
C2375 C 0.21552 0.59174 0.54708 0.0
C2376 C 0.17217 0.57576 0.52771 0.0
C2377 C 0.20946 0.60798 0.57189 0.0
C2378 C 0.18489 0.60914 0.57425 0.0
C2379 C 0.14165 0.59582 0.55338 0.0
C2380 C 0.12306 0.57898 0.53164 0.0
C2381 C 0.16616 0.59357 0.55203 0.0
C2382 C 0.12929 0.56162 0.50753 0.0
C2383 C 0.15362 0.5599 0.50557 0.0
H2384 H 0.79201 0.04886 0.7637 0.0
H2385 H 0.75754 0.96298 0.70983 0.0
H2386 H 0.7871 0.94277 0.73213 0.0
H2387 H 0.8138 0.94781 0.77438 0.0
H2388 H 0.8466 0.03325 0.83093 0.0
H2389 H 0.82528 0.05546 0.80084 0.0
C2390 C 0.79203 0.02603 0.75589 0.0
C2391 C 0.7728 1.00722 0.73553 0.0
C2392 C 0.80764 0.0144 0.7703 0.0
C2393 C 0.77245 0.97774 0.72536 0.0
C2394 C 0.78891 0.96613 0.73864 0.0
C2395 C 0.81744 0.97147 0.77967 0.0
C2396 C 0.83186 0.98883 0.80504 0.0
C2397 C 0.8053 0.98397 0.76233 0.0
C2398 C 0.83533 0.01933 0.81181 0.0
C2399 C 0.82335 0.03206 0.79449 0.0
H2400 H 0.77521 0.98966 0.5691 0.0
H2401 H 0.75292 0.90251 0.51354 0.0
H2402 H 0.71787 0.91435 0.49129 0.0
H2403 H 0.69605 0.95107 0.48443 0.0
H2404 H 0.71789 0.03787 0.54002 0.0
H2405 H 0.75074 0.0247 0.56544 0.0
C2406 C 0.76252 0.97313 0.55237 0.0
C2407 C 0.76696 0.94544 0.54268 0.0
C2408 C 0.74255 0.98018 0.53942 0.0
C2409 C 0.75016 0.92417 0.52115 0.0
C2410 C 0.73012 0.93091 0.50834 0.0
C2411 C 0.70795 0.96691 0.50227 0.0
C2412 C 0.70503 0.99542 0.51029 0.0
C2413 C 0.72659 0.9591 0.51675 0.0
C2414 C 0.7201 0.01583 0.53357 0.0
C2415 C 0.73882 1.00831 0.54801 0.0
H2416 H 0.36624 0.49471 0.77875 0.0
H2417 H 0.44153 0.48683 0.78064 0.0
H2418 H 0.42648 0.43398 0.77621 0.0
H2419 H 0.39127 0.38918 0.77385 0.0
H2420 H 0.3164 0.3986 0.76772 0.0
H2421 H 0.3316 0.45002 0.77122 0.0
C2422 C 0.3794 0.48141 0.77765 0.0
C2423 C 0.40512 0.49523 0.77978 0.0
C2424 C 0.37053 0.45063 0.77449 0.0
C2425 C 0.42164 0.47715 0.77852 0.0
C2426 C 0.41298 0.44672 0.77623 0.0
C2427 C 0.37819 0.40233 0.77308 0.0
C2428 C 0.35216 0.38884 0.77088 0.0
C2429 C 0.38736 0.43301 0.7745 0.0
C2430 C 0.33616 0.40716 0.76971 0.0
C2431 C 0.34499 0.4372 0.77172 0.0
H2432 H 0.2259 0.63584 0.24997 0.0
H2433 H 0.2915 0.60401 0.25272 0.0
H2434 H 0.31817 0.65351 0.25871 0.0
H2435 H 0.32249 0.70659 0.27247 0.0
H2436 H 0.25699 0.73865 0.27031 0.0
H2437 H 0.23038 0.68847 0.25555 0.0
C2438 C 0.24599 0.63981 0.25101 0.0
C2439 C 0.25698 0.61694 0.25133 0.0
C2440 C 0.26111 0.66836 0.25554 0.0
C2441 C 0.28293 0.6218 0.25273 0.0
C2442 C 0.29811 0.64998 0.25641 0.0
C2443 C 0.30242 0.70233 0.2682 0.0
C2444 C 0.29145 0.72567 0.2723 0.0
C2445 C 0.2874 0.67359 0.25946 0.0
C2446 C 0.26554 0.72053 0.26708 0.0
C2447 C 0.25041 0.692 0.25859 0.0
H2448 H 0.50903 0.69392 0.50793 0.0
H2449 H 0.56467 0.71646 0.45398 0.0
H2450 H 0.58178 0.67656 0.45961 0.0
H2451 H 0.57852 0.63156 0.47516 0.0
H2452 H 0.52779 0.61124 0.53402 0.0
H2453 H 0.51076 0.65263 0.53033 0.0
C2454 C 0.52514 0.69047 0.49774 0.0
C2455 C 0.53505 0.70854 0.48007 0.0
C2456 C 0.53564 0.66728 0.50155 0.0
C2457 C 0.55613 0.70325 0.46739 0.0
C2458 C 0.56605 0.68015 0.47053 0.0
C2459 C 0.56474 0.637 0.48842 0.0
C2460 C 0.55538 0.61871 0.50577 0.0
C2461 C 0.55571 0.6616 0.487 0.0
C2462 C 0.53612 0.62534 0.52123 0.0
C2463 C 0.52618 0.64899 0.51889 0.0
H2464 H 0.66975 0.31405 0.70559 0.0
H2465 H 0.70267 0.3368 0.63459 0.0
H2466 H 0.74293 0.33199 0.65365 0.0
H2467 H 0.76922 0.32154 0.69177 0.0
H2468 H 0.73344 0.29796 0.7611 0.0
H2469 H 0.69437 0.30295 0.74149 0.0
C2470 C 0.68561 0.31806 0.69404 0.0
C2471 C 0.68283 0.32592 0.66854 0.0
C2472 C 0.70855 0.31517 0.70507 0.0
C2473 C 0.70397 0.33081 0.65423 0.0
C2474 C 0.72709 0.328 0.6652 0.0
C2475 C 0.75284 0.31744 0.70248 0.0
C2476 C 0.75477 0.31011 0.72852 0.0
C2477 C 0.72971 0.32019 0.69075 0.0
C2478 C 0.73308 0.30464 0.74174 0.0
C2479 C 0.71047 0.30722 0.73036 0.0
H2480 H 0.01486 0.36889 0.01166 0.0
H2481 H 0.0403 0.35277 0.93002 0.0
H2482 H 0.05283 0.40485 0.93387 0.0
H2483 H 0.05534 0.45502 0.95869 0.0
H2484 H 0.03953 0.47445 0.04404 0.0
H2485 H 0.02374 0.42166 0.04027 0.0
C2486 C 0.02334 0.37683 0.99487 0.0
C2487 C 0.0263 0.35643 0.9704 0.0
C2488 C 0.03157 0.40757 0.99754 0.0
C2489 C 0.03771 0.36748 0.94912 0.0
C2490 C 0.04478 0.39747 0.95115 0.0
C2491 C 0.04828 0.44787 0.97653 0.0
C2492 C 0.04694 0.46894 1.001 0.0
C2493 C 0.04147 0.41767 0.97498 0.0
C2494 C 0.03898 0.45891 0.02424 0.0
C2495 C 0.03051 0.4286 0.02224 0.0
H2496 H 0.0609 0.831 0.20369 0.0
H2497 H 0.02617 0.81885 0.1201 0.0
H2498 H 0.98529 0.80392 0.13453 0.0
H2499 H 0.95917 0.78909 0.16966 0.0
H2500 H 0.99266 0.80171 0.25371 0.0
H2501 H 0.03382 0.82231 0.24082 0.0
C2502 C 0.04436 0.82547 0.18874 0.0
C2503 C 0.04691 0.82493 0.1604 0.0
C2504 C 0.02049 0.81708 0.19741 0.0
C2505 C 0.02515 0.81806 0.14154 0.0
C2506 C 1.00155 0.80987 0.14994 0.0
C2507 C 0.9754 0.79723 0.18534 0.0
C2508 C 0.97286 0.79425 0.21268 0.0
C2509 C 0.99899 0.80847 0.17759 0.0
C2510 C 0.99409 0.80431 0.23268 0.0
C2511 C 0.01767 0.81574 0.22518 0.0
H2512 H 0.48403 0.31669 0.08462 0.0
H2513 H 0.55501 0.31048 0.11912 0.0
H2514 H 0.57592 0.33506 0.08617 0.0
H2515 H 0.57428 0.35938 0.04825 0.0
H2516 H 0.50388 0.36783 0.01522 0.0
H2517 H 0.4824 0.34101 0.04671 0.0
C2518 C 0.50405 0.32059 0.08485 0.0
C2519 C 0.51789 0.31169 0.10425 0.0
C2520 C 0.51603 0.33492 0.06597 0.0
C2521 C 0.54388 0.31718 0.10446 0.0
C2522 C 0.55588 0.33114 0.08555 0.0
C2523 C 0.55418 0.35473 0.04761 0.0
C2524 C 0.54052 0.36492 0.02925 0.0
C2525 C 0.54215 0.34008 0.06623 0.0
C2526 C 0.51461 0.35972 0.02906 0.0
C2527 C 0.5024 0.3446 0.04711 0.0
H2528 H 0.04854 0.34472 0.37435 0.0
H2529 H 0.08137 0.33707 0.29697 0.0
H2530 H 0.0455 0.34669 0.27422 0.0
H2531 H 1.00426 0.35556 0.27553 0.0
H2532 H 0.97101 0.36406 0.3525 0.0
H2533 H 0.00753 0.35587 0.37617 0.0
C2534 C 0.04786 0.34532 0.35257 0.0
C2535 C 0.06758 0.34012 0.33738 0.0
C2536 C 0.0271 0.35098 0.33951 0.0
C2537 C 0.06651 0.34114 0.30921 0.0
C2538 C 0.04596 0.34655 0.2961 0.0
C2539 C 0.00516 0.35604 0.29759 0.0
C2540 C 0.98502 0.36045 0.31224 0.0
C2541 C 0.02611 0.35132 0.31097 0.0
C2542 C 0.98623 0.36045 0.3407 0.0
C2543 C 0.00712 0.35585 0.35425 0.0
H2544 H 0.02077 0.70661 0.60739 0.0
H2545 H 0.95432 0.65019 0.62452 0.0
H2546 H 0.96892 0.60687 0.60344 0.0
H2547 H 1.00146 0.58566 0.58055 0.0
H2548 H 0.06641 0.64358 0.56214 0.0
H2549 H 0.05179 0.6861 0.58376 0.0
C2550 C 0.00945 0.68478 0.60644 0.0
C2551 C 0.98669 0.68134 0.61751 0.0
C2552 C 0.01794 0.66049 0.59451 0.0
C2553 C 0.97188 0.65312 0.61588 0.0
C2554 C 0.98034 0.62851 0.60411 0.0
C2555 C 0.01248 0.60771 0.58193 0.0
C2556 C 0.03524 0.61195 0.57072 0.0
C2557 C 1.00352 0.632 0.59364 0.0
C2558 C 0.04917 0.64024 0.57146 0.0
C2559 C 0.04071 0.6644 0.5835 0.0
H2560 H 0.70448 0.83078 0.85173 0.0
H2561 H 0.66366 0.79359 0.76901 0.0
H2562 H 0.70282 0.80015 0.74832 0.0
H2563 H 0.74896 0.81496 0.75432 0.0
H2564 H 0.78856 0.85046 0.83756 0.0
H2565 H 0.74938 0.8472 0.8576 0.0
C2566 C 0.70405 0.82403 0.82916 0.0
C2567 C 0.6813 0.81157 0.81192 0.0
C2568 C 0.72636 0.82811 0.81755 0.0
C2569 C 0.68106 0.80315 0.78271 0.0
C2570 C 0.70337 0.80708 0.77088 0.0
C2571 C 0.74875 0.82218 0.77676 0.0
C2572 C 0.77112 0.83236 0.79467 0.0
C2573 C 0.72614 0.81941 0.78814 0.0
C2574 C 0.77122 0.84232 0.82364 0.0
C2575 C 0.74893 0.84028 0.83506 0.0
H2576 H 0.47718 0.55498 0.67383 0.0
H2577 H 0.54277 0.61998 0.72022 0.0
H2578 H 0.56311 0.61708 0.6783 0.0
H2579 H 0.56416 0.59617 0.62793 0.0
H2580 H 0.49952 0.53195 0.57951 0.0
H2581 H 0.47799 0.53469 0.62143 0.0
C2582 C 0.49585 0.56868 0.67493 0.0
C2583 C 0.50796 0.58766 0.70148 0.0
C2584 C 0.50821 0.56704 0.64974 0.0
C2585 C 0.53238 0.60486 0.70113 0.0
C2586 C 0.54437 0.60331 0.67673 0.0
C2587 C 0.54543 0.58259 0.62618 0.0
C2588 C 0.53408 0.56369 0.59956 0.0
C2589 C 0.53276 0.58438 0.65082 0.0
C2590 C 0.50935 0.54684 0.599 0.0
C2591 C 0.4968 0.54837 0.62335 0.0
H2592 H 0.80363 0.23004 1.0015 0.0
H2593 H 0.80156 0.15065 0.93925 0.0
H2594 H 0.78695 0.17064 0.90238 0.0
H2595 H 0.77192 0.20929 0.88845 0.0
H2596 H 0.77084 0.28728 0.95072 0.0
H2597 H 0.78935 0.26945 0.98725 0.0
C2598 C 0.80034 0.21751 0.97976 0.0
C2599 C 0.80378 0.18921 0.97275 0.0
C2600 C 0.79113 0.22876 0.9589 0.0
C2601 C 0.79904 0.17261 0.9448 0.0
C2602 C 0.79065 0.18395 0.92383 0.0
C2603 C 0.77607 0.22238 0.91002 0.0
C2604 C 0.77035 0.24943 0.91721 0.0
C2605 C 0.7862 0.21175 0.93071 0.0
C2606 C 0.7754 0.2664 0.94503 0.0
C2607 C 0.78589 0.25621 0.96579 0.0
H2608 H 0.12243 0.50079 0.1699 0.0
H2609 H 0.19186 0.53969 0.1425 0.0
H2610 H 0.16999 0.56215 0.11351 0.0
H2611 H 0.13165 0.56875 0.09468 0.0
H2612 H 0.06143 0.52516 0.11704 0.0
H2613 H 0.08349 0.50835 0.15123 0.0
C2614 C 0.13273 0.51386 0.1573 0.0
C2615 C 0.15862 0.51833 0.15802 0.0
C2616 C 0.1201 0.52667 0.14069 0.0
C2617 C 0.17183 0.5357 0.142 0.0
C2618 C 0.15943 0.54881 0.12571 0.0
C2619 C 0.12101 0.55578 0.10712 0.0
C2620 C 0.09489 0.54786 0.10301 0.0
C2621 C 0.13362 0.5443 0.12487 0.0
C2622 C 0.08154 0.53169 0.11985 0.0
C2623 C 0.09414 0.52158 0.13901 0.0
H2624 H 0.84019 0.81372 0.44887 0.0
H2625 H 0.83105 0.90142 0.46254 0.0
H2626 H 0.8276 0.89688 0.41253 0.0
H2627 H 0.82679 0.86856 0.36466 0.0
H2628 H 0.83008 0.77875 0.34878 0.0
H2629 H 0.83658 0.78357 0.39937 0.0
C2630 C 0.83719 0.83165 0.44081 0.0
C2631 C 0.83561 0.85778 0.45965 0.0
C2632 C 0.83452 0.82868 0.4115 0.0
C2633 C 0.83184 0.88084 0.44872 0.0
C2634 C 0.83008 0.87841 0.42002 0.0
C2635 C 0.82908 0.85006 0.37226 0.0
C2636 C 0.82889 0.82371 0.35294 0.0
C2637 C 0.83138 0.85253 0.40122 0.0
C2638 C 0.83114 0.79968 0.36318 0.0
C2639 C 0.83453 0.80234 0.39215 0.0
H2640 H 0.51835 0.56153 0.85481 0.0
H2641 H 0.45511 0.59042 0.88457 0.0
H2642 H 0.46669 0.58441 0.93089 0.0
H2643 H 0.495 0.5718 0.96449 0.0
H2644 H 0.55961 0.54527 0.93645 0.0
H2645 H 0.54722 0.54894 0.88912 0.0
C2646 C 0.5069 0.56645 0.87128 0.0
C2647 C 0.4854 0.57651 0.8651 0.0
C2648 C 0.51399 0.56315 0.89881 0.0
C2649 C 0.47148 0.58269 0.88766 0.0
C2650 C 0.47822 0.57922 0.91456 0.0
C2651 C 0.50651 0.56661 0.94813 0.0
C2652 C 0.52835 0.55762 0.95496 0.0
C2653 C 0.49946 0.56957 0.92063 0.0
C2654 C 0.54263 0.55159 0.93268 0.0
C2655 C 0.53551 0.55397 0.90529 0.0
H2656 H 0.80119 0.23141 0.09249 0.0
H2657 H 0.76509 0.14962 0.10969 0.0
H2658 H 0.76049 0.17594 0.1571 0.0
H2659 H 0.77475 0.22088 0.1959 0.0
H2660 H 0.81321 0.30195 0.17844 0.0
H2661 H 0.80884 0.27725 0.12885 0.0
C2662 C 0.79165 0.21944 0.10639 0.0
C2663 C 0.78392 0.18867 0.09794 0.0
C2664 C 0.79014 0.23454 0.13377 0.0
C2665 C 0.77123 0.17334 0.11581 0.0
C2666 C 0.76894 0.18838 0.14302 0.0
C2667 C 0.78184 0.23329 0.18122 0.0
C2668 C 0.79522 0.26302 0.19107 0.0
C2669 C 0.77962 0.21878 0.15267 0.0
C2670 C 0.80365 0.27886 0.17161 0.0
C2671 C 0.80103 0.26478 0.14319 0.0
H2672 H 0.1362 0.54665 0.27187 0.0
H2673 H 0.2023 0.55711 0.32738 0.0
H2674 H 0.1816 0.57485 0.3678 0.0
H2675 H 0.14425 0.58701 0.38703 0.0
H2676 H 0.07852 0.57541 0.33044 0.0
H2677 H 0.09962 0.55832 0.29055 0.0
C2678 C 0.14621 0.55293 0.29279 0.0
C2679 C 0.17076 0.55069 0.29666 0.0
C2680 C 0.13421 0.56278 0.31565 0.0
C2681 C 0.18335 0.55859 0.32389 0.0
C2682 C 0.17152 0.56873 0.34696 0.0
C2683 C 0.13462 0.58066 0.36592 0.0
C2684 C 0.10997 0.58263 0.36153 0.0
C2685 C 0.14689 0.57081 0.34306 0.0
C2686 C 0.09763 0.57449 0.33419 0.0
C2687 C 0.10962 0.56461 0.31144 0.0
H2688 H 0.83308 0.8113 0.60137 0.0
H2689 H 0.80722 0.88966 0.61985 0.0
H2690 H 0.80298 0.88602 0.66766 0.0
H2691 H 0.81008 0.86278 0.70592 0.0
H2692 H 0.82994 0.78069 0.68534 0.0
H2693 H 0.8333 0.78368 0.63731 0.0
C2694 C 0.82594 0.82714 0.61567 0.0
C2695 C 0.82056 0.85069 0.60692 0.0
C2696 C 0.82301 0.82465 0.64317 0.0
C2697 C 0.81128 0.87106 0.6258 0.0
C2698 C 0.80911 0.86923 0.65337 0.0
C2699 C 0.815 0.84555 0.69081 0.0
C2700 C 0.82056 0.82206 0.69946 0.0
C2701 C 0.81553 0.84654 0.66256 0.0
C2702 C 0.82623 0.79943 0.67949 0.0
C2703 C 0.82799 0.80099 0.65186 0.0
H2704 H 0.78071 0.53306 0.49495 0.0
H2705 H 0.76315 0.44805 0.51242 0.0
H2706 H 0.72495 0.45645 0.53007 0.0
H2707 H 0.70154 0.49174 0.54928 0.0
H2708 H 0.71983 0.57742 0.53388 0.0
H2709 H 0.75264 0.56494 0.50638 0.0
C2710 C 0.76821 0.51603 0.5019 0.0
C2711 C 0.77513 0.49034 0.50316 0.0
C2712 C 0.74665 0.52136 0.51285 0.0
C2713 C 0.7585 0.46827 0.51173 0.0
C2714 C 0.7367 0.4731 0.52199 0.0
C2715 C 0.71238 0.50732 0.53927 0.0
C2716 C 0.70881 0.53551 0.54385 0.0
C2717 C 0.73139 0.50018 0.52408 0.0
C2718 C 0.72251 0.5556 0.53062 0.0
C2719 C 0.74131 0.54852 0.51509 0.0
H2720 H 0.22155 0.10058 0.48808 0.0
H2721 H 0.21119 0.18754 0.50034 0.0
H2722 H 0.1669 0.16837 0.50416 0.0
H2723 H 0.1313 0.12662 0.50539 0.0
H2724 H 0.14373 0.04085 0.49488 0.0
H2725 H 0.1868 0.05973 0.48875 0.0
C2726 C 0.20967 0.11545 0.4914 0.0
C2727 C 0.21976 0.14548 0.49386 0.0
C2728 C 0.18443 0.10437 0.49377 0.0
C2729 C 0.20396 0.16432 0.49836 0.0
C2730 C 0.17862 0.15335 0.50057 0.0
C2731 C 0.14341 0.11204 0.50147 0.0
C2732 C 0.13387 0.08194 0.4997 0.0
C2733 C 0.16866 0.12338 0.49849 0.0
C2734 C 0.14998 0.06358 0.49505 0.0
C2735 C 0.17488 0.07456 0.49198 0.0
H2736 H 0.25281 0.93816 0.74602 0.0
H2737 H 0.22314 0.94157 0.82499 0.0
H2738 H 0.24145 0.90302 0.83193 0.0
H2739 H 0.26646 0.8675 0.81758 0.0
H2740 H 0.29571 0.85985 0.73853 0.0
H2741 H 0.27783 0.89941 0.73035 0.0
C2742 C 0.24978 0.93023 0.76453 0.0
C2743 C 0.23554 0.9439 0.78476 0.0
C2744 C 0.26093 0.9068 0.76887 0.0
C2745 C 0.23326 0.93249 0.80863 0.0
C2746 C 0.24404 0.91004 0.81285 0.0
C2747 C 0.26917 0.87425 0.79839 0.0
C2748 C 0.28341 0.85996 0.77915 0.0
C2749 C 0.25809 0.89696 0.79342 0.0
C2750 C 0.28575 0.86994 0.75446 0.0
C2751 C 0.27509 0.89283 0.7496 0.0
H2752 H 0.4292 0.04194 1.00091 0.0
H2753 H 0.40907 0.95015 0.95909 0.0
H2754 H 0.45309 0.9498 0.96179 0.0
H2755 H 0.49658 0.97412 0.98485 0.0
H2756 H 0.51325 0.06423 0.03196 0.0
H2757 H 0.47183 0.06678 0.01955 0.0
C2758 C 0.43464 0.0223 0.99101 0.0
C2759 C 0.41627 0.99626 0.97975 0.0
C2760 C 0.45949 0.02175 0.99496 0.0
C2761 C 0.42319 0.97061 0.96754 0.0
C2762 C 0.44826 0.97024 0.96983 0.0
C2763 C 0.49106 0.99427 0.99201 0.0
C2764 C 0.50852 0.01947 0.00837 0.0
C2765 C 0.46645 0.99532 0.9851 0.0
C2766 C 0.50091 0.04513 0.01825 0.0
C2767 C 0.47693 0.04654 0.01125 0.0
H2768 H 0.9023 0.64857 0.84693 0.0
H2769 H 0.84739 0.56604 0.83305 0.0
H2770 H 0.81994 0.58181 0.8029 0.0
H2771 H 0.81662 0.61438 0.77234 0.0
H2772 H 0.8738 0.69487 0.78322 0.0
H2773 H 0.89598 0.68445 0.82218 0.0
C2774 C 0.88371 0.63482 0.83847 0.0
C2775 C 0.87668 0.60634 0.84181 0.0
C2776 C 0.86921 0.64309 0.81949 0.0
C2777 C 0.85285 0.58824 0.8308 0.0
C2778 C 0.83753 0.59695 0.813 0.0
C2779 C 0.83387 0.62958 0.78347 0.0
C2780 C 0.84409 0.65488 0.77486 0.0
C2781 C 0.84637 0.62343 0.80571 0.0
C2782 C 0.86602 0.67502 0.78952 0.0
C2783 C 0.87851 0.6692 0.81182 0.0
H2784 H 0.83975 0.62066 0.0247 0.0
H2785 H 0.88713 0.70693 0.03163 0.0
H2786 H 0.92379 0.69055 0.0432 0.0
H2787 H 0.94196 0.6521 0.05438 0.0
H2788 H 0.89409 0.56616 0.04716 0.0
H2789 H 0.85803 0.58168 0.03195 0.0
C2790 C 0.85808 0.63595 0.02891 0.0
C2791 C 0.86067 0.66513 0.02798 0.0
C2792 C 0.87899 0.62626 0.03513 0.0
C2793 C 0.88461 0.68445 0.03264 0.0
C2794 C 0.90558 0.67506 0.03915 0.0
C2795 C 0.92366 0.63675 0.04889 0.0
C2796 C 0.92045 0.60806 0.05171 0.0
C2797 C 0.90296 0.64608 0.04078 0.0
C2798 C 0.89679 0.58828 0.04492 0.0
C2799 C 0.87623 0.59722 0.03648 0.0
H2800 H 0.22348 0.13139 0.81201 0.0
H2801 H 0.26938 0.08352 0.76444 0.0
H2802 H 0.29554 0.1294 0.7579 0.0
H2803 H 0.30597 0.18444 0.76579 0.0
H2804 H 0.2583 0.23113 0.81183 0.0
H2805 H 0.23311 0.18552 0.81888 0.0
C2806 C 0.23909 0.13089 0.80001 0.0
C2807 C 0.24407 0.10345 0.78858 0.0
C2808 C 0.25422 0.15772 0.79621 0.0
C2809 C 0.26472 0.10386 0.77336 0.0
C2810 C 0.27987 0.13035 0.7697 0.0
C2811 C 0.29023 0.18474 0.77758 0.0
C2812 C 0.28451 0.212 0.78841 0.0
C2813 C 0.27499 0.15766 0.78111 0.0
C2814 C 0.26352 0.21108 0.80317 0.0
C2815 C 0.2489 0.18472 0.80723 0.0
H2816 H 0.35576 0.97807 0.32199 0.0
H2817 H 0.42643 0.9835 0.28954 0.0
H2818 H 0.41619 0.93027 0.27257 0.0
H2819 H 0.38953 0.88255 0.27251 0.0
H2820 H 0.31496 0.87599 0.29331 0.0
H2821 H 0.32432 0.92948 0.31038 0.0
C2822 C 0.36857 0.96745 0.3107 0.0
C2823 C 0.39193 0.98421 0.30739 0.0
C2824 C 0.36223 0.9369 0.30009 0.0
C2825 C 0.40837 0.97069 0.29234 0.0
C2826 C 0.40265 0.94036 0.28285 0.0
C2827 C 0.37528 0.8928 0.28071 0.0
C2828 C 0.35238 0.87557 0.28461 0.0
C2829 C 0.38005 0.92328 0.28758 0.0
C2830 C 0.33351 0.88904 0.29308 0.0
C2831 C 0.33868 0.91955 0.30205 0.0
H2832 H 0.59995 0.42211 0.5978 0.0
H2833 H 0.597 0.36567 0.51581 0.0
H2834 H 0.59324 0.40544 0.49447 0.0
H2835 H 0.58978 0.45683 0.49901 0.0
H2836 H 0.58978 0.51157 0.58122 0.0
H2837 H 0.59548 0.47251 0.60229 0.0
C2838 C 0.59934 0.4188 0.57531 0.0
C2839 C 0.60011 0.39109 0.55863 0.0
C2840 C 0.59602 0.44157 0.56307 0.0
C2841 C 0.59768 0.38694 0.52935 0.0
C2842 C 0.59511 0.40968 0.51709 0.0
C2843 C 0.59072 0.46004 0.52151 0.0
C2844 C 0.58889 0.48723 0.53841 0.0
C2845 C 0.59398 0.43711 0.53367 0.0
C2846 C 0.5906 0.49091 0.56758 0.0
C2847 C 0.5941 0.46855 0.57971 0.0
H2848 H 0.46825 0.78861 0.35794 0.0
H2849 H 0.42993 0.76408 0.42524 0.0
H2850 H 0.39065 0.76742 0.40217 0.0
H2851 H 0.367 0.77689 0.36173 0.0
H2852 H 0.40736 0.80077 0.29543 0.0
H2853 H 0.44567 0.79767 0.31896 0.0
C2854 C 0.4514 0.78404 0.36784 0.0
C2855 C 0.45229 0.77619 0.39353 0.0
C2856 C 0.42899 0.78553 0.35426 0.0
C2857 C 0.42998 0.77014 0.40556 0.0
C2858 C 0.40748 0.77207 0.39229 0.0
C2859 C 0.38419 0.78129 0.35245 0.0
C2860 C 0.3839 0.78812 0.32612 0.0
C2861 C 0.40668 0.77964 0.36647 0.0
C2862 C 0.40653 0.79414 0.31477 0.0
C2863 C 0.42868 0.79282 0.32852 0.0
H2864 H 0.1049 0.73242 0.09952 0.0
H2865 H 0.08183 0.7431 0.01881 0.0
H2866 H 0.07423 0.69058 0.99822 0.0
H2867 H 0.06877 0.64061 1.00414 0.0
H2868 H 0.08839 0.62889 0.08523 0.0
H2869 H 0.10299 0.68219 0.10444 0.0
C2870 C 0.09905 0.72338 0.07725 0.0
C2871 C 0.0942 0.74197 0.06076 0.0
C2872 C 0.0938 0.69264 0.06558 0.0
C2873 C 0.08593 0.72953 0.03203 0.0
C2874 C 0.08138 0.69935 0.02022 0.0
C2875 C 0.0769 0.64979 0.02583 0.0
C2876 C 0.07826 0.63075 0.04299 0.0
C2877 C 0.08446 0.68054 0.03692 0.0
C2878 C 0.08791 0.64299 0.07134 0.0
C2879 C 0.09603 0.67354 0.08239 0.0
H2880 H 0.09188 0.22841 0.85443 0.0
H2881 H 0.1005 0.30629 0.92169 0.0
H2882 H 0.14003 0.32868 0.90746 0.0
H2883 H 0.16967 0.32845 0.87279 0.0
H2884 H 0.16128 0.25126 0.80519 0.0
H2885 H 0.12434 0.22609 0.82288 0.0
C2886 C 0.10257 0.2501 0.86622 0.0
C2887 C 0.09296 0.26582 0.88876 0.0
C2888 C 0.12524 0.26307 0.85773 0.0
C2889 C 0.10724 0.2938 0.90402 0.0
C2890 C 0.12986 0.3067 0.89588 0.0
C2891 C 0.15984 0.306 0.86214 0.0
C2892 C 0.16779 0.2918 0.83753 0.0
C2893 C 0.13861 0.29191 0.87225 0.0
C2894 C 0.15535 0.26258 0.82415 0.0
C2895 C 0.13419 0.24829 0.83417 0.0
H2896 H 0.57497 0.75465 0.9211 0.0
H2897 H 0.6514 0.79301 0.9573 0.0
H2898 H 0.64426 0.76735 0.9946 0.0
H2899 H 0.614 0.74032 0.02051 0.0
H2900 H 0.53641 0.70943 0.98675 0.0
H2901 H 0.54581 0.72678 0.94515 0.0
C2902 C 0.59021 0.75669 0.9368 0.0
C2903 C 0.61351 0.77559 0.93686 0.0
C2904 C 0.58534 0.7444 0.95918 0.0
C2905 C 0.63334 0.77823 0.95691 0.0
C2906 C 0.62908 0.76414 0.97849 0.0
C2907 C 0.59926 0.73804 1.00417 0.0
C2908 C 0.57447 0.72484 1.00681 0.0
C2909 C 0.60479 0.74852 0.98061 0.0
C2910 C 0.55542 0.72072 0.98536 0.0
C2911 C 0.56085 0.7301 0.96149 0.0
H2912 H 0.10201 0.78261 0.69128 0.0
H2913 H 0.04872 0.7175 0.71807 0.0
H2914 H 0.08154 0.69541 0.73016 0.0
H2915 H 0.12586 0.69984 0.74008 0.0
H2916 H 0.17935 0.7713 0.72124 0.0
H2917 H 0.14631 0.78453 0.69782 0.0
C2918 C 0.09773 0.76326 0.69926 0.0
C2919 C 0.0735 0.7518 0.70436 0.0
C2920 C 0.1168 0.75175 0.70754 0.0
C2921 C 0.06765 0.72676 0.71458 0.0
C2922 C 0.0863 0.71417 0.72142 0.0
C2923 C 0.13033 0.71825 0.73081 0.0
C2924 C 0.15511 0.73456 0.73288 0.0
C2925 C 0.1111 0.72737 0.71922 0.0
C2926 C 0.16057 0.75781 0.71982 0.0
C2927 C 0.1416 0.76584 0.70668 0.0
H2928 H 0.10541 0.40422 0.40165 0.0
H2929 H 0.16813 0.42073 0.46363 0.0
H2930 H 0.15679 0.46385 0.49118 0.0
H2931 H 0.12433 0.49073 0.50117 0.0
H2932 H 0.05731 0.46463 0.4429 0.0
H2933 H 0.07429 0.43082 0.41076 0.0
C2934 C 0.11719 0.41816 0.42056 0.0
C2935 C 0.13771 0.41003 0.4305 0.0
C2936 C 0.10902 0.44042 0.43748 0.0
C2937 C 0.1525 0.42725 0.45546 0.0
C2938 C 0.14567 0.45137 0.47144 0.0
C2939 C 0.1136 0.47768 0.48136 0.0
C2940 C 0.08985 0.48085 0.47396 0.0
C2941 C 0.12314 0.45709 0.46338 0.0
C2942 C 0.07599 0.4637 0.44846 0.0
C2943 C 0.08565 0.4441 0.43013 0.0
H2944 H 0.42618 0.2654 0.1832 0.0
H2945 H 0.46532 0.24197 0.24857 0.0
H2946 H 0.43333 0.24992 0.27886 0.0
H2947 H 0.39624 0.26841 0.28819 0.0
H2948 H 0.35751 0.29073 0.22187 0.0
H2949 H 0.38777 0.27923 0.19075 0.0
C2950 C 0.42748 0.26153 0.20387 0.0
C2951 C 0.44813 0.25372 0.21386 0.0
C2952 C 0.4096 0.26694 0.22134 0.0
C2953 C 0.4495 0.24821 0.24049 0.0
C2954 C 0.43142 0.25308 0.25796 0.0
C2955 C 0.39483 0.27103 0.26703 0.0
C2956 C 0.37581 0.28191 0.25766 0.0
C2957 C 0.41189 0.2635 0.24894 0.0
C2958 C 0.37304 0.28395 0.22988 0.0
C2959 C 0.38999 0.27687 0.21192 0.0
H2960 H 0.67418 0.52998 0.37783 0.0
H2961 H 0.60695 0.51587 0.32292 0.0
H2962 H 0.58293 0.51786 0.36263 0.0
H2963 H 0.5799 0.52452 0.41419 0.0
H2964 H 0.64735 0.54214 0.46981 0.0
H2965 H 0.67126 0.53802 0.42986 0.0
C2966 C 0.6543 0.52742 0.37436 0.0
C2967 C 0.64293 0.52281 0.34635 0.0
C2968 C 0.64008 0.52922 0.39809 0.0
C2969 C 0.61688 0.51968 0.34349 0.0
C2970 C 0.60283 0.52073 0.36655 0.0
C2971 C 0.59979 0.52719 0.41778 0.0
C2972 C 0.61125 0.53335 0.44598 0.0
C2973 C 0.61404 0.52555 0.39415 0.0
C2974 C 0.63739 0.53721 0.44906 0.0
C2975 C 0.65134 0.5349 0.42587 0.0
H2976 H 0.33487 0.90319 0.06279 0.0
H2977 H 0.3862 0.97184 0.12593 0.0
H2978 H 0.38529 0.93875 0.15643 0.0
H2979 H 0.37813 0.8879 0.15933 0.0
H2980 H 0.33202 0.81783 0.09295 0.0
H2981 H 0.32248 0.85349 0.06904 0.0
C2982 C 0.34486 0.91108 0.0838 0.0
C2983 C 0.36049 0.93956 0.09247 0.0
C2984 C 0.34584 0.89133 0.09995 0.0
C2985 C 0.37391 0.94988 0.11927 0.0
C2986 C 0.37367 0.93088 0.13639 0.0
C2987 C 0.36564 0.88072 0.13988 0.0
C2988 C 0.3561 0.85077 0.12728 0.0
C2989 C 0.36109 0.90116 0.12606 0.0
C2990 C 0.33974 0.84105 0.10242 0.0
C2991 C 0.33429 0.86135 0.08894 0.0
H2992 H 0.96135 0.54101 0.8816 0.0
H2993 H 0.02251 0.55744 0.83358 0.0
H2994 H 0.05111 0.55476 0.87236 0.0
H2995 H 0.05858 0.55465 0.92288 0.0
H2996 H 0.99651 0.55241 0.97157 0.0
H2997 H 0.96853 0.54586 0.93044 0.0
C2998 C 0.98096 0.54509 0.87977 0.0
C2999 C 0.98998 0.5511 0.85561 0.0
C3000 C 0.9972 0.5471 0.90278 0.0
C3001 C 0.01522 0.55335 0.85246 0.0
C3002 C 0.03157 0.55236 0.87475 0.0
C3003 C 0.03908 0.55303 0.92442 0.0
C3004 C 0.02959 0.55293 0.95009 0.0
C3005 C 0.02288 0.55067 0.90059 0.0
C3006 C 1.00423 0.55144 0.9519 0.0
C3007 C 0.98808 0.5476 0.92838 0.0
H3008 H 0.31935 0.28838 0.60593 0.0
H3009 H 0.31186 0.19548 0.58984 0.0
H3010 H 0.30797 0.19761 0.63897 0.0
H3011 H 0.30944 0.22591 0.68693 0.0
H3012 H 0.31622 0.31864 0.70483 0.0
H3013 H 0.31657 0.31649 0.65475 0.0
C3014 C 0.3165 0.26867 0.61327 0.0
C3015 C 0.31579 0.24174 0.59433 0.0
C3016 C 0.31391 0.26997 0.64182 0.0
C3017 C 0.31218 0.21634 0.60401 0.0
C3018 C 0.31002 0.21754 0.63211 0.0
C3019 C 0.3106 0.24559 0.67982 0.0
C3020 C 0.31286 0.27235 0.69954 0.0
C3021 C 0.31117 0.24421 0.65124 0.0
C3022 C 0.31433 0.29769 0.69004 0.0
C3023 C 0.31476 0.2965 0.66141 0.0
H3024 H 0.66269 0.53586 0.1664 0.0
H3025 H 0.59149 0.4993 0.19082 0.0
H3026 H 0.5702 0.50582 0.14929 0.0
H3027 H 0.57051 0.52207 0.10435 0.0
H3028 H 0.64163 0.55735 0.07923 0.0
H3029 H 0.663 0.55172 0.12127 0.0
C3030 C 0.64254 0.52873 0.16257 0.0
C3031 C 0.62923 0.51643 0.18266 0.0
C3032 C 0.62978 0.53299 0.13797 0.0
C3033 C 0.60287 0.50848 0.17647 0.0
C3034 C 0.59038 0.51242 0.15239 0.0
C3035 C 0.59066 0.52916 0.10821 0.0
C3036 C 0.60402 0.54115 0.08801 0.0
C3037 C 0.60341 0.52495 0.13283 0.0
C3038 C 0.63033 0.54875 0.09395 0.0
C3039 C 0.64282 0.54524 0.11824 0.0
H3040 H 0.38704 0.87873 0.95377 0.0
H3041 H 0.31475 0.89465 0.96436 0.0
H3042 H 0.29749 0.86027 0.91922 0.0
H3043 H 0.30447 0.83181 0.87396 0.0
H3044 H 0.37717 0.81886 0.86158 0.0
H3045 H 0.3928 0.84566 0.91037 0.0
C3046 C 0.36736 0.87407 0.94658 0.0
C3047 C 0.3523 0.88948 0.96228 0.0
C3048 C 0.35771 0.85499 0.92016 0.0
C3049 C 0.32683 0.88326 0.95258 0.0
C3050 C 0.31693 0.86368 0.92671 0.0
C3051 C 0.32344 0.83402 0.88234 0.0
C3052 C 0.33966 0.82328 0.86472 0.0
C3053 C 0.3324 0.8503 0.90991 0.0
C3054 C 0.36448 0.82701 0.87517 0.0
C3055 C 0.37337 0.84235 0.90291 0.0
H3056 H 0.92538 0.51703 0.69977 0.0
H3057 H 0.97911 0.57689 0.76675 0.0
H3058 H 0.01144 0.55307 0.74979 0.0
H3059 H 0.02565 0.52142 0.71066 0.0
H3060 H 0.97212 0.46534 0.64138 0.0
H3061 H 0.93834 0.48114 0.66434 0.0
C3062 C 0.94407 0.52433 0.71096 0.0
C3063 C 0.94997 0.54825 0.73461 0.0
C3064 C 0.96258 0.51139 0.70037 0.0
C3065 C 0.97413 0.55784 0.74899 0.0
C3066 C 0.99264 0.54453 0.73901 0.0
C3067 C 0.00645 0.51195 0.70122 0.0
C3068 C 1.0012 0.49237 0.67447 0.0
C3069 C 0.98728 0.52206 0.71406 0.0
C3070 C 0.97641 0.48043 0.66203 0.0
C3071 C 0.95717 0.48961 0.67504 0.0
H3072 H 0.34962 0.2399 0.43394 0.0
H3073 H 0.29808 0.2887 0.46682 0.0
H3074 H 0.29707 0.3072 0.42467 0.0
H3075 H 0.30993 0.30778 0.37757 0.0
H3076 H 0.357 0.25341 0.34274 0.0
H3077 H 0.36105 0.23889 0.38663 0.0
C3078 C 0.33837 0.25485 0.43195 0.0
C3079 C 0.32423 0.26336 0.45353 0.0
C3080 C 0.33707 0.26418 0.40726 0.0
C3081 C 0.30924 0.2821 0.45053 0.0
C3082 C 0.30866 0.29258 0.42644 0.0
C3083 C 0.32096 0.29265 0.37963 0.0
C3084 C 0.33312 0.28148 0.35705 0.0
C3085 C 0.3223 0.2835 0.40453 0.0
C3086 C 0.34747 0.26209 0.3599 0.0
C3087 C 0.34976 0.25385 0.38494 0.0
H3088 H 0.36793 0.61754 0.51085 0.0
H3089 H 0.33363 0.55869 0.55889 0.0
H3090 H 0.36503 0.53119 0.54885 0.0
H3091 H 0.39723 0.51895 0.51903 0.0
H3092 H 0.42717 0.57523 0.46698 0.0
H3093 H 0.40157 0.60818 0.4849 0.0
C3094 C 0.36748 0.59904 0.51965 0.0
C3095 C 0.34808 0.58952 0.53482 0.0
C3096 C 0.38408 0.58217 0.51193 0.0
C3097 C 0.34819 0.56602 0.54666 0.0
C3098 C 0.36588 0.55009 0.54059 0.0
C3099 C 0.39776 0.5383 0.51155 0.0
C3100 C 0.41311 0.54445 0.49115 0.0
C3101 C 0.38287 0.55692 0.52181 0.0
C3102 C 0.41473 0.56995 0.48212 0.0
C3103 C 0.40042 0.58886 0.49259 0.0
H3104 H 0.90981 0.98243 0.57479 0.0
H3105 H 0.90169 0.91133 0.50123 0.0
H3106 H 0.94381 0.93313 0.49169 0.0
H3107 H 0.98208 0.97278 0.5039 0.0
H3108 H 0.99139 0.04252 0.57924 0.0
H3109 H 0.94943 0.02099 0.58852 0.0
C3110 C 0.91748 0.97178 0.55681 0.0
C3111 C 0.9031 0.94554 0.53863 0.0
C3112 C 0.94163 0.98427 0.55175 0.0
C3113 C 0.91279 0.93156 0.51541 0.0
C3114 C 0.93672 0.94404 0.50998 0.0
C3115 C 0.97505 0.98337 0.52242 0.0
C3116 C 0.98969 1.0098 0.54045 0.0
C3117 C 0.95121 0.97046 0.52795 0.0
C3118 C 0.98027 0.02283 0.56449 0.0
C3119 C 0.95636 1.01033 0.56997 0.0
H3120 H 0.8851 0.1658 0.32382 0.0
H3121 H 0.90649 0.14244 0.24092 0.0
H3122 H 0.88671 0.17784 0.2273 0.0
H3123 H 0.86402 0.21747 0.23848 0.0
H3124 H 0.84218 0.24097 0.321 0.0
H3125 H 0.86096 0.20454 0.33457 0.0
C3126 C 0.88551 0.16816 0.30263 0.0
C3127 C 0.89796 0.15044 0.28365 0.0
C3128 C 0.87379 0.18926 0.29465 0.0
C3129 C 0.89765 0.15497 0.25644 0.0
C3130 C 0.88613 0.17557 0.24852 0.0
C3131 C 0.8631 0.21468 0.2595 0.0
C3132 C 0.85109 0.23281 0.27845 0.0
C3133 C 0.87423 0.19316 0.26735 0.0
C3134 C 0.85069 0.22795 0.3055 0.0
C3135 C 0.86171 0.20686 0.31339 0.0
H3136 H 0.71208 0.06056 0.03326 0.0
H3137 H 0.7282 0.14178 0.00935 0.0
H3138 H 0.69151 0.15349 0.02941 0.0
H3139 H 0.64935 0.13346 0.04118 0.0
H3140 H 0.63073 0.04553 0.0504 0.0
H3141 H 0.67336 0.04391 0.05079 0.0
C3142 C 0.70819 0.08152 0.03387 0.0
C3143 C 0.72244 0.10025 0.02 0.0
C3144 C 0.68601 0.08657 0.04287 0.0
C3145 C 0.71738 0.1272 0.02029 0.0
C3146 C 0.69615 0.13357 0.03127 0.0
C3147 C 0.65488 0.1144 0.04423 0.0
C3148 C 0.6367 0.08991 0.0472 0.0
C3149 C 0.67934 0.11232 0.04067 0.0
C3150 C 0.64417 0.06516 0.05009 0.0
C3151 C 0.66872 0.06401 0.0495 0.0
H3152 H 0.2548 0.45892 0.22231 0.0
H3153 H 0.30588 0.54398 0.23762 0.0
H3154 H 0.33557 0.52952 0.26601 0.0
H3155 H 0.33915 0.49941 0.29894 0.0
H3156 H 0.28359 0.41801 0.28989 0.0
H3157 H 0.2623 0.42465 0.24823 0.0
C3158 C 0.27311 0.47356 0.23062 0.0
C3159 C 0.27772 0.5029 0.23012 0.0
C3160 C 0.28806 0.46645 0.25006 0.0
C3161 C 0.30175 0.52149 0.2391 0.0
C3162 C 0.31828 0.51358 0.25615 0.0
C3163 C 0.32241 0.48327 0.28768 0.0
C3164 C 0.31216 0.459 0.29766 0.0
C3165 C 0.31028 0.48739 0.26409 0.0
C3166 C 0.29109 0.43737 0.2827 0.0
C3167 C 0.27923 0.44089 0.25876 0.0
H3168 H 0.28643 0.4937 0.06286 0.0
H3169 H 0.25457 0.40214 0.02162 0.0
H3170 H 0.2179 0.41362 1.00241 0.0
H3171 H 0.19619 0.45028 0.9945 0.0
H3172 H 0.22774 0.54146 0.03623 0.0
H3173 H 0.26335 0.52965 0.05795 0.0
C3174 C 0.27139 0.47619 0.04988 0.0
C3175 C 0.27345 0.44716 0.04344 0.0
C3176 C 0.25042 0.48295 0.03875 0.0
C3177 C 0.25363 0.42474 0.02674 0.0
C3178 C 0.23265 0.43127 0.01567 0.0
C3179 C 0.21084 0.4674 0.00856 0.0
C3180 C 0.20966 0.49665 0.01379 0.0
C3181 C 0.23108 0.46037 0.02105 0.0
C3182 C 0.22846 0.51881 0.03208 0.0
C3183 C 0.24876 0.51205 0.0444 0.0
H3184 H 0.91681 0.9766 0.2665 0.0
H3185 H 0.85932 1.01031 0.3062 0.0
H3186 H 0.83458 0.9605 0.30254 0.0
H3187 H 0.82972 0.9064 0.29069 0.0
H3188 H 0.88829 0.87293 0.25337 0.0
H3189 H 0.91139 0.92241 0.25347 0.0
C3190 C 0.89867 0.97314 0.27387 0.0
C3191 C 0.89014 0.99792 0.28635 0.0
C3192 C 0.88448 0.94388 0.2724 0.0
C3193 C 0.86664 0.99223 0.29631 0.0
C3194 C 0.85236 0.96346 0.29432 0.0
C3195 C 0.84732 0.90975 0.28215 0.0
C3196 C 0.85685 0.88518 0.27184 0.0
C3197 C 0.86111 0.93894 0.28277 0.0
C3198 C 0.88016 0.89085 0.26152 0.0
C3199 C 0.89355 0.91943 0.26155 0.0
H3200 H 0.78426 0.12256 0.77468 0.0
H3201 H 0.70937 0.12471 0.75018 0.0
H3202 H 0.72401 0.17644 0.75081 0.0
H3203 H 0.75719 0.22219 0.76445 0.0
H3204 H 0.83211 0.22085 0.78937 0.0
H3205 H 0.81873 0.16747 0.78188 0.0
C3206 C 0.77132 0.13447 0.76928 0.0
C3207 C 0.74583 0.12037 0.76286 0.0
C3208 C 0.77992 0.16412 0.76959 0.0
C3209 C 0.72908 0.13543 0.75528 0.0
C3210 C 0.73742 0.16492 0.7557 0.0
C3211 C 0.77065 0.20992 0.76718 0.0
C3212 C 0.79556 0.22486 0.7767 0.0
C3213 C 0.76266 0.17963 0.76354 0.0
C3214 C 0.81287 0.20935 0.78148 0.0
C3215 C 0.80518 0.179 0.77744 0.0
loop_
_geom_bond_atom_site_label_1
_geom_bond_atom_site_label_2
_geom_bond_distance
_geom_bond_site_symmetry_2
_ccdc_geom_bond_type
Mg0 O1 2.028 . S
Mg0 O7 1.986 . S
Mg0 O9 2.114 . S
Mg0 O10 2.251 . S
Mg0 O13 2.010 . S
O1 Mg0 2.028 . S
O1 C4 1.250 . S
O2 Mg3 2.028 . S
O2 C4 1.248 . S
Mg3 O2 2.028 . S
Mg3 O8 2.032 . S
Mg3 O10 2.079 . S
C4 O1 1.250 . S
C4 O2 1.248 . S
C5 O6 1.264 . S
C5 O13 1.249 . S
O6 C5 1.264 . S
O7 Mg0 1.986 . S
O7 C11 1.246 . S
O8 Mg3 2.032 . S
O8 C11 1.259 . S
O9 Mg0 2.114 . S
O9 C12 1.252 . S
O10 Mg0 2.251 . S
O10 Mg3 2.079 . S
O10 C12 1.273 . S
C11 O7 1.246 . S
C11 O8 1.259 . S
C12 O9 1.252 . S
C12 O10 1.273 . S
O13 Mg0 2.010 . S
O13 C5 1.249 . S
Mg14 O15 2.028 . S
Mg14 O21 1.986 . S
Mg14 O23 2.114 1_455 S
Mg14 O24 2.251 1_455 S
Mg14 O27 2.010 . S
O15 Mg14 2.028 . S
O15 C18 1.250 1_455 S
O16 Mg17 2.028 . S
O16 C18 1.248 . S
Mg17 O16 2.028 . S
Mg17 O22 2.032 . S
Mg17 O24 2.079 . S
C18 O15 1.250 1_655 S
C18 O16 1.248 . S
C19 O20 1.264 . S
C19 O27 1.249 . S
O20 C19 1.264 . S
O21 Mg14 1.986 . S
O21 C25 1.246 1_455 S
O22 Mg17 2.032 . S
O22 C25 1.259 . S
O23 Mg14 2.114 1_655 S
O23 C26 1.252 . S
O24 Mg14 2.251 1_655 S
O24 Mg17 2.079 . S
O24 C26 1.273 . S
C25 O21 1.246 1_655 S
C25 O22 1.259 . S
C26 O23 1.252 . S
C26 O24 1.273 . S
O27 Mg14 2.010 . S
O27 C19 1.249 . S
Mg28 O29 2.028 . S
Mg28 O35 1.986 . S
Mg28 O37 2.114 . S
Mg28 O38 2.251 . S
Mg28 O41 2.010 . S
O29 Mg28 2.028 . S
O29 C32 1.250 . S
O30 Mg31 2.028 . S
O30 C32 1.248 . S
Mg31 O30 2.028 . S
Mg31 O36 2.032 . S
Mg31 O38 2.079 . S
C32 O29 1.250 . S
C32 O30 1.248 . S
C33 O34 1.264 . S
C33 O41 1.249 . S
O34 C33 1.264 . S
O35 Mg28 1.986 . S
O35 C39 1.246 . S
O36 Mg31 2.032 . S
O36 C39 1.259 . S
O37 Mg28 2.114 . S
O37 C40 1.252 . S
O38 Mg28 2.251 . S
O38 Mg31 2.079 . S
O38 C40 1.273 . S
C39 O35 1.246 . S
C39 O36 1.259 . S
C40 O37 1.252 . S
C40 O38 1.273 . S
O41 Mg28 2.010 . S
O41 C33 1.249 . S
Mg42 O43 2.028 . S
Mg42 O49 1.986 . S
Mg42 O51 2.114 . S
Mg42 O52 2.251 . S
Mg42 O55 2.010 . S
O43 Mg42 2.028 . S
O43 C46 1.250 . S
O44 Mg45 2.028 . S
O44 C46 1.248 . S
Mg45 O44 2.028 . S
Mg45 O50 2.032 . S
Mg45 O52 2.079 . S
C46 O43 1.250 . S
C46 O44 1.248 . S
C47 O48 1.264 . S
C47 O55 1.249 . S
O48 C47 1.264 . S
O49 Mg42 1.986 . S
O49 C53 1.246 . S
O50 Mg45 2.032 . S
O50 C53 1.259 . S
O51 Mg42 2.114 . S
O51 C54 1.252 . S
O52 Mg42 2.251 . S
O52 Mg45 2.079 . S
O52 C54 1.273 . S
C53 O49 1.246 . S
C53 O50 1.259 . S
C54 O51 1.252 . S
C54 O52 1.273 . S
O55 Mg42 2.010 . S
O55 C47 1.249 . S
Mg56 O57 2.028 . S
Mg56 O63 1.986 . S
Mg56 O65 2.114 . S
Mg56 O66 2.251 . S
Mg56 O69 2.010 . S
O57 Mg56 2.028 . S
O57 C60 1.250 . S
O58 Mg59 2.028 . S
O58 C60 1.248 . S
Mg59 O58 2.028 . S
Mg59 O64 2.032 . S
Mg59 O66 2.079 . S
C60 O57 1.250 . S
C60 O58 1.248 . S
C61 O62 1.264 . S
C61 O69 1.249 . S
O62 C61 1.264 . S
O63 Mg56 1.986 . S
O63 C67 1.246 . S
O64 Mg59 2.032 . S
O64 C67 1.259 . S
O65 Mg56 2.114 . S
O65 C68 1.252 . S
O66 Mg56 2.251 . S
O66 Mg59 2.079 . S
O66 C68 1.273 . S
C67 O63 1.246 . S
C67 O64 1.259 . S
C68 O65 1.252 . S
C68 O66 1.273 . S
O69 Mg56 2.010 . S
O69 C61 1.249 . S
Mg70 O71 2.028 . S
Mg70 O77 1.986 . S
Mg70 O79 2.114 . S
Mg70 O80 2.251 . S
Mg70 O83 2.010 . S
O71 Mg70 2.028 . S
O71 C74 1.250 . S
O72 Mg73 2.028 . S
O72 C74 1.248 . S
Mg73 O72 2.028 . S
Mg73 O78 2.032 . S
Mg73 O80 2.079 . S
C74 O71 1.250 . S
C74 O72 1.248 . S
C75 O76 1.264 . S
C75 O83 1.249 . S
O76 C75 1.264 . S
O77 Mg70 1.986 . S
O77 C81 1.246 . S
O78 Mg73 2.032 . S
O78 C81 1.259 . S
O79 Mg70 2.114 . S
O79 C82 1.252 . S
O80 Mg70 2.251 . S
O80 Mg73 2.079 . S
O80 C82 1.273 . S
C81 O77 1.246 . S
C81 O78 1.259 . S
C82 O79 1.252 . S
C82 O80 1.273 . S
O83 Mg70 2.010 . S
O83 C75 1.249 . S
Mg84 O85 2.028 . S
Mg84 O91 1.986 . S
Mg84 O93 2.114 . S
Mg84 O94 2.251 . S
Mg84 O97 2.010 . S
O85 Mg84 2.028 . S
O85 C88 1.250 . S
O86 Mg87 2.028 . S
O86 C88 1.248 . S
Mg87 O86 2.028 . S
Mg87 O92 2.032 . S
Mg87 O94 2.079 . S
C88 O85 1.250 . S
C88 O86 1.248 . S
C89 O90 1.264 . S
C89 O97 1.249 . S
O90 C89 1.264 . S
O91 Mg84 1.986 . S
O91 C95 1.246 . S
O92 Mg87 2.032 . S
O92 C95 1.259 . S
O93 Mg84 2.114 . S
O93 C96 1.252 . S
O94 Mg84 2.251 . S
O94 Mg87 2.079 . S
O94 C96 1.273 . S
C95 O91 1.246 . S
C95 O92 1.259 . S
C96 O93 1.252 . S
C96 O94 1.273 . S
O97 Mg84 2.010 . S
O97 C89 1.249 . S
Mg98 O99 2.028 . S
Mg98 O105 1.986 . S
Mg98 O107 2.123 . S
Mg98 O108 2.251 1_455 S
Mg98 O111 2.010 . S
O99 Mg98 2.028 . S
O99 C102 1.250 . S
O100 Mg101 2.028 1_455 S
O100 C102 1.248 . S
Mg101 O100 2.028 1_655 S
Mg101 O106 2.032 . S
Mg101 O108 2.079 . S
C102 O99 1.250 . S
C102 O100 1.248 . S
C103 O104 1.264 . S
C103 O111 1.249 . S
O104 C103 1.264 . S
O105 Mg98 1.986 . S
O105 C109 1.246 . S
O106 Mg101 2.032 . S
O106 C109 1.259 1_655 S
O107 Mg98 2.123 . S
O107 C110 1.238 1_455 S
O108 Mg98 2.251 1_655 S
O108 Mg101 2.079 . S
O108 C110 1.273 . S
C109 O105 1.246 . S
C109 O106 1.259 1_455 S
C110 O107 1.238 1_655 S
C110 O108 1.273 . S
O111 Mg98 2.010 . S
O111 C103 1.249 . S
Mg112 O113 2.028 1_545 S
Mg112 O119 1.986 . S
Mg112 O121 2.114 . S
Mg112 O122 2.251 . S
Mg112 O125 2.010 . S
O113 Mg112 2.028 1_565 S
O113 C116 1.250 . S
O114 Mg115 2.028 1_565 S
O114 C116 1.248 . S
Mg115 O114 2.028 1_545 S
Mg115 O120 2.032 . S
Mg115 O122 2.079 . S
C116 O113 1.250 . S
C116 O114 1.248 . S
C117 O118 1.264 . S
C117 O125 1.249 . S
O118 C117 1.264 . S
O119 Mg112 1.986 . S
O119 C123 1.246 . S
O120 Mg115 2.032 . S
O120 C123 1.259 . S
O121 Mg112 2.114 . S
O121 C124 1.252 . S
O122 Mg112 2.251 . S
O122 Mg115 2.079 . S
O122 C124 1.273 . S
C123 O119 1.246 . S
C123 O120 1.259 . S
C124 O121 1.252 . S
C124 O122 1.273 . S
O125 Mg112 2.010 . S
O125 C117 1.249 . S
Mg126 O127 2.028 . S
Mg126 O133 1.986 . S
Mg126 O135 2.114 . S
Mg126 O136 2.251 . S
Mg126 O139 2.010 . S
O127 Mg126 2.028 . S
O127 C130 1.250 . S
O128 Mg129 2.028 . S
O128 C130 1.248 . S
Mg129 O128 2.028 . S
Mg129 O134 2.032 . S
Mg129 O136 2.079 . S
C130 O127 1.250 . S
C130 O128 1.248 . S
C131 O132 1.264 . S
C131 O139 1.249 . S
O132 C131 1.264 . S
O133 Mg126 1.986 . S
O133 C137 1.246 . S
O134 Mg129 2.032 . S
O134 C137 1.259 . S
O135 Mg126 2.114 . S
O135 C138 1.252 . S
O136 Mg126 2.251 . S
O136 Mg129 2.079 . S
O136 C138 1.273 . S
C137 O133 1.246 . S
C137 O134 1.259 . S
C138 O135 1.252 . S
C138 O136 1.273 . S
O139 Mg126 2.010 . S
O139 C131 1.249 . S
Mg140 O141 2.028 1_565 S
Mg140 O147 1.986 . S
Mg140 O149 2.114 1_565 S
Mg140 O150 2.251 . S
Mg140 O153 2.010 . S
O141 Mg140 2.028 1_545 S
O141 C144 1.250 . S
O142 Mg143 2.028 . S
O142 C144 1.248 . S
Mg143 O142 2.028 . S
Mg143 O148 2.032 1_545 S
Mg143 O150 2.079 1_545 S
C144 O141 1.250 . S
C144 O142 1.248 . S
C145 O146 1.264 . S
C145 O153 1.249 . S
O146 C145 1.264 . S
O147 Mg140 1.986 . S
O147 C151 1.246 . S
O148 Mg143 2.032 1_565 S
O148 C151 1.259 . S
O149 Mg140 2.114 1_545 S
O149 C152 1.252 . S
O150 Mg140 2.251 . S
O150 Mg143 2.079 1_565 S
O150 C152 1.273 1_565 S
C151 O147 1.246 . S
C151 O148 1.259 . S
C152 O149 1.252 . S
C152 O150 1.273 1_545 S
O153 Mg140 2.010 . S
O153 C145 1.249 . S
Mg154 O155 2.028 1_554 S
Mg154 O161 1.986 . S
Mg154 O163 2.114 . S
Mg154 O164 2.251 . S
Mg154 O167 2.010 . S
O155 Mg154 2.028 1_556 S
O155 C158 1.250 . S
O156 Mg157 2.028 1_556 S
O156 C158 1.248 . S
Mg157 O156 2.028 1_554 S
Mg157 O162 2.032 . S
Mg157 O164 2.079 . S
C158 O155 1.250 . S
C158 O156 1.248 . S
C159 O160 1.264 1_565 S
C159 O167 1.249 . S
O160 C159 1.264 1_545 S
O161 Mg154 1.986 . S
O161 C165 1.246 . S
O162 Mg157 2.032 . S
O162 C165 1.259 . S
O163 Mg154 2.114 . S
O163 C166 1.252 . S
O164 Mg154 2.251 . S
O164 Mg157 2.079 . S
O164 C166 1.273 . S
C165 O161 1.246 . S
C165 O162 1.259 . S
C166 O163 1.252 . S
C166 O164 1.273 . S
O167 Mg154 2.010 . S
O167 C159 1.249 . S
Mg168 O169 2.028 . S
Mg168 O175 1.986 . S
Mg168 O177 2.114 . S
Mg168 O178 2.251 . S
Mg168 O181 2.010 . S
O169 Mg168 2.028 . S
O169 C172 1.250 1_554 S
O170 Mg171 2.028 . S
O170 C172 1.248 1_554 S
Mg171 O170 2.028 . S
Mg171 O176 2.032 . S
Mg171 O178 2.079 . S
C172 O169 1.250 1_556 S
C172 O170 1.248 1_556 S
C173 O174 1.264 . S
C173 O181 1.249 . S
O174 C173 1.264 . S
O175 Mg168 1.986 . S
O175 C179 1.246 . S
O176 Mg171 2.032 . S
O176 C179 1.259 . S
O177 Mg168 2.114 . S
O177 C180 1.252 . S
O178 Mg168 2.251 . S
O178 Mg171 2.079 . S
O178 C180 1.273 . S
C179 O175 1.246 . S
C179 O176 1.259 . S
C180 O177 1.252 . S
C180 O178 1.273 . S
O181 Mg168 2.010 . S
O181 C173 1.249 . S
Mg182 O183 2.028 . S
Mg182 O189 1.986 1_554 S
Mg182 O191 2.114 . S
Mg182 O192 2.251 . S
Mg182 O195 2.010 . S
O183 Mg182 2.028 . S
O183 C186 1.250 . S
O184 Mg185 2.028 . S
O184 C186 1.248 . S
Mg185 O184 2.028 . S
Mg185 O190 2.032 . S
Mg185 O192 2.079 . S
C186 O183 1.250 . S
C186 O184 1.248 . S
C187 O188 1.264 1_554 S
C187 O195 1.249 . S
O188 C187 1.264 1_556 S
O189 Mg182 1.986 1_556 S
O189 C193 1.246 . S
O190 Mg185 2.032 . S
O190 C193 1.259 1_554 S
O191 Mg182 2.114 . S
O191 C194 1.252 . S
O192 Mg182 2.251 . S
O192 Mg185 2.079 . S
O192 C194 1.273 . S
C193 O189 1.246 . S
C193 O190 1.259 1_556 S
C194 O191 1.252 . S
C194 O192 1.273 . S
O195 Mg182 2.010 . S
O195 C187 1.249 . S
Mg196 O197 2.028 . S
Mg196 O203 1.986 . S
Mg196 O205 2.114 . S
Mg196 O206 2.251 . S
Mg196 O209 2.010 . S
O197 Mg196 2.028 . S
O197 C200 1.250 . S
O198 Mg199 2.028 . S
O198 C200 1.248 . S
Mg199 O198 2.028 . S
Mg199 O204 2.032 . S
Mg199 O206 2.079 . S
C200 O197 1.250 . S
C200 O198 1.248 . S
C201 O202 1.264 . S
C201 O209 1.249 . S
O202 C201 1.264 . S
O203 Mg196 1.986 . S
O203 C207 1.246 . S
O204 Mg199 2.032 . S
O204 C207 1.259 . S
O205 Mg196 2.114 . S
O205 C208 1.252 . S
O206 Mg196 2.251 . S
O206 Mg199 2.079 . S
O206 C208 1.273 . S
C207 O203 1.246 . S
C207 O204 1.259 . S
C208 O205 1.252 . S
C208 O206 1.273 . S
O209 Mg196 2.010 . S
O209 C201 1.249 . S
Mg210 O211 2.028 . S
Mg210 O217 1.986 . S
Mg210 O219 2.114 . S
Mg210 O220 2.251 . S
Mg210 O223 2.010 . S
O211 Mg210 2.028 . S
O211 C214 1.250 . S
O212 Mg213 2.028 . S
O212 C214 1.248 . S
Mg213 O212 2.028 . S
Mg213 O218 2.032 . S
Mg213 O220 2.079 . S
C214 O211 1.250 . S
C214 O212 1.248 . S
C215 O216 1.264 . S
C215 O223 1.249 . S
O216 C215 1.264 . S
O217 Mg210 1.986 . S
O217 C221 1.246 . S
O218 Mg213 2.032 . S
O218 C221 1.259 . S
O219 Mg210 2.114 . S
O219 C222 1.252 . S
O220 Mg210 2.251 . S
O220 Mg213 2.079 . S
O220 C222 1.273 . S
C221 O217 1.246 . S
C221 O218 1.259 . S
C222 O219 1.252 . S
C222 O220 1.273 . S
O223 Mg210 2.010 . S
O223 C215 1.249 . S
Mg224 O225 2.028 . S
Mg224 O231 1.986 . S
Mg224 O233 2.114 . S
Mg224 O234 2.251 . S
Mg224 O237 2.010 . S
O225 Mg224 2.028 . S
O225 C228 1.250 . S
O226 Mg227 2.028 . S
O226 C228 1.248 . S
Mg227 O226 2.028 . S
Mg227 O232 2.032 . S
Mg227 O234 2.079 . S
C228 O225 1.250 . S
C228 O226 1.248 . S
C229 O230 1.264 1_655 S
C229 O237 1.249 . S
O230 C229 1.264 1_455 S
O231 Mg224 1.986 . S
O231 C235 1.246 . S
O232 Mg227 2.032 . S
O232 C235 1.259 . S
O233 Mg224 2.114 . S
O233 C236 1.252 . S
O234 Mg224 2.251 . S
O234 Mg227 2.079 . S
O234 C236 1.273 . S
C235 O231 1.246 . S
C235 O232 1.259 . S
C236 O233 1.252 . S
C236 O234 1.273 . S
O237 Mg224 2.010 . S
O237 C229 1.249 . S
Mg238 O239 2.028 . S
Mg238 O245 1.986 . S
Mg238 O247 2.114 . S
Mg238 O248 2.251 . S
Mg238 O251 2.010 . S
O239 Mg238 2.028 . S
O239 C242 1.250 . S
O240 Mg241 2.028 . S
O240 C242 1.248 . S
Mg241 O240 2.028 . S
Mg241 O246 2.032 . S
Mg241 O248 2.079 . S
C242 O239 1.250 . S
C242 O240 1.248 . S
C243 O244 1.264 . S
C243 O251 1.249 . S
O244 C243 1.264 . S
O245 Mg238 1.986 . S
O245 C249 1.246 . S
O246 Mg241 2.032 . S
O246 C249 1.259 . S
O247 Mg238 2.114 . S
O247 C250 1.252 . S
O248 Mg238 2.251 . S
O248 Mg241 2.079 . S
O248 C250 1.273 . S
C249 O245 1.246 . S
C249 O246 1.259 . S
C250 O247 1.252 . S
C250 O248 1.273 . S
O251 Mg238 2.010 . S
O251 C243 1.249 . S
Mg252 O253 2.028 . S
Mg252 O259 1.986 . S
Mg252 O261 2.114 . S
Mg252 O262 2.251 . S
Mg252 O265 2.010 . S
O253 Mg252 2.028 . S
O253 C256 1.250 . S
O254 Mg255 2.028 . S
O254 C256 1.248 . S
Mg255 O254 2.028 . S
Mg255 O260 2.032 . S
Mg255 O262 2.079 . S
C256 O253 1.250 . S
C256 O254 1.248 . S
C257 O258 1.264 . S
C257 O265 1.249 . S
O258 C257 1.264 . S
O259 Mg252 1.986 . S
O259 C263 1.246 . S
O260 Mg255 2.032 . S
O260 C263 1.259 . S
O261 Mg252 2.114 . S
O261 C264 1.252 . S
O262 Mg252 2.251 . S
O262 Mg255 2.079 . S
O262 C264 1.273 . S
C263 O259 1.246 . S
C263 O260 1.259 . S
C264 O261 1.252 . S
C264 O262 1.273 . S
O265 Mg252 2.010 . S
O265 C257 1.249 . S
Mg266 O267 2.028 . S
Mg266 O273 1.986 . S
Mg266 O275 2.114 . S
Mg266 O276 2.251 . S
Mg266 O279 2.010 . S
O267 Mg266 2.028 . S
O267 C270 1.250 . S
O268 Mg269 2.028 . S
O268 C270 1.248 . S
Mg269 O268 2.028 . S
Mg269 O274 2.032 . S
Mg269 O276 2.079 . S
C270 O267 1.250 . S
C270 O268 1.248 . S
C271 O272 1.264 . S
C271 O279 1.249 . S
O272 C271 1.264 . S
O273 Mg266 1.986 . S
O273 C277 1.246 . S
O274 Mg269 2.032 . S
O274 C277 1.259 . S
O275 Mg266 2.114 . S
O275 C278 1.252 . S
O276 Mg266 2.251 . S
O276 Mg269 2.079 . S
O276 C278 1.273 . S
C277 O273 1.246 . S
C277 O274 1.259 . S
C278 O275 1.252 . S
C278 O276 1.273 . S
O279 Mg266 2.010 . S
O279 C271 1.249 . S
Mg280 O281 2.028 1_556 S
Mg280 O287 1.986 . S
Mg280 O289 2.114 1_556 S
Mg280 O290 2.251 . S
Mg280 O293 2.010 . S
O281 Mg280 2.028 1_554 S
O281 C284 1.250 . S
O282 Mg283 2.028 . S
O282 C284 1.248 . S
Mg283 O282 2.028 . S
Mg283 O288 2.032 1_554 S
Mg283 O290 2.079 1_554 S
C284 O281 1.250 . S
C284 O282 1.248 . S
C285 O286 1.264 . S
C285 O293 1.249 . S
O286 C285 1.264 . S
O287 Mg280 1.986 . S
O287 C291 1.246 . S
O288 Mg283 2.032 1_556 S
O288 C291 1.259 . S
O289 Mg280 2.114 1_554 S
O289 C292 1.239 1_554 S
O290 Mg280 2.251 . S
O290 Mg283 2.079 1_556 S
O290 C292 1.292 . S
C291 O287 1.246 . S
C291 O288 1.259 . S
C292 O289 1.239 1_556 S
C292 O290 1.292 . S
O293 Mg280 2.010 . S
O293 C285 1.249 . S
Mg294 O295 2.028 . S
Mg294 O301 1.986 . S
Mg294 O303 2.114 . S
Mg294 O304 2.251 . S
Mg294 O307 2.010 . S
O295 Mg294 2.028 . S
O295 C298 1.250 . S
O296 Mg297 2.028 . S
O296 C298 1.248 . S
Mg297 O296 2.028 . S
Mg297 O302 2.032 . S
Mg297 O304 2.079 . S
C298 O295 1.250 . S
C298 O296 1.248 . S
C299 O300 1.264 . S
C299 O307 1.249 . S
O300 C299 1.264 . S
O301 Mg294 1.986 . S
O301 C305 1.246 . S
O302 Mg297 2.032 . S
O302 C305 1.259 . S
O303 Mg294 2.114 . S
O303 C306 1.252 . S
O304 Mg294 2.251 . S
O304 Mg297 2.079 . S
O304 C306 1.273 . S
C305 O301 1.246 . S
C305 O302 1.259 . S
C306 O303 1.252 . S
C306 O304 1.273 . S
O307 Mg294 2.010 . S
O307 C299 1.249 . S
Mg308 O309 2.028 . S
Mg308 O315 1.986 . S
Mg308 O317 2.114 . S
Mg308 O318 2.251 . S
Mg308 O321 2.010 . S
O309 Mg308 2.028 . S
O309 C312 1.250 . S
O310 Mg311 2.028 . S
O310 C312 1.248 . S
Mg311 O310 2.028 . S
Mg311 O316 2.032 . S
Mg311 O318 2.079 . S
C312 O309 1.250 . S
C312 O310 1.248 . S
C313 O314 1.264 . S
C313 O321 1.249 . S
O314 C313 1.264 . S
O315 Mg308 1.986 . S
O315 C319 1.246 . S
O316 Mg311 2.032 . S
O316 C319 1.259 . S
O317 Mg308 2.114 . S
O317 C320 1.252 . S
O318 Mg308 2.251 . S
O318 Mg311 2.079 . S
O318 C320 1.273 . S
C319 O315 1.246 . S
C319 O316 1.259 . S
C320 O317 1.252 . S
C320 O318 1.273 . S
O321 Mg308 2.010 . S
O321 C313 1.249 . S
Mg322 O323 2.028 . S
Mg322 O329 1.986 . S
Mg322 O331 2.114 . S
Mg322 O332 2.251 . S
Mg322 O335 2.010 . S
O323 Mg322 2.028 . S
O323 C326 1.250 . S
O324 Mg325 2.028 . S
O324 C326 1.248 . S
Mg325 O324 2.028 . S
Mg325 O330 2.032 . S
Mg325 O332 2.079 . S
C326 O323 1.250 . S
C326 O324 1.248 . S
C327 O328 1.264 . S
C327 O335 1.249 . S
O328 C327 1.264 . S
O329 Mg322 1.986 . S
O329 C333 1.246 . S
O330 Mg325 2.032 . S
O330 C333 1.259 . S
O331 Mg322 2.114 . S
O331 C334 1.252 . S
O332 Mg322 2.251 . S
O332 Mg325 2.079 . S
O332 C334 1.273 . S
C333 O329 1.246 . S
C333 O330 1.259 . S
C334 O331 1.252 . S
C334 O332 1.273 . S
O335 Mg322 2.010 . S
O335 C327 1.249 . S
Eu336 N367 2.657 1_546 S
Eu336 N374 2.609 1_545 S
Eu336 O380 2.558 1_455 S
Eu336 O381 2.612 1_556 S
Eu336 O383 2.339 1_556 S
Eu336 O384 2.563 . S
Eu336 O385 2.419 1_456 S
Eu336 O387 2.380 1_556 S
Eu336 O388 2.432 . S
Eu336 C400 2.848 1_455 S
C337 C340 1.429 . S
C337 C341 1.411 . S
C337 N344 1.377 . S
C338 C340 1.420 . S
C338 C342 1.423 . S
C338 C350 1.392 1_554 S
C339 C341 1.420 . S
C339 C342 1.351 . S
C339 H362 0.931 . S
C340 C337 1.429 . S
C340 C338 1.420 . S
C340 N348 1.362 . S
C341 C337 1.411 . S
C341 C339 1.420 . S
C341 C346 1.395 . S
C342 C338 1.423 . S
C342 C339 1.351 . S
C342 H354 0.930 . S
C343 C345 1.400 . S
C343 C346 1.386 . S
C343 H355 0.930 . S
N344 C337 1.377 . S
N344 C345 1.321 . S
N344 Eu347 2.609 . S
C345 C343 1.400 . S
C345 N344 1.321 . S
C345 H352 0.930 . S
C346 C341 1.395 . S
C346 C343 1.386 . S
C346 H365 0.930 . S
Eu347 N344 2.609 . S
Eu347 N348 2.657 . S
Eu347 O381 2.380 . S
Eu347 O382 2.432 . S
Eu347 O386 2.558 . S
Eu347 O387 2.612 . S
Eu347 O389 2.339 1_554 S
Eu347 O390 2.597 . S
Eu347 O391 2.419 . S
Eu347 C411 2.848 . S
N348 C340 1.362 . S
N348 Eu347 2.657 . S
N348 C349 1.334 1_554 S
C349 N348 1.334 1_556 S
C349 C351 1.413 . S
C349 H356 0.929 . S
C350 C338 1.392 1_556 S
C350 C351 1.367 . S
C350 H358 0.930 . S
C351 C349 1.413 . S
C351 C350 1.367 . S
C351 H353 0.930 . S
H352 C345 0.930 . S
H353 C351 0.930 . S
H354 C342 0.930 . S
H355 C343 0.930 . S
H356 C349 0.929 . S
H357 C371 0.930 . S
H358 C350 0.930 . S
H359 C377 0.930 . S
H360 C368 0.929 . S
H361 C375 0.930 . S
H362 C339 0.931 . S
H363 C369 0.930 . S
H364 C402 0.930 . S
H365 C346 0.930 . S
H366 C401 0.931 . S
N367 Eu336 2.657 1_564 S
N367 C368 1.334 . S
N367 C372 1.362 1_454 S
C368 H360 0.929 . S
C368 N367 1.334 . S
C368 C371 1.413 1_455 S
C369 H363 0.930 . S
C369 C370 1.392 . S
C369 C371 1.367 . S
C370 C369 1.392 . S
C370 C372 1.420 1_554 S
C370 C402 1.423 1_554 S
C371 H357 0.930 . S
C371 C368 1.413 1_655 S
C371 C369 1.367 . S
C372 N367 1.362 1_656 S
C372 C370 1.420 1_556 S
C372 C376 1.429 . S
H373 C378 0.930 . S
N374 Eu336 2.609 1_565 S
N374 C376 1.377 1_455 S
N374 C377 1.321 . S
C375 H361 0.930 . S
C375 C377 1.400 1_655 S
C375 C378 1.386 . S
C376 C372 1.429 . S
C376 N374 1.377 1_655 S
C376 C379 1.411 . S
C377 H359 0.930 . S
C377 N374 1.321 . S
C377 C375 1.400 1_455 S
C378 H373 0.930 . S
C378 C375 1.386 . S
C378 C379 1.395 . S
C379 C376 1.411 . S
C379 C378 1.395 . S
C379 C401 1.420 . S
O380 Eu336 2.558 1_655 S
O380 C400 1.257 . S
O381 Eu336 2.612 1_554 S
O381 Eu347 2.380 . S
O381 C392 1.276 . S
O382 Eu347 2.432 . S
O382 C399 1.264 . S
O383 Eu336 2.339 1_554 S
O383 C399 1.254 . S
O384 Eu336 2.563 . S
O384 C392 1.235 1_556 S
O385 Eu336 2.419 1_654 S
O385 C400 1.249 1_554 S
O386 Eu347 2.558 . S
O386 C411 1.257 . S
O387 Eu336 2.380 1_554 S
O387 Eu347 2.612 . S
O387 C403 1.276 1_545 S
O388 Eu336 2.432 . S
O388 C410 1.264 . S
O389 Eu347 2.339 1_556 S
O389 C410 1.254 . S
O390 Eu347 2.597 . S
O390 C403 1.232 1_545 S
O391 Eu347 2.419 . S
O391 C411 1.249 . S
C392 O381 1.276 . S
C392 O384 1.235 1_554 S
C393 C395 1.393 . S
C393 C397 1.395 . S
C393 C400 1.492 . S
C394 C395 1.392 . S
C394 C396 1.386 . S
C395 C393 1.393 . S
C395 C394 1.392 . S
C395 H412 0.930 1_556 S
C396 C394 1.386 . S
C396 C398 1.395 . S
C396 H413 0.930 . S
C397 C393 1.395 . S
C397 C398 1.379 . S
C397 H414 0.930 1_545 S
C398 C396 1.395 . S
C398 C397 1.379 . S
C398 H415 0.932 . S
C399 O382 1.264 . S
C399 O383 1.254 . S
C400 Eu336 2.848 1_655 S
C400 O380 1.257 . S
C400 O385 1.249 1_556 S
C400 C393 1.492 . S
C401 H366 0.931 . S
C401 C379 1.420 . S
C401 C402 1.351 . S
C402 H364 0.930 . S
C402 C370 1.423 1_556 S
C402 C401 1.351 . S
C403 O387 1.276 1_565 S
C403 O390 1.232 1_565 S
C404 C405 1.393 . S
C404 C408 1.395 . S
C404 C411 1.492 . S
C405 C404 1.393 . S
C405 C406 1.392 . S
C405 H416 0.930 . S
C406 C405 1.392 . S
C406 C407 1.386 . S
C407 C406 1.386 . S
C407 C409 1.395 . S
C407 H417 0.930 . S
C408 C404 1.395 . S
C408 C409 1.379 . S
C408 H418 0.930 . S
C409 C407 1.395 . S
C409 C408 1.379 . S
C409 H419 0.930 . S
C410 O388 1.264 . S
C410 O389 1.254 . S
C411 Eu347 2.848 . S
C411 O386 1.257 . S
C411 O391 1.249 . S
C411 C404 1.492 . S
H412 C395 0.930 1_554 S
H413 C396 0.930 . S
H414 C397 0.930 1_565 S
H415 C398 0.932 . S
H416 C405 0.930 . S
H417 C407 0.930 . S
H418 C408 0.930 . S
H419 C409 0.930 . S
Eu420 N451 2.657 . S
Eu420 N458 2.609 . S
Eu420 O464 2.558 . S
Eu420 O465 2.612 . S
Eu420 O467 2.339 . S
Eu420 O468 2.563 . S
Eu420 O469 2.419 . S
Eu420 O471 2.380 . S
Eu420 O472 2.432 . S
Eu420 C484 2.848 . S
C421 C424 1.429 . S
C421 C425 1.411 . S
C421 N428 1.377 . S
C422 C424 1.420 . S
C422 C426 1.423 . S
C422 C434 1.392 . S
C423 C425 1.420 . S
C423 C426 1.351 . S
C423 H446 0.931 . S
C424 C421 1.429 . S
C424 C422 1.420 . S
C424 N432 1.362 . S
C425 C421 1.411 . S
C425 C423 1.420 . S
C425 C430 1.395 . S
C426 C422 1.423 . S
C426 C423 1.351 . S
C426 H438 0.930 . S
C427 C429 1.400 . S
C427 C430 1.386 . S
C427 H439 0.930 . S
N428 C421 1.377 . S
N428 C429 1.321 . S
N428 Eu431 2.609 . S
C429 C427 1.400 . S
C429 N428 1.321 . S
C429 H436 0.930 . S
C430 C425 1.395 . S
C430 C427 1.386 . S
C430 H449 0.930 . S
Eu431 N428 2.609 . S
Eu431 N432 2.657 . S
Eu431 O465 2.380 . S
Eu431 O466 2.432 . S
Eu431 O470 2.558 . S
Eu431 O471 2.612 . S
Eu431 O473 2.339 . S
Eu431 O474 2.563 . S
Eu431 O475 2.419 . S
Eu431 C495 2.848 . S
N432 C424 1.362 . S
N432 Eu431 2.657 . S
N432 C433 1.334 . S
C433 N432 1.334 . S
C433 C435 1.413 . S
C433 H440 0.929 . S
C434 C422 1.392 . S
C434 C435 1.367 . S
C434 H442 0.930 . S
C435 C433 1.413 . S
C435 C434 1.367 . S
C435 H437 0.930 . S
H436 C429 0.930 . S
H437 C435 0.930 . S
H438 C426 0.930 . S
H439 C427 0.930 . S
H440 C433 0.929 . S
H441 C455 0.930 . S
H442 C434 0.930 . S
H443 C461 0.930 . S
H444 C452 0.929 . S
H445 C459 0.930 . S
H446 C423 0.931 . S
H447 C453 0.930 . S
H448 C486 0.930 . S
H449 C430 0.930 . S
H450 C485 0.931 . S
N451 Eu420 2.657 . S
N451 C452 1.334 . S
N451 C456 1.362 . S
C452 H444 0.929 . S
C452 N451 1.334 . S
C452 C455 1.413 . S
C453 H447 0.930 . S
C453 C454 1.392 . S
C453 C455 1.367 . S
C454 C453 1.392 . S
C454 C456 1.420 . S
C454 C486 1.423 . S
C455 H441 0.930 . S
C455 C452 1.413 . S
C455 C453 1.367 . S
C456 N451 1.362 . S
C456 C454 1.420 . S
C456 C460 1.429 . S
H457 C462 0.930 . S
N458 Eu420 2.609 . S
N458 C460 1.377 . S
N458 C461 1.321 . S
C459 H445 0.930 . S
C459 C461 1.400 . S
C459 C462 1.386 . S
C460 C456 1.429 . S
C460 N458 1.377 . S
C460 C463 1.411 . S
C461 H443 0.930 . S
C461 N458 1.321 . S
C461 C459 1.400 . S
C462 H457 0.930 . S
C462 C459 1.386 . S
C462 C463 1.395 . S
C463 C460 1.411 . S
C463 C462 1.395 . S
C463 C485 1.420 . S
O464 Eu420 2.558 . S
O464 C484 1.257 . S
O465 Eu420 2.612 . S
O465 Eu431 2.380 . S
O465 C476 1.276 . S
O466 Eu431 2.432 . S
O466 C483 1.264 . S
O467 Eu420 2.339 . S
O467 C483 1.254 . S
O468 Eu420 2.563 . S
O468 C476 1.235 . S
O469 Eu420 2.419 . S
O469 C484 1.249 . S
O470 Eu431 2.558 . S
O470 C495 1.257 . S
O471 Eu420 2.380 . S
O471 Eu431 2.612 . S
O471 C487 1.276 . S
O472 Eu420 2.432 . S
O472 C494 1.264 . S
O473 Eu431 2.339 . S
O473 C494 1.254 . S
O474 Eu431 2.563 . S
O474 C487 1.235 . S
O475 Eu431 2.419 . S
O475 C495 1.249 . S
C476 O465 1.276 . S
C476 O468 1.235 . S
C477 C479 1.393 . S
C477 C481 1.395 . S
C477 C484 1.492 . S
C478 C479 1.392 . S
C478 C480 1.386 . S
C479 C477 1.393 . S
C479 C478 1.392 . S
C479 H496 0.930 . S
C480 C478 1.386 . S
C480 C482 1.395 . S
C480 H497 0.930 . S
C481 C477 1.395 . S
C481 C482 1.379 . S
C481 H498 0.930 . S
C482 C480 1.395 . S
C482 C481 1.379 . S
C482 H499 0.930 . S
C483 O466 1.264 . S
C483 O467 1.254 . S
C484 Eu420 2.848 . S
C484 O464 1.257 . S
C484 O469 1.249 . S
C484 C477 1.492 . S
C485 H450 0.931 . S
C485 C463 1.420 . S
C485 C486 1.351 . S
C486 H448 0.930 . S
C486 C454 1.423 . S
C486 C485 1.351 . S
C487 O471 1.276 . S
C487 O474 1.235 . S
C488 C489 1.393 . S
C488 C492 1.395 . S
C488 C495 1.492 . S
C489 C488 1.393 . S
C489 C490 1.392 . S
C489 H500 0.930 . S
C490 C489 1.392 . S
C490 C491 1.386 . S
C491 C490 1.386 . S
C491 C493 1.395 . S
C491 H501 0.930 . S
C492 C488 1.395 . S
C492 C493 1.379 . S
C492 H502 0.930 . S
C493 C491 1.395 . S
C493 C492 1.379 . S
C493 H503 0.930 . S
C494 O472 1.264 . S
C494 O473 1.254 . S
C495 Eu431 2.848 . S
C495 O470 1.257 . S
C495 O475 1.249 . S
C495 C488 1.492 . S
H496 C479 0.930 . S
H497 C480 0.930 . S
H498 C481 0.930 . S
H499 C482 0.930 . S
H500 C489 0.930 . S
H501 C491 0.930 . S
H502 C492 0.930 . S
H503 C493 0.930 . S
Eu504 N535 2.657 . S
Eu504 N542 2.609 . S
Eu504 O548 2.558 . S
Eu504 O549 2.612 . S
Eu504 O551 2.339 . S
Eu504 O552 2.563 1_545 S
Eu504 O553 2.419 . S
Eu504 O555 2.380 . S
Eu504 O556 2.432 . S
Eu504 C568 2.848 . S
C505 C508 1.429 . S
C505 C509 1.411 . S
C505 N512 1.377 1_565 S
C506 C508 1.420 . S
C506 C510 1.423 . S
C506 C518 1.392 . S
C507 C509 1.420 . S
C507 C510 1.351 . S
C507 H530 0.931 . S
C508 C505 1.429 . S
C508 C506 1.420 . S
C508 N516 1.362 . S
C509 C505 1.411 . S
C509 C507 1.420 . S
C509 C514 1.395 . S
C510 C506 1.423 . S
C510 C507 1.351 . S
C510 H522 0.930 . S
C511 C513 1.400 . S
C511 C514 1.386 1_545 S
C511 H523 0.930 . S
N512 C505 1.377 1_545 S
N512 C513 1.321 . S
N512 Eu515 2.609 . S
C513 C511 1.400 . S
C513 N512 1.321 . S
C513 H520 0.930 . S
C514 C509 1.395 . S
C514 C511 1.386 1_565 S
C514 H533 0.930 . S
Eu515 N512 2.609 . S
Eu515 N516 2.657 1_545 S
Eu515 O549 2.380 . S
Eu515 O550 2.432 . S
Eu515 O554 2.558 . S
Eu515 O555 2.612 . S
Eu515 O557 2.339 . S
Eu515 O558 2.563 . S
Eu515 O559 2.419 . S
Eu515 C579 2.848 . S
N516 C508 1.362 . S
N516 Eu515 2.657 1_565 S
N516 C517 1.334 . S
C517 N516 1.334 . S
C517 C519 1.413 . S
C517 H524 0.929 . S
C518 C506 1.392 . S
C518 C519 1.367 . S
C518 H526 0.930 . S
C519 C517 1.413 . S
C519 C518 1.367 . S
C519 H521 0.930 . S
H520 C513 0.930 . S
H521 C519 0.930 . S
H522 C510 0.930 . S
H523 C511 0.930 . S
H524 C517 0.929 . S
H525 C539 0.930 . S
H526 C518 0.930 . S
H527 C545 0.930 . S
H528 C536 0.929 . S
H529 C543 0.930 . S
H530 C507 0.931 . S
H531 C537 0.930 . S
H532 C570 0.930 . S
H533 C514 0.930 . S
H534 C569 0.931 . S
N535 Eu504 2.657 . S
N535 C536 1.334 . S
N535 C540 1.362 . S
C536 H528 0.929 . S
C536 N535 1.334 . S
C536 C539 1.413 . S
C537 H531 0.930 . S
C537 C538 1.392 . S
C537 C539 1.367 . S
C538 C537 1.392 . S
C538 C540 1.420 . S
C538 C570 1.423 . S
C539 H525 0.930 . S
C539 C536 1.413 . S
C539 C537 1.367 . S
C540 N535 1.362 . S
C540 C538 1.420 . S
C540 C544 1.429 . S
H541 C546 0.930 . S
N542 Eu504 2.609 . S
N542 C544 1.377 . S
N542 C545 1.321 . S
C543 H529 0.930 . S
C543 C545 1.400 . S
C543 C546 1.386 . S
C544 C540 1.429 . S
C544 N542 1.377 . S
C544 C547 1.411 . S
C545 H527 0.930 . S
C545 N542 1.321 . S
C545 C543 1.400 . S
C546 H541 0.930 . S
C546 C543 1.386 . S
C546 C547 1.395 . S
C547 C544 1.411 . S
C547 C546 1.395 . S
C547 C569 1.420 . S
O548 Eu504 2.558 . S
O548 C568 1.257 . S
O549 Eu504 2.612 . S
O549 Eu515 2.380 . S
O549 C560 1.276 1_545 S
O550 Eu515 2.432 . S
O550 C567 1.264 . S
O551 Eu504 2.339 . S
O551 C567 1.254 . S
O552 Eu504 2.563 1_565 S
O552 C560 1.235 . S
O553 Eu504 2.419 . S
O553 C568 1.249 . S
O554 Eu515 2.558 . S
O554 C579 1.257 . S
O555 Eu504 2.380 . S
O555 Eu515 2.612 . S
O555 C571 1.276 . S
O556 Eu504 2.432 . S
O556 C578 1.264 . S
O557 Eu515 2.339 . S
O557 C578 1.254 . S
O558 Eu515 2.563 . S
O558 C571 1.235 . S
O559 Eu515 2.419 . S
O559 C579 1.249 . S
C560 O549 1.276 1_565 S
C560 O552 1.235 . S
C561 C563 1.393 1_545 S
C561 C565 1.397 1_545 S
C561 C568 1.492 . S
C562 C563 1.392 . S
C562 C564 1.386 . S
C563 C561 1.393 1_565 S
C563 C562 1.392 . S
C563 H580 0.930 . S
C564 C562 1.386 . S
C564 C566 1.395 . S
C564 H581 0.930 . S
C565 C561 1.397 1_565 S
C565 C566 1.397 . S
C565 H582 0.911 1_565 S
C566 C564 1.395 . S
C566 C565 1.397 . S
C566 H583 0.930 . S
C567 O550 1.264 . S
C567 O551 1.254 . S
C568 Eu504 2.848 . S
C568 O548 1.257 . S
C568 O553 1.249 . S
C568 C561 1.492 . S
C569 H534 0.931 . S
C569 C547 1.420 . S
C569 C570 1.351 . S
C570 H532 0.930 . S
C570 C538 1.423 . S
C570 C569 1.351 . S
C571 O555 1.276 . S
C571 O558 1.235 . S
C572 C573 1.393 . S
C572 C576 1.395 . S
C572 C579 1.492 . S
C573 C572 1.393 . S
C573 C574 1.392 . S
C573 H584 0.930 . S
C574 C573 1.392 . S
C574 C575 1.386 . S
C575 C574 1.386 . S
C575 C577 1.395 . S
C575 H585 0.930 . S
C576 C572 1.395 . S
C576 C577 1.379 . S
C576 H586 0.930 . S
C577 C575 1.395 . S
C577 C576 1.379 . S
C577 H587 0.930 . S
C578 O556 1.264 . S
C578 O557 1.254 . S
C579 Eu515 2.848 . S
C579 O554 1.257 . S
C579 O559 1.249 . S
C579 C572 1.492 . S
H580 C563 0.930 . S
H581 C564 0.930 . S
H582 C565 0.911 1_545 S
H583 C566 0.930 . S
H584 C573 0.930 . S
H585 C575 0.930 . S
H586 C576 0.930 . S
H587 C577 0.930 . S
Eu588 N619 2.657 . S
Eu588 N626 2.609 . S
Eu588 O632 2.558 . S
Eu588 O633 2.612 . S
Eu588 O635 2.339 . S
Eu588 O636 2.563 . S
Eu588 O637 2.419 . S
Eu588 O639 2.380 . S
Eu588 O640 2.432 . S
Eu588 C652 2.848 . S
C589 C592 1.429 . S
C589 C593 1.411 . S
C589 N596 1.377 . S
C590 C592 1.420 . S
C590 C594 1.423 . S
C590 C602 1.392 . S
C591 C593 1.420 . S
C591 C594 1.351 . S
C591 H614 0.931 . S
C592 C589 1.429 . S
C592 C590 1.420 . S
C592 N600 1.362 . S
C593 C589 1.411 . S
C593 C591 1.420 . S
C593 C598 1.395 . S
C594 C590 1.423 . S
C594 C591 1.351 . S
C594 H606 0.930 . S
C595 C597 1.400 . S
C595 C598 1.386 . S
C595 H607 0.930 . S
N596 C589 1.377 . S
N596 C597 1.321 . S
N596 Eu599 2.609 . S
C597 C595 1.400 . S
C597 N596 1.321 . S
C597 H604 0.930 . S
C598 C593 1.395 . S
C598 C595 1.386 . S
C598 H617 0.930 . S
Eu599 N596 2.609 . S
Eu599 N600 2.657 . S
Eu599 O633 2.380 . S
Eu599 O634 2.432 . S
Eu599 O638 2.558 . S
Eu599 O639 2.612 . S
Eu599 O641 2.339 . S
Eu599 O642 2.563 . S
Eu599 O643 2.419 . S
Eu599 C663 2.848 . S
N600 C592 1.362 . S
N600 Eu599 2.657 . S
N600 C601 1.334 . S
C601 N600 1.334 . S
C601 C603 1.413 . S
C601 H608 0.929 . S
C602 C590 1.392 . S
C602 C603 1.367 . S
C602 H610 0.930 . S
C603 C601 1.413 . S
C603 C602 1.367 . S
C603 H605 0.930 . S
H604 C597 0.930 . S
H605 C603 0.930 . S
H606 C594 0.930 . S
H607 C595 0.930 . S
H608 C601 0.929 . S
H609 C623 0.930 . S
H610 C602 0.930 . S
H611 C629 0.930 . S
H612 C620 0.929 . S
H613 C627 0.930 . S
H614 C591 0.931 . S
H615 C621 0.930 . S
H616 C654 0.930 . S
H617 C598 0.930 . S
H618 C653 0.931 . S
N619 Eu588 2.657 . S
N619 C620 1.334 . S
N619 C624 1.362 . S
C620 H612 0.929 . S
C620 N619 1.334 . S
C620 C623 1.413 . S
C621 H615 0.930 . S
C621 C622 1.392 . S
C621 C623 1.367 . S
C622 C621 1.392 . S
C622 C624 1.420 . S
C622 C654 1.423 . S
C623 H609 0.930 . S
C623 C620 1.413 . S
C623 C621 1.367 . S
C624 N619 1.362 . S
C624 C622 1.420 . S
C624 C628 1.429 . S
H625 C630 0.930 . S
N626 Eu588 2.609 . S
N626 C628 1.377 . S
N626 C629 1.321 . S
C627 H613 0.930 . S
C627 C629 1.400 . S
C627 C630 1.386 . S
C628 C624 1.429 . S
C628 N626 1.377 . S
C628 C631 1.411 . S
C629 H611 0.930 . S
C629 N626 1.321 . S
C629 C627 1.400 . S
C630 H625 0.930 . S
C630 C627 1.386 . S
C630 C631 1.395 . S
C631 C628 1.411 . S
C631 C630 1.395 . S
C631 C653 1.420 . S
O632 Eu588 2.558 . S
O632 C652 1.257 . S
O633 Eu588 2.612 . S
O633 Eu599 2.380 . S
O633 C644 1.276 . S
O634 Eu599 2.432 . S
O634 C651 1.264 . S
O635 Eu588 2.339 . S
O635 C651 1.254 . S
O636 Eu588 2.563 . S
O636 C644 1.235 . S
O637 Eu588 2.419 . S
O637 C652 1.249 . S
O638 Eu599 2.558 . S
O638 C663 1.257 . S
O639 Eu588 2.380 . S
O639 Eu599 2.612 . S
O639 C655 1.276 . S
O640 Eu588 2.432 . S
O640 C662 1.264 . S
O641 Eu599 2.339 . S
O641 C662 1.254 . S
O642 Eu599 2.563 . S
O642 C655 1.235 . S
O643 Eu599 2.419 . S
O643 C663 1.249 . S
C644 O633 1.276 . S
C644 O636 1.235 . S
C645 C647 1.393 . S
C645 C649 1.395 . S
C645 C652 1.492 . S
C646 C647 1.392 . S
C646 C648 1.386 . S
C647 C645 1.393 . S
C647 C646 1.392 . S
C647 H664 0.930 . S
C648 C646 1.386 . S
C648 C650 1.395 . S
C648 H665 0.930 . S
C649 C645 1.395 . S
C649 C650 1.379 . S
C649 H666 0.930 . S
C650 C648 1.395 . S
C650 C649 1.379 . S
C650 H667 0.930 . S
C651 O634 1.264 . S
C651 O635 1.254 . S
C652 Eu588 2.848 . S
C652 O632 1.257 . S
C652 O637 1.249 . S
C652 C645 1.492 . S
C653 H618 0.931 . S
C653 C631 1.420 . S
C653 C654 1.351 . S
C654 H616 0.930 . S
C654 C622 1.423 . S
C654 C653 1.351 . S
C655 O639 1.276 . S
C655 O642 1.235 . S
C656 C657 1.393 . S
C656 C660 1.395 . S
C656 C663 1.492 . S
C657 C656 1.393 . S
C657 C658 1.392 . S
C657 H668 0.930 . S
C658 C657 1.392 . S
C658 C659 1.386 . S
C659 C658 1.386 . S
C659 C661 1.395 . S
C659 H669 0.930 . S
C660 C656 1.395 . S
C660 C661 1.379 . S
C660 H670 0.930 . S
C661 C659 1.395 . S
C661 C660 1.379 . S
C661 H671 0.930 . S
C662 O640 1.264 . S
C662 O641 1.254 . S
C663 Eu599 2.848 . S
C663 O638 1.257 . S
C663 O643 1.249 . S
C663 C656 1.492 . S
H664 C647 0.930 . S
H665 C648 0.930 . S
H666 C649 0.930 . S
H667 C650 0.930 . S
H668 C657 0.930 . S
H669 C659 0.930 . S
H670 C660 0.930 . S
H671 C661 0.930 . S
Eu672 N703 2.657 . S
Eu672 N710 2.609 . S
Eu672 O716 2.558 . S
Eu672 O717 2.612 . S
Eu672 O719 2.339 . S
Eu672 O720 2.563 . S
Eu672 O721 2.419 . S
Eu672 O723 2.380 . S
Eu672 O724 2.432 . S
Eu672 C736 2.848 . S
C673 C676 1.429 . S
C673 C677 1.411 . S
C673 N680 1.377 . S
C674 C676 1.420 . S
C674 C678 1.423 . S
C674 C686 1.392 1_455 S
C675 C677 1.420 . S
C675 C678 1.351 . S
C675 H698 0.931 . S
C676 C673 1.429 . S
C676 C674 1.420 . S
C676 N684 1.362 . S
C677 C673 1.411 . S
C677 C675 1.420 . S
C677 C682 1.395 . S
C678 C674 1.423 . S
C678 C675 1.351 . S
C678 H690 0.930 . S
C679 C681 1.400 . S
C679 C682 1.386 . S
C679 H691 0.930 . S
N680 C673 1.377 . S
N680 C681 1.321 . S
N680 Eu683 2.609 . S
C681 C679 1.400 . S
C681 N680 1.321 . S
C681 H688 0.930 . S
C682 C677 1.395 . S
C682 C679 1.386 . S
C682 H701 0.930 . S
Eu683 N680 2.609 . S
Eu683 N684 2.657 . S
Eu683 O717 2.380 1_565 S
Eu683 O718 2.432 1_565 S
Eu683 O722 2.558 . S
Eu683 O723 2.612 1_565 S
Eu683 O725 2.339 . S
Eu683 O726 2.563 1_565 S
Eu683 O727 2.419 . S
Eu683 C747 2.848 . S
N684 C676 1.362 . S
N684 Eu683 2.657 . S
N684 C685 1.334 . S
C685 N684 1.334 . S
C685 C687 1.413 1_455 S
C685 H692 0.937 . S
C686 C674 1.392 1_655 S
C686 C687 1.367 . S
C686 H694 0.930 . S
C687 C685 1.413 1_655 S
C687 C686 1.367 . S
C687 H689 0.930 . S
H688 C681 0.930 . S
H689 C687 0.930 . S
H690 C678 0.930 . S
H691 C679 0.930 . S
H692 C685 0.937 . S
H693 C707 0.930 . S
H694 C686 0.930 . S
H695 C713 0.923 1_655 S
H696 C704 0.929 . S
H697 C711 0.930 . S
H698 C675 0.931 . S
H699 C705 0.930 . S
H700 C738 0.930 . S
H701 C682 0.930 . S
H702 C737 0.931 . S
N703 Eu672 2.657 . S
N703 C704 1.334 . S
N703 C708 1.362 . S
C704 H696 0.929 . S
C704 N703 1.334 . S
C704 C707 1.413 . S
C705 H699 0.930 . S
C705 C706 1.392 . S
C705 C707 1.367 . S
C706 C705 1.392 . S
C706 C708 1.420 . S
C706 C738 1.423 . S
C707 H693 0.930 . S
C707 C704 1.413 . S
C707 C705 1.367 . S
C708 N703 1.362 . S
C708 C706 1.420 . S
C708 C712 1.429 . S
H709 C714 0.930 . S
N710 Eu672 2.609 . S
N710 C712 1.377 . S
N710 C713 1.321 . S
C711 H697 0.930 . S
C711 C713 1.400 1_655 S
C711 C714 1.386 1_655 S
C712 C708 1.429 . S
C712 N710 1.377 . S
C712 C715 1.411 . S
C713 H695 0.923 1_455 S
C713 N710 1.321 . S
C713 C711 1.400 1_455 S
C714 H709 0.930 . S
C714 C711 1.386 1_455 S
C714 C715 1.395 . S
C715 C712 1.411 . S
C715 C714 1.395 . S
C715 C737 1.420 . S
O716 Eu672 2.558 . S
O716 C736 1.257 . S
O717 Eu672 2.612 . S
O717 Eu683 2.380 1_545 S
O717 C728 1.276 . S
O718 Eu683 2.432 1_545 S
O718 C735 1.264 . S
O719 Eu672 2.339 . S
O719 C735 1.254 . S
O720 Eu672 2.563 . S
O720 C728 1.235 . S
O721 Eu672 2.419 . S
O721 C736 1.249 . S
O722 Eu683 2.558 . S
O722 C747 1.257 . S
O723 Eu672 2.380 . S
O723 Eu683 2.612 1_545 S
O723 C739 1.276 . S
O724 Eu672 2.432 . S
O724 C746 1.264 . S
O725 Eu683 2.339 . S
O725 C746 1.254 1_565 S
O726 Eu683 2.563 1_545 S
O726 C739 1.235 . S
O727 Eu683 2.419 . S
O727 C747 1.249 . S
C728 O717 1.276 . S
C728 O720 1.235 . S
C729 C731 1.393 . S
C729 C733 1.395 . S
C729 C736 1.492 . S
C730 C731 1.392 . S
C730 C732 1.386 . S
C731 C729 1.393 . S
C731 C730 1.392 . S
C731 H748 0.930 . S
C732 C730 1.386 . S
C732 C734 1.395 . S
C732 H749 0.930 . S
C733 C729 1.395 . S
C733 C734 1.379 . S
C733 H750 0.930 . S
C734 C732 1.395 . S
C734 C733 1.379 . S
C734 H751 0.930 . S
C735 O718 1.264 . S
C735 O719 1.254 . S
C736 Eu672 2.848 . S
C736 O716 1.257 . S
C736 O721 1.249 . S
C736 C729 1.492 . S
C737 H702 0.931 . S
C737 C715 1.420 . S
C737 C738 1.351 . S
C738 H700 0.930 . S
C738 C706 1.423 . S
C738 C737 1.351 . S
C739 O723 1.276 . S
C739 O726 1.235 . S
C740 C741 1.393 . S
C740 C744 1.395 . S
C740 C747 1.492 . S
C741 C740 1.393 . S
C741 C742 1.392 . S
C741 H752 0.930 . S
C742 C741 1.392 . S
C742 C743 1.386 . S
C743 C742 1.386 . S
C743 C745 1.395 . S
C743 H753 0.930 . S
C744 C740 1.395 . S
C744 C745 1.379 . S
C744 H754 0.930 . S
C745 C743 1.395 . S
C745 C744 1.379 . S
C745 H755 0.930 . S
C746 O724 1.264 . S
C746 O725 1.254 1_545 S
C747 Eu683 2.848 . S
C747 O722 1.257 . S
C747 O727 1.249 . S
C747 C740 1.492 . S
H748 C731 0.930 . S
H749 C732 0.930 . S
H750 C733 0.930 . S
H751 C734 0.930 . S
H752 C741 0.930 . S
H753 C743 0.930 . S
H754 C744 0.930 . S
H755 C745 0.930 . S
Eu756 N787 2.657 . S
Eu756 N794 2.609 . S
Eu756 O800 2.558 . S
Eu756 O801 2.612 . S
Eu756 O803 2.339 . S
Eu756 O804 2.563 . S
Eu756 O805 2.419 . S
Eu756 O807 2.380 . S
Eu756 O808 2.432 . S
Eu756 C820 2.848 . S
C757 C760 1.429 . S
C757 C761 1.411 . S
C757 N764 1.377 . S
C758 C760 1.420 . S
C758 C762 1.423 . S
C758 C770 1.392 . S
C759 C761 1.420 . S
C759 C762 1.351 . S
C759 H782 0.931 . S
C760 C757 1.429 . S
C760 C758 1.420 . S
C760 N768 1.362 . S
C761 C757 1.411 . S
C761 C759 1.420 . S
C761 C766 1.395 . S
C762 C758 1.423 . S
C762 C759 1.351 . S
C762 H774 0.930 . S
C763 C765 1.400 . S
C763 C766 1.386 . S
C763 H775 0.930 . S
N764 C757 1.377 . S
N764 C765 1.321 . S
N764 Eu767 2.609 . S
C765 C763 1.400 . S
C765 N764 1.321 . S
C765 H772 0.930 . S
C766 C761 1.395 . S
C766 C763 1.386 . S
C766 H785 0.930 . S
Eu767 N764 2.609 . S
Eu767 N768 2.657 . S
Eu767 O801 2.380 . S
Eu767 O802 2.432 . S
Eu767 O806 2.558 . S
Eu767 O807 2.612 . S
Eu767 O809 2.339 . S
Eu767 O810 2.563 . S
Eu767 O811 2.419 . S
Eu767 C831 2.848 . S
N768 C760 1.362 . S
N768 Eu767 2.657 . S
N768 C769 1.334 . S
C769 N768 1.334 . S
C769 C771 1.413 . S
C769 H776 0.929 . S
C770 C758 1.392 . S
C770 C771 1.367 . S
C770 H778 0.930 . S
C771 C769 1.413 . S
C771 C770 1.367 . S
C771 H773 0.930 . S
H772 C765 0.930 . S
H773 C771 0.930 . S
H774 C762 0.930 . S
H775 C763 0.930 . S
H776 C769 0.929 . S
H777 C791 0.930 . S
H778 C770 0.930 . S
H779 C797 0.930 . S
H780 C788 0.929 . S
H781 C795 0.930 . S
H782 C759 0.931 . S
H783 C789 0.930 . S
H784 C822 0.930 . S
H785 C766 0.930 . S
H786 C821 0.931 . S
N787 Eu756 2.657 . S
N787 C788 1.334 . S
N787 C792 1.362 . S
C788 H780 0.929 . S
C788 N787 1.334 . S
C788 C791 1.413 . S
C789 H783 0.930 . S
C789 C790 1.392 . S
C789 C791 1.367 . S
C790 C789 1.392 . S
C790 C792 1.420 . S
C790 C822 1.423 . S
C791 H777 0.930 . S
C791 C788 1.413 . S
C791 C789 1.367 . S
C792 N787 1.362 . S
C792 C790 1.420 . S
C792 C796 1.429 . S
H793 C798 0.930 . S
N794 Eu756 2.609 . S
N794 C796 1.377 . S
N794 C797 1.321 . S
C795 H781 0.930 . S
C795 C797 1.400 . S
C795 C798 1.386 . S
C796 C792 1.429 . S
C796 N794 1.377 . S
C796 C799 1.411 . S
C797 H779 0.930 . S
C797 N794 1.321 . S
C797 C795 1.400 . S
C798 H793 0.930 . S
C798 C795 1.386 . S
C798 C799 1.395 . S
C799 C796 1.411 . S
C799 C798 1.395 . S
C799 C821 1.420 . S
O800 Eu756 2.558 . S
O800 C820 1.257 . S
O801 Eu756 2.612 . S
O801 Eu767 2.380 . S
O801 C812 1.276 . S
O802 Eu767 2.432 . S
O802 C819 1.264 . S
O803 Eu756 2.339 . S
O803 C819 1.254 . S
O804 Eu756 2.563 . S
O804 C812 1.235 . S
O805 Eu756 2.419 . S
O805 C820 1.249 . S
O806 Eu767 2.558 . S
O806 C831 1.257 . S
O807 Eu756 2.380 . S
O807 Eu767 2.612 . S
O807 C823 1.276 . S
O808 Eu756 2.432 . S
O808 C830 1.264 . S
O809 Eu767 2.339 . S
O809 C830 1.254 . S
O810 Eu767 2.563 . S
O810 C823 1.235 . S
O811 Eu767 2.419 . S
O811 C831 1.249 . S
C812 O801 1.276 . S
C812 O804 1.235 . S
C813 C815 1.393 . S
C813 C817 1.395 . S
C813 C820 1.492 . S
C814 C815 1.392 . S
C814 C816 1.386 . S
C815 C813 1.393 . S
C815 C814 1.392 . S
C815 H832 0.930 . S
C816 C814 1.386 . S
C816 C818 1.395 . S
C816 H833 0.930 . S
C817 C813 1.395 . S
C817 C818 1.379 . S
C817 H834 0.930 . S
C818 C816 1.395 . S
C818 C817 1.379 . S
C818 H835 0.930 . S
C819 O802 1.264 . S
C819 O803 1.254 . S
C820 Eu756 2.848 . S
C820 O800 1.257 . S
C820 O805 1.249 . S
C820 C813 1.492 . S
C821 H786 0.931 . S
C821 C799 1.420 . S
C821 C822 1.351 . S
C822 H784 0.930 . S
C822 C790 1.423 . S
C822 C821 1.351 . S
C823 O807 1.276 . S
C823 O810 1.235 . S
C824 C825 1.393 . S
C824 C828 1.395 . S
C824 C831 1.492 . S
C825 C824 1.393 . S
C825 C826 1.392 . S
C825 H836 0.930 . S
C826 C825 1.392 . S
C826 C827 1.386 . S
C827 C826 1.386 . S
C827 C829 1.395 . S
C827 H837 0.930 . S
C828 C824 1.395 . S
C828 C829 1.379 . S
C828 H838 0.930 . S
C829 C827 1.395 . S
C829 C828 1.379 . S
C829 H839 0.930 . S
C830 O808 1.264 . S
C830 O809 1.254 . S
C831 Eu767 2.848 . S
C831 O806 1.257 . S
C831 O811 1.249 . S
C831 C824 1.492 . S
H832 C815 0.930 . S
H833 C816 0.930 . S
H834 C817 0.930 . S
H835 C818 0.930 . S
H836 C825 0.930 . S
H837 C827 0.930 . S
H838 C828 0.930 . S
H839 C829 0.930 . S
Eu840 N871 2.657 . S
Eu840 N878 2.609 1_545 S
Eu840 O884 2.558 1_545 S
Eu840 O885 2.612 . S
Eu840 O887 2.339 . S
Eu840 O888 2.563 1_545 S
Eu840 O889 2.419 . S
Eu840 O891 2.380 . S
Eu840 O892 2.432 1_545 S
Eu840 C904 2.848 . S
C841 C844 1.429 . S
C841 C845 1.411 . S
C841 N848 1.377 . S
C842 C844 1.420 1_565 S
C842 C846 1.423 1_565 S
C842 C854 1.392 . S
C843 C845 1.420 . S
C843 C846 1.351 . S
C843 H866 0.931 . S
C844 C841 1.429 . S
C844 C842 1.420 1_545 S
C844 N852 1.362 . S
C845 C841 1.411 . S
C845 C843 1.420 . S
C845 C850 1.395 . S
C846 C842 1.423 1_545 S
C846 C843 1.351 . S
C846 H858 0.930 1_545 S
C847 C849 1.400 . S
C847 C850 1.386 . S
C847 H859 0.930 . S
N848 C841 1.377 . S
N848 C849 1.321 . S
N848 Eu851 2.609 . S
C849 C847 1.400 . S
C849 N848 1.321 . S
C849 H856 0.930 . S
C850 C845 1.395 . S
C850 C847 1.386 . S
C850 H869 0.930 . S
Eu851 N848 2.609 . S
Eu851 N852 2.657 . S
Eu851 O885 2.380 1_556 S
Eu851 O886 2.432 1_556 S
Eu851 O890 2.558 . S
Eu851 O891 2.612 1_556 S
Eu851 O893 2.339 1_545 S
Eu851 O894 2.563 . S
Eu851 O895 2.419 . S
Eu851 C915 2.848 . S
N852 C844 1.362 . S
N852 Eu851 2.657 . S
N852 C853 1.334 1_545 S
C853 N852 1.334 1_565 S
C853 C855 1.413 . S
C853 H860 0.929 . S
C854 C842 1.392 . S
C854 C855 1.367 . S
C854 H862 0.930 . S
C855 C853 1.413 . S
C855 C854 1.367 . S
C855 H857 0.930 . S
H856 C849 0.930 . S
H857 C855 0.930 . S
H858 C846 0.930 1_565 S
H859 C847 0.930 . S
H860 C853 0.929 . S
H861 C875 0.930 . S
H862 C854 0.930 . S
H863 C881 0.930 . S
H864 C872 0.929 . S
H865 C879 0.930 . S
H866 C843 0.931 . S
H867 C873 0.930 . S
H868 C906 0.930 . S
H869 C850 0.930 . S
H870 C905 0.931 . S
N871 Eu840 2.657 . S
N871 C872 1.334 . S
N871 C876 1.362 . S
C872 H864 0.929 . S
C872 N871 1.334 . S
C872 C875 1.413 . S
C873 H867 0.930 . S
C873 C874 1.392 . S
C873 C875 1.367 . S
C874 C873 1.392 . S
C874 C876 1.420 . S
C874 C906 1.423 . S
C875 H861 0.930 . S
C875 C872 1.413 . S
C875 C873 1.367 . S
C876 N871 1.362 . S
C876 C874 1.420 . S
C876 C880 1.429 . S
H877 C882 0.930 . S
N878 Eu840 2.609 1_565 S
N878 C880 1.377 1_565 S
N878 C881 1.321 . S
C879 H865 0.930 . S
C879 C881 1.400 . S
C879 C882 1.386 . S
C880 C876 1.429 . S
C880 N878 1.377 1_545 S
C880 C883 1.411 . S
C881 H863 0.930 . S
C881 N878 1.321 . S
C881 C879 1.400 . S
C882 H877 0.930 . S
C882 C879 1.386 . S
C882 C883 1.395 1_565 S
C883 C880 1.411 . S
C883 C882 1.395 1_545 S
C883 C905 1.420 . S
O884 Eu840 2.558 1_565 S
O884 C904 1.257 1_565 S
O885 Eu840 2.612 . S
O885 Eu851 2.380 1_554 S
O885 C896 1.276 . S
O886 Eu851 2.432 1_554 S
O886 C903 1.264 . S
O887 Eu840 2.339 . S
O887 C903 1.254 . S
O888 Eu840 2.563 1_565 S
O888 C896 1.235 1_565 S
O889 Eu840 2.419 . S
O889 C904 1.249 . S
O890 Eu851 2.558 . S
O890 C915 1.257 . S
O891 Eu840 2.380 . S
O891 Eu851 2.612 1_554 S
O891 C907 1.276 . S
O892 Eu840 2.432 1_565 S
O892 C914 1.264 1_554 S
O893 Eu851 2.339 1_565 S
O893 C914 1.254 . S
O894 Eu851 2.563 . S
O894 C907 1.235 1_556 S
O895 Eu851 2.419 . S
O895 C915 1.249 . S
C896 O885 1.276 . S
C896 O888 1.235 1_545 S
C897 C899 1.393 1_565 S
C897 C901 1.395 . S
C897 C904 1.492 1_565 S
C898 C899 1.402 . S
C898 C900 1.361 1_545 S
C899 C897 1.393 1_545 S
C899 C898 1.402 . S
C899 H916 0.930 . S
C900 C898 1.361 1_565 S
C900 C902 1.395 . S
C900 H917 0.930 . S
C901 C897 1.395 . S
C901 C902 1.379 . S
C901 H918 0.930 . S
C902 C900 1.395 . S
C902 C901 1.379 . S
C902 H919 0.930 . S
C903 O886 1.264 . S
C903 O887 1.254 . S
C904 Eu840 2.848 . S
C904 O884 1.257 1_545 S
C904 O889 1.249 . S
C904 C897 1.492 1_545 S
C905 H870 0.931 . S
C905 C883 1.420 . S
C905 C906 1.351 . S
C906 H868 0.930 . S
C906 C874 1.423 . S
C906 C905 1.351 . S
C907 O891 1.276 . S
C907 O894 1.235 1_554 S
C908 C909 1.393 . S
C908 C912 1.395 . S
C908 C915 1.492 . S
C909 C908 1.393 . S
C909 C910 1.392 . S
C909 H920 0.930 . S
C910 C909 1.392 . S
C910 C911 1.386 . S
C911 C910 1.386 . S
C911 C913 1.395 . S
C911 H921 0.930 . S
C912 C908 1.395 . S
C912 C913 1.379 . S
C912 H922 0.930 . S
C913 C911 1.395 . S
C913 C912 1.379 . S
C913 H923 0.930 . S
C914 O892 1.264 1_556 S
C914 O893 1.254 . S
C915 Eu851 2.848 . S
C915 O890 1.257 . S
C915 O895 1.249 . S
C915 C908 1.492 . S
H916 C899 0.930 . S
H917 C900 0.930 . S
H918 C901 0.930 . S
H919 C902 0.930 . S
H920 C909 0.930 . S
H921 C911 0.930 . S
H922 C912 0.930 . S
H923 C913 0.930 . S
Eu924 N955 2.657 . S
Eu924 N962 2.609 . S
Eu924 O968 2.558 . S
Eu924 O969 2.612 . S
Eu924 O971 2.339 . S
Eu924 O972 2.563 . S
Eu924 O973 2.419 . S
Eu924 O975 2.380 . S
Eu924 O976 2.432 . S
Eu924 C988 2.848 . S
C925 C928 1.429 . S
C925 C929 1.411 . S
C925 N932 1.377 . S
C926 C928 1.420 . S
C926 C930 1.423 . S
C926 C938 1.392 . S
C927 C929 1.420 . S
C927 C930 1.351 . S
C927 H950 0.931 . S
C928 C925 1.429 . S
C928 C926 1.420 . S
C928 N936 1.362 . S
C929 C925 1.411 . S
C929 C927 1.420 . S
C929 C934 1.395 . S
C930 C926 1.423 . S
C930 C927 1.351 . S
C930 H942 0.930 . S
C931 C933 1.400 . S
C931 C934 1.386 . S
C931 H943 0.930 . S
N932 C925 1.377 . S
N932 C933 1.321 . S
N932 Eu935 2.609 . S
C933 C931 1.400 . S
C933 N932 1.321 . S
C933 H940 0.930 . S
C934 C929 1.395 . S
C934 C931 1.386 . S
C934 H953 0.930 . S
Eu935 N932 2.609 . S
Eu935 N936 2.657 . S
Eu935 O969 2.380 . S
Eu935 O970 2.432 . S
Eu935 O974 2.558 . S
Eu935 O975 2.612 . S
Eu935 O977 2.339 . S
Eu935 O978 2.563 . S
Eu935 O979 2.419 . S
Eu935 C999 2.848 . S
N936 C928 1.362 . S
N936 Eu935 2.657 . S
N936 C937 1.334 . S
C937 N936 1.334 . S
C937 C939 1.413 . S
C937 H944 0.929 . S
C938 C926 1.392 . S
C938 C939 1.367 . S
C938 H946 0.930 . S
C939 C937 1.413 . S
C939 C938 1.367 . S
C939 H941 0.930 . S
H940 C933 0.930 . S
H941 C939 0.930 . S
H942 C930 0.930 . S
H943 C931 0.930 . S
H944 C937 0.929 . S
H945 C959 0.930 . S
H946 C938 0.930 . S
H947 C965 0.930 . S
H948 C956 0.929 . S
H949 C963 0.930 . S
H950 C927 0.931 . S
H951 C957 0.930 . S
H952 C990 0.930 . S
H953 C934 0.930 . S
H954 C989 0.931 . S
N955 Eu924 2.657 . S
N955 C956 1.334 . S
N955 C960 1.362 . S
C956 H948 0.929 . S
C956 N955 1.334 . S
C956 C959 1.413 . S
C957 H951 0.930 . S
C957 C958 1.392 . S
C957 C959 1.367 . S
C958 C957 1.392 . S
C958 C960 1.420 . S
C958 C990 1.423 . S
C959 H945 0.930 . S
C959 C956 1.413 . S
C959 C957 1.367 . S
C960 N955 1.362 . S
C960 C958 1.420 . S
C960 C964 1.429 . S
H961 C966 0.930 . S
N962 Eu924 2.609 . S
N962 C964 1.377 . S
N962 C965 1.321 . S
C963 H949 0.930 . S
C963 C965 1.400 . S
C963 C966 1.386 . S
C964 C960 1.429 . S
C964 N962 1.377 . S
C964 C967 1.411 . S
C965 H947 0.930 . S
C965 N962 1.321 . S
C965 C963 1.400 . S
C966 H961 0.930 . S
C966 C963 1.386 . S
C966 C967 1.395 . S
C967 C964 1.411 . S
C967 C966 1.395 . S
C967 C989 1.420 . S
O968 Eu924 2.558 . S
O968 C988 1.257 . S
O969 Eu924 2.612 . S
O969 Eu935 2.380 . S
O969 C980 1.276 . S
O970 Eu935 2.432 . S
O970 C987 1.264 . S
O971 Eu924 2.339 . S
O971 C987 1.254 . S
O972 Eu924 2.563 . S
O972 C980 1.235 . S
O973 Eu924 2.419 . S
O973 C988 1.249 . S
O974 Eu935 2.558 . S
O974 C999 1.257 . S
O975 Eu924 2.380 . S
O975 Eu935 2.612 . S
O975 C991 1.276 . S
O976 Eu924 2.432 . S
O976 C998 1.264 . S
O977 Eu935 2.339 . S
O977 C998 1.254 . S
O978 Eu935 2.563 . S
O978 C991 1.235 . S
O979 Eu935 2.419 . S
O979 C999 1.249 . S
C980 O969 1.276 . S
C980 O972 1.235 . S
C981 C983 1.393 . S
C981 C985 1.395 . S
C981 C988 1.492 . S
C982 C983 1.392 . S
C982 C984 1.386 . S
C983 C981 1.393 . S
C983 C982 1.392 . S
C983 H1000 0.930 . S
C984 C982 1.386 . S
C984 C986 1.395 . S
C984 H1001 0.930 . S
C985 C981 1.395 . S
C985 C986 1.379 . S
C985 H1002 0.930 . S
C986 C984 1.395 . S
C986 C985 1.379 . S
C986 H1003 0.930 . S
C987 O970 1.264 . S
C987 O971 1.254 . S
C988 Eu924 2.848 . S
C988 O968 1.257 . S
C988 O973 1.249 . S
C988 C981 1.492 . S
C989 H954 0.931 . S
C989 C967 1.420 . S
C989 C990 1.351 . S
C990 H952 0.930 . S
C990 C958 1.423 . S
C990 C989 1.351 . S
C991 O975 1.276 . S
C991 O978 1.235 . S
C992 C993 1.393 . S
C992 C996 1.395 . S
C992 C999 1.492 . S
C993 C992 1.393 . S
C993 C994 1.392 . S
C993 H1004 0.930 . S
C994 C993 1.392 . S
C994 C995 1.386 . S
C995 C994 1.386 . S
C995 C997 1.395 . S
C995 H1005 0.930 . S
C996 C992 1.395 . S
C996 C997 1.379 . S
C996 H1006 0.930 . S
C997 C995 1.395 . S
C997 C996 1.379 . S
C997 H1007 0.930 . S
C998 O976 1.264 . S
C998 O977 1.254 . S
C999 Eu935 2.848 . S
C999 O974 1.257 . S
C999 O979 1.249 . S
C999 C992 1.492 . S
H1000 C983 0.930 . S
H1001 C984 0.930 . S
H1002 C985 0.930 . S
H1003 C986 0.930 . S
H1004 C993 0.930 . S
H1005 C995 0.930 . S
H1006 C996 0.930 . S
H1007 C997 0.930 . S
Eu1008 N1039 2.657 . S
Eu1008 N1046 2.609 . S
Eu1008 O1052 2.558 . S
Eu1008 O1053 2.612 1_554 S
Eu1008 O1055 2.339 . S
Eu1008 O1056 2.563 1_554 S
Eu1008 O1057 2.419 . S
Eu1008 O1059 2.380 . S
Eu1008 O1060 2.432 . S
Eu1008 C1072 2.848 . S
C1009 C1012 1.429 . S
C1009 C1013 1.411 . S
C1009 N1016 1.377 . S
C1010 C1012 1.420 . S
C1010 C1014 1.423 . S
C1010 C1022 1.392 . S
C1011 C1013 1.420 . S
C1011 C1014 1.351 . S
C1011 H1034 0.931 . S
C1012 C1009 1.429 . S
C1012 C1010 1.420 . S
C1012 N1020 1.362 . S
C1013 C1009 1.411 . S
C1013 C1011 1.420 . S
C1013 C1018 1.395 . S
C1014 C1010 1.423 . S
C1014 C1011 1.351 . S
C1014 H1026 0.930 . S
C1015 C1017 1.400 . S
C1015 C1018 1.386 . S
C1015 H1027 0.930 . S
N1016 C1009 1.377 . S
N1016 C1017 1.321 . S
N1016 Eu1019 2.609 1_556 S
C1017 C1015 1.400 . S
C1017 N1016 1.321 . S
C1017 H1024 0.930 . S
C1018 C1013 1.395 . S
C1018 C1015 1.386 . S
C1018 H1037 0.930 . S
Eu1019 N1016 2.609 1_554 S
Eu1019 N1020 2.657 1_554 S
Eu1019 O1053 2.380 1_554 S
Eu1019 O1054 2.432 . S
Eu1019 O1058 2.558 . S
Eu1019 O1059 2.612 . S
Eu1019 O1061 2.339 . S
Eu1019 O1062 2.563 . S
Eu1019 O1063 2.419 . S
Eu1019 C1083 2.848 . S
N1020 C1012 1.362 . S
N1020 Eu1019 2.657 1_556 S
N1020 C1021 1.334 . S
C1021 N1020 1.334 . S
C1021 C1023 1.413 . S
C1021 H1028 0.929 . S
C1022 C1010 1.392 . S
C1022 C1023 1.367 . S
C1022 H1030 0.930 . S
C1023 C1021 1.413 . S
C1023 C1022 1.367 . S
C1023 H1025 0.930 . S
H1024 C1017 0.930 . S
H1025 C1023 0.930 . S
H1026 C1014 0.930 . S
H1027 C1015 0.930 . S
H1028 C1021 0.929 . S
H1029 C1043 0.930 . S
H1030 C1022 0.930 . S
H1031 C1049 0.930 . S
H1032 C1040 0.929 . S
H1033 C1047 0.930 . S
H1034 C1011 0.931 . S
H1035 C1041 0.930 . S
H1036 C1074 0.930 . S
H1037 C1018 0.930 . S
H1038 C1073 0.931 . S
N1039 Eu1008 2.657 . S
N1039 C1040 1.334 . S
N1039 C1044 1.362 . S
C1040 H1032 0.929 . S
C1040 N1039 1.334 . S
C1040 C1043 1.413 . S
C1041 H1035 0.930 . S
C1041 C1042 1.392 . S
C1041 C1043 1.367 . S
C1042 C1041 1.392 . S
C1042 C1044 1.420 . S
C1042 C1074 1.423 . S
C1043 H1029 0.930 . S
C1043 C1040 1.413 . S
C1043 C1041 1.367 . S
C1044 N1039 1.362 . S
C1044 C1042 1.420 . S
C1044 C1048 1.429 . S
H1045 C1050 0.930 . S
N1046 Eu1008 2.609 . S
N1046 C1048 1.377 . S
N1046 C1049 1.321 . S
C1047 H1033 0.930 . S
C1047 C1049 1.400 . S
C1047 C1050 1.386 . S
C1048 C1044 1.429 . S
C1048 N1046 1.377 . S
C1048 C1051 1.411 . S
C1049 H1031 0.930 . S
C1049 N1046 1.321 . S
C1049 C1047 1.400 . S
C1050 H1045 0.930 . S
C1050 C1047 1.386 . S
C1050 C1051 1.395 . S
C1051 C1048 1.411 . S
C1051 C1050 1.395 . S
C1051 C1073 1.420 . S
O1052 Eu1008 2.558 . S
O1052 C1072 1.257 . S
O1053 Eu1008 2.612 1_556 S
O1053 Eu1019 2.380 1_556 S
O1053 C1064 1.276 . S
O1054 Eu1019 2.432 . S
O1054 C1071 1.264 . S
O1055 Eu1008 2.339 . S
O1055 C1071 1.254 . S
O1056 Eu1008 2.563 1_556 S
O1056 C1064 1.235 . S
O1057 Eu1008 2.419 . S
O1057 C1072 1.249 . S
O1058 Eu1019 2.558 . S
O1058 C1083 1.257 . S
O1059 Eu1008 2.380 . S
O1059 Eu1019 2.612 . S
O1059 C1075 1.276 . S
O1060 Eu1008 2.432 . S
O1060 C1082 1.264 . S
O1061 Eu1019 2.339 . S
O1061 C1082 1.254 . S
O1062 Eu1019 2.563 . S
O1062 C1075 1.235 . S
O1063 Eu1019 2.419 . S
O1063 C1083 1.249 . S
C1064 O1053 1.276 . S
C1064 O1056 1.235 . S
C1065 C1067 1.393 . S
C1065 C1069 1.395 . S
C1065 C1072 1.492 . S
C1066 C1067 1.392 1_556 S
C1066 C1068 1.386 1_556 S
C1067 C1065 1.393 . S
C1067 C1066 1.392 1_554 S
C1067 H1084 0.930 1_554 S
C1068 C1066 1.386 1_554 S
C1068 C1070 1.395 . S
C1068 H1085 0.930 . S
C1069 C1065 1.395 . S
C1069 C1070 1.379 . S
C1069 H1086 0.930 . S
C1070 C1068 1.395 . S
C1070 C1069 1.379 . S
C1070 H1087 0.930 . S
C1071 O1054 1.264 . S
C1071 O1055 1.254 . S
C1072 Eu1008 2.848 . S
C1072 O1052 1.257 . S
C1072 O1057 1.249 . S
C1072 C1065 1.492 . S
C1073 H1038 0.931 . S
C1073 C1051 1.420 . S
C1073 C1074 1.351 . S
C1074 H1036 0.930 . S
C1074 C1042 1.423 . S
C1074 C1073 1.351 . S
C1075 O1059 1.276 . S
C1075 O1062 1.235 . S
C1076 C1077 1.393 . S
C1076 C1080 1.395 . S
C1076 C1083 1.492 . S
C1077 C1076 1.393 . S
C1077 C1078 1.392 . S
C1077 H1088 0.930 . S
C1078 C1077 1.392 . S
C1078 C1079 1.386 . S
C1079 C1078 1.386 . S
C1079 C1081 1.395 . S
C1079 H1089 0.930 . S
C1080 C1076 1.395 . S
C1080 C1081 1.379 . S
C1080 H1090 0.930 1_554 S
C1081 C1079 1.395 . S
C1081 C1080 1.379 . S
C1081 H1091 0.930 . S
C1082 O1060 1.264 . S
C1082 O1061 1.254 . S
C1083 Eu1019 2.848 . S
C1083 O1058 1.257 . S
C1083 O1063 1.249 . S
C1083 C1076 1.492 . S
H1084 C1067 0.930 1_556 S
H1085 C1068 0.930 . S
H1086 C1069 0.930 . S
H1087 C1070 0.930 . S
H1088 C1077 0.930 . S
H1089 C1079 0.930 . S
H1090 C1080 0.930 1_556 S
H1091 C1081 0.930 . S
Eu1092 N1123 2.657 . S
Eu1092 N1130 2.609 . S
Eu1092 O1136 2.558 . S
Eu1092 O1137 2.612 . S
Eu1092 O1139 2.339 . S
Eu1092 O1140 2.563 . S
Eu1092 O1141 2.419 . S
Eu1092 O1143 2.380 . S
Eu1092 O1144 2.432 . S
Eu1092 C1156 2.848 . S
C1093 C1096 1.429 . S
C1093 C1097 1.411 . S
C1093 N1100 1.377 . S
C1094 C1096 1.420 . S
C1094 C1098 1.423 . S
C1094 C1106 1.392 . S
C1095 C1097 1.420 . S
C1095 C1098 1.351 . S
C1095 H1118 0.931 . S
C1096 C1093 1.429 . S
C1096 C1094 1.420 . S
C1096 N1104 1.362 . S
C1097 C1093 1.411 . S
C1097 C1095 1.420 . S
C1097 C1102 1.395 . S
C1098 C1094 1.423 . S
C1098 C1095 1.351 . S
C1098 H1110 0.930 . S
C1099 C1101 1.400 . S
C1099 C1102 1.386 . S
C1099 H1111 0.930 . S
N1100 C1093 1.377 . S
N1100 C1101 1.321 . S
N1100 Eu1103 2.609 . S
C1101 C1099 1.400 . S
C1101 N1100 1.321 . S
C1101 H1108 0.930 . S
C1102 C1097 1.395 . S
C1102 C1099 1.386 . S
C1102 H1121 0.930 . S
Eu1103 N1100 2.609 . S
Eu1103 N1104 2.657 . S
Eu1103 O1137 2.380 . S
Eu1103 O1138 2.432 . S
Eu1103 O1142 2.558 . S
Eu1103 O1143 2.612 . S
Eu1103 O1145 2.339 . S
Eu1103 O1146 2.563 . S
Eu1103 O1147 2.419 . S
Eu1103 C1167 2.848 . S
N1104 C1096 1.362 . S
N1104 Eu1103 2.657 . S
N1104 C1105 1.334 . S
C1105 N1104 1.334 . S
C1105 C1107 1.413 . S
C1105 H1112 0.929 . S
C1106 C1094 1.392 . S
C1106 C1107 1.367 . S
C1106 H1114 0.930 . S
C1107 C1105 1.413 . S
C1107 C1106 1.367 . S
C1107 H1109 0.930 . S
H1108 C1101 0.930 . S
H1109 C1107 0.930 . S
H1110 C1098 0.930 . S
H1111 C1099 0.930 . S
H1112 C1105 0.929 . S
H1113 C1127 0.930 . S
H1114 C1106 0.930 . S
H1115 C1133 0.930 . S
H1116 C1124 0.929 . S
H1117 C1131 0.930 . S
H1118 C1095 0.931 . S
H1119 C1125 0.930 . S
H1120 C1158 0.930 . S
H1121 C1102 0.930 . S
H1122 C1157 0.931 . S
N1123 Eu1092 2.657 . S
N1123 C1124 1.334 . S
N1123 C1128 1.362 . S
C1124 H1116 0.929 . S
C1124 N1123 1.334 . S
C1124 C1127 1.413 . S
C1125 H1119 0.930 . S
C1125 C1126 1.392 . S
C1125 C1127 1.367 . S
C1126 C1125 1.392 . S
C1126 C1128 1.420 . S
C1126 C1158 1.423 . S
C1127 H1113 0.930 . S
C1127 C1124 1.413 . S
C1127 C1125 1.367 . S
C1128 N1123 1.362 . S
C1128 C1126 1.420 . S
C1128 C1132 1.429 . S
H1129 C1134 0.930 . S
N1130 Eu1092 2.609 . S
N1130 C1132 1.377 . S
N1130 C1133 1.321 . S
C1131 H1117 0.930 . S
C1131 C1133 1.400 . S
C1131 C1134 1.386 . S
C1132 C1128 1.429 . S
C1132 N1130 1.377 . S
C1132 C1135 1.411 . S
C1133 H1115 0.930 . S
C1133 N1130 1.321 . S
C1133 C1131 1.400 . S
C1134 H1129 0.930 . S
C1134 C1131 1.386 . S
C1134 C1135 1.395 . S
C1135 C1132 1.411 . S
C1135 C1134 1.395 . S
C1135 C1157 1.420 . S
O1136 Eu1092 2.558 . S
O1136 C1156 1.257 . S
O1137 Eu1092 2.612 . S
O1137 Eu1103 2.380 . S
O1137 C1148 1.276 . S
O1138 Eu1103 2.432 . S
O1138 C1155 1.264 . S
O1139 Eu1092 2.339 . S
O1139 C1155 1.254 . S
O1140 Eu1092 2.563 . S
O1140 C1148 1.235 . S
O1141 Eu1092 2.419 . S
O1141 C1156 1.249 . S
O1142 Eu1103 2.558 . S
O1142 C1167 1.257 . S
O1143 Eu1092 2.380 . S
O1143 Eu1103 2.612 . S
O1143 C1159 1.276 . S
O1144 Eu1092 2.432 . S
O1144 C1166 1.264 . S
O1145 Eu1103 2.339 . S
O1145 C1166 1.254 . S
O1146 Eu1103 2.563 . S
O1146 C1159 1.235 . S
O1147 Eu1103 2.419 . S
O1147 C1167 1.249 . S
C1148 O1137 1.276 . S
C1148 O1140 1.235 . S
C1149 C1151 1.393 . S
C1149 C1153 1.395 . S
C1149 C1156 1.492 . S
C1150 C1151 1.392 . S
C1150 C1152 1.386 . S
C1151 C1149 1.393 . S
C1151 C1150 1.392 . S
C1151 H1168 0.930 . S
C1152 C1150 1.386 . S
C1152 C1154 1.395 . S
C1152 H1169 0.930 . S
C1153 C1149 1.395 . S
C1153 C1154 1.379 . S
C1153 H1170 0.930 . S
C1154 C1152 1.395 . S
C1154 C1153 1.379 . S
C1154 H1171 0.930 . S
C1155 O1138 1.264 . S
C1155 O1139 1.254 . S
C1156 Eu1092 2.848 . S
C1156 O1136 1.257 . S
C1156 O1141 1.249 . S
C1156 C1149 1.492 . S
C1157 H1122 0.931 . S
C1157 C1135 1.420 . S
C1157 C1158 1.351 . S
C1158 H1120 0.930 . S
C1158 C1126 1.423 . S
C1158 C1157 1.351 . S
C1159 O1143 1.276 . S
C1159 O1146 1.235 . S
C1160 C1161 1.393 . S
C1160 C1164 1.395 . S
C1160 C1167 1.492 . S
C1161 C1160 1.393 . S
C1161 C1162 1.392 . S
C1161 H1172 0.930 . S
C1162 C1161 1.392 . S
C1162 C1163 1.386 . S
C1163 C1162 1.386 . S
C1163 C1165 1.395 . S
C1163 H1173 0.930 . S
C1164 C1160 1.395 . S
C1164 C1165 1.379 . S
C1164 H1174 0.930 . S
C1165 C1163 1.395 . S
C1165 C1164 1.379 . S
C1165 H1175 0.930 . S
C1166 O1144 1.264 . S
C1166 O1145 1.254 . S
C1167 Eu1103 2.848 . S
C1167 O1142 1.257 . S
C1167 O1147 1.249 . S
C1167 C1160 1.492 . S
H1168 C1151 0.930 . S
H1169 C1152 0.930 . S
H1170 C1153 0.930 . S
H1171 C1154 0.930 . S
H1172 C1161 0.930 . S
H1173 C1163 0.930 . S
H1174 C1164 0.930 . S
H1175 C1165 0.930 . S
Eu1176 N1207 2.657 . S
Eu1176 N1214 2.609 . S
Eu1176 O1220 2.558 . S
Eu1176 O1221 2.612 . S
Eu1176 O1223 2.339 . S
Eu1176 O1224 2.563 . S
Eu1176 O1225 2.419 . S
Eu1176 O1227 2.380 . S
Eu1176 O1228 2.432 . S
Eu1176 C1240 2.848 . S
C1177 C1180 1.429 1_455 S
C1177 C1181 1.411 1_455 S
C1177 N1184 1.377 . S
C1178 C1180 1.420 . S
C1178 C1182 1.423 . S
C1178 C1190 1.392 . S
C1179 C1181 1.420 . S
C1179 C1182 1.351 . S
C1179 H1202 0.931 . S
C1180 C1177 1.429 1_655 S
C1180 C1178 1.420 . S
C1180 N1188 1.362 1_655 S
C1181 C1177 1.411 1_655 S
C1181 C1179 1.420 . S
C1181 C1186 1.395 . S
C1182 C1178 1.423 . S
C1182 C1179 1.351 . S
C1182 H1194 0.930 . S
C1183 C1185 1.400 . S
C1183 C1186 1.386 1_455 S
C1183 H1195 0.930 . S
N1184 C1177 1.377 . S
N1184 C1185 1.321 . S
N1184 Eu1187 2.609 . S
C1185 C1183 1.400 . S
C1185 N1184 1.321 . S
C1185 H1192 0.930 . S
C1186 C1181 1.395 . S
C1186 C1183 1.386 1_655 S
C1186 H1205 0.930 . S
Eu1187 N1184 2.609 . S
Eu1187 N1188 2.657 . S
Eu1187 O1221 2.380 . S
Eu1187 O1222 2.432 . S
Eu1187 O1226 2.558 . S
Eu1187 O1227 2.612 . S
Eu1187 O1229 2.339 . S
Eu1187 O1230 2.563 . S
Eu1187 O1231 2.419 . S
Eu1187 C1251 2.848 . S
N1188 C1180 1.362 1_455 S
N1188 Eu1187 2.657 . S
N1188 C1189 1.334 . S
C1189 N1188 1.334 . S
C1189 C1191 1.413 1_455 S
C1189 H1196 0.929 . S
C1190 C1178 1.392 . S
C1190 C1191 1.367 . S
C1190 H1198 0.930 . S
C1191 C1189 1.413 1_655 S
C1191 C1190 1.367 . S
C1191 H1193 0.930 . S
H1192 C1185 0.930 . S
H1193 C1191 0.930 . S
H1194 C1182 0.930 . S
H1195 C1183 0.930 . S
H1196 C1189 0.929 . S
H1197 C1211 0.930 . S
H1198 C1190 0.930 . S
H1199 C1217 0.930 . S
H1200 C1208 0.929 . S
H1201 C1215 0.930 . S
H1202 C1179 0.931 . S
H1203 C1209 0.930 . S
H1204 C1242 0.930 . S
H1205 C1186 0.930 . S
H1206 C1241 0.931 . S
N1207 Eu1176 2.657 . S
N1207 C1208 1.334 . S
N1207 C1212 1.362 . S
C1208 H1200 0.929 . S
C1208 N1207 1.334 . S
C1208 C1211 1.413 . S
C1209 H1203 0.930 . S
C1209 C1210 1.392 . S
C1209 C1211 1.367 . S
C1210 C1209 1.392 . S
C1210 C1212 1.420 . S
C1210 C1242 1.423 . S
C1211 H1197 0.930 . S
C1211 C1208 1.413 . S
C1211 C1209 1.367 . S
C1212 N1207 1.362 . S
C1212 C1210 1.420 . S
C1212 C1216 1.429 . S
H1213 C1218 0.930 . S
N1214 Eu1176 2.609 . S
N1214 C1216 1.377 . S
N1214 C1217 1.321 . S
C1215 H1201 0.930 . S
C1215 C1217 1.400 . S
C1215 C1218 1.386 . S
C1216 C1212 1.429 . S
C1216 N1214 1.377 . S
C1216 C1219 1.411 . S
C1217 H1199 0.930 . S
C1217 N1214 1.321 . S
C1217 C1215 1.400 . S
C1218 H1213 0.930 . S
C1218 C1215 1.386 . S
C1218 C1219 1.395 . S
C1219 C1216 1.411 . S
C1219 C1218 1.395 . S
C1219 C1241 1.420 . S
O1220 Eu1176 2.558 . S
O1220 C1240 1.257 . S
O1221 Eu1176 2.612 . S
O1221 Eu1187 2.380 . S
O1221 C1232 1.276 . S
O1222 Eu1187 2.432 . S
O1222 C1239 1.264 . S
O1223 Eu1176 2.339 . S
O1223 C1239 1.254 . S
O1224 Eu1176 2.563 . S
O1224 C1232 1.235 . S
O1225 Eu1176 2.419 . S
O1225 C1240 1.249 . S
O1226 Eu1187 2.558 . S
O1226 C1251 1.257 . S
O1227 Eu1176 2.380 . S
O1227 Eu1187 2.612 . S
O1227 C1243 1.276 . S
O1228 Eu1176 2.432 . S
O1228 C1250 1.264 . S
O1229 Eu1187 2.339 . S
O1229 C1250 1.254 . S
O1230 Eu1187 2.563 . S
O1230 C1243 1.235 . S
O1231 Eu1187 2.419 . S
O1231 C1251 1.249 . S
C1232 O1221 1.276 . S
C1232 O1224 1.235 . S
C1233 C1235 1.393 . S
C1233 C1237 1.395 . S
C1233 C1240 1.492 . S
C1234 C1235 1.392 . S
C1234 C1236 1.386 . S
C1235 C1233 1.393 . S
C1235 C1234 1.392 . S
C1235 H1252 0.930 . S
C1236 C1234 1.386 . S
C1236 C1238 1.395 . S
C1236 H1253 0.933 . S
C1237 C1233 1.395 . S
C1237 C1238 1.379 . S
C1237 H1254 0.930 . S
C1238 C1236 1.395 . S
C1238 C1237 1.379 . S
C1238 H1255 0.930 . S
C1239 O1222 1.264 . S
C1239 O1223 1.254 . S
C1240 Eu1176 2.848 . S
C1240 O1220 1.257 . S
C1240 O1225 1.249 . S
C1240 C1233 1.492 . S
C1241 H1206 0.931 . S
C1241 C1219 1.420 . S
C1241 C1242 1.351 . S
C1242 H1204 0.930 . S
C1242 C1210 1.423 . S
C1242 C1241 1.351 . S
C1243 O1227 1.276 . S
C1243 O1230 1.235 . S
C1244 C1245 1.393 . S
C1244 C1248 1.395 . S
C1244 C1251 1.492 . S
C1245 C1244 1.393 . S
C1245 C1246 1.392 . S
C1245 H1256 0.930 . S
C1246 C1245 1.392 . S
C1246 C1247 1.386 . S
C1247 C1246 1.386 . S
C1247 C1249 1.395 . S
C1247 H1257 0.930 . S
C1248 C1244 1.395 . S
C1248 C1249 1.379 . S
C1248 H1258 0.930 . S
C1249 C1247 1.395 . S
C1249 C1248 1.379 . S
C1249 H1259 0.930 . S
C1250 O1228 1.264 . S
C1250 O1229 1.254 . S
C1251 Eu1187 2.848 . S
C1251 O1226 1.257 . S
C1251 O1231 1.249 . S
C1251 C1244 1.492 . S
H1252 C1235 0.930 . S
H1253 C1236 0.933 . S
H1254 C1237 0.930 . S
H1255 C1238 0.930 . S
H1256 C1245 0.930 . S
H1257 C1247 0.930 . S
H1258 C1248 0.930 . S
H1259 C1249 0.930 . S
Eu1260 N1291 2.657 . S
Eu1260 N1298 2.609 . S
Eu1260 O1304 2.558 . S
Eu1260 O1305 2.612 . S
Eu1260 O1307 2.339 . S
Eu1260 O1308 2.563 . S
Eu1260 O1309 2.419 . S
Eu1260 O1311 2.380 . S
Eu1260 O1312 2.432 . S
Eu1260 C1324 2.848 . S
C1261 C1264 1.429 . S
C1261 C1265 1.411 . S
C1261 N1268 1.377 . S
C1262 C1264 1.420 . S
C1262 C1266 1.423 . S
C1262 C1274 1.392 . S
C1263 C1265 1.420 . S
C1263 C1266 1.351 . S
C1263 H1286 0.931 . S
C1264 C1261 1.429 . S
C1264 C1262 1.420 . S
C1264 N1272 1.362 . S
C1265 C1261 1.411 . S
C1265 C1263 1.420 . S
C1265 C1270 1.395 . S
C1266 C1262 1.423 . S
C1266 C1263 1.351 . S
C1266 H1278 0.930 . S
C1267 C1269 1.400 . S
C1267 C1270 1.386 . S
C1267 H1279 0.930 . S
N1268 C1261 1.377 . S
N1268 C1269 1.321 . S
N1268 Eu1271 2.609 . S
C1269 C1267 1.400 . S
C1269 N1268 1.321 . S
C1269 H1276 0.930 . S
C1270 C1265 1.395 . S
C1270 C1267 1.386 . S
C1270 H1289 0.930 . S
Eu1271 N1268 2.609 . S
Eu1271 N1272 2.657 . S
Eu1271 O1305 2.380 . S
Eu1271 O1306 2.432 . S
Eu1271 O1310 2.558 . S
Eu1271 O1311 2.612 . S
Eu1271 O1313 2.339 . S
Eu1271 O1314 2.563 . S
Eu1271 O1315 2.419 . S
Eu1271 C1335 2.848 . S
N1272 C1264 1.362 . S
N1272 Eu1271 2.657 . S
N1272 C1273 1.334 . S
C1273 N1272 1.334 . S
C1273 C1275 1.413 . S
C1273 H1280 0.929 . S
C1274 C1262 1.392 . S
C1274 C1275 1.367 . S
C1274 H1282 0.930 . S
C1275 C1273 1.413 . S
C1275 C1274 1.367 . S
C1275 H1277 0.930 . S
H1276 C1269 0.930 . S
H1277 C1275 0.930 . S
H1278 C1266 0.930 . S
H1279 C1267 0.930 . S
H1280 C1273 0.929 . S
H1281 C1295 0.930 . S
H1282 C1274 0.930 . S
H1283 C1301 0.930 . S
H1284 C1292 0.929 . S
H1285 C1299 0.930 . S
H1286 C1263 0.931 . S
H1287 C1293 0.930 . S
H1288 C1326 0.930 . S
H1289 C1270 0.930 . S
H1290 C1325 0.931 . S
N1291 Eu1260 2.657 . S
N1291 C1292 1.334 . S
N1291 C1296 1.362 . S
C1292 H1284 0.929 . S
C1292 N1291 1.334 . S
C1292 C1295 1.413 . S
C1293 H1287 0.930 . S
C1293 C1294 1.392 . S
C1293 C1295 1.367 . S
C1294 C1293 1.392 . S
C1294 C1296 1.420 . S
C1294 C1326 1.423 . S
C1295 H1281 0.930 . S
C1295 C1292 1.413 . S
C1295 C1293 1.367 . S
C1296 N1291 1.362 . S
C1296 C1294 1.420 . S
C1296 C1300 1.429 . S
H1297 C1302 0.930 . S
N1298 Eu1260 2.609 . S
N1298 C1300 1.377 . S
N1298 C1301 1.321 . S
C1299 H1285 0.930 . S
C1299 C1301 1.400 . S
C1299 C1302 1.386 . S
C1300 C1296 1.429 . S
C1300 N1298 1.377 . S
C1300 C1303 1.411 . S
C1301 H1283 0.930 . S
C1301 N1298 1.321 . S
C1301 C1299 1.400 . S
C1302 H1297 0.930 . S
C1302 C1299 1.386 . S
C1302 C1303 1.395 . S
C1303 C1300 1.411 . S
C1303 C1302 1.395 . S
C1303 C1325 1.420 . S
O1304 Eu1260 2.558 . S
O1304 C1324 1.257 . S
O1305 Eu1260 2.612 . S
O1305 Eu1271 2.380 . S
O1305 C1316 1.276 . S
O1306 Eu1271 2.432 . S
O1306 C1323 1.264 . S
O1307 Eu1260 2.339 . S
O1307 C1323 1.254 . S
O1308 Eu1260 2.563 . S
O1308 C1316 1.235 . S
O1309 Eu1260 2.419 . S
O1309 C1324 1.249 . S
O1310 Eu1271 2.558 . S
O1310 C1335 1.257 . S
O1311 Eu1260 2.380 . S
O1311 Eu1271 2.612 . S
O1311 C1327 1.276 . S
O1312 Eu1260 2.432 . S
O1312 C1334 1.264 . S
O1313 Eu1271 2.339 . S
O1313 C1334 1.254 . S
O1314 Eu1271 2.563 . S
O1314 C1327 1.235 . S
O1315 Eu1271 2.419 . S
O1315 C1335 1.249 . S
C1316 O1305 1.276 . S
C1316 O1308 1.235 . S
C1317 C1319 1.393 . S
C1317 C1321 1.395 . S
C1317 C1324 1.492 . S
C1318 C1319 1.392 . S
C1318 C1320 1.386 . S
C1319 C1317 1.393 . S
C1319 C1318 1.392 . S
C1319 H1336 0.930 . S
C1320 C1318 1.386 . S
C1320 C1322 1.395 . S
C1320 H1337 0.930 . S
C1321 C1317 1.395 . S
C1321 C1322 1.379 . S
C1321 H1338 0.930 . S
C1322 C1320 1.395 . S
C1322 C1321 1.379 . S
C1322 H1339 0.930 . S
C1323 O1306 1.264 . S
C1323 O1307 1.254 . S
C1324 Eu1260 2.848 . S
C1324 O1304 1.257 . S
C1324 O1309 1.249 . S
C1324 C1317 1.492 . S
C1325 H1290 0.931 . S
C1325 C1303 1.420 . S
C1325 C1326 1.351 . S
C1326 H1288 0.930 . S
C1326 C1294 1.423 . S
C1326 C1325 1.351 . S
C1327 O1311 1.276 . S
C1327 O1314 1.235 . S
C1328 C1329 1.393 . S
C1328 C1332 1.395 . S
C1328 C1335 1.492 . S
C1329 C1328 1.393 . S
C1329 C1330 1.392 . S
C1329 H1340 0.930 . S
C1330 C1329 1.392 . S
C1330 C1331 1.386 . S
C1331 C1330 1.386 . S
C1331 C1333 1.395 . S
C1331 H1341 0.930 . S
C1332 C1328 1.395 . S
C1332 C1333 1.379 . S
C1332 H1342 0.930 . S
C1333 C1331 1.395 . S
C1333 C1332 1.379 . S
C1333 H1343 0.930 . S
C1334 O1312 1.264 . S
C1334 O1313 1.254 . S
C1335 Eu1271 2.848 . S
C1335 O1310 1.257 . S
C1335 O1315 1.249 . S
C1335 C1328 1.492 . S
H1336 C1319 0.930 . S
H1337 C1320 0.930 . S
H1338 C1321 0.930 . S
H1339 C1322 0.930 . S
H1340 C1329 0.930 . S
H1341 C1331 0.930 . S
H1342 C1332 0.930 . S
H1343 C1333 0.930 . S
Eu1344 N1375 2.657 . S
Eu1344 N1382 2.609 . S
Eu1344 O1388 2.558 . S
Eu1344 O1389 2.612 . S
Eu1344 O1391 2.339 . S
Eu1344 O1392 2.563 . S
Eu1344 O1393 2.419 . S
Eu1344 O1395 2.380 . S
Eu1344 O1396 2.432 . S
Eu1344 C1408 2.848 . S
C1345 C1348 1.429 . S
C1345 C1349 1.411 . S
C1345 N1352 1.377 . S
C1346 C1348 1.420 . S
C1346 C1350 1.423 . S
C1346 C1358 1.392 . S
C1347 C1349 1.420 . S
C1347 C1350 1.351 . S
C1347 H1370 0.931 . S
C1348 C1345 1.429 . S
C1348 C1346 1.420 . S
C1348 N1356 1.362 . S
C1349 C1345 1.411 . S
C1349 C1347 1.420 . S
C1349 C1354 1.395 . S
C1350 C1346 1.423 . S
C1350 C1347 1.351 . S
C1350 H1362 0.930 . S
C1351 C1353 1.400 . S
C1351 C1354 1.386 . S
C1351 H1363 0.930 . S
N1352 C1345 1.377 . S
N1352 C1353 1.321 . S
N1352 Eu1355 2.609 . S
C1353 C1351 1.400 . S
C1353 N1352 1.321 . S
C1353 H1360 0.930 . S
C1354 C1349 1.395 . S
C1354 C1351 1.386 . S
C1354 H1373 0.930 . S
Eu1355 N1352 2.609 . S
Eu1355 N1356 2.657 . S
Eu1355 O1389 2.380 . S
Eu1355 O1390 2.432 . S
Eu1355 O1394 2.558 . S
Eu1355 O1395 2.612 . S
Eu1355 O1397 2.339 . S
Eu1355 O1398 2.563 . S
Eu1355 O1399 2.419 . S
Eu1355 C1419 2.848 . S
N1356 C1348 1.362 . S
N1356 Eu1355 2.657 . S
N1356 C1357 1.334 . S
C1357 N1356 1.334 . S
C1357 C1359 1.413 . S
C1357 H1364 0.929 . S
C1358 C1346 1.392 . S
C1358 C1359 1.367 . S
C1358 H1366 0.930 . S
C1359 C1357 1.413 . S
C1359 C1358 1.367 . S
C1359 H1361 0.930 . S
H1360 C1353 0.930 . S
H1361 C1359 0.930 . S
H1362 C1350 0.930 . S
H1363 C1351 0.930 . S
H1364 C1357 0.929 . S
H1365 C1379 0.930 . S
H1366 C1358 0.930 . S
H1367 C1385 0.930 . S
H1368 C1376 0.929 . S
H1369 C1383 0.930 . S
H1370 C1347 0.931 . S
H1371 C1377 0.930 . S
H1372 C1410 0.930 . S
H1373 C1354 0.930 . S
H1374 C1409 0.931 . S
N1375 Eu1344 2.657 . S
N1375 C1376 1.334 . S
N1375 C1380 1.362 . S
C1376 H1368 0.929 . S
C1376 N1375 1.334 . S
C1376 C1379 1.413 . S
C1377 H1371 0.930 . S
C1377 C1378 1.392 . S
C1377 C1379 1.367 . S
C1378 C1377 1.392 . S
C1378 C1380 1.420 . S
C1378 C1410 1.423 . S
C1379 H1365 0.930 . S
C1379 C1376 1.413 . S
C1379 C1377 1.367 . S
C1380 N1375 1.362 . S
C1380 C1378 1.420 . S
C1380 C1384 1.429 . S
H1381 C1386 0.930 . S
N1382 Eu1344 2.609 . S
N1382 C1384 1.377 . S
N1382 C1385 1.321 . S
C1383 H1369 0.930 . S
C1383 C1385 1.400 . S
C1383 C1386 1.386 . S
C1384 C1380 1.429 . S
C1384 N1382 1.377 . S
C1384 C1387 1.411 . S
C1385 H1367 0.930 . S
C1385 N1382 1.321 . S
C1385 C1383 1.400 . S
C1386 H1381 0.930 . S
C1386 C1383 1.386 . S
C1386 C1387 1.395 . S
C1387 C1384 1.411 . S
C1387 C1386 1.395 . S
C1387 C1409 1.420 . S
O1388 Eu1344 2.558 . S
O1388 C1408 1.257 . S
O1389 Eu1344 2.612 . S
O1389 Eu1355 2.380 . S
O1389 C1400 1.276 . S
O1390 Eu1355 2.432 . S
O1390 C1407 1.264 . S
O1391 Eu1344 2.339 . S
O1391 C1407 1.254 . S
O1392 Eu1344 2.563 . S
O1392 C1400 1.235 . S
O1393 Eu1344 2.419 . S
O1393 C1408 1.249 . S
O1394 Eu1355 2.558 . S
O1394 C1419 1.257 . S
O1395 Eu1344 2.380 . S
O1395 Eu1355 2.612 . S
O1395 C1411 1.276 . S
O1396 Eu1344 2.432 . S
O1396 C1418 1.264 . S
O1397 Eu1355 2.339 . S
O1397 C1418 1.254 . S
O1398 Eu1355 2.563 . S
O1398 C1411 1.235 . S
O1399 Eu1355 2.419 . S
O1399 C1419 1.249 . S
C1400 O1389 1.276 . S
C1400 O1392 1.235 . S
C1401 C1403 1.393 . S
C1401 C1405 1.395 . S
C1401 C1408 1.492 . S
C1402 C1403 1.392 . S
C1402 C1404 1.386 . S
C1403 C1401 1.393 . S
C1403 C1402 1.392 . S
C1403 H1420 0.930 . S
C1404 C1402 1.386 . S
C1404 C1406 1.395 . S
C1404 H1421 0.930 . S
C1405 C1401 1.395 . S
C1405 C1406 1.379 . S
C1405 H1422 0.930 . S
C1406 C1404 1.395 . S
C1406 C1405 1.379 . S
C1406 H1423 0.930 . S
C1407 O1390 1.264 . S
C1407 O1391 1.254 . S
C1408 Eu1344 2.848 . S
C1408 O1388 1.257 . S
C1408 O1393 1.249 . S
C1408 C1401 1.492 . S
C1409 H1374 0.931 . S
C1409 C1387 1.420 . S
C1409 C1410 1.351 . S
C1410 H1372 0.930 . S
C1410 C1378 1.423 . S
C1410 C1409 1.351 . S
C1411 O1395 1.276 . S
C1411 O1398 1.235 . S
C1412 C1413 1.393 . S
C1412 C1416 1.395 . S
C1412 C1419 1.492 . S
C1413 C1412 1.393 . S
C1413 C1414 1.392 . S
C1413 H1424 0.930 . S
C1414 C1413 1.392 . S
C1414 C1415 1.386 . S
C1415 C1414 1.386 . S
C1415 C1417 1.395 . S
C1415 H1425 0.930 . S
C1416 C1412 1.395 . S
C1416 C1417 1.379 . S
C1416 H1426 0.930 . S
C1417 C1415 1.395 . S
C1417 C1416 1.379 . S
C1417 H1427 0.930 . S
C1418 O1396 1.264 . S
C1418 O1397 1.254 . S
C1419 Eu1355 2.848 . S
C1419 O1394 1.257 . S
C1419 O1399 1.249 . S
C1419 C1412 1.492 . S
H1420 C1403 0.930 . S
H1421 C1404 0.930 . S
H1422 C1405 0.930 . S
H1423 C1406 0.930 . S
H1424 C1413 0.930 . S
H1425 C1415 0.930 . S
H1426 C1416 0.930 . S
H1427 C1417 0.930 . S
Eu1428 N1459 2.657 . S
Eu1428 N1466 2.609 . S
Eu1428 O1472 2.558 . S
Eu1428 O1473 2.612 . S
Eu1428 O1475 2.339 . S
Eu1428 O1476 2.563 . S
Eu1428 O1477 2.419 . S
Eu1428 O1479 2.380 . S
Eu1428 O1480 2.432 . S
Eu1428 C1492 2.848 . S
C1429 C1432 1.429 . S
C1429 C1433 1.411 . S
C1429 N1436 1.377 . S
C1430 C1432 1.420 . S
C1430 C1434 1.423 . S
C1430 C1442 1.392 . S
C1431 C1433 1.420 . S
C1431 C1434 1.351 . S
C1431 H1454 0.931 . S
C1432 C1429 1.429 . S
C1432 C1430 1.420 . S
C1432 N1440 1.362 . S
C1433 C1429 1.411 . S
C1433 C1431 1.420 . S
C1433 C1438 1.395 . S
C1434 C1430 1.423 . S
C1434 C1431 1.351 . S
C1434 H1446 0.930 . S
C1435 C1437 1.400 . S
C1435 C1438 1.386 . S
C1435 H1447 0.930 . S
N1436 C1429 1.377 . S
N1436 C1437 1.321 . S
N1436 Eu1439 2.609 . S
C1437 C1435 1.400 . S
C1437 N1436 1.321 . S
C1437 H1444 0.930 . S
C1438 C1433 1.395 . S
C1438 C1435 1.386 . S
C1438 H1457 0.930 . S
Eu1439 N1436 2.609 . S
Eu1439 N1440 2.657 . S
Eu1439 O1473 2.380 . S
Eu1439 O1474 2.432 . S
Eu1439 O1478 2.558 . S
Eu1439 O1479 2.612 . S
Eu1439 O1481 2.339 . S
Eu1439 O1482 2.563 . S
Eu1439 O1483 2.419 . S
Eu1439 C1503 2.848 . S
N1440 C1432 1.362 . S
N1440 Eu1439 2.657 . S
N1440 C1441 1.334 . S
C1441 N1440 1.334 . S
C1441 C1443 1.413 . S
C1441 H1448 0.929 . S
C1442 C1430 1.392 . S
C1442 C1443 1.367 . S
C1442 H1450 0.930 . S
C1443 C1441 1.413 . S
C1443 C1442 1.367 . S
C1443 H1445 0.930 . S
H1444 C1437 0.930 . S
H1445 C1443 0.930 . S
H1446 C1434 0.930 . S
H1447 C1435 0.930 . S
H1448 C1441 0.929 . S
H1449 C1463 0.930 . S
H1450 C1442 0.930 . S
H1451 C1469 0.930 . S
H1452 C1460 0.929 . S
H1453 C1467 0.930 . S
H1454 C1431 0.931 . S
H1455 C1461 0.930 . S
H1456 C1494 0.930 . S
H1457 C1438 0.930 . S
H1458 C1493 0.931 . S
N1459 Eu1428 2.657 . S
N1459 C1460 1.334 . S
N1459 C1464 1.362 . S
C1460 H1452 0.929 . S
C1460 N1459 1.334 . S
C1460 C1463 1.413 . S
C1461 H1455 0.930 . S
C1461 C1462 1.392 . S
C1461 C1463 1.367 . S
C1462 C1461 1.392 . S
C1462 C1464 1.420 . S
C1462 C1494 1.423 . S
C1463 H1449 0.930 . S
C1463 C1460 1.413 . S
C1463 C1461 1.367 . S
C1464 N1459 1.362 . S
C1464 C1462 1.420 . S
C1464 C1468 1.429 . S
H1465 C1470 0.930 . S
N1466 Eu1428 2.609 . S
N1466 C1468 1.377 . S
N1466 C1469 1.321 . S
C1467 H1453 0.930 . S
C1467 C1469 1.400 . S
C1467 C1470 1.386 . S
C1468 C1464 1.429 . S
C1468 N1466 1.377 . S
C1468 C1471 1.411 . S
C1469 H1451 0.930 . S
C1469 N1466 1.321 . S
C1469 C1467 1.400 . S
C1470 H1465 0.930 . S
C1470 C1467 1.386 . S
C1470 C1471 1.395 . S
C1471 C1468 1.411 . S
C1471 C1470 1.395 . S
C1471 C1493 1.420 . S
O1472 Eu1428 2.558 . S
O1472 C1492 1.257 . S
O1473 Eu1428 2.612 . S
O1473 Eu1439 2.380 . S
O1473 C1484 1.276 . S
O1474 Eu1439 2.432 . S
O1474 C1491 1.264 . S
O1475 Eu1428 2.339 . S
O1475 C1491 1.254 . S
O1476 Eu1428 2.563 . S
O1476 C1484 1.235 . S
O1477 Eu1428 2.419 . S
O1477 C1492 1.249 . S
O1478 Eu1439 2.558 . S
O1478 C1503 1.257 . S
O1479 Eu1428 2.380 . S
O1479 Eu1439 2.612 . S
O1479 C1495 1.276 . S
O1480 Eu1428 2.432 . S
O1480 C1502 1.264 . S
O1481 Eu1439 2.339 . S
O1481 C1502 1.254 . S
O1482 Eu1439 2.563 . S
O1482 C1495 1.235 . S
O1483 Eu1439 2.419 . S
O1483 C1503 1.249 . S
C1484 O1473 1.276 . S
C1484 O1476 1.235 . S
C1485 C1487 1.393 . S
C1485 C1489 1.395 . S
C1485 C1492 1.492 . S
C1486 C1487 1.392 . S
C1486 C1488 1.386 . S
C1487 C1485 1.393 . S
C1487 C1486 1.392 . S
C1487 H1504 0.930 . S
C1488 C1486 1.386 . S
C1488 C1490 1.395 . S
C1488 H1505 0.930 . S
C1489 C1485 1.395 . S
C1489 C1490 1.379 . S
C1489 H1506 0.930 . S
C1490 C1488 1.395 . S
C1490 C1489 1.379 . S
C1490 H1507 0.930 . S
C1491 O1474 1.264 . S
C1491 O1475 1.254 . S
C1492 Eu1428 2.848 . S
C1492 O1472 1.257 . S
C1492 O1477 1.249 . S
C1492 C1485 1.492 . S
C1493 H1458 0.931 . S
C1493 C1471 1.420 . S
C1493 C1494 1.351 . S
C1494 H1456 0.930 . S
C1494 C1462 1.423 . S
C1494 C1493 1.351 . S
C1495 O1479 1.276 . S
C1495 O1482 1.235 . S
C1496 C1497 1.393 . S
C1496 C1500 1.395 . S
C1496 C1503 1.492 . S
C1497 C1496 1.393 . S
C1497 C1498 1.392 . S
C1497 H1508 0.930 . S
C1498 C1497 1.392 . S
C1498 C1499 1.386 . S
C1499 C1498 1.386 . S
C1499 C1501 1.395 . S
C1499 H1509 0.930 . S
C1500 C1496 1.395 . S
C1500 C1501 1.379 . S
C1500 H1510 0.930 . S
C1501 C1499 1.395 . S
C1501 C1500 1.379 . S
C1501 H1511 0.930 . S
C1502 O1480 1.264 . S
C1502 O1481 1.254 . S
C1503 Eu1439 2.848 . S
C1503 O1478 1.257 . S
C1503 O1483 1.249 . S
C1503 C1496 1.492 . S
H1504 C1487 0.930 . S
H1505 C1488 0.930 . S
H1506 C1489 0.930 . S
H1507 C1490 0.930 . S
H1508 C1497 0.930 . S
H1509 C1499 0.930 . S
H1510 C1500 0.930 . S
H1511 C1501 0.930 . S
Eu1512 N1543 2.657 . S
Eu1512 N1550 2.609 . S
Eu1512 O1556 2.558 . S
Eu1512 O1557 2.612 . S
Eu1512 O1559 2.339 . S
Eu1512 O1560 2.563 . S
Eu1512 O1561 2.419 . S
Eu1512 O1563 2.380 . S
Eu1512 O1564 2.432 . S
Eu1512 C1576 2.848 . S
C1513 C1516 1.429 . S
C1513 C1517 1.411 . S
C1513 N1520 1.377 . S
C1514 C1516 1.420 . S
C1514 C1518 1.423 . S
C1514 C1526 1.392 . S
C1515 C1517 1.420 . S
C1515 C1518 1.351 . S
C1515 H1538 0.931 . S
C1516 C1513 1.429 . S
C1516 C1514 1.420 . S
C1516 N1524 1.362 . S
C1517 C1513 1.411 . S
C1517 C1515 1.420 . S
C1517 C1522 1.395 . S
C1518 C1514 1.423 . S
C1518 C1515 1.351 . S
C1518 H1530 0.930 . S
C1519 C1521 1.400 . S
C1519 C1522 1.386 . S
C1519 H1531 0.930 . S
N1520 C1513 1.377 . S
N1520 C1521 1.321 . S
N1520 Eu1523 2.609 . S
C1521 C1519 1.400 . S
C1521 N1520 1.321 . S
C1521 H1528 0.930 . S
C1522 C1517 1.395 . S
C1522 C1519 1.386 . S
C1522 H1541 0.930 . S
Eu1523 N1520 2.609 . S
Eu1523 N1524 2.657 . S
Eu1523 O1557 2.380 . S
Eu1523 O1558 2.432 . S
Eu1523 O1562 2.558 . S
Eu1523 O1563 2.612 . S
Eu1523 O1565 2.339 . S
Eu1523 O1566 2.563 . S
Eu1523 O1567 2.419 . S
Eu1523 C1587 2.848 . S
N1524 C1516 1.362 . S
N1524 Eu1523 2.657 . S
N1524 C1525 1.334 . S
C1525 N1524 1.334 . S
C1525 C1527 1.413 . S
C1525 H1532 0.929 . S
C1526 C1514 1.392 . S
C1526 C1527 1.367 . S
C1526 H1534 0.930 . S
C1527 C1525 1.413 . S
C1527 C1526 1.367 . S
C1527 H1529 0.930 . S
H1528 C1521 0.930 . S
H1529 C1527 0.930 . S
H1530 C1518 0.930 . S
H1531 C1519 0.930 . S
H1532 C1525 0.929 . S
H1533 C1547 0.930 . S
H1534 C1526 0.930 . S
H1535 C1553 0.930 . S
H1536 C1544 0.929 . S
H1537 C1551 0.930 . S
H1538 C1515 0.931 . S
H1539 C1545 0.930 . S
H1540 C1578 0.930 . S
H1541 C1522 0.930 . S
H1542 C1577 0.931 . S
N1543 Eu1512 2.657 . S
N1543 C1544 1.334 . S
N1543 C1548 1.362 . S
C1544 H1536 0.929 . S
C1544 N1543 1.334 . S
C1544 C1547 1.413 . S
C1545 H1539 0.930 . S
C1545 C1546 1.392 . S
C1545 C1547 1.367 . S
C1546 C1545 1.392 . S
C1546 C1548 1.420 . S
C1546 C1578 1.423 . S
C1547 H1533 0.930 . S
C1547 C1544 1.413 . S
C1547 C1545 1.367 . S
C1548 N1543 1.362 . S
C1548 C1546 1.420 . S
C1548 C1552 1.429 . S
H1549 C1554 0.930 . S
N1550 Eu1512 2.609 . S
N1550 C1552 1.377 . S
N1550 C1553 1.321 . S
C1551 H1537 0.930 . S
C1551 C1553 1.400 . S
C1551 C1554 1.386 . S
C1552 C1548 1.429 . S
C1552 N1550 1.377 . S
C1552 C1555 1.411 . S
C1553 H1535 0.930 . S
C1553 N1550 1.321 . S
C1553 C1551 1.400 . S
C1554 H1549 0.930 . S
C1554 C1551 1.386 . S
C1554 C1555 1.395 . S
C1555 C1552 1.411 . S
C1555 C1554 1.395 . S
C1555 C1577 1.420 . S
O1556 Eu1512 2.558 . S
O1556 C1576 1.257 . S
O1557 Eu1512 2.612 . S
O1557 Eu1523 2.380 . S
O1557 C1568 1.276 . S
O1558 Eu1523 2.432 . S
O1558 C1575 1.264 . S
O1559 Eu1512 2.339 . S
O1559 C1575 1.254 . S
O1560 Eu1512 2.563 . S
O1560 C1568 1.235 . S
O1561 Eu1512 2.419 . S
O1561 C1576 1.249 . S
O1562 Eu1523 2.558 . S
O1562 C1587 1.257 . S
O1563 Eu1512 2.380 . S
O1563 Eu1523 2.612 . S
O1563 C1579 1.276 . S
O1564 Eu1512 2.432 . S
O1564 C1586 1.264 . S
O1565 Eu1523 2.339 . S
O1565 C1586 1.254 . S
O1566 Eu1523 2.563 . S
O1566 C1579 1.235 . S
O1567 Eu1523 2.419 . S
O1567 C1587 1.249 . S
C1568 O1557 1.276 . S
C1568 O1560 1.235 . S
C1569 C1571 1.393 . S
C1569 C1573 1.395 . S
C1569 C1576 1.492 . S
C1570 C1571 1.392 . S
C1570 C1572 1.386 . S
C1571 C1569 1.393 . S
C1571 C1570 1.392 . S
C1571 H1588 0.930 . S
C1572 C1570 1.386 . S
C1572 C1574 1.395 . S
C1572 H1589 0.930 . S
C1573 C1569 1.395 . S
C1573 C1574 1.379 . S
C1573 H1590 0.930 . S
C1574 C1572 1.395 . S
C1574 C1573 1.379 . S
C1574 H1591 0.930 . S
C1575 O1558 1.264 . S
C1575 O1559 1.254 . S
C1576 Eu1512 2.848 . S
C1576 O1556 1.257 . S
C1576 O1561 1.249 . S
C1576 C1569 1.492 . S
C1577 H1542 0.931 . S
C1577 C1555 1.420 . S
C1577 C1578 1.351 . S
C1578 H1540 0.930 . S
C1578 C1546 1.423 . S
C1578 C1577 1.351 . S
C1579 O1563 1.276 . S
C1579 O1566 1.235 . S
C1580 C1581 1.393 . S
C1580 C1584 1.395 . S
C1580 C1587 1.492 . S
C1581 C1580 1.393 . S
C1581 C1582 1.392 . S
C1581 H1592 0.930 . S
C1582 C1581 1.392 . S
C1582 C1583 1.386 . S
C1583 C1582 1.386 . S
C1583 C1585 1.395 . S
C1583 H1593 0.930 . S
C1584 C1580 1.395 . S
C1584 C1585 1.379 . S
C1584 H1594 0.930 . S
C1585 C1583 1.395 . S
C1585 C1584 1.379 . S
C1585 H1595 0.930 . S
C1586 O1564 1.264 . S
C1586 O1565 1.254 . S
C1587 Eu1523 2.848 . S
C1587 O1562 1.257 . S
C1587 O1567 1.249 . S
C1587 C1580 1.492 . S
H1588 C1571 0.930 . S
H1589 C1572 0.930 . S
H1590 C1573 0.930 . S
H1591 C1574 0.930 . S
H1592 C1581 0.930 . S
H1593 C1583 0.930 . S
H1594 C1584 0.930 . S
H1595 C1585 0.930 . S
Eu1596 N1627 2.657 1_556 S
Eu1596 N1634 2.609 . S
Eu1596 O1640 2.558 . S
Eu1596 O1641 2.612 1_556 S
Eu1596 O1643 2.339 1_556 S
Eu1596 O1644 2.563 . S
Eu1596 O1645 2.419 1_556 S
Eu1596 O1647 2.380 1_556 S
Eu1596 O1648 2.432 . S
Eu1596 C1660 2.848 . S
C1597 C1600 1.429 . S
C1597 C1601 1.411 . S
C1597 N1604 1.377 1_655 S
C1598 C1600 1.420 . S
C1598 C1602 1.423 . S
C1598 C1610 1.392 1_554 S
C1599 C1601 1.420 . S
C1599 C1602 1.351 . S
C1599 H1622 0.931 . S
C1600 C1597 1.429 . S
C1600 C1598 1.420 . S
C1600 N1608 1.362 . S
C1601 C1597 1.411 . S
C1601 C1599 1.420 . S
C1601 C1606 1.395 . S
C1602 C1598 1.423 . S
C1602 C1599 1.351 . S
C1602 H1614 0.930 . S
C1603 C1605 1.400 . S
C1603 C1606 1.386 1_455 S
C1603 H1615 0.930 . S
N1604 C1597 1.377 1_455 S
N1604 C1605 1.321 . S
N1604 Eu1607 2.609 . S
C1605 C1603 1.400 . S
C1605 N1604 1.321 . S
C1605 H1612 0.930 . S
C1606 C1601 1.395 . S
C1606 C1603 1.386 1_655 S
C1606 H1625 0.930 . S
Eu1607 N1604 2.609 . S
Eu1607 N1608 2.657 1_455 S
Eu1607 O1641 2.380 . S
Eu1607 O1642 2.432 . S
Eu1607 O1646 2.558 . S
Eu1607 O1647 2.612 . S
Eu1607 O1649 2.339 1_554 S
Eu1607 O1650 2.563 . S
Eu1607 O1651 2.419 1_455 S
Eu1607 C1671 2.848 1_455 S
N1608 C1600 1.362 . S
N1608 Eu1607 2.657 1_655 S
N1608 C1609 1.334 1_554 S
C1609 N1608 1.334 1_556 S
C1609 C1611 1.413 . S
C1609 H1616 0.929 . S
C1610 C1598 1.392 1_556 S
C1610 C1611 1.367 . S
C1610 H1618 0.930 . S
C1611 C1609 1.413 . S
C1611 C1610 1.367 . S
C1611 H1613 0.930 . S
H1612 C1605 0.930 . S
H1613 C1611 0.930 . S
H1614 C1602 0.930 . S
H1615 C1603 0.930 . S
H1616 C1609 0.929 . S
H1617 C1631 0.930 . S
H1618 C1610 0.930 . S
H1619 C1637 0.930 . S
H1620 C1628 0.929 . S
H1621 C1635 0.930 . S
H1622 C1599 0.931 . S
H1623 C1629 0.930 . S
H1624 C1662 0.930 1_554 S
H1625 C1606 0.930 . S
H1626 C1661 0.931 . S
N1627 Eu1596 2.657 1_554 S
N1627 C1628 1.334 . S
N1627 C1632 1.362 . S
C1628 H1620 0.929 . S
C1628 N1627 1.334 . S
C1628 C1631 1.413 . S
C1629 H1623 0.930 . S
C1629 C1630 1.392 . S
C1629 C1631 1.367 . S
C1630 C1629 1.392 . S
C1630 C1632 1.420 . S
C1630 C1662 1.423 1_554 S
C1631 H1617 0.930 . S
C1631 C1628 1.413 . S
C1631 C1629 1.367 . S
C1632 N1627 1.362 . S
C1632 C1630 1.420 . S
C1632 C1636 1.429 1_554 S
H1633 C1638 0.930 . S
N1634 Eu1596 2.609 . S
N1634 C1636 1.377 . S
N1634 C1637 1.321 . S
C1635 H1621 0.930 . S
C1635 C1637 1.400 . S
C1635 C1638 1.386 . S
C1636 C1632 1.429 1_556 S
C1636 N1634 1.377 . S
C1636 C1639 1.411 . S
C1637 H1619 0.930 . S
C1637 N1634 1.321 . S
C1637 C1635 1.400 . S
C1638 H1633 0.930 . S
C1638 C1635 1.386 . S
C1638 C1639 1.395 . S
C1639 C1636 1.411 . S
C1639 C1638 1.395 . S
C1639 C1661 1.420 . S
O1640 Eu1596 2.558 . S
O1640 C1660 1.257 . S
O1641 Eu1596 2.612 1_554 S
O1641 Eu1607 2.380 . S
O1641 C1652 1.276 . S
O1642 Eu1607 2.432 . S
O1642 C1659 1.264 . S
O1643 Eu1596 2.339 1_554 S
O1643 C1659 1.254 . S
O1644 Eu1596 2.563 . S
O1644 C1652 1.235 1_556 S
O1645 Eu1596 2.419 1_554 S
O1645 C1660 1.249 1_554 S
O1646 Eu1607 2.558 . S
O1646 C1671 1.257 1_455 S
O1647 Eu1596 2.380 1_554 S
O1647 Eu1607 2.612 . S
O1647 C1663 1.276 . S
O1648 Eu1596 2.432 . S
O1648 C1670 1.264 . S
O1649 Eu1607 2.339 1_556 S
O1649 C1670 1.254 . S
O1650 Eu1607 2.563 . S
O1650 C1663 1.235 . S
O1651 Eu1607 2.419 1_655 S
O1651 C1671 1.249 . S
C1652 O1641 1.276 . S
C1652 O1644 1.235 1_554 S
C1653 C1655 1.393 . S
C1653 C1657 1.395 . S
C1653 C1660 1.492 . S
C1654 C1655 1.392 . S
C1654 C1656 1.386 . S
C1655 C1653 1.393 . S
C1655 C1654 1.392 . S
C1655 H1672 0.930 1_556 S
C1656 C1654 1.386 . S
C1656 C1658 1.395 . S
C1656 H1673 0.930 . S
C1657 C1653 1.395 . S
C1657 C1658 1.379 . S
C1657 H1674 0.930 . S
C1658 C1656 1.395 . S
C1658 C1657 1.379 . S
C1658 H1675 0.930 . S
C1659 O1642 1.264 . S
C1659 O1643 1.254 . S
C1660 Eu1596 2.848 . S
C1660 O1640 1.257 . S
C1660 O1645 1.249 1_556 S
C1660 C1653 1.492 . S
C1661 H1626 0.931 . S
C1661 C1639 1.420 . S
C1661 C1662 1.351 . S
C1662 H1624 0.930 1_556 S
C1662 C1630 1.423 1_556 S
C1662 C1661 1.351 . S
C1663 O1647 1.276 . S
C1663 O1650 1.235 . S
C1664 C1665 1.393 . S
C1664 C1668 1.395 . S
C1664 C1671 1.492 . S
C1665 C1664 1.393 . S
C1665 C1666 1.392 . S
C1665 H1676 0.930 . S
C1666 C1665 1.392 . S
C1666 C1667 1.386 . S
C1667 C1666 1.386 . S
C1667 C1669 1.395 . S
C1667 H1677 0.930 . S
C1668 C1664 1.395 . S
C1668 C1669 1.379 . S
C1668 H1678 0.930 . S
C1669 C1667 1.395 . S
C1669 C1668 1.379 . S
C1669 H1679 0.930 . S
C1670 O1648 1.264 . S
C1670 O1649 1.254 . S
C1671 Eu1607 2.848 1_655 S
C1671 O1646 1.257 1_655 S
C1671 O1651 1.249 . S
C1671 C1664 1.492 . S
H1672 C1655 0.930 1_554 S
H1673 C1656 0.930 . S
H1674 C1657 0.930 . S
H1675 C1658 0.930 . S
H1676 C1665 0.930 . S
H1677 C1667 0.930 . S
H1678 C1668 0.930 . S
H1679 C1669 0.930 . S
H1680 C1686 0.930 . S
H1681 C1689 0.930 . S
H1682 C1690 0.926 1_655 S
H1683 C1691 0.930 . S
H1684 C1694 0.930 . S
H1685 C1695 0.930 . S
C1686 H1680 0.930 . S
C1686 C1687 1.355 . S
C1686 C1688 1.415 . S
C1687 C1686 1.355 . S
C1687 C1689 1.419 1_455 S
C1688 C1686 1.415 . S
C1688 C1693 1.425 . S
C1688 C1695 1.409 1_556 S
C1689 H1681 0.930 . S
C1689 C1687 1.419 1_655 S
C1689 C1690 1.360 1_655 S
C1690 H1682 0.926 1_455 S
C1690 C1689 1.360 1_455 S
C1690 C1693 1.415 . S
C1691 H1683 0.930 . S
C1691 C1692 1.355 1_556 S
C1691 C1693 1.415 . S
C1692 C1691 1.355 1_554 S
C1692 C1694 1.419 . S
C1693 C1688 1.425 . S
C1693 C1690 1.415 . S
C1693 C1691 1.415 . S
C1694 H1684 0.930 . S
C1694 C1692 1.419 . S
C1694 C1695 1.362 . S
C1695 H1685 0.930 . S
C1695 C1688 1.409 1_554 S
C1695 C1694 1.362 . S
H1696 C1702 0.930 . S
H1697 C1705 0.930 . S
H1698 C1706 0.930 . S
H1699 C1707 0.930 . S
H1700 C1710 0.930 . S
H1701 C1711 0.930 . S
C1702 H1696 0.930 . S
C1702 C1703 1.355 . S
C1702 C1704 1.415 . S
C1703 C1702 1.355 . S
C1703 C1705 1.419 . S
C1704 C1702 1.415 . S
C1704 C1709 1.425 . S
C1704 C1711 1.409 . S
C1705 H1697 0.930 . S
C1705 C1703 1.419 . S
C1705 C1706 1.362 . S
C1706 H1698 0.930 . S
C1706 C1705 1.362 . S
C1706 C1709 1.409 . S
C1707 H1699 0.930 . S
C1707 C1708 1.355 . S
C1707 C1709 1.415 . S
C1708 C1707 1.355 . S
C1708 C1710 1.419 . S
C1709 C1704 1.425 . S
C1709 C1706 1.409 . S
C1709 C1707 1.415 . S
C1710 H1700 0.930 . S
C1710 C1708 1.419 . S
C1710 C1711 1.362 . S
C1711 H1701 0.930 . S
C1711 C1704 1.409 . S
C1711 C1710 1.362 . S
H1712 C1718 0.930 . S
H1713 C1721 0.930 . S
H1714 C1722 0.930 . S
H1715 C1723 0.930 . S
H1716 C1726 0.930 . S
H1717 C1727 0.930 . S
C1718 H1712 0.930 . S
C1718 C1719 1.355 . S
C1718 C1720 1.415 . S
C1719 C1718 1.355 . S
C1719 C1721 1.419 . S
C1720 C1718 1.415 . S
C1720 C1725 1.425 . S
C1720 C1727 1.409 . S
C1721 H1713 0.930 . S
C1721 C1719 1.419 . S
C1721 C1722 1.362 . S
C1722 H1714 0.930 . S
C1722 C1721 1.362 . S
C1722 C1725 1.409 . S
C1723 H1715 0.930 . S
C1723 C1724 1.355 . S
C1723 C1725 1.415 . S
C1724 C1723 1.355 . S
C1724 C1726 1.419 . S
C1725 C1720 1.425 . S
C1725 C1722 1.409 . S
C1725 C1723 1.415 . S
C1726 H1716 0.930 . S
C1726 C1724 1.419 . S
C1726 C1727 1.362 . S
C1727 H1717 0.930 . S
C1727 C1720 1.409 . S
C1727 C1726 1.362 . S
H1728 C1734 0.930 . S
H1729 C1737 0.930 . S
H1730 C1738 0.930 . S
H1731 C1739 0.930 . S
H1732 C1742 0.930 . S
H1733 C1743 0.930 . S
C1734 H1728 0.930 . S
C1734 C1735 1.355 . S
C1734 C1736 1.415 . S
C1735 C1734 1.355 . S
C1735 C1737 1.419 . S
C1736 C1734 1.415 . S
C1736 C1741 1.425 . S
C1736 C1743 1.409 . S
C1737 H1729 0.930 . S
C1737 C1735 1.419 . S
C1737 C1738 1.362 . S
C1738 H1730 0.930 . S
C1738 C1737 1.362 . S
C1738 C1741 1.409 . S
C1739 H1731 0.930 . S
C1739 C1740 1.355 . S
C1739 C1741 1.415 . S
C1740 C1739 1.355 . S
C1740 C1742 1.419 . S
C1741 C1736 1.425 . S
C1741 C1738 1.409 . S
C1741 C1739 1.415 . S
C1742 H1732 0.930 . S
C1742 C1740 1.419 . S
C1742 C1743 1.362 . S
C1743 H1733 0.930 . S
C1743 C1736 1.409 . S
C1743 C1742 1.362 . S
H1744 C1750 0.930 . S
H1745 C1753 0.930 . S
H1746 C1754 0.930 . S
H1747 C1755 0.930 . S
H1748 C1758 0.930 . S
H1749 C1759 0.930 . S
C1750 H1744 0.930 . S
C1750 C1751 1.355 . S
C1750 C1752 1.415 . S
C1751 C1750 1.355 . S
C1751 C1753 1.419 1_455 S
C1752 C1750 1.415 . S
C1752 C1757 1.425 . S
C1752 C1759 1.409 . S
C1753 H1745 0.930 . S
C1753 C1751 1.419 1_655 S
C1753 C1754 1.362 . S
C1754 H1746 0.930 . S
C1754 C1753 1.362 . S
C1754 C1757 1.409 1_655 S
C1755 H1747 0.930 . S
C1755 C1756 1.355 . S
C1755 C1757 1.415 . S
C1756 C1755 1.355 . S
C1756 C1758 1.419 . S
C1757 C1752 1.425 . S
C1757 C1754 1.409 1_455 S
C1757 C1755 1.415 . S
C1758 H1748 0.930 . S
C1758 C1756 1.419 . S
C1758 C1759 1.362 . S
C1759 H1749 0.930 . S
C1759 C1752 1.409 . S
C1759 C1758 1.362 . S
H1760 C1766 0.930 . S
H1761 C1769 0.930 . S
H1762 C1770 0.930 . S
H1763 C1771 0.930 . S
H1764 C1774 0.930 . S
H1765 C1775 0.930 . S
C1766 H1760 0.930 . S
C1766 C1767 1.355 . S
C1766 C1768 1.415 . S
C1767 C1766 1.355 . S
C1767 C1769 1.419 . S
C1768 C1766 1.415 . S
C1768 C1773 1.425 . S
C1768 C1775 1.409 . S
C1769 H1761 0.930 . S
C1769 C1767 1.419 . S
C1769 C1770 1.362 . S
C1770 H1762 0.930 . S
C1770 C1769 1.362 . S
C1770 C1773 1.409 . S
C1771 H1763 0.930 . S
C1771 C1772 1.355 . S
C1771 C1773 1.415 . S
C1772 C1771 1.355 . S
C1772 C1774 1.419 . S
C1773 C1768 1.425 . S
C1773 C1770 1.409 . S
C1773 C1771 1.415 . S
C1774 H1764 0.930 . S
C1774 C1772 1.419 . S
C1774 C1775 1.362 . S
C1775 H1765 0.930 . S
C1775 C1768 1.409 . S
C1775 C1774 1.362 . S
H1776 C1782 0.930 . S
H1777 C1785 0.930 . S
H1778 C1786 0.930 . S
H1779 C1787 0.930 . S
H1780 C1790 0.930 . S
H1781 C1791 0.930 . S
C1782 H1776 0.930 . S
C1782 C1783 1.355 . S
C1782 C1784 1.415 . S
C1783 C1782 1.355 . S
C1783 C1785 1.419 . S
C1784 C1782 1.415 . S
C1784 C1789 1.425 . S
C1784 C1791 1.409 . S
C1785 H1777 0.930 . S
C1785 C1783 1.419 . S
C1785 C1786 1.362 . S
C1786 H1778 0.930 . S
C1786 C1785 1.362 . S
C1786 C1789 1.409 . S
C1787 H1779 0.930 . S
C1787 C1788 1.355 . S
C1787 C1789 1.415 . S
C1788 C1787 1.355 . S
C1788 C1790 1.419 . S
C1789 C1784 1.425 . S
C1789 C1786 1.409 . S
C1789 C1787 1.415 . S
C1790 H1780 0.930 . S
C1790 C1788 1.419 . S
C1790 C1791 1.362 . S
C1791 H1781 0.930 . S
C1791 C1784 1.409 . S
C1791 C1790 1.362 . S
H1792 C1798 0.930 . S
H1793 C1801 0.930 . S
H1794 C1802 0.930 . S
H1795 C1803 0.930 . S
H1796 C1806 0.930 . S
H1797 C1807 0.930 . S
C1798 H1792 0.930 . S
C1798 C1799 1.355 . S
C1798 C1800 1.415 . S
C1799 C1798 1.355 . S
C1799 C1801 1.419 . S
C1800 C1798 1.415 . S
C1800 C1805 1.425 . S
C1800 C1807 1.409 . S
C1801 H1793 0.930 . S
C1801 C1799 1.419 . S
C1801 C1802 1.362 . S
C1802 H1794 0.930 . S
C1802 C1801 1.362 . S
C1802 C1805 1.409 . S
C1803 H1795 0.930 . S
C1803 C1804 1.355 . S
C1803 C1805 1.415 . S
C1804 C1803 1.355 . S
C1804 C1806 1.419 . S
C1805 C1800 1.425 . S
C1805 C1802 1.409 . S
C1805 C1803 1.415 . S
C1806 H1796 0.930 . S
C1806 C1804 1.419 . S
C1806 C1807 1.362 . S
C1807 H1797 0.930 . S
C1807 C1800 1.409 . S
C1807 C1806 1.362 . S
H1808 C1814 0.930 . S
H1809 C1817 0.930 . S
H1810 C1818 0.930 . S
H1811 C1819 0.930 1_655 S
H1812 C1822 0.930 . S
H1813 C1823 0.930 . S
C1814 H1808 0.930 . S
C1814 C1815 1.355 1_455 S
C1814 C1816 1.415 . S
C1815 C1814 1.355 1_655 S
C1815 C1817 1.419 . S
C1816 C1814 1.415 . S
C1816 C1821 1.425 . S
C1816 C1823 1.409 . S
C1817 H1809 0.930 . S
C1817 C1815 1.419 . S
C1817 C1818 1.362 . S
C1818 H1810 0.930 . S
C1818 C1817 1.362 . S
C1818 C1821 1.409 1_655 S
C1819 H1811 0.930 1_455 S
C1819 C1820 1.355 . S
C1819 C1821 1.415 . S
C1820 C1819 1.355 . S
C1820 C1822 1.419 . S
C1821 C1816 1.425 . S
C1821 C1818 1.409 1_455 S
C1821 C1819 1.415 . S
C1822 H1812 0.930 . S
C1822 C1820 1.419 . S
C1822 C1823 1.362 . S
C1823 H1813 0.930 . S
C1823 C1816 1.409 . S
C1823 C1822 1.362 . S
H1824 C1830 0.930 . S
H1825 C1833 0.930 . S
H1826 C1834 0.930 . S
H1827 C1835 0.930 . S
H1828 C1838 0.930 . S
H1829 C1839 0.930 . S
C1830 H1824 0.930 . S
C1830 C1831 1.355 . S
C1830 C1832 1.415 . S
C1831 C1830 1.355 . S
C1831 C1833 1.419 . S
C1832 C1830 1.415 . S
C1832 C1837 1.425 . S
C1832 C1839 1.409 . S
C1833 H1825 0.930 . S
C1833 C1831 1.419 . S
C1833 C1834 1.362 . S
C1834 H1826 0.930 . S
C1834 C1833 1.362 . S
C1834 C1837 1.409 . S
C1835 H1827 0.930 . S
C1835 C1836 1.355 . S
C1835 C1837 1.415 . S
C1836 C1835 1.355 . S
C1836 C1838 1.419 . S
C1837 C1832 1.425 . S
C1837 C1834 1.409 . S
C1837 C1835 1.415 . S
C1838 H1828 0.930 . S
C1838 C1836 1.419 . S
C1838 C1839 1.362 . S
C1839 H1829 0.930 . S
C1839 C1832 1.409 . S
C1839 C1838 1.362 . S
H1840 C1846 0.930 . S
H1841 C1849 0.930 . S
H1842 C1850 0.930 . S
H1843 C1851 0.930 . S
H1844 C1854 0.930 1_565 S
H1845 C1855 0.930 1_565 S
C1846 H1840 0.930 . S
C1846 C1847 1.355 . S
C1846 C1848 1.415 . S
C1847 C1846 1.355 . S
C1847 C1849 1.419 . S
C1848 C1846 1.415 . S
C1848 C1853 1.425 . S
C1848 C1855 1.409 . S
C1849 H1841 0.930 . S
C1849 C1847 1.419 . S
C1849 C1850 1.362 . S
C1850 H1842 0.930 . S
C1850 C1849 1.362 . S
C1850 C1853 1.409 . S
C1851 H1843 0.930 . S
C1851 C1852 1.355 . S
C1851 C1853 1.415 . S
C1852 C1851 1.355 . S
C1852 C1854 1.419 . S
C1853 C1848 1.425 . S
C1853 C1850 1.409 . S
C1853 C1851 1.415 . S
C1854 H1844 0.930 1_545 S
C1854 C1852 1.419 . S
C1854 C1855 1.362 . S
C1855 H1845 0.930 1_545 S
C1855 C1848 1.409 . S
C1855 C1854 1.362 . S
H1856 C1862 0.930 . S
H1857 C1865 0.930 . S
H1858 C1866 0.930 . S
H1859 C1867 0.930 . S
H1860 C1870 0.930 . S
H1861 C1871 0.930 . S
C1862 H1856 0.930 . S
C1862 C1863 1.355 . S
C1862 C1864 1.415 . S
C1863 C1862 1.355 . S
C1863 C1865 1.419 . S
C1864 C1862 1.415 . S
C1864 C1869 1.425 . S
C1864 C1871 1.409 . S
C1865 H1857 0.930 . S
C1865 C1863 1.419 . S
C1865 C1866 1.362 . S
C1866 H1858 0.930 . S
C1866 C1865 1.362 . S
C1866 C1869 1.409 . S
C1867 H1859 0.930 . S
C1867 C1868 1.355 . S
C1867 C1869 1.415 . S
C1868 C1867 1.355 . S
C1868 C1870 1.419 . S
C1869 C1864 1.425 . S
C1869 C1866 1.409 . S
C1869 C1867 1.415 . S
C1870 H1860 0.930 . S
C1870 C1868 1.419 . S
C1870 C1871 1.362 . S
C1871 H1861 0.930 . S
C1871 C1864 1.409 . S
C1871 C1870 1.362 . S
H1872 C1878 0.930 . S
H1873 C1881 0.930 . S
H1874 C1882 0.930 . S
H1875 C1883 0.930 . S
H1876 C1886 0.930 . S
H1877 C1887 0.892 1_655 S
C1878 H1872 0.930 . S
C1878 C1879 1.355 . S
C1878 C1880 1.415 1_655 S
C1879 C1878 1.355 . S
C1879 C1881 1.419 1_655 S
C1880 C1878 1.415 1_455 S
C1880 C1885 1.425 . S
C1880 C1887 1.421 . S
C1881 H1873 0.930 . S
C1881 C1879 1.419 1_455 S
C1881 C1882 1.362 . S
C1882 H1874 0.930 . S
C1882 C1881 1.362 . S
C1882 C1885 1.409 . S
C1883 H1875 0.930 . S
C1883 C1884 1.355 . S
C1883 C1885 1.415 . S
C1884 C1883 1.355 . S
C1884 C1886 1.419 . S
C1885 C1880 1.425 . S
C1885 C1882 1.409 . S
C1885 C1883 1.415 . S
C1886 H1876 0.930 . S
C1886 C1884 1.419 . S
C1886 C1887 1.389 . S
C1887 H1877 0.892 1_455 S
C1887 C1880 1.421 . S
C1887 C1886 1.389 . S
H1888 C1894 0.930 . S
H1889 C1897 0.930 . S
H1890 C1898 0.930 . S
H1891 C1899 0.930 . S
H1892 C1902 0.930 . S
H1893 C1903 0.930 . S
C1894 H1888 0.930 . S
C1894 C1895 1.355 . S
C1894 C1896 1.415 . S
C1895 C1894 1.355 . S
C1895 C1897 1.419 . S
C1896 C1894 1.415 . S
C1896 C1901 1.425 . S
C1896 C1903 1.409 . S
C1897 H1889 0.930 . S
C1897 C1895 1.419 . S
C1897 C1898 1.362 . S
C1898 H1890 0.930 . S
C1898 C1897 1.362 . S
C1898 C1901 1.409 . S
C1899 H1891 0.930 . S
C1899 C1900 1.355 . S
C1899 C1901 1.415 . S
C1900 C1899 1.355 . S
C1900 C1902 1.419 . S
C1901 C1896 1.425 . S
C1901 C1898 1.409 . S
C1901 C1899 1.415 . S
C1902 H1892 0.930 . S
C1902 C1900 1.419 . S
C1902 C1903 1.362 . S
C1903 H1893 0.930 . S
C1903 C1896 1.409 . S
C1903 C1902 1.362 . S
H1904 C1910 0.930 . S
H1905 C1913 0.930 . S
H1906 C1914 0.930 . S
H1907 C1915 0.930 . S
H1908 C1918 0.930 . S
H1909 C1919 0.930 . S
C1910 H1904 0.930 . S
C1910 C1911 1.355 . S
C1910 C1912 1.415 . S
C1911 C1910 1.355 . S
C1911 C1913 1.419 . S
C1912 C1910 1.415 . S
C1912 C1917 1.425 . S
C1912 C1919 1.409 . S
C1913 H1905 0.930 . S
C1913 C1911 1.419 . S
C1913 C1914 1.362 . S
C1914 H1906 0.930 . S
C1914 C1913 1.362 . S
C1914 C1917 1.409 . S
C1915 H1907 0.930 . S
C1915 C1916 1.355 . S
C1915 C1917 1.415 . S
C1916 C1915 1.355 . S
C1916 C1918 1.419 . S
C1917 C1912 1.425 . S
C1917 C1914 1.409 . S
C1917 C1915 1.415 . S
C1918 H1908 0.930 . S
C1918 C1916 1.419 . S
C1918 C1919 1.362 . S
C1919 H1909 0.930 . S
C1919 C1912 1.409 . S
C1919 C1918 1.362 . S
H1920 C1926 0.930 . S
H1921 C1929 0.930 . S
H1922 C1930 0.930 . S
H1923 C1931 0.930 . S
H1924 C1934 0.930 . S
H1925 C1935 0.930 . S
C1926 H1920 0.930 . S
C1926 C1927 1.355 . S
C1926 C1928 1.415 . S
C1927 C1926 1.355 . S
C1927 C1929 1.419 . S
C1928 C1926 1.415 . S
C1928 C1933 1.425 . S
C1928 C1935 1.409 . S
C1929 H1921 0.930 . S
C1929 C1927 1.419 . S
C1929 C1930 1.362 . S
C1930 H1922 0.930 . S
C1930 C1929 1.362 . S
C1930 C1933 1.409 . S
C1931 H1923 0.930 . S
C1931 C1932 1.355 . S
C1931 C1933 1.415 . S
C1932 C1931 1.355 . S
C1932 C1934 1.419 . S
C1933 C1928 1.425 . S
C1933 C1930 1.409 . S
C1933 C1931 1.415 . S
C1934 H1924 0.930 . S
C1934 C1932 1.419 . S
C1934 C1935 1.362 . S
C1935 H1925 0.930 . S
C1935 C1928 1.409 . S
C1935 C1934 1.362 . S
H1936 C1942 0.930 . S
H1937 C1945 0.930 . S
H1938 C1946 0.930 . S
H1939 C1947 0.930 . S
H1940 C1950 0.930 . S
H1941 C1951 0.930 . S
C1942 H1936 0.930 . S
C1942 C1943 1.355 1_556 S
C1942 C1944 1.415 1_556 S
C1943 C1942 1.355 1_554 S
C1943 C1945 1.419 . S
C1944 C1942 1.415 1_554 S
C1944 C1949 1.423 . S
C1944 C1951 1.409 1_554 S
C1945 H1937 0.930 . S
C1945 C1943 1.419 . S
C1945 C1946 1.362 . S
C1946 H1938 0.930 . S
C1946 C1945 1.362 . S
C1946 C1949 1.425 . S
C1947 H1939 0.930 . S
C1947 C1948 1.355 . S
C1947 C1949 1.402 1_545 S
C1948 C1947 1.355 . S
C1948 C1950 1.419 1_554 S
C1949 C1944 1.423 . S
C1949 C1946 1.425 . S
C1949 C1947 1.402 1_565 S
C1950 H1940 0.930 . S
C1950 C1948 1.419 1_556 S
C1950 C1951 1.362 1_545 S
C1951 H1941 0.930 . S
C1951 C1944 1.409 1_556 S
C1951 C1950 1.362 1_565 S
H1952 C1958 0.931 1_554 S
H1953 C1961 0.930 . S
H1954 C1962 0.930 . S
H1955 C1963 0.930 . S
H1956 C1966 0.930 . S
H1957 C1967 0.930 1_554 S
C1958 H1952 0.931 1_556 S
C1958 C1959 1.355 . S
C1958 C1960 1.415 . S
C1959 C1958 1.355 . S
C1959 C1961 1.419 . S
C1960 C1958 1.415 . S
C1960 C1965 1.425 . S
C1960 C1967 1.409 . S
C1961 H1953 0.930 . S
C1961 C1959 1.419 . S
C1961 C1962 1.362 . S
C1962 H1954 0.930 . S
C1962 C1961 1.362 . S
C1962 C1965 1.409 . S
C1963 H1955 0.930 . S
C1963 C1964 1.355 . S
C1963 C1965 1.415 . S
C1964 C1963 1.355 . S
C1964 C1966 1.419 . S
C1965 C1960 1.425 . S
C1965 C1962 1.409 . S
C1965 C1963 1.415 . S
C1966 H1956 0.930 . S
C1966 C1964 1.419 . S
C1966 C1967 1.362 . S
C1967 H1957 0.930 1_556 S
C1967 C1960 1.409 . S
C1967 C1966 1.362 . S
H1968 C1974 0.930 . S
H1969 C1977 0.930 . S
H1970 C1978 0.930 . S
H1971 C1979 0.930 . S
H1972 C1982 0.930 . S
H1973 C1983 0.930 . S
C1974 H1968 0.930 . S
C1974 C1975 1.355 . S
C1974 C1976 1.415 . S
C1975 C1974 1.355 . S
C1975 C1977 1.419 . S
C1976 C1974 1.415 . S
C1976 C1981 1.425 . S
C1976 C1983 1.409 . S
C1977 H1969 0.930 . S
C1977 C1975 1.419 . S
C1977 C1978 1.362 . S
C1978 H1970 0.930 . S
C1978 C1977 1.362 . S
C1978 C1981 1.409 . S
C1979 H1971 0.930 . S
C1979 C1980 1.355 . S
C1979 C1981 1.415 . S
C1980 C1979 1.355 . S
C1980 C1982 1.419 . S
C1981 C1976 1.425 . S
C1981 C1978 1.409 . S
C1981 C1979 1.415 . S
C1982 H1972 0.930 . S
C1982 C1980 1.419 . S
C1982 C1983 1.362 . S
C1983 H1973 0.930 . S
C1983 C1976 1.409 . S
C1983 C1982 1.362 . S
H1984 C1990 0.930 . S
H1985 C1993 0.930 . S
H1986 C1994 0.930 . S
H1987 C1995 0.930 . S
H1988 C1998 0.930 1_455 S
H1989 C1999 0.930 . S
C1990 H1984 0.930 . S
C1990 C1991 1.355 . S
C1990 C1992 1.415 . S
C1991 C1990 1.355 . S
C1991 C1993 1.419 . S
C1992 C1990 1.415 . S
C1992 C1997 1.425 . S
C1992 C1999 1.409 . S
C1993 H1985 0.930 . S
C1993 C1991 1.419 . S
C1993 C1994 1.362 . S
C1994 H1986 0.930 . S
C1994 C1993 1.362 . S
C1994 C1997 1.409 . S
C1995 H1987 0.930 . S
C1995 C1996 1.355 1_655 S
C1995 C1997 1.415 . S
C1996 C1995 1.355 1_455 S
C1996 C1998 1.419 1_455 S
C1997 C1992 1.425 . S
C1997 C1994 1.409 . S
C1997 C1995 1.415 . S
C1998 H1988 0.930 1_655 S
C1998 C1996 1.419 1_655 S
C1998 C1999 1.362 . S
C1999 H1989 0.930 . S
C1999 C1992 1.409 . S
C1999 C1998 1.362 . S
H2000 C2006 0.930 . S
H2001 C2009 0.930 . S
H2002 C2010 0.930 . S
H2003 C2011 0.930 . S
H2004 C2014 0.930 . S
H2005 C2015 0.930 . S
C2006 H2000 0.930 . S
C2006 C2007 1.355 . S
C2006 C2008 1.415 . S
C2007 C2006 1.355 . S
C2007 C2009 1.419 . S
C2008 C2006 1.415 . S
C2008 C2013 1.425 . S
C2008 C2015 1.409 . S
C2009 H2001 0.930 . S
C2009 C2007 1.419 . S
C2009 C2010 1.362 . S
C2010 H2002 0.930 . S
C2010 C2009 1.362 . S
C2010 C2013 1.409 . S
C2011 H2003 0.930 . S
C2011 C2012 1.355 . S
C2011 C2013 1.415 . S
C2012 C2011 1.355 . S
C2012 C2014 1.419 . S
C2013 C2008 1.425 . S
C2013 C2010 1.409 . S
C2013 C2011 1.415 . S
C2014 H2004 0.930 . S
C2014 C2012 1.419 . S
C2014 C2015 1.362 . S
C2015 H2005 0.930 . S
C2015 C2008 1.409 . S
C2015 C2014 1.362 . S
H2016 C2022 0.930 . S
H2017 C2025 0.930 . S
H2018 C2026 0.930 . S
H2019 C2027 0.930 . S
H2020 C2030 0.930 . S
H2021 C2031 0.930 . S
C2022 H2016 0.930 . S
C2022 C2023 1.355 . S
C2022 C2024 1.415 . S
C2023 C2022 1.355 . S
C2023 C2025 1.419 . S
C2024 C2022 1.415 . S
C2024 C2029 1.425 . S
C2024 C2031 1.409 . S
C2025 H2017 0.930 . S
C2025 C2023 1.419 . S
C2025 C2026 1.362 . S
C2026 H2018 0.930 . S
C2026 C2025 1.362 . S
C2026 C2029 1.409 . S
C2027 H2019 0.930 . S
C2027 C2028 1.355 . S
C2027 C2029 1.415 . S
C2028 C2027 1.355 . S
C2028 C2030 1.419 . S
C2029 C2024 1.425 . S
C2029 C2026 1.409 . S
C2029 C2027 1.415 . S
C2030 H2020 0.930 . S
C2030 C2028 1.419 . S
C2030 C2031 1.362 . S
C2031 H2021 0.930 . S
C2031 C2024 1.409 . S
C2031 C2030 1.362 . S
H2032 C2038 0.930 . S
H2033 C2041 0.930 . S
H2034 C2042 0.930 . S
H2035 C2043 0.930 . S
H2036 C2046 0.930 . S
H2037 C2047 0.930 . S
C2038 H2032 0.930 . S
C2038 C2039 1.355 . S
C2038 C2040 1.415 . S
C2039 C2038 1.355 . S
C2039 C2041 1.419 . S
C2040 C2038 1.415 . S
C2040 C2045 1.425 . S
C2040 C2047 1.409 . S
C2041 H2033 0.930 . S
C2041 C2039 1.419 . S
C2041 C2042 1.362 . S
C2042 H2034 0.930 . S
C2042 C2041 1.362 . S
C2042 C2045 1.409 . S
C2043 H2035 0.930 . S
C2043 C2044 1.355 . S
C2043 C2045 1.415 . S
C2044 C2043 1.355 . S
C2044 C2046 1.419 . S
C2045 C2040 1.425 . S
C2045 C2042 1.409 . S
C2045 C2043 1.415 . S
C2046 H2036 0.930 . S
C2046 C2044 1.419 . S
C2046 C2047 1.362 . S
C2047 H2037 0.930 . S
C2047 C2040 1.409 . S
C2047 C2046 1.362 . S
H2048 C2054 0.930 . S
H2049 C2057 0.930 . S
H2050 C2058 0.930 . S
H2051 C2059 0.930 . S
H2052 C2062 0.930 . S
H2053 C2063 0.930 . S
C2054 H2048 0.930 . S
C2054 C2055 1.355 . S
C2054 C2056 1.415 . S
C2055 C2054 1.355 . S
C2055 C2057 1.419 . S
C2056 C2054 1.415 . S
C2056 C2061 1.425 . S
C2056 C2063 1.409 . S
C2057 H2049 0.930 . S
C2057 C2055 1.419 . S
C2057 C2058 1.362 . S
C2058 H2050 0.930 . S
C2058 C2057 1.362 . S
C2058 C2061 1.409 . S
C2059 H2051 0.930 . S
C2059 C2060 1.355 . S
C2059 C2061 1.415 . S
C2060 C2059 1.355 . S
C2060 C2062 1.419 . S
C2061 C2056 1.425 . S
C2061 C2058 1.409 . S
C2061 C2059 1.415 . S
C2062 H2052 0.930 . S
C2062 C2060 1.419 . S
C2062 C2063 1.362 . S
C2063 H2053 0.930 . S
C2063 C2056 1.409 . S
C2063 C2062 1.362 . S
H2064 C2070 0.930 . S
H2065 C2073 0.930 . S
H2066 C2074 0.930 . S
H2067 C2075 0.930 . S
H2068 C2078 0.930 1_556 S
H2069 C2079 0.930 . S
C2070 H2064 0.930 . S
C2070 C2071 1.355 . S
C2070 C2072 1.415 . S
C2071 C2070 1.355 . S
C2071 C2073 1.419 . S
C2072 C2070 1.415 . S
C2072 C2077 1.425 . S
C2072 C2079 1.409 . S
C2073 H2065 0.930 . S
C2073 C2071 1.419 . S
C2073 C2074 1.362 . S
C2074 H2066 0.930 . S
C2074 C2073 1.362 . S
C2074 C2077 1.409 . S
C2075 H2067 0.930 . S
C2075 C2076 1.355 . S
C2075 C2077 1.415 . S
C2076 C2075 1.355 . S
C2076 C2078 1.419 . S
C2077 C2072 1.425 . S
C2077 C2074 1.409 . S
C2077 C2075 1.415 . S
C2078 H2068 0.930 1_554 S
C2078 C2076 1.419 . S
C2078 C2079 1.362 . S
C2079 H2069 0.930 . S
C2079 C2072 1.409 . S
C2079 C2078 1.362 . S
H2080 C2086 0.930 . S
H2081 C2089 0.930 . S
H2082 C2090 0.930 . S
H2083 C2091 0.930 . S
H2084 C2094 0.930 . S
H2085 C2095 0.930 . S
C2086 H2080 0.930 . S
C2086 C2087 1.355 . S
C2086 C2088 1.415 . S
C2087 C2086 1.355 . S
C2087 C2089 1.419 . S
C2088 C2086 1.415 . S
C2088 C2093 1.425 . S
C2088 C2095 1.409 . S
C2089 H2081 0.930 . S
C2089 C2087 1.419 . S
C2089 C2090 1.362 . S
C2090 H2082 0.930 . S
C2090 C2089 1.362 . S
C2090 C2093 1.409 . S
C2091 H2083 0.930 . S
C2091 C2092 1.355 . S
C2091 C2093 1.415 . S
C2092 C2091 1.355 . S
C2092 C2094 1.419 . S
C2093 C2088 1.425 . S
C2093 C2090 1.409 . S
C2093 C2091 1.415 . S
C2094 H2084 0.930 . S
C2094 C2092 1.419 . S
C2094 C2095 1.362 . S
C2095 H2085 0.930 . S
C2095 C2088 1.409 . S
C2095 C2094 1.362 . S
H2096 C2102 0.930 . S
H2097 C2105 0.930 . S
H2098 C2106 0.930 . S
H2099 C2107 0.930 . S
H2100 C2110 0.930 . S
H2101 C2111 0.930 . S
C2102 H2096 0.930 . S
C2102 C2103 1.355 . S
C2102 C2104 1.415 . S
C2103 C2102 1.355 . S
C2103 C2105 1.419 . S
C2104 C2102 1.415 . S
C2104 C2109 1.425 . S
C2104 C2111 1.409 . S
C2105 H2097 0.930 . S
C2105 C2103 1.419 . S
C2105 C2106 1.362 . S
C2106 H2098 0.930 . S
C2106 C2105 1.362 . S
C2106 C2109 1.409 . S
C2107 H2099 0.930 . S
C2107 C2108 1.355 . S
C2107 C2109 1.415 . S
C2108 C2107 1.355 . S
C2108 C2110 1.419 . S
C2109 C2104 1.425 . S
C2109 C2106 1.409 . S
C2109 C2107 1.415 . S
C2110 H2100 0.930 . S
C2110 C2108 1.419 . S
C2110 C2111 1.362 . S
C2111 H2101 0.930 . S
C2111 C2104 1.409 . S
C2111 C2110 1.362 . S
H2112 C2118 0.930 . S
H2113 C2121 0.930 . S
H2114 C2122 0.930 . S
H2115 C2123 0.930 . S
H2116 C2126 0.930 . S
H2117 C2127 0.930 . S
C2118 H2112 0.930 . S
C2118 C2119 1.355 . S
C2118 C2120 1.415 . S
C2119 C2118 1.355 . S
C2119 C2121 1.419 . S
C2120 C2118 1.415 . S
C2120 C2125 1.425 . S
C2120 C2127 1.409 . S
C2121 H2113 0.930 . S
C2121 C2119 1.419 . S
C2121 C2122 1.362 . S
C2122 H2114 0.930 . S
C2122 C2121 1.362 . S
C2122 C2125 1.409 . S
C2123 H2115 0.930 . S
C2123 C2124 1.355 . S
C2123 C2125 1.415 . S
C2124 C2123 1.355 . S
C2124 C2126 1.419 . S
C2125 C2120 1.425 . S
C2125 C2122 1.409 . S
C2125 C2123 1.415 . S
C2126 H2116 0.930 . S
C2126 C2124 1.419 . S
C2126 C2127 1.362 . S
C2127 H2117 0.930 . S
C2127 C2120 1.409 . S
C2127 C2126 1.362 . S
H2128 C2134 0.930 . S
H2129 C2137 0.930 . S
H2130 C2138 0.930 . S
H2131 C2139 0.930 . S
H2132 C2142 0.930 . S
H2133 C2143 0.930 . S
C2134 H2128 0.930 . S
C2134 C2135 1.355 . S
C2134 C2136 1.415 . S
C2135 C2134 1.355 . S
C2135 C2137 1.419 . S
C2136 C2134 1.415 . S
C2136 C2141 1.425 . S
C2136 C2143 1.409 . S
C2137 H2129 0.930 . S
C2137 C2135 1.419 . S
C2137 C2138 1.362 . S
C2138 H2130 0.930 . S
C2138 C2137 1.362 . S
C2138 C2141 1.409 . S
C2139 H2131 0.930 . S
C2139 C2140 1.355 . S
C2139 C2141 1.415 . S
C2140 C2139 1.355 . S
C2140 C2142 1.419 . S
C2141 C2136 1.425 . S
C2141 C2138 1.409 . S
C2141 C2139 1.415 . S
C2142 H2132 0.930 . S
C2142 C2140 1.419 . S
C2142 C2143 1.362 . S
C2143 H2133 0.930 . S
C2143 C2136 1.409 . S
C2143 C2142 1.362 . S
H2144 C2150 0.930 . S
H2145 C2153 0.930 . S
H2146 C2154 0.930 . S
H2147 C2155 0.930 . S
H2148 C2158 0.930 . S
H2149 C2159 0.930 . S
C2150 H2144 0.930 . S
C2150 C2151 1.355 . S
C2150 C2152 1.415 . S
C2151 C2150 1.355 . S
C2151 C2153 1.419 . S
C2152 C2150 1.415 . S
C2152 C2157 1.425 . S
C2152 C2159 1.409 . S
C2153 H2145 0.930 . S
C2153 C2151 1.419 . S
C2153 C2154 1.362 . S
C2154 H2146 0.930 . S
C2154 C2153 1.362 . S
C2154 C2157 1.409 . S
C2155 H2147 0.930 . S
C2155 C2156 1.355 . S
C2155 C2157 1.415 . S
C2156 C2155 1.355 . S
C2156 C2158 1.419 . S
C2157 C2152 1.425 . S
C2157 C2154 1.409 . S
C2157 C2155 1.415 . S
C2158 H2148 0.930 . S
C2158 C2156 1.419 . S
C2158 C2159 1.362 . S
C2159 H2149 0.930 . S
C2159 C2152 1.409 . S
C2159 C2158 1.362 . S
H2160 C2166 0.930 . S
H2161 C2169 0.930 . S
H2162 C2170 0.930 . S
H2163 C2171 0.930 . S
H2164 C2174 0.930 1_545 S
H2165 C2175 0.930 . S
C2166 H2160 0.930 . S
C2166 C2167 1.355 . S
C2166 C2168 1.415 . S
C2167 C2166 1.355 . S
C2167 C2169 1.419 . S
C2168 C2166 1.415 . S
C2168 C2173 1.425 . S
C2168 C2175 1.409 . S
C2169 H2161 0.930 . S
C2169 C2167 1.419 . S
C2169 C2170 1.362 . S
C2170 H2162 0.930 . S
C2170 C2169 1.362 . S
C2170 C2173 1.409 . S
C2171 H2163 0.930 . S
C2171 C2172 1.355 . S
C2171 C2173 1.415 . S
C2172 C2171 1.355 . S
C2172 C2174 1.419 . S
C2173 C2168 1.425 . S
C2173 C2170 1.409 . S
C2173 C2171 1.415 . S
C2174 H2164 0.930 1_565 S
C2174 C2172 1.419 . S
C2174 C2175 1.362 . S
C2175 H2165 0.930 . S
C2175 C2168 1.409 . S
C2175 C2174 1.362 . S
H2176 C2182 0.930 . S
H2177 C2185 0.930 . S
H2178 C2186 0.930 . S
H2179 C2187 0.930 . S
H2180 C2190 0.930 . S
H2181 C2191 0.930 . S
C2182 H2176 0.930 . S
C2182 C2183 1.355 . S
C2182 C2184 1.415 . S
C2183 C2182 1.355 . S
C2183 C2185 1.419 . S
C2184 C2182 1.415 . S
C2184 C2189 1.425 . S
C2184 C2191 1.409 . S
C2185 H2177 0.930 . S
C2185 C2183 1.419 . S
C2185 C2186 1.362 . S
C2186 H2178 0.930 . S
C2186 C2185 1.362 . S
C2186 C2189 1.409 . S
C2187 H2179 0.930 . S
C2187 C2188 1.355 . S
C2187 C2189 1.415 . S
C2188 C2187 1.355 . S
C2188 C2190 1.419 . S
C2189 C2184 1.425 . S
C2189 C2186 1.409 . S
C2189 C2187 1.415 . S
C2190 H2180 0.930 . S
C2190 C2188 1.419 . S
C2190 C2191 1.362 . S
C2191 H2181 0.930 . S
C2191 C2184 1.409 . S
C2191 C2190 1.362 . S
H2192 C2198 0.930 . S
H2193 C2201 0.930 . S
H2194 C2202 0.930 . S
H2195 C2203 0.930 . S
H2196 C2206 0.930 . S
H2197 C2207 0.930 . S
C2198 H2192 0.930 . S
C2198 C2199 1.355 . S
C2198 C2200 1.415 . S
C2199 C2198 1.355 . S
C2199 C2201 1.419 1_545 S
C2200 C2198 1.415 . S
C2200 C2205 1.425 1_545 S
C2200 C2207 1.409 . S
C2201 H2193 0.930 . S
C2201 C2199 1.419 1_565 S
C2201 C2202 1.362 . S
C2202 H2194 0.930 . S
C2202 C2201 1.362 . S
C2202 C2205 1.409 . S
C2203 H2195 0.930 . S
C2203 C2204 1.355 1_565 S
C2203 C2205 1.415 . S
C2204 C2203 1.355 1_545 S
C2204 C2206 1.419 . S
C2205 C2200 1.425 1_565 S
C2205 C2202 1.409 . S
C2205 C2203 1.415 . S
C2206 H2196 0.930 . S
C2206 C2204 1.419 . S
C2206 C2207 1.362 . S
C2207 H2197 0.930 . S
C2207 C2200 1.409 . S
C2207 C2206 1.362 . S
H2208 C2214 0.930 . S
H2209 C2217 0.930 . S
H2210 C2218 0.930 . S
H2211 C2219 0.930 . S
H2212 C2222 0.930 . S
H2213 C2223 0.930 . S
C2214 H2208 0.930 . S
C2214 C2215 1.355 . S
C2214 C2216 1.415 . S
C2215 C2214 1.355 . S
C2215 C2217 1.419 . S
C2216 C2214 1.415 . S
C2216 C2221 1.425 . S
C2216 C2223 1.409 . S
C2217 H2209 0.930 . S
C2217 C2215 1.419 . S
C2217 C2218 1.362 . S
C2218 H2210 0.930 . S
C2218 C2217 1.362 . S
C2218 C2221 1.409 . S
C2219 H2211 0.930 . S
C2219 C2220 1.355 . S
C2219 C2221 1.415 . S
C2220 C2219 1.355 . S
C2220 C2222 1.419 . S
C2221 C2216 1.425 . S
C2221 C2218 1.409 . S
C2221 C2219 1.415 . S
C2222 H2212 0.930 . S
C2222 C2220 1.419 . S
C2222 C2223 1.362 . S
C2223 H2213 0.930 . S
C2223 C2216 1.409 . S
C2223 C2222 1.362 . S
H2224 C2230 0.930 . S
H2225 C2233 0.930 . S
H2226 C2234 0.930 . S
H2227 C2235 0.930 . S
H2228 C2238 0.930 . S
H2229 C2239 0.930 . S
C2230 H2224 0.930 . S
C2230 C2231 1.355 . S
C2230 C2232 1.415 . S
C2231 C2230 1.355 . S
C2231 C2233 1.419 . S
C2232 C2230 1.415 . S
C2232 C2237 1.425 . S
C2232 C2239 1.409 . S
C2233 H2225 0.930 . S
C2233 C2231 1.419 . S
C2233 C2234 1.362 . S
C2234 H2226 0.930 . S
C2234 C2233 1.362 . S
C2234 C2237 1.409 . S
C2235 H2227 0.930 . S
C2235 C2236 1.355 . S
C2235 C2237 1.415 . S
C2236 C2235 1.355 . S
C2236 C2238 1.419 . S
C2237 C2232 1.425 . S
C2237 C2234 1.409 . S
C2237 C2235 1.415 . S
C2238 H2228 0.930 . S
C2238 C2236 1.419 . S
C2238 C2239 1.362 . S
C2239 H2229 0.930 . S
C2239 C2232 1.409 . S
C2239 C2238 1.362 . S
H2240 C2246 0.930 . S
H2241 C2249 0.930 . S
H2242 C2250 0.930 . S
H2243 C2251 0.930 . S
H2244 C2254 0.930 . S
H2245 C2255 0.930 . S
C2246 H2240 0.930 . S
C2246 C2247 1.355 . S
C2246 C2248 1.415 . S
C2247 C2246 1.355 . S
C2247 C2249 1.419 . S
C2248 C2246 1.415 . S
C2248 C2253 1.425 . S
C2248 C2255 1.409 . S
C2249 H2241 0.930 . S
C2249 C2247 1.419 . S
C2249 C2250 1.362 . S
C2250 H2242 0.930 . S
C2250 C2249 1.362 . S
C2250 C2253 1.409 . S
C2251 H2243 0.930 . S
C2251 C2252 1.355 . S
C2251 C2253 1.415 . S
C2252 C2251 1.355 . S
C2252 C2254 1.419 . S
C2253 C2248 1.425 . S
C2253 C2250 1.409 . S
C2253 C2251 1.415 . S
C2254 H2244 0.930 . S
C2254 C2252 1.419 . S
C2254 C2255 1.362 . S
C2255 H2245 0.930 . S
C2255 C2248 1.409 . S
C2255 C2254 1.362 . S
H2256 C2262 0.930 . S
H2257 C2265 0.930 . S
H2258 C2266 0.930 . S
H2259 C2267 0.930 . S
H2260 C2270 0.930 . S
H2261 C2271 0.930 . S
C2262 H2256 0.930 . S
C2262 C2263 1.355 . S
C2262 C2264 1.415 . S
C2263 C2262 1.355 . S
C2263 C2265 1.419 1_565 S
C2264 C2262 1.415 . S
C2264 C2269 1.425 1_565 S
C2264 C2271 1.409 . S
C2265 H2257 0.930 . S
C2265 C2263 1.419 1_545 S
C2265 C2266 1.362 . S
C2266 H2258 0.930 . S
C2266 C2265 1.362 . S
C2266 C2269 1.409 . S
C2267 H2259 0.930 . S
C2267 C2268 1.355 . S
C2267 C2269 1.415 . S
C2268 C2267 1.355 . S
C2268 C2270 1.419 1_545 S
C2269 C2264 1.425 1_545 S
C2269 C2266 1.409 . S
C2269 C2267 1.415 . S
C2270 H2260 0.930 . S
C2270 C2268 1.419 1_565 S
C2270 C2271 1.362 . S
C2271 H2261 0.930 . S
C2271 C2264 1.409 . S
C2271 C2270 1.362 . S
H2272 C2278 0.930 . S
H2273 C2281 0.930 . S
H2274 C2282 0.930 . S
H2275 C2283 0.930 . S
H2276 C2286 0.930 . S
H2277 C2287 0.930 . S
C2278 H2272 0.930 . S
C2278 C2279 1.355 . S
C2278 C2280 1.415 . S
C2279 C2278 1.355 . S
C2279 C2281 1.419 . S
C2280 C2278 1.415 . S
C2280 C2285 1.425 . S
C2280 C2287 1.409 . S
C2281 H2273 0.930 . S
C2281 C2279 1.419 . S
C2281 C2282 1.362 . S
C2282 H2274 0.930 . S
C2282 C2281 1.362 . S
C2282 C2285 1.409 . S
C2283 H2275 0.930 . S
C2283 C2284 1.355 . S
C2283 C2285 1.415 . S
C2284 C2283 1.355 . S
C2284 C2286 1.419 . S
C2285 C2280 1.425 . S
C2285 C2282 1.409 . S
C2285 C2283 1.415 . S
C2286 H2276 0.930 . S
C2286 C2284 1.419 . S
C2286 C2287 1.362 . S
C2287 H2277 0.930 . S
C2287 C2280 1.409 . S
C2287 C2286 1.362 . S
H2288 C2294 0.930 . S
H2289 C2297 0.930 . S
H2290 C2298 0.930 . S
H2291 C2299 0.930 . S
H2292 C2302 0.930 . S
H2293 C2303 0.930 . S
C2294 H2288 0.930 . S
C2294 C2295 1.355 1_565 S
C2294 C2296 1.415 . S
C2295 C2294 1.355 1_545 S
C2295 C2297 1.419 . S
C2296 C2294 1.415 . S
C2296 C2301 1.425 1_565 S
C2296 C2303 1.409 . S
C2297 H2289 0.930 . S
C2297 C2295 1.419 . S
C2297 C2298 1.362 . S
C2298 H2290 0.930 . S
C2298 C2297 1.362 . S
C2298 C2301 1.409 . S
C2299 H2291 0.930 . S
C2299 C2300 1.355 . S
C2299 C2301 1.415 . S
C2300 C2299 1.355 . S
C2300 C2302 1.419 1_545 S
C2301 C2296 1.425 1_545 S
C2301 C2298 1.409 . S
C2301 C2299 1.415 . S
C2302 H2292 0.930 . S
C2302 C2300 1.419 1_565 S
C2302 C2303 1.362 . S
C2303 H2293 0.930 . S
C2303 C2296 1.409 . S
C2303 C2302 1.362 . S
H2304 C2310 0.930 . S
H2305 C2313 0.930 . S
H2306 C2314 0.930 . S
H2307 C2315 0.930 . S
H2308 C2318 0.930 . S
H2309 C2319 0.930 . S
C2310 H2304 0.930 . S
C2310 C2311 1.355 . S
C2310 C2312 1.415 . S
C2311 C2310 1.355 . S
C2311 C2313 1.419 . S
C2312 C2310 1.415 . S
C2312 C2317 1.425 . S
C2312 C2319 1.409 . S
C2313 H2305 0.930 . S
C2313 C2311 1.419 . S
C2313 C2314 1.362 . S
C2314 H2306 0.930 . S
C2314 C2313 1.362 . S
C2314 C2317 1.409 . S
C2315 H2307 0.930 . S
C2315 C2316 1.355 . S
C2315 C2317 1.415 . S
C2316 C2315 1.355 . S
C2316 C2318 1.419 . S
C2317 C2312 1.425 . S
C2317 C2314 1.409 . S
C2317 C2315 1.415 . S
C2318 H2308 0.930 . S
C2318 C2316 1.419 . S
C2318 C2319 1.362 . S
C2319 H2309 0.930 . S
C2319 C2312 1.409 . S
C2319 C2318 1.362 . S
H2320 C2326 0.930 . S
H2321 C2329 0.930 . S
H2322 C2330 0.930 . S
H2323 C2331 0.930 . S
H2324 C2334 0.930 . S
H2325 C2335 0.930 . S
C2326 H2320 0.930 . S
C2326 C2327 1.355 . S
C2326 C2328 1.415 . S
C2327 C2326 1.355 . S
C2327 C2329 1.419 . S
C2328 C2326 1.415 . S
C2328 C2333 1.425 . S
C2328 C2335 1.409 1_554 S
C2329 H2321 0.930 . S
C2329 C2327 1.419 . S
C2329 C2330 1.362 . S
C2330 H2322 0.930 . S
C2330 C2329 1.362 . S
C2330 C2333 1.409 . S
C2331 H2323 0.930 . S
C2331 C2332 1.355 1_554 S
C2331 C2333 1.415 . S
C2332 C2331 1.355 1_556 S
C2332 C2334 1.419 . S
C2333 C2328 1.425 . S
C2333 C2330 1.409 . S
C2333 C2331 1.415 . S
C2334 H2324 0.930 . S
C2334 C2332 1.419 . S
C2334 C2335 1.362 . S
C2335 H2325 0.930 . S
C2335 C2328 1.409 1_556 S
C2335 C2334 1.362 . S
H2336 C2342 0.930 . S
H2337 C2345 0.930 . S
H2338 C2346 0.930 . S
H2339 C2347 0.930 . S
H2340 C2350 0.930 . S
H2341 C2351 0.930 . S
C2342 H2336 0.930 . S
C2342 C2343 1.355 . S
C2342 C2344 1.415 . S
C2343 C2342 1.355 . S
C2343 C2345 1.419 . S
C2344 C2342 1.415 . S
C2344 C2349 1.425 . S
C2344 C2351 1.409 . S
C2345 H2337 0.930 . S
C2345 C2343 1.419 . S
C2345 C2346 1.362 . S
C2346 H2338 0.930 . S
C2346 C2345 1.362 . S
C2346 C2349 1.409 . S
C2347 H2339 0.930 . S
C2347 C2348 1.355 . S
C2347 C2349 1.415 . S
C2348 C2347 1.355 . S
C2348 C2350 1.419 . S
C2349 C2344 1.425 . S
C2349 C2346 1.409 . S
C2349 C2347 1.415 . S
C2350 H2340 0.930 . S
C2350 C2348 1.419 . S
C2350 C2351 1.362 . S
C2351 H2341 0.930 . S
C2351 C2344 1.409 . S
C2351 C2350 1.362 . S
H2352 C2358 0.930 . S
H2353 C2361 0.930 . S
H2354 C2362 0.930 . S
H2355 C2363 0.930 . S
H2356 C2366 0.930 . S
H2357 C2367 0.930 . S
C2358 H2352 0.930 . S
C2358 C2359 1.355 . S
C2358 C2360 1.415 . S
C2359 C2358 1.355 . S
C2359 C2361 1.419 . S
C2360 C2358 1.415 . S
C2360 C2365 1.425 . S
C2360 C2367 1.409 . S
C2361 H2353 0.930 . S
C2361 C2359 1.419 . S
C2361 C2362 1.362 . S
C2362 H2354 0.930 . S
C2362 C2361 1.362 . S
C2362 C2365 1.409 . S
C2363 H2355 0.930 . S
C2363 C2364 1.355 . S
C2363 C2365 1.415 . S
C2364 C2363 1.355 . S
C2364 C2366 1.419 . S
C2365 C2360 1.425 . S
C2365 C2362 1.409 . S
C2365 C2363 1.415 . S
C2366 H2356 0.930 . S
C2366 C2364 1.419 . S
C2366 C2367 1.362 . S
C2367 H2357 0.930 . S
C2367 C2360 1.409 . S
C2367 C2366 1.362 . S
H2368 C2374 0.930 . S
H2369 C2377 0.930 . S
H2370 C2378 0.930 . S
H2371 C2379 0.930 . S
H2372 C2382 0.930 . S
H2373 C2383 0.930 . S
C2374 H2368 0.930 . S
C2374 C2375 1.355 . S
C2374 C2376 1.415 . S
C2375 C2374 1.355 . S
C2375 C2377 1.419 . S
C2376 C2374 1.415 . S
C2376 C2381 1.425 . S
C2376 C2383 1.409 . S
C2377 H2369 0.930 . S
C2377 C2375 1.419 . S
C2377 C2378 1.362 . S
C2378 H2370 0.930 . S
C2378 C2377 1.362 . S
C2378 C2381 1.409 . S
C2379 H2371 0.930 . S
C2379 C2380 1.355 . S
C2379 C2381 1.415 . S
C2380 C2379 1.355 . S
C2380 C2382 1.419 . S
C2381 C2376 1.425 . S
C2381 C2378 1.409 . S
C2381 C2379 1.415 . S
C2382 H2372 0.930 . S
C2382 C2380 1.419 . S
C2382 C2383 1.362 . S
C2383 H2373 0.930 . S
C2383 C2376 1.409 . S
C2383 C2382 1.362 . S
H2384 C2390 0.930 . S
H2385 C2393 0.930 . S
H2386 C2394 0.930 . S
H2387 C2395 0.930 . S
H2388 C2398 0.930 1_545 S
H2389 C2399 0.930 . S
C2390 H2384 0.930 . S
C2390 C2391 1.355 . S
C2390 C2392 1.417 1_545 S
C2391 C2390 1.355 . S
C2391 C2393 1.419 1_545 S
C2392 C2390 1.417 1_565 S
C2392 C2397 1.423 . S
C2392 C2399 1.409 1_565 S
C2393 H2385 0.930 . S
C2393 C2391 1.419 1_565 S
C2393 C2394 1.362 . S
C2394 H2386 0.930 . S
C2394 C2393 1.362 . S
C2394 C2397 1.409 . S
C2395 H2387 0.930 . S
C2395 C2396 1.355 . S
C2395 C2397 1.415 . S
C2396 C2395 1.355 . S
C2396 C2398 1.419 . S
C2397 C2392 1.423 . S
C2397 C2394 1.409 . S
C2397 C2395 1.415 . S
C2398 H2388 0.930 1_565 S
C2398 C2396 1.419 . S
C2398 C2399 1.362 1_565 S
C2399 H2389 0.930 . S
C2399 C2392 1.409 1_545 S
C2399 C2398 1.362 1_545 S
H2400 C2406 0.930 . S
H2401 C2409 0.930 . S
H2402 C2410 0.930 . S
H2403 C2411 0.930 . S
H2404 C2414 0.930 1_545 S
H2405 C2415 0.930 . S
C2406 H2400 0.930 . S
C2406 C2407 1.355 . S
C2406 C2408 1.415 . S
C2407 C2406 1.355 . S
C2407 C2409 1.419 . S
C2408 C2406 1.415 . S
C2408 C2413 1.425 . S
C2408 C2415 1.409 . S
C2409 H2401 0.930 . S
C2409 C2407 1.419 . S
C2409 C2410 1.362 . S
C2410 H2402 0.930 . S
C2410 C2409 1.362 . S
C2410 C2413 1.409 . S
C2411 H2403 0.930 . S
C2411 C2412 1.355 . S
C2411 C2413 1.415 . S
C2412 C2411 1.355 . S
C2412 C2414 1.419 . S
C2413 C2408 1.425 . S
C2413 C2410 1.409 . S
C2413 C2411 1.415 . S
C2414 H2404 0.930 1_565 S
C2414 C2412 1.419 . S
C2414 C2415 1.362 . S
C2415 H2405 0.930 . S
C2415 C2408 1.409 . S
C2415 C2414 1.362 . S
H2416 C2422 0.930 . S
H2417 C2425 0.930 . S
H2418 C2426 0.930 . S
H2419 C2427 0.930 . S
H2420 C2430 0.930 . S
H2421 C2431 0.930 . S
C2422 H2416 0.930 . S
C2422 C2423 1.355 . S
C2422 C2424 1.415 . S
C2423 C2422 1.355 . S
C2423 C2425 1.419 . S
C2424 C2422 1.415 . S
C2424 C2429 1.425 . S
C2424 C2431 1.409 . S
C2425 H2417 0.930 . S
C2425 C2423 1.419 . S
C2425 C2426 1.362 . S
C2426 H2418 0.930 . S
C2426 C2425 1.362 . S
C2426 C2429 1.409 . S
C2427 H2419 0.930 . S
C2427 C2428 1.355 . S
C2427 C2429 1.415 . S
C2428 C2427 1.355 . S
C2428 C2430 1.419 . S
C2429 C2424 1.425 . S
C2429 C2426 1.409 . S
C2429 C2427 1.415 . S
C2430 H2420 0.930 . S
C2430 C2428 1.419 . S
C2430 C2431 1.362 . S
C2431 H2421 0.930 . S
C2431 C2424 1.409 . S
C2431 C2430 1.362 . S
H2432 C2438 0.930 . S
H2433 C2441 0.930 . S
H2434 C2442 0.930 . S
H2435 C2443 0.930 . S
H2436 C2446 0.930 . S
H2437 C2447 0.930 . S
C2438 H2432 0.930 . S
C2438 C2439 1.355 . S
C2438 C2440 1.415 . S
C2439 C2438 1.355 . S
C2439 C2441 1.419 . S
C2440 C2438 1.415 . S
C2440 C2445 1.425 . S
C2440 C2447 1.409 . S
C2441 H2433 0.930 . S
C2441 C2439 1.419 . S
C2441 C2442 1.362 . S
C2442 H2434 0.930 . S
C2442 C2441 1.362 . S
C2442 C2445 1.409 . S
C2443 H2435 0.930 . S
C2443 C2444 1.355 . S
C2443 C2445 1.415 . S
C2444 C2443 1.355 . S
C2444 C2446 1.419 . S
C2445 C2440 1.425 . S
C2445 C2442 1.409 . S
C2445 C2443 1.415 . S
C2446 H2436 0.930 . S
C2446 C2444 1.419 . S
C2446 C2447 1.362 . S
C2447 H2437 0.930 . S
C2447 C2440 1.409 . S
C2447 C2446 1.362 . S
H2448 C2454 0.930 . S
H2449 C2457 0.930 . S
H2450 C2458 0.930 . S
H2451 C2459 0.930 . S
H2452 C2462 0.930 . S
H2453 C2463 0.930 . S
C2454 H2448 0.930 . S
C2454 C2455 1.355 . S
C2454 C2456 1.415 . S
C2455 C2454 1.355 . S
C2455 C2457 1.419 . S
C2456 C2454 1.415 . S
C2456 C2461 1.425 . S
C2456 C2463 1.409 . S
C2457 H2449 0.930 . S
C2457 C2455 1.419 . S
C2457 C2458 1.362 . S
C2458 H2450 0.930 . S
C2458 C2457 1.362 . S
C2458 C2461 1.409 . S
C2459 H2451 0.930 . S
C2459 C2460 1.355 . S
C2459 C2461 1.415 . S
C2460 C2459 1.355 . S
C2460 C2462 1.419 . S
C2461 C2456 1.425 . S
C2461 C2458 1.409 . S
C2461 C2459 1.415 . S
C2462 H2452 0.930 . S
C2462 C2460 1.419 . S
C2462 C2463 1.362 . S
C2463 H2453 0.930 . S
C2463 C2456 1.409 . S
C2463 C2462 1.362 . S
H2464 C2470 0.930 . S
H2465 C2473 0.930 . S
H2466 C2474 0.930 . S
H2467 C2475 0.930 . S
H2468 C2478 0.930 . S
H2469 C2479 0.930 . S
C2470 H2464 0.930 . S
C2470 C2471 1.355 . S
C2470 C2472 1.415 . S
C2471 C2470 1.355 . S
C2471 C2473 1.419 . S
C2472 C2470 1.415 . S
C2472 C2477 1.425 . S
C2472 C2479 1.409 . S
C2473 H2465 0.930 . S
C2473 C2471 1.419 . S
C2473 C2474 1.362 . S
C2474 H2466 0.930 . S
C2474 C2473 1.362 . S
C2474 C2477 1.409 . S
C2475 H2467 0.930 . S
C2475 C2476 1.355 . S
C2475 C2477 1.415 . S
C2476 C2475 1.355 . S
C2476 C2478 1.419 . S
C2477 C2472 1.425 . S
C2477 C2474 1.409 . S
C2477 C2475 1.415 . S
C2478 H2468 0.930 . S
C2478 C2476 1.419 . S
C2478 C2479 1.362 . S
C2479 H2469 0.930 . S
C2479 C2472 1.409 . S
C2479 C2478 1.362 . S
H2480 C2486 0.904 1_554 S
H2481 C2489 0.930 . S
H2482 C2490 0.930 . S
H2483 C2491 0.930 . S
H2484 C2494 0.930 . S
H2485 C2495 0.930 . S
C2486 H2480 0.904 1_556 S
C2486 C2487 1.374 . S
C2486 C2488 1.421 1_556 S
C2487 C2486 1.374 . S
C2487 C2489 1.419 . S
C2488 C2486 1.421 1_554 S
C2488 C2493 1.425 1_554 S
C2488 C2495 1.409 . S
C2489 H2481 0.930 . S
C2489 C2487 1.419 . S
C2489 C2490 1.362 . S
C2490 H2482 0.930 . S
C2490 C2489 1.362 . S
C2490 C2493 1.409 . S
C2491 H2483 0.930 . S
C2491 C2492 1.355 1_556 S
C2491 C2493 1.415 . S
C2492 C2491 1.355 1_554 S
C2492 C2494 1.419 . S
C2493 C2488 1.425 1_556 S
C2493 C2490 1.409 . S
C2493 C2491 1.415 . S
C2494 H2484 0.930 . S
C2494 C2492 1.419 . S
C2494 C2495 1.362 . S
C2495 H2485 0.930 . S
C2495 C2488 1.409 . S
C2495 C2494 1.362 . S
H2496 C2502 0.930 . S
H2497 C2505 0.930 . S
H2498 C2506 0.930 . S
H2499 C2507 0.930 . S
H2500 C2510 0.930 . S
H2501 C2511 0.930 . S
C2502 H2496 0.930 . S
C2502 C2503 1.355 . S
C2502 C2504 1.415 . S
C2503 C2502 1.355 . S
C2503 C2505 1.419 . S
C2504 C2502 1.415 . S
C2504 C2509 1.425 1_455 S
C2504 C2511 1.409 . S
C2505 H2497 0.930 . S
C2505 C2503 1.419 . S
C2505 C2506 1.362 1_455 S
C2506 H2498 0.930 . S
C2506 C2505 1.362 1_655 S
C2506 C2509 1.409 . S
C2507 H2499 0.930 . S
C2507 C2508 1.355 . S
C2507 C2509 1.415 . S
C2508 C2507 1.355 . S
C2508 C2510 1.419 . S
C2509 C2504 1.425 1_655 S
C2509 C2506 1.409 . S
C2509 C2507 1.415 . S
C2510 H2500 0.930 . S
C2510 C2508 1.419 . S
C2510 C2511 1.362 1_655 S
C2511 H2501 0.930 . S
C2511 C2504 1.409 . S
C2511 C2510 1.362 1_455 S
H2512 C2518 0.930 . S
H2513 C2521 0.930 . S
H2514 C2522 0.930 . S
H2515 C2523 0.930 . S
H2516 C2526 0.930 . S
H2517 C2527 0.930 . S
C2518 H2512 0.930 . S
C2518 C2519 1.355 . S
C2518 C2520 1.415 . S
C2519 C2518 1.355 . S
C2519 C2521 1.419 . S
C2520 C2518 1.415 . S
C2520 C2525 1.425 . S
C2520 C2527 1.409 . S
C2521 H2513 0.930 . S
C2521 C2519 1.419 . S
C2521 C2522 1.362 . S
C2522 H2514 0.930 . S
C2522 C2521 1.362 . S
C2522 C2525 1.409 . S
C2523 H2515 0.930 . S
C2523 C2524 1.355 . S
C2523 C2525 1.415 . S
C2524 C2523 1.355 . S
C2524 C2526 1.419 . S
C2525 C2520 1.425 . S
C2525 C2522 1.409 . S
C2525 C2523 1.415 . S
C2526 H2516 0.930 . S
C2526 C2524 1.419 . S
C2526 C2527 1.362 . S
C2527 H2517 0.930 . S
C2527 C2520 1.409 . S
C2527 C2526 1.362 . S
H2528 C2534 0.930 . S
H2529 C2537 0.930 . S
H2530 C2538 0.930 . S
H2531 C2539 0.930 . S
H2532 C2542 0.930 . S
H2533 C2543 0.930 . S
C2534 H2528 0.930 . S
C2534 C2535 1.355 . S
C2534 C2536 1.415 . S
C2535 C2534 1.355 . S
C2535 C2537 1.419 . S
C2536 C2534 1.415 . S
C2536 C2541 1.425 . S
C2536 C2543 1.409 . S
C2537 H2529 0.930 . S
C2537 C2535 1.419 . S
C2537 C2538 1.362 . S
C2538 H2530 0.930 . S
C2538 C2537 1.362 . S
C2538 C2541 1.409 . S
C2539 H2531 0.930 . S
C2539 C2540 1.355 . S
C2539 C2541 1.415 1_655 S
C2540 C2539 1.355 . S
C2540 C2542 1.419 . S
C2541 C2536 1.425 . S
C2541 C2538 1.409 . S
C2541 C2539 1.415 1_455 S
C2542 H2532 0.930 . S
C2542 C2540 1.419 . S
C2542 C2543 1.362 1_655 S
C2543 H2533 0.930 . S
C2543 C2536 1.409 . S
C2543 C2542 1.362 1_455 S
H2544 C2550 0.930 . S
H2545 C2553 0.930 . S
H2546 C2554 0.930 . S
H2547 C2555 0.930 . S
H2548 C2558 0.930 . S
H2549 C2559 0.930 . S
C2550 H2544 0.930 . S
C2550 C2551 1.355 1_455 S
C2550 C2552 1.415 . S
C2551 C2550 1.355 1_655 S
C2551 C2553 1.419 . S
C2552 C2550 1.415 . S
C2552 C2557 1.425 . S
C2552 C2559 1.409 . S
C2553 H2545 0.930 . S
C2553 C2551 1.419 . S
C2553 C2554 1.362 . S
C2554 H2546 0.930 . S
C2554 C2553 1.362 . S
C2554 C2557 1.409 1_655 S
C2555 H2547 0.930 . S
C2555 C2556 1.355 . S
C2555 C2557 1.415 . S
C2556 C2555 1.355 . S
C2556 C2558 1.419 . S
C2557 C2552 1.425 . S
C2557 C2554 1.409 1_455 S
C2557 C2555 1.415 . S
C2558 H2548 0.930 . S
C2558 C2556 1.419 . S
C2558 C2559 1.362 . S
C2559 H2549 0.930 . S
C2559 C2552 1.409 . S
C2559 C2558 1.362 . S
H2560 C2566 0.930 . S
H2561 C2569 0.930 . S
H2562 C2570 0.930 . S
H2563 C2571 0.930 . S
H2564 C2574 0.930 . S
H2565 C2575 0.930 . S
C2566 H2560 0.930 . S
C2566 C2567 1.355 . S
C2566 C2568 1.415 . S
C2567 C2566 1.355 . S
C2567 C2569 1.419 . S
C2568 C2566 1.415 . S
C2568 C2573 1.425 . S
C2568 C2575 1.409 . S
C2569 H2561 0.930 . S
C2569 C2567 1.419 . S
C2569 C2570 1.362 . S
C2570 H2562 0.930 . S
C2570 C2569 1.362 . S
C2570 C2573 1.409 . S
C2571 H2563 0.930 . S
C2571 C2572 1.355 . S
C2571 C2573 1.415 . S
C2572 C2571 1.355 . S
C2572 C2574 1.419 . S
C2573 C2568 1.425 . S
C2573 C2570 1.409 . S
C2573 C2571 1.415 . S
C2574 H2564 0.930 . S
C2574 C2572 1.419 . S
C2574 C2575 1.362 . S
C2575 H2565 0.930 . S
C2575 C2568 1.409 . S
C2575 C2574 1.362 . S
H2576 C2582 0.930 . S
H2577 C2585 0.930 . S
H2578 C2586 0.930 . S
H2579 C2587 0.930 . S
H2580 C2590 0.930 . S
H2581 C2591 0.930 . S
C2582 H2576 0.930 . S
C2582 C2583 1.355 . S
C2582 C2584 1.415 . S
C2583 C2582 1.355 . S
C2583 C2585 1.419 . S
C2584 C2582 1.415 . S
C2584 C2589 1.425 . S
C2584 C2591 1.409 . S
C2585 H2577 0.930 . S
C2585 C2583 1.419 . S
C2585 C2586 1.362 . S
C2586 H2578 0.930 . S
C2586 C2585 1.362 . S
C2586 C2589 1.409 . S
C2587 H2579 0.930 . S
C2587 C2588 1.355 . S
C2587 C2589 1.415 . S
C2588 C2587 1.355 . S
C2588 C2590 1.419 . S
C2589 C2584 1.425 . S
C2589 C2586 1.409 . S
C2589 C2587 1.415 . S
C2590 H2580 0.930 . S
C2590 C2588 1.419 . S
C2590 C2591 1.362 . S
C2591 H2581 0.930 . S
C2591 C2584 1.409 . S
C2591 C2590 1.362 . S
H2592 C2598 0.930 . S
H2593 C2601 0.930 . S
H2594 C2602 0.930 . S
H2595 C2603 0.930 . S
H2596 C2606 0.930 . S
H2597 C2607 0.930 . S
C2598 H2592 0.930 . S
C2598 C2599 1.355 . S
C2598 C2600 1.415 . S
C2599 C2598 1.355 . S
C2599 C2601 1.419 . S
C2600 C2598 1.415 . S
C2600 C2605 1.425 . S
C2600 C2607 1.409 . S
C2601 H2593 0.930 . S
C2601 C2599 1.419 . S
C2601 C2602 1.362 . S
C2602 H2594 0.930 . S
C2602 C2601 1.362 . S
C2602 C2605 1.409 . S
C2603 H2595 0.930 . S
C2603 C2604 1.355 . S
C2603 C2605 1.415 . S
C2604 C2603 1.355 . S
C2604 C2606 1.419 . S
C2605 C2600 1.425 . S
C2605 C2602 1.409 . S
C2605 C2603 1.415 . S
C2606 H2596 0.930 . S
C2606 C2604 1.419 . S
C2606 C2607 1.362 . S
C2607 H2597 0.930 . S
C2607 C2600 1.409 . S
C2607 C2606 1.362 . S
H2608 C2614 0.930 . S
H2609 C2617 0.930 . S
H2610 C2618 0.930 . S
H2611 C2619 0.930 . S
H2612 C2622 0.930 . S
H2613 C2623 0.930 . S
C2614 H2608 0.930 . S
C2614 C2615 1.355 . S
C2614 C2616 1.415 . S
C2615 C2614 1.355 . S
C2615 C2617 1.419 . S
C2616 C2614 1.415 . S
C2616 C2621 1.425 . S
C2616 C2623 1.409 . S
C2617 H2609 0.930 . S
C2617 C2615 1.419 . S
C2617 C2618 1.362 . S
C2618 H2610 0.930 . S
C2618 C2617 1.362 . S
C2618 C2621 1.409 . S
C2619 H2611 0.930 . S
C2619 C2620 1.355 . S
C2619 C2621 1.415 . S
C2620 C2619 1.355 . S
C2620 C2622 1.419 . S
C2621 C2616 1.425 . S
C2621 C2618 1.409 . S
C2621 C2619 1.415 . S
C2622 H2612 0.930 . S
C2622 C2620 1.419 . S
C2622 C2623 1.362 . S
C2623 H2613 0.930 . S
C2623 C2616 1.409 . S
C2623 C2622 1.362 . S
H2624 C2630 0.930 . S
H2625 C2633 0.930 . S
H2626 C2634 0.930 . S
H2627 C2635 0.930 . S
H2628 C2638 0.930 . S
H2629 C2639 0.930 . S
C2630 H2624 0.930 . S
C2630 C2631 1.355 . S
C2630 C2632 1.415 . S
C2631 C2630 1.355 . S
C2631 C2633 1.419 . S
C2632 C2630 1.415 . S
C2632 C2637 1.425 . S
C2632 C2639 1.409 . S
C2633 H2625 0.930 . S
C2633 C2631 1.419 . S
C2633 C2634 1.362 . S
C2634 H2626 0.930 . S
C2634 C2633 1.362 . S
C2634 C2637 1.409 . S
C2635 H2627 0.930 . S
C2635 C2636 1.355 . S
C2635 C2637 1.415 . S
C2636 C2635 1.355 . S
C2636 C2638 1.419 . S
C2637 C2632 1.425 . S
C2637 C2634 1.409 . S
C2637 C2635 1.415 . S
C2638 H2628 0.930 . S
C2638 C2636 1.419 . S
C2638 C2639 1.362 . S
C2639 H2629 0.930 . S
C2639 C2632 1.409 . S
C2639 C2638 1.362 . S
H2640 C2646 0.930 . S
H2641 C2649 0.930 . S
H2642 C2650 0.930 . S
H2643 C2651 0.930 . S
H2644 C2654 0.930 . S
H2645 C2655 0.930 . S
C2646 H2640 0.930 . S
C2646 C2647 1.355 . S
C2646 C2648 1.415 . S
C2647 C2646 1.355 . S
C2647 C2649 1.419 . S
C2648 C2646 1.415 . S
C2648 C2653 1.425 . S
C2648 C2655 1.409 . S
C2649 H2641 0.930 . S
C2649 C2647 1.419 . S
C2649 C2650 1.362 . S
C2650 H2642 0.930 . S
C2650 C2649 1.362 . S
C2650 C2653 1.409 . S
C2651 H2643 0.930 . S
C2651 C2652 1.355 . S
C2651 C2653 1.415 . S
C2652 C2651 1.355 . S
C2652 C2654 1.419 . S
C2653 C2648 1.425 . S
C2653 C2650 1.409 . S
C2653 C2651 1.415 . S
C2654 H2644 0.930 . S
C2654 C2652 1.419 . S
C2654 C2655 1.362 . S
C2655 H2645 0.930 . S
C2655 C2648 1.409 . S
C2655 C2654 1.362 . S
H2656 C2662 0.930 . S
H2657 C2665 0.930 . S
H2658 C2666 0.930 . S
H2659 C2667 0.930 . S
H2660 C2670 0.930 . S
H2661 C2671 0.930 . S
C2662 H2656 0.930 . S
C2662 C2663 1.355 . S
C2662 C2664 1.415 . S
C2663 C2662 1.355 . S
C2663 C2665 1.419 . S
C2664 C2662 1.415 . S
C2664 C2669 1.425 . S
C2664 C2671 1.409 . S
C2665 H2657 0.930 . S
C2665 C2663 1.419 . S
C2665 C2666 1.362 . S
C2666 H2658 0.930 . S
C2666 C2665 1.362 . S
C2666 C2669 1.409 . S
C2667 H2659 0.930 . S
C2667 C2668 1.355 . S
C2667 C2669 1.415 . S
C2668 C2667 1.355 . S
C2668 C2670 1.419 . S
C2669 C2664 1.425 . S
C2669 C2666 1.409 . S
C2669 C2667 1.415 . S
C2670 H2660 0.930 . S
C2670 C2668 1.419 . S
C2670 C2671 1.362 . S
C2671 H2661 0.930 . S
C2671 C2664 1.409 . S
C2671 C2670 1.362 . S
H2672 C2678 0.930 . S
H2673 C2681 0.930 . S
H2674 C2682 0.930 . S
H2675 C2683 0.930 . S
H2676 C2686 0.930 . S
H2677 C2687 0.930 . S
C2678 H2672 0.930 . S
C2678 C2679 1.355 . S
C2678 C2680 1.415 . S
C2679 C2678 1.355 . S
C2679 C2681 1.419 . S
C2680 C2678 1.415 . S
C2680 C2685 1.425 . S
C2680 C2687 1.409 . S
C2681 H2673 0.930 . S
C2681 C2679 1.419 . S
C2681 C2682 1.362 . S
C2682 H2674 0.930 . S
C2682 C2681 1.362 . S
C2682 C2685 1.409 . S
C2683 H2675 0.930 . S
C2683 C2684 1.355 . S
C2683 C2685 1.415 . S
C2684 C2683 1.355 . S
C2684 C2686 1.419 . S
C2685 C2680 1.425 . S
C2685 C2682 1.409 . S
C2685 C2683 1.415 . S
C2686 H2676 0.930 . S
C2686 C2684 1.419 . S
C2686 C2687 1.362 . S
C2687 H2677 0.930 . S
C2687 C2680 1.409 . S
C2687 C2686 1.362 . S
H2688 C2694 0.930 . S
H2689 C2697 0.930 . S
H2690 C2698 0.930 . S
H2691 C2699 0.930 . S
H2692 C2702 0.930 . S
H2693 C2703 0.930 . S
C2694 H2688 0.930 . S
C2694 C2695 1.355 . S
C2694 C2696 1.415 . S
C2695 C2694 1.355 . S
C2695 C2697 1.419 . S
C2696 C2694 1.415 . S
C2696 C2701 1.425 . S
C2696 C2703 1.409 . S
C2697 H2689 0.930 . S
C2697 C2695 1.419 . S
C2697 C2698 1.362 . S
C2698 H2690 0.930 . S
C2698 C2697 1.362 . S
C2698 C2701 1.409 . S
C2699 H2691 0.930 . S
C2699 C2700 1.355 . S
C2699 C2701 1.415 . S
C2700 C2699 1.355 . S
C2700 C2702 1.419 . S
C2701 C2696 1.425 . S
C2701 C2698 1.409 . S
C2701 C2699 1.415 . S
C2702 H2692 0.930 . S
C2702 C2700 1.419 . S
C2702 C2703 1.362 . S
C2703 H2693 0.930 . S
C2703 C2696 1.409 . S
C2703 C2702 1.362 . S
H2704 C2710 0.930 . S
H2705 C2713 0.930 . S
H2706 C2714 0.930 . S
H2707 C2715 0.930 . S
H2708 C2718 0.930 . S
H2709 C2719 0.930 . S
C2710 H2704 0.930 . S
C2710 C2711 1.355 . S
C2710 C2712 1.415 . S
C2711 C2710 1.355 . S
C2711 C2713 1.419 . S
C2712 C2710 1.415 . S
C2712 C2717 1.425 . S
C2712 C2719 1.409 . S
C2713 H2705 0.930 . S
C2713 C2711 1.419 . S
C2713 C2714 1.362 . S
C2714 H2706 0.930 . S
C2714 C2713 1.362 . S
C2714 C2717 1.409 . S
C2715 H2707 0.930 . S
C2715 C2716 1.355 . S
C2715 C2717 1.415 . S
C2716 C2715 1.355 . S
C2716 C2718 1.419 . S
C2717 C2712 1.425 . S
C2717 C2714 1.409 . S
C2717 C2715 1.415 . S
C2718 H2708 0.930 . S
C2718 C2716 1.419 . S
C2718 C2719 1.362 . S
C2719 H2709 0.930 . S
C2719 C2712 1.409 . S
C2719 C2718 1.362 . S
H2720 C2726 0.930 . S
H2721 C2729 0.930 . S
H2722 C2730 0.930 . S
H2723 C2731 0.930 . S
H2724 C2734 0.930 . S
H2725 C2735 0.930 . S
C2726 H2720 0.930 . S
C2726 C2727 1.355 . S
C2726 C2728 1.415 . S
C2727 C2726 1.355 . S
C2727 C2729 1.419 . S
C2728 C2726 1.415 . S
C2728 C2733 1.425 . S
C2728 C2735 1.409 . S
C2729 H2721 0.930 . S
C2729 C2727 1.419 . S
C2729 C2730 1.362 . S
C2730 H2722 0.930 . S
C2730 C2729 1.362 . S
C2730 C2733 1.409 . S
C2731 H2723 0.930 . S
C2731 C2732 1.355 . S
C2731 C2733 1.415 . S
C2732 C2731 1.355 . S
C2732 C2734 1.419 . S
C2733 C2728 1.425 . S
C2733 C2730 1.409 . S
C2733 C2731 1.415 . S
C2734 H2724 0.930 . S
C2734 C2732 1.419 . S
C2734 C2735 1.362 . S
C2735 H2725 0.930 . S
C2735 C2728 1.409 . S
C2735 C2734 1.362 . S
H2736 C2742 0.930 . S
H2737 C2745 0.930 . S
H2738 C2746 0.930 . S
H2739 C2747 0.930 . S
H2740 C2750 0.930 . S
H2741 C2751 0.930 . S
C2742 H2736 0.930 . S
C2742 C2743 1.355 . S
C2742 C2744 1.415 . S
C2743 C2742 1.355 . S
C2743 C2745 1.419 . S
C2744 C2742 1.415 . S
C2744 C2749 1.425 . S
C2744 C2751 1.409 . S
C2745 H2737 0.930 . S
C2745 C2743 1.419 . S
C2745 C2746 1.362 . S
C2746 H2738 0.930 . S
C2746 C2745 1.362 . S
C2746 C2749 1.409 . S
C2747 H2739 0.930 . S
C2747 C2748 1.355 . S
C2747 C2749 1.415 . S
C2748 C2747 1.355 . S
C2748 C2750 1.419 . S
C2749 C2744 1.425 . S
C2749 C2746 1.409 . S
C2749 C2747 1.415 . S
C2750 H2740 0.930 . S
C2750 C2748 1.419 . S
C2750 C2751 1.362 . S
C2751 H2741 0.930 . S
C2751 C2744 1.409 . S
C2751 C2750 1.362 . S
H2752 C2758 0.930 . S
H2753 C2761 0.930 . S
H2754 C2762 0.930 1_556 S
H2755 C2763 0.930 . S
H2756 C2766 0.930 . S
H2757 C2767 0.930 . S
C2758 H2752 0.930 . S
C2758 C2759 1.355 1_545 S
C2758 C2760 1.415 . S
C2759 C2758 1.355 1_565 S
C2759 C2761 1.419 . S
C2760 C2758 1.415 . S
C2760 C2765 1.425 1_545 S
C2760 C2767 1.409 . S
C2761 H2753 0.930 . S
C2761 C2759 1.419 . S
C2761 C2762 1.362 . S
C2762 H2754 0.930 1_554 S
C2762 C2761 1.362 . S
C2762 C2765 1.409 . S
C2763 H2755 0.930 . S
C2763 C2764 1.355 1_565 S
C2763 C2765 1.415 . S
C2764 C2763 1.355 1_545 S
C2764 C2766 1.419 . S
C2765 C2760 1.425 1_565 S
C2765 C2762 1.409 . S
C2765 C2763 1.415 . S
C2766 H2756 0.930 . S
C2766 C2764 1.419 . S
C2766 C2767 1.362 . S
C2767 H2757 0.930 . S
C2767 C2760 1.409 . S
C2767 C2766 1.362 . S
H2768 C2774 0.930 . S
H2769 C2777 0.930 . S
H2770 C2778 0.930 . S
H2771 C2779 0.930 . S
H2772 C2782 0.930 . S
H2773 C2783 0.930 . S
C2774 H2768 0.930 . S
C2774 C2775 1.355 . S
C2774 C2776 1.415 . S
C2775 C2774 1.355 . S
C2775 C2777 1.419 . S
C2776 C2774 1.415 . S
C2776 C2781 1.425 . S
C2776 C2783 1.409 . S
C2777 H2769 0.930 . S
C2777 C2775 1.419 . S
C2777 C2778 1.362 . S
C2778 H2770 0.930 . S
C2778 C2777 1.362 . S
C2778 C2781 1.409 . S
C2779 H2771 0.930 . S
C2779 C2780 1.355 . S
C2779 C2781 1.415 . S
C2780 C2779 1.355 . S
C2780 C2782 1.419 . S
C2781 C2776 1.425 . S
C2781 C2778 1.409 . S
C2781 C2779 1.415 . S
C2782 H2772 0.930 . S
C2782 C2780 1.419 . S
C2782 C2783 1.362 . S
C2783 H2773 0.930 . S
C2783 C2776 1.409 . S
C2783 C2782 1.362 . S
H2784 C2790 0.930 . S
H2785 C2793 0.930 1_556 S
H2786 C2794 0.930 . S
H2787 C2795 0.930 . S
H2788 C2798 0.930 . S
H2789 C2799 0.930 . S
C2790 H2784 0.930 . S
C2790 C2791 1.355 . S
C2790 C2792 1.415 . S
C2791 C2790 1.355 . S
C2791 C2793 1.419 . S
C2792 C2790 1.415 . S
C2792 C2797 1.425 . S
C2792 C2799 1.409 . S
C2793 H2785 0.930 1_554 S
C2793 C2791 1.419 . S
C2793 C2794 1.362 . S
C2794 H2786 0.930 . S
C2794 C2793 1.362 . S
C2794 C2797 1.409 . S
C2795 H2787 0.930 . S
C2795 C2796 1.355 . S
C2795 C2797 1.415 . S
C2796 C2795 1.355 . S
C2796 C2798 1.419 . S
C2797 C2792 1.425 . S
C2797 C2794 1.409 . S
C2797 C2795 1.415 . S
C2798 H2788 0.930 . S
C2798 C2796 1.419 . S
C2798 C2799 1.362 . S
C2799 H2789 0.930 . S
C2799 C2792 1.409 . S
C2799 C2798 1.362 . S
H2800 C2806 0.930 . S
H2801 C2809 0.930 . S
H2802 C2810 0.930 . S
H2803 C2811 0.930 . S
H2804 C2814 0.930 . S
H2805 C2815 0.930 . S
C2806 H2800 0.930 . S
C2806 C2807 1.355 . S
C2806 C2808 1.415 . S
C2807 C2806 1.355 . S
C2807 C2809 1.419 . S
C2808 C2806 1.415 . S
C2808 C2813 1.425 . S
C2808 C2815 1.409 . S
C2809 H2801 0.930 . S
C2809 C2807 1.419 . S
C2809 C2810 1.362 . S
C2810 H2802 0.930 . S
C2810 C2809 1.362 . S
C2810 C2813 1.409 . S
C2811 H2803 0.930 . S
C2811 C2812 1.355 . S
C2811 C2813 1.415 . S
C2812 C2811 1.355 . S
C2812 C2814 1.419 . S
C2813 C2808 1.425 . S
C2813 C2810 1.409 . S
C2813 C2811 1.415 . S
C2814 H2804 0.930 . S
C2814 C2812 1.419 . S
C2814 C2815 1.362 . S
C2815 H2805 0.930 . S
C2815 C2808 1.409 . S
C2815 C2814 1.362 . S
H2816 C2822 0.930 . S
H2817 C2825 0.930 . S
H2818 C2826 0.930 . S
H2819 C2827 0.930 . S
H2820 C2830 0.930 . S
H2821 C2831 0.930 . S
C2822 H2816 0.930 . S
C2822 C2823 1.355 . S
C2822 C2824 1.415 . S
C2823 C2822 1.355 . S
C2823 C2825 1.419 . S
C2824 C2822 1.415 . S
C2824 C2829 1.425 . S
C2824 C2831 1.409 . S
C2825 H2817 0.930 . S
C2825 C2823 1.419 . S
C2825 C2826 1.362 . S
C2826 H2818 0.930 . S
C2826 C2825 1.362 . S
C2826 C2829 1.409 . S
C2827 H2819 0.930 . S
C2827 C2828 1.355 . S
C2827 C2829 1.415 . S
C2828 C2827 1.355 . S
C2828 C2830 1.419 . S
C2829 C2824 1.425 . S
C2829 C2826 1.409 . S
C2829 C2827 1.415 . S
C2830 H2820 0.930 . S
C2830 C2828 1.419 . S
C2830 C2831 1.362 . S
C2831 H2821 0.930 . S
C2831 C2824 1.409 . S
C2831 C2830 1.362 . S
H2832 C2838 0.930 . S
H2833 C2841 0.930 . S
H2834 C2842 0.930 . S
H2835 C2843 0.930 . S
H2836 C2846 0.930 . S
H2837 C2847 0.930 . S
C2838 H2832 0.930 . S
C2838 C2839 1.355 . S
C2838 C2840 1.415 . S
C2839 C2838 1.355 . S
C2839 C2841 1.419 . S
C2840 C2838 1.415 . S
C2840 C2845 1.425 . S
C2840 C2847 1.409 . S
C2841 H2833 0.930 . S
C2841 C2839 1.419 . S
C2841 C2842 1.362 . S
C2842 H2834 0.930 . S
C2842 C2841 1.362 . S
C2842 C2845 1.409 . S
C2843 H2835 0.930 . S
C2843 C2844 1.355 . S
C2843 C2845 1.415 . S
C2844 C2843 1.355 . S
C2844 C2846 1.419 . S
C2845 C2840 1.425 . S
C2845 C2842 1.409 . S
C2845 C2843 1.415 . S
C2846 H2836 0.930 . S
C2846 C2844 1.419 . S
C2846 C2847 1.362 . S
C2847 H2837 0.930 . S
C2847 C2840 1.409 . S
C2847 C2846 1.362 . S
H2848 C2854 0.930 . S
H2849 C2857 0.930 . S
H2850 C2858 0.930 . S
H2851 C2859 0.930 . S
H2852 C2862 0.930 . S
H2853 C2863 0.930 . S
C2854 H2848 0.930 . S
C2854 C2855 1.355 . S
C2854 C2856 1.415 . S
C2855 C2854 1.355 . S
C2855 C2857 1.419 . S
C2856 C2854 1.415 . S
C2856 C2861 1.425 . S
C2856 C2863 1.409 . S
C2857 H2849 0.930 . S
C2857 C2855 1.419 . S
C2857 C2858 1.362 . S
C2858 H2850 0.930 . S
C2858 C2857 1.362 . S
C2858 C2861 1.409 . S
C2859 H2851 0.930 . S
C2859 C2860 1.355 . S
C2859 C2861 1.415 . S
C2860 C2859 1.355 . S
C2860 C2862 1.419 . S
C2861 C2856 1.425 . S
C2861 C2858 1.409 . S
C2861 C2859 1.415 . S
C2862 H2852 0.930 . S
C2862 C2860 1.419 . S
C2862 C2863 1.362 . S
C2863 H2853 0.930 . S
C2863 C2856 1.409 . S
C2863 C2862 1.362 . S
H2864 C2870 0.930 . S
H2865 C2873 0.930 . S
H2866 C2874 0.930 . S
H2867 C2875 0.930 . S
H2868 C2878 0.930 . S
H2869 C2879 0.930 . S
C2870 H2864 0.930 . S
C2870 C2871 1.355 . S
C2870 C2872 1.415 . S
C2871 C2870 1.355 . S
C2871 C2873 1.419 . S
C2872 C2870 1.415 . S
C2872 C2877 1.425 . S
C2872 C2879 1.409 . S
C2873 H2865 0.930 . S
C2873 C2871 1.419 . S
C2873 C2874 1.362 . S
C2874 H2866 0.930 . S
C2874 C2873 1.362 . S
C2874 C2877 1.409 . S
C2875 H2867 0.930 . S
C2875 C2876 1.355 . S
C2875 C2877 1.415 . S
C2876 C2875 1.355 . S
C2876 C2878 1.419 . S
C2877 C2872 1.425 . S
C2877 C2874 1.409 . S
C2877 C2875 1.415 . S
C2878 H2868 0.930 . S
C2878 C2876 1.419 . S
C2878 C2879 1.362 . S
C2879 H2869 0.930 . S
C2879 C2872 1.409 . S
C2879 C2878 1.362 . S
H2880 C2886 0.930 . S
H2881 C2889 0.930 . S
H2882 C2890 0.930 . S
H2883 C2891 0.930 . S
H2884 C2894 0.930 . S
H2885 C2895 0.930 . S
C2886 H2880 0.930 . S
C2886 C2887 1.355 . S
C2886 C2888 1.415 . S
C2887 C2886 1.355 . S
C2887 C2889 1.419 . S
C2888 C2886 1.415 . S
C2888 C2893 1.425 . S
C2888 C2895 1.409 . S
C2889 H2881 0.930 . S
C2889 C2887 1.419 . S
C2889 C2890 1.362 . S
C2890 H2882 0.930 . S
C2890 C2889 1.362 . S
C2890 C2893 1.409 . S
C2891 H2883 0.930 . S
C2891 C2892 1.355 . S
C2891 C2893 1.415 . S
C2892 C2891 1.355 . S
C2892 C2894 1.419 . S
C2893 C2888 1.425 . S
C2893 C2890 1.409 . S
C2893 C2891 1.415 . S
C2894 H2884 0.930 . S
C2894 C2892 1.419 . S
C2894 C2895 1.362 . S
C2895 H2885 0.930 . S
C2895 C2888 1.409 . S
C2895 C2894 1.362 . S
H2896 C2902 0.930 . S
H2897 C2905 0.930 . S
H2898 C2906 0.930 . S
H2899 C2907 0.930 . S
H2900 C2910 0.930 . S
H2901 C2911 0.930 . S
C2902 H2896 0.930 . S
C2902 C2903 1.355 . S
C2902 C2904 1.415 . S
C2903 C2902 1.355 . S
C2903 C2905 1.419 . S
C2904 C2902 1.415 . S
C2904 C2909 1.425 . S
C2904 C2911 1.409 . S
C2905 H2897 0.930 . S
C2905 C2903 1.419 . S
C2905 C2906 1.362 . S
C2906 H2898 0.930 . S
C2906 C2905 1.362 . S
C2906 C2909 1.409 . S
C2907 H2899 0.930 . S
C2907 C2908 1.355 . S
C2907 C2909 1.415 . S
C2908 C2907 1.355 . S
C2908 C2910 1.419 . S
C2909 C2904 1.425 . S
C2909 C2906 1.409 . S
C2909 C2907 1.415 . S
C2910 H2900 0.930 . S
C2910 C2908 1.419 . S
C2910 C2911 1.362 . S
C2911 H2901 0.930 . S
C2911 C2904 1.409 . S
C2911 C2910 1.362 . S
H2912 C2918 0.930 . S
H2913 C2921 0.930 . S
H2914 C2922 0.930 . S
H2915 C2923 0.930 . S
H2916 C2926 0.930 . S
H2917 C2927 0.930 . S
C2918 H2912 0.930 . S
C2918 C2919 1.355 . S
C2918 C2920 1.415 . S
C2919 C2918 1.355 . S
C2919 C2921 1.419 . S
C2920 C2918 1.415 . S
C2920 C2925 1.425 . S
C2920 C2927 1.409 . S
C2921 H2913 0.930 . S
C2921 C2919 1.419 . S
C2921 C2922 1.362 . S
C2922 H2914 0.930 . S
C2922 C2921 1.362 . S
C2922 C2925 1.409 . S
C2923 H2915 0.930 . S
C2923 C2924 1.355 . S
C2923 C2925 1.415 . S
C2924 C2923 1.355 . S
C2924 C2926 1.419 . S
C2925 C2920 1.425 . S
C2925 C2922 1.409 . S
C2925 C2923 1.415 . S
C2926 H2916 0.930 . S
C2926 C2924 1.419 . S
C2926 C2927 1.362 . S
C2927 H2917 0.930 . S
C2927 C2920 1.409 . S
C2927 C2926 1.362 . S
H2928 C2934 0.930 . S
H2929 C2937 0.930 . S
H2930 C2938 0.930 . S
H2931 C2939 0.930 . S
H2932 C2942 0.930 . S
H2933 C2943 0.930 . S
C2934 H2928 0.930 . S
C2934 C2935 1.355 . S
C2934 C2936 1.415 . S
C2935 C2934 1.355 . S
C2935 C2937 1.419 . S
C2936 C2934 1.415 . S
C2936 C2941 1.425 . S
C2936 C2943 1.409 . S
C2937 H2929 0.930 . S
C2937 C2935 1.419 . S
C2937 C2938 1.362 . S
C2938 H2930 0.930 . S
C2938 C2937 1.362 . S
C2938 C2941 1.409 . S
C2939 H2931 0.930 . S
C2939 C2940 1.355 . S
C2939 C2941 1.415 . S
C2940 C2939 1.355 . S
C2940 C2942 1.419 . S
C2941 C2936 1.425 . S
C2941 C2938 1.409 . S
C2941 C2939 1.415 . S
C2942 H2932 0.930 . S
C2942 C2940 1.419 . S
C2942 C2943 1.362 . S
C2943 H2933 0.930 . S
C2943 C2936 1.409 . S
C2943 C2942 1.362 . S
H2944 C2950 0.930 . S
H2945 C2953 0.930 . S
H2946 C2954 0.930 . S
H2947 C2955 0.930 . S
H2948 C2958 0.930 . S
H2949 C2959 0.930 . S
C2950 H2944 0.930 . S
C2950 C2951 1.355 . S
C2950 C2952 1.415 . S
C2951 C2950 1.355 . S
C2951 C2953 1.419 . S
C2952 C2950 1.415 . S
C2952 C2957 1.425 . S
C2952 C2959 1.409 . S
C2953 H2945 0.930 . S
C2953 C2951 1.419 . S
C2953 C2954 1.362 . S
C2954 H2946 0.930 . S
C2954 C2953 1.362 . S
C2954 C2957 1.409 . S
C2955 H2947 0.930 . S
C2955 C2956 1.355 . S
C2955 C2957 1.415 . S
C2956 C2955 1.355 . S
C2956 C2958 1.419 . S
C2957 C2952 1.425 . S
C2957 C2954 1.409 . S
C2957 C2955 1.415 . S
C2958 H2948 0.930 . S
C2958 C2956 1.419 . S
C2958 C2959 1.362 . S
C2959 H2949 0.930 . S
C2959 C2952 1.409 . S
C2959 C2958 1.362 . S
H2960 C2966 0.930 . S
H2961 C2969 0.930 . S
H2962 C2970 0.930 . S
H2963 C2971 0.930 . S
H2964 C2974 0.930 . S
H2965 C2975 0.930 . S
C2966 H2960 0.930 . S
C2966 C2967 1.355 . S
C2966 C2968 1.415 . S
C2967 C2966 1.355 . S
C2967 C2969 1.419 . S
C2968 C2966 1.415 . S
C2968 C2973 1.425 . S
C2968 C2975 1.409 . S
C2969 H2961 0.930 . S
C2969 C2967 1.419 . S
C2969 C2970 1.362 . S
C2970 H2962 0.930 . S
C2970 C2969 1.362 . S
C2970 C2973 1.409 . S
C2971 H2963 0.930 . S
C2971 C2972 1.355 . S
C2971 C2973 1.415 . S
C2972 C2971 1.355 . S
C2972 C2974 1.419 . S
C2973 C2968 1.425 . S
C2973 C2970 1.409 . S
C2973 C2971 1.415 . S
C2974 H2964 0.930 . S
C2974 C2972 1.419 . S
C2974 C2975 1.362 . S
C2975 H2965 0.930 . S
C2975 C2968 1.409 . S
C2975 C2974 1.362 . S
H2976 C2982 0.930 . S
H2977 C2985 0.930 . S
H2978 C2986 0.930 . S
H2979 C2987 0.930 . S
H2980 C2990 0.930 . S
H2981 C2991 0.930 . S
C2982 H2976 0.930 . S
C2982 C2983 1.355 . S
C2982 C2984 1.415 . S
C2983 C2982 1.355 . S
C2983 C2985 1.419 . S
C2984 C2982 1.415 . S
C2984 C2989 1.425 . S
C2984 C2991 1.409 . S
C2985 H2977 0.930 . S
C2985 C2983 1.419 . S
C2985 C2986 1.362 . S
C2986 H2978 0.930 . S
C2986 C2985 1.362 . S
C2986 C2989 1.409 . S
C2987 H2979 0.930 . S
C2987 C2988 1.355 . S
C2987 C2989 1.415 . S
C2988 C2987 1.355 . S
C2988 C2990 1.419 . S
C2989 C2984 1.425 . S
C2989 C2986 1.409 . S
C2989 C2987 1.415 . S
C2990 H2980 0.930 . S
C2990 C2988 1.419 . S
C2990 C2991 1.362 . S
C2991 H2981 0.930 . S
C2991 C2984 1.409 . S
C2991 C2990 1.362 . S
H2992 C2998 0.930 . S
H2993 C3001 0.930 . S
H2994 C3002 0.930 . S
H2995 C3003 0.930 . S
H2996 C3006 0.931 . S
H2997 C3007 0.930 . S
C2998 H2992 0.930 . S
C2998 C2999 1.355 . S
C2998 C3000 1.415 . S
C2999 C2998 1.355 . S
C2999 C3001 1.419 . S
C3000 C2998 1.415 . S
C3000 C3005 1.425 1_655 S
C3000 C3007 1.409 . S
C3001 H2993 0.930 . S
C3001 C2999 1.419 . S
C3001 C3002 1.362 1_655 S
C3002 H2994 0.930 . S
C3002 C3001 1.362 1_455 S
C3002 C3005 1.409 . S
C3003 H2995 0.930 . S
C3003 C3004 1.355 . S
C3003 C3005 1.415 . S
C3004 C3003 1.355 . S
C3004 C3006 1.419 . S
C3005 C3000 1.425 1_455 S
C3005 C3002 1.409 . S
C3005 C3003 1.415 . S
C3006 H2996 0.931 . S
C3006 C3004 1.419 . S
C3006 C3007 1.362 1_455 S
C3007 H2997 0.930 . S
C3007 C3000 1.409 . S
C3007 C3006 1.362 1_655 S
H3008 C3014 0.930 . S
H3009 C3017 0.930 . S
H3010 C3018 0.930 . S
H3011 C3019 0.930 . S
H3012 C3022 0.930 . S
H3013 C3023 0.930 . S
C3014 H3008 0.930 . S
C3014 C3015 1.355 . S
C3014 C3016 1.415 . S
C3015 C3014 1.355 . S
C3015 C3017 1.419 . S
C3016 C3014 1.415 . S
C3016 C3021 1.425 . S
C3016 C3023 1.409 . S
C3017 H3009 0.930 . S
C3017 C3015 1.419 . S
C3017 C3018 1.362 . S
C3018 H3010 0.930 . S
C3018 C3017 1.362 . S
C3018 C3021 1.409 . S
C3019 H3011 0.930 . S
C3019 C3020 1.355 . S
C3019 C3021 1.415 . S
C3020 C3019 1.355 . S
C3020 C3022 1.419 . S
C3021 C3016 1.425 . S
C3021 C3018 1.409 . S
C3021 C3019 1.415 . S
C3022 H3012 0.930 . S
C3022 C3020 1.419 . S
C3022 C3023 1.362 . S
C3023 H3013 0.930 . S
C3023 C3016 1.409 . S
C3023 C3022 1.362 . S
H3024 C3030 0.930 . S
H3025 C3033 0.930 . S
H3026 C3034 0.930 . S
H3027 C3035 0.930 . S
H3028 C3038 0.930 . S
H3029 C3039 0.930 . S
C3030 H3024 0.930 . S
C3030 C3031 1.355 . S
C3030 C3032 1.415 . S
C3031 C3030 1.355 . S
C3031 C3033 1.419 . S
C3032 C3030 1.415 . S
C3032 C3037 1.425 . S
C3032 C3039 1.409 . S
C3033 H3025 0.930 . S
C3033 C3031 1.419 . S
C3033 C3034 1.362 . S
C3034 H3026 0.930 . S
C3034 C3033 1.362 . S
C3034 C3037 1.409 . S
C3035 H3027 0.930 . S
C3035 C3036 1.355 . S
C3035 C3037 1.415 . S
C3036 C3035 1.355 . S
C3036 C3038 1.419 . S
C3037 C3032 1.425 . S
C3037 C3034 1.409 . S
C3037 C3035 1.415 . S
C3038 H3028 0.930 . S
C3038 C3036 1.419 . S
C3038 C3039 1.362 . S
C3039 H3029 0.930 . S
C3039 C3032 1.409 . S
C3039 C3038 1.362 . S
H3040 C3046 0.930 . S
H3041 C3049 0.930 . S
H3042 C3050 0.930 . S
H3043 C3051 0.930 . S
H3044 C3054 0.930 . S
H3045 C3055 0.930 . S
C3046 H3040 0.930 . S
C3046 C3047 1.355 . S
C3046 C3048 1.415 . S
C3047 C3046 1.355 . S
C3047 C3049 1.419 . S
C3048 C3046 1.415 . S
C3048 C3053 1.425 . S
C3048 C3055 1.409 . S
C3049 H3041 0.930 . S
C3049 C3047 1.419 . S
C3049 C3050 1.362 . S
C3050 H3042 0.930 . S
C3050 C3049 1.362 . S
C3050 C3053 1.409 . S
C3051 H3043 0.930 . S
C3051 C3052 1.355 . S
C3051 C3053 1.415 . S
C3052 C3051 1.355 . S
C3052 C3054 1.419 . S
C3053 C3048 1.425 . S
C3053 C3050 1.409 . S
C3053 C3051 1.415 . S
C3054 H3044 0.930 . S
C3054 C3052 1.419 . S
C3054 C3055 1.362 . S
C3055 H3045 0.930 . S
C3055 C3048 1.409 . S
C3055 C3054 1.362 . S
H3056 C3062 0.930 . S
H3057 C3065 0.930 . S
H3058 C3066 0.930 1_455 S
H3059 C3067 0.930 . S
H3060 C3070 0.930 . S
H3061 C3071 0.930 . S
C3062 H3056 0.930 . S
C3062 C3063 1.355 . S
C3062 C3064 1.415 . S
C3063 C3062 1.355 . S
C3063 C3065 1.419 . S
C3064 C3062 1.415 . S
C3064 C3069 1.425 . S
C3064 C3071 1.409 . S
C3065 H3057 0.930 . S
C3065 C3063 1.419 . S
C3065 C3066 1.362 . S
C3066 H3058 0.930 1_655 S
C3066 C3065 1.362 . S
C3066 C3069 1.409 . S
C3067 H3059 0.930 . S
C3067 C3068 1.355 1_455 S
C3067 C3069 1.415 1_455 S
C3068 C3067 1.355 1_655 S
C3068 C3070 1.419 . S
C3069 C3064 1.425 . S
C3069 C3066 1.409 . S
C3069 C3067 1.415 1_655 S
C3070 H3060 0.930 . S
C3070 C3068 1.419 . S
C3070 C3071 1.362 . S
C3071 H3061 0.930 . S
C3071 C3064 1.409 . S
C3071 C3070 1.362 . S
H3072 C3078 0.930 . S
H3073 C3081 0.930 . S
H3074 C3082 0.930 . S
H3075 C3083 0.930 . S
H3076 C3086 0.930 . S
H3077 C3087 0.930 . S
C3078 H3072 0.930 . S
C3078 C3079 1.355 . S
C3078 C3080 1.415 . S
C3079 C3078 1.355 . S
C3079 C3081 1.419 . S
C3080 C3078 1.415 . S
C3080 C3085 1.425 . S
C3080 C3087 1.409 . S
C3081 H3073 0.930 . S
C3081 C3079 1.419 . S
C3081 C3082 1.362 . S
C3082 H3074 0.930 . S
C3082 C3081 1.362 . S
C3082 C3085 1.409 . S
C3083 H3075 0.930 . S
C3083 C3084 1.355 . S
C3083 C3085 1.415 . S
C3084 C3083 1.355 . S
C3084 C3086 1.419 . S
C3085 C3080 1.425 . S
C3085 C3082 1.409 . S
C3085 C3083 1.415 . S
C3086 H3076 0.930 . S
C3086 C3084 1.419 . S
C3086 C3087 1.362 . S
C3087 H3077 0.930 . S
C3087 C3080 1.409 . S
C3087 C3086 1.362 . S
H3088 C3094 0.930 . S
H3089 C3097 0.930 . S
H3090 C3098 0.930 . S
H3091 C3099 0.930 . S
H3092 C3102 0.930 . S
H3093 C3103 0.930 . S
C3094 H3088 0.930 . S
C3094 C3095 1.355 . S
C3094 C3096 1.415 . S
C3095 C3094 1.355 . S
C3095 C3097 1.419 . S
C3096 C3094 1.415 . S
C3096 C3101 1.425 . S
C3096 C3103 1.409 . S
C3097 H3089 0.930 . S
C3097 C3095 1.419 . S
C3097 C3098 1.362 . S
C3098 H3090 0.930 . S
C3098 C3097 1.362 . S
C3098 C3101 1.409 . S
C3099 H3091 0.930 . S
C3099 C3100 1.355 . S
C3099 C3101 1.415 . S
C3100 C3099 1.355 . S
C3100 C3102 1.419 . S
C3101 C3096 1.425 . S
C3101 C3098 1.409 . S
C3101 C3099 1.415 . S
C3102 H3092 0.930 . S
C3102 C3100 1.419 . S
C3102 C3103 1.362 . S
C3103 H3093 0.930 . S
C3103 C3096 1.409 . S
C3103 C3102 1.362 . S
H3104 C3110 0.930 . S
H3105 C3113 0.930 . S
H3106 C3114 0.930 . S
H3107 C3115 0.930 . S
H3108 C3118 0.931 . S
H3109 C3119 0.930 . S
C3110 H3104 0.930 . S
C3110 C3111 1.355 . S
C3110 C3112 1.415 . S
C3111 C3110 1.355 . S
C3111 C3113 1.419 . S
C3112 C3110 1.415 . S
C3112 C3117 1.425 . S
C3112 C3119 1.409 . S
C3113 H3105 0.930 . S
C3113 C3111 1.419 . S
C3113 C3114 1.362 . S
C3114 H3106 0.930 . S
C3114 C3113 1.362 . S
C3114 C3117 1.409 . S
C3115 H3107 0.930 . S
C3115 C3116 1.355 . S
C3115 C3117 1.415 . S
C3116 C3115 1.355 . S
C3116 C3118 1.419 1_565 S
C3117 C3112 1.425 . S
C3117 C3114 1.409 . S
C3117 C3115 1.415 . S
C3118 H3108 0.931 . S
C3118 C3116 1.419 1_545 S
C3118 C3119 1.362 1_545 S
C3119 H3109 0.930 . S
C3119 C3112 1.409 . S
C3119 C3118 1.362 1_565 S
H3120 C3126 0.930 . S
H3121 C3129 0.930 . S
H3122 C3130 0.930 . S
H3123 C3131 0.930 . S
H3124 C3134 0.930 . S
H3125 C3135 0.930 . S
C3126 H3120 0.930 . S
C3126 C3127 1.355 . S
C3126 C3128 1.415 . S
C3127 C3126 1.355 . S
C3127 C3129 1.419 . S
C3128 C3126 1.415 . S
C3128 C3133 1.425 . S
C3128 C3135 1.409 . S
C3129 H3121 0.930 . S
C3129 C3127 1.419 . S
C3129 C3130 1.362 . S
C3130 H3122 0.930 . S
C3130 C3129 1.362 . S
C3130 C3133 1.409 . S
C3131 H3123 0.930 . S
C3131 C3132 1.355 . S
C3131 C3133 1.415 . S
C3132 C3131 1.355 . S
C3132 C3134 1.419 . S
C3133 C3128 1.425 . S
C3133 C3130 1.409 . S
C3133 C3131 1.415 . S
C3134 H3124 0.930 . S
C3134 C3132 1.419 . S
C3134 C3135 1.362 . S
C3135 H3125 0.930 . S
C3135 C3128 1.409 . S
C3135 C3134 1.362 . S
H3136 C3142 0.930 . S
H3137 C3145 0.930 . S
H3138 C3146 0.930 . S
H3139 C3147 0.930 . S
H3140 C3150 0.930 . S
H3141 C3151 0.930 . S
C3142 H3136 0.930 . S
C3142 C3143 1.355 . S
C3142 C3144 1.415 . S
C3143 C3142 1.355 . S
C3143 C3145 1.419 . S
C3144 C3142 1.415 . S
C3144 C3149 1.425 . S
C3144 C3151 1.409 . S
C3145 H3137 0.930 . S
C3145 C3143 1.419 . S
C3145 C3146 1.362 . S
C3146 H3138 0.930 . S
C3146 C3145 1.362 . S
C3146 C3149 1.409 . S
C3147 H3139 0.930 . S
C3147 C3148 1.355 . S
C3147 C3149 1.415 . S
C3148 C3147 1.355 . S
C3148 C3150 1.419 . S
C3149 C3144 1.425 . S
C3149 C3146 1.409 . S
C3149 C3147 1.415 . S
C3150 H3140 0.930 . S
C3150 C3148 1.419 . S
C3150 C3151 1.362 . S
C3151 H3141 0.930 . S
C3151 C3144 1.409 . S
C3151 C3150 1.362 . S
H3152 C3158 0.930 . S
H3153 C3161 0.930 . S
H3154 C3162 0.930 . S
H3155 C3163 0.930 . S
H3156 C3166 0.930 . S
H3157 C3167 0.930 . S
C3158 H3152 0.930 . S
C3158 C3159 1.355 . S
C3158 C3160 1.415 . S
C3159 C3158 1.355 . S
C3159 C3161 1.419 . S
C3160 C3158 1.415 . S
C3160 C3165 1.425 . S
C3160 C3167 1.409 . S
C3161 H3153 0.930 . S
C3161 C3159 1.419 . S
C3161 C3162 1.362 . S
C3162 H3154 0.930 . S
C3162 C3161 1.362 . S
C3162 C3165 1.409 . S
C3163 H3155 0.930 . S
C3163 C3164 1.355 . S
C3163 C3165 1.415 . S
C3164 C3163 1.355 . S
C3164 C3166 1.419 . S
C3165 C3160 1.425 . S
C3165 C3162 1.409 . S
C3165 C3163 1.415 . S
C3166 H3156 0.930 . S
C3166 C3164 1.419 . S
C3166 C3167 1.362 . S
C3167 H3157 0.930 . S
C3167 C3160 1.409 . S
C3167 C3166 1.362 . S
H3168 C3174 0.930 . S
H3169 C3177 0.930 . S
H3170 C3178 0.930 . S
H3171 C3179 0.930 1_556 S
H3172 C3182 0.930 . S
H3173 C3183 0.930 . S
C3174 H3168 0.930 . S
C3174 C3175 1.355 . S
C3174 C3176 1.415 . S
C3175 C3174 1.355 . S
C3175 C3177 1.419 . S
C3176 C3174 1.415 . S
C3176 C3181 1.425 . S
C3176 C3183 1.409 . S
C3177 H3169 0.930 . S
C3177 C3175 1.419 . S
C3177 C3178 1.362 . S
C3178 H3170 0.930 . S
C3178 C3177 1.362 . S
C3178 C3181 1.409 . S
C3179 H3171 0.930 1_554 S
C3179 C3180 1.359 . S
C3179 C3181 1.415 . S
C3180 C3179 1.359 . S
C3180 C3182 1.420 . S
C3181 C3176 1.425 . S
C3181 C3178 1.409 . S
C3181 C3179 1.415 . S
C3182 H3172 0.930 . S
C3182 C3180 1.420 . S
C3182 C3183 1.362 . S
C3183 H3173 0.930 . S
C3183 C3176 1.409 . S
C3183 C3182 1.362 . S
H3184 C3190 0.930 . S
H3185 C3193 0.900 1_545 S
H3186 C3194 0.930 . S
H3187 C3195 0.930 . S
H3188 C3198 0.930 . S
H3189 C3199 0.930 . S
C3190 H3184 0.930 . S
C3190 C3191 1.355 . S
C3190 C3192 1.415 . S
C3191 C3190 1.355 . S
C3191 C3193 1.419 . S
C3192 C3190 1.415 . S
C3192 C3197 1.425 . S
C3192 C3199 1.409 . S
C3193 H3185 0.900 1_565 S
C3193 C3191 1.419 . S
C3193 C3194 1.362 . S
C3194 H3186 0.930 . S
C3194 C3193 1.362 . S
C3194 C3197 1.409 . S
C3195 H3187 0.930 . S
C3195 C3196 1.355 . S
C3195 C3197 1.415 . S
C3196 C3195 1.355 . S
C3196 C3198 1.419 . S
C3197 C3192 1.425 . S
C3197 C3194 1.409 . S
C3197 C3195 1.415 . S
C3198 H3188 0.930 . S
C3198 C3196 1.419 . S
C3198 C3199 1.362 . S
C3199 H3189 0.930 . S
C3199 C3192 1.409 . S
C3199 C3198 1.362 . S
H3200 C3206 0.930 . S
H3201 C3209 0.930 . S
H3202 C3210 0.930 . S
H3203 C3211 0.930 . S
H3204 C3214 0.930 . S
H3205 C3215 0.930 . S
C3206 H3200 0.930 . S
C3206 C3207 1.355 . S
C3206 C3208 1.415 . S
C3207 C3206 1.355 . S
C3207 C3209 1.419 . S
C3208 C3206 1.415 . S
C3208 C3213 1.425 . S
C3208 C3215 1.409 . S
C3209 H3201 0.930 . S
C3209 C3207 1.419 . S
C3209 C3210 1.362 . S
C3210 H3202 0.930 . S
C3210 C3209 1.362 . S
C3210 C3213 1.409 . S
C3211 H3203 0.930 . S
C3211 C3212 1.355 . S
C3211 C3213 1.415 . S
C3212 C3211 1.355 . S
C3212 C3214 1.419 . S
C3213 C3208 1.425 . S
C3213 C3210 1.409 . S
C3213 C3211 1.415 . S
C3214 H3204 0.930 . S
C3214 C3212 1.419 . S
C3214 C3215 1.362 . S
C3215 H3205 0.930 . S
C3215 C3208 1.409 . S
C3215 C3214 1.362 . S
C1687 C109 1.870 . S
C1692 C392 1.780 . S
C1703 C61 1.913 . S
C1708 C483 2.101 . S
C1719 C74 1.666 . S
C1724 C560 1.611 . S
C1740 C658 1.355 . S
C1735 C96 1.536 . S
C1751 C25 1.475 1_455 S
C1756 C742 1.403 . S
C1772 C814 1.008 . S
C1767 C40 1.044 . S
C1788 C903 1.145 . S
C1783 C46 1.115 . S
C1799 C5 1.198 . S
C1804 C980 1.438 . S
C1820 C399 1.941 . S
C1815 C229 1.797 . S
C1831 C249 0.682 . S
C1836 C490 0.618 . S
C1852 C567 1.083 . S
C1847 C271 0.989 . S
C1868 C644 1.755 . S
C1863 C172 1.752 . S
C1879 C236 2.078 . S
C1884 C728 1.885 . S
C1900 C830 1.255 . S
C1895 C242 1.373 . S
C1916 C910 0.659 . S
C1911 C278 0.753 . S
C1932 C987 1.633 . S
C1927 C179 1.776 . S
C1948 C406 1.382 . S
C1943 C159 1.073 . S
C1959 C285 1.604 . S
C1964 C1071 1.770 1_556 S
C1980 C1159 2.183 . S
C1975 C333 2.303 . S
C1996 C1232 0.652 . S
C1991 C320 0.579 . S
C2007 C123 0.949 . S
C2012 C994 1.010 . S
C2023 C138 1.464 . S
C2028 C574 1.465 . S
C2039 C326 2.291 . S
C2044 C1323 2.225 . S
C2060 C1400 0.812 . S
C2055 C298 0.747 . S
C2076 C403 1.741 . S
C2071 C67 1.791 . S
C2092 C1418 2.047 . S
C2087 C110 2.098 . S
C2103 C88 1.605 . S
C2108 C571 1.584 . S
C2119 C75 1.247 . S
C2124 C1318 1.271 . S
C2140 C730 1.393 . S
C2135 C11 1.441 . S
C2151 C47 0.943 . S
C2156 C1162 0.988 . S
C2172 C914 0.983 . S
C2167 C32 0.771 . S
C2188 C1495 1.351 . S
C2183 C26 1.590 . S
C2204 C410 1.991 . S
C2199 C152 2.136 . S
C2220 C1402 0.682 . S
C2215 C319 0.738 . S
C2231 C124 1.056 . S
C2236 C578 0.987 . S
C2247 C284 1.820 . S
C2252 C1327 1.712 . S
C2263 C145 1.997 . S
C2268 C739 1.909 . S
C2284 C1155 1.189 . S
C2279 C312 1.240 . S
C2295 C117 0.615 . S
C2300 C898 0.603 . S
C2311 C291 1.652 . S
C2316 C1502 1.547 . S
C2327 C194 1.447 . S
C2332 C394 1.350 . S
C2343 C180 1.809 . S
C2348 C1082 1.736 . S
C2359 C263 2.215 . S
C2364 C812 2.087 . S
C2375 C243 0.765 . S
C2380 C1243 0.559 . S
C2396 C1486 1.160 . S
C2391 C277 1.136 . S
C2407 C215 1.358 . S
C2412 C562 1.404 . S
C2428 C662 2.144 . S
C2423 C256 2.144 . S
C2444 C487 0.729 . S
C2439 C200 0.847 . S
C2455 C81 1.866 . S
C2460 C1568 1.707 . S
C2476 C1407 2.076 . S
C2471 C89 1.925 . S
C2487 C102 1.632 . S
C2492 C1652 1.636 . S
C2503 C68 1.536 . S
C2508 C1330 1.370 . S
C2519 C53 1.473 . S
C2524 C1078 1.463 . S
C2540 C1150 1.030 . S
C2535 C12 1.067 . S
C2556 C1239 1.124 . S
C2551 C18 1.162 . S
C2572 C1484 1.327 . S
C2567 C33 1.068 . S
C2588 C1575 1.937 . S
C2583 C257 1.720 . S
C2599 C193 0.703 . S
C2604 C1414 0.633 . S
C2620 C1659 1.062 . S
C2615 C201 0.993 . S
C2636 C1316 1.731 . S
C2631 C214 1.735 . S
C2652 C1064 1.948 . S
C2647 C264 2.079 . S
C2663 C186 1.356 . S
C2668 C1166 1.328 . S
C2684 C1246 0.707 . S
C2679 C208 0.769 . S
C2695 C221 1.764 . S
C2700 C1491 1.595 . S
C2716 C1582 1.336 . S
C2711 C313 1.141 . S
C2727 C131 1.608 . S
C2732 C735 1.727 . S
C2748 C823 2.209 . S
C2743 C151 2.313 . S
C2764 C896 0.579 . S
C2759 C166 0.489 . S
C2780 C1498 1.004 . S
C2775 C305 0.974 . S
C2791 C292 1.470 1_554 S
C2796 C1666 1.416 . S
C2812 C651 2.244 . S
C2807 C144 2.290 . S
C2828 C476 0.826 . S
C2823 C116 0.782 . S
C2839 C95 1.738 . S
C2844 C1579 1.656 . S
C2860 C494 2.055 . S
C2855 C82 2.109 . S
C2871 C60 1.607 . S
C2876 C1663 1.582 . S
C2887 C103 1.284 . S
C2892 C646 1.309 . S
C2903 C39 1.431 . S
C2908 C1066 1.410 . S
C2924 C826 0.953 . S
C2919 C19 0.982 . S
C2935 C4 0.973 . S
C2940 C1250 0.948 . S
C2951 C54 1.609 . S
C2956 C991 1.359 . S
C2972 C1586 2.012 . S
C2967 C334 2.139 . S
C2983 C165 0.713 . S
C2988 C478 0.702 . S
C3004 C1670 0.994 . S
C2999 C306 1.055 . S
C3015 C130 1.778 . S
C3020 C655 1.781 . S
C3031 C327 1.939 . S
C3036 C1075 1.875 . S
C3052 C819 1.246 . S
C3047 C158 1.286 . S
C3063 C299 0.692 . S
C3068 C1234 0.775 1_655 S
C3084 C998 1.546 . S
C3079 C137 1.656 . S
C3100 C1570 1.376 . S
C3095 C250 1.465 . S
C3116 C746 1.765 1_665 S
C3111 C222 1.807 . S
C3127 C235 2.203 . S
C3132 C1148 2.047 . S
C3148 C907 0.644 . S
C3143 C187 0.621 . S
C3159 C207 0.999 . S
C3164 C982 1.189 . S
C3175 C173 1.346 . S
C3180 C1654 1.389 1_554 S
C3196 C1334 2.150 . S
C3191 C228 2.148 1_565 S
C3212 C1411 0.904 . S
C3207 C270 0.820 . S
