# Generated by pormake.
# Topology gar, (4,6)-cn, num edge types: 1
# Building blocks:
#     Node 0, Type 0, BuildingBlock: GALJAG_clean_sbu_0, # of connection points: 4
#     Node 1, Type 0, BuildingBlock: GALJAG_clean_sbu_0, # of connection points: 4
#     Node 2, Type 0, BuildingBlock: GALJAG_clean_sbu_0, # of connection points: 4
#     Node 3, Type 0, BuildingBlock: GALJAG_clean_sbu_0, # of connection points: 4
#     Node 4, Type 0, BuildingBlock: GALJAG_clean_sbu_0, # of connection points: 4
#     Node 5, Type 0, BuildingBlock: GALJAG_clean_sbu_0, # of connection points: 4
#     Node 6, Type 0, BuildingBlock: GALJAG_clean_sbu_0, # of connection points: 4
#     Node 7, Type 0, BuildingBlock: GALJAG_clean_sbu_0, # of connection points: 4
#     Node 8, Type 0, BuildingBlock: GALJAG_clean_sbu_0, # of connection points: 4
#     Node 9, Type 0, BuildingBlock: GALJAG_clean_sbu_0, # of connection points: 4
#     Node 10, Type 0, BuildingBlock: GALJAG_clean_sbu_0, # of connection points: 4
#     Node 11, Type 0, BuildingBlock: GALJAG_clean_sbu_0, # of connection points: 4
#     Node 12, Type 0, BuildingBlock: GALJAG_clean_sbu_0, # of connection points: 4
#     Node 13, Type 0, BuildingBlock: GALJAG_clean_sbu_0, # of connection points: 4
#     Node 14, Type 0, BuildingBlock: GALJAG_clean_sbu_0, # of connection points: 4
#     Node 15, Type 0, BuildingBlock: GALJAG_clean_sbu_0, # of connection points: 4
#     Node 16, Type 0, BuildingBlock: GALJAG_clean_sbu_0, # of connection points: 4
#     Node 17, Type 0, BuildingBlock: GALJAG_clean_sbu_0, # of connection points: 4
#     Node 18, Type 0, BuildingBlock: GALJAG_clean_sbu_0, # of connection points: 4
#     Node 19, Type 0, BuildingBlock: GALJAG_clean_sbu_0, # of connection points: 4
#     Node 20, Type 0, BuildingBlock: GALJAG_clean_sbu_0, # of connection points: 4
#     Node 21, Type 0, BuildingBlock: GALJAG_clean_sbu_0, # of connection points: 4
#     Node 22, Type 0, BuildingBlock: GALJAG_clean_sbu_0, # of connection points: 4
#     Node 23, Type 0, BuildingBlock: GALJAG_clean_sbu_0, # of connection points: 4
#     Node 24, Type 1, BuildingBlock: KUMBOL_clean_sbu_1, # of connection points: 6
#     Node 25, Type 1, BuildingBlock: KUMBOL_clean_sbu_1, # of connection points: 6
#     Node 26, Type 1, BuildingBlock: KUMBOL_clean_sbu_1, # of connection points: 6
#     Node 27, Type 1, BuildingBlock: KUMBOL_clean_sbu_1, # of connection points: 6
#     Node 28, Type 1, BuildingBlock: KUMBOL_clean_sbu_1, # of connection points: 6
#     Node 29, Type 1, BuildingBlock: KUMBOL_clean_sbu_1, # of connection points: 6
#     Node 30, Type 1, BuildingBlock: KUMBOL_clean_sbu_1, # of connection points: 6
#     Node 31, Type 1, BuildingBlock: KUMBOL_clean_sbu_1, # of connection points: 6
#     Node 32, Type 1, BuildingBlock: KUMBOL_clean_sbu_1, # of connection points: 6
#     Node 33, Type 1, BuildingBlock: KUMBOL_clean_sbu_1, # of connection points: 6
#     Node 34, Type 1, BuildingBlock: KUMBOL_clean_sbu_1, # of connection points: 6
#     Node 35, Type 1, BuildingBlock: KUMBOL_clean_sbu_1, # of connection points: 6
#     Node 36, Type 1, BuildingBlock: KUMBOL_clean_sbu_1, # of connection points: 6
#     Node 37, Type 1, BuildingBlock: KUMBOL_clean_sbu_1, # of connection points: 6
#     Node 38, Type 1, BuildingBlock: KUMBOL_clean_sbu_1, # of connection points: 6
#     Node 39, Type 1, BuildingBlock: KUMBOL_clean_sbu_1, # of connection points: 6
#     Edge 40, Type (0, 1), BuildingBlock: MIFKUJ_clean_linker_0, # of connection points: 2
#     Edge 41, Type (0, 1), BuildingBlock: MIFKUJ_clean_linker_0, # of connection points: 2
#     Edge 42, Type (0, 1), BuildingBlock: MIFKUJ_clean_linker_0, # of connection points: 2
#     Edge 43, Type (0, 1), BuildingBlock: MIFKUJ_clean_linker_0, # of connection points: 2
#     Edge 44, Type (0, 1), BuildingBlock: MIFKUJ_clean_linker_0, # of connection points: 2
#     Edge 45, Type (0, 1), BuildingBlock: MIFKUJ_clean_linker_0, # of connection points: 2
#     Edge 46, Type (0, 1), BuildingBlock: MIFKUJ_clean_linker_0, # of connection points: 2
#     Edge 47, Type (0, 1), BuildingBlock: MIFKUJ_clean_linker_0, # of connection points: 2
#     Edge 48, Type (0, 1), BuildingBlock: MIFKUJ_clean_linker_0, # of connection points: 2
#     Edge 49, Type (0, 1), BuildingBlock: MIFKUJ_clean_linker_0, # of connection points: 2
#     Edge 50, Type (0, 1), BuildingBlock: MIFKUJ_clean_linker_0, # of connection points: 2
#     Edge 51, Type (0, 1), BuildingBlock: MIFKUJ_clean_linker_0, # of connection points: 2
#     Edge 52, Type (0, 1), BuildingBlock: MIFKUJ_clean_linker_0, # of connection points: 2
#     Edge 53, Type (0, 1), BuildingBlock: MIFKUJ_clean_linker_0, # of connection points: 2
#     Edge 54, Type (0, 1), BuildingBlock: MIFKUJ_clean_linker_0, # of connection points: 2
#     Edge 55, Type (0, 1), BuildingBlock: MIFKUJ_clean_linker_0, # of connection points: 2
#     Edge 56, Type (0, 1), BuildingBlock: MIFKUJ_clean_linker_0, # of connection points: 2
#     Edge 57, Type (0, 1), BuildingBlock: MIFKUJ_clean_linker_0, # of connection points: 2
#     Edge 58, Type (0, 1), BuildingBlock: MIFKUJ_clean_linker_0, # of connection points: 2
#     Edge 59, Type (0, 1), BuildingBlock: MIFKUJ_clean_linker_0, # of connection points: 2
#     Edge 60, Type (0, 1), BuildingBlock: MIFKUJ_clean_linker_0, # of connection points: 2
#     Edge 61, Type (0, 1), BuildingBlock: MIFKUJ_clean_linker_0, # of connection points: 2
#     Edge 62, Type (0, 1), BuildingBlock: MIFKUJ_clean_linker_0, # of connection points: 2
#     Edge 63, Type (0, 1), BuildingBlock: MIFKUJ_clean_linker_0, # of connection points: 2
#     Edge 64, Type (0, 1), BuildingBlock: MIFKUJ_clean_linker_0, # of connection points: 2
#     Edge 65, Type (0, 1), BuildingBlock: MIFKUJ_clean_linker_0, # of connection points: 2
#     Edge 66, Type (0, 1), BuildingBlock: MIFKUJ_clean_linker_0, # of connection points: 2
#     Edge 67, Type (0, 1), BuildingBlock: MIFKUJ_clean_linker_0, # of connection points: 2
#     Edge 68, Type (0, 1), BuildingBlock: MIFKUJ_clean_linker_0, # of connection points: 2
#     Edge 69, Type (0, 1), BuildingBlock: MIFKUJ_clean_linker_0, # of connection points: 2
#     Edge 70, Type (0, 1), BuildingBlock: MIFKUJ_clean_linker_0, # of connection points: 2
#     Edge 71, Type (0, 1), BuildingBlock: MIFKUJ_clean_linker_0, # of connection points: 2
#     Edge 72, Type (0, 1), BuildingBlock: MIFKUJ_clean_linker_0, # of connection points: 2
#     Edge 73, Type (0, 1), BuildingBlock: MIFKUJ_clean_linker_0, # of connection points: 2
#     Edge 74, Type (0, 1), BuildingBlock: MIFKUJ_clean_linker_0, # of connection points: 2
#     Edge 75, Type (0, 1), BuildingBlock: MIFKUJ_clean_linker_0, # of connection points: 2
#     Edge 76, Type (0, 1), BuildingBlock: MIFKUJ_clean_linker_0, # of connection points: 2
#     Edge 77, Type (0, 1), BuildingBlock: MIFKUJ_clean_linker_0, # of connection points: 2
#     Edge 78, Type (0, 1), BuildingBlock: MIFKUJ_clean_linker_0, # of connection points: 2
#     Edge 79, Type (0, 1), BuildingBlock: MIFKUJ_clean_linker_0, # of connection points: 2
#     Edge 80, Type (0, 1), BuildingBlock: MIFKUJ_clean_linker_0, # of connection points: 2
#     Edge 81, Type (0, 1), BuildingBlock: MIFKUJ_clean_linker_0, # of connection points: 2
#     Edge 82, Type (0, 1), BuildingBlock: MIFKUJ_clean_linker_0, # of connection points: 2
#     Edge 83, Type (0, 1), BuildingBlock: MIFKUJ_clean_linker_0, # of connection points: 2
#     Edge 84, Type (0, 1), BuildingBlock: MIFKUJ_clean_linker_0, # of connection points: 2
#     Edge 85, Type (0, 1), BuildingBlock: MIFKUJ_clean_linker_0, # of connection points: 2
#     Edge 86, Type (0, 1), BuildingBlock: MIFKUJ_clean_linker_0, # of connection points: 2
#     Edge 87, Type (0, 1), BuildingBlock: MIFKUJ_clean_linker_0, # of connection points: 2
#     Edge 88, Type (0, 1), BuildingBlock: MIFKUJ_clean_linker_0, # of connection points: 2
#     Edge 89, Type (0, 1), BuildingBlock: MIFKUJ_clean_linker_0, # of connection points: 2
#     Edge 90, Type (0, 1), BuildingBlock: MIFKUJ_clean_linker_0, # of connection points: 2
#     Edge 91, Type (0, 1), BuildingBlock: MIFKUJ_clean_linker_0, # of connection points: 2
#     Edge 92, Type (0, 1), BuildingBlock: MIFKUJ_clean_linker_0, # of connection points: 2
#     Edge 93, Type (0, 1), BuildingBlock: MIFKUJ_clean_linker_0, # of connection points: 2
#     Edge 94, Type (0, 1), BuildingBlock: MIFKUJ_clean_linker_0, # of connection points: 2
#     Edge 95, Type (0, 1), BuildingBlock: MIFKUJ_clean_linker_0, # of connection points: 2
#     Edge 96, Type (0, 1), BuildingBlock: MIFKUJ_clean_linker_0, # of connection points: 2
#     Edge 97, Type (0, 1), BuildingBlock: MIFKUJ_clean_linker_0, # of connection points: 2
#     Edge 98, Type (0, 1), BuildingBlock: MIFKUJ_clean_linker_0, # of connection points: 2
#     Edge 99, Type (0, 1), BuildingBlock: MIFKUJ_clean_linker_0, # of connection points: 2
#     Edge 100, Type (0, 1), BuildingBlock: MIFKUJ_clean_linker_0, # of connection points: 2
#     Edge 101, Type (0, 1), BuildingBlock: MIFKUJ_clean_linker_0, # of connection points: 2
#     Edge 102, Type (0, 1), BuildingBlock: MIFKUJ_clean_linker_0, # of connection points: 2
#     Edge 103, Type (0, 1), BuildingBlock: MIFKUJ_clean_linker_0, # of connection points: 2
#     Edge 104, Type (0, 1), BuildingBlock: MIFKUJ_clean_linker_0, # of connection points: 2
#     Edge 105, Type (0, 1), BuildingBlock: MIFKUJ_clean_linker_0, # of connection points: 2
#     Edge 106, Type (0, 1), BuildingBlock: MIFKUJ_clean_linker_0, # of connection points: 2
#     Edge 107, Type (0, 1), BuildingBlock: MIFKUJ_clean_linker_0, # of connection points: 2
#     Edge 108, Type (0, 1), BuildingBlock: MIFKUJ_clean_linker_0, # of connection points: 2
#     Edge 109, Type (0, 1), BuildingBlock: MIFKUJ_clean_linker_0, # of connection points: 2
#     Edge 110, Type (0, 1), BuildingBlock: MIFKUJ_clean_linker_0, # of connection points: 2
#     Edge 111, Type (0, 1), BuildingBlock: MIFKUJ_clean_linker_0, # of connection points: 2
#     Edge 112, Type (0, 1), BuildingBlock: MIFKUJ_clean_linker_0, # of connection points: 2
#     Edge 113, Type (0, 1), BuildingBlock: MIFKUJ_clean_linker_0, # of connection points: 2
#     Edge 114, Type (0, 1), BuildingBlock: MIFKUJ_clean_linker_0, # of connection points: 2
#     Edge 115, Type (0, 1), BuildingBlock: MIFKUJ_clean_linker_0, # of connection points: 2
#     Edge 116, Type (0, 1), BuildingBlock: MIFKUJ_clean_linker_0, # of connection points: 2
#     Edge 117, Type (0, 1), BuildingBlock: MIFKUJ_clean_linker_0, # of connection points: 2
#     Edge 118, Type (0, 1), BuildingBlock: MIFKUJ_clean_linker_0, # of connection points: 2
#     Edge 119, Type (0, 1), BuildingBlock: MIFKUJ_clean_linker_0, # of connection points: 2
#     Edge 120, Type (0, 1), BuildingBlock: MIFKUJ_clean_linker_0, # of connection points: 2
#     Edge 121, Type (0, 1), BuildingBlock: MIFKUJ_clean_linker_0, # of connection points: 2
#     Edge 122, Type (0, 1), BuildingBlock: MIFKUJ_clean_linker_0, # of connection points: 2
#     Edge 123, Type (0, 1), BuildingBlock: MIFKUJ_clean_linker_0, # of connection points: 2
#     Edge 124, Type (0, 1), BuildingBlock: MIFKUJ_clean_linker_0, # of connection points: 2
#     Edge 125, Type (0, 1), BuildingBlock: MIFKUJ_clean_linker_0, # of connection points: 2
#     Edge 126, Type (0, 1), BuildingBlock: MIFKUJ_clean_linker_0, # of connection points: 2
#     Edge 127, Type (0, 1), BuildingBlock: MIFKUJ_clean_linker_0, # of connection points: 2
#     Edge 128, Type (0, 1), BuildingBlock: MIFKUJ_clean_linker_0, # of connection points: 2
#     Edge 129, Type (0, 1), BuildingBlock: MIFKUJ_clean_linker_0, # of connection points: 2
#     Edge 130, Type (0, 1), BuildingBlock: MIFKUJ_clean_linker_0, # of connection points: 2
#     Edge 131, Type (0, 1), BuildingBlock: MIFKUJ_clean_linker_0, # of connection points: 2
#     Edge 132, Type (0, 1), BuildingBlock: MIFKUJ_clean_linker_0, # of connection points: 2
#     Edge 133, Type (0, 1), BuildingBlock: MIFKUJ_clean_linker_0, # of connection points: 2
#     Edge 134, Type (0, 1), BuildingBlock: MIFKUJ_clean_linker_0, # of connection points: 2
#     Edge 135, Type (0, 1), BuildingBlock: MIFKUJ_clean_linker_0, # of connection points: 2
# Relax obj value: 0.073
# Max RMSD: 0.175
# Mean RMSD: 0.127
data_MOF--net-gar--node1-GALJAG_clean_sbu_0--node2-KUMBOL_clean_sbu_1--edge1-MIFKUJ_clean_linker_0
_symmetry_space_group_name_H-M    P1
_symmetry_Int_Tables_number       1
_symmetry_cell_setting            triclinic
loop_
_symmetry_equiv_pos_as_xyz
'x, y, z'
_cell_length_a     76.660234
_cell_length_b     76.695085
_cell_length_c     72.226375
_cell_angle_alpha  95.49871
_cell_angle_beta   95.553783
_cell_angle_gamma 100.17605
loop_
_atom_site_label
_atom_site_type_symbol
_atom_site_fract_x
_atom_site_fract_y
_atom_site_fract_z
_atom_type_partial_charge
In0 In 0.04156 0.30641 0.3627 0.0
O1 O 0.05836 0.30641 0.33654 0.0
O2 O 0.07191 0.30523 0.36285 0.0
C3 C 0.007 0.30215 0.34475 0.0
C4 C 0.03917 0.27545 0.38035 0.0
C5 C 0.04307 0.34067 0.38149 0.0
O6 O 0.01994 0.29864 0.33631 0.0
O7 O 0.01137 0.3073 0.36198 0.0
O8 O 0.0466 0.3276 0.38961 0.0
O9 O 0.03976 0.33687 0.36394 0.0
C10 C 0.07293 0.30487 0.34552 0.0
O11 O 0.0461 0.29076 0.38854 0.0
O12 O 0.03275 0.27579 0.36366 0.0
In13 In 0.01822 0.75604 0.6844 0.0
O14 O 0.0153 0.7707 0.65832 0.0
O15 O 0.0242 0.78666 0.6843 0.0
C16 C 0.01476 0.72338 0.66343 0.0
C17 C 0.05461 0.76085 0.69877 0.0
C18 C 0.98503 0.75538 0.69927 0.0
O19 O 0.01067 0.737 0.65697 0.0
O20 O 0.02056 0.72597 0.68068 0.0
O21 O 0.99999 0.76026 0.70933 0.0
O22 O 0.98699 0.75046 0.6826 0.0
C23 C 0.02035 0.78617 0.66684 0.0
O24 O 0.04199 0.75641 0.70865 0.0
O25 O 0.04883 0.76278 0.68225 0.0
In26 In 0.54163 0.80616 0.86279 0.0
O27 O 0.55875 0.80632 0.83721 0.0
O28 O 0.57195 0.80448 0.86366 0.0
C29 C 0.50719 0.80255 0.84475 0.0
C30 C 0.5395 0.77454 0.87887 0.0
C31 C 0.5438 0.83985 0.883 0.0
O32 O 0.52063 0.80248 0.83588 0.0
O33 O 0.51109 0.80403 0.86223 0.0
O34 O 0.54157 0.82532 0.89012 0.0
O35 O 0.54614 0.8377 0.86588 0.0
C36 C 0.57314 0.80442 0.84631 0.0
O37 O 0.54284 0.78975 0.88828 0.0
O38 O 0.53695 0.77517 0.86143 0.0
In39 In 0.51852 0.25647 0.18437 0.0
O40 O 0.51827 0.24043 0.15575 0.0
O41 O 0.51583 0.2256 0.17894 0.0
C42 C 0.51871 0.28607 0.1663 0.0
C43 C 0.48549 0.25584 0.19961 0.0
C44 C 0.55483 0.261 0.19944 0.0
O45 O 0.51162 0.2706 0.15867 0.0
O46 O 0.52521 0.28673 0.18315 0.0
O47 O 0.54219 0.25283 0.20739 0.0
O48 O 0.54907 0.26683 0.18478 0.0
C49 C 0.51652 0.22524 0.16146 0.0
O50 O 0.50028 0.2645 0.20796 0.0
O51 O 0.48759 0.24707 0.1846 0.0
In52 In 0.0527 0.79036 0.11162 0.0
O53 O 0.04555 0.76652 0.08594 0.0
O54 O 0.05369 0.76027 0.11255 0.0
C55 C 0.05273 0.82411 0.09794 0.0
C56 C 0.02305 0.78727 0.12985 0.0
C57 C 0.08446 0.79554 0.13462 0.0
O58 O 0.0619 0.81302 0.09173 0.0
O59 O 0.04354 0.81805 0.11027 0.0
O60 O 0.06929 0.79261 0.1403 0.0
O61 O 0.08391 0.79675 0.11723 0.0
C62 C 0.04841 0.7542 0.09579 0.0
O63 O 0.03867 0.78922 0.13813 0.0
O64 O 0.02221 0.78707 0.11223 0.0
In65 In 0.50262 0.76704 0.43295 0.0
O66 O 0.51818 0.76585 0.40657 0.0
O67 O 0.53314 0.76811 0.43305 0.0
C68 C 0.46949 0.76618 0.41202 0.0
C69 C 0.50497 0.7363 0.4507 0.0
C70 C 0.50574 0.80095 0.45209 0.0
O71 O 0.48442 0.77121 0.40626 0.0
O72 O 0.47106 0.76056 0.42791 0.0
O73 O 0.49812 0.78702 0.45823 0.0
O74 O 0.51214 0.79768 0.43702 0.0
C75 C 0.53344 0.76707 0.41557 0.0
O76 O 0.51156 0.75201 0.45805 0.0
O77 O 0.49636 0.73594 0.43473 0.0
In78 In 0.55282 0.29041 0.61184 0.0
O79 O 0.54367 0.26635 0.5868 0.0
O80 O 0.55503 0.26051 0.61249 0.0
C81 C 0.55272 0.32358 0.59712 0.0
C82 C 0.52362 0.28627 0.6308 0.0
C83 C 0.58532 0.29684 0.63357 0.0
O84 O 0.56242 0.3127 0.59168 0.0
O85 O 0.54298 0.31747 0.60895 0.0
O86 O 0.57129 0.30053 0.63955 0.0
O87 O 0.5832 0.29062 0.61648 0.0
C88 C 0.54811 0.25426 0.59617 0.0
O89 O 0.53925 0.28699 0.63862 0.0
O90 O 0.52263 0.28752 0.61342 0.0
In91 In 1.00258 0.26701 0.93306 0.0
O92 O 1.00411 0.25055 0.95921 0.0
O93 O 1.00349 0.23649 0.93274 0.0
C94 C 0.00686 0.30113 0.95208 0.0
C95 C 0.03374 0.26938 0.91623 0.0
C96 C 0.96898 0.2659 0.91275 0.0
O97 O 0.99696 0.28765 0.95672 0.0
O98 O 0.01515 0.29743 0.93839 0.0
O99 O 0.98259 0.26327 0.90509 0.0
O100 O 0.97206 0.26823 0.93035 0.0
C101 C 1.0048 0.23579 0.95018 0.0
O102 O 0.01842 0.26732 0.90703 0.0
O103 O 0.03336 0.27072 0.93378 0.0
In104 In 0.3915 0.01901 0.29729 0.0
O105 O 0.4117 0.01526 0.27744 0.0
O106 O 0.38738 0.02318 0.26727 0.0
C107 C 0.40681 0.02062 0.33126 0.0
C108 C 0.37721 0.04707 0.30081 0.0
C109 C 0.37376 0.98675 0.29209 0.0
O110 O 0.41524 0.02788 0.31893 0.0
O111 O 0.39099 0.01277 0.32637 0.0
O112 O 0.36603 0.99996 0.29164 0.0
O113 O 0.39061 0.98997 0.29474 0.0
C114 C 0.40197 0.01903 0.26379 0.0
O115 O 0.36831 0.03167 0.30138 0.0
O116 O 0.39369 0.04827 0.29948 0.0
In117 In 0.26878 0.17511 0.51057 0.0
O118 O 0.26332 0.19656 0.53362 0.0
O119 O 0.28061 0.17938 0.54159 0.0
C120 C 0.26949 0.18882 0.47659 0.0
C121 C 0.29609 0.15741 0.51013 0.0
C122 C 0.23633 0.1541 0.50912 0.0
O123 O 0.27843 0.19709 0.49148 0.0
O124 O 0.26018 0.17417 0.47898 0.0
O125 O 0.25066 0.1481 0.51019 0.0
O126 O 0.23834 0.17082 0.50915 0.0
C127 C 0.27291 0.19185 0.5468 0.0
O128 O 0.28 0.14961 0.50874 0.0
O129 O 0.29842 0.17422 0.51108 0.0
In130 In 0.13303 0.04019 0.78589 0.0
O131 O 0.10852 0.03821 0.76307 0.0
O132 O 0.13325 0.03516 0.7539 0.0
C133 C 0.11737 0.03866 0.81896 0.0
C134 C 0.15027 0.01258 0.78444 0.0
C135 C 0.15473 0.07281 0.7904 0.0
O136 O 0.11661 0.05098 0.8087 0.0
O137 O 0.12481 0.02665 0.81199 0.0
O138 O 0.15997 0.05906 0.79527 0.0
O139 O 0.13868 0.07009 0.78327 0.0
C140 C 0.11711 0.03558 0.74924 0.0
O141 O 0.15825 0.02853 0.78923 0.0
O142 O 0.13351 0.01054 0.78058 0.0
In143 In 0.29004 0.91621 0.99933 0.0
O144 O 0.2794 0.89604 0.01782 0.0
O145 O 0.30016 0.91795 0.02956 0.0
C146 C 0.28823 0.89998 0.96559 0.0
C147 C 0.26292 0.93228 0.99969 0.0
C148 C 0.32195 0.93463 0.00034 0.0
O149 O 0.29256 0.89256 0.97977 0.0
O150 O 0.28379 0.9149 0.96872 0.0
O151 O 0.30866 0.94201 0.00227 0.0
O152 O 0.31906 0.91778 0.99823 0.0
C153 C 0.28943 0.9042 0.03205 0.0
O154 O 0.27847 0.94064 0.99877 0.0
O155 O 0.26109 0.91565 0.00016 0.0
In156 In 0.2933 0.38971 0.03517 0.0
O157 O 0.28827 0.36502 0.05056 0.0
O158 O 0.29483 0.39013 0.06729 0.0
C159 C 0.29019 0.3716 0.00028 0.0
C160 C 0.26281 0.40346 0.03542 0.0
C161 C 0.32749 0.40874 0.03753 0.0
O162 O 0.29182 0.3642 0.01503 0.0
O163 O 0.28994 0.388 0.00309 0.0
O164 O 0.31381 0.41561 0.03478 0.0
O165 O 0.32403 0.39247 0.03999 0.0
C166 C 0.29042 0.37336 0.0668 0.0
O167 O 0.27783 0.41288 0.03423 0.0
O168 O 0.26312 0.38723 0.03647 0.0
In169 In 0.76404 0.12905 0.04618 0.0
O170 O 0.78005 0.10788 0.05163 0.0
O171 O 0.79156 0.1311 0.03966 0.0
C172 C 0.7312 0.11286 0.04477 0.0
C173 C 0.77091 0.14866 0.07848 0.0
C174 C 0.76133 0.14504 0.01591 0.0
O175 O 0.74264 0.10511 0.03771 0.0
O176 O 0.7367 0.12837 0.05295 0.0
O177 O 0.76587 0.15333 0.03205 0.0
O178 O 0.75786 0.12823 0.01489 0.0
C179 C 0.79347 0.11666 0.0457 0.0
O180 O 0.76974 0.15517 0.06314 0.0
O181 O 0.7684 0.13186 0.07758 0.0
In182 In 0.17951 0.545 0.25109 0.0
O183 O 0.20188 0.53008 0.25471 0.0
O184 O 0.17527 0.51619 0.24445 0.0
C185 C 0.1941 0.57808 0.25579 0.0
C186 C 0.16152 0.54462 0.21868 0.0
C187 C 0.16504 0.54119 0.28202 0.0
O188 O 0.20284 0.56665 0.24969 0.0
O189 O 0.17838 0.57261 0.25905 0.0
O190 O 0.15646 0.53601 0.26607 0.0
O191 O 0.18136 0.54793 0.28243 0.0
C192 C 0.19132 0.51545 0.2492 0.0
O193 O 0.15496 0.54708 0.23383 0.0
O194 O 0.17767 0.54295 0.21992 0.0
In195 In 0.79415 0.89066 0.5359 0.0
O196 O 0.79616 0.8666 0.55244 0.0
O197 O 0.78824 0.88912 0.5662 0.0
C198 C 0.79152 0.87229 0.50132 0.0
C199 C 0.76456 0.90577 0.53541 0.0
C200 C 0.82786 0.91033 0.53794 0.0
O201 O 0.78476 0.86532 0.51478 0.0
O202 O 0.79933 0.88829 0.5053 0.0
O203 O 0.81406 0.91586 0.53185 0.0
O204 O 0.82464 0.89529 0.54393 0.0
C205 C 0.79112 0.87354 0.56712 0.0
O206 O 0.77926 0.91315 0.54469 0.0
O207 O 0.765 0.89124 0.52585 0.0
In208 In 0.9191 0.01598 0.26039 0.0
O209 O 0.9438 0.02723 0.24652 0.0
O210 O 0.92238 0.01007 0.22936 0.0
C211 C 0.93728 0.01765 0.29481 0.0
C212 C 0.90329 0.04516 0.25995 0.0
C213 C 0.90076 0.98182 0.25858 0.0
O214 O 0.94503 0.02172 0.28069 0.0
O215 O 0.92056 0.01283 0.29152 0.0
O216 O 0.89314 0.99519 0.25926 0.0
O217 O 0.91743 0.98566 0.2582 0.0
C218 C 0.93748 0.02 0.23024 0.0
O219 O 0.90015 0.03267 0.24673 0.0
O220 O 0.91341 0.04243 0.2737 0.0
In221 In 0.26362 0.62965 0.54539 0.0
O222 O 0.27856 0.60722 0.54335 0.0
O223 O 0.29257 0.63453 0.54778 0.0
C224 C 0.23023 0.61583 0.54175 0.0
C225 C 0.26941 0.64493 0.57949 0.0
C226 C 0.26229 0.64436 0.51428 0.0
O227 O 0.24171 0.6058 0.54224 0.0
O228 O 0.23588 0.63242 0.54374 0.0
O229 O 0.26001 0.65237 0.52968 0.0
O230 O 0.26554 0.62882 0.51453 0.0
C231 C 0.29327 0.61818 0.54578 0.0
O232 O 0.27411 0.65293 0.56583 0.0
O233 O 0.2613 0.62897 0.57605 0.0
In234 In 0.41935 0.51556 0.7601 0.0
O235 O 0.3961 0.53038 0.75414 0.0
O236 O 0.42098 0.54576 0.76632 0.0
C237 C 0.4008 0.48136 0.75847 0.0
C238 C 0.43599 0.51826 0.72848 0.0
C239 C 0.43721 0.51833 0.79504 0.0
O240 O 0.39364 0.49489 0.76085 0.0
O241 O 0.41711 0.48501 0.75627 0.0
O242 O 0.44501 0.519 0.78044 0.0
O243 O 0.42046 0.51662 0.79207 0.0
C244 C 0.40503 0.5457 0.76006 0.0
O245 O 0.44423 0.51828 0.74447 0.0
O246 O 0.41928 0.51633 0.72827 0.0
In247 In 0.67952 0.04519 0.74998 0.0
O248 O 0.70199 0.03019 0.74989 0.0
O249 O 0.67495 0.01626 0.74963 0.0
C250 C 0.69367 0.07864 0.75399 0.0
C251 C 0.66386 0.04363 0.71609 0.0
C252 C 0.66462 0.04345 0.78105 0.0
O253 O 0.70358 0.06705 0.75438 0.0
O254 O 0.67709 0.07304 0.7511 0.0
O255 O 0.65625 0.03718 0.76524 0.0
O256 O 0.68083 0.05051 0.7813 0.0
C257 C 0.69125 0.01556 0.74971 0.0
O258 O 0.65636 0.04719 0.73037 0.0
O259 O 0.67942 0.04041 0.71879 0.0
In260 In 0.76856 0.6756 0.01084 0.0
O261 O 0.78088 0.65094 0.01026 0.0
O262 O 0.79878 0.67588 0.01428 0.0
C263 C 0.73522 0.6554 0.00631 0.0
C264 C 0.77289 0.69086 0.04765 0.0
C265 C 0.76955 0.68926 0.97683 0.0
O266 O 0.74916 0.64911 0.00469 0.0
O267 O 0.73792 0.67218 0.01018 0.0
O268 O 0.76795 0.69867 0.99175 0.0
O269 O 0.77078 0.67348 0.97924 0.0
C270 C 0.79684 0.65908 0.01271 0.0
O271 O 0.776 0.70002 0.03422 0.0
O272 O 0.76741 0.67449 0.04241 0.0
In273 In 0.89165 0.51881 0.79693 0.0
O274 O 0.86663 0.52941 0.79345 0.0
O275 O 0.89153 0.54781 0.80004 0.0
C276 C 0.8768 0.4859 0.79698 0.0
C277 C 0.903 0.52017 0.76396 0.0
C278 C 0.90811 0.5213 0.83062 0.0
O279 O 0.86834 0.49846 0.79962 0.0
O280 O 0.89283 0.48996 0.79371 0.0
O281 O 0.91669 0.52183 0.81653 0.0
O282 O 0.8915 0.52006 0.82758 0.0
C283 C 0.87479 0.54535 0.79661 0.0
O284 O 0.91216 0.52872 0.77855 0.0
O285 O 0.88837 0.51061 0.76614 0.0
In286 In 0.78983 0.41733 0.49765 0.0
O287 O 0.78756 0.39538 0.51598 0.0
O288 O 0.79338 0.42246 0.52892 0.0
C289 C 0.78686 0.401 0.46361 0.0
C290 C 0.76113 0.43103 0.49692 0.0
C291 C 0.82267 0.43362 0.50044 0.0
O292 O 0.78698 0.3925 0.47774 0.0
O293 O 0.78763 0.41754 0.46678 0.0
O294 O 0.81007 0.44216 0.5005 0.0
O295 O 0.81877 0.41687 0.49911 0.0
C296 C 0.79087 0.40606 0.5309 0.0
O297 O 0.77581 0.43992 0.49388 0.0
O298 O 0.76088 0.41511 0.50013 0.0
In299 In 0.63321 0.54063 0.28533 0.0
O300 O 0.65829 0.52889 0.28487 0.0
O301 O 0.63359 0.51073 0.28232 0.0
C302 C 0.65383 0.5735 0.29015 0.0
C303 C 0.61768 0.53697 0.24861 0.0
C304 C 0.61947 0.54029 0.31921 0.0
O305 O 0.66011 0.55934 0.29025 0.0
O306 O 0.63694 0.57115 0.28768 0.0
O307 O 0.61001 0.54147 0.30416 0.0
O308 O 0.63533 0.53924 0.31699 0.0
C309 C 0.65036 0.51288 0.28312 0.0
O310 O 0.61107 0.52769 0.26069 0.0
O311 O 0.63132 0.54835 0.25524 0.0
C312 C 1.00266 0.99147 0.00265 0.0
C313 C 0.98371 0.97669 0.02382 0.0
C314 C 0.99545 0.99172 0.01956 0.0
C315 C 0.97982 0.96112 0.01112 0.0
C316 C 0.99792 0.97618 0.98941 0.0
C317 C 0.98684 0.96089 0.99391 0.0
N318 N 0.01301 0.00665 0.99854 0.0
C319 C 0.01776 0.00775 0.98086 0.0
C320 C 1.00372 0.97696 0.97169 0.0
C321 C 0.01344 0.9929 0.96732 0.0
Gd322 Gd 0.06599 0.04815 0.04734 0.0
Gd323 Gd 0.01783 0.03114 0.02202 0.0
N324 N 0.99906 0.00708 0.03136 0.0
C325 C 0.97564 0.97805 0.04037 0.0
C326 C 0.98995 0.00903 0.04645 0.0
C327 C 0.97853 0.99441 0.05157 0.0
H328 H 0.99141 0.02194 0.05441 0.0
H329 H 0.97174 0.99587 0.06393 0.0
H330 H 0.08262 0.06135 0.00804 0.0
H331 H 0.0242 0.02018 0.97672 0.0
H332 H 0.0987 0.0886 0.99786 0.0
H333 H 0.96659 0.96679 0.04419 0.0
H334 H 0.97089 0.94942 0.01418 0.0
H335 H 0.05936 0.05892 0.09227 0.0
H336 H 1.00016 0.96558 0.96104 0.0
H337 H 0.01728 0.99389 0.95337 0.0
H338 H 0.10838 0.13103 0.05259 0.0
H339 H 0.98317 0.94899 0.98395 0.0
H340 H 0.08513 0.11297 0.10822 0.0
H341 H 0.06796 0.08481 0.11613 0.0
N342 N 0.06951 0.07271 0.07019 0.0
C343 C 0.07933 0.08797 0.06559 0.0
C344 C 0.06563 0.07144 0.08814 0.0
C345 C 0.08073 0.10182 0.0974 0.0
C346 C 0.07095 0.08599 0.10191 0.0
C347 C 0.08514 0.10295 0.07914 0.0
H348 H 0.10031 0.12992 0.08458 0.0
N349 N 0.07931 0.07359 0.03474 0.0
C350 C 0.08419 0.08849 0.04742 0.0
C351 C 0.09944 0.10423 0.0244 0.0
C352 C 0.09457 0.10413 0.04256 0.0
C353 C 0.08484 0.07343 0.01736 0.0
C354 C 0.09454 0.08881 0.01176 0.0
O355 O 0.02839 0.00984 0.03831 0.0
O356 O 0.05925 0.01741 0.04272 0.0
O357 O 0.09442 0.04983 0.04669 0.0
O358 O 0.08261 0.04499 0.07227 0.0
O359 O 0.02092 0.04523 0.05158 0.0
O360 O 0.04577 0.03714 0.06588 0.0
O361 O 0.04828 0.06917 0.04169 0.0
O362 O 0.03262 0.05705 0.0137 0.0
O363 O 0.99726 0.04634 0.02841 0.0
O364 O 0.99578 0.03058 0.00095 0.0
O365 O 0.0655 0.03392 0.01796 0.0
O366 O 0.0392 0.03907 0.00337 0.0
C367 C 0.04426 0.00562 0.04245 0.0
C368 C 0.02994 0.04121 0.06644 0.0
C369 C 0.11104 0.0379 0.07031 0.0
C370 C 0.13451 0.0219 0.06364 0.0
C371 C 0.13025 0.03022 0.0958 0.0
C372 C 0.11609 0.03816 0.08957 0.0
C373 C 0.13947 0.02206 0.08286 0.0
C374 C 0.12039 0.02982 0.05731 0.0
C375 C 0.0972 0.04765 0.06434 0.0
C376 C 0.1002 0.11902 0.05605 0.0
C377 C 0.09559 0.1184 0.07428 0.0
H378 H 0.10737 0.116 0.02014 0.0
C379 C 0.03938 0.07114 0.02567 0.0
C380 C 0.05496 0.03478 0.00266 0.0
C381 C 0.97203 0.04666 0.00538 0.0
C382 C 0.94768 0.0614 0.01195 0.0
C383 C 0.9499 0.04968 0.9801 0.0
C384 C 0.96537 0.04372 0.98629 0.0
C385 C 0.94109 0.0586 0.99288 0.0
C386 C 0.96302 0.05534 0.01823 0.0
C387 C 0.98861 0.04115 0.01176 0.0
H388 H 0.13417 0.03053 0.11065 0.0
H389 H 0.10924 0.04475 0.0998 0.0
H390 H 0.15054 0.01601 0.08778 0.0
H391 H 0.11682 0.0297 0.04238 0.0
H392 H 0.9448 0.04745 0.9654 0.0
H393 H 0.97219 0.03701 0.97614 0.0
H394 H 0.92906 0.06317 0.98796 0.0
H395 H 0.96798 0.05758 0.03302 0.0
C396 C 0.2961 0.75708 0.23859 0.0
C397 C 0.27039 0.74131 0.21764 0.0
C398 C 0.27863 0.75591 0.2309 0.0
C399 C 0.27997 0.72799 0.21239 0.0
C400 C 0.30585 0.74383 0.23324 0.0
C401 C 0.29767 0.72927 0.22013 0.0
N402 N 0.30341 0.77091 0.25178 0.0
C403 C 0.32055 0.77263 0.25984 0.0
C404 C 0.32344 0.74547 0.24147 0.0
C405 C 0.33085 0.76 0.25476 0.0
Gd406 Gd 0.25662 0.7895 0.31069 0.0
Gd407 Gd 0.28497 0.79042 0.26148 0.0
N408 N 0.26959 0.7688 0.23671 0.0
C409 C 0.2527 0.74039 0.21021 0.0
C410 C 0.25261 0.76837 0.22858 0.0
C411 C 0.24384 0.75406 0.21562 0.0
H412 H 0.24557 0.77894 0.23165 0.0
H413 H 0.2302 0.75362 0.20978 0.0
H414 H 0.29571 0.80249 0.33979 0.0
H415 H 0.32626 0.78371 0.27032 0.0
H416 H 0.30909 0.82651 0.36437 0.0
H417 H 0.24584 0.72932 0.20016 0.0
H418 H 0.2738 0.71663 0.20235 0.0
H419 H 0.21558 0.79702 0.29832 0.0
H420 H 0.33137 0.73558 0.23774 0.0
H421 H 0.34443 0.76138 0.26124 0.0
H422 H 0.26287 0.86009 0.37323 0.0
H423 H 0.3049 0.71888 0.21596 0.0
H424 H 0.20783 0.84275 0.33304 0.0
H425 H 0.19672 0.81861 0.30718 0.0
N426 N 0.23733 0.80887 0.31884 0.0
C427 C 0.2435 0.82172 0.33348 0.0
C428 C 0.22068 0.80755 0.30955 0.0
C429 C 0.21616 0.83324 0.3293 0.0
C430 C 0.20988 0.81969 0.31463 0.0
C431 C 0.23316 0.83443 0.33891 0.0
H432 H 0.2325 0.85803 0.3577 0.0
N433 N 0.27072 0.81102 0.33591 0.0
C434 C 0.26066 0.82282 0.34234 0.0
C435 C 0.28553 0.83812 0.36457 0.0
C436 C 0.2679 0.83679 0.35666 0.0
C437 C 0.28779 0.81204 0.34403 0.0
C438 C 0.29547 0.82565 0.35827 0.0
O439 O 0.27896 0.76398 0.27145 0.0
O440 O 0.2554 0.77182 0.28377 0.0
O441 O 0.25755 0.77036 0.33079 0.0
O442 O 0.23208 0.77472 0.31801 0.0
O443 O 0.25731 0.79828 0.25828 0.0
O444 O 0.23976 0.78853 0.28194 0.0
O445 O 0.26613 0.81769 0.30649 0.0
O446 O 0.27591 0.80062 0.28663 0.0
O447 O 0.28322 0.8111 0.24355 0.0
O448 O 0.30908 0.80811 0.25652 0.0
O449 O 0.28515 0.78201 0.31305 0.0
O450 O 0.30259 0.79308 0.28972 0.0
C451 C 0.26556 0.76011 0.28105 0.0
C452 C 0.24184 0.795 0.26553 0.0
C453 C 0.23235 0.76427 0.34772 0.0
C454 C 0.23459 0.75327 0.37803 0.0
C455 C 0.20583 0.757 0.36338 0.0
C456 C 0.21386 0.76292 0.34803 0.0
C457 C 0.21608 0.75195 0.37823 0.0
C458 C 0.24268 0.75997 0.36301 0.0
C459 C 0.24021 0.76671 0.33027 0.0
C460 C 0.25751 0.84927 0.36228 0.0
C461 C 0.24022 0.84811 0.35341 0.0
H462 H 0.29162 0.84875 0.37547 0.0
C463 C 0.27513 0.81668 0.29271 0.0
C464 C 0.3008 0.78638 0.30604 0.0
C465 C 0.30696 0.8166 0.22572 0.0
C466 C 0.30449 0.82713 0.19517 0.0
C467 C 0.32622 0.80871 0.20275 0.0
C468 C 0.32061 0.80774 0.22051 0.0
C469 C 0.31826 0.81845 0.19012 0.0
C470 C 0.29883 0.82616 0.21289 0.0
C471 C 0.30045 0.81567 0.24409 0.0
H472 H 0.19153 0.75557 0.36338 0.0
H473 H 0.2055 0.76573 0.33614 0.0
H474 H 0.20939 0.74626 0.3894 0.0
H475 H 0.25691 0.76076 0.36272 0.0
H476 H 0.33679 0.80196 0.19878 0.0
H477 H 0.32692 0.80006 0.23008 0.0
H478 H 0.32283 0.81926 0.17644 0.0
H479 H 0.28827 0.83304 0.21675 0.0
C480 C 0.56283 0.0594 0.50754 0.0
C481 C 0.5842 0.07744 0.5322 0.0
C482 C 0.57098 0.06221 0.52601 0.0
C483 C 0.58906 0.08991 0.51972 0.0
C484 C 0.56803 0.07176 0.49492 0.0
C485 C 0.58102 0.08707 0.50115 0.0
N486 N 0.55044 0.04432 0.50173 0.0
C487 C 0.54369 0.04031 0.48327 0.0
C488 C 0.56037 0.06816 0.47624 0.0
C489 C 0.54829 0.0523 0.47037 0.0
Gd490 Gd 0.4953 0.01996 0.5453 0.0
Gd491 Gd 0.54525 0.02497 0.52472 0.0
N492 N 0.56604 0.04998 0.53791 0.0
C493 C 0.59238 0.07952 0.55069 0.0
C494 C 0.5745 0.05145 0.55561 0.0
C495 C 0.58761 0.06639 0.5624 0.0
H496 H 0.57127 0.041 0.56436 0.0
H497 H 0.59417 0.06768 0.57655 0.0
H498 H 0.47072 1.00267 0.50493 0.0
H499 H 0.53519 0.02767 0.47813 0.0
H500 H 0.44971 0.97481 0.49234 0.0
H501 H 0.60262 0.09104 0.55596 0.0
H502 H 0.59921 0.10169 0.52422 0.0
H503 H 0.50767 0.01628 0.5916 0.0
H504 H 0.56406 0.07731 0.46612 0.0
H505 H 0.54277 0.04912 0.45582 0.0
H506 H 0.44538 0.94111 0.54484 0.0
H507 H 0.58514 0.09669 0.49163 0.0
H508 H 0.48038 0.96574 0.60284 0.0
H509 H 0.50118 0.99416 0.61338 0.0
N510 N 0.49236 0.99986 0.56785 0.0
C511 C 0.48028 0.98451 0.56187 0.0
C512 C 0.49946 1.00356 0.58623 0.0
C513 C 0.48362 0.97518 0.59289 0.0
C514 C 0.49546 0.99117 0.59888 0.0
C515 C 0.4757 0.97176 0.5743 0.0
H516 H 0.45945 0.9463 0.5774 0.0
N517 N 0.47655 0.99393 0.53134 0.0
C518 C 0.47203 0.98158 0.54331 0.0
C519 C 0.45158 0.96335 0.51839 0.0
C520 C 0.45946 0.96586 0.53701 0.0
C521 C 0.46824 0.99202 0.51354 0.0
C522 C 0.45597 0.9765 0.50663 0.0
O523 O 0.53878 0.05148 0.5385 0.0
O524 O 0.50968 0.04907 0.54724 0.0
O525 O 0.47024 0.02856 0.53647 0.0
O526 O 0.47788 0.02564 0.56557 0.0
O527 O 0.53474 0.01365 0.54938 0.0
O528 O 0.51877 0.02963 0.56634 0.0
O529 O 0.5044 0.99402 0.53383 0.0
O530 O 0.52668 0.99879 0.51394 0.0
O531 O 0.56703 0.01081 0.53508 0.0
O532 O 0.56245 0.01645 0.50609 0.0
O533 O 0.50238 0.03243 0.51968 0.0
O534 O 0.52121 0.01822 0.50384 0.0
C535 C 0.52545 0.05853 0.54485 0.0
C536 C 0.53349 0.02378 0.56445 0.0
C537 C 0.45643 0.04383 0.56031 0.0
C538 C 0.43404 0.06226 0.55501 0.0
C539 C 0.44633 0.05997 0.58667 0.0
C540 C 0.45705 0.04859 0.57974 0.0
C541 C 0.43487 0.06678 0.57439 0.0
C542 C 0.44473 0.0507 0.54791 0.0
C543 C 0.46593 0.02975 0.55356 0.0
C544 C 0.45508 0.95321 0.54943 0.0
C545 C 0.46313 0.95616 0.56798 0.0
H546 H 0.4419 0.95143 0.51303 0.0
C547 C 0.51449 0.98817 0.52151 0.0
C548 C 0.50606 0.02357 0.50475 0.0
C549 C 0.58671 1.0011 0.51149 0.0
C550 C 0.61065 0.98364 0.51452 0.0
C551 C 0.60282 0.99453 0.48493 0.0
C552 C 0.58973 1.00224 0.49264 0.0
C553 C 0.61322 0.9854 0.49574 0.0
C554 C 0.59742 0.99175 0.52261 0.0
C555 C 0.57189 0.00941 0.51818 0.0
H556 H 0.44674 0.06334 0.60163 0.0
H557 H 0.46546 0.04314 0.58972 0.0
H558 H 0.42652 0.07554 0.58002 0.0
H559 H 0.44371 0.04688 0.53294 0.0
H560 H 0.60487 0.99559 0.47043 0.0
H561 H 0.5819 0.00913 0.48355 0.0
H562 H 0.62335 0.97954 0.48929 0.0
H563 H 0.59524 0.99044 0.53705 0.0
C564 C 0.24244 0.29202 0.74037 0.0
C565 C 0.22457 0.26522 0.72268 0.0
C566 C 0.2366 0.27364 0.73832 0.0
C567 C 0.21878 0.27547 0.70904 0.0
C568 C 0.2366 0.30235 0.72671 0.0
C569 C 0.22487 0.29395 0.71099 0.0
N570 N 0.25359 0.29985 0.75585 0.0
C571 C 0.2586 0.31794 0.75902 0.0
C572 C 0.24256 0.32085 0.72939 0.0
C573 C 0.25348 0.32869 0.74572 0.0
Gd574 Gd 0.30978 0.26424 0.7824 0.0
Gd575 Gd 0.26151 0.28063 0.77715 0.0
N576 N 0.2431 0.26393 0.7513 0.0
C577 C 0.21901 0.24669 0.72103 0.0
C578 C 0.23747 0.24594 0.74991 0.0
C579 C 0.22546 0.23702 0.73473 0.0
H580 H 0.24217 0.23842 0.76041 0.0
H581 H 0.22117 0.2227 0.73364 0.0
H582 H 0.33003 0.30648 0.79796 0.0
H583 H 0.2658 0.32405 0.77221 0.0
H584 H 0.34981 0.3229 0.82526 0.0
H585 H 0.2098 0.23972 0.70922 0.0
H586 H 0.20967 0.2692 0.69686 0.0
H587 H 0.30538 0.2212 0.78899 0.0
H588 H 0.23845 0.32923 0.71917 0.0
H589 H 0.25764 0.34304 0.74826 0.0
H590 H 0.36029 0.27744 0.86395 0.0
H591 H 0.22029 0.30167 0.70033 0.0
H592 H 0.33165 0.21725 0.84293 0.0
H593 H 0.31315 0.20282 0.81367 0.0
N594 N 0.31713 0.24574 0.80496 0.0
C595 C 0.32779 0.25388 0.82062 0.0
C596 C 0.31222 0.22762 0.80223 0.0
C597 C 0.32764 0.22537 0.8324 0.0
C598 C 0.31713 0.21719 0.81597 0.0
C599 C 0.33338 0.24389 0.83476 0.0
H600 H 0.34945 0.24513 0.86141 0.0
N601 N 0.32789 0.28143 0.80838 0.0
C602 C 0.33354 0.27221 0.82229 0.0
C603 C 0.35091 0.29945 0.83919 0.0
C604 C 0.34518 0.28098 0.83806 0.0
C605 C 0.33385 0.29934 0.80921 0.0
C606 C 0.34524 0.30865 0.82467 0.0
O607 O 0.27183 0.27093 0.74969 0.0
O608 O 0.29053 0.25147 0.75719 0.0
O609 O 0.33292 0.27291 0.76642 0.0
O610 O 0.32649 0.24608 0.77447 0.0
O611 O 0.26445 0.25613 0.79144 0.0
O612 O 0.28522 0.24208 0.77807 0.0
O613 O 0.29781 0.27228 0.80903 0.0
O614 O 0.28225 0.29403 0.80077 0.0
O615 O 0.24063 0.27117 0.79557 0.0
O616 O 0.24199 0.29631 0.78412 0.0
O617 O 0.30833 0.28977 0.76884 0.0
O618 O 0.28603 0.30303 0.78066 0.0
C619 C 0.28175 0.25911 0.74476 0.0
C620 C 0.27015 0.24159 0.78566 0.0
C621 C 0.35121 0.25029 0.75634 0.0
C622 C 0.37804 0.25376 0.73984 0.0
C623 C 0.36362 0.22437 0.746 0.0
C624 C 0.3509 0.23177 0.75481 0.0
C625 C 0.37703 0.23519 0.73858 0.0
C626 C 0.36486 0.26138 0.7486 0.0
C627 C 0.33693 0.25703 0.766 0.0
C628 C 0.35094 0.27105 0.85203 0.0
C629 C 0.34488 0.2526 0.85051 0.0
H630 H 0.35985 0.30667 0.85107 0.0
C631 C 0.29012 0.28595 0.81346 0.0
C632 C 0.30143 0.30399 0.77346 0.0
C633 C 0.22104 0.29199 0.80684 0.0
C634 C 0.19453 0.28822 0.8244 0.0
C635 C 0.20945 0.31779 0.8194 0.0
C636 C 0.22188 0.31056 0.80978 0.0
C637 C 0.19596 0.30679 0.82659 0.0
C638 C 0.20714 0.28069 0.81434 0.0
C639 C 0.23325 0.28511 0.79386 0.0
H640 H 0.36308 0.2101 0.7449 0.0
H641 H 0.34068 0.22279 0.76037 0.0
H642 H 0.38663 0.22893 0.73163 0.0
H643 H 0.36539 0.27565 0.74959 0.0
H644 H 0.21018 0.33209 0.82115 0.0
H645 H 0.23195 0.31968 0.80418 0.0
H646 H 0.18645 0.31286 0.83394 0.0
H647 H 0.20593 0.26634 0.81204 0.0
C648 C 0.01746 0.06578 0.55563 0.0
C649 C 0.04447 0.0843 0.57232 0.0
C650 C 0.03572 0.07235 0.5568 0.0
C651 C 0.0347 0.08943 0.5867 0.0
C652 C 0.00764 0.07086 0.57009 0.0
C653 C 0.01636 0.08269 0.58562 0.0
N654 N 0.00935 0.05429 0.54049 0.0
C655 C 0.99143 0.04783 0.53863 0.0
C656 C 0.98933 0.0639 0.56853 0.0
C657 C 0.98119 0.05239 0.55269 0.0
Gd658 Gd 0.04474 0.99968 0.51485 0.0
Gd659 Gd 0.0279 0.04757 0.518 0.0
N660 N 0.04501 0.06656 0.54305 0.0
C661 C 0.06284 0.09061 0.573 0.0
C662 C 0.06275 0.0731 0.54332 0.0
C663 C 0.07198 0.08508 0.55836 0.0
H664 H 0.06975 0.06937 0.53187 0.0
H665 H 0.08612 0.09015 0.55858 0.0
H666 H 1.00373 0.97554 0.50238 0.0
H667 H 0.98488 0.03944 0.52618 0.0
H668 H 0.98709 0.95513 0.47561 0.0
H669 H 0.07004 0.09984 0.58466 0.0
H670 H 0.04121 0.09855 0.59877 0.0
H671 H 0.08764 0.00661 0.50663 0.0
H672 H 0.98134 0.06744 0.57937 0.0
H673 H 0.96699 0.04716 0.55122 0.0
H674 H 0.03069 0.94971 0.43296 0.0
H675 H 0.00902 0.08673 0.59687 0.0
H676 H 0.09069 0.98075 0.45217 0.0
H677 H 0.10532 0.99995 0.48094 0.0
N678 N 0.06309 0.99239 0.49212 0.0
C679 C 0.0549 0.98142 0.47665 0.0
C680 C 0.08103 0.99868 0.49395 0.0
C681 C 0.08283 0.98384 0.46331 0.0
C682 C 0.09112 0.99471 0.47951 0.0
C683 C 0.06453 0.97686 0.46181 0.0
H684 H 0.0628 0.96189 0.43444 0.0
N685 N 0.02787 0.9798 0.49009 0.0
C686 C 0.03678 0.97474 0.4757 0.0
C687 C 0.00967 0.95618 0.45991 0.0
C688 C 0.02784 0.96308 0.46003 0.0
C689 C 0.01039 0.97252 0.4904 0.0
C690 C 1.00099 0.96073 0.4753 0.0
O691 O 0.03645 0.03718 0.54598 0.0
O692 O 0.05739 0.02052 0.53871 0.0
O693 O 0.03583 0.977 0.53043 0.0
O694 O 0.06372 0.98515 0.52703 0.0
O695 O 0.05223 0.04427 0.50357 0.0
O696 O 0.06636 0.02449 0.51855 0.0
O697 O 0.03631 0.00997 0.48717 0.0
O698 O 0.01534 0.02732 0.49361 0.0
O699 O 0.03709 0.07022 0.50167 0.0
O700 O 0.01005 0.06467 0.50929 0.0
O701 O 0.01935 1.00245 0.52808 0.0
O702 O 0.00596 0.02286 0.51319 0.0
C703 C 0.0491 0.02832 0.55119 0.0
C704 C 0.0668 0.03879 0.50967 0.0
C705 C 0.05525 0.95557 0.53497 0.0
C706 C 0.0534 0.92888 0.55164 0.0
C707 C 0.07431 0.93403 0.52857 0.0
C708 C 0.06853 0.94977 0.52513 0.0
C709 C 0.06694 0.92376 0.54178 0.0
C710 C 0.04743 0.94483 0.54806 0.0
C711 C 0.05198 0.97405 0.53408 0.0
C712 C 0.03734 0.95859 0.44515 0.0
C713 C 0.05563 0.96551 0.44601 0.0
H714 H 1.00231 0.94712 0.44818 0.0
C715 C 0.02354 0.01854 0.4818 0.0
C716 C 1.00497 0.00805 0.52133 0.0
C717 C 0.01595 0.09014 0.49157 0.0
C718 C 0.02016 0.11593 0.47299 0.0
C719 C 0.9917 0.10609 0.48448 0.0
C720 C 0.99829 0.09258 0.49273 0.0
C721 C 1.00244 0.11759 0.47475 0.0
C722 C 0.02709 0.10209 0.48158 0.0
C723 C 0.02147 0.07484 0.5009 0.0
H724 H 0.08485 0.92995 0.52125 0.0
H725 H 0.07497 0.95774 0.51523 0.0
H726 H 0.07193 0.91174 0.54438 0.0
H727 H 0.03751 0.94931 0.55611 0.0
H728 H 0.97806 0.10763 0.48561 0.0
H729 H 0.9893 0.08395 0.50009 0.0
H730 H 0.99681 0.12795 0.46847 0.0
H731 H 0.04071 0.10054 0.48033 0.0
C732 C 0.24958 0.74513 0.78939 0.0
C733 C 0.23194 0.72397 0.76437 0.0
C734 C 0.24718 0.73702 0.77096 0.0
C735 C 0.21902 0.71928 0.77644 0.0
C736 C 0.23681 0.74014 0.80163 0.0
C737 C 0.22146 0.72732 0.79501 0.0
N738 N 0.26455 0.75758 0.79544 0.0
C739 C 0.26809 0.76461 0.8138 0.0
C740 C 0.23997 0.74798 0.82026 0.0
C741 C 0.25576 0.76012 0.8264 0.0
Gd742 Gd 0.28765 0.81197 0.75085 0.0
Gd743 Gd 0.2842 0.76348 0.77295 0.0
N744 N 0.25973 0.74206 0.75944 0.0
C745 C 0.23025 0.71588 0.74588 0.0
C746 C 0.25877 0.73349 0.74188 0.0
C747 C 0.24385 0.7205 0.73467 0.0
H748 H 0.2697 0.73638 0.73368 0.0
H749 H 0.24297 0.71389 0.72059 0.0
H750 H 0.30582 0.83598 0.79156 0.0
H751 H 0.2806 0.77329 0.81898 0.0
H752 H 0.33303 0.85799 0.80365 0.0
H753 H 0.21873 0.70577 0.74028 0.0
H754 H 0.20717 0.70929 0.77162 0.0
H755 H 0.29089 0.80032 0.70481 0.0
H756 H 0.23049 0.74445 0.83011 0.0
H757 H 0.25857 0.76585 0.84091 0.0
H758 H 0.36549 0.86414 0.75039 0.0
H759 H 0.21147 0.72337 0.80421 0.0
H760 H 0.34046 0.82921 0.69239 0.0
H761 H 0.31241 0.80759 0.68238 0.0
N762 N 0.30721 0.81646 0.728 0.0
C763 C 0.32239 0.82877 0.73374 0.0
C764 C 0.30341 0.80913 0.70973 0.0
C765 C 0.33124 0.82576 0.70251 0.0
C766 C 0.31545 0.81349 0.69682 0.0
C767 C 0.33482 0.83369 0.72109 0.0
H768 H 0.35995 0.85042 0.7177 0.0
N769 N 0.31352 0.8316 0.76444 0.0
C770 C 0.32555 0.83664 0.75234 0.0
C771 C 0.3439 0.85701 0.77724 0.0
C772 C 0.34116 0.84942 0.75852 0.0
C773 C 0.31587 0.8393 0.7825 0.0
C774 C 0.33117 0.85196 0.78925 0.0
O775 O 0.25692 0.77034 0.76174 0.0
O776 O 0.2595 0.79528 0.74508 0.0
O777 O 0.27796 0.83659 0.75969 0.0
O778 O 0.27844 0.82732 0.72999 0.0
O779 O 0.29486 0.77111 0.74669 0.0
O780 O 0.2785 0.78793 0.73074 0.0
O781 O 0.31402 0.8024 0.75961 0.0
O782 O 0.30966 0.78372 0.78303 0.0
O783 O 0.29894 0.74208 0.76375 0.0
O784 O 0.29337 0.74731 0.79271 0.0
O785 O 0.27547 0.80566 0.77689 0.0
O786 O 0.29085 0.78792 0.79305 0.0
C787 C 0.24987 0.78143 0.7514 0.0
C788 C 0.28459 0.77327 0.73203 0.0
C789 C 0.26764 0.85468 0.73581 0.0
C790 C 0.25082 0.87858 0.74019 0.0
C791 C 0.2613 0.87188 0.71019 0.0
C792 C 0.26895 0.85833 0.71721 0.0
C793 C 0.2522 0.88191 0.72158 0.0
C794 C 0.25868 0.86504 0.74743 0.0
C795 C 0.27465 0.83929 0.74219 0.0
C796 C 0.35347 0.85429 0.74589 0.0
C797 C 0.35032 0.84646 0.72726 0.0
H798 H 0.3557 0.86691 0.78249 0.0
C799 C 0.32015 0.7941 0.77346 0.0
C800 C 0.28412 0.80234 0.79217 0.0
C801 C 0.31019 0.724 0.78782 0.0
C802 C 0.32694 0.69973 0.78371 0.0
C803 C 0.32098 0.71037 0.81475 0.0
C804 C 0.31198 0.72277 0.80724 0.0
C805 C 0.3284 0.69893 0.80311 0.0
C806 C 0.31779 0.71234 0.77598 0.0
C807 C 0.30072 0.7379 0.78089 0.0
H808 H 0.26226 0.87447 0.69582 0.0
H809 H 0.27573 0.85057 0.70794 0.0
H810 H 0.24612 0.89225 0.71583 0.0
H811 H 0.25732 0.86226 0.76171 0.0
H812 H 0.32224 0.70965 0.8297 0.0
H813 H 0.30648 0.7315 0.81683 0.0
H814 H 0.33532 0.68935 0.80927 0.0
H815 H 0.31685 0.71328 0.7611 0.0
C816 C 0.55377 0.01248 0.05773 0.0
C817 C 0.57128 0.03842 0.07708 0.0
C818 C 0.55604 0.03031 0.06458 0.0
C819 C 0.58408 0.02831 0.08252 0.0
C820 C 0.56658 1.00226 0.06316 0.0
C821 C 0.58174 0.01027 0.07558 0.0
N822 N 0.53927 0.00524 0.04533 0.0
C823 C 0.53649 0.98777 0.03813 0.0
C824 C 0.5639 0.98434 0.0557 0.0
C825 C 0.54873 0.97704 0.04319 0.0
Gd826 Gd 0.52006 0.05255 0.98564 0.0
Gd827 Gd 0.52073 0.02442 0.03513 0.0
N828 N 0.54363 0.03983 0.05859 0.0
C829 C 0.57338 0.05651 0.08351 0.0
C830 C 0.54555 0.05745 0.06525 0.0
C831 C 0.56042 0.06603 0.07757 0.0
H832 H 0.53594 0.06528 0.06123 0.0
H833 H 0.56195 0.08007 0.08226 0.0
H834 H 0.50955 0.01462 0.95435 0.0
H835 H 0.52488 0.98212 0.02833 0.0
H836 H 0.48636 1.00122 0.92901 0.0
H837 H 0.58494 0.06327 0.09298 0.0
H838 H 0.59589 0.03435 0.09201 0.0
H839 H 0.51223 0.0936 0.99723 0.0
H840 H 0.57346 0.97605 0.05946 0.0
H841 H 0.54655 0.96321 0.03732 0.0
H842 H 0.45 0.04545 0.92209 0.0
H843 H 0.59178 1.00265 0.07981 0.0
H844 H 0.46573 0.10018 0.96293 0.0
H845 H 0.49004 0.11188 0.98852 0.0
N846 N 0.50047 0.07155 0.97713 0.0
C847 C 0.48764 0.06515 0.96253 0.0
C848 C 0.50159 0.08822 0.98622 0.0
C849 C 0.47548 0.09209 0.96668 0.0
C850 C 0.48913 0.0987 0.98118 0.0
C851 C 0.47462 0.07515 0.95711 0.0
H852 H 0.45088 0.07534 0.93828 0.0
N853 N 0.49945 0.03861 0.95954 0.0
C854 C 0.48715 0.04825 0.9534 0.0
C855 C 0.47327 0.02383 0.92994 0.0
C856 C 0.47356 0.04097 0.93867 0.0
C857 C 0.49948 0.02209 0.95055 0.0
C858 C 0.48635 0.01442 0.93584 0.0
O859 O 0.54729 0.03134 0.0249 0.0
O860 O 0.53683 0.05333 0.01262 0.0
O861 O 0.54124 0.05157 0.96816 0.0
O862 O 0.53439 0.07697 0.97741 0.0
O863 O 0.51252 0.05185 0.03863 0.0
O864 O 0.51982 0.0694 0.01418 0.0
O865 O 0.49207 0.04179 0.98934 0.0
O866 O 0.50915 0.03261 0.00984 0.0
O867 O 0.5016 0.02675 0.0549 0.0
O868 O 0.50152 1.00114 0.03913 0.0
O869 O 0.52696 0.02378 0.98272 0.0
O870 O 0.51863 0.00649 0.00721 0.0
C871 C 0.54936 0.04412 0.01426 0.0
C872 C 0.51441 0.0672 0.03108 0.0
C873 C 0.54188 0.07269 0.94668 0.0
C874 C 0.54958 0.06673 0.91539 0.0
C875 C 0.53364 0.09064 0.92248 0.0
C876 C 0.53383 0.08675 0.941 0.0
C877 C 0.54163 0.08073 0.90967 0.0
C878 C 0.54951 0.06263 0.93371 0.0
C879 C 0.54297 0.06846 0.96604 0.0
C880 C 0.46057 0.05089 0.9333 0.0
C881 C 0.46107 0.06791 0.94251 0.0
H882 H 0.46305 0.01778 0.91861 0.0
C883 C 0.49305 0.03309 0.00342 0.0
C884 C 0.52382 0.00823 0.99018 0.0
C885 C 0.48771 1.00085 0.06732 0.0
C886 C 0.47646 1.00184 0.09772 0.0
C887 C 0.47379 0.97351 0.07848 0.0
C888 C 0.48216 0.98224 0.0648 0.0
C889 C 0.47087 0.98321 0.09479 0.0
C890 C 0.4847 0.01069 0.08384 0.0
C891 C 0.4942 0.00994 0.05162 0.0
H892 H 0.5278 0.10169 0.9182 0.0
H893 H 0.52792 0.09485 0.95083 0.0
H894 H 0.54243 0.08451 0.89566 0.0
H895 H 0.55639 0.05224 0.93811 0.0
H896 H 0.46932 0.9592 0.07633 0.0
H897 H 0.48386 0.97444 0.052 0.0
H898 H 0.46404 0.97613 0.10508 0.0
H899 H 0.4886 0.0251 0.08587 0.0
C900 C 0.31675 0.31033 0.2955 0.0
C901 C 0.33274 0.32601 0.27271 0.0
C902 C 0.31753 0.31473 0.27735 0.0
C903 C 0.34722 0.33258 0.28648 0.0
C904 C 0.33115 0.31725 0.30945 0.0
C905 C 0.34641 0.32825 0.30481 0.0
N906 N 0.30169 0.29985 0.29965 0.0
C907 C 0.30006 0.29623 0.31766 0.0
C908 C 0.32965 0.31326 0.32779 0.0
C909 C 0.314 0.30279 0.33192 0.0
Gd910 Gd 0.26069 0.2438 0.24773 0.0
Gd911 Gd 0.27837 0.29141 0.27489 0.0
N912 N 0.30331 0.30821 0.26429 0.0
C913 C 0.33278 0.33066 0.25444 0.0
C914 C 0.30302 0.3134 0.24678 0.0
C915 C 0.31771 0.3245 0.24152 0.0
H916 H 0.29133 0.30954 0.23701 0.0
H917 H 0.31713 0.32863 0.22765 0.0
H918 H 0.24841 0.22062 0.28279 0.0
H919 H 0.28776 0.28894 0.32135 0.0
H920 H 0.22121 0.20342 0.29236 0.0
H921 H 0.34413 0.33937 0.25033 0.0
H922 H 0.35899 0.34125 0.28316 0.0
H923 H 0.25041 0.25031 0.20273 0.0
H924 H 0.34035 0.31846 0.33893 0.0
H925 H 0.31254 0.30001 0.34616 0.0
H926 H 0.17711 0.20092 0.24003 0.0
H927 H 0.35758 0.33367 0.31536 0.0
H928 H 0.1958 0.22683 0.1859 0.0
H929 H 0.22456 0.24335 0.17862 0.0
N930 N 0.23633 0.23941 0.22412 0.0
C931 C 0.22075 0.22989 0.22827 0.0
C932 C 0.23778 0.2441 0.20649 0.0
C933 C 0.20701 0.23039 0.19676 0.0
C934 C 0.22319 0.23977 0.19262 0.0
C935 C 0.20565 0.22521 0.2147 0.0
H936 H 0.17817 0.21132 0.20896 0.0
N937 N 0.23526 0.22769 0.25821 0.0
C938 C 0.22017 0.22395 0.24582 0.0
C939 C 0.2047 0.20644 0.26745 0.0
C940 C 0.20445 0.21329 0.25018 0.0
C941 C 0.23593 0.21974 0.27427 0.0
C942 C 0.22061 0.20945 0.27942 0.0
O943 O 0.3016 0.27885 0.2649 0.0
O944 O 0.28975 0.2542 0.24333 0.0
O945 O 0.26944 0.21915 0.25263 0.0
O946 O 0.26062 0.22417 0.22404 0.0
O947 O 0.26365 0.28883 0.24553 0.0
O948 O 0.27148 0.26468 0.22989 0.0
O949 O 0.23934 0.26044 0.25483 0.0
O950 O 0.25242 0.27605 0.28265 0.0
O951 O 0.2646 0.31275 0.26692 0.0
O952 O 0.27632 0.31241 0.29591 0.0
O953 O 0.27277 0.24367 0.27813 0.0
O954 O 0.27147 0.27078 0.29438 0.0
C955 C 0.30354 0.26594 0.2521 0.0
C956 C 0.26721 0.28045 0.23002 0.0
C957 C 0.27012 0.19619 0.2274 0.0
C958 C 0.28378 0.17085 0.23243 0.0
C959 C 0.27219 0.17477 0.20108 0.0
C960 C 0.26692 0.19039 0.20811 0.0
C961 C 0.28082 0.16507 0.2132 0.0
C962 C 0.27824 0.18616 0.23954 0.0
C963 C 0.26671 0.21345 0.23478 0.0
C964 C 0.18926 0.20912 0.23692 0.0
C965 C 0.18987 0.21503 0.21921 0.0
H966 H 0.19293 0.19817 0.2713 0.0
C967 C 0.23801 0.26943 0.271 0.0
C968 C 0.27334 0.2541 0.29392 0.0
C969 C 0.26085 0.3362 0.29071 0.0
C970 C 0.24856 0.36196 0.28397 0.0
C971 C 0.25334 0.35566 0.31605 0.0
C972 C 0.25997 0.3406 0.30992 0.0
C973 C 0.24768 0.36639 0.3031 0.0
C974 C 0.255 0.34687 0.27772 0.0
C975 C 0.26716 0.32014 0.28427 0.0
H976 H 0.26992 0.17039 0.18621 0.0
H977 H 0.26073 0.19808 0.19846 0.0
H978 H 0.2853 0.15321 0.20765 0.0
H979 H 0.28105 0.19062 0.25443 0.0
H980 H 0.25263 0.35902 0.33082 0.0
H981 H 0.26424 0.33233 0.32016 0.0
H982 H 0.24268 0.37818 0.30796 0.0
H983 H 0.25566 0.34362 0.26287 0.0
C984 C 0.51747 0.56355 0.05715 0.0
C985 C 0.54332 0.5835 0.07453 0.0
C986 C 0.53561 0.57096 0.05904 0.0
C987 C 0.53281 0.58792 0.08846 0.0
C988 C 0.50684 0.56835 0.07103 0.0
C989 C 0.51469 0.58022 0.08685 0.0
N990 N 0.50991 0.55313 0.04104 0.0
C991 C 0.49175 0.54835 0.03742 0.0
C992 C 0.48842 0.56196 0.06808 0.0
C993 C 0.48083 0.55211 0.05109 0.0
Gd994 Gd 0.54366 0.49864 0.0145 0.0
Gd995 Gd 0.52979 0.54823 0.01906 0.0
N996 N 0.54543 0.567 0.04504 0.0
C997 C 0.56115 0.59197 0.0751 0.0
C998 C 0.56236 0.57624 0.04482 0.0
C999 C 0.57064 0.58849 0.06005 0.0
H1000 H 0.5695 0.57384 0.03303 0.0
H1001 H 0.58425 0.59537 0.06008 0.0
H1002 H 0.50152 0.47752 0.99939 0.0
H1003 H 0.48549 0.54209 0.02382 0.0
H1004 H 0.48518 0.45858 0.97154 0.0
H1005 H 0.56751 0.60165 0.08678 0.0
H1006 H 0.53846 0.59781 0.1002 0.0
H1007 H 0.58705 0.50274 0.00851 0.0
H1008 H 0.47985 0.56532 0.07842 0.0
H1009 H 0.4665 0.5479 0.04827 0.0
H1010 H 0.5302 0.45128 0.93128 0.0
H1011 H 0.5067 0.58413 0.09754 0.0
H1012 H 0.59076 0.47811 0.95369 0.0
H1013 H 0.60531 0.49537 0.98356 0.0
N1014 N 0.56239 0.49145 0.99225 0.0
C1015 C 0.55417 0.48124 0.97629 0.0
C1016 C 0.58053 0.49599 0.99522 0.0
C1017 C 0.58266 0.4817 0.96442 0.0
C1018 C 0.59092 0.4915 0.98124 0.0
C1019 C 0.56411 0.47617 0.96189 0.0
H1020 H 0.56272 0.4615 0.93442 0.0
N1021 N 0.52655 0.48044 0.98867 0.0
C1022 C 0.53578 0.47544 0.97451 0.0
C1023 C 0.50849 0.45858 0.95717 0.0
C1024 C 0.52695 0.46451 0.95829 0.0
C1025 C 0.50866 0.47431 0.98785 0.0
C1026 C 0.49936 0.4634 0.97208 0.0
O1027 O 0.54903 0.54145 0.04269 0.0
O1028 O 0.5382 0.51192 0.04218 0.0
O1029 O 0.53575 0.47176 0.02215 0.0
O1030 O 0.56264 0.48657 0.03102 0.0
O1031 O 0.5529 0.54232 0.00406 0.0
O1032 O 0.56687 0.52252 0.01893 0.0
O1033 O 0.53564 0.5109 0.98779 0.0
O1034 O 0.51484 0.52822 0.99538 0.0
O1035 O 0.53719 0.56583 0.99718 0.0
O1036 O 0.51923 0.57229 0.01659 0.0
O1037 O 0.5177 0.50012 0.02631 0.0
O1038 O 0.50634 0.52426 0.01618 0.0
C1039 C 0.54751 0.52683 0.05107 0.0
C1040 C 0.5675 0.53758 0.01123 0.0
C1041 C 0.55705 0.45517 0.03466 0.0
C1042 C 0.5562 0.42883 0.05178 0.0
C1043 C 0.5781 0.43546 0.02988 0.0
C1044 C 0.57139 0.45064 0.02585 0.0
C1045 C 0.5707 0.42476 0.04281 0.0
C1046 C 0.54922 0.44401 0.0474 0.0
C1047 C 0.55096 0.47213 0.03202 0.0
C1048 C 0.53678 0.45967 0.94383 0.0
C1049 C 0.5553 0.4655 0.94561 0.0
H1050 H 0.50123 0.45008 0.945 0.0
C1051 C 0.52202 0.51869 0.98308 0.0
C1052 C 0.50433 0.5083 0.02234 0.0
C1053 C 0.51908 0.5882 0.9898 0.0
C1054 C 0.52042 0.61475 0.97252 0.0
C1055 C 0.492 0.5989 0.97988 0.0
C1056 C 0.50043 0.58658 0.98841 0.0
C1057 C 0.50181 0.6127 0.97191 0.0
C1058 C 0.52913 0.60239 0.9816 0.0
C1059 C 0.52786 0.57747 0.00291 0.0
H1060 H 0.58928 0.43211 0.02316 0.0
H1061 H 0.57759 0.45898 0.01611 0.0
H1062 H 0.57635 0.41321 0.04583 0.0
H1063 H 0.53826 0.44755 0.05443 0.0
H1064 H 0.47772 0.59788 0.97964 0.0
H1065 H 0.49235 0.57619 0.9947 0.0
H1066 H 0.49481 0.62205 0.96538 0.0
H1067 H 0.54356 0.6043 0.98308 0.0
C1068 C 0.75262 0.24407 0.29185 0.0
C1069 C 0.73122 0.22398 0.2687 0.0
C1070 C 0.74754 0.23611 0.2734 0.0
C1071 C 0.71982 0.2203 0.28246 0.0
C1072 C 0.74136 0.23982 0.30578 0.0
C1073 C 0.72483 0.22825 0.30091 0.0
N1074 N 0.76878 0.25518 0.29636 0.0
C1075 C 0.7753 0.26042 0.31474 0.0
C1076 C 0.74725 0.24687 0.32437 0.0
C1077 C 0.76444 0.25689 0.32891 0.0
Gd1078 Gd 0.78901 0.31512 0.25058 0.0
Gd1079 Gd 0.78423 0.26121 0.27036 0.0
N1080 N 0.75848 0.24019 0.26005 0.0
C1081 C 0.72679 0.21589 0.25023 0.0
C1082 C 0.75432 0.23225 0.24206 0.0
C1083 C 0.73849 0.21994 0.23695 0.0
H1084 H 0.7631 0.23562 0.23166 0.0
H1085 H 0.73531 0.2136 0.22279 0.0
H1086 H 0.80567 0.34069 0.29093 0.0
H1087 H 0.78891 0.26728 0.31865 0.0
H1088 H 0.83342 0.36117 0.30431 0.0
H1089 H 0.71443 0.20643 0.24609 0.0
H1090 H 0.70716 0.21117 0.27902 0.0
H1091 H 0.78911 0.31546 0.20277 0.0
H1092 H 0.73894 0.24401 0.33542 0.0
H1093 H 0.76944 0.26165 0.34337 0.0
H1094 H 0.86966 0.36379 0.25385 0.0
H1095 H 0.71599 0.22502 0.31143 0.0
H1096 H 0.84223 0.33735 0.1931 0.0
H1097 H 0.81135 0.32273 0.18096 0.0
N1098 N 0.80778 0.32361 0.22737 0.0
C1099 C 0.82417 0.33331 0.23423 0.0
C1100 C 0.80273 0.32121 0.2084 0.0
C1101 C 0.83264 0.33376 0.20282 0.0
C1102 C 0.81523 0.32553 0.19591 0.0
C1103 C 0.8371 0.33843 0.22211 0.0
H1104 H 0.86384 0.35271 0.22037 0.0
N1105 N 0.81444 0.33558 0.2644 0.0
C1106 C 0.82749 0.33965 0.25318 0.0
C1107 C 0.84603 0.35855 0.27908 0.0
C1108 C 0.84378 0.35107 0.26036 0.0
C1109 C 0.8163 0.34342 0.28243 0.0
C1110 C 0.83207 0.35498 0.29003 0.0
O1111 O 0.75751 0.26776 0.25686 0.0
O1112 O 0.7609 0.29698 0.24783 0.0
O1113 O 0.7808 0.34005 0.2608 0.0
O1114 O 0.77033 0.32578 0.23331 0.0
O1115 O 0.78736 0.27904 0.24852 0.0
O1116 O 0.78894 0.29539 0.22613 0.0
O1117 O 0.8131 0.3076 0.26837 0.0
O1118 O 0.80996 0.27694 0.26147 0.0
O1119 O 0.79031 0.23522 0.26062 0.0
O1120 O 0.8069 0.25235 0.28367 0.0
O1121 O 0.77742 0.30148 0.27426 0.0
O1122 O 0.78995 0.28391 0.29281 0.0
C1123 C 0.75095 0.28123 0.24994 0.0
C1124 C 0.78818 0.27962 0.23071 0.0
C1125 C 0.76686 0.35564 0.23775 0.0
C1126 C 0.75107 0.38027 0.24009 0.0
C1127 C 0.76146 0.37132 0.21067 0.0
C1128 C 0.7686 0.35796 0.21886 0.0
C1129 C 0.7526 0.3824 0.22122 0.0
C1130 C 0.75827 0.36701 0.24836 0.0
C1131 C 0.77015 0.33939 0.24542 0.0
C1132 C 0.85703 0.3552 0.24852 0.0
C1133 C 0.85372 0.34885 0.22946 0.0
H1134 H 0.85826 0.36749 0.28505 0.0
C1135 C 0.8195 0.29255 0.26926 0.0
C1136 C 0.78612 0.29951 0.2902 0.0
C1137 C 0.8073 0.22176 0.28271 0.0
C1138 C 0.82292 0.19675 0.28519 0.0
C1139 C 0.80731 0.20682 0.31081 0.0
C1140 C 0.80213 0.21999 0.30065 0.0
C1141 C 0.81766 0.19533 0.30321 0.0
C1142 C 0.81751 0.20998 0.27491 0.0
C1143 C 0.80421 0.23716 0.27306 0.0
H1144 H 0.76239 0.3728 0.19602 0.0
H1145 H 0.77478 0.34902 0.21022 0.0
H1146 H 0.74673 0.39247 0.21465 0.0
H1147 H 0.75638 0.36498 0.26275 0.0
H1148 H 0.80346 0.20564 0.32473 0.0
H1149 H 0.79448 0.22907 0.30698 0.0
H1150 H 0.82144 0.18519 0.31141 0.0
H1151 H 0.82183 0.21158 0.26121 0.0
C1152 C 0.05396 0.51368 0.55662 0.0
C1153 C 0.07032 0.53966 0.57678 0.0
C1154 C 0.05529 0.53122 0.56419 0.0
C1155 C 0.08418 0.5304 0.58104 0.0
C1156 C 0.06767 0.50421 0.56108 0.0
C1157 C 0.08285 0.5127 0.57323 0.0
N1158 N 0.03952 0.50614 0.54421 0.0
C1159 C 0.0376 0.48895 0.53628 0.0
C1160 C 0.06584 0.48658 0.55292 0.0
C1161 C 0.05067 0.47888 0.54057 0.0
Gd1162 Gd 0.02125 0.55328 0.48664 0.0
Gd1163 Gd 0.01956 0.5245 0.53511 0.0
N1164 N 0.04182 0.53993 0.55933 0.0
C1165 C 0.07086 0.55706 0.58492 0.0
C1166 C 0.04157 0.55621 0.56878 0.0
C1167 C 0.05621 0.56519 0.58124 0.0
H1168 H 0.03004 0.56232 0.56738 0.0
H1169 H 0.05607 0.5783 0.58821 0.0
H1170 H 0.01307 0.51663 0.45279 0.0
H1171 H 0.02608 0.48305 0.52641 0.0
H1172 H 0.98856 0.50148 0.42958 0.0
H1173 H 0.08219 0.56404 0.59458 0.0
H1174 H 0.0959 0.53674 0.59051 0.0
H1175 H 0.0123 0.5935 0.49811 0.0
H1176 H 0.07607 0.47883 0.55599 0.0
H1177 H 0.04915 0.46529 0.53417 0.0
H1178 H 0.94804 0.54226 0.42654 0.0
H1179 H 0.09361 0.5057 0.57669 0.0
H1180 H 0.96411 0.59824 0.46534 0.0
H1181 H 0.9892 0.61105 0.48978 0.0
N1182 N 1.00071 0.57128 0.47815 0.0
C1183 C 0.98736 0.56421 0.46428 0.0
C1184 C 1.00156 0.58792 0.48719 0.0
C1185 C 0.97438 0.59061 0.4687 0.0
C1186 C 0.98849 0.59787 0.48254 0.0
C1187 C 0.97362 0.57355 0.45945 0.0
H1188 H 0.94865 0.57236 0.44209 0.0
N1189 N 1.00044 0.53847 0.46089 0.0
C1190 C 0.98704 0.54719 0.45564 0.0
C1191 C 0.97323 0.52228 0.43275 0.0
C1192 C 0.97293 0.53918 0.4417 0.0
C1193 C 1.00154 0.52272 0.45082 0.0
C1194 C 0.98779 0.5142 0.43705 0.0
O1195 O 0.04611 0.52811 0.52493 0.0
O1196 O 0.03619 0.54989 0.51315 0.0
O1197 O 0.04281 0.55328 0.46955 0.0
O1198 O 0.03541 0.57822 0.47921 0.0
O1199 O 0.01358 0.55322 0.53863 0.0
O1200 O 0.02504 0.57038 0.51545 0.0
O1201 O 0.99436 0.54989 0.49591 0.0
O1202 O 0.00519 0.52936 0.50885 0.0
O1203 O 1.00081 0.52647 0.55512 0.0
O1204 O 1.00237 0.50055 0.54136 0.0
O1205 O 0.02622 0.52382 0.48295 0.0
O1206 O 0.01638 0.50656 0.5069 0.0
C1207 C 0.04887 0.54092 0.51467 0.0
C1208 C 0.01776 0.56865 0.53144 0.0
C1209 C 0.04409 0.57507 0.44884 0.0
C1210 C 0.05284 0.56984 0.41793 0.0
C1211 C 0.03671 0.59361 0.42487 0.0
C1212 C 0.03626 0.58928 0.44322 0.0
C1213 C 0.04506 0.58393 0.4122 0.0
C1214 C 0.05223 0.56538 0.43605 0.0
C1215 C 0.04447 0.57025 0.46796 0.0
C1216 C 0.95905 0.54831 0.43705 0.0
C1217 C 0.95943 0.56547 0.44585 0.0
H1218 H 0.96259 0.51563 0.42208 0.0
C1219 C 0.99221 0.53802 0.50723 0.0
C1220 C 0.02252 0.50828 0.49028 0.0
C1221 C 0.9938 0.50239 0.57217 0.0
C1222 C 0.9816 0.5041 0.60181 0.0
C1223 C 0.9984 0.48101 0.59396 0.0
C1224 C 1.00102 0.48755 0.57684 0.0
C1225 C 0.98862 0.48917 0.60639 0.0
C1226 C 0.98426 0.51072 0.58481 0.0
C1227 C 0.99543 0.50934 0.55414 0.0
H1228 H 0.03098 0.60472 0.42062 0.0
H1229 H 0.02999 0.59711 0.45294 0.0
H1230 H 0.04611 0.58785 0.39827 0.0
H1231 H 0.05881 0.55475 0.44038 0.0
H1232 H 1.00383 0.4695 0.59753 0.0
H1233 H 0.00851 0.48097 0.56729 0.0
H1234 H 0.98647 0.48386 0.61953 0.0
H1235 H 0.97851 0.5221 0.58124 0.0
C1236 C 0.74363 0.79093 0.23911 0.0
C1237 C 0.72718 0.76377 0.22079 0.0
C1238 C 0.7388 0.77238 0.2366 0.0
C1239 C 0.72127 0.77388 0.20707 0.0
C1240 C 0.73757 0.80112 0.22544 0.0
C1241 C 0.72664 0.79247 0.20927 0.0
N1242 N 0.75339 0.79905 0.25535 0.0
C1243 C 0.75675 0.81715 0.25924 0.0
C1244 C 0.74214 0.81975 0.22876 0.0
C1245 C 0.75163 0.8278 0.24583 0.0
Gd1246 Gd 0.8099 0.7651 0.28287 0.0
Gd1247 Gd 0.76128 0.77991 0.27658 0.0
N1248 N 0.74496 0.76282 0.24993 0.0
C1249 C 0.72138 0.74529 0.21956 0.0
C1250 C 0.73948 0.74482 0.24866 0.0
C1251 C 0.72769 0.73576 0.23344 0.0
H1252 H 0.74387 0.73748 0.25949 0.0
H1253 H 0.72318 0.72149 0.23262 0.0
H1254 H 0.83198 0.80614 0.29849 0.0
H1255 H 0.76265 0.82324 0.273 0.0
H1256 H 0.8528 0.82144 0.32576 0.0
H1257 H 0.71164 0.7383 0.20828 0.0
H1258 H 0.71239 0.76746 0.19479 0.0
H1259 H 0.80671 0.72139 0.28661 0.0
H1260 H 0.73784 0.82804 0.21854 0.0
H1261 H 0.75455 0.84218 0.24887 0.0
H1262 H 0.85718 0.77556 0.36581 0.0
H1263 H 0.72183 0.80009 0.19864 0.0
H1264 H 0.82953 0.71569 0.34164 0.0
H1265 H 0.81332 0.7021 0.31092 0.0
N1266 N 0.81652 0.74547 0.30437 0.0
C1267 C 0.82623 0.75322 0.3208 0.0
C1268 C 0.81254 0.72737 0.30044 0.0
C1269 C 0.82596 0.72419 0.33131 0.0
C1270 C 0.81676 0.71646 0.314 0.0
C1271 C 0.83127 0.74274 0.33469 0.0
H1272 H 0.84598 0.74318 0.36198 0.0
N1273 N 0.82748 0.78132 0.30937 0.0
C1274 C 0.83229 0.77159 0.32317 0.0
C1275 C 0.85108 0.79799 0.34022 0.0
C1276 C 0.84387 0.77979 0.3392 0.0
C1277 C 0.83506 0.79884 0.30992 0.0
C1278 C 0.84695 0.80747 0.32533 0.0
O1279 O 0.77364 0.77082 0.25016 0.0
O1280 O 0.79143 0.75047 0.2577 0.0
O1281 O 0.82876 0.77337 0.2627 0.0
O1282 O 0.83353 0.75368 0.28096 0.0
O1283 O 0.76616 0.75654 0.29207 0.0
O1284 O 0.78624 0.74189 0.27872 0.0
O1285 O 0.79899 0.77634 0.30903 0.0
O1286 O 0.77895 0.79487 0.30167 0.0
O1287 O 0.74128 0.76935 0.29472 0.0
O1288 O 0.73797 0.79182 0.28023 0.0
O1289 O 0.80787 0.79083 0.27016 0.0
O1290 O 0.78466 0.80357 0.28058 0.0
C1291 C 0.78242 0.758 0.24529 0.0
C1292 C 0.771 0.74166 0.28592 0.0
C1293 C 0.84887 0.75366 0.25405 0.0
C1294 C 0.87479 0.75401 0.23638 0.0
C1295 C 0.85593 0.72589 0.24039 0.0
C1296 C 0.84505 0.73496 0.25056 0.0
C1297 C 0.87072 0.73528 0.23349 0.0
C1298 C 0.86367 0.76322 0.2466 0.0
C1299 C 0.83946 0.76284 0.26794 0.0
C1300 C 0.84841 0.76947 0.35333 0.0
C1301 C 0.84203 0.75102 0.35114 0.0
H1302 H 0.8602 0.80474 0.3522 0.0
C1303 C 0.7891 0.78816 0.31374 0.0
C1304 C 0.80067 0.80485 0.27464 0.0
C1305 C 0.72245 0.78892 0.30719 0.0
C1306 C 0.69695 0.7885 0.32601 0.0
C1307 C 0.71928 0.81552 0.32685 0.0
C1308 C 0.72867 0.80684 0.31443 0.0
C1309 C 0.70359 0.80652 0.33248 0.0
C1310 C 0.7065 0.77963 0.31325 0.0
C1311 C 0.73121 0.781 0.29156 0.0
H1312 H 0.85305 0.71147 0.2381 0.0
H1313 H 0.83399 0.72727 0.25626 0.0
H1314 H 0.87899 0.72786 0.22574 0.0
H1315 H 0.86699 0.77762 0.24949 0.0
H1316 H 0.72407 0.82946 0.33193 0.0
H1317 H 0.74058 0.81438 0.31001 0.0
H1318 H 0.69649 0.81374 0.34194 0.0
H1319 H 0.70126 0.76591 0.30757 0.0
C1320 C 0.79501 0.25471 0.73849 0.0
C1321 C 0.76936 0.2397 0.7171 0.0
C1322 C 0.77796 0.25432 0.73009 0.0
C1323 C 0.77783 0.2251 0.71356 0.0
C1324 C 0.80395 0.24052 0.73437 0.0
C1325 C 0.79513 0.22553 0.72214 0.0
N1326 N 0.80289 0.26913 0.75068 0.0
C1327 C 0.82011 0.27077 0.75843 0.0
C1328 C 0.82149 0.24187 0.74265 0.0
C1329 C 0.82969 0.25719 0.75454 0.0
Gd1330 Gd 0.75597 0.28847 0.80992 0.0
Gd1331 Gd 0.78499 0.28957 0.75966 0.0
N1332 N 0.77018 0.26864 0.73405 0.0
C1333 C 0.75275 0.24044 0.70767 0.0
C1334 C 0.75492 0.27018 0.72336 0.0
C1335 C 0.74574 0.25596 0.71045 0.0
H1336 H 0.74972 0.28234 0.72442 0.0
H1337 H 0.73332 0.25704 0.70253 0.0
H1338 H 0.78778 0.29372 0.84672 0.0
H1339 H 0.82639 0.28244 0.7679 0.0
H1340 H 0.80129 0.31705 0.87264 0.0
H1341 H 0.74564 0.22947 0.69764 0.0
H1342 H 0.77131 0.21363 0.70385 0.0
H1343 H 0.71455 0.29594 0.79671 0.0
H1344 H 0.82886 0.23128 0.73983 0.0
H1345 H 0.84329 0.25845 0.7609 0.0
H1346 H 0.76128 0.35876 0.87215 0.0
H1347 H 0.80167 0.21435 0.719 0.0
H1348 H 0.70825 0.34403 0.82833 0.0
H1349 H 0.69668 0.31894 0.80355 0.0
N1350 N 0.73635 0.30798 0.81717 0.0
C1351 C 0.74234 0.32096 0.83171 0.0
C1352 C 0.71991 0.30685 0.80747 0.0
C1353 C 0.71616 0.3339 0.82548 0.0
C1354 C 0.70962 0.3198 0.81142 0.0
C1355 C 0.73265 0.33455 0.83593 0.0
H1356 H 0.73263 0.35902 0.85364 0.0
N1357 N 0.76724 0.30734 0.83779 0.0
C1358 C 0.7583 0.32067 0.84234 0.0
C1359 C 0.7812 0.33305 0.86786 0.0
C1360 C 0.76524 0.33413 0.85722 0.0
C1361 C 0.78187 0.30536 0.84911 0.0
C1362 C 0.78932 0.31837 0.86405 0.0
O1363 O 0.77935 0.26321 0.77035 0.0
O1364 O 0.75701 0.27257 0.78286 0.0
O1365 O 0.75667 0.26608 0.82579 0.0
O1366 O 0.73139 0.27348 0.81698 0.0
O1367 O 0.75607 0.29426 0.75558 0.0
O1368 O 0.73965 0.28989 0.78159 0.0
O1369 O 0.7679 0.3164 0.80769 0.0
O1370 O 0.77652 0.30118 0.78505 0.0
O1371 O 0.78378 0.31179 0.74351 0.0
O1372 O 0.80933 0.30558 0.75295 0.0
O1373 O 0.78588 0.28479 0.81358 0.0
O1374 O 0.80262 0.29118 0.78792 0.0
C1375 C 0.76665 0.26042 0.78098 0.0
C1376 C 0.74121 0.29335 0.76396 0.0
C1377 C 0.73478 0.26343 0.84658 0.0
C1378 C 0.74076 0.25461 0.87736 0.0
C1379 C 0.71539 0.26866 0.87041 0.0
C1380 C 0.71972 0.26978 0.85216 0.0
C1381 C 0.72591 0.26108 0.88306 0.0
C1382 C 0.74523 0.25593 0.8593 0.0
C1383 C 0.73966 0.26402 0.82754 0.0
C1384 C 0.75603 0.34813 0.86097 0.0
C1385 C 0.73973 0.34829 0.85042 0.0
H1386 H 0.78706 0.3432 0.87933 0.0
C1387 C 0.77614 0.31681 0.79316 0.0
C1388 C 0.80113 0.28718 0.80549 0.0
C1389 C 0.80673 0.31765 0.72404 0.0
C1390 C 0.80133 0.32616 0.69271 0.0
C1391 C 0.82978 0.31854 0.70314 0.0
C1392 C 0.82397 0.31549 0.72044 0.0
C1393 C 0.81852 0.32378 0.6893 0.0
C1394 C 0.7955 0.32324 0.71013 0.0
C1395 C 0.80089 0.31509 0.74257 0.0
H1396 H 0.70368 0.2733 0.87463 0.0
H1397 H 0.71124 0.27545 0.84245 0.0
H1398 H 0.72204 0.25955 0.89694 0.0
H1399 H 0.75656 0.25049 0.85502 0.0
H1400 H 0.84313 0.31704 0.70052 0.0
H1401 H 0.83304 0.31162 0.73105 0.0
H1402 H 0.82342 0.32648 0.67608 0.0
H1403 H 0.78235 0.32548 0.71282 0.0
C1404 C 0.81814 0.80944 0.79271 0.0
C1405 C 0.83383 0.8235 0.76878 0.0
C1406 C 0.81846 0.81319 0.7743 0.0
C1407 C 0.84879 0.82997 0.782 0.0
C1408 C 0.83306 0.8162 0.80609 0.0
C1409 C 0.84837 0.8264 0.80062 0.0
N1410 N 0.80306 0.79969 0.79768 0.0
C1411 C 0.80194 0.79665 0.81587 0.0
C1412 C 0.83203 0.81283 0.82469 0.0
C1413 C 0.81637 0.80307 0.8296 0.0
Gd1414 Gd 0.76011 0.74394 0.74817 0.0
Gd1415 Gd 0.77887 0.79139 0.77401 0.0
N1416 N 0.80365 0.80705 0.76187 0.0
C1417 C 0.83357 0.82732 0.75022 0.0
C1418 C 0.80295 0.81194 0.7442 0.0
C1419 C 0.818 0.82161 0.73791 0.0
H1420 H 0.79073 0.80909 0.73512 0.0
H1421 H 0.81743 0.82505 0.72371 0.0
H1422 H 0.74465 0.73045 0.78782 0.0
H1423 H 0.78964 0.79009 0.82004 0.0
H1424 H 0.71734 0.71318 0.79669 0.0
H1425 H 0.84512 0.83511 0.74541 0.0
H1426 H 0.86065 0.83797 0.77802 0.0
H1427 H 0.75037 0.7517 0.70303 0.0
H1428 H 0.84314 0.81795 0.8354 0.0
H1429 H 0.81527 0.80076 0.84403 0.0
H1430 H 0.67741 0.70077 0.73983 0.0
H1431 H 0.85992 0.83174 0.81072 0.0
H1432 H 0.69699 0.72481 0.6851 0.0
H1433 H 0.72515 0.74297 0.6784 0.0
N1434 N 0.73616 0.7406 0.72442 0.0
C1435 C 0.7207 0.73068 0.72845 0.0
C1436 C 0.73781 0.74507 0.70669 0.0
C1437 C 0.7078 0.72932 0.69629 0.0
C1438 C 0.72363 0.73965 0.69247 0.0
C1439 C 0.70618 0.72465 0.71438 0.0
H1440 H 0.67953 0.70884 0.70792 0.0
N1441 N 0.73383 0.73156 0.75988 0.0
C1442 C 0.71953 0.72599 0.74658 0.0
C1443 C 0.703 0.71088 0.76916 0.0
C1444 C 0.70379 0.71535 0.75089 0.0
C1445 C 0.73319 0.72693 0.7776 0.0
C1446 C 0.71772 0.7168 0.78259 0.0
O1447 O 0.80155 0.77759 0.76486 0.0
O1448 O 0.78953 0.75276 0.74351 0.0
O1449 O 0.76359 0.7172 0.75298 0.0
O1450 O 0.75767 0.72367 0.72482 0.0
O1451 O 0.76362 0.78812 0.74493 0.0
O1452 O 0.77191 0.76396 0.73001 0.0
O1453 O 0.73947 0.76153 0.75509 0.0
O1454 O 0.75283 0.77711 0.78277 0.0
O1455 O 0.76608 0.81333 0.76612 0.0
O1456 O 0.77774 0.81276 0.79508 0.0
O1457 O 0.77404 0.74402 0.77782 0.0
O1458 O 0.77142 0.77088 0.79349 0.0
C1459 C 0.80341 0.76453 0.75223 0.0
C1460 C 0.76745 0.7796 0.72969 0.0
C1461 C 0.77145 0.69896 0.7277 0.0
C1462 C 0.78768 0.67533 0.73254 0.0
C1463 C 0.78038 0.68214 0.7011 0.0
C1464 C 0.77193 0.69558 0.70825 0.0
C1465 C 0.78826 0.67196 0.71324 0.0
C1466 C 0.77934 0.68871 0.73977 0.0
C1467 C 0.76079 0.71143 0.73514 0.0
C1468 C 0.68947 0.7092 0.73682 0.0
C1469 C 0.69067 0.7138 0.71864 0.0
H1470 H 0.69116 0.7027 0.77299 0.0
C1471 C 0.73829 0.77053 0.77129 0.0
C1472 C 0.77379 0.75434 0.79351 0.0
C1473 C 0.76369 0.83758 0.78962 0.0
C1474 C 0.74886 0.86175 0.7827 0.0
C1475 C 0.75839 0.85851 0.81492 0.0
C1476 C 0.76511 0.84349 0.80885 0.0
C1477 C 0.75016 0.86759 0.80188 0.0
C1478 C 0.75576 0.84692 0.77653 0.0
C1479 C 0.76908 0.8209 0.78341 0.0
H1480 H 0.78059 0.67945 0.68615 0.0
H1481 H 0.76545 0.70302 0.69855 0.0
H1482 H 0.79462 0.66137 0.70765 0.0
H1483 H 0.77871 0.69079 0.75475 0.0
H1484 H 0.75938 0.86297 0.82972 0.0
H1485 H 0.77108 0.83632 0.81922 0.0
H1486 H 0.74486 0.8792 0.8067 0.0
H1487 H 0.75451 0.84246 0.76166 0.0
C1488 C 0.49877 0.49046 0.50352 0.0
C1489 C 0.48334 0.47547 0.52707 0.0
C1490 C 0.49423 0.49052 0.52165 0.0
C1491 C 0.47743 0.46022 0.51411 0.0
C1492 C 0.49224 0.47539 0.49027 0.0
C1493 C 0.48182 0.4602 0.49574 0.0
N1494 N 0.50863 0.50547 0.49855 0.0
C1495 C 0.51138 0.5066 0.48028 0.0
C1496 C 0.49583 0.47625 0.47172 0.0
C1497 C 0.50526 0.49202 0.46667 0.0
Gd1498 Gd 0.56551 0.54835 0.54727 0.0
Gd1499 Gd 0.51694 0.5298 0.52219 0.0
N1500 N 0.50005 0.50551 0.53386 0.0
C1501 C 0.47841 0.47633 0.54524 0.0
C1502 C 0.49438 0.50676 0.55116 0.0
C1503 C 0.48382 0.49213 0.55729 0.0
H1504 H 0.49769 0.51909 0.56011 0.0
H1505 H 0.47963 0.49316 0.57118 0.0
H1506 H 0.57857 0.56398 0.5074 0.0
H1507 H 0.51738 0.519 0.47593 0.0
H1508 H 0.5966 0.59103 0.49876 0.0
H1509 H 0.47008 0.46506 0.54995 0.0
H1510 H 0.46915 0.4485 0.51805 0.0
H1511 H 0.55779 0.55839 0.59249 0.0
H1512 H 0.49089 0.46504 0.46109 0.0
H1513 H 0.50746 0.4931 0.45221 0.0
H1514 H 0.61035 0.63036 0.55597 0.0
H1515 H 0.47678 0.44849 0.48577 0.0
H1516 H 0.58542 0.61135 0.61044 0.0
H1517 H 0.56667 0.58352 0.61705 0.0
N1518 N 0.56906 0.57233 0.57106 0.0
C1519 C 0.57955 0.58752 0.56716 0.0
C1520 C 0.56454 0.57082 0.58878 0.0
C1521 C 0.58081 0.60058 0.59925 0.0
C1522 C 0.57012 0.58494 0.60301 0.0
C1523 C 0.58574 0.602 0.58123 0.0
H1524 H 0.60198 0.62844 0.58777 0.0
N1525 N 0.57855 0.57442 0.53568 0.0
C1526 C 0.58455 0.58853 0.54912 0.0
C1527 C 0.59978 0.60498 0.52655 0.0
C1528 C 0.59549 0.60413 0.54487 0.0
C1529 C 0.58281 0.57519 0.51784 0.0
C1530 C 0.59327 0.59052 0.51295 0.0
O1531 O 0.52865 0.50814 0.5365 0.0
O1532 O 0.55894 0.51777 0.54618 0.0
O1533 O 0.59331 0.54764 0.54412 0.0
O1534 O 0.58398 0.54789 0.57166 0.0
O1535 O 0.52133 0.54598 0.55069 0.0
O1536 O 0.54514 0.53726 0.56572 0.0
O1537 O 0.5487 0.56941 0.53911 0.0
O1538 O 0.53115 0.55535 0.51262 0.0
O1539 O 0.49634 0.54473 0.53029 0.0
O1540 O 0.49493 0.53055 0.50201 0.0
O1541 O 0.56546 0.53482 0.5178 0.0
O1542 O 0.53769 0.53522 0.50221 0.0
C1543 C 0.5444 0.50511 0.54327 0.0
C1544 C 0.52943 0.54168 0.56592 0.0
C1545 C 0.61281 0.54148 0.56973 0.0
C1546 C 0.63759 0.52639 0.56568 0.0
C1547 C 0.63523 0.54195 0.59595 0.0
C1548 C 0.61954 0.54673 0.58859 0.0
C1549 C 0.64432 0.53193 0.58455 0.0
C1550 C 0.62181 0.53125 0.55827 0.0
C1551 C 0.59757 0.54862 0.56217 0.0
C1552 C 0.60177 0.61839 0.55896 0.0
C1553 C 0.59695 0.61732 0.57706 0.0
H1554 H 0.60809 0.61675 0.52275 0.0
C1555 C 0.53829 0.57011 0.52355 0.0
C1556 C 0.55467 0.53418 0.50227 0.0
C1557 C 0.47224 0.54742 0.50652 0.0
C1558 C 0.44689 0.5605 0.51287 0.0
C1559 C 0.45335 0.5553 0.48091 0.0
C1560 C 0.46814 0.54832 0.48727 0.0
C1561 C 0.44267 0.56137 0.49369 0.0
C1562 C 0.46162 0.5536 0.51931 0.0
C1563 C 0.48804 0.54087 0.51333 0.0
H1564 H 0.64049 0.54622 0.61044 0.0
H1565 H 0.61287 0.55494 0.59754 0.0
H1566 H 0.65671 0.52866 0.59046 0.0
H1567 H 0.6166 0.52712 0.54371 0.0
H1568 H 0.45017 0.55599 0.4661 0.0
H1569 H 0.47642 0.5438 0.47718 0.0
H1570 H 0.43112 0.56668 0.48869 0.0
H1571 H 0.4647 0.55297 0.5342 0.0
C1572 C 0.06222 0.5599 0.00355 0.0
C1573 C 0.08074 0.58119 0.02804 0.0
C1574 C 0.06889 0.56486 0.02249 0.0
C1575 C 0.0861 0.59234 0.01452 0.0
C1576 C 0.06762 0.57119 0.99003 0.0
C1577 C 0.07958 0.58736 0.99561 0.0
N1578 N 0.05088 0.54396 0.9983 0.0
C1579 C 0.04502 0.53835 0.97985 0.0
C1580 C 0.0611 0.56579 0.97119 0.0
C1581 C 0.04979 0.5493 0.96609 0.0
Gd1582 Gd 0.99721 0.5211 0.04542 0.0
Gd1583 Gd 0.04626 0.52664 0.02284 0.0
N1584 N 0.06361 0.55386 0.0355 0.0
C1585 C 0.08688 0.58587 0.04709 0.0
C1586 C 0.07014 0.55796 0.05391 0.0
C1587 C 0.08142 0.57426 0.06005 0.0
H1588 H 0.06663 0.54876 0.06382 0.0
H1589 H 0.08592 0.57784 0.07476 0.0
H1590 H 0.96659 0.5068 0.00923 0.0
H1591 H 0.03712 0.52522 0.97552 0.0
H1592 H 0.94317 0.48019 0.99802 0.0
H1593 H 0.09587 0.59838 0.05192 0.0
H1594 H 0.09532 0.60486 0.01854 0.0
H1595 H 0.00994 0.51777 0.0916 0.0
H1596 H 0.06498 0.57411 0.96041 0.0
H1597 H 0.04505 0.54486 0.95151 0.0
H1598 H 0.94515 0.44341 0.04806 0.0
H1599 H 0.08395 0.59611 0.98536 0.0
H1600 H 0.98434 0.46692 0.10382 0.0
H1601 H 1.00496 0.49562 0.11361 0.0
N1602 N 0.99408 0.50115 0.06834 0.0
C1603 C 0.98181 0.48586 0.06302 0.0
C1604 C 1.0018 0.50497 0.08651 0.0
C1605 C 0.98693 0.4764 0.09376 0.0
C1606 C 0.99864 0.49255 0.09931 0.0
C1607 C 0.97805 0.47303 0.07557 0.0
H1608 H 0.96213 0.44758 0.07932 0.0
N1609 N 0.97549 0.49626 0.03367 0.0
C1610 C 0.97211 0.48346 0.04532 0.0
C1611 C 0.94842 0.46693 0.02241 0.0
C1612 C 0.9586 0.46828 0.03985 0.0
C1613 C 0.96488 0.49563 0.0173 0.0
C1614 C 0.95141 0.48079 0.0112 0.0
O1615 O 0.03589 0.5526 0.03196 0.0
O1616 O 0.01509 0.54858 0.05362 0.0
O1617 O 0.97488 0.5344 0.03647 0.0
O1618 O 0.98055 0.52881 0.06549 0.0
O1619 O 0.03687 0.51439 0.04757 0.0
O1620 O 0.02136 0.52953 0.06578 0.0
O1621 O 1.00401 0.49472 0.0315 0.0
O1622 O 0.03044 0.49831 0.0168 0.0
O1623 O 0.06916 0.51601 0.03498 0.0
O1624 O 0.06675 0.52108 0.00605 0.0
O1625 O 1.00438 0.53113 0.0185 0.0
O1626 O 0.02263 0.51723 0.00183 0.0
C1627 C 0.02628 0.55891 0.04456 0.0
C1628 C 0.03594 0.52372 0.06321 0.0
C1629 C 0.95553 0.54321 0.05991 0.0
C1630 C 0.93089 0.55889 0.0547 0.0
C1631 C 0.93856 0.55042 0.08546 0.0
C1632 C 0.95228 0.54287 0.07876 0.0
C1633 C 0.9279 0.5584 0.0735 0.0
C1634 C 0.94472 0.55129 0.04781 0.0
C1635 C 0.97049 0.5354 0.05354 0.0
C1636 C 0.95539 0.45521 0.05207 0.0
C1637 C 0.96508 0.45758 0.06987 0.0
H1638 H 0.93789 0.4555 0.01772 0.0
C1639 C 0.01603 0.48835 0.02184 0.0
C1640 C 0.00686 0.52084 0.0039 0.0
C1641 C 0.08277 0.49843 0.01288 0.0
C1642 C 0.10656 0.48083 0.01451 0.0
C1643 C 0.08358 0.47494 0.98793 0.0
C1644 C 0.07538 0.48827 0.99573 0.0
C1645 C 0.09911 0.47132 0.99717 0.0
C1646 C 0.09837 0.49446 0.02242 0.0
C1647 C 0.07585 0.51472 0.01907 0.0
H1648 H 0.93626 0.55017 0.09999 0.0
H1649 H 0.96041 0.53682 0.08846 0.0
H1650 H 0.91735 0.56437 0.07895 0.0
H1651 H 0.9471 0.55185 0.03331 0.0
H1652 H 0.07804 0.46758 0.97449 0.0
H1653 H 0.06356 0.49102 0.98794 0.0
H1654 H 0.10542 0.46109 0.9907 0.0
H1655 H 0.10444 0.50232 0.03546 0.0
H1656 H 0.99444 0.22404 0.98338 0.0
H1657 H 0.99962 0.19713 0.99716 0.0
H1658 H 0.02953 0.18409 0.95181 0.0
H1659 H 0.0229 0.21007 0.93732 0.0
H1660 H 0.01456 0.1553 0.95797 0.0
H1661 H 0.04691 0.20263 0.00412 0.0
H1662 H 0.05032 0.22972 0.02654 0.0
H1663 H 0.01064 0.20292 0.05743 0.0
H1664 H 0.00686 0.17574 0.03508 0.0
H1665 H 0.05475 0.08913 0.99848 0.0
H1666 H 0.04976 0.1174 0.98775 0.0
H1667 H 0.01345 0.12249 0.02907 0.0
H1668 H 0.01914 0.09443 0.04033 0.0
H1669 H 0.03084 0.15495 0.026 0.0
H1670 H 0.99931 0.10767 0.97984 0.0
H1671 H 0.99629 0.08066 0.95741 0.0
H1672 H 0.03569 0.10806 0.92658 0.0
H1673 H 0.03907 0.13518 0.94896 0.0
C1674 C 1.00208 0.2154 0.97632 0.0
C1675 C 0.00816 0.21938 0.95911 0.0
C1676 C 0.00532 0.19995 0.9844 0.0
C1677 C 0.01549 0.18826 0.97605 0.0
C1678 C 0.02161 0.19244 0.95885 0.0
C1679 C 0.01784 0.2075 0.95048 0.0
C1680 C 0.01942 0.17157 0.98465 0.0
C1681 C 0.01844 0.15556 0.97284 0.0
C1682 C 0.024 0.17102 0.00421 0.0
C1683 C 0.02649 0.18722 0.01783 0.0
C1684 C 0.03887 0.20255 0.01566 0.0
C1685 C 0.04087 0.21792 0.02836 0.0
C1686 C 0.03067 0.21806 0.04337 0.0
C1687 C 0.01851 0.2028 0.04578 0.0
C1688 C 0.01646 0.18741 0.03312 0.0
C1689 C 0.04585 0.09634 0.00545 0.0
C1690 C 0.03745 0.08939 0.02037 0.0
C1691 C 0.04283 0.11258 0.99915 0.0
C1692 C 0.03081 0.1223 0.00714 0.0
C1693 C 0.02276 0.11555 0.02245 0.0
C1694 C 0.02604 0.0994 0.02896 0.0
C1695 C 0.02636 0.13903 0.99919 0.0
C1696 C 0.02712 0.15491 0.01112 0.0
C1697 C 0.02173 0.13956 0.97972 0.0
C1698 C 0.01953 0.12338 0.96613 0.0
C1699 C 0.00738 0.1079 0.96831 0.0
C1700 C 0.0056 0.09258 0.95561 0.0
C1701 C 0.01582 0.09263 0.9406 0.0
C1702 C 0.02779 0.10803 0.93822 0.0
C1703 C 0.02963 0.12339 0.95089 0.0
H1704 H 0.01444 0.08075 0.93079 0.0
H1705 H 0.03221 0.22998 0.05316 0.0
H1706 H 0.08859 0.77612 0.16368 0.0
H1707 H 0.11544 0.77594 0.18465 0.0
H1708 H 0.14506 0.8162 0.15603 0.0
H1709 H 0.11826 0.81526 0.13393 0.0
H1710 H 0.16636 0.79603 0.16539 0.0
H1711 H 0.12835 0.82457 0.2021 0.0
H1712 H 0.10002 0.82725 0.21468 0.0
H1713 H 0.10122 0.77959 0.24114 0.0
H1714 H 0.12947 0.77654 0.22856 0.0
H1715 H 0.23901 0.8171 0.2382 0.0
H1716 H 0.21306 0.81806 0.21611 0.0
H1717 H 0.1818 0.77624 0.24137 0.0
H1718 H 0.20761 0.77585 0.26408 0.0
H1719 H 0.16179 0.79842 0.23357 0.0
H1720 H 0.20049 0.77028 0.19545 0.0
H1721 H 0.22859 0.76854 0.18185 0.0
H1722 H 0.22673 0.81767 0.15859 0.0
H1723 H 0.19853 0.81963 0.17179 0.0
C1724 C 0.10082 0.78496 0.16184 0.0
C1725 C 0.10118 0.79588 0.14726 0.0
C1726 C 0.11624 0.78498 0.17401 0.0
C1727 C 0.13241 0.79654 0.17259 0.0
C1728 C 0.13287 0.80723 0.15772 0.0
C1729 C 0.1175 0.80677 0.14508 0.0
C1730 C 0.14862 0.79739 0.18663 0.0
C1731 C 0.16533 0.7968 0.1803 0.0
C1732 C 0.14759 0.79817 0.20623 0.0
C1733 C 0.13094 0.80028 0.2143 0.0
C1734 C 0.12254 0.81466 0.21058 0.0
C1735 C 0.10651 0.81623 0.2177 0.0
C1736 C 0.09881 0.80358 0.22867 0.0
C1737 C 0.1072 0.78938 0.23264 0.0
C1738 C 0.12324 0.78774 0.22555 0.0
C1739 C 0.22657 0.80819 0.23916 0.0
C1740 C 0.22548 0.79643 0.25302 0.0
C1741 C 0.2117 0.80858 0.22629 0.0
C1742 C 0.19536 0.79689 0.22652 0.0
C1743 C 0.19415 0.7854 0.24066 0.0
C1744 C 0.20896 0.78522 0.25376 0.0
C1745 C 0.17949 0.79683 0.21234 0.0
C1746 C 0.16283 0.79762 0.21866 0.0
C1747 C 0.18064 0.79646 0.19277 0.0
C1748 C 0.1975 0.79517 0.18473 0.0
C1749 C 0.20611 0.78074 0.18749 0.0
C1750 C 0.22204 0.77971 0.17985 0.0
C1751 C 0.2295 0.79304 0.16953 0.0
C1752 C 0.22096 0.80737 0.16663 0.0
C1753 C 0.20496 0.80841 0.1741 0.0
H1754 H 0.24186 0.79224 0.1637 0.0
H1755 H 0.08637 0.8048 0.23412 0.0
H1756 H 0.49351 0.81248 0.48521 0.0
H1757 H 0.49452 0.84332 0.49886 0.0
H1758 H 0.52035 0.86282 0.45246 0.0
H1759 H 0.51972 0.8322 0.4391 0.0
H1760 H 0.53581 0.88275 0.4823 0.0
H1761 H 0.47427 0.86282 0.45783 0.0
H1762 H 0.44433 0.84383 0.4538 0.0
H1763 H 0.44046 0.8546 0.51257 0.0
H1764 H 0.47048 0.87351 0.51696 0.0
H1765 H 0.52396 0.97195 0.48953 0.0
H1766 H 0.52164 0.94028 0.47974 0.0
H1767 H 0.49747 0.92757 0.52943 0.0
H1768 H 0.49929 0.95951 0.53908 0.0
H1769 H 0.4818 0.90379 0.501 0.0
H1770 H 0.54382 0.92601 0.52413 0.0
H1771 H 0.57119 0.94875 0.52513 0.0
H1772 H 0.57297 0.93485 0.46642 0.0
H1773 H 0.54556 0.91218 0.46502 0.0
C1774 C 0.49946 0.82334 0.47795 0.0
C1775 C 0.50655 0.8197 0.46102 0.0
C1776 C 0.49993 0.84107 0.48572 0.0
C1777 C 0.50735 0.85571 0.4767 0.0
C1778 C 0.51458 0.852 0.45988 0.0
C1779 C 0.51417 0.83435 0.45218 0.0
C1780 C 0.50778 0.87483 0.48462 0.0
C1781 C 0.52391 0.88725 0.48627 0.0
C1782 C 0.49249 0.88106 0.49026 0.0
C1783 C 0.47468 0.86936 0.48776 0.0
C1784 C 0.4671 0.86097 0.46992 0.0
C1785 C 0.4501 0.85027 0.46756 0.0
C1786 C 0.44052 0.84796 0.48293 0.0
C1787 C 0.44791 0.85636 0.50069 0.0
C1788 C 0.46491 0.86708 0.50312 0.0
C1789 C 0.51807 0.9625 0.49843 0.0
C1790 C 0.51186 0.96851 0.51519 0.0
C1791 C 0.51687 0.94423 0.49283 0.0
C1792 C 0.50984 0.93123 0.50401 0.0
C1793 C 0.5031 0.93715 0.52051 0.0
C1794 C 0.50409 0.95551 0.52602 0.0
C1795 C 0.50973 0.91165 0.49843 0.0
C1796 C 0.49373 0.89918 0.49729 0.0
C1797 C 0.5251 0.90536 0.49313 0.0
C1798 C 0.54257 0.91754 0.49444 0.0
C1799 C 0.55014 0.92773 0.51148 0.0
C1800 C 0.56561 0.94063 0.5121 0.0
C1801 C 0.57363 0.94333 0.49579 0.0
C1802 C 0.56663 0.93278 0.47899 0.0
C1803 C 0.55117 0.91987 0.47829 0.0
H1804 H 0.58515 0.95374 0.49608 0.0
H1805 H 0.42734 0.8397 0.48107 0.0
H1806 H 0.49427 0.30165 0.62523 0.0
H1807 H 0.46859 0.29953 0.64341 0.0
H1808 H 0.4913 0.26423 0.67763 0.0
H1809 H 0.5173 0.26691 0.66 0.0
H1810 H 0.45362 0.25265 0.66406 0.0
H1811 H 0.49513 0.30325 0.69592 0.0
H1812 H 0.51516 0.33249 0.69845 0.0
H1813 H 0.47094 0.35666 0.68051 0.0
H1814 H 0.45067 0.32744 0.6775 0.0
H1815 H 0.41327 0.25305 0.74699 0.0
H1816 H 0.43657 0.26196 0.72716 0.0
H1817 H 0.40052 0.28665 0.69352 0.0
H1818 H 0.37671 0.2771 0.71311 0.0
H1819 H 0.44258 0.30494 0.70421 0.0
H1820 H 0.40067 0.25345 0.67367 0.0
H1821 H 0.38147 0.22383 0.67199 0.0
H1822 H 0.42721 0.20106 0.6879 0.0
H1823 H 0.44665 0.23066 0.69013 0.0
C1824 C 0.49373 0.29342 0.63662 0.0
C1825 C 0.50778 0.28448 0.64126 0.0
C1826 C 0.47909 0.29225 0.64701 0.0
C1827 C 0.47802 0.28175 0.66192 0.0
C1828 C 0.49184 0.27244 0.66623 0.0
C1829 C 0.50671 0.27402 0.6562 0.0
C1830 C 0.46265 0.28059 0.67323 0.0
C1831 C 0.45124 0.26408 0.67285 0.0
C1832 C 0.45931 0.29556 0.68447 0.0
C1833 C 0.47144 0.31312 0.68621 0.0
C1834 C 0.48971 0.31475 0.69228 0.0
C1835 C 0.5011 0.33133 0.69385 0.0
C1836 C 0.49434 0.34641 0.68957 0.0
C1837 C 0.47616 0.34495 0.68376 0.0
C1838 C 0.46472 0.32838 0.68211 0.0
C1839 C 0.4104 0.2608 0.73568 0.0
C1840 C 0.39307 0.26423 0.73153 0.0
C1841 C 0.42373 0.26584 0.72432 0.0
C1842 C 0.42023 0.27473 0.70871 0.0
C1843 C 0.40348 0.27973 0.70549 0.0
C1844 C 0.38993 0.27442 0.71677 0.0
C1845 C 0.43357 0.277 0.69501 0.0
C1846 C 0.44473 0.29362 0.6951 0.0
C1847 C 0.43672 0.26212 0.68348 0.0
C1848 C 0.42507 0.24433 0.68235 0.0
C1849 C 0.4066 0.24218 0.6771 0.0
C1850 C 0.39568 0.22538 0.67599 0.0
C1851 C 0.4031 0.21058 0.67991 0.0
C1852 C 0.42147 0.21255 0.68493 0.0
C1853 C 0.43244 0.22934 0.68613 0.0
H1854 H 0.39463 0.19757 0.67898 0.0
H1855 H 0.50318 0.35924 0.69082 0.0
H1856 H 0.05044 0.8106 0.66535 0.0
H1857 H 0.05384 0.83603 0.64703 0.0
H1858 H 0.99733 0.82382 0.62834 0.0
H1859 H 0.99436 0.79753 0.64546 0.0
H1860 H 0.01279 0.83218 0.60072 0.0
H1861 H 0.02177 0.86099 0.66495 0.0
H1862 H 0.03664 0.8678 0.69737 0.0
H1863 H 0.08672 0.88571 0.6769 0.0
H1864 H 0.07222 0.87879 0.6444 0.0
H1865 H 0.01909 0.91158 0.55446 0.0
H1866 H 0.01004 0.88912 0.5756 0.0
H1867 H 0.06444 0.89766 0.60176 0.0
H1868 H 0.07303 0.9205 0.58155 0.0
H1869 H 0.04644 0.89204 0.62688 0.0
H1870 H 0.04039 0.86119 0.56396 0.0
H1871 H 0.02807 0.85207 0.53091 0.0
H1872 H 0.97589 0.83598 0.54754 0.0
H1873 H 0.98783 0.84531 0.58064 0.0
C1874 C 0.03877 0.81351 0.65742 0.0
C1875 C 0.02211 0.80229 0.65694 0.0
C1876 C 0.04065 0.82815 0.64704 0.0
C1877 C 0.02576 0.83236 0.63658 0.0
C1878 C 0.00907 0.82107 0.63627 0.0
C1879 C 0.00732 0.80609 0.64613 0.0
C1880 C 0.02759 0.84798 0.62535 0.0
C1881 C 0.01993 0.84535 0.60656 0.0
C1882 C 0.0373 0.86516 0.63264 0.0
C1883 C 0.04591 0.86929 0.65224 0.0
C1884 C 0.03596 0.8663 0.66737 0.0
C1885 C 0.04433 0.87018 0.68576 0.0
C1886 C 0.06261 0.87716 0.68919 0.0
C1887 C 0.07257 0.8803 0.67424 0.0
C1888 C 0.06428 0.87641 0.65584 0.0
C1889 C 0.02893 0.90893 0.56511 0.0
C1890 C 0.04679 0.91775 0.56631 0.0
C1891 C 0.02384 0.89583 0.57699 0.0
C1892 C 0.0366 0.89112 0.59011 0.0
C1893 C 0.05421 0.90074 0.59184 0.0
C1894 C 0.05919 0.91386 0.5802 0.0
C1895 C 0.03217 0.87616 0.60197 0.0
C1896 C 0.0392 0.87892 0.62098 0.0
C1897 C 0.02224 0.859 0.59474 0.0
C1898 C 0.01496 0.85426 0.57475 0.0
C1899 C 0.02624 0.85597 0.56054 0.0
C1900 C 0.01933 0.8507 0.5418 0.0
C1901 C 1.00119 0.84353 0.53712 0.0
C1902 C 0.98991 0.84162 0.55117 0.0
C1903 C 0.99674 0.84694 0.56991 0.0
H1904 H 0.99589 0.83938 0.52262 0.0
H1905 H 0.06906 0.88017 0.70343 0.0
H1906 H 0.4923 0.79059 0.80815 0.0
H1907 H 0.46128 0.78863 0.79453 0.0
H1908 H 0.44873 0.81139 0.84746 0.0
H1909 H 0.47928 0.81237 0.86122 0.0
H1910 H 0.42267 0.7875 0.83518 0.0
H1911 H 0.45458 0.8344 0.804 0.0
H1912 H 0.47724 0.84718 0.78454 0.0
H1913 H 0.45452 0.80704 0.73886 0.0
H1914 H 0.43183 0.79392 0.75812 0.0
H1915 H 0.33867 0.80823 0.80736 0.0
H1916 H 0.37047 0.81037 0.81762 0.0
H1917 H 0.37782 0.78668 0.76298 0.0
H1918 H 0.34613 0.78573 0.7524 0.0
H1919 H 0.40639 0.80915 0.77454 0.0
H1920 H 0.37429 0.76265 0.80495 0.0
H1921 H 0.35156 0.74937 0.82406 0.0
H1922 H 0.3748 0.78801 0.8709 0.0
H1923 H 0.39756 0.80162 0.852 0.0
C1924 C 0.48291 0.79519 0.81686 0.0
C1925 C 0.48841 0.80164 0.83584 0.0
C1926 C 0.46509 0.79421 0.809 0.0
C1927 C 0.45233 0.80014 0.81973 0.0
C1928 C 0.45798 0.80663 0.83868 0.0
C1929 C 0.47561 0.80725 0.84659 0.0
C1930 C 0.43308 0.79931 0.81169 0.0
C1931 C 0.41926 0.79252 0.82203 0.0
C1932 C 0.42811 0.80516 0.79416 0.0
C1933 C 0.44163 0.8131 0.78255 0.0
C1934 C 0.45448 0.82826 0.78983 0.0
C1935 C 0.46732 0.83556 0.77884 0.0
C1936 C 0.46735 0.82789 0.76049 0.0
C1937 C 0.4545 0.81295 0.75308 0.0
C1938 C 0.44164 0.80559 0.76402 0.0
C1939 C 0.34714 0.80367 0.79749 0.0
C1940 C 0.33985 0.79679 0.77908 0.0
C1941 C 0.36537 0.80468 0.80342 0.0
C1942 C 0.3768 0.79815 0.79138 0.0
C1943 C 0.36954 0.79176 0.77274 0.0
C1944 C 0.35136 0.79121 0.76665 0.0
C1945 C 0.39608 0.79777 0.79831 0.0
C1946 C 0.40985 0.80419 0.78771 0.0
C1947 C 0.40105 0.79151 0.81559 0.0
C1948 C 0.38754 0.78321 0.82703 0.0
C1949 C 0.3745 0.76835 0.81931 0.0
C1950 C 0.36162 0.76076 0.8301 0.0
C1951 C 0.36172 0.76786 0.84868 0.0
C1952 C 0.37473 0.78253 0.85651 0.0
C1953 C 0.38765 0.79016 0.84578 0.0
H1954 H 0.35172 0.76199 0.85701 0.0
H1955 H 0.47731 0.83356 0.75201 0.0
H1956 H 0.52621 0.22228 0.12609 0.0
H1957 H 0.52465 0.19538 0.10459 0.0
H1958 H 0.50198 0.1633 0.14537 0.0
H1959 H 0.50441 0.19035 0.16738 0.0
H1960 H 0.52358 0.14654 0.1302 0.0
H1961 H 0.47643 0.17203 0.10279 0.0
H1962 H 0.46214 0.19573 0.09074 0.0
H1963 H 0.49851 0.20162 0.04914 0.0
H1964 H 0.5131 0.17804 0.06105 0.0
H1965 H 0.49891 0.06857 0.06381 0.0
H1966 H 0.49847 0.0945 0.08603 0.0
H1967 H 0.52653 0.1288 0.05032 0.0
H1968 H 0.52719 0.10282 0.02804 0.0
H1969 H 0.50033 0.14352 0.06323 0.0
H1970 H 0.55024 0.12142 0.0958 0.0
H1971 H 0.56517 0.09935 0.11054 0.0
H1972 H 0.52114 0.08617 0.14235 0.0
H1973 H 0.50634 0.10873 0.12839 0.0
C1974 C 0.52086 0.20951 0.13051 0.0
C1975 C 0.5154 0.20855 0.14849 0.0
C1976 C 0.5198 0.19404 0.11807 0.0
C1977 C 0.51276 0.17709 0.12296 0.0
C1978 C 0.5074 0.17609 0.14104 0.0
C1979 C 0.50878 0.1916 0.15366 0.0
C1980 C 0.51154 0.16052 0.10944 0.0
C1981 C 0.51817 0.14587 0.11565 0.0
C1982 C 0.50477 0.15937 0.09025 0.0
C1983 C 0.49593 0.17339 0.0829 0.0
C1984 C 0.48142 0.17845 0.09113 0.0
C1985 C 0.47326 0.19184 0.08431 0.0
C1986 C 0.47944 0.20021 0.06921 0.0
C1987 C 0.49375 0.19513 0.06084 0.0
C1988 C 0.50194 0.18173 0.06759 0.0
C1989 C 0.50495 0.08162 0.06055 0.0
C1990 C 0.51292 0.08344 0.04386 0.0
C1991 C 0.50484 0.09651 0.07346 0.0
C1992 C 0.51271 0.11376 0.07017 0.0
C1993 C 0.52036 0.1157 0.05333 0.0
C1994 C 0.52057 0.10077 0.04043 0.0
C1995 C 0.51259 0.12975 0.08399 0.0
C1996 C 0.50564 0.14424 0.07782 0.0
C1997 C 0.51879 0.13065 0.10328 0.0
C1998 C 0.52711 0.1165 0.11088 0.0
C1999 C 0.5437 0.11367 0.1058 0.0
C2000 C 0.55217 0.10116 0.11408 0.0
C2001 C 0.54399 0.09116 0.12713 0.0
C2002 C 0.52742 0.09384 0.13215 0.0
C2003 C 0.51906 0.10658 0.12419 0.0
H2004 H 0.55055 0.08145 0.13346 0.0
H2005 H 0.47313 0.2106 0.06397 0.0
H2006 H 0.10283 0.29484 0.36214 0.0
H2007 H 0.12915 0.28829 0.34844 0.0
H2008 H 0.10779 0.30116 0.29511 0.0
H2009 H 0.08083 0.3069 0.30873 0.0
H2010 H 0.12353 0.27511 0.28763 0.0
H2011 H 0.145 0.32964 0.3284 0.0
H2012 H 0.15048 0.34957 0.35811 0.0
H2013 H 0.17917 0.31328 0.38399 0.0
H2014 H 0.17366 0.29303 0.35451 0.0
H2015 H 0.20772 0.27467 0.24947 0.0
H2016 H 0.17979 0.2811 0.26005 0.0
H2017 H 0.1991 0.27442 0.3166 0.0
H2018 H 0.22742 0.26963 0.30619 0.0
H2019 H 0.18382 0.29877 0.321 0.0
H2020 H 0.16237 0.24378 0.28016 0.0
H2021 H 0.15666 0.22378 0.25051 0.0
H2022 H 0.12787 0.26005 0.22476 0.0
H2023 H 0.13369 0.28043 0.25415 0.0
C2024 C 0.10368 0.29642 0.3475 0.0
C2025 C 0.08953 0.30167 0.33674 0.0
C2026 C 0.119 0.29276 0.3396 0.0
C2027 C 0.12115 0.2946 0.32063 0.0
C2028 C 0.10689 0.29965 0.30976 0.0
C2029 C 0.09137 0.30307 0.31763 0.0
C2030 C 0.13805 0.2911 0.31227 0.0
C2031 C 0.13671 0.28049 0.29491 0.0
C2032 C 0.15557 0.29764 0.32156 0.0
C2033 C 0.15877 0.30976 0.33931 0.0
C2034 C 0.15237 0.32586 0.34047 0.0
C2035 C 0.15549 0.33722 0.35726 0.0
C2036 C 0.16513 0.33268 0.37294 0.0
C2037 C 0.17168 0.31678 0.37185 0.0
C2038 C 0.16857 0.30536 0.35511 0.0
C2039 C 0.20594 0.27448 0.26415 0.0
C2040 C 0.22 0.2716 0.27691 0.0
C2041 C 0.18973 0.27802 0.27028 0.0
C2042 C 0.18663 0.27807 0.28932 0.0
C2043 C 0.20068 0.27473 0.30189 0.0
C2044 C 0.21703 0.27183 0.29588 0.0
C2045 C 0.16943 0.28226 0.29655 0.0
C2046 C 0.1707 0.29318 0.31371 0.0
C2047 C 0.1519 0.27589 0.28707 0.0
C2048 C 0.14866 0.26374 0.26932 0.0
C2049 C 0.15497 0.24757 0.26813 0.0
C2050 C 0.15171 0.23617 0.25136 0.0
C2051 C 0.14197 0.24067 0.23574 0.0
C2052 C 0.13547 0.2566 0.23685 0.0
C2053 C 0.13876 0.26809 0.25355 0.0
H2054 H 0.13943 0.2318 0.22279 0.0
H2055 H 0.16755 0.3415 0.38591 0.0
H2056 H 0.96678 0.04543 0.22745 0.0
H2057 H 0.98163 0.05119 0.19943 0.0
H2058 H 0.94345 0.00853 0.16697 0.0
H2059 H 0.92843 1.00285 0.1948 0.0
H2060 H 0.97944 0.00626 0.16433 0.0
H2061 H 0.94084 0.04953 0.15838 0.0
H2062 H 0.92802 0.07544 0.16941 0.0
H2063 H 0.98036 0.10813 0.17905 0.0
H2064 H 0.99349 0.08238 0.16813 0.0
H2065 H 0.01161 0.01162 0.07786 0.0
H2066 H 0.99274 0.00997 0.10284 0.0
H2067 H 0.01497 0.06511 0.12316 0.0
H2068 H 0.02929 0.06788 0.09444 0.0
H2069 H 0.98693 0.06176 0.1336 0.0
H2070 H 0.02655 0.01872 0.14139 0.0
H2071 H 0.03955 0.99315 0.12959 0.0
H2072 H 0.98729 0.96035 0.11877 0.0
H2073 H 0.97401 0.98571 0.13045 0.0
C2074 C 0.96154 0.0373 0.21433 0.0
C2075 C 0.94657 0.02353 0.21339 0.0
C2076 C 0.96993 0.04073 0.1983 0.0
C2077 C 0.96359 0.03035 0.18109 0.0
C2078 C 0.94854 0.01673 0.1801 0.0
C2079 C 0.94002 0.01345 0.19603 0.0
C2080 C 0.97348 0.03259 0.1645 0.0
C2081 C 0.98105 0.01836 0.15751 0.0
C2082 C 0.97601 0.04854 0.15598 0.0
C2083 C 0.96815 0.064 0.16262 0.0
C2084 C 0.94962 0.06221 0.163 0.0
C2085 C 0.9423 0.07688 0.16917 0.0
C2086 C 0.95337 0.09341 0.17499 0.0
C2087 C 0.9718 0.09532 0.17456 0.0
C2088 C 0.97918 0.0807 0.16833 0.0
C2089 C 0.0118 0.02354 0.08724 0.0
C2090 C 0.02141 0.03994 0.08386 0.0
C2091 C 1.00163 0.02243 0.10223 0.0
C2092 C 1.00298 0.03707 0.11602 0.0
C2093 C 0.01346 0.05343 0.11304 0.0
C2094 C 0.02204 0.05498 0.09678 0.0
C2095 C 0.99338 0.03538 0.13323 0.0
C2096 C 0.98578 0.0497 0.14044 0.0
C2097 C 0.99117 0.0196 0.14236 0.0
C2098 C 0.99933 0.00409 0.13673 0.0
C2099 C 0.01788 0.006 0.13663 0.0
C2100 C 0.02528 0.99157 0.1299 0.0
C2101 C 0.01425 0.97515 0.12341 0.0
C2102 C 0.99582 0.97306 0.12383 0.0
C2103 C 0.98836 0.98742 0.13058 0.0
H2104 H 0.01999 0.96404 0.11805 0.0
H2105 H 0.94768 0.10474 0.17979 0.0
H2106 H 0.28384 0.64339 0.48692 0.0
H2107 H 0.28426 0.66136 0.46046 0.0
H2108 H 0.23867 0.68186 0.47777 0.0
H2109 H 0.23855 0.66442 0.50435 0.0
H2110 H 0.2374 0.67067 0.43858 0.0
H2111 H 0.27381 0.70646 0.49151 0.0
H2112 H 0.29827 0.713 0.51741 0.0
H2113 H 0.33646 0.70939 0.47813 0.0
H2114 H 0.31213 0.70248 0.45199 0.0
H2115 H 0.23268 0.75533 0.41562 0.0
H2116 H 0.24423 0.73608 0.43696 0.0
H2117 H 0.27174 0.71436 0.39354 0.0
H2118 H 0.25965 0.73278 0.37181 0.0
H2119 H 0.28606 0.72353 0.44197 0.0
H2120 H 0.2441 0.68806 0.38815 0.0
H2121 H 0.21649 0.68297 0.36617 0.0
H2122 H 0.1857 0.68865 0.41225 0.0
H2123 H 0.2132 0.69413 0.43444 0.0
C2124 C 0.2738 0.65154 0.48474 0.0
C2125 C 0.26122 0.65282 0.49738 0.0
C2126 C 0.2741 0.66174 0.46984 0.0
C2127 C 0.26157 0.67281 0.4675 0.0
C2128 C 0.2484 0.6733 0.47957 0.0
C2129 C 0.24837 0.66347 0.49464 0.0
C2130 C 0.26253 0.68474 0.45307 0.0
C2131 C 0.24817 0.68206 0.43906 0.0
C2132 C 0.27653 0.69961 0.45417 0.0
C2133 C 0.29116 0.70366 0.46983 0.0
C2134 C 0.2874 0.70682 0.48841 0.0
C2135 C 0.30124 0.71065 0.50313 0.0
C2136 C 0.31891 0.71154 0.49942 0.0
C2137 C 0.32276 0.70863 0.48098 0.0
C2138 C 0.30896 0.70475 0.46621 0.0
C2139 C 0.24147 0.74672 0.41075 0.0
C2140 C 0.24496 0.74529 0.39202 0.0
C2141 C 0.2482 0.73596 0.42295 0.0
C2142 C 0.25861 0.7239 0.41654 0.0
C2143 C 0.26374 0.72375 0.39853 0.0
C2144 C 0.25682 0.73432 0.38621 0.0
C2145 C 0.26097 0.70933 0.4274 0.0
C2146 C 0.27577 0.71167 0.44094 0.0
C2147 C 0.24709 0.69434 0.42628 0.0
C2148 C 0.23071 0.69181 0.41288 0.0
C2149 C 0.23148 0.68855 0.39354 0.0
C2150 C 0.21584 0.68551 0.38106 0.0
C2151 C 0.19936 0.68557 0.3878 0.0
C2152 C 0.19848 0.68869 0.40703 0.0
C2153 C 0.21408 0.69179 0.41956 0.0
H2154 H 0.18726 0.68311 0.37812 0.0
H2155 H 0.32961 0.71454 0.51083 0.0
H2156 H 0.66141 0.01668 0.68869 0.0
H2157 H 0.63832 0.00979 0.66172 0.0
H2158 H 0.62145 0.05972 0.67635 0.0
H2159 H 0.64398 0.06623 0.70361 0.0
H2160 H 0.59445 0.03106 0.67322 0.0
H2161 H 0.64366 0.05426 0.63973 0.0
H2162 H 0.67387 0.05495 0.63047 0.0
H2163 H 0.65819 1.00096 0.60437 0.0
H2164 H 0.62797 0.99984 0.61385 0.0
H2165 H 0.54213 0.04844 0.59458 0.0
H2166 H 0.5641 0.04789 0.62136 0.0
H2167 H 0.57205 0.99618 0.59817 0.0
H2168 H 0.55058 0.99686 0.57127 0.0
H2169 H 0.60254 0.02036 0.606 0.0
H2170 H 0.5515 0.99906 0.6365 0.0
H2171 H 0.52139 0.99962 0.64552 0.0
H2172 H 0.5402 0.05126 0.67653 0.0
H2173 H 0.5704 0.05111 0.66751 0.0
C2174 C 0.65311 0.02636 0.68564 0.0
C2175 C 0.65418 0.04192 0.6978 0.0
C2176 C 0.63995 0.02239 0.67048 0.0
C2177 C 0.62829 0.03424 0.66742 0.0
C2178 C 0.63033 0.05043 0.67883 0.0
C2179 C 0.6432 0.0542 0.69412 0.0
C2180 C 0.61325 0.02946 0.65297 0.0
C2181 C 0.59613 0.02875 0.65849 0.0
C2182 C 0.61571 0.02597 0.63402 0.0
C2183 C 0.63364 0.02689 0.62769 0.0
C2184 C 0.64669 0.04251 0.63211 0.0
C2185 C 0.66382 0.04297 0.62684 0.0
C2186 C 0.66797 0.02799 0.6169 0.0
C2187 C 0.65497 0.01254 0.61211 0.0
C2188 C 0.63785 0.01198 0.61744 0.0
C2189 C 0.54842 0.0369 0.59548 0.0
C2190 C 0.54504 0.02282 0.58108 0.0
C2191 C 0.56078 0.03654 0.61066 0.0
C2192 C 0.56936 0.02189 0.61154 0.0
C2193 C 0.5654 0.0075 0.59751 0.0
C2194 C 0.55328 0.00797 0.58225 0.0
C2195 C 0.58378 0.02245 0.6262 0.0
C2196 C 0.60079 0.02228 0.62075 0.0
C2197 C 0.58121 0.02526 0.64521 0.0
C2198 C 0.56322 0.02507 0.65131 0.0
C2199 C 0.54922 0.01055 0.64523 0.0
C2200 C 0.53212 0.0108 0.65032 0.0
C2201 C 0.52888 0.02548 0.66157 0.0
C2202 C 0.54274 0.03989 0.66783 0.0
C2203 C 0.55986 0.03971 0.66278 0.0
H2204 H 0.51562 0.02567 0.66545 0.0
H2205 H 0.68125 0.02836 0.61286 0.0
H2206 H 0.29478 0.38602 0.96762 0.0
H2207 H 0.29429 0.37034 0.93644 0.0
H2208 H 0.28231 0.31986 0.95868 0.0
H2209 H 0.2836 0.33558 0.99009 0.0
H2210 H 0.30608 0.31812 0.93608 0.0
H2211 H 0.25012 0.33836 0.93096 0.0
H2212 H 0.23043 0.3605 0.93304 0.0
H2213 H 0.25833 0.3895 0.89339 0.0
H2214 H 0.27832 0.36766 0.89126 0.0
H2215 H 0.28837 0.26837 0.8447 0.0
H2216 H 0.28748 0.28136 0.87692 0.0
H2217 H 0.29542 0.33401 0.8589 0.0
H2218 H 0.2951 0.32093 0.82671 0.0
H2219 H 0.27157 0.33289 0.87998 0.0
H2220 H 0.32928 0.31542 0.88749 0.0
H2221 H 0.35102 0.29539 0.88712 0.0
H2222 H 0.32089 0.26215 0.92198 0.0
H2223 H 0.29919 0.28238 0.923 0.0
C2224 C 0.29194 0.37158 0.96584 0.0
C2225 C 0.28917 0.36202 0.98129 0.0
C2226 C 0.29155 0.3626 0.94796 0.0
C2227 C 0.28791 0.34385 0.94502 0.0
C2228 C 0.28509 0.3343 0.96049 0.0
C2229 C 0.28579 0.34329 0.97845 0.0
C2230 C 0.28769 0.33422 0.926 0.0
C2231 C 0.29828 0.32116 0.92386 0.0
C2232 C 0.27789 0.33839 0.90989 0.0
C2233 C 0.26579 0.35145 0.91107 0.0
C2234 C 0.25212 0.34952 0.92278 0.0
C2235 C 0.2409 0.36201 0.92395 0.0
C2236 C 0.24315 0.37642 0.91338 0.0
C2237 C 0.2566 0.37834 0.90158 0.0
C2238 C 0.26787 0.3659 0.90037 0.0
C2239 C 0.29008 0.28272 0.84775 0.0
C2240 C 0.29168 0.29365 0.83325 0.0
C2241 C 0.28968 0.29018 0.86619 0.0
C2242 C 0.29152 0.30878 0.87056 0.0
C2243 C 0.29378 0.31965 0.85604 0.0
C2244 C 0.29367 0.31218 0.83761 0.0
C2245 C 0.29034 0.31704 0.88994 0.0
C2246 C 0.27934 0.32978 0.89218 0.0
C2247 C 0.29986 0.31266 0.90613 0.0
C2248 C 0.3125 0.30022 0.90506 0.0
C2249 C 0.3272 0.30373 0.89491 0.0
C2250 C 0.33953 0.29234 0.8946 0.0
C2251 C 0.33719 0.27728 0.90422 0.0
C2252 C 0.32262 0.27373 0.9144 0.0
C2253 C 0.31036 0.28521 0.91494 0.0
H2254 H 0.34675 0.26845 0.9039 0.0
H2255 H 0.23446 0.38608 0.91432 0.0
H2256 H 0.96863 0.03935 0.31015 0.0
H2257 H 0.98384 0.04062 0.34183 0.0
H2258 H 0.94313 0.99776 0.35338 0.0
H2259 H 0.92733 0.99743 0.32225 0.0
H2260 H 0.95069 0.01941 0.3826 0.0
H2261 H 0.98805 0.99328 0.34207 0.0
H2262 H 0.00585 0.99255 0.31542 0.0
H2263 H 0.04063 0.04101 0.34032 0.0
H2264 H 0.02288 0.04214 0.36701 0.0
H2265 H 0.99625 0.99412 0.46246 0.0
H2266 H 0.98276 0.99403 0.43024 0.0
H2267 H 0.02108 0.04114 0.42452 0.0
H2268 H 0.03493 0.04075 0.45662 0.0
H2269 H 0.01546 0.01859 0.39267 0.0
H2270 H 0.9781 0.04393 0.43355 0.0
H2271 H 0.95992 0.0445 0.4599 0.0
H2272 H 0.92493 0.99656 0.43399 0.0
H2273 H 0.94303 0.99559 0.40759 0.0
C2274 C 0.96299 0.03021 0.3195 0.0
C2275 C 0.94687 0.01821 0.31373 0.0
C2276 C 0.97174 0.03085 0.33759 0.0
C2277 C 0.96494 0.01899 0.35005 0.0
C2278 C 0.94875 0.00707 0.34419 0.0
C2279 C 0.93974 0.00681 0.32634 0.0
C2280 C 0.97453 0.01893 0.36914 0.0
C2281 C 0.96481 0.01897 0.38467 0.0
C2282 C 0.99309 0.01882 0.37217 0.0
C2283 C 1.00409 0.01785 0.35646 0.0
C2284 C 0.99948 0.00379 0.34184 0.0
C2285 C 0.00954 1.00331 0.32672 0.0
C2286 C 0.02434 0.01674 0.32616 0.0
C2287 C 0.02916 0.03062 0.34077 0.0
C2288 C 0.01912 0.03118 0.3559 0.0
C2289 C 1.00207 0.0041 0.4541 0.0
C2290 C 0.01687 0.01716 0.46176 0.0
C2291 C 0.99421 0.00424 0.43578 0.0
C2292 C 1.00073 0.01772 0.42493 0.0
C2293 C 0.01581 0.03056 0.43252 0.0
C2294 C 0.02376 0.03032 0.45081 0.0
C2295 C 0.99152 0.01872 0.40595 0.0
C2296 C 1.00134 0.01896 0.3905 0.0
C2297 C 0.97302 0.01893 0.40295 0.0
C2298 C 0.96199 0.01962 0.41868 0.0
C2299 C 0.96658 0.03346 0.43353 0.0
C2300 C 0.95629 0.03386 0.44846 0.0
C2301 C 0.94131 0.02054 0.44865 0.0
C2302 C 0.93655 0.00684 0.43385 0.0
C2303 C 0.9468 0.00638 0.41889 0.0
H2304 H 0.93336 0.02085 0.46023 0.0
H2305 H 0.0321 0.01637 0.31443 0.0
H2306 H 0.24441 0.65082 0.60159 0.0
H2307 H 0.24893 0.675 0.62747 0.0
H2308 H 0.3055 0.68518 0.62271 0.0
H2309 H 0.30097 0.66124 0.59688 0.0
H2310 H 0.29605 0.68431 0.65902 0.0
H2311 H 0.2826 0.71074 0.60212 0.0
H2312 H 0.26503 0.71523 0.57308 0.0
H2313 H 0.2212 0.72275 0.60383 0.0
H2314 H 0.23844 0.71814 0.633 0.0
H2315 H 0.31372 0.76427 0.7188 0.0
H2316 H 0.3139 0.74368 0.69082 0.0
H2317 H 0.2564 0.73722 0.68036 0.0
H2318 H 0.25653 0.75902 0.70727 0.0
H2319 H 0.26933 0.73769 0.64978 0.0
H2320 H 0.27945 0.70676 0.7053 0.0
H2321 H 0.29513 0.69974 0.73431 0.0
H2322 H 0.34254 0.69904 0.70725 0.0
H2323 H 0.32705 0.70589 0.67804 0.0
C2324 C 0.25782 0.65783 0.60672 0.0
C2325 C 0.27246 0.6544 0.59784 0.0
C2326 C 0.26031 0.67171 0.62105 0.0
C2327 C 0.27743 0.68182 0.62635 0.0
C2328 C 0.29222 0.67744 0.61841 0.0
C2329 C 0.2897 0.66376 0.60401 0.0
C2330 C 0.28012 0.69706 0.64031 0.0
C2331 C 0.29038 0.69611 0.65706 0.0
C2332 C 0.27243 0.71209 0.6374 0.0
C2333 C 0.26173 0.71385 0.61968 0.0
C2334 C 0.26912 0.71307 0.60262 0.0
C2335 C 0.25924 0.71574 0.58616 0.0
C2336 C 0.24199 0.71922 0.5866 0.0
C2337 C 0.23454 0.72001 0.60349 0.0
C2338 C 0.24436 0.71738 0.61999 0.0
C2339 C 0.30126 0.75855 0.7102 0.0
C2340 C 0.28505 0.76261 0.71488 0.0
C2341 C 0.30134 0.74684 0.69446 0.0
C2342 C 0.28513 0.7387 0.68403 0.0
C2343 C 0.26903 0.74345 0.68836 0.0
C2344 C 0.26905 0.75576 0.70359 0.0
C2345 C 0.28463 0.72467 0.66896 0.0
C2346 C 0.27502 0.72592 0.65182 0.0
C2347 C 0.29255 0.70969 0.67165 0.0
C2348 C 0.30219 0.70705 0.68962 0.0
C2349 C 0.29329 0.70535 0.70565 0.0
C2350 C 0.30212 0.7013 0.72208 0.0
C2351 C 0.31986 0.69902 0.72263 0.0
C2352 C 0.32883 0.70085 0.7068 0.0
C2353 C 0.32003 0.70477 0.69031 0.0
H2354 H 0.32668 0.69576 0.73527 0.0
H2355 H 0.2344 0.72136 0.57385 0.0
H2356 H 0.67251 0.06729 0.81234 0.0
H2357 H 0.65427 0.06892 0.83836 0.0
H2358 H 0.61848 0.02087 0.81273 0.0
H2359 H 0.6362 0.01954 0.78661 0.0
H2360 H 0.60174 0.04849 0.82131 0.0
H2361 H 0.64882 0.02075 0.85071 0.0
H2362 H 0.68075 0.0217 0.86045 0.0
H2363 H 0.68347 0.07077 0.8956 0.0
H2364 H 0.65161 0.07024 0.88584 0.0
H2365 H 0.54305 0.03789 0.88852 0.0
H2366 H 0.56506 0.02841 0.86893 0.0
H2367 H 0.60576 0.07082 0.89873 0.0
H2368 H 0.58386 0.07973 0.91817 0.0
H2369 H 0.62085 0.04549 0.88837 0.0
H2370 H 0.57735 0.07618 0.85987 0.0
H2371 H 0.54731 0.08068 0.84837 0.0
H2372 H 0.53966 0.03279 0.81013 0.0
H2373 H 0.56949 0.02776 0.82177 0.0
C2374 C 0.66092 0.05695 0.81257 0.0
C2375 C 0.6556 0.04327 0.79773 0.0
C2376 C 0.65058 0.0579 0.8273 0.0
C2377 C 0.6352 0.04494 0.8273 0.0
C2378 C 0.63034 0.03095 0.8128 0.0
C2379 C 0.64044 0.03018 0.79801 0.0
C2380 C 0.62335 0.04621 0.84176 0.0
C2381 C 0.60576 0.04756 0.83596 0.0
C2382 C 0.62906 0.04577 0.8608 0.0
C2383 C 0.64787 0.04546 0.86752 0.0
C2384 C 0.65624 0.03172 0.86054 0.0
C2385 C 0.67432 0.03221 0.86603 0.0
C2386 C 0.68414 0.04629 0.87863 0.0
C2387 C 0.67585 0.05987 0.88586 0.0
C2388 C 0.65778 0.05946 0.88037 0.0
C2389 C 0.55679 0.04487 0.89085 0.0
C2390 C 0.56208 0.05976 0.90425 0.0
C2391 C 0.56931 0.03944 0.87989 0.0
C2392 C 0.58687 0.04924 0.88215 0.0
C2393 C 0.59228 0.06316 0.89669 0.0
C2394 C 0.57988 0.06838 0.90762 0.0
C2395 C 0.5989 0.04717 0.86787 0.0
C2396 C 0.61664 0.04602 0.87369 0.0
C2397 C 0.59349 0.0484 0.84882 0.0
C2398 C 0.57552 0.05143 0.84192 0.0
C2399 C 0.56919 0.06651 0.84915 0.0
C2400 C 0.5522 0.06916 0.84261 0.0
C2401 C 0.54155 0.05699 0.82858 0.0
C2402 C 0.54788 0.04216 0.82106 0.0
C2403 C 0.5648 0.03938 0.82766 0.0
H2404 H 0.52842 0.05908 0.8235 0.0
H2405 H 0.69816 0.04668 0.88281 0.0
H2406 H 0.27697 0.33813 0.06798 0.0
H2407 H 0.27071 0.32279 0.09542 0.0
H2408 H 0.28944 0.37221 0.13123 0.0
H2409 H 0.29576 0.38768 0.10372 0.0
H2410 H 0.30348 0.34542 0.1444 0.0
H2411 H 0.24488 0.3542 0.12335 0.0
H2412 H 0.21825 0.35281 0.10078 0.0
H2413 H 0.21115 0.29569 0.0926 0.0
H2414 H 0.23786 0.29674 0.11498 0.0
H2415 H 0.25864 0.31309 0.22448 0.0
H2416 H 0.26156 0.32884 0.19664 0.0
H2417 H 0.27648 0.28318 0.16725 0.0
H2418 H 0.27561 0.26811 0.19551 0.0
H2419 H 0.24492 0.3087 0.15153 0.0
H2420 H 0.30623 0.30098 0.17069 0.0
H2421 H 0.33363 0.30365 0.19243 0.0
H2422 H 0.33672 0.36018 0.20255 0.0
H2423 H 0.30862 0.35773 0.18186 0.0
C2424 C 0.27978 0.34576 0.08169 0.0
C2425 C 0.28699 0.36413 0.08365 0.0
C2426 C 0.27604 0.33698 0.09738 0.0
C2427 C 0.27941 0.34634 0.11543 0.0
C2428 C 0.28666 0.36469 0.11745 0.0
C2429 C 0.29031 0.37352 0.10172 0.0
C2430 C 0.2762 0.33679 0.13222 0.0
C2431 C 0.2906 0.33757 0.14603 0.0
C2432 C 0.25948 0.32625 0.13426 0.0
C2433 C 0.24347 0.32557 0.12072 0.0
C2434 C 0.23773 0.34135 0.11662 0.0
C2435 C 0.2226 0.34062 0.10389 0.0
C2436 C 0.21304 0.32418 0.09523 0.0
C2437 C 0.21858 0.30842 0.09931 0.0
C2438 C 0.2337 0.30907 0.11204 0.0
C2439 C 0.26256 0.30635 0.21212 0.0
C2440 C 0.26686 0.28923 0.21238 0.0
C2441 C 0.26422 0.31541 0.19621 0.0
C2442 C 0.26956 0.30731 0.18 0.0
C2443 C 0.27269 0.28982 0.17975 0.0
C2444 C 0.27189 0.28109 0.1959 0.0
C2445 C 0.27227 0.31724 0.16349 0.0
C2446 C 0.25776 0.31658 0.14984 0.0
C2447 C 0.28892 0.32787 0.16152 0.0
C2448 C 0.30496 0.32907 0.17515 0.0
C2449 C 0.31233 0.31388 0.17806 0.0
C2450 C 0.32812 0.31537 0.19002 0.0
C2451 C 0.33699 0.33206 0.19869 0.0
C2452 C 0.32986 0.34726 0.19578 0.0
C2453 C 0.3139 0.34579 0.1841 0.0
H2454 H 0.34929 0.33319 0.20782 0.0
H2455 H 0.20133 0.32365 0.08538 0.0
H2456 H 0.23207 0.91989 0.01306 0.0
H2457 H 0.20876 0.93674 0.01957 0.0
H2458 H 0.23777 0.98217 0.9974 0.0
H2459 H 0.26147 0.96559 0.99141 0.0
H2460 H 0.22648 0.98997 0.03173 0.0
H2461 H 0.20219 0.95711 0.97127 0.0
H2462 H 0.19508 0.92869 0.95056 0.0
H2463 H 0.15911 0.90629 0.9878 0.0
H2464 H 0.16619 0.93452 0.00888 0.0
H2465 H 0.15777 0.03806 0.04186 0.0
H2466 H 0.1783 0.02371 0.02423 0.0
H2467 H 0.15351 0.97247 0.03872 0.0
H2468 H 0.13298 0.98677 0.05601 0.0
H2469 H 0.16326 0.96916 0.00485 0.0
H2470 H 0.18786 0.99888 0.06607 0.0
H2471 H 0.19846 0.02349 0.09138 0.0
H2472 H 0.2363 0.04863 0.05748 0.0
H2473 H 0.22559 0.02443 0.03175 0.0
C2474 C 0.23329 0.93338 0.00935 0.0
C2475 C 0.2483 0.94155 0.00166 0.0
C2476 C 0.22009 0.94293 0.01308 0.0
C2477 C 0.22165 0.96047 0.00865 0.0
C2478 C 0.23651 0.96857 0.00076 0.0
C2479 C 0.24987 0.95912 0.9973 0.0
C2480 C 0.20787 0.97054 0.01267 0.0
C2481 C 0.21269 0.98582 0.02555 0.0
C2482 C 0.19001 0.96441 0.00496 0.0
C2483 C 0.18463 0.94795 0.99158 0.0
C2484 C 0.19267 0.94615 0.97497 0.0
C2485 C 0.18871 0.93006 0.96321 0.0
C2486 C 0.17663 0.91571 0.96785 0.0
C2487 C 0.16841 0.91745 0.9842 0.0
C2488 C 0.17235 0.93351 0.99603 0.0
C2489 C 0.15651 0.02369 0.04072 0.0
C2490 C 0.14422 0.01334 0.05029 0.0
C2491 C 0.16815 0.01558 0.03078 0.0
C2492 C 0.1675 0.99718 0.03059 0.0
C2493 C 0.15417 0.98672 0.03884 0.0
C2494 C 0.14259 0.99481 0.04875 0.0
C2495 C 0.18181 0.98896 0.02384 0.0
C2496 C 0.1771 0.97381 0.01059 0.0
C2497 C 0.19981 0.99503 0.03157 0.0
C2498 C 0.2056 0.01003 0.04678 0.0
C2499 C 0.19818 0.00982 0.06385 0.0
C2500 C 0.20427 0.02368 0.07831 0.0
C2501 C 0.21797 0.03767 0.076 0.0
C2502 C 0.2256 0.03785 0.05921 0.0
C2503 C 0.21948 0.02411 0.04466 0.0
H2504 H 0.22273 0.04833 0.08725 0.0
H2505 H 0.17364 0.90323 0.95877 0.0
H2506 H 0.70374 0.66417 0.01558 0.0
H2507 H 0.67479 0.64411 0.01421 0.0
H2508 H 0.69753 0.60025 0.99154 0.0
H2509 H 0.72641 0.62018 0.99288 0.0
H2510 H 0.66413 0.59975 0.97369 0.0
H2511 H 0.6923 0.60483 0.03703 0.0
H2512 H 0.70704 0.62108 0.0672 0.0
H2513 H 0.66064 0.64399 0.07477 0.0
H2514 H 0.64572 0.62806 0.0445 0.0
H2515 H 0.60195 0.5309 0.01757 0.0
H2516 H 0.62986 0.5503 0.01287 0.0
H2517 H 0.60047 0.59047 0.99687 0.0
H2518 H 0.57262 0.57065 0.99941 0.0
H2519 H 0.63694 0.59234 0.03274 0.0
H2520 H 0.61011 0.58911 0.96697 0.0
H2521 H 0.59631 0.57291 0.93654 0.0
H2522 H 0.64137 0.54705 0.93283 0.0
H2523 H 0.65506 0.56253 0.96375 0.0
C2524 C 0.70251 0.65029 0.01016 0.0
C2525 C 0.71737 0.64375 0.00443 0.0
C2526 C 0.68599 0.63882 0.00943 0.0
C2527 C 0.68402 0.62062 0.00292 0.0
C2528 C 0.69871 0.61421 0.99662 0.0
C2529 C 0.71523 0.62562 0.99748 0.0
C2530 C 0.66689 0.60808 0.00335 0.0
C2531 C 0.65823 0.59809 0.98662 0.0
C2532 C 0.6591 0.60593 0.02017 0.0
C2533 C 0.66797 0.6154 0.03843 0.0
C2534 C 0.6853 0.61344 0.04507 0.0
C2535 C 0.69367 0.62257 0.06219 0.0
C2536 C 0.6848 0.6336 0.07287 0.0
C2537 C 0.6675 0.63547 0.06647 0.0
C2538 C 0.65908 0.62638 0.04934 0.0
C2539 C 0.60132 0.54356 0.01243 0.0
C2540 C 0.58484 0.54895 0.00865 0.0
C2541 C 0.61733 0.5547 0.00984 0.0
C2542 C 0.61719 0.57162 0.00395 0.0
C2543 C 0.60088 0.5772 0.00064 0.0
C2544 C 0.58491 0.56583 0.00238 0.0
C2545 C 0.63412 0.58419 0.0031 0.0
C2546 C 0.6428 0.59409 0.01981 0.0
C2547 C 0.64185 0.58632 0.98624 0.0
C2548 C 0.63328 0.57647 0.96804 0.0
C2549 C 0.6168 0.57952 0.96002 0.0
C2550 C 0.60905 0.57057 0.94259 0.0
C2551 C 0.61787 0.55881 0.93283 0.0
C2552 C 0.63446 0.55601 0.94049 0.0
C2553 C 0.64216 0.5648 0.95802 0.0
H2554 H 0.61192 0.552 0.91927 0.0
H2555 H 0.69131 0.64066 0.08613 0.0
H2556 H 0.63644 0.47721 0.27558 0.0
H2557 H 0.65305 0.45279 0.27201 0.0
H2558 H 0.70265 0.4906 0.28473 0.0
H2559 H 0.68623 0.51498 0.28787 0.0
H2560 H 0.70271 0.46903 0.25397 0.0
H2561 H 0.68606 0.46207 0.31631 0.0
H2562 H 0.66529 0.45696 0.3401 0.0
H2563 H 0.64001 0.4068 0.3091 0.0
H2564 H 0.66047 0.41174 0.28499 0.0
H2565 H 0.76383 0.41301 0.25835 0.0
H2566 H 0.74614 0.43415 0.27078 0.0
H2567 H 0.69835 0.39385 0.25725 0.0
H2568 H 0.71622 0.37257 0.24536 0.0
H2569 H 0.69623 0.41552 0.2881 0.0
H2570 H 0.71174 0.4216 0.22611 0.0
H2571 H 0.7319 0.42558 0.20162 0.0
H2572 H 0.75776 0.47661 0.23025 0.0
H2573 H 0.73802 0.47276 0.25516 0.0
C2574 C 0.65088 0.48025 0.27773 0.0
C2575 C 0.66007 0.49796 0.28191 0.0
C2576 C 0.66034 0.46631 0.27581 0.0
C2577 C 0.67906 0.46991 0.27826 0.0
C2578 C 0.6882 0.48756 0.28278 0.0
C2579 C 0.6788 0.50147 0.28456 0.0
C2580 C 0.68934 0.45557 0.27497 0.0
C2581 C 0.70148 0.45747 0.26165 0.0
C2582 C 0.68717 0.44015 0.28444 0.0
C2583 C 0.67466 0.43738 0.29875 0.0
C2584 C 0.67595 0.45005 0.31447 0.0
C2585 C 0.66425 0.44716 0.32803 0.0
C2586 C 0.6513 0.43159 0.32609 0.0
C2587 C 0.65002 0.41887 0.31058 0.0
C2588 C 0.66166 0.42171 0.29696 0.0
C2589 C 0.74963 0.40864 0.25857 0.0
C2590 C 0.74117 0.39149 0.25078 0.0
C2591 C 0.73956 0.42064 0.26558 0.0
C2592 C 0.72092 0.41564 0.26441 0.0
C2593 C 0.7127 0.39796 0.2581 0.0
C2594 C 0.72283 0.38589 0.25127 0.0
C2595 C 0.70992 0.42932 0.26756 0.0
C2596 C 0.69751 0.42718 0.28057 0.0
C2597 C 0.71164 0.44446 0.25763 0.0
C2598 C 0.7235 0.44681 0.24261 0.0
C2599 C 0.72182 0.43361 0.22728 0.0
C2600 C 0.73318 0.43584 0.21331 0.0
C2601 C 0.74613 0.45132 0.2144 0.0
C2602 C 0.74775 0.46461 0.22945 0.0
C2603 C 0.73649 0.4624 0.2435 0.0
H2604 H 0.75488 0.45304 0.20355 0.0
H2605 H 0.64229 0.42936 0.33663 0.0
H2606 H 0.83849 0.44609 0.47191 0.0
H2607 H 0.86894 0.46329 0.47384 0.0
H2608 H 0.87669 0.45839 0.53308 0.0
H2609 H 0.84623 0.44112 0.53108 0.0
H2610 H 0.88356 0.49382 0.52196 0.0
H2611 H 0.89601 0.43428 0.50646 0.0
H2612 H 0.89103 0.40533 0.48682 0.0
H2613 H 0.90507 0.43197 0.43922 0.0
H2614 H 0.90987 0.46112 0.45853 0.0
H2615 H 0.97448 0.53342 0.53756 0.0
H2616 H 0.94583 0.51336 0.53755 0.0
H2617 H 0.9409 0.50444 0.477 0.0
H2618 H 0.97049 0.52211 0.47745 0.0
H2619 H 0.93263 0.47495 0.48974 0.0
H2620 H 0.919 0.53342 0.50143 0.0
H2621 H 0.92301 0.56366 0.51821 0.0
H2622 H 0.90922 0.54146 0.56839 0.0
H2623 H 0.90547 0.51107 0.552 0.0
C2624 C 0.84692 0.44863 0.4852 0.0
C2625 C 0.84065 0.44259 0.50138 0.0
C2626 C 0.86407 0.45827 0.48628 0.0
C2627 C 0.87468 0.46178 0.50357 0.0
C2628 C 0.86841 0.45554 0.51971 0.0
C2629 C 0.8513 0.44579 0.51858 0.0
C2630 C 0.89207 0.47288 0.50501 0.0
C2631 C 0.89447 0.48974 0.5152 0.0
C2632 C 0.90565 0.46744 0.49542 0.0
C2633 C 0.90318 0.44988 0.48392 0.0
C2634 C 0.89793 0.43397 0.49179 0.0
C2635 C 0.89515 0.41753 0.48071 0.0
C2636 C 0.8977 0.41682 0.46177 0.0
C2637 C 0.90309 0.43255 0.45389 0.0
C2638 C 0.90587 0.44903 0.4649 0.0
C2639 C 0.96741 0.52663 0.52448 0.0
C2640 C 0.97447 0.52869 0.5076 0.0
C2641 C 0.95101 0.51562 0.52438 0.0
C2642 C 0.94143 0.50763 0.50724 0.0
C2643 C 0.94828 0.51045 0.49032 0.0
C2644 C 0.96493 0.52072 0.49055 0.0
C2645 C 0.92427 0.49606 0.50673 0.0
C2646 C 0.92183 0.47911 0.49664 0.0
C2647 C 0.91044 0.50168 0.51585 0.0
C2648 C 0.91208 0.51997 0.52553 0.0
C2649 C 0.91689 0.53499 0.51606 0.0
C2650 C 0.91913 0.55216 0.52551 0.0
C2651 C 0.9164 0.55448 0.54436 0.0
C2652 C 0.91135 0.53964 0.55379 0.0
C2653 C 0.90915 0.52244 0.54443 0.0
H2654 H 0.91818 0.56778 0.55166 0.0
H2655 H 0.89551 0.40407 0.45322 0.0
H2656 H 0.34398 0.04994 0.30832 0.0
H2657 H 0.32711 0.072 0.29758 0.0
H2658 H 0.37293 0.09756 0.27329 0.0
H2659 H 0.38998 0.0759 0.28436 0.0
H2660 H 0.35931 0.11987 0.29596 0.0
H2661 H 0.33852 0.07438 0.24492 0.0
H2662 H 0.32555 0.04422 0.22932 0.0
H2663 H 0.27682 0.04622 0.25347 0.0
H2664 H 0.28956 0.07633 0.26941 0.0
H2665 H 0.3191 0.17193 0.23553 0.0
H2666 H 0.33558 0.15358 0.25377 0.0
H2667 H 0.28728 0.13154 0.27626 0.0
H2668 H 0.27076 0.14993 0.25781 0.0
H2669 H 0.30116 0.10696 0.25602 0.0
H2670 H 0.32409 0.15394 0.30703 0.0
H2671 H 0.33941 0.18341 0.32279 0.0
H2672 H 0.38628 0.17817 0.29623 0.0
H2673 H 0.37122 0.14874 0.28028 0.0
C2674 C 0.35046 0.06048 0.30096 0.0
C2675 C 0.36824 0.06162 0.29741 0.0
C2676 C 0.34078 0.07275 0.29457 0.0
C2677 C 0.34885 0.08599 0.28447 0.0
C2678 C 0.36664 0.08723 0.28104 0.0
C2679 C 0.37638 0.07513 0.28762 0.0
C2680 C 0.33932 0.09976 0.27924 0.0
C2681 C 0.34669 0.11718 0.28701 0.0
C2682 C 0.32274 0.09578 0.26801 0.0
C2683 C 0.31508 0.07757 0.25854 0.0
C2684 C 0.3251 0.06833 0.24707 0.0
C2685 C 0.31777 0.05126 0.23812 0.0
C2686 C 0.30039 0.04329 0.24045 0.0
C2687 C 0.29029 0.0524 0.2517 0.0
C2688 C 0.29755 0.06948 0.26067 0.0
C2689 C 0.3122 0.16334 0.24465 0.0
C2690 C 0.29379 0.16166 0.24506 0.0
C2691 C 0.32158 0.15318 0.25526 0.0
C2692 C 0.31254 0.14135 0.2663 0.0
C2693 C 0.29436 0.14074 0.26782 0.0
C2694 C 0.28498 0.15099 0.25724 0.0
C2695 C 0.32114 0.12725 0.27282 0.0
C2696 C 0.31366 0.10968 0.26516 0.0
C2697 C 0.33787 0.13109 0.2838 0.0
C2698 C 0.34645 0.14927 0.29232 0.0
C2699 C 0.33756 0.15922 0.30434 0.0
C2700 C 0.34624 0.17586 0.31339 0.0
C2701 C 0.36379 0.18268 0.31047 0.0
C2702 C 0.37269 0.1729 0.29846 0.0
C2703 C 0.3641 0.15624 0.28944 0.0
H2704 H 0.3705 0.19553 0.31755 0.0
H2705 H 0.29474 0.03008 0.2335 0.0
H2706 H 0.29406 0.12143 0.50684 0.0
H2707 H 0.31843 0.10518 0.51204 0.0
H2708 H 0.35604 0.15495 0.52375 0.0
H2709 H 0.33169 0.17134 0.51821 0.0
H2710 H 0.36867 0.13129 0.50169 0.0
H2711 H 0.34341 0.13138 0.55965 0.0
H2712 H 0.31963 0.12698 0.58037 0.0
H2713 H 0.30682 0.07121 0.56008 0.0
H2714 H 0.33043 0.07532 0.53911 0.0
H2715 H 0.43959 0.09528 0.54451 0.0
H2716 H 0.4165 0.11146 0.53414 0.0
H2717 H 0.37744 0.06254 0.52734 0.0
H2718 H 0.40055 0.04673 0.53937 0.0
H2719 H 0.36584 0.08655 0.54709 0.0
H2720 H 0.39182 0.08732 0.48848 0.0
H2721 H 0.4168 0.0926 0.46933 0.0
H2722 H 0.42932 0.14765 0.49246 0.0
H2723 H 0.40445 0.14266 0.51179 0.0
C2724 C 0.30753 0.12892 0.5104 0.0
C2725 C 0.31099 0.14765 0.51209 0.0
C2726 C 0.32142 0.11962 0.51351 0.0
C2727 C 0.33899 0.12887 0.51857 0.0
C2728 C 0.34255 0.14757 0.51991 0.0
C2729 C 0.32865 0.1569 0.5167 0.0
C2730 C 0.35363 0.11893 0.52221 0.0
C2731 C 0.36815 0.12161 0.51174 0.0
C2732 C 0.35284 0.10619 0.53517 0.0
C2733 C 0.33856 0.1037 0.54768 0.0
C2734 C 0.33542 0.11821 0.5595 0.0
C2735 C 0.322 0.11576 0.57132 0.0
C2736 C 0.31169 0.09884 0.5715 0.0
C2737 C 0.31481 0.08432 0.55991 0.0
C2738 C 0.32822 0.08669 0.54808 0.0
C2739 C 0.42614 0.088 0.54038 0.0
C2740 C 0.42172 0.06992 0.54275 0.0
C2741 C 0.41294 0.09718 0.53427 0.0
C2742 C 0.39517 0.08824 0.52979 0.0
C2743 C 0.39104 0.06975 0.53074 0.0
C2744 C 0.40423 0.06066 0.53734 0.0
C2745 C 0.3807 0.09846 0.52614 0.0
C2746 C 0.36628 0.09602 0.53683 0.0
C2747 C 0.38166 0.11151 0.51348 0.0
C2748 C 0.39634 0.1146 0.50159 0.0
C2749 C 0.39993 0.10053 0.48948 0.0
C2750 C 0.41405 0.10348 0.4786 0.0
C2751 C 0.42464 0.12045 0.47969 0.0
C2752 C 0.42109 0.13453 0.49161 0.0
C2753 C 0.40695 0.13166 0.50248 0.0
H2754 H 0.4356 0.12269 0.47128 0.0
H2755 H 0.3013 0.09697 0.58066 0.0
H2756 H 0.64451 0.60535 0.28343 0.0
H2757 H 0.66439 0.63434 0.28465 0.0
H2758 H 0.70946 0.61075 0.30211 0.0
H2759 H 0.68969 0.58179 0.30092 0.0
H2760 H 0.71118 0.64329 0.32186 0.0
H2761 H 0.70151 0.61807 0.25748 0.0
H2762 H 0.6836 0.60461 0.22771 0.0
H2763 H 0.66045 0.65147 0.22474 0.0
H2764 H 0.67803 0.66511 0.25469 0.0
H2765 H 0.77854 0.70744 0.28274 0.0
H2766 H 0.75895 0.67964 0.28696 0.0
H2767 H 0.71677 0.70843 0.297 0.0
H2768 H 0.73659 0.73634 0.29448 0.0
H2769 H 0.71374 0.67375 0.26433 0.0
H2770 H 0.7233 0.69849 0.32973 0.0
H2771 H 0.74131 0.71127 0.35963 0.0
H2772 H 0.76482 0.66449 0.36071 0.0
H2773 H 0.74732 0.65166 0.33047 0.0
C2774 C 0.65863 0.60639 0.28767 0.0
C2775 C 0.66554 0.59129 0.29199 0.0
C2776 C 0.66999 0.62294 0.28829 0.0
C2777 C 0.68846 0.62469 0.2933 0.0
C2778 C 0.69528 0.60973 0.29819 0.0
C2779 C 0.68396 0.59317 0.29743 0.0
C2780 C 0.70075 0.64195 0.29287 0.0
C2781 C 0.71184 0.64987 0.30924 0.0
C2782 C 0.70148 0.65067 0.27646 0.0
C2783 C 0.69094 0.64253 0.25843 0.0
C2784 C 0.69248 0.62545 0.25057 0.0
C2785 C 0.68241 0.61779 0.23365 0.0
C2786 C 0.67086 0.62716 0.22437 0.0
C2787 C 0.66939 0.64422 0.23197 0.0
C2788 C 0.6794 0.65192 0.24891 0.0
C2789 C 0.76537 0.70806 0.28644 0.0
C2790 C 0.75947 0.72442 0.28864 0.0
C2791 C 0.75409 0.69206 0.2887 0.0
C2792 C 0.7365 0.69204 0.29255 0.0
C2793 C 0.73042 0.7082 0.2944 0.0
C2794 C 0.74187 0.72421 0.29292 0.0
C2795 C 0.72405 0.67505 0.29331 0.0
C2796 C 0.71301 0.66717 0.27695 0.0
C2797 C 0.72338 0.66638 0.30971 0.0
C2798 C 0.73433 0.67432 0.32757 0.0
C2799 C 0.73262 0.69111 0.33609 0.0
C2800 C 0.74266 0.69832 0.35316 0.0
C2801 C 0.75429 0.68876 0.362 0.0
C2802 C 0.75589 0.67195 0.35379 0.0
C2803 C 0.74595 0.66472 0.33665 0.0
H2804 H 0.76198 0.69432 0.37527 0.0
H2805 H 0.66308 0.62121 0.21126 0.0
H2806 H 0.85144 0.47475 0.81845 0.0
H2807 H 0.83436 0.44448 0.81681 0.0
H2808 H 0.8656 0.42659 0.77464 0.0
H2809 H 0.88297 0.45692 0.77639 0.0
H2810 H 0.8265 0.42064 0.76582 0.0
H2811 H 0.87325 0.414 0.8132 0.0
H2812 H 0.89253 0.42437 0.84294 0.0
H2813 H 0.84654 0.41892 0.87293 0.0
H2814 H 0.82691 0.40888 0.8433 0.0
H2815 H 0.80826 0.3251 0.78113 0.0
H2816 H 0.82366 0.35505 0.7775 0.0
H2817 H 0.77931 0.37638 0.79678 0.0
H2818 H 0.76258 0.34629 0.79659 0.0
H2819 H 0.82372 0.38107 0.8164 0.0
H2820 H 0.77677 0.3906 0.77033 0.0
H2821 H 0.75639 0.38247 0.74116 0.0
H2822 H 0.80116 0.38688 0.70935 0.0
H2823 H 0.82183 0.39329 0.73852 0.0
C2824 C 0.85476 0.46425 0.80905 0.0
C2825 C 0.86825 0.46778 0.79745 0.0
C2826 C 0.84514 0.44715 0.8082 0.0
C2827 C 0.84897 0.43372 0.79564 0.0
C2828 C 0.86277 0.43708 0.78442 0.0
C2829 C 0.8726 0.45417 0.78548 0.0
C2830 C 0.83755 0.41646 0.7933 0.0
C2831 C 0.82599 0.41177 0.77668 0.0
C2832 C 0.83673 0.40569 0.80802 0.0
C2833 C 0.84859 0.4108 0.82598 0.0
C2834 C 0.86723 0.41508 0.82612 0.0
C2835 C 0.87822 0.42092 0.84296 0.0
C2836 C 0.87076 0.42234 0.85981 0.0
C2837 C 0.85229 0.41782 0.85986 0.0
C2838 C 0.84123 0.41204 0.84304 0.0
C2839 C 0.80115 0.336 0.78237 0.0
C2840 C 0.78392 0.33352 0.78752 0.0
C2841 C 0.81006 0.35306 0.78098 0.0
C2842 C 0.80209 0.36756 0.78609 0.0
C2843 C 0.78502 0.36515 0.79168 0.0
C2844 C 0.77567 0.34808 0.79175 0.0
C2845 C 0.81291 0.3851 0.78873 0.0
C2846 C 0.82429 0.3899 0.8055 0.0
C2847 C 0.81333 0.39615 0.77429 0.0
C2848 C 0.80088 0.39169 0.75672 0.0
C2849 C 0.78231 0.389 0.75722 0.0
C2850 C 0.77067 0.38476 0.74064 0.0
C2851 C 0.77745 0.38386 0.72339 0.0
C2852 C 0.79589 0.3872 0.72272 0.0
C2853 C 0.80758 0.39093 0.73929 0.0
H2854 H 0.76843 0.38078 0.71054 0.0
H2855 H 0.87929 0.42692 0.87283 0.0
H2856 H 0.07836 0.84654 0.08142 0.0
H2857 H 0.07793 0.87696 0.07304 0.0
H2858 H 0.02612 0.87469 0.09193 0.0
H2859 H 0.02681 0.84472 0.10087 0.0
H2860 H 0.02679 0.88839 0.05785 0.0
H2861 H 0.06305 0.90063 0.1171 0.0
H2862 H 0.08842 0.90061 0.14083 0.0
H2863 H 0.12483 0.92436 0.10472 0.0
H2864 H 0.0997 0.92427 0.08064 0.0
H2865 H 0.01721 0.97927 0.05119 0.0
H2866 H 0.01889 0.9498 0.06068 0.0
H2867 H 0.07533 0.95926 0.05613 0.0
H2868 H 0.07375 0.98909 0.04739 0.0
H2869 H 0.07273 0.94147 0.08276 0.0
H2870 H 0.03761 0.92877 0.02302 0.0
H2871 H 0.01273 0.92936 0.99886 0.0
H2872 H 0.9752 0.90608 0.03415 0.0
H2873 H 0.99982 0.90566 0.05867 0.0
C2874 C 0.06684 0.85246 0.08379 0.0
C2875 C 0.05257 0.84274 0.09182 0.0
C2876 C 0.06663 0.87008 0.07906 0.0
C2877 C 0.05197 0.87866 0.08175 0.0
C2878 C 0.03767 0.86881 0.08955 0.0
C2879 C 0.03808 0.85145 0.0947 0.0
C2880 C 0.05117 0.89745 0.07613 0.0
C2881 C 0.03681 0.89998 0.06352 0.0
C2882 C 0.06431 0.91294 0.08286 0.0
C2883 C 0.07949 0.91217 0.09693 0.0
C2884 C 0.07648 0.90557 0.11408 0.0
C2885 C 0.09082 0.90566 0.12764 0.0
C2886 C 0.10823 0.91241 0.12426 0.0
C2887 C 0.11135 0.91907 0.1073 0.0
C2888 C 0.09706 0.91899 0.09368 0.0
C2889 C 0.03002 0.97512 0.05199 0.0
C2890 C 0.04527 0.98693 0.04807 0.0
C2891 C 0.03099 0.95793 0.0574 0.0
C2892 C 0.04721 0.95139 0.05883 0.0
C2893 C 0.0625 0.96335 0.0552 0.0
C2894 C 0.06157 0.98064 0.05003 0.0
C2895 C 0.04836 0.93249 0.06427 0.0
C2896 C 0.06275 0.92992 0.07691 0.0
C2897 C 0.03538 0.91688 0.05734 0.0
C2898 C 0.02055 0.91737 0.04276 0.0
C2899 C 0.02404 0.92392 0.0257 0.0
C2900 C 0.00999 0.92421 0.01193 0.0
C2901 C 0.9924 0.91777 0.01498 0.0
C2902 C 0.98883 0.91108 0.03182 0.0
C2903 C 1.00282 0.91083 0.04566 0.0
H2904 H 0.98155 0.91794 0.00428 0.0
H2905 H 0.11931 0.91254 0.13481 0.0
H2906 H 0.94121 0.2799 0.92602 0.0
H2907 H 0.9132 0.28364 0.90898 0.0
H2908 H 0.92768 0.25801 0.85844 0.0
H2909 H 0.95623 0.25528 0.87535 0.0
H2910 H 0.91323 0.28202 0.84784 0.0
H2911 H 0.89247 0.23961 0.88954 0.0
H2912 H 0.88809 0.22767 0.91962 0.0
H2913 H 0.86366 0.27171 0.93737 0.0
H2914 H 0.86815 0.28408 0.90753 0.0
H2915 H 0.82546 0.26633 0.79613 0.0
H2916 H 0.85337 0.26314 0.81403 0.0
H2917 H 0.84351 0.29953 0.85932 0.0
H2918 H 0.81629 0.30366 0.84083 0.0
H2919 H 0.85492 0.27046 0.87296 0.0
H2920 H 0.87532 0.31243 0.83163 0.0
H2921 H 0.87967 0.32479 0.80178 0.0
H2922 H 0.9045 0.28118 0.78352 0.0
H2923 H 0.90003 0.26839 0.81315 0.0
C2924 C 0.93842 0.27494 0.91128 0.0
C2925 C 0.95119 0.26718 0.90221 0.0
C2926 C 0.92214 0.27695 0.90145 0.0
C2927 C 0.91762 0.27082 0.88219 0.0
C2928 C 0.93041 0.26296 0.87318 0.0
C2929 C 0.94687 0.26129 0.88294 0.0
C2930 C 0.90014 0.27316 0.87126 0.0
C2931 C 0.90051 0.27907 0.85335 0.0
C2932 C 0.8832 0.27011 0.87827 0.0
C2933 C 0.88085 0.26288 0.89638 0.0
C2934 C 0.88633 0.24685 0.89993 0.0
C2935 C 0.8838 0.23998 0.91693 0.0
C2936 C 0.87566 0.24895 0.93042 0.0
C2937 C 0.87001 0.2648 0.92694 0.0
C2938 C 0.87255 0.27175 0.90999 0.0
C2939 C 0.82933 0.27392 0.80974 0.0
C2940 C 0.8182 0.2851 0.81694 0.0
C2941 C 0.84536 0.27197 0.82014 0.0
C2942 C 0.85088 0.28103 0.83828 0.0
C2943 C 0.83972 0.29215 0.84555 0.0
C2944 C 0.82384 0.29431 0.835 0.0
C2945 C 0.86814 0.27891 0.84956 0.0
C2946 C 0.86769 0.27318 0.8675 0.0
C2947 C 0.88499 0.28203 0.8426 0.0
C2948 C 0.88712 0.28933 0.82451 0.0
C2949 C 0.88148 0.30534 0.82115 0.0
C2950 C 0.88402 0.31245 0.80429 0.0
C2951 C 0.8923 0.30375 0.79073 0.0
C2952 C 0.89804 0.28789 0.794 0.0
C2953 C 0.8955 0.2807 0.81082 0.0
H2954 H 0.89433 0.30932 0.77772 0.0
H2955 H 0.87367 0.24359 0.94354 0.0
H2956 H 0.56415 0.2289 0.61167 0.0
H2957 H 0.55986 0.19676 0.60244 0.0
H2958 H 0.52121 0.20118 0.5566 0.0
H2959 H 0.52573 0.2337 0.56572 0.0
H2960 H 0.50979 0.17077 0.57498 0.0
H2961 H 0.5631 0.19455 0.54871 0.0
H2962 H 0.59345 0.21206 0.54939 0.0
H2963 H 0.61319 0.18116 0.59044 0.0
H2964 H 0.58289 0.16361 0.59018 0.0
H2965 H 0.50286 0.0807 0.53401 0.0
H2966 H 0.50624 0.11301 0.54087 0.0
H2967 H 0.55648 0.11459 0.57418 0.0
H2968 H 0.55371 0.08235 0.56573 0.0
H2969 H 0.56139 0.14266 0.56179 0.0
H2970 H 0.50996 0.11942 0.59024 0.0
H2971 H 0.48001 0.10242 0.5929 0.0
H2972 H 0.45688 0.13172 0.55235 0.0
H2973 H 0.48674 0.14871 0.54921 0.0
C2974 C 0.55478 0.22318 0.59951 0.0
C2975 C 0.54548 0.23432 0.58943 0.0
C2976 C 0.55232 0.20457 0.59418 0.0
C2977 C 0.54025 0.19605 0.57862 0.0
C2978 C 0.53067 0.20708 0.56864 0.0
C2979 C 0.53337 0.22586 0.57381 0.0
C2980 C 0.53794 0.17587 0.57285 0.0
C2981 C 0.52106 0.1647 0.57183 0.0
C2982 C 0.55254 0.16736 0.56933 0.0
C2983 C 0.57072 0.17789 0.56954 0.0
C2984 C 0.57389 0.19159 0.55799 0.0
C2985 C 0.59109 0.2015 0.55828 0.0
C2986 C 0.60523 0.19775 0.56999 0.0
C2987 C 0.60222 0.18406 0.5814 0.0
C2988 C 0.58504 0.17412 0.58118 0.0
C2989 C 0.51468 0.08793 0.54277 0.0
C2990 C 0.52796 0.07866 0.5493 0.0
C2991 C 0.51654 0.10663 0.547 0.0
C2992 C 0.53138 0.11692 0.55877 0.0
C2993 C 0.54476 0.10754 0.56515 0.0
C2994 C 0.54319 0.08888 0.56033 0.0
C2995 C 0.53317 0.13722 0.56403 0.0
C2996 C 0.55 0.14852 0.56495 0.0
C2997 C 0.51854 0.14574 0.56793 0.0
C2998 C 0.50061 0.13528 0.56943 0.0
C2999 C 0.49851 0.12215 0.58178 0.0
C3000 C 0.48155 0.11253 0.58339 0.0
C3001 C 0.46657 0.11606 0.57289 0.0
C3002 C 0.46851 0.12905 0.56054 0.0
C3003 C 0.48545 0.13868 0.55884 0.0
H3004 H 0.45345 0.10878 0.57443 0.0
H3005 H 0.61854 0.20543 0.57018 0.0
H3006 H 0.54253 0.78236 0.38418 0.0
H3007 H 0.57049 0.78415 0.37015 0.0
H3008 H 0.59062 0.75398 0.4121 0.0
H3009 H 0.56315 0.75364 0.4271 0.0
H3010 H 0.61738 0.77545 0.40522 0.0
H3011 H 0.57226 0.73609 0.36246 0.0
H3012 H 0.54288 0.7281 0.34343 0.0
H3013 H 0.5572 0.77179 0.31144 0.0
H3014 H 0.58657 0.78016 0.33043 0.0
H3015 H 0.69107 0.76537 0.3528 0.0
H3016 H 0.66385 0.75811 0.36819 0.0
H3017 H 0.63688 0.78788 0.33062 0.0
H3018 H 0.66374 0.79438 0.31494 0.0
H3019 H 0.61372 0.7627 0.33624 0.0
H3020 H 0.6587 0.80273 0.38057 0.0
H3021 H 0.68718 0.81137 0.40115 0.0
H3022 H 0.67303 0.76609 0.43099 0.0
H3023 H 0.6446 0.75702 0.4104 0.0
C3024 C 0.55289 0.77605 0.39038 0.0
C3025 C 0.55039 0.76759 0.4066 0.0
C3026 C 0.56896 0.77694 0.38224 0.0
C3027 C 0.58278 0.7686 0.38944 0.0
C3028 C 0.58036 0.76042 0.40594 0.0
C3029 C 0.56451 0.76012 0.41449 0.0
C3030 C 0.59948 0.76829 0.37968 0.0
C3031 C 0.61649 0.77241 0.39015 0.0
C3032 C 0.59878 0.7644 0.35995 0.0
C3033 C 0.58156 0.75876 0.34788 0.0
C3034 C 0.56914 0.74394 0.35132 0.0
C3035 C 0.55248 0.73939 0.34058 0.0
C3036 C 0.54817 0.74944 0.32625 0.0
C3037 C 0.56056 0.76401 0.32254 0.0
C3038 C 0.57722 0.76864 0.33325 0.0
C3039 C 0.67912 0.76981 0.34745 0.0
C3040 C 0.67955 0.78019 0.33236 0.0
C3041 C 0.66356 0.766 0.35655 0.0
C3042 C 0.6481 0.77282 0.35111 0.0
C3043 C 0.6484 0.78243 0.3354 0.0
C3044 C 0.66382 0.78608 0.32626 0.0
C3045 C 0.63172 0.77052 0.36165 0.0
C3046 C 0.61468 0.7657 0.35133 0.0
C3047 C 0.63247 0.77366 0.38152 0.0
C3048 C 0.64963 0.77907 0.39378 0.0
C3049 C 0.66173 0.79454 0.39142 0.0
C3050 C 0.67786 0.79952 0.4031 0.0
C3051 C 0.68194 0.78925 0.41733 0.0
C3052 C 0.66989 0.774 0.41993 0.0
C3053 C 0.65377 0.76892 0.40825 0.0
H3054 H 0.69442 0.79315 0.42637 0.0
H3055 H 0.53523 0.74595 0.318 0.0
H3056 H 0.05748 0.27057 0.4137 0.0
H3057 H 0.05806 0.24271 0.42771 0.0
H3058 H 0.02191 0.2137 0.38105 0.0
H3059 H 0.02141 0.24149 0.36694 0.0
H3060 H 0.01129 0.20316 0.4129 0.0
H3061 H 0.06608 0.2092 0.3865 0.0
H3062 H 0.09576 0.22374 0.37976 0.0
H3063 H 0.11501 0.22984 0.4383 0.0
H3064 H 0.08536 0.21548 0.4454 0.0
H3065 H 0.01524 0.11667 0.43532 0.0
H3066 H 0.02181 0.1429 0.41855 0.0
H3067 H 0.05215 0.17254 0.46854 0.0
H3068 H 0.04536 0.14619 0.48545 0.0
H3069 H 0.06671 0.18237 0.43448 0.0
H3070 H 0.0107 0.17621 0.46013 0.0
H3071 H 0.98092 0.16078 0.46558 0.0
H3072 H 0.96388 0.15439 0.40651 0.0
H3073 H 0.9937 0.16951 0.40068 0.0
C3074 C 0.04962 0.25827 0.40641 0.0
C3075 C 0.03929 0.25843 0.38919 0.0
C3076 C 0.05008 0.24224 0.41439 0.0
C3077 C 0.04013 0.22583 0.4055 0.0
C3078 C 0.02975 0.22601 0.38833 0.0
C3079 C 0.02946 0.242 0.38024 0.0
C3080 C 0.03992 0.2087 0.41441 0.0
C3081 C 0.02346 0.19857 0.41733 0.0
C3082 C 0.0557 0.20256 0.42063 0.0
C3083 C 0.07345 0.21146 0.4165 0.0
C3084 C 0.07659 0.21381 0.39796 0.0
C3085 C 0.09342 0.22197 0.39406 0.0
C3086 C 0.10725 0.22776 0.4086 0.0
C3087 C 0.10428 0.22537 0.42706 0.0
C3088 C 0.08747 0.21721 0.43102 0.0
C3089 C 0.02402 0.1285 0.44254 0.0
C3090 C 0.03008 0.12907 0.4617 0.0
C3091 C 0.02757 0.14366 0.43297 0.0
C3092 C 0.0373 0.15998 0.44223 0.0
C3093 C 0.04463 0.16022 0.46096 0.0
C3094 C 0.04094 0.14502 0.47061 0.0
C3095 C 0.03808 0.17696 0.43297 0.0
C3096 C 0.05459 0.18702 0.43001 0.0
C3097 C 0.02234 0.18302 0.42653 0.0
C3098 C 1.00447 0.1738 0.42996 0.0
C3099 C 1.00066 0.17135 0.44829 0.0
C3100 C 0.98376 0.16269 0.45145 0.0
C3101 C 0.97053 0.15657 0.4364 0.0
C3102 C 0.97416 0.15911 0.41815 0.0
C3103 C 0.99105 0.16772 0.41491 0.0
H3104 H 0.95744 0.14991 0.43888 0.0
H3105 H 0.12028 0.23405 0.40556 0.0
H3106 H 0.58238 0.28356 0.18742 0.0
H3107 H 0.61446 0.2878 0.19638 0.0
H3108 H 0.60577 0.24808 0.23453 0.0
H3109 H 0.5733 0.24451 0.22618 0.0
H3110 H 0.63208 0.27069 0.25047 0.0
H3111 H 0.6232 0.24371 0.18601 0.0
H3112 H 0.61386 0.24102 0.15202 0.0
H3113 H 0.6467 0.29188 0.14871 0.0
H3114 H 0.65606 0.29498 0.18269 0.0
H3115 H 0.72323 0.25733 0.26123 0.0
H3116 H 0.69093 0.25461 0.25377 0.0
H3117 H 0.69978 0.29827 0.2204 0.0
H3118 H 0.7321 0.30087 0.22771 0.0
H3119 H 0.67381 0.27427 0.20213 0.0
H3120 H 0.68336 0.30185 0.26472 0.0
H3121 H 0.69301 0.30662 0.29867 0.0
H3122 H 0.65959 0.25707 0.30564 0.0
H3123 H 0.6499 0.25188 0.27167 0.0
C3124 C 0.58718 0.27567 0.19778 0.0
C3125 C 0.57484 0.26359 0.20592 0.0
C3126 C 0.60584 0.27797 0.2028 0.0
C3127 C 0.61328 0.26793 0.21586 0.0
C3128 C 0.60091 0.25606 0.22432 0.0
C3129 C 0.58212 0.25396 0.2195 0.0
C3130 C 0.63366 0.26996 0.22083 0.0
C3131 C 0.64104 0.27109 0.23973 0.0
C3132 C 0.64609 0.27135 0.20726 0.0
C3133 C 0.64017 0.26965 0.18692 0.0
C3134 C 0.6283 0.25439 0.17805 0.0
C3135 C 0.62303 0.25278 0.15879 0.0
C3136 C 0.62964 0.26629 0.14822 0.0
C3137 C 0.64155 0.28144 0.1569 0.0
C3138 C 0.64684 0.28313 0.17616 0.0
C3139 C 0.71843 0.26622 0.25209 0.0
C3140 C 0.73074 0.27912 0.24494 0.0
C3141 C 0.6997 0.26483 0.24799 0.0
C3142 C 0.69235 0.27628 0.23649 0.0
C3143 C 0.70465 0.28912 0.22925 0.0
C3144 C 0.72337 0.29062 0.23351 0.0
C3145 C 0.67209 0.27464 0.23166 0.0
C3146 C 0.66479 0.2737 0.21283 0.0
C3147 C 0.65979 0.27362 0.24528 0.0
C3148 C 0.66608 0.27636 0.2656 0.0
C3149 C 0.67824 0.29185 0.27345 0.0
C3150 C 0.68368 0.29466 0.29271 0.0
C3151 C 0.67696 0.28213 0.3043 0.0
C3152 C 0.66481 0.26674 0.29664 0.0
C3153 C 0.65934 0.26386 0.27738 0.0
H3154 H 0.68113 0.28436 0.31922 0.0
H3155 H 0.62557 0.265 0.13331 0.0
H3156 H 0.55114 0.87397 0.87219 0.0
H3157 H 0.5477 0.90235 0.88908 0.0
H3158 H 0.52921 0.87452 0.9346 0.0
H3159 H 0.53273 0.84624 0.91783 0.0
H3160 H 0.5088 0.89872 0.92784 0.0
H3161 H 0.57203 0.90076 0.93678 0.0
H3162 H 0.60188 0.90011 0.92706 0.0
H3163 H 0.59864 0.9454 0.89712 0.0
H3164 H 0.56861 0.94612 0.9064 0.0
H3165 H 0.51317 0.97307 0.99661 0.0
H3166 H 0.5167 0.94572 0.97844 0.0
H3167 H 0.54139 0.97651 0.93787 0.0
H3168 H 0.53883 0.00411 0.95671 0.0
H3169 H 0.55819 0.95108 0.94074 0.0
H3170 H 0.49568 0.94996 0.93162 0.0
H3171 H 0.46543 0.95077 0.94013 0.0
H3172 H 0.46643 0.90424 0.96859 0.0
H3173 H 0.49682 0.90333 0.96054 0.0
C3174 C 0.54647 0.87387 0.88586 0.0
C3175 C 0.54242 0.85759 0.89358 0.0
C3176 C 0.54451 0.89023 0.89562 0.0
C3177 C 0.53829 0.89097 0.91344 0.0
C3178 C 0.53405 0.87466 0.92101 0.0
C3179 C 0.5362 0.85836 0.91137 0.0
C3180 C 0.53614 0.90852 0.92416 0.0
C3181 C 0.51973 0.91006 0.93083 0.0
C3182 C 0.55002 0.92383 0.92777 0.0
C3183 C 0.568 0.92335 0.92209 0.0
C3184 C 0.57761 0.91047 0.92797 0.0
C3185 C 0.59457 0.9101 0.92256 0.0
C3186 C 0.60213 0.92267 0.91143 0.0
C3187 C 0.59275 0.93565 0.9057 0.0
C3188 C 0.57576 0.93604 0.91103 0.0
C3189 C 0.51955 0.9742 0.98395 0.0
C3190 C 0.52574 0.99119 0.97842 0.0
C3191 C 0.52133 0.9583 0.97326 0.0
C3192 C 0.52904 0.95856 0.95628 0.0
C3193 C 0.53532 0.97553 0.95076 0.0
C3194 C 0.53373 0.99149 0.96159 0.0
C3195 C 0.53084 0.94132 0.94461 0.0
C3196 C 0.5472 0.93982 0.93773 0.0
C3197 C 0.51682 0.9261 0.94063 0.0
C3198 C 0.49861 0.9267 0.94565 0.0
C3199 C 0.48952 0.94 0.93984 0.0
C3200 C 0.47233 0.94046 0.94457 0.0
C3201 C 0.46403 0.92759 0.95494 0.0
C3202 C 0.47289 0.91422 0.96059 0.0
C3203 C 0.4901 0.91373 0.95596 0.0
H3204 H 0.45071 0.92796 0.95856 0.0
H3205 H 0.61527 0.92238 0.90727 0.0
H3206 H 0.97558 0.76751 0.73419 0.0
H3207 H 0.9457 0.76902 0.7432 0.0
H3208 H 0.92223 0.74561 0.6878 0.0
H3209 H 0.95197 0.74452 0.67874 0.0
H3210 H 0.90374 0.76841 0.69638 0.0
H3211 H 0.91977 0.7229 0.73095 0.0
H3212 H 0.93814 0.70858 0.75259 0.0
H3213 H 0.93533 0.74865 0.79744 0.0
H3214 H 0.91707 0.7633 0.77599 0.0
H3215 H 0.81329 0.74654 0.72072 0.0
H3216 H 0.84327 0.74521 0.71203 0.0
H3217 H 0.86655 0.77878 0.76272 0.0
H3218 H 0.8366 0.78043 0.77131 0.0
H3219 H 0.88471 0.75062 0.75657 0.0
H3220 H 0.86682 0.79499 0.72007 0.0
H3221 H 0.84753 0.80719 0.6973 0.0
H3222 H 0.85259 0.766 0.65458 0.0
H3223 H 0.87172 0.7534 0.67719 0.0
C3224 C 0.96409 0.76257 0.72392 0.0
C3225 C 0.96658 0.7558 0.70566 0.0
C3226 C 0.94675 0.76333 0.72915 0.0
C3227 C 0.93106 0.75724 0.71641 0.0
C3228 C 0.93366 0.75051 0.69817 0.0
C3229 C 0.95092 0.7498 0.69296 0.0
C3230 C 0.91216 0.75808 0.72178 0.0
C3231 C 0.89968 0.76424 0.70949 0.0
C3232 C 0.90621 0.75294 0.73892 0.0
C3233 C 0.91726 0.74431 0.75183 0.0
C3234 C 0.9232 0.72873 0.7454 0.0
C3235 C 0.93356 0.72054 0.75763 0.0
C3236 C 0.93795 0.72774 0.77637 0.0
C3237 C 0.93194 0.74311 0.78292 0.0
C3238 C 0.92158 0.75136 0.77073 0.0
C3239 C 0.82473 0.75367 0.73011 0.0
C3240 C 0.82212 0.76355 0.74687 0.0
C3241 C 0.84207 0.75297 0.72503 0.0
C3242 C 0.85766 0.7619 0.73657 0.0
C3243 C 0.85507 0.77165 0.75339 0.0
C3244 C 0.83773 0.77263 0.75832 0.0
C3245 C 0.87648 0.76102 0.73124 0.0
C3246 C 0.88887 0.7548 0.7435 0.0
C3247 C 0.88222 0.76577 0.71391 0.0
C3248 C 0.87054 0.77315 0.70037 0.0
C3249 C 0.86367 0.78843 0.70587 0.0
C3250 C 0.8528 0.79544 0.69298 0.0
C3251 C 0.8488 0.78735 0.67451 0.0
C3252 C 0.85568 0.77224 0.66889 0.0
C3253 C 0.86654 0.76516 0.68174 0.0
H3254 H 0.84041 0.79282 0.66455 0.0
H3255 H 0.94597 0.72137 0.78582 0.0
H3256 H 0.1158 0.01221 0.8421 0.0
H3257 H 0.10665 0.01251 0.87367 0.0
H3258 H 0.09682 0.06592 0.87145 0.0
H3259 H 0.10588 0.06565 0.83968 0.0
H3260 H 0.11399 0.06121 0.90693 0.0
H3261 H 0.06291 0.03306 0.86443 0.0
H3262 H 0.04649 0.01153 0.83833 0.0
H3263 H 0.05592 0.96808 0.86887 0.0
H3264 H 0.07275 0.98937 0.89501 0.0
H3265 H 0.05504 0.06053 0.97928 0.0
H3266 H 0.06713 0.06189 0.94912 0.0
H3267 H 0.08239 0.01086 0.95358 0.0
H3268 H 0.07112 0.00995 0.98441 0.0
H3269 H 0.06297 0.01499 0.91744 0.0
H3270 H 0.11313 0.04328 0.96066 0.0
H3271 H 0.12948 0.06482 0.98674 0.0
H3272 H 0.1218 0.10817 0.95532 0.0
H3273 H 0.10493 0.08689 0.9292 0.0
C3274 C 0.11161 0.02401 0.84824 0.0
C3275 C 0.11132 0.03879 0.83812 0.0
C3276 C 0.10644 0.02419 0.8664 0.0
C3277 C 0.10091 0.0392 0.87507 0.0
C3278 C 0.10102 0.05416 0.86518 0.0
C3279 C 0.10604 0.05392 0.8469 0.0
C3280 C 0.09415 0.03879 0.89395 0.0
C3281 C 0.1027 0.05124 0.90915 0.0
C3282 C 0.0796 0.02563 0.89713 0.0
C3283 C 0.06926 0.0128 0.88158 0.0
C3284 C 0.06161 0.01891 0.86551 0.0
C3285 C 0.05222 0.00675 0.85072 0.0
C3286 C 0.0502 0.98844 0.85192 0.0
C3287 C 0.05753 0.98227 0.86795 0.0
C3288 C 0.067 0.99437 0.88275 0.0
C3289 C 0.06112 0.04966 0.9739 0.0
C3290 C 0.06239 0.03524 0.98434 0.0
C3291 C 0.06803 0.05046 0.95664 0.0
C3292 C 0.0758 0.03653 0.94904 0.0
C3293 C 0.0766 0.02184 0.95919 0.0
C3294 C 0.07024 0.02135 0.97683 0.0
C3295 C 0.08287 0.03727 0.93042 0.0
C3296 C 0.07429 0.02494 0.91525 0.0
C3297 C 0.09736 0.05056 0.92734 0.0
C3298 C 0.10753 0.06346 0.94302 0.0
C3299 C 0.1147 0.05741 0.95937 0.0
C3300 C 0.12412 0.06958 0.97416 0.0
C3301 C 0.12668 0.08786 0.97269 0.0
C3302 C 0.11979 0.094 0.95644 0.0
C3303 C 0.11028 0.08188 0.94164 0.0
H3304 H 0.13399 0.09726 0.98415 0.0
H3305 H 0.04292 0.97905 0.84045 0.0
H3306 H 0.79135 0.42572 0.56439 0.0
H3307 H 0.78914 0.41441 0.59481 0.0
H3308 H 0.78941 0.36128 0.56905 0.0
H3309 H 0.79127 0.37238 0.53866 0.0
H3310 H 0.76157 0.36276 0.58888 0.0
H3311 H 0.82477 0.38434 0.59582 0.0
H3312 H 0.8517 0.40727 0.59585 0.0
H3313 H 0.83605 0.43877 0.64154 0.0
H3314 H 0.80877 0.41618 0.64152 0.0
H3315 H 0.79064 0.31187 0.65675 0.0
H3316 H 0.78142 0.32807 0.6312 0.0
H3317 H 0.77918 0.37316 0.67098 0.0
H3318 H 0.78817 0.3566 0.69664 0.0
H3319 H 0.804 0.38064 0.64666 0.0
H3320 H 0.7413 0.35436 0.64029 0.0
H3321 H 0.71466 0.33045 0.63716 0.0
H3322 H 0.73183 0.30521 0.58825 0.0
H3323 H 0.75858 0.32889 0.59115 0.0
C3324 C 0.79111 0.41167 0.56532 0.0
C3325 C 0.79122 0.3998 0.54929 0.0
C3326 C 0.7899 0.40529 0.58263 0.0
C3327 C 0.78901 0.38707 0.58398 0.0
C3328 C 0.78991 0.37538 0.56811 0.0
C3329 C 0.79097 0.3817 0.55083 0.0
C3330 C 0.78599 0.37977 0.60163 0.0
C3331 C 0.77085 0.36658 0.60156 0.0
C3332 C 0.79791 0.3853 0.61811 0.0
C3333 C 0.81458 0.39867 0.61851 0.0
C3334 C 0.82697 0.39622 0.60578 0.0
C3335 C 0.84232 0.40916 0.6058 0.0
C3336 C 0.84555 0.4245 0.61864 0.0
C3337 C 0.83349 0.4269 0.63156 0.0
C3338 C 0.81808 0.41403 0.63155 0.0
C3339 C 0.78744 0.32495 0.66002 0.0
C3340 C 0.79041 0.33328 0.67847 0.0
C3341 C 0.78208 0.33417 0.64547 0.0
C3342 C 0.77973 0.35185 0.64924 0.0
C3343 C 0.78093 0.35952 0.66785 0.0
C3344 C 0.78604 0.35013 0.68244 0.0
C3345 C 0.77977 0.36306 0.6338 0.0
C3346 C 0.79443 0.37709 0.6342 0.0
C3347 C 0.76769 0.35794 0.61736 0.0
C3348 C 0.75197 0.34335 0.61602 0.0
C3349 C 0.73947 0.34361 0.62899 0.0
C3350 C 0.72432 0.33013 0.62721 0.0
C3351 C 0.72157 0.31631 0.61254 0.0
C3352 C 0.73397 0.31592 0.59961 0.0
C3353 C 0.74909 0.32938 0.60129 0.0
H3354 H 0.70982 0.30591 0.61117 0.0
H3355 H 0.85742 0.43452 0.61862 0.0
H3356 H 0.42173 0.04893 0.35601 0.0
H3357 H 0.43554 0.04792 0.38786 0.0
H3358 H 0.42377 0.99028 0.37927 0.0
H3359 H 0.40899 0.99137 0.34788 0.0
H3360 H 0.4201 1.00328 0.41472 0.0
H3361 H 0.46323 0.01089 0.3707 0.0
H3362 H 0.47679 0.02519 0.34502 0.0
H3363 H 0.49068 0.0752 0.38012 0.0
H3364 H 0.47695 0.06124 0.40592 0.0
H3365 H 0.49612 0.99489 0.47928 0.0
H3366 H 0.47614 0.99271 0.45013 0.0
H3367 H 0.47196 0.04796 0.46236 0.0
H3368 H 0.49121 0.04996 0.49192 0.0
H3369 H 0.48361 0.0339 0.42502 0.0
H3370 H 0.43992 0.02534 0.46917 0.0
H3371 H 0.42502 0.01069 0.49384 0.0
H3372 H 0.41216 0.96117 0.45786 0.0
H3373 H 0.42744 0.97544 0.43312 0.0
C3374 C 0.4221 0.03616 0.36113 0.0
C3375 C 0.41493 0.02023 0.34986 0.0
C3376 C 0.42975 0.03555 0.37915 0.0
C3377 C 0.43084 0.01901 0.38549 0.0
C3378 C 0.42296 1.00309 0.37443 0.0
C3379 C 0.41481 0.00372 0.35662 0.0
C3380 C 0.44186 0.01839 0.4028 0.0
C3381 C 0.43404 0.00976 0.41699 0.0
C3382 C 0.45998 0.02683 0.40539 0.0
C3383 C 0.46901 0.03504 0.3902 0.0
C3384 C 0.46917 0.02494 0.37293 0.0
C3385 C 0.47686 0.03299 0.35835 0.0
C3386 C 0.48458 0.05109 0.36093 0.0
C3387 C 0.4847 0.06117 0.37814 0.0
C3388 C 0.477 0.05319 0.39276 0.0
C3389 C 0.49083 0.00648 0.47561 0.0
C3390 C 0.4948 0.02254 0.48749 0.0
C3391 C 0.47946 0.00519 0.45925 0.0
C3392 C 0.47267 0.02014 0.45461 0.0
C3393 C 0.47706 0.03633 0.46619 0.0
C3394 C 0.48793 0.03746 0.48285 0.0
C3395 C 0.46171 0.01922 0.43705 0.0
C3396 C 0.46968 0.02736 0.42272 0.0
C3397 C 0.44385 0.01012 0.43432 0.0
C3398 C 0.43506 1.00141 0.44937 0.0
C3399 C 0.43419 0.01126 0.46661 0.0
C3400 C 0.42559 1.00304 0.48058 0.0
C3401 C 0.4176 0.98502 0.4774 0.0
C3402 C 0.41832 0.97514 0.46029 0.0
C3403 C 0.42699 0.98328 0.4463 0.0
H3404 H 0.41091 0.97869 0.48821 0.0
H3405 H 0.49047 0.05732 0.34961 0.0
H3406 H 0.78538 0.72569 0.06379 0.0
H3407 H 0.78876 0.73726 0.09716 0.0
H3408 H 0.76987 0.68424 0.11093 0.0
H3409 H 0.76632 0.67277 0.07781 0.0
H3410 H 0.75376 0.70582 0.12925 0.0
H3411 H 0.81472 0.70614 0.12185 0.0
H3412 H 0.84299 0.71296 0.10808 0.0
H3413 H 0.84434 0.76903 0.12113 0.0
H3414 H 0.81594 0.76254 0.13481 0.0
H3415 H 0.77842 0.72345 0.22908 0.0
H3416 H 0.77757 0.71261 0.19577 0.0
H3417 H 0.78447 0.76667 0.18211 0.0
H3418 H 0.78455 0.77749 0.21535 0.0
H3419 H 0.80765 0.74496 0.16415 0.0
H3420 H 0.74434 0.74369 0.16633 0.0
H3421 H 0.71464 0.73624 0.17688 0.0
H3422 H 0.71908 0.68102 0.17433 0.0
H3423 H 0.74843 0.68807 0.16254 0.0
C3424 C 0.78199 0.7165 0.07394 0.0
C3425 C 0.77545 0.69828 0.06796 0.0
C3426 C 0.78406 0.72312 0.09312 0.0
C3427 C 0.77969 0.71169 0.10687 0.0
C3428 C 0.77332 0.69347 0.10082 0.0
C3429 C 0.7713 0.68688 0.08175 0.0
C3430 C 0.78077 0.71864 0.12734 0.0
C3431 C 0.76573 0.71412 0.13683 0.0
C3432 C 0.79614 0.72985 0.13752 0.0
C3433 C 0.8131 0.73385 0.12915 0.0
C3434 C 0.82095 0.71993 0.12162 0.0
C3435 C 0.83702 0.72373 0.11388 0.0
C3436 C 0.84543 0.74142 0.11368 0.0
C3437 C 0.83779 0.75533 0.12127 0.0
C3438 C 0.82172 0.7516 0.12904 0.0
C3439 C 0.7797 0.73303 0.21897 0.0
C3440 C 0.78155 0.75135 0.22493 0.0
C3441 C 0.7792 0.72681 0.19988 0.0
C3442 C 0.78103 0.73877 0.18624 0.0
C3443 C 0.78306 0.75711 0.19222 0.0
C3444 C 0.78302 0.7633 0.21125 0.0
C3445 C 0.78064 0.73206 0.16583 0.0
C3446 C 0.79579 0.73658 0.15645 0.0
C3447 C 0.7655 0.72065 0.15571 0.0
C3448 C 0.74861 0.71644 0.16394 0.0
C3449 C 0.73905 0.73 0.16824 0.0
C3450 C 0.72224 0.72583 0.17432 0.0
C3451 C 0.71513 0.70822 0.17675 0.0
C3452 C 0.72467 0.69468 0.17266 0.0
C3453 C 0.7413 0.69872 0.16606 0.0
H3454 H 0.70214 0.70506 0.18161 0.0
H3455 H 0.85788 0.74434 0.10769 0.0
H3456 H 0.09096 0.05161 0.73329 0.0
H3457 H 0.08028 0.05035 0.70005 0.0
H3458 H 0.11468 0.01332 0.68626 0.0
H3459 H 0.12638 0.01579 0.7194 0.0
H3460 H 0.11519 0.03242 0.66038 0.0
H3461 H 0.06525 1.00156 0.68607 0.0
H3462 H 0.04345 0.99775 0.70902 0.0
H3463 H 0.02351 0.04376 0.69313 0.0
H3464 H 0.04533 0.04793 0.6702 0.0
H3465 H 0.07199 0.00844 0.56667 0.0
H3466 H 0.0831 0.00843 0.59945 0.0
H3467 H 0.05315 0.04896 0.61528 0.0
H3468 H 0.04108 0.04815 0.58249 0.0
H3469 H 0.05063 0.02667 0.63981 0.0
H3470 H 0.10226 0.05585 0.61272 0.0
H3471 H 0.12488 0.05772 0.59053 0.0
H3472 H 0.14169 0.01109 0.609 0.0
H3473 H 0.11904 0.00882 0.63113 0.0
C3474 C 0.09613 0.04309 0.72317 0.0
C3475 C 0.10939 0.03366 0.7291 0.0
C3476 C 0.08992 0.04225 0.70404 0.0
C3477 C 0.09618 0.03134 0.69024 0.0
C3478 C 0.10945 0.02186 0.69629 0.0
C3479 C 0.11608 0.02317 0.71536 0.0
C3480 C 0.08908 0.02996 0.66965 0.0
C3481 C 0.10102 0.03092 0.65596 0.0
C3482 C 0.07061 0.02805 0.66341 0.0
C3483 C 0.05695 0.0251 0.67651 0.0
C3484 C 0.05619 0.01084 0.68747 0.0
C3485 C 0.04386 0.00864 0.70049 0.0
C3486 C 0.03212 0.02052 0.70255 0.0
C3487 C 0.03261 0.03456 0.69151 0.0
C3488 C 0.04492 0.03683 0.67847 0.0
C3489 C 0.06776 0.01746 0.57705 0.0
C3490 C 0.0558 0.0286 0.5716 0.0
C3491 C 0.0743 0.01753 0.59597 0.0
C3492 C 0.0695 0.02906 0.61018 0.0
C3493 C 0.05733 0.03999 0.6048 0.0
C3494 C 0.05049 0.03967 0.58588 0.0
C3495 C 0.07675 0.02947 0.63057 0.0
C3496 C 0.0648 0.0282 0.64423 0.0
C3497 C 0.09518 0.03064 0.6367 0.0
C3498 C 0.10886 0.03209 0.62346 0.0
C3499 C 0.11072 0.04595 0.61197 0.0
C3500 C 0.12355 0.04708 0.59941 0.0
C3501 C 0.13469 0.03451 0.59833 0.0
C3502 C 0.13305 0.0208 0.60983 0.0
C3503 C 0.12023 0.0196 0.6224 0.0
H3504 H 0.14461 0.03541 0.5886 0.0
H3505 H 0.02263 0.01883 0.7127 0.0
H3506 H 0.78172 0.41543 0.4312 0.0
H3507 H 0.783 0.40139 0.39962 0.0
H3508 H 0.79443 0.3541 0.4225 0.0
H3509 H 0.79317 0.36797 0.45408 0.0
H3510 H 0.8166 0.36767 0.39535 0.0
H3511 H 0.75422 0.35465 0.40699 0.0
H3512 H 0.72724 0.36528 0.41558 0.0
H3513 H 0.72612 0.39376 0.36723 0.0
H3514 H 0.7534 0.38365 0.35862 0.0
H3515 H 0.8027 0.29826 0.32467 0.0
H3516 H 0.80252 0.31791 0.35279 0.0
H3517 H 0.77316 0.35057 0.32102 0.0
H3518 H 0.77084 0.32913 0.29322 0.0
H3519 H 0.76121 0.34945 0.35107 0.0
H3520 H 0.82172 0.36118 0.33732 0.0
H3521 H 0.85198 0.35692 0.33137 0.0
H3522 H 0.85878 0.33525 0.38361 0.0
H3523 H 0.82851 0.33887 0.38968 0.0
C3524 C 0.78444 0.40201 0.42943 0.0
C3525 C 0.78707 0.39255 0.44484 0.0
C3526 C 0.78521 0.39413 0.41151 0.0
C3527 C 0.78867 0.37682 0.40904 0.0
C3528 C 0.79169 0.36751 0.42441 0.0
C3529 C 0.7908 0.37532 0.44229 0.0
C3530 C 0.78862 0.36799 0.39034 0.0
C3531 C 0.80456 0.36353 0.38555 0.0
C3532 C 0.77294 0.36345 0.37768 0.0
C3533 C 0.75593 0.36853 0.38225 0.0
C3534 C 0.74826 0.36323 0.39822 0.0
C3535 C 0.73294 0.36919 0.40312 0.0
C3536 C 0.725 0.38022 0.39198 0.0
C3537 C 0.7323 0.38523 0.37586 0.0
C3538 C 0.7477 0.3794 0.37097 0.0
C3539 C 0.79598 0.30948 0.32366 0.0
C3540 C 0.78697 0.31232 0.30671 0.0
C3541 C 0.79623 0.32095 0.33971 0.0
C3542 C 0.78852 0.33615 0.33885 0.0
C3543 C 0.77939 0.33901 0.32193 0.0
C3544 C 0.77821 0.32688 0.30605 0.0
C3545 C 0.78932 0.34851 0.35588 0.0
C3546 C 0.77345 0.35371 0.3605 0.0
C3547 C 0.80523 0.35396 0.36836 0.0
C3548 C 0.82284 0.35032 0.36393 0.0
C3549 C 0.82956 0.35523 0.34737 0.0
C3550 C 0.84669 0.35292 0.34397 0.0
C3551 C 0.85724 0.34585 0.35706 0.0
C3552 C 0.85059 0.3407 0.37344 0.0
C3553 C 0.83344 0.34285 0.37686 0.0
H3554 H 0.87064 0.34459 0.35451 0.0
H3555 H 0.71316 0.38487 0.39582 0.0
H3556 H 0.39486 0.04136 0.23866 0.0
H3557 H 0.40685 0.04371 0.20862 0.0
H3558 H 0.4317 0.9982 0.21671 0.0
H3559 H 0.42054 0.99649 0.2472 0.0
H3560 H 0.45492 0.02715 0.212 0.0
H3561 H 0.39627 0.99651 0.18211 0.0
H3562 H 0.36359 0.99426 0.17782 0.0
H3563 H 0.37004 0.04576 0.15795 0.0
H3564 H 0.40278 0.04837 0.16229 0.0
H3565 H 0.48428 0.99349 0.13242 0.0
H3566 H 0.47186 1.00291 0.16016 0.0
H3567 H 0.45021 0.04278 0.13165 0.0
H3568 H 0.46117 0.03169 0.10268 0.0
H3569 H 0.42564 0.02589 0.14747 0.0
H3570 H 0.48623 0.05336 0.17483 0.0
H3571 H 0.51857 0.05464 0.18253 0.0
H3572 H 0.50788 0.00692 0.20942 0.0
H3573 H 0.47557 0.00541 0.20197 0.0
C3574 C 0.40273 0.03178 0.2338 0.0
C3575 C 0.40729 0.01903 0.24512 0.0
C3576 C 0.40937 0.03302 0.21666 0.0
C3577 C 0.42015 0.02116 0.21061 0.0
C3578 C 0.42352 0.00755 0.22136 0.0
C3579 C 0.4173 0.00663 0.2387 0.0
C3580 C 0.43002 0.02429 0.19451 0.0
C3581 C 0.44857 0.02678 0.19781 0.0
C3582 C 0.42163 0.02479 0.17638 0.0
C3583 C 0.40196 0.02265 0.17255 0.0
C3584 C 0.39071 0.00733 0.17677 0.0
C3585 C 0.37218 0.006 0.17437 0.0
C3586 C 0.36475 0.01987 0.16763 0.0
C3587 C 0.37582 0.03502 0.16314 0.0
C3588 C 0.39436 0.03641 0.16552 0.0
C3589 C 0.47714 0.00448 0.13211 0.0
C3590 C 0.47333 0.01156 0.11537 0.0
C3591 C 0.47033 0.0102 0.1482 0.0
C3592 C 0.46042 0.02393 0.14831 0.0
C3593 C 0.4579 0.03221 0.13195 0.0
C3594 C 0.46429 0.02601 0.11549 0.0
C3595 C 0.45078 0.02748 0.16466 0.0
C3596 C 0.43217 0.02662 0.1616 0.0
C3597 C 0.45908 0.02821 0.1832 0.0
C3598 C 0.47853 0.0293 0.18781 0.0
C3599 C 0.49081 0.04315 0.18235 0.0
C3600 C 0.50913 0.04392 0.18672 0.0
C3601 C 0.51527 0.03086 0.19644 0.0
C3602 C 0.50312 0.01706 0.20194 0.0
C3603 C 0.48483 0.0163 0.19775 0.0
H3604 H 0.52945 0.03145 0.19972 0.0
H3605 H 0.35041 0.01887 0.16589 0.0
H3606 H 0.76955 0.66963 0.94315 0.0
H3607 H 0.76961 0.67954 0.91202 0.0
H3608 H 0.77043 0.73341 0.93604 0.0
H3609 H 0.76986 0.72337 0.96732 0.0
H3610 H 0.74812 0.72633 0.90519 0.0
H3611 H 0.80845 0.71672 0.92024 0.0
H3612 H 0.83188 0.69955 0.92836 0.0
H3613 H 0.81314 0.66245 0.8791 0.0
H3614 H 0.7894 0.6792 0.87088 0.0
H3615 H 0.76745 0.77045 0.82715 0.0
H3616 H 0.76788 0.75943 0.85726 0.0
H3617 H 0.7754 0.7084 0.83193 0.0
H3618 H 0.77779 0.72052 0.80183 0.0
H3619 H 0.79246 0.7127 0.86302 0.0
H3620 H 0.73279 0.72107 0.84677 0.0
H3621 H 0.70924 0.73758 0.83706 0.0
H3622 H 0.72474 0.77478 0.88673 0.0
H3623 H 0.74863 0.75874 0.89655 0.0
C3624 C 0.76979 0.68362 0.94188 0.0
C3625 C 0.76978 0.69571 0.95788 0.0
C3626 C 0.76993 0.68932 0.92397 0.0
C3627 C 0.77036 0.70736 0.92147 0.0
C3628 C 0.77017 0.71943 0.93743 0.0
C3629 C 0.76989 0.7137 0.95539 0.0
C3630 C 0.77069 0.71356 0.90228 0.0
C3631 C 0.75797 0.72351 0.89607 0.0
C3632 C 0.783 0.70935 0.88984 0.0
C3633 C 0.79702 0.69909 0.89508 0.0
C3634 C 0.8092 0.70479 0.91126 0.0
C3635 C 0.82256 0.69514 0.91586 0.0
C3636 C 0.82397 0.67989 0.90429 0.0
C3637 C 0.81201 0.67423 0.88809 0.0
C3638 C 0.7986 0.68378 0.88347 0.0
C3639 C 0.77006 0.75714 0.82793 0.0
C3640 C 0.77342 0.74673 0.81193 0.0
C3641 C 0.7696 0.75054 0.84529 0.0
C3642 C 0.77111 0.73278 0.84716 0.0
C3643 C 0.77417 0.72216 0.83113 0.0
C3644 C 0.77548 0.72909 0.81381 0.0
C3645 C 0.76993 0.72557 0.86584 0.0
C3646 C 0.78248 0.71544 0.872 0.0
C3647 C 0.7572 0.7293 0.87806 0.0
C3648 C 0.74258 0.73874 0.87235 0.0
C3649 C 0.73122 0.73281 0.85559 0.0
C3650 C 0.71783 0.7421 0.85005 0.0
C3651 C 0.7155 0.75721 0.86127 0.0
C3652 C 0.72656 0.76307 0.87805 0.0
C3653 C 0.74003 0.75388 0.88362 0.0
H3654 H 0.7051 0.76434 0.85697 0.0
H3655 H 0.83435 0.67248 0.90785 0.0
H3656 H 0.82298 0.13397 0.03347 0.0
H3657 H 0.85177 0.12498 0.0341 0.0
H3658 H 0.83134 0.0782 0.05991 0.0
H3659 H 0.80224 0.08733 0.05971 0.0
H3660 H 0.86567 0.09681 0.07532 0.0
H3661 H 0.83243 0.07317 0.01617 0.0
H3662 H 0.8132 0.07519 0.98738 0.0
H3663 H 0.85502 0.11293 0.97001 0.0
H3664 H 0.87437 0.11154 0.99897 0.0
H3665 H 0.92932 0.04679 0.03851 0.0
H3666 H 0.90595 0.05916 0.05319 0.0
H3667 H 0.92131 0.1083 0.0293 0.0
H3668 H 0.94441 0.09584 0.01439 0.0
H3669 H 0.88846 0.0867 0.01397 0.0
H3670 H 0.92125 0.1108 0.0737 0.0
H3671 H 0.93875 0.11155 0.10434 0.0
H3672 H 0.89685 0.07342 0.12105 0.0
H3673 H 0.87925 0.07212 0.09037 0.0
C3674 C 0.8246 0.12179 0.03933 0.0
C3675 C 0.8105 0.11109 0.04629 0.0
C3676 C 0.84099 0.11675 0.03971 0.0
C3677 C 0.84328 0.10089 0.04678 0.0
C3678 C 0.82947 0.09045 0.05433 0.0
C3679 C 0.81299 0.09555 0.05406 0.0
C3680 C 0.86003 0.09497 0.04538 0.0
C3681 C 0.87068 0.0942 0.06198 0.0
C3682 C 0.86621 0.09207 0.0278 0.0
C3683 C 0.85487 0.09231 0.00987 0.0
C3684 C 0.83753 0.08198 0.00628 0.0
C3685 C 0.82658 0.08303 0.98993 0.0
C3686 C 0.83288 0.0942 0.97689 0.0
C3687 C 0.85016 0.10429 0.98014 0.0
C3688 C 0.86113 0.10337 0.99653 0.0
C3689 C 0.92815 0.0605 0.03718 0.0
C3690 C 0.93815 0.0704 0.02519 0.0
C3691 C 0.91498 0.06757 0.04564 0.0
C3692 C 0.91202 0.08451 0.04212 0.0
C3693 C 0.92359 0.0952 0.03211 0.0
C3694 C 0.9366 0.0881 0.02354 0.0
C3695 C 0.89452 0.08888 0.04407 0.0
C3696 C 0.88355 0.08915 0.0274 0.0
C3697 C 0.88802 0.09114 0.06157 0.0
C3698 C 0.89907 0.09113 0.07958 0.0
C3699 C 0.91592 0.10229 0.08375 0.0
C3700 C 0.92582 0.10289 0.10118 0.0
C3701 C 0.91896 0.09248 0.1146 0.0
C3702 C 0.90219 0.08142 0.11062 0.0
C3703 C 0.89226 0.08073 0.09321 0.0
H3704 H 0.92661 0.09303 0.12812 0.0
H3705 H 0.82438 0.09502 0.96425 0.0
H3706 H 0.3594 0.39923 0.04899 0.0
H3707 H 0.38964 0.41499 0.04607 0.0
H3708 H 0.36757 0.45592 0.02024 0.0
H3709 H 0.33739 0.44035 0.02332 0.0
H3710 H 0.39425 0.44529 0.00128 0.0
H3711 H 0.38594 0.46326 0.06523 0.0
H3712 H 0.37935 0.45831 0.09727 0.0
H3713 H 0.42344 0.43101 0.10431 0.0
H3714 H 0.43012 0.43555 0.07218 0.0
H3715 H 0.47149 0.51364 0.00681 0.0
H3716 H 0.44205 0.49568 0.00871 0.0
H3717 H 0.46659 0.4607 0.04183 0.0
H3718 H 0.49578 0.47894 0.04072 0.0
H3719 H 0.43906 0.4665 0.05669 0.0
H3720 H 0.44824 0.44813 0.99391 0.0
H3721 H 0.45436 0.45051 0.96122 0.0
H3722 H 0.40975 0.47658 0.95155 0.0
H3723 H 0.40319 0.47418 0.98408 0.0
C3724 C 0.361 0.41165 0.0428 0.0
C3725 C 0.34594 0.4186 0.03655 0.0
C3726 C 0.37832 0.42066 0.04113 0.0
C3727 C 0.38099 0.43675 0.03299 0.0
C3728 C 0.36594 0.44358 0.02657 0.0
C3729 C 0.34866 0.43471 0.02847 0.0
C3730 C 0.39938 0.44657 0.03124 0.0
C3731 C 0.40399 0.45012 0.01343 0.0
C3732 C 0.41239 0.45235 0.04695 0.0
C3733 C 0.40839 0.44956 0.06623 0.0
C3734 C 0.39412 0.45605 0.07355 0.0
C3735 C 0.39039 0.45335 0.09173 0.0
C3736 C 0.40094 0.4443 0.1028 0.0
C3737 C 0.41526 0.43798 0.09571 0.0
C3738 C 0.41903 0.44061 0.07751 0.0
C3739 C 0.47059 0.50235 0.01482 0.0
C3740 C 0.48609 0.49807 0.02392 0.0
C3741 C 0.45372 0.49183 0.0156 0.0
C3742 C 0.45193 0.47661 0.02529 0.0
C3743 C 0.46743 0.47233 0.03432 0.0
C3744 C 0.48421 0.48287 0.03365 0.0
C3745 C 0.43396 0.46554 0.0267 0.0
C3746 C 0.42942 0.46166 0.04447 0.0
C3747 C 0.42111 0.45925 0.0109 0.0
C3748 C 0.42536 0.46118 0.99151 0.0
C3749 C 0.43985 0.45454 0.98488 0.0
C3750 C 0.44338 0.45586 0.96637 0.0
C3751 C 0.43259 0.46387 0.9544 0.0
C3752 C 0.41815 0.47045 0.96086 0.0
C3753 C 0.41447 0.46906 0.9793 0.0
H3754 H 0.43537 0.46487 0.94009 0.0
H3755 H 0.39804 0.44224 0.11688 0.0
H3756 H 0.37107 0.549 0.74717 0.0
H3757 H 0.35884 0.57639 0.74659 0.0
H3758 H 0.40997 0.60734 0.77057 0.0
H3759 H 0.42216 0.57999 0.77147 0.0
H3760 H 0.38467 0.61777 0.7882 0.0
H3761 H 0.39371 0.60825 0.72373 0.0
H3762 H 0.39145 0.5914 0.69248 0.0
H3763 H 0.33429 0.58362 0.68835 0.0
H3764 H 0.3362 0.60033 0.71966 0.0
H3765 H 0.36217 0.7013 0.78136 0.0
H3766 H 0.37647 0.67606 0.77262 0.0
H3767 H 0.32484 0.64334 0.75394 0.0
H3768 H 0.31052 0.66873 0.76261 0.0
H3769 H 0.35115 0.63445 0.73241 0.0
H3770 H 0.34267 0.6435 0.79759 0.0
H3771 H 0.34536 0.66015 0.82899 0.0
H3772 H 0.40249 0.66857 0.83185 0.0
H3773 H 0.40013 0.6522 0.80031 0.0
C3774 C 0.37972 0.56165 0.75227 0.0
C3775 C 0.39758 0.56229 0.75944 0.0
C3776 C 0.37275 0.57734 0.75179 0.0
C3777 C 0.38351 0.59403 0.75833 0.0
C3778 C 0.40137 0.59467 0.76541 0.0
C3779 C 0.40834 0.579 0.76592 0.0
C3780 C 0.37591 0.6107 0.75878 0.0
C3781 C 0.37765 0.62155 0.77589 0.0
C3782 C 0.36633 0.61552 0.74287 0.0
C3783 C 0.3651 0.6054 0.72409 0.0
C3784 C 0.38065 0.60283 0.71621 0.0
C3785 C 0.37944 0.59335 0.69847 0.0
C3786 C 0.36274 0.58641 0.68845 0.0
C3787 C 0.34721 0.58899 0.69613 0.0
C3788 C 0.34836 0.5985 0.71386 0.0
C3789 C 0.35395 0.68894 0.7746 0.0
C3790 C 0.33528 0.68699 0.77244 0.0
C3791 C 0.36211 0.67446 0.76983 0.0
C3792 C 0.35172 0.65768 0.76299 0.0
C3793 C 0.33313 0.65613 0.75924 0.0
C3794 C 0.32495 0.67066 0.76405 0.0
C3795 C 0.36004 0.64149 0.7618 0.0
C3796 C 0.35835 0.63071 0.74463 0.0
C3797 C 0.36976 0.63673 0.77765 0.0
C3798 C 0.37121 0.64681 0.7965 0.0
C3799 C 0.3558 0.64907 0.80483 0.0
C3800 C 0.35727 0.65842 0.82267 0.0
C3801 C 0.37409 0.66546 0.83239 0.0
C3802 C 0.38947 0.66315 0.82429 0.0
C3803 C 0.38808 0.65384 0.80643 0.0
H3804 H 0.3752 0.67266 0.84622 0.0
H3805 H 0.36182 0.57907 0.67472 0.0
H3806 H 0.21215 0.58413 0.54913 0.0
H3807 H 0.17994 0.57331 0.54174 0.0
H3808 H 0.17476 0.62149 0.51689 0.0
H3809 H 0.20659 0.6326 0.52482 0.0
H3810 H 0.15016 0.61256 0.54059 0.0
H3811 H 0.17415 0.58364 0.48814 0.0
H3812 H 0.19433 0.56545 0.47459 0.0
H3813 H 0.17302 0.52192 0.50405 0.0
H3814 H 0.15279 0.53989 0.51782 0.0
H3815 H 0.06015 0.57388 0.50461 0.0
H3816 H 0.09094 0.58947 0.50658 0.0
H3817 H 0.10879 0.54395 0.52768 0.0
H3818 H 0.07834 0.52767 0.52384 0.0
H3819 H 0.12675 0.55493 0.50133 0.0
H3820 H 0.10505 0.58206 0.55601 0.0
H3821 H 0.0871 0.59966 0.57407 0.0
H3822 H 0.1051 0.6452 0.54593 0.0
H3823 H 0.12294 0.62779 0.52746 0.0
C3824 C 0.20402 0.59228 0.54211 0.0
C3825 C 0.21146 0.60904 0.53752 0.0
C3826 C 0.18584 0.58616 0.53788 0.0
C3827 C 0.17539 0.59665 0.52861 0.0
C3828 C 0.18285 0.61339 0.52405 0.0
C3829 C 0.20088 0.61963 0.52859 0.0
C3830 C 0.15649 0.59023 0.52382 0.0
C3831 C 0.14485 0.60011 0.53178 0.0
C3832 C 0.15006 0.57396 0.51255 0.0
C3833 C 0.16201 0.5631 0.50399 0.0
C3834 C 0.17381 0.5702 0.49173 0.0
C3835 C 0.18525 0.55993 0.48401 0.0
C3836 C 0.18497 0.54255 0.48846 0.0
C3837 C 0.17321 0.53537 0.50059 0.0
C3838 C 0.16172 0.54557 0.5083 0.0
C3839 C 0.0707 0.56693 0.50876 0.0
C3840 C 0.06703 0.5494 0.51339 0.0
C3841 C 0.08816 0.57603 0.51042 0.0
C3842 C 0.10185 0.56779 0.51737 0.0
C3843 C 0.0982 0.55035 0.52213 0.0
C3844 C 0.08089 0.54106 0.51982 0.0
C3845 C 0.12027 0.57674 0.5189 0.0
C3846 C 0.13189 0.56753 0.50996 0.0
C3847 C 0.12662 0.59339 0.52972 0.0
C3848 C 0.11507 0.6035 0.54008 0.0
C3849 C 0.10494 0.59572 0.55342 0.0
C3850 C 0.09485 0.60569 0.5638 0.0
C3851 C 0.09491 0.6235 0.56109 0.0
C3852 C 0.10501 0.63138 0.54796 0.0
C3853 C 0.11509 0.62146 0.53751 0.0
H3854 H 0.0872 0.63118 0.56927 0.0
H3855 H 0.19385 0.53463 0.4825 0.0
H3856 H 0.67155 0.98472 0.75648 0.0
H3857 H 0.6808 0.95604 0.75662 0.0
H3858 H 0.73285 0.97949 0.7431 0.0
H3859 H 0.72359 0.00848 0.74272 0.0
H3860 H 0.71714 0.94658 0.72217 0.0
H3861 H 0.72919 0.97413 0.78535 0.0
H3862 H 0.72163 0.99016 0.8138 0.0
H3863 H 0.68099 0.94541 0.81971 0.0
H3864 H 0.68796 0.92926 0.79097 0.0
H3865 H 0.76509 0.8833 0.75964 0.0
H3866 H 0.75247 0.90681 0.74564 0.0
H3867 H 0.70103 0.88541 0.76213 0.0
H3868 H 0.71381 0.8622 0.77652 0.0
H3869 H 0.7165 0.91772 0.78077 0.0
H3870 H 0.70559 0.89014 0.71699 0.0
H3871 H 0.71251 0.87587 0.68723 0.0
H3872 H 0.75218 0.92189 0.68265 0.0
H3873 H 0.74576 0.93629 0.71257 0.0
C3874 C 0.68494 0.98376 0.75344 0.0
C3875 C 0.697 0.99864 0.74969 0.0
C3876 C 0.69015 0.96746 0.75355 0.0
C3877 C 0.70746 0.96599 0.75005 0.0
C3878 C 0.71944 0.98068 0.74588 0.0
C3879 C 0.71423 0.9971 0.74581 0.0
C3880 C 0.71307 0.94905 0.75129 0.0
C3881 C 0.71731 0.94024 0.73498 0.0
C3882 C 0.71278 0.94108 0.76806 0.0
C3883 C 0.70901 0.95051 0.78584 0.0
C3884 C 0.71855 0.96772 0.79261 0.0
C3885 C 0.71436 0.97685 0.8088 0.0
C3886 C 0.70081 0.96882 0.81854 0.0
C3887 C 0.69147 0.95162 0.81214 0.0
C3888 C 0.69554 0.94247 0.79589 0.0
C3889 C 0.75093 0.88324 0.75945 0.0
C3890 C 0.74033 0.87144 0.76928 0.0
C3891 C 0.74373 0.89652 0.7514 0.0
C3892 C 0.72592 0.89778 0.7531 0.0
C3893 C 0.71481 0.88451 0.76079 0.0
C3894 C 0.72206 0.87139 0.76901 0.0
C3895 C 0.72035 0.91484 0.75142 0.0
C3896 C 0.71628 0.92388 0.76785 0.0
C3897 C 0.72106 0.92311 0.73483 0.0
C3898 C 0.72533 0.9142 0.71715 0.0
C3899 C 0.71597 0.89711 0.70979 0.0
C3900 C 0.71977 0.88902 0.69285 0.0
C3901 C 0.73281 0.89794 0.68309 0.0
C3902 C 0.74211 0.91497 0.69024 0.0
C3903 C 0.7384 0.92309 0.70719 0.0
H3904 H 0.7357 0.89166 0.66995 0.0
H3905 H 0.69757 0.97592 0.83105 0.0
H3906 H 0.733 0.89487 0.51292 0.0
H3907 H 0.70555 0.90687 0.51414 0.0
H3908 H 0.73069 0.94468 0.56132 0.0
H3909 H 0.75828 0.9327 0.56017 0.0
H3910 H 0.69499 0.9298 0.56516 0.0
H3911 H 0.72857 0.95757 0.51943 0.0
H3912 H 0.74497 0.95772 0.49171 0.0
H3913 H 0.69765 0.92956 0.45737 0.0
H3914 H 0.68106 0.92887 0.48499 0.0
H3915 H 0.63495 0.99402 0.54606 0.0
H3916 H 0.66025 0.97938 0.5549 0.0
H3917 H 0.63835 0.93521 0.51281 0.0
H3918 H 0.61338 0.94941 0.50421 0.0
H3919 H 0.67323 0.9547 0.50828 0.0
H3920 H 0.63971 0.92579 0.55266 0.0
H3921 H 0.62268 0.92364 0.57984 0.0
H3922 H 0.66864 0.95235 0.61594 0.0
H3923 H 0.68586 0.95502 0.58886 0.0
C3924 C 0.7327 0.90573 0.52358 0.0
C3925 C 0.74791 0.91304 0.53626 0.0
C3926 C 0.71698 0.91254 0.5243 0.0
C3927 C 0.7161 0.9268 0.53773 0.0
C3928 C 0.73107 0.93371 0.55082 0.0
C3929 C 0.74687 0.92698 0.55002 0.0
C3930 C 0.69998 0.9352 0.53723 0.0
C3931 C 0.69036 0.93551 0.55285 0.0
C3932 C 0.69375 0.94234 0.52103 0.0
C3933 C 0.70361 0.94303 0.50433 0.0
C3934 C 0.72169 0.95129 0.506 0.0
C3935 C 0.73102 0.95147 0.49031 0.0
C3936 C 0.72237 0.94361 0.4728 0.0
C3937 C 0.70434 0.9356 0.47095 0.0
C3938 C 0.69497 0.93531 0.48662 0.0
C3939 C 0.63513 0.9808 0.53938 0.0
C3940 C 0.62205 0.97285 0.52453 0.0
C3941 C 0.64967 0.97253 0.54429 0.0
C3942 C 0.65125 0.95629 0.53433 0.0
C3943 C 0.63743 0.94773 0.52065 0.0
C3944 C 0.62298 0.95582 0.5159 0.0
C3945 C 0.66812 0.9492 0.53614 0.0
C3946 C 0.67792 0.94917 0.5207 0.0
C3947 C 0.67436 0.94222 0.55241 0.0
C3948 C 0.66398 0.94089 0.56867 0.0
C3949 C 0.64611 0.9319 0.56634 0.0
C3950 C 0.63644 0.93053 0.58174 0.0
C3951 C 0.64455 0.93793 0.59959 0.0
C3952 C 0.66236 0.94669 0.60208 0.0
C3953 C 0.67208 0.94815 0.58671 0.0
H3954 H 0.63705 0.9368 0.61151 0.0
H3955 H 0.72961 0.94377 0.46066 0.0
H3956 H 0.41452 0.45067 0.75784 0.0
H3957 H 0.39899 0.4205 0.76089 0.0
H3958 H 0.34972 0.43987 0.764 0.0
H3959 H 0.36531 0.47013 0.76145 0.0
H3960 H 0.35335 0.4182 0.7897 0.0
H3961 H 0.36029 0.41514 0.72341 0.0
H3962 H 0.37765 0.41761 0.69643 0.0
H3963 H 0.40727 0.37891 0.71558 0.0
H3964 H 0.39025 0.37639 0.74281 0.0
H3965 H 0.29284 0.33715 0.78165 0.0
H3966 H 0.30942 0.36608 0.77776 0.0
H3967 H 0.35342 0.34182 0.76224 0.0
H3968 H 0.33532 0.31237 0.76285 0.0
H3969 H 0.35442 0.36615 0.74384 0.0
H3970 H 0.34842 0.36828 0.8098 0.0
H3971 H 0.3328 0.36622 0.83806 0.0
H3972 H 0.30401 0.40664 0.82199 0.0
H3973 H 0.31927 0.40878 0.79355 0.0
C3974 C 0.40034 0.44848 0.75903 0.0
C3975 C 0.39115 0.46283 0.75928 0.0
C3976 C 0.39144 0.43116 0.76072 0.0
C3977 C 0.37305 0.42771 0.76244 0.0
C3978 C 0.36387 0.44207 0.76267 0.0
C3979 C 0.3728 0.4594 0.76112 0.0
C3980 C 0.36337 0.40931 0.76438 0.0
C3981 C 0.35343 0.40683 0.77957 0.0
C3982 C 0.36398 0.39424 0.75164 0.0
C3983 C 0.37411 0.3957 0.73522 0.0
C3984 C 0.37059 0.40725 0.72192 0.0
C3985 C 0.38035 0.40864 0.70658 0.0
C3986 C 0.39358 0.39845 0.70432 0.0
C3987 C 0.39704 0.38681 0.71737 0.0
C3988 C 0.38733 0.38538 0.73274 0.0
C3989 C 0.30563 0.33773 0.77656 0.0
C3990 C 0.3122 0.32207 0.77183 0.0
C3991 C 0.31559 0.3546 0.77505 0.0
C3992 C 0.33314 0.35661 0.77026 0.0
C3993 C 0.33995 0.34097 0.76591 0.0
C3994 C 0.32954 0.32399 0.76634 0.0
C3995 C 0.34411 0.37483 0.76922 0.0
C3996 C 0.35436 0.37735 0.75418 0.0
C3997 C 0.34407 0.38991 0.78235 0.0
C3998 C 0.33491 0.38859 0.79948 0.0
C3999 C 0.3387 0.37665 0.81225 0.0
C4000 C 0.3299 0.37548 0.82831 0.0
C4001 C 0.3174 0.38627 0.8318 0.0
C4002 C 0.31368 0.39828 0.81927 0.0
C4003 C 0.32241 0.39949 0.8032 0.0
H4004 H 0.31062 0.38534 0.84423 0.0
H4005 H 0.40112 0.39955 0.69243 0.0
H4006 H 0.21574 0.59779 0.23524 0.0
H4007 H 0.2258 0.63022 0.24108 0.0
H4008 H 0.19878 0.63152 0.29092 0.0
H4009 H 0.18816 0.59943 0.28472 0.0
H4010 H 0.19343 0.65777 0.26926 0.0
H4011 H 0.24261 0.63175 0.29574 0.0
H4012 H 0.26393 0.61121 0.29338 0.0
H4013 H 0.28503 0.63701 0.24792 0.0
H4014 H 0.26374 0.65757 0.24993 0.0
H4015 H 0.23983 0.74604 0.30099 0.0
H4016 H 0.2257 0.71497 0.29946 0.0
H4017 H 0.25619 0.70226 0.25431 0.0
H4018 H 0.27228 0.7326 0.25813 0.0
H4019 H 0.25862 0.68133 0.2787 0.0
H4020 H 0.20938 0.70616 0.24951 0.0
H4021 H 0.18665 0.72528 0.2487 0.0
H4022 H 0.16472 0.70186 0.29506 0.0
H4023 H 0.18746 0.68278 0.2963 0.0
C4024 C 0.21219 0.60513 0.24746 0.0
C4025 C 0.20153 0.5966 0.25972 0.0
C4026 C 0.21773 0.62342 0.25068 0.0
C4027 C 0.213 0.63281 0.26647 0.0
C4028 C 0.20236 0.62422 0.27869 0.0
C4029 C 0.19652 0.60608 0.27525 0.0
C4030 C 0.21986 0.65158 0.27078 0.0
C4031 C 0.20766 0.66311 0.27145 0.0
C4032 C 0.23835 0.65802 0.27362 0.0
C4033 C 0.2516 0.64613 0.27298 0.0
C4034 C 0.25182 0.63302 0.28526 0.0
C4035 C 0.26388 0.62137 0.28397 0.0
C4036 C 0.27582 0.6228 0.2705 0.0
C4037 C 0.2758 0.63593 0.25836 0.0
C4038 C 0.26378 0.64761 0.25961 0.0
C4039 C 0.24398 0.73648 0.29142 0.0
C4040 C 0.25753 0.74155 0.28031 0.0
C4041 C 0.23552 0.7189 0.29008 0.0
C4042 C 0.23987 0.70657 0.27667 0.0
C4043 C 0.25285 0.71174 0.26489 0.0
C4044 C 0.26203 0.72905 0.26709 0.0
C4045 C 0.23225 0.68788 0.27578 0.0
C4046 C 0.24435 0.6762 0.27642 0.0
C4047 C 0.21367 0.68144 0.27372 0.0
C4048 C 0.20025 0.69321 0.27314 0.0
C4049 C 0.19983 0.70523 0.25965 0.0
C4050 C 0.18691 0.71602 0.25909 0.0
C4051 C 0.17428 0.71482 0.27185 0.0
C4052 C 0.17453 0.70281 0.28521 0.0
C4053 C 0.18742 0.69201 0.28585 0.0
H4054 H 0.16427 0.72316 0.27137 0.0
H4055 H 0.28511 0.61373 0.26948 0.0
H4056 H 0.48356 0.70264 0.44684 0.0
H4057 H 0.48923 0.67589 0.46097 0.0
H4058 H 0.53983 0.70517 0.48806 0.0
H4059 H 0.53385 0.73211 0.47464 0.0
H4060 H 0.54258 0.67091 0.47081 0.0
H4061 H 0.50866 0.69552 0.51409 0.0
H4062 H 0.48367 0.70799 0.52551 0.0
H4063 H 0.44772 0.65873 0.50565 0.0
H4064 H 0.47247 0.64607 0.49375 0.0
H4065 H 0.55983 0.60393 0.53105 0.0
H4066 H 0.55479 0.63203 0.51995 0.0
H4067 H 0.50328 0.60559 0.49245 0.0
H4068 H 0.50874 0.57722 0.50275 0.0
H4069 H 0.5019 0.63937 0.5113 0.0
H4070 H 0.53721 0.61533 0.46762 0.0
H4071 H 0.56317 0.60357 0.45772 0.0
H4072 H 0.59771 0.65297 0.48018 0.0
H4073 H 0.57197 0.66489 0.49062 0.0
C4074 C 0.49585 0.70346 0.45591 0.0
C4075 C 0.50815 0.71976 0.45958 0.0
C4076 C 0.49911 0.68806 0.46405 0.0
C4077 C 0.51504 0.68819 0.47574 0.0
C4078 C 0.52744 0.70442 0.47919 0.0
C4079 C 0.52393 0.71996 0.47152 0.0
C4080 C 0.51877 0.67148 0.48414 0.0
C4081 C 0.53375 0.66421 0.47985 0.0
C4082 C 0.50736 0.66232 0.49592 0.0
C4083 C 0.49237 0.66994 0.50275 0.0
C4084 C 0.49539 0.68742 0.51191 0.0
C4085 C 0.48127 0.69451 0.51852 0.0
C4086 C 0.4641 0.68419 0.51623 0.0
C4087 C 0.46102 0.66674 0.50735 0.0
C4088 C 0.47509 0.6596 0.50065 0.0
C4089 C 0.5475 0.60394 0.52255 0.0
C4090 C 0.53492 0.58792 0.51766 0.0
C4091 C 0.54455 0.6202 0.51616 0.0
C4092 C 0.52863 0.62127 0.5051 0.0
C4093 C 0.51575 0.60542 0.50081 0.0
C4094 C 0.51894 0.58905 0.50671 0.0
C4095 C 0.52553 0.63862 0.49769 0.0
C4096 C 0.5107 0.64606 0.50223 0.0
C4097 C 0.53719 0.64805 0.4863 0.0
C4098 C 0.55269 0.6409 0.48014 0.0
C4099 C 0.55036 0.62361 0.47066 0.0
C4100 C 0.56504 0.61693 0.46492 0.0
C4101 C 0.58209 0.62749 0.46838 0.0
C4102 C 0.5845 0.64478 0.47757 0.0
C4103 C 0.56987 0.6515 0.48342 0.0
H4104 H 0.59343 0.62231 0.46389 0.0
H4105 H 0.45319 0.68969 0.5214 0.0
H4106 H 0.59834 0.32021 0.66515 0.0
H4107 H 0.62543 0.32087 0.68669 0.0
H4108 H 0.63741 0.27639 0.65234 0.0
H4109 H 0.61077 0.27615 0.63042 0.0
H4110 H 0.63729 0.27226 0.69195 0.0
H4111 H 0.66358 0.31329 0.65183 0.0
H4112 H 0.66717 0.34 0.63506 0.0
H4113 H 0.67279 0.37355 0.68724 0.0
H4114 H 0.66904 0.347 0.7043 0.0
H4115 H 0.72201 0.26699 0.73822 0.0
H4116 H 0.69619 0.26834 0.71608 0.0
H4117 H 0.69551 0.32151 0.74141 0.0
H4118 H 0.72225 0.32045 0.76278 0.0
H4119 H 0.68946 0.3218 0.70624 0.0
H4120 H 0.66393 0.28147 0.74683 0.0
H4121 H 0.65916 0.25513 0.76408 0.0
H4122 H 0.6504 0.22063 0.71228 0.0
H4123 H 0.65556 0.24674 0.69473 0.0
C4124 C 0.60689 0.31074 0.66206 0.0
C4125 C 0.6024 0.29818 0.646 0.0
C4126 C 0.62241 0.31115 0.67437 0.0
C4127 C 0.63356 0.29869 0.6712 0.0
C4128 C 0.62912 0.2862 0.65511 0.0
C4129 C 0.6139 0.28612 0.64253 0.0
C4130 C 0.64921 0.29801 0.68517 0.0
C4131 C 0.64883 0.28298 0.6949 0.0
C4132 C 0.66403 0.31222 0.68955 0.0
C4133 C 0.66577 0.32815 0.67931 0.0
C4134 C 0.66533 0.32635 0.6597 0.0
C4135 C 0.66747 0.34146 0.65015 0.0
C4136 C 0.67013 0.35846 0.66007 0.0
C4137 C 0.67068 0.36037 0.67956 0.0
C4138 C 0.66856 0.3453 0.68918 0.0
C4139 C 0.71648 0.27905 0.73886 0.0
C4140 C 0.72445 0.2938 0.75186 0.0
C4141 C 0.70146 0.27973 0.72638 0.0
C4142 C 0.69354 0.295 0.72695 0.0
C4143 C 0.70126 0.30958 0.74043 0.0
C4144 C 0.71651 0.30897 0.75274 0.0
C4145 C 0.67767 0.29594 0.71318 0.0
C4146 C 0.67795 0.31103 0.70344 0.0
C4147 C 0.66263 0.28182 0.70892 0.0
C4148 C 0.6603 0.26608 0.71948 0.0
C4149 C 0.66124 0.26826 0.73913 0.0
C4150 C 0.65843 0.25337 0.74896 0.0
C4151 C 0.65449 0.23623 0.73929 0.0
C4152 C 0.65346 0.23392 0.71976 0.0
C4153 C 0.65637 0.24876 0.70987 0.0
H4154 H 0.65215 0.22474 0.74694 0.0
H4155 H 0.67182 0.37014 0.65265 0.0
H4156 H 0.03575 0.32887 0.95899 0.0
H4157 H 0.03661 0.35976 0.97261 0.0
H4158 H 0.98037 0.34706 0.97765 0.0
H4159 H 0.97967 0.31601 0.96486 0.0
H4160 H 0.99132 0.37976 0.96078 0.0
H4161 H 0.00629 0.35234 0.01555 0.0
H4162 H 0.02314 0.33513 0.03541 0.0
H4163 H 0.07126 0.37313 0.03401 0.0
H4164 H 0.05473 0.39043 0.01386 0.0
H4165 H 0.98513 0.46218 0.01459 0.0
H4166 H 0.98274 0.43017 0.0045 0.0
H4167 H 0.03996 0.43764 0.00634 0.0
H4168 H 0.04238 0.46933 0.01639 0.0
H4169 H 0.02764 0.40706 0.02046 0.0
H4170 H 0.01406 0.43386 0.96533 0.0
H4171 H 0.99817 0.45186 0.94551 0.0
H4172 H 0.94885 0.41558 0.94677 0.0
H4173 H 0.96442 0.39754 0.96694 0.0
C4174 C 0.0236 0.33262 0.96316 0.0
C4175 C 0.00767 0.31985 0.96095 0.0
C4176 C 0.02409 0.35033 0.97097 0.0
C4177 C 0.00854 0.35593 0.97624 0.0
C4178 C 0.99258 0.34322 0.97379 0.0
C4179 C 0.99221 0.32539 0.96656 0.0
C4180 C 0.00888 0.37501 0.98408 0.0
C4181 C 0.99906 0.3856 0.97398 0.0
C4182 C 0.01929 0.38301 0.00108 0.0
C4183 C 0.02932 0.37254 0.01298 0.0
C4184 C 0.02051 0.35691 0.01927 0.0
C4185 C 0.02999 0.34717 0.03063 0.0
C4186 C 0.04827 0.35299 0.03591 0.0
C4187 C 0.0571 0.3686 0.02986 0.0
C4188 C 0.04768 0.37838 0.01848 0.0
C4189 C 0.99719 0.45698 0.01306 0.0
C4190 C 0.01392 0.46855 0.01631 0.0
C4191 C 0.99583 0.43861 0.00713 0.0
C4192 C 0.01118 0.43125 0.00446 0.0
C4193 C 0.02787 0.44274 0.00823 0.0
C4194 C 0.0292 0.46103 0.01388 0.0
C4195 C 0.01003 0.41183 0.99719 0.0
C4196 C 0.01979 0.4012 0.00732 0.0
C4197 C 0.99972 0.40384 0.98012 0.0
C4198 C 0.99035 0.41449 0.96784 0.0
C4199 C 0.9998 0.42981 0.96152 0.0
C4200 C 0.99086 0.44001 0.95021 0.0
C4201 C 0.9725 0.43491 0.94494 0.0
C4202 C 0.96306 0.41955 0.95091 0.0
C4203 C 0.97193 0.40933 0.96229 0.0
H4204 H 0.9656 0.44282 0.93618 0.0
H4205 H 0.05558 0.34544 0.04472 0.0
H4206 H 0.9936 0.80271 0.12467 0.0
H4207 H 0.96808 0.80033 0.14319 0.0
H4208 H 0.99097 0.76433 0.1763 0.0
H4209 H 0.01678 0.76733 0.15842 0.0
H4210 H 0.95316 0.753 0.16281 0.0
H4211 H 0.99508 0.80254 0.19582 0.0
H4212 H 0.01551 0.83159 0.19886 0.0
H4213 H 0.97175 0.85684 0.18203 0.0
H4214 H 0.95108 0.82782 0.17853 0.0
H4215 H 0.90887 0.74851 0.24262 0.0
H4216 H 0.93365 0.75788 0.22464 0.0
H4217 H 0.90201 0.7893 0.19422 0.0
H4218 H 0.87695 0.77978 0.21222 0.0
H4219 H 0.94264 0.80449 0.2046 0.0
H4220 H 0.90047 0.75391 0.17264 0.0
H4221 H 0.88091 0.72442 0.17054 0.0
H4222 H 0.9262 0.70086 0.18615 0.0
H4223 H 0.94599 0.7303 0.1887 0.0
C4224 C 0.9931 0.79426 0.13587 0.0
C4225 C 0.00714 0.78522 0.14016 0.0
C4226 C 0.97858 0.79295 0.14647 0.0
C4227 C 0.97762 0.78217 0.16118 0.0
C4228 C 0.99143 0.77275 0.16507 0.0
C4229 C 0.00617 0.7745 0.15489 0.0
C4230 C 0.96239 0.78078 0.17269 0.0
C4231 C 0.95092 0.76426 0.17197 0.0
C4232 C 0.95926 0.7955 0.18448 0.0
C4233 C 0.97158 0.81298 0.18665 0.0
C4234 C 0.98984 0.81425 0.19255 0.0
C4235 C 1.00146 0.83071 0.1944 0.0
C4236 C 0.99495 0.84604 0.19057 0.0
C4237 C 0.97678 0.84494 0.18494 0.0
C4238 C 0.96511 0.82849 0.18302 0.0
C4239 C 0.90731 0.75776 0.23241 0.0
C4240 C 0.89089 0.76328 0.22872 0.0
C4241 C 0.9215 0.76311 0.22214 0.0
C4242 C 0.91965 0.77413 0.20792 0.0
C4243 C 0.90376 0.78083 0.20516 0.0
C4244 C 0.88947 0.77543 0.21548 0.0
C4245 C 0.93348 0.77668 0.19471 0.0
C4246 C 0.94472 0.79334 0.19519 0.0
C4247 C 0.9365 0.76206 0.1827 0.0
C4248 C 0.92467 0.74433 0.18105 0.0
C4249 C 0.90623 0.74247 0.17581 0.0
C4250 C 0.89511 0.72576 0.17451 0.0
C4251 C 0.9023 0.71078 0.17826 0.0
C4252 C 0.92064 0.71248 0.18328 0.0
C4253 C 0.93182 0.72917 0.18465 0.0
H4254 H 0.89367 0.69785 0.17722 0.0
H4255 H 1.00396 0.85879 0.19203 0.0
H4256 H 0.49383 0.29505 0.14109 0.0
H4257 H 0.497 0.32106 0.12362 0.0
H4258 H 0.5514 0.33787 0.14937 0.0
H4259 H 0.54762 0.31268 0.16796 0.0
H4260 H 0.53875 0.36561 0.14716 0.0
H4261 H 0.53757 0.31545 0.10068 0.0
H4262 H 0.52434 0.2857 0.08411 0.0
H4263 H 0.4768 0.30473 0.06605 0.0
H4264 H 0.48973 0.33458 0.08261 0.0
H4265 H 0.57524 0.42041 0.08222 0.0
H4266 H 0.56598 0.39804 0.10281 0.0
H4267 H 0.51229 0.38874 0.07481 0.0
H4268 H 0.52185 0.41098 0.05358 0.0
H4269 H 0.52137 0.35805 0.07851 0.0
H4270 H 0.52426 0.40919 0.12419 0.0
H4271 H 0.53791 0.43831 0.14195 0.0
H4272 H 0.58347 0.41687 0.16167 0.0
H4273 H 0.57004 0.38762 0.14407 0.0
C4274 C 0.50639 0.30441 0.14307 0.0
C4275 C 0.52045 0.30191 0.15589 0.0
C4276 C 0.50831 0.31921 0.13292 0.0
C4277 C 0.52463 0.3314 0.13468 0.0
C4278 C 0.53864 0.32883 0.14764 0.0
C4279 C 0.5365 0.31439 0.15828 0.0
C4280 C 0.5272 0.34679 0.12318 0.0
C4281 C 0.53509 0.36384 0.13212 0.0
C4282 C 0.52204 0.34486 0.10356 0.0
C4283 C 0.51457 0.32719 0.09293 0.0
C4284 C 0.52431 0.31327 0.09314 0.0
C4285 C 0.51686 0.2964 0.08378 0.0
C4286 C 0.49973 0.29332 0.07406 0.0
C4287 C 0.49007 0.30714 0.07358 0.0
C4288 C 0.49747 0.32405 0.0829 0.0
C4289 C 0.56139 0.41379 0.08061 0.0
C4290 C 0.54933 0.41745 0.0662 0.0
C4291 C 0.55601 0.40105 0.09256 0.0
C4292 C 0.53831 0.39167 0.0907 0.0
C4293 C 0.52601 0.39575 0.07669 0.0
C4294 C 0.53144 0.40858 0.06463 0.0
C4295 C 0.53323 0.37682 0.10247 0.0
C4296 C 0.52487 0.35985 0.09357 0.0
C4297 C 0.53813 0.37876 0.12212 0.0
C4298 C 0.54619 0.39629 0.13275 0.0
C4299 C 0.53721 0.41073 0.13226 0.0
C4300 C 0.54489 0.42723 0.14234 0.0
C4301 C 0.56154 0.42944 0.15292 0.0
C4302 C 0.57055 0.41513 0.1535 0.0
C4303 C 0.56288 0.39857 0.14355 0.0
H4304 H 0.56743 0.44222 0.16071 0.0
H4305 H 0.49395 0.28023 0.06689 0.0
H4306 H 0.98792 0.27795 0.31567 0.0
H4307 H 0.95688 0.2757 0.30207 0.0
H4308 H 0.95312 0.32278 0.33818 0.0
H4309 H 0.98353 0.32402 0.3527 0.0
H4310 H 0.92463 0.30282 0.33798 0.0
H4311 H 0.95592 0.31759 0.28462 0.0
H4312 H 0.97661 0.31259 0.26137 0.0
H4313 H 0.94485 0.2609 0.24223 0.0
H4314 H 0.92409 0.26552 0.2655 0.0
H4315 H 0.84303 0.32036 0.29089 0.0
H4316 H 0.87449 0.32192 0.30255 0.0
H4317 H 0.87218 0.26886 0.27559 0.0
H4318 H 0.8407 0.26717 0.26408 0.0
H4319 H 0.90342 0.29066 0.27023 0.0
H4320 H 0.87068 0.27718 0.32077 0.0
H4321 H 0.85216 0.27868 0.34663 0.0
H4322 H 0.88832 0.32539 0.3736 0.0
H4323 H 0.90629 0.32509 0.34719 0.0
C4324 C 0.98046 0.28784 0.32064 0.0
C4325 C 0.98833 0.30115 0.33536 0.0
C4326 C 0.96261 0.28669 0.31267 0.0
C4327 C 0.95224 0.29927 0.31862 0.0
C4328 C 0.96039 0.31274 0.33314 0.0
C4329 C 0.97795 0.31351 0.34149 0.0
C4330 C 0.9328 0.29815 0.31063 0.0
C4331 C 0.92019 0.30071 0.32309 0.0
C4332 C 0.92637 0.29438 0.29123 0.0
C4333 C 0.93854 0.29186 0.27688 0.0
C4334 C 0.95338 0.30515 0.27547 0.0
C4335 C 0.96512 0.30238 0.2623 0.0
C4336 C 0.96207 0.28642 0.25036 0.0
C4337 C 0.94721 0.27325 0.25149 0.0
C4338 C 0.93544 0.27595 0.26464 0.0
C4339 C 0.84917 0.30903 0.28732 0.0
C4340 C 0.83903 0.29367 0.27638 0.0
C4341 C 0.86729 0.3099 0.29413 0.0
C4342 C 0.87605 0.2955 0.29011 0.0
C4343 C 0.86602 0.28025 0.27896 0.0
C4344 C 0.84784 0.27927 0.2724 0.0
C4345 C 0.89546 0.2962 0.29763 0.0
C4346 C 0.90797 0.29333 0.28509 0.0
C4347 C 0.90184 0.29976 0.31703 0.0
C4348 C 0.88972 0.30127 0.33171 0.0
C4349 C 0.87437 0.28817 0.33183 0.0
C4350 C 0.86395 0.2888 0.34664 0.0
C4351 C 0.869 0.30217 0.36171 0.0
C4352 C 0.88434 0.3151 0.36186 0.0
C4353 C 0.89449 0.31486 0.34683 0.0
H4354 H 0.86109 0.30244 0.37331 0.0
H4355 H 0.9712 0.28428 0.24021 0.0
H4356 H 0.98822 0.70739 0.63584 0.0
H4357 H 0.9872 0.68033 0.6142 0.0
H4358 H 0.03804 0.67411 0.64109 0.0
H4359 H 0.03869 0.7007 0.66331 0.0
H4360 H 0.03505 0.67402 0.60004 0.0
H4361 H 1.00491 0.6457 0.64789 0.0
H4362 H 0.98166 0.63986 0.669 0.0
H4363 H 0.94125 0.62758 0.62175 0.0
H4364 H 0.96425 0.63363 0.60036 0.0
H4365 H 0.04537 0.59217 0.55184 0.0
H4366 H 0.04386 0.61754 0.5745 0.0
H4367 H 0.98667 0.60853 0.56055 0.0
H4368 H 0.9882 0.58213 0.53906 0.0
H4369 H 0.9917 0.61708 0.59476 0.0
H4370 H 0.02007 0.6449 0.5465 0.0
H4371 H 0.04222 0.65106 0.52424 0.0
H4372 H 0.08408 0.66606 0.56994 0.0
H4373 H 0.06227 0.65955 0.59246 0.0
C4374 C 0.99904 0.70008 0.63731 0.0
C4375 C 0.0135 0.70616 0.65136 0.0
C4376 C 0.99843 0.68459 0.62494 0.0
C4377 C 0.01254 0.67509 0.62593 0.0
C4378 C 0.02695 0.6811 0.64004 0.0
C4379 C 0.02728 0.69627 0.6528 0.0
C4380 C 0.01282 0.65961 0.61159 0.0
C4381 C 0.02572 0.66147 0.59903 0.0
C4382 C 1.00018 0.64347 0.60966 0.0
C4383 C 0.98629 0.64038 0.62254 0.0
C4384 C 0.99105 0.64202 0.64201 0.0
C4385 C 0.97792 0.6386 0.65403 0.0
C4386 C 0.95998 0.63342 0.64673 0.0
C4387 C 0.95514 0.63165 0.62739 0.0
C4388 C 0.96822 0.63507 0.61532 0.0
C4389 C 0.0325 0.59571 0.55356 0.0
C4390 C 0.01691 0.58521 0.54365 0.0
C4391 C 0.03161 0.61038 0.56646 0.0
C4392 C 0.01516 0.6155 0.56921 0.0
C4393 C 0.99958 0.60508 0.55893 0.0
C4394 C 1.00044 0.59003 0.54649 0.0
C4395 C 0.01416 0.63129 0.58311 0.0
C4396 C 1.00105 0.62959 0.59558 0.0
C4397 C 0.02639 0.64778 0.5847 0.0
C4398 C 0.03954 0.65157 0.57116 0.0
C4399 C 0.03402 0.64935 0.5518 0.0
C4400 C 0.04652 0.6529 0.53914 0.0
C4401 C 0.06455 0.65889 0.54567 0.0
C4402 C 0.07011 0.6614 0.56489 0.0
C4403 C 0.0577 0.65774 0.57761 0.0
H4404 H 0.07421 0.66163 0.53585 0.0
H4405 H 0.94984 0.63071 0.65605 0.0
H4406 H 0.58135 0.80801 0.80998 0.0
H4407 H 0.60802 0.80231 0.79595 0.0
H4408 H 0.62887 0.78665 0.84815 0.0
H4409 H 0.60269 0.79316 0.86233 0.0
H4410 H 0.6552 0.80381 0.83599 0.0
H4411 H 0.60909 0.7564 0.80324 0.0
H4412 H 0.58066 0.74401 0.78351 0.0
H4413 H 0.59862 0.77346 0.73908 0.0
H4414 H 0.62709 0.78615 0.75861 0.0
H4415 H 0.72676 0.76639 0.80569 0.0
H4416 H 0.69832 0.77043 0.81646 0.0
H4417 H 0.68065 0.78402 0.76207 0.0
H4418 H 0.70872 0.77841 0.75088 0.0
H4419 H 0.65259 0.76915 0.77393 0.0
H4420 H 0.6981 0.81649 0.80554 0.0
H4421 H 0.7269 0.82922 0.8244 0.0
H4422 H 0.71002 0.80121 0.87022 0.0
H4423 H 0.6812 0.78816 0.85153 0.0
C4424 C 0.59164 0.80341 0.81852 0.0
C4425 C 0.58967 0.80119 0.83744 0.0
C4426 C 0.60697 0.79991 0.81036 0.0
C4427 C 0.62078 0.79361 0.82066 0.0
C4428 C 0.61874 0.79146 0.8396 0.0
C4429 C 0.60359 0.79521 0.8478 0.0
C4430 C 0.63751 0.78971 0.81221 0.0
C4431 C 0.65442 0.79597 0.82252 0.0
C4432 C 0.63717 0.78006 0.79424 0.0
C4433 C 0.62013 0.77235 0.78245 0.0
C4434 C 0.60693 0.7603 0.7893 0.0
C4435 C 0.59082 0.75321 0.77814 0.0
C4436 C 0.58782 0.75798 0.76007 0.0
C4437 C 0.60095 0.7698 0.75309 0.0
C4438 C 0.61708 0.77692 0.76418 0.0
C4439 C 0.7168 0.77018 0.79597 0.0
C4440 C 0.72029 0.7723 0.77744 0.0
C4441 C 0.70043 0.77272 0.80223 0.0
C4442 C 0.68714 0.77837 0.7905 0.0
C4443 C 0.69043 0.7799 0.77173 0.0
C4444 C 0.70662 0.77673 0.76527 0.0
C4445 C 0.6702 0.78293 0.79795 0.0
C4446 C 0.65331 0.77693 0.78742 0.0
C4447 C 0.67051 0.79299 0.81565 0.0
C4448 C 0.68756 0.80129 0.82712 0.0
C4449 C 0.70055 0.81305 0.81964 0.0
C4450 C 0.71688 0.8203 0.83028 0.0
C4451 C 0.7203 0.816 0.84849 0.0
C4452 C 0.70735 0.80453 0.85612 0.0
C4453 C 0.69101 0.79723 0.84552 0.0
H4454 H 0.73297 0.82158 0.85669 0.0
H4455 H 0.57533 0.7525 0.75147 0.0
H4456 H 0.42175 0.52398 0.69379 0.0
H4457 H 0.43743 0.53009 0.66648 0.0
H4458 H 0.48689 0.52496 0.69757 0.0
H4459 H 0.47136 0.51946 0.72506 0.0
H4460 H 0.49303 0.5521 0.67897 0.0
H4461 H 0.4614 0.49171 0.66269 0.0
H4462 H 0.43529 0.46718 0.6567 0.0
H4463 H 0.4121 0.49366 0.61348 0.0
H4464 H 0.43794 0.5185 0.61943 0.0
H4465 H 0.54009 0.53039 0.59957 0.0
H4466 H 0.52465 0.52986 0.62774 0.0
H4467 H 0.48327 0.55287 0.60022 0.0
H4468 H 0.49906 0.55443 0.57239 0.0
H4469 H 0.47246 0.51846 0.61628 0.0
H4470 H 0.50493 0.57794 0.63145 0.0
H4471 H 0.53113 0.60234 0.6373 0.0
H4472 H 0.55298 0.57723 0.68245 0.0
H4473 H 0.52709 0.55244 0.6766 0.0
C4474 C 0.43595 0.52405 0.69476 0.0
C4475 C 0.44528 0.52111 0.71158 0.0
C4476 C 0.44492 0.5275 0.67909 0.0
C4477 C 0.46338 0.52777 0.67977 0.0
C4478 C 0.47268 0.52484 0.6966 0.0
C4479 C 0.46376 0.52159 0.71231 0.0
C4480 C 0.4731 0.53129 0.6631 0.0
C4481 C 0.48863 0.54454 0.66534 0.0
C4482 C 0.46716 0.52187 0.64508 0.0
C4483 C 0.45151 0.50706 0.64167 0.0
C4484 C 0.45065 0.49239 0.65204 0.0
C4485 C 0.43591 0.47841 0.64863 0.0
C4486 C 0.42202 0.47888 0.63476 0.0
C4487 C 0.42285 0.49333 0.62426 0.0
C4488 C 0.43753 0.50736 0.62765 0.0
C4489 C 0.52793 0.53575 0.59963 0.0
C4490 C 0.52088 0.54249 0.58364 0.0
C4491 C 0.5191 0.53539 0.61575 0.0
C4492 C 0.50282 0.54133 0.61608 0.0
C4493 C 0.49585 0.54827 0.60029 0.0
C4494 C 0.50492 0.54913 0.58438 0.0
C4495 C 0.49242 0.53899 0.63231 0.0
C4496 C 0.47679 0.52598 0.62995 0.0
C4497 C 0.49832 0.54856 0.65019 0.0
C4498 C 0.51419 0.56316 0.65337 0.0
C4499 C 0.51546 0.57744 0.64241 0.0
C4500 C 0.53023 0.59139 0.64578 0.0
C4501 C 0.54375 0.5913 0.66018 0.0
C4502 C 0.54253 0.57725 0.67125 0.0
C4503 C 0.52782 0.56324 0.6679 0.0
H4504 H 0.55514 0.60215 0.66281 0.0
H4505 H 0.41064 0.46803 0.63212 0.0
H4506 H 0.77606 0.17926 0.01486 0.0
H4507 H 0.77454 0.19626 0.98836 0.0
H4508 H 0.74365 0.14984 0.95388 0.0
H4509 H 0.74545 0.13236 0.9806 0.0
H4510 H 0.77153 0.16895 0.93724 0.0
H4511 H 0.7221 0.18013 0.96898 0.0
H4512 H 0.70687 0.18747 0.99644 0.0
H4513 H 0.74138 0.23878 0.00755 0.0
H4514 H 0.75702 0.23166 0.98034 0.0
H4515 H 0.74014 0.2198 0.86948 0.0
H4516 H 0.74942 0.1998 0.89093 0.0
H4517 H 0.77195 0.24499 0.93199 0.0
H4518 H 0.76139 0.26501 0.91072 0.0
H4519 H 0.74692 0.22453 0.94441 0.0
H4520 H 0.79738 0.21272 0.91317 0.0
H4521 H 0.81319 0.20454 0.88641 0.0
H4522 H 0.77683 0.15436 0.87427 0.0
H4523 H 0.76074 0.16228 0.90086 0.0
C4524 C 0.76893 0.17264 0.00165 0.0
C4525 C 0.76069 0.15464 0.99964 0.0
C4526 C 0.76806 0.18235 0.98661 0.0
C4527 C 0.75868 0.17426 0.96952 0.0
C4528 C 0.7508 0.15616 0.9672 0.0
C4529 C 0.75183 0.14629 0.98232 0.0
C4530 C 0.75745 0.18508 0.9542 0.0
C4531 C 0.76592 0.18099 0.9385 0.0
C4532 C 0.75044 0.20084 0.95642 0.0
C4533 C 0.7408 0.20531 0.97264 0.0
C4534 C 0.72652 0.19294 0.97733 0.0
C4535 C 0.7178 0.19707 0.99285 0.0
C4536 C 0.72317 0.21357 0.00374 0.0
C4537 C 0.73723 0.22601 0.9991 0.0
C4538 C 0.746 0.22194 0.9836 0.0
C4539 C 0.74749 0.22541 0.88294 0.0
C4540 C 0.74977 0.24366 0.8889 0.0
C4541 C 0.75307 0.21404 0.89504 0.0
C4542 C 0.7614 0.22095 0.913 0.0
C4543 C 0.76546 0.23949 0.91814 0.0
C4544 C 0.75937 0.25085 0.90619 0.0
C4545 C 0.76173 0.20892 0.92751 0.0
C4546 C 0.75275 0.21262 0.94303 0.0
C4547 C 0.76824 0.19282 0.92504 0.0
C4548 C 0.7778 0.18815 0.90893 0.0
C4549 C 0.79268 0.2 0.9047 0.0
C4550 C 0.80172 0.19539 0.88959 0.0
C4551 C 0.79601 0.17895 0.87863 0.0
C4552 C 0.78125 0.16708 0.88277 0.0
C4553 C 0.7722 0.1716 0.89788 0.0
H4554 H 0.80302 0.17541 0.86695 0.0
H4555 H 0.71642 0.21674 0.01577 0.0
H4556 H 0.12918 0.55306 0.21203 0.0
H4557 H 0.10767 0.54213 0.18462 0.0
H4558 H 0.14622 0.5157 0.1592 0.0
H4559 H 0.16805 0.52681 0.18668 0.0
H4560 H 0.1313 0.53835 0.1382 0.0
H4561 H 0.11075 0.48972 0.17226 0.0
H4562 H 0.10195 0.47605 0.2003 0.0
H4563 H 0.05864 0.50462 0.20186 0.0
H4564 H 0.06728 0.51863 0.17397 0.0
H4565 H 0.06128 0.50332 0.06517 0.0
H4566 H 0.08393 0.50407 0.09129 0.0
H4567 H 0.06099 0.54247 0.12393 0.0
H4568 H 0.03868 0.5427 0.09733 0.0
H4569 H 0.06883 0.50754 0.13947 0.0
H4570 H 0.09816 0.56515 0.1218 0.0
H4571 H 0.11042 0.58698 0.1012 0.0
H4572 H 0.13593 0.54787 0.07371 0.0
H4573 H 0.12435 0.52605 0.09472 0.0
C4574 C 0.13307 0.54501 0.20053 0.0
C4575 C 0.1501 0.54073 0.20121 0.0
C4576 C 0.12074 0.5385 0.18518 0.0
C4577 C 0.12535 0.52758 0.17052 0.0
C4578 C 0.14252 0.52374 0.17083 0.0
C4579 C 0.15496 0.53036 0.18621 0.0
C4580 C 0.11292 0.5227 0.15374 0.0
C4581 C 0.11782 0.53098 0.13815 0.0
C4582 C 0.09522 0.51393 0.15443 0.0
C4583 C 0.08968 0.50521 0.17098 0.0
C4584 C 0.09937 0.49313 0.1786 0.0
C4585 C 0.09441 0.48531 0.19448 0.0
C4586 C 0.07974 0.48946 0.20285 0.0
C4587 C 0.06997 0.50139 0.19533 0.0
C4588 C 0.07486 0.50922 0.17945 0.0
C4589 C 0.0612 0.51217 0.07775 0.0
C4590 C 0.04855 0.52322 0.07926 0.0
C4591 C 0.074 0.51243 0.0926 0.0
C4592 C 0.07389 0.5234 0.10909 0.0
C4593 C 0.06102 0.53405 0.11101 0.0
C4594 C 0.04837 0.53408 0.09597 0.0
C4595 C 0.08735 0.52349 0.12438 0.0
C4596 C 0.08253 0.51424 0.1394 0.0
C4597 C 0.10502 0.53192 0.12362 0.0
C4598 C 0.11011 0.54393 0.10946 0.0
C4599 C 0.10615 0.56116 0.11114 0.0
C4600 C 0.11318 0.57358 0.09959 0.0
C4601 C 0.12379 0.56876 0.08601 0.0
C4602 C 0.12757 0.55154 0.08411 0.0
C4603 C 0.12089 0.53918 0.09591 0.0
H4604 H 0.12916 0.57839 0.07703 0.0
H4605 H 0.07594 0.48342 0.21517 0.0
H4606 H 0.81463 0.87938 0.47566 0.0
H4607 H 0.81403 0.86368 0.44456 0.0
H4608 H 0.76557 0.82831 0.45256 0.0
H4609 H 0.7669 0.84338 0.48436 0.0
H4610 H 0.78459 0.80968 0.43598 0.0
H4611 H 0.7683 0.86559 0.42325 0.0
H4612 H 0.77133 0.89826 0.42449 0.0
H4613 H 0.82117 0.90147 0.40132 0.0
H4614 H 0.81853 0.86886 0.40014 0.0
H4615 H 0.76394 0.77918 0.33691 0.0
H4616 H 0.7642 0.79124 0.36979 0.0
H4617 H 0.81595 0.82374 0.36807 0.0
H4618 H 0.81511 0.81239 0.33518 0.0
H4619 H 0.79393 0.84307 0.38121 0.0
H4620 H 0.81005 0.78721 0.39359 0.0
H4621 H 0.80718 0.75458 0.39241 0.0
H4622 H 0.75742 0.75119 0.41577 0.0
H4623 H 0.75987 0.78378 0.41684 0.0
C4624 C 0.80384 0.86825 0.47078 0.0
C4625 C 0.79078 0.86263 0.48241 0.0
C4626 C 0.80339 0.85936 0.45287 0.0
C4627 C 0.78948 0.84503 0.44583 0.0
C4628 C 0.77643 0.83934 0.45753 0.0
C4629 C 0.77716 0.84796 0.4757 0.0
C4630 C 0.78884 0.83574 0.42651 0.0
C4631 C 0.78631 0.81701 0.42397 0.0
C4632 C 0.79155 0.84518 0.41075 0.0
C4633 C 0.79329 0.86482 0.41179 0.0
C4634 C 0.77997 0.87329 0.41858 0.0
C4635 C 0.78161 0.89179 0.41923 0.0
C4636 C 0.79646 0.90194 0.41304 0.0
C4637 C 0.80969 0.89361 0.40614 0.0
C4638 C 0.80813 0.87512 0.40547 0.0
C4639 C 0.77542 0.78875 0.34373 0.0
C4640 C 0.78976 0.7946 0.33373 0.0
C4641 C 0.77564 0.79552 0.36252 0.0
C4642 C 0.79022 0.80824 0.37155 0.0
C4643 C 0.80463 0.81383 0.36152 0.0
C4644 C 0.80431 0.80716 0.34277 0.0
C4645 C 0.78984 0.8171 0.39077 0.0
C4646 C 0.79212 0.83576 0.39324 0.0
C4647 C 0.78683 0.80758 0.40637 0.0
C4648 C 0.78503 0.78791 0.40506 0.0
C4649 C 0.79837 0.77948 0.39823 0.0
C4650 C 0.79685 0.761 0.39764 0.0
C4651 C 0.7821 0.75081 0.40395 0.0
C4652 C 0.76882 0.75908 0.41084 0.0
C4653 C 0.77027 0.77756 0.41144 0.0
H4654 H 0.78097 0.7365 0.40355 0.0
H4655 H 0.79768 0.91626 0.41354 0.0
H4656 H 0.47332 0.52391 0.8052 0.0
H4657 H 0.48902 0.52386 0.83639 0.0
H4658 H 0.43855 0.51327 0.85884 0.0
H4659 H 0.42285 0.51373 0.82781 0.0
H4660 H 0.46104 0.53776 0.88141 0.0
H4661 H 0.46417 0.48011 0.85047 0.0
H4662 H 0.47133 0.45982 0.82489 0.0
H4663 H 0.52655 0.48504 0.83545 0.0
H4664 H 0.51967 0.50561 0.86099 0.0
H4665 H 0.48707 0.51443 0.96963 0.0
H4666 H 0.47406 0.51364 0.9373 0.0
H4667 H 0.52658 0.51938 0.91913 0.0
H4668 H 0.53952 0.51896 0.95159 0.0
H4669 H 0.50493 0.49861 0.89359 0.0
H4670 H 0.50191 0.55685 0.92319 0.0
H4671 H 0.49475 0.57907 0.9466 0.0
H4672 H 0.43952 0.55354 0.93778 0.0
H4673 H 0.44641 0.53128 0.91394 0.0
C4674 C 0.46558 0.5216 0.8168 0.0
C4675 C 0.44683 0.51879 0.81401 0.0
C4676 C 0.47457 0.52146 0.83463 0.0
C4677 C 0.46501 0.51827 0.85001 0.0
C4678 C 0.44628 0.51571 0.84724 0.0
C4679 C 0.43729 0.51596 0.82947 0.0
C4680 C 0.47439 0.51793 0.86908 0.0
C4681 C 0.47045 0.529 0.88407 0.0
C4682 C 0.48716 0.50699 0.8726 0.0
C4683 C 0.4914 0.49444 0.85754 0.0
C4684 C 0.47783 0.48136 0.84728 0.0
C4685 C 0.48183 0.46981 0.8328 0.0
C4686 C 0.49938 0.47116 0.82853 0.0
C4687 C 0.51297 0.48402 0.83877 0.0
C4688 C 0.50903 0.4956 0.85328 0.0
C4689 C 0.49583 0.51542 0.95872 0.0
C4690 C 0.51432 0.51693 0.96316 0.0
C4691 C 0.48841 0.51516 0.9402 0.0
C4692 C 0.49931 0.51709 0.92564 0.0
C4693 C 0.5178 0.51802 0.93 0.0
C4694 C 0.52521 0.51778 0.94856 0.0
C4695 C 0.4913 0.51823 0.90607 0.0
C4696 C 0.49554 0.50738 0.89096 0.0
C4697 C 0.4788 0.52942 0.90233 0.0
C4698 C 0.47469 0.54239 0.91696 0.0
C4699 C 0.48827 0.55592 0.92636 0.0
C4700 C 0.48423 0.56856 0.93968 0.0
C4701 C 0.46666 0.56768 0.94381 0.0
C4702 C 0.45311 0.55419 0.93458 0.0
C4703 C 0.45706 0.54163 0.92109 0.0
H4704 H 0.46344 0.57749 0.95403 0.0
H4705 H 0.50245 0.46222 0.81729 0.0
H4706 H 0.78214 0.18417 0.08259 0.0
H4707 H 0.78759 0.20402 0.11163 0.0
H4708 H 0.77395 0.15915 0.14275 0.0
H4709 H 0.76817 0.13896 0.11345 0.0
H4710 H 0.75601 0.18819 0.14939 0.0
H4711 H 0.81639 0.17794 0.1462 0.0
H4712 H 0.84221 0.17582 0.12879 0.0
H4713 H 0.84612 0.23054 0.11855 0.0
H4714 H 0.8202 0.23292 0.13573 0.0
H4715 H 0.79981 0.24868 0.23519 0.0
H4716 H 0.79648 0.22287 0.21125 0.0
H4717 H 0.78118 0.25548 0.16938 0.0
H4718 H 0.78074 0.27957 0.19371 0.0
H4719 H 0.81351 0.2294 0.171 0.0
H4720 H 0.75222 0.23956 0.16693 0.0
H4721 H 0.72355 0.24276 0.17787 0.0
H4722 H 0.71641 0.18931 0.19269 0.0
H4723 H 0.74615 0.18655 0.18382 0.0
C4724 C 0.78041 0.1785 0.09562 0.0
C4725 C 0.77483 0.16014 0.096 0.0
C4726 C 0.78366 0.1898 0.11211 0.0
C4727 C 0.78149 0.18281 0.12908 0.0
C4728 C 0.77589 0.16451 0.12959 0.0
C4729 C 0.77265 0.15311 0.11301 0.0
C4730 C 0.78389 0.19505 0.14607 0.0
C4731 C 0.76864 0.19691 0.15461 0.0
C4732 C 0.80027 0.20675 0.15184 0.0
C4733 C 0.8164 0.2056 0.14231 0.0
C4734 C 0.82278 0.18952 0.14026 0.0
C4735 C 0.83742 0.18827 0.13041 0.0
C4736 C 0.84581 0.20304 0.12259 0.0
C4737 C 0.83964 0.21912 0.12467 0.0
C4738 C 0.82501 0.22045 0.13452 0.0
C4739 C 0.79418 0.24953 0.22123 0.0
C4740 C 0.78845 0.26498 0.21661 0.0
C4741 C 0.7929 0.23523 0.20751 0.0
C4742 C 0.78725 0.23715 0.18896 0.0
C4743 C 0.78419 0.25354 0.18393 0.0
C4744 C 0.78416 0.26725 0.19778 0.0
C4745 C 0.78563 0.2224 0.17453 0.0
C4746 C 0.80101 0.22025 0.16633 0.0
C4747 C 0.76914 0.21085 0.16857 0.0
C4748 C 0.75206 0.21327 0.17572 0.0
C4749 C 0.7452 0.22891 0.17364 0.0
C4750 C 0.72859 0.23058 0.1793 0.0
C4751 C 0.71824 0.21633 0.1862 0.0
C4752 C 0.72453 0.20042 0.18753 0.0
C4753 C 0.74145 0.19896 0.18259 0.0
H4754 H 0.70527 0.21754 0.19034 0.0
H4755 H 0.8571 0.20203 0.11491 0.0
H4756 H 0.1751 0.56304 0.31453 0.0
H4757 H 0.1567 0.56629 0.34016 0.0
H4758 H 0.11592 0.52345 0.31151 0.0
H4759 H 0.13396 0.52036 0.28591 0.0
H4760 H 0.10361 0.55408 0.32282 0.0
H4761 H 0.14355 0.51605 0.34697 0.0
H4762 H 0.17416 0.51125 0.35536 0.0
H4763 H 0.1844 0.55781 0.39574 0.0
H4764 H 0.15394 0.56308 0.38731 0.0
H4765 H 0.04372 0.54391 0.38833 0.0
H4766 H 0.0644 0.53334 0.36777 0.0
H4767 H 0.10869 0.56833 0.40196 0.0
H4768 H 0.08826 0.57783 0.4229 0.0
H4769 H 0.12012 0.5419 0.38785 0.0
H4770 H 0.08231 0.58135 0.3648 0.0
H4771 H 0.05381 0.59026 0.35478 0.0
H4772 H 0.04159 0.54617 0.31131 0.0
H4773 H 0.0698 0.53672 0.3214 0.0
C4774 C 0.16238 0.5541 0.31402 0.0
C4775 C 0.15585 0.54135 0.29855 0.0
C4776 C 0.15191 0.55607 0.32847 0.0
C4777 C 0.13512 0.54506 0.32748 0.0
C4778 C 0.12888 0.53203 0.31228 0.0
C4779 C 0.1392 0.5302 0.29784 0.0
C4780 C 0.12366 0.54698 0.34212 0.0
C4781 C 0.10704 0.55127 0.33704 0.0
C4782 C 0.12866 0.54382 0.36059 0.0
C4783 C 0.14651 0.53997 0.36649 0.0
C4784 C 0.15233 0.52525 0.35766 0.0
C4785 C 0.16967 0.52248 0.36238 0.0
C4786 C 0.18122 0.53422 0.37607 0.0
C4787 C 0.17543 0.54872 0.38514 0.0
C4788 C 0.15813 0.5516 0.38041 0.0
C4789 C 0.05793 0.54897 0.39144 0.0
C4790 C 0.06464 0.56204 0.4065 0.0
C4791 C 0.06966 0.54293 0.37989 0.0
C4792 C 0.08791 0.55057 0.38308 0.0
C4793 C 0.09463 0.56243 0.39917 0.0
C4794 C 0.08301 0.56805 0.41092 0.0
C4795 C 0.09964 0.54858 0.36852 0.0
C4796 C 0.11648 0.54452 0.37363 0.0
C4797 C 0.09499 0.5524 0.35008 0.0
C4798 C 0.07804 0.55817 0.34404 0.0
C4799 C 0.07347 0.57346 0.35322 0.0
C4800 C 0.05736 0.57861 0.34753 0.0
C4801 C 0.04586 0.56875 0.33247 0.0
C4802 C 0.05046 0.55375 0.32304 0.0
C4803 C 0.06648 0.54846 0.32876 0.0
H4804 H 0.03342 0.57278 0.32806 0.0
H4805 H 0.19466 0.53209 0.37967 0.0
H4806 H 0.80412 0.8443 0.57716 0.0
H4807 H 0.79856 0.82863 0.60459 0.0
H4808 H 0.76451 0.865 0.62157 0.0
H4809 H 0.77091 0.88127 0.59476 0.0
H4810 H 0.78208 0.8592 0.651 0.0
H4811 H 0.74798 0.81984 0.59998 0.0
H4812 H 0.74239 0.80204 0.56897 0.0
H4813 H 0.78105 0.77088 0.5864 0.0
H4814 H 0.787 0.78862 0.61746 0.0
H4815 H 0.74894 0.80542 0.71988 0.0
H4816 H 0.75046 0.82109 0.69193 0.0
H4817 H 0.78752 0.78927 0.67217 0.0
H4818 H 0.78538 0.77307 0.69965 0.0
H4819 H 0.76574 0.79321 0.64403 0.0
H4820 H 0.79972 0.83504 0.69584 0.0
H4821 H 0.80323 0.85327 0.72656 0.0
H4822 H 0.76137 0.8799 0.70719 0.0
H4823 H 0.75755 0.86181 0.67641 0.0
C4824 C 0.7955 0.84896 0.58679 0.0
C4825 C 0.78796 0.864 0.58379 0.0
C4826 C 0.79218 0.83991 0.60242 0.0
C4827 C 0.78076 0.84532 0.61509 0.0
C4828 C 0.77335 0.86047 0.61212 0.0
C4829 C 0.77699 0.86976 0.59673 0.0
C4830 C 0.77667 0.8353 0.63145 0.0
C4831 C 0.77828 0.84478 0.64938 0.0
C4832 C 0.7717 0.81645 0.62957 0.0
C4833 C 0.76802 0.80564 0.61098 0.0
C4834 C 0.75535 0.80925 0.59716 0.0
C4835 C 0.7521 0.79916 0.57959 0.0
C4836 C 0.76138 0.78536 0.57571 0.0
C4837 C 0.77388 0.78157 0.58942 0.0
C4838 C 0.77717 0.79162 0.60702 0.0
C4839 C 0.75726 0.80165 0.70945 0.0
C4840 C 0.76706 0.78801 0.71198 0.0
C4841 C 0.75826 0.81074 0.69354 0.0
C4842 C 0.76946 0.80673 0.68005 0.0
C4843 C 0.77883 0.79273 0.68234 0.0
C4844 C 0.77758 0.78342 0.69806 0.0
C4845 C 0.77163 0.81706 0.6636 0.0
C4846 C 0.76953 0.80763 0.64562 0.0
C4847 C 0.77581 0.83597 0.66543 0.0
C4848 C 0.77826 0.84696 0.68389 0.0
C4849 C 0.79122 0.84472 0.69818 0.0
C4850 C 0.79327 0.85503 0.71558 0.0
C4851 C 0.78249 0.86766 0.71883 0.0
C4852 C 0.76969 0.87009 0.70466 0.0
C4853 C 0.7676 0.85984 0.68722 0.0
H4854 H 0.78411 0.87561 0.73231 0.0
H4855 H 0.75887 0.77758 0.56209 0.0
H4856 H 0.7461 0.43288 0.52844 0.0
H4857 H 0.72298 0.44982 0.5355 0.0
H4858 H 0.72027 0.46519 0.47938 0.0
H4859 H 0.74464 0.44936 0.47289 0.0
H4860 H 0.7196 0.49219 0.50558 0.0
H4861 H 0.68962 0.42968 0.49221 0.0
H4862 H 0.68823 0.39829 0.49796 0.0
H4863 H 0.68295 0.41212 0.55592 0.0
H4864 H 0.68456 0.44361 0.55058 0.0
H4865 H 0.64451 0.52954 0.52942 0.0
H4866 H 0.66226 0.51213 0.51121 0.0
H4867 H 0.67048 0.48223 0.55805 0.0
H4868 H 0.65179 0.49839 0.57548 0.0
H4869 H 0.66507 0.46113 0.52889 0.0
H4870 H 0.6996 0.52068 0.54733 0.0
H4871 H 0.70897 0.5532 0.548 0.0
H4872 H 0.71278 0.54697 0.48889 0.0
H4873 H 0.70292 0.51447 0.48776 0.0
C4874 C 0.74033 0.43975 0.51764 0.0
C4875 C 0.7464 0.43964 0.50003 0.0
C4876 C 0.72726 0.44936 0.52163 0.0
C4877 C 0.71961 0.4581 0.50767 0.0
C4878 C 0.72593 0.45821 0.49012 0.0
C4879 C 0.73957 0.44914 0.48638 0.0
C4880 C 0.70497 0.46715 0.51154 0.0
C4881 C 0.70741 0.48546 0.51028 0.0
C4882 C 0.68954 0.45817 0.51816 0.0
C4883 C 0.68706 0.43898 0.52094 0.0
C4884 C 0.68801 0.42599 0.50614 0.0
C4885 C 0.68728 0.4082 0.50935 0.0
C4886 C 0.68546 0.40321 0.52728 0.0
C4887 C 0.68428 0.41598 0.54202 0.0
C4888 C 0.68504 0.43379 0.53889 0.0
C4889 C 0.64983 0.51897 0.53558 0.0
C4890 C 0.64709 0.51544 0.55395 0.0
C4891 C 0.66007 0.50922 0.52527 0.0
C4892 C 0.66786 0.49615 0.53343 0.0
C4893 C 0.66458 0.49229 0.5515 0.0
C4894 C 0.65411 0.50168 0.56155 0.0
C4895 C 0.6799 0.48655 0.52376 0.0
C4896 C 0.67693 0.46796 0.52367 0.0
C4897 C 0.69527 0.49548 0.51677 0.0
C4898 C 0.70004 0.51516 0.51737 0.0
C4899 C 0.70203 0.52627 0.53439 0.0
C4900 C 0.70752 0.54471 0.53487 0.0
C4901 C 0.71134 0.55216 0.51848 0.0
C4902 C 0.70966 0.54121 0.50156 0.0
C4903 C 0.70405 0.52279 0.50098 0.0
H4904 H 0.71571 0.56642 0.5189 0.0
H4905 H 0.68499 0.38945 0.52976 0.0
H4906 H 0.20365 0.16246 0.49967 0.0
H4907 H 0.17445 0.14278 0.4969 0.0
H4908 H 0.19988 0.09964 0.51277 0.0
H4909 H 0.22909 0.11904 0.51471 0.0
H4910 H 0.1744 0.0871 0.48628 0.0
H4911 H 0.179 0.12635 0.54378 0.0
H4912 H 0.18323 0.15554 0.56286 0.0
H4913 H 0.13751 0.16782 0.53117 0.0
H4914 H 0.13319 0.13883 0.51167 0.0
H4915 H 0.10056 0.03438 0.52273 0.0
H4916 H 0.12899 0.0535 0.51952 0.0
H4917 H 0.10102 0.088 0.48928 0.0
H4918 H 0.07266 0.06853 0.49143 0.0
H4919 H 0.12663 0.10521 0.52118 0.0
H4920 H 0.12097 0.06533 0.46508 0.0
H4921 H 0.11673 0.0363 0.44576 0.0
H4922 H 0.16432 0.02516 0.47492 0.0
H4923 H 0.16863 0.05396 0.49475 0.0
C4924 C 0.20298 0.14878 0.50257 0.0
C4925 C 0.21863 0.14234 0.50761 0.0
C4926 C 0.18628 0.13754 0.50104 0.0
C4927 C 0.18488 0.11977 0.50498 0.0
C4928 C 0.20056 0.11328 0.5097 0.0
C4929 C 0.21726 0.12442 0.51092 0.0
C4930 C 0.16716 0.10794 0.50451 0.0
C4931 C 0.16406 0.09101 0.49412 0.0
C4932 C 0.15341 0.11316 0.51429 0.0
C4933 C 0.15589 0.1305 0.52615 0.0
C4934 C 0.16992 0.13532 0.54081 0.0
C4935 C 0.17233 0.15183 0.55169 0.0
C4936 C 0.16067 0.16355 0.5482 0.0
C4937 C 0.14655 0.15875 0.53384 0.0
C4938 C 0.14412 0.14229 0.52286 0.0
C4939 C 0.10043 0.04571 0.51491 0.0
C4940 C 0.08426 0.04967 0.50705 0.0
C4941 C 0.1167 0.05672 0.51325 0.0
C4942 C 0.11705 0.0721 0.50411 0.0
C4943 C 0.101 0.07614 0.49633 0.0
C4944 C 0.0848 0.06494 0.49756 0.0
C4945 C 0.13412 0.08437 0.50328 0.0
C4946 C 0.13703 0.10136 0.51339 0.0
C4947 C 0.14769 0.07918 0.49331 0.0
C4948 C 0.14498 0.06172 0.4816 0.0
C4949 C 0.13039 0.05659 0.46758 0.0
C4950 C 0.128 0.04019 0.45649 0.0
C4951 C 0.14021 0.02886 0.45915 0.0
C4952 C 0.15484 0.03392 0.47291 0.0
C4953 C 0.15726 0.05028 0.48409 0.0
H4954 H 0.13837 0.01619 0.45051 0.0
H4955 H 0.16256 0.17632 0.55665 0.0
H4956 H 0.13742 0.9784 0.76831 0.0
H4957 H 0.15406 0.95412 0.76421 0.0
H4958 H 0.2014 0.98844 0.79346 0.0
H4959 H 0.185 0.01289 0.79696 0.0
H4960 H 0.20919 0.97232 0.76314 0.0
H4961 H 0.17496 0.9526 0.81291 0.0
H4962 H 0.14764 0.9433 0.82768 0.0
H4963 H 0.12917 0.90099 0.78298 0.0
H4964 H 0.15625 0.91019 0.76781 0.0
H4965 H 0.26331 0.90744 0.7659 0.0
H4966 H 0.24589 0.92923 0.7777 0.0
H4967 H 0.19761 0.89574 0.74936 0.0
H4968 H 0.21498 0.87388 0.7381 0.0
H4969 H 0.19038 0.91127 0.7802 0.0
H4970 H 0.22232 0.93034 0.72961 0.0
H4971 H 0.24839 0.93903 0.71275 0.0
H4972 H 0.26952 0.98214 0.75594 0.0
H4973 H 0.24375 0.97348 0.77326 0.0
C4974 C 0.15134 0.9807 0.774 0.0
C4975 C 0.15993 0.99754 0.78296 0.0
C4976 C 0.16081 0.96677 0.77175 0.0
C4977 C 0.17895 0.96935 0.77876 0.0
C4978 C 0.18742 0.9861 0.78796 0.0
C4979 C 0.17804 1.00007 0.78997 0.0
C4980 C 0.18947 0.95503 0.77561 0.0
C4981 C 0.20523 0.95906 0.76722 0.0
C4982 C 0.18396 0.9375 0.78017 0.0
C4983 C 0.16755 0.9322 0.78915 0.0
C4984 C 0.16499 0.94142 0.80615 0.0
C4985 C 0.14956 0.93614 0.81461 0.0
C4986 C 0.13666 0.92159 0.80626 0.0
C4987 C 0.13915 0.91228 0.78943 0.0
C4988 C 0.15454 0.91751 0.7809 0.0
C4989 C 0.24891 0.90453 0.76285 0.0
C4990 C 0.24036 0.88907 0.75127 0.0
C4991 C 0.239 0.91704 0.76934 0.0
C4992 C 0.22049 0.91432 0.76401 0.0
C4993 C 0.21186 0.89819 0.75357 0.0
C4994 C 0.22174 0.88568 0.74721 0.0
C4995 C 0.21023 0.92867 0.76804 0.0
C4996 C 0.19445 0.9246 0.77638 0.0
C4997 C 0.21555 0.94611 0.76312 0.0
C4998 C 0.23122 0.95109 0.75287 0.0
C4999 C 0.23263 0.94154 0.73563 0.0
C5000 C 0.24734 0.94648 0.72597 0.0
C5001 C 0.26064 0.96108 0.7333 0.0
C5002 C 0.25924 0.97078 0.75031 0.0
C5003 C 0.2446 0.96585 0.76006 0.0
H5004 H 0.27199 0.96492 0.72577 0.0
H5005 H 0.12474 0.9175 0.81285 0.0
H5006 H 0.35229 0.92199 0.99621 0.0
H5007 H 0.38232 0.93973 0.99834 0.0
H5008 H 0.36122 0.98801 0.00812 0.0
H5009 H 0.33117 0.9705 0.00575 0.0
H5010 H 0.3846 0.98895 0.98165 0.0
H5011 H 0.38008 0.97258 0.0443 0.0
H5012 H 0.37511 0.95215 0.06844 0.0
H5013 H 0.41704 0.92607 0.05123 0.0
H5014 H 0.42209 0.9462 0.02682 0.0
H5015 H 0.46595 0.04778 0.01359 0.0
H5016 H 0.43549 0.03114 0.01324 0.0
H5017 H 0.45474 0.98162 0.00474 0.0
H5018 H 0.48484 0.99814 0.00476 0.0
H5019 H 0.43199 0.98189 0.03076 0.0
H5020 H 0.43458 0.99563 0.96623 0.0
H5021 H 0.43731 0.01333 0.93952 0.0
H5022 H 0.39935 0.04354 0.95928 0.0
H5023 H 0.39615 0.02578 0.98591 0.0
C5024 C 0.35411 0.93638 0.99878 0.0
C5025 C 0.33966 0.94501 0.00098 0.0
C5026 C 0.37113 0.94639 1.00003 0.0
C5027 C 0.37364 0.96494 0.00363 0.0
C5028 C 0.35924 0.9736 0.00543 0.0
C5029 C 0.34223 0.96364 0.00411 0.0
C5030 C 0.39137 0.97546 0.00541 0.0
C5031 C 0.39498 0.98767 0.9925 0.0
C5032 C 0.40468 0.97316 0.01933 0.0
C5033 C 0.40129 0.96073 0.03361 0.0
C5034 C 0.38808 0.96234 0.04552 0.0
C5035 C 0.38529 0.95085 0.05929 0.0
C5036 C 0.39571 0.93778 0.06133 0.0
C5037 C 0.40895 0.93617 0.0496 0.0
C5038 C 0.41178 0.94761 0.03581 0.0
C5039 C 0.46359 0.03334 0.01247 0.0
C5040 C 0.47743 0.024 0.00992 0.0
C5041 C 0.44636 0.02397 0.01186 0.0
C5042 C 0.4432 0.00537 0.0086 0.0
C5043 C 0.45722 0.99606 0.00721 0.0
C5044 C 0.47437 0.00541 0.00773 0.0
C5045 C 0.42528 0.9954 0.00698 0.0
C5046 C 0.42161 0.98326 0.01993 0.0
C5047 C 0.41198 0.99771 0.99301 0.0
C5048 C 0.41538 0.0096 0.97822 0.0
C5049 C 0.42709 0.00627 0.96507 0.0
C5050 C 0.42862 0.01624 0.94987 0.0
C5051 C 0.41865 0.02967 0.9478 0.0
C5052 C 0.40713 0.0332 0.96094 0.0
C5053 C 0.40542 0.02316 0.97605 0.0
H5054 H 0.41974 0.03727 0.93595 0.0
H5055 H 0.39357 0.92894 0.07203 0.0
H5056 H 0.88942 0.57888 0.79148 0.0
H5057 H 0.87327 0.60261 0.78457 0.0
H5058 H 0.82351 0.56827 0.79065 0.0
H5059 H 0.83951 0.54425 0.79701 0.0
H5060 H 0.82359 0.58419 0.75813 0.0
H5061 H 0.84116 0.60046 0.8247 0.0
H5062 H 0.86453 0.60573 0.85165 0.0
H5063 H 0.89389 0.64895 0.82715 0.0
H5064 H 0.87078 0.64375 0.79989 0.0
H5065 H 0.77033 0.64731 0.74741 0.0
H5066 H 0.78422 0.62655 0.76509 0.0
H5067 H 0.83612 0.65899 0.76348 0.0
H5068 H 0.82217 0.67982 0.74611 0.0
H5069 H 0.83443 0.64374 0.79543 0.0
H5070 H 0.81852 0.62763 0.72899 0.0
H5071 H 0.79916 0.61976 0.69898 0.0
H5072 H 0.76996 0.57436 0.72026 0.0
H5073 H 0.78881 0.58225 0.75059 0.0
C5074 C 0.87507 0.57655 0.79163 0.0
C5075 C 0.86555 0.55998 0.79478 0.0
C5076 C 0.86594 0.59001 0.78768 0.0
C5077 C 0.84738 0.58699 0.78737 0.0
C5078 C 0.8379 0.5706 0.79094 0.0
C5079 C 0.84699 0.55705 0.79461 0.0
C5080 C 0.83769 0.6008 0.7826 0.0
C5081 C 0.82553 0.59711 0.76644 0.0
C5082 C 0.84108 0.61764 0.79327 0.0
C5083 C 0.85421 0.62177 0.81032 0.0
C5084 C 0.85255 0.61116 0.82512 0.0
C5085 C 0.86578 0.61408 0.84041 0.0
C5086 C 0.88067 0.62769 0.84112 0.0
C5087 C 0.88231 0.63846 0.82659 0.0
C5088 C 0.86913 0.63556 0.81125 0.0
C5089 C 0.78464 0.65006 0.75128 0.0
C5090 C 0.79546 0.66459 0.74523 0.0
C5091 C 0.79249 0.63839 0.76136 0.0
C5092 C 0.81111 0.64123 0.76511 0.0
C5093 C 0.82172 0.65667 0.76053 0.0
C5094 C 0.81386 0.66835 0.75051 0.0
C5095 C 0.81974 0.62699 0.77115 0.0
C5096 C 0.832 0.63068 0.78737 0.0
C5097 C 0.8166 0.61011 0.76034 0.0
C5098 C 0.80486 0.60577 0.74224 0.0
C5099 C 0.80777 0.61616 0.72741 0.0
C5100 C 0.79692 0.61166 0.7103 0.0
C5101 C 0.78328 0.59662 0.70774 0.0
C5102 C 0.78046 0.58606 0.72229 0.0
C5103 C 0.79118 0.59058 0.73946 0.0
H5104 H 0.77495 0.5931 0.69446 0.0
H5105 H 0.89095 0.62987 0.85292 0.0
H5106 H 0.83248 0.67281 0.02241 0.0
H5107 H 0.85678 0.65597 0.02608 0.0
H5108 H 0.81916 0.60679 0.00915 0.0
H5109 H 0.79495 0.62339 0.00591 0.0
H5110 H 0.83956 0.60442 0.03989 0.0
H5111 H 0.84944 0.62572 0.97997 0.0
H5112 H 0.85564 0.64841 0.95827 0.0
H5113 H 0.90447 0.67216 0.99275 0.0
H5114 H 0.89843 0.64975 0.01477 0.0
H5115 H 0.89884 0.54505 0.03479 0.0
H5116 H 0.8767 0.56223 0.02337 0.0
H5117 H 0.9153 0.61098 0.03906 0.0
H5118 H 0.93734 0.59374 0.0501 0.0
H5119 H 0.89485 0.61402 0.00882 0.0
H5120 H 0.88587 0.59416 0.06871 0.0
H5121 H 0.88044 0.5727 0.0918 0.0
H5122 H 0.83065 0.54794 0.05968 0.0
H5123 H 0.83594 0.56903 0.0362 0.0
C5124 C 0.82948 0.65842 0.01935 0.0
C5125 C 0.81184 0.6494 0.01394 0.0
C5126 C 0.84335 0.64883 0.02136 0.0
C5127 C 0.83978 0.63013 0.01775 0.0
C5128 C 0.82221 0.6212 0.01203 0.0
C5129 C 0.80839 0.63072 0.01017 0.0
C5130 C 0.85403 0.6196 0.02078 0.0
C5131 C 0.85153 0.60633 0.03286 0.0
C5132 C 0.86994 0.62256 0.01217 0.0
C5133 C 0.87338 0.63619 0.9991 0.0
C5134 C 0.8614 0.63589 0.98301 0.0
C5135 C 0.86491 0.64868 0.97064 0.0
C5136 C 0.88042 0.66175 0.97416 0.0
C5137 C 0.89245 0.66205 0.99005 0.0
C5138 C 0.88899 0.64931 0.00248 0.0
C5139 C 0.9027 0.55937 0.03503 0.0
C5140 C 0.91974 0.56819 0.043 0.0
C5141 C 0.89005 0.56918 0.02876 0.0
C5142 C 0.89426 0.58791 0.03079 0.0
C5143 C 0.91176 0.59656 0.03741 0.0
C5144 C 0.92439 0.58674 0.04356 0.0
C5145 C 0.88018 0.59859 0.0276 0.0
C5146 C 0.8828 0.612 0.0157 0.0
C5147 C 0.86446 0.59593 0.03659 0.0
C5148 C 0.86143 0.58304 0.05056 0.0
C5149 C 0.87386 0.58402 0.06645 0.0
C5150 C 0.87079 0.57193 0.07963 0.0
C5151 C 0.85524 0.55893 0.07718 0.0
C5152 C 0.84272 0.55798 0.06154 0.0
C5153 C 0.84576 0.56999 0.04828 0.0
H5154 H 0.85286 0.54962 0.08742 0.0
H5155 H 0.88313 0.67161 0.96454 0.0
H5156 H 0.18944 0.08243 0.80653 0.0
H5157 H 0.20903 0.11166 0.80836 0.0
H5158 H 0.16604 0.13259 0.7808 0.0
H5159 H 0.14648 0.10347 0.77885 0.0
H5160 H 0.19564 0.14068 0.76457 0.0
H5161 H 0.1801 0.14515 0.82708 0.0
H5162 H 0.17645 0.13645 0.85867 0.0
H5163 H 0.2328 0.13778 0.86916 0.0
H5164 H 0.23676 0.14629 0.83753 0.0
H5165 H 0.23594 0.23532 0.79489 0.0
H5166 H 0.21683 0.20671 0.79699 0.0
H5167 H 0.26007 0.17966 0.78607 0.0
H5168 H 0.27839 0.20778 0.78125 0.0
H5169 H 0.23046 0.17519 0.82205 0.0
H5170 H 0.24409 0.16775 0.75635 0.0
H5171 H 0.24623 0.17826 0.72543 0.0
H5172 H 0.1909 0.18225 0.72081 0.0
H5173 H 0.18868 0.17272 0.75234 0.0
C5174 C 0.18414 0.09331 0.80099 0.0
C5175 C 0.16644 0.09062 0.79245 0.0
C5176 C 0.19531 0.11003 0.80215 0.0
C5177 C 0.18899 0.12436 0.79479 0.0
C5178 C 0.17123 0.12174 0.78656 0.0
C5179 C 0.16006 0.10508 0.78546 0.0
C5180 C 0.20113 0.14174 0.79454 0.0
C5181 C 0.20314 0.14823 0.7772 0.0
C5182 C 0.21107 0.15159 0.81096 0.0
C5183 C 0.20869 0.14614 0.82985 0.0
C5184 C 0.19169 0.14339 0.83604 0.0
C5185 C 0.18957 0.13855 0.85398 0.0
C5186 C 0.20437 0.1365 0.86589 0.0
C5187 C 0.22133 0.13933 0.8599 0.0
C5188 C 0.22353 0.14418 0.84198 0.0
C5189 C 0.24149 0.22334 0.79287 0.0
C5190 C 0.25904 0.22411 0.78821 0.0
C5191 C 0.23049 0.20698 0.79412 0.0
C5192 C 0.237 0.1911 0.7915 0.0
C5193 C 0.25471 0.19179 0.78782 0.0
C5194 C 0.26538 0.20803 0.7855 0.0
C5195 C 0.22511 0.17377 0.79211 0.0
C5196 C 0.22302 0.16745 0.80949 0.0
C5197 C 0.21502 0.16407 0.77576 0.0
C5198 C 0.21642 0.17017 0.75702 0.0
C5199 C 0.23254 0.17145 0.74906 0.0
C5200 C 0.23374 0.17712 0.73135 0.0
C5201 C 0.21877 0.18108 0.72119 0.0
C5202 C 0.20254 0.17936 0.72877 0.0
C5203 C 0.20134 0.17395 0.74663 0.0
H5204 H 0.21972 0.18534 0.7074 0.0
H5205 H 0.20271 0.13278 0.87978 0.0
H5206 H 0.38629 0.95805 0.3026 0.0
H5207 H 0.36881 0.92819 0.30262 0.0
H5208 H 0.32154 0.94599 0.28007 0.0
H5209 H 0.33878 0.97594 0.28037 0.0
H5210 H 0.3167 0.9257 0.30966 0.0
H5211 H 0.34397 0.92522 0.25099 0.0
H5212 H 0.36949 0.92884 0.23243 0.0
H5213 H 0.39201 0.89031 0.26162 0.0
H5214 H 0.36672 0.88664 0.2805 0.0
H5215 H 0.26118 0.84269 0.27826 0.0
H5216 H 0.27802 0.87292 0.27733 0.0
H5217 H 0.32689 0.85524 0.295 0.0
H5218 H 0.31034 0.8255 0.29567 0.0
H5219 H 0.33079 0.87577 0.26827 0.0
H5220 H 0.30781 0.8777 0.32892 0.0
H5221 H 0.28564 0.87552 0.35155 0.0
H5222 H 0.25729 0.91003 0.3222 0.0
H5223 H 0.27958 0.91273 0.29963 0.0
C5224 C 0.3722 0.95549 0.29754 0.0
C5225 C 0.36375 0.96895 0.29123 0.0
C5226 C 0.36232 0.93863 0.29769 0.0
C5227 C 0.34415 0.93526 0.29121 0.0
C5228 C 0.33565 0.94869 0.28511 0.0
C5229 C 0.34546 0.96559 0.28515 0.0
C5230 C 0.33397 0.91749 0.29001 0.0
C5231 C 0.31957 0.91473 0.30051 0.0
C5232 C 0.33834 0.90344 0.27846 0.0
C5233 C 0.35358 0.9058 0.26723 0.0
C5234 C 0.35446 0.91765 0.25354 0.0
C5235 C 0.36885 0.91968 0.24295 0.0
C5236 C 0.38238 0.90985 0.24587 0.0
C5237 C 0.38154 0.89794 0.25939 0.0
C5238 C 0.36718 0.89587 0.27002 0.0
C5239 C 0.27561 0.84533 0.28112 0.0
C5240 C 0.28477 0.83206 0.28639 0.0
C5241 C 0.28505 0.86242 0.28094 0.0
C5242 C 0.30345 0.866 0.28641 0.0
C5243 C 0.31263 0.85245 0.29069 0.0
C5244 C 0.30327 0.83544 0.29066 0.0
C5245 C 0.3134 0.88389 0.28785 0.0
C5246 C 0.32782 0.88671 0.27739 0.0
C5247 C 0.30927 0.89785 0.2998 0.0
C5248 C 0.29516 0.89517 0.31244 0.0
C5249 C 0.2967 0.8846 0.32714 0.0
C5250 C 0.28417 0.88335 0.34002 0.0
C5251 C 0.26993 0.89245 0.33821 0.0
C5252 C 0.26826 0.90291 0.32355 0.0
C5253 C 0.28088 0.90437 0.31076 0.0
H5254 H 0.26027 0.89149 0.34822 0.0
H5255 H 0.3935 0.91142 0.23763 0.0
H5256 H 0.57953 0.34695 0.58322 0.0
H5257 H 0.57919 0.37748 0.57512 0.0
H5258 H 0.52528 0.37315 0.58873 0.0
H5259 H 0.52582 0.34309 0.59742 0.0
H5260 H 0.52873 0.3875 0.5552 0.0
H5261 H 0.55948 0.39933 0.6173 0.0
H5262 H 0.58281 0.39984 0.64346 0.0
H5263 H 0.62245 0.42593 0.61207 0.0
H5264 H 0.5994 0.42533 0.58559 0.0
H5265 H 0.51725 0.47758 0.54896 0.0
H5266 H 0.51893 0.44805 0.55796 0.0
H5267 H 0.57614 0.45987 0.55912 0.0
H5268 H 0.57441 0.48985 0.55084 0.0
H5269 H 0.5715 0.44128 0.58486 0.0
H5270 H 0.54167 0.42908 0.52233 0.0
H5271 H 0.51859 0.42962 0.49621 0.0
H5272 H 0.47817 0.40416 0.52711 0.0
H5273 H 0.50095 0.40375 0.55355 0.0
C5274 C 0.56755 0.35243 0.58443 0.0
C5275 C 0.55264 0.34214 0.5909 0.0
C5276 C 0.5674 0.3701 0.5799 0.0
C5277 C 0.55219 0.37811 0.58123 0.0
C5278 C 0.53726 0.36769 0.58744 0.0
C5279 C 0.53758 0.35029 0.59243 0.0
C5280 C 0.55146 0.39691 0.57575 0.0
C5281 C 0.53805 0.39923 0.56187 0.0
C5282 C 0.56373 0.41258 0.58386 0.0
C5283 C 0.57774 0.41199 0.59932 0.0
C5284 C 0.57321 0.40488 0.61583 0.0
C5285 C 0.58638 0.40527 0.63076 0.0
C5286 C 0.60412 0.41284 0.6294 0.0
C5287 C 0.60873 0.42001 0.61308 0.0
C5288 C 0.59562 0.41963 0.59811 0.0
C5289 C 0.53022 0.47395 0.55087 0.0
C5290 C 0.54561 0.48645 0.5487 0.0
C5291 C 0.53121 0.45672 0.55601 0.0
C5292 C 0.54767 0.45085 0.55886 0.0
C5293 C 0.56312 0.46348 0.55701 0.0
C5294 C 0.56213 0.48084 0.55213 0.0
C5295 C 0.54885 0.43195 0.56407 0.0
C5296 C 0.56227 0.42958 0.57797 0.0
C5297 C 0.53674 0.41616 0.55579 0.0
C5298 C 0.523 0.41657 0.54 0.0
C5299 C 0.52784 0.42374 0.52362 0.0
C5300 C 0.51481 0.42401 0.50875 0.0
C5301 C 0.49692 0.41697 0.51002 0.0
C5302 C 0.49202 0.40964 0.52616 0.0
C5303 C 0.50498 0.40939 0.54109 0.0
H5304 H 0.48686 0.41717 0.49848 0.0
H5305 H 0.61427 0.41321 0.64101 0.0
H5306 H 0.43524 0.74827 0.41509 0.0
H5307 H 0.40676 0.75149 0.39808 0.0
H5308 H 0.4348 0.79193 0.36868 0.0
H5309 H 0.46328 0.78834 0.3852 0.0
H5310 H 0.40374 0.80176 0.38073 0.0
H5311 H 0.41929 0.75114 0.34679 0.0
H5312 H 0.42757 0.72151 0.34268 0.0
H5313 H 0.3784 0.69793 0.36173 0.0
H5314 H 0.36999 0.72752 0.36632 0.0
H5315 H 0.33535 0.80442 0.30559 0.0
H5316 H 0.36282 0.80126 0.32434 0.0
H5317 H 0.33288 0.76021 0.35151 0.0
H5318 H 0.30522 0.76366 0.33311 0.0
H5319 H 0.36434 0.75054 0.34154 0.0
H5320 H 0.3482 0.80018 0.37523 0.0
H5321 H 0.33977 0.8296 0.38099 0.0
H5322 H 0.38918 0.85476 0.36366 0.0
H5323 H 0.39786 0.82544 0.35762 0.0
C5324 C 0.4354 0.75779 0.40493 0.0
C5325 C 0.4518 0.76788 0.4015 0.0
C5326 C 0.41899 0.75965 0.39514 0.0
C5327 C 0.4183 0.77196 0.38183 0.0
C5328 C 0.43466 0.7823 0.37873 0.0
C5329 C 0.45108 0.78014 0.38817 0.0
C5330 C 0.40072 0.77388 0.371 0.0
C5331 C 0.3953 0.79056 0.37198 0.0
C5332 C 0.38912 0.75934 0.35985 0.0
C5333 C 0.39413 0.74157 0.35715 0.0
C5334 C 0.41034 0.73967 0.35031 0.0
C5335 C 0.41504 0.72288 0.34786 0.0
C5336 C 0.40355 0.70785 0.35201 0.0
C5337 C 0.38731 0.70959 0.35858 0.0
C5338 C 0.38257 0.72637 0.36111 0.0
C5339 C 0.33451 0.7947 0.31556 0.0
C5340 C 0.3178 0.78432 0.31768 0.0
C5341 C 0.35036 0.79294 0.32642 0.0
C5342 C 0.35025 0.78049 0.33961 0.0
C5343 C 0.33361 0.76994 0.34157 0.0
C5344 C 0.31767 0.77198 0.331 0.0
C5345 C 0.3674 0.77844 0.35115 0.0
C5346 C 0.37276 0.76175 0.35029 0.0
C5347 C 0.37887 0.79295 0.36252 0.0
C5348 C 0.37357 0.81058 0.3657 0.0
C5349 C 0.35717 0.81195 0.3724 0.0
C5350 C 0.35236 0.82862 0.37576 0.0
C5351 C 0.36387 0.84403 0.37257 0.0
C5352 C 0.38024 0.84281 0.36606 0.0
C5353 C 0.38512 0.82616 0.36267 0.0
H5354 H 0.36013 0.85692 0.37522 0.0
H5355 H 0.40721 0.69486 0.35009 0.0
H5356 H 0.05344 0.72719 0.11684 0.0
H5357 H 0.04898 0.69515 0.10786 0.0
H5358 H 0.03257 0.70263 0.0509 0.0
H5359 H 0.03665 0.7351 0.06008 0.0
H5360 H 0.01235 0.67277 0.05845 0.0
H5361 H 0.07603 0.69281 0.06792 0.0
H5362 H 0.10508 0.70761 0.08505 0.0
H5363 H 0.09695 0.6736 0.12856 0.0
H5364 H 0.06773 0.65879 0.11182 0.0
H5365 H 0.02576 0.58495 0.02068 0.0
H5366 H 0.02815 0.61735 0.02855 0.0
H5367 H 0.03532 0.61103 0.08724 0.0
H5368 H 0.03206 0.57857 0.07938 0.0
H5369 H 0.05992 0.63996 0.07818 0.0
H5370 H 0.99793 0.61923 0.06991 0.0
H5371 H 0.9687 0.60348 0.05445 0.0
H5372 H 0.97238 0.63791 0.01089 0.0
H5373 H 1.00209 0.6535 0.02579 0.0
C5374 C 0.04893 0.72219 0.10231 0.0
C5375 C 0.04564 0.7342 0.08925 0.0
C5376 C 0.04645 0.70359 0.09711 0.0
C5377 C 0.04076 0.6959 0.07847 0.0
C5378 C 0.03709 0.70781 0.06537 0.0
C5379 C 0.03953 0.72657 0.07064 0.0
C5380 C 0.0388 0.67569 0.07289 0.0
C5381 C 0.02298 0.66577 0.0625 0.0
C5382 C 0.05216 0.66584 0.07855 0.0
C5383 C 0.06963 0.67483 0.08871 0.0
C5384 C 0.08038 0.6886 0.08122 0.0
C5385 C 0.09688 0.69697 0.09085 0.0
C5386 C 0.10284 0.69158 0.10791 0.0
C5387 C 0.09231 0.67779 0.11537 0.0
C5388 C 0.07578 0.6694 0.10581 0.0
C5389 C 0.02784 0.59045 0.03528 0.0
C5390 C 0.02866 0.57896 0.04936 0.0
C5391 C 0.02914 0.60909 0.03981 0.0
C5392 C 0.03189 0.61704 0.0586 0.0
C5393 C 0.03316 0.60556 0.07264 0.0
C5394 C 0.03126 0.58687 0.06812 0.0
C5395 C 0.03365 0.63718 0.06361 0.0
C5396 C 0.04938 0.64702 0.07397 0.0
C5397 C 0.02014 0.64685 0.05809 0.0
C5398 C 1.00241 0.63737 0.04883 0.0
C5399 C 0.99268 0.62328 0.05687 0.0
C5400 C 0.97596 0.61441 0.04822 0.0
C5401 C 0.96864 0.61968 0.03167 0.0
C5402 C 0.97808 0.63381 0.0237 0.0
C5403 C 0.9949 0.64264 0.03221 0.0
H5404 H 0.95564 0.61284 0.02504 0.0
H5405 H 0.11563 0.69806 0.11533 0.0
H5406 H 0.03851 0.26894 0.87884 0.0
H5407 H 0.06611 0.26908 0.86433 0.0
H5408 H 0.09532 0.27023 0.91866 0.0
H5409 H 0.06779 0.27062 0.93325 0.0
H5410 H 0.11524 0.29104 0.89983 0.0
H5411 H 0.08418 0.23101 0.88501 0.0
H5412 H 0.0585 0.207 0.87327 0.0
H5413 H 0.05803 0.22459 0.81856 0.0
H5414 H 0.0836 0.24883 0.83004 0.0
H5415 H 0.19404 0.27879 0.85998 0.0
H5416 H 0.16766 0.27206 0.87663 0.0
H5417 H 0.13368 0.27055 0.82509 0.0
H5418 H 0.16008 0.27669 0.80845 0.0
H5419 H 0.11699 0.24802 0.84455 0.0
H5420 H 0.14801 0.30913 0.86071 0.0
H5421 H 0.17359 0.33293 0.87337 0.0
H5422 H 0.17429 0.31279 0.92685 0.0
H5423 H 0.14889 0.28868 0.91441 0.0
C5424 C 0.0508 0.26924 0.88773 0.0
C5425 C 0.05076 0.26973 0.90728 0.0
C5426 C 0.06667 0.26918 0.87937 0.0
C5427 C 0.08305 0.26931 0.89021 0.0
C5428 C 0.08305 0.27006 0.90979 0.0
C5429 C 0.06719 0.27025 0.91817 0.0
C5430 C 0.10006 0.26884 0.88115 0.0
C5431 C 0.11563 0.28142 0.88792 0.0
C5432 C 0.1009 0.25648 0.86544 0.0
C5433 C 0.08571 0.24179 0.85841 0.0
C5434 C 0.07854 0.2298 0.8705 0.0
C5435 C 0.06402 0.21615 0.86389 0.0
C5436 C 0.05661 0.21429 0.84519 0.0
C5437 C 0.06377 0.22605 0.83304 0.0
C5438 C 0.0783 0.23972 0.83958 0.0
C5439 C 0.18093 0.27619 0.85205 0.0
C5440 C 0.17927 0.27786 0.83273 0.0
C5441 C 0.16575 0.27274 0.86169 0.0
C5442 C 0.14839 0.2713 0.8524 0.0
C5443 C 0.14673 0.27168 0.83283 0.0
C5444 C 0.16191 0.275 0.82318 0.0
C5445 C 0.1321 0.27046 0.86297 0.0
C5446 C 0.11666 0.25759 0.85651 0.0
C5447 C 0.13144 0.28249 0.87908 0.0
C5448 C 0.14669 0.29698 0.88656 0.0
C5449 C 0.1537 0.3097 0.87513 0.0
C5450 C 0.16816 0.32325 0.88227 0.0
C5451 C 0.1756 0.32435 0.90089 0.0
C5452 C 0.16855 0.31191 0.91242 0.0
C5453 C 0.15413 0.29829 0.90533 0.0
H5454 H 0.18678 0.33486 0.90639 0.0
H5455 H 0.04535 0.20373 0.8401 0.0
H5456 H 0.54467 0.74205 0.86282 0.0
H5457 H 0.54537 0.71464 0.8775 0.0
H5458 H 0.53291 0.74053 0.92899 0.0
H5459 H 0.5335 0.76822 0.91467 0.0
H5460 H 0.55531 0.7229 0.93855 0.0
H5461 H 0.50243 0.70521 0.893 0.0
H5462 H 0.48567 0.6994 0.86141 0.0
H5463 H 0.51923 0.66292 0.84445 0.0
H5464 H 0.53632 0.66869 0.87586 0.0
H5465 H 0.52387 0.64944 0.98652 0.0
H5466 H 0.53046 0.67564 0.97003 0.0
H5467 H 0.54368 0.64299 0.92333 0.0
H5468 H 0.53618 0.61644 0.93976 0.0
H5469 H 0.52441 0.6629 0.90948 0.0
H5470 H 0.57617 0.67912 0.95482 0.0
H5471 H 0.59359 0.68486 0.98607 0.0
H5472 H 0.56271 0.72392 0.00301 0.0
H5473 H 0.54506 0.71834 0.97191 0.0
C5474 C 0.54202 0.74187 0.87727 0.0
C5475 C 0.53902 0.75743 0.88753 0.0
C5476 C 0.54225 0.72603 0.88568 0.0
C5477 C 0.53886 0.72504 0.90446 0.0
C5478 C 0.53566 0.74063 0.91457 0.0
C5479 C 0.53592 0.75657 0.90632 0.0
C5480 C 0.53924 0.70825 0.91399 0.0
C5481 C 0.54827 0.70986 0.93218 0.0
C5482 C 0.53092 0.69081 0.90565 0.0
C5483 C 0.52077 0.68755 0.88671 0.0
C5484 C 0.50632 0.69607 0.88248 0.0
C5485 C 0.49675 0.69276 0.86461 0.0
C5486 C 0.50142 0.68084 0.85091 0.0
C5487 C 0.51565 0.67218 0.85505 0.0
C5488 C 0.52528 0.67547 0.87288 0.0
C5489 C 0.52881 0.64793 0.97301 0.0
C5490 C 0.52984 0.63083 0.9647 0.0
C5491 C 0.53263 0.66304 0.96348 0.0
C5492 C 0.53789 0.66171 0.94531 0.0
C5493 C 0.53972 0.64466 0.93729 0.0
C5494 C 0.53571 0.62944 0.94683 0.0
C5495 C 0.53991 0.67773 0.9343 0.0
C5496 C 0.53147 0.67595 0.91581 0.0
C5497 C 0.5488 0.69505 0.94231 0.0
C5498 C 0.55923 0.69821 0.96109 0.0
C5499 C 0.57303 0.68883 0.96526 0.0
C5500 C 0.58296 0.69209 0.98293 0.0
C5501 C 0.57924 0.70472 0.99653 0.0
C5502 C 0.56559 0.71414 0.99247 0.0
C5503 C 0.55564 0.71097 0.97482 0.0
H5504 H 0.58695 0.70722 0.0102 0.0
H5505 H 0.49397 0.67828 0.8371 0.0
H5506 H 0.07224 0.75671 0.73352 0.0
H5507 H 0.10451 0.76045 0.74305 0.0
H5508 H 0.11501 0.77525 0.68858 0.0
H5509 H 0.08295 0.77117 0.67901 0.0
H5510 H 0.13729 0.75611 0.69646 0.0
H5511 H 0.12342 0.80569 0.7325 0.0
H5512 H 0.10857 0.82274 0.75481 0.0
H5513 H 0.12585 0.79374 0.79893 0.0
H5514 H 0.14061 0.77635 0.77682 0.0
H5515 H 0.23108 0.79187 0.72118 0.0
H5516 H 0.19879 0.78864 0.71327 0.0
H5517 H 0.18997 0.7617 0.76212 0.0
H5518 H 0.22244 0.76468 0.76996 0.0
H5519 H 0.16739 0.78727 0.75754 0.0
H5520 H 0.18244 0.73851 0.71928 0.0
H5521 H 0.1992 0.72487 0.69622 0.0
H5522 H 0.18089 0.75636 0.65497 0.0
H5523 H 0.16428 0.77045 0.67793 0.0
C5524 C 0.08138 0.76081 0.72356 0.0
C5525 C 0.0746 0.76355 0.70538 0.0
C5526 C 0.10007 0.76311 0.72909 0.0
C5527 C 0.11282 0.76836 0.71674 0.0
C5528 C 0.10594 0.77114 0.69862 0.0
C5529 C 0.08735 0.76883 0.6931 0.0
C5530 C 0.13308 0.77047 0.72228 0.0
C5531 C 0.14371 0.76315 0.70978 0.0
C5532 C 0.14214 0.77947 0.73971 0.0
C5533 C 0.13287 0.78952 0.75293 0.0
C5534 C 0.12386 0.80279 0.74691 0.0
C5535 C 0.11551 0.81256 0.75953 0.0
C5536 C 0.11619 0.80927 0.77826 0.0
C5537 C 0.12527 0.79623 0.78441 0.0
C5538 C 0.13363 0.78641 0.77183 0.0
C5539 C 0.22236 0.78514 0.73027 0.0
C5540 C 0.22972 0.77843 0.74622 0.0
C5541 C 0.2037 0.78328 0.72567 0.0
C5542 C 0.19149 0.77485 0.73695 0.0
C5543 C 0.1988 0.76827 0.75302 0.0
C5544 C 0.21752 0.76984 0.75745 0.0
C5545 C 0.1713 0.77276 0.73181 0.0
C5546 C 0.16079 0.78016 0.7443 0.0
C5547 C 0.1624 0.76418 0.71424 0.0
C5548 C 0.17223 0.75564 0.70037 0.0
C5549 C 0.18209 0.74263 0.70533 0.0
C5550 C 0.19156 0.7348 0.69228 0.0
C5551 C 0.19113 0.73976 0.67415 0.0
C5552 C 0.18122 0.75255 0.66903 0.0
C5553 C 0.17177 0.76045 0.68206 0.0
H5554 H 0.19846 0.73368 0.66405 0.0
H5555 H 0.10975 0.81687 0.78802 0.0
H5556 H 0.01664 0.36025 0.37564 0.0
H5557 H 0.01243 0.38765 0.39344 0.0
H5558 H 0.06218 0.38971 0.42786 0.0
H5559 H 0.06525 0.36122 0.41118 0.0
H5560 H 0.04457 0.40138 0.44964 0.0
H5561 H 0.04976 0.41932 0.38774 0.0
H5562 H 0.04202 0.41846 0.35365 0.0
H5563 H 0.98893 0.42547 0.36224 0.0
H5564 H 0.99628 0.42615 0.39635 0.0
H5565 H 0.05174 0.49199 0.49071 0.0
H5566 H 0.05536 0.46447 0.47228 0.0
H5567 H 1.00149 0.4582 0.44558 0.0
H5568 H 0.99803 0.48585 0.46395 0.0
H5569 H 0.02073 0.44917 0.41988 0.0
H5570 H 0.01629 0.43199 0.48176 0.0
H5571 H 0.02432 0.43315 0.51582 0.0
H5572 H 0.07711 0.42541 0.5068 0.0
H5573 H 0.06947 0.42446 0.4727 0.0
C5574 C 0.02675 0.3666 0.38696 0.0
C5575 C 0.04138 0.35841 0.39177 0.0
C5576 C 0.02445 0.38262 0.39715 0.0
C5577 C 0.03718 0.3917 0.41204 0.0
C5578 C 0.05193 0.38345 0.41666 0.0
C5579 C 0.05383 0.36704 0.40695 0.0
C5580 C 0.03496 0.40919 0.42323 0.0
C5581 C 0.03969 0.41186 0.44284 0.0
C5582 C 0.02799 0.42317 0.41509 0.0
C5583 C 0.02353 0.42261 0.39458 0.0
C5584 C 0.03641 0.42056 0.38234 0.0
C5585 C 0.03208 0.42012 0.36302 0.0
C5586 C 0.01498 0.42187 0.35578 0.0
C5587 C 1.00216 0.42409 0.36786 0.0
C5588 C 0.0064 0.42451 0.38718 0.0
C5589 C 0.04068 0.48477 0.48086 0.0
C5590 C 0.02466 0.49137 0.47875 0.0
C5591 C 0.04269 0.46882 0.47034 0.0
C5592 C 0.02867 0.45869 0.45739 0.0
C5593 C 0.01266 0.46544 0.45527 0.0
C5594 C 0.01065 0.48137 0.46584 0.0
C5595 C 0.03068 0.44133 0.44605 0.0
C5596 C 0.02579 0.43867 0.4265 0.0
C5597 C 0.03767 0.42744 0.45419 0.0
C5598 C 0.04235 0.42833 0.4747 0.0
C5599 C 0.02966 0.4307 0.48705 0.0
C5600 C 0.03412 0.43128 0.50636 0.0
C5601 C 0.05121 0.42937 0.51347 0.0
C5602 C 0.06388 0.4269 0.50128 0.0
C5603 C 0.05949 0.42634 0.48197 0.0
H5604 H 0.05464 0.4298 0.52842 0.0
H5605 H 0.01167 0.42154 0.34083 0.0
H5606 H 0.47531 0.27893 0.22719 0.0
H5607 H 0.44531 0.28064 0.23544 0.0
H5608 H 0.42316 0.23537 0.19475 0.0
H5609 H 0.45303 0.23428 0.18591 0.0
H5610 H 0.40002 0.25398 0.19289 0.0
H5611 H 0.42774 0.23605 0.24772 0.0
H5612 H 0.45108 0.23725 0.27407 0.0
H5613 H 0.44309 0.28915 0.29531 0.0
H5614 H 0.4198 0.28831 0.26896 0.0
H5615 H 0.31376 0.24048 0.22743 0.0
H5616 H 0.34341 0.23819 0.21878 0.0
H5617 H 0.36596 0.28653 0.2549 0.0
H5618 H 0.33638 0.28845 0.26413 0.0
H5619 H 0.38844 0.2655 0.25882 0.0
H5620 H 0.35875 0.28102 0.20158 0.0
H5621 H 0.33527 0.27671 0.17467 0.0
H5622 H 0.34608 0.2248 0.15833 0.0
H5623 H 0.36954 0.22868 0.1851 0.0
C5624 C 0.46411 0.26922 0.22007 0.0
C5625 C 0.46702 0.25635 0.20592 0.0
C5626 C 0.4467 0.27011 0.22492 0.0
C5627 C 0.43131 0.25792 0.21617 0.0
C5628 C 0.43431 0.24508 0.20199 0.0
C5629 C 0.45166 0.24437 0.19696 0.0
C5630 C 0.41233 0.25864 0.22147 0.0
C5631 C 0.39765 0.2563 0.20739 0.0
C5632 C 0.40843 0.26172 0.24029 0.0
C5633 C 0.42219 0.2622 0.25629 0.0
C5634 C 0.43103 0.24775 0.25797 0.0
C5635 C 0.44423 0.24836 0.27291 0.0
C5636 C 0.44861 0.26329 0.28633 0.0
C5637 C 0.43971 0.2776 0.28489 0.0
C5638 C 0.42649 0.27706 0.26998 0.0
C5639 C 0.32495 0.25075 0.23357 0.0
C5640 C 0.32218 0.26479 0.24653 0.0
C5641 C 0.34214 0.24949 0.2284 0.0
C5642 C 0.35748 0.26235 0.23571 0.0
C5643 C 0.35473 0.27631 0.24877 0.0
C5644 C 0.33755 0.2775 0.25405 0.0
C5645 C 0.37625 0.26112 0.23025 0.0
C5646 C 0.39087 0.26328 0.24432 0.0
C5647 C 0.37997 0.25742 0.21143 0.0
C5648 C 0.3658 0.2551 0.19542 0.0
C5649 C 0.35605 0.26865 0.19231 0.0
C5650 C 0.34277 0.2663 0.17709 0.0
C5651 C 0.33917 0.2505 0.16488 0.0
C5652 C 0.34887 0.23702 0.16782 0.0
C5653 C 0.36218 0.2393 0.18297 0.0
H5654 H 0.32888 0.24874 0.15313 0.0
H5655 H 0.45887 0.26376 0.29786 0.0
H5656 H 0.58494 0.53723 0.32821 0.0
H5657 H 0.57483 0.53639 0.3594 0.0
H5658 H 0.62936 0.54265 0.38424 0.0
H5659 H 0.63941 0.54294 0.35316 0.0
H5660 H 0.60984 0.51899 0.40079 0.0
H5661 H 0.6047 0.57826 0.38694 0.0
H5662 H 0.59467 0.60044 0.36786 0.0
H5663 H 0.54003 0.5759 0.36938 0.0
H5664 H 0.54976 0.55353 0.3884 0.0
H5665 H 0.58914 0.53272 0.49477 0.0
H5666 H 0.60158 0.53573 0.46514 0.0
H5667 H 0.5496 0.53859 0.43807 0.0
H5668 H 0.53814 0.53891 0.46802 0.0
H5669 H 0.5696 0.55844 0.42294 0.0
H5670 H 0.57472 0.4979 0.43572 0.0
H5671 H 0.58496 0.47654 0.45581 0.0
H5672 H 0.63927 0.50321 0.45656 0.0
H5673 H 0.62932 0.52476 0.43654 0.0
C5674 C 0.59476 0.53848 0.34032 0.0
C5675 C 0.61298 0.54019 0.3381 0.0
C5676 C 0.58898 0.53808 0.35823 0.0
C5677 C 0.60131 0.53968 0.37441 0.0
C5678 C 0.61951 0.54135 0.37213 0.0
C5679 C 0.62525 0.54157 0.35427 0.0
C5680 C 0.59533 0.5395 0.39366 0.0
C5681 C 0.60111 0.52771 0.40564 0.0
C5682 C 0.58382 0.55068 0.40021 0.0
C5683 C 0.57795 0.56418 0.38895 0.0
C5684 C 0.59055 0.57757 0.38313 0.0
C5685 C 0.58492 0.59018 0.37235 0.0
C5686 C 0.56673 0.58956 0.36738 0.0
C5687 C 0.55412 0.57636 0.37324 0.0
C5688 C 0.55968 0.56375 0.38405 0.0
C5689 C 0.58033 0.53389 0.48248 0.0
C5690 C 0.56226 0.53454 0.48386 0.0
C5691 C 0.58744 0.53538 0.46533 0.0
C5692 C 0.57649 0.53658 0.44878 0.0
C5693 C 0.5585 0.5374 0.45028 0.0
C5694 C 0.55168 0.53692 0.46755 0.0
C5695 C 0.58354 0.53742 0.42998 0.0
C5696 C 0.57812 0.54949 0.4181 0.0
C5697 C 0.59527 0.52638 0.42349 0.0
C5698 C 0.60128 0.51293 0.43471 0.0
C5699 C 0.58884 0.49914 0.44013 0.0
C5700 C 0.59459 0.48703 0.45152 0.0
C5701 C 0.61275 0.48852 0.45747 0.0
C5702 C 0.62522 0.50205 0.45192 0.0
C5703 C 0.61954 0.51418 0.44051 0.0
H5704 H 0.61717 0.47919 0.46636 0.0
H5705 H 0.5624 0.59931 0.35901 0.0
H5706 H 0.25911 0.89122 0.04591 0.0
H5707 H 0.2565 0.88182 0.07719 0.0
H5708 H 0.31371 0.89611 0.09056 0.0
H5709 H 0.31632 0.90605 0.05949 0.0
H5710 H 0.29549 0.85866 0.09157 0.0
H5711 H 0.29588 0.91963 0.11438 0.0
H5712 H 0.28539 0.94809 0.11268 0.0
H5713 H 0.23247 0.92246 0.12027 0.0
H5714 H 0.24265 0.89376 0.1218 0.0
H5715 H 0.3208 0.85823 0.18545 0.0
H5716 H 0.31061 0.87384 0.15971 0.0
H5717 H 0.26092 0.83598 0.14995 0.0
H5718 H 0.27115 0.82023 0.17593 0.0
H5719 H 0.26999 0.884 0.14644 0.0
H5720 H 0.27232 0.82116 0.12153 0.0
H5721 H 0.28562 0.79408 0.11997 0.0
H5722 H 0.33665 0.82555 0.11441 0.0
H5723 H 0.3237 0.85283 0.11635 0.0
C5724 C 0.27105 0.89238 0.05565 0.0
C5725 C 0.28792 0.89889 0.05053 0.0
C5726 C 0.26953 0.8873 0.07342 0.0
C5727 C 0.28491 0.88845 0.0859 0.0
C5728 C 0.30176 0.89538 0.08096 0.0
C5729 C 0.30324 0.90086 0.06334 0.0
C5730 C 0.28365 0.88008 0.10304 0.0
C5731 C 0.28985 0.86411 0.10357 0.0
C5732 C 0.27601 0.88726 0.11829 0.0
C5733 C 0.26998 0.90456 0.11811 0.0
C5734 C 0.28199 0.92006 0.11562 0.0
C5735 C 0.27611 0.93623 0.11469 0.0
C5736 C 0.25826 0.93708 0.11634 0.0
C5737 C 0.24629 0.92177 0.11901 0.0
C5738 C 0.25211 0.90556 0.11995 0.0
C5739 C 0.30754 0.85356 0.17808 0.0
C5740 C 0.29682 0.83801 0.18221 0.0
C5741 C 0.30169 0.86251 0.16359 0.0
C5742 C 0.28514 0.8559 0.15306 0.0
C5743 C 0.27372 0.84119 0.1581 0.0
C5744 C 0.27957 0.83222 0.17276 0.0
C5745 C 0.28183 0.86244 0.13496 0.0
C5746 C 0.27503 0.87821 0.13422 0.0
C5747 C 0.28913 0.85521 0.1194 0.0
C5748 C 0.29714 0.83902 0.11955 0.0
C5749 C 0.28646 0.82233 0.12042 0.0
C5750 C 0.29391 0.80694 0.11935 0.0
C5751 C 0.31199 0.8081 0.11721 0.0
C5752 C 0.32268 0.82467 0.11619 0.0
C5753 C 0.3153 0.84009 0.11733 0.0
H5754 H 0.31771 0.79616 0.11625 0.0
H5755 H 0.25372 0.9496 0.11557 0.0
H5756 H 0.94188 0.53634 0.84419 0.0
H5757 H 0.95642 0.535 0.87549 0.0
H5758 H 0.90799 0.50347 0.88949 0.0
H5759 H 0.89315 0.50541 0.8584 0.0
H5760 H 0.92392 0.52984 0.91737 0.0
H5761 H 0.94032 0.48175 0.87956 0.0
H5762 H 0.95054 0.46818 0.85118 0.0
H5763 H 1.00018 0.50554 0.8619 0.0
H5764 H 0.99021 0.51937 0.8903 0.0
H5765 H 0.98372 0.49254 0.98592 0.0
H5766 H 0.96312 0.49255 0.95767 0.0
H5767 H 0.98719 0.54719 0.95379 0.0
H5768 H 0.00615 0.54787 0.98332 0.0
H5769 H 0.98048 0.50654 0.92221 0.0
H5770 H 0.96051 0.55712 0.95811 0.0
H5771 H 0.94897 0.57006 0.98586 0.0
H5772 H 0.90369 0.52713 0.97779 0.0
H5773 H 0.91552 0.51344 0.95048 0.0
C5774 C 0.93441 0.52924 0.85404 0.0
C5775 C 0.9166 0.52098 0.84922 0.0
C5776 C 0.94264 0.52843 0.87174 0.0
C5777 C 0.93321 0.5189 0.88441 0.0
C5778 C 0.9153 0.51085 0.87972 0.0
C5779 C 0.90694 0.51197 0.86211 0.0
C5780 C 0.94236 0.51727 0.9025 0.0
C5781 C 0.93615 0.52453 0.91855 0.0
C5782 C 0.95819 0.51028 0.90369 0.0
C5783 C 0.96452 0.50158 0.88703 0.0
C5784 C 0.95342 0.48705 0.87585 0.0
C5785 C 0.95916 0.47932 0.85977 0.0
C5786 C 0.976 0.486 0.85474 0.0
C5787 C 0.98716 0.50035 0.86584 0.0
C5788 C 0.9815 0.5081 0.88197 0.0
C5789 C 0.98399 0.50467 0.97931 0.0
C5790 C 0.99551 0.52046 0.98688 0.0
C5791 C 0.97241 0.50466 0.96336 0.0
C5792 C 0.97322 0.52018 0.95453 0.0
C5793 C 0.98579 0.53554 0.96129 0.0
C5794 C 0.99666 0.53584 0.97781 0.0
C5795 C 0.96233 0.51959 0.93696 0.0
C5796 C 0.96816 0.5117 0.92104 0.0
C5797 C 0.94611 0.52589 0.93596 0.0
C5798 C 0.93928 0.53389 0.95267 0.0
C5799 C 0.94844 0.5501 0.9626 0.0
C5800 C 0.94177 0.55764 0.97819 0.0
C5801 C 0.9257 0.54932 0.98372 0.0
C5802 C 0.91625 0.53345 0.97363 0.0
C5803 C 0.92299 0.52574 0.95816 0.0
H5804 H 0.92049 0.55525 0.99572 0.0
H5805 H 0.98039 0.48004 0.84224 0.0
H5806 H 0.25012 0.20993 0.56455 0.0
H5807 H 0.25194 0.22041 0.59791 0.0
H5808 H 0.30149 0.20169 0.60804 0.0
H5809 H 0.29908 0.19028 0.57487 0.0
H5810 H 0.28471 0.19521 0.63585 0.0
H5811 H 0.29839 0.24845 0.6069 0.0
H5812 H 0.29332 0.26867 0.58319 0.0
H5813 H 0.24353 0.27455 0.60332 0.0
H5814 H 0.24824 0.2542 0.62704 0.0
H5815 H 0.30599 0.24209 0.72833 0.0
H5816 H 0.30592 0.23124 0.6954 0.0
H5817 H 0.25642 0.24912 0.68195 0.0
H5818 H 0.25751 0.26144 0.71448 0.0
H5819 H 0.27467 0.25597 0.65574 0.0
H5820 H 0.26301 0.20116 0.68574 0.0
H5821 H 0.27023 0.18043 0.7082 0.0
H5822 H 0.31969 0.17829 0.68577 0.0
H5823 H 0.3129 0.19909 0.66325 0.0
C5824 C 0.26147 0.20818 0.57386 0.0
C5825 C 0.27454 0.19945 0.56692 0.0
C5826 C 0.26257 0.21425 0.59304 0.0
C5827 C 0.2771 0.2123 0.60578 0.0
C5828 C 0.29014 0.20349 0.59877 0.0
C5829 C 0.28881 0.19706 0.57968 0.0
C5830 C 0.27871 0.21946 0.62628 0.0
C5831 C 0.28269 0.20858 0.64014 0.0
C5832 C 0.27611 0.23689 0.63226 0.0
C5833 C 0.27363 0.24977 0.61866 0.0
C5834 C 0.28637 0.25408 0.60627 0.0
C5835 C 0.28355 0.26553 0.59281 0.0
C5836 C 0.2681 0.27287 0.59173 0.0
C5837 C 0.2555 0.26886 0.60419 0.0
C5838 C 0.25825 0.25741 0.61767 0.0
C5839 C 0.29502 0.24368 0.71839 0.0
C5840 C 0.28146 0.25237 0.7244 0.0
C5841 C 0.2949 0.23725 0.69942 0.0
C5842 C 0.28085 0.23871 0.68586 0.0
C5843 C 0.26742 0.24757 0.69187 0.0
C5844 C 0.26789 0.2545 0.71071 0.0
C5845 C 0.28028 0.2316 0.66545 0.0
C5846 C 0.2766 0.24256 0.65153 0.0
C5847 C 0.28354 0.21436 0.65947 0.0
C5848 C 0.2875 0.20177 0.67292 0.0
C5849 C 0.27545 0.19632 0.68565 0.0
C5850 C 0.27946 0.18457 0.69838 0.0
C5851 C 0.2954 0.1781 0.69845 0.0
C5852 C 0.30736 0.18332 0.68573 0.0
C5853 C 0.30343 0.19507 0.67296 0.0
H5854 H 0.29845 0.16901 0.70834 0.0
H5855 H 0.2659 0.28168 0.58126 0.0
H5856 H 0.59389 0.50874 0.22806 0.0
H5857 H 0.5832 0.50532 0.19436 0.0
H5858 H 0.61505 0.55652 0.18935 0.0
H5859 H 0.62594 0.55981 0.22268 0.0
H5860 H 0.58061 0.55346 0.1734 0.0
H5861 H 0.62695 0.51961 0.17161 0.0
H5862 H 0.64375 0.49598 0.17853 0.0
H5863 H 0.59861 0.45599 0.15477 0.0
H5864 H 0.5813 0.47938 0.14814 0.0
H5865 H 0.56876 0.55488 0.0745 0.0
H5866 H 0.58079 0.55568 0.1072 0.0
H5867 H 0.55617 0.50054 0.10661 0.0
H5868 H 0.54428 0.49969 0.07377 0.0
H5869 H 0.58683 0.50464 0.1258 0.0
H5870 H 0.54005 0.53858 0.12916 0.0
H5871 H 0.52285 0.56238 0.12416 0.0
H5872 H 0.56898 0.60211 0.14581 0.0
H5873 H 0.58651 0.57856 0.15071 0.0
C5874 C 0.59859 0.51926 0.21976 0.0
C5875 C 0.61064 0.53465 0.22822 0.0
C5876 C 0.59258 0.51723 0.20041 0.0
C5877 C 0.59829 0.53065 0.18909 0.0
C5878 C 0.61036 0.54595 0.1976 0.0
C5879 C 0.61657 0.54784 0.21677 0.0
C5880 C 0.59105 0.52944 0.16872 0.0
C5881 C 0.5822 0.54287 0.16297 0.0
C5882 C 0.59261 0.51541 0.15502 0.0
C5883 C 0.60272 0.50128 0.15964 0.0
C5884 C 0.62047 0.50579 0.16816 0.0
C5885 C 0.6301 0.49242 0.17198 0.0
C5886 C 0.6222 0.47449 0.16719 0.0
C5887 C 0.60464 0.46988 0.15858 0.0
C5888 C 0.59491 0.48319 0.15481 0.0
C5889 C 0.56569 0.54297 0.08129 0.0
C5890 C 0.55518 0.52735 0.07128 0.0
C5891 C 0.57262 0.54342 0.1002 0.0
C5892 C 0.56923 0.52827 0.1099 0.0
C5893 C 0.55904 0.51253 0.09978 0.0
C5894 C 0.55213 0.51208 0.08086 0.0
C5895 C 0.57632 0.52877 0.13038 0.0
C5896 C 0.58517 0.51521 0.13619 0.0
C5897 C 0.57477 0.54269 0.14426 0.0
C5898 C 0.56461 0.55683 0.14013 0.0
C5899 C 0.54658 0.5524 0.1326 0.0
C5900 C 0.53676 0.56584 0.12988 0.0
C5901 C 0.54479 0.58372 0.13479 0.0
C5902 C 0.56276 0.58824 0.1421 0.0
C5903 C 0.57264 0.57487 0.14483 0.0
H5904 H 0.53709 0.5941 0.13297 0.0
H5905 H 0.62972 0.46417 0.17008 0.0
H5906 H 0.3026 0.87123 0.95538 0.0
H5907 H 0.30599 0.85973 0.9235 0.0
H5908 H 0.2825 0.902 0.90199 0.0
H5909 H 0.27885 0.9135 0.93374 0.0
H5910 H 0.26498 0.86726 0.88916 0.0
H5911 H 0.32463 0.90249 0.89574 0.0
H5912 H 0.35477 0.91379 0.91235 0.0
H5913 H 0.36458 0.8603 0.91126 0.0
H5914 H 0.33446 0.84868 0.89473 0.0
H5915 H 0.26819 0.83103 0.79715 0.0
H5916 H 0.27167 0.85187 0.82542 0.0
H5917 H 0.30483 0.82035 0.85402 0.0
H5918 H 0.30281 0.8004 0.82545 0.0
H5919 H 0.31856 0.85378 0.86149 0.0
H5920 H 0.26045 0.81735 0.85972 0.0
H5921 H 0.2299 0.80323 0.8461 0.0
H5922 H 0.21632 0.85482 0.84205 0.0
H5923 H 0.24689 0.86925 0.85539 0.0
C5924 C 0.2982 0.87804 0.94383 0.0
C5925 C 0.29013 0.89292 0.94677 0.0
C5926 C 0.30046 0.87171 0.92579 0.0
C5927 C 0.2947 0.88031 0.91075 0.0
C5928 C 0.28716 0.89548 0.91368 0.0
C5929 C 0.2849 0.90181 0.93168 0.0
C5930 C 0.29373 0.87162 0.89193 0.0
C5931 C 0.27665 0.86466 0.88277 0.0
C5932 C 0.30906 0.86778 0.88441 0.0
C5933 C 0.32729 0.87474 0.89405 0.0
C5934 C 0.3332 0.89315 0.8991 0.0
C5935 C 0.35029 0.89961 0.90848 0.0
C5936 C 0.36158 0.88777 0.91287 0.0
C5937 C 0.35583 0.86946 0.90782 0.0
C5938 C 0.33878 0.86293 0.89839 0.0
C5939 C 0.27619 0.82856 0.80948 0.0
C5940 C 0.28501 0.81404 0.8093 0.0
C5941 C 0.27813 0.84041 0.82553 0.0
C5942 C 0.28829 0.83736 0.84164 0.0
C5943 C 0.29696 0.82279 0.84157 0.0
C5944 C 0.29554 0.81129 0.82537 0.0
C5945 C 0.28975 0.84927 0.85876 0.0
C5946 C 0.30688 0.85672 0.86763 0.0
C5947 C 0.27441 0.85309 0.86639 0.0
C5948 C 0.25601 0.84439 0.85836 0.0
C5949 C 0.251 0.82568 0.85578 0.0
C5950 C 0.23367 0.81762 0.84813 0.0
C5951 C 0.22119 0.82812 0.84317 0.0
C5952 C 0.22601 0.8467 0.84587 0.0
C5953 C 0.24333 0.85483 0.85348 0.0
H5954 H 0.20777 0.82185 0.83726 0.0
H5955 H 0.37479 0.8928 0.92017 0.0
H5956 H 0.9211 0.54952 0.75203 0.0
H5957 H 0.93141 0.55189 0.72113 0.0
H5958 H 0.90799 0.49651 0.7042 0.0
H5959 H 0.89719 0.49421 0.73491 0.0
H5960 H 0.94667 0.50861 0.70265 0.0
H5961 H 0.88872 0.52031 0.68266 0.0
H5962 H 0.86359 0.53584 0.68693 0.0
H5963 H 0.8976 0.58607 0.6836 0.0
H5964 H 0.92301 0.5708 0.67951 0.0
H5965 H 0.94872 0.4897 0.60884 0.0
H5966 H 0.9328 0.5 0.63427 0.0
H5967 H 0.97411 0.54679 0.64846 0.0
H5968 H 0.99013 0.53647 0.62281 0.0
H5969 H 0.92762 0.54311 0.652 0.0
H5970 H 0.98673 0.52915 0.67404 0.0
H5971 H 0.0107 0.51158 0.67284 0.0
H5972 H 0.97271 0.4635 0.67445 0.0
H5973 H 0.94846 0.48079 0.6752 0.0
C5974 C 0.91811 0.53794 0.7416 0.0
C5975 C 0.90866 0.52165 0.74559 0.0
C5976 C 0.92379 0.53936 0.72405 0.0
C5977 C 0.92028 0.52439 0.71065 0.0
C5978 C 0.91058 0.50816 0.71452 0.0
C5979 C 0.90454 0.50686 0.73192 0.0
C5980 C 0.92847 0.52519 0.69336 0.0
C5981 C 0.94255 0.51614 0.69155 0.0
C5982 C 0.9231 0.53531 0.67931 0.0
C5983 C 0.90775 0.54445 0.68085 0.0
C5984 C 0.89083 0.53467 0.68287 0.0
C5985 C 0.87655 0.54342 0.68526 0.0
C5986 C 0.879 0.56193 0.68555 0.0
C5987 C 0.89572 0.57172 0.68335 0.0
C5988 C 0.91006 0.56303 0.68095 0.0
C5989 C 0.95409 0.5024 0.6171 0.0
C5990 C 0.97069 0.51216 0.61442 0.0
C5991 C 0.94496 0.50835 0.63138 0.0
C5992 C 0.95245 0.52402 0.64311 0.0
C5993 C 0.9682 0.53471 0.63934 0.0
C5994 C 0.97735 0.52877 0.62492 0.0
C5995 C 0.94594 0.52652 0.66133 0.0
C5996 C 0.93205 0.53599 0.6633 0.0
C5997 C 0.95139 0.51668 0.67567 0.0
C5998 C 0.96578 0.5062 0.67423 0.0
C5999 C 0.98345 0.5148 0.67372 0.0
C6000 C 0.9971 0.5049 0.67322 0.0
C6001 C 0.99322 0.48642 0.67345 0.0
C6002 C 0.97568 0.4778 0.67414 0.0
C6003 C 0.96199 0.48763 0.67455 0.0
H6004 H 1.00382 0.4788 0.67319 0.0
H6005 H 0.86794 0.5687 0.68747 0.0
H6006 H 0.24431 0.17928 0.44611 0.0
H6007 H 0.24459 0.18972 0.41522 0.0
H6008 H 0.29654 0.2224 0.43282 0.0
H6009 H 0.29562 0.21283 0.46417 0.0
H6010 H 0.2801 0.24069 0.41421 0.0
H6011 H 0.28496 0.17887 0.3997 0.0
H6012 H 0.27656 0.14606 0.39677 0.0
H6013 H 0.22706 0.14827 0.36454 0.0
H6014 H 0.23505 0.18107 0.36748 0.0
H6015 H 0.30137 0.25568 0.3209 0.0
H6016 H 0.30053 0.24531 0.35213 0.0
H6017 H 0.24384 0.22625 0.33977 0.0
H6018 H 0.2445 0.23793 0.30944 0.0
H6019 H 0.26209 0.2008 0.35475 0.0
H6020 H 0.25705 0.26162 0.36858 0.0
H6021 H 0.26526 0.29431 0.3699 0.0
H6022 H 0.31493 0.29358 0.40259 0.0
H6023 H 0.30715 0.26083 0.40119 0.0
C6024 C 0.25578 0.18874 0.4434 0.0
C6025 C 0.2699 0.19531 0.45772 0.0
C6026 C 0.25606 0.19457 0.42553 0.0
C6027 C 0.27076 0.20668 0.42119 0.0
C6028 C 0.28494 0.21311 0.43554 0.0
C6029 C 0.28445 0.20764 0.45357 0.0
C6030 C 0.27108 0.21336 0.40216 0.0
C6031 C 0.27651 0.23178 0.40128 0.0
C6032 C 0.26569 0.2021 0.38496 0.0
C6033 C 0.26051 0.18245 0.38404 0.0
C6034 C 0.27218 0.17237 0.39221 0.0
C6035 C 0.26751 0.15377 0.39049 0.0
C6036 C 0.25126 0.14509 0.38054 0.0
C6037 C 0.23962 0.155 0.3723 0.0
C6038 C 0.2442 0.17359 0.374 0.0
C6039 C 0.28881 0.24899 0.32477 0.0
C6040 C 0.2732 0.24643 0.31211 0.0
C6041 C 0.2883 0.2432 0.34268 0.0
C6042 C 0.27216 0.23464 0.34826 0.0
C6043 C 0.25653 0.23243 0.33573 0.0
C6044 C 0.25697 0.23872 0.31813 0.0
C6045 C 0.27153 0.22784 0.36705 0.0
C6046 C 0.26588 0.20953 0.3678 0.0
C6047 C 0.27671 0.23913 0.3841 0.0
C6048 C 0.28164 0.25874 0.38452 0.0
C6049 C 0.26984 0.2684 0.37581 0.0
C6050 C 0.27438 0.28695 0.37663 0.0
C6051 C 0.29064 0.29601 0.38625 0.0
C6052 C 0.30237 0.28654 0.39509 0.0
C6053 C 0.2979 0.26798 0.39428 0.0
H6054 H 0.29411 0.31038 0.38691 0.0
H6055 H 0.24772 0.13069 0.37915 0.0
H6056 H 0.32539 0.63944 0.55515 0.0
H6057 H 0.35432 0.63072 0.55475 0.0
H6058 H 0.32846 0.57624 0.53619 0.0
H6059 H 0.29924 0.5848 0.53683 0.0
H6060 H 0.35434 0.57999 0.56575 0.0
H6061 H 0.34527 0.60119 0.50605 0.0
H6062 H 0.33813 0.62318 0.48517 0.0
H6063 H 0.38496 0.66035 0.51026 0.0
H6064 H 0.39217 0.63873 0.53163 0.0
H6065 H 0.41667 0.54104 0.52088 0.0
H6066 H 0.39316 0.55266 0.53553 0.0
H6067 H 0.42777 0.60428 0.54877 0.0
H6068 H 0.45118 0.59261 0.53337 0.0
H6069 H 0.3993 0.60556 0.52595 0.0
H6070 H 0.40838 0.58034 0.58442 0.0
H6071 H 0.41241 0.55702 0.60488 0.0
H6072 H 0.36302 0.52463 0.57884 0.0
H6073 H 0.3588 0.54764 0.55813 0.0
C6074 C 0.32587 0.62559 0.55099 0.0
C6075 C 0.31029 0.61268 0.54597 0.0
C6076 C 0.34232 0.62072 0.55071 0.0
C6077 C 0.34321 0.603 0.54524 0.0
C6078 C 0.32771 0.59002 0.54038 0.0
C6079 C 0.31119 0.59486 0.54077 0.0
C6080 C 0.36046 0.59789 0.54513 0.0
C6081 C 0.36423 0.58541 0.557 0.0
C6082 C 0.37316 0.60557 0.53399 0.0
C6083 C 0.36917 0.61838 0.52064 0.0
C6084 C 0.354 0.6141 0.50724 0.0
C6085 C 0.34992 0.6265 0.4953 0.0
C6086 C 0.36105 0.64317 0.49643 0.0
C6087 C 0.37633 0.64744 0.50943 0.0
C6088 C 0.38041 0.63511 0.52147 0.0
C6089 C 0.41936 0.55466 0.52757 0.0
C6090 C 0.4353 0.56614 0.52598 0.0
C6091 C 0.40609 0.56124 0.53613 0.0
C6092 C 0.40886 0.57929 0.54332 0.0
C6093 C 0.42556 0.59029 0.54338 0.0
C6094 C 0.4388 0.58371 0.53462 0.0
C6095 C 0.39331 0.58725 0.5465 0.0
C6096 C 0.38969 0.60036 0.53509 0.0
C6097 C 0.38048 0.57975 0.55767 0.0
C6098 C 0.38334 0.56569 0.56971 0.0
C6099 C 0.39848 0.56817 0.58296 0.0
C6100 C 0.40076 0.55503 0.59463 0.0
C6101 C 0.38799 0.53935 0.59315 0.0
C6102 C 0.37291 0.53677 0.57999 0.0
C6103 C 0.37055 0.54987 0.56831 0.0
H6104 H 0.38977 0.52921 0.60223 0.0
H6105 H 0.35787 0.65277 0.4872 0.0
H6106 H 0.8596 0.90353 0.55389 0.0
H6107 H 0.8899 0.91878 0.5506 0.0
H6108 H 0.86818 0.95378 0.51519 0.0
H6109 H 0.83791 0.93865 0.51851 0.0
H6110 H 0.89629 0.942 0.50093 0.0
H6111 H 0.88395 0.96788 0.56023 0.0
H6112 H 0.87505 0.96728 0.59208 0.0
H6113 H 0.91954 0.94293 0.60867 0.0
H6114 H 0.92851 0.94307 0.57677 0.0
H6115 H 0.97251 0.01085 0.50321 0.0
H6116 H 0.94319 0.99294 0.50529 0.0
H6117 H 0.96718 0.96229 0.54418 0.0
H6118 H 0.99653 0.98038 0.54243 0.0
H6119 H 0.93829 0.97042 0.55655 0.0
H6120 H 0.9503 0.94362 0.49733 0.0
H6121 H 0.9576 0.94137 0.46474 0.0
H6122 H 0.91409 0.96691 0.44802 0.0
H6123 H 0.90623 0.96894 0.48039 0.0
C6124 C 0.86128 0.91455 0.54551 0.0
C6125 C 0.8463 0.92 0.53666 0.0
C6126 C 0.87863 0.92327 0.54362 0.0
C6127 C 0.88142 0.93758 0.53274 0.0
C6128 C 0.86646 0.94284 0.52368 0.0
C6129 C 0.84912 0.93425 0.52572 0.0
C6130 C 0.89986 0.94725 0.53098 0.0
C6131 C 0.9054 0.9484 0.51309 0.0
C6132 C 0.91201 0.95522 0.54682 0.0
C6133 C 0.90678 0.9553 0.56606 0.0
C6134 C 0.89175 0.96226 0.57062 0.0
C6135 C 0.8867 0.96201 0.58869 0.0
C6136 C 0.89669 0.95502 0.60238 0.0
C6137 C 0.91179 0.94831 0.59804 0.0
C6138 C 0.91686 0.94846 0.57996 0.0
C6139 C 0.97158 1.00039 0.51233 0.0
C6140 C 0.98697 0.99727 0.52282 0.0
C6141 C 0.95476 0.98996 0.51332 0.0
C6142 C 0.95284 0.97603 0.52475 0.0
C6143 C 0.96819 0.97289 0.53524 0.0
C6144 C 0.98502 0.9833 0.53424 0.0
C6145 C 0.93478 0.96532 0.52643 0.0
C6146 C 0.92927 0.96398 0.54435 0.0
C6147 C 0.92267 0.95713 0.5106 0.0
C6148 C 0.92784 0.95666 0.49133 0.0
C6149 C 0.94242 0.94895 0.48675 0.0
C6150 C 0.94664 0.94767 0.46831 0.0
C6151 C 0.93652 0.95426 0.4544 0.0
C6152 C 0.92201 0.96195 0.45884 0.0
C6153 C 0.9176 0.96307 0.4772 0.0
H6154 H 0.93982 0.95327 0.44015 0.0
H6155 H 0.89276 0.95485 0.61636 0.0
H6156 H 0.88998 0.05885 0.22899 0.0
H6157 H 0.87911 0.08713 0.22811 0.0
H6158 H 0.891 0.0979 0.28812 0.0
H6159 H 0.9021 0.06997 0.28908 0.0
H6160 H 0.85534 0.09824 0.27384 0.0
H6161 H 0.91558 0.12293 0.26441 0.0
H6162 H 0.943 0.12641 0.2488 0.0
H6163 H 0.91362 0.13651 0.19851 0.0
H6164 H 0.88597 0.13292 0.2138 0.0
H6165 H 0.85204 0.18702 0.3031 0.0
H6166 H 0.86703 0.16286 0.29273 0.0
H6167 H 0.83452 0.15448 0.23939 0.0
H6168 H 0.819 0.17847 0.24989 0.0
H6169 H 0.87885 0.1526 0.2452 0.0
H6170 H 0.81797 0.1271 0.25588 0.0
H6171 H 0.79171 0.12453 0.27335 0.0
H6172 H 0.82386 0.11607 0.32258 0.0
H6173 H 0.85037 0.11894 0.30545 0.0
C6174 C 0.89027 0.06729 0.24197 0.0
C6175 C 0.8966 0.06207 0.25916 0.0
C6176 C 0.88428 0.08351 0.24141 0.0
C6177 C 0.88433 0.09462 0.25804 0.0
C6178 C 0.89093 0.08954 0.27513 0.0
C6179 C 0.89715 0.07354 0.27566 0.0
C6180 C 0.8757 0.11047 0.25814 0.0
C6181 C 0.86051 0.11009 0.26752 0.0
C6182 C 0.8822 0.1258 0.24956 0.0
C6183 C 0.89865 0.12734 0.24014 0.0
C6184 C 0.91491 0.12562 0.24994 0.0
C6185 C 0.93052 0.12771 0.24118 0.0
C6186 C 0.93004 0.13159 0.22265 0.0
C6187 C 0.91396 0.13344 0.21285 0.0
C6188 C 0.89832 0.13139 0.22155 0.0
C6189 C 0.84816 0.18016 0.28909 0.0
C6190 C 0.83405 0.18437 0.27747 0.0
C6191 C 0.85686 0.16649 0.28313 0.0
C6192 C 0.85178 0.15685 0.26538 0.0
C6193 C 0.83865 0.16184 0.25314 0.0
C6194 C 0.82981 0.17553 0.25916 0.0
C6195 C 0.85863 0.14024 0.26099 0.0
C6196 C 0.87349 0.14052 0.25102 0.0
C6197 C 0.85192 0.12471 0.26902 0.0
C6198 C 0.83616 0.12352 0.27948 0.0
C6199 C 0.81948 0.12499 0.27051 0.0
C6200 C 0.80454 0.1234 0.28033 0.0
C6201 C 0.80613 0.12021 0.29909 0.0
C6202 C 0.82266 0.11861 0.30807 0.0
C6203 C 0.83764 0.12022 0.29832 0.0
H6204 H 0.79453 0.11891 0.30665 0.0
H6205 H 0.94214 0.13323 0.2159 0.0
H6206 H 0.70513 0.12753 0.05869 0.0
H6207 H 0.67322 0.11727 0.05053 0.0
H6208 H 0.68305 0.07199 0.01542 0.0
H6209 H 0.7152 0.0824 0.02313 0.0
H6210 H 0.65817 0.09132 0.99933 0.0
H6211 H 0.67262 0.06566 0.05627 0.0
H6212 H 0.68748 0.06908 0.08858 0.0
H6213 H 0.65347 0.10493 0.10596 0.0
H6214 H 0.63866 0.10204 0.07361 0.0
H6215 H 0.57487 0.03109 0.99721 0.0
H6216 H 0.60624 0.0461 0.99903 0.0
H6217 H 0.59427 0.09195 0.03145 0.0
H6218 H 0.56312 0.07727 0.02937 0.0
H6219 H 0.62004 0.07393 0.04882 0.0
H6220 H 0.60565 0.10065 0.99428 0.0
H6221 H 0.59589 0.10572 0.96205 0.0
H6222 H 0.63065 0.07247 0.94068 0.0
H6223 H 0.64042 0.06692 0.97279 0.0
C6224 C 0.70049 0.1153 0.04938 0.0
C6225 C 0.7124 0.10553 0.04165 0.0
C6226 C 0.68239 0.10959 0.0447 0.0
C6227 C 0.6762 0.09395 0.03258 0.0
C6228 C 0.68796 0.08411 0.02485 0.0
C6229 C 0.70613 0.0899 0.02942 0.0
C6230 C 0.65728 0.08759 0.02841 0.0
C6231 C 0.64975 0.08714 0.00995 0.0
C6232 C 0.64671 0.08306 0.04275 0.0
C6233 C 0.65457 0.08368 0.06249 0.0
C6234 C 0.66829 0.07426 0.06698 0.0
C6235 C 0.67674 0.07615 0.08529 0.0
C6236 C 0.67143 0.08724 0.09931 0.0
C6237 C 0.65756 0.09635 0.09507 0.0
C6238 C 0.64912 0.09457 0.07675 0.0
C6239 C 0.57906 0.04451 0.0043 0.0
C6240 C 0.56709 0.05323 0.01313 0.0
C6241 C 0.59669 0.05304 0.00521 0.0
C6242 C 0.60212 0.07 0.01525 0.0
C6243 C 0.58997 0.07892 0.02349 0.0
C6244 C 0.57238 0.07057 0.0223 0.0
C6245 C 0.62088 0.07728 0.01951 0.0
C6246 C 0.62841 0.07792 0.03808 0.0
C6247 C 0.63143 0.08214 0.0053 0.0
C6248 C 0.62373 0.08333 0.98594 0.0
C6249 C 0.61089 0.09405 0.9827 0.0
C6250 C 0.60544 0.09711 0.96446 0.0
C6251 C 0.61283 0.08959 0.9494 0.0
C6252 C 0.62507 0.07838 0.95241 0.0
C6253 C 0.63054 0.07526 0.97061 0.0
H6254 H 0.60937 0.09273 0.93542 0.0
H6255 H 0.67805 0.08875 0.11346 0.0
H6256 H 0.17066 0.48344 0.2372 0.0
H6257 H 0.17913 0.45448 0.2384 0.0
H6258 H 0.23221 0.48007 0.26295 0.0
H6259 H 0.22392 0.50932 0.26164 0.0
H6260 H 0.23093 0.45557 0.23236 0.0
H6261 H 0.20456 0.46154 0.28953 0.0
H6262 H 0.18055 0.4674 0.30822 0.0
H6263 H 0.14543 0.42125 0.27856 0.0
H6264 H 0.16913 0.41531 0.25936 0.0
H6265 H 0.26792 0.39306 0.27823 0.0
H6266 H 0.25656 0.41661 0.26347 0.0
H6267 H 0.20628 0.38078 0.24549 0.0
H6268 H 0.21766 0.35725 0.26101 0.0
H6269 H 0.2023 0.4084 0.26798 0.0
H6270 H 0.23283 0.40246 0.21249 0.0
H6271 H 0.25812 0.39998 0.19432 0.0
H6272 H 0.28795 0.44887 0.22436 0.0
H6273 H 0.26294 0.45155 0.24278 0.0
C6274 C 0.18416 0.4829 0.24281 0.0
C6275 C 0.19677 0.49842 0.24926 0.0
C6276 C 0.18886 0.46642 0.2436 0.0
C6277 C 0.20612 0.46544 0.25092 0.0
C6278 C 0.21879 0.48088 0.25733 0.0
C6279 C 0.21411 0.49742 0.2565 0.0
C6280 C 0.21128 0.44823 0.25092 0.0
C6281 C 0.22484 0.44519 0.24021 0.0
C6282 C 0.20268 0.43489 0.26078 0.0
C6283 C 0.18859 0.43807 0.27283 0.0
C6284 C 0.19169 0.45269 0.28687 0.0
C6285 C 0.17813 0.45604 0.29757 0.0
C6286 C 0.16145 0.44474 0.29454 0.0
C6287 C 0.15834 0.43001 0.28087 0.0
C6288 C 0.17184 0.42665 0.27007 0.0
C6289 C 0.2547 0.39012 0.27049 0.0
C6290 C 0.24346 0.37374 0.27076 0.0
C6291 C 0.24828 0.40344 0.26187 0.0
C6292 C 0.23064 0.40031 0.25327 0.0
C6293 C 0.21997 0.38328 0.25197 0.0
C6294 C 0.2264 0.36995 0.26077 0.0
C6295 C 0.22248 0.41566 0.24964 0.0
C6296 C 0.20821 0.41849 0.25972 0.0
C6297 C 0.23078 0.42912 0.23963 0.0
C6298 C 0.24603 0.42714 0.22901 0.0
C6299 C 0.24485 0.41257 0.21531 0.0
C6300 C 0.25912 0.41117 0.20494 0.0
C6301 C 0.27463 0.42425 0.20819 0.0
C6302 C 0.27593 0.43876 0.22184 0.0
C6303 C 0.26171 0.44023 0.23221 0.0
H6304 H 0.28564 0.42316 0.20011 0.0
H6305 H 0.15096 0.44736 0.30281 0.0
H6306 H 0.23323 0.39173 0.05243 0.0
H6307 H 0.20622 0.40465 0.0533 0.0
H6308 H 0.22738 0.44362 0.01789 0.0
H6309 H 0.2548 0.43154 0.01825 0.0
H6310 H 0.21484 0.45977 0.04314 0.0
H6311 H 0.1908 0.40329 0.00459 0.0
H6312 H 0.1832 0.37051 0.99787 0.0
H6313 H 0.15246 0.36789 0.04451 0.0
H6314 H 0.16007 0.40063 0.05165 0.0
H6315 H 0.13983 0.49144 0.00524 0.0
H6316 H 0.16606 0.47844 0.01315 0.0
H6317 H 0.13722 0.44645 0.05037 0.0
H6318 H 0.11067 0.45918 0.04184 0.0
H6319 H 0.15276 0.42612 0.02974 0.0
H6320 H 0.1753 0.48264 0.06671 0.0
H6321 H 0.1831 0.51541 0.07351 0.0
H6322 H 0.21671 0.5176 0.02921 0.0
H6323 H 0.20902 0.48489 0.02209 0.0
C6324 C 0.23204 0.40306 0.04485 0.0
C6325 C 0.24615 0.41074 0.03538 0.0
C6326 C 0.21649 0.41035 0.04518 0.0
C6327 C 0.21448 0.42506 0.03546 0.0
C6328 C 0.22851 0.43238 0.02565 0.0
C6329 C 0.24422 0.42547 0.02582 0.0
C6330 C 0.19842 0.43367 0.03616 0.0
C6331 C 0.20129 0.45233 0.03992 0.0
C6332 C 0.18057 0.42408 0.033 0.0
C6333 C 0.1762 0.40439 0.02879 0.0
C6334 C 0.18256 0.39571 0.01351 0.0
C6335 C 0.17822 0.37714 0.00961 0.0
C6336 C 0.16741 0.36712 0.02079 0.0
C6337 C 0.16087 0.37566 0.03589 0.0
C6338 C 0.1652 0.39421 0.03986 0.0
C6339 C 0.13933 0.4821 0.01561 0.0
C6340 C 0.12339 0.4766 0.02326 0.0
C6341 C 0.15435 0.47463 0.02015 0.0
C6342 C 0.15387 0.46157 0.03262 0.0
C6343 C 0.13807 0.45655 0.04082 0.0
C6344 C 0.12296 0.46398 0.03616 0.0
C6345 C 0.16933 0.45225 0.03576 0.0
C6346 C 0.16633 0.43349 0.03298 0.0
C6347 C 0.18713 0.46169 0.03972 0.0
C6348 C 0.1915 0.48136 0.04382 0.0
C6349 C 0.18425 0.49014 0.05835 0.0
C6350 C 0.18869 0.5087 0.06228 0.0
C6351 C 0.20037 0.51858 0.05178 0.0
C6352 C 0.20767 0.50994 0.03734 0.0
C6353 C 0.20331 0.4914 0.03338 0.0
H6354 H 0.2038 0.53295 0.05486 0.0
H6355 H 0.16405 0.35275 0.01774 0.0
H6356 H 0.91518 0.95208 0.26329 0.0
H6357 H 0.8996 0.92192 0.26623 0.0
H6358 H 0.84908 0.9392 0.25823 0.0
H6359 H 0.86468 0.96952 0.25592 0.0
H6360 H 0.84903 0.91968 0.28586 0.0
H6361 H 0.86735 0.91251 0.2231 0.0
H6362 H 0.88968 0.91375 0.20061 0.0
H6363 H 0.91628 0.87819 0.23033 0.0
H6364 H 0.89422 0.87691 0.25312 0.0
H6365 H 0.79008 0.83766 0.27658 0.0
H6366 H 0.80694 0.8663 0.27198 0.0
H6367 H 0.85362 0.84272 0.26664 0.0
H6368 H 0.8357 0.81343 0.26762 0.0
H6369 H 0.8578 0.86566 0.2472 0.0
H6370 H 0.84172 0.87217 0.31014 0.0
H6371 H 0.82142 0.87124 0.33472 0.0
H6372 H 0.79379 0.90808 0.30841 0.0
H6373 H 0.8138 0.9091 0.28362 0.0
C6374 C 0.90074 0.94943 0.262 0.0
C6375 C 0.89118 0.96324 0.25927 0.0
C6376 C 0.8918 0.9321 0.26361 0.0
C6377 C 0.87305 0.92805 0.26218 0.0
C6378 C 0.86353 0.94186 0.25936 0.0
C6379 C 0.87246 0.95922 0.25796 0.0
C6380 C 0.86326 0.90969 0.26422 0.0
C6381 C 0.85082 0.90787 0.27726 0.0
C6382 C 0.8661 0.89406 0.2537 0.0
C6383 C 0.87922 0.89473 0.23988 0.0
C6384 C 0.87801 0.90503 0.22489 0.0
C6385 C 0.89062 0.90573 0.21209 0.0
C6386 C 0.90441 0.89608 0.21406 0.0
C6387 C 0.9056 0.88567 0.22882 0.0
C6388 C 0.89304 0.88494 0.24167 0.0
C6389 C 0.80372 0.83833 0.27391 0.0
C6390 C 0.81123 0.82289 0.27245 0.0
C6391 C 0.81371 0.85507 0.27186 0.0
C6392 C 0.83205 0.85728 0.2698 0.0
C6393 C 0.83961 0.84181 0.2683 0.0
C6394 C 0.82928 0.8249 0.2691 0.0
C6395 C 0.84317 0.87547 0.2688 0.0
C6396 C 0.85598 0.87732 0.256 0.0
C6397 C 0.84105 0.89112 0.27996 0.0
C6398 C 0.82918 0.89062 0.29499 0.0
C6399 C 0.83128 0.88003 0.3096 0.0
C6400 C 0.81983 0.87949 0.32355 0.0
C6401 C 0.80631 0.88957 0.32311 0.0
C6402 C 0.80425 0.90027 0.30874 0.0
C6403 C 0.81566 0.90086 0.29476 0.0
H6404 H 0.79745 0.88912 0.33391 0.0
H6405 H 0.91415 0.89665 0.20414 0.0
H6406 H 0.72715 0.09612 0.75143 0.0
H6407 H 0.73809 0.12824 0.75929 0.0
H6408 H 0.68637 0.13474 0.77482 0.0
H6409 H 0.67524 0.10302 0.76647 0.0
H6410 H 0.69949 0.15819 0.75177 0.0
H6411 H 0.71997 0.13609 0.80928 0.0
H6412 H 0.73554 0.11652 0.82736 0.0
H6413 H 0.78432 0.13646 0.80534 0.0
H6414 H 0.769 0.15606 0.78707 0.0
H6415 H 0.73319 0.24832 0.78922 0.0
H6416 H 0.71844 0.21729 0.78702 0.0
H6417 H 0.76685 0.2007 0.77244 0.0
H6418 H 0.78206 0.23165 0.77568 0.0
H6419 H 0.75223 0.18267 0.79822 0.0
H6420 H 0.73325 0.20348 0.7398 0.0
H6421 H 0.71829 0.2201 0.71754 0.0
H6422 H 0.66786 0.20075 0.73649 0.0
H6423 H 0.68254 0.18458 0.75937 0.0
C6424 C 0.71824 0.10451 0.75652 0.0
C6425 C 0.70049 0.09743 0.75835 0.0
C6426 C 0.72444 0.12264 0.76107 0.0
C6427 C 0.71297 0.13345 0.76784 0.0
C6428 C 0.69526 0.12636 0.76965 0.0
C6429 C 0.689 0.10838 0.76483 0.0
C6430 C 0.71924 0.15239 0.7724 0.0
C6431 C 0.7108 0.16374 0.76217 0.0
C6432 C 0.73413 0.15911 0.78568 0.0
C6433 C 0.74334 0.14747 0.79682 0.0
C6434 C 0.734 0.13624 0.80827 0.0
C6435 C 0.74279 0.12516 0.81856 0.0
C6436 C 0.76091 0.12524 0.8175 0.0
C6437 C 0.7703 0.13643 0.80618 0.0
C6438 C 0.76159 0.14755 0.79591 0.0
C6439 C 0.74089 0.23805 0.78627 0.0
C6440 C 0.75882 0.24222 0.78292 0.0
C6441 C 0.73232 0.22045 0.78461 0.0
C6442 C 0.74161 0.20705 0.77933 0.0
C6443 C 0.75962 0.21112 0.77652 0.0
C6444 C 0.76827 0.22867 0.77847 0.0
C6445 C 0.73285 0.18858 0.77717 0.0
C6446 C 0.7407 0.17728 0.78805 0.0
C6447 C 0.71758 0.18194 0.76418 0.0
C6448 C 0.70909 0.1931 0.75162 0.0
C6449 C 0.71905 0.20315 0.73961 0.0
C6450 C 0.7106 0.21246 0.72682 0.0
C6451 C 0.69218 0.21165 0.72573 0.0
C6452 C 0.68216 0.2016 0.73751 0.0
C6453 C 0.69055 0.19242 0.75044 0.0
H6454 H 0.68568 0.21868 0.71564 0.0
H6455 H 0.76768 0.11664 0.82545 0.0
loop_
_geom_bond_atom_site_label_1
_geom_bond_atom_site_label_2
_geom_bond_distance
_geom_bond_site_symmetry_2
_ccdc_geom_bond_type
In0 O1 2.294 . S
In0 O2 2.326 . S
In0 O6 2.266 . S
In0 O7 2.326 . S
In0 O8 2.266 . S
In0 O9 2.326 . S
In0 O11 2.294 . S
In0 O12 2.326 . S
O1 In0 2.294 . S
O1 C10 1.240 . S
O2 In0 2.326 . S
O2 C10 1.252 . S
C3 O6 1.252 . S
C3 O7 1.260 . S
C4 O11 1.240 . S
C4 O12 1.252 . S
C5 O8 1.252 . S
C5 O9 1.260 . S
O6 In0 2.266 . S
O6 C3 1.252 . S
O7 In0 2.326 . S
O7 C3 1.260 . S
O8 In0 2.266 . S
O8 C5 1.252 . S
O9 In0 2.326 . S
O9 C5 1.260 . S
C10 O1 1.240 . S
C10 O2 1.252 . S
O11 In0 2.294 . S
O11 C4 1.240 . S
O12 In0 2.326 . S
O12 C4 1.252 . S
In13 O14 2.294 . S
In13 O15 2.326 . S
In13 O19 2.266 . S
In13 O20 2.326 . S
In13 O21 2.266 1_455 S
In13 O22 2.326 1_455 S
In13 O24 2.294 . S
In13 O25 2.326 . S
O14 In13 2.294 . S
O14 C23 1.240 . S
O15 In13 2.326 . S
O15 C23 1.252 . S
C16 O19 1.252 . S
C16 O20 1.260 . S
C17 O24 1.240 . S
C17 O25 1.252 . S
C18 O21 1.252 . S
C18 O22 1.260 . S
O19 In13 2.266 . S
O19 C16 1.252 . S
O20 In13 2.326 . S
O20 C16 1.260 . S
O21 In13 2.266 1_655 S
O21 C18 1.252 . S
O22 In13 2.326 1_655 S
O22 C18 1.260 . S
C23 O14 1.240 . S
C23 O15 1.252 . S
O24 In13 2.294 . S
O24 C17 1.240 . S
O25 In13 2.326 . S
O25 C17 1.252 . S
In26 O27 2.294 . S
In26 O28 2.326 . S
In26 O32 2.266 . S
In26 O33 2.326 . S
In26 O34 2.266 . S
In26 O35 2.326 . S
In26 O37 2.294 . S
In26 O38 2.326 . S
O27 In26 2.294 . S
O27 C36 1.240 . S
O28 In26 2.326 . S
O28 C36 1.252 . S
C29 O32 1.252 . S
C29 O33 1.260 . S
C30 O37 1.240 . S
C30 O38 1.252 . S
C31 O34 1.252 . S
C31 O35 1.260 . S
O32 In26 2.266 . S
O32 C29 1.252 . S
O33 In26 2.326 . S
O33 C29 1.260 . S
O34 In26 2.266 . S
O34 C31 1.252 . S
O35 In26 2.326 . S
O35 C31 1.260 . S
C36 O27 1.240 . S
C36 O28 1.252 . S
O37 In26 2.294 . S
O37 C30 1.240 . S
O38 In26 2.326 . S
O38 C30 1.252 . S
In39 O40 2.294 . S
In39 O41 2.326 . S
In39 O45 2.266 . S
In39 O46 2.326 . S
In39 O47 2.266 . S
In39 O48 2.326 . S
In39 O50 2.294 . S
In39 O51 2.326 . S
O40 In39 2.294 . S
O40 C49 1.240 . S
O41 In39 2.326 . S
O41 C49 1.252 . S
C42 O45 1.252 . S
C42 O46 1.260 . S
C43 O50 1.240 . S
C43 O51 1.252 . S
C44 O47 1.252 . S
C44 O48 1.260 . S
O45 In39 2.266 . S
O45 C42 1.252 . S
O46 In39 2.326 . S
O46 C42 1.260 . S
O47 In39 2.266 . S
O47 C44 1.252 . S
O48 In39 2.326 . S
O48 C44 1.260 . S
C49 O40 1.240 . S
C49 O41 1.252 . S
O50 In39 2.294 . S
O50 C43 1.240 . S
O51 In39 2.326 . S
O51 C43 1.252 . S
In52 O53 2.294 . S
In52 O54 2.326 . S
In52 O58 2.266 . S
In52 O59 2.326 . S
In52 O60 2.266 . S
In52 O61 2.326 . S
In52 O63 2.294 . S
In52 O64 2.326 . S
O53 In52 2.294 . S
O53 C62 1.240 . S
O54 In52 2.326 . S
O54 C62 1.252 . S
C55 O58 1.252 . S
C55 O59 1.260 . S
C56 O63 1.240 . S
C56 O64 1.252 . S
C57 O60 1.252 . S
C57 O61 1.260 . S
O58 In52 2.266 . S
O58 C55 1.252 . S
O59 In52 2.326 . S
O59 C55 1.260 . S
O60 In52 2.266 . S
O60 C57 1.252 . S
O61 In52 2.326 . S
O61 C57 1.260 . S
C62 O53 1.240 . S
C62 O54 1.252 . S
O63 In52 2.294 . S
O63 C56 1.240 . S
O64 In52 2.326 . S
O64 C56 1.252 . S
In65 O66 2.294 . S
In65 O67 2.326 . S
In65 O71 2.266 . S
In65 O72 2.326 . S
In65 O73 2.266 . S
In65 O74 2.326 . S
In65 O76 2.294 . S
In65 O77 2.326 . S
O66 In65 2.294 . S
O66 C75 1.240 . S
O67 In65 2.326 . S
O67 C75 1.252 . S
C68 O71 1.252 . S
C68 O72 1.260 . S
C69 O76 1.240 . S
C69 O77 1.252 . S
C70 O73 1.252 . S
C70 O74 1.260 . S
O71 In65 2.266 . S
O71 C68 1.252 . S
O72 In65 2.326 . S
O72 C68 1.260 . S
O73 In65 2.266 . S
O73 C70 1.252 . S
O74 In65 2.326 . S
O74 C70 1.260 . S
C75 O66 1.240 . S
C75 O67 1.252 . S
O76 In65 2.294 . S
O76 C69 1.240 . S
O77 In65 2.326 . S
O77 C69 1.252 . S
In78 O79 2.294 . S
In78 O80 2.326 . S
In78 O84 2.266 . S
In78 O85 2.326 . S
In78 O86 2.266 . S
In78 O87 2.326 . S
In78 O89 2.294 . S
In78 O90 2.326 . S
O79 In78 2.294 . S
O79 C88 1.240 . S
O80 In78 2.326 . S
O80 C88 1.252 . S
C81 O84 1.252 . S
C81 O85 1.260 . S
C82 O89 1.240 . S
C82 O90 1.252 . S
C83 O86 1.252 . S
C83 O87 1.260 . S
O84 In78 2.266 . S
O84 C81 1.252 . S
O85 In78 2.326 . S
O85 C81 1.260 . S
O86 In78 2.266 . S
O86 C83 1.252 . S
O87 In78 2.326 . S
O87 C83 1.260 . S
C88 O79 1.240 . S
C88 O80 1.252 . S
O89 In78 2.294 . S
O89 C82 1.240 . S
O90 In78 2.326 . S
O90 C82 1.252 . S
In91 O92 2.294 . S
In91 O93 2.328 1_455 S
In91 O97 2.265 1_455 S
In91 O98 2.332 . S
In91 O99 2.264 1_455 S
In91 O100 2.323 1_455 S
In91 O102 2.296 . S
In91 O103 2.329 . S
O92 In91 2.294 . S
O92 C101 1.240 . S
O93 In91 2.328 1_655 S
O93 C101 1.252 1_655 S
C94 O97 1.254 1_455 S
C94 O98 1.259 . S
C95 O102 1.240 . S
C95 O103 1.252 . S
C96 O99 1.252 . S
C96 O100 1.260 . S
O97 In91 2.265 1_655 S
O97 C94 1.254 1_655 S
O98 In91 2.332 . S
O98 C94 1.259 . S
O99 In91 2.264 1_655 S
O99 C96 1.252 . S
O100 In91 2.323 1_655 S
O100 C96 1.260 . S
C101 O92 1.240 . S
C101 O93 1.252 1_455 S
O102 In91 2.296 . S
O102 C95 1.240 . S
O103 In91 2.329 . S
O103 C95 1.252 . S
In104 O105 2.294 . S
In104 O106 2.326 . S
In104 O110 2.266 . S
In104 O111 2.326 . S
In104 O112 2.266 1_545 S
In104 O113 2.326 1_545 S
In104 O115 2.294 . S
In104 O116 2.326 . S
O105 In104 2.294 . S
O105 C114 1.240 . S
O106 In104 2.326 . S
O106 C114 1.252 . S
C107 O110 1.252 . S
C107 O111 1.260 . S
C108 O115 1.240 . S
C108 O116 1.252 . S
C109 O112 1.252 . S
C109 O113 1.260 . S
O110 In104 2.266 . S
O110 C107 1.252 . S
O111 In104 2.326 . S
O111 C107 1.260 . S
O112 In104 2.266 1_565 S
O112 C109 1.252 . S
O113 In104 2.326 1_565 S
O113 C109 1.260 . S
C114 O105 1.240 . S
C114 O106 1.252 . S
O115 In104 2.294 . S
O115 C108 1.240 . S
O116 In104 2.326 . S
O116 C108 1.252 . S
In117 O118 2.294 . S
In117 O119 2.326 . S
In117 O123 2.266 . S
In117 O124 2.326 . S
In117 O125 2.266 . S
In117 O126 2.326 . S
In117 O128 2.294 . S
In117 O129 2.326 . S
O118 In117 2.294 . S
O118 C127 1.240 . S
O119 In117 2.326 . S
O119 C127 1.252 . S
C120 O123 1.252 . S
C120 O124 1.260 . S
C121 O128 1.240 . S
C121 O129 1.252 . S
C122 O125 1.252 . S
C122 O126 1.260 . S
O123 In117 2.266 . S
O123 C120 1.252 . S
O124 In117 2.326 . S
O124 C120 1.260 . S
O125 In117 2.266 . S
O125 C122 1.252 . S
O126 In117 2.326 . S
O126 C122 1.260 . S
C127 O118 1.240 . S
C127 O119 1.252 . S
O128 In117 2.294 . S
O128 C121 1.240 . S
O129 In117 2.326 . S
O129 C121 1.252 . S
In130 O131 2.294 . S
In130 O132 2.326 . S
In130 O136 2.266 . S
In130 O137 2.326 . S
In130 O138 2.266 . S
In130 O139 2.326 . S
In130 O141 2.294 . S
In130 O142 2.326 . S
O131 In130 2.294 . S
O131 C140 1.240 . S
O132 In130 2.326 . S
O132 C140 1.252 . S
C133 O136 1.252 . S
C133 O137 1.260 . S
C134 O141 1.240 . S
C134 O142 1.252 . S
C135 O138 1.252 . S
C135 O139 1.260 . S
O136 In130 2.266 . S
O136 C133 1.252 . S
O137 In130 2.326 . S
O137 C133 1.260 . S
O138 In130 2.266 . S
O138 C135 1.252 . S
O139 In130 2.326 . S
O139 C135 1.260 . S
C140 O131 1.240 . S
C140 O132 1.252 . S
O141 In130 2.294 . S
O141 C134 1.240 . S
O142 In130 2.326 . S
O142 C134 1.252 . S
In143 O144 2.296 . S
In143 O145 2.329 . S
In143 O149 2.264 1_554 S
In143 O150 2.322 1_554 S
In143 O151 2.266 1_554 S
In143 O152 2.322 1_554 S
In143 O154 2.294 . S
In143 O155 2.327 . S
O144 In143 2.296 . S
O144 C153 1.240 . S
O145 In143 2.329 . S
O145 C153 1.252 . S
C146 O149 1.252 . S
C146 O150 1.260 . S
C147 O154 1.240 . S
C147 O155 1.252 . S
C148 O151 1.252 . S
C148 O152 1.266 . S
O149 In143 2.264 1_556 S
O149 C146 1.252 . S
O150 In143 2.322 1_556 S
O150 C146 1.260 . S
O151 In143 2.266 1_556 S
O151 C148 1.252 . S
O152 In143 2.322 1_556 S
O152 C148 1.266 . S
C153 O144 1.240 . S
C153 O145 1.252 . S
O154 In143 2.294 . S
O154 C147 1.240 . S
O155 In143 2.327 . S
O155 C147 1.252 . S
In156 O157 2.294 . S
In156 O158 2.326 . S
In156 O162 2.266 . S
In156 O163 2.326 . S
In156 O164 2.266 . S
In156 O165 2.326 . S
In156 O167 2.294 . S
In156 O168 2.326 . S
O157 In156 2.294 . S
O157 C166 1.240 . S
O158 In156 2.326 . S
O158 C166 1.252 . S
C159 O162 1.252 . S
C159 O163 1.260 . S
C160 O167 1.240 . S
C160 O168 1.252 . S
C161 O164 1.252 . S
C161 O165 1.260 . S
O162 In156 2.266 . S
O162 C159 1.252 . S
O163 In156 2.326 . S
O163 C159 1.260 . S
O164 In156 2.266 . S
O164 C161 1.252 . S
O165 In156 2.326 . S
O165 C161 1.260 . S
C166 O157 1.240 . S
C166 O158 1.252 . S
O167 In156 2.294 . S
O167 C160 1.240 . S
O168 In156 2.326 . S
O168 C160 1.252 . S
In169 O170 2.294 . S
In169 O171 2.326 . S
In169 O175 2.266 . S
In169 O176 2.326 . S
In169 O177 2.266 . S
In169 O178 2.326 . S
In169 O180 2.294 . S
In169 O181 2.326 . S
O170 In169 2.294 . S
O170 C179 1.240 . S
O171 In169 2.326 . S
O171 C179 1.252 . S
C172 O175 1.252 . S
C172 O176 1.260 . S
C173 O180 1.240 . S
C173 O181 1.252 . S
C174 O177 1.252 . S
C174 O178 1.260 . S
O175 In169 2.266 . S
O175 C172 1.252 . S
O176 In169 2.326 . S
O176 C172 1.260 . S
O177 In169 2.266 . S
O177 C174 1.252 . S
O178 In169 2.326 . S
O178 C174 1.260 . S
C179 O170 1.240 . S
C179 O171 1.252 . S
O180 In169 2.294 . S
O180 C173 1.240 . S
O181 In169 2.326 . S
O181 C173 1.252 . S
In182 O183 2.294 . S
In182 O184 2.326 . S
In182 O188 2.266 . S
In182 O189 2.326 . S
In182 O190 2.266 . S
In182 O191 2.326 . S
In182 O193 2.294 . S
In182 O194 2.326 . S
O183 In182 2.294 . S
O183 C192 1.240 . S
O184 In182 2.326 . S
O184 C192 1.252 . S
C185 O188 1.252 . S
C185 O189 1.260 . S
C186 O193 1.240 . S
C186 O194 1.252 . S
C187 O190 1.252 . S
C187 O191 1.260 . S
O188 In182 2.266 . S
O188 C185 1.252 . S
O189 In182 2.326 . S
O189 C185 1.260 . S
O190 In182 2.266 . S
O190 C187 1.252 . S
O191 In182 2.326 . S
O191 C187 1.260 . S
C192 O183 1.240 . S
C192 O184 1.252 . S
O193 In182 2.294 . S
O193 C186 1.240 . S
O194 In182 2.326 . S
O194 C186 1.252 . S
In195 O196 2.294 . S
In195 O197 2.326 . S
In195 O201 2.266 . S
In195 O202 2.326 . S
In195 O203 2.266 . S
In195 O204 2.326 . S
In195 O206 2.294 . S
In195 O207 2.326 . S
O196 In195 2.294 . S
O196 C205 1.240 . S
O197 In195 2.326 . S
O197 C205 1.252 . S
C198 O201 1.252 . S
C198 O202 1.260 . S
C199 O206 1.240 . S
C199 O207 1.252 . S
C200 O203 1.252 . S
C200 O204 1.260 . S
O201 In195 2.266 . S
O201 C198 1.252 . S
O202 In195 2.326 . S
O202 C198 1.260 . S
O203 In195 2.266 . S
O203 C200 1.252 . S
O204 In195 2.326 . S
O204 C200 1.260 . S
C205 O196 1.240 . S
C205 O197 1.252 . S
O206 In195 2.294 . S
O206 C199 1.240 . S
O207 In195 2.326 . S
O207 C199 1.252 . S
In208 O209 2.294 . S
In208 O210 2.326 . S
In208 O214 2.266 . S
In208 O215 2.326 . S
In208 O216 2.266 1_545 S
In208 O217 2.326 1_545 S
In208 O219 2.294 . S
In208 O220 2.326 . S
O209 In208 2.294 . S
O209 C218 1.240 . S
O210 In208 2.326 . S
O210 C218 1.252 . S
C211 O214 1.252 . S
C211 O215 1.260 . S
C212 O219 1.240 . S
C212 O220 1.252 . S
C213 O216 1.252 . S
C213 O217 1.260 . S
O214 In208 2.266 . S
O214 C211 1.252 . S
O215 In208 2.326 . S
O215 C211 1.260 . S
O216 In208 2.266 1_565 S
O216 C213 1.252 . S
O217 In208 2.326 1_565 S
O217 C213 1.260 . S
C218 O209 1.240 . S
C218 O210 1.252 . S
O219 In208 2.294 . S
O219 C212 1.240 . S
O220 In208 2.326 . S
O220 C212 1.252 . S
In221 O222 2.294 . S
In221 O223 2.326 . S
In221 O227 2.266 . S
In221 O228 2.326 . S
In221 O229 2.266 . S
In221 O230 2.326 . S
In221 O232 2.294 . S
In221 O233 2.326 . S
O222 In221 2.294 . S
O222 C231 1.240 . S
O223 In221 2.326 . S
O223 C231 1.252 . S
C224 O227 1.252 . S
C224 O228 1.260 . S
C225 O232 1.240 . S
C225 O233 1.252 . S
C226 O229 1.252 . S
C226 O230 1.260 . S
O227 In221 2.266 . S
O227 C224 1.252 . S
O228 In221 2.326 . S
O228 C224 1.260 . S
O229 In221 2.266 . S
O229 C226 1.252 . S
O230 In221 2.326 . S
O230 C226 1.260 . S
C231 O222 1.240 . S
C231 O223 1.252 . S
O232 In221 2.294 . S
O232 C225 1.240 . S
O233 In221 2.326 . S
O233 C225 1.252 . S
In234 O235 2.294 . S
In234 O236 2.326 . S
In234 O240 2.266 . S
In234 O241 2.326 . S
In234 O242 2.266 . S
In234 O243 2.326 . S
In234 O245 2.294 . S
In234 O246 2.326 . S
O235 In234 2.294 . S
O235 C244 1.240 . S
O236 In234 2.326 . S
O236 C244 1.252 . S
C237 O240 1.252 . S
C237 O241 1.260 . S
C238 O245 1.240 . S
C238 O246 1.252 . S
C239 O242 1.252 . S
C239 O243 1.260 . S
O240 In234 2.266 . S
O240 C237 1.252 . S
O241 In234 2.326 . S
O241 C237 1.260 . S
O242 In234 2.266 . S
O242 C239 1.252 . S
O243 In234 2.326 . S
O243 C239 1.260 . S
C244 O235 1.240 . S
C244 O236 1.252 . S
O245 In234 2.294 . S
O245 C238 1.240 . S
O246 In234 2.326 . S
O246 C238 1.252 . S
In247 O248 2.294 . S
In247 O249 2.326 . S
In247 O253 2.266 . S
In247 O254 2.326 . S
In247 O255 2.266 . S
In247 O256 2.326 . S
In247 O258 2.294 . S
In247 O259 2.326 . S
O248 In247 2.294 . S
O248 C257 1.240 . S
O249 In247 2.326 . S
O249 C257 1.252 . S
C250 O253 1.252 . S
C250 O254 1.260 . S
C251 O258 1.240 . S
C251 O259 1.252 . S
C252 O255 1.252 . S
C252 O256 1.260 . S
O253 In247 2.266 . S
O253 C250 1.252 . S
O254 In247 2.326 . S
O254 C250 1.260 . S
O255 In247 2.266 . S
O255 C252 1.252 . S
O256 In247 2.326 . S
O256 C252 1.260 . S
C257 O248 1.240 . S
C257 O249 1.252 . S
O258 In247 2.294 . S
O258 C251 1.240 . S
O259 In247 2.326 . S
O259 C251 1.252 . S
In260 O261 2.294 . S
In260 O262 2.326 . S
In260 O266 2.266 . S
In260 O267 2.326 . S
In260 O268 2.266 1_554 S
In260 O269 2.326 1_554 S
In260 O271 2.294 . S
In260 O272 2.326 . S
O261 In260 2.294 . S
O261 C270 1.240 . S
O262 In260 2.326 . S
O262 C270 1.252 . S
C263 O266 1.252 . S
C263 O267 1.260 . S
C264 O271 1.240 . S
C264 O272 1.252 . S
C265 O268 1.252 . S
C265 O269 1.260 . S
O266 In260 2.266 . S
O266 C263 1.252 . S
O267 In260 2.326 . S
O267 C263 1.260 . S
O268 In260 2.266 1_556 S
O268 C265 1.252 . S
O269 In260 2.326 1_556 S
O269 C265 1.260 . S
C270 O261 1.240 . S
C270 O262 1.252 . S
O271 In260 2.294 . S
O271 C264 1.240 . S
O272 In260 2.326 . S
O272 C264 1.252 . S
In273 O274 2.294 . S
In273 O275 2.326 . S
In273 O279 2.266 . S
In273 O280 2.326 . S
In273 O281 2.266 . S
In273 O282 2.326 . S
In273 O284 2.294 . S
In273 O285 2.326 . S
O274 In273 2.294 . S
O274 C283 1.240 . S
O275 In273 2.326 . S
O275 C283 1.252 . S
C276 O279 1.252 . S
C276 O280 1.260 . S
C277 O284 1.240 . S
C277 O285 1.252 . S
C278 O281 1.252 . S
C278 O282 1.260 . S
O279 In273 2.266 . S
O279 C276 1.252 . S
O280 In273 2.326 . S
O280 C276 1.260 . S
O281 In273 2.266 . S
O281 C278 1.252 . S
O282 In273 2.326 . S
O282 C278 1.260 . S
C283 O274 1.240 . S
C283 O275 1.252 . S
O284 In273 2.294 . S
O284 C277 1.240 . S
O285 In273 2.326 . S
O285 C277 1.252 . S
In286 O287 2.294 . S
In286 O288 2.326 . S
In286 O292 2.266 . S
In286 O293 2.326 . S
In286 O294 2.266 . S
In286 O295 2.326 . S
In286 O297 2.294 . S
In286 O298 2.326 . S
O287 In286 2.294 . S
O287 C296 1.240 . S
O288 In286 2.326 . S
O288 C296 1.252 . S
C289 O292 1.252 . S
C289 O293 1.260 . S
C290 O297 1.240 . S
C290 O298 1.252 . S
C291 O294 1.252 . S
C291 O295 1.260 . S
O292 In286 2.266 . S
O292 C289 1.252 . S
O293 In286 2.326 . S
O293 C289 1.260 . S
O294 In286 2.266 . S
O294 C291 1.252 . S
O295 In286 2.326 . S
O295 C291 1.260 . S
C296 O287 1.240 . S
C296 O288 1.252 . S
O297 In286 2.294 . S
O297 C290 1.240 . S
O298 In286 2.326 . S
O298 C290 1.252 . S
In299 O300 2.294 . S
In299 O301 2.326 . S
In299 O305 2.266 . S
In299 O306 2.326 . S
In299 O307 2.266 . S
In299 O308 2.326 . S
In299 O310 2.294 . S
In299 O311 2.326 . S
O300 In299 2.294 . S
O300 C309 1.240 . S
O301 In299 2.326 . S
O301 C309 1.252 . S
C302 O305 1.252 . S
C302 O306 1.260 . S
C303 O310 1.240 . S
C303 O311 1.252 . S
C304 O307 1.252 . S
C304 O308 1.260 . S
O305 In299 2.266 . S
O305 C302 1.252 . S
O306 In299 2.326 . S
O306 C302 1.260 . S
O307 In299 2.266 . S
O307 C304 1.252 . S
O308 In299 2.326 . S
O308 C304 1.260 . S
C309 O300 1.240 . S
C309 O301 1.252 . S
O310 In299 2.294 . S
O310 C303 1.240 . S
O311 In299 2.326 . S
O311 C303 1.252 . S
C312 C314 1.422 . S
C312 C316 1.415 1_554 S
C312 N318 1.369 1_564 S
C313 C314 1.421 . S
C313 C315 1.417 . S
C313 C325 1.422 . S
C314 C312 1.422 . S
C314 C313 1.421 . S
C314 N324 1.359 1_565 S
C315 C313 1.417 . S
C315 C317 1.329 1_554 S
C315 H334 0.930 . S
C316 C312 1.415 1_556 S
C316 C317 1.437 . S
C316 C320 1.413 . S
C317 C315 1.329 1_556 S
C317 C316 1.437 . S
C317 H339 0.929 . S
N318 C312 1.369 1_546 S
N318 C319 1.322 1_655 S
N318 Gd323 2.622 1_656 S
C319 N318 1.322 1_455 S
C319 C321 1.375 1_445 S
C319 H331 0.952 . S
C320 C316 1.413 . S
C320 C321 1.348 . S
C320 H336 0.931 . S
C321 C319 1.375 1_665 S
C321 C320 1.348 . S
C321 H337 0.930 . S
Gd322 N342 2.622 . S
Gd322 N349 2.570 . S
Gd322 O356 2.353 . S
Gd322 O357 2.468 . S
Gd322 O358 2.427 . S
Gd322 O360 2.388 . S
Gd322 O361 2.386 . S
Gd322 O365 2.307 . S
Gd322 C375 2.805 . S
Gd323 N318 2.622 1_454 S
Gd323 N324 2.570 1_455 S
Gd323 O355 2.386 . S
Gd323 O359 2.307 . S
Gd323 O362 2.353 . S
Gd323 O363 2.468 1_455 S
Gd323 O364 2.427 1_455 S
Gd323 O366 2.356 1_554 S
Gd323 C387 2.805 1_455 S
N324 C314 1.359 1_545 S
N324 Gd323 2.570 1_655 S
N324 C326 1.343 . S
C325 C313 1.422 . S
C325 C327 1.321 . S
C325 H333 0.931 . S
C326 N324 1.343 . S
C326 C327 1.390 1_545 S
C326 H328 0.931 . S
C327 C325 1.321 . S
C327 C326 1.390 1_565 S
C327 H329 0.930 . S
H328 C326 0.931 . S
H329 C327 0.930 . S
H330 C353 0.931 . S
H331 C319 0.952 . S
H332 C354 0.930 . S
H333 C325 0.931 . S
H334 C315 0.930 . S
H335 C344 0.929 . S
H336 C320 0.931 . S
H337 C321 0.930 . S
H338 C376 0.930 . S
H339 C317 0.929 . S
H340 C345 0.931 . S
H341 C346 0.930 . S
N342 Gd322 2.622 . S
N342 C343 1.369 . S
N342 C344 1.338 . S
C343 N342 1.369 . S
C343 C347 1.415 . S
C343 C350 1.422 . S
C344 H335 0.929 . S
C344 N342 1.338 . S
C344 C346 1.378 . S
C345 H340 0.931 . S
C345 C346 1.348 . S
C345 C347 1.413 . S
C346 H341 0.930 . S
C346 C344 1.378 . S
C346 C345 1.348 . S
C347 C343 1.415 . S
C347 C345 1.413 . S
C347 C377 1.437 . S
H348 C377 0.929 . S
N349 Gd322 2.570 . S
N349 C350 1.359 . S
N349 C353 1.343 . S
C350 C343 1.422 . S
C350 N349 1.359 . S
C350 C352 1.421 . S
C351 C352 1.422 . S
C351 C354 1.321 . S
C351 H378 0.931 . S
C352 C350 1.421 . S
C352 C351 1.422 . S
C352 C376 1.417 . S
C353 H330 0.931 . S
C353 N349 1.343 . S
C353 C354 1.390 . S
C354 H332 0.930 . S
C354 C351 1.321 . S
C354 C353 1.390 . S
O355 Gd323 2.386 . S
O355 C367 1.265 . S
O356 Gd322 2.353 . S
O356 C367 1.242 . S
O357 Gd322 2.468 . S
O357 C375 1.263 . S
O358 Gd322 2.427 . S
O358 C375 1.252 . S
O359 Gd323 2.307 . S
O359 C368 1.261 . S
O360 Gd322 2.388 . S
O360 C368 1.252 . S
O361 Gd322 2.386 . S
O361 C379 1.265 . S
O362 Gd323 2.353 . S
O362 C379 1.242 . S
O363 Gd323 2.468 1_655 S
O363 C387 1.263 . S
O364 Gd323 2.427 1_655 S
O364 C387 1.252 . S
O365 Gd322 2.307 . S
O365 C380 1.261 . S
O366 Gd323 2.356 1_556 S
O366 C380 1.248 1_556 S
C367 O355 1.265 . S
C367 O356 1.242 . S
C368 O359 1.261 . S
C368 O360 1.252 . S
C369 C372 1.394 . S
C369 C374 1.370 . S
C369 C375 1.500 . S
C370 C373 1.383 . S
C370 C374 1.395 . S
C371 C372 1.396 . S
C371 C373 1.365 . S
C371 H388 0.929 . S
C372 C369 1.394 . S
C372 C371 1.396 . S
C372 H389 0.930 . S
C373 C370 1.383 . S
C373 C371 1.365 . S
C373 H390 0.931 . S
C374 C369 1.370 . S
C374 C370 1.395 . S
C374 H391 0.930 . S
C375 Gd322 2.805 . S
C375 O357 1.263 . S
C375 O358 1.252 . S
C375 C369 1.500 . S
C376 H338 0.930 . S
C376 C352 1.417 . S
C376 C377 1.329 . S
C377 C347 1.437 . S
C377 H348 0.929 . S
C377 C376 1.329 . S
H378 C351 0.931 . S
C379 O361 1.265 . S
C379 O362 1.242 . S
C380 O365 1.261 . S
C380 O366 1.248 1_554 S
C381 C384 1.394 1_554 S
C381 C386 1.370 . S
C381 C387 1.500 . S
C382 C385 1.383 . S
C382 C386 1.395 . S
C383 C384 1.396 . S
C383 C385 1.365 1_556 S
C383 H392 0.929 . S
C384 C381 1.394 1_556 S
C384 C383 1.396 . S
C384 H393 0.930 . S
C385 C382 1.383 . S
C385 C383 1.365 1_554 S
C385 H394 0.931 . S
C386 C381 1.370 . S
C386 C382 1.395 . S
C386 H395 0.930 . S
C387 Gd323 2.805 1_655 S
C387 O363 1.263 . S
C387 O364 1.252 . S
C387 C381 1.500 . S
H388 C371 0.929 . S
H389 C372 0.930 . S
H390 C373 0.931 . S
H391 C374 0.930 . S
H392 C383 0.929 . S
H393 C384 0.930 . S
H394 C385 0.931 . S
H395 C386 0.930 . S
C396 C398 1.422 . S
C396 C400 1.415 . S
C396 N402 1.369 . S
C397 C398 1.421 . S
C397 C399 1.417 . S
C397 C409 1.422 . S
C398 C396 1.422 . S
C398 C397 1.421 . S
C398 N408 1.359 . S
C399 C397 1.417 . S
C399 C401 1.329 . S
C399 H418 0.930 . S
C400 C396 1.415 . S
C400 C401 1.437 . S
C400 C404 1.413 . S
C401 C399 1.329 . S
C401 C400 1.437 . S
C401 H423 0.929 . S
N402 C396 1.369 . S
N402 C403 1.338 . S
N402 Gd407 2.622 . S
C403 N402 1.338 . S
C403 C405 1.378 . S
C403 H415 0.929 . S
C404 C400 1.413 . S
C404 C405 1.348 . S
C404 H420 0.931 . S
C405 C403 1.378 . S
C405 C404 1.348 . S
C405 H421 0.930 . S
Gd406 N426 2.622 . S
Gd406 N433 2.570 . S
Gd406 O440 2.353 . S
Gd406 O441 2.468 . S
Gd406 O442 2.427 . S
Gd406 O444 2.388 . S
Gd406 O445 2.386 . S
Gd406 O449 2.307 . S
Gd406 C459 2.805 . S
Gd407 N402 2.622 . S
Gd407 N408 2.570 . S
Gd407 O439 2.386 . S
Gd407 O443 2.307 . S
Gd407 O446 2.353 . S
Gd407 O447 2.468 . S
Gd407 O448 2.427 . S
Gd407 O450 2.388 . S
Gd407 C471 2.805 . S
N408 C398 1.359 . S
N408 Gd407 2.570 . S
N408 C410 1.343 . S
C409 C397 1.422 . S
C409 C411 1.321 . S
C409 H417 0.931 . S
C410 N408 1.343 . S
C410 C411 1.390 . S
C410 H412 0.931 . S
C411 C409 1.321 . S
C411 C410 1.390 . S
C411 H413 0.930 . S
H412 C410 0.931 . S
H413 C411 0.930 . S
H414 C437 0.931 . S
H415 C403 0.929 . S
H416 C438 0.930 . S
H417 C409 0.931 . S
H418 C399 0.930 . S
H419 C428 0.929 . S
H420 C404 0.931 . S
H421 C405 0.930 . S
H422 C460 0.930 . S
H423 C401 0.929 . S
H424 C429 0.931 . S
H425 C430 0.930 . S
N426 Gd406 2.622 . S
N426 C427 1.369 . S
N426 C428 1.338 . S
C427 N426 1.369 . S
C427 C431 1.415 . S
C427 C434 1.422 . S
C428 H419 0.929 . S
C428 N426 1.338 . S
C428 C430 1.378 . S
C429 H424 0.931 . S
C429 C430 1.348 . S
C429 C431 1.413 . S
C430 H425 0.930 . S
C430 C428 1.378 . S
C430 C429 1.348 . S
C431 C427 1.415 . S
C431 C429 1.413 . S
C431 C461 1.437 . S
H432 C461 0.929 . S
N433 Gd406 2.570 . S
N433 C434 1.359 . S
N433 C437 1.343 . S
C434 C427 1.422 . S
C434 N433 1.359 . S
C434 C436 1.421 . S
C435 C436 1.422 . S
C435 C438 1.321 . S
C435 H462 0.931 . S
C436 C434 1.421 . S
C436 C435 1.422 . S
C436 C460 1.417 . S
C437 H414 0.931 . S
C437 N433 1.343 . S
C437 C438 1.390 . S
C438 H416 0.930 . S
C438 C435 1.321 . S
C438 C437 1.390 . S
O439 Gd407 2.386 . S
O439 C451 1.265 . S
O440 Gd406 2.353 . S
O440 C451 1.242 . S
O441 Gd406 2.468 . S
O441 C459 1.263 . S
O442 Gd406 2.427 . S
O442 C459 1.252 . S
O443 Gd407 2.307 . S
O443 C452 1.261 . S
O444 Gd406 2.388 . S
O444 C452 1.252 . S
O445 Gd406 2.386 . S
O445 C463 1.265 . S
O446 Gd407 2.353 . S
O446 C463 1.242 . S
O447 Gd407 2.468 . S
O447 C471 1.263 . S
O448 Gd407 2.427 . S
O448 C471 1.252 . S
O449 Gd406 2.307 . S
O449 C464 1.261 . S
O450 Gd407 2.388 . S
O450 C464 1.252 . S
C451 O439 1.265 . S
C451 O440 1.242 . S
C452 O443 1.261 . S
C452 O444 1.252 . S
C453 C456 1.394 . S
C453 C458 1.370 . S
C453 C459 1.500 . S
C454 C457 1.383 . S
C454 C458 1.395 . S
C455 C456 1.396 . S
C455 C457 1.365 . S
C455 H472 0.929 . S
C456 C453 1.394 . S
C456 C455 1.396 . S
C456 H473 0.930 . S
C457 C454 1.383 . S
C457 C455 1.365 . S
C457 H474 0.931 . S
C458 C453 1.370 . S
C458 C454 1.395 . S
C458 H475 0.930 . S
C459 Gd406 2.805 . S
C459 O441 1.263 . S
C459 O442 1.252 . S
C459 C453 1.500 . S
C460 H422 0.930 . S
C460 C436 1.417 . S
C460 C461 1.329 . S
C461 C431 1.437 . S
C461 H432 0.929 . S
C461 C460 1.329 . S
H462 C435 0.931 . S
C463 O445 1.265 . S
C463 O446 1.242 . S
C464 O449 1.261 . S
C464 O450 1.252 . S
C465 C468 1.394 . S
C465 C470 1.370 . S
C465 C471 1.500 . S
C466 C469 1.383 . S
C466 C470 1.395 . S
C467 C468 1.396 . S
C467 C469 1.365 . S
C467 H476 0.929 . S
C468 C465 1.394 . S
C468 C467 1.396 . S
C468 H477 0.930 . S
C469 C466 1.383 . S
C469 C467 1.365 . S
C469 H478 0.931 . S
C470 C465 1.370 . S
C470 C466 1.395 . S
C470 H479 0.930 . S
C471 Gd407 2.805 . S
C471 O447 1.263 . S
C471 O448 1.252 . S
C471 C465 1.500 . S
H472 C455 0.929 . S
H473 C456 0.930 . S
H474 C457 0.931 . S
H475 C458 0.930 . S
H476 C467 0.929 . S
H477 C468 0.930 . S
H478 C469 0.931 . S
H479 C470 0.930 . S
C480 C482 1.422 . S
C480 C484 1.415 . S
C480 N486 1.369 . S
C481 C482 1.421 . S
C481 C483 1.417 . S
C481 C493 1.422 . S
C482 C480 1.422 . S
C482 C481 1.421 . S
C482 N492 1.359 . S
C483 C481 1.417 . S
C483 C485 1.329 . S
C483 H502 0.930 . S
C484 C480 1.415 . S
C484 C485 1.437 . S
C484 C488 1.413 . S
C485 C483 1.329 . S
C485 C484 1.437 . S
C485 H507 0.929 . S
N486 C480 1.369 . S
N486 C487 1.338 . S
N486 Gd491 2.622 . S
C487 N486 1.338 . S
C487 C489 1.378 . S
C487 H499 0.929 . S
C488 C484 1.413 . S
C488 C489 1.348 . S
C488 H504 0.931 . S
C489 C487 1.378 . S
C489 C488 1.348 . S
C489 H505 0.930 . S
Gd490 N510 2.622 1_545 S
Gd490 N517 2.570 1_545 S
Gd490 O524 2.353 . S
Gd490 O525 2.468 . S
Gd490 O526 2.427 . S
Gd490 O528 2.388 . S
Gd490 O529 2.386 1_545 S
Gd490 O533 2.307 . S
Gd490 C543 2.805 . S
Gd491 N486 2.622 . S
Gd491 N492 2.570 . S
Gd491 O523 2.386 . S
Gd491 O527 2.307 . S
Gd491 O530 2.353 1_545 S
Gd491 O531 2.468 . S
Gd491 O532 2.427 . S
Gd491 O534 2.388 . S
Gd491 C555 2.805 . S
N492 C482 1.359 . S
N492 Gd491 2.570 . S
N492 C494 1.343 . S
C493 C481 1.422 . S
C493 C495 1.321 . S
C493 H501 0.931 . S
C494 N492 1.343 . S
C494 C495 1.390 . S
C494 H496 0.931 . S
C495 C493 1.321 . S
C495 C494 1.390 . S
C495 H497 0.930 . S
H496 C494 0.931 . S
H497 C495 0.930 . S
H498 C521 0.931 . S
H499 C487 0.929 . S
H500 C522 0.930 . S
H501 C493 0.931 . S
H502 C483 0.930 . S
H503 C512 0.929 1_545 S
H504 C488 0.931 . S
H505 C489 0.930 . S
H506 C544 0.930 . S
H507 C485 0.929 . S
H508 C513 0.931 . S
H509 C514 0.930 . S
N510 Gd490 2.622 1_565 S
N510 C511 1.369 . S
N510 C512 1.338 . S
C511 N510 1.369 . S
C511 C515 1.415 . S
C511 C518 1.422 . S
C512 H503 0.929 1_565 S
C512 N510 1.338 . S
C512 C514 1.378 . S
C513 H508 0.931 . S
C513 C514 1.348 . S
C513 C515 1.413 . S
C514 H509 0.930 . S
C514 C512 1.378 . S
C514 C513 1.348 . S
C515 C511 1.415 . S
C515 C513 1.413 . S
C515 C545 1.437 . S
H516 C545 0.929 . S
N517 Gd490 2.570 1_565 S
N517 C518 1.359 . S
N517 C521 1.343 . S
C518 C511 1.422 . S
C518 N517 1.359 . S
C518 C520 1.421 . S
C519 C520 1.422 . S
C519 C522 1.321 . S
C519 H546 0.931 . S
C520 C518 1.421 . S
C520 C519 1.422 . S
C520 C544 1.417 . S
C521 H498 0.931 . S
C521 N517 1.343 . S
C521 C522 1.390 . S
C522 H500 0.930 . S
C522 C519 1.321 . S
C522 C521 1.390 . S
O523 Gd491 2.386 . S
O523 C535 1.265 . S
O524 Gd490 2.353 . S
O524 C535 1.242 . S
O525 Gd490 2.468 . S
O525 C543 1.263 . S
O526 Gd490 2.427 . S
O526 C543 1.252 . S
O527 Gd491 2.307 . S
O527 C536 1.261 . S
O528 Gd490 2.388 . S
O528 C536 1.252 . S
O529 Gd490 2.386 1_565 S
O529 C547 1.265 . S
O530 Gd491 2.353 1_565 S
O530 C547 1.242 . S
O531 Gd491 2.468 . S
O531 C555 1.263 . S
O532 Gd491 2.427 . S
O532 C555 1.252 . S
O533 Gd490 2.307 . S
O533 C548 1.261 . S
O534 Gd491 2.388 . S
O534 C548 1.252 . S
C535 O523 1.265 . S
C535 O524 1.242 . S
C536 O527 1.261 . S
C536 O528 1.252 . S
C537 C540 1.394 . S
C537 C542 1.370 . S
C537 C543 1.500 . S
C538 C541 1.383 . S
C538 C542 1.395 . S
C539 C540 1.396 . S
C539 C541 1.365 . S
C539 H556 0.929 . S
C540 C537 1.394 . S
C540 C539 1.396 . S
C540 H557 0.930 . S
C541 C538 1.383 . S
C541 C539 1.365 . S
C541 H558 0.931 . S
C542 C537 1.370 . S
C542 C538 1.395 . S
C542 H559 0.930 . S
C543 Gd490 2.805 . S
C543 O525 1.263 . S
C543 O526 1.252 . S
C543 C537 1.500 . S
C544 H506 0.930 . S
C544 C520 1.417 . S
C544 C545 1.329 . S
C545 C515 1.437 . S
C545 H516 0.929 . S
C545 C544 1.329 . S
H546 C519 0.931 . S
C547 O529 1.265 . S
C547 O530 1.242 . S
C548 O533 1.261 . S
C548 O534 1.252 . S
C549 C552 1.394 . S
C549 C554 1.370 . S
C549 C555 1.500 1_565 S
C550 C553 1.383 . S
C550 C554 1.395 . S
C551 C552 1.396 . S
C551 C553 1.365 . S
C551 H560 0.929 . S
C552 C549 1.394 . S
C552 C551 1.396 . S
C552 H561 0.930 . S
C553 C550 1.383 . S
C553 C551 1.365 . S
C553 H562 0.931 . S
C554 C549 1.370 . S
C554 C550 1.395 . S
C554 H563 0.930 . S
C555 Gd491 2.805 . S
C555 O531 1.263 . S
C555 O532 1.252 . S
C555 C549 1.500 1_545 S
H556 C539 0.929 . S
H557 C540 0.930 . S
H558 C541 0.931 . S
H559 C542 0.930 . S
H560 C551 0.929 . S
H561 C552 0.930 . S
H562 C553 0.931 . S
H563 C554 0.930 . S
C564 C566 1.422 . S
C564 C568 1.415 . S
C564 N570 1.369 . S
C565 C566 1.421 . S
C565 C567 1.417 . S
C565 C577 1.422 . S
C566 C564 1.422 . S
C566 C565 1.421 . S
C566 N576 1.359 . S
C567 C565 1.417 . S
C567 C569 1.329 . S
C567 H586 0.930 . S
C568 C564 1.415 . S
C568 C569 1.437 . S
C568 C572 1.413 . S
C569 C567 1.329 . S
C569 C568 1.437 . S
C569 H591 0.929 . S
N570 C564 1.369 . S
N570 C571 1.338 . S
N570 Gd575 2.622 . S
C571 N570 1.338 . S
C571 C573 1.378 . S
C571 H583 0.929 . S
C572 C568 1.413 . S
C572 C573 1.348 . S
C572 H588 0.931 . S
C573 C571 1.378 . S
C573 C572 1.348 . S
C573 H589 0.930 . S
Gd574 N594 2.622 . S
Gd574 N601 2.570 . S
Gd574 O608 2.353 . S
Gd574 O609 2.468 . S
Gd574 O610 2.427 . S
Gd574 O612 2.388 . S
Gd574 O613 2.386 . S
Gd574 O617 2.307 . S
Gd574 C627 2.805 . S
Gd575 N570 2.622 . S
Gd575 N576 2.570 . S
Gd575 O607 2.386 . S
Gd575 O611 2.307 . S
Gd575 O614 2.353 . S
Gd575 O615 2.468 . S
Gd575 O616 2.427 . S
Gd575 O618 2.388 . S
Gd575 C639 2.805 . S
N576 C566 1.359 . S
N576 Gd575 2.570 . S
N576 C578 1.343 . S
C577 C565 1.422 . S
C577 C579 1.321 . S
C577 H585 0.931 . S
C578 N576 1.343 . S
C578 C579 1.390 . S
C578 H580 0.931 . S
C579 C577 1.321 . S
C579 C578 1.390 . S
C579 H581 0.930 . S
H580 C578 0.931 . S
H581 C579 0.930 . S
H582 C605 0.931 . S
H583 C571 0.929 . S
H584 C606 0.930 . S
H585 C577 0.931 . S
H586 C567 0.930 . S
H587 C596 0.929 . S
H588 C572 0.931 . S
H589 C573 0.930 . S
H590 C628 0.930 . S
H591 C569 0.929 . S
H592 C597 0.931 . S
H593 C598 0.930 . S
N594 Gd574 2.622 . S
N594 C595 1.369 . S
N594 C596 1.338 . S
C595 N594 1.369 . S
C595 C599 1.415 . S
C595 C602 1.422 . S
C596 H587 0.929 . S
C596 N594 1.338 . S
C596 C598 1.378 . S
C597 H592 0.931 . S
C597 C598 1.348 . S
C597 C599 1.413 . S
C598 H593 0.930 . S
C598 C596 1.378 . S
C598 C597 1.348 . S
C599 C595 1.415 . S
C599 C597 1.413 . S
C599 C629 1.437 . S
H600 C629 0.929 . S
N601 Gd574 2.570 . S
N601 C602 1.359 . S
N601 C605 1.343 . S
C602 C595 1.422 . S
C602 N601 1.359 . S
C602 C604 1.421 . S
C603 C604 1.422 . S
C603 C606 1.321 . S
C603 H630 0.931 . S
C604 C602 1.421 . S
C604 C603 1.422 . S
C604 C628 1.417 . S
C605 H582 0.931 . S
C605 N601 1.343 . S
C605 C606 1.390 . S
C606 H584 0.930 . S
C606 C603 1.321 . S
C606 C605 1.390 . S
O607 Gd575 2.386 . S
O607 C619 1.265 . S
O608 Gd574 2.353 . S
O608 C619 1.242 . S
O609 Gd574 2.468 . S
O609 C627 1.263 . S
O610 Gd574 2.427 . S
O610 C627 1.252 . S
O611 Gd575 2.307 . S
O611 C620 1.261 . S
O612 Gd574 2.388 . S
O612 C620 1.252 . S
O613 Gd574 2.386 . S
O613 C631 1.265 . S
O614 Gd575 2.353 . S
O614 C631 1.242 . S
O615 Gd575 2.468 . S
O615 C639 1.263 . S
O616 Gd575 2.427 . S
O616 C639 1.252 . S
O617 Gd574 2.307 . S
O617 C632 1.261 . S
O618 Gd575 2.388 . S
O618 C632 1.252 . S
C619 O607 1.265 . S
C619 O608 1.242 . S
C620 O611 1.261 . S
C620 O612 1.252 . S
C621 C624 1.394 . S
C621 C626 1.370 . S
C621 C627 1.500 . S
C622 C625 1.383 . S
C622 C626 1.395 . S
C623 C624 1.396 . S
C623 C625 1.365 . S
C623 H640 0.929 . S
C624 C621 1.394 . S
C624 C623 1.396 . S
C624 H641 0.930 . S
C625 C622 1.383 . S
C625 C623 1.365 . S
C625 H642 0.931 . S
C626 C621 1.370 . S
C626 C622 1.395 . S
C626 H643 0.930 . S
C627 Gd574 2.805 . S
C627 O609 1.263 . S
C627 O610 1.252 . S
C627 C621 1.500 . S
C628 H590 0.930 . S
C628 C604 1.417 . S
C628 C629 1.329 . S
C629 C599 1.437 . S
C629 H600 0.929 . S
C629 C628 1.329 . S
H630 C603 0.931 . S
C631 O613 1.265 . S
C631 O614 1.242 . S
C632 O617 1.261 . S
C632 O618 1.252 . S
C633 C636 1.394 . S
C633 C638 1.370 . S
C633 C639 1.500 . S
C634 C637 1.383 . S
C634 C638 1.395 . S
C635 C636 1.396 . S
C635 C637 1.365 . S
C635 H644 0.929 . S
C636 C633 1.394 . S
C636 C635 1.396 . S
C636 H645 0.930 . S
C637 C634 1.383 . S
C637 C635 1.365 . S
C637 H646 0.931 . S
C638 C633 1.370 . S
C638 C634 1.395 . S
C638 H647 0.930 . S
C639 Gd575 2.805 . S
C639 O615 1.263 . S
C639 O616 1.252 . S
C639 C633 1.500 . S
H640 C623 0.929 . S
H641 C624 0.930 . S
H642 C625 0.931 . S
H643 C626 0.930 . S
H644 C635 0.929 . S
H645 C636 0.930 . S
H646 C637 0.931 . S
H647 C638 0.930 . S
C648 C650 1.422 . S
C648 C652 1.415 . S
C648 N654 1.369 . S
C649 C650 1.421 . S
C649 C651 1.417 . S
C649 C661 1.422 . S
C650 C648 1.422 . S
C650 C649 1.421 . S
C650 N660 1.359 . S
C651 C649 1.417 . S
C651 C653 1.329 . S
C651 H670 0.930 . S
C652 C648 1.415 . S
C652 C653 1.437 . S
C652 C656 1.413 1_455 S
C653 C651 1.329 . S
C653 C652 1.437 . S
C653 H675 0.929 . S
N654 C648 1.369 . S
N654 C655 1.338 1_455 S
N654 Gd659 2.622 . S
C655 N654 1.338 1_655 S
C655 C657 1.378 . S
C655 H667 0.929 . S
C656 C652 1.413 1_655 S
C656 C657 1.348 . S
C656 H672 0.931 . S
C657 C655 1.378 . S
C657 C656 1.348 . S
C657 H673 0.930 . S
Gd658 N678 2.622 . S
Gd658 N685 2.570 . S
Gd658 O692 2.353 1_565 S
Gd658 O693 2.468 . S
Gd658 O694 2.427 . S
Gd658 O696 2.388 1_565 S
Gd658 O697 2.386 1_565 S
Gd658 O701 2.307 . S
Gd658 C711 2.805 . S
Gd659 N654 2.622 . S
Gd659 N660 2.570 . S
Gd659 O691 2.386 . S
Gd659 O695 2.307 . S
Gd659 O698 2.353 . S
Gd659 O699 2.468 . S
Gd659 O700 2.427 . S
Gd659 O702 2.388 1_455 S
Gd659 C723 2.805 . S
N660 C650 1.359 . S
N660 Gd659 2.570 . S
N660 C662 1.343 . S
C661 C649 1.422 . S
C661 C663 1.321 . S
C661 H669 0.931 . S
C662 N660 1.343 . S
C662 C663 1.390 . S
C662 H664 0.931 . S
C663 C661 1.321 . S
C663 C662 1.390 . S
C663 H665 0.930 . S
H664 C662 0.931 . S
H665 C663 0.930 . S
H666 C689 0.931 . S
H667 C655 0.929 . S
H668 C690 0.945 . S
H669 C661 0.931 . S
H670 C651 0.930 . S
H671 C680 0.960 . S
H672 C656 0.931 . S
H673 C657 0.930 . S
H674 C712 0.930 . S
H675 C653 0.929 . S
H676 C681 0.931 . S
H677 C682 0.930 . S
N678 Gd658 2.622 . S
N678 C679 1.369 . S
N678 C680 1.338 . S
C679 N678 1.369 . S
C679 C683 1.415 . S
C679 C686 1.422 . S
C680 H671 0.960 . S
C680 N678 1.338 . S
C680 C682 1.378 . S
C681 H676 0.931 . S
C681 C682 1.348 . S
C681 C683 1.413 . S
C682 H677 0.930 . S
C682 C680 1.378 . S
C682 C681 1.348 . S
C683 C679 1.415 . S
C683 C681 1.413 . S
C683 C713 1.437 . S
H684 C713 0.929 . S
N685 Gd658 2.570 . S
N685 C686 1.359 . S
N685 C689 1.343 . S
C686 C679 1.422 . S
C686 N685 1.359 . S
C686 C688 1.421 . S
C687 C688 1.422 . S
C687 C690 1.312 1_455 S
C687 H714 0.931 . S
C688 C686 1.421 . S
C688 C687 1.422 . S
C688 C712 1.417 . S
C689 H666 0.931 . S
C689 N685 1.343 . S
C689 C690 1.385 1_455 S
C690 H668 0.945 . S
C690 C687 1.312 1_655 S
C690 C689 1.385 1_655 S
O691 Gd659 2.386 . S
O691 C703 1.265 . S
O692 Gd658 2.353 1_545 S
O692 C703 1.242 . S
O693 Gd658 2.468 . S
O693 C711 1.263 . S
O694 Gd658 2.427 . S
O694 C711 1.252 . S
O695 Gd659 2.307 . S
O695 C704 1.261 . S
O696 Gd658 2.388 1_545 S
O696 C704 1.252 . S
O697 Gd658 2.386 1_545 S
O697 C715 1.265 . S
O698 Gd659 2.353 . S
O698 C715 1.242 . S
O699 Gd659 2.468 . S
O699 C723 1.263 . S
O700 Gd659 2.427 . S
O700 C723 1.252 . S
O701 Gd658 2.307 . S
O701 C716 1.250 1_465 S
O702 Gd659 2.388 1_655 S
O702 C716 1.255 . S
C703 O691 1.265 . S
C703 O692 1.242 . S
C704 O695 1.261 . S
C704 O696 1.252 . S
C705 C708 1.394 . S
C705 C710 1.370 . S
C705 C711 1.500 . S
C706 C709 1.383 . S
C706 C710 1.395 . S
C707 C708 1.396 . S
C707 C709 1.365 . S
C707 H724 0.929 . S
C708 C705 1.394 . S
C708 C707 1.396 . S
C708 H725 0.930 . S
C709 C706 1.383 . S
C709 C707 1.365 . S
C709 H726 0.931 . S
C710 C705 1.370 . S
C710 C706 1.395 . S
C710 H727 0.930 . S
C711 Gd658 2.805 . S
C711 O693 1.263 . S
C711 O694 1.252 . S
C711 C705 1.500 . S
C712 H674 0.930 . S
C712 C688 1.417 . S
C712 C713 1.329 . S
C713 C683 1.437 . S
C713 H684 0.929 . S
C713 C712 1.329 . S
H714 C687 0.931 . S
C715 O697 1.265 . S
C715 O698 1.242 . S
C716 O701 1.250 1_645 S
C716 O702 1.255 . S
C717 C720 1.394 1_455 S
C717 C722 1.370 . S
C717 C723 1.500 . S
C718 C721 1.383 . S
C718 C722 1.395 . S
C719 C720 1.396 . S
C719 C721 1.365 1_655 S
C719 H728 0.929 . S
C720 C717 1.394 1_655 S
C720 C719 1.396 . S
C720 H729 0.930 . S
C721 C718 1.383 . S
C721 C719 1.365 1_455 S
C721 H730 0.931 . S
C722 C717 1.370 . S
C722 C718 1.395 . S
C722 H731 0.930 . S
C723 Gd659 2.805 . S
C723 O699 1.263 . S
C723 O700 1.252 . S
C723 C717 1.500 . S
H724 C707 0.929 . S
H725 C708 0.930 . S
H726 C709 0.931 . S
H727 C710 0.930 . S
H728 C719 0.929 . S
H729 C720 0.930 . S
H730 C721 0.931 . S
H731 C722 0.930 . S
C732 C734 1.422 . S
C732 C736 1.415 . S
C732 N738 1.369 . S
C733 C734 1.421 . S
C733 C735 1.417 . S
C733 C745 1.422 . S
C734 C732 1.422 . S
C734 C733 1.421 . S
C734 N744 1.359 . S
C735 C733 1.417 . S
C735 C737 1.329 . S
C735 H754 0.930 . S
C736 C732 1.415 . S
C736 C737 1.437 . S
C736 C740 1.413 . S
C737 C735 1.329 . S
C737 C736 1.437 . S
C737 H759 0.929 . S
N738 C732 1.369 . S
N738 C739 1.338 . S
N738 Gd743 2.622 . S
C739 N738 1.338 . S
C739 C741 1.378 . S
C739 H751 0.929 . S
C740 C736 1.413 . S
C740 C741 1.348 . S
C740 H756 0.931 . S
C741 C739 1.378 . S
C741 C740 1.348 . S
C741 H757 0.930 . S
Gd742 N762 2.622 . S
Gd742 N769 2.570 . S
Gd742 O776 2.353 . S
Gd742 O777 2.468 . S
Gd742 O778 2.427 . S
Gd742 O780 2.388 . S
Gd742 O781 2.386 . S
Gd742 O785 2.307 . S
Gd742 C795 2.805 . S
Gd743 N738 2.622 . S
Gd743 N744 2.570 . S
Gd743 O775 2.386 . S
Gd743 O779 2.307 . S
Gd743 O782 2.353 . S
Gd743 O783 2.468 . S
Gd743 O784 2.427 . S
Gd743 O786 2.388 . S
Gd743 C807 2.805 . S
N744 C734 1.359 . S
N744 Gd743 2.570 . S
N744 C746 1.343 . S
C745 C733 1.422 . S
C745 C747 1.321 . S
C745 H753 0.931 . S
C746 N744 1.343 . S
C746 C747 1.390 . S
C746 H748 0.931 . S
C747 C745 1.321 . S
C747 C746 1.390 . S
C747 H749 0.930 . S
H748 C746 0.931 . S
H749 C747 0.930 . S
H750 C773 0.931 . S
H751 C739 0.929 . S
H752 C774 0.930 . S
H753 C745 0.931 . S
H754 C735 0.930 . S
H755 C764 0.929 . S
H756 C740 0.931 . S
H757 C741 0.930 . S
H758 C796 0.930 . S
H759 C737 0.929 . S
H760 C765 0.931 . S
H761 C766 0.930 . S
N762 Gd742 2.622 . S
N762 C763 1.369 . S
N762 C764 1.338 . S
C763 N762 1.369 . S
C763 C767 1.415 . S
C763 C770 1.422 . S
C764 H755 0.929 . S
C764 N762 1.338 . S
C764 C766 1.378 . S
C765 H760 0.931 . S
C765 C766 1.348 . S
C765 C767 1.413 . S
C766 H761 0.930 . S
C766 C764 1.378 . S
C766 C765 1.348 . S
C767 C763 1.415 . S
C767 C765 1.413 . S
C767 C797 1.437 . S
H768 C797 0.929 . S
N769 Gd742 2.570 . S
N769 C770 1.359 . S
N769 C773 1.343 . S
C770 C763 1.422 . S
C770 N769 1.359 . S
C770 C772 1.421 . S
C771 C772 1.422 . S
C771 C774 1.321 . S
C771 H798 0.931 . S
C772 C770 1.421 . S
C772 C771 1.422 . S
C772 C796 1.417 . S
C773 H750 0.931 . S
C773 N769 1.343 . S
C773 C774 1.390 . S
C774 H752 0.930 . S
C774 C771 1.321 . S
C774 C773 1.390 . S
O775 Gd743 2.386 . S
O775 C787 1.265 . S
O776 Gd742 2.353 . S
O776 C787 1.242 . S
O777 Gd742 2.468 . S
O777 C795 1.263 . S
O778 Gd742 2.427 . S
O778 C795 1.252 . S
O779 Gd743 2.307 . S
O779 C788 1.261 . S
O780 Gd742 2.388 . S
O780 C788 1.252 . S
O781 Gd742 2.386 . S
O781 C799 1.265 . S
O782 Gd743 2.353 . S
O782 C799 1.242 . S
O783 Gd743 2.468 . S
O783 C807 1.263 . S
O784 Gd743 2.427 . S
O784 C807 1.252 . S
O785 Gd742 2.307 . S
O785 C800 1.261 . S
O786 Gd743 2.388 . S
O786 C800 1.252 . S
C787 O775 1.265 . S
C787 O776 1.242 . S
C788 O779 1.261 . S
C788 O780 1.252 . S
C789 C792 1.394 . S
C789 C794 1.370 . S
C789 C795 1.500 . S
C790 C793 1.383 . S
C790 C794 1.395 . S
C791 C792 1.396 . S
C791 C793 1.365 . S
C791 H808 0.929 . S
C792 C789 1.394 . S
C792 C791 1.396 . S
C792 H809 0.930 . S
C793 C790 1.383 . S
C793 C791 1.365 . S
C793 H810 0.931 . S
C794 C789 1.370 . S
C794 C790 1.395 . S
C794 H811 0.930 . S
C795 Gd742 2.805 . S
C795 O777 1.263 . S
C795 O778 1.252 . S
C795 C789 1.500 . S
C796 H758 0.930 . S
C796 C772 1.417 . S
C796 C797 1.329 . S
C797 C767 1.437 . S
C797 H768 0.929 . S
C797 C796 1.329 . S
H798 C771 0.931 . S
C799 O781 1.265 . S
C799 O782 1.242 . S
C800 O785 1.261 . S
C800 O786 1.252 . S
C801 C804 1.394 . S
C801 C806 1.370 . S
C801 C807 1.500 . S
C802 C805 1.383 . S
C802 C806 1.395 . S
C803 C804 1.396 . S
C803 C805 1.365 . S
C803 H812 0.929 . S
C804 C801 1.394 . S
C804 C803 1.396 . S
C804 H813 0.930 . S
C805 C802 1.383 . S
C805 C803 1.365 . S
C805 H814 0.931 . S
C806 C801 1.370 . S
C806 C802 1.395 . S
C806 H815 0.930 . S
C807 Gd743 2.805 . S
C807 O783 1.263 . S
C807 O784 1.252 . S
C807 C801 1.500 . S
H808 C791 0.929 . S
H809 C792 0.930 . S
H810 C793 0.931 . S
H811 C794 0.930 . S
H812 C803 0.929 . S
H813 C804 0.930 . S
H814 C805 0.931 . S
H815 C806 0.930 . S
C816 C818 1.422 . S
C816 C820 1.415 . S
C816 N822 1.369 . S
C817 C818 1.421 . S
C817 C819 1.417 . S
C817 C829 1.422 . S
C818 C816 1.422 . S
C818 C817 1.421 . S
C818 N828 1.359 . S
C819 C817 1.417 . S
C819 C821 1.329 . S
C819 H838 0.930 . S
C820 C816 1.415 . S
C820 C821 1.437 . S
C820 C824 1.413 1_545 S
C821 C819 1.329 . S
C821 C820 1.437 . S
C821 H843 0.929 . S
N822 C816 1.369 . S
N822 C823 1.338 1_545 S
N822 Gd827 2.622 . S
C823 N822 1.338 1_565 S
C823 C825 1.378 . S
C823 H835 0.929 . S
C824 C820 1.413 1_565 S
C824 C825 1.348 . S
C824 H840 0.931 . S
C825 C823 1.378 . S
C825 C824 1.348 . S
C825 H841 0.930 . S
Gd826 N846 2.622 . S
Gd826 N853 2.570 . S
Gd826 O860 2.353 . S
Gd826 O861 2.468 . S
Gd826 O862 2.427 . S
Gd826 O864 2.388 1_556 S
Gd826 O865 2.386 . S
Gd826 O869 2.307 . S
Gd826 C879 2.805 . S
Gd827 N822 2.622 . S
Gd827 N828 2.570 . S
Gd827 O859 2.386 . S
Gd827 O863 2.307 . S
Gd827 O866 2.353 . S
Gd827 O867 2.468 . S
Gd827 O868 2.427 . S
Gd827 O870 2.388 . S
Gd827 C891 2.805 . S
N828 C818 1.359 . S
N828 Gd827 2.570 . S
N828 C830 1.343 . S
C829 C817 1.422 . S
C829 C831 1.321 . S
C829 H837 0.931 . S
C830 N828 1.343 . S
C830 C831 1.390 . S
C830 H832 0.931 . S
C831 C829 1.321 . S
C831 C830 1.390 . S
C831 H833 0.930 . S
H832 C830 0.931 . S
H833 C831 0.930 . S
H834 C857 0.931 . S
H835 C823 0.929 . S
H836 C858 0.930 1_565 S
H837 C829 0.931 . S
H838 C819 0.930 . S
H839 C848 0.929 . S
H840 C824 0.931 . S
H841 C825 0.930 . S
H842 C880 0.930 . S
H843 C821 0.929 . S
H844 C849 0.931 . S
H845 C850 0.930 . S
N846 Gd826 2.622 . S
N846 C847 1.369 . S
N846 C848 1.338 . S
C847 N846 1.369 . S
C847 C851 1.415 . S
C847 C854 1.422 . S
C848 H839 0.929 . S
C848 N846 1.338 . S
C848 C850 1.378 . S
C849 H844 0.931 . S
C849 C850 1.348 . S
C849 C851 1.413 . S
C850 H845 0.930 . S
C850 C848 1.378 . S
C850 C849 1.348 . S
C851 C847 1.415 . S
C851 C849 1.413 . S
C851 C881 1.437 . S
H852 C881 0.929 . S
N853 Gd826 2.570 . S
N853 C854 1.359 . S
N853 C857 1.343 . S
C854 C847 1.422 . S
C854 N853 1.359 . S
C854 C856 1.421 . S
C855 C856 1.422 . S
C855 C858 1.321 . S
C855 H882 0.931 . S
C856 C854 1.421 . S
C856 C855 1.422 . S
C856 C880 1.417 . S
C857 H834 0.931 . S
C857 N853 1.343 . S
C857 C858 1.390 . S
C858 H836 0.930 1_545 S
C858 C855 1.321 . S
C858 C857 1.390 . S
O859 Gd827 2.386 . S
O859 C871 1.265 . S
O860 Gd826 2.353 . S
O860 C871 1.241 1_556 S
O861 Gd826 2.468 . S
O861 C879 1.263 . S
O862 Gd826 2.427 . S
O862 C879 1.252 . S
O863 Gd827 2.307 . S
O863 C872 1.261 . S
O864 Gd826 2.388 1_554 S
O864 C872 1.252 . S
O865 Gd826 2.386 . S
O865 C883 1.265 1_556 S
O866 Gd827 2.353 . S
O866 C883 1.242 . S
O867 Gd827 2.468 . S
O867 C891 1.263 . S
O868 Gd827 2.427 . S
O868 C891 1.252 . S
O869 Gd826 2.307 . S
O869 C884 1.261 . S
O870 Gd827 2.388 . S
O870 C884 1.252 1_554 S
C871 O859 1.265 . S
C871 O860 1.241 1_554 S
C872 O863 1.261 . S
C872 O864 1.252 . S
C873 C876 1.394 . S
C873 C878 1.370 . S
C873 C879 1.500 . S
C874 C877 1.383 . S
C874 C878 1.395 . S
C875 C876 1.396 . S
C875 C877 1.365 . S
C875 H892 0.929 . S
C876 C873 1.394 . S
C876 C875 1.396 . S
C876 H893 0.930 . S
C877 C874 1.383 . S
C877 C875 1.365 . S
C877 H894 0.931 . S
C878 C873 1.370 . S
C878 C874 1.395 . S
C878 H895 0.930 . S
C879 Gd826 2.805 . S
C879 O861 1.263 . S
C879 O862 1.252 . S
C879 C873 1.500 . S
C880 H842 0.930 . S
C880 C856 1.417 . S
C880 C881 1.329 . S
C881 C851 1.437 . S
C881 H852 0.929 . S
C881 C880 1.329 . S
H882 C855 0.931 . S
C883 O865 1.265 1_554 S
C883 O866 1.242 . S
C884 O869 1.261 . S
C884 O870 1.252 1_556 S
C885 C888 1.394 1_545 S
C885 C890 1.370 . S
C885 C891 1.500 . S
C886 C889 1.321 1_545 S
C886 C890 1.395 . S
C887 C888 1.396 . S
C887 C889 1.412 . S
C887 H896 0.929 . S
C888 C885 1.394 1_565 S
C888 C887 1.396 . S
C888 H897 0.930 . S
C889 C886 1.321 1_565 S
C889 C887 1.412 . S
C889 H898 0.950 . S
C890 C885 1.370 . S
C890 C886 1.395 . S
C890 H899 0.930 . S
C891 Gd827 2.805 . S
C891 O867 1.263 . S
C891 O868 1.252 . S
C891 C885 1.500 . S
H892 C875 0.929 . S
H893 C876 0.930 . S
H894 C877 0.931 . S
H895 C878 0.930 . S
H896 C887 0.929 . S
H897 C888 0.930 . S
H898 C889 0.950 . S
H899 C890 0.930 . S
C900 C902 1.422 . S
C900 C904 1.415 . S
C900 N906 1.369 . S
C901 C902 1.421 . S
C901 C903 1.417 . S
C901 C913 1.422 . S
C902 C900 1.422 . S
C902 C901 1.421 . S
C902 N912 1.359 . S
C903 C901 1.417 . S
C903 C905 1.329 . S
C903 H922 0.930 . S
C904 C900 1.415 . S
C904 C905 1.437 . S
C904 C908 1.413 . S
C905 C903 1.329 . S
C905 C904 1.437 . S
C905 H927 0.929 . S
N906 C900 1.369 . S
N906 C907 1.338 . S
N906 Gd911 2.622 . S
C907 N906 1.338 . S
C907 C909 1.378 . S
C907 H919 0.929 . S
C908 C904 1.413 . S
C908 C909 1.348 . S
C908 H924 0.931 . S
C909 C907 1.378 . S
C909 C908 1.348 . S
C909 H925 0.930 . S
Gd910 N930 2.622 . S
Gd910 N937 2.570 . S
Gd910 O944 2.353 . S
Gd910 O945 2.468 . S
Gd910 O946 2.427 . S
Gd910 O948 2.388 . S
Gd910 O949 2.386 . S
Gd910 O953 2.307 . S
Gd910 C963 2.805 . S
Gd911 N906 2.622 . S
Gd911 N912 2.570 . S
Gd911 O943 2.386 . S
Gd911 O947 2.307 . S
Gd911 O950 2.353 . S
Gd911 O951 2.468 . S
Gd911 O952 2.427 . S
Gd911 O954 2.388 . S
Gd911 C975 2.805 . S
N912 C902 1.359 . S
N912 Gd911 2.570 . S
N912 C914 1.343 . S
C913 C901 1.422 . S
C913 C915 1.321 . S
C913 H921 0.931 . S
C914 N912 1.343 . S
C914 C915 1.390 . S
C914 H916 0.931 . S
C915 C913 1.321 . S
C915 C914 1.390 . S
C915 H917 0.930 . S
H916 C914 0.931 . S
H917 C915 0.930 . S
H918 C941 0.931 . S
H919 C907 0.929 . S
H920 C942 0.930 . S
H921 C913 0.931 . S
H922 C903 0.930 . S
H923 C932 0.929 . S
H924 C908 0.931 . S
H925 C909 0.930 . S
H926 C964 0.930 . S
H927 C905 0.929 . S
H928 C933 0.931 . S
H929 C934 0.930 . S
N930 Gd910 2.622 . S
N930 C931 1.369 . S
N930 C932 1.338 . S
C931 N930 1.369 . S
C931 C935 1.415 . S
C931 C938 1.422 . S
C932 H923 0.929 . S
C932 N930 1.338 . S
C932 C934 1.378 . S
C933 H928 0.931 . S
C933 C934 1.348 . S
C933 C935 1.413 . S
C934 H929 0.930 . S
C934 C932 1.378 . S
C934 C933 1.348 . S
C935 C931 1.415 . S
C935 C933 1.413 . S
C935 C965 1.437 . S
H936 C965 0.929 . S
N937 Gd910 2.570 . S
N937 C938 1.359 . S
N937 C941 1.343 . S
C938 C931 1.422 . S
C938 N937 1.359 . S
C938 C940 1.421 . S
C939 C940 1.422 . S
C939 C942 1.321 . S
C939 H966 0.931 . S
C940 C938 1.421 . S
C940 C939 1.422 . S
C940 C964 1.417 . S
C941 H918 0.931 . S
C941 N937 1.343 . S
C941 C942 1.390 . S
C942 H920 0.930 . S
C942 C939 1.321 . S
C942 C941 1.390 . S
O943 Gd911 2.386 . S
O943 C955 1.265 . S
O944 Gd910 2.353 . S
O944 C955 1.242 . S
O945 Gd910 2.468 . S
O945 C963 1.263 . S
O946 Gd910 2.427 . S
O946 C963 1.252 . S
O947 Gd911 2.307 . S
O947 C956 1.261 . S
O948 Gd910 2.388 . S
O948 C956 1.252 . S
O949 Gd910 2.386 . S
O949 C967 1.265 . S
O950 Gd911 2.353 . S
O950 C967 1.242 . S
O951 Gd911 2.468 . S
O951 C975 1.263 . S
O952 Gd911 2.427 . S
O952 C975 1.252 . S
O953 Gd910 2.307 . S
O953 C968 1.261 . S
O954 Gd911 2.388 . S
O954 C968 1.252 . S
C955 O943 1.265 . S
C955 O944 1.242 . S
C956 O947 1.261 . S
C956 O948 1.252 . S
C957 C960 1.394 . S
C957 C962 1.370 . S
C957 C963 1.500 . S
C958 C961 1.383 . S
C958 C962 1.395 . S
C959 C960 1.396 . S
C959 C961 1.365 . S
C959 H976 0.929 . S
C960 C957 1.394 . S
C960 C959 1.396 . S
C960 H977 0.930 . S
C961 C958 1.383 . S
C961 C959 1.365 . S
C961 H978 0.931 . S
C962 C957 1.370 . S
C962 C958 1.395 . S
C962 H979 0.930 . S
C963 Gd910 2.805 . S
C963 O945 1.263 . S
C963 O946 1.252 . S
C963 C957 1.500 . S
C964 H926 0.930 . S
C964 C940 1.417 . S
C964 C965 1.329 . S
C965 C935 1.437 . S
C965 H936 0.929 . S
C965 C964 1.329 . S
H966 C939 0.931 . S
C967 O949 1.265 . S
C967 O950 1.242 . S
C968 O953 1.261 . S
C968 O954 1.252 . S
C969 C972 1.394 . S
C969 C974 1.370 . S
C969 C975 1.500 . S
C970 C973 1.383 . S
C970 C974 1.395 . S
C971 C972 1.396 . S
C971 C973 1.365 . S
C971 H980 0.929 . S
C972 C969 1.394 . S
C972 C971 1.396 . S
C972 H981 0.930 . S
C973 C970 1.383 . S
C973 C971 1.365 . S
C973 H982 0.931 . S
C974 C969 1.370 . S
C974 C970 1.395 . S
C974 H983 0.930 . S
C975 Gd911 2.805 . S
C975 O951 1.263 . S
C975 O952 1.252 . S
C975 C969 1.500 . S
H976 C959 0.929 . S
H977 C960 0.930 . S
H978 C961 0.931 . S
H979 C962 0.930 . S
H980 C971 0.929 . S
H981 C972 0.930 . S
H982 C973 0.931 . S
H983 C974 0.930 . S
C984 C986 1.422 . S
C984 C988 1.415 . S
C984 N990 1.369 . S
C985 C986 1.421 . S
C985 C987 1.417 . S
C985 C997 1.422 . S
C986 C984 1.422 . S
C986 C985 1.421 . S
C986 N996 1.359 . S
C987 C985 1.417 . S
C987 C989 1.329 . S
C987 H1006 0.930 . S
C988 C984 1.415 . S
C988 C989 1.437 . S
C988 C992 1.413 . S
C989 C987 1.329 . S
C989 C988 1.437 . S
C989 H1011 0.929 . S
N990 C984 1.369 . S
N990 C991 1.338 . S
N990 Gd995 2.622 . S
C991 N990 1.338 . S
C991 C993 1.378 . S
C991 H1003 0.929 . S
C992 C988 1.413 . S
C992 C993 1.348 . S
C992 H1008 0.931 . S
C993 C991 1.378 . S
C993 C992 1.348 . S
C993 H1009 0.930 . S
Gd994 N1014 2.622 1_554 S
Gd994 N1021 2.570 1_554 S
Gd994 O1028 2.353 . S
Gd994 O1029 2.468 . S
Gd994 O1030 2.427 . S
Gd994 O1032 2.388 . S
Gd994 O1033 2.386 1_554 S
Gd994 O1037 2.307 . S
Gd994 C1047 2.805 . S
Gd995 N990 2.622 . S
Gd995 N996 2.570 . S
Gd995 O1027 2.386 . S
Gd995 O1031 2.307 . S
Gd995 O1034 2.353 1_554 S
Gd995 O1035 2.468 . S
Gd995 O1036 2.427 . S
Gd995 O1038 2.388 . S
Gd995 C1059 2.805 1_554 S
N996 C986 1.359 . S
N996 Gd995 2.570 . S
N996 C998 1.343 . S
C997 C985 1.422 . S
C997 C999 1.321 . S
C997 H1005 0.931 . S
C998 N996 1.343 . S
C998 C999 1.390 . S
C998 H1000 0.931 . S
C999 C997 1.321 . S
C999 C998 1.390 . S
C999 H1001 0.930 . S
H1000 C998 0.931 . S
H1001 C999 0.930 . S
H1002 C1025 0.931 . S
H1003 C991 0.929 . S
H1004 C1026 0.930 . S
H1005 C997 0.931 . S
H1006 C987 0.930 . S
H1007 C1016 0.929 . S
H1008 C992 0.931 . S
H1009 C993 0.930 . S
H1010 C1048 0.930 . S
H1011 C989 0.929 . S
H1012 C1017 0.931 . S
H1013 C1018 0.930 . S
N1014 Gd994 2.622 1_556 S
N1014 C1015 1.369 . S
N1014 C1016 1.338 . S
C1015 N1014 1.369 . S
C1015 C1019 1.415 . S
C1015 C1022 1.422 . S
C1016 H1007 0.929 . S
C1016 N1014 1.338 . S
C1016 C1018 1.378 . S
C1017 H1012 0.931 . S
C1017 C1018 1.348 . S
C1017 C1019 1.413 . S
C1018 H1013 0.930 . S
C1018 C1016 1.378 . S
C1018 C1017 1.348 . S
C1019 C1015 1.415 . S
C1019 C1017 1.413 . S
C1019 C1049 1.437 . S
H1020 C1049 0.929 . S
N1021 Gd994 2.570 1_556 S
N1021 C1022 1.359 . S
N1021 C1025 1.343 . S
C1022 C1015 1.422 . S
C1022 N1021 1.359 . S
C1022 C1024 1.421 . S
C1023 C1024 1.422 . S
C1023 C1026 1.321 . S
C1023 H1050 0.931 . S
C1024 C1022 1.421 . S
C1024 C1023 1.422 . S
C1024 C1048 1.417 . S
C1025 H1002 0.931 . S
C1025 N1021 1.343 . S
C1025 C1026 1.390 . S
C1026 H1004 0.930 . S
C1026 C1023 1.321 . S
C1026 C1025 1.390 . S
O1027 Gd995 2.386 . S
O1027 C1039 1.265 . S
O1028 Gd994 2.353 . S
O1028 C1039 1.242 . S
O1029 Gd994 2.468 . S
O1029 C1047 1.263 . S
O1030 Gd994 2.427 . S
O1030 C1047 1.252 . S
O1031 Gd995 2.307 . S
O1031 C1040 1.261 . S
O1032 Gd994 2.388 . S
O1032 C1040 1.252 . S
O1033 Gd994 2.386 1_556 S
O1033 C1051 1.265 . S
O1034 Gd995 2.353 1_556 S
O1034 C1051 1.242 . S
O1035 Gd995 2.468 . S
O1035 C1059 1.263 1_554 S
O1036 Gd995 2.427 . S
O1036 C1059 1.252 1_554 S
O1037 Gd994 2.307 . S
O1037 C1052 1.261 . S
O1038 Gd995 2.388 . S
O1038 C1052 1.252 . S
C1039 O1027 1.265 . S
C1039 O1028 1.242 . S
C1040 O1031 1.261 . S
C1040 O1032 1.252 . S
C1041 C1044 1.394 . S
C1041 C1046 1.370 . S
C1041 C1047 1.500 . S
C1042 C1045 1.383 . S
C1042 C1046 1.395 . S
C1043 C1044 1.396 . S
C1043 C1045 1.365 . S
C1043 H1060 0.929 . S
C1044 C1041 1.394 . S
C1044 C1043 1.396 . S
C1044 H1061 0.930 . S
C1045 C1042 1.383 . S
C1045 C1043 1.365 . S
C1045 H1062 0.931 . S
C1046 C1041 1.370 . S
C1046 C1042 1.395 . S
C1046 H1063 0.930 . S
C1047 Gd994 2.805 . S
C1047 O1029 1.263 . S
C1047 O1030 1.252 . S
C1047 C1041 1.500 . S
C1048 H1010 0.930 . S
C1048 C1024 1.417 . S
C1048 C1049 1.329 . S
C1049 C1019 1.437 . S
C1049 H1020 0.929 . S
C1049 C1048 1.329 . S
H1050 C1023 0.931 . S
C1051 O1033 1.265 . S
C1051 O1034 1.242 . S
C1052 O1037 1.261 . S
C1052 O1038 1.252 . S
C1053 C1056 1.394 . S
C1053 C1058 1.370 . S
C1053 C1059 1.500 . S
C1054 C1057 1.383 . S
C1054 C1058 1.395 . S
C1055 C1056 1.396 . S
C1055 C1057 1.365 . S
C1055 H1064 0.929 . S
C1056 C1053 1.394 . S
C1056 C1055 1.396 . S
C1056 H1065 0.930 . S
C1057 C1054 1.383 . S
C1057 C1055 1.365 . S
C1057 H1066 0.931 . S
C1058 C1053 1.370 . S
C1058 C1054 1.395 . S
C1058 H1067 0.930 . S
C1059 Gd995 2.805 1_556 S
C1059 O1035 1.263 1_556 S
C1059 O1036 1.252 1_556 S
C1059 C1053 1.500 . S
H1060 C1043 0.929 . S
H1061 C1044 0.930 . S
H1062 C1045 0.931 . S
H1063 C1046 0.930 . S
H1064 C1055 0.929 . S
H1065 C1056 0.930 . S
H1066 C1057 0.931 . S
H1067 C1058 0.930 . S
C1068 C1070 1.422 . S
C1068 C1072 1.415 . S
C1068 N1074 1.369 . S
C1069 C1070 1.421 . S
C1069 C1071 1.417 . S
C1069 C1081 1.422 . S
C1070 C1068 1.422 . S
C1070 C1069 1.421 . S
C1070 N1080 1.359 . S
C1071 C1069 1.417 . S
C1071 C1073 1.329 . S
C1071 H1090 0.930 . S
C1072 C1068 1.415 . S
C1072 C1073 1.437 . S
C1072 C1076 1.413 . S
C1073 C1071 1.329 . S
C1073 C1072 1.437 . S
C1073 H1095 0.929 . S
N1074 C1068 1.369 . S
N1074 C1075 1.338 . S
N1074 Gd1079 2.622 . S
C1075 N1074 1.338 . S
C1075 C1077 1.378 . S
C1075 H1087 0.929 . S
C1076 C1072 1.413 . S
C1076 C1077 1.348 . S
C1076 H1092 0.931 . S
C1077 C1075 1.378 . S
C1077 C1076 1.348 . S
C1077 H1093 0.930 . S
Gd1078 N1098 2.622 . S
Gd1078 N1105 2.570 . S
Gd1078 O1112 2.353 . S
Gd1078 O1113 2.468 . S
Gd1078 O1114 2.427 . S
Gd1078 O1116 2.388 . S
Gd1078 O1117 2.386 . S
Gd1078 O1121 2.307 . S
Gd1078 C1131 2.805 . S
Gd1079 N1074 2.622 . S
Gd1079 N1080 2.570 . S
Gd1079 O1111 2.386 . S
Gd1079 O1115 2.307 . S
Gd1079 O1118 2.353 . S
Gd1079 O1119 2.468 . S
Gd1079 O1120 2.427 . S
Gd1079 O1122 2.388 . S
Gd1079 C1143 2.805 . S
N1080 C1070 1.359 . S
N1080 Gd1079 2.570 . S
N1080 C1082 1.343 . S
C1081 C1069 1.422 . S
C1081 C1083 1.321 . S
C1081 H1089 0.931 . S
C1082 N1080 1.343 . S
C1082 C1083 1.390 . S
C1082 H1084 0.931 . S
C1083 C1081 1.321 . S
C1083 C1082 1.390 . S
C1083 H1085 0.930 . S
H1084 C1082 0.931 . S
H1085 C1083 0.930 . S
H1086 C1109 0.931 . S
H1087 C1075 0.929 . S
H1088 C1110 0.930 . S
H1089 C1081 0.931 . S
H1090 C1071 0.930 . S
H1091 C1100 0.929 . S
H1092 C1076 0.931 . S
H1093 C1077 0.930 . S
H1094 C1132 0.930 . S
H1095 C1073 0.929 . S
H1096 C1101 0.931 . S
H1097 C1102 0.930 . S
N1098 Gd1078 2.622 . S
N1098 C1099 1.369 . S
N1098 C1100 1.338 . S
C1099 N1098 1.369 . S
C1099 C1103 1.415 . S
C1099 C1106 1.422 . S
C1100 H1091 0.929 . S
C1100 N1098 1.338 . S
C1100 C1102 1.378 . S
C1101 H1096 0.931 . S
C1101 C1102 1.348 . S
C1101 C1103 1.413 . S
C1102 H1097 0.930 . S
C1102 C1100 1.378 . S
C1102 C1101 1.348 . S
C1103 C1099 1.415 . S
C1103 C1101 1.413 . S
C1103 C1133 1.437 . S
H1104 C1133 0.929 . S
N1105 Gd1078 2.570 . S
N1105 C1106 1.359 . S
N1105 C1109 1.343 . S
C1106 C1099 1.422 . S
C1106 N1105 1.359 . S
C1106 C1108 1.421 . S
C1107 C1108 1.422 . S
C1107 C1110 1.321 . S
C1107 H1134 0.931 . S
C1108 C1106 1.421 . S
C1108 C1107 1.422 . S
C1108 C1132 1.417 . S
C1109 H1086 0.931 . S
C1109 N1105 1.343 . S
C1109 C1110 1.390 . S
C1110 H1088 0.930 . S
C1110 C1107 1.321 . S
C1110 C1109 1.390 . S
O1111 Gd1079 2.386 . S
O1111 C1123 1.265 . S
O1112 Gd1078 2.353 . S
O1112 C1123 1.242 . S
O1113 Gd1078 2.468 . S
O1113 C1131 1.263 . S
O1114 Gd1078 2.427 . S
O1114 C1131 1.252 . S
O1115 Gd1079 2.307 . S
O1115 C1124 1.261 . S
O1116 Gd1078 2.388 . S
O1116 C1124 1.252 . S
O1117 Gd1078 2.386 . S
O1117 C1135 1.265 . S
O1118 Gd1079 2.353 . S
O1118 C1135 1.242 . S
O1119 Gd1079 2.468 . S
O1119 C1143 1.263 . S
O1120 Gd1079 2.427 . S
O1120 C1143 1.252 . S
O1121 Gd1078 2.307 . S
O1121 C1136 1.261 . S
O1122 Gd1079 2.388 . S
O1122 C1136 1.252 . S
C1123 O1111 1.265 . S
C1123 O1112 1.242 . S
C1124 O1115 1.261 . S
C1124 O1116 1.252 . S
C1125 C1128 1.394 . S
C1125 C1130 1.370 . S
C1125 C1131 1.500 . S
C1126 C1129 1.383 . S
C1126 C1130 1.395 . S
C1127 C1128 1.396 . S
C1127 C1129 1.365 . S
C1127 H1144 0.929 . S
C1128 C1125 1.394 . S
C1128 C1127 1.396 . S
C1128 H1145 0.930 . S
C1129 C1126 1.383 . S
C1129 C1127 1.365 . S
C1129 H1146 0.931 . S
C1130 C1125 1.370 . S
C1130 C1126 1.395 . S
C1130 H1147 0.930 . S
C1131 Gd1078 2.805 . S
C1131 O1113 1.263 . S
C1131 O1114 1.252 . S
C1131 C1125 1.500 . S
C1132 H1094 0.930 . S
C1132 C1108 1.417 . S
C1132 C1133 1.329 . S
C1133 C1103 1.437 . S
C1133 H1104 0.929 . S
C1133 C1132 1.329 . S
H1134 C1107 0.931 . S
C1135 O1117 1.265 . S
C1135 O1118 1.242 . S
C1136 O1121 1.261 . S
C1136 O1122 1.252 . S
C1137 C1140 1.394 . S
C1137 C1142 1.370 . S
C1137 C1143 1.500 . S
C1138 C1141 1.383 . S
C1138 C1142 1.395 . S
C1139 C1140 1.396 . S
C1139 C1141 1.365 . S
C1139 H1148 0.929 . S
C1140 C1137 1.394 . S
C1140 C1139 1.396 . S
C1140 H1149 0.930 . S
C1141 C1138 1.383 . S
C1141 C1139 1.365 . S
C1141 H1150 0.931 . S
C1142 C1137 1.370 . S
C1142 C1138 1.395 . S
C1142 H1151 0.930 . S
C1143 Gd1079 2.805 . S
C1143 O1119 1.263 . S
C1143 O1120 1.252 . S
C1143 C1137 1.500 . S
H1144 C1127 0.929 . S
H1145 C1128 0.930 . S
H1146 C1129 0.931 . S
H1147 C1130 0.930 . S
H1148 C1139 0.929 . S
H1149 C1140 0.930 . S
H1150 C1141 0.931 . S
H1151 C1142 0.930 . S
C1152 C1154 1.422 . S
C1152 C1156 1.415 . S
C1152 N1158 1.369 . S
C1153 C1154 1.421 . S
C1153 C1155 1.417 . S
C1153 C1165 1.422 . S
C1154 C1152 1.422 . S
C1154 C1153 1.421 . S
C1154 N1164 1.359 . S
C1155 C1153 1.417 . S
C1155 C1157 1.329 . S
C1155 H1174 0.930 . S
C1156 C1152 1.415 . S
C1156 C1157 1.437 . S
C1156 C1160 1.413 . S
C1157 C1155 1.329 . S
C1157 C1156 1.437 . S
C1157 H1179 0.929 . S
N1158 C1152 1.369 . S
N1158 C1159 1.338 . S
N1158 Gd1163 2.622 . S
C1159 N1158 1.338 . S
C1159 C1161 1.378 . S
C1159 H1171 0.929 . S
C1160 C1156 1.413 . S
C1160 C1161 1.348 . S
C1160 H1176 0.931 . S
C1161 C1159 1.378 . S
C1161 C1160 1.348 . S
C1161 H1177 0.930 . S
Gd1162 N1182 2.622 1_455 S
Gd1162 N1189 2.570 1_455 S
Gd1162 O1196 2.353 . S
Gd1162 O1197 2.468 . S
Gd1162 O1198 2.427 . S
Gd1162 O1200 2.388 . S
Gd1162 O1201 2.386 1_455 S
Gd1162 O1205 2.307 . S
Gd1162 C1215 2.805 . S
Gd1163 N1158 2.622 . S
Gd1163 N1164 2.570 . S
Gd1163 O1195 2.386 . S
Gd1163 O1199 2.307 . S
Gd1163 O1202 2.353 1_455 S
Gd1163 O1203 2.506 . S
Gd1163 O1204 2.427 . S
Gd1163 O1206 2.388 . S
Gd1163 C1227 2.805 1_455 S
N1164 C1154 1.359 . S
N1164 Gd1163 2.570 . S
N1164 C1166 1.343 . S
C1165 C1153 1.422 . S
C1165 C1167 1.321 . S
C1165 H1173 0.931 . S
C1166 N1164 1.343 . S
C1166 C1167 1.390 . S
C1166 H1168 0.931 . S
C1167 C1165 1.321 . S
C1167 C1166 1.390 . S
C1167 H1169 0.930 . S
H1168 C1166 0.931 . S
H1169 C1167 0.930 . S
H1170 C1193 0.931 . S
H1171 C1159 0.929 . S
H1172 C1194 0.930 . S
H1173 C1165 0.931 . S
H1174 C1155 0.930 . S
H1175 C1184 0.952 . S
H1176 C1160 0.931 . S
H1177 C1161 0.930 . S
H1178 C1216 0.930 . S
H1179 C1157 0.929 . S
H1180 C1185 0.931 . S
H1181 C1186 0.930 . S
N1182 Gd1162 2.622 1_655 S
N1182 C1183 1.369 . S
N1182 C1184 1.338 . S
C1183 N1182 1.369 . S
C1183 C1187 1.415 . S
C1183 C1190 1.422 . S
C1184 H1175 0.952 . S
C1184 N1182 1.338 . S
C1184 C1186 1.378 . S
C1185 H1180 0.931 . S
C1185 C1186 1.348 . S
C1185 C1187 1.413 . S
C1186 H1181 0.930 . S
C1186 C1184 1.378 . S
C1186 C1185 1.348 . S
C1187 C1183 1.415 . S
C1187 C1185 1.413 . S
C1187 C1217 1.437 . S
H1188 C1217 0.929 . S
N1189 Gd1162 2.570 1_655 S
N1189 C1190 1.359 . S
N1189 C1193 1.343 . S
C1190 C1183 1.422 . S
C1190 N1189 1.359 . S
C1190 C1192 1.421 . S
C1191 C1192 1.422 . S
C1191 C1194 1.321 . S
C1191 H1218 0.931 . S
C1192 C1190 1.421 . S
C1192 C1191 1.422 . S
C1192 C1216 1.417 . S
C1193 H1170 0.931 . S
C1193 N1189 1.343 . S
C1193 C1194 1.390 . S
C1194 H1172 0.930 . S
C1194 C1191 1.321 . S
C1194 C1193 1.390 . S
O1195 Gd1163 2.386 . S
O1195 C1207 1.265 . S
O1196 Gd1162 2.353 . S
O1196 C1207 1.242 . S
O1197 Gd1162 2.468 . S
O1197 C1215 1.263 . S
O1198 Gd1162 2.427 . S
O1198 C1215 1.252 . S
O1199 Gd1163 2.307 . S
O1199 C1208 1.261 . S
O1200 Gd1162 2.388 . S
O1200 C1208 1.252 . S
O1201 Gd1162 2.386 1_655 S
O1201 C1219 1.265 . S
O1202 Gd1163 2.353 1_655 S
O1202 C1219 1.242 . S
O1203 Gd1163 2.506 . S
O1203 C1227 1.261 1_455 S
O1204 Gd1163 2.427 . S
O1204 C1227 1.252 1_455 S
O1205 Gd1162 2.307 . S
O1205 C1220 1.261 . S
O1206 Gd1163 2.388 . S
O1206 C1220 1.252 . S
C1207 O1195 1.265 . S
C1207 O1196 1.242 . S
C1208 O1199 1.261 . S
C1208 O1200 1.252 . S
C1209 C1212 1.394 . S
C1209 C1214 1.370 . S
C1209 C1215 1.500 . S
C1210 C1213 1.383 . S
C1210 C1214 1.395 . S
C1211 C1212 1.396 . S
C1211 C1213 1.365 . S
C1211 H1228 0.929 . S
C1212 C1209 1.394 . S
C1212 C1211 1.396 . S
C1212 H1229 0.930 . S
C1213 C1210 1.383 . S
C1213 C1211 1.365 . S
C1213 H1230 0.931 . S
C1214 C1209 1.370 . S
C1214 C1210 1.395 . S
C1214 H1231 0.930 . S
C1215 Gd1162 2.805 . S
C1215 O1197 1.263 . S
C1215 O1198 1.252 . S
C1215 C1209 1.500 . S
C1216 H1178 0.930 . S
C1216 C1192 1.417 . S
C1216 C1217 1.329 . S
C1217 C1187 1.437 . S
C1217 H1188 0.929 . S
C1217 C1216 1.329 . S
H1218 C1191 0.931 . S
C1219 O1201 1.265 . S
C1219 O1202 1.242 . S
C1220 O1205 1.261 . S
C1220 O1206 1.252 . S
C1221 C1224 1.394 . S
C1221 C1226 1.370 . S
C1221 C1227 1.500 . S
C1222 C1225 1.383 . S
C1222 C1226 1.395 . S
C1223 C1224 1.396 . S
C1223 C1225 1.365 . S
C1223 H1232 0.929 . S
C1224 C1221 1.394 . S
C1224 C1223 1.396 . S
C1224 H1233 0.930 . S
C1225 C1222 1.383 . S
C1225 C1223 1.365 . S
C1225 H1234 0.931 . S
C1226 C1221 1.370 . S
C1226 C1222 1.395 . S
C1226 H1235 0.930 . S
C1227 Gd1163 2.805 1_655 S
C1227 O1203 1.261 1_655 S
C1227 O1204 1.252 1_655 S
C1227 C1221 1.500 . S
H1228 C1211 0.929 . S
H1229 C1212 0.930 . S
H1230 C1213 0.931 . S
H1231 C1214 0.930 . S
H1232 C1223 0.929 . S
H1233 C1224 0.930 . S
H1234 C1225 0.931 . S
H1235 C1226 0.930 . S
C1236 C1238 1.422 . S
C1236 C1240 1.415 . S
C1236 N1242 1.369 . S
C1237 C1238 1.421 . S
C1237 C1239 1.417 . S
C1237 C1249 1.422 . S
C1238 C1236 1.422 . S
C1238 C1237 1.421 . S
C1238 N1248 1.359 . S
C1239 C1237 1.417 . S
C1239 C1241 1.329 . S
C1239 H1258 0.930 . S
C1240 C1236 1.415 . S
C1240 C1241 1.437 . S
C1240 C1244 1.413 . S
C1241 C1239 1.329 . S
C1241 C1240 1.437 . S
C1241 H1263 0.929 . S
N1242 C1236 1.369 . S
N1242 C1243 1.338 . S
N1242 Gd1247 2.622 . S
C1243 N1242 1.338 . S
C1243 C1245 1.378 . S
C1243 H1255 0.929 . S
C1244 C1240 1.413 . S
C1244 C1245 1.348 . S
C1244 H1260 0.931 . S
C1245 C1243 1.378 . S
C1245 C1244 1.348 . S
C1245 H1261 0.930 . S
Gd1246 N1266 2.622 . S
Gd1246 N1273 2.570 . S
Gd1246 O1280 2.353 . S
Gd1246 O1281 2.468 . S
Gd1246 O1282 2.427 . S
Gd1246 O1284 2.388 . S
Gd1246 O1285 2.386 . S
Gd1246 O1289 2.307 . S
Gd1246 C1299 2.805 . S
Gd1247 N1242 2.622 . S
Gd1247 N1248 2.570 . S
Gd1247 O1279 2.386 . S
Gd1247 O1283 2.307 . S
Gd1247 O1286 2.353 . S
Gd1247 O1287 2.468 . S
Gd1247 O1288 2.427 . S
Gd1247 O1290 2.388 . S
Gd1247 C1311 2.805 . S
N1248 C1238 1.359 . S
N1248 Gd1247 2.570 . S
N1248 C1250 1.343 . S
C1249 C1237 1.422 . S
C1249 C1251 1.321 . S
C1249 H1257 0.931 . S
C1250 N1248 1.343 . S
C1250 C1251 1.390 . S
C1250 H1252 0.931 . S
C1251 C1249 1.321 . S
C1251 C1250 1.390 . S
C1251 H1253 0.930 . S
H1252 C1250 0.931 . S
H1253 C1251 0.930 . S
H1254 C1277 0.931 . S
H1255 C1243 0.929 . S
H1256 C1278 0.930 . S
H1257 C1249 0.931 . S
H1258 C1239 0.930 . S
H1259 C1268 0.929 . S
H1260 C1244 0.931 . S
H1261 C1245 0.930 . S
H1262 C1300 0.930 . S
H1263 C1241 0.929 . S
H1264 C1269 0.931 . S
H1265 C1270 0.930 . S
N1266 Gd1246 2.622 . S
N1266 C1267 1.369 . S
N1266 C1268 1.338 . S
C1267 N1266 1.369 . S
C1267 C1271 1.415 . S
C1267 C1274 1.422 . S
C1268 H1259 0.929 . S
C1268 N1266 1.338 . S
C1268 C1270 1.378 . S
C1269 H1264 0.931 . S
C1269 C1270 1.348 . S
C1269 C1271 1.413 . S
C1270 H1265 0.930 . S
C1270 C1268 1.378 . S
C1270 C1269 1.348 . S
C1271 C1267 1.415 . S
C1271 C1269 1.413 . S
C1271 C1301 1.437 . S
H1272 C1301 0.929 . S
N1273 Gd1246 2.570 . S
N1273 C1274 1.359 . S
N1273 C1277 1.343 . S
C1274 C1267 1.422 . S
C1274 N1273 1.359 . S
C1274 C1276 1.421 . S
C1275 C1276 1.422 . S
C1275 C1278 1.321 . S
C1275 H1302 0.931 . S
C1276 C1274 1.421 . S
C1276 C1275 1.422 . S
C1276 C1300 1.417 . S
C1277 H1254 0.931 . S
C1277 N1273 1.343 . S
C1277 C1278 1.390 . S
C1278 H1256 0.930 . S
C1278 C1275 1.321 . S
C1278 C1277 1.390 . S
O1279 Gd1247 2.386 . S
O1279 C1291 1.265 . S
O1280 Gd1246 2.353 . S
O1280 C1291 1.242 . S
O1281 Gd1246 2.468 . S
O1281 C1299 1.263 . S
O1282 Gd1246 2.427 . S
O1282 C1299 1.252 . S
O1283 Gd1247 2.307 . S
O1283 C1292 1.261 . S
O1284 Gd1246 2.388 . S
O1284 C1292 1.252 . S
O1285 Gd1246 2.386 . S
O1285 C1303 1.265 . S
O1286 Gd1247 2.353 . S
O1286 C1303 1.242 . S
O1287 Gd1247 2.468 . S
O1287 C1311 1.263 . S
O1288 Gd1247 2.427 . S
O1288 C1311 1.252 . S
O1289 Gd1246 2.307 . S
O1289 C1304 1.261 . S
O1290 Gd1247 2.388 . S
O1290 C1304 1.252 . S
C1291 O1279 1.265 . S
C1291 O1280 1.242 . S
C1292 O1283 1.261 . S
C1292 O1284 1.252 . S
C1293 C1296 1.394 . S
C1293 C1298 1.370 . S
C1293 C1299 1.500 . S
C1294 C1297 1.383 . S
C1294 C1298 1.395 . S
C1295 C1296 1.396 . S
C1295 C1297 1.365 . S
C1295 H1312 0.929 . S
C1296 C1293 1.394 . S
C1296 C1295 1.396 . S
C1296 H1313 0.930 . S
C1297 C1294 1.383 . S
C1297 C1295 1.365 . S
C1297 H1314 0.931 . S
C1298 C1293 1.370 . S
C1298 C1294 1.395 . S
C1298 H1315 0.930 . S
C1299 Gd1246 2.805 . S
C1299 O1281 1.263 . S
C1299 O1282 1.252 . S
C1299 C1293 1.500 . S
C1300 H1262 0.930 . S
C1300 C1276 1.417 . S
C1300 C1301 1.329 . S
C1301 C1271 1.437 . S
C1301 H1272 0.929 . S
C1301 C1300 1.329 . S
H1302 C1275 0.931 . S
C1303 O1285 1.265 . S
C1303 O1286 1.242 . S
C1304 O1289 1.261 . S
C1304 O1290 1.252 . S
C1305 C1308 1.394 . S
C1305 C1310 1.370 . S
C1305 C1311 1.500 . S
C1306 C1309 1.383 . S
C1306 C1310 1.395 . S
C1307 C1308 1.396 . S
C1307 C1309 1.365 . S
C1307 H1316 0.929 . S
C1308 C1305 1.394 . S
C1308 C1307 1.396 . S
C1308 H1317 0.930 . S
C1309 C1306 1.383 . S
C1309 C1307 1.365 . S
C1309 H1318 0.931 . S
C1310 C1305 1.370 . S
C1310 C1306 1.395 . S
C1310 H1319 0.930 . S
C1311 Gd1247 2.805 . S
C1311 O1287 1.263 . S
C1311 O1288 1.252 . S
C1311 C1305 1.500 . S
H1312 C1295 0.929 . S
H1313 C1296 0.930 . S
H1314 C1297 0.931 . S
H1315 C1298 0.930 . S
H1316 C1307 0.929 . S
H1317 C1308 0.930 . S
H1318 C1309 0.931 . S
H1319 C1310 0.930 . S
C1320 C1322 1.422 . S
C1320 C1324 1.415 . S
C1320 N1326 1.369 . S
C1321 C1322 1.421 . S
C1321 C1323 1.417 . S
C1321 C1333 1.422 . S
C1322 C1320 1.422 . S
C1322 C1321 1.421 . S
C1322 N1332 1.359 . S
C1323 C1321 1.417 . S
C1323 C1325 1.329 . S
C1323 H1342 0.930 . S
C1324 C1320 1.415 . S
C1324 C1325 1.437 . S
C1324 C1328 1.413 . S
C1325 C1323 1.329 . S
C1325 C1324 1.437 . S
C1325 H1347 0.929 . S
N1326 C1320 1.369 . S
N1326 C1327 1.338 . S
N1326 Gd1331 2.622 . S
C1327 N1326 1.338 . S
C1327 C1329 1.378 . S
C1327 H1339 0.929 . S
C1328 C1324 1.413 . S
C1328 C1329 1.348 . S
C1328 H1344 0.931 . S
C1329 C1327 1.378 . S
C1329 C1328 1.348 . S
C1329 H1345 0.930 . S
Gd1330 N1350 2.622 . S
Gd1330 N1357 2.570 . S
Gd1330 O1364 2.353 . S
Gd1330 O1365 2.468 . S
Gd1330 O1366 2.427 . S
Gd1330 O1368 2.388 . S
Gd1330 O1369 2.386 . S
Gd1330 O1373 2.307 . S
Gd1330 C1383 2.805 . S
Gd1331 N1326 2.622 . S
Gd1331 N1332 2.570 . S
Gd1331 O1363 2.386 . S
Gd1331 O1367 2.307 . S
Gd1331 O1370 2.353 . S
Gd1331 O1371 2.468 . S
Gd1331 O1372 2.427 . S
Gd1331 O1374 2.388 . S
Gd1331 C1395 2.805 . S
N1332 C1322 1.359 . S
N1332 Gd1331 2.570 . S
N1332 C1334 1.343 . S
C1333 C1321 1.422 . S
C1333 C1335 1.321 . S
C1333 H1341 0.931 . S
C1334 N1332 1.343 . S
C1334 C1335 1.390 . S
C1334 H1336 0.931 . S
C1335 C1333 1.321 . S
C1335 C1334 1.390 . S
C1335 H1337 0.930 . S
H1336 C1334 0.931 . S
H1337 C1335 0.930 . S
H1338 C1361 0.931 . S
H1339 C1327 0.929 . S
H1340 C1362 0.930 . S
H1341 C1333 0.931 . S
H1342 C1323 0.930 . S
H1343 C1352 0.929 . S
H1344 C1328 0.931 . S
H1345 C1329 0.930 . S
H1346 C1384 0.930 . S
H1347 C1325 0.929 . S
H1348 C1353 0.931 . S
H1349 C1354 0.930 . S
N1350 Gd1330 2.622 . S
N1350 C1351 1.369 . S
N1350 C1352 1.338 . S
C1351 N1350 1.369 . S
C1351 C1355 1.415 . S
C1351 C1358 1.422 . S
C1352 H1343 0.929 . S
C1352 N1350 1.338 . S
C1352 C1354 1.378 . S
C1353 H1348 0.931 . S
C1353 C1354 1.348 . S
C1353 C1355 1.413 . S
C1354 H1349 0.930 . S
C1354 C1352 1.378 . S
C1354 C1353 1.348 . S
C1355 C1351 1.415 . S
C1355 C1353 1.413 . S
C1355 C1385 1.437 . S
H1356 C1385 0.929 . S
N1357 Gd1330 2.570 . S
N1357 C1358 1.359 . S
N1357 C1361 1.343 . S
C1358 C1351 1.422 . S
C1358 N1357 1.359 . S
C1358 C1360 1.421 . S
C1359 C1360 1.422 . S
C1359 C1362 1.321 . S
C1359 H1386 0.931 . S
C1360 C1358 1.421 . S
C1360 C1359 1.422 . S
C1360 C1384 1.417 . S
C1361 H1338 0.931 . S
C1361 N1357 1.343 . S
C1361 C1362 1.390 . S
C1362 H1340 0.930 . S
C1362 C1359 1.321 . S
C1362 C1361 1.390 . S
O1363 Gd1331 2.386 . S
O1363 C1375 1.265 . S
O1364 Gd1330 2.353 . S
O1364 C1375 1.242 . S
O1365 Gd1330 2.468 . S
O1365 C1383 1.263 . S
O1366 Gd1330 2.427 . S
O1366 C1383 1.252 . S
O1367 Gd1331 2.307 . S
O1367 C1376 1.261 . S
O1368 Gd1330 2.388 . S
O1368 C1376 1.252 . S
O1369 Gd1330 2.386 . S
O1369 C1387 1.265 . S
O1370 Gd1331 2.353 . S
O1370 C1387 1.242 . S
O1371 Gd1331 2.468 . S
O1371 C1395 1.263 . S
O1372 Gd1331 2.427 . S
O1372 C1395 1.252 . S
O1373 Gd1330 2.307 . S
O1373 C1388 1.261 . S
O1374 Gd1331 2.388 . S
O1374 C1388 1.252 . S
C1375 O1363 1.265 . S
C1375 O1364 1.242 . S
C1376 O1367 1.261 . S
C1376 O1368 1.252 . S
C1377 C1380 1.394 . S
C1377 C1382 1.370 . S
C1377 C1383 1.500 . S
C1378 C1381 1.383 . S
C1378 C1382 1.395 . S
C1379 C1380 1.396 . S
C1379 C1381 1.365 . S
C1379 H1396 0.929 . S
C1380 C1377 1.394 . S
C1380 C1379 1.396 . S
C1380 H1397 0.930 . S
C1381 C1378 1.383 . S
C1381 C1379 1.365 . S
C1381 H1398 0.931 . S
C1382 C1377 1.370 . S
C1382 C1378 1.395 . S
C1382 H1399 0.930 . S
C1383 Gd1330 2.805 . S
C1383 O1365 1.263 . S
C1383 O1366 1.252 . S
C1383 C1377 1.500 . S
C1384 H1346 0.930 . S
C1384 C1360 1.417 . S
C1384 C1385 1.329 . S
C1385 C1355 1.437 . S
C1385 H1356 0.929 . S
C1385 C1384 1.329 . S
H1386 C1359 0.931 . S
C1387 O1369 1.265 . S
C1387 O1370 1.242 . S
C1388 O1373 1.261 . S
C1388 O1374 1.252 . S
C1389 C1392 1.394 . S
C1389 C1394 1.370 . S
C1389 C1395 1.500 . S
C1390 C1393 1.383 . S
C1390 C1394 1.395 . S
C1391 C1392 1.396 . S
C1391 C1393 1.365 . S
C1391 H1400 0.929 . S
C1392 C1389 1.394 . S
C1392 C1391 1.396 . S
C1392 H1401 0.930 . S
C1393 C1390 1.383 . S
C1393 C1391 1.365 . S
C1393 H1402 0.931 . S
C1394 C1389 1.370 . S
C1394 C1390 1.395 . S
C1394 H1403 0.930 . S
C1395 Gd1331 2.805 . S
C1395 O1371 1.263 . S
C1395 O1372 1.252 . S
C1395 C1389 1.500 . S
H1396 C1379 0.929 . S
H1397 C1380 0.930 . S
H1398 C1381 0.931 . S
H1399 C1382 0.930 . S
H1400 C1391 0.929 . S
H1401 C1392 0.930 . S
H1402 C1393 0.931 . S
H1403 C1394 0.930 . S
C1404 C1406 1.422 . S
C1404 C1408 1.415 . S
C1404 N1410 1.369 . S
C1405 C1406 1.421 . S
C1405 C1407 1.417 . S
C1405 C1417 1.422 . S
C1406 C1404 1.422 . S
C1406 C1405 1.421 . S
C1406 N1416 1.359 . S
C1407 C1405 1.417 . S
C1407 C1409 1.329 . S
C1407 H1426 0.930 . S
C1408 C1404 1.415 . S
C1408 C1409 1.437 . S
C1408 C1412 1.413 . S
C1409 C1407 1.329 . S
C1409 C1408 1.437 . S
C1409 H1431 0.929 . S
N1410 C1404 1.369 . S
N1410 C1411 1.338 . S
N1410 Gd1415 2.622 . S
C1411 N1410 1.338 . S
C1411 C1413 1.378 . S
C1411 H1423 0.929 . S
C1412 C1408 1.413 . S
C1412 C1413 1.348 . S
C1412 H1428 0.931 . S
C1413 C1411 1.378 . S
C1413 C1412 1.348 . S
C1413 H1429 0.930 . S
Gd1414 N1434 2.622 . S
Gd1414 N1441 2.570 . S
Gd1414 O1448 2.353 . S
Gd1414 O1449 2.468 . S
Gd1414 O1450 2.427 . S
Gd1414 O1452 2.388 . S
Gd1414 O1453 2.386 . S
Gd1414 O1457 2.307 . S
Gd1414 C1467 2.805 . S
Gd1415 N1410 2.622 . S
Gd1415 N1416 2.570 . S
Gd1415 O1447 2.386 . S
Gd1415 O1451 2.307 . S
Gd1415 O1454 2.353 . S
Gd1415 O1455 2.468 . S
Gd1415 O1456 2.427 . S
Gd1415 O1458 2.388 . S
Gd1415 C1479 2.805 . S
N1416 C1406 1.359 . S
N1416 Gd1415 2.570 . S
N1416 C1418 1.343 . S
C1417 C1405 1.422 . S
C1417 C1419 1.321 . S
C1417 H1425 0.931 . S
C1418 N1416 1.343 . S
C1418 C1419 1.390 . S
C1418 H1420 0.931 . S
C1419 C1417 1.321 . S
C1419 C1418 1.390 . S
C1419 H1421 0.930 . S
H1420 C1418 0.931 . S
H1421 C1419 0.930 . S
H1422 C1445 0.931 . S
H1423 C1411 0.929 . S
H1424 C1446 0.930 . S
H1425 C1417 0.931 . S
H1426 C1407 0.930 . S
H1427 C1436 0.929 . S
H1428 C1412 0.931 . S
H1429 C1413 0.930 . S
H1430 C1468 0.930 . S
H1431 C1409 0.929 . S
H1432 C1437 0.931 . S
H1433 C1438 0.930 . S
N1434 Gd1414 2.622 . S
N1434 C1435 1.369 . S
N1434 C1436 1.338 . S
C1435 N1434 1.369 . S
C1435 C1439 1.415 . S
C1435 C1442 1.422 . S
C1436 H1427 0.929 . S
C1436 N1434 1.338 . S
C1436 C1438 1.378 . S
C1437 H1432 0.931 . S
C1437 C1438 1.348 . S
C1437 C1439 1.413 . S
C1438 H1433 0.930 . S
C1438 C1436 1.378 . S
C1438 C1437 1.348 . S
C1439 C1435 1.415 . S
C1439 C1437 1.413 . S
C1439 C1469 1.437 . S
H1440 C1469 0.929 . S
N1441 Gd1414 2.570 . S
N1441 C1442 1.359 . S
N1441 C1445 1.343 . S
C1442 C1435 1.422 . S
C1442 N1441 1.359 . S
C1442 C1444 1.421 . S
C1443 C1444 1.422 . S
C1443 C1446 1.321 . S
C1443 H1470 0.931 . S
C1444 C1442 1.421 . S
C1444 C1443 1.422 . S
C1444 C1468 1.417 . S
C1445 H1422 0.931 . S
C1445 N1441 1.343 . S
C1445 C1446 1.390 . S
C1446 H1424 0.930 . S
C1446 C1443 1.321 . S
C1446 C1445 1.390 . S
O1447 Gd1415 2.386 . S
O1447 C1459 1.265 . S
O1448 Gd1414 2.353 . S
O1448 C1459 1.242 . S
O1449 Gd1414 2.468 . S
O1449 C1467 1.263 . S
O1450 Gd1414 2.427 . S
O1450 C1467 1.252 . S
O1451 Gd1415 2.307 . S
O1451 C1460 1.261 . S
O1452 Gd1414 2.388 . S
O1452 C1460 1.252 . S
O1453 Gd1414 2.386 . S
O1453 C1471 1.265 . S
O1454 Gd1415 2.353 . S
O1454 C1471 1.242 . S
O1455 Gd1415 2.468 . S
O1455 C1479 1.263 . S
O1456 Gd1415 2.427 . S
O1456 C1479 1.252 . S
O1457 Gd1414 2.307 . S
O1457 C1472 1.261 . S
O1458 Gd1415 2.388 . S
O1458 C1472 1.252 . S
C1459 O1447 1.265 . S
C1459 O1448 1.242 . S
C1460 O1451 1.261 . S
C1460 O1452 1.252 . S
C1461 C1464 1.394 . S
C1461 C1466 1.370 . S
C1461 C1467 1.500 . S
C1462 C1465 1.383 . S
C1462 C1466 1.395 . S
C1463 C1464 1.396 . S
C1463 C1465 1.365 . S
C1463 H1480 0.929 . S
C1464 C1461 1.394 . S
C1464 C1463 1.396 . S
C1464 H1481 0.930 . S
C1465 C1462 1.383 . S
C1465 C1463 1.365 . S
C1465 H1482 0.931 . S
C1466 C1461 1.370 . S
C1466 C1462 1.395 . S
C1466 H1483 0.930 . S
C1467 Gd1414 2.805 . S
C1467 O1449 1.263 . S
C1467 O1450 1.252 . S
C1467 C1461 1.500 . S
C1468 H1430 0.930 . S
C1468 C1444 1.417 . S
C1468 C1469 1.329 . S
C1469 C1439 1.437 . S
C1469 H1440 0.929 . S
C1469 C1468 1.329 . S
H1470 C1443 0.931 . S
C1471 O1453 1.265 . S
C1471 O1454 1.242 . S
C1472 O1457 1.261 . S
C1472 O1458 1.252 . S
C1473 C1476 1.394 . S
C1473 C1478 1.370 . S
C1473 C1479 1.500 . S
C1474 C1477 1.383 . S
C1474 C1478 1.395 . S
C1475 C1476 1.396 . S
C1475 C1477 1.365 . S
C1475 H1484 0.929 . S
C1476 C1473 1.394 . S
C1476 C1475 1.396 . S
C1476 H1485 0.930 . S
C1477 C1474 1.383 . S
C1477 C1475 1.365 . S
C1477 H1486 0.931 . S
C1478 C1473 1.370 . S
C1478 C1474 1.395 . S
C1478 H1487 0.930 . S
C1479 Gd1415 2.805 . S
C1479 O1455 1.263 . S
C1479 O1456 1.252 . S
C1479 C1473 1.500 . S
H1480 C1463 0.929 . S
H1481 C1464 0.930 . S
H1482 C1465 0.931 . S
H1483 C1466 0.930 . S
H1484 C1475 0.929 . S
H1485 C1476 0.930 . S
H1486 C1477 0.931 . S
H1487 C1478 0.930 . S
C1488 C1490 1.422 . S
C1488 C1492 1.415 . S
C1488 N1494 1.369 . S
C1489 C1490 1.421 . S
C1489 C1491 1.417 . S
C1489 C1501 1.422 . S
C1490 C1488 1.422 . S
C1490 C1489 1.421 . S
C1490 N1500 1.359 . S
C1491 C1489 1.417 . S
C1491 C1493 1.329 . S
C1491 H1510 0.930 . S
C1492 C1488 1.415 . S
C1492 C1493 1.437 . S
C1492 C1496 1.413 . S
C1493 C1491 1.329 . S
C1493 C1492 1.437 . S
C1493 H1515 0.929 . S
N1494 C1488 1.369 . S
N1494 C1495 1.338 . S
N1494 Gd1499 2.622 . S
C1495 N1494 1.338 . S
C1495 C1497 1.378 . S
C1495 H1507 0.929 . S
C1496 C1492 1.413 . S
C1496 C1497 1.348 . S
C1496 H1512 0.931 . S
C1497 C1495 1.378 . S
C1497 C1496 1.348 . S
C1497 H1513 0.930 . S
Gd1498 N1518 2.622 . S
Gd1498 N1525 2.570 . S
Gd1498 O1532 2.353 . S
Gd1498 O1533 2.468 . S
Gd1498 O1534 2.427 . S
Gd1498 O1536 2.388 . S
Gd1498 O1537 2.386 . S
Gd1498 O1541 2.307 . S
Gd1498 C1551 2.805 . S
Gd1499 N1494 2.622 . S
Gd1499 N1500 2.570 . S
Gd1499 O1531 2.386 . S
Gd1499 O1535 2.307 . S
Gd1499 O1538 2.353 . S
Gd1499 O1539 2.468 . S
Gd1499 O1540 2.427 . S
Gd1499 O1542 2.388 . S
Gd1499 C1563 2.805 . S
N1500 C1490 1.359 . S
N1500 Gd1499 2.570 . S
N1500 C1502 1.343 . S
C1501 C1489 1.422 . S
C1501 C1503 1.321 . S
C1501 H1509 0.931 . S
C1502 N1500 1.343 . S
C1502 C1503 1.390 . S
C1502 H1504 0.931 . S
C1503 C1501 1.321 . S
C1503 C1502 1.390 . S
C1503 H1505 0.930 . S
H1504 C1502 0.931 . S
H1505 C1503 0.930 . S
H1506 C1529 0.931 . S
H1507 C1495 0.929 . S
H1508 C1530 0.930 . S
H1509 C1501 0.931 . S
H1510 C1491 0.930 . S
H1511 C1520 0.929 . S
H1512 C1496 0.931 . S
H1513 C1497 0.930 . S
H1514 C1552 0.930 . S
H1515 C1493 0.929 . S
H1516 C1521 0.931 . S
H1517 C1522 0.930 . S
N1518 Gd1498 2.622 . S
N1518 C1519 1.369 . S
N1518 C1520 1.338 . S
C1519 N1518 1.369 . S
C1519 C1523 1.415 . S
C1519 C1526 1.422 . S
C1520 H1511 0.929 . S
C1520 N1518 1.338 . S
C1520 C1522 1.378 . S
C1521 H1516 0.931 . S
C1521 C1522 1.348 . S
C1521 C1523 1.413 . S
C1522 H1517 0.930 . S
C1522 C1520 1.378 . S
C1522 C1521 1.348 . S
C1523 C1519 1.415 . S
C1523 C1521 1.413 . S
C1523 C1553 1.437 . S
H1524 C1553 0.929 . S
N1525 Gd1498 2.570 . S
N1525 C1526 1.359 . S
N1525 C1529 1.343 . S
C1526 C1519 1.422 . S
C1526 N1525 1.359 . S
C1526 C1528 1.421 . S
C1527 C1528 1.422 . S
C1527 C1530 1.321 . S
C1527 H1554 0.931 . S
C1528 C1526 1.421 . S
C1528 C1527 1.422 . S
C1528 C1552 1.417 . S
C1529 H1506 0.931 . S
C1529 N1525 1.343 . S
C1529 C1530 1.390 . S
C1530 H1508 0.930 . S
C1530 C1527 1.321 . S
C1530 C1529 1.390 . S
O1531 Gd1499 2.386 . S
O1531 C1543 1.265 . S
O1532 Gd1498 2.353 . S
O1532 C1543 1.242 . S
O1533 Gd1498 2.468 . S
O1533 C1551 1.263 . S
O1534 Gd1498 2.427 . S
O1534 C1551 1.252 . S
O1535 Gd1499 2.307 . S
O1535 C1544 1.261 . S
O1536 Gd1498 2.388 . S
O1536 C1544 1.252 . S
O1537 Gd1498 2.386 . S
O1537 C1555 1.265 . S
O1538 Gd1499 2.353 . S
O1538 C1555 1.242 . S
O1539 Gd1499 2.468 . S
O1539 C1563 1.263 . S
O1540 Gd1499 2.427 . S
O1540 C1563 1.252 . S
O1541 Gd1498 2.307 . S
O1541 C1556 1.261 . S
O1542 Gd1499 2.388 . S
O1542 C1556 1.252 . S
C1543 O1531 1.265 . S
C1543 O1532 1.242 . S
C1544 O1535 1.261 . S
C1544 O1536 1.252 . S
C1545 C1548 1.394 . S
C1545 C1550 1.370 . S
C1545 C1551 1.500 . S
C1546 C1549 1.383 . S
C1546 C1550 1.395 . S
C1547 C1548 1.396 . S
C1547 C1549 1.365 . S
C1547 H1564 0.929 . S
C1548 C1545 1.394 . S
C1548 C1547 1.396 . S
C1548 H1565 0.930 . S
C1549 C1546 1.383 . S
C1549 C1547 1.365 . S
C1549 H1566 0.931 . S
C1550 C1545 1.370 . S
C1550 C1546 1.395 . S
C1550 H1567 0.930 . S
C1551 Gd1498 2.805 . S
C1551 O1533 1.263 . S
C1551 O1534 1.252 . S
C1551 C1545 1.500 . S
C1552 H1514 0.930 . S
C1552 C1528 1.417 . S
C1552 C1553 1.329 . S
C1553 C1523 1.437 . S
C1553 H1524 0.929 . S
C1553 C1552 1.329 . S
H1554 C1527 0.931 . S
C1555 O1537 1.265 . S
C1555 O1538 1.242 . S
C1556 O1541 1.261 . S
C1556 O1542 1.252 . S
C1557 C1560 1.394 . S
C1557 C1562 1.370 . S
C1557 C1563 1.500 . S
C1558 C1561 1.383 . S
C1558 C1562 1.395 . S
C1559 C1560 1.396 . S
C1559 C1561 1.365 . S
C1559 H1568 0.929 . S
C1560 C1557 1.394 . S
C1560 C1559 1.396 . S
C1560 H1569 0.930 . S
C1561 C1558 1.383 . S
C1561 C1559 1.365 . S
C1561 H1570 0.931 . S
C1562 C1557 1.370 . S
C1562 C1558 1.395 . S
C1562 H1571 0.930 . S
C1563 Gd1499 2.805 . S
C1563 O1539 1.263 . S
C1563 O1540 1.252 . S
C1563 C1557 1.500 . S
H1564 C1547 0.929 . S
H1565 C1548 0.930 . S
H1566 C1549 0.931 . S
H1567 C1550 0.930 . S
H1568 C1559 0.929 . S
H1569 C1560 0.930 . S
H1570 C1561 0.931 . S
H1571 C1562 0.930 . S
C1572 C1574 1.422 . S
C1572 C1576 1.415 1_554 S
C1572 N1578 1.369 1_554 S
C1573 C1574 1.421 . S
C1573 C1575 1.417 . S
C1573 C1585 1.422 . S
C1574 C1572 1.422 . S
C1574 C1573 1.421 . S
C1574 N1584 1.359 . S
C1575 C1573 1.417 . S
C1575 C1577 1.329 1_554 S
C1575 H1594 0.930 . S
C1576 C1572 1.415 1_556 S
C1576 C1577 1.437 . S
C1576 C1580 1.413 . S
C1577 C1575 1.329 1_556 S
C1577 C1576 1.437 . S
C1577 H1599 0.929 . S
N1578 C1572 1.369 1_556 S
N1578 C1579 1.338 . S
N1578 Gd1583 2.622 1_556 S
C1579 N1578 1.338 . S
C1579 C1581 1.378 . S
C1579 H1591 0.929 . S
C1580 C1576 1.413 . S
C1580 C1581 1.348 . S
C1580 H1596 0.931 . S
C1581 C1579 1.378 . S
C1581 C1580 1.348 . S
C1581 H1597 0.930 . S
Gd1582 N1602 2.622 . S
Gd1582 N1609 2.570 . S
Gd1582 O1616 2.353 1_655 S
Gd1582 O1617 2.468 . S
Gd1582 O1618 2.427 . S
Gd1582 O1620 2.388 1_655 S
Gd1582 O1621 2.386 1_655 S
Gd1582 O1625 2.307 . S
Gd1582 C1635 2.805 . S
Gd1583 N1578 2.622 1_554 S
Gd1583 N1584 2.570 . S
Gd1583 O1615 2.386 . S
Gd1583 O1619 2.307 . S
Gd1583 O1622 2.353 . S
Gd1583 O1623 2.468 . S
Gd1583 O1624 2.427 . S
Gd1583 O1626 2.388 1_554 S
Gd1583 C1647 2.805 . S
N1584 C1574 1.359 . S
N1584 Gd1583 2.570 . S
N1584 C1586 1.343 . S
C1585 C1573 1.422 . S
C1585 C1587 1.321 . S
C1585 H1593 0.931 . S
C1586 N1584 1.343 . S
C1586 C1587 1.390 . S
C1586 H1588 0.931 . S
C1587 C1585 1.321 . S
C1587 C1586 1.390 . S
C1587 H1589 0.930 . S
H1588 C1586 0.931 . S
H1589 C1587 0.930 . S
H1590 C1613 0.931 . S
H1591 C1579 0.929 . S
H1592 C1614 0.886 1_556 S
H1593 C1585 0.931 . S
H1594 C1575 0.930 . S
H1595 C1604 0.929 . S
H1596 C1580 0.931 . S
H1597 C1581 0.930 . S
H1598 C1636 0.930 . S
H1599 C1577 0.929 . S
H1600 C1605 0.931 . S
H1601 C1606 0.930 . S
N1602 Gd1582 2.622 . S
N1602 C1603 1.369 . S
N1602 C1604 1.338 . S
C1603 N1602 1.369 . S
C1603 C1607 1.415 . S
C1603 C1610 1.422 . S
C1604 H1595 0.929 . S
C1604 N1602 1.338 . S
C1604 C1606 1.378 . S
C1605 H1600 0.931 . S
C1605 C1606 1.348 . S
C1605 C1607 1.413 . S
C1606 H1601 0.930 . S
C1606 C1604 1.378 . S
C1606 C1605 1.348 . S
C1607 C1603 1.415 . S
C1607 C1605 1.413 . S
C1607 C1637 1.437 . S
H1608 C1637 0.929 . S
N1609 Gd1582 2.570 . S
N1609 C1610 1.359 . S
N1609 C1613 1.343 . S
C1610 C1603 1.422 . S
C1610 N1609 1.359 . S
C1610 C1612 1.421 . S
C1611 C1612 1.422 . S
C1611 C1614 1.321 . S
C1611 H1638 0.931 . S
C1612 C1610 1.421 . S
C1612 C1611 1.422 . S
C1612 C1636 1.417 . S
C1613 H1590 0.931 . S
C1613 N1609 1.343 . S
C1613 C1614 1.390 . S
C1614 H1592 0.886 1_554 S
C1614 C1611 1.321 . S
C1614 C1613 1.390 . S
O1615 Gd1583 2.386 . S
O1615 C1627 1.265 . S
O1616 Gd1582 2.353 1_455 S
O1616 C1627 1.242 . S
O1617 Gd1582 2.468 . S
O1617 C1635 1.263 . S
O1618 Gd1582 2.427 . S
O1618 C1635 1.252 . S
O1619 Gd1583 2.307 . S
O1619 C1628 1.261 . S
O1620 Gd1582 2.388 1_455 S
O1620 C1628 1.252 . S
O1621 Gd1582 2.386 1_455 S
O1621 C1639 1.265 . S
O1622 Gd1583 2.353 . S
O1622 C1639 1.242 . S
O1623 Gd1583 2.468 . S
O1623 C1647 1.263 . S
O1624 Gd1583 2.427 . S
O1624 C1647 1.252 . S
O1625 Gd1582 2.307 . S
O1625 C1640 1.311 . S
O1626 Gd1583 2.388 1_556 S
O1626 C1640 1.230 1_456 S
C1627 O1615 1.265 . S
C1627 O1616 1.242 . S
C1628 O1619 1.261 . S
C1628 O1620 1.252 . S
C1629 C1632 1.394 . S
C1629 C1634 1.370 . S
C1629 C1635 1.500 . S
C1630 C1633 1.383 . S
C1630 C1634 1.395 . S
C1631 C1632 1.396 . S
C1631 C1633 1.365 . S
C1631 H1648 0.929 . S
C1632 C1629 1.394 . S
C1632 C1631 1.396 . S
C1632 H1649 0.930 . S
C1633 C1630 1.383 . S
C1633 C1631 1.365 . S
C1633 H1650 0.931 . S
C1634 C1629 1.370 . S
C1634 C1630 1.395 . S
C1634 H1651 0.930 . S
C1635 Gd1582 2.805 . S
C1635 O1617 1.263 . S
C1635 O1618 1.252 . S
C1635 C1629 1.500 . S
C1636 H1598 0.930 . S
C1636 C1612 1.417 . S
C1636 C1637 1.329 . S
C1637 C1607 1.437 . S
C1637 H1608 0.929 . S
C1637 C1636 1.329 . S
H1638 C1611 0.931 . S
C1639 O1621 1.265 . S
C1639 O1622 1.242 . S
C1640 O1625 1.311 . S
C1640 O1626 1.230 1_654 S
C1641 C1644 1.394 1_554 S
C1641 C1646 1.370 . S
C1641 C1647 1.500 . S
C1642 C1645 1.383 . S
C1642 C1646 1.395 . S
C1643 C1644 1.396 . S
C1643 C1645 1.365 1_556 S
C1643 H1652 0.929 . S
C1644 C1641 1.394 1_556 S
C1644 C1643 1.396 . S
C1644 H1653 0.930 . S
C1645 C1642 1.383 . S
C1645 C1643 1.365 1_554 S
C1645 H1654 0.943 . S
C1646 C1641 1.370 . S
C1646 C1642 1.395 . S
C1646 H1655 0.930 . S
C1647 Gd1583 2.805 . S
C1647 O1623 1.263 . S
C1647 O1624 1.252 . S
C1647 C1641 1.500 . S
H1648 C1631 0.929 . S
H1649 C1632 0.930 . S
H1650 C1633 0.931 . S
H1651 C1634 0.930 . S
H1652 C1643 0.929 . S
H1653 C1644 0.930 . S
H1654 C1645 0.943 . S
H1655 C1646 0.930 . S
H1656 C1674 0.951 . S
H1657 C1676 0.989 . S
H1658 C1678 0.950 . S
H1659 C1679 0.950 . S
H1660 C1681 0.950 . S
H1661 C1684 0.950 . S
H1662 C1685 0.950 . S
H1663 C1687 0.950 . S
H1664 C1688 0.950 . S
H1665 C1689 0.951 . S
H1666 C1691 0.951 1_556 S
H1667 C1693 0.950 . S
H1668 C1694 0.950 . S
H1669 C1696 0.950 . S
H1670 C1699 0.950 1_655 S
H1671 C1700 0.944 1_655 S
H1672 C1702 0.950 . S
H1673 C1703 0.950 . S
C1674 H1656 0.951 . S
C1674 C1675 1.366 1_655 S
C1674 C1676 1.410 . S
C1675 C1674 1.366 1_455 S
C1675 C1679 1.385 . S
C1676 H1657 0.989 . S
C1676 C1674 1.410 . S
C1676 C1677 1.309 1_655 S
C1677 C1676 1.309 1_455 S
C1677 C1678 1.414 . S
C1677 C1680 1.499 . S
C1678 H1658 0.950 . S
C1678 C1677 1.414 . S
C1678 C1679 1.374 . S
C1679 H1659 0.950 . S
C1679 C1675 1.385 . S
C1679 C1678 1.374 . S
C1680 C1677 1.499 . S
C1680 C1681 1.373 . S
C1680 C1682 1.389 1_556 S
C1681 H1660 0.950 . S
C1681 C1680 1.373 . S
C1681 C1697 1.377 . S
C1682 C1680 1.389 1_554 S
C1682 C1683 1.524 . S
C1682 C1696 1.377 . S
C1683 C1682 1.524 . S
C1683 C1684 1.397 . S
C1683 C1688 1.363 . S
C1684 H1661 0.950 . S
C1684 C1683 1.397 . S
C1684 C1685 1.334 . S
C1685 H1662 0.950 . S
C1685 C1684 1.334 . S
C1685 C1686 1.287 . S
C1686 C1685 1.287 . S
C1686 C1687 1.524 . S
C1686 H1705 0.913 . S
C1687 H1663 0.950 . S
C1687 C1686 1.524 . S
C1687 C1688 1.415 . S
C1688 H1664 0.950 . S
C1688 C1683 1.363 . S
C1688 C1687 1.415 . S
C1689 H1665 0.951 . S
C1689 C1690 1.366 . S
C1689 C1691 1.388 . S
C1690 C1689 1.366 . S
C1690 C1694 1.385 . S
C1691 H1666 0.951 1_554 S
C1691 C1689 1.388 . S
C1691 C1692 1.366 . S
C1692 C1691 1.366 . S
C1692 C1693 1.414 . S
C1692 C1695 1.490 1_554 S
C1693 H1667 0.950 . S
C1693 C1692 1.414 . S
C1693 C1694 1.374 . S
C1694 H1668 0.950 . S
C1694 C1690 1.385 . S
C1694 C1693 1.374 . S
C1695 C1692 1.490 1_556 S
C1695 C1696 1.364 1_556 S
C1695 C1697 1.408 . S
C1696 H1669 0.950 . S
C1696 C1682 1.377 . S
C1696 C1695 1.364 1_554 S
C1697 C1681 1.377 . S
C1697 C1695 1.408 . S
C1697 C1698 1.524 . S
C1698 C1697 1.524 . S
C1698 C1699 1.397 . S
C1698 C1703 1.363 . S
C1699 H1670 0.950 1_455 S
C1699 C1698 1.397 . S
C1699 C1700 1.333 . S
C1700 H1671 0.944 1_455 S
C1700 C1699 1.333 . S
C1700 C1701 1.294 . S
C1701 C1700 1.294 . S
C1701 C1702 1.524 . S
C1701 H1704 0.999 . S
C1702 H1672 0.950 . S
C1702 C1701 1.524 . S
C1702 C1703 1.415 . S
C1703 H1673 0.950 . S
C1703 C1698 1.363 . S
C1703 C1702 1.415 . S
H1704 C1701 0.999 . S
H1705 C1686 0.913 . S
H1706 C1724 0.951 . S
H1707 C1726 0.951 . S
H1708 C1728 0.950 . S
H1709 C1729 0.950 . S
H1710 C1731 0.950 . S
H1711 C1734 0.950 . S
H1712 C1735 0.950 . S
H1713 C1737 0.950 . S
H1714 C1738 0.950 . S
H1715 C1739 0.951 . S
H1716 C1741 0.951 . S
H1717 C1743 0.950 . S
H1718 C1744 0.950 . S
H1719 C1746 0.950 . S
H1720 C1749 0.950 . S
H1721 C1750 0.950 . S
H1722 C1752 0.950 . S
H1723 C1753 0.950 . S
C1724 H1706 0.951 . S
C1724 C1725 1.366 . S
C1724 C1726 1.388 . S
C1725 C1724 1.366 . S
C1725 C1729 1.385 . S
C1726 H1707 0.951 . S
C1726 C1724 1.388 . S
C1726 C1727 1.366 . S
C1727 C1726 1.366 . S
C1727 C1728 1.414 . S
C1727 C1730 1.499 . S
C1728 H1708 0.950 . S
C1728 C1727 1.414 . S
C1728 C1729 1.374 . S
C1729 H1709 0.950 . S
C1729 C1725 1.385 . S
C1729 C1728 1.374 . S
C1730 C1727 1.499 . S
C1730 C1731 1.373 . S
C1730 C1732 1.389 . S
C1731 H1710 0.950 . S
C1731 C1730 1.373 . S
C1731 C1747 1.377 . S
C1732 C1730 1.389 . S
C1732 C1733 1.524 . S
C1732 C1746 1.377 . S
C1733 C1732 1.524 . S
C1733 C1734 1.397 . S
C1733 C1738 1.363 . S
C1734 H1711 0.950 . S
C1734 C1733 1.397 . S
C1734 C1735 1.334 . S
C1735 H1712 0.950 . S
C1735 C1734 1.334 . S
C1735 C1736 1.287 . S
C1736 C1735 1.287 . S
C1736 C1737 1.524 . S
C1736 H1755 0.913 . S
C1737 H1713 0.950 . S
C1737 C1736 1.524 . S
C1737 C1738 1.415 . S
C1738 H1714 0.950 . S
C1738 C1733 1.363 . S
C1738 C1737 1.415 . S
C1739 H1715 0.951 . S
C1739 C1740 1.366 . S
C1739 C1741 1.388 . S
C1740 C1739 1.366 . S
C1740 C1744 1.385 . S
C1741 H1716 0.951 . S
C1741 C1739 1.388 . S
C1741 C1742 1.366 . S
C1742 C1741 1.366 . S
C1742 C1743 1.414 . S
C1742 C1745 1.499 . S
C1743 H1717 0.950 . S
C1743 C1742 1.414 . S
C1743 C1744 1.374 . S
C1744 H1718 0.950 . S
C1744 C1740 1.385 . S
C1744 C1743 1.374 . S
C1745 C1742 1.499 . S
C1745 C1746 1.373 . S
C1745 C1747 1.389 . S
C1746 H1719 0.950 . S
C1746 C1732 1.377 . S
C1746 C1745 1.373 . S
C1747 C1731 1.377 . S
C1747 C1745 1.389 . S
C1747 C1748 1.524 . S
C1748 C1747 1.524 . S
C1748 C1749 1.397 . S
C1748 C1753 1.363 . S
C1749 H1720 0.950 . S
C1749 C1748 1.397 . S
C1749 C1750 1.334 . S
C1750 H1721 0.950 . S
C1750 C1749 1.334 . S
C1750 C1751 1.287 . S
C1751 C1750 1.287 . S
C1751 C1752 1.524 . S
C1751 H1754 0.999 . S
C1752 H1722 0.950 . S
C1752 C1751 1.524 . S
C1752 C1753 1.415 . S
C1753 H1723 0.950 . S
C1753 C1748 1.363 . S
C1753 C1752 1.415 . S
H1754 C1751 0.999 . S
H1755 C1736 0.913 . S
H1756 C1774 0.951 . S
H1757 C1776 0.951 . S
H1758 C1778 0.950 . S
H1759 C1779 0.950 . S
H1760 C1781 0.950 . S
H1761 C1784 0.950 . S
H1762 C1785 0.950 . S
H1763 C1787 0.950 . S
H1764 C1788 0.950 . S
H1765 C1789 0.951 . S
H1766 C1791 0.951 . S
H1767 C1793 0.950 . S
H1768 C1794 0.950 . S
H1769 C1796 0.950 . S
H1770 C1799 0.950 . S
H1771 C1800 0.950 . S
H1772 C1802 0.950 . S
H1773 C1803 0.950 . S
C1774 H1756 0.951 . S
C1774 C1775 1.366 . S
C1774 C1776 1.388 . S
C1775 C1774 1.366 . S
C1775 C1779 1.385 . S
C1776 H1757 0.951 . S
C1776 C1774 1.388 . S
C1776 C1777 1.366 . S
C1777 C1776 1.366 . S
C1777 C1778 1.414 . S
C1777 C1780 1.499 . S
C1778 H1758 0.950 . S
C1778 C1777 1.414 . S
C1778 C1779 1.374 . S
C1779 H1759 0.950 . S
C1779 C1775 1.385 . S
C1779 C1778 1.374 . S
C1780 C1777 1.499 . S
C1780 C1781 1.373 . S
C1780 C1782 1.389 . S
C1781 H1760 0.950 . S
C1781 C1780 1.373 . S
C1781 C1797 1.377 . S
C1782 C1780 1.389 . S
C1782 C1783 1.524 . S
C1782 C1796 1.377 . S
C1783 C1782 1.524 . S
C1783 C1784 1.397 . S
C1783 C1788 1.363 . S
C1784 H1761 0.950 . S
C1784 C1783 1.397 . S
C1784 C1785 1.334 . S
C1785 H1762 0.950 . S
C1785 C1784 1.334 . S
C1785 C1786 1.287 . S
C1786 C1785 1.287 . S
C1786 C1787 1.524 . S
C1786 H1805 0.913 . S
C1787 H1763 0.950 . S
C1787 C1786 1.524 . S
C1787 C1788 1.415 . S
C1788 H1764 0.950 . S
C1788 C1783 1.363 . S
C1788 C1787 1.415 . S
C1789 H1765 0.951 . S
C1789 C1790 1.366 . S
C1789 C1791 1.388 . S
C1790 C1789 1.366 . S
C1790 C1794 1.385 . S
C1791 H1766 0.951 . S
C1791 C1789 1.388 . S
C1791 C1792 1.366 . S
C1792 C1791 1.366 . S
C1792 C1793 1.414 . S
C1792 C1795 1.499 . S
C1793 H1767 0.950 . S
C1793 C1792 1.414 . S
C1793 C1794 1.374 . S
C1794 H1768 0.950 . S
C1794 C1790 1.385 . S
C1794 C1793 1.374 . S
C1795 C1792 1.499 . S
C1795 C1796 1.373 . S
C1795 C1797 1.389 . S
C1796 H1769 0.950 . S
C1796 C1782 1.377 . S
C1796 C1795 1.373 . S
C1797 C1781 1.377 . S
C1797 C1795 1.389 . S
C1797 C1798 1.524 . S
C1798 C1797 1.524 . S
C1798 C1799 1.397 . S
C1798 C1803 1.363 . S
C1799 H1770 0.950 . S
C1799 C1798 1.397 . S
C1799 C1800 1.334 . S
C1800 H1771 0.950 . S
C1800 C1799 1.334 . S
C1800 C1801 1.287 . S
C1801 C1800 1.287 . S
C1801 C1802 1.524 . S
C1801 H1804 0.999 . S
C1802 H1772 0.950 . S
C1802 C1801 1.524 . S
C1802 C1803 1.415 . S
C1803 H1773 0.950 . S
C1803 C1798 1.363 . S
C1803 C1802 1.415 . S
H1804 C1801 0.999 . S
H1805 C1786 0.913 . S
H1806 C1824 0.951 . S
H1807 C1826 0.951 . S
H1808 C1828 0.950 . S
H1809 C1829 0.950 . S
H1810 C1831 0.950 . S
H1811 C1834 0.950 . S
H1812 C1835 0.950 . S
H1813 C1837 0.950 . S
H1814 C1838 0.950 . S
H1815 C1839 0.951 . S
H1816 C1841 0.951 . S
H1817 C1843 0.950 . S
H1818 C1844 0.950 . S
H1819 C1846 0.950 . S
H1820 C1849 0.950 . S
H1821 C1850 0.950 . S
H1822 C1852 0.950 . S
H1823 C1853 0.950 . S
C1824 H1806 0.951 . S
C1824 C1825 1.366 . S
C1824 C1826 1.388 . S
C1825 C1824 1.366 . S
C1825 C1829 1.385 . S
C1826 H1807 0.951 . S
C1826 C1824 1.388 . S
C1826 C1827 1.366 . S
C1827 C1826 1.366 . S
C1827 C1828 1.414 . S
C1827 C1830 1.499 . S
C1828 H1808 0.950 . S
C1828 C1827 1.414 . S
C1828 C1829 1.374 . S
C1829 H1809 0.950 . S
C1829 C1825 1.385 . S
C1829 C1828 1.374 . S
C1830 C1827 1.499 . S
C1830 C1831 1.373 . S
C1830 C1832 1.389 . S
C1831 H1810 0.950 . S
C1831 C1830 1.373 . S
C1831 C1847 1.377 . S
C1832 C1830 1.389 . S
C1832 C1833 1.524 . S
C1832 C1846 1.377 . S
C1833 C1832 1.524 . S
C1833 C1834 1.397 . S
C1833 C1838 1.363 . S
C1834 H1811 0.950 . S
C1834 C1833 1.397 . S
C1834 C1835 1.334 . S
C1835 H1812 0.950 . S
C1835 C1834 1.334 . S
C1835 C1836 1.287 . S
C1836 C1835 1.287 . S
C1836 C1837 1.524 . S
C1836 H1855 0.913 . S
C1837 H1813 0.950 . S
C1837 C1836 1.524 . S
C1837 C1838 1.415 . S
C1838 H1814 0.950 . S
C1838 C1833 1.363 . S
C1838 C1837 1.415 . S
C1839 H1815 0.951 . S
C1839 C1840 1.366 . S
C1839 C1841 1.388 . S
C1840 C1839 1.366 . S
C1840 C1844 1.385 . S
C1841 H1816 0.951 . S
C1841 C1839 1.388 . S
C1841 C1842 1.366 . S
C1842 C1841 1.366 . S
C1842 C1843 1.414 . S
C1842 C1845 1.499 . S
C1843 H1817 0.950 . S
C1843 C1842 1.414 . S
C1843 C1844 1.374 . S
C1844 H1818 0.950 . S
C1844 C1840 1.385 . S
C1844 C1843 1.374 . S
C1845 C1842 1.499 . S
C1845 C1846 1.373 . S
C1845 C1847 1.389 . S
C1846 H1819 0.950 . S
C1846 C1832 1.377 . S
C1846 C1845 1.373 . S
C1847 C1831 1.377 . S
C1847 C1845 1.389 . S
C1847 C1848 1.524 . S
C1848 C1847 1.524 . S
C1848 C1849 1.397 . S
C1848 C1853 1.363 . S
C1849 H1820 0.950 . S
C1849 C1848 1.397 . S
C1849 C1850 1.334 . S
C1850 H1821 0.950 . S
C1850 C1849 1.334 . S
C1850 C1851 1.287 . S
C1851 C1850 1.287 . S
C1851 C1852 1.524 . S
C1851 H1854 0.999 . S
C1852 H1822 0.950 . S
C1852 C1851 1.524 . S
C1852 C1853 1.415 . S
C1853 H1823 0.950 . S
C1853 C1848 1.363 . S
C1853 C1852 1.415 . S
H1854 C1851 0.999 . S
H1855 C1836 0.913 . S
H1856 C1874 0.951 . S
H1857 C1876 0.951 . S
H1858 C1878 0.950 1_655 S
H1859 C1879 0.950 1_655 S
H1860 C1881 0.950 . S
H1861 C1884 0.950 . S
H1862 C1885 0.950 . S
H1863 C1887 0.950 . S
H1864 C1888 0.950 . S
H1865 C1889 0.951 . S
H1866 C1891 0.951 . S
H1867 C1893 0.950 . S
H1868 C1894 0.950 . S
H1869 C1896 0.950 . S
H1870 C1899 0.950 . S
H1871 C1900 0.950 . S
H1872 C1902 0.950 . S
H1873 C1903 0.950 . S
C1874 H1856 0.951 . S
C1874 C1875 1.366 . S
C1874 C1876 1.388 . S
C1875 C1874 1.366 . S
C1875 C1879 1.385 . S
C1876 H1857 0.951 . S
C1876 C1874 1.388 . S
C1876 C1877 1.366 . S
C1877 C1876 1.366 . S
C1877 C1878 1.414 . S
C1877 C1880 1.499 . S
C1878 H1858 0.950 1_455 S
C1878 C1877 1.414 . S
C1878 C1879 1.374 . S
C1879 H1859 0.950 1_455 S
C1879 C1875 1.385 . S
C1879 C1878 1.374 . S
C1880 C1877 1.499 . S
C1880 C1881 1.373 . S
C1880 C1882 1.389 . S
C1881 H1860 0.950 . S
C1881 C1880 1.373 . S
C1881 C1897 1.377 . S
C1882 C1880 1.389 . S
C1882 C1883 1.524 . S
C1882 C1896 1.377 . S
C1883 C1882 1.524 . S
C1883 C1884 1.397 . S
C1883 C1888 1.363 . S
C1884 H1861 0.950 . S
C1884 C1883 1.397 . S
C1884 C1885 1.334 . S
C1885 H1862 0.950 . S
C1885 C1884 1.334 . S
C1885 C1886 1.287 . S
C1886 C1885 1.287 . S
C1886 C1887 1.524 . S
C1886 H1905 0.913 . S
C1887 H1863 0.950 . S
C1887 C1886 1.524 . S
C1887 C1888 1.415 . S
C1888 H1864 0.950 . S
C1888 C1883 1.363 . S
C1888 C1887 1.415 . S
C1889 H1865 0.951 . S
C1889 C1890 1.366 . S
C1889 C1891 1.388 . S
C1890 C1889 1.366 . S
C1890 C1894 1.385 . S
C1891 H1866 0.951 . S
C1891 C1889 1.388 . S
C1891 C1892 1.366 . S
C1892 C1891 1.366 . S
C1892 C1893 1.414 . S
C1892 C1895 1.499 . S
C1893 H1867 0.950 . S
C1893 C1892 1.414 . S
C1893 C1894 1.374 . S
C1894 H1868 0.950 . S
C1894 C1890 1.385 . S
C1894 C1893 1.374 . S
C1895 C1892 1.499 . S
C1895 C1896 1.373 . S
C1895 C1897 1.389 . S
C1896 H1869 0.950 . S
C1896 C1882 1.377 . S
C1896 C1895 1.373 . S
C1897 C1881 1.377 . S
C1897 C1895 1.389 . S
C1897 C1898 1.524 . S
C1898 C1897 1.524 . S
C1898 C1899 1.397 . S
C1898 C1903 1.363 1_455 S
C1899 H1870 0.950 . S
C1899 C1898 1.397 . S
C1899 C1900 1.334 . S
C1900 H1871 0.950 . S
C1900 C1899 1.334 . S
C1900 C1901 1.287 1_455 S
C1901 C1900 1.287 1_655 S
C1901 C1902 1.524 . S
C1901 H1904 0.999 . S
C1902 H1872 0.950 . S
C1902 C1901 1.524 . S
C1902 C1903 1.415 . S
C1903 H1873 0.950 . S
C1903 C1898 1.363 1_655 S
C1903 C1902 1.415 . S
H1904 C1901 0.999 . S
H1905 C1886 0.913 . S
H1906 C1924 0.951 . S
H1907 C1926 0.951 . S
H1908 C1928 0.950 . S
H1909 C1929 0.950 . S
H1910 C1931 0.950 . S
H1911 C1934 0.950 . S
H1912 C1935 0.950 . S
H1913 C1937 0.950 . S
H1914 C1938 0.950 . S
H1915 C1939 0.951 . S
H1916 C1941 0.951 . S
H1917 C1943 0.950 . S
H1918 C1944 0.950 . S
H1919 C1946 0.950 . S
H1920 C1949 0.950 . S
H1921 C1950 0.950 . S
H1922 C1952 0.950 . S
H1923 C1953 0.950 . S
C1924 H1906 0.951 . S
C1924 C1925 1.366 . S
C1924 C1926 1.388 . S
C1925 C1924 1.366 . S
C1925 C1929 1.385 . S
C1926 H1907 0.951 . S
C1926 C1924 1.388 . S
C1926 C1927 1.366 . S
C1927 C1926 1.366 . S
C1927 C1928 1.414 . S
C1927 C1930 1.499 . S
C1928 H1908 0.950 . S
C1928 C1927 1.414 . S
C1928 C1929 1.374 . S
C1929 H1909 0.950 . S
C1929 C1925 1.385 . S
C1929 C1928 1.374 . S
C1930 C1927 1.499 . S
C1930 C1931 1.373 . S
C1930 C1932 1.389 . S
C1931 H1910 0.950 . S
C1931 C1930 1.373 . S
C1931 C1947 1.377 . S
C1932 C1930 1.389 . S
C1932 C1933 1.524 . S
C1932 C1946 1.377 . S
C1933 C1932 1.524 . S
C1933 C1934 1.397 . S
C1933 C1938 1.363 . S
C1934 H1911 0.950 . S
C1934 C1933 1.397 . S
C1934 C1935 1.334 . S
C1935 H1912 0.950 . S
C1935 C1934 1.334 . S
C1935 C1936 1.287 . S
C1936 C1935 1.287 . S
C1936 C1937 1.524 . S
C1936 H1955 0.913 . S
C1937 H1913 0.950 . S
C1937 C1936 1.524 . S
C1937 C1938 1.415 . S
C1938 H1914 0.950 . S
C1938 C1933 1.363 . S
C1938 C1937 1.415 . S
C1939 H1915 0.951 . S
C1939 C1940 1.366 . S
C1939 C1941 1.388 . S
C1940 C1939 1.366 . S
C1940 C1944 1.385 . S
C1941 H1916 0.951 . S
C1941 C1939 1.388 . S
C1941 C1942 1.366 . S
C1942 C1941 1.366 . S
C1942 C1943 1.414 . S
C1942 C1945 1.499 . S
C1943 H1917 0.950 . S
C1943 C1942 1.414 . S
C1943 C1944 1.374 . S
C1944 H1918 0.950 . S
C1944 C1940 1.385 . S
C1944 C1943 1.374 . S
C1945 C1942 1.499 . S
C1945 C1946 1.373 . S
C1945 C1947 1.389 . S
C1946 H1919 0.950 . S
C1946 C1932 1.377 . S
C1946 C1945 1.373 . S
C1947 C1931 1.377 . S
C1947 C1945 1.389 . S
C1947 C1948 1.524 . S
C1948 C1947 1.524 . S
C1948 C1949 1.397 . S
C1948 C1953 1.363 . S
C1949 H1920 0.950 . S
C1949 C1948 1.397 . S
C1949 C1950 1.334 . S
C1950 H1921 0.950 . S
C1950 C1949 1.334 . S
C1950 C1951 1.287 . S
C1951 C1950 1.287 . S
C1951 C1952 1.524 . S
C1951 H1954 0.999 . S
C1952 H1922 0.950 . S
C1952 C1951 1.524 . S
C1952 C1953 1.415 . S
C1953 H1923 0.950 . S
C1953 C1948 1.363 . S
C1953 C1952 1.415 . S
H1954 C1951 0.999 . S
H1955 C1936 0.913 . S
H1956 C1974 0.951 . S
H1957 C1976 0.951 . S
H1958 C1978 0.950 . S
H1959 C1979 0.950 . S
H1960 C1981 0.950 . S
H1961 C1984 0.950 . S
H1962 C1985 0.950 . S
H1963 C1987 0.950 . S
H1964 C1988 0.950 . S
H1965 C1989 0.951 . S
H1966 C1991 0.951 . S
H1967 C1993 0.950 . S
H1968 C1994 0.950 . S
H1969 C1996 0.950 . S
H1970 C1999 0.950 . S
H1971 C2000 0.950 . S
H1972 C2002 0.950 . S
H1973 C2003 0.950 . S
C1974 H1956 0.951 . S
C1974 C1975 1.366 . S
C1974 C1976 1.388 . S
C1975 C1974 1.366 . S
C1975 C1979 1.385 . S
C1976 H1957 0.951 . S
C1976 C1974 1.388 . S
C1976 C1977 1.366 . S
C1977 C1976 1.366 . S
C1977 C1978 1.414 . S
C1977 C1980 1.499 . S
C1978 H1958 0.950 . S
C1978 C1977 1.414 . S
C1978 C1979 1.374 . S
C1979 H1959 0.950 . S
C1979 C1975 1.385 . S
C1979 C1978 1.374 . S
C1980 C1977 1.499 . S
C1980 C1981 1.373 . S
C1980 C1982 1.389 . S
C1981 H1960 0.950 . S
C1981 C1980 1.373 . S
C1981 C1997 1.377 . S
C1982 C1980 1.389 . S
C1982 C1983 1.524 . S
C1982 C1996 1.377 . S
C1983 C1982 1.524 . S
C1983 C1984 1.397 . S
C1983 C1988 1.363 . S
C1984 H1961 0.950 . S
C1984 C1983 1.397 . S
C1984 C1985 1.334 . S
C1985 H1962 0.950 . S
C1985 C1984 1.334 . S
C1985 C1986 1.287 . S
C1986 C1985 1.287 . S
C1986 C1987 1.524 . S
C1986 H2005 0.913 . S
C1987 H1963 0.950 . S
C1987 C1986 1.524 . S
C1987 C1988 1.415 . S
C1988 H1964 0.950 . S
C1988 C1983 1.363 . S
C1988 C1987 1.415 . S
C1989 H1965 0.951 . S
C1989 C1990 1.366 . S
C1989 C1991 1.388 . S
C1990 C1989 1.366 . S
C1990 C1994 1.385 . S
C1991 H1966 0.951 . S
C1991 C1989 1.388 . S
C1991 C1992 1.366 . S
C1992 C1991 1.366 . S
C1992 C1993 1.414 . S
C1992 C1995 1.499 . S
C1993 H1967 0.950 . S
C1993 C1992 1.414 . S
C1993 C1994 1.374 . S
C1994 H1968 0.950 . S
C1994 C1990 1.385 . S
C1994 C1993 1.374 . S
C1995 C1992 1.499 . S
C1995 C1996 1.373 . S
C1995 C1997 1.389 . S
C1996 H1969 0.950 . S
C1996 C1982 1.377 . S
C1996 C1995 1.373 . S
C1997 C1981 1.377 . S
C1997 C1995 1.389 . S
C1997 C1998 1.524 . S
C1998 C1997 1.524 . S
C1998 C1999 1.397 . S
C1998 C2003 1.363 . S
C1999 H1970 0.950 . S
C1999 C1998 1.397 . S
C1999 C2000 1.334 . S
C2000 H1971 0.950 . S
C2000 C1999 1.334 . S
C2000 C2001 1.287 . S
C2001 C2000 1.287 . S
C2001 C2002 1.524 . S
C2001 H2004 0.999 . S
C2002 H1972 0.950 . S
C2002 C2001 1.524 . S
C2002 C2003 1.415 . S
C2003 H1973 0.950 . S
C2003 C1998 1.363 . S
C2003 C2002 1.415 . S
H2004 C2001 0.999 . S
H2005 C1986 0.913 . S
H2006 C2024 0.951 . S
H2007 C2026 0.951 . S
H2008 C2028 0.950 . S
H2009 C2029 0.950 . S
H2010 C2031 0.950 . S
H2011 C2034 0.950 . S
H2012 C2035 0.950 . S
H2013 C2037 0.950 . S
H2014 C2038 0.950 . S
H2015 C2039 0.951 . S
H2016 C2041 0.951 . S
H2017 C2043 0.950 . S
H2018 C2044 0.950 . S
H2019 C2046 0.950 . S
H2020 C2049 0.950 . S
H2021 C2050 0.950 . S
H2022 C2052 0.950 . S
H2023 C2053 0.950 . S
C2024 H2006 0.951 . S
C2024 C2025 1.366 . S
C2024 C2026 1.388 . S
C2025 C2024 1.366 . S
C2025 C2029 1.385 . S
C2026 H2007 0.951 . S
C2026 C2024 1.388 . S
C2026 C2027 1.366 . S
C2027 C2026 1.366 . S
C2027 C2028 1.414 . S
C2027 C2030 1.499 . S
C2028 H2008 0.950 . S
C2028 C2027 1.414 . S
C2028 C2029 1.374 . S
C2029 H2009 0.950 . S
C2029 C2025 1.385 . S
C2029 C2028 1.374 . S
C2030 C2027 1.499 . S
C2030 C2031 1.373 . S
C2030 C2032 1.389 . S
C2031 H2010 0.950 . S
C2031 C2030 1.373 . S
C2031 C2047 1.377 . S
C2032 C2030 1.389 . S
C2032 C2033 1.524 . S
C2032 C2046 1.377 . S
C2033 C2032 1.524 . S
C2033 C2034 1.397 . S
C2033 C2038 1.363 . S
C2034 H2011 0.950 . S
C2034 C2033 1.397 . S
C2034 C2035 1.334 . S
C2035 H2012 0.950 . S
C2035 C2034 1.334 . S
C2035 C2036 1.287 . S
C2036 C2035 1.287 . S
C2036 C2037 1.524 . S
C2036 H2055 0.913 . S
C2037 H2013 0.950 . S
C2037 C2036 1.524 . S
C2037 C2038 1.415 . S
C2038 H2014 0.950 . S
C2038 C2033 1.363 . S
C2038 C2037 1.415 . S
C2039 H2015 0.951 . S
C2039 C2040 1.366 . S
C2039 C2041 1.388 . S
C2040 C2039 1.366 . S
C2040 C2044 1.385 . S
C2041 H2016 0.951 . S
C2041 C2039 1.388 . S
C2041 C2042 1.366 . S
C2042 C2041 1.366 . S
C2042 C2043 1.414 . S
C2042 C2045 1.499 . S
C2043 H2017 0.950 . S
C2043 C2042 1.414 . S
C2043 C2044 1.374 . S
C2044 H2018 0.950 . S
C2044 C2040 1.385 . S
C2044 C2043 1.374 . S
C2045 C2042 1.499 . S
C2045 C2046 1.373 . S
C2045 C2047 1.389 . S
C2046 H2019 0.950 . S
C2046 C2032 1.377 . S
C2046 C2045 1.373 . S
C2047 C2031 1.377 . S
C2047 C2045 1.389 . S
C2047 C2048 1.524 . S
C2048 C2047 1.524 . S
C2048 C2049 1.397 . S
C2048 C2053 1.363 . S
C2049 H2020 0.950 . S
C2049 C2048 1.397 . S
C2049 C2050 1.334 . S
C2050 H2021 0.950 . S
C2050 C2049 1.334 . S
C2050 C2051 1.287 . S
C2051 C2050 1.287 . S
C2051 C2052 1.524 . S
C2051 H2054 0.999 . S
C2052 H2022 0.950 . S
C2052 C2051 1.524 . S
C2052 C2053 1.415 . S
C2053 H2023 0.950 . S
C2053 C2048 1.363 . S
C2053 C2052 1.415 . S
H2054 C2051 0.999 . S
H2055 C2036 0.913 . S
H2056 C2074 0.951 . S
H2057 C2076 0.951 . S
H2058 C2078 0.950 . S
H2059 C2079 0.952 . S
H2060 C2081 0.950 . S
H2061 C2084 0.950 . S
H2062 C2085 0.950 . S
H2063 C2087 0.950 . S
H2064 C2088 0.950 . S
H2065 C2089 0.948 1_655 S
H2066 C2091 0.951 . S
H2067 C2093 0.950 . S
H2068 C2094 0.950 . S
H2069 C2096 0.950 . S
H2070 C2099 0.950 . S
H2071 C2100 0.950 . S
H2072 C2102 0.950 . S
H2073 C2103 0.950 . S
C2074 H2056 0.951 . S
C2074 C2075 1.366 . S
C2074 C2076 1.388 . S
C2075 C2074 1.366 . S
C2075 C2079 1.385 . S
C2076 H2057 0.951 . S
C2076 C2074 1.388 . S
C2076 C2077 1.366 . S
C2077 C2076 1.366 . S
C2077 C2078 1.414 . S
C2077 C2080 1.499 . S
C2078 H2058 0.950 . S
C2078 C2077 1.414 . S
C2078 C2079 1.374 . S
C2079 H2059 0.952 . S
C2079 C2075 1.385 . S
C2079 C2078 1.374 . S
C2080 C2077 1.499 . S
C2080 C2081 1.373 . S
C2080 C2082 1.389 . S
C2081 H2060 0.950 . S
C2081 C2080 1.373 . S
C2081 C2097 1.377 . S
C2082 C2080 1.389 . S
C2082 C2083 1.524 . S
C2082 C2096 1.377 . S
C2083 C2082 1.524 . S
C2083 C2084 1.397 . S
C2083 C2088 1.363 . S
C2084 H2061 0.950 . S
C2084 C2083 1.397 . S
C2084 C2085 1.334 . S
C2085 H2062 0.950 . S
C2085 C2084 1.334 . S
C2085 C2086 1.287 . S
C2086 C2085 1.287 . S
C2086 C2087 1.524 . S
C2086 H2105 0.913 . S
C2087 H2063 0.950 . S
C2087 C2086 1.524 . S
C2087 C2088 1.415 . S
C2088 H2064 0.950 . S
C2088 C2083 1.363 . S
C2088 C2087 1.415 . S
C2089 H2065 0.948 1_455 S
C2089 C2090 1.366 . S
C2089 C2091 1.388 1_455 S
C2090 C2089 1.366 . S
C2090 C2094 1.385 . S
C2091 H2066 0.951 . S
C2091 C2089 1.388 1_655 S
C2091 C2092 1.366 . S
C2092 C2091 1.366 . S
C2092 C2093 1.414 1_655 S
C2092 C2095 1.499 . S
C2093 H2067 0.950 . S
C2093 C2092 1.414 1_455 S
C2093 C2094 1.374 . S
C2094 H2068 0.950 . S
C2094 C2090 1.385 . S
C2094 C2093 1.374 . S
C2095 C2092 1.499 . S
C2095 C2096 1.373 . S
C2095 C2097 1.389 . S
C2096 H2069 0.950 . S
C2096 C2082 1.377 . S
C2096 C2095 1.373 . S
C2097 C2081 1.377 . S
C2097 C2095 1.389 . S
C2097 C2098 1.524 . S
C2098 C2097 1.524 . S
C2098 C2099 1.397 1_655 S
C2098 C2103 1.363 1_545 S
C2099 H2070 0.950 . S
C2099 C2098 1.397 1_455 S
C2099 C2100 1.334 1_545 S
C2100 H2071 0.950 . S
C2100 C2099 1.334 1_565 S
C2100 C2101 1.287 . S
C2101 C2100 1.287 . S
C2101 C2102 1.524 1_455 S
C2101 H2104 0.999 . S
C2102 H2072 0.950 . S
C2102 C2101 1.524 1_655 S
C2102 C2103 1.415 . S
C2103 H2073 0.950 . S
C2103 C2098 1.363 1_565 S
C2103 C2102 1.415 . S
H2104 C2101 0.999 . S
H2105 C2086 0.913 . S
H2106 C2124 0.951 . S
H2107 C2126 0.951 . S
H2108 C2128 0.950 . S
H2109 C2129 0.950 . S
H2110 C2131 0.950 . S
H2111 C2134 0.950 . S
H2112 C2135 0.950 . S
H2113 C2137 0.950 . S
H2114 C2138 0.950 . S
H2115 C2139 0.951 . S
H2116 C2141 0.951 . S
H2117 C2143 0.950 . S
H2118 C2144 0.950 . S
H2119 C2146 0.950 . S
H2120 C2149 0.950 . S
H2121 C2150 0.950 . S
H2122 C2152 0.950 . S
H2123 C2153 0.950 . S
C2124 H2106 0.951 . S
C2124 C2125 1.366 . S
C2124 C2126 1.388 . S
C2125 C2124 1.366 . S
C2125 C2129 1.385 . S
C2126 H2107 0.951 . S
C2126 C2124 1.388 . S
C2126 C2127 1.366 . S
C2127 C2126 1.366 . S
C2127 C2128 1.414 . S
C2127 C2130 1.499 . S
C2128 H2108 0.950 . S
C2128 C2127 1.414 . S
C2128 C2129 1.374 . S
C2129 H2109 0.950 . S
C2129 C2125 1.385 . S
C2129 C2128 1.374 . S
C2130 C2127 1.499 . S
C2130 C2131 1.373 . S
C2130 C2132 1.389 . S
C2131 H2110 0.950 . S
C2131 C2130 1.373 . S
C2131 C2147 1.377 . S
C2132 C2130 1.389 . S
C2132 C2133 1.524 . S
C2132 C2146 1.377 . S
C2133 C2132 1.524 . S
C2133 C2134 1.397 . S
C2133 C2138 1.363 . S
C2134 H2111 0.950 . S
C2134 C2133 1.397 . S
C2134 C2135 1.334 . S
C2135 H2112 0.950 . S
C2135 C2134 1.334 . S
C2135 C2136 1.287 . S
C2136 C2135 1.287 . S
C2136 C2137 1.524 . S
C2136 H2155 0.913 . S
C2137 H2113 0.950 . S
C2137 C2136 1.524 . S
C2137 C2138 1.415 . S
C2138 H2114 0.950 . S
C2138 C2133 1.363 . S
C2138 C2137 1.415 . S
C2139 H2115 0.951 . S
C2139 C2140 1.366 . S
C2139 C2141 1.388 . S
C2140 C2139 1.366 . S
C2140 C2144 1.385 . S
C2141 H2116 0.951 . S
C2141 C2139 1.388 . S
C2141 C2142 1.366 . S
C2142 C2141 1.366 . S
C2142 C2143 1.414 . S
C2142 C2145 1.499 . S
C2143 H2117 0.950 . S
C2143 C2142 1.414 . S
C2143 C2144 1.374 . S
C2144 H2118 0.950 . S
C2144 C2140 1.385 . S
C2144 C2143 1.374 . S
C2145 C2142 1.499 . S
C2145 C2146 1.373 . S
C2145 C2147 1.389 . S
C2146 H2119 0.950 . S
C2146 C2132 1.377 . S
C2146 C2145 1.373 . S
C2147 C2131 1.377 . S
C2147 C2145 1.389 . S
C2147 C2148 1.524 . S
C2148 C2147 1.524 . S
C2148 C2149 1.397 . S
C2148 C2153 1.363 . S
C2149 H2120 0.950 . S
C2149 C2148 1.397 . S
C2149 C2150 1.334 . S
C2150 H2121 0.950 . S
C2150 C2149 1.334 . S
C2150 C2151 1.287 . S
C2151 C2150 1.287 . S
C2151 C2152 1.524 . S
C2151 H2154 0.999 . S
C2152 H2122 0.950 . S
C2152 C2151 1.524 . S
C2152 C2153 1.415 . S
C2153 H2123 0.950 . S
C2153 C2148 1.363 . S
C2153 C2152 1.415 . S
H2154 C2151 0.999 . S
H2155 C2136 0.913 . S
H2156 C2174 0.951 . S
H2157 C2176 0.951 . S
H2158 C2178 0.950 . S
H2159 C2179 0.950 . S
H2160 C2181 0.950 . S
H2161 C2184 0.950 . S
H2162 C2185 0.950 . S
H2163 C2187 0.939 1_565 S
H2164 C2188 0.910 1_565 S
H2165 C2189 0.951 . S
H2166 C2191 0.951 . S
H2167 C2193 0.950 1_565 S
H2168 C2194 0.950 1_565 S
H2169 C2196 0.950 . S
H2170 C2199 0.964 . S
H2171 C2200 0.950 1_565 S
H2172 C2202 0.950 . S
H2173 C2203 0.950 . S
C2174 H2156 0.951 . S
C2174 C2175 1.366 . S
C2174 C2176 1.388 . S
C2175 C2174 1.366 . S
C2175 C2179 1.385 . S
C2176 H2157 0.951 . S
C2176 C2174 1.388 . S
C2176 C2177 1.366 . S
C2177 C2176 1.366 . S
C2177 C2178 1.414 . S
C2177 C2180 1.499 . S
C2178 H2158 0.950 . S
C2178 C2177 1.414 . S
C2178 C2179 1.374 . S
C2179 H2159 0.950 . S
C2179 C2175 1.385 . S
C2179 C2178 1.374 . S
C2180 C2177 1.499 . S
C2180 C2181 1.373 . S
C2180 C2182 1.389 . S
C2181 H2160 0.950 . S
C2181 C2180 1.373 . S
C2181 C2197 1.377 . S
C2182 C2180 1.389 . S
C2182 C2183 1.524 . S
C2182 C2196 1.377 . S
C2183 C2182 1.524 . S
C2183 C2184 1.397 . S
C2183 C2188 1.363 . S
C2184 H2161 0.950 . S
C2184 C2183 1.397 . S
C2184 C2185 1.334 . S
C2185 H2162 0.950 . S
C2185 C2184 1.334 . S
C2185 C2186 1.287 . S
C2186 C2185 1.287 . S
C2186 C2187 1.524 . S
C2186 H2205 0.913 . S
C2187 H2163 0.939 1_545 S
C2187 C2186 1.524 . S
C2187 C2188 1.415 . S
C2188 H2164 0.910 1_545 S
C2188 C2183 1.363 . S
C2188 C2187 1.415 . S
C2189 H2165 0.951 . S
C2189 C2190 1.366 . S
C2189 C2191 1.388 . S
C2190 C2189 1.366 . S
C2190 C2194 1.385 . S
C2191 H2166 0.951 . S
C2191 C2189 1.388 . S
C2191 C2192 1.366 . S
C2192 C2191 1.366 . S
C2192 C2193 1.414 . S
C2192 C2195 1.499 . S
C2193 H2167 0.950 1_545 S
C2193 C2192 1.414 . S
C2193 C2194 1.374 . S
C2194 H2168 0.950 1_545 S
C2194 C2190 1.385 . S
C2194 C2193 1.374 . S
C2195 C2192 1.499 . S
C2195 C2196 1.373 . S
C2195 C2197 1.389 . S
C2196 H2169 0.950 . S
C2196 C2182 1.377 . S
C2196 C2195 1.373 . S
C2197 C2181 1.377 . S
C2197 C2195 1.389 . S
C2197 C2198 1.524 . S
C2198 C2197 1.524 . S
C2198 C2199 1.397 . S
C2198 C2203 1.363 . S
C2199 H2170 0.964 . S
C2199 C2198 1.397 . S
C2199 C2200 1.334 . S
C2200 H2171 0.950 1_545 S
C2200 C2199 1.334 . S
C2200 C2201 1.287 . S
C2201 C2200 1.287 . S
C2201 C2202 1.524 . S
C2201 H2204 0.999 . S
C2202 H2172 0.950 . S
C2202 C2201 1.524 . S
C2202 C2203 1.415 . S
C2203 H2173 0.950 . S
C2203 C2198 1.363 . S
C2203 C2202 1.415 . S
H2204 C2201 0.999 . S
H2205 C2186 0.913 . S
H2206 C2224 0.951 . S
H2207 C2226 0.951 . S
H2208 C2228 0.950 . S
H2209 C2229 0.950 . S
H2210 C2231 0.950 . S
H2211 C2234 0.950 . S
H2212 C2235 0.950 . S
H2213 C2237 0.950 . S
H2214 C2238 0.950 . S
H2215 C2239 0.951 . S
H2216 C2241 0.951 . S
H2217 C2243 0.950 . S
H2218 C2244 0.950 . S
H2219 C2246 0.950 . S
H2220 C2249 0.950 . S
H2221 C2250 0.950 . S
H2222 C2252 0.950 . S
H2223 C2253 0.950 . S
C2224 H2206 0.951 . S
C2224 C2225 1.366 . S
C2224 C2226 1.388 . S
C2225 C2224 1.366 . S
C2225 C2229 1.385 . S
C2226 H2207 0.951 . S
C2226 C2224 1.388 . S
C2226 C2227 1.366 . S
C2227 C2226 1.366 . S
C2227 C2228 1.414 . S
C2227 C2230 1.499 . S
C2228 H2208 0.950 . S
C2228 C2227 1.414 . S
C2228 C2229 1.374 . S
C2229 H2209 0.950 . S
C2229 C2225 1.385 . S
C2229 C2228 1.374 . S
C2230 C2227 1.499 . S
C2230 C2231 1.373 . S
C2230 C2232 1.389 . S
C2231 H2210 0.950 . S
C2231 C2230 1.373 . S
C2231 C2247 1.377 . S
C2232 C2230 1.389 . S
C2232 C2233 1.524 . S
C2232 C2246 1.377 . S
C2233 C2232 1.524 . S
C2233 C2234 1.397 . S
C2233 C2238 1.363 . S
C2234 H2211 0.950 . S
C2234 C2233 1.397 . S
C2234 C2235 1.334 . S
C2235 H2212 0.950 . S
C2235 C2234 1.334 . S
C2235 C2236 1.287 . S
C2236 C2235 1.287 . S
C2236 C2237 1.524 . S
C2236 H2255 0.913 . S
C2237 H2213 0.950 . S
C2237 C2236 1.524 . S
C2237 C2238 1.415 . S
C2238 H2214 0.950 . S
C2238 C2233 1.363 . S
C2238 C2237 1.415 . S
C2239 H2215 0.951 . S
C2239 C2240 1.366 . S
C2239 C2241 1.388 . S
C2240 C2239 1.366 . S
C2240 C2244 1.385 . S
C2241 H2216 0.951 . S
C2241 C2239 1.388 . S
C2241 C2242 1.366 . S
C2242 C2241 1.366 . S
C2242 C2243 1.414 . S
C2242 C2245 1.499 . S
C2243 H2217 0.950 . S
C2243 C2242 1.414 . S
C2243 C2244 1.374 . S
C2244 H2218 0.950 . S
C2244 C2240 1.385 . S
C2244 C2243 1.374 . S
C2245 C2242 1.499 . S
C2245 C2246 1.373 . S
C2245 C2247 1.389 . S
C2246 H2219 0.950 . S
C2246 C2232 1.377 . S
C2246 C2245 1.373 . S
C2247 C2231 1.377 . S
C2247 C2245 1.389 . S
C2247 C2248 1.524 . S
C2248 C2247 1.524 . S
C2248 C2249 1.397 . S
C2248 C2253 1.363 . S
C2249 H2220 0.950 . S
C2249 C2248 1.397 . S
C2249 C2250 1.334 . S
C2250 H2221 0.950 . S
C2250 C2249 1.334 . S
C2250 C2251 1.287 . S
C2251 C2250 1.287 . S
C2251 C2252 1.524 . S
C2251 H2254 0.999 . S
C2252 H2222 0.950 . S
C2252 C2251 1.524 . S
C2252 C2253 1.415 . S
C2253 H2223 0.950 . S
C2253 C2248 1.363 . S
C2253 C2252 1.415 . S
H2254 C2251 0.999 . S
H2255 C2236 0.913 . S
H2256 C2274 0.951 . S
H2257 C2276 0.951 . S
H2258 C2278 0.950 1_565 S
H2259 C2279 0.950 1_565 S
H2260 C2281 0.950 . S
H2261 C2284 0.950 1_565 S
H2262 C2285 0.943 1_665 S
H2263 C2287 0.950 . S
H2264 C2288 0.950 . S
H2265 C2289 0.963 1_565 S
H2266 C2291 0.951 1_565 S
H2267 C2293 0.950 . S
H2268 C2294 0.950 . S
H2269 C2296 0.950 1_455 S
H2270 C2299 0.950 . S
H2271 C2300 0.950 . S
H2272 C2302 0.950 1_565 S
H2273 C2303 0.950 1_565 S
C2274 H2256 0.951 . S
C2274 C2275 1.366 . S
C2274 C2276 1.388 . S
C2275 C2274 1.366 . S
C2275 C2279 1.385 . S
C2276 H2257 0.951 . S
C2276 C2274 1.388 . S
C2276 C2277 1.366 . S
C2277 C2276 1.366 . S
C2277 C2278 1.414 . S
C2277 C2280 1.499 . S
C2278 H2258 0.950 1_545 S
C2278 C2277 1.414 . S
C2278 C2279 1.374 . S
C2279 H2259 0.950 1_545 S
C2279 C2275 1.385 . S
C2279 C2278 1.374 . S
C2280 C2277 1.499 . S
C2280 C2281 1.373 . S
C2280 C2282 1.389 . S
C2281 H2260 0.950 . S
C2281 C2280 1.373 . S
C2281 C2297 1.377 . S
C2282 C2280 1.389 . S
C2282 C2283 1.524 . S
C2282 C2296 1.377 . S
C2283 C2282 1.524 . S
C2283 C2284 1.397 . S
C2283 C2288 1.363 1_655 S
C2284 H2261 0.950 1_545 S
C2284 C2283 1.397 . S
C2284 C2285 1.335 1_655 S
C2285 H2262 0.943 1_445 S
C2285 C2284 1.335 1_455 S
C2285 C2286 1.291 . S
C2286 C2285 1.291 . S
C2286 C2287 1.524 . S
C2286 H2305 0.913 . S
C2287 H2263 0.950 . S
C2287 C2286 1.524 . S
C2287 C2288 1.415 . S
C2288 H2264 0.950 . S
C2288 C2283 1.363 1_455 S
C2288 C2287 1.415 . S
C2289 H2265 0.963 1_545 S
C2289 C2290 1.336 1_655 S
C2289 C2291 1.408 . S
C2290 C2289 1.336 1_455 S
C2290 C2294 1.385 . S
C2291 H2266 0.951 1_545 S
C2291 C2289 1.408 . S
C2291 C2292 1.366 . S
C2292 C2291 1.366 . S
C2292 C2293 1.414 1_655 S
C2292 C2295 1.499 . S
C2293 H2267 0.950 . S
C2293 C2292 1.414 1_455 S
C2293 C2294 1.374 . S
C2294 H2268 0.950 . S
C2294 C2290 1.385 . S
C2294 C2293 1.374 . S
C2295 C2292 1.499 . S
C2295 C2296 1.373 . S
C2295 C2297 1.389 . S
C2296 H2269 0.950 1_655 S
C2296 C2282 1.377 . S
C2296 C2295 1.373 . S
C2297 C2281 1.377 . S
C2297 C2295 1.389 . S
C2297 C2298 1.524 . S
C2298 C2297 1.524 . S
C2298 C2299 1.397 . S
C2298 C2303 1.363 . S
C2299 H2270 0.950 . S
C2299 C2298 1.397 . S
C2299 C2300 1.334 . S
C2300 H2271 0.950 . S
C2300 C2299 1.334 . S
C2300 C2301 1.287 . S
C2301 C2300 1.287 . S
C2301 C2302 1.524 . S
C2301 H2304 0.999 . S
C2302 H2272 0.950 1_545 S
C2302 C2301 1.524 . S
C2302 C2303 1.415 . S
C2303 H2273 0.950 1_545 S
C2303 C2298 1.363 . S
C2303 C2302 1.415 . S
H2304 C2301 0.999 . S
H2305 C2286 0.913 . S
H2306 C2324 0.951 . S
H2307 C2326 0.951 . S
H2308 C2328 0.950 . S
H2309 C2329 0.950 . S
H2310 C2331 0.950 . S
H2311 C2334 0.950 . S
H2312 C2335 0.950 . S
H2313 C2337 0.950 . S
H2314 C2338 0.950 . S
H2315 C2339 0.951 . S
H2316 C2341 0.951 . S
H2317 C2343 0.950 . S
H2318 C2344 0.950 . S
H2319 C2346 0.950 . S
H2320 C2349 0.950 . S
H2321 C2350 0.950 . S
H2322 C2352 0.950 . S
H2323 C2353 0.950 . S
C2324 H2306 0.951 . S
C2324 C2325 1.366 . S
C2324 C2326 1.388 . S
C2325 C2324 1.366 . S
C2325 C2329 1.385 . S
C2326 H2307 0.951 . S
C2326 C2324 1.388 . S
C2326 C2327 1.366 . S
C2327 C2326 1.366 . S
C2327 C2328 1.414 . S
C2327 C2330 1.499 . S
C2328 H2308 0.950 . S
C2328 C2327 1.414 . S
C2328 C2329 1.374 . S
C2329 H2309 0.950 . S
C2329 C2325 1.385 . S
C2329 C2328 1.374 . S
C2330 C2327 1.499 . S
C2330 C2331 1.373 . S
C2330 C2332 1.389 . S
C2331 H2310 0.950 . S
C2331 C2330 1.373 . S
C2331 C2347 1.377 . S
C2332 C2330 1.389 . S
C2332 C2333 1.524 . S
C2332 C2346 1.377 . S
C2333 C2332 1.524 . S
C2333 C2334 1.397 . S
C2333 C2338 1.363 . S
C2334 H2311 0.950 . S
C2334 C2333 1.397 . S
C2334 C2335 1.334 . S
C2335 H2312 0.950 . S
C2335 C2334 1.334 . S
C2335 C2336 1.287 . S
C2336 C2335 1.287 . S
C2336 C2337 1.524 . S
C2336 H2355 0.913 . S
C2337 H2313 0.950 . S
C2337 C2336 1.524 . S
C2337 C2338 1.415 . S
C2338 H2314 0.950 . S
C2338 C2333 1.363 . S
C2338 C2337 1.415 . S
C2339 H2315 0.951 . S
C2339 C2340 1.366 . S
C2339 C2341 1.388 . S
C2340 C2339 1.366 . S
C2340 C2344 1.385 . S
C2341 H2316 0.951 . S
C2341 C2339 1.388 . S
C2341 C2342 1.366 . S
C2342 C2341 1.366 . S
C2342 C2343 1.414 . S
C2342 C2345 1.499 . S
C2343 H2317 0.950 . S
C2343 C2342 1.414 . S
C2343 C2344 1.374 . S
C2344 H2318 0.950 . S
C2344 C2340 1.385 . S
C2344 C2343 1.374 . S
C2345 C2342 1.499 . S
C2345 C2346 1.373 . S
C2345 C2347 1.389 . S
C2346 H2319 0.950 . S
C2346 C2332 1.377 . S
C2346 C2345 1.373 . S
C2347 C2331 1.377 . S
C2347 C2345 1.389 . S
C2347 C2348 1.524 . S
C2348 C2347 1.524 . S
C2348 C2349 1.397 . S
C2348 C2353 1.363 . S
C2349 H2320 0.950 . S
C2349 C2348 1.397 . S
C2349 C2350 1.334 . S
C2350 H2321 0.950 . S
C2350 C2349 1.334 . S
C2350 C2351 1.287 . S
C2351 C2350 1.287 . S
C2351 C2352 1.524 . S
C2351 H2354 0.999 . S
C2352 H2322 0.950 . S
C2352 C2351 1.524 . S
C2352 C2353 1.415 . S
C2353 H2323 0.950 . S
C2353 C2348 1.363 . S
C2353 C2352 1.415 . S
H2354 C2351 0.999 . S
H2355 C2336 0.913 . S
H2356 C2374 0.951 . S
H2357 C2376 0.951 . S
H2358 C2378 0.950 . S
H2359 C2379 0.950 . S
H2360 C2381 0.950 . S
H2361 C2384 0.950 . S
H2362 C2385 0.950 . S
H2363 C2387 0.950 . S
H2364 C2388 0.950 . S
H2365 C2389 0.951 . S
H2366 C2391 0.951 . S
H2367 C2393 0.950 . S
H2368 C2394 0.950 . S
H2369 C2396 0.950 . S
H2370 C2399 0.950 . S
H2371 C2400 0.950 . S
H2372 C2402 0.950 . S
H2373 C2403 0.950 . S
C2374 H2356 0.951 . S
C2374 C2375 1.366 . S
C2374 C2376 1.388 . S
C2375 C2374 1.366 . S
C2375 C2379 1.385 . S
C2376 H2357 0.951 . S
C2376 C2374 1.388 . S
C2376 C2377 1.366 . S
C2377 C2376 1.366 . S
C2377 C2378 1.414 . S
C2377 C2380 1.499 . S
C2378 H2358 0.950 . S
C2378 C2377 1.414 . S
C2378 C2379 1.374 . S
C2379 H2359 0.950 . S
C2379 C2375 1.385 . S
C2379 C2378 1.374 . S
C2380 C2377 1.499 . S
C2380 C2381 1.373 . S
C2380 C2382 1.389 . S
C2381 H2360 0.950 . S
C2381 C2380 1.373 . S
C2381 C2397 1.377 . S
C2382 C2380 1.389 . S
C2382 C2383 1.524 . S
C2382 C2396 1.377 . S
C2383 C2382 1.524 . S
C2383 C2384 1.397 . S
C2383 C2388 1.363 . S
C2384 H2361 0.950 . S
C2384 C2383 1.397 . S
C2384 C2385 1.334 . S
C2385 H2362 0.950 . S
C2385 C2384 1.334 . S
C2385 C2386 1.287 . S
C2386 C2385 1.287 . S
C2386 C2387 1.524 . S
C2386 H2405 0.913 . S
C2387 H2363 0.950 . S
C2387 C2386 1.524 . S
C2387 C2388 1.415 . S
C2388 H2364 0.950 . S
C2388 C2383 1.363 . S
C2388 C2387 1.415 . S
C2389 H2365 0.951 . S
C2389 C2390 1.366 . S
C2389 C2391 1.388 . S
C2390 C2389 1.366 . S
C2390 C2394 1.385 . S
C2391 H2366 0.951 . S
C2391 C2389 1.388 . S
C2391 C2392 1.366 . S
C2392 C2391 1.366 . S
C2392 C2393 1.414 . S
C2392 C2395 1.499 . S
C2393 H2367 0.950 . S
C2393 C2392 1.414 . S
C2393 C2394 1.374 . S
C2394 H2368 0.950 . S
C2394 C2390 1.385 . S
C2394 C2393 1.374 . S
C2395 C2392 1.499 . S
C2395 C2396 1.373 . S
C2395 C2397 1.389 . S
C2396 H2369 0.950 . S
C2396 C2382 1.377 . S
C2396 C2395 1.373 . S
C2397 C2381 1.377 . S
C2397 C2395 1.389 . S
C2397 C2398 1.524 . S
C2398 C2397 1.524 . S
C2398 C2399 1.397 . S
C2398 C2403 1.363 . S
C2399 H2370 0.950 . S
C2399 C2398 1.397 . S
C2399 C2400 1.334 . S
C2400 H2371 0.950 . S
C2400 C2399 1.334 . S
C2400 C2401 1.287 . S
C2401 C2400 1.287 . S
C2401 C2402 1.524 . S
C2401 H2404 0.999 . S
C2402 H2372 0.950 . S
C2402 C2401 1.524 . S
C2402 C2403 1.415 . S
C2403 H2373 0.950 . S
C2403 C2398 1.363 . S
C2403 C2402 1.415 . S
H2404 C2401 0.999 . S
H2405 C2386 0.913 . S
H2406 C2424 0.951 . S
H2407 C2426 0.951 . S
H2408 C2428 0.950 . S
H2409 C2429 0.950 . S
H2410 C2431 0.950 . S
H2411 C2434 0.950 . S
H2412 C2435 0.950 . S
H2413 C2437 0.950 . S
H2414 C2438 0.950 . S
H2415 C2439 0.951 . S
H2416 C2441 0.951 . S
H2417 C2443 0.950 . S
H2418 C2444 0.950 . S
H2419 C2446 0.950 . S
H2420 C2449 0.950 . S
H2421 C2450 0.950 . S
H2422 C2452 0.950 . S
H2423 C2453 0.950 . S
C2424 H2406 0.951 . S
C2424 C2425 1.366 . S
C2424 C2426 1.388 . S
C2425 C2424 1.366 . S
C2425 C2429 1.385 . S
C2426 H2407 0.951 . S
C2426 C2424 1.388 . S
C2426 C2427 1.366 . S
C2427 C2426 1.366 . S
C2427 C2428 1.414 . S
C2427 C2430 1.499 . S
C2428 H2408 0.950 . S
C2428 C2427 1.414 . S
C2428 C2429 1.374 . S
C2429 H2409 0.950 . S
C2429 C2425 1.385 . S
C2429 C2428 1.374 . S
C2430 C2427 1.499 . S
C2430 C2431 1.373 . S
C2430 C2432 1.389 . S
C2431 H2410 0.950 . S
C2431 C2430 1.373 . S
C2431 C2447 1.377 . S
C2432 C2430 1.389 . S
C2432 C2433 1.524 . S
C2432 C2446 1.377 . S
C2433 C2432 1.524 . S
C2433 C2434 1.397 . S
C2433 C2438 1.363 . S
C2434 H2411 0.950 . S
C2434 C2433 1.397 . S
C2434 C2435 1.334 . S
C2435 H2412 0.950 . S
C2435 C2434 1.334 . S
C2435 C2436 1.287 . S
C2436 C2435 1.287 . S
C2436 C2437 1.524 . S
C2436 H2455 0.913 . S
C2437 H2413 0.950 . S
C2437 C2436 1.524 . S
C2437 C2438 1.415 . S
C2438 H2414 0.950 . S
C2438 C2433 1.363 . S
C2438 C2437 1.415 . S
C2439 H2415 0.951 . S
C2439 C2440 1.366 . S
C2439 C2441 1.388 . S
C2440 C2439 1.366 . S
C2440 C2444 1.385 . S
C2441 H2416 0.951 . S
C2441 C2439 1.388 . S
C2441 C2442 1.366 . S
C2442 C2441 1.366 . S
C2442 C2443 1.414 . S
C2442 C2445 1.499 . S
C2443 H2417 0.950 . S
C2443 C2442 1.414 . S
C2443 C2444 1.374 . S
C2444 H2418 0.950 . S
C2444 C2440 1.385 . S
C2444 C2443 1.374 . S
C2445 C2442 1.499 . S
C2445 C2446 1.373 . S
C2445 C2447 1.389 . S
C2446 H2419 0.950 . S
C2446 C2432 1.377 . S
C2446 C2445 1.373 . S
C2447 C2431 1.377 . S
C2447 C2445 1.389 . S
C2447 C2448 1.524 . S
C2448 C2447 1.524 . S
C2448 C2449 1.397 . S
C2448 C2453 1.363 . S
C2449 H2420 0.950 . S
C2449 C2448 1.397 . S
C2449 C2450 1.334 . S
C2450 H2421 0.950 . S
C2450 C2449 1.334 . S
C2450 C2451 1.287 . S
C2451 C2450 1.287 . S
C2451 C2452 1.524 . S
C2451 H2454 0.999 . S
C2452 H2422 0.950 . S
C2452 C2451 1.524 . S
C2452 C2453 1.415 . S
C2453 H2423 0.950 . S
C2453 C2448 1.363 . S
C2453 C2452 1.415 . S
H2454 C2451 0.999 . S
H2455 C2436 0.913 . S
H2456 C2474 0.951 . S
H2457 C2476 0.951 . S
H2458 C2478 0.950 . S
H2459 C2479 0.950 1_556 S
H2460 C2481 0.950 . S
H2461 C2484 0.950 . S
H2462 C2485 0.950 . S
H2463 C2487 0.950 . S
H2464 C2488 0.950 . S
H2465 C2489 0.951 . S
H2466 C2491 0.951 . S
H2467 C2493 0.950 . S
H2468 C2494 0.950 . S
H2469 C2496 0.950 . S
H2470 C2499 0.950 1_565 S
H2471 C2500 0.950 . S
H2472 C2502 0.950 . S
H2473 C2503 0.950 . S
C2474 H2456 0.951 . S
C2474 C2475 1.366 . S
C2474 C2476 1.388 . S
C2475 C2474 1.366 . S
C2475 C2479 1.385 . S
C2476 H2457 0.951 . S
C2476 C2474 1.388 . S
C2476 C2477 1.366 . S
C2477 C2476 1.366 . S
C2477 C2478 1.414 . S
C2477 C2480 1.499 . S
C2478 H2458 0.950 . S
C2478 C2477 1.414 . S
C2478 C2479 1.374 . S
C2479 H2459 0.950 1_554 S
C2479 C2475 1.385 . S
C2479 C2478 1.374 . S
C2480 C2477 1.499 . S
C2480 C2481 1.373 . S
C2480 C2482 1.389 . S
C2481 H2460 0.950 . S
C2481 C2480 1.373 . S
C2481 C2497 1.377 . S
C2482 C2480 1.389 . S
C2482 C2483 1.524 1_554 S
C2482 C2496 1.377 . S
C2483 C2482 1.524 1_556 S
C2483 C2484 1.397 . S
C2483 C2488 1.363 1_556 S
C2484 H2461 0.950 . S
C2484 C2483 1.397 . S
C2484 C2485 1.334 . S
C2485 H2462 0.950 . S
C2485 C2484 1.334 . S
C2485 C2486 1.287 . S
C2486 C2485 1.287 . S
C2486 C2487 1.524 . S
C2486 H2505 0.913 . S
C2487 H2463 0.950 . S
C2487 C2486 1.524 . S
C2487 C2488 1.415 1_556 S
C2488 H2464 0.950 . S
C2488 C2483 1.363 1_554 S
C2488 C2487 1.415 1_554 S
C2489 H2465 0.951 . S
C2489 C2490 1.366 . S
C2489 C2491 1.388 . S
C2490 C2489 1.366 . S
C2490 C2494 1.385 1_545 S
C2491 H2466 0.951 . S
C2491 C2489 1.388 . S
C2491 C2492 1.366 1_545 S
C2492 C2491 1.366 1_565 S
C2492 C2493 1.414 . S
C2492 C2495 1.499 . S
C2493 H2467 0.950 . S
C2493 C2492 1.414 . S
C2493 C2494 1.374 . S
C2494 H2468 0.950 . S
C2494 C2490 1.385 1_565 S
C2494 C2493 1.374 . S
C2495 C2492 1.499 . S
C2495 C2496 1.373 . S
C2495 C2497 1.389 . S
C2496 H2469 0.950 . S
C2496 C2482 1.377 . S
C2496 C2495 1.373 . S
C2497 C2481 1.377 . S
C2497 C2495 1.389 . S
C2497 C2498 1.524 1_565 S
C2498 C2497 1.524 1_545 S
C2498 C2499 1.397 . S
C2498 C2503 1.363 . S
C2499 H2470 0.950 1_545 S
C2499 C2498 1.397 . S
C2499 C2500 1.334 . S
C2500 H2471 0.950 . S
C2500 C2499 1.334 . S
C2500 C2501 1.287 . S
C2501 C2500 1.287 . S
C2501 C2502 1.524 . S
C2501 H2504 0.999 . S
C2502 H2472 0.950 . S
C2502 C2501 1.524 . S
C2502 C2503 1.415 . S
C2503 H2473 0.950 . S
C2503 C2498 1.363 . S
C2503 C2502 1.415 . S
H2504 C2501 0.999 . S
H2505 C2486 0.913 . S
H2506 C2524 0.951 . S
H2507 C2526 0.951 . S
H2508 C2528 0.950 . S
H2509 C2529 0.950 . S
H2510 C2531 0.950 . S
H2511 C2534 0.950 . S
H2512 C2535 0.950 . S
H2513 C2537 0.950 . S
H2514 C2538 0.950 . S
H2515 C2539 0.951 . S
H2516 C2541 0.951 . S
H2517 C2543 0.950 . S
H2518 C2544 0.950 . S
H2519 C2546 0.950 . S
H2520 C2549 0.950 . S
H2521 C2550 0.950 . S
H2522 C2552 0.950 . S
H2523 C2553 0.950 . S
C2524 H2506 0.951 . S
C2524 C2525 1.367 . S
C2524 C2526 1.388 . S
C2525 C2524 1.367 . S
C2525 C2529 1.384 1_554 S
C2526 H2507 0.951 . S
C2526 C2524 1.388 . S
C2526 C2527 1.366 . S
C2527 C2526 1.366 . S
C2527 C2528 1.414 1_554 S
C2527 C2530 1.499 . S
C2528 H2508 0.950 . S
C2528 C2527 1.414 1_556 S
C2528 C2529 1.374 . S
C2529 H2509 0.950 . S
C2529 C2525 1.384 1_556 S
C2529 C2528 1.374 . S
C2530 C2527 1.499 . S
C2530 C2531 1.373 1_554 S
C2530 C2532 1.389 . S
C2531 H2510 0.950 . S
C2531 C2530 1.373 1_556 S
C2531 C2547 1.377 . S
C2532 C2530 1.389 . S
C2532 C2533 1.524 . S
C2532 C2546 1.377 . S
C2533 C2532 1.524 . S
C2533 C2534 1.397 . S
C2533 C2538 1.363 . S
C2534 H2511 0.950 . S
C2534 C2533 1.397 . S
C2534 C2535 1.334 . S
C2535 H2512 0.950 . S
C2535 C2534 1.334 . S
C2535 C2536 1.287 . S
C2536 C2535 1.287 . S
C2536 C2537 1.524 . S
C2536 H2555 0.913 . S
C2537 H2513 0.950 . S
C2537 C2536 1.524 . S
C2537 C2538 1.415 . S
C2538 H2514 0.950 . S
C2538 C2533 1.363 . S
C2538 C2537 1.415 . S
C2539 H2515 0.951 . S
C2539 C2540 1.366 1_556 S
C2539 C2541 1.388 . S
C2540 C2539 1.366 1_554 S
C2540 C2544 1.385 . S
C2541 H2516 0.951 . S
C2541 C2539 1.388 . S
C2541 C2542 1.366 1_556 S
C2542 C2541 1.366 1_554 S
C2542 C2543 1.414 . S
C2542 C2545 1.499 . S
C2543 H2517 0.950 . S
C2543 C2542 1.414 . S
C2543 C2544 1.374 . S
C2544 H2518 0.950 . S
C2544 C2540 1.385 . S
C2544 C2543 1.374 . S
C2545 C2542 1.499 . S
C2545 C2546 1.373 . S
C2545 C2547 1.389 1_554 S
C2546 H2519 0.950 . S
C2546 C2532 1.377 . S
C2546 C2545 1.373 . S
C2547 C2531 1.377 . S
C2547 C2545 1.389 1_556 S
C2547 C2548 1.524 . S
C2548 C2547 1.524 . S
C2548 C2549 1.397 . S
C2548 C2553 1.363 . S
C2549 H2520 0.950 . S
C2549 C2548 1.397 . S
C2549 C2550 1.334 . S
C2550 H2521 0.950 . S
C2550 C2549 1.334 . S
C2550 C2551 1.287 . S
C2551 C2550 1.287 . S
C2551 C2552 1.524 . S
C2551 H2554 0.999 . S
C2552 H2522 0.950 . S
C2552 C2551 1.524 . S
C2552 C2553 1.415 . S
C2553 H2523 0.950 . S
C2553 C2548 1.363 . S
C2553 C2552 1.415 . S
H2554 C2551 0.999 . S
H2555 C2536 0.913 . S
H2556 C2574 0.951 . S
H2557 C2576 0.951 . S
H2558 C2578 0.950 . S
H2559 C2579 0.950 . S
H2560 C2581 0.950 . S
H2561 C2584 0.950 . S
H2562 C2585 0.950 . S
H2563 C2587 0.950 . S
H2564 C2588 0.950 . S
H2565 C2589 0.951 . S
H2566 C2591 0.951 . S
H2567 C2593 0.950 . S
H2568 C2594 0.950 . S
H2569 C2596 0.950 . S
H2570 C2599 0.950 . S
H2571 C2600 0.950 . S
H2572 C2602 0.950 . S
H2573 C2603 0.950 . S
C2574 H2556 0.951 . S
C2574 C2575 1.366 . S
C2574 C2576 1.388 . S
C2575 C2574 1.366 . S
C2575 C2579 1.385 . S
C2576 H2557 0.951 . S
C2576 C2574 1.388 . S
C2576 C2577 1.366 . S
C2577 C2576 1.366 . S
C2577 C2578 1.414 . S
C2577 C2580 1.499 . S
C2578 H2558 0.950 . S
C2578 C2577 1.414 . S
C2578 C2579 1.374 . S
C2579 H2559 0.950 . S
C2579 C2575 1.385 . S
C2579 C2578 1.374 . S
C2580 C2577 1.499 . S
C2580 C2581 1.373 . S
C2580 C2582 1.389 . S
C2581 H2560 0.950 . S
C2581 C2580 1.373 . S
C2581 C2597 1.377 . S
C2582 C2580 1.389 . S
C2582 C2583 1.524 . S
C2582 C2596 1.377 . S
C2583 C2582 1.524 . S
C2583 C2584 1.397 . S
C2583 C2588 1.363 . S
C2584 H2561 0.950 . S
C2584 C2583 1.397 . S
C2584 C2585 1.334 . S
C2585 H2562 0.950 . S
C2585 C2584 1.334 . S
C2585 C2586 1.287 . S
C2586 C2585 1.287 . S
C2586 C2587 1.524 . S
C2586 H2605 0.913 . S
C2587 H2563 0.950 . S
C2587 C2586 1.524 . S
C2587 C2588 1.415 . S
C2588 H2564 0.950 . S
C2588 C2583 1.363 . S
C2588 C2587 1.415 . S
C2589 H2565 0.951 . S
C2589 C2590 1.366 . S
C2589 C2591 1.388 . S
C2590 C2589 1.366 . S
C2590 C2594 1.385 . S
C2591 H2566 0.951 . S
C2591 C2589 1.388 . S
C2591 C2592 1.366 . S
C2592 C2591 1.366 . S
C2592 C2593 1.414 . S
C2592 C2595 1.499 . S
C2593 H2567 0.950 . S
C2593 C2592 1.414 . S
C2593 C2594 1.374 . S
C2594 H2568 0.950 . S
C2594 C2590 1.385 . S
C2594 C2593 1.374 . S
C2595 C2592 1.499 . S
C2595 C2596 1.373 . S
C2595 C2597 1.389 . S
C2596 H2569 0.950 . S
C2596 C2582 1.377 . S
C2596 C2595 1.373 . S
C2597 C2581 1.377 . S
C2597 C2595 1.389 . S
C2597 C2598 1.524 . S
C2598 C2597 1.524 . S
C2598 C2599 1.397 . S
C2598 C2603 1.363 . S
C2599 H2570 0.950 . S
C2599 C2598 1.397 . S
C2599 C2600 1.334 . S
C2600 H2571 0.950 . S
C2600 C2599 1.334 . S
C2600 C2601 1.287 . S
C2601 C2600 1.287 . S
C2601 C2602 1.524 . S
C2601 H2604 0.999 . S
C2602 H2572 0.950 . S
C2602 C2601 1.524 . S
C2602 C2603 1.415 . S
C2603 H2573 0.950 . S
C2603 C2598 1.363 . S
C2603 C2602 1.415 . S
H2604 C2601 0.999 . S
H2605 C2586 0.913 . S
H2606 C2624 0.951 . S
H2607 C2626 0.951 . S
H2608 C2628 0.950 . S
H2609 C2629 0.950 . S
H2610 C2631 0.950 . S
H2611 C2634 0.950 . S
H2612 C2635 0.950 . S
H2613 C2637 0.950 . S
H2614 C2638 0.950 . S
H2615 C2639 0.951 . S
H2616 C2641 0.951 . S
H2617 C2643 0.950 . S
H2618 C2644 0.950 . S
H2619 C2646 0.950 . S
H2620 C2649 0.950 . S
H2621 C2650 0.950 . S
H2622 C2652 0.950 . S
H2623 C2653 0.950 . S
C2624 H2606 0.951 . S
C2624 C2625 1.366 . S
C2624 C2626 1.388 . S
C2625 C2624 1.366 . S
C2625 C2629 1.385 . S
C2626 H2607 0.951 . S
C2626 C2624 1.388 . S
C2626 C2627 1.366 . S
C2627 C2626 1.366 . S
C2627 C2628 1.414 . S
C2627 C2630 1.499 . S
C2628 H2608 0.950 . S
C2628 C2627 1.414 . S
C2628 C2629 1.374 . S
C2629 H2609 0.950 . S
C2629 C2625 1.385 . S
C2629 C2628 1.374 . S
C2630 C2627 1.499 . S
C2630 C2631 1.373 . S
C2630 C2632 1.389 . S
C2631 H2610 0.950 . S
C2631 C2630 1.373 . S
C2631 C2647 1.377 . S
C2632 C2630 1.389 . S
C2632 C2633 1.524 . S
C2632 C2646 1.377 . S
C2633 C2632 1.524 . S
C2633 C2634 1.397 . S
C2633 C2638 1.363 . S
C2634 H2611 0.950 . S
C2634 C2633 1.397 . S
C2634 C2635 1.334 . S
C2635 H2612 0.950 . S
C2635 C2634 1.334 . S
C2635 C2636 1.287 . S
C2636 C2635 1.287 . S
C2636 C2637 1.524 . S
C2636 H2655 0.913 . S
C2637 H2613 0.950 . S
C2637 C2636 1.524 . S
C2637 C2638 1.415 . S
C2638 H2614 0.950 . S
C2638 C2633 1.363 . S
C2638 C2637 1.415 . S
C2639 H2615 0.951 . S
C2639 C2640 1.366 . S
C2639 C2641 1.388 . S
C2640 C2639 1.366 . S
C2640 C2644 1.385 . S
C2641 H2616 0.951 . S
C2641 C2639 1.388 . S
C2641 C2642 1.366 . S
C2642 C2641 1.366 . S
C2642 C2643 1.414 . S
C2642 C2645 1.499 . S
C2643 H2617 0.950 . S
C2643 C2642 1.414 . S
C2643 C2644 1.374 . S
C2644 H2618 0.950 . S
C2644 C2640 1.385 . S
C2644 C2643 1.374 . S
C2645 C2642 1.499 . S
C2645 C2646 1.373 . S
C2645 C2647 1.389 . S
C2646 H2619 0.950 . S
C2646 C2632 1.377 . S
C2646 C2645 1.373 . S
C2647 C2631 1.377 . S
C2647 C2645 1.389 . S
C2647 C2648 1.524 . S
C2648 C2647 1.524 . S
C2648 C2649 1.397 . S
C2648 C2653 1.363 . S
C2649 H2620 0.950 . S
C2649 C2648 1.397 . S
C2649 C2650 1.334 . S
C2650 H2621 0.950 . S
C2650 C2649 1.334 . S
C2650 C2651 1.287 . S
C2651 C2650 1.287 . S
C2651 C2652 1.524 . S
C2651 H2654 0.999 . S
C2652 H2622 0.950 . S
C2652 C2651 1.524 . S
C2652 C2653 1.415 . S
C2653 H2623 0.950 . S
C2653 C2648 1.363 . S
C2653 C2652 1.415 . S
H2654 C2651 0.999 . S
H2655 C2636 0.913 . S
H2656 C2674 0.951 . S
H2657 C2676 0.951 . S
H2658 C2678 0.950 . S
H2659 C2679 0.950 . S
H2660 C2681 0.950 . S
H2661 C2684 0.950 . S
H2662 C2685 0.950 . S
H2663 C2687 0.950 . S
H2664 C2688 0.950 . S
H2665 C2689 0.951 . S
H2666 C2691 0.951 . S
H2667 C2693 0.950 . S
H2668 C2694 0.950 . S
H2669 C2696 0.950 . S
H2670 C2699 0.950 . S
H2671 C2700 0.950 . S
H2672 C2702 0.950 . S
H2673 C2703 0.950 . S
C2674 H2656 0.951 . S
C2674 C2675 1.366 . S
C2674 C2676 1.388 . S
C2675 C2674 1.366 . S
C2675 C2679 1.385 . S
C2676 H2657 0.951 . S
C2676 C2674 1.388 . S
C2676 C2677 1.366 . S
C2677 C2676 1.366 . S
C2677 C2678 1.414 . S
C2677 C2680 1.499 . S
C2678 H2658 0.950 . S
C2678 C2677 1.414 . S
C2678 C2679 1.374 . S
C2679 H2659 0.950 . S
C2679 C2675 1.385 . S
C2679 C2678 1.374 . S
C2680 C2677 1.499 . S
C2680 C2681 1.373 . S
C2680 C2682 1.389 . S
C2681 H2660 0.950 . S
C2681 C2680 1.373 . S
C2681 C2697 1.377 . S
C2682 C2680 1.389 . S
C2682 C2683 1.524 . S
C2682 C2696 1.377 . S
C2683 C2682 1.524 . S
C2683 C2684 1.397 . S
C2683 C2688 1.363 . S
C2684 H2661 0.950 . S
C2684 C2683 1.397 . S
C2684 C2685 1.334 . S
C2685 H2662 0.950 . S
C2685 C2684 1.334 . S
C2685 C2686 1.287 . S
C2686 C2685 1.287 . S
C2686 C2687 1.524 . S
C2686 H2705 0.913 . S
C2687 H2663 0.950 . S
C2687 C2686 1.524 . S
C2687 C2688 1.415 . S
C2688 H2664 0.950 . S
C2688 C2683 1.363 . S
C2688 C2687 1.415 . S
C2689 H2665 0.951 . S
C2689 C2690 1.366 . S
C2689 C2691 1.388 . S
C2690 C2689 1.366 . S
C2690 C2694 1.385 . S
C2691 H2666 0.951 . S
C2691 C2689 1.388 . S
C2691 C2692 1.366 . S
C2692 C2691 1.366 . S
C2692 C2693 1.414 . S
C2692 C2695 1.499 . S
C2693 H2667 0.950 . S
C2693 C2692 1.414 . S
C2693 C2694 1.374 . S
C2694 H2668 0.950 . S
C2694 C2690 1.385 . S
C2694 C2693 1.374 . S
C2695 C2692 1.499 . S
C2695 C2696 1.373 . S
C2695 C2697 1.389 . S
C2696 H2669 0.950 . S
C2696 C2682 1.377 . S
C2696 C2695 1.373 . S
C2697 C2681 1.377 . S
C2697 C2695 1.389 . S
C2697 C2698 1.524 . S
C2698 C2697 1.524 . S
C2698 C2699 1.397 . S
C2698 C2703 1.363 . S
C2699 H2670 0.950 . S
C2699 C2698 1.397 . S
C2699 C2700 1.334 . S
C2700 H2671 0.950 . S
C2700 C2699 1.334 . S
C2700 C2701 1.287 . S
C2701 C2700 1.287 . S
C2701 C2702 1.524 . S
C2701 H2704 0.999 . S
C2702 H2672 0.950 . S
C2702 C2701 1.524 . S
C2702 C2703 1.415 . S
C2703 H2673 0.950 . S
C2703 C2698 1.363 . S
C2703 C2702 1.415 . S
H2704 C2701 0.999 . S
H2705 C2686 0.913 . S
H2706 C2724 0.951 . S
H2707 C2726 0.951 . S
H2708 C2728 0.950 . S
H2709 C2729 0.950 . S
H2710 C2731 0.950 . S
H2711 C2734 0.950 . S
H2712 C2735 0.950 . S
H2713 C2737 0.950 . S
H2714 C2738 0.950 . S
H2715 C2739 0.951 . S
H2716 C2741 0.951 . S
H2717 C2743 0.950 . S
H2718 C2744 0.950 . S
H2719 C2746 0.950 . S
H2720 C2749 0.950 . S
H2721 C2750 0.950 . S
H2722 C2752 0.950 . S
H2723 C2753 0.950 . S
C2724 H2706 0.951 . S
C2724 C2725 1.366 . S
C2724 C2726 1.388 . S
C2725 C2724 1.366 . S
C2725 C2729 1.385 . S
C2726 H2707 0.951 . S
C2726 C2724 1.388 . S
C2726 C2727 1.366 . S
C2727 C2726 1.366 . S
C2727 C2728 1.414 . S
C2727 C2730 1.499 . S
C2728 H2708 0.950 . S
C2728 C2727 1.414 . S
C2728 C2729 1.374 . S
C2729 H2709 0.950 . S
C2729 C2725 1.385 . S
C2729 C2728 1.374 . S
C2730 C2727 1.499 . S
C2730 C2731 1.373 . S
C2730 C2732 1.389 . S
C2731 H2710 0.950 . S
C2731 C2730 1.373 . S
C2731 C2747 1.377 . S
C2732 C2730 1.389 . S
C2732 C2733 1.524 . S
C2732 C2746 1.377 . S
C2733 C2732 1.524 . S
C2733 C2734 1.397 . S
C2733 C2738 1.363 . S
C2734 H2711 0.950 . S
C2734 C2733 1.397 . S
C2734 C2735 1.334 . S
C2735 H2712 0.950 . S
C2735 C2734 1.334 . S
C2735 C2736 1.287 . S
C2736 C2735 1.287 . S
C2736 C2737 1.524 . S
C2736 H2755 0.913 . S
C2737 H2713 0.950 . S
C2737 C2736 1.524 . S
C2737 C2738 1.415 . S
C2738 H2714 0.950 . S
C2738 C2733 1.363 . S
C2738 C2737 1.415 . S
C2739 H2715 0.951 . S
C2739 C2740 1.366 . S
C2739 C2741 1.388 . S
C2740 C2739 1.366 . S
C2740 C2744 1.385 . S
C2741 H2716 0.951 . S
C2741 C2739 1.388 . S
C2741 C2742 1.366 . S
C2742 C2741 1.366 . S
C2742 C2743 1.414 . S
C2742 C2745 1.499 . S
C2743 H2717 0.950 . S
C2743 C2742 1.414 . S
C2743 C2744 1.374 . S
C2744 H2718 0.950 . S
C2744 C2740 1.385 . S
C2744 C2743 1.374 . S
C2745 C2742 1.499 . S
C2745 C2746 1.373 . S
C2745 C2747 1.389 . S
C2746 H2719 0.950 . S
C2746 C2732 1.377 . S
C2746 C2745 1.373 . S
C2747 C2731 1.377 . S
C2747 C2745 1.389 . S
C2747 C2748 1.524 . S
C2748 C2747 1.524 . S
C2748 C2749 1.397 . S
C2748 C2753 1.363 . S
C2749 H2720 0.950 . S
C2749 C2748 1.397 . S
C2749 C2750 1.334 . S
C2750 H2721 0.950 . S
C2750 C2749 1.334 . S
C2750 C2751 1.287 . S
C2751 C2750 1.287 . S
C2751 C2752 1.524 . S
C2751 H2754 0.999 . S
C2752 H2722 0.950 . S
C2752 C2751 1.524 . S
C2752 C2753 1.415 . S
C2753 H2723 0.950 . S
C2753 C2748 1.363 . S
C2753 C2752 1.415 . S
H2754 C2751 0.999 . S
H2755 C2736 0.913 . S
H2756 C2774 0.951 . S
H2757 C2776 0.951 . S
H2758 C2778 0.950 . S
H2759 C2779 0.950 . S
H2760 C2781 0.950 . S
H2761 C2784 0.950 . S
H2762 C2785 0.950 . S
H2763 C2787 0.950 . S
H2764 C2788 0.950 . S
H2765 C2789 0.951 . S
H2766 C2791 0.951 . S
H2767 C2793 0.950 . S
H2768 C2794 0.950 . S
H2769 C2796 0.950 . S
H2770 C2799 0.950 . S
H2771 C2800 0.950 . S
H2772 C2802 0.950 . S
H2773 C2803 0.950 . S
C2774 H2756 0.951 . S
C2774 C2775 1.366 . S
C2774 C2776 1.388 . S
C2775 C2774 1.366 . S
C2775 C2779 1.385 . S
C2776 H2757 0.951 . S
C2776 C2774 1.388 . S
C2776 C2777 1.366 . S
C2777 C2776 1.366 . S
C2777 C2778 1.414 . S
C2777 C2780 1.499 . S
C2778 H2758 0.950 . S
C2778 C2777 1.414 . S
C2778 C2779 1.374 . S
C2779 H2759 0.950 . S
C2779 C2775 1.385 . S
C2779 C2778 1.374 . S
C2780 C2777 1.499 . S
C2780 C2781 1.373 . S
C2780 C2782 1.389 . S
C2781 H2760 0.950 . S
C2781 C2780 1.373 . S
C2781 C2797 1.377 . S
C2782 C2780 1.389 . S
C2782 C2783 1.524 . S
C2782 C2796 1.377 . S
C2783 C2782 1.524 . S
C2783 C2784 1.397 . S
C2783 C2788 1.363 . S
C2784 H2761 0.950 . S
C2784 C2783 1.397 . S
C2784 C2785 1.334 . S
C2785 H2762 0.950 . S
C2785 C2784 1.334 . S
C2785 C2786 1.287 . S
C2786 C2785 1.287 . S
C2786 C2787 1.524 . S
C2786 H2805 0.913 . S
C2787 H2763 0.950 . S
C2787 C2786 1.524 . S
C2787 C2788 1.415 . S
C2788 H2764 0.950 . S
C2788 C2783 1.363 . S
C2788 C2787 1.415 . S
C2789 H2765 0.951 . S
C2789 C2790 1.366 . S
C2789 C2791 1.388 . S
C2790 C2789 1.366 . S
C2790 C2794 1.385 . S
C2791 H2766 0.951 . S
C2791 C2789 1.388 . S
C2791 C2792 1.366 . S
C2792 C2791 1.366 . S
C2792 C2793 1.414 . S
C2792 C2795 1.499 . S
C2793 H2767 0.950 . S
C2793 C2792 1.414 . S
C2793 C2794 1.374 . S
C2794 H2768 0.950 . S
C2794 C2790 1.385 . S
C2794 C2793 1.374 . S
C2795 C2792 1.499 . S
C2795 C2796 1.373 . S
C2795 C2797 1.389 . S
C2796 H2769 0.950 . S
C2796 C2782 1.377 . S
C2796 C2795 1.373 . S
C2797 C2781 1.377 . S
C2797 C2795 1.389 . S
C2797 C2798 1.524 . S
C2798 C2797 1.524 . S
C2798 C2799 1.397 . S
C2798 C2803 1.363 . S
C2799 H2770 0.950 . S
C2799 C2798 1.397 . S
C2799 C2800 1.334 . S
C2800 H2771 0.950 . S
C2800 C2799 1.334 . S
C2800 C2801 1.287 . S
C2801 C2800 1.287 . S
C2801 C2802 1.524 . S
C2801 H2804 0.999 . S
C2802 H2772 0.950 . S
C2802 C2801 1.524 . S
C2802 C2803 1.415 . S
C2803 H2773 0.950 . S
C2803 C2798 1.363 . S
C2803 C2802 1.415 . S
H2804 C2801 0.999 . S
H2805 C2786 0.913 . S
H2806 C2824 0.951 . S
H2807 C2826 0.951 . S
H2808 C2828 0.950 . S
H2809 C2829 0.950 . S
H2810 C2831 0.950 . S
H2811 C2834 0.950 . S
H2812 C2835 0.950 . S
H2813 C2837 0.950 . S
H2814 C2838 0.950 . S
H2815 C2839 0.951 . S
H2816 C2841 0.951 . S
H2817 C2843 0.950 . S
H2818 C2844 0.950 . S
H2819 C2846 0.950 . S
H2820 C2849 0.950 . S
H2821 C2850 0.950 . S
H2822 C2852 0.950 . S
H2823 C2853 0.950 . S
C2824 H2806 0.951 . S
C2824 C2825 1.366 . S
C2824 C2826 1.388 . S
C2825 C2824 1.366 . S
C2825 C2829 1.385 . S
C2826 H2807 0.951 . S
C2826 C2824 1.388 . S
C2826 C2827 1.366 . S
C2827 C2826 1.366 . S
C2827 C2828 1.414 . S
C2827 C2830 1.499 . S
C2828 H2808 0.950 . S
C2828 C2827 1.414 . S
C2828 C2829 1.374 . S
C2829 H2809 0.950 . S
C2829 C2825 1.385 . S
C2829 C2828 1.374 . S
C2830 C2827 1.499 . S
C2830 C2831 1.373 . S
C2830 C2832 1.389 . S
C2831 H2810 0.950 . S
C2831 C2830 1.373 . S
C2831 C2847 1.377 . S
C2832 C2830 1.389 . S
C2832 C2833 1.524 . S
C2832 C2846 1.377 . S
C2833 C2832 1.524 . S
C2833 C2834 1.397 . S
C2833 C2838 1.363 . S
C2834 H2811 0.950 . S
C2834 C2833 1.397 . S
C2834 C2835 1.334 . S
C2835 H2812 0.950 . S
C2835 C2834 1.334 . S
C2835 C2836 1.287 . S
C2836 C2835 1.287 . S
C2836 C2837 1.524 . S
C2836 H2855 0.913 . S
C2837 H2813 0.950 . S
C2837 C2836 1.524 . S
C2837 C2838 1.415 . S
C2838 H2814 0.950 . S
C2838 C2833 1.363 . S
C2838 C2837 1.415 . S
C2839 H2815 0.951 . S
C2839 C2840 1.366 . S
C2839 C2841 1.388 . S
C2840 C2839 1.366 . S
C2840 C2844 1.385 . S
C2841 H2816 0.951 . S
C2841 C2839 1.388 . S
C2841 C2842 1.366 . S
C2842 C2841 1.366 . S
C2842 C2843 1.414 . S
C2842 C2845 1.499 . S
C2843 H2817 0.950 . S
C2843 C2842 1.414 . S
C2843 C2844 1.374 . S
C2844 H2818 0.950 . S
C2844 C2840 1.385 . S
C2844 C2843 1.374 . S
C2845 C2842 1.499 . S
C2845 C2846 1.373 . S
C2845 C2847 1.389 . S
C2846 H2819 0.950 . S
C2846 C2832 1.377 . S
C2846 C2845 1.373 . S
C2847 C2831 1.377 . S
C2847 C2845 1.389 . S
C2847 C2848 1.524 . S
C2848 C2847 1.524 . S
C2848 C2849 1.397 . S
C2848 C2853 1.363 . S
C2849 H2820 0.950 . S
C2849 C2848 1.397 . S
C2849 C2850 1.334 . S
C2850 H2821 0.950 . S
C2850 C2849 1.334 . S
C2850 C2851 1.287 . S
C2851 C2850 1.287 . S
C2851 C2852 1.524 . S
C2851 H2854 0.999 . S
C2852 H2822 0.950 . S
C2852 C2851 1.524 . S
C2852 C2853 1.415 . S
C2853 H2823 0.950 . S
C2853 C2848 1.363 . S
C2853 C2852 1.415 . S
H2854 C2851 0.999 . S
H2855 C2836 0.913 . S
H2856 C2874 0.951 . S
H2857 C2876 0.951 . S
H2858 C2878 0.950 . S
H2859 C2879 0.950 . S
H2860 C2881 0.950 . S
H2861 C2884 0.950 . S
H2862 C2885 0.950 . S
H2863 C2887 0.950 . S
H2864 C2888 0.950 . S
H2865 C2889 0.951 . S
H2866 C2891 0.951 . S
H2867 C2893 0.950 . S
H2868 C2894 0.950 . S
H2869 C2896 0.950 . S
H2870 C2899 0.950 . S
H2871 C2900 0.950 . S
H2872 C2902 0.950 . S
H2873 C2903 0.953 . S
C2874 H2856 0.951 . S
C2874 C2875 1.366 . S
C2874 C2876 1.388 . S
C2875 C2874 1.366 . S
C2875 C2879 1.385 . S
C2876 H2857 0.951 . S
C2876 C2874 1.388 . S
C2876 C2877 1.366 . S
C2877 C2876 1.366 . S
C2877 C2878 1.414 . S
C2877 C2880 1.499 . S
C2878 H2858 0.950 . S
C2878 C2877 1.414 . S
C2878 C2879 1.374 . S
C2879 H2859 0.950 . S
C2879 C2875 1.385 . S
C2879 C2878 1.374 . S
C2880 C2877 1.499 . S
C2880 C2881 1.373 . S
C2880 C2882 1.389 . S
C2881 H2860 0.950 . S
C2881 C2880 1.373 . S
C2881 C2897 1.377 . S
C2882 C2880 1.389 . S
C2882 C2883 1.524 . S
C2882 C2896 1.377 . S
C2883 C2882 1.524 . S
C2883 C2884 1.397 . S
C2883 C2888 1.363 . S
C2884 H2861 0.950 . S
C2884 C2883 1.397 . S
C2884 C2885 1.334 . S
C2885 H2862 0.950 . S
C2885 C2884 1.334 . S
C2885 C2886 1.287 . S
C2886 C2885 1.287 . S
C2886 C2887 1.524 . S
C2886 H2905 0.913 . S
C2887 H2863 0.950 . S
C2887 C2886 1.524 . S
C2887 C2888 1.415 . S
C2888 H2864 0.950 . S
C2888 C2883 1.363 . S
C2888 C2887 1.415 . S
C2889 H2865 0.951 . S
C2889 C2890 1.366 . S
C2889 C2891 1.388 . S
C2890 C2889 1.366 . S
C2890 C2894 1.385 . S
C2891 H2866 0.951 . S
C2891 C2889 1.388 . S
C2891 C2892 1.366 . S
C2892 C2891 1.366 . S
C2892 C2893 1.414 . S
C2892 C2895 1.499 . S
C2893 H2867 0.950 . S
C2893 C2892 1.414 . S
C2893 C2894 1.374 . S
C2894 H2868 0.950 . S
C2894 C2890 1.385 . S
C2894 C2893 1.374 . S
C2895 C2892 1.499 . S
C2895 C2896 1.373 . S
C2895 C2897 1.389 . S
C2896 H2869 0.950 . S
C2896 C2882 1.377 . S
C2896 C2895 1.373 . S
C2897 C2881 1.377 . S
C2897 C2895 1.389 . S
C2897 C2898 1.524 . S
C2898 C2897 1.524 . S
C2898 C2899 1.397 . S
C2898 C2903 1.349 1_455 S
C2899 H2870 0.950 . S
C2899 C2898 1.397 . S
C2899 C2900 1.334 . S
C2900 H2871 0.950 . S
C2900 C2899 1.334 . S
C2900 C2901 1.287 1_455 S
C2901 C2900 1.287 1_655 S
C2901 C2902 1.524 . S
C2901 H2904 0.999 . S
C2902 H2872 0.950 . S
C2902 C2901 1.524 . S
C2902 C2903 1.426 . S
C2903 H2873 0.953 . S
C2903 C2898 1.349 1_655 S
C2903 C2902 1.426 . S
H2904 C2901 0.999 . S
H2905 C2886 0.913 . S
H2906 C2924 0.951 . S
H2907 C2926 0.951 . S
H2908 C2928 0.950 . S
H2909 C2929 0.950 . S
H2910 C2931 0.950 . S
H2911 C2934 0.950 . S
H2912 C2935 0.950 . S
H2913 C2937 0.950 . S
H2914 C2938 0.950 . S
H2915 C2939 0.951 . S
H2916 C2941 0.951 . S
H2917 C2943 0.950 . S
H2918 C2944 0.950 . S
H2919 C2946 0.950 . S
H2920 C2949 0.950 . S
H2921 C2950 0.950 . S
H2922 C2952 0.950 . S
H2923 C2953 0.950 . S
C2924 H2906 0.951 . S
C2924 C2925 1.366 . S
C2924 C2926 1.388 . S
C2925 C2924 1.366 . S
C2925 C2929 1.385 . S
C2926 H2907 0.951 . S
C2926 C2924 1.388 . S
C2926 C2927 1.366 . S
C2927 C2926 1.366 . S
C2927 C2928 1.414 . S
C2927 C2930 1.499 . S
C2928 H2908 0.950 . S
C2928 C2927 1.414 . S
C2928 C2929 1.374 . S
C2929 H2909 0.950 . S
C2929 C2925 1.385 . S
C2929 C2928 1.374 . S
C2930 C2927 1.499 . S
C2930 C2931 1.373 . S
C2930 C2932 1.389 . S
C2931 H2910 0.950 . S
C2931 C2930 1.373 . S
C2931 C2947 1.377 . S
C2932 C2930 1.389 . S
C2932 C2933 1.524 . S
C2932 C2946 1.377 . S
C2933 C2932 1.524 . S
C2933 C2934 1.397 . S
C2933 C2938 1.363 . S
C2934 H2911 0.950 . S
C2934 C2933 1.397 . S
C2934 C2935 1.334 . S
C2935 H2912 0.950 . S
C2935 C2934 1.334 . S
C2935 C2936 1.287 . S
C2936 C2935 1.287 . S
C2936 C2937 1.524 . S
C2936 H2955 0.913 . S
C2937 H2913 0.950 . S
C2937 C2936 1.524 . S
C2937 C2938 1.415 . S
C2938 H2914 0.950 . S
C2938 C2933 1.363 . S
C2938 C2937 1.415 . S
C2939 H2915 0.951 . S
C2939 C2940 1.366 . S
C2939 C2941 1.388 . S
C2940 C2939 1.366 . S
C2940 C2944 1.385 . S
C2941 H2916 0.951 . S
C2941 C2939 1.388 . S
C2941 C2942 1.366 . S
C2942 C2941 1.366 . S
C2942 C2943 1.414 . S
C2942 C2945 1.499 . S
C2943 H2917 0.950 . S
C2943 C2942 1.414 . S
C2943 C2944 1.374 . S
C2944 H2918 0.950 . S
C2944 C2940 1.385 . S
C2944 C2943 1.374 . S
C2945 C2942 1.499 . S
C2945 C2946 1.373 . S
C2945 C2947 1.389 . S
C2946 H2919 0.950 . S
C2946 C2932 1.377 . S
C2946 C2945 1.373 . S
C2947 C2931 1.377 . S
C2947 C2945 1.389 . S
C2947 C2948 1.524 . S
C2948 C2947 1.524 . S
C2948 C2949 1.397 . S
C2948 C2953 1.363 . S
C2949 H2920 0.950 . S
C2949 C2948 1.397 . S
C2949 C2950 1.334 . S
C2950 H2921 0.950 . S
C2950 C2949 1.334 . S
C2950 C2951 1.287 . S
C2951 C2950 1.287 . S
C2951 C2952 1.524 . S
C2951 H2954 0.999 . S
C2952 H2922 0.950 . S
C2952 C2951 1.524 . S
C2952 C2953 1.415 . S
C2953 H2923 0.950 . S
C2953 C2948 1.363 . S
C2953 C2952 1.415 . S
H2954 C2951 0.999 . S
H2955 C2936 0.913 . S
H2956 C2974 0.951 . S
H2957 C2976 0.951 . S
H2958 C2978 0.950 . S
H2959 C2979 0.950 . S
H2960 C2981 0.950 . S
H2961 C2984 0.950 . S
H2962 C2985 0.950 . S
H2963 C2987 0.950 . S
H2964 C2988 0.950 . S
H2965 C2989 0.951 . S
H2966 C2991 0.951 . S
H2967 C2993 0.950 . S
H2968 C2994 0.950 . S
H2969 C2996 0.950 . S
H2970 C2999 0.950 . S
H2971 C3000 0.950 . S
H2972 C3002 0.950 . S
H2973 C3003 0.950 . S
C2974 H2956 0.951 . S
C2974 C2975 1.366 . S
C2974 C2976 1.388 . S
C2975 C2974 1.366 . S
C2975 C2979 1.385 . S
C2976 H2957 0.951 . S
C2976 C2974 1.388 . S
C2976 C2977 1.366 . S
C2977 C2976 1.366 . S
C2977 C2978 1.414 . S
C2977 C2980 1.499 . S
C2978 H2958 0.950 . S
C2978 C2977 1.414 . S
C2978 C2979 1.374 . S
C2979 H2959 0.950 . S
C2979 C2975 1.385 . S
C2979 C2978 1.374 . S
C2980 C2977 1.499 . S
C2980 C2981 1.373 . S
C2980 C2982 1.389 . S
C2981 H2960 0.950 . S
C2981 C2980 1.373 . S
C2981 C2997 1.377 . S
C2982 C2980 1.389 . S
C2982 C2983 1.524 . S
C2982 C2996 1.377 . S
C2983 C2982 1.524 . S
C2983 C2984 1.397 . S
C2983 C2988 1.363 . S
C2984 H2961 0.950 . S
C2984 C2983 1.397 . S
C2984 C2985 1.334 . S
C2985 H2962 0.950 . S
C2985 C2984 1.334 . S
C2985 C2986 1.287 . S
C2986 C2985 1.287 . S
C2986 C2987 1.524 . S
C2986 H3005 0.913 . S
C2987 H2963 0.950 . S
C2987 C2986 1.524 . S
C2987 C2988 1.415 . S
C2988 H2964 0.950 . S
C2988 C2983 1.363 . S
C2988 C2987 1.415 . S
C2989 H2965 0.951 . S
C2989 C2990 1.366 . S
C2989 C2991 1.388 . S
C2990 C2989 1.366 . S
C2990 C2994 1.385 . S
C2991 H2966 0.951 . S
C2991 C2989 1.388 . S
C2991 C2992 1.366 . S
C2992 C2991 1.366 . S
C2992 C2993 1.414 . S
C2992 C2995 1.499 . S
C2993 H2967 0.950 . S
C2993 C2992 1.414 . S
C2993 C2994 1.374 . S
C2994 H2968 0.950 . S
C2994 C2990 1.385 . S
C2994 C2993 1.374 . S
C2995 C2992 1.499 . S
C2995 C2996 1.373 . S
C2995 C2997 1.389 . S
C2996 H2969 0.950 . S
C2996 C2982 1.377 . S
C2996 C2995 1.373 . S
C2997 C2981 1.377 . S
C2997 C2995 1.389 . S
C2997 C2998 1.524 . S
C2998 C2997 1.524 . S
C2998 C2999 1.397 . S
C2998 C3003 1.363 . S
C2999 H2970 0.950 . S
C2999 C2998 1.397 . S
C2999 C3000 1.334 . S
C3000 H2971 0.950 . S
C3000 C2999 1.334 . S
C3000 C3001 1.287 . S
C3001 C3000 1.287 . S
C3001 C3002 1.524 . S
C3001 H3004 0.999 . S
C3002 H2972 0.950 . S
C3002 C3001 1.524 . S
C3002 C3003 1.415 . S
C3003 H2973 0.950 . S
C3003 C2998 1.363 . S
C3003 C3002 1.415 . S
H3004 C3001 0.999 . S
H3005 C2986 0.913 . S
H3006 C3024 0.951 . S
H3007 C3026 0.951 . S
H3008 C3028 0.950 . S
H3009 C3029 0.950 . S
H3010 C3031 0.950 . S
H3011 C3034 0.950 . S
H3012 C3035 0.950 . S
H3013 C3037 0.950 . S
H3014 C3038 0.950 . S
H3015 C3039 0.951 . S
H3016 C3041 0.951 . S
H3017 C3043 0.950 . S
H3018 C3044 0.950 . S
H3019 C3046 0.950 . S
H3020 C3049 0.950 . S
H3021 C3050 0.950 . S
H3022 C3052 0.950 . S
H3023 C3053 0.950 . S
C3024 H3006 0.951 . S
C3024 C3025 1.366 . S
C3024 C3026 1.388 . S
C3025 C3024 1.366 . S
C3025 C3029 1.385 . S
C3026 H3007 0.951 . S
C3026 C3024 1.388 . S
C3026 C3027 1.366 . S
C3027 C3026 1.366 . S
C3027 C3028 1.414 . S
C3027 C3030 1.499 . S
C3028 H3008 0.950 . S
C3028 C3027 1.414 . S
C3028 C3029 1.374 . S
C3029 H3009 0.950 . S
C3029 C3025 1.385 . S
C3029 C3028 1.374 . S
C3030 C3027 1.499 . S
C3030 C3031 1.373 . S
C3030 C3032 1.389 . S
C3031 H3010 0.950 . S
C3031 C3030 1.373 . S
C3031 C3047 1.377 . S
C3032 C3030 1.389 . S
C3032 C3033 1.524 . S
C3032 C3046 1.377 . S
C3033 C3032 1.524 . S
C3033 C3034 1.397 . S
C3033 C3038 1.363 . S
C3034 H3011 0.950 . S
C3034 C3033 1.397 . S
C3034 C3035 1.334 . S
C3035 H3012 0.950 . S
C3035 C3034 1.334 . S
C3035 C3036 1.287 . S
C3036 C3035 1.287 . S
C3036 C3037 1.524 . S
C3036 H3055 0.913 . S
C3037 H3013 0.950 . S
C3037 C3036 1.524 . S
C3037 C3038 1.415 . S
C3038 H3014 0.950 . S
C3038 C3033 1.363 . S
C3038 C3037 1.415 . S
C3039 H3015 0.951 . S
C3039 C3040 1.366 . S
C3039 C3041 1.388 . S
C3040 C3039 1.366 . S
C3040 C3044 1.385 . S
C3041 H3016 0.951 . S
C3041 C3039 1.388 . S
C3041 C3042 1.366 . S
C3042 C3041 1.366 . S
C3042 C3043 1.414 . S
C3042 C3045 1.499 . S
C3043 H3017 0.950 . S
C3043 C3042 1.414 . S
C3043 C3044 1.374 . S
C3044 H3018 0.950 . S
C3044 C3040 1.385 . S
C3044 C3043 1.374 . S
C3045 C3042 1.499 . S
C3045 C3046 1.373 . S
C3045 C3047 1.389 . S
C3046 H3019 0.950 . S
C3046 C3032 1.377 . S
C3046 C3045 1.373 . S
C3047 C3031 1.377 . S
C3047 C3045 1.389 . S
C3047 C3048 1.524 . S
C3048 C3047 1.524 . S
C3048 C3049 1.397 . S
C3048 C3053 1.363 . S
C3049 H3020 0.950 . S
C3049 C3048 1.397 . S
C3049 C3050 1.334 . S
C3050 H3021 0.950 . S
C3050 C3049 1.334 . S
C3050 C3051 1.287 . S
C3051 C3050 1.287 . S
C3051 C3052 1.524 . S
C3051 H3054 0.999 . S
C3052 H3022 0.950 . S
C3052 C3051 1.524 . S
C3052 C3053 1.415 . S
C3053 H3023 0.950 . S
C3053 C3048 1.363 . S
C3053 C3052 1.415 . S
H3054 C3051 0.999 . S
H3055 C3036 0.913 . S
H3056 C3074 0.951 . S
H3057 C3076 0.951 . S
H3058 C3078 0.950 . S
H3059 C3079 0.950 . S
H3060 C3081 0.950 . S
H3061 C3084 0.950 . S
H3062 C3085 0.950 . S
H3063 C3087 0.950 . S
H3064 C3088 0.950 . S
H3065 C3089 0.951 . S
H3066 C3091 0.951 . S
H3067 C3093 0.950 . S
H3068 C3094 0.950 . S
H3069 C3096 0.950 . S
H3070 C3099 0.950 1_455 S
H3071 C3100 0.950 . S
H3072 C3102 0.950 . S
H3073 C3103 0.950 . S
C3074 H3056 0.951 . S
C3074 C3075 1.366 . S
C3074 C3076 1.388 . S
C3075 C3074 1.366 . S
C3075 C3079 1.385 . S
C3076 H3057 0.951 . S
C3076 C3074 1.388 . S
C3076 C3077 1.366 . S
C3077 C3076 1.366 . S
C3077 C3078 1.414 . S
C3077 C3080 1.499 . S
C3078 H3058 0.950 . S
C3078 C3077 1.414 . S
C3078 C3079 1.374 . S
C3079 H3059 0.950 . S
C3079 C3075 1.385 . S
C3079 C3078 1.374 . S
C3080 C3077 1.499 . S
C3080 C3081 1.373 . S
C3080 C3082 1.389 . S
C3081 H3060 0.950 . S
C3081 C3080 1.373 . S
C3081 C3097 1.377 . S
C3082 C3080 1.389 . S
C3082 C3083 1.524 . S
C3082 C3096 1.377 . S
C3083 C3082 1.524 . S
C3083 C3084 1.397 . S
C3083 C3088 1.363 . S
C3084 H3061 0.950 . S
C3084 C3083 1.397 . S
C3084 C3085 1.334 . S
C3085 H3062 0.950 . S
C3085 C3084 1.334 . S
C3085 C3086 1.287 . S
C3086 C3085 1.287 . S
C3086 C3087 1.524 . S
C3086 H3105 0.913 . S
C3087 H3063 0.950 . S
C3087 C3086 1.524 . S
C3087 C3088 1.415 . S
C3088 H3064 0.950 . S
C3088 C3083 1.363 . S
C3088 C3087 1.415 . S
C3089 H3065 0.951 . S
C3089 C3090 1.366 . S
C3089 C3091 1.388 . S
C3090 C3089 1.366 . S
C3090 C3094 1.385 . S
C3091 H3066 0.951 . S
C3091 C3089 1.388 . S
C3091 C3092 1.366 . S
C3092 C3091 1.366 . S
C3092 C3093 1.414 . S
C3092 C3095 1.499 . S
C3093 H3067 0.950 . S
C3093 C3092 1.414 . S
C3093 C3094 1.374 . S
C3094 H3068 0.950 . S
C3094 C3090 1.385 . S
C3094 C3093 1.374 . S
C3095 C3092 1.499 . S
C3095 C3096 1.373 . S
C3095 C3097 1.389 . S
C3096 H3069 0.950 . S
C3096 C3082 1.377 . S
C3096 C3095 1.373 . S
C3097 C3081 1.377 . S
C3097 C3095 1.389 . S
C3097 C3098 1.470 1_455 S
C3098 C3097 1.470 1_655 S
C3098 C3099 1.414 . S
C3098 C3103 1.402 . S
C3099 H3070 0.950 1_655 S
C3099 C3098 1.414 . S
C3099 C3100 1.334 . S
C3100 H3071 0.950 . S
C3100 C3099 1.334 . S
C3100 C3101 1.287 . S
C3101 C3100 1.287 . S
C3101 C3102 1.524 . S
C3101 H3104 0.999 . S
C3102 H3072 0.950 . S
C3102 C3101 1.524 . S
C3102 C3103 1.415 . S
C3103 H3073 0.950 . S
C3103 C3098 1.402 . S
C3103 C3102 1.415 . S
H3104 C3101 0.999 . S
H3105 C3086 0.913 . S
H3106 C3124 0.951 . S
H3107 C3126 0.951 . S
H3108 C3128 0.950 . S
H3109 C3129 0.950 . S
H3110 C3131 0.950 . S
H3111 C3134 0.950 . S
H3112 C3135 0.950 . S
H3113 C3137 0.950 . S
H3114 C3138 0.950 . S
H3115 C3139 0.951 . S
H3116 C3141 0.951 . S
H3117 C3143 0.950 . S
H3118 C3144 0.950 . S
H3119 C3146 0.950 . S
H3120 C3149 0.950 . S
H3121 C3150 0.950 . S
H3122 C3152 0.950 . S
H3123 C3153 0.950 . S
C3124 H3106 0.951 . S
C3124 C3125 1.366 . S
C3124 C3126 1.388 . S
C3125 C3124 1.366 . S
C3125 C3129 1.385 . S
C3126 H3107 0.951 . S
C3126 C3124 1.388 . S
C3126 C3127 1.366 . S
C3127 C3126 1.366 . S
C3127 C3128 1.414 . S
C3127 C3130 1.499 . S
C3128 H3108 0.950 . S
C3128 C3127 1.414 . S
C3128 C3129 1.374 . S
C3129 H3109 0.950 . S
C3129 C3125 1.385 . S
C3129 C3128 1.374 . S
C3130 C3127 1.499 . S
C3130 C3131 1.373 . S
C3130 C3132 1.389 . S
C3131 H3110 0.950 . S
C3131 C3130 1.373 . S
C3131 C3147 1.377 . S
C3132 C3130 1.389 . S
C3132 C3133 1.524 . S
C3132 C3146 1.377 . S
C3133 C3132 1.524 . S
C3133 C3134 1.397 . S
C3133 C3138 1.363 . S
C3134 H3111 0.950 . S
C3134 C3133 1.397 . S
C3134 C3135 1.334 . S
C3135 H3112 0.950 . S
C3135 C3134 1.334 . S
C3135 C3136 1.287 . S
C3136 C3135 1.287 . S
C3136 C3137 1.524 . S
C3136 H3155 0.913 . S
C3137 H3113 0.950 . S
C3137 C3136 1.524 . S
C3137 C3138 1.415 . S
C3138 H3114 0.950 . S
C3138 C3133 1.363 . S
C3138 C3137 1.415 . S
C3139 H3115 0.951 . S
C3139 C3140 1.366 . S
C3139 C3141 1.388 . S
C3140 C3139 1.366 . S
C3140 C3144 1.385 . S
C3141 H3116 0.951 . S
C3141 C3139 1.388 . S
C3141 C3142 1.366 . S
C3142 C3141 1.366 . S
C3142 C3143 1.414 . S
C3142 C3145 1.499 . S
C3143 H3117 0.950 . S
C3143 C3142 1.414 . S
C3143 C3144 1.374 . S
C3144 H3118 0.950 . S
C3144 C3140 1.385 . S
C3144 C3143 1.374 . S
C3145 C3142 1.499 . S
C3145 C3146 1.373 . S
C3145 C3147 1.389 . S
C3146 H3119 0.950 . S
C3146 C3132 1.377 . S
C3146 C3145 1.373 . S
C3147 C3131 1.377 . S
C3147 C3145 1.389 . S
C3147 C3148 1.524 . S
C3148 C3147 1.524 . S
C3148 C3149 1.397 . S
C3148 C3153 1.363 . S
C3149 H3120 0.950 . S
C3149 C3148 1.397 . S
C3149 C3150 1.334 . S
C3150 H3121 0.950 . S
C3150 C3149 1.334 . S
C3150 C3151 1.287 . S
C3151 C3150 1.287 . S
C3151 C3152 1.524 . S
C3151 H3154 0.999 . S
C3152 H3122 0.950 . S
C3152 C3151 1.524 . S
C3152 C3153 1.415 . S
C3153 H3123 0.950 . S
C3153 C3148 1.363 . S
C3153 C3152 1.415 . S
H3154 C3151 0.999 . S
H3155 C3136 0.913 . S
H3156 C3174 0.951 . S
H3157 C3176 0.951 . S
H3158 C3178 0.950 . S
H3159 C3179 0.950 . S
H3160 C3181 0.950 . S
H3161 C3184 0.950 . S
H3162 C3185 0.950 . S
H3163 C3187 0.950 . S
H3164 C3188 0.950 . S
H3165 C3189 0.951 . S
H3166 C3191 0.951 . S
H3167 C3193 0.950 . S
H3168 C3194 0.950 . S
H3169 C3196 0.950 . S
H3170 C3199 0.950 . S
H3171 C3200 0.950 . S
H3172 C3202 0.950 . S
H3173 C3203 0.950 . S
C3174 H3156 0.951 . S
C3174 C3175 1.366 . S
C3174 C3176 1.388 . S
C3175 C3174 1.366 . S
C3175 C3179 1.385 . S
C3176 H3157 0.951 . S
C3176 C3174 1.388 . S
C3176 C3177 1.366 . S
C3177 C3176 1.366 . S
C3177 C3178 1.414 . S
C3177 C3180 1.499 . S
C3178 H3158 0.950 . S
C3178 C3177 1.414 . S
C3178 C3179 1.374 . S
C3179 H3159 0.950 . S
C3179 C3175 1.385 . S
C3179 C3178 1.374 . S
C3180 C3177 1.499 . S
C3180 C3181 1.373 . S
C3180 C3182 1.389 . S
C3181 H3160 0.950 . S
C3181 C3180 1.373 . S
C3181 C3197 1.377 . S
C3182 C3180 1.389 . S
C3182 C3183 1.524 . S
C3182 C3196 1.377 . S
C3183 C3182 1.524 . S
C3183 C3184 1.397 . S
C3183 C3188 1.363 . S
C3184 H3161 0.950 . S
C3184 C3183 1.397 . S
C3184 C3185 1.334 . S
C3185 H3162 0.950 . S
C3185 C3184 1.334 . S
C3185 C3186 1.287 . S
C3186 C3185 1.287 . S
C3186 C3187 1.524 . S
C3186 H3205 0.913 . S
C3187 H3163 0.950 . S
C3187 C3186 1.524 . S
C3187 C3188 1.415 . S
C3188 H3164 0.950 . S
C3188 C3183 1.363 . S
C3188 C3187 1.415 . S
C3189 H3165 0.951 . S
C3189 C3190 1.366 . S
C3189 C3191 1.388 . S
C3190 C3189 1.366 . S
C3190 C3194 1.385 . S
C3191 H3166 0.951 . S
C3191 C3189 1.388 . S
C3191 C3192 1.366 . S
C3192 C3191 1.366 . S
C3192 C3193 1.414 . S
C3192 C3195 1.499 . S
C3193 H3167 0.950 . S
C3193 C3192 1.414 . S
C3193 C3194 1.374 . S
C3194 H3168 0.950 . S
C3194 C3190 1.385 . S
C3194 C3193 1.374 . S
C3195 C3192 1.499 . S
C3195 C3196 1.373 . S
C3195 C3197 1.389 . S
C3196 H3169 0.950 . S
C3196 C3182 1.377 . S
C3196 C3195 1.373 . S
C3197 C3181 1.377 . S
C3197 C3195 1.389 . S
C3197 C3198 1.524 . S
C3198 C3197 1.524 . S
C3198 C3199 1.397 . S
C3198 C3203 1.363 . S
C3199 H3170 0.950 . S
C3199 C3198 1.397 . S
C3199 C3200 1.334 . S
C3200 H3171 0.950 . S
C3200 C3199 1.334 . S
C3200 C3201 1.287 . S
C3201 C3200 1.287 . S
C3201 C3202 1.524 . S
C3201 H3204 0.999 . S
C3202 H3172 0.950 . S
C3202 C3201 1.524 . S
C3202 C3203 1.415 . S
C3203 H3173 0.950 . S
C3203 C3198 1.363 . S
C3203 C3202 1.415 . S
H3204 C3201 0.999 . S
H3205 C3186 0.913 . S
H3206 C3224 0.951 . S
H3207 C3226 0.951 . S
H3208 C3228 0.950 . S
H3209 C3229 0.950 . S
H3210 C3231 0.950 . S
H3211 C3234 0.950 . S
H3212 C3235 0.950 . S
H3213 C3237 0.950 . S
H3214 C3238 0.950 . S
H3215 C3239 0.951 . S
H3216 C3241 0.951 . S
H3217 C3243 0.950 . S
H3218 C3244 0.950 . S
H3219 C3246 0.950 . S
H3220 C3249 0.950 . S
H3221 C3250 0.950 . S
H3222 C3252 0.950 . S
H3223 C3253 0.950 . S
C3224 H3206 0.951 . S
C3224 C3225 1.366 . S
C3224 C3226 1.388 . S
C3225 C3224 1.366 . S
C3225 C3229 1.385 . S
C3226 H3207 0.951 . S
C3226 C3224 1.388 . S
C3226 C3227 1.366 . S
C3227 C3226 1.366 . S
C3227 C3228 1.414 . S
C3227 C3230 1.499 . S
C3228 H3208 0.950 . S
C3228 C3227 1.414 . S
C3228 C3229 1.374 . S
C3229 H3209 0.950 . S
C3229 C3225 1.385 . S
C3229 C3228 1.374 . S
C3230 C3227 1.499 . S
C3230 C3231 1.373 . S
C3230 C3232 1.389 . S
C3231 H3210 0.950 . S
C3231 C3230 1.373 . S
C3231 C3247 1.377 . S
C3232 C3230 1.389 . S
C3232 C3233 1.524 . S
C3232 C3246 1.377 . S
C3233 C3232 1.524 . S
C3233 C3234 1.397 . S
C3233 C3238 1.363 . S
C3234 H3211 0.950 . S
C3234 C3233 1.397 . S
C3234 C3235 1.334 . S
C3235 H3212 0.950 . S
C3235 C3234 1.334 . S
C3235 C3236 1.287 . S
C3236 C3235 1.287 . S
C3236 C3237 1.524 . S
C3236 H3255 0.913 . S
C3237 H3213 0.950 . S
C3237 C3236 1.524 . S
C3237 C3238 1.415 . S
C3238 H3214 0.950 . S
C3238 C3233 1.363 . S
C3238 C3237 1.415 . S
C3239 H3215 0.951 . S
C3239 C3240 1.366 . S
C3239 C3241 1.388 . S
C3240 C3239 1.366 . S
C3240 C3244 1.385 . S
C3241 H3216 0.951 . S
C3241 C3239 1.388 . S
C3241 C3242 1.366 . S
C3242 C3241 1.366 . S
C3242 C3243 1.414 . S
C3242 C3245 1.499 . S
C3243 H3217 0.950 . S
C3243 C3242 1.414 . S
C3243 C3244 1.374 . S
C3244 H3218 0.950 . S
C3244 C3240 1.385 . S
C3244 C3243 1.374 . S
C3245 C3242 1.499 . S
C3245 C3246 1.373 . S
C3245 C3247 1.389 . S
C3246 H3219 0.950 . S
C3246 C3232 1.377 . S
C3246 C3245 1.373 . S
C3247 C3231 1.377 . S
C3247 C3245 1.389 . S
C3247 C3248 1.524 . S
C3248 C3247 1.524 . S
C3248 C3249 1.397 . S
C3248 C3253 1.363 . S
C3249 H3220 0.950 . S
C3249 C3248 1.397 . S
C3249 C3250 1.334 . S
C3250 H3221 0.950 . S
C3250 C3249 1.334 . S
C3250 C3251 1.287 . S
C3251 C3250 1.287 . S
C3251 C3252 1.524 . S
C3251 H3254 0.999 . S
C3252 H3222 0.950 . S
C3252 C3251 1.524 . S
C3252 C3253 1.415 . S
C3253 H3223 0.950 . S
C3253 C3248 1.363 . S
C3253 C3252 1.415 . S
H3254 C3251 0.999 . S
H3255 C3236 0.913 . S
H3256 C3274 0.951 . S
H3257 C3276 0.951 . S
H3258 C3278 0.950 . S
H3259 C3279 0.950 . S
H3260 C3281 0.950 . S
H3261 C3284 0.950 . S
H3262 C3285 0.950 . S
H3263 C3287 0.950 . S
H3264 C3288 0.950 . S
H3265 C3289 0.951 . S
H3266 C3291 0.951 . S
H3267 C3293 0.950 . S
H3268 C3294 0.950 . S
H3269 C3296 0.950 . S
H3270 C3299 0.950 . S
H3271 C3300 0.950 . S
H3272 C3302 0.950 . S
H3273 C3303 0.950 . S
C3274 H3256 0.951 . S
C3274 C3275 1.366 . S
C3274 C3276 1.388 . S
C3275 C3274 1.366 . S
C3275 C3279 1.385 . S
C3276 H3257 0.951 . S
C3276 C3274 1.388 . S
C3276 C3277 1.366 . S
C3277 C3276 1.366 . S
C3277 C3278 1.414 . S
C3277 C3280 1.499 . S
C3278 H3258 0.950 . S
C3278 C3277 1.414 . S
C3278 C3279 1.374 . S
C3279 H3259 0.950 . S
C3279 C3275 1.385 . S
C3279 C3278 1.374 . S
C3280 C3277 1.499 . S
C3280 C3281 1.373 . S
C3280 C3282 1.389 . S
C3281 H3260 0.950 . S
C3281 C3280 1.373 . S
C3281 C3297 1.377 . S
C3282 C3280 1.389 . S
C3282 C3283 1.524 . S
C3282 C3296 1.377 . S
C3283 C3282 1.524 . S
C3283 C3284 1.397 . S
C3283 C3288 1.363 1_545 S
C3284 H3261 0.950 . S
C3284 C3283 1.397 . S
C3284 C3285 1.334 . S
C3285 H3262 0.950 . S
C3285 C3284 1.334 . S
C3285 C3286 1.287 1_545 S
C3286 C3285 1.287 1_565 S
C3286 C3287 1.524 . S
C3286 H3305 0.913 . S
C3287 H3263 0.950 . S
C3287 C3286 1.524 . S
C3287 C3288 1.415 . S
C3288 H3264 0.950 . S
C3288 C3283 1.363 1_565 S
C3288 C3287 1.415 . S
C3289 H3265 0.951 . S
C3289 C3290 1.366 . S
C3289 C3291 1.388 . S
C3290 C3289 1.366 . S
C3290 C3294 1.385 . S
C3291 H3266 0.951 . S
C3291 C3289 1.388 . S
C3291 C3292 1.366 . S
C3292 C3291 1.366 . S
C3292 C3293 1.414 . S
C3292 C3295 1.499 . S
C3293 H3267 0.950 . S
C3293 C3292 1.414 . S
C3293 C3294 1.374 . S
C3294 H3268 0.950 . S
C3294 C3290 1.385 . S
C3294 C3293 1.374 . S
C3295 C3292 1.499 . S
C3295 C3296 1.373 . S
C3295 C3297 1.389 . S
C3296 H3269 0.950 . S
C3296 C3282 1.377 . S
C3296 C3295 1.373 . S
C3297 C3281 1.377 . S
C3297 C3295 1.389 . S
C3297 C3298 1.524 . S
C3298 C3297 1.524 . S
C3298 C3299 1.397 . S
C3298 C3303 1.363 . S
C3299 H3270 0.950 . S
C3299 C3298 1.397 . S
C3299 C3300 1.334 . S
C3300 H3271 0.950 . S
C3300 C3299 1.334 . S
C3300 C3301 1.287 . S
C3301 C3300 1.287 . S
C3301 C3302 1.524 . S
C3301 H3304 0.999 . S
C3302 H3272 0.950 . S
C3302 C3301 1.524 . S
C3302 C3303 1.415 . S
C3303 H3273 0.950 . S
C3303 C3298 1.363 . S
C3303 C3302 1.415 . S
H3304 C3301 0.999 . S
H3305 C3286 0.913 . S
H3306 C3324 0.951 . S
H3307 C3326 0.951 . S
H3308 C3328 0.950 . S
H3309 C3329 0.950 . S
H3310 C3331 0.950 . S
H3311 C3334 0.950 . S
H3312 C3335 0.950 . S
H3313 C3337 0.950 . S
H3314 C3338 0.950 . S
H3315 C3339 0.951 . S
H3316 C3341 0.951 . S
H3317 C3343 0.950 . S
H3318 C3344 0.950 . S
H3319 C3346 0.950 . S
H3320 C3349 0.950 . S
H3321 C3350 0.950 . S
H3322 C3352 0.950 . S
H3323 C3353 0.950 . S
C3324 H3306 0.951 . S
C3324 C3325 1.366 . S
C3324 C3326 1.388 . S
C3325 C3324 1.366 . S
C3325 C3329 1.385 . S
C3326 H3307 0.951 . S
C3326 C3324 1.388 . S
C3326 C3327 1.366 . S
C3327 C3326 1.366 . S
C3327 C3328 1.414 . S
C3327 C3330 1.499 . S
C3328 H3308 0.950 . S
C3328 C3327 1.414 . S
C3328 C3329 1.374 . S
C3329 H3309 0.950 . S
C3329 C3325 1.385 . S
C3329 C3328 1.374 . S
C3330 C3327 1.499 . S
C3330 C3331 1.373 . S
C3330 C3332 1.389 . S
C3331 H3310 0.950 . S
C3331 C3330 1.373 . S
C3331 C3347 1.377 . S
C3332 C3330 1.389 . S
C3332 C3333 1.524 . S
C3332 C3346 1.377 . S
C3333 C3332 1.524 . S
C3333 C3334 1.397 . S
C3333 C3338 1.363 . S
C3334 H3311 0.950 . S
C3334 C3333 1.397 . S
C3334 C3335 1.334 . S
C3335 H3312 0.950 . S
C3335 C3334 1.334 . S
C3335 C3336 1.287 . S
C3336 C3335 1.287 . S
C3336 C3337 1.524 . S
C3336 H3355 0.913 . S
C3337 H3313 0.950 . S
C3337 C3336 1.524 . S
C3337 C3338 1.415 . S
C3338 H3314 0.950 . S
C3338 C3333 1.363 . S
C3338 C3337 1.415 . S
C3339 H3315 0.951 . S
C3339 C3340 1.366 . S
C3339 C3341 1.388 . S
C3340 C3339 1.366 . S
C3340 C3344 1.385 . S
C3341 H3316 0.951 . S
C3341 C3339 1.388 . S
C3341 C3342 1.366 . S
C3342 C3341 1.366 . S
C3342 C3343 1.414 . S
C3342 C3345 1.499 . S
C3343 H3317 0.950 . S
C3343 C3342 1.414 . S
C3343 C3344 1.374 . S
C3344 H3318 0.950 . S
C3344 C3340 1.385 . S
C3344 C3343 1.374 . S
C3345 C3342 1.499 . S
C3345 C3346 1.373 . S
C3345 C3347 1.389 . S
C3346 H3319 0.950 . S
C3346 C3332 1.377 . S
C3346 C3345 1.373 . S
C3347 C3331 1.377 . S
C3347 C3345 1.389 . S
C3347 C3348 1.524 . S
C3348 C3347 1.524 . S
C3348 C3349 1.397 . S
C3348 C3353 1.363 . S
C3349 H3320 0.950 . S
C3349 C3348 1.397 . S
C3349 C3350 1.334 . S
C3350 H3321 0.950 . S
C3350 C3349 1.334 . S
C3350 C3351 1.287 . S
C3351 C3350 1.287 . S
C3351 C3352 1.524 . S
C3351 H3354 0.999 . S
C3352 H3322 0.950 . S
C3352 C3351 1.524 . S
C3352 C3353 1.415 . S
C3353 H3323 0.950 . S
C3353 C3348 1.363 . S
C3353 C3352 1.415 . S
H3354 C3351 0.999 . S
H3355 C3336 0.913 . S
H3356 C3374 0.951 . S
H3357 C3376 0.951 . S
H3358 C3378 0.950 . S
H3359 C3379 0.950 . S
H3360 C3381 0.950 1_565 S
H3361 C3384 0.950 . S
H3362 C3385 0.950 . S
H3363 C3387 0.950 . S
H3364 C3388 0.950 . S
H3365 C3389 0.951 1_565 S
H3366 C3391 0.951 1_565 S
H3367 C3393 0.950 . S
H3368 C3394 0.950 . S
H3369 C3396 0.950 . S
H3370 C3399 0.950 . S
H3371 C3400 0.946 1_545 S
H3372 C3402 0.950 . S
H3373 C3403 0.950 . S
C3374 H3356 0.951 . S
C3374 C3375 1.366 . S
C3374 C3376 1.388 . S
C3375 C3374 1.366 . S
C3375 C3379 1.385 1_545 S
C3376 H3357 0.951 . S
C3376 C3374 1.388 . S
C3376 C3377 1.366 . S
C3377 C3376 1.366 . S
C3377 C3378 1.414 1_545 S
C3377 C3380 1.499 . S
C3378 H3358 0.950 . S
C3378 C3377 1.414 1_565 S
C3378 C3379 1.374 . S
C3379 H3359 0.950 . S
C3379 C3375 1.385 1_565 S
C3379 C3378 1.374 . S
C3380 C3377 1.499 . S
C3380 C3381 1.373 . S
C3380 C3382 1.389 . S
C3381 H3360 0.950 1_545 S
C3381 C3380 1.373 . S
C3381 C3397 1.377 . S
C3382 C3380 1.389 . S
C3382 C3383 1.524 . S
C3382 C3396 1.377 . S
C3383 C3382 1.524 . S
C3383 C3384 1.397 . S
C3383 C3388 1.363 . S
C3384 H3361 0.950 . S
C3384 C3383 1.397 . S
C3384 C3385 1.334 . S
C3385 H3362 0.950 . S
C3385 C3384 1.334 . S
C3385 C3386 1.287 . S
C3386 C3385 1.287 . S
C3386 C3387 1.524 . S
C3386 H3405 0.913 . S
C3387 H3363 0.950 . S
C3387 C3386 1.524 . S
C3387 C3388 1.415 . S
C3388 H3364 0.950 . S
C3388 C3383 1.363 . S
C3388 C3387 1.415 . S
C3389 H3365 0.951 1_545 S
C3389 C3390 1.366 . S
C3389 C3391 1.388 . S
C3390 C3389 1.366 . S
C3390 C3394 1.385 . S
C3391 H3366 0.951 1_545 S
C3391 C3389 1.388 . S
C3391 C3392 1.366 . S
C3392 C3391 1.366 . S
C3392 C3393 1.414 . S
C3392 C3395 1.499 . S
C3393 H3367 0.950 . S
C3393 C3392 1.414 . S
C3393 C3394 1.374 . S
C3394 H3368 0.950 . S
C3394 C3390 1.385 . S
C3394 C3393 1.374 . S
C3395 C3392 1.499 . S
C3395 C3396 1.373 . S
C3395 C3397 1.389 . S
C3396 H3369 0.950 . S
C3396 C3382 1.377 . S
C3396 C3395 1.373 . S
C3397 C3381 1.377 . S
C3397 C3395 1.389 . S
C3397 C3398 1.524 1_545 S
C3398 C3397 1.524 1_565 S
C3398 C3399 1.397 1_565 S
C3398 C3403 1.363 . S
C3399 H3370 0.950 . S
C3399 C3398 1.397 1_545 S
C3399 C3400 1.331 1_545 S
C3400 H3371 0.946 1_565 S
C3400 C3399 1.331 1_565 S
C3400 C3401 1.294 . S
C3401 C3400 1.294 . S
C3401 C3402 1.524 . S
C3401 H3404 0.999 . S
C3402 H3372 0.950 . S
C3402 C3401 1.524 . S
C3402 C3403 1.415 . S
C3403 H3373 0.950 . S
C3403 C3398 1.363 . S
C3403 C3402 1.415 . S
H3404 C3401 0.999 . S
H3405 C3386 0.913 . S
H3406 C3424 0.951 . S
H3407 C3426 0.951 . S
H3408 C3428 0.950 . S
H3409 C3429 0.950 . S
H3410 C3431 0.950 . S
H3411 C3434 0.950 . S
H3412 C3435 0.950 . S
H3413 C3437 0.950 . S
H3414 C3438 0.950 . S
H3415 C3439 0.951 . S
H3416 C3441 0.951 . S
H3417 C3443 0.950 . S
H3418 C3444 0.950 . S
H3419 C3446 0.950 . S
H3420 C3449 0.950 . S
H3421 C3450 0.950 . S
H3422 C3452 0.950 . S
H3423 C3453 0.950 . S
C3424 H3406 0.951 . S
C3424 C3425 1.366 . S
C3424 C3426 1.388 . S
C3425 C3424 1.366 . S
C3425 C3429 1.385 . S
C3426 H3407 0.951 . S
C3426 C3424 1.388 . S
C3426 C3427 1.366 . S
C3427 C3426 1.366 . S
C3427 C3428 1.414 . S
C3427 C3430 1.499 . S
C3428 H3408 0.950 . S
C3428 C3427 1.414 . S
C3428 C3429 1.374 . S
C3429 H3409 0.950 . S
C3429 C3425 1.385 . S
C3429 C3428 1.374 . S
C3430 C3427 1.499 . S
C3430 C3431 1.373 . S
C3430 C3432 1.389 . S
C3431 H3410 0.950 . S
C3431 C3430 1.373 . S
C3431 C3447 1.377 . S
C3432 C3430 1.389 . S
C3432 C3433 1.524 . S
C3432 C3446 1.377 . S
C3433 C3432 1.524 . S
C3433 C3434 1.397 . S
C3433 C3438 1.363 . S
C3434 H3411 0.950 . S
C3434 C3433 1.397 . S
C3434 C3435 1.334 . S
C3435 H3412 0.950 . S
C3435 C3434 1.334 . S
C3435 C3436 1.287 . S
C3436 C3435 1.287 . S
C3436 C3437 1.524 . S
C3436 H3455 0.913 . S
C3437 H3413 0.950 . S
C3437 C3436 1.524 . S
C3437 C3438 1.415 . S
C3438 H3414 0.950 . S
C3438 C3433 1.363 . S
C3438 C3437 1.415 . S
C3439 H3415 0.951 . S
C3439 C3440 1.366 . S
C3439 C3441 1.388 . S
C3440 C3439 1.366 . S
C3440 C3444 1.385 . S
C3441 H3416 0.951 . S
C3441 C3439 1.388 . S
C3441 C3442 1.366 . S
C3442 C3441 1.366 . S
C3442 C3443 1.414 . S
C3442 C3445 1.499 . S
C3443 H3417 0.950 . S
C3443 C3442 1.414 . S
C3443 C3444 1.374 . S
C3444 H3418 0.950 . S
C3444 C3440 1.385 . S
C3444 C3443 1.374 . S
C3445 C3442 1.499 . S
C3445 C3446 1.373 . S
C3445 C3447 1.389 . S
C3446 H3419 0.950 . S
C3446 C3432 1.377 . S
C3446 C3445 1.373 . S
C3447 C3431 1.377 . S
C3447 C3445 1.389 . S
C3447 C3448 1.524 . S
C3448 C3447 1.524 . S
C3448 C3449 1.397 . S
C3448 C3453 1.363 . S
C3449 H3420 0.950 . S
C3449 C3448 1.397 . S
C3449 C3450 1.334 . S
C3450 H3421 0.950 . S
C3450 C3449 1.334 . S
C3450 C3451 1.287 . S
C3451 C3450 1.287 . S
C3451 C3452 1.524 . S
C3451 H3454 0.999 . S
C3452 H3422 0.950 . S
C3452 C3451 1.524 . S
C3452 C3453 1.415 . S
C3453 H3423 0.950 . S
C3453 C3448 1.363 . S
C3453 C3452 1.415 . S
H3454 C3451 0.999 . S
H3455 C3436 0.913 . S
H3456 C3474 0.951 . S
H3457 C3476 0.951 . S
H3458 C3478 0.950 . S
H3459 C3479 0.950 . S
H3460 C3481 0.950 . S
H3461 C3484 0.945 . S
H3462 C3485 0.950 1_565 S
H3463 C3487 0.950 . S
H3464 C3488 0.950 . S
H3465 C3489 0.951 . S
H3466 C3491 0.951 . S
H3467 C3493 0.950 . S
H3468 C3494 0.950 . S
H3469 C3496 0.950 . S
H3470 C3499 0.950 . S
H3471 C3500 0.950 . S
H3472 C3502 0.950 . S
H3473 C3503 0.950 . S
C3474 H3456 0.951 . S
C3474 C3475 1.366 . S
C3474 C3476 1.388 . S
C3475 C3474 1.366 . S
C3475 C3479 1.385 . S
C3476 H3457 0.951 . S
C3476 C3474 1.388 . S
C3476 C3477 1.366 . S
C3477 C3476 1.366 . S
C3477 C3478 1.414 . S
C3477 C3480 1.499 . S
C3478 H3458 0.950 . S
C3478 C3477 1.414 . S
C3478 C3479 1.374 . S
C3479 H3459 0.950 . S
C3479 C3475 1.385 . S
C3479 C3478 1.374 . S
C3480 C3477 1.499 . S
C3480 C3481 1.373 . S
C3480 C3482 1.389 . S
C3481 H3460 0.950 . S
C3481 C3480 1.373 . S
C3481 C3497 1.377 . S
C3482 C3480 1.389 . S
C3482 C3483 1.524 . S
C3482 C3496 1.377 . S
C3483 C3482 1.524 . S
C3483 C3484 1.397 . S
C3483 C3488 1.363 . S
C3484 H3461 0.945 . S
C3484 C3483 1.397 . S
C3484 C3485 1.334 . S
C3485 H3462 0.950 1_545 S
C3485 C3484 1.334 . S
C3485 C3486 1.287 . S
C3486 C3485 1.287 . S
C3486 C3487 1.524 . S
C3486 H3505 0.913 . S
C3487 H3463 0.950 . S
C3487 C3486 1.524 . S
C3487 C3488 1.415 . S
C3488 H3464 0.950 . S
C3488 C3483 1.363 . S
C3488 C3487 1.415 . S
C3489 H3465 0.951 . S
C3489 C3490 1.366 . S
C3489 C3491 1.388 . S
C3490 C3489 1.366 . S
C3490 C3494 1.385 . S
C3491 H3466 0.951 . S
C3491 C3489 1.388 . S
C3491 C3492 1.366 . S
C3492 C3491 1.366 . S
C3492 C3493 1.414 . S
C3492 C3495 1.499 . S
C3493 H3467 0.950 . S
C3493 C3492 1.414 . S
C3493 C3494 1.374 . S
C3494 H3468 0.950 . S
C3494 C3490 1.385 . S
C3494 C3493 1.374 . S
C3495 C3492 1.499 . S
C3495 C3496 1.373 . S
C3495 C3497 1.389 . S
C3496 H3469 0.950 . S
C3496 C3482 1.377 . S
C3496 C3495 1.373 . S
C3497 C3481 1.377 . S
C3497 C3495 1.389 . S
C3497 C3498 1.524 . S
C3498 C3497 1.524 . S
C3498 C3499 1.397 . S
C3498 C3503 1.363 . S
C3499 H3470 0.950 . S
C3499 C3498 1.397 . S
C3499 C3500 1.334 . S
C3500 H3471 0.950 . S
C3500 C3499 1.334 . S
C3500 C3501 1.287 . S
C3501 C3500 1.287 . S
C3501 C3502 1.524 . S
C3501 H3504 0.999 . S
C3502 H3472 0.950 . S
C3502 C3501 1.524 . S
C3502 C3503 1.415 . S
C3503 H3473 0.950 . S
C3503 C3498 1.363 . S
C3503 C3502 1.415 . S
H3504 C3501 0.999 . S
H3505 C3486 0.913 . S
H3506 C3524 0.951 . S
H3507 C3526 0.951 . S
H3508 C3528 0.950 . S
H3509 C3529 0.950 . S
H3510 C3531 0.950 . S
H3511 C3534 0.950 . S
H3512 C3535 0.950 . S
H3513 C3537 0.950 . S
H3514 C3538 0.950 . S
H3515 C3539 0.951 . S
H3516 C3541 0.951 . S
H3517 C3543 0.950 . S
H3518 C3544 0.950 . S
H3519 C3546 0.950 . S
H3520 C3549 0.950 . S
H3521 C3550 0.950 . S
H3522 C3552 0.950 . S
H3523 C3553 0.950 . S
C3524 H3506 0.951 . S
C3524 C3525 1.366 . S
C3524 C3526 1.388 . S
C3525 C3524 1.366 . S
C3525 C3529 1.385 . S
C3526 H3507 0.951 . S
C3526 C3524 1.388 . S
C3526 C3527 1.366 . S
C3527 C3526 1.366 . S
C3527 C3528 1.414 . S
C3527 C3530 1.499 . S
C3528 H3508 0.950 . S
C3528 C3527 1.414 . S
C3528 C3529 1.374 . S
C3529 H3509 0.950 . S
C3529 C3525 1.385 . S
C3529 C3528 1.374 . S
C3530 C3527 1.499 . S
C3530 C3531 1.373 . S
C3530 C3532 1.389 . S
C3531 H3510 0.950 . S
C3531 C3530 1.373 . S
C3531 C3547 1.377 . S
C3532 C3530 1.389 . S
C3532 C3533 1.524 . S
C3532 C3546 1.377 . S
C3533 C3532 1.524 . S
C3533 C3534 1.397 . S
C3533 C3538 1.363 . S
C3534 H3511 0.950 . S
C3534 C3533 1.397 . S
C3534 C3535 1.334 . S
C3535 H3512 0.950 . S
C3535 C3534 1.334 . S
C3535 C3536 1.287 . S
C3536 C3535 1.287 . S
C3536 C3537 1.524 . S
C3536 H3555 0.913 . S
C3537 H3513 0.950 . S
C3537 C3536 1.524 . S
C3537 C3538 1.415 . S
C3538 H3514 0.950 . S
C3538 C3533 1.363 . S
C3538 C3537 1.415 . S
C3539 H3515 0.951 . S
C3539 C3540 1.366 . S
C3539 C3541 1.388 . S
C3540 C3539 1.366 . S
C3540 C3544 1.385 . S
C3541 H3516 0.951 . S
C3541 C3539 1.388 . S
C3541 C3542 1.366 . S
C3542 C3541 1.366 . S
C3542 C3543 1.414 . S
C3542 C3545 1.499 . S
C3543 H3517 0.950 . S
C3543 C3542 1.414 . S
C3543 C3544 1.374 . S
C3544 H3518 0.950 . S
C3544 C3540 1.385 . S
C3544 C3543 1.374 . S
C3545 C3542 1.499 . S
C3545 C3546 1.373 . S
C3545 C3547 1.389 . S
C3546 H3519 0.950 . S
C3546 C3532 1.377 . S
C3546 C3545 1.373 . S
C3547 C3531 1.377 . S
C3547 C3545 1.389 . S
C3547 C3548 1.524 . S
C3548 C3547 1.524 . S
C3548 C3549 1.397 . S
C3548 C3553 1.363 . S
C3549 H3520 0.950 . S
C3549 C3548 1.397 . S
C3549 C3550 1.334 . S
C3550 H3521 0.950 . S
C3550 C3549 1.334 . S
C3550 C3551 1.287 . S
C3551 C3550 1.287 . S
C3551 C3552 1.524 . S
C3551 H3554 0.999 . S
C3552 H3522 0.950 . S
C3552 C3551 1.524 . S
C3552 C3553 1.415 . S
C3553 H3523 0.950 . S
C3553 C3548 1.363 . S
C3553 C3552 1.415 . S
H3554 C3551 0.999 . S
H3555 C3536 0.913 . S
H3556 C3574 0.951 . S
H3557 C3576 0.951 . S
H3558 C3578 0.950 1_565 S
H3559 C3579 0.950 1_565 S
H3560 C3581 0.950 . S
H3561 C3584 0.950 1_565 S
H3562 C3585 0.950 1_565 S
H3563 C3587 0.950 . S
H3564 C3588 0.950 . S
H3565 C3589 0.985 . S
H3566 C3591 0.907 1_565 S
H3567 C3593 0.950 . S
H3568 C3594 0.950 . S
H3569 C3596 0.950 . S
H3570 C3599 0.950 . S
H3571 C3600 0.950 . S
H3572 C3602 0.950 1_565 S
H3573 C3603 0.950 1_565 S
C3574 H3556 0.951 . S
C3574 C3575 1.366 . S
C3574 C3576 1.388 . S
C3575 C3574 1.366 . S
C3575 C3579 1.385 . S
C3576 H3557 0.951 . S
C3576 C3574 1.388 . S
C3576 C3577 1.366 . S
C3577 C3576 1.366 . S
C3577 C3578 1.414 . S
C3577 C3580 1.499 . S
C3578 H3558 0.950 1_545 S
C3578 C3577 1.414 . S
C3578 C3579 1.374 . S
C3579 H3559 0.950 1_545 S
C3579 C3575 1.385 . S
C3579 C3578 1.374 . S
C3580 C3577 1.499 . S
C3580 C3581 1.373 . S
C3580 C3582 1.389 . S
C3581 H3560 0.950 . S
C3581 C3580 1.373 . S
C3581 C3597 1.377 . S
C3582 C3580 1.389 . S
C3582 C3583 1.524 . S
C3582 C3596 1.377 . S
C3583 C3582 1.524 . S
C3583 C3584 1.397 . S
C3583 C3588 1.363 . S
C3584 H3561 0.950 1_545 S
C3584 C3583 1.397 . S
C3584 C3585 1.334 . S
C3585 H3562 0.950 1_545 S
C3585 C3584 1.334 . S
C3585 C3586 1.287 . S
C3586 C3585 1.287 . S
C3586 C3587 1.524 . S
C3586 H3605 0.913 . S
C3587 H3563 0.950 . S
C3587 C3586 1.524 . S
C3587 C3588 1.415 . S
C3588 H3564 0.950 . S
C3588 C3583 1.363 . S
C3588 C3587 1.415 . S
C3589 H3565 0.985 . S
C3589 C3590 1.366 . S
C3589 C3591 1.388 . S
C3590 C3589 1.366 . S
C3590 C3594 1.385 . S
C3591 H3566 0.907 1_545 S
C3591 C3589 1.388 . S
C3591 C3592 1.366 . S
C3592 C3591 1.366 . S
C3592 C3593 1.414 . S
C3592 C3595 1.499 . S
C3593 H3567 0.950 . S
C3593 C3592 1.414 . S
C3593 C3594 1.374 . S
C3594 H3568 0.950 . S
C3594 C3590 1.385 . S
C3594 C3593 1.374 . S
C3595 C3592 1.499 . S
C3595 C3596 1.373 . S
C3595 C3597 1.389 . S
C3596 H3569 0.950 . S
C3596 C3582 1.377 . S
C3596 C3595 1.373 . S
C3597 C3581 1.377 . S
C3597 C3595 1.389 . S
C3597 C3598 1.524 . S
C3598 C3597 1.524 . S
C3598 C3599 1.397 . S
C3598 C3603 1.363 . S
C3599 H3570 0.950 . S
C3599 C3598 1.397 . S
C3599 C3600 1.334 . S
C3600 H3571 0.950 . S
C3600 C3599 1.334 . S
C3600 C3601 1.287 . S
C3601 C3600 1.287 . S
C3601 C3602 1.524 . S
C3601 H3604 0.999 . S
C3602 H3572 0.950 1_545 S
C3602 C3601 1.524 . S
C3602 C3603 1.415 . S
C3603 H3573 0.950 1_545 S
C3603 C3598 1.363 . S
C3603 C3602 1.415 . S
H3604 C3601 0.999 . S
H3605 C3586 0.913 . S
H3606 C3624 0.951 . S
H3607 C3626 0.951 . S
H3608 C3628 0.950 . S
H3609 C3629 0.950 . S
H3610 C3631 0.950 . S
H3611 C3634 0.950 . S
H3612 C3635 0.950 . S
H3613 C3637 0.950 . S
H3614 C3638 0.950 . S
H3615 C3639 0.951 . S
H3616 C3641 0.951 . S
H3617 C3643 0.950 . S
H3618 C3644 0.950 . S
H3619 C3646 0.950 . S
H3620 C3649 0.950 . S
H3621 C3650 0.950 . S
H3622 C3652 0.950 . S
H3623 C3653 0.950 . S
C3624 H3606 0.951 . S
C3624 C3625 1.366 . S
C3624 C3626 1.388 . S
C3625 C3624 1.366 . S
C3625 C3629 1.385 . S
C3626 H3607 0.951 . S
C3626 C3624 1.388 . S
C3626 C3627 1.366 . S
C3627 C3626 1.366 . S
C3627 C3628 1.414 . S
C3627 C3630 1.499 . S
C3628 H3608 0.950 . S
C3628 C3627 1.414 . S
C3628 C3629 1.374 . S
C3629 H3609 0.950 . S
C3629 C3625 1.385 . S
C3629 C3628 1.374 . S
C3630 C3627 1.499 . S
C3630 C3631 1.373 . S
C3630 C3632 1.389 . S
C3631 H3610 0.950 . S
C3631 C3630 1.373 . S
C3631 C3647 1.377 . S
C3632 C3630 1.389 . S
C3632 C3633 1.524 . S
C3632 C3646 1.377 . S
C3633 C3632 1.524 . S
C3633 C3634 1.397 . S
C3633 C3638 1.363 . S
C3634 H3611 0.950 . S
C3634 C3633 1.397 . S
C3634 C3635 1.334 . S
C3635 H3612 0.950 . S
C3635 C3634 1.334 . S
C3635 C3636 1.287 . S
C3636 C3635 1.287 . S
C3636 C3637 1.524 . S
C3636 H3655 0.913 . S
C3637 H3613 0.950 . S
C3637 C3636 1.524 . S
C3637 C3638 1.415 . S
C3638 H3614 0.950 . S
C3638 C3633 1.363 . S
C3638 C3637 1.415 . S
C3639 H3615 0.951 . S
C3639 C3640 1.366 . S
C3639 C3641 1.388 . S
C3640 C3639 1.366 . S
C3640 C3644 1.385 . S
C3641 H3616 0.951 . S
C3641 C3639 1.388 . S
C3641 C3642 1.366 . S
C3642 C3641 1.366 . S
C3642 C3643 1.414 . S
C3642 C3645 1.499 . S
C3643 H3617 0.950 . S
C3643 C3642 1.414 . S
C3643 C3644 1.374 . S
C3644 H3618 0.950 . S
C3644 C3640 1.385 . S
C3644 C3643 1.374 . S
C3645 C3642 1.499 . S
C3645 C3646 1.373 . S
C3645 C3647 1.389 . S
C3646 H3619 0.950 . S
C3646 C3632 1.377 . S
C3646 C3645 1.373 . S
C3647 C3631 1.377 . S
C3647 C3645 1.389 . S
C3647 C3648 1.524 . S
C3648 C3647 1.524 . S
C3648 C3649 1.397 . S
C3648 C3653 1.363 . S
C3649 H3620 0.950 . S
C3649 C3648 1.397 . S
C3649 C3650 1.334 . S
C3650 H3621 0.950 . S
C3650 C3649 1.334 . S
C3650 C3651 1.287 . S
C3651 C3650 1.287 . S
C3651 C3652 1.524 . S
C3651 H3654 0.999 . S
C3652 H3622 0.950 . S
C3652 C3651 1.524 . S
C3652 C3653 1.415 . S
C3653 H3623 0.950 . S
C3653 C3648 1.363 . S
C3653 C3652 1.415 . S
H3654 C3651 0.999 . S
H3655 C3636 0.913 . S
H3656 C3674 0.951 . S
H3657 C3676 0.951 . S
H3658 C3678 0.950 . S
H3659 C3679 0.950 . S
H3660 C3681 0.950 . S
H3661 C3684 0.950 . S
H3662 C3685 0.950 . S
H3663 C3687 0.950 . S
H3664 C3688 0.950 . S
H3665 C3689 0.951 . S
H3666 C3691 0.951 . S
H3667 C3693 0.950 . S
H3668 C3694 0.950 . S
H3669 C3696 0.950 . S
H3670 C3699 0.950 . S
H3671 C3700 0.950 . S
H3672 C3702 0.950 . S
H3673 C3703 0.950 . S
C3674 H3656 0.951 . S
C3674 C3675 1.366 . S
C3674 C3676 1.388 . S
C3675 C3674 1.366 . S
C3675 C3679 1.385 . S
C3676 H3657 0.951 . S
C3676 C3674 1.388 . S
C3676 C3677 1.366 . S
C3677 C3676 1.366 . S
C3677 C3678 1.414 . S
C3677 C3680 1.499 . S
C3678 H3658 0.950 . S
C3678 C3677 1.414 . S
C3678 C3679 1.374 . S
C3679 H3659 0.950 . S
C3679 C3675 1.385 . S
C3679 C3678 1.374 . S
C3680 C3677 1.499 . S
C3680 C3681 1.373 . S
C3680 C3682 1.389 . S
C3681 H3660 0.950 . S
C3681 C3680 1.373 . S
C3681 C3697 1.377 . S
C3682 C3680 1.389 . S
C3682 C3683 1.524 . S
C3682 C3696 1.377 . S
C3683 C3682 1.524 . S
C3683 C3684 1.397 . S
C3683 C3688 1.363 1_554 S
C3684 H3661 0.950 . S
C3684 C3683 1.397 . S
C3684 C3685 1.334 1_554 S
C3685 H3662 0.950 . S
C3685 C3684 1.334 1_556 S
C3685 C3686 1.287 . S
C3686 C3685 1.287 . S
C3686 C3687 1.524 . S
C3686 H3705 0.913 . S
C3687 H3663 0.950 . S
C3687 C3686 1.524 . S
C3687 C3688 1.415 . S
C3688 H3664 0.950 . S
C3688 C3683 1.363 1_556 S
C3688 C3687 1.415 . S
C3689 H3665 0.951 . S
C3689 C3690 1.366 . S
C3689 C3691 1.388 . S
C3690 C3689 1.366 . S
C3690 C3694 1.385 . S
C3691 H3666 0.951 . S
C3691 C3689 1.388 . S
C3691 C3692 1.366 . S
C3692 C3691 1.366 . S
C3692 C3693 1.414 . S
C3692 C3695 1.499 . S
C3693 H3667 0.950 . S
C3693 C3692 1.414 . S
C3693 C3694 1.374 . S
C3694 H3668 0.950 . S
C3694 C3690 1.385 . S
C3694 C3693 1.374 . S
C3695 C3692 1.499 . S
C3695 C3696 1.373 . S
C3695 C3697 1.389 . S
C3696 H3669 0.950 . S
C3696 C3682 1.377 . S
C3696 C3695 1.373 . S
C3697 C3681 1.377 . S
C3697 C3695 1.389 . S
C3697 C3698 1.524 . S
C3698 C3697 1.524 . S
C3698 C3699 1.397 . S
C3698 C3703 1.363 . S
C3699 H3670 0.950 . S
C3699 C3698 1.397 . S
C3699 C3700 1.334 . S
C3700 H3671 0.950 . S
C3700 C3699 1.334 . S
C3700 C3701 1.287 . S
C3701 C3700 1.287 . S
C3701 C3702 1.524 . S
C3701 H3704 0.999 . S
C3702 H3672 0.950 . S
C3702 C3701 1.524 . S
C3702 C3703 1.415 . S
C3703 H3673 0.950 . S
C3703 C3698 1.363 . S
C3703 C3702 1.415 . S
H3704 C3701 0.999 . S
H3705 C3686 0.913 . S
H3706 C3724 0.951 . S
H3707 C3726 0.951 . S
H3708 C3728 0.950 . S
H3709 C3729 0.950 . S
H3710 C3731 0.950 . S
H3711 C3734 0.950 . S
H3712 C3735 0.950 . S
H3713 C3737 0.950 . S
H3714 C3738 0.950 . S
H3715 C3739 0.951 . S
H3716 C3741 0.951 . S
H3717 C3743 0.950 . S
H3718 C3744 0.950 . S
H3719 C3746 0.950 . S
H3720 C3749 0.950 . S
H3721 C3750 0.950 . S
H3722 C3752 0.950 . S
H3723 C3753 0.950 . S
C3724 H3706 0.951 . S
C3724 C3725 1.366 . S
C3724 C3726 1.388 . S
C3725 C3724 1.366 . S
C3725 C3729 1.385 . S
C3726 H3707 0.951 . S
C3726 C3724 1.388 . S
C3726 C3727 1.366 . S
C3727 C3726 1.366 . S
C3727 C3728 1.414 . S
C3727 C3730 1.499 . S
C3728 H3708 0.950 . S
C3728 C3727 1.414 . S
C3728 C3729 1.374 . S
C3729 H3709 0.950 . S
C3729 C3725 1.385 . S
C3729 C3728 1.374 . S
C3730 C3727 1.499 . S
C3730 C3731 1.373 . S
C3730 C3732 1.389 . S
C3731 H3710 0.950 . S
C3731 C3730 1.373 . S
C3731 C3747 1.377 . S
C3732 C3730 1.389 . S
C3732 C3733 1.524 . S
C3732 C3746 1.377 . S
C3733 C3732 1.524 . S
C3733 C3734 1.397 . S
C3733 C3738 1.363 . S
C3734 H3711 0.950 . S
C3734 C3733 1.397 . S
C3734 C3735 1.334 . S
C3735 H3712 0.950 . S
C3735 C3734 1.334 . S
C3735 C3736 1.287 . S
C3736 C3735 1.287 . S
C3736 C3737 1.524 . S
C3736 H3755 0.913 . S
C3737 H3713 0.950 . S
C3737 C3736 1.524 . S
C3737 C3738 1.415 . S
C3738 H3714 0.950 . S
C3738 C3733 1.363 . S
C3738 C3737 1.415 . S
C3739 H3715 0.951 . S
C3739 C3740 1.366 . S
C3739 C3741 1.388 . S
C3740 C3739 1.366 . S
C3740 C3744 1.385 . S
C3741 H3716 0.951 . S
C3741 C3739 1.388 . S
C3741 C3742 1.366 . S
C3742 C3741 1.366 . S
C3742 C3743 1.414 . S
C3742 C3745 1.499 . S
C3743 H3717 0.950 . S
C3743 C3742 1.414 . S
C3743 C3744 1.374 . S
C3744 H3718 0.950 . S
C3744 C3740 1.385 . S
C3744 C3743 1.374 . S
C3745 C3742 1.499 . S
C3745 C3746 1.373 . S
C3745 C3747 1.389 . S
C3746 H3719 0.950 . S
C3746 C3732 1.377 . S
C3746 C3745 1.373 . S
C3747 C3731 1.377 . S
C3747 C3745 1.389 . S
C3747 C3748 1.524 1_554 S
C3748 C3747 1.524 1_556 S
C3748 C3749 1.397 . S
C3748 C3753 1.363 . S
C3749 H3720 0.950 . S
C3749 C3748 1.397 . S
C3749 C3750 1.334 . S
C3750 H3721 0.950 . S
C3750 C3749 1.334 . S
C3750 C3751 1.287 . S
C3751 C3750 1.287 . S
C3751 C3752 1.524 . S
C3751 H3754 0.999 . S
C3752 H3722 0.950 . S
C3752 C3751 1.524 . S
C3752 C3753 1.415 . S
C3753 H3723 0.950 . S
C3753 C3748 1.363 . S
C3753 C3752 1.415 . S
H3754 C3751 0.999 . S
H3755 C3736 0.913 . S
H3756 C3774 0.951 . S
H3757 C3776 0.951 . S
H3758 C3778 0.950 . S
H3759 C3779 0.950 . S
H3760 C3781 0.950 . S
H3761 C3784 0.950 . S
H3762 C3785 0.950 . S
H3763 C3787 0.950 . S
H3764 C3788 0.950 . S
H3765 C3789 0.951 . S
H3766 C3791 0.951 . S
H3767 C3793 0.950 . S
H3768 C3794 0.950 . S
H3769 C3796 0.950 . S
H3770 C3799 0.950 . S
H3771 C3800 0.950 . S
H3772 C3802 0.950 . S
H3773 C3803 0.950 . S
C3774 H3756 0.951 . S
C3774 C3775 1.366 . S
C3774 C3776 1.388 . S
C3775 C3774 1.366 . S
C3775 C3779 1.385 . S
C3776 H3757 0.951 . S
C3776 C3774 1.388 . S
C3776 C3777 1.366 . S
C3777 C3776 1.366 . S
C3777 C3778 1.414 . S
C3777 C3780 1.499 . S
C3778 H3758 0.950 . S
C3778 C3777 1.414 . S
C3778 C3779 1.374 . S
C3779 H3759 0.950 . S
C3779 C3775 1.385 . S
C3779 C3778 1.374 . S
C3780 C3777 1.499 . S
C3780 C3781 1.373 . S
C3780 C3782 1.389 . S
C3781 H3760 0.950 . S
C3781 C3780 1.373 . S
C3781 C3797 1.377 . S
C3782 C3780 1.389 . S
C3782 C3783 1.524 . S
C3782 C3796 1.377 . S
C3783 C3782 1.524 . S
C3783 C3784 1.397 . S
C3783 C3788 1.363 . S
C3784 H3761 0.950 . S
C3784 C3783 1.397 . S
C3784 C3785 1.334 . S
C3785 H3762 0.950 . S
C3785 C3784 1.334 . S
C3785 C3786 1.287 . S
C3786 C3785 1.287 . S
C3786 C3787 1.524 . S
C3786 H3805 0.913 . S
C3787 H3763 0.950 . S
C3787 C3786 1.524 . S
C3787 C3788 1.415 . S
C3788 H3764 0.950 . S
C3788 C3783 1.363 . S
C3788 C3787 1.415 . S
C3789 H3765 0.951 . S
C3789 C3790 1.366 . S
C3789 C3791 1.388 . S
C3790 C3789 1.366 . S
C3790 C3794 1.385 . S
C3791 H3766 0.951 . S
C3791 C3789 1.388 . S
C3791 C3792 1.366 . S
C3792 C3791 1.366 . S
C3792 C3793 1.414 . S
C3792 C3795 1.499 . S
C3793 H3767 0.950 . S
C3793 C3792 1.414 . S
C3793 C3794 1.374 . S
C3794 H3768 0.950 . S
C3794 C3790 1.385 . S
C3794 C3793 1.374 . S
C3795 C3792 1.499 . S
C3795 C3796 1.373 . S
C3795 C3797 1.389 . S
C3796 H3769 0.950 . S
C3796 C3782 1.377 . S
C3796 C3795 1.373 . S
C3797 C3781 1.377 . S
C3797 C3795 1.389 . S
C3797 C3798 1.524 . S
C3798 C3797 1.524 . S
C3798 C3799 1.397 . S
C3798 C3803 1.363 . S
C3799 H3770 0.950 . S
C3799 C3798 1.397 . S
C3799 C3800 1.334 . S
C3800 H3771 0.950 . S
C3800 C3799 1.334 . S
C3800 C3801 1.287 . S
C3801 C3800 1.287 . S
C3801 C3802 1.524 . S
C3801 H3804 0.999 . S
C3802 H3772 0.950 . S
C3802 C3801 1.524 . S
C3802 C3803 1.415 . S
C3803 H3773 0.950 . S
C3803 C3798 1.363 . S
C3803 C3802 1.415 . S
H3804 C3801 0.999 . S
H3805 C3786 0.913 . S
H3806 C3824 0.951 . S
H3807 C3826 0.951 . S
H3808 C3828 0.950 . S
H3809 C3829 0.950 . S
H3810 C3831 0.950 . S
H3811 C3834 0.950 . S
H3812 C3835 0.950 . S
H3813 C3837 0.950 . S
H3814 C3838 0.950 . S
H3815 C3839 0.951 . S
H3816 C3841 0.951 . S
H3817 C3843 0.950 . S
H3818 C3844 0.950 . S
H3819 C3846 0.950 . S
H3820 C3849 0.950 . S
H3821 C3850 0.950 . S
H3822 C3852 0.950 . S
H3823 C3853 0.950 . S
C3824 H3806 0.951 . S
C3824 C3825 1.366 . S
C3824 C3826 1.388 . S
C3825 C3824 1.366 . S
C3825 C3829 1.385 . S
C3826 H3807 0.951 . S
C3826 C3824 1.388 . S
C3826 C3827 1.366 . S
C3827 C3826 1.366 . S
C3827 C3828 1.414 . S
C3827 C3830 1.499 . S
C3828 H3808 0.950 . S
C3828 C3827 1.414 . S
C3828 C3829 1.374 . S
C3829 H3809 0.950 . S
C3829 C3825 1.385 . S
C3829 C3828 1.374 . S
C3830 C3827 1.499 . S
C3830 C3831 1.373 . S
C3830 C3832 1.389 . S
C3831 H3810 0.950 . S
C3831 C3830 1.373 . S
C3831 C3847 1.377 . S
C3832 C3830 1.389 . S
C3832 C3833 1.524 . S
C3832 C3846 1.377 . S
C3833 C3832 1.524 . S
C3833 C3834 1.397 . S
C3833 C3838 1.363 . S
C3834 H3811 0.950 . S
C3834 C3833 1.397 . S
C3834 C3835 1.334 . S
C3835 H3812 0.950 . S
C3835 C3834 1.334 . S
C3835 C3836 1.287 . S
C3836 C3835 1.287 . S
C3836 C3837 1.524 . S
C3836 H3855 0.913 . S
C3837 H3813 0.950 . S
C3837 C3836 1.524 . S
C3837 C3838 1.415 . S
C3838 H3814 0.950 . S
C3838 C3833 1.363 . S
C3838 C3837 1.415 . S
C3839 H3815 0.951 . S
C3839 C3840 1.366 . S
C3839 C3841 1.388 . S
C3840 C3839 1.366 . S
C3840 C3844 1.385 . S
C3841 H3816 0.951 . S
C3841 C3839 1.388 . S
C3841 C3842 1.366 . S
C3842 C3841 1.366 . S
C3842 C3843 1.414 . S
C3842 C3845 1.499 . S
C3843 H3817 0.950 . S
C3843 C3842 1.414 . S
C3843 C3844 1.374 . S
C3844 H3818 0.950 . S
C3844 C3840 1.385 . S
C3844 C3843 1.374 . S
C3845 C3842 1.499 . S
C3845 C3846 1.373 . S
C3845 C3847 1.389 . S
C3846 H3819 0.950 . S
C3846 C3832 1.377 . S
C3846 C3845 1.373 . S
C3847 C3831 1.377 . S
C3847 C3845 1.389 . S
C3847 C3848 1.524 . S
C3848 C3847 1.524 . S
C3848 C3849 1.397 . S
C3848 C3853 1.363 . S
C3849 H3820 0.950 . S
C3849 C3848 1.397 . S
C3849 C3850 1.334 . S
C3850 H3821 0.950 . S
C3850 C3849 1.334 . S
C3850 C3851 1.287 . S
C3851 C3850 1.287 . S
C3851 C3852 1.524 . S
C3851 H3854 0.999 . S
C3852 H3822 0.950 . S
C3852 C3851 1.524 . S
C3852 C3853 1.415 . S
C3853 H3823 0.950 . S
C3853 C3848 1.363 . S
C3853 C3852 1.415 . S
H3854 C3851 0.999 . S
H3855 C3836 0.913 . S
H3856 C3874 0.951 . S
H3857 C3876 0.951 . S
H3858 C3878 0.950 . S
H3859 C3879 0.950 1_545 S
H3860 C3881 0.950 . S
H3861 C3884 0.950 . S
H3862 C3885 0.950 . S
H3863 C3887 0.950 . S
H3864 C3888 0.950 . S
H3865 C3889 0.951 . S
H3866 C3891 0.951 . S
H3867 C3893 0.950 . S
H3868 C3894 0.950 . S
H3869 C3896 0.950 . S
H3870 C3899 0.950 . S
H3871 C3900 0.950 . S
H3872 C3902 0.950 . S
H3873 C3903 0.950 . S
C3874 H3856 0.951 . S
C3874 C3875 1.366 . S
C3874 C3876 1.388 . S
C3875 C3874 1.366 . S
C3875 C3879 1.385 . S
C3876 H3857 0.951 . S
C3876 C3874 1.388 . S
C3876 C3877 1.366 . S
C3877 C3876 1.366 . S
C3877 C3878 1.414 . S
C3877 C3880 1.499 . S
C3878 H3858 0.950 . S
C3878 C3877 1.414 . S
C3878 C3879 1.374 . S
C3879 H3859 0.950 1_565 S
C3879 C3875 1.385 . S
C3879 C3878 1.374 . S
C3880 C3877 1.499 . S
C3880 C3881 1.373 . S
C3880 C3882 1.389 . S
C3881 H3860 0.950 . S
C3881 C3880 1.373 . S
C3881 C3897 1.377 . S
C3882 C3880 1.389 . S
C3882 C3883 1.524 . S
C3882 C3896 1.377 . S
C3883 C3882 1.524 . S
C3883 C3884 1.397 . S
C3883 C3888 1.363 . S
C3884 H3861 0.950 . S
C3884 C3883 1.397 . S
C3884 C3885 1.334 . S
C3885 H3862 0.950 . S
C3885 C3884 1.334 . S
C3885 C3886 1.287 . S
C3886 C3885 1.287 . S
C3886 C3887 1.524 . S
C3886 H3905 0.913 . S
C3887 H3863 0.950 . S
C3887 C3886 1.524 . S
C3887 C3888 1.415 . S
C3888 H3864 0.950 . S
C3888 C3883 1.363 . S
C3888 C3887 1.415 . S
C3889 H3865 0.951 . S
C3889 C3890 1.366 . S
C3889 C3891 1.388 . S
C3890 C3889 1.366 . S
C3890 C3894 1.385 . S
C3891 H3866 0.951 . S
C3891 C3889 1.388 . S
C3891 C3892 1.366 . S
C3892 C3891 1.366 . S
C3892 C3893 1.414 . S
C3892 C3895 1.499 . S
C3893 H3867 0.950 . S
C3893 C3892 1.414 . S
C3893 C3894 1.374 . S
C3894 H3868 0.950 . S
C3894 C3890 1.385 . S
C3894 C3893 1.374 . S
C3895 C3892 1.499 . S
C3895 C3896 1.373 . S
C3895 C3897 1.389 . S
C3896 H3869 0.950 . S
C3896 C3882 1.377 . S
C3896 C3895 1.373 . S
C3897 C3881 1.377 . S
C3897 C3895 1.389 . S
C3897 C3898 1.524 . S
C3898 C3897 1.524 . S
C3898 C3899 1.397 . S
C3898 C3903 1.363 . S
C3899 H3870 0.950 . S
C3899 C3898 1.397 . S
C3899 C3900 1.334 . S
C3900 H3871 0.950 . S
C3900 C3899 1.334 . S
C3900 C3901 1.287 . S
C3901 C3900 1.287 . S
C3901 C3902 1.524 . S
C3901 H3904 0.999 . S
C3902 H3872 0.950 . S
C3902 C3901 1.524 . S
C3902 C3903 1.415 . S
C3903 H3873 0.950 . S
C3903 C3898 1.363 . S
C3903 C3902 1.415 . S
H3904 C3901 0.999 . S
H3905 C3886 0.913 . S
H3906 C3924 0.951 . S
H3907 C3926 0.951 . S
H3908 C3928 0.950 . S
H3909 C3929 0.950 . S
H3910 C3931 0.950 . S
H3911 C3934 0.950 . S
H3912 C3935 0.950 . S
H3913 C3937 0.950 . S
H3914 C3938 0.950 . S
H3915 C3939 0.951 . S
H3916 C3941 0.951 . S
H3917 C3943 0.950 . S
H3918 C3944 0.950 . S
H3919 C3946 0.950 . S
H3920 C3949 0.950 . S
H3921 C3950 0.950 . S
H3922 C3952 0.950 . S
H3923 C3953 0.950 . S
C3924 H3906 0.951 . S
C3924 C3925 1.366 . S
C3924 C3926 1.388 . S
C3925 C3924 1.366 . S
C3925 C3929 1.385 . S
C3926 H3907 0.951 . S
C3926 C3924 1.388 . S
C3926 C3927 1.366 . S
C3927 C3926 1.366 . S
C3927 C3928 1.414 . S
C3927 C3930 1.499 . S
C3928 H3908 0.950 . S
C3928 C3927 1.414 . S
C3928 C3929 1.374 . S
C3929 H3909 0.950 . S
C3929 C3925 1.385 . S
C3929 C3928 1.374 . S
C3930 C3927 1.499 . S
C3930 C3931 1.373 . S
C3930 C3932 1.389 . S
C3931 H3910 0.950 . S
C3931 C3930 1.373 . S
C3931 C3947 1.377 . S
C3932 C3930 1.389 . S
C3932 C3933 1.524 . S
C3932 C3946 1.377 . S
C3933 C3932 1.524 . S
C3933 C3934 1.397 . S
C3933 C3938 1.363 . S
C3934 H3911 0.950 . S
C3934 C3933 1.397 . S
C3934 C3935 1.334 . S
C3935 H3912 0.950 . S
C3935 C3934 1.334 . S
C3935 C3936 1.287 . S
C3936 C3935 1.287 . S
C3936 C3937 1.524 . S
C3936 H3955 0.913 . S
C3937 H3913 0.950 . S
C3937 C3936 1.524 . S
C3937 C3938 1.415 . S
C3938 H3914 0.950 . S
C3938 C3933 1.363 . S
C3938 C3937 1.415 . S
C3939 H3915 0.951 . S
C3939 C3940 1.366 . S
C3939 C3941 1.388 . S
C3940 C3939 1.366 . S
C3940 C3944 1.385 . S
C3941 H3916 0.951 . S
C3941 C3939 1.388 . S
C3941 C3942 1.366 . S
C3942 C3941 1.366 . S
C3942 C3943 1.414 . S
C3942 C3945 1.499 . S
C3943 H3917 0.950 . S
C3943 C3942 1.414 . S
C3943 C3944 1.374 . S
C3944 H3918 0.950 . S
C3944 C3940 1.385 . S
C3944 C3943 1.374 . S
C3945 C3942 1.499 . S
C3945 C3946 1.373 . S
C3945 C3947 1.389 . S
C3946 H3919 0.950 . S
C3946 C3932 1.377 . S
C3946 C3945 1.373 . S
C3947 C3931 1.377 . S
C3947 C3945 1.389 . S
C3947 C3948 1.524 . S
C3948 C3947 1.524 . S
C3948 C3949 1.397 . S
C3948 C3953 1.363 . S
C3949 H3920 0.950 . S
C3949 C3948 1.397 . S
C3949 C3950 1.334 . S
C3950 H3921 0.950 . S
C3950 C3949 1.334 . S
C3950 C3951 1.287 . S
C3951 C3950 1.287 . S
C3951 C3952 1.524 . S
C3951 H3954 0.999 . S
C3952 H3922 0.950 . S
C3952 C3951 1.524 . S
C3952 C3953 1.415 . S
C3953 H3923 0.950 . S
C3953 C3948 1.363 . S
C3953 C3952 1.415 . S
H3954 C3951 0.999 . S
H3955 C3936 0.913 . S
H3956 C3974 0.951 . S
H3957 C3976 0.951 . S
H3958 C3978 0.950 . S
H3959 C3979 0.950 . S
H3960 C3981 0.950 . S
H3961 C3984 0.950 . S
H3962 C3985 0.950 . S
H3963 C3987 0.950 . S
H3964 C3988 0.950 . S
H3965 C3989 0.951 . S
H3966 C3991 0.951 . S
H3967 C3993 0.950 . S
H3968 C3994 0.950 . S
H3969 C3996 0.950 . S
H3970 C3999 0.950 . S
H3971 C4000 0.950 . S
H3972 C4002 0.950 . S
H3973 C4003 0.950 . S
C3974 H3956 0.951 . S
C3974 C3975 1.366 . S
C3974 C3976 1.388 . S
C3975 C3974 1.366 . S
C3975 C3979 1.385 . S
C3976 H3957 0.951 . S
C3976 C3974 1.388 . S
C3976 C3977 1.366 . S
C3977 C3976 1.366 . S
C3977 C3978 1.414 . S
C3977 C3980 1.499 . S
C3978 H3958 0.950 . S
C3978 C3977 1.414 . S
C3978 C3979 1.374 . S
C3979 H3959 0.950 . S
C3979 C3975 1.385 . S
C3979 C3978 1.374 . S
C3980 C3977 1.499 . S
C3980 C3981 1.373 . S
C3980 C3982 1.389 . S
C3981 H3960 0.950 . S
C3981 C3980 1.373 . S
C3981 C3997 1.377 . S
C3982 C3980 1.389 . S
C3982 C3983 1.524 . S
C3982 C3996 1.377 . S
C3983 C3982 1.524 . S
C3983 C3984 1.397 . S
C3983 C3988 1.363 . S
C3984 H3961 0.950 . S
C3984 C3983 1.397 . S
C3984 C3985 1.334 . S
C3985 H3962 0.950 . S
C3985 C3984 1.334 . S
C3985 C3986 1.287 . S
C3986 C3985 1.287 . S
C3986 C3987 1.524 . S
C3986 H4005 0.913 . S
C3987 H3963 0.950 . S
C3987 C3986 1.524 . S
C3987 C3988 1.415 . S
C3988 H3964 0.950 . S
C3988 C3983 1.363 . S
C3988 C3987 1.415 . S
C3989 H3965 0.951 . S
C3989 C3990 1.366 . S
C3989 C3991 1.388 . S
C3990 C3989 1.366 . S
C3990 C3994 1.385 . S
C3991 H3966 0.951 . S
C3991 C3989 1.388 . S
C3991 C3992 1.366 . S
C3992 C3991 1.366 . S
C3992 C3993 1.414 . S
C3992 C3995 1.499 . S
C3993 H3967 0.950 . S
C3993 C3992 1.414 . S
C3993 C3994 1.374 . S
C3994 H3968 0.950 . S
C3994 C3990 1.385 . S
C3994 C3993 1.374 . S
C3995 C3992 1.499 . S
C3995 C3996 1.373 . S
C3995 C3997 1.389 . S
C3996 H3969 0.950 . S
C3996 C3982 1.377 . S
C3996 C3995 1.373 . S
C3997 C3981 1.377 . S
C3997 C3995 1.389 . S
C3997 C3998 1.524 . S
C3998 C3997 1.524 . S
C3998 C3999 1.397 . S
C3998 C4003 1.363 . S
C3999 H3970 0.950 . S
C3999 C3998 1.397 . S
C3999 C4000 1.334 . S
C4000 H3971 0.950 . S
C4000 C3999 1.334 . S
C4000 C4001 1.287 . S
C4001 C4000 1.287 . S
C4001 C4002 1.524 . S
C4001 H4004 0.999 . S
C4002 H3972 0.950 . S
C4002 C4001 1.524 . S
C4002 C4003 1.415 . S
C4003 H3973 0.950 . S
C4003 C3998 1.363 . S
C4003 C4002 1.415 . S
H4004 C4001 0.999 . S
H4005 C3986 0.913 . S
H4006 C4024 0.951 . S
H4007 C4026 0.951 . S
H4008 C4028 0.950 . S
H4009 C4029 0.950 . S
H4010 C4031 0.950 . S
H4011 C4034 0.950 . S
H4012 C4035 0.950 . S
H4013 C4037 0.950 . S
H4014 C4038 0.950 . S
H4015 C4039 0.951 . S
H4016 C4041 0.951 . S
H4017 C4043 0.950 . S
H4018 C4044 0.950 . S
H4019 C4046 0.950 . S
H4020 C4049 0.950 . S
H4021 C4050 0.950 . S
H4022 C4052 0.950 . S
H4023 C4053 0.950 . S
C4024 H4006 0.951 . S
C4024 C4025 1.366 . S
C4024 C4026 1.388 . S
C4025 C4024 1.366 . S
C4025 C4029 1.385 . S
C4026 H4007 0.951 . S
C4026 C4024 1.388 . S
C4026 C4027 1.366 . S
C4027 C4026 1.366 . S
C4027 C4028 1.414 . S
C4027 C4030 1.499 . S
C4028 H4008 0.950 . S
C4028 C4027 1.414 . S
C4028 C4029 1.374 . S
C4029 H4009 0.950 . S
C4029 C4025 1.385 . S
C4029 C4028 1.374 . S
C4030 C4027 1.499 . S
C4030 C4031 1.373 . S
C4030 C4032 1.389 . S
C4031 H4010 0.950 . S
C4031 C4030 1.373 . S
C4031 C4047 1.377 . S
C4032 C4030 1.389 . S
C4032 C4033 1.524 . S
C4032 C4046 1.377 . S
C4033 C4032 1.524 . S
C4033 C4034 1.397 . S
C4033 C4038 1.363 . S
C4034 H4011 0.950 . S
C4034 C4033 1.397 . S
C4034 C4035 1.334 . S
C4035 H4012 0.950 . S
C4035 C4034 1.334 . S
C4035 C4036 1.287 . S
C4036 C4035 1.287 . S
C4036 C4037 1.524 . S
C4036 H4055 0.913 . S
C4037 H4013 0.950 . S
C4037 C4036 1.524 . S
C4037 C4038 1.415 . S
C4038 H4014 0.950 . S
C4038 C4033 1.363 . S
C4038 C4037 1.415 . S
C4039 H4015 0.951 . S
C4039 C4040 1.366 . S
C4039 C4041 1.388 . S
C4040 C4039 1.366 . S
C4040 C4044 1.385 . S
C4041 H4016 0.951 . S
C4041 C4039 1.388 . S
C4041 C4042 1.366 . S
C4042 C4041 1.366 . S
C4042 C4043 1.414 . S
C4042 C4045 1.499 . S
C4043 H4017 0.950 . S
C4043 C4042 1.414 . S
C4043 C4044 1.374 . S
C4044 H4018 0.950 . S
C4044 C4040 1.385 . S
C4044 C4043 1.374 . S
C4045 C4042 1.499 . S
C4045 C4046 1.373 . S
C4045 C4047 1.389 . S
C4046 H4019 0.950 . S
C4046 C4032 1.377 . S
C4046 C4045 1.373 . S
C4047 C4031 1.377 . S
C4047 C4045 1.389 . S
C4047 C4048 1.524 . S
C4048 C4047 1.524 . S
C4048 C4049 1.397 . S
C4048 C4053 1.363 . S
C4049 H4020 0.950 . S
C4049 C4048 1.397 . S
C4049 C4050 1.334 . S
C4050 H4021 0.950 . S
C4050 C4049 1.334 . S
C4050 C4051 1.287 . S
C4051 C4050 1.287 . S
C4051 C4052 1.524 . S
C4051 H4054 0.999 . S
C4052 H4022 0.950 . S
C4052 C4051 1.524 . S
C4052 C4053 1.415 . S
C4053 H4023 0.950 . S
C4053 C4048 1.363 . S
C4053 C4052 1.415 . S
H4054 C4051 0.999 . S
H4055 C4036 0.913 . S
H4056 C4074 0.951 . S
H4057 C4076 0.951 . S
H4058 C4078 0.950 . S
H4059 C4079 0.950 . S
H4060 C4081 0.950 . S
H4061 C4084 0.950 . S
H4062 C4085 0.950 . S
H4063 C4087 0.950 . S
H4064 C4088 0.950 . S
H4065 C4089 0.951 . S
H4066 C4091 0.951 . S
H4067 C4093 0.950 . S
H4068 C4094 0.950 . S
H4069 C4096 0.950 . S
H4070 C4099 0.950 . S
H4071 C4100 0.950 . S
H4072 C4102 0.950 . S
H4073 C4103 0.950 . S
C4074 H4056 0.951 . S
C4074 C4075 1.366 . S
C4074 C4076 1.388 . S
C4075 C4074 1.366 . S
C4075 C4079 1.385 . S
C4076 H4057 0.951 . S
C4076 C4074 1.388 . S
C4076 C4077 1.366 . S
C4077 C4076 1.366 . S
C4077 C4078 1.414 . S
C4077 C4080 1.499 . S
C4078 H4058 0.950 . S
C4078 C4077 1.414 . S
C4078 C4079 1.374 . S
C4079 H4059 0.950 . S
C4079 C4075 1.385 . S
C4079 C4078 1.374 . S
C4080 C4077 1.499 . S
C4080 C4081 1.373 . S
C4080 C4082 1.389 . S
C4081 H4060 0.950 . S
C4081 C4080 1.373 . S
C4081 C4097 1.377 . S
C4082 C4080 1.389 . S
C4082 C4083 1.524 . S
C4082 C4096 1.377 . S
C4083 C4082 1.524 . S
C4083 C4084 1.397 . S
C4083 C4088 1.363 . S
C4084 H4061 0.950 . S
C4084 C4083 1.397 . S
C4084 C4085 1.334 . S
C4085 H4062 0.950 . S
C4085 C4084 1.334 . S
C4085 C4086 1.287 . S
C4086 C4085 1.287 . S
C4086 C4087 1.524 . S
C4086 H4105 0.913 . S
C4087 H4063 0.950 . S
C4087 C4086 1.524 . S
C4087 C4088 1.415 . S
C4088 H4064 0.950 . S
C4088 C4083 1.363 . S
C4088 C4087 1.415 . S
C4089 H4065 0.951 . S
C4089 C4090 1.366 . S
C4089 C4091 1.388 . S
C4090 C4089 1.366 . S
C4090 C4094 1.385 . S
C4091 H4066 0.951 . S
C4091 C4089 1.388 . S
C4091 C4092 1.366 . S
C4092 C4091 1.366 . S
C4092 C4093 1.414 . S
C4092 C4095 1.499 . S
C4093 H4067 0.950 . S
C4093 C4092 1.414 . S
C4093 C4094 1.374 . S
C4094 H4068 0.950 . S
C4094 C4090 1.385 . S
C4094 C4093 1.374 . S
C4095 C4092 1.499 . S
C4095 C4096 1.373 . S
C4095 C4097 1.389 . S
C4096 H4069 0.950 . S
C4096 C4082 1.377 . S
C4096 C4095 1.373 . S
C4097 C4081 1.377 . S
C4097 C4095 1.389 . S
C4097 C4098 1.524 . S
C4098 C4097 1.524 . S
C4098 C4099 1.397 . S
C4098 C4103 1.363 . S
C4099 H4070 0.950 . S
C4099 C4098 1.397 . S
C4099 C4100 1.334 . S
C4100 H4071 0.950 . S
C4100 C4099 1.334 . S
C4100 C4101 1.287 . S
C4101 C4100 1.287 . S
C4101 C4102 1.524 . S
C4101 H4104 0.999 . S
C4102 H4072 0.950 . S
C4102 C4101 1.524 . S
C4102 C4103 1.415 . S
C4103 H4073 0.950 . S
C4103 C4098 1.363 . S
C4103 C4102 1.415 . S
H4104 C4101 0.999 . S
H4105 C4086 0.913 . S
H4106 C4124 0.951 . S
H4107 C4126 0.951 . S
H4108 C4128 0.950 . S
H4109 C4129 0.950 . S
H4110 C4131 0.950 . S
H4111 C4134 0.950 . S
H4112 C4135 0.950 . S
H4113 C4137 0.950 . S
H4114 C4138 0.950 . S
H4115 C4139 0.951 . S
H4116 C4141 0.951 . S
H4117 C4143 0.950 . S
H4118 C4144 0.950 . S
H4119 C4146 0.950 . S
H4120 C4149 0.950 . S
H4121 C4150 0.950 . S
H4122 C4152 0.950 . S
H4123 C4153 0.950 . S
C4124 H4106 0.951 . S
C4124 C4125 1.366 . S
C4124 C4126 1.388 . S
C4125 C4124 1.366 . S
C4125 C4129 1.385 . S
C4126 H4107 0.951 . S
C4126 C4124 1.388 . S
C4126 C4127 1.366 . S
C4127 C4126 1.366 . S
C4127 C4128 1.414 . S
C4127 C4130 1.499 . S
C4128 H4108 0.950 . S
C4128 C4127 1.414 . S
C4128 C4129 1.374 . S
C4129 H4109 0.950 . S
C4129 C4125 1.385 . S
C4129 C4128 1.374 . S
C4130 C4127 1.499 . S
C4130 C4131 1.373 . S
C4130 C4132 1.389 . S
C4131 H4110 0.950 . S
C4131 C4130 1.373 . S
C4131 C4147 1.377 . S
C4132 C4130 1.389 . S
C4132 C4133 1.524 . S
C4132 C4146 1.377 . S
C4133 C4132 1.524 . S
C4133 C4134 1.397 . S
C4133 C4138 1.363 . S
C4134 H4111 0.950 . S
C4134 C4133 1.397 . S
C4134 C4135 1.334 . S
C4135 H4112 0.950 . S
C4135 C4134 1.334 . S
C4135 C4136 1.287 . S
C4136 C4135 1.287 . S
C4136 C4137 1.524 . S
C4136 H4155 0.913 . S
C4137 H4113 0.950 . S
C4137 C4136 1.524 . S
C4137 C4138 1.415 . S
C4138 H4114 0.950 . S
C4138 C4133 1.363 . S
C4138 C4137 1.415 . S
C4139 H4115 0.951 . S
C4139 C4140 1.366 . S
C4139 C4141 1.388 . S
C4140 C4139 1.366 . S
C4140 C4144 1.385 . S
C4141 H4116 0.951 . S
C4141 C4139 1.388 . S
C4141 C4142 1.366 . S
C4142 C4141 1.366 . S
C4142 C4143 1.414 . S
C4142 C4145 1.499 . S
C4143 H4117 0.950 . S
C4143 C4142 1.414 . S
C4143 C4144 1.374 . S
C4144 H4118 0.950 . S
C4144 C4140 1.385 . S
C4144 C4143 1.374 . S
C4145 C4142 1.499 . S
C4145 C4146 1.373 . S
C4145 C4147 1.389 . S
C4146 H4119 0.950 . S
C4146 C4132 1.377 . S
C4146 C4145 1.373 . S
C4147 C4131 1.377 . S
C4147 C4145 1.389 . S
C4147 C4148 1.524 . S
C4148 C4147 1.524 . S
C4148 C4149 1.397 . S
C4148 C4153 1.363 . S
C4149 H4120 0.950 . S
C4149 C4148 1.397 . S
C4149 C4150 1.334 . S
C4150 H4121 0.950 . S
C4150 C4149 1.334 . S
C4150 C4151 1.287 . S
C4151 C4150 1.287 . S
C4151 C4152 1.524 . S
C4151 H4154 0.999 . S
C4152 H4122 0.950 . S
C4152 C4151 1.524 . S
C4152 C4153 1.415 . S
C4153 H4123 0.950 . S
C4153 C4148 1.363 . S
C4153 C4152 1.415 . S
H4154 C4151 0.999 . S
H4155 C4136 0.913 . S
H4156 C4174 0.951 . S
H4157 C4176 0.951 . S
H4158 C4178 0.950 . S
H4159 C4179 0.950 . S
H4160 C4181 0.950 . S
H4161 C4184 0.950 . S
H4162 C4185 0.950 . S
H4163 C4187 0.950 . S
H4164 C4188 0.950 . S
H4165 C4189 0.951 . S
H4166 C4191 0.951 . S
H4167 C4193 0.950 . S
H4168 C4194 0.950 . S
H4169 C4196 0.950 . S
H4170 C4199 0.950 1_455 S
H4171 C4200 0.950 . S
H4172 C4202 0.950 . S
H4173 C4203 0.950 . S
C4174 H4156 0.951 . S
C4174 C4175 1.366 . S
C4174 C4176 1.388 . S
C4175 C4174 1.366 . S
C4175 C4179 1.385 1_455 S
C4176 H4157 0.951 . S
C4176 C4174 1.388 . S
C4176 C4177 1.366 . S
C4177 C4176 1.366 . S
C4177 C4178 1.414 1_455 S
C4177 C4180 1.499 . S
C4178 H4158 0.950 . S
C4178 C4177 1.414 1_655 S
C4178 C4179 1.374 . S
C4179 H4159 0.950 . S
C4179 C4175 1.385 1_655 S
C4179 C4178 1.374 . S
C4180 C4177 1.499 . S
C4180 C4181 1.373 1_455 S
C4180 C4182 1.393 1_556 S
C4181 H4160 0.950 . S
C4181 C4180 1.373 1_655 S
C4181 C4197 1.377 . S
C4182 C4180 1.393 1_554 S
C4182 C4183 1.522 . S
C4182 C4196 1.375 . S
C4183 C4182 1.522 . S
C4183 C4184 1.397 . S
C4183 C4188 1.363 . S
C4184 H4161 0.950 . S
C4184 C4183 1.397 . S
C4184 C4185 1.334 . S
C4185 H4162 0.950 . S
C4185 C4184 1.334 . S
C4185 C4186 1.287 . S
C4186 C4185 1.287 . S
C4186 C4187 1.524 . S
C4186 H4205 0.913 . S
C4187 H4163 0.950 . S
C4187 C4186 1.524 . S
C4187 C4188 1.415 . S
C4188 H4164 0.950 . S
C4188 C4183 1.363 . S
C4188 C4187 1.415 . S
C4189 H4165 0.951 . S
C4189 C4190 1.366 1_655 S
C4189 C4191 1.388 . S
C4190 C4189 1.366 1_455 S
C4190 C4194 1.385 . S
C4191 H4166 0.951 . S
C4191 C4189 1.388 . S
C4191 C4192 1.366 1_655 S
C4192 C4191 1.366 1_455 S
C4192 C4193 1.414 . S
C4192 C4195 1.499 1_554 S
C4193 H4167 0.950 . S
C4193 C4192 1.414 . S
C4193 C4194 1.374 . S
C4194 H4168 0.950 . S
C4194 C4190 1.385 . S
C4194 C4193 1.374 . S
C4195 C4192 1.499 1_556 S
C4195 C4196 1.373 1_556 S
C4195 C4197 1.389 1_455 S
C4196 H4169 0.950 . S
C4196 C4182 1.375 . S
C4196 C4195 1.373 1_554 S
C4197 C4181 1.377 . S
C4197 C4195 1.389 1_655 S
C4197 C4198 1.524 . S
C4198 C4197 1.524 . S
C4198 C4199 1.397 . S
C4198 C4203 1.363 . S
C4199 H4170 0.950 1_655 S
C4199 C4198 1.397 . S
C4199 C4200 1.334 . S
C4200 H4171 0.950 . S
C4200 C4199 1.334 . S
C4200 C4201 1.287 . S
C4201 C4200 1.287 . S
C4201 C4202 1.524 . S
C4201 H4204 0.999 . S
C4202 H4172 0.950 . S
C4202 C4201 1.524 . S
C4202 C4203 1.415 . S
C4203 H4173 0.950 . S
C4203 C4198 1.363 . S
C4203 C4202 1.415 . S
H4204 C4201 0.999 . S
H4205 C4186 0.913 . S
H4206 C4224 0.951 . S
H4207 C4226 0.951 . S
H4208 C4228 0.950 . S
H4209 C4229 0.950 1_455 S
H4210 C4231 0.950 . S
H4211 C4234 0.950 . S
H4212 C4235 0.950 1_455 S
H4213 C4237 0.950 . S
H4214 C4238 0.950 . S
H4215 C4239 0.951 . S
H4216 C4241 0.951 . S
H4217 C4243 0.950 . S
H4218 C4244 0.950 . S
H4219 C4246 0.950 . S
H4220 C4249 0.950 . S
H4221 C4250 0.950 . S
H4222 C4252 0.950 . S
H4223 C4253 0.950 . S
C4224 H4206 0.951 . S
C4224 C4225 1.411 . S
C4224 C4226 1.388 . S
C4225 C4224 1.411 . S
C4225 C4229 1.387 . S
C4226 H4207 0.951 . S
C4226 C4224 1.388 . S
C4226 C4227 1.366 . S
C4227 C4226 1.366 . S
C4227 C4228 1.414 . S
C4227 C4230 1.499 . S
C4228 H4208 0.950 . S
C4228 C4227 1.414 . S
C4228 C4229 1.374 . S
C4229 H4209 0.950 1_655 S
C4229 C4225 1.387 . S
C4229 C4228 1.374 . S
C4230 C4227 1.499 . S
C4230 C4231 1.373 . S
C4230 C4232 1.389 . S
C4231 H4210 0.950 . S
C4231 C4230 1.373 . S
C4231 C4247 1.377 . S
C4232 C4230 1.389 . S
C4232 C4233 1.524 . S
C4232 C4246 1.377 . S
C4233 C4232 1.524 . S
C4233 C4234 1.397 . S
C4233 C4238 1.363 . S
C4234 H4211 0.950 . S
C4234 C4233 1.397 . S
C4234 C4235 1.334 . S
C4235 H4212 0.950 1_655 S
C4235 C4234 1.334 . S
C4235 C4236 1.287 . S
C4236 C4235 1.287 . S
C4236 C4237 1.524 . S
C4236 H4255 0.913 . S
C4237 H4213 0.950 . S
C4237 C4236 1.524 . S
C4237 C4238 1.415 . S
C4238 H4214 0.950 . S
C4238 C4233 1.363 . S
C4238 C4237 1.415 . S
C4239 H4215 0.951 . S
C4239 C4240 1.366 . S
C4239 C4241 1.388 . S
C4240 C4239 1.366 . S
C4240 C4244 1.385 . S
C4241 H4216 0.951 . S
C4241 C4239 1.388 . S
C4241 C4242 1.366 . S
C4242 C4241 1.366 . S
C4242 C4243 1.414 . S
C4242 C4245 1.499 . S
C4243 H4217 0.950 . S
C4243 C4242 1.414 . S
C4243 C4244 1.374 . S
C4244 H4218 0.950 . S
C4244 C4240 1.385 . S
C4244 C4243 1.374 . S
C4245 C4242 1.499 . S
C4245 C4246 1.373 . S
C4245 C4247 1.389 . S
C4246 H4219 0.950 . S
C4246 C4232 1.377 . S
C4246 C4245 1.373 . S
C4247 C4231 1.377 . S
C4247 C4245 1.389 . S
C4247 C4248 1.524 . S
C4248 C4247 1.524 . S
C4248 C4249 1.397 . S
C4248 C4253 1.363 . S
C4249 H4220 0.950 . S
C4249 C4248 1.397 . S
C4249 C4250 1.334 . S
C4250 H4221 0.950 . S
C4250 C4249 1.334 . S
C4250 C4251 1.287 . S
C4251 C4250 1.287 . S
C4251 C4252 1.524 . S
C4251 H4254 0.999 . S
C4252 H4222 0.950 . S
C4252 C4251 1.524 . S
C4252 C4253 1.415 . S
C4253 H4223 0.950 . S
C4253 C4248 1.363 . S
C4253 C4252 1.415 . S
H4254 C4251 0.999 . S
H4255 C4236 0.913 . S
H4256 C4274 0.951 . S
H4257 C4276 0.951 . S
H4258 C4278 0.950 . S
H4259 C4279 0.950 . S
H4260 C4281 0.950 . S
H4261 C4284 0.950 . S
H4262 C4285 0.950 . S
H4263 C4287 0.950 . S
H4264 C4288 0.950 . S
H4265 C4289 0.951 . S
H4266 C4291 0.951 . S
H4267 C4293 0.950 . S
H4268 C4294 0.950 . S
H4269 C4296 0.950 . S
H4270 C4299 0.950 . S
H4271 C4300 0.950 . S
H4272 C4302 0.950 . S
H4273 C4303 0.950 . S
C4274 H4256 0.951 . S
C4274 C4275 1.366 . S
C4274 C4276 1.388 . S
C4275 C4274 1.366 . S
C4275 C4279 1.385 . S
C4276 H4257 0.951 . S
C4276 C4274 1.388 . S
C4276 C4277 1.366 . S
C4277 C4276 1.366 . S
C4277 C4278 1.414 . S
C4277 C4280 1.499 . S
C4278 H4258 0.950 . S
C4278 C4277 1.414 . S
C4278 C4279 1.374 . S
C4279 H4259 0.950 . S
C4279 C4275 1.385 . S
C4279 C4278 1.374 . S
C4280 C4277 1.499 . S
C4280 C4281 1.373 . S
C4280 C4282 1.389 . S
C4281 H4260 0.950 . S
C4281 C4280 1.373 . S
C4281 C4297 1.377 . S
C4282 C4280 1.389 . S
C4282 C4283 1.524 . S
C4282 C4296 1.377 . S
C4283 C4282 1.524 . S
C4283 C4284 1.397 . S
C4283 C4288 1.363 . S
C4284 H4261 0.950 . S
C4284 C4283 1.397 . S
C4284 C4285 1.334 . S
C4285 H4262 0.950 . S
C4285 C4284 1.334 . S
C4285 C4286 1.287 . S
C4286 C4285 1.287 . S
C4286 C4287 1.524 . S
C4286 H4305 0.913 . S
C4287 H4263 0.950 . S
C4287 C4286 1.524 . S
C4287 C4288 1.415 . S
C4288 H4264 0.950 . S
C4288 C4283 1.363 . S
C4288 C4287 1.415 . S
C4289 H4265 0.951 . S
C4289 C4290 1.366 . S
C4289 C4291 1.388 . S
C4290 C4289 1.366 . S
C4290 C4294 1.385 . S
C4291 H4266 0.951 . S
C4291 C4289 1.388 . S
C4291 C4292 1.366 . S
C4292 C4291 1.366 . S
C4292 C4293 1.414 . S
C4292 C4295 1.499 . S
C4293 H4267 0.950 . S
C4293 C4292 1.414 . S
C4293 C4294 1.374 . S
C4294 H4268 0.950 . S
C4294 C4290 1.385 . S
C4294 C4293 1.374 . S
C4295 C4292 1.499 . S
C4295 C4296 1.373 . S
C4295 C4297 1.389 . S
C4296 H4269 0.950 . S
C4296 C4282 1.377 . S
C4296 C4295 1.373 . S
C4297 C4281 1.377 . S
C4297 C4295 1.389 . S
C4297 C4298 1.524 . S
C4298 C4297 1.524 . S
C4298 C4299 1.397 . S
C4298 C4303 1.363 . S
C4299 H4270 0.950 . S
C4299 C4298 1.397 . S
C4299 C4300 1.334 . S
C4300 H4271 0.950 . S
C4300 C4299 1.334 . S
C4300 C4301 1.287 . S
C4301 C4300 1.287 . S
C4301 C4302 1.524 . S
C4301 H4304 0.999 . S
C4302 H4272 0.950 . S
C4302 C4301 1.524 . S
C4302 C4303 1.415 . S
C4303 H4273 0.950 . S
C4303 C4298 1.363 . S
C4303 C4302 1.415 . S
H4304 C4301 0.999 . S
H4305 C4286 0.913 . S
H4306 C4324 0.951 . S
H4307 C4326 0.951 . S
H4308 C4328 0.950 . S
H4309 C4329 0.950 . S
H4310 C4331 0.950 . S
H4311 C4334 0.950 . S
H4312 C4335 0.950 . S
H4313 C4337 0.950 . S
H4314 C4338 0.950 . S
H4315 C4339 0.951 . S
H4316 C4341 0.951 . S
H4317 C4343 0.950 . S
H4318 C4344 0.950 . S
H4319 C4346 0.950 . S
H4320 C4349 0.950 . S
H4321 C4350 0.950 . S
H4322 C4352 0.950 . S
H4323 C4353 0.950 . S
C4324 H4306 0.951 . S
C4324 C4325 1.366 . S
C4324 C4326 1.388 . S
C4325 C4324 1.366 . S
C4325 C4329 1.385 . S
C4326 H4307 0.951 . S
C4326 C4324 1.388 . S
C4326 C4327 1.366 . S
C4327 C4326 1.366 . S
C4327 C4328 1.414 . S
C4327 C4330 1.499 . S
C4328 H4308 0.950 . S
C4328 C4327 1.414 . S
C4328 C4329 1.374 . S
C4329 H4309 0.950 . S
C4329 C4325 1.385 . S
C4329 C4328 1.374 . S
C4330 C4327 1.499 . S
C4330 C4331 1.373 . S
C4330 C4332 1.389 . S
C4331 H4310 0.950 . S
C4331 C4330 1.373 . S
C4331 C4347 1.377 . S
C4332 C4330 1.389 . S
C4332 C4333 1.524 . S
C4332 C4346 1.377 . S
C4333 C4332 1.524 . S
C4333 C4334 1.397 . S
C4333 C4338 1.363 . S
C4334 H4311 0.950 . S
C4334 C4333 1.397 . S
C4334 C4335 1.334 . S
C4335 H4312 0.950 . S
C4335 C4334 1.334 . S
C4335 C4336 1.287 . S
C4336 C4335 1.287 . S
C4336 C4337 1.524 . S
C4336 H4355 0.913 . S
C4337 H4313 0.950 . S
C4337 C4336 1.524 . S
C4337 C4338 1.415 . S
C4338 H4314 0.950 . S
C4338 C4333 1.363 . S
C4338 C4337 1.415 . S
C4339 H4315 0.951 . S
C4339 C4340 1.366 . S
C4339 C4341 1.388 . S
C4340 C4339 1.366 . S
C4340 C4344 1.385 . S
C4341 H4316 0.951 . S
C4341 C4339 1.388 . S
C4341 C4342 1.366 . S
C4342 C4341 1.366 . S
C4342 C4343 1.414 . S
C4342 C4345 1.499 . S
C4343 H4317 0.950 . S
C4343 C4342 1.414 . S
C4343 C4344 1.374 . S
C4344 H4318 0.950 . S
C4344 C4340 1.385 . S
C4344 C4343 1.374 . S
C4345 C4342 1.499 . S
C4345 C4346 1.373 . S
C4345 C4347 1.389 . S
C4346 H4319 0.950 . S
C4346 C4332 1.377 . S
C4346 C4345 1.373 . S
C4347 C4331 1.377 . S
C4347 C4345 1.389 . S
C4347 C4348 1.524 . S
C4348 C4347 1.524 . S
C4348 C4349 1.397 . S
C4348 C4353 1.363 . S
C4349 H4320 0.950 . S
C4349 C4348 1.397 . S
C4349 C4350 1.334 . S
C4350 H4321 0.950 . S
C4350 C4349 1.334 . S
C4350 C4351 1.287 . S
C4351 C4350 1.287 . S
C4351 C4352 1.524 . S
C4351 H4354 0.999 . S
C4352 H4322 0.950 . S
C4352 C4351 1.524 . S
C4352 C4353 1.415 . S
C4353 H4323 0.950 . S
C4353 C4348 1.363 . S
C4353 C4352 1.415 . S
H4354 C4351 0.999 . S
H4355 C4336 0.913 . S
H4356 C4374 0.951 . S
H4357 C4376 0.951 . S
H4358 C4378 0.950 . S
H4359 C4379 0.950 . S
H4360 C4381 0.950 . S
H4361 C4384 0.950 . S
H4362 C4385 0.950 . S
H4363 C4387 0.950 . S
H4364 C4388 0.950 . S
H4365 C4389 0.951 . S
H4366 C4391 0.951 . S
H4367 C4393 0.950 . S
H4368 C4394 0.950 . S
H4369 C4396 0.950 . S
H4370 C4399 0.950 . S
H4371 C4400 0.950 . S
H4372 C4402 0.950 . S
H4373 C4403 0.950 . S
C4374 H4356 0.951 . S
C4374 C4375 1.366 1_655 S
C4374 C4376 1.388 . S
C4375 C4374 1.366 1_455 S
C4375 C4379 1.385 . S
C4376 H4357 0.951 . S
C4376 C4374 1.388 . S
C4376 C4377 1.366 1_655 S
C4377 C4376 1.366 1_455 S
C4377 C4378 1.414 . S
C4377 C4380 1.499 . S
C4378 H4358 0.950 . S
C4378 C4377 1.414 . S
C4378 C4379 1.374 . S
C4379 H4359 0.950 . S
C4379 C4375 1.385 . S
C4379 C4378 1.374 . S
C4380 C4377 1.499 . S
C4380 C4381 1.373 . S
C4380 C4382 1.389 1_455 S
C4381 H4360 0.950 . S
C4381 C4380 1.373 . S
C4381 C4397 1.377 . S
C4382 C4380 1.389 1_655 S
C4382 C4383 1.524 . S
C4382 C4396 1.377 . S
C4383 C4382 1.524 . S
C4383 C4384 1.397 . S
C4383 C4388 1.363 . S
C4384 H4361 0.950 . S
C4384 C4383 1.397 . S
C4384 C4385 1.334 . S
C4385 H4362 0.950 . S
C4385 C4384 1.334 . S
C4385 C4386 1.287 . S
C4386 C4385 1.287 . S
C4386 C4387 1.524 . S
C4386 H4405 0.913 . S
C4387 H4363 0.950 . S
C4387 C4386 1.524 . S
C4387 C4388 1.415 . S
C4388 H4364 0.950 . S
C4388 C4383 1.363 . S
C4388 C4387 1.415 . S
C4389 H4365 0.951 . S
C4389 C4390 1.366 . S
C4389 C4391 1.388 . S
C4390 C4389 1.366 . S
C4390 C4394 1.385 1_455 S
C4391 H4366 0.951 . S
C4391 C4389 1.388 . S
C4391 C4392 1.366 . S
C4392 C4391 1.366 . S
C4392 C4393 1.414 1_455 S
C4392 C4395 1.499 . S
C4393 H4367 0.950 . S
C4393 C4392 1.414 1_655 S
C4393 C4394 1.374 . S
C4394 H4368 0.950 . S
C4394 C4390 1.385 1_655 S
C4394 C4393 1.374 . S
C4395 C4392 1.499 . S
C4395 C4396 1.373 1_455 S
C4395 C4397 1.389 . S
C4396 H4369 0.950 . S
C4396 C4382 1.377 . S
C4396 C4395 1.373 1_655 S
C4397 C4381 1.377 . S
C4397 C4395 1.389 . S
C4397 C4398 1.524 . S
C4398 C4397 1.524 . S
C4398 C4399 1.397 . S
C4398 C4403 1.363 . S
C4399 H4370 0.950 . S
C4399 C4398 1.397 . S
C4399 C4400 1.334 . S
C4400 H4371 0.950 . S
C4400 C4399 1.334 . S
C4400 C4401 1.287 . S
C4401 C4400 1.287 . S
C4401 C4402 1.524 . S
C4401 H4404 0.999 . S
C4402 H4372 0.950 . S
C4402 C4401 1.524 . S
C4402 C4403 1.415 . S
C4403 H4373 0.950 . S
C4403 C4398 1.363 . S
C4403 C4402 1.415 . S
H4404 C4401 0.999 . S
H4405 C4386 0.913 . S
H4406 C4424 0.951 . S
H4407 C4426 0.951 . S
H4408 C4428 0.950 . S
H4409 C4429 0.950 . S
H4410 C4431 0.950 . S
H4411 C4434 0.950 . S
H4412 C4435 0.950 . S
H4413 C4437 0.950 . S
H4414 C4438 0.950 . S
H4415 C4439 0.951 . S
H4416 C4441 0.951 . S
H4417 C4443 0.950 . S
H4418 C4444 0.950 . S
H4419 C4446 0.950 . S
H4420 C4449 0.950 . S
H4421 C4450 0.950 . S
H4422 C4452 0.950 . S
H4423 C4453 0.950 . S
C4424 H4406 0.951 . S
C4424 C4425 1.366 . S
C4424 C4426 1.388 . S
C4425 C4424 1.366 . S
C4425 C4429 1.385 . S
C4426 H4407 0.951 . S
C4426 C4424 1.388 . S
C4426 C4427 1.366 . S
C4427 C4426 1.366 . S
C4427 C4428 1.414 . S
C4427 C4430 1.499 . S
C4428 H4408 0.950 . S
C4428 C4427 1.414 . S
C4428 C4429 1.374 . S
C4429 H4409 0.950 . S
C4429 C4425 1.385 . S
C4429 C4428 1.374 . S
C4430 C4427 1.499 . S
C4430 C4431 1.373 . S
C4430 C4432 1.389 . S
C4431 H4410 0.950 . S
C4431 C4430 1.373 . S
C4431 C4447 1.377 . S
C4432 C4430 1.389 . S
C4432 C4433 1.524 . S
C4432 C4446 1.377 . S
C4433 C4432 1.524 . S
C4433 C4434 1.397 . S
C4433 C4438 1.363 . S
C4434 H4411 0.950 . S
C4434 C4433 1.397 . S
C4434 C4435 1.334 . S
C4435 H4412 0.950 . S
C4435 C4434 1.334 . S
C4435 C4436 1.287 . S
C4436 C4435 1.287 . S
C4436 C4437 1.524 . S
C4436 H4455 0.913 . S
C4437 H4413 0.950 . S
C4437 C4436 1.524 . S
C4437 C4438 1.415 . S
C4438 H4414 0.950 . S
C4438 C4433 1.363 . S
C4438 C4437 1.415 . S
C4439 H4415 0.951 . S
C4439 C4440 1.366 . S
C4439 C4441 1.388 . S
C4440 C4439 1.366 . S
C4440 C4444 1.385 . S
C4441 H4416 0.951 . S
C4441 C4439 1.388 . S
C4441 C4442 1.366 . S
C4442 C4441 1.366 . S
C4442 C4443 1.414 . S
C4442 C4445 1.499 . S
C4443 H4417 0.950 . S
C4443 C4442 1.414 . S
C4443 C4444 1.374 . S
C4444 H4418 0.950 . S
C4444 C4440 1.385 . S
C4444 C4443 1.374 . S
C4445 C4442 1.499 . S
C4445 C4446 1.373 . S
C4445 C4447 1.389 . S
C4446 H4419 0.950 . S
C4446 C4432 1.377 . S
C4446 C4445 1.373 . S
C4447 C4431 1.377 . S
C4447 C4445 1.389 . S
C4447 C4448 1.524 . S
C4448 C4447 1.524 . S
C4448 C4449 1.397 . S
C4448 C4453 1.363 . S
C4449 H4420 0.950 . S
C4449 C4448 1.397 . S
C4449 C4450 1.334 . S
C4450 H4421 0.950 . S
C4450 C4449 1.334 . S
C4450 C4451 1.287 . S
C4451 C4450 1.287 . S
C4451 C4452 1.524 . S
C4451 H4454 0.999 . S
C4452 H4422 0.950 . S
C4452 C4451 1.524 . S
C4452 C4453 1.415 . S
C4453 H4423 0.950 . S
C4453 C4448 1.363 . S
C4453 C4452 1.415 . S
H4454 C4451 0.999 . S
H4455 C4436 0.913 . S
H4456 C4474 0.951 . S
H4457 C4476 0.951 . S
H4458 C4478 0.950 . S
H4459 C4479 0.950 . S
H4460 C4481 0.950 . S
H4461 C4484 0.950 . S
H4462 C4485 0.950 . S
H4463 C4487 0.950 . S
H4464 C4488 0.950 . S
H4465 C4489 0.951 . S
H4466 C4491 0.951 . S
H4467 C4493 0.950 . S
H4468 C4494 0.950 . S
H4469 C4496 0.950 . S
H4470 C4499 0.950 . S
H4471 C4500 0.950 . S
H4472 C4502 0.950 . S
H4473 C4503 0.950 . S
C4474 H4456 0.951 . S
C4474 C4475 1.366 . S
C4474 C4476 1.388 . S
C4475 C4474 1.366 . S
C4475 C4479 1.385 . S
C4476 H4457 0.951 . S
C4476 C4474 1.388 . S
C4476 C4477 1.366 . S
C4477 C4476 1.366 . S
C4477 C4478 1.414 . S
C4477 C4480 1.499 . S
C4478 H4458 0.950 . S
C4478 C4477 1.414 . S
C4478 C4479 1.374 . S
C4479 H4459 0.950 . S
C4479 C4475 1.385 . S
C4479 C4478 1.374 . S
C4480 C4477 1.499 . S
C4480 C4481 1.373 . S
C4480 C4482 1.389 . S
C4481 H4460 0.950 . S
C4481 C4480 1.373 . S
C4481 C4497 1.377 . S
C4482 C4480 1.389 . S
C4482 C4483 1.524 . S
C4482 C4496 1.377 . S
C4483 C4482 1.524 . S
C4483 C4484 1.397 . S
C4483 C4488 1.363 . S
C4484 H4461 0.950 . S
C4484 C4483 1.397 . S
C4484 C4485 1.334 . S
C4485 H4462 0.950 . S
C4485 C4484 1.334 . S
C4485 C4486 1.287 . S
C4486 C4485 1.287 . S
C4486 C4487 1.524 . S
C4486 H4505 0.913 . S
C4487 H4463 0.950 . S
C4487 C4486 1.524 . S
C4487 C4488 1.415 . S
C4488 H4464 0.950 . S
C4488 C4483 1.363 . S
C4488 C4487 1.415 . S
C4489 H4465 0.951 . S
C4489 C4490 1.366 . S
C4489 C4491 1.388 . S
C4490 C4489 1.366 . S
C4490 C4494 1.385 . S
C4491 H4466 0.951 . S
C4491 C4489 1.388 . S
C4491 C4492 1.366 . S
C4492 C4491 1.366 . S
C4492 C4493 1.414 . S
C4492 C4495 1.499 . S
C4493 H4467 0.950 . S
C4493 C4492 1.414 . S
C4493 C4494 1.374 . S
C4494 H4468 0.950 . S
C4494 C4490 1.385 . S
C4494 C4493 1.374 . S
C4495 C4492 1.499 . S
C4495 C4496 1.373 . S
C4495 C4497 1.389 . S
C4496 H4469 0.950 . S
C4496 C4482 1.377 . S
C4496 C4495 1.373 . S
C4497 C4481 1.377 . S
C4497 C4495 1.389 . S
C4497 C4498 1.524 . S
C4498 C4497 1.524 . S
C4498 C4499 1.397 . S
C4498 C4503 1.363 . S
C4499 H4470 0.950 . S
C4499 C4498 1.397 . S
C4499 C4500 1.334 . S
C4500 H4471 0.950 . S
C4500 C4499 1.334 . S
C4500 C4501 1.287 . S
C4501 C4500 1.287 . S
C4501 C4502 1.524 . S
C4501 H4504 0.999 . S
C4502 H4472 0.950 . S
C4502 C4501 1.524 . S
C4502 C4503 1.415 . S
C4503 H4473 0.950 . S
C4503 C4498 1.363 . S
C4503 C4502 1.415 . S
H4504 C4501 0.999 . S
H4505 C4486 0.913 . S
H4506 C4524 0.951 . S
H4507 C4526 0.951 . S
H4508 C4528 0.950 . S
H4509 C4529 0.950 . S
H4510 C4531 0.950 . S
H4511 C4534 0.950 . S
H4512 C4535 0.950 . S
H4513 C4537 0.950 . S
H4514 C4538 0.950 . S
H4515 C4539 0.951 . S
H4516 C4541 0.951 . S
H4517 C4543 0.950 . S
H4518 C4544 0.950 . S
H4519 C4546 0.950 . S
H4520 C4549 0.950 . S
H4521 C4550 0.950 . S
H4522 C4552 0.950 . S
H4523 C4553 0.950 . S
C4524 H4506 0.951 . S
C4524 C4525 1.372 . S
C4524 C4526 1.388 1_554 S
C4525 C4524 1.372 . S
C4525 C4529 1.334 1_554 S
C4526 H4507 0.951 . S
C4526 C4524 1.388 1_556 S
C4526 C4527 1.366 . S
C4527 C4526 1.366 . S
C4527 C4528 1.414 . S
C4527 C4530 1.499 . S
C4528 H4508 0.950 . S
C4528 C4527 1.414 . S
C4528 C4529 1.374 . S
C4529 H4509 0.950 . S
C4529 C4525 1.334 1_556 S
C4529 C4528 1.374 . S
C4530 C4527 1.499 . S
C4530 C4531 1.373 . S
C4530 C4532 1.389 . S
C4531 H4510 0.950 . S
C4531 C4530 1.373 . S
C4531 C4547 1.377 . S
C4532 C4530 1.389 . S
C4532 C4533 1.524 . S
C4532 C4546 1.377 . S
C4533 C4532 1.524 . S
C4533 C4534 1.397 . S
C4533 C4538 1.363 . S
C4534 H4511 0.950 . S
C4534 C4533 1.397 . S
C4534 C4535 1.334 . S
C4535 H4512 0.950 . S
C4535 C4534 1.334 . S
C4535 C4536 1.287 1_556 S
C4536 C4535 1.287 1_554 S
C4536 C4537 1.524 . S
C4536 H4555 0.913 . S
C4537 H4513 0.950 . S
C4537 C4536 1.524 . S
C4537 C4538 1.415 1_554 S
C4538 H4514 0.950 . S
C4538 C4533 1.363 . S
C4538 C4537 1.415 1_556 S
C4539 H4515 0.951 . S
C4539 C4540 1.366 . S
C4539 C4541 1.388 . S
C4540 C4539 1.366 . S
C4540 C4544 1.385 . S
C4541 H4516 0.951 . S
C4541 C4539 1.388 . S
C4541 C4542 1.366 . S
C4542 C4541 1.366 . S
C4542 C4543 1.414 . S
C4542 C4545 1.499 . S
C4543 H4517 0.950 . S
C4543 C4542 1.414 . S
C4543 C4544 1.374 . S
C4544 H4518 0.950 . S
C4544 C4540 1.385 . S
C4544 C4543 1.374 . S
C4545 C4542 1.499 . S
C4545 C4546 1.373 . S
C4545 C4547 1.389 . S
C4546 H4519 0.950 . S
C4546 C4532 1.377 . S
C4546 C4545 1.373 . S
C4547 C4531 1.377 . S
C4547 C4545 1.389 . S
C4547 C4548 1.524 . S
C4548 C4547 1.524 . S
C4548 C4549 1.397 . S
C4548 C4553 1.363 . S
C4549 H4520 0.950 . S
C4549 C4548 1.397 . S
C4549 C4550 1.334 . S
C4550 H4521 0.950 . S
C4550 C4549 1.334 . S
C4550 C4551 1.287 . S
C4551 C4550 1.287 . S
C4551 C4552 1.524 . S
C4551 H4554 0.999 . S
C4552 H4522 0.950 . S
C4552 C4551 1.524 . S
C4552 C4553 1.415 . S
C4553 H4523 0.950 . S
C4553 C4548 1.363 . S
C4553 C4552 1.415 . S
H4554 C4551 0.999 . S
H4555 C4536 0.913 . S
H4556 C4574 0.951 . S
H4557 C4576 0.951 . S
H4558 C4578 0.950 . S
H4559 C4579 0.950 . S
H4560 C4581 0.950 . S
H4561 C4584 0.950 . S
H4562 C4585 0.950 . S
H4563 C4587 0.950 . S
H4564 C4588 0.950 . S
H4565 C4589 0.951 . S
H4566 C4591 0.951 . S
H4567 C4593 0.950 . S
H4568 C4594 0.950 . S
H4569 C4596 0.950 . S
H4570 C4599 0.950 . S
H4571 C4600 0.950 . S
H4572 C4602 0.950 . S
H4573 C4603 0.950 . S
C4574 H4556 0.951 . S
C4574 C4575 1.366 . S
C4574 C4576 1.388 . S
C4575 C4574 1.366 . S
C4575 C4579 1.385 . S
C4576 H4557 0.951 . S
C4576 C4574 1.388 . S
C4576 C4577 1.366 . S
C4577 C4576 1.366 . S
C4577 C4578 1.414 . S
C4577 C4580 1.499 . S
C4578 H4558 0.950 . S
C4578 C4577 1.414 . S
C4578 C4579 1.374 . S
C4579 H4559 0.950 . S
C4579 C4575 1.385 . S
C4579 C4578 1.374 . S
C4580 C4577 1.499 . S
C4580 C4581 1.373 . S
C4580 C4582 1.389 . S
C4581 H4560 0.950 . S
C4581 C4580 1.373 . S
C4581 C4597 1.377 . S
C4582 C4580 1.389 . S
C4582 C4583 1.524 . S
C4582 C4596 1.377 . S
C4583 C4582 1.524 . S
C4583 C4584 1.397 . S
C4583 C4588 1.363 . S
C4584 H4561 0.950 . S
C4584 C4583 1.397 . S
C4584 C4585 1.334 . S
C4585 H4562 0.950 . S
C4585 C4584 1.334 . S
C4585 C4586 1.287 . S
C4586 C4585 1.287 . S
C4586 C4587 1.524 . S
C4586 H4605 0.913 . S
C4587 H4563 0.950 . S
C4587 C4586 1.524 . S
C4587 C4588 1.415 . S
C4588 H4564 0.950 . S
C4588 C4583 1.363 . S
C4588 C4587 1.415 . S
C4589 H4565 0.951 . S
C4589 C4590 1.366 . S
C4589 C4591 1.388 . S
C4590 C4589 1.366 . S
C4590 C4594 1.385 . S
C4591 H4566 0.951 . S
C4591 C4589 1.388 . S
C4591 C4592 1.366 . S
C4592 C4591 1.366 . S
C4592 C4593 1.414 . S
C4592 C4595 1.499 . S
C4593 H4567 0.950 . S
C4593 C4592 1.414 . S
C4593 C4594 1.374 . S
C4594 H4568 0.950 . S
C4594 C4590 1.385 . S
C4594 C4593 1.374 . S
C4595 C4592 1.499 . S
C4595 C4596 1.373 . S
C4595 C4597 1.389 . S
C4596 H4569 0.950 . S
C4596 C4582 1.377 . S
C4596 C4595 1.373 . S
C4597 C4581 1.377 . S
C4597 C4595 1.389 . S
C4597 C4598 1.524 . S
C4598 C4597 1.524 . S
C4598 C4599 1.397 . S
C4598 C4603 1.363 . S
C4599 H4570 0.950 . S
C4599 C4598 1.397 . S
C4599 C4600 1.334 . S
C4600 H4571 0.950 . S
C4600 C4599 1.334 . S
C4600 C4601 1.287 . S
C4601 C4600 1.287 . S
C4601 C4602 1.524 . S
C4601 H4604 0.999 . S
C4602 H4572 0.950 . S
C4602 C4601 1.524 . S
C4602 C4603 1.415 . S
C4603 H4573 0.950 . S
C4603 C4598 1.363 . S
C4603 C4602 1.415 . S
H4604 C4601 0.999 . S
H4605 C4586 0.913 . S
H4606 C4624 0.951 . S
H4607 C4626 0.951 . S
H4608 C4628 0.950 . S
H4609 C4629 0.950 . S
H4610 C4631 0.950 . S
H4611 C4634 0.950 . S
H4612 C4635 0.950 . S
H4613 C4637 0.950 . S
H4614 C4638 0.950 . S
H4615 C4639 0.951 . S
H4616 C4641 0.951 . S
H4617 C4643 0.950 . S
H4618 C4644 0.950 . S
H4619 C4646 0.950 . S
H4620 C4649 0.950 . S
H4621 C4650 0.950 . S
H4622 C4652 0.950 . S
H4623 C4653 0.950 . S
C4624 H4606 0.951 . S
C4624 C4625 1.366 . S
C4624 C4626 1.388 . S
C4625 C4624 1.366 . S
C4625 C4629 1.385 . S
C4626 H4607 0.951 . S
C4626 C4624 1.388 . S
C4626 C4627 1.366 . S
C4627 C4626 1.366 . S
C4627 C4628 1.414 . S
C4627 C4630 1.499 . S
C4628 H4608 0.950 . S
C4628 C4627 1.414 . S
C4628 C4629 1.374 . S
C4629 H4609 0.950 . S
C4629 C4625 1.385 . S
C4629 C4628 1.374 . S
C4630 C4627 1.499 . S
C4630 C4631 1.373 . S
C4630 C4632 1.389 . S
C4631 H4610 0.950 . S
C4631 C4630 1.373 . S
C4631 C4647 1.377 . S
C4632 C4630 1.389 . S
C4632 C4633 1.524 . S
C4632 C4646 1.377 . S
C4633 C4632 1.524 . S
C4633 C4634 1.397 . S
C4633 C4638 1.363 . S
C4634 H4611 0.950 . S
C4634 C4633 1.397 . S
C4634 C4635 1.334 . S
C4635 H4612 0.950 . S
C4635 C4634 1.334 . S
C4635 C4636 1.287 . S
C4636 C4635 1.287 . S
C4636 C4637 1.524 . S
C4636 H4655 0.913 . S
C4637 H4613 0.950 . S
C4637 C4636 1.524 . S
C4637 C4638 1.415 . S
C4638 H4614 0.950 . S
C4638 C4633 1.363 . S
C4638 C4637 1.415 . S
C4639 H4615 0.951 . S
C4639 C4640 1.366 . S
C4639 C4641 1.388 . S
C4640 C4639 1.366 . S
C4640 C4644 1.385 . S
C4641 H4616 0.951 . S
C4641 C4639 1.388 . S
C4641 C4642 1.366 . S
C4642 C4641 1.366 . S
C4642 C4643 1.414 . S
C4642 C4645 1.499 . S
C4643 H4617 0.950 . S
C4643 C4642 1.414 . S
C4643 C4644 1.374 . S
C4644 H4618 0.950 . S
C4644 C4640 1.385 . S
C4644 C4643 1.374 . S
C4645 C4642 1.499 . S
C4645 C4646 1.373 . S
C4645 C4647 1.389 . S
C4646 H4619 0.950 . S
C4646 C4632 1.377 . S
C4646 C4645 1.373 . S
C4647 C4631 1.377 . S
C4647 C4645 1.389 . S
C4647 C4648 1.524 . S
C4648 C4647 1.524 . S
C4648 C4649 1.397 . S
C4648 C4653 1.363 . S
C4649 H4620 0.950 . S
C4649 C4648 1.397 . S
C4649 C4650 1.334 . S
C4650 H4621 0.950 . S
C4650 C4649 1.334 . S
C4650 C4651 1.287 . S
C4651 C4650 1.287 . S
C4651 C4652 1.524 . S
C4651 H4654 0.999 . S
C4652 H4622 0.950 . S
C4652 C4651 1.524 . S
C4652 C4653 1.415 . S
C4653 H4623 0.950 . S
C4653 C4648 1.363 . S
C4653 C4652 1.415 . S
H4654 C4651 0.999 . S
H4655 C4636 0.913 . S
H4656 C4674 0.951 . S
H4657 C4676 0.951 . S
H4658 C4678 0.950 . S
H4659 C4679 0.950 . S
H4660 C4681 0.950 . S
H4661 C4684 0.950 . S
H4662 C4685 0.950 . S
H4663 C4687 0.950 . S
H4664 C4688 0.950 . S
H4665 C4689 0.951 . S
H4666 C4691 0.951 . S
H4667 C4693 0.950 . S
H4668 C4694 0.950 . S
H4669 C4696 0.950 . S
H4670 C4699 0.950 . S
H4671 C4700 0.950 . S
H4672 C4702 0.950 . S
H4673 C4703 0.950 . S
C4674 H4656 0.951 . S
C4674 C4675 1.366 . S
C4674 C4676 1.388 . S
C4675 C4674 1.366 . S
C4675 C4679 1.385 . S
C4676 H4657 0.951 . S
C4676 C4674 1.388 . S
C4676 C4677 1.366 . S
C4677 C4676 1.366 . S
C4677 C4678 1.414 . S
C4677 C4680 1.499 . S
C4678 H4658 0.950 . S
C4678 C4677 1.414 . S
C4678 C4679 1.374 . S
C4679 H4659 0.950 . S
C4679 C4675 1.385 . S
C4679 C4678 1.374 . S
C4680 C4677 1.499 . S
C4680 C4681 1.373 . S
C4680 C4682 1.389 . S
C4681 H4660 0.950 . S
C4681 C4680 1.373 . S
C4681 C4697 1.377 . S
C4682 C4680 1.389 . S
C4682 C4683 1.524 . S
C4682 C4696 1.377 . S
C4683 C4682 1.524 . S
C4683 C4684 1.397 . S
C4683 C4688 1.363 . S
C4684 H4661 0.950 . S
C4684 C4683 1.397 . S
C4684 C4685 1.334 . S
C4685 H4662 0.950 . S
C4685 C4684 1.334 . S
C4685 C4686 1.287 . S
C4686 C4685 1.287 . S
C4686 C4687 1.524 . S
C4686 H4705 0.913 . S
C4687 H4663 0.950 . S
C4687 C4686 1.524 . S
C4687 C4688 1.415 . S
C4688 H4664 0.950 . S
C4688 C4683 1.363 . S
C4688 C4687 1.415 . S
C4689 H4665 0.951 . S
C4689 C4690 1.366 . S
C4689 C4691 1.388 . S
C4690 C4689 1.366 . S
C4690 C4694 1.385 . S
C4691 H4666 0.951 . S
C4691 C4689 1.388 . S
C4691 C4692 1.366 . S
C4692 C4691 1.366 . S
C4692 C4693 1.414 . S
C4692 C4695 1.499 . S
C4693 H4667 0.950 . S
C4693 C4692 1.414 . S
C4693 C4694 1.374 . S
C4694 H4668 0.950 . S
C4694 C4690 1.385 . S
C4694 C4693 1.374 . S
C4695 C4692 1.499 . S
C4695 C4696 1.373 . S
C4695 C4697 1.389 . S
C4696 H4669 0.950 . S
C4696 C4682 1.377 . S
C4696 C4695 1.373 . S
C4697 C4681 1.377 . S
C4697 C4695 1.389 . S
C4697 C4698 1.524 . S
C4698 C4697 1.524 . S
C4698 C4699 1.397 . S
C4698 C4703 1.363 . S
C4699 H4670 0.950 . S
C4699 C4698 1.397 . S
C4699 C4700 1.334 . S
C4700 H4671 0.950 . S
C4700 C4699 1.334 . S
C4700 C4701 1.287 . S
C4701 C4700 1.287 . S
C4701 C4702 1.524 . S
C4701 H4704 0.999 . S
C4702 H4672 0.950 . S
C4702 C4701 1.524 . S
C4702 C4703 1.415 . S
C4703 H4673 0.950 . S
C4703 C4698 1.363 . S
C4703 C4702 1.415 . S
H4704 C4701 0.999 . S
H4705 C4686 0.913 . S
H4706 C4724 0.951 . S
H4707 C4726 0.951 . S
H4708 C4728 0.950 . S
H4709 C4729 0.950 . S
H4710 C4731 0.950 . S
H4711 C4734 0.950 . S
H4712 C4735 0.950 . S
H4713 C4737 0.950 . S
H4714 C4738 0.950 . S
H4715 C4739 0.951 . S
H4716 C4741 0.951 . S
H4717 C4743 0.950 . S
H4718 C4744 0.950 . S
H4719 C4746 0.950 . S
H4720 C4749 0.950 . S
H4721 C4750 0.950 . S
H4722 C4752 0.950 . S
H4723 C4753 0.950 . S
C4724 H4706 0.951 . S
C4724 C4725 1.366 . S
C4724 C4726 1.388 . S
C4725 C4724 1.366 . S
C4725 C4729 1.385 . S
C4726 H4707 0.951 . S
C4726 C4724 1.388 . S
C4726 C4727 1.366 . S
C4727 C4726 1.366 . S
C4727 C4728 1.414 . S
C4727 C4730 1.499 . S
C4728 H4708 0.950 . S
C4728 C4727 1.414 . S
C4728 C4729 1.374 . S
C4729 H4709 0.950 . S
C4729 C4725 1.385 . S
C4729 C4728 1.374 . S
C4730 C4727 1.499 . S
C4730 C4731 1.373 . S
C4730 C4732 1.389 . S
C4731 H4710 0.950 . S
C4731 C4730 1.373 . S
C4731 C4747 1.377 . S
C4732 C4730 1.389 . S
C4732 C4733 1.524 . S
C4732 C4746 1.377 . S
C4733 C4732 1.524 . S
C4733 C4734 1.397 . S
C4733 C4738 1.363 . S
C4734 H4711 0.950 . S
C4734 C4733 1.397 . S
C4734 C4735 1.334 . S
C4735 H4712 0.950 . S
C4735 C4734 1.334 . S
C4735 C4736 1.287 . S
C4736 C4735 1.287 . S
C4736 C4737 1.524 . S
C4736 H4755 0.913 . S
C4737 H4713 0.950 . S
C4737 C4736 1.524 . S
C4737 C4738 1.415 . S
C4738 H4714 0.950 . S
C4738 C4733 1.363 . S
C4738 C4737 1.415 . S
C4739 H4715 0.951 . S
C4739 C4740 1.366 . S
C4739 C4741 1.388 . S
C4740 C4739 1.366 . S
C4740 C4744 1.385 . S
C4741 H4716 0.951 . S
C4741 C4739 1.388 . S
C4741 C4742 1.366 . S
C4742 C4741 1.366 . S
C4742 C4743 1.414 . S
C4742 C4745 1.499 . S
C4743 H4717 0.950 . S
C4743 C4742 1.414 . S
C4743 C4744 1.374 . S
C4744 H4718 0.950 . S
C4744 C4740 1.385 . S
C4744 C4743 1.374 . S
C4745 C4742 1.499 . S
C4745 C4746 1.373 . S
C4745 C4747 1.389 . S
C4746 H4719 0.950 . S
C4746 C4732 1.377 . S
C4746 C4745 1.373 . S
C4747 C4731 1.377 . S
C4747 C4745 1.389 . S
C4747 C4748 1.524 . S
C4748 C4747 1.524 . S
C4748 C4749 1.397 . S
C4748 C4753 1.363 . S
C4749 H4720 0.950 . S
C4749 C4748 1.397 . S
C4749 C4750 1.334 . S
C4750 H4721 0.950 . S
C4750 C4749 1.334 . S
C4750 C4751 1.287 . S
C4751 C4750 1.287 . S
C4751 C4752 1.524 . S
C4751 H4754 0.999 . S
C4752 H4722 0.950 . S
C4752 C4751 1.524 . S
C4752 C4753 1.415 . S
C4753 H4723 0.950 . S
C4753 C4748 1.363 . S
C4753 C4752 1.415 . S
H4754 C4751 0.999 . S
H4755 C4736 0.913 . S
H4756 C4774 0.951 . S
H4757 C4776 0.951 . S
H4758 C4778 0.950 . S
H4759 C4779 0.950 . S
H4760 C4781 0.950 . S
H4761 C4784 0.950 . S
H4762 C4785 0.950 . S
H4763 C4787 0.950 . S
H4764 C4788 0.950 . S
H4765 C4789 0.951 . S
H4766 C4791 0.951 . S
H4767 C4793 0.950 . S
H4768 C4794 0.950 . S
H4769 C4796 0.950 . S
H4770 C4799 0.950 . S
H4771 C4800 0.950 . S
H4772 C4802 0.950 . S
H4773 C4803 0.950 . S
C4774 H4756 0.951 . S
C4774 C4775 1.366 . S
C4774 C4776 1.388 . S
C4775 C4774 1.366 . S
C4775 C4779 1.385 . S
C4776 H4757 0.951 . S
C4776 C4774 1.388 . S
C4776 C4777 1.366 . S
C4777 C4776 1.366 . S
C4777 C4778 1.414 . S
C4777 C4780 1.499 . S
C4778 H4758 0.950 . S
C4778 C4777 1.414 . S
C4778 C4779 1.374 . S
C4779 H4759 0.950 . S
C4779 C4775 1.385 . S
C4779 C4778 1.374 . S
C4780 C4777 1.499 . S
C4780 C4781 1.373 . S
C4780 C4782 1.389 . S
C4781 H4760 0.950 . S
C4781 C4780 1.373 . S
C4781 C4797 1.377 . S
C4782 C4780 1.389 . S
C4782 C4783 1.524 . S
C4782 C4796 1.377 . S
C4783 C4782 1.524 . S
C4783 C4784 1.397 . S
C4783 C4788 1.363 . S
C4784 H4761 0.950 . S
C4784 C4783 1.397 . S
C4784 C4785 1.334 . S
C4785 H4762 0.950 . S
C4785 C4784 1.334 . S
C4785 C4786 1.287 . S
C4786 C4785 1.287 . S
C4786 C4787 1.524 . S
C4786 H4805 0.913 . S
C4787 H4763 0.950 . S
C4787 C4786 1.524 . S
C4787 C4788 1.415 . S
C4788 H4764 0.950 . S
C4788 C4783 1.363 . S
C4788 C4787 1.415 . S
C4789 H4765 0.951 . S
C4789 C4790 1.366 . S
C4789 C4791 1.388 . S
C4790 C4789 1.366 . S
C4790 C4794 1.385 . S
C4791 H4766 0.951 . S
C4791 C4789 1.388 . S
C4791 C4792 1.366 . S
C4792 C4791 1.366 . S
C4792 C4793 1.414 . S
C4792 C4795 1.499 . S
C4793 H4767 0.950 . S
C4793 C4792 1.414 . S
C4793 C4794 1.374 . S
C4794 H4768 0.950 . S
C4794 C4790 1.385 . S
C4794 C4793 1.374 . S
C4795 C4792 1.499 . S
C4795 C4796 1.373 . S
C4795 C4797 1.389 . S
C4796 H4769 0.950 . S
C4796 C4782 1.377 . S
C4796 C4795 1.373 . S
C4797 C4781 1.377 . S
C4797 C4795 1.389 . S
C4797 C4798 1.524 . S
C4798 C4797 1.524 . S
C4798 C4799 1.397 . S
C4798 C4803 1.363 . S
C4799 H4770 0.950 . S
C4799 C4798 1.397 . S
C4799 C4800 1.334 . S
C4800 H4771 0.950 . S
C4800 C4799 1.334 . S
C4800 C4801 1.287 . S
C4801 C4800 1.287 . S
C4801 C4802 1.524 . S
C4801 H4804 0.999 . S
C4802 H4772 0.950 . S
C4802 C4801 1.524 . S
C4802 C4803 1.415 . S
C4803 H4773 0.950 . S
C4803 C4798 1.363 . S
C4803 C4802 1.415 . S
H4804 C4801 0.999 . S
H4805 C4786 0.913 . S
H4806 C4824 0.951 . S
H4807 C4826 0.951 . S
H4808 C4828 0.950 . S
H4809 C4829 0.950 . S
H4810 C4831 0.950 . S
H4811 C4834 0.950 . S
H4812 C4835 0.950 . S
H4813 C4837 0.950 . S
H4814 C4838 0.950 . S
H4815 C4839 0.951 . S
H4816 C4841 0.951 . S
H4817 C4843 0.950 . S
H4818 C4844 0.950 . S
H4819 C4846 0.950 . S
H4820 C4849 0.950 . S
H4821 C4850 0.950 . S
H4822 C4852 0.950 . S
H4823 C4853 0.950 . S
C4824 H4806 0.951 . S
C4824 C4825 1.366 . S
C4824 C4826 1.388 . S
C4825 C4824 1.366 . S
C4825 C4829 1.385 . S
C4826 H4807 0.951 . S
C4826 C4824 1.388 . S
C4826 C4827 1.366 . S
C4827 C4826 1.366 . S
C4827 C4828 1.414 . S
C4827 C4830 1.499 . S
C4828 H4808 0.950 . S
C4828 C4827 1.414 . S
C4828 C4829 1.374 . S
C4829 H4809 0.950 . S
C4829 C4825 1.385 . S
C4829 C4828 1.374 . S
C4830 C4827 1.499 . S
C4830 C4831 1.373 . S
C4830 C4832 1.389 . S
C4831 H4810 0.950 . S
C4831 C4830 1.373 . S
C4831 C4847 1.377 . S
C4832 C4830 1.389 . S
C4832 C4833 1.524 . S
C4832 C4846 1.377 . S
C4833 C4832 1.524 . S
C4833 C4834 1.397 . S
C4833 C4838 1.363 . S
C4834 H4811 0.950 . S
C4834 C4833 1.397 . S
C4834 C4835 1.334 . S
C4835 H4812 0.950 . S
C4835 C4834 1.334 . S
C4835 C4836 1.287 . S
C4836 C4835 1.287 . S
C4836 C4837 1.524 . S
C4836 H4855 0.913 . S
C4837 H4813 0.950 . S
C4837 C4836 1.524 . S
C4837 C4838 1.415 . S
C4838 H4814 0.950 . S
C4838 C4833 1.363 . S
C4838 C4837 1.415 . S
C4839 H4815 0.951 . S
C4839 C4840 1.366 . S
C4839 C4841 1.388 . S
C4840 C4839 1.366 . S
C4840 C4844 1.385 . S
C4841 H4816 0.951 . S
C4841 C4839 1.388 . S
C4841 C4842 1.366 . S
C4842 C4841 1.366 . S
C4842 C4843 1.414 . S
C4842 C4845 1.499 . S
C4843 H4817 0.950 . S
C4843 C4842 1.414 . S
C4843 C4844 1.374 . S
C4844 H4818 0.950 . S
C4844 C4840 1.385 . S
C4844 C4843 1.374 . S
C4845 C4842 1.499 . S
C4845 C4846 1.373 . S
C4845 C4847 1.389 . S
C4846 H4819 0.950 . S
C4846 C4832 1.377 . S
C4846 C4845 1.373 . S
C4847 C4831 1.377 . S
C4847 C4845 1.389 . S
C4847 C4848 1.524 . S
C4848 C4847 1.524 . S
C4848 C4849 1.397 . S
C4848 C4853 1.363 . S
C4849 H4820 0.950 . S
C4849 C4848 1.397 . S
C4849 C4850 1.334 . S
C4850 H4821 0.950 . S
C4850 C4849 1.334 . S
C4850 C4851 1.287 . S
C4851 C4850 1.287 . S
C4851 C4852 1.524 . S
C4851 H4854 0.999 . S
C4852 H4822 0.950 . S
C4852 C4851 1.524 . S
C4852 C4853 1.415 . S
C4853 H4823 0.950 . S
C4853 C4848 1.363 . S
C4853 C4852 1.415 . S
H4854 C4851 0.999 . S
H4855 C4836 0.913 . S
H4856 C4874 0.951 . S
H4857 C4876 0.951 . S
H4858 C4878 0.950 . S
H4859 C4879 0.950 . S
H4860 C4881 0.950 . S
H4861 C4884 0.950 . S
H4862 C4885 0.950 . S
H4863 C4887 0.950 . S
H4864 C4888 0.950 . S
H4865 C4889 0.951 . S
H4866 C4891 0.951 . S
H4867 C4893 0.950 . S
H4868 C4894 0.950 . S
H4869 C4896 0.950 . S
H4870 C4899 0.950 . S
H4871 C4900 0.950 . S
H4872 C4902 0.950 . S
H4873 C4903 0.950 . S
C4874 H4856 0.951 . S
C4874 C4875 1.366 . S
C4874 C4876 1.388 . S
C4875 C4874 1.366 . S
C4875 C4879 1.385 . S
C4876 H4857 0.951 . S
C4876 C4874 1.388 . S
C4876 C4877 1.366 . S
C4877 C4876 1.366 . S
C4877 C4878 1.414 . S
C4877 C4880 1.499 . S
C4878 H4858 0.950 . S
C4878 C4877 1.414 . S
C4878 C4879 1.374 . S
C4879 H4859 0.950 . S
C4879 C4875 1.385 . S
C4879 C4878 1.374 . S
C4880 C4877 1.499 . S
C4880 C4881 1.373 . S
C4880 C4882 1.389 . S
C4881 H4860 0.950 . S
C4881 C4880 1.373 . S
C4881 C4897 1.377 . S
C4882 C4880 1.389 . S
C4882 C4883 1.524 . S
C4882 C4896 1.377 . S
C4883 C4882 1.524 . S
C4883 C4884 1.397 . S
C4883 C4888 1.363 . S
C4884 H4861 0.950 . S
C4884 C4883 1.397 . S
C4884 C4885 1.334 . S
C4885 H4862 0.950 . S
C4885 C4884 1.334 . S
C4885 C4886 1.287 . S
C4886 C4885 1.287 . S
C4886 C4887 1.524 . S
C4886 H4905 0.913 . S
C4887 H4863 0.950 . S
C4887 C4886 1.524 . S
C4887 C4888 1.415 . S
C4888 H4864 0.950 . S
C4888 C4883 1.363 . S
C4888 C4887 1.415 . S
C4889 H4865 0.951 . S
C4889 C4890 1.366 . S
C4889 C4891 1.388 . S
C4890 C4889 1.366 . S
C4890 C4894 1.385 . S
C4891 H4866 0.951 . S
C4891 C4889 1.388 . S
C4891 C4892 1.366 . S
C4892 C4891 1.366 . S
C4892 C4893 1.414 . S
C4892 C4895 1.499 . S
C4893 H4867 0.950 . S
C4893 C4892 1.414 . S
C4893 C4894 1.374 . S
C4894 H4868 0.950 . S
C4894 C4890 1.385 . S
C4894 C4893 1.374 . S
C4895 C4892 1.499 . S
C4895 C4896 1.373 . S
C4895 C4897 1.389 . S
C4896 H4869 0.950 . S
C4896 C4882 1.377 . S
C4896 C4895 1.373 . S
C4897 C4881 1.377 . S
C4897 C4895 1.389 . S
C4897 C4898 1.524 . S
C4898 C4897 1.524 . S
C4898 C4899 1.397 . S
C4898 C4903 1.363 . S
C4899 H4870 0.950 . S
C4899 C4898 1.397 . S
C4899 C4900 1.334 . S
C4900 H4871 0.950 . S
C4900 C4899 1.334 . S
C4900 C4901 1.287 . S
C4901 C4900 1.287 . S
C4901 C4902 1.524 . S
C4901 H4904 0.999 . S
C4902 H4872 0.950 . S
C4902 C4901 1.524 . S
C4902 C4903 1.415 . S
C4903 H4873 0.950 . S
C4903 C4898 1.363 . S
C4903 C4902 1.415 . S
H4904 C4901 0.999 . S
H4905 C4886 0.913 . S
H4906 C4924 0.951 . S
H4907 C4926 0.951 . S
H4908 C4928 0.950 . S
H4909 C4929 0.950 . S
H4910 C4931 0.950 . S
H4911 C4934 0.950 . S
H4912 C4935 0.950 . S
H4913 C4937 0.950 . S
H4914 C4938 0.950 . S
H4915 C4939 0.951 . S
H4916 C4941 0.951 . S
H4917 C4943 0.950 . S
H4918 C4944 0.950 . S
H4919 C4946 0.950 . S
H4920 C4949 0.950 . S
H4921 C4950 0.950 . S
H4922 C4952 0.950 . S
H4923 C4953 0.950 . S
C4924 H4906 0.951 . S
C4924 C4925 1.366 . S
C4924 C4926 1.388 . S
C4925 C4924 1.366 . S
C4925 C4929 1.385 . S
C4926 H4907 0.951 . S
C4926 C4924 1.388 . S
C4926 C4927 1.366 . S
C4927 C4926 1.366 . S
C4927 C4928 1.414 . S
C4927 C4930 1.499 . S
C4928 H4908 0.950 . S
C4928 C4927 1.414 . S
C4928 C4929 1.374 . S
C4929 H4909 0.950 . S
C4929 C4925 1.385 . S
C4929 C4928 1.374 . S
C4930 C4927 1.499 . S
C4930 C4931 1.373 . S
C4930 C4932 1.389 . S
C4931 H4910 0.950 . S
C4931 C4930 1.373 . S
C4931 C4947 1.377 . S
C4932 C4930 1.389 . S
C4932 C4933 1.524 . S
C4932 C4946 1.377 . S
C4933 C4932 1.524 . S
C4933 C4934 1.397 . S
C4933 C4938 1.363 . S
C4934 H4911 0.950 . S
C4934 C4933 1.397 . S
C4934 C4935 1.334 . S
C4935 H4912 0.950 . S
C4935 C4934 1.334 . S
C4935 C4936 1.287 . S
C4936 C4935 1.287 . S
C4936 C4937 1.524 . S
C4936 H4955 0.913 . S
C4937 H4913 0.950 . S
C4937 C4936 1.524 . S
C4937 C4938 1.415 . S
C4938 H4914 0.950 . S
C4938 C4933 1.363 . S
C4938 C4937 1.415 . S
C4939 H4915 0.951 . S
C4939 C4940 1.366 . S
C4939 C4941 1.388 . S
C4940 C4939 1.366 . S
C4940 C4944 1.385 . S
C4941 H4916 0.951 . S
C4941 C4939 1.388 . S
C4941 C4942 1.366 . S
C4942 C4941 1.366 . S
C4942 C4943 1.414 . S
C4942 C4945 1.499 . S
C4943 H4917 0.950 . S
C4943 C4942 1.414 . S
C4943 C4944 1.374 . S
C4944 H4918 0.950 . S
C4944 C4940 1.385 . S
C4944 C4943 1.374 . S
C4945 C4942 1.499 . S
C4945 C4946 1.373 . S
C4945 C4947 1.389 . S
C4946 H4919 0.950 . S
C4946 C4932 1.377 . S
C4946 C4945 1.373 . S
C4947 C4931 1.377 . S
C4947 C4945 1.389 . S
C4947 C4948 1.524 . S
C4948 C4947 1.524 . S
C4948 C4949 1.397 . S
C4948 C4953 1.363 . S
C4949 H4920 0.950 . S
C4949 C4948 1.397 . S
C4949 C4950 1.334 . S
C4950 H4921 0.950 . S
C4950 C4949 1.334 . S
C4950 C4951 1.287 . S
C4951 C4950 1.287 . S
C4951 C4952 1.524 . S
C4951 H4954 0.999 . S
C4952 H4922 0.950 . S
C4952 C4951 1.524 . S
C4952 C4953 1.415 . S
C4953 H4923 0.950 . S
C4953 C4948 1.363 . S
C4953 C4952 1.415 . S
H4954 C4951 0.999 . S
H4955 C4936 0.913 . S
H4956 C4974 0.951 . S
H4957 C4976 0.951 . S
H4958 C4978 0.950 . S
H4959 C4979 0.950 1_545 S
H4960 C4981 0.950 . S
H4961 C4984 0.950 . S
H4962 C4985 0.950 . S
H4963 C4987 0.950 . S
H4964 C4988 0.950 . S
H4965 C4989 0.951 . S
H4966 C4991 0.951 . S
H4967 C4993 0.950 . S
H4968 C4994 0.950 . S
H4969 C4996 0.950 . S
H4970 C4999 0.950 . S
H4971 C5000 0.950 . S
H4972 C5002 0.950 . S
H4973 C5003 0.950 . S
C4974 H4956 0.951 . S
C4974 C4975 1.366 . S
C4974 C4976 1.388 . S
C4975 C4974 1.366 . S
C4975 C4979 1.385 . S
C4976 H4957 0.951 . S
C4976 C4974 1.388 . S
C4976 C4977 1.366 . S
C4977 C4976 1.366 . S
C4977 C4978 1.414 . S
C4977 C4980 1.499 . S
C4978 H4958 0.950 . S
C4978 C4977 1.414 . S
C4978 C4979 1.374 . S
C4979 H4959 0.950 1_565 S
C4979 C4975 1.385 . S
C4979 C4978 1.374 . S
C4980 C4977 1.499 . S
C4980 C4981 1.373 . S
C4980 C4982 1.389 . S
C4981 H4960 0.950 . S
C4981 C4980 1.373 . S
C4981 C4997 1.377 . S
C4982 C4980 1.389 . S
C4982 C4983 1.524 . S
C4982 C4996 1.377 . S
C4983 C4982 1.524 . S
C4983 C4984 1.397 . S
C4983 C4988 1.363 . S
C4984 H4961 0.950 . S
C4984 C4983 1.397 . S
C4984 C4985 1.334 . S
C4985 H4962 0.950 . S
C4985 C4984 1.334 . S
C4985 C4986 1.287 . S
C4986 C4985 1.287 . S
C4986 C4987 1.524 . S
C4986 H5005 0.913 . S
C4987 H4963 0.950 . S
C4987 C4986 1.524 . S
C4987 C4988 1.415 . S
C4988 H4964 0.950 . S
C4988 C4983 1.363 . S
C4988 C4987 1.415 . S
C4989 H4965 0.951 . S
C4989 C4990 1.366 . S
C4989 C4991 1.388 . S
C4990 C4989 1.366 . S
C4990 C4994 1.385 . S
C4991 H4966 0.951 . S
C4991 C4989 1.388 . S
C4991 C4992 1.366 . S
C4992 C4991 1.366 . S
C4992 C4993 1.414 . S
C4992 C4995 1.499 . S
C4993 H4967 0.950 . S
C4993 C4992 1.414 . S
C4993 C4994 1.374 . S
C4994 H4968 0.950 . S
C4994 C4990 1.385 . S
C4994 C4993 1.374 . S
C4995 C4992 1.499 . S
C4995 C4996 1.373 . S
C4995 C4997 1.389 . S
C4996 H4969 0.950 . S
C4996 C4982 1.377 . S
C4996 C4995 1.373 . S
C4997 C4981 1.377 . S
C4997 C4995 1.389 . S
C4997 C4998 1.524 . S
C4998 C4997 1.524 . S
C4998 C4999 1.397 . S
C4998 C5003 1.363 . S
C4999 H4970 0.950 . S
C4999 C4998 1.397 . S
C4999 C5000 1.334 . S
C5000 H4971 0.950 . S
C5000 C4999 1.334 . S
C5000 C5001 1.287 . S
C5001 C5000 1.287 . S
C5001 C5002 1.524 . S
C5001 H5004 0.999 . S
C5002 H4972 0.950 . S
C5002 C5001 1.524 . S
C5002 C5003 1.415 . S
C5003 H4973 0.950 . S
C5003 C4998 1.363 . S
C5003 C5002 1.415 . S
H5004 C5001 0.999 . S
H5005 C4986 0.913 . S
H5006 C5024 0.951 . S
H5007 C5026 0.950 . S
H5008 C5028 0.950 . S
H5009 C5029 0.950 . S
H5010 C5031 0.950 . S
H5011 C5034 0.950 . S
H5012 C5035 0.950 . S
H5013 C5037 0.950 . S
H5014 C5038 0.950 . S
H5015 C5039 0.951 . S
H5016 C5041 0.951 . S
H5017 C5043 0.950 . S
H5018 C5044 0.950 1_565 S
H5019 C5046 0.950 . S
H5020 C5049 0.950 1_565 S
H5021 C5050 0.950 . S
H5022 C5052 0.950 . S
H5023 C5053 0.950 . S
C5024 H5006 0.951 . S
C5024 C5025 1.366 . S
C5024 C5026 1.388 1_556 S
C5025 C5024 1.366 . S
C5025 C5029 1.384 1_556 S
C5026 H5007 0.950 . S
C5026 C5024 1.388 1_554 S
C5026 C5027 1.366 . S
C5027 C5026 1.366 . S
C5027 C5028 1.414 . S
C5027 C5030 1.499 . S
C5028 H5008 0.950 . S
C5028 C5027 1.414 . S
C5028 C5029 1.374 . S
C5029 H5009 0.950 . S
C5029 C5025 1.384 1_554 S
C5029 C5028 1.374 . S
C5030 C5027 1.499 . S
C5030 C5031 1.373 1_554 S
C5030 C5032 1.389 . S
C5031 H5010 0.950 . S
C5031 C5030 1.373 1_556 S
C5031 C5047 1.377 . S
C5032 C5030 1.389 . S
C5032 C5033 1.524 . S
C5032 C5046 1.377 . S
C5033 C5032 1.524 . S
C5033 C5034 1.397 . S
C5033 C5038 1.363 . S
C5034 H5011 0.950 . S
C5034 C5033 1.397 . S
C5034 C5035 1.334 . S
C5035 H5012 0.950 . S
C5035 C5034 1.334 . S
C5035 C5036 1.287 . S
C5036 C5035 1.287 . S
C5036 C5037 1.524 . S
C5036 H5055 0.913 . S
C5037 H5013 0.950 . S
C5037 C5036 1.524 . S
C5037 C5038 1.415 . S
C5038 H5014 0.950 . S
C5038 C5033 1.363 . S
C5038 C5037 1.415 . S
C5039 H5015 0.951 . S
C5039 C5040 1.366 . S
C5039 C5041 1.388 . S
C5040 C5039 1.366 . S
C5040 C5044 1.385 . S
C5041 H5016 0.951 . S
C5041 C5039 1.388 . S
C5041 C5042 1.366 . S
C5042 C5041 1.366 . S
C5042 C5043 1.414 1_545 S
C5042 C5045 1.499 1_545 S
C5043 H5017 0.950 . S
C5043 C5042 1.414 1_565 S
C5043 C5044 1.374 1_565 S
C5044 H5018 0.950 1_545 S
C5044 C5040 1.385 . S
C5044 C5043 1.374 1_545 S
C5045 C5042 1.499 1_565 S
C5045 C5046 1.373 . S
C5045 C5047 1.389 1_554 S
C5046 H5019 0.950 . S
C5046 C5032 1.377 . S
C5046 C5045 1.373 . S
C5047 C5031 1.377 . S
C5047 C5045 1.389 1_556 S
C5047 C5048 1.524 1_565 S
C5048 C5047 1.524 1_545 S
C5048 C5049 1.397 . S
C5048 C5053 1.363 . S
C5049 H5020 0.950 1_545 S
C5049 C5048 1.397 . S
C5049 C5050 1.334 . S
C5050 H5021 0.950 . S
C5050 C5049 1.334 . S
C5050 C5051 1.287 . S
C5051 C5050 1.287 . S
C5051 C5052 1.524 . S
C5051 H5054 0.999 . S
C5052 H5022 0.950 . S
C5052 C5051 1.524 . S
C5052 C5053 1.415 . S
C5053 H5023 0.950 . S
C5053 C5048 1.363 . S
C5053 C5052 1.415 . S
H5054 C5051 0.999 . S
H5055 C5036 0.913 . S
H5056 C5074 0.951 . S
H5057 C5076 0.951 . S
H5058 C5078 0.950 . S
H5059 C5079 0.950 . S
H5060 C5081 0.950 . S
H5061 C5084 0.950 . S
H5062 C5085 0.950 . S
H5063 C5087 0.950 . S
H5064 C5088 0.950 . S
H5065 C5089 0.951 . S
H5066 C5091 0.951 . S
H5067 C5093 0.950 . S
H5068 C5094 0.950 . S
H5069 C5096 0.950 . S
H5070 C5099 0.950 . S
H5071 C5100 0.950 . S
H5072 C5102 0.950 . S
H5073 C5103 0.950 . S
C5074 H5056 0.951 . S
C5074 C5075 1.366 . S
C5074 C5076 1.388 . S
C5075 C5074 1.366 . S
C5075 C5079 1.385 . S
C5076 H5057 0.951 . S
C5076 C5074 1.388 . S
C5076 C5077 1.366 . S
C5077 C5076 1.366 . S
C5077 C5078 1.414 . S
C5077 C5080 1.499 . S
C5078 H5058 0.950 . S
C5078 C5077 1.414 . S
C5078 C5079 1.374 . S
C5079 H5059 0.950 . S
C5079 C5075 1.385 . S
C5079 C5078 1.374 . S
C5080 C5077 1.499 . S
C5080 C5081 1.373 . S
C5080 C5082 1.389 . S
C5081 H5060 0.950 . S
C5081 C5080 1.373 . S
C5081 C5097 1.377 . S
C5082 C5080 1.389 . S
C5082 C5083 1.524 . S
C5082 C5096 1.377 . S
C5083 C5082 1.524 . S
C5083 C5084 1.397 . S
C5083 C5088 1.363 . S
C5084 H5061 0.950 . S
C5084 C5083 1.397 . S
C5084 C5085 1.334 . S
C5085 H5062 0.950 . S
C5085 C5084 1.334 . S
C5085 C5086 1.287 . S
C5086 C5085 1.287 . S
C5086 C5087 1.524 . S
C5086 H5105 0.913 . S
C5087 H5063 0.950 . S
C5087 C5086 1.524 . S
C5087 C5088 1.415 . S
C5088 H5064 0.950 . S
C5088 C5083 1.363 . S
C5088 C5087 1.415 . S
C5089 H5065 0.951 . S
C5089 C5090 1.366 . S
C5089 C5091 1.388 . S
C5090 C5089 1.366 . S
C5090 C5094 1.385 . S
C5091 H5066 0.951 . S
C5091 C5089 1.388 . S
C5091 C5092 1.366 . S
C5092 C5091 1.366 . S
C5092 C5093 1.414 . S
C5092 C5095 1.499 . S
C5093 H5067 0.950 . S
C5093 C5092 1.414 . S
C5093 C5094 1.374 . S
C5094 H5068 0.950 . S
C5094 C5090 1.385 . S
C5094 C5093 1.374 . S
C5095 C5092 1.499 . S
C5095 C5096 1.373 . S
C5095 C5097 1.389 . S
C5096 H5069 0.950 . S
C5096 C5082 1.377 . S
C5096 C5095 1.373 . S
C5097 C5081 1.377 . S
C5097 C5095 1.389 . S
C5097 C5098 1.524 . S
C5098 C5097 1.524 . S
C5098 C5099 1.397 . S
C5098 C5103 1.363 . S
C5099 H5070 0.950 . S
C5099 C5098 1.397 . S
C5099 C5100 1.334 . S
C5100 H5071 0.950 . S
C5100 C5099 1.334 . S
C5100 C5101 1.287 . S
C5101 C5100 1.287 . S
C5101 C5102 1.524 . S
C5101 H5104 0.999 . S
C5102 H5072 0.950 . S
C5102 C5101 1.524 . S
C5102 C5103 1.415 . S
C5103 H5073 0.950 . S
C5103 C5098 1.363 . S
C5103 C5102 1.415 . S
H5104 C5101 0.999 . S
H5105 C5086 0.913 . S
H5106 C5124 0.951 . S
H5107 C5126 0.951 . S
H5108 C5128 0.950 . S
H5109 C5129 0.950 . S
H5110 C5131 0.950 . S
H5111 C5134 0.950 . S
H5112 C5135 0.950 . S
H5113 C5137 0.950 . S
H5114 C5138 0.950 . S
H5115 C5139 0.951 . S
H5116 C5141 0.951 . S
H5117 C5143 0.950 . S
H5118 C5144 0.950 . S
H5119 C5146 0.950 . S
H5120 C5149 0.950 . S
H5121 C5150 0.950 . S
H5122 C5152 0.950 . S
H5123 C5153 0.950 . S
C5124 H5106 0.951 . S
C5124 C5125 1.366 . S
C5124 C5126 1.388 . S
C5125 C5124 1.366 . S
C5125 C5129 1.385 . S
C5126 H5107 0.951 . S
C5126 C5124 1.388 . S
C5126 C5127 1.366 . S
C5127 C5126 1.366 . S
C5127 C5128 1.414 . S
C5127 C5130 1.499 . S
C5128 H5108 0.950 . S
C5128 C5127 1.414 . S
C5128 C5129 1.374 . S
C5129 H5109 0.950 . S
C5129 C5125 1.385 . S
C5129 C5128 1.374 . S
C5130 C5127 1.499 . S
C5130 C5131 1.373 . S
C5130 C5132 1.389 . S
C5131 H5110 0.950 . S
C5131 C5130 1.373 . S
C5131 C5147 1.377 . S
C5132 C5130 1.389 . S
C5132 C5133 1.524 . S
C5132 C5146 1.377 . S
C5133 C5132 1.524 . S
C5133 C5134 1.397 1_554 S
C5133 C5138 1.363 . S
C5134 H5111 0.950 . S
C5134 C5133 1.397 1_556 S
C5134 C5135 1.334 . S
C5135 H5112 0.950 . S
C5135 C5134 1.334 . S
C5135 C5136 1.287 . S
C5136 C5135 1.287 . S
C5136 C5137 1.524 . S
C5136 H5155 0.913 . S
C5137 H5113 0.950 . S
C5137 C5136 1.524 . S
C5137 C5138 1.415 1_556 S
C5138 H5114 0.950 . S
C5138 C5133 1.363 . S
C5138 C5137 1.415 1_554 S
C5139 H5115 0.951 . S
C5139 C5140 1.366 . S
C5139 C5141 1.388 . S
C5140 C5139 1.366 . S
C5140 C5144 1.385 . S
C5141 H5116 0.951 . S
C5141 C5139 1.388 . S
C5141 C5142 1.366 . S
C5142 C5141 1.366 . S
C5142 C5143 1.414 . S
C5142 C5145 1.499 . S
C5143 H5117 0.950 . S
C5143 C5142 1.414 . S
C5143 C5144 1.374 . S
C5144 H5118 0.950 . S
C5144 C5140 1.385 . S
C5144 C5143 1.374 . S
C5145 C5142 1.499 . S
C5145 C5146 1.373 . S
C5145 C5147 1.389 . S
C5146 H5119 0.950 . S
C5146 C5132 1.377 . S
C5146 C5145 1.373 . S
C5147 C5131 1.377 . S
C5147 C5145 1.389 . S
C5147 C5148 1.524 . S
C5148 C5147 1.524 . S
C5148 C5149 1.397 . S
C5148 C5153 1.363 . S
C5149 H5120 0.950 . S
C5149 C5148 1.397 . S
C5149 C5150 1.334 . S
C5150 H5121 0.950 . S
C5150 C5149 1.334 . S
C5150 C5151 1.287 . S
C5151 C5150 1.287 . S
C5151 C5152 1.524 . S
C5151 H5154 0.999 . S
C5152 H5122 0.950 . S
C5152 C5151 1.524 . S
C5152 C5153 1.415 . S
C5153 H5123 0.950 . S
C5153 C5148 1.363 . S
C5153 C5152 1.415 . S
H5154 C5151 0.999 . S
H5155 C5136 0.913 . S
H5156 C5174 0.951 . S
H5157 C5176 0.951 . S
H5158 C5178 0.950 . S
H5159 C5179 0.950 . S
H5160 C5181 0.950 . S
H5161 C5184 0.950 . S
H5162 C5185 0.950 . S
H5163 C5187 0.950 . S
H5164 C5188 0.950 . S
H5165 C5189 0.951 . S
H5166 C5191 0.951 . S
H5167 C5193 0.950 . S
H5168 C5194 0.950 . S
H5169 C5196 0.950 . S
H5170 C5199 0.950 . S
H5171 C5200 0.950 . S
H5172 C5202 0.950 . S
H5173 C5203 0.950 . S
C5174 H5156 0.951 . S
C5174 C5175 1.366 . S
C5174 C5176 1.388 . S
C5175 C5174 1.366 . S
C5175 C5179 1.385 . S
C5176 H5157 0.951 . S
C5176 C5174 1.388 . S
C5176 C5177 1.366 . S
C5177 C5176 1.366 . S
C5177 C5178 1.414 . S
C5177 C5180 1.499 . S
C5178 H5158 0.950 . S
C5178 C5177 1.414 . S
C5178 C5179 1.374 . S
C5179 H5159 0.950 . S
C5179 C5175 1.385 . S
C5179 C5178 1.374 . S
C5180 C5177 1.499 . S
C5180 C5181 1.373 . S
C5180 C5182 1.389 . S
C5181 H5160 0.950 . S
C5181 C5180 1.373 . S
C5181 C5197 1.377 . S
C5182 C5180 1.389 . S
C5182 C5183 1.524 . S
C5182 C5196 1.377 . S
C5183 C5182 1.524 . S
C5183 C5184 1.397 . S
C5183 C5188 1.363 . S
C5184 H5161 0.950 . S
C5184 C5183 1.397 . S
C5184 C5185 1.334 . S
C5185 H5162 0.950 . S
C5185 C5184 1.334 . S
C5185 C5186 1.287 . S
C5186 C5185 1.287 . S
C5186 C5187 1.524 . S
C5186 H5205 0.913 . S
C5187 H5163 0.950 . S
C5187 C5186 1.524 . S
C5187 C5188 1.415 . S
C5188 H5164 0.950 . S
C5188 C5183 1.363 . S
C5188 C5187 1.415 . S
C5189 H5165 0.951 . S
C5189 C5190 1.366 . S
C5189 C5191 1.388 . S
C5190 C5189 1.366 . S
C5190 C5194 1.385 . S
C5191 H5166 0.951 . S
C5191 C5189 1.388 . S
C5191 C5192 1.366 . S
C5192 C5191 1.366 . S
C5192 C5193 1.414 . S
C5192 C5195 1.499 . S
C5193 H5167 0.950 . S
C5193 C5192 1.414 . S
C5193 C5194 1.374 . S
C5194 H5168 0.950 . S
C5194 C5190 1.385 . S
C5194 C5193 1.374 . S
C5195 C5192 1.499 . S
C5195 C5196 1.373 . S
C5195 C5197 1.389 . S
C5196 H5169 0.950 . S
C5196 C5182 1.377 . S
C5196 C5195 1.373 . S
C5197 C5181 1.377 . S
C5197 C5195 1.389 . S
C5197 C5198 1.524 . S
C5198 C5197 1.524 . S
C5198 C5199 1.397 . S
C5198 C5203 1.363 . S
C5199 H5170 0.950 . S
C5199 C5198 1.397 . S
C5199 C5200 1.334 . S
C5200 H5171 0.950 . S
C5200 C5199 1.334 . S
C5200 C5201 1.287 . S
C5201 C5200 1.287 . S
C5201 C5202 1.524 . S
C5201 H5204 0.999 . S
C5202 H5172 0.950 . S
C5202 C5201 1.524 . S
C5202 C5203 1.415 . S
C5203 H5173 0.950 . S
C5203 C5198 1.363 . S
C5203 C5202 1.415 . S
H5204 C5201 0.999 . S
H5205 C5186 0.913 . S
H5206 C5224 0.951 . S
H5207 C5226 0.951 . S
H5208 C5228 0.950 . S
H5209 C5229 0.950 . S
H5210 C5231 0.950 . S
H5211 C5234 0.950 . S
H5212 C5235 0.950 . S
H5213 C5237 0.950 . S
H5214 C5238 0.950 . S
H5215 C5239 0.951 . S
H5216 C5241 0.951 . S
H5217 C5243 0.950 . S
H5218 C5244 0.950 . S
H5219 C5246 0.950 . S
H5220 C5249 0.950 . S
H5221 C5250 0.950 . S
H5222 C5252 0.950 . S
H5223 C5253 0.950 . S
C5224 H5206 0.951 . S
C5224 C5225 1.366 . S
C5224 C5226 1.388 . S
C5225 C5224 1.366 . S
C5225 C5229 1.385 . S
C5226 H5207 0.951 . S
C5226 C5224 1.388 . S
C5226 C5227 1.366 . S
C5227 C5226 1.366 . S
C5227 C5228 1.414 . S
C5227 C5230 1.499 . S
C5228 H5208 0.950 . S
C5228 C5227 1.414 . S
C5228 C5229 1.374 . S
C5229 H5209 0.950 . S
C5229 C5225 1.385 . S
C5229 C5228 1.374 . S
C5230 C5227 1.499 . S
C5230 C5231 1.373 . S
C5230 C5232 1.389 . S
C5231 H5210 0.950 . S
C5231 C5230 1.373 . S
C5231 C5247 1.377 . S
C5232 C5230 1.389 . S
C5232 C5233 1.524 . S
C5232 C5246 1.377 . S
C5233 C5232 1.524 . S
C5233 C5234 1.397 . S
C5233 C5238 1.363 . S
C5234 H5211 0.950 . S
C5234 C5233 1.397 . S
C5234 C5235 1.334 . S
C5235 H5212 0.950 . S
C5235 C5234 1.334 . S
C5235 C5236 1.287 . S
C5236 C5235 1.287 . S
C5236 C5237 1.524 . S
C5236 H5255 0.913 . S
C5237 H5213 0.950 . S
C5237 C5236 1.524 . S
C5237 C5238 1.415 . S
C5238 H5214 0.950 . S
C5238 C5233 1.363 . S
C5238 C5237 1.415 . S
C5239 H5215 0.951 . S
C5239 C5240 1.366 . S
C5239 C5241 1.388 . S
C5240 C5239 1.366 . S
C5240 C5244 1.385 . S
C5241 H5216 0.951 . S
C5241 C5239 1.388 . S
C5241 C5242 1.366 . S
C5242 C5241 1.366 . S
C5242 C5243 1.414 . S
C5242 C5245 1.499 . S
C5243 H5217 0.950 . S
C5243 C5242 1.414 . S
C5243 C5244 1.374 . S
C5244 H5218 0.950 . S
C5244 C5240 1.385 . S
C5244 C5243 1.374 . S
C5245 C5242 1.499 . S
C5245 C5246 1.373 . S
C5245 C5247 1.389 . S
C5246 H5219 0.950 . S
C5246 C5232 1.377 . S
C5246 C5245 1.373 . S
C5247 C5231 1.377 . S
C5247 C5245 1.389 . S
C5247 C5248 1.524 . S
C5248 C5247 1.524 . S
C5248 C5249 1.397 . S
C5248 C5253 1.363 . S
C5249 H5220 0.950 . S
C5249 C5248 1.397 . S
C5249 C5250 1.334 . S
C5250 H5221 0.950 . S
C5250 C5249 1.334 . S
C5250 C5251 1.287 . S
C5251 C5250 1.287 . S
C5251 C5252 1.524 . S
C5251 H5254 0.999 . S
C5252 H5222 0.950 . S
C5252 C5251 1.524 . S
C5252 C5253 1.415 . S
C5253 H5223 0.950 . S
C5253 C5248 1.363 . S
C5253 C5252 1.415 . S
H5254 C5251 0.999 . S
H5255 C5236 0.913 . S
H5256 C5274 0.951 . S
H5257 C5276 0.951 . S
H5258 C5278 0.950 . S
H5259 C5279 0.950 . S
H5260 C5281 0.950 . S
H5261 C5284 0.950 . S
H5262 C5285 0.950 . S
H5263 C5287 0.950 . S
H5264 C5288 0.950 . S
H5265 C5289 0.951 . S
H5266 C5291 0.951 . S
H5267 C5293 0.950 . S
H5268 C5294 0.950 . S
H5269 C5296 0.950 . S
H5270 C5299 0.950 . S
H5271 C5300 0.950 . S
H5272 C5302 0.950 . S
H5273 C5303 0.950 . S
C5274 H5256 0.951 . S
C5274 C5275 1.366 . S
C5274 C5276 1.388 . S
C5275 C5274 1.366 . S
C5275 C5279 1.385 . S
C5276 H5257 0.951 . S
C5276 C5274 1.388 . S
C5276 C5277 1.366 . S
C5277 C5276 1.366 . S
C5277 C5278 1.414 . S
C5277 C5280 1.499 . S
C5278 H5258 0.950 . S
C5278 C5277 1.414 . S
C5278 C5279 1.374 . S
C5279 H5259 0.950 . S
C5279 C5275 1.385 . S
C5279 C5278 1.374 . S
C5280 C5277 1.499 . S
C5280 C5281 1.373 . S
C5280 C5282 1.389 . S
C5281 H5260 0.950 . S
C5281 C5280 1.373 . S
C5281 C5297 1.377 . S
C5282 C5280 1.389 . S
C5282 C5283 1.524 . S
C5282 C5296 1.377 . S
C5283 C5282 1.524 . S
C5283 C5284 1.397 . S
C5283 C5288 1.363 . S
C5284 H5261 0.950 . S
C5284 C5283 1.397 . S
C5284 C5285 1.334 . S
C5285 H5262 0.950 . S
C5285 C5284 1.334 . S
C5285 C5286 1.287 . S
C5286 C5285 1.287 . S
C5286 C5287 1.524 . S
C5286 H5305 0.913 . S
C5287 H5263 0.950 . S
C5287 C5286 1.524 . S
C5287 C5288 1.415 . S
C5288 H5264 0.950 . S
C5288 C5283 1.363 . S
C5288 C5287 1.415 . S
C5289 H5265 0.951 . S
C5289 C5290 1.366 . S
C5289 C5291 1.388 . S
C5290 C5289 1.366 . S
C5290 C5294 1.385 . S
C5291 H5266 0.951 . S
C5291 C5289 1.388 . S
C5291 C5292 1.366 . S
C5292 C5291 1.366 . S
C5292 C5293 1.414 . S
C5292 C5295 1.499 . S
C5293 H5267 0.950 . S
C5293 C5292 1.414 . S
C5293 C5294 1.374 . S
C5294 H5268 0.950 . S
C5294 C5290 1.385 . S
C5294 C5293 1.374 . S
C5295 C5292 1.499 . S
C5295 C5296 1.373 . S
C5295 C5297 1.389 . S
C5296 H5269 0.950 . S
C5296 C5282 1.377 . S
C5296 C5295 1.373 . S
C5297 C5281 1.377 . S
C5297 C5295 1.389 . S
C5297 C5298 1.524 . S
C5298 C5297 1.524 . S
C5298 C5299 1.397 . S
C5298 C5303 1.363 . S
C5299 H5270 0.950 . S
C5299 C5298 1.397 . S
C5299 C5300 1.334 . S
C5300 H5271 0.950 . S
C5300 C5299 1.334 . S
C5300 C5301 1.287 . S
C5301 C5300 1.287 . S
C5301 C5302 1.524 . S
C5301 H5304 0.999 . S
C5302 H5272 0.950 . S
C5302 C5301 1.524 . S
C5302 C5303 1.415 . S
C5303 H5273 0.950 . S
C5303 C5298 1.363 . S
C5303 C5302 1.415 . S
H5304 C5301 0.999 . S
H5305 C5286 0.913 . S
H5306 C5324 0.951 . S
H5307 C5326 0.951 . S
H5308 C5328 0.950 . S
H5309 C5329 0.950 . S
H5310 C5331 0.950 . S
H5311 C5334 0.950 . S
H5312 C5335 0.950 . S
H5313 C5337 0.950 . S
H5314 C5338 0.950 . S
H5315 C5339 0.951 . S
H5316 C5341 0.951 . S
H5317 C5343 0.950 . S
H5318 C5344 0.950 . S
H5319 C5346 0.950 . S
H5320 C5349 0.950 . S
H5321 C5350 0.950 . S
H5322 C5352 0.950 . S
H5323 C5353 0.950 . S
C5324 H5306 0.951 . S
C5324 C5325 1.366 . S
C5324 C5326 1.388 . S
C5325 C5324 1.366 . S
C5325 C5329 1.385 . S
C5326 H5307 0.951 . S
C5326 C5324 1.388 . S
C5326 C5327 1.366 . S
C5327 C5326 1.366 . S
C5327 C5328 1.414 . S
C5327 C5330 1.499 . S
C5328 H5308 0.950 . S
C5328 C5327 1.414 . S
C5328 C5329 1.374 . S
C5329 H5309 0.950 . S
C5329 C5325 1.385 . S
C5329 C5328 1.374 . S
C5330 C5327 1.499 . S
C5330 C5331 1.373 . S
C5330 C5332 1.389 . S
C5331 H5310 0.950 . S
C5331 C5330 1.373 . S
C5331 C5347 1.377 . S
C5332 C5330 1.389 . S
C5332 C5333 1.524 . S
C5332 C5346 1.377 . S
C5333 C5332 1.524 . S
C5333 C5334 1.397 . S
C5333 C5338 1.363 . S
C5334 H5311 0.950 . S
C5334 C5333 1.397 . S
C5334 C5335 1.334 . S
C5335 H5312 0.950 . S
C5335 C5334 1.334 . S
C5335 C5336 1.287 . S
C5336 C5335 1.287 . S
C5336 C5337 1.524 . S
C5336 H5355 0.913 . S
C5337 H5313 0.950 . S
C5337 C5336 1.524 . S
C5337 C5338 1.415 . S
C5338 H5314 0.950 . S
C5338 C5333 1.363 . S
C5338 C5337 1.415 . S
C5339 H5315 0.951 . S
C5339 C5340 1.366 . S
C5339 C5341 1.388 . S
C5340 C5339 1.366 . S
C5340 C5344 1.385 . S
C5341 H5316 0.951 . S
C5341 C5339 1.388 . S
C5341 C5342 1.366 . S
C5342 C5341 1.366 . S
C5342 C5343 1.414 . S
C5342 C5345 1.499 . S
C5343 H5317 0.950 . S
C5343 C5342 1.414 . S
C5343 C5344 1.374 . S
C5344 H5318 0.950 . S
C5344 C5340 1.385 . S
C5344 C5343 1.374 . S
C5345 C5342 1.499 . S
C5345 C5346 1.373 . S
C5345 C5347 1.389 . S
C5346 H5319 0.950 . S
C5346 C5332 1.377 . S
C5346 C5345 1.373 . S
C5347 C5331 1.377 . S
C5347 C5345 1.389 . S
C5347 C5348 1.524 . S
C5348 C5347 1.524 . S
C5348 C5349 1.397 . S
C5348 C5353 1.363 . S
C5349 H5320 0.950 . S
C5349 C5348 1.397 . S
C5349 C5350 1.334 . S
C5350 H5321 0.950 . S
C5350 C5349 1.334 . S
C5350 C5351 1.287 . S
C5351 C5350 1.287 . S
C5351 C5352 1.524 . S
C5351 H5354 0.999 . S
C5352 H5322 0.950 . S
C5352 C5351 1.524 . S
C5352 C5353 1.415 . S
C5353 H5323 0.950 . S
C5353 C5348 1.363 . S
C5353 C5352 1.415 . S
H5354 C5351 0.999 . S
H5355 C5336 0.913 . S
H5356 C5374 0.951 . S
H5357 C5376 0.951 . S
H5358 C5378 0.950 . S
H5359 C5379 0.950 . S
H5360 C5381 0.950 . S
H5361 C5384 0.950 . S
H5362 C5385 0.950 . S
H5363 C5387 0.950 . S
H5364 C5388 0.950 . S
H5365 C5389 0.951 . S
H5366 C5391 0.951 . S
H5367 C5393 0.950 . S
H5368 C5394 0.950 . S
H5369 C5396 0.950 . S
H5370 C5399 0.950 . S
H5371 C5400 0.950 . S
H5372 C5402 0.950 . S
H5373 C5403 0.950 . S
C5374 H5356 0.951 . S
C5374 C5375 1.366 . S
C5374 C5376 1.388 . S
C5375 C5374 1.366 . S
C5375 C5379 1.385 . S
C5376 H5357 0.951 . S
C5376 C5374 1.388 . S
C5376 C5377 1.366 . S
C5377 C5376 1.366 . S
C5377 C5378 1.414 . S
C5377 C5380 1.499 . S
C5378 H5358 0.950 . S
C5378 C5377 1.414 . S
C5378 C5379 1.374 . S
C5379 H5359 0.950 . S
C5379 C5375 1.385 . S
C5379 C5378 1.374 . S
C5380 C5377 1.499 . S
C5380 C5381 1.373 . S
C5380 C5382 1.389 . S
C5381 H5360 0.950 . S
C5381 C5380 1.373 . S
C5381 C5397 1.377 . S
C5382 C5380 1.389 . S
C5382 C5383 1.524 . S
C5382 C5396 1.377 . S
C5383 C5382 1.524 . S
C5383 C5384 1.397 . S
C5383 C5388 1.363 . S
C5384 H5361 0.950 . S
C5384 C5383 1.397 . S
C5384 C5385 1.334 . S
C5385 H5362 0.950 . S
C5385 C5384 1.334 . S
C5385 C5386 1.287 . S
C5386 C5385 1.287 . S
C5386 C5387 1.524 . S
C5386 H5405 0.913 . S
C5387 H5363 0.950 . S
C5387 C5386 1.524 . S
C5387 C5388 1.415 . S
C5388 H5364 0.950 . S
C5388 C5383 1.363 . S
C5388 C5387 1.415 . S
C5389 H5365 0.951 . S
C5389 C5390 1.366 . S
C5389 C5391 1.388 . S
C5390 C5389 1.366 . S
C5390 C5394 1.385 . S
C5391 H5366 0.951 . S
C5391 C5389 1.388 . S
C5391 C5392 1.366 . S
C5392 C5391 1.366 . S
C5392 C5393 1.414 . S
C5392 C5395 1.499 . S
C5393 H5367 0.950 . S
C5393 C5392 1.414 . S
C5393 C5394 1.374 . S
C5394 H5368 0.950 . S
C5394 C5390 1.385 . S
C5394 C5393 1.374 . S
C5395 C5392 1.499 . S
C5395 C5396 1.373 . S
C5395 C5397 1.389 . S
C5396 H5369 0.950 . S
C5396 C5382 1.377 . S
C5396 C5395 1.373 . S
C5397 C5381 1.377 . S
C5397 C5395 1.389 . S
C5397 C5398 1.524 1_455 S
C5398 C5397 1.524 1_655 S
C5398 C5399 1.397 . S
C5398 C5403 1.363 . S
C5399 H5370 0.950 . S
C5399 C5398 1.397 . S
C5399 C5400 1.334 . S
C5400 H5371 0.950 . S
C5400 C5399 1.334 . S
C5400 C5401 1.287 . S
C5401 C5400 1.287 . S
C5401 C5402 1.524 . S
C5401 H5404 0.999 . S
C5402 H5372 0.950 . S
C5402 C5401 1.524 . S
C5402 C5403 1.415 . S
C5403 H5373 0.950 . S
C5403 C5398 1.363 . S
C5403 C5402 1.415 . S
H5404 C5401 0.999 . S
H5405 C5386 0.913 . S
H5406 C5424 0.951 . S
H5407 C5426 0.951 . S
H5408 C5428 0.950 . S
H5409 C5429 0.950 . S
H5410 C5431 0.950 . S
H5411 C5434 0.950 . S
H5412 C5435 0.950 . S
H5413 C5437 0.950 . S
H5414 C5438 0.950 . S
H5415 C5439 0.951 . S
H5416 C5441 0.951 . S
H5417 C5443 0.950 . S
H5418 C5444 0.950 . S
H5419 C5446 0.950 . S
H5420 C5449 0.950 . S
H5421 C5450 0.950 . S
H5422 C5452 0.950 . S
H5423 C5453 0.950 . S
C5424 H5406 0.951 . S
C5424 C5425 1.366 . S
C5424 C5426 1.388 . S
C5425 C5424 1.366 . S
C5425 C5429 1.385 . S
C5426 H5407 0.951 . S
C5426 C5424 1.388 . S
C5426 C5427 1.366 . S
C5427 C5426 1.366 . S
C5427 C5428 1.414 . S
C5427 C5430 1.499 . S
C5428 H5408 0.950 . S
C5428 C5427 1.414 . S
C5428 C5429 1.374 . S
C5429 H5409 0.950 . S
C5429 C5425 1.385 . S
C5429 C5428 1.374 . S
C5430 C5427 1.499 . S
C5430 C5431 1.373 . S
C5430 C5432 1.389 . S
C5431 H5410 0.950 . S
C5431 C5430 1.373 . S
C5431 C5447 1.377 . S
C5432 C5430 1.389 . S
C5432 C5433 1.524 . S
C5432 C5446 1.377 . S
C5433 C5432 1.524 . S
C5433 C5434 1.397 . S
C5433 C5438 1.363 . S
C5434 H5411 0.950 . S
C5434 C5433 1.397 . S
C5434 C5435 1.334 . S
C5435 H5412 0.950 . S
C5435 C5434 1.334 . S
C5435 C5436 1.287 . S
C5436 C5435 1.287 . S
C5436 C5437 1.524 . S
C5436 H5455 0.913 . S
C5437 H5413 0.950 . S
C5437 C5436 1.524 . S
C5437 C5438 1.415 . S
C5438 H5414 0.950 . S
C5438 C5433 1.363 . S
C5438 C5437 1.415 . S
C5439 H5415 0.951 . S
C5439 C5440 1.366 . S
C5439 C5441 1.388 . S
C5440 C5439 1.366 . S
C5440 C5444 1.385 . S
C5441 H5416 0.951 . S
C5441 C5439 1.388 . S
C5441 C5442 1.366 . S
C5442 C5441 1.366 . S
C5442 C5443 1.414 . S
C5442 C5445 1.499 . S
C5443 H5417 0.950 . S
C5443 C5442 1.414 . S
C5443 C5444 1.374 . S
C5444 H5418 0.950 . S
C5444 C5440 1.385 . S
C5444 C5443 1.374 . S
C5445 C5442 1.499 . S
C5445 C5446 1.373 . S
C5445 C5447 1.389 . S
C5446 H5419 0.950 . S
C5446 C5432 1.377 . S
C5446 C5445 1.373 . S
C5447 C5431 1.377 . S
C5447 C5445 1.389 . S
C5447 C5448 1.524 . S
C5448 C5447 1.524 . S
C5448 C5449 1.397 . S
C5448 C5453 1.363 . S
C5449 H5420 0.950 . S
C5449 C5448 1.397 . S
C5449 C5450 1.334 . S
C5450 H5421 0.950 . S
C5450 C5449 1.334 . S
C5450 C5451 1.287 . S
C5451 C5450 1.287 . S
C5451 C5452 1.524 . S
C5451 H5454 0.999 . S
C5452 H5422 0.950 . S
C5452 C5451 1.524 . S
C5452 C5453 1.415 . S
C5453 H5423 0.950 . S
C5453 C5448 1.363 . S
C5453 C5452 1.415 . S
H5454 C5451 0.999 . S
H5455 C5436 0.913 . S
H5456 C5474 0.951 . S
H5457 C5476 0.951 . S
H5458 C5478 0.950 . S
H5459 C5479 0.950 . S
H5460 C5481 0.950 . S
H5461 C5484 0.950 . S
H5462 C5485 0.950 . S
H5463 C5487 0.950 . S
H5464 C5488 0.950 . S
H5465 C5489 0.951 . S
H5466 C5491 0.951 . S
H5467 C5493 0.950 . S
H5468 C5494 0.950 . S
H5469 C5496 0.950 . S
H5470 C5499 0.950 . S
H5471 C5500 0.950 . S
H5472 C5502 0.935 1_554 S
H5473 C5503 0.950 . S
C5474 H5456 0.951 . S
C5474 C5475 1.366 . S
C5474 C5476 1.388 . S
C5475 C5474 1.366 . S
C5475 C5479 1.385 . S
C5476 H5457 0.951 . S
C5476 C5474 1.388 . S
C5476 C5477 1.366 . S
C5477 C5476 1.366 . S
C5477 C5478 1.414 . S
C5477 C5480 1.499 . S
C5478 H5458 0.950 . S
C5478 C5477 1.414 . S
C5478 C5479 1.374 . S
C5479 H5459 0.950 . S
C5479 C5475 1.385 . S
C5479 C5478 1.374 . S
C5480 C5477 1.499 . S
C5480 C5481 1.373 . S
C5480 C5482 1.389 . S
C5481 H5460 0.950 . S
C5481 C5480 1.373 . S
C5481 C5497 1.377 . S
C5482 C5480 1.389 . S
C5482 C5483 1.524 . S
C5482 C5496 1.377 . S
C5483 C5482 1.524 . S
C5483 C5484 1.397 . S
C5483 C5488 1.363 . S
C5484 H5461 0.950 . S
C5484 C5483 1.397 . S
C5484 C5485 1.334 . S
C5485 H5462 0.950 . S
C5485 C5484 1.334 . S
C5485 C5486 1.287 . S
C5486 C5485 1.287 . S
C5486 C5487 1.524 . S
C5486 H5505 0.913 . S
C5487 H5463 0.950 . S
C5487 C5486 1.524 . S
C5487 C5488 1.415 . S
C5488 H5464 0.950 . S
C5488 C5483 1.363 . S
C5488 C5487 1.415 . S
C5489 H5465 0.951 . S
C5489 C5490 1.366 . S
C5489 C5491 1.388 . S
C5490 C5489 1.366 . S
C5490 C5494 1.385 . S
C5491 H5466 0.951 . S
C5491 C5489 1.388 . S
C5491 C5492 1.366 . S
C5492 C5491 1.366 . S
C5492 C5493 1.414 . S
C5492 C5495 1.499 . S
C5493 H5467 0.950 . S
C5493 C5492 1.414 . S
C5493 C5494 1.374 . S
C5494 H5468 0.950 . S
C5494 C5490 1.385 . S
C5494 C5493 1.374 . S
C5495 C5492 1.499 . S
C5495 C5496 1.373 . S
C5495 C5497 1.389 . S
C5496 H5469 0.950 . S
C5496 C5482 1.377 . S
C5496 C5495 1.373 . S
C5497 C5481 1.377 . S
C5497 C5495 1.389 . S
C5497 C5498 1.524 . S
C5498 C5497 1.524 . S
C5498 C5499 1.397 . S
C5498 C5503 1.363 . S
C5499 H5470 0.950 . S
C5499 C5498 1.397 . S
C5499 C5500 1.334 . S
C5500 H5471 0.950 . S
C5500 C5499 1.334 . S
C5500 C5501 1.287 . S
C5501 C5500 1.287 . S
C5501 C5502 1.524 . S
C5501 H5504 0.999 1_556 S
C5502 H5472 0.935 1_556 S
C5502 C5501 1.524 . S
C5502 C5503 1.415 . S
C5503 H5473 0.950 . S
C5503 C5498 1.363 . S
C5503 C5502 1.415 . S
H5504 C5501 0.999 1_554 S
H5505 C5486 0.913 . S
H5506 C5524 0.951 . S
H5507 C5526 0.951 . S
H5508 C5528 0.950 . S
H5509 C5529 0.950 . S
H5510 C5531 0.950 . S
H5511 C5534 0.950 . S
H5512 C5535 0.950 . S
H5513 C5537 0.950 . S
H5514 C5538 0.950 . S
H5515 C5539 0.951 . S
H5516 C5541 0.951 . S
H5517 C5543 0.950 . S
H5518 C5544 0.950 . S
H5519 C5546 0.950 . S
H5520 C5549 0.950 . S
H5521 C5550 0.950 . S
H5522 C5552 0.950 . S
H5523 C5553 0.950 . S
C5524 H5506 0.951 . S
C5524 C5525 1.366 . S
C5524 C5526 1.388 . S
C5525 C5524 1.366 . S
C5525 C5529 1.385 . S
C5526 H5507 0.951 . S
C5526 C5524 1.388 . S
C5526 C5527 1.366 . S
C5527 C5526 1.366 . S
C5527 C5528 1.414 . S
C5527 C5530 1.499 . S
C5528 H5508 0.950 . S
C5528 C5527 1.414 . S
C5528 C5529 1.374 . S
C5529 H5509 0.950 . S
C5529 C5525 1.385 . S
C5529 C5528 1.374 . S
C5530 C5527 1.499 . S
C5530 C5531 1.373 . S
C5530 C5532 1.389 . S
C5531 H5510 0.950 . S
C5531 C5530 1.373 . S
C5531 C5547 1.377 . S
C5532 C5530 1.389 . S
C5532 C5533 1.524 . S
C5532 C5546 1.377 . S
C5533 C5532 1.524 . S
C5533 C5534 1.397 . S
C5533 C5538 1.363 . S
C5534 H5511 0.950 . S
C5534 C5533 1.397 . S
C5534 C5535 1.334 . S
C5535 H5512 0.950 . S
C5535 C5534 1.334 . S
C5535 C5536 1.287 . S
C5536 C5535 1.287 . S
C5536 C5537 1.524 . S
C5536 H5555 0.913 . S
C5537 H5513 0.950 . S
C5537 C5536 1.524 . S
C5537 C5538 1.415 . S
C5538 H5514 0.950 . S
C5538 C5533 1.363 . S
C5538 C5537 1.415 . S
C5539 H5515 0.951 . S
C5539 C5540 1.366 . S
C5539 C5541 1.388 . S
C5540 C5539 1.366 . S
C5540 C5544 1.385 . S
C5541 H5516 0.951 . S
C5541 C5539 1.388 . S
C5541 C5542 1.366 . S
C5542 C5541 1.366 . S
C5542 C5543 1.414 . S
C5542 C5545 1.499 . S
C5543 H5517 0.950 . S
C5543 C5542 1.414 . S
C5543 C5544 1.374 . S
C5544 H5518 0.950 . S
C5544 C5540 1.385 . S
C5544 C5543 1.374 . S
C5545 C5542 1.499 . S
C5545 C5546 1.373 . S
C5545 C5547 1.389 . S
C5546 H5519 0.950 . S
C5546 C5532 1.377 . S
C5546 C5545 1.373 . S
C5547 C5531 1.377 . S
C5547 C5545 1.389 . S
C5547 C5548 1.524 . S
C5548 C5547 1.524 . S
C5548 C5549 1.397 . S
C5548 C5553 1.363 . S
C5549 H5520 0.950 . S
C5549 C5548 1.397 . S
C5549 C5550 1.334 . S
C5550 H5521 0.950 . S
C5550 C5549 1.334 . S
C5550 C5551 1.287 . S
C5551 C5550 1.287 . S
C5551 C5552 1.524 . S
C5551 H5554 0.999 . S
C5552 H5522 0.950 . S
C5552 C5551 1.524 . S
C5552 C5553 1.415 . S
C5553 H5523 0.950 . S
C5553 C5548 1.363 . S
C5553 C5552 1.415 . S
H5554 C5551 0.999 . S
H5555 C5536 0.913 . S
H5556 C5574 0.951 . S
H5557 C5576 0.951 . S
H5558 C5578 0.950 . S
H5559 C5579 0.950 . S
H5560 C5581 0.950 . S
H5561 C5584 0.950 . S
H5562 C5585 0.950 . S
H5563 C5587 0.950 . S
H5564 C5588 0.927 1_655 S
H5565 C5589 0.951 . S
H5566 C5591 0.951 . S
H5567 C5593 0.950 1_655 S
H5568 C5594 0.950 1_655 S
H5569 C5596 0.950 . S
H5570 C5599 0.950 . S
H5571 C5600 0.950 . S
H5572 C5602 0.950 . S
H5573 C5603 0.950 . S
C5574 H5556 0.951 . S
C5574 C5575 1.366 . S
C5574 C5576 1.388 . S
C5575 C5574 1.366 . S
C5575 C5579 1.385 . S
C5576 H5557 0.951 . S
C5576 C5574 1.388 . S
C5576 C5577 1.366 . S
C5577 C5576 1.366 . S
C5577 C5578 1.414 . S
C5577 C5580 1.499 . S
C5578 H5558 0.950 . S
C5578 C5577 1.414 . S
C5578 C5579 1.374 . S
C5579 H5559 0.950 . S
C5579 C5575 1.385 . S
C5579 C5578 1.374 . S
C5580 C5577 1.499 . S
C5580 C5581 1.373 . S
C5580 C5582 1.389 . S
C5581 H5560 0.950 . S
C5581 C5580 1.373 . S
C5581 C5597 1.377 . S
C5582 C5580 1.389 . S
C5582 C5583 1.524 . S
C5582 C5596 1.377 . S
C5583 C5582 1.524 . S
C5583 C5584 1.397 . S
C5583 C5588 1.391 . S
C5584 H5561 0.950 . S
C5584 C5583 1.397 . S
C5584 C5585 1.334 . S
C5585 H5562 0.950 . S
C5585 C5584 1.334 . S
C5585 C5586 1.287 . S
C5586 C5585 1.287 . S
C5586 C5587 1.524 1_455 S
C5586 H5605 0.913 . S
C5587 H5563 0.950 . S
C5587 C5586 1.524 1_655 S
C5587 C5588 1.410 1_655 S
C5588 H5564 0.927 1_455 S
C5588 C5583 1.391 . S
C5588 C5587 1.410 1_455 S
C5589 H5565 0.951 . S
C5589 C5590 1.366 . S
C5589 C5591 1.388 . S
C5590 C5589 1.366 . S
C5590 C5594 1.385 . S
C5591 H5566 0.951 . S
C5591 C5589 1.388 . S
C5591 C5592 1.366 . S
C5592 C5591 1.366 . S
C5592 C5593 1.414 . S
C5592 C5595 1.499 . S
C5593 H5567 0.950 1_455 S
C5593 C5592 1.414 . S
C5593 C5594 1.374 . S
C5594 H5568 0.950 1_455 S
C5594 C5590 1.385 . S
C5594 C5593 1.374 . S
C5595 C5592 1.499 . S
C5595 C5596 1.373 . S
C5595 C5597 1.389 . S
C5596 H5569 0.950 . S
C5596 C5582 1.377 . S
C5596 C5595 1.373 . S
C5597 C5581 1.377 . S
C5597 C5595 1.389 . S
C5597 C5598 1.524 . S
C5598 C5597 1.524 . S
C5598 C5599 1.397 . S
C5598 C5603 1.363 . S
C5599 H5570 0.950 . S
C5599 C5598 1.397 . S
C5599 C5600 1.334 . S
C5600 H5571 0.950 . S
C5600 C5599 1.334 . S
C5600 C5601 1.287 . S
C5601 C5600 1.287 . S
C5601 C5602 1.524 . S
C5601 H5604 0.999 . S
C5602 H5572 0.950 . S
C5602 C5601 1.524 . S
C5602 C5603 1.415 . S
C5603 H5573 0.950 . S
C5603 C5598 1.363 . S
C5603 C5602 1.415 . S
H5604 C5601 0.999 . S
H5605 C5586 0.913 . S
H5606 C5624 0.951 . S
H5607 C5626 0.951 . S
H5608 C5628 0.950 . S
H5609 C5629 0.950 . S
H5610 C5631 0.950 . S
H5611 C5634 0.950 . S
H5612 C5635 0.950 . S
H5613 C5637 0.950 . S
H5614 C5638 0.950 . S
H5615 C5639 0.951 . S
H5616 C5641 0.951 . S
H5617 C5643 0.950 . S
H5618 C5644 0.950 . S
H5619 C5646 0.950 . S
H5620 C5649 0.950 . S
H5621 C5650 0.950 . S
H5622 C5652 0.950 . S
H5623 C5653 0.950 . S
C5624 H5606 0.951 . S
C5624 C5625 1.366 . S
C5624 C5626 1.388 . S
C5625 C5624 1.366 . S
C5625 C5629 1.385 . S
C5626 H5607 0.951 . S
C5626 C5624 1.388 . S
C5626 C5627 1.366 . S
C5627 C5626 1.366 . S
C5627 C5628 1.414 . S
C5627 C5630 1.499 . S
C5628 H5608 0.950 . S
C5628 C5627 1.414 . S
C5628 C5629 1.374 . S
C5629 H5609 0.950 . S
C5629 C5625 1.385 . S
C5629 C5628 1.374 . S
C5630 C5627 1.499 . S
C5630 C5631 1.373 . S
C5630 C5632 1.389 . S
C5631 H5610 0.950 . S
C5631 C5630 1.373 . S
C5631 C5647 1.377 . S
C5632 C5630 1.389 . S
C5632 C5633 1.524 . S
C5632 C5646 1.377 . S
C5633 C5632 1.524 . S
C5633 C5634 1.397 . S
C5633 C5638 1.363 . S
C5634 H5611 0.950 . S
C5634 C5633 1.397 . S
C5634 C5635 1.334 . S
C5635 H5612 0.950 . S
C5635 C5634 1.334 . S
C5635 C5636 1.287 . S
C5636 C5635 1.287 . S
C5636 C5637 1.524 . S
C5636 H5655 0.913 . S
C5637 H5613 0.950 . S
C5637 C5636 1.524 . S
C5637 C5638 1.415 . S
C5638 H5614 0.950 . S
C5638 C5633 1.363 . S
C5638 C5637 1.415 . S
C5639 H5615 0.951 . S
C5639 C5640 1.366 . S
C5639 C5641 1.388 . S
C5640 C5639 1.366 . S
C5640 C5644 1.385 . S
C5641 H5616 0.951 . S
C5641 C5639 1.388 . S
C5641 C5642 1.366 . S
C5642 C5641 1.366 . S
C5642 C5643 1.414 . S
C5642 C5645 1.499 . S
C5643 H5617 0.950 . S
C5643 C5642 1.414 . S
C5643 C5644 1.374 . S
C5644 H5618 0.950 . S
C5644 C5640 1.385 . S
C5644 C5643 1.374 . S
C5645 C5642 1.499 . S
C5645 C5646 1.373 . S
C5645 C5647 1.389 . S
C5646 H5619 0.950 . S
C5646 C5632 1.377 . S
C5646 C5645 1.373 . S
C5647 C5631 1.377 . S
C5647 C5645 1.389 . S
C5647 C5648 1.524 . S
C5648 C5647 1.524 . S
C5648 C5649 1.397 . S
C5648 C5653 1.363 . S
C5649 H5620 0.950 . S
C5649 C5648 1.397 . S
C5649 C5650 1.334 . S
C5650 H5621 0.950 . S
C5650 C5649 1.334 . S
C5650 C5651 1.287 . S
C5651 C5650 1.287 . S
C5651 C5652 1.524 . S
C5651 H5654 0.999 . S
C5652 H5622 0.950 . S
C5652 C5651 1.524 . S
C5652 C5653 1.415 . S
C5653 H5623 0.950 . S
C5653 C5648 1.363 . S
C5653 C5652 1.415 . S
H5654 C5651 0.999 . S
H5655 C5636 0.913 . S
H5656 C5674 0.951 . S
H5657 C5676 0.951 . S
H5658 C5678 0.950 . S
H5659 C5679 0.950 . S
H5660 C5681 0.950 . S
H5661 C5684 0.950 . S
H5662 C5685 0.950 . S
H5663 C5687 0.950 . S
H5664 C5688 0.950 . S
H5665 C5689 0.951 . S
H5666 C5691 0.951 . S
H5667 C5693 0.950 . S
H5668 C5694 0.950 . S
H5669 C5696 0.950 . S
H5670 C5699 0.950 . S
H5671 C5700 0.950 . S
H5672 C5702 0.950 . S
H5673 C5703 0.950 . S
C5674 H5656 0.951 . S
C5674 C5675 1.366 . S
C5674 C5676 1.388 . S
C5675 C5674 1.366 . S
C5675 C5679 1.385 . S
C5676 H5657 0.951 . S
C5676 C5674 1.388 . S
C5676 C5677 1.366 . S
C5677 C5676 1.366 . S
C5677 C5678 1.414 . S
C5677 C5680 1.499 . S
C5678 H5658 0.950 . S
C5678 C5677 1.414 . S
C5678 C5679 1.374 . S
C5679 H5659 0.950 . S
C5679 C5675 1.385 . S
C5679 C5678 1.374 . S
C5680 C5677 1.499 . S
C5680 C5681 1.373 . S
C5680 C5682 1.389 . S
C5681 H5660 0.950 . S
C5681 C5680 1.373 . S
C5681 C5697 1.377 . S
C5682 C5680 1.389 . S
C5682 C5683 1.524 . S
C5682 C5696 1.377 . S
C5683 C5682 1.524 . S
C5683 C5684 1.397 . S
C5683 C5688 1.363 . S
C5684 H5661 0.950 . S
C5684 C5683 1.397 . S
C5684 C5685 1.334 . S
C5685 H5662 0.950 . S
C5685 C5684 1.334 . S
C5685 C5686 1.287 . S
C5686 C5685 1.287 . S
C5686 C5687 1.524 . S
C5686 H5705 0.913 . S
C5687 H5663 0.950 . S
C5687 C5686 1.524 . S
C5687 C5688 1.415 . S
C5688 H5664 0.950 . S
C5688 C5683 1.363 . S
C5688 C5687 1.415 . S
C5689 H5665 0.951 . S
C5689 C5690 1.366 . S
C5689 C5691 1.388 . S
C5690 C5689 1.366 . S
C5690 C5694 1.385 . S
C5691 H5666 0.951 . S
C5691 C5689 1.388 . S
C5691 C5692 1.366 . S
C5692 C5691 1.366 . S
C5692 C5693 1.414 . S
C5692 C5695 1.499 . S
C5693 H5667 0.950 . S
C5693 C5692 1.414 . S
C5693 C5694 1.374 . S
C5694 H5668 0.950 . S
C5694 C5690 1.385 . S
C5694 C5693 1.374 . S
C5695 C5692 1.499 . S
C5695 C5696 1.373 . S
C5695 C5697 1.389 . S
C5696 H5669 0.950 . S
C5696 C5682 1.377 . S
C5696 C5695 1.373 . S
C5697 C5681 1.377 . S
C5697 C5695 1.389 . S
C5697 C5698 1.524 . S
C5698 C5697 1.524 . S
C5698 C5699 1.397 . S
C5698 C5703 1.363 . S
C5699 H5670 0.950 . S
C5699 C5698 1.397 . S
C5699 C5700 1.334 . S
C5700 H5671 0.950 . S
C5700 C5699 1.334 . S
C5700 C5701 1.287 . S
C5701 C5700 1.287 . S
C5701 C5702 1.524 . S
C5701 H5704 0.999 . S
C5702 H5672 0.950 . S
C5702 C5701 1.524 . S
C5702 C5703 1.415 . S
C5703 H5673 0.950 . S
C5703 C5698 1.363 . S
C5703 C5702 1.415 . S
H5704 C5701 0.999 . S
H5705 C5686 0.913 . S
H5706 C5724 0.951 . S
H5707 C5726 0.951 . S
H5708 C5728 0.950 . S
H5709 C5729 0.950 . S
H5710 C5731 0.950 . S
H5711 C5734 0.950 . S
H5712 C5735 0.950 . S
H5713 C5737 0.950 . S
H5714 C5738 0.950 . S
H5715 C5739 0.951 . S
H5716 C5741 0.951 . S
H5717 C5743 0.950 . S
H5718 C5744 0.950 . S
H5719 C5746 0.950 . S
H5720 C5749 0.950 . S
H5721 C5750 0.950 . S
H5722 C5752 0.950 . S
H5723 C5753 0.950 . S
C5724 H5706 0.951 . S
C5724 C5725 1.366 . S
C5724 C5726 1.388 . S
C5725 C5724 1.366 . S
C5725 C5729 1.385 . S
C5726 H5707 0.951 . S
C5726 C5724 1.388 . S
C5726 C5727 1.366 . S
C5727 C5726 1.366 . S
C5727 C5728 1.414 . S
C5727 C5730 1.499 . S
C5728 H5708 0.950 . S
C5728 C5727 1.414 . S
C5728 C5729 1.374 . S
C5729 H5709 0.950 . S
C5729 C5725 1.385 . S
C5729 C5728 1.374 . S
C5730 C5727 1.499 . S
C5730 C5731 1.373 . S
C5730 C5732 1.389 . S
C5731 H5710 0.950 . S
C5731 C5730 1.373 . S
C5731 C5747 1.377 . S
C5732 C5730 1.389 . S
C5732 C5733 1.524 . S
C5732 C5746 1.377 . S
C5733 C5732 1.524 . S
C5733 C5734 1.397 . S
C5733 C5738 1.363 . S
C5734 H5711 0.950 . S
C5734 C5733 1.397 . S
C5734 C5735 1.334 . S
C5735 H5712 0.950 . S
C5735 C5734 1.334 . S
C5735 C5736 1.287 . S
C5736 C5735 1.287 . S
C5736 C5737 1.524 . S
C5736 H5755 0.913 . S
C5737 H5713 0.950 . S
C5737 C5736 1.524 . S
C5737 C5738 1.415 . S
C5738 H5714 0.950 . S
C5738 C5733 1.363 . S
C5738 C5737 1.415 . S
C5739 H5715 0.951 . S
C5739 C5740 1.366 . S
C5739 C5741 1.388 . S
C5740 C5739 1.366 . S
C5740 C5744 1.385 . S
C5741 H5716 0.951 . S
C5741 C5739 1.388 . S
C5741 C5742 1.366 . S
C5742 C5741 1.366 . S
C5742 C5743 1.414 . S
C5742 C5745 1.499 . S
C5743 H5717 0.950 . S
C5743 C5742 1.414 . S
C5743 C5744 1.374 . S
C5744 H5718 0.950 . S
C5744 C5740 1.385 . S
C5744 C5743 1.374 . S
C5745 C5742 1.499 . S
C5745 C5746 1.373 . S
C5745 C5747 1.389 . S
C5746 H5719 0.950 . S
C5746 C5732 1.377 . S
C5746 C5745 1.373 . S
C5747 C5731 1.377 . S
C5747 C5745 1.389 . S
C5747 C5748 1.524 . S
C5748 C5747 1.524 . S
C5748 C5749 1.397 . S
C5748 C5753 1.363 . S
C5749 H5720 0.950 . S
C5749 C5748 1.397 . S
C5749 C5750 1.334 . S
C5750 H5721 0.950 . S
C5750 C5749 1.334 . S
C5750 C5751 1.287 . S
C5751 C5750 1.287 . S
C5751 C5752 1.524 . S
C5751 H5754 0.999 . S
C5752 H5722 0.950 . S
C5752 C5751 1.524 . S
C5752 C5753 1.415 . S
C5753 H5723 0.950 . S
C5753 C5748 1.363 . S
C5753 C5752 1.415 . S
H5754 C5751 0.999 . S
H5755 C5736 0.913 . S
H5756 C5774 0.951 . S
H5757 C5776 0.951 . S
H5758 C5778 0.950 . S
H5759 C5779 0.950 . S
H5760 C5781 0.950 . S
H5761 C5784 0.950 . S
H5762 C5785 0.950 . S
H5763 C5787 0.950 . S
H5764 C5788 0.950 . S
H5765 C5789 0.951 . S
H5766 C5791 0.951 . S
H5767 C5793 0.950 . S
H5768 C5794 0.950 1_455 S
H5769 C5796 0.950 . S
H5770 C5799 0.950 . S
H5771 C5800 0.950 . S
H5772 C5802 0.950 . S
H5773 C5803 0.950 . S
C5774 H5756 0.951 . S
C5774 C5775 1.366 . S
C5774 C5776 1.388 . S
C5775 C5774 1.366 . S
C5775 C5779 1.385 . S
C5776 H5757 0.951 . S
C5776 C5774 1.388 . S
C5776 C5777 1.366 . S
C5777 C5776 1.366 . S
C5777 C5778 1.414 . S
C5777 C5780 1.499 . S
C5778 H5758 0.950 . S
C5778 C5777 1.414 . S
C5778 C5779 1.374 . S
C5779 H5759 0.950 . S
C5779 C5775 1.385 . S
C5779 C5778 1.374 . S
C5780 C5777 1.499 . S
C5780 C5781 1.373 . S
C5780 C5782 1.389 . S
C5781 H5760 0.950 . S
C5781 C5780 1.373 . S
C5781 C5797 1.377 . S
C5782 C5780 1.389 . S
C5782 C5783 1.524 . S
C5782 C5796 1.377 . S
C5783 C5782 1.524 . S
C5783 C5784 1.397 . S
C5783 C5788 1.363 . S
C5784 H5761 0.950 . S
C5784 C5783 1.397 . S
C5784 C5785 1.334 . S
C5785 H5762 0.950 . S
C5785 C5784 1.334 . S
C5785 C5786 1.287 . S
C5786 C5785 1.287 . S
C5786 C5787 1.524 . S
C5786 H5805 0.913 . S
C5787 H5763 0.950 . S
C5787 C5786 1.524 . S
C5787 C5788 1.415 . S
C5788 H5764 0.950 . S
C5788 C5783 1.363 . S
C5788 C5787 1.415 . S
C5789 H5765 0.951 . S
C5789 C5790 1.366 . S
C5789 C5791 1.388 . S
C5790 C5789 1.366 . S
C5790 C5794 1.385 . S
C5791 H5766 0.951 . S
C5791 C5789 1.388 . S
C5791 C5792 1.366 . S
C5792 C5791 1.366 . S
C5792 C5793 1.414 . S
C5792 C5795 1.499 . S
C5793 H5767 0.950 . S
C5793 C5792 1.414 . S
C5793 C5794 1.374 . S
C5794 H5768 0.950 1_655 S
C5794 C5790 1.385 . S
C5794 C5793 1.374 . S
C5795 C5792 1.499 . S
C5795 C5796 1.373 . S
C5795 C5797 1.389 . S
C5796 H5769 0.950 . S
C5796 C5782 1.377 . S
C5796 C5795 1.373 . S
C5797 C5781 1.377 . S
C5797 C5795 1.389 . S
C5797 C5798 1.524 . S
C5798 C5797 1.524 . S
C5798 C5799 1.397 . S
C5798 C5803 1.363 . S
C5799 H5770 0.950 . S
C5799 C5798 1.397 . S
C5799 C5800 1.334 . S
C5800 H5771 0.950 . S
C5800 C5799 1.334 . S
C5800 C5801 1.287 . S
C5801 C5800 1.287 . S
C5801 C5802 1.524 . S
C5801 H5804 0.999 . S
C5802 H5772 0.950 . S
C5802 C5801 1.524 . S
C5802 C5803 1.415 . S
C5803 H5773 0.950 . S
C5803 C5798 1.363 . S
C5803 C5802 1.415 . S
H5804 C5801 0.999 . S
H5805 C5786 0.913 . S
H5806 C5824 0.951 . S
H5807 C5826 0.951 . S
H5808 C5828 0.950 . S
H5809 C5829 0.950 . S
H5810 C5831 0.950 . S
H5811 C5834 0.950 . S
H5812 C5835 0.950 . S
H5813 C5837 0.950 . S
H5814 C5838 0.950 . S
H5815 C5839 0.951 . S
H5816 C5841 0.951 . S
H5817 C5843 0.950 . S
H5818 C5844 0.950 . S
H5819 C5846 0.950 . S
H5820 C5849 0.950 . S
H5821 C5850 0.950 . S
H5822 C5852 0.950 . S
H5823 C5853 0.950 . S
C5824 H5806 0.951 . S
C5824 C5825 1.366 . S
C5824 C5826 1.388 . S
C5825 C5824 1.366 . S
C5825 C5829 1.385 . S
C5826 H5807 0.951 . S
C5826 C5824 1.388 . S
C5826 C5827 1.366 . S
C5827 C5826 1.366 . S
C5827 C5828 1.414 . S
C5827 C5830 1.499 . S
C5828 H5808 0.950 . S
C5828 C5827 1.414 . S
C5828 C5829 1.374 . S
C5829 H5809 0.950 . S
C5829 C5825 1.385 . S
C5829 C5828 1.374 . S
C5830 C5827 1.499 . S
C5830 C5831 1.373 . S
C5830 C5832 1.389 . S
C5831 H5810 0.950 . S
C5831 C5830 1.373 . S
C5831 C5847 1.377 . S
C5832 C5830 1.389 . S
C5832 C5833 1.524 . S
C5832 C5846 1.377 . S
C5833 C5832 1.524 . S
C5833 C5834 1.397 . S
C5833 C5838 1.363 . S
C5834 H5811 0.950 . S
C5834 C5833 1.397 . S
C5834 C5835 1.334 . S
C5835 H5812 0.950 . S
C5835 C5834 1.334 . S
C5835 C5836 1.287 . S
C5836 C5835 1.287 . S
C5836 C5837 1.524 . S
C5836 H5855 0.913 . S
C5837 H5813 0.950 . S
C5837 C5836 1.524 . S
C5837 C5838 1.415 . S
C5838 H5814 0.950 . S
C5838 C5833 1.363 . S
C5838 C5837 1.415 . S
C5839 H5815 0.951 . S
C5839 C5840 1.366 . S
C5839 C5841 1.388 . S
C5840 C5839 1.366 . S
C5840 C5844 1.385 . S
C5841 H5816 0.951 . S
C5841 C5839 1.388 . S
C5841 C5842 1.366 . S
C5842 C5841 1.366 . S
C5842 C5843 1.414 . S
C5842 C5845 1.499 . S
C5843 H5817 0.950 . S
C5843 C5842 1.414 . S
C5843 C5844 1.374 . S
C5844 H5818 0.950 . S
C5844 C5840 1.385 . S
C5844 C5843 1.374 . S
C5845 C5842 1.499 . S
C5845 C5846 1.373 . S
C5845 C5847 1.389 . S
C5846 H5819 0.950 . S
C5846 C5832 1.377 . S
C5846 C5845 1.373 . S
C5847 C5831 1.377 . S
C5847 C5845 1.389 . S
C5847 C5848 1.524 . S
C5848 C5847 1.524 . S
C5848 C5849 1.397 . S
C5848 C5853 1.363 . S
C5849 H5820 0.950 . S
C5849 C5848 1.397 . S
C5849 C5850 1.334 . S
C5850 H5821 0.950 . S
C5850 C5849 1.334 . S
C5850 C5851 1.287 . S
C5851 C5850 1.287 . S
C5851 C5852 1.524 . S
C5851 H5854 0.999 . S
C5852 H5822 0.950 . S
C5852 C5851 1.524 . S
C5852 C5853 1.415 . S
C5853 H5823 0.950 . S
C5853 C5848 1.363 . S
C5853 C5852 1.415 . S
H5854 C5851 0.999 . S
H5855 C5836 0.913 . S
H5856 C5874 0.951 . S
H5857 C5876 0.951 . S
H5858 C5878 0.950 . S
H5859 C5879 0.950 . S
H5860 C5881 0.950 . S
H5861 C5884 0.950 . S
H5862 C5885 0.950 . S
H5863 C5887 0.950 . S
H5864 C5888 0.950 . S
H5865 C5889 0.951 . S
H5866 C5891 0.951 . S
H5867 C5893 0.950 . S
H5868 C5894 0.950 . S
H5869 C5896 0.950 . S
H5870 C5899 0.950 . S
H5871 C5900 0.950 . S
H5872 C5902 0.950 . S
H5873 C5903 0.950 . S
C5874 H5856 0.951 . S
C5874 C5875 1.366 . S
C5874 C5876 1.388 . S
C5875 C5874 1.366 . S
C5875 C5879 1.385 . S
C5876 H5857 0.951 . S
C5876 C5874 1.388 . S
C5876 C5877 1.366 . S
C5877 C5876 1.366 . S
C5877 C5878 1.414 . S
C5877 C5880 1.499 . S
C5878 H5858 0.950 . S
C5878 C5877 1.414 . S
C5878 C5879 1.374 . S
C5879 H5859 0.950 . S
C5879 C5875 1.385 . S
C5879 C5878 1.374 . S
C5880 C5877 1.499 . S
C5880 C5881 1.373 . S
C5880 C5882 1.389 . S
C5881 H5860 0.950 . S
C5881 C5880 1.373 . S
C5881 C5897 1.377 . S
C5882 C5880 1.389 . S
C5882 C5883 1.524 . S
C5882 C5896 1.377 . S
C5883 C5882 1.524 . S
C5883 C5884 1.397 . S
C5883 C5888 1.363 . S
C5884 H5861 0.950 . S
C5884 C5883 1.397 . S
C5884 C5885 1.334 . S
C5885 H5862 0.950 . S
C5885 C5884 1.334 . S
C5885 C5886 1.287 . S
C5886 C5885 1.287 . S
C5886 C5887 1.524 . S
C5886 H5905 0.913 . S
C5887 H5863 0.950 . S
C5887 C5886 1.524 . S
C5887 C5888 1.415 . S
C5888 H5864 0.950 . S
C5888 C5883 1.363 . S
C5888 C5887 1.415 . S
C5889 H5865 0.951 . S
C5889 C5890 1.366 . S
C5889 C5891 1.388 . S
C5890 C5889 1.366 . S
C5890 C5894 1.385 . S
C5891 H5866 0.951 . S
C5891 C5889 1.388 . S
C5891 C5892 1.366 . S
C5892 C5891 1.366 . S
C5892 C5893 1.414 . S
C5892 C5895 1.499 . S
C5893 H5867 0.950 . S
C5893 C5892 1.414 . S
C5893 C5894 1.374 . S
C5894 H5868 0.950 . S
C5894 C5890 1.385 . S
C5894 C5893 1.374 . S
C5895 C5892 1.499 . S
C5895 C5896 1.373 . S
C5895 C5897 1.389 . S
C5896 H5869 0.950 . S
C5896 C5882 1.377 . S
C5896 C5895 1.373 . S
C5897 C5881 1.377 . S
C5897 C5895 1.389 . S
C5897 C5898 1.524 . S
C5898 C5897 1.524 . S
C5898 C5899 1.397 . S
C5898 C5903 1.363 . S
C5899 H5870 0.950 . S
C5899 C5898 1.397 . S
C5899 C5900 1.334 . S
C5900 H5871 0.950 . S
C5900 C5899 1.334 . S
C5900 C5901 1.287 . S
C5901 C5900 1.287 . S
C5901 C5902 1.524 . S
C5901 H5904 0.999 . S
C5902 H5872 0.950 . S
C5902 C5901 1.524 . S
C5902 C5903 1.415 . S
C5903 H5873 0.950 . S
C5903 C5898 1.363 . S
C5903 C5902 1.415 . S
H5904 C5901 0.999 . S
H5905 C5886 0.913 . S
H5906 C5924 0.951 . S
H5907 C5926 0.951 . S
H5908 C5928 0.950 . S
H5909 C5929 0.950 . S
H5910 C5931 0.950 . S
H5911 C5934 0.950 . S
H5912 C5935 0.950 . S
H5913 C5937 0.950 . S
H5914 C5938 0.950 . S
H5915 C5939 0.951 . S
H5916 C5941 0.951 . S
H5917 C5943 0.950 . S
H5918 C5944 0.950 . S
H5919 C5946 0.950 . S
H5920 C5949 0.950 . S
H5921 C5950 0.950 . S
H5922 C5952 0.950 . S
H5923 C5953 0.950 . S
C5924 H5906 0.951 . S
C5924 C5925 1.366 . S
C5924 C5926 1.388 . S
C5925 C5924 1.366 . S
C5925 C5929 1.385 . S
C5926 H5907 0.951 . S
C5926 C5924 1.388 . S
C5926 C5927 1.366 . S
C5927 C5926 1.366 . S
C5927 C5928 1.414 . S
C5927 C5930 1.499 . S
C5928 H5908 0.950 . S
C5928 C5927 1.414 . S
C5928 C5929 1.374 . S
C5929 H5909 0.950 . S
C5929 C5925 1.385 . S
C5929 C5928 1.374 . S
C5930 C5927 1.499 . S
C5930 C5931 1.373 . S
C5930 C5932 1.389 . S
C5931 H5910 0.950 . S
C5931 C5930 1.373 . S
C5931 C5947 1.377 . S
C5932 C5930 1.389 . S
C5932 C5933 1.524 . S
C5932 C5946 1.377 . S
C5933 C5932 1.524 . S
C5933 C5934 1.397 . S
C5933 C5938 1.363 . S
C5934 H5911 0.950 . S
C5934 C5933 1.397 . S
C5934 C5935 1.334 . S
C5935 H5912 0.950 . S
C5935 C5934 1.334 . S
C5935 C5936 1.287 . S
C5936 C5935 1.287 . S
C5936 C5937 1.524 . S
C5936 H5955 0.913 . S
C5937 H5913 0.950 . S
C5937 C5936 1.524 . S
C5937 C5938 1.415 . S
C5938 H5914 0.950 . S
C5938 C5933 1.363 . S
C5938 C5937 1.415 . S
C5939 H5915 0.951 . S
C5939 C5940 1.366 . S
C5939 C5941 1.388 . S
C5940 C5939 1.366 . S
C5940 C5944 1.385 . S
C5941 H5916 0.951 . S
C5941 C5939 1.388 . S
C5941 C5942 1.366 . S
C5942 C5941 1.366 . S
C5942 C5943 1.414 . S
C5942 C5945 1.499 . S
C5943 H5917 0.950 . S
C5943 C5942 1.414 . S
C5943 C5944 1.374 . S
C5944 H5918 0.950 . S
C5944 C5940 1.385 . S
C5944 C5943 1.374 . S
C5945 C5942 1.499 . S
C5945 C5946 1.373 . S
C5945 C5947 1.389 . S
C5946 H5919 0.950 . S
C5946 C5932 1.377 . S
C5946 C5945 1.373 . S
C5947 C5931 1.377 . S
C5947 C5945 1.389 . S
C5947 C5948 1.524 . S
C5948 C5947 1.524 . S
C5948 C5949 1.397 . S
C5948 C5953 1.363 . S
C5949 H5920 0.950 . S
C5949 C5948 1.397 . S
C5949 C5950 1.334 . S
C5950 H5921 0.950 . S
C5950 C5949 1.334 . S
C5950 C5951 1.287 . S
C5951 C5950 1.287 . S
C5951 C5952 1.524 . S
C5951 H5954 0.999 . S
C5952 H5922 0.950 . S
C5952 C5951 1.524 . S
C5952 C5953 1.415 . S
C5953 H5923 0.950 . S
C5953 C5948 1.363 . S
C5953 C5952 1.415 . S
H5954 C5951 0.999 . S
H5955 C5936 0.913 . S
H5956 C5974 0.951 . S
H5957 C5976 0.951 . S
H5958 C5978 0.950 . S
H5959 C5979 0.950 . S
H5960 C5981 0.950 . S
H5961 C5984 0.950 . S
H5962 C5985 0.950 . S
H5963 C5987 0.950 . S
H5964 C5988 0.950 . S
H5965 C5989 0.951 . S
H5966 C5991 0.951 . S
H5967 C5993 0.950 . S
H5968 C5994 0.950 . S
H5969 C5996 0.950 . S
H5970 C5999 0.950 . S
H5971 C6000 0.898 1_455 S
H5972 C6002 0.950 . S
H5973 C6003 0.950 . S
C5974 H5956 0.951 . S
C5974 C5975 1.366 . S
C5974 C5976 1.388 . S
C5975 C5974 1.366 . S
C5975 C5979 1.385 . S
C5976 H5957 0.951 . S
C5976 C5974 1.388 . S
C5976 C5977 1.366 . S
C5977 C5976 1.366 . S
C5977 C5978 1.414 . S
C5977 C5980 1.499 . S
C5978 H5958 0.950 . S
C5978 C5977 1.414 . S
C5978 C5979 1.374 . S
C5979 H5959 0.950 . S
C5979 C5975 1.385 . S
C5979 C5978 1.374 . S
C5980 C5977 1.499 . S
C5980 C5981 1.373 . S
C5980 C5982 1.389 . S
C5981 H5960 0.950 . S
C5981 C5980 1.373 . S
C5981 C5997 1.377 . S
C5982 C5980 1.389 . S
C5982 C5983 1.524 . S
C5982 C5996 1.377 . S
C5983 C5982 1.524 . S
C5983 C5984 1.397 . S
C5983 C5988 1.363 . S
C5984 H5961 0.950 . S
C5984 C5983 1.397 . S
C5984 C5985 1.334 . S
C5985 H5962 0.950 . S
C5985 C5984 1.334 . S
C5985 C5986 1.287 . S
C5986 C5985 1.287 . S
C5986 C5987 1.524 . S
C5986 H6005 0.913 . S
C5987 H5963 0.950 . S
C5987 C5986 1.524 . S
C5987 C5988 1.415 . S
C5988 H5964 0.950 . S
C5988 C5983 1.363 . S
C5988 C5987 1.415 . S
C5989 H5965 0.951 . S
C5989 C5990 1.366 . S
C5989 C5991 1.388 . S
C5990 C5989 1.366 . S
C5990 C5994 1.385 . S
C5991 H5966 0.951 . S
C5991 C5989 1.388 . S
C5991 C5992 1.366 . S
C5992 C5991 1.366 . S
C5992 C5993 1.414 . S
C5992 C5995 1.499 . S
C5993 H5967 0.950 . S
C5993 C5992 1.414 . S
C5993 C5994 1.374 . S
C5994 H5968 0.950 . S
C5994 C5990 1.385 . S
C5994 C5993 1.374 . S
C5995 C5992 1.499 . S
C5995 C5996 1.373 . S
C5995 C5997 1.389 . S
C5996 H5969 0.950 . S
C5996 C5982 1.377 . S
C5996 C5995 1.373 . S
C5997 C5981 1.377 . S
C5997 C5995 1.389 . S
C5997 C5998 1.524 . S
C5998 C5997 1.524 . S
C5998 C5999 1.397 . S
C5998 C6003 1.363 . S
C5999 H5970 0.950 . S
C5999 C5998 1.397 . S
C5999 C6000 1.334 . S
C6000 H5971 0.898 1_655 S
C6000 C5999 1.334 . S
C6000 C6001 1.287 . S
C6001 C6000 1.287 . S
C6001 C6002 1.524 . S
C6001 H6004 0.999 . S
C6002 H5972 0.950 . S
C6002 C6001 1.524 . S
C6002 C6003 1.415 . S
C6003 H5973 0.950 . S
C6003 C5998 1.363 . S
C6003 C6002 1.415 . S
H6004 C6001 0.999 . S
H6005 C5986 0.913 . S
H6006 C6024 0.951 . S
H6007 C6026 0.951 . S
H6008 C6028 0.950 . S
H6009 C6029 0.950 . S
H6010 C6031 0.950 . S
H6011 C6034 0.950 . S
H6012 C6035 0.950 . S
H6013 C6037 0.950 . S
H6014 C6038 0.950 . S
H6015 C6039 0.951 . S
H6016 C6041 0.951 . S
H6017 C6043 0.950 . S
H6018 C6044 0.950 . S
H6019 C6046 0.950 . S
H6020 C6049 0.950 . S
H6021 C6050 0.950 . S
H6022 C6052 0.950 . S
H6023 C6053 0.950 . S
C6024 H6006 0.951 . S
C6024 C6025 1.366 . S
C6024 C6026 1.388 . S
C6025 C6024 1.366 . S
C6025 C6029 1.385 . S
C6026 H6007 0.951 . S
C6026 C6024 1.388 . S
C6026 C6027 1.366 . S
C6027 C6026 1.366 . S
C6027 C6028 1.414 . S
C6027 C6030 1.499 . S
C6028 H6008 0.950 . S
C6028 C6027 1.414 . S
C6028 C6029 1.374 . S
C6029 H6009 0.950 . S
C6029 C6025 1.385 . S
C6029 C6028 1.374 . S
C6030 C6027 1.499 . S
C6030 C6031 1.373 . S
C6030 C6032 1.389 . S
C6031 H6010 0.950 . S
C6031 C6030 1.373 . S
C6031 C6047 1.377 . S
C6032 C6030 1.389 . S
C6032 C6033 1.524 . S
C6032 C6046 1.377 . S
C6033 C6032 1.524 . S
C6033 C6034 1.397 . S
C6033 C6038 1.363 . S
C6034 H6011 0.950 . S
C6034 C6033 1.397 . S
C6034 C6035 1.334 . S
C6035 H6012 0.950 . S
C6035 C6034 1.334 . S
C6035 C6036 1.287 . S
C6036 C6035 1.287 . S
C6036 C6037 1.524 . S
C6036 H6055 0.913 . S
C6037 H6013 0.950 . S
C6037 C6036 1.524 . S
C6037 C6038 1.415 . S
C6038 H6014 0.950 . S
C6038 C6033 1.363 . S
C6038 C6037 1.415 . S
C6039 H6015 0.951 . S
C6039 C6040 1.366 . S
C6039 C6041 1.388 . S
C6040 C6039 1.366 . S
C6040 C6044 1.385 . S
C6041 H6016 0.951 . S
C6041 C6039 1.388 . S
C6041 C6042 1.366 . S
C6042 C6041 1.366 . S
C6042 C6043 1.414 . S
C6042 C6045 1.499 . S
C6043 H6017 0.950 . S
C6043 C6042 1.414 . S
C6043 C6044 1.374 . S
C6044 H6018 0.950 . S
C6044 C6040 1.385 . S
C6044 C6043 1.374 . S
C6045 C6042 1.499 . S
C6045 C6046 1.373 . S
C6045 C6047 1.389 . S
C6046 H6019 0.950 . S
C6046 C6032 1.377 . S
C6046 C6045 1.373 . S
C6047 C6031 1.377 . S
C6047 C6045 1.389 . S
C6047 C6048 1.524 . S
C6048 C6047 1.524 . S
C6048 C6049 1.397 . S
C6048 C6053 1.363 . S
C6049 H6020 0.950 . S
C6049 C6048 1.397 . S
C6049 C6050 1.334 . S
C6050 H6021 0.950 . S
C6050 C6049 1.334 . S
C6050 C6051 1.287 . S
C6051 C6050 1.287 . S
C6051 C6052 1.524 . S
C6051 H6054 0.999 . S
C6052 H6022 0.950 . S
C6052 C6051 1.524 . S
C6052 C6053 1.415 . S
C6053 H6023 0.950 . S
C6053 C6048 1.363 . S
C6053 C6052 1.415 . S
H6054 C6051 0.999 . S
H6055 C6036 0.913 . S
H6056 C6074 0.951 . S
H6057 C6076 0.951 . S
H6058 C6078 0.950 . S
H6059 C6079 0.950 . S
H6060 C6081 0.950 . S
H6061 C6084 0.950 . S
H6062 C6085 0.950 . S
H6063 C6087 0.950 . S
H6064 C6088 0.950 . S
H6065 C6089 0.951 . S
H6066 C6091 0.951 . S
H6067 C6093 0.950 . S
H6068 C6094 0.950 . S
H6069 C6096 0.950 . S
H6070 C6099 0.950 . S
H6071 C6100 0.950 . S
H6072 C6102 0.950 . S
H6073 C6103 0.950 . S
C6074 H6056 0.951 . S
C6074 C6075 1.366 . S
C6074 C6076 1.388 . S
C6075 C6074 1.366 . S
C6075 C6079 1.385 . S
C6076 H6057 0.951 . S
C6076 C6074 1.388 . S
C6076 C6077 1.366 . S
C6077 C6076 1.366 . S
C6077 C6078 1.414 . S
C6077 C6080 1.499 . S
C6078 H6058 0.950 . S
C6078 C6077 1.414 . S
C6078 C6079 1.374 . S
C6079 H6059 0.950 . S
C6079 C6075 1.385 . S
C6079 C6078 1.374 . S
C6080 C6077 1.499 . S
C6080 C6081 1.373 . S
C6080 C6082 1.389 . S
C6081 H6060 0.950 . S
C6081 C6080 1.373 . S
C6081 C6097 1.377 . S
C6082 C6080 1.389 . S
C6082 C6083 1.524 . S
C6082 C6096 1.377 . S
C6083 C6082 1.524 . S
C6083 C6084 1.397 . S
C6083 C6088 1.363 . S
C6084 H6061 0.950 . S
C6084 C6083 1.397 . S
C6084 C6085 1.334 . S
C6085 H6062 0.950 . S
C6085 C6084 1.334 . S
C6085 C6086 1.287 . S
C6086 C6085 1.287 . S
C6086 C6087 1.524 . S
C6086 H6105 0.913 . S
C6087 H6063 0.950 . S
C6087 C6086 1.524 . S
C6087 C6088 1.415 . S
C6088 H6064 0.950 . S
C6088 C6083 1.363 . S
C6088 C6087 1.415 . S
C6089 H6065 0.951 . S
C6089 C6090 1.366 . S
C6089 C6091 1.388 . S
C6090 C6089 1.366 . S
C6090 C6094 1.385 . S
C6091 H6066 0.951 . S
C6091 C6089 1.388 . S
C6091 C6092 1.366 . S
C6092 C6091 1.366 . S
C6092 C6093 1.414 . S
C6092 C6095 1.499 . S
C6093 H6067 0.950 . S
C6093 C6092 1.414 . S
C6093 C6094 1.374 . S
C6094 H6068 0.950 . S
C6094 C6090 1.385 . S
C6094 C6093 1.374 . S
C6095 C6092 1.499 . S
C6095 C6096 1.373 . S
C6095 C6097 1.389 . S
C6096 H6069 0.950 . S
C6096 C6082 1.377 . S
C6096 C6095 1.373 . S
C6097 C6081 1.377 . S
C6097 C6095 1.389 . S
C6097 C6098 1.524 . S
C6098 C6097 1.524 . S
C6098 C6099 1.397 . S
C6098 C6103 1.363 . S
C6099 H6070 0.950 . S
C6099 C6098 1.397 . S
C6099 C6100 1.334 . S
C6100 H6071 0.950 . S
C6100 C6099 1.334 . S
C6100 C6101 1.287 . S
C6101 C6100 1.287 . S
C6101 C6102 1.524 . S
C6101 H6104 0.999 . S
C6102 H6072 0.950 . S
C6102 C6101 1.524 . S
C6102 C6103 1.415 . S
C6103 H6073 0.950 . S
C6103 C6098 1.363 . S
C6103 C6102 1.415 . S
H6104 C6101 0.999 . S
H6105 C6086 0.913 . S
H6106 C6124 0.951 . S
H6107 C6126 0.951 . S
H6108 C6128 0.950 . S
H6109 C6129 0.950 . S
H6110 C6131 0.950 . S
H6111 C6134 0.950 . S
H6112 C6135 0.950 . S
H6113 C6137 0.950 . S
H6114 C6138 0.950 . S
H6115 C6139 0.951 1_545 S
H6116 C6141 0.951 . S
H6117 C6143 0.950 . S
H6118 C6144 0.950 . S
H6119 C6146 0.950 . S
H6120 C6149 0.950 . S
H6121 C6150 0.950 . S
H6122 C6152 0.950 . S
H6123 C6153 0.950 . S
C6124 H6106 0.951 . S
C6124 C6125 1.366 . S
C6124 C6126 1.388 . S
C6125 C6124 1.366 . S
C6125 C6129 1.385 . S
C6126 H6107 0.951 . S
C6126 C6124 1.388 . S
C6126 C6127 1.366 . S
C6127 C6126 1.366 . S
C6127 C6128 1.414 . S
C6127 C6130 1.499 . S
C6128 H6108 0.950 . S
C6128 C6127 1.414 . S
C6128 C6129 1.374 . S
C6129 H6109 0.950 . S
C6129 C6125 1.385 . S
C6129 C6128 1.374 . S
C6130 C6127 1.499 . S
C6130 C6131 1.373 . S
C6130 C6132 1.389 . S
C6131 H6110 0.950 . S
C6131 C6130 1.373 . S
C6131 C6147 1.377 . S
C6132 C6130 1.389 . S
C6132 C6133 1.524 . S
C6132 C6146 1.377 . S
C6133 C6132 1.524 . S
C6133 C6134 1.397 . S
C6133 C6138 1.363 . S
C6134 H6111 0.950 . S
C6134 C6133 1.397 . S
C6134 C6135 1.334 . S
C6135 H6112 0.950 . S
C6135 C6134 1.334 . S
C6135 C6136 1.287 . S
C6136 C6135 1.287 . S
C6136 C6137 1.524 . S
C6136 H6155 0.913 . S
C6137 H6113 0.950 . S
C6137 C6136 1.524 . S
C6137 C6138 1.415 . S
C6138 H6114 0.950 . S
C6138 C6133 1.363 . S
C6138 C6137 1.415 . S
C6139 H6115 0.951 1_565 S
C6139 C6140 1.366 . S
C6139 C6141 1.388 . S
C6140 C6139 1.366 . S
C6140 C6144 1.385 . S
C6141 H6116 0.951 . S
C6141 C6139 1.388 . S
C6141 C6142 1.366 . S
C6142 C6141 1.366 . S
C6142 C6143 1.414 . S
C6142 C6145 1.499 . S
C6143 H6117 0.950 . S
C6143 C6142 1.414 . S
C6143 C6144 1.374 . S
C6144 H6118 0.950 . S
C6144 C6140 1.385 . S
C6144 C6143 1.374 . S
C6145 C6142 1.499 . S
C6145 C6146 1.373 . S
C6145 C6147 1.389 . S
C6146 H6119 0.950 . S
C6146 C6132 1.377 . S
C6146 C6145 1.373 . S
C6147 C6131 1.377 . S
C6147 C6145 1.389 . S
C6147 C6148 1.524 . S
C6148 C6147 1.524 . S
C6148 C6149 1.397 . S
C6148 C6153 1.363 . S
C6149 H6120 0.950 . S
C6149 C6148 1.397 . S
C6149 C6150 1.334 . S
C6150 H6121 0.950 . S
C6150 C6149 1.334 . S
C6150 C6151 1.287 . S
C6151 C6150 1.287 . S
C6151 C6152 1.524 . S
C6151 H6154 0.999 . S
C6152 H6122 0.950 . S
C6152 C6151 1.524 . S
C6152 C6153 1.415 . S
C6153 H6123 0.950 . S
C6153 C6148 1.363 . S
C6153 C6152 1.415 . S
H6154 C6151 0.999 . S
H6155 C6136 0.913 . S
H6156 C6174 0.951 . S
H6157 C6176 0.951 . S
H6158 C6178 0.950 . S
H6159 C6179 0.950 . S
H6160 C6181 0.950 . S
H6161 C6184 0.950 . S
H6162 C6185 0.950 . S
H6163 C6187 0.950 . S
H6164 C6188 0.950 . S
H6165 C6189 0.951 . S
H6166 C6191 0.951 . S
H6167 C6193 0.950 . S
H6168 C6194 0.950 . S
H6169 C6196 0.950 . S
H6170 C6199 0.950 . S
H6171 C6200 0.950 . S
H6172 C6202 0.950 . S
H6173 C6203 0.950 . S
C6174 H6156 0.951 . S
C6174 C6175 1.366 . S
C6174 C6176 1.388 . S
C6175 C6174 1.366 . S
C6175 C6179 1.385 . S
C6176 H6157 0.951 . S
C6176 C6174 1.388 . S
C6176 C6177 1.366 . S
C6177 C6176 1.366 . S
C6177 C6178 1.414 . S
C6177 C6180 1.499 . S
C6178 H6158 0.950 . S
C6178 C6177 1.414 . S
C6178 C6179 1.374 . S
C6179 H6159 0.950 . S
C6179 C6175 1.385 . S
C6179 C6178 1.374 . S
C6180 C6177 1.499 . S
C6180 C6181 1.373 . S
C6180 C6182 1.389 . S
C6181 H6160 0.950 . S
C6181 C6180 1.373 . S
C6181 C6197 1.377 . S
C6182 C6180 1.389 . S
C6182 C6183 1.524 . S
C6182 C6196 1.377 . S
C6183 C6182 1.524 . S
C6183 C6184 1.397 . S
C6183 C6188 1.363 . S
C6184 H6161 0.950 . S
C6184 C6183 1.397 . S
C6184 C6185 1.334 . S
C6185 H6162 0.950 . S
C6185 C6184 1.334 . S
C6185 C6186 1.287 . S
C6186 C6185 1.287 . S
C6186 C6187 1.524 . S
C6186 H6205 0.913 . S
C6187 H6163 0.950 . S
C6187 C6186 1.524 . S
C6187 C6188 1.415 . S
C6188 H6164 0.950 . S
C6188 C6183 1.363 . S
C6188 C6187 1.415 . S
C6189 H6165 0.951 . S
C6189 C6190 1.366 . S
C6189 C6191 1.388 . S
C6190 C6189 1.366 . S
C6190 C6194 1.385 . S
C6191 H6166 0.951 . S
C6191 C6189 1.388 . S
C6191 C6192 1.366 . S
C6192 C6191 1.366 . S
C6192 C6193 1.414 . S
C6192 C6195 1.499 . S
C6193 H6167 0.950 . S
C6193 C6192 1.414 . S
C6193 C6194 1.374 . S
C6194 H6168 0.950 . S
C6194 C6190 1.385 . S
C6194 C6193 1.374 . S
C6195 C6192 1.499 . S
C6195 C6196 1.373 . S
C6195 C6197 1.389 . S
C6196 H6169 0.950 . S
C6196 C6182 1.377 . S
C6196 C6195 1.373 . S
C6197 C6181 1.377 . S
C6197 C6195 1.389 . S
C6197 C6198 1.524 . S
C6198 C6197 1.524 . S
C6198 C6199 1.397 . S
C6198 C6203 1.363 . S
C6199 H6170 0.950 . S
C6199 C6198 1.397 . S
C6199 C6200 1.334 . S
C6200 H6171 0.950 . S
C6200 C6199 1.334 . S
C6200 C6201 1.287 . S
C6201 C6200 1.287 . S
C6201 C6202 1.524 . S
C6201 H6204 0.999 . S
C6202 H6172 0.950 . S
C6202 C6201 1.524 . S
C6202 C6203 1.415 . S
C6203 H6173 0.950 . S
C6203 C6198 1.363 . S
C6203 C6202 1.415 . S
H6204 C6201 0.999 . S
H6205 C6186 0.913 . S
H6206 C6224 0.951 . S
H6207 C6226 0.951 . S
H6208 C6228 0.950 . S
H6209 C6229 0.950 . S
H6210 C6231 0.950 1_556 S
H6211 C6234 0.950 . S
H6212 C6235 0.950 . S
H6213 C6237 0.950 . S
H6214 C6238 0.950 . S
H6215 C6239 0.951 1_556 S
H6216 C6241 0.951 1_556 S
H6217 C6243 0.950 . S
H6218 C6244 0.950 . S
H6219 C6246 0.950 . S
H6220 C6249 0.950 . S
H6221 C6250 0.950 . S
H6222 C6252 0.950 . S
H6223 C6253 0.950 . S
C6224 H6206 0.951 . S
C6224 C6225 1.366 . S
C6224 C6226 1.388 . S
C6225 C6224 1.366 . S
C6225 C6229 1.385 . S
C6226 H6207 0.951 . S
C6226 C6224 1.388 . S
C6226 C6227 1.366 . S
C6227 C6226 1.366 . S
C6227 C6228 1.414 . S
C6227 C6230 1.499 . S
C6228 H6208 0.950 . S
C6228 C6227 1.414 . S
C6228 C6229 1.374 . S
C6229 H6209 0.950 . S
C6229 C6225 1.385 . S
C6229 C6228 1.374 . S
C6230 C6227 1.499 . S
C6230 C6231 1.373 . S
C6230 C6232 1.389 . S
C6231 H6210 0.950 1_554 S
C6231 C6230 1.373 . S
C6231 C6247 1.377 . S
C6232 C6230 1.389 . S
C6232 C6233 1.524 . S
C6232 C6246 1.377 . S
C6233 C6232 1.524 . S
C6233 C6234 1.397 . S
C6233 C6238 1.363 . S
C6234 H6211 0.950 . S
C6234 C6233 1.397 . S
C6234 C6235 1.334 . S
C6235 H6212 0.950 . S
C6235 C6234 1.334 . S
C6235 C6236 1.287 . S
C6236 C6235 1.287 . S
C6236 C6237 1.524 . S
C6236 H6255 0.913 . S
C6237 H6213 0.950 . S
C6237 C6236 1.524 . S
C6237 C6238 1.415 . S
C6238 H6214 0.950 . S
C6238 C6233 1.363 . S
C6238 C6237 1.415 . S
C6239 H6215 0.951 1_554 S
C6239 C6240 1.366 . S
C6239 C6241 1.388 . S
C6240 C6239 1.366 . S
C6240 C6244 1.385 . S
C6241 H6216 0.951 1_554 S
C6241 C6239 1.388 . S
C6241 C6242 1.366 . S
C6242 C6241 1.366 . S
C6242 C6243 1.414 . S
C6242 C6245 1.499 . S
C6243 H6217 0.950 . S
C6243 C6242 1.414 . S
C6243 C6244 1.374 . S
C6244 H6218 0.950 . S
C6244 C6240 1.385 . S
C6244 C6243 1.374 . S
C6245 C6242 1.499 . S
C6245 C6246 1.373 . S
C6245 C6247 1.389 . S
C6246 H6219 0.950 . S
C6246 C6232 1.377 . S
C6246 C6245 1.373 . S
C6247 C6231 1.377 . S
C6247 C6245 1.389 . S
C6247 C6248 1.524 1_554 S
C6248 C6247 1.524 1_556 S
C6248 C6249 1.397 . S
C6248 C6253 1.363 . S
C6249 H6220 0.950 . S
C6249 C6248 1.397 . S
C6249 C6250 1.334 . S
C6250 H6221 0.950 . S
C6250 C6249 1.334 . S
C6250 C6251 1.287 . S
C6251 C6250 1.287 . S
C6251 C6252 1.524 . S
C6251 H6254 0.999 . S
C6252 H6222 0.950 . S
C6252 C6251 1.524 . S
C6252 C6253 1.415 . S
C6253 H6223 0.950 . S
C6253 C6248 1.363 . S
C6253 C6252 1.415 . S
H6254 C6251 0.999 . S
H6255 C6236 0.913 . S
H6256 C6274 0.951 . S
H6257 C6276 0.951 . S
H6258 C6278 0.950 . S
H6259 C6279 0.950 . S
H6260 C6281 0.950 . S
H6261 C6284 0.950 . S
H6262 C6285 0.950 . S
H6263 C6287 0.950 . S
H6264 C6288 0.950 . S
H6265 C6289 0.951 . S
H6266 C6291 0.951 . S
H6267 C6293 0.950 . S
H6268 C6294 0.950 . S
H6269 C6296 0.950 . S
H6270 C6299 0.950 . S
H6271 C6300 0.950 . S
H6272 C6302 0.950 . S
H6273 C6303 0.950 . S
C6274 H6256 0.951 . S
C6274 C6275 1.366 . S
C6274 C6276 1.388 . S
C6275 C6274 1.366 . S
C6275 C6279 1.385 . S
C6276 H6257 0.951 . S
C6276 C6274 1.388 . S
C6276 C6277 1.366 . S
C6277 C6276 1.366 . S
C6277 C6278 1.414 . S
C6277 C6280 1.499 . S
C6278 H6258 0.950 . S
C6278 C6277 1.414 . S
C6278 C6279 1.374 . S
C6279 H6259 0.950 . S
C6279 C6275 1.385 . S
C6279 C6278 1.374 . S
C6280 C6277 1.499 . S
C6280 C6281 1.373 . S
C6280 C6282 1.389 . S
C6281 H6260 0.950 . S
C6281 C6280 1.373 . S
C6281 C6297 1.377 . S
C6282 C6280 1.389 . S
C6282 C6283 1.524 . S
C6282 C6296 1.377 . S
C6283 C6282 1.524 . S
C6283 C6284 1.397 . S
C6283 C6288 1.363 . S
C6284 H6261 0.950 . S
C6284 C6283 1.397 . S
C6284 C6285 1.334 . S
C6285 H6262 0.950 . S
C6285 C6284 1.334 . S
C6285 C6286 1.287 . S
C6286 C6285 1.287 . S
C6286 C6287 1.524 . S
C6286 H6305 0.913 . S
C6287 H6263 0.950 . S
C6287 C6286 1.524 . S
C6287 C6288 1.415 . S
C6288 H6264 0.950 . S
C6288 C6283 1.363 . S
C6288 C6287 1.415 . S
C6289 H6265 0.951 . S
C6289 C6290 1.366 . S
C6289 C6291 1.388 . S
C6290 C6289 1.366 . S
C6290 C6294 1.385 . S
C6291 H6266 0.951 . S
C6291 C6289 1.388 . S
C6291 C6292 1.366 . S
C6292 C6291 1.366 . S
C6292 C6293 1.414 . S
C6292 C6295 1.499 . S
C6293 H6267 0.950 . S
C6293 C6292 1.414 . S
C6293 C6294 1.374 . S
C6294 H6268 0.950 . S
C6294 C6290 1.385 . S
C6294 C6293 1.374 . S
C6295 C6292 1.499 . S
C6295 C6296 1.373 . S
C6295 C6297 1.389 . S
C6296 H6269 0.950 . S
C6296 C6282 1.377 . S
C6296 C6295 1.373 . S
C6297 C6281 1.377 . S
C6297 C6295 1.389 . S
C6297 C6298 1.524 . S
C6298 C6297 1.524 . S
C6298 C6299 1.397 . S
C6298 C6303 1.363 . S
C6299 H6270 0.950 . S
C6299 C6298 1.397 . S
C6299 C6300 1.334 . S
C6300 H6271 0.950 . S
C6300 C6299 1.334 . S
C6300 C6301 1.287 . S
C6301 C6300 1.287 . S
C6301 C6302 1.524 . S
C6301 H6304 0.999 . S
C6302 H6272 0.950 . S
C6302 C6301 1.524 . S
C6302 C6303 1.415 . S
C6303 H6273 0.950 . S
C6303 C6298 1.363 . S
C6303 C6302 1.415 . S
H6304 C6301 0.999 . S
H6305 C6286 0.913 . S
H6306 C6324 0.951 . S
H6307 C6326 0.951 . S
H6308 C6328 0.950 . S
H6309 C6329 0.950 . S
H6310 C6331 0.950 . S
H6311 C6334 0.950 . S
H6312 C6335 0.952 . S
H6313 C6337 0.950 . S
H6314 C6338 0.950 . S
H6315 C6339 0.951 . S
H6316 C6341 0.951 . S
H6317 C6343 0.950 . S
H6318 C6344 0.950 . S
H6319 C6346 0.950 . S
H6320 C6349 0.950 . S
H6321 C6350 0.950 . S
H6322 C6352 0.950 . S
H6323 C6353 0.950 . S
C6324 H6306 0.951 . S
C6324 C6325 1.366 . S
C6324 C6326 1.388 . S
C6325 C6324 1.366 . S
C6325 C6329 1.385 . S
C6326 H6307 0.951 . S
C6326 C6324 1.388 . S
C6326 C6327 1.366 . S
C6327 C6326 1.366 . S
C6327 C6328 1.414 . S
C6327 C6330 1.499 . S
C6328 H6308 0.950 . S
C6328 C6327 1.414 . S
C6328 C6329 1.374 . S
C6329 H6309 0.950 . S
C6329 C6325 1.385 . S
C6329 C6328 1.374 . S
C6330 C6327 1.499 . S
C6330 C6331 1.373 . S
C6330 C6332 1.389 . S
C6331 H6310 0.950 . S
C6331 C6330 1.373 . S
C6331 C6347 1.377 . S
C6332 C6330 1.389 . S
C6332 C6333 1.524 . S
C6332 C6346 1.377 . S
C6333 C6332 1.524 . S
C6333 C6334 1.397 . S
C6333 C6338 1.363 . S
C6334 H6311 0.950 . S
C6334 C6333 1.397 . S
C6334 C6335 1.334 . S
C6335 H6312 0.952 . S
C6335 C6334 1.334 . S
C6335 C6336 1.287 . S
C6336 C6335 1.287 . S
C6336 C6337 1.524 . S
C6336 H6355 0.913 . S
C6337 H6313 0.950 . S
C6337 C6336 1.524 . S
C6337 C6338 1.415 . S
C6338 H6314 0.950 . S
C6338 C6333 1.363 . S
C6338 C6337 1.415 . S
C6339 H6315 0.951 . S
C6339 C6340 1.366 . S
C6339 C6341 1.388 . S
C6340 C6339 1.366 . S
C6340 C6344 1.385 . S
C6341 H6316 0.951 . S
C6341 C6339 1.388 . S
C6341 C6342 1.366 . S
C6342 C6341 1.366 . S
C6342 C6343 1.414 . S
C6342 C6345 1.499 . S
C6343 H6317 0.950 . S
C6343 C6342 1.414 . S
C6343 C6344 1.374 . S
C6344 H6318 0.950 . S
C6344 C6340 1.385 . S
C6344 C6343 1.374 . S
C6345 C6342 1.499 . S
C6345 C6346 1.373 . S
C6345 C6347 1.389 . S
C6346 H6319 0.950 . S
C6346 C6332 1.377 . S
C6346 C6345 1.373 . S
C6347 C6331 1.377 . S
C6347 C6345 1.389 . S
C6347 C6348 1.524 . S
C6348 C6347 1.524 . S
C6348 C6349 1.397 . S
C6348 C6353 1.363 . S
C6349 H6320 0.950 . S
C6349 C6348 1.397 . S
C6349 C6350 1.334 . S
C6350 H6321 0.950 . S
C6350 C6349 1.334 . S
C6350 C6351 1.287 . S
C6351 C6350 1.287 . S
C6351 C6352 1.524 . S
C6351 H6354 0.999 . S
C6352 H6322 0.950 . S
C6352 C6351 1.524 . S
C6352 C6353 1.415 . S
C6353 H6323 0.950 . S
C6353 C6348 1.363 . S
C6353 C6352 1.415 . S
H6354 C6351 0.999 . S
H6355 C6336 0.913 . S
H6356 C6374 0.951 . S
H6357 C6376 0.951 . S
H6358 C6378 0.950 . S
H6359 C6379 0.950 . S
H6360 C6381 0.950 . S
H6361 C6384 0.950 . S
H6362 C6385 0.950 . S
H6363 C6387 0.950 . S
H6364 C6388 0.950 . S
H6365 C6389 0.951 . S
H6366 C6391 0.951 . S
H6367 C6393 0.950 . S
H6368 C6394 0.950 . S
H6369 C6396 0.950 . S
H6370 C6399 0.950 . S
H6371 C6400 0.950 . S
H6372 C6402 0.950 . S
H6373 C6403 0.950 . S
C6374 H6356 0.951 . S
C6374 C6375 1.366 . S
C6374 C6376 1.388 . S
C6375 C6374 1.366 . S
C6375 C6379 1.385 . S
C6376 H6357 0.951 . S
C6376 C6374 1.388 . S
C6376 C6377 1.366 . S
C6377 C6376 1.366 . S
C6377 C6378 1.414 . S
C6377 C6380 1.499 . S
C6378 H6358 0.950 . S
C6378 C6377 1.414 . S
C6378 C6379 1.374 . S
C6379 H6359 0.950 . S
C6379 C6375 1.385 . S
C6379 C6378 1.374 . S
C6380 C6377 1.499 . S
C6380 C6381 1.373 . S
C6380 C6382 1.389 . S
C6381 H6360 0.950 . S
C6381 C6380 1.373 . S
C6381 C6397 1.377 . S
C6382 C6380 1.389 . S
C6382 C6383 1.524 . S
C6382 C6396 1.377 . S
C6383 C6382 1.524 . S
C6383 C6384 1.397 . S
C6383 C6388 1.363 . S
C6384 H6361 0.950 . S
C6384 C6383 1.397 . S
C6384 C6385 1.334 . S
C6385 H6362 0.950 . S
C6385 C6384 1.334 . S
C6385 C6386 1.287 . S
C6386 C6385 1.287 . S
C6386 C6387 1.524 . S
C6386 H6405 0.913 . S
C6387 H6363 0.950 . S
C6387 C6386 1.524 . S
C6387 C6388 1.415 . S
C6388 H6364 0.950 . S
C6388 C6383 1.363 . S
C6388 C6387 1.415 . S
C6389 H6365 0.951 . S
C6389 C6390 1.366 . S
C6389 C6391 1.388 . S
C6390 C6389 1.366 . S
C6390 C6394 1.385 . S
C6391 H6366 0.951 . S
C6391 C6389 1.388 . S
C6391 C6392 1.366 . S
C6392 C6391 1.366 . S
C6392 C6393 1.414 . S
C6392 C6395 1.499 . S
C6393 H6367 0.950 . S
C6393 C6392 1.414 . S
C6393 C6394 1.374 . S
C6394 H6368 0.950 . S
C6394 C6390 1.385 . S
C6394 C6393 1.374 . S
C6395 C6392 1.499 . S
C6395 C6396 1.373 . S
C6395 C6397 1.389 . S
C6396 H6369 0.950 . S
C6396 C6382 1.377 . S
C6396 C6395 1.373 . S
C6397 C6381 1.377 . S
C6397 C6395 1.389 . S
C6397 C6398 1.524 . S
C6398 C6397 1.524 . S
C6398 C6399 1.397 . S
C6398 C6403 1.363 . S
C6399 H6370 0.950 . S
C6399 C6398 1.397 . S
C6399 C6400 1.334 . S
C6400 H6371 0.950 . S
C6400 C6399 1.334 . S
C6400 C6401 1.287 . S
C6401 C6400 1.287 . S
C6401 C6402 1.524 . S
C6401 H6404 0.999 . S
C6402 H6372 0.950 . S
C6402 C6401 1.524 . S
C6402 C6403 1.415 . S
C6403 H6373 0.950 . S
C6403 C6398 1.363 . S
C6403 C6402 1.415 . S
H6404 C6401 0.999 . S
H6405 C6386 0.913 . S
H6406 C6424 0.951 . S
H6407 C6426 0.951 . S
H6408 C6428 0.950 . S
H6409 C6429 0.950 . S
H6410 C6431 0.950 . S
H6411 C6434 0.950 . S
H6412 C6435 0.950 . S
H6413 C6437 0.950 . S
H6414 C6438 0.950 . S
H6415 C6439 0.951 . S
H6416 C6441 0.951 . S
H6417 C6443 0.950 . S
H6418 C6444 0.950 . S
H6419 C6446 0.950 . S
H6420 C6449 0.950 . S
H6421 C6450 0.950 . S
H6422 C6452 0.950 . S
H6423 C6453 0.950 . S
C6424 H6406 0.951 . S
C6424 C6425 1.366 . S
C6424 C6426 1.388 . S
C6425 C6424 1.366 . S
C6425 C6429 1.385 . S
C6426 H6407 0.951 . S
C6426 C6424 1.388 . S
C6426 C6427 1.366 . S
C6427 C6426 1.366 . S
C6427 C6428 1.414 . S
C6427 C6430 1.499 . S
C6428 H6408 0.950 . S
C6428 C6427 1.414 . S
C6428 C6429 1.374 . S
C6429 H6409 0.950 . S
C6429 C6425 1.385 . S
C6429 C6428 1.374 . S
C6430 C6427 1.499 . S
C6430 C6431 1.373 . S
C6430 C6432 1.389 . S
C6431 H6410 0.950 . S
C6431 C6430 1.373 . S
C6431 C6447 1.377 . S
C6432 C6430 1.389 . S
C6432 C6433 1.524 . S
C6432 C6446 1.377 . S
C6433 C6432 1.524 . S
C6433 C6434 1.397 . S
C6433 C6438 1.363 . S
C6434 H6411 0.950 . S
C6434 C6433 1.397 . S
C6434 C6435 1.334 . S
C6435 H6412 0.950 . S
C6435 C6434 1.334 . S
C6435 C6436 1.287 . S
C6436 C6435 1.287 . S
C6436 C6437 1.524 . S
C6436 H6455 0.913 . S
C6437 H6413 0.950 . S
C6437 C6436 1.524 . S
C6437 C6438 1.415 . S
C6438 H6414 0.950 . S
C6438 C6433 1.363 . S
C6438 C6437 1.415 . S
C6439 H6415 0.951 . S
C6439 C6440 1.366 . S
C6439 C6441 1.388 . S
C6440 C6439 1.366 . S
C6440 C6444 1.385 . S
C6441 H6416 0.951 . S
C6441 C6439 1.388 . S
C6441 C6442 1.366 . S
C6442 C6441 1.366 . S
C6442 C6443 1.414 . S
C6442 C6445 1.499 . S
C6443 H6417 0.950 . S
C6443 C6442 1.414 . S
C6443 C6444 1.374 . S
C6444 H6418 0.950 . S
C6444 C6440 1.385 . S
C6444 C6443 1.374 . S
C6445 C6442 1.499 . S
C6445 C6446 1.373 . S
C6445 C6447 1.389 . S
C6446 H6419 0.950 . S
C6446 C6432 1.377 . S
C6446 C6445 1.373 . S
C6447 C6431 1.377 . S
C6447 C6445 1.389 . S
C6447 C6448 1.524 . S
C6448 C6447 1.524 . S
C6448 C6449 1.397 . S
C6448 C6453 1.363 . S
C6449 H6420 0.950 . S
C6449 C6448 1.397 . S
C6449 C6450 1.334 . S
C6450 H6421 0.950 . S
C6450 C6449 1.334 . S
C6450 C6451 1.287 . S
C6451 C6450 1.287 . S
C6451 C6452 1.524 . S
C6451 H6454 0.999 . S
C6452 H6422 0.950 . S
C6452 C6451 1.524 . S
C6452 C6453 1.415 . S
C6453 H6423 0.950 . S
C6453 C6448 1.363 . S
C6453 C6452 1.415 . S
H6454 C6451 0.999 . S
H6455 C6436 0.913 . S
C1675 C101 1.862 . S
C1690 C379 1.856 . S
C1725 C57 1.712 . S
C1740 C452 1.719 . S
C1775 C70 1.590 . S
C1790 C547 1.586 . S
C1840 C622 1.442 . S
C1825 C82 1.539 . S
C1875 C23 1.539 . S
C1890 C706 1.441 . S
C1940 C799 1.587 . S
C1925 C29 1.591 . S
C1990 C872 1.710 . S
C1975 C49 1.703 . S
C2025 C10 1.861 . S
C2040 C967 1.857 . S
C2090 C368 1.432 . S
C2075 C218 1.463 . S
C2125 C226 0.829 . S
C2140 C454 0.815 . S
C2190 C536 1.035 . S
C2175 C251 1.035 . S
C2240 C631 1.475 . S
C2225 C159 1.479 1_556 S
C2275 C211 1.479 . S
C2290 C715 1.475 . S
C2340 C788 1.035 . S
C2325 C225 1.037 . S
C2390 C874 0.813 . S
C2375 C252 0.827 . S
C2440 C956 1.432 . S
C2425 C166 1.463 . S
C2490 C370 0.888 . S
C2475 C147 0.907 . S
C2525 C263 1.580 . S
C2540 C1040 1.572 . S
C2590 C1126 1.307 . S
C2575 C309 1.370 . S
C2640 C1219 0.645 . S
C2625 C291 0.643 . S
C2675 C108 0.910 . S
C2690 C958 0.887 . S
C2725 C121 1.374 . S
C2740 C538 1.308 . S
C2775 C302 1.583 . S
C2790 C1292 1.575 . S
C2840 C1387 0.645 . S
C2825 C276 0.643 . S
C2890 C367 2.187 1_565 S
C2875 C55 2.173 . S
C2940 C1388 2.086 . S
C2925 C96 2.107 . S
C2975 C88 2.013 . S
C2990 C535 2.018 . S
C3025 C75 1.801 . S
C3040 C1306 1.658 . S
C3090 C718 1.659 . S
C3075 C4 1.800 . S
C3125 C44 2.022 . S
C3140 C1123 2.029 . S
C3190 C884 2.085 1_565 S
C3175 C31 2.100 . S
C3240 C1459 2.187 . S
C3225 C18 2.173 . S
C3290 C380 1.803 1_556 S
C3275 C133 1.843 . S
C3340 C1390 1.042 . S
C3325 C296 1.123 . S
C3375 C107 1.358 . S
C3390 C548 1.341 . S
C3425 C264 1.866 . S
C3440 C1291 1.866 . S
C3475 C140 1.866 . S
C3490 C703 1.865 . S
C3540 C1136 1.343 . S
C3525 C289 1.360 . S
C3575 C114 1.125 . S
C3590 C886 1.045 . S
C3625 C265 1.845 . S
C3640 C1472 1.805 . S
C3675 C179 1.065 . S
C3690 C382 1.006 . S
C3725 C161 1.908 . S
C3740 C1052 1.880 . S
C3775 C244 1.554 . S
C3790 C802 1.445 . S
C3825 C224 1.068 . S
C3840 C1207 1.069 . S
C3890 C1474 1.005 . S
C3875 C257 1.064 1_565 S
C3925 C199 1.553 . S
C3940 C550 1.442 . S
C3990 C632 1.879 . S
C3975 C237 1.906 . S
C4040 C451 1.067 . S
C4025 C185 1.067 . S
C4075 C69 1.862 . S
C4090 C1555 1.858 . S
C4140 C1376 1.720 . S
C4125 C83 1.711 . S
C4175 C94 1.586 . S
C4190 C1639 1.588 . S
C4225 C56 1.489 1_655 S
C4240 C1294 1.442 . S
C4275 C42 1.550 . S
C4290 C1042 1.449 . S
C4340 C1135 1.587 . S
C4325 C3 1.591 1_655 S
C4390 C1208 1.720 . S
C4375 C16 1.711 . S
C4440 C1471 1.858 . S
C4425 C36 1.862 . S
C4490 C1544 1.431 . S
C4475 C238 1.463 . S
C4525 C174 0.881 . S
C4540 C1378 0.811 . S
C4590 C1628 1.036 . S
C4575 C186 1.036 . S
C4640 C1303 1.474 . S
C4625 C198 1.478 . S
C4690 C1051 1.476 . S
C4675 C239 1.480 . S
C4725 C173 1.035 . S
C4740 C1124 1.035 . S
C4790 C1210 0.814 . S
C4775 C187 0.828 . S
C4825 C205 1.463 . S
C4840 C1460 1.431 . S
C4890 C1546 0.886 . S
C4875 C290 0.906 . S
C4925 C122 1.582 . S
C4940 C704 1.574 . S
C4990 C790 1.310 . S
C4975 C134 1.374 1_565 S
C5040 C883 0.645 . S
C5025 C148 0.645 . S
C5090 C1462 0.886 . S
C5075 C283 0.905 . S
C5125 C270 1.372 . S
C5140 C1630 1.308 . S
C5190 C620 1.574 . S
C5175 C135 1.581 . S
C5240 C463 0.643 . S
C5225 C109 0.643 . S
C5275 C81 2.173 . S
C5290 C1543 2.187 . S
C5340 C464 2.085 . S
C5325 C68 2.100 . S
C5375 C62 2.014 . S
C5390 C1627 2.018 . S
C5425 C95 1.800 . S
C5440 C634 1.652 . S
C5475 C30 1.800 . S
C5490 C1054 1.657 . S
C5540 C787 2.018 . S
C5525 C17 2.013 . S
C5575 C5 2.100 . S
C5590 C1220 2.085 . S
C5625 C43 2.168 . S
C5640 C955 2.177 . S
C5690 C1556 1.803 . S
C5675 C304 1.843 . S
C5725 C153 1.122 . S
C5740 C466 1.037 . S
C5790 C1640 1.310 1_556 S
C5775 C278 1.359 . S
C5825 C127 1.865 . S
C5840 C619 1.865 . S
C5875 C303 1.861 . S
C5890 C1039 1.861 . S
C5940 C800 1.341 . S
C5925 C146 1.364 . S
C5975 C277 1.123 . S
C5990 C1222 1.043 . S
C6040 C968 1.802 . S
C6025 C120 1.842 . S
C6090 C1558 1.006 . S
C6075 C231 1.065 . S
C6140 C716 1.889 1_565 S
C6125 C200 1.907 . S
C6175 C212 1.556 . S
C6190 C1138 1.446 . S
C6240 C871 1.068 . S
C6225 C172 1.067 . S
C6275 C192 1.062 . S
C6290 C970 1.004 . S
C6325 C160 1.553 . S
C6340 C1642 1.443 . S
C6390 C1304 1.880 . S
C6375 C213 1.908 . S
C6440 C1375 1.069 . S
C6425 C250 1.069 . S
