# Generated by pormake.
# Topology zzz, (3,6)-cn, num edge types: 1
# Building blocks:
#     Node 0, Type 0, BuildingBlock: WUSLED_clean_sbu_0, # of connection points: 3
#     Node 1, Type 0, BuildingBlock: WUSLED_clean_sbu_0, # of connection points: 3
#     Node 2, Type 0, BuildingBlock: WUSLED_clean_sbu_0, # of connection points: 3
#     Node 3, Type 0, BuildingBlock: WUSLED_clean_sbu_0, # of connection points: 3
#     Node 4, Type 0, BuildingBlock: WUSLED_clean_sbu_0, # of connection points: 3
#     Node 5, Type 0, BuildingBlock: WUSLED_clean_sbu_0, # of connection points: 3
#     Node 6, Type 0, BuildingBlock: WUSLED_clean_sbu_0, # of connection points: 3
#     Node 7, Type 0, BuildingBlock: WUSLED_clean_sbu_0, # of connection points: 3
#     Node 8, Type 1, BuildingBlock: VOLQOD_clean_sbu_1, # of connection points: 6
#     Node 9, Type 1, BuildingBlock: VOLQOD_clean_sbu_1, # of connection points: 6
#     Node 10, Type 1, BuildingBlock: VOLQOD_clean_sbu_1, # of connection points: 6
#     Node 11, Type 1, BuildingBlock: VOLQOD_clean_sbu_1, # of connection points: 6
#     Edge 12, Type (0, 1), BuildingBlock: MIFKUJ_clean_linker_0, # of connection points: 2
#     Edge 13, Type (0, 1), BuildingBlock: MIFKUJ_clean_linker_0, # of connection points: 2
#     Edge 14, Type (0, 1), BuildingBlock: MIFKUJ_clean_linker_0, # of connection points: 2
#     Edge 15, Type (0, 1), BuildingBlock: MIFKUJ_clean_linker_0, # of connection points: 2
#     Edge 16, Type (0, 1), BuildingBlock: MIFKUJ_clean_linker_0, # of connection points: 2
#     Edge 17, Type (0, 1), BuildingBlock: MIFKUJ_clean_linker_0, # of connection points: 2
#     Edge 18, Type (0, 1), BuildingBlock: MIFKUJ_clean_linker_0, # of connection points: 2
#     Edge 19, Type (0, 1), BuildingBlock: MIFKUJ_clean_linker_0, # of connection points: 2
#     Edge 20, Type (0, 1), BuildingBlock: MIFKUJ_clean_linker_0, # of connection points: 2
#     Edge 21, Type (0, 1), BuildingBlock: MIFKUJ_clean_linker_0, # of connection points: 2
#     Edge 22, Type (0, 1), BuildingBlock: MIFKUJ_clean_linker_0, # of connection points: 2
#     Edge 23, Type (0, 1), BuildingBlock: MIFKUJ_clean_linker_0, # of connection points: 2
#     Edge 24, Type (0, 1), BuildingBlock: MIFKUJ_clean_linker_0, # of connection points: 2
#     Edge 25, Type (0, 1), BuildingBlock: MIFKUJ_clean_linker_0, # of connection points: 2
#     Edge 26, Type (0, 1), BuildingBlock: MIFKUJ_clean_linker_0, # of connection points: 2
#     Edge 27, Type (0, 1), BuildingBlock: MIFKUJ_clean_linker_0, # of connection points: 2
#     Edge 28, Type (0, 1), BuildingBlock: MIFKUJ_clean_linker_0, # of connection points: 2
#     Edge 29, Type (0, 1), BuildingBlock: MIFKUJ_clean_linker_0, # of connection points: 2
#     Edge 30, Type (0, 1), BuildingBlock: MIFKUJ_clean_linker_0, # of connection points: 2
#     Edge 31, Type (0, 1), BuildingBlock: MIFKUJ_clean_linker_0, # of connection points: 2
#     Edge 32, Type (0, 1), BuildingBlock: MIFKUJ_clean_linker_0, # of connection points: 2
#     Edge 33, Type (0, 1), BuildingBlock: MIFKUJ_clean_linker_0, # of connection points: 2
#     Edge 34, Type (0, 1), BuildingBlock: MIFKUJ_clean_linker_0, # of connection points: 2
#     Edge 35, Type (0, 1), BuildingBlock: MIFKUJ_clean_linker_0, # of connection points: 2
# Relax obj value: 0.345
# Max RMSD: 0.256
# Mean RMSD: 0.201
data_MOF--net-zzz--node1-WUSLED_clean_sbu_0--node2-VOLQOD_clean_sbu_1--edge1-MIFKUJ_clean_linker_0
_symmetry_space_group_name_H-M    P1
_symmetry_Int_Tables_number       1
_symmetry_cell_setting            triclinic
loop_
_symmetry_equiv_pos_as_xyz
'x, y, z'
_cell_length_a     76.520695
_cell_length_b     75.03446
_cell_length_c     29.8199
_cell_angle_alpha  90.274584
_cell_angle_beta   90.278887
_cell_angle_gamma 92.093
loop_
_atom_site_label
_atom_site_type_symbol
_atom_site_fract_x
_atom_site_fract_y
_atom_site_fract_z
_atom_type_partial_charge
C0 C 0.79682 0.47669 0.23492 0.0
C1 C 0.81366 0.47773 0.21645 0.0
C2 C 0.82634 0.48144 0.29108 0.0
C3 C 0.82831 0.4801 0.24432 0.0
C4 C 0.80941 0.48024 0.30933 0.0
C5 C 0.79477 0.47791 0.28142 0.0
U6 U 0.77726 0.47453 0.11842 0.0
O7 O 0.75446 0.45883 0.09233 0.0
O8 O 0.75457 0.48824 0.09178 0.0
C9 C 0.74595 0.4732 0.08222 0.0
C10 C 0.78136 0.47511 0.20574 0.0
C11 C 0.73447 0.47257 0.04236 0.0
C12 C 0.70621 0.46253 0.01248 0.0
C13 C 0.71956 0.46119 0.04407 0.0
C14 C 0.72295 0.4859 0.97453 0.0
C15 C 0.70749 0.47526 0.97823 0.0
C16 C 0.73634 0.48467 0.00666 0.0
C17 C 0.81163 0.47799 0.0232 0.0
C18 C 0.80969 0.47094 0.94367 0.0
C19 C 0.83268 0.49118 0.97177 0.0
C20 C 0.8264 0.48901 0.0151 0.0
C21 C 0.82436 0.48227 0.93561 0.0
C22 C 0.80323 0.46891 0.98733 0.0
C23 C 0.80563 0.47643 0.06962 0.0
O24 O 0.77841 0.4894 0.18203 0.0
O25 O 0.77973 0.46025 0.18231 0.0
O26 O 0.79806 0.4612 0.08185 0.0
O27 O 0.79808 0.49051 0.08578 0.0
H28 H 0.81543 0.47685 0.18049 0.0
H29 H 0.84118 0.48078 0.22931 0.0
H30 H 0.80745 0.48146 0.34514 0.0
H31 H 0.78184 0.47728 0.29609 0.0
H32 H 0.69457 0.45398 0.01575 0.0
H33 H 0.71779 0.45184 0.07142 0.0
H34 H 0.72427 0.49581 0.94835 0.0
H35 H 0.74771 0.49366 0.00472 0.0
H36 H 0.80326 0.46373 0.91631 0.0
H37 H 0.84436 0.49952 0.9667 0.0
H38 H 0.83316 0.49592 0.04248 0.0
H39 H 0.79183 0.46027 0.99307 0.0
C40 C -0.0015 0.78169 0.28198 0.0
C41 C -0.00119 0.79934 0.26636 0.0
C42 C -0.00196 0.81043 0.34284 0.0
C43 C -0.00142 0.81361 0.29658 0.0
C44 C -0.00226 0.79281 0.35858 0.0
C45 C -0.0021 0.77849 0.32824 0.0
U46 U 0.99306 0.76718 0.16283 0.0
O47 O 0.00763 0.74934 0.11858 0.0
O48 O 0.9793 0.74378 0.13204 0.0
C49 C 0.99356 0.73911 0.11128 0.0
C50 C -0.00169 0.76681 0.24965 0.0
C51 C 0.99383 0.72326 0.08225 0.0
C52 C 0.98886 0.69137 0.07158 0.0
C53 C 0.98903 0.70644 0.09939 0.0
C54 C -0.00211 0.70989 0.00886 0.0
C55 C 0.99317 0.69295 0.02593 0.0
C56 C -0.00164 0.72491 0.03692 0.0
C57 C 0.98403 0.80533 0.08216 0.0
C58 C 0.98677 0.80319 0.00131 0.0
C59 C 0.97982 0.8313 0.03628 0.0
C60 C 0.97999 0.82326 0.07824 0.0
C61 C 0.98374 0.82151 0.99743 0.0
C62 C 0.98693 0.79514 0.04351 0.0
C63 C 0.98683 0.79812 0.12694 0.0
O64 O 0.98298 0.76306 0.23116 0.0
O65 O 0.01113 0.76743 0.22044 0.0
O66 O 0.00266 0.79257 0.13447 0.0
O67 O 0.97441 0.7873 0.14235 0.0
H68 H -0.00082 0.80207 0.23072 0.0
H69 H -0.00111 0.82712 0.28391 0.0
H70 H -0.00271 0.79017 0.39425 0.0
H71 H -0.00249 0.76497 0.34084 0.0
H72 H 0.98507 0.67852 0.08559 0.0
H73 H 0.98546 0.70496 0.13432 0.0
H74 H 0.00141 0.71149 0.97393 0.0
H75 H 0.00199 0.73784 0.02309 0.0
H76 H 0.98978 0.79531 0.97201 0.0
H77 H 0.97784 0.8455 0.03481 0.0
H78 H 0.97783 0.83129 0.10787 0.0
H79 H 0.99007 0.78122 0.04619 0.0
C80 C 0.73898 0.0068 0.2455 0.0
C81 C 0.72255 0.0131 0.23346 0.0
C82 C 0.71016 0.00253 0.30377 0.0
C83 C 0.70835 0.01107 0.26228 0.0
C84 C 0.72674 0.99658 0.31633 0.0
C85 C 0.74103 0.99864 0.28728 0.0
U86 U 0.74766 0.00579 0.12534 0.0
O87 O 0.76561 0.01974 0.07864 0.0
O88 O 0.76415 0.99033 0.08067 0.0
C89 C 0.77095 0.0047 0.06153 0.0
C90 C 0.75294 0.00676 0.21165 0.0
C91 C 0.78904 0.00403 0.04633 0.0
C92 C 0.82046 0.00472 0.05827 0.0
C93 C 0.80348 0.0061 0.07527 0.0
C94 C 0.80843 0.99938 0.98382 0.0
C95 C 0.82303 0.00109 0.01241 0.0
C96 C 0.79164 0.00083 0.00065 0.0
C97 C 0.70802 0.00289 0.05229 0.0
C98 C 0.71185 0.00484 0.9717 0.0
C99 C 0.68376 0.99549 0.0028 0.0
C100 C 0.6906 0.99721 0.04602 0.0
C101 C 0.69427 0.99946 0.96528 0.0
C102 C 0.71873 0.00642 0.01501 0.0
C103 C 0.71523 0.0044 0.0976 0.0
O104 O 0.75337 0.99187 0.18828 0.0
O105 O 0.75415 0.02117 0.18659 0.0
O106 O 0.72383 0.0195 0.10657 0.0
O107 O 0.7234 0.99027 0.11084 0.0
H108 H 0.72053 0.0192 0.20108 0.0
H109 H 0.69588 0.01609 0.25183 0.0
H110 H 0.72853 0.98982 0.34793 0.0
H111 H 0.75351 0.99339 0.29682 0.0
H112 H 0.83152 0.00613 0.08099 0.0
H113 H 0.80162 0.00861 0.11069 0.0
H114 H 0.80999 0.99701 0.94822 0.0
H115 H 0.7806 0.99932 0.97786 0.0
H116 H 0.72015 0.00809 0.94333 0.0
H117 H 0.67002 0.99176 0.99884 0.0
H118 H 0.68225 0.99432 0.07452 0.0
H119 H 0.73234 0.01059 0.01948 0.0
C120 C 0.55296 0.71071 0.22151 0.0
C121 C 0.55412 0.69279 0.20848 0.0
C122 C 0.55206 0.68329 0.28631 0.0
C123 C 0.55361 0.67924 0.24043 0.0
C124 C 0.55095 0.70132 0.29929 0.0
C125 C 0.55139 0.71491 0.26711 0.0
U126 U 0.55999 0.7213 0.10149 0.0
O127 O 0.54462 0.73564 0.05126 0.0
O128 O 0.57232 0.7434 0.06376 0.0
C129 C 0.55803 0.74617 0.04046 0.0
C130 C 0.55326 0.7247 0.18697 0.0
C131 C 0.55468 0.76453 0.02667 0.0
C132 C 0.55936 0.79667 0.03365 0.0
C133 C 0.5602 0.77953 0.05207 0.0
C134 C 0.54707 0.78386 0.96518 0.0
C135 C 0.55327 0.79889 0.98947 0.0
C136 C 0.54775 0.76689 0.98364 0.0
C137 C 0.57097 0.68274 0.02692 0.0
C138 C 0.56311 0.68308 0.94808 0.0
C139 C 0.5765 0.65718 0.97994 0.0
C140 C 0.57773 0.66578 0.02153 0.0
C141 C 0.56844 0.66549 0.94365 0.0
C142 C 0.56447 0.69173 0.98952 0.0
C143 C 0.5683 0.68983 0.07209 0.0
O144 O 0.56876 0.72859 0.1699 0.0
O145 O 0.54096 0.72263 0.15626 0.0
O146 O 0.55214 0.69423 0.08002 0.0
O147 O 0.58003 0.70178 0.08641 0.0
H148 H 0.55529 0.68925 0.1734 0.0
H149 H 0.55419 0.66555 0.22902 0.0
H150 H 0.54993 0.70494 0.33434 0.0
H151 H 0.55052 0.72867 0.2778 0.0
H152 H 0.56418 0.80806 0.0531 0.0
H153 H 0.56569 0.77797 0.0853 0.0
H154 H 0.54201 0.7852 0.93141 0.0
H155 H 0.54353 0.75547 0.96341 0.0
H156 H 0.55648 0.68949 0.92065 0.0
H157 H 0.58032 0.64346 0.97721 0.0
H158 H 0.58276 0.65869 0.05012 0.0
H159 H 0.55919 0.70486 0.9932 0.0
C160 C 0.23021 0.51795 0.08516 0.0
C161 C 0.21405 0.51087 0.10028 0.0
C162 C 0.20027 0.51801 0.02949 0.0
C163 C 0.1993 0.51087 0.07283 0.0
C164 C 0.21655 0.52469 0.01372 0.0
C165 C 0.23142 0.52477 0.04155 0.0
U166 U 0.24008 0.52216 0.20376 0.0
O167 O 0.25755 0.50998 0.25223 0.0
O168 O 0.25727 0.53934 0.24674 0.0
C169 C 0.26359 0.52552 0.26743 0.0
C170 C 0.24474 0.52004 0.11759 0.0
C171 C 0.28167 0.5267 0.28398 0.0
C172 C 0.3106 0.51468 0.29021 0.0
C173 C 0.29468 0.51581 0.26721 0.0
C174 C 0.30078 0.53577 0.34568 0.0
C175 C 0.3135 0.52421 0.33046 0.0
C176 C 0.28503 0.53703 0.32254 0.0
C177 C 0.2001 0.52194 0.27612 0.0
C178 C 0.19778 0.5118 0.35317 0.0
C179 C 0.17976 0.53552 0.3264 0.0
C180 C 0.18732 0.5344 0.28424 0.0
C181 C 0.1847 0.524 0.36079 0.0
C182 C 0.20563 0.51092 0.31114 0.0
C183 C 0.20779 0.52099 0.23132 0.0
O184 O 0.24521 0.5354 0.13911 0.0
O185 O 0.2466 0.50629 0.14429 0.0
O186 O 0.21644 0.50659 0.22245 0.0
O187 O 0.21578 0.5358 0.21792 0.0
H188 H 0.21269 0.5057 0.13393 0.0
H189 H 0.18706 0.50532 0.08574 0.0
H190 H 0.21767 0.53035 0.98047 0.0
H191 H 0.24369 0.53056 0.02952 0.0
H192 H 0.32024 0.50565 0.27792 0.0
H193 H 0.29225 0.50761 0.23768 0.0
H194 H 0.3028 0.54341 0.37631 0.0
H195 H 0.27506 0.54538 0.33619 0.0
H196 H 0.20159 0.50272 0.37932 0.0
H197 H 0.16944 0.54481 0.33152 0.0
H198 H 0.183 0.54308 0.25778 0.0
H199 H 0.21574 0.50141 0.3059 0.0
C200 C 0.08403 0.2098 0.16267 0.0
C201 C 0.08491 0.19217 0.17788 0.0
C202 C 0.08031 0.18079 0.10201 0.0
C203 C 0.083 0.17784 0.14798 0.0
C204 C 0.08005 0.19851 0.08653 0.0
C205 C 0.08182 0.21291 0.11669 0.0
U206 U 0.09313 0.22265 0.28061 0.0
O207 O 0.10601 0.24547 0.31608 0.0
O208 O 0.07869 0.23739 0.33155 0.0
C209 C 0.09224 0.248 0.34128 0.0
C210 C 0.08492 0.22459 0.19556 0.0
C211 C 0.08893 0.2661 0.35726 0.0
C212 C 0.08046 0.29673 0.34705 0.0
C213 C 0.08385 0.27988 0.32895 0.0
C214 C 0.08725 0.28599 0.42139 0.0
C215 C 0.08215 0.29996 0.39359 0.0
C216 C 0.09063 0.26931 0.40339 0.0
C217 C 0.1065 0.18447 0.35406 0.0
C218 C 0.10978 0.18856 0.4345 0.0
C219 C 0.11006 0.15893 0.40176 0.0
C220 C 0.10801 0.16611 0.35919 0.0
C221 C 0.11051 0.17 0.44007 0.0
C222 C 0.10776 0.19576 0.3917 0.0
C223 C 0.1021 0.19144 0.30992 0.0
O224 O 0.07315 0.2232 0.22747 0.0
O225 O 0.10068 0.22889 0.21094 0.0
O226 O 0.11338 0.2032 0.29322 0.0
O227 O 0.08577 0.19598 0.30557 0.0
H228 H 0.08679 0.18946 0.21318 0.0
H229 H 0.08357 0.1644 0.16092 0.0
H230 H 0.07795 0.20122 0.05131 0.0
H231 H 0.08118 0.22641 0.10425 0.0
H232 H 0.07664 0.30724 0.32467 0.0
H233 H 0.08245 0.27759 0.29321 0.0
H234 H 0.08831 0.28779 0.45737 0.0
H235 H 0.09441 0.25877 0.42578 0.0
H236 H 0.11004 0.19742 0.46331 0.0
H237 H 0.11009 0.14455 0.40473 0.0
H238 H 0.10685 0.15724 0.33046 0.0
H239 H 0.10651 0.21002 0.38811 0.0
C240 C 0.31137 0.0073 0.11364 0.0
C241 C 0.32821 0.00455 0.13066 0.0
C242 C 0.34024 0.00657 0.05523 0.0
C243 C 0.34252 0.00412 0.10163 0.0
C244 C 0.3234 0.00969 0.03862 0.0
C245 C 0.30911 0.01 0.06758 0.0
U246 U 0.28925 0.00849 0.22887 0.0
O247 O 0.26348 0.01836 0.24684 0.0
O248 O 0.26868 0.98984 0.2538 0.0
C249 C 0.2573 0.00243 0.25808 0.0
C250 C 0.2959 0.00629 0.14273 0.0
C251 C 0.24517 0.00124 0.2961 0.0
C252 C 0.21534 0.99514 0.32024 0.0
C253 C 0.22791 0.99564 0.28663 0.0
C254 C 0.23724 0.00542 0.37432 0.0
C255 C 0.21971 0.00033 0.36433 0.0
C256 C 0.24993 0.00594 0.34028 0.0
C257 C 0.31936 0.01654 0.33259 0.0
C258 C 0.32036 0.0018 0.40484 0.0
C259 C 0.34059 0.02653 0.38863 0.0
C260 C 0.33288 0.02842 0.34655 0.0
C261 C 0.33494 0.01263 0.41697 0.0
C262 C 0.31246 0.00386 0.3629 0.0
C263 C 0.31522 0.01545 0.2845 0.0
O264 O 0.2949 0.99243 0.16941 0.0
O265 O 0.2916 0.0212 0.16246 0.0
O266 O 0.3057 0.028 0.26744 0.0
O267 O 0.3112 0.99941 0.26883 0.0
H268 H 0.33021 0.00247 0.16622 0.0
H269 H 0.35537 0.0019 0.11545 0.0
H270 H 0.32119 0.01144 0.00303 0.0
H271 H 0.29619 0.01201 0.05384 0.0
H272 H 0.2021 0.9908 0.31151 0.0
H273 H 0.22403 0.99186 0.25278 0.0
H274 H 0.241 0.0095 0.408 0.0
H275 H 0.26326 0.01025 0.34818 0.0
H276 H 0.31605 0.99085 0.42612 0.0
H277 H 0.35208 0.03475 0.39718 0.0
H278 H 0.33846 0.03819 0.32355 0.0
H279 H 0.30196 0.9946 0.35279 0.0
C280 C 0.46352 0.28389 0.08969 0.0
C281 C 0.462 0.30139 0.10577 0.0
C282 C 0.46686 0.31321 0.03061 0.0
C283 C 0.4637 0.31589 0.07657 0.0
C284 C 0.46787 0.2956 0.01447 0.0
C285 C 0.46628 0.28109 0.0438 0.0
U286 U 0.45526 0.26588 0.20627 0.0
O287 O 0.44579 0.23952 0.23171 0.0
O288 O 0.47223 0.25056 0.2503 0.0
C289 C 0.46035 0.23759 0.25462 0.0
C290 C 0.46337 0.26873 0.12108 0.0
C291 C 0.46358 0.22188 0.28288 0.0
C292 C 0.45751 0.19078 0.30218 0.0
C293 C 0.45467 0.20549 0.27469 0.0
C294 C 0.47792 0.2087 0.3472 0.0
C295 C 0.46916 0.1922 0.33882 0.0
C296 C 0.47523 0.22334 0.31941 0.0
C297 C 0.43991 0.29814 0.29468 0.0
C298 C 0.449 0.29573 0.37237 0.0
C299 C 0.43227 0.32084 0.34838 0.0
C300 C 0.43134 0.3138 0.30497 0.0
C301 C 0.44201 0.31238 0.38165 0.0
C302 C 0.44787 0.28858 0.32911 0.0
C303 C 0.44327 0.29373 0.24766 0.0
O304 O 0.47491 0.27036 0.15375 0.0
O305 O 0.4479 0.26286 0.13483 0.0
O306 O 0.43295 0.28138 0.22911 0.0
O307 O 0.45988 0.29185 0.23858 0.0
H308 H 0.45983 0.30384 0.14111 0.0
H309 H 0.4626 0.32924 0.09002 0.0
H310 H 0.47043 0.29306 0.97937 0.0
H311 H 0.46757 0.2677 0.03078 0.0
H312 H 0.45041 0.17832 0.29508 0.0
H313 H 0.44553 0.20404 0.24694 0.0
H314 H 0.48707 0.21022 0.3749 0.0
H315 H 0.48214 0.23588 0.3268 0.0
H316 H 0.45663 0.28904 0.3975 0.0
H317 H 0.42698 0.33382 0.35459 0.0
H318 H 0.42518 0.32133 0.27874 0.0
H319 H 0.45451 0.27641 0.32167 0.0
O320 O 0.06936 0.0034 0.69332 0.0
Zn321 Zn 0.0495 0.00356 0.7384 0.0
O322 O 0.0263 0.00147 0.70855 0.0
Zn323 Zn 0.01309 0.02159 0.7279 0.0
Zn324 Zn 0.02936 0.00122 0.64387 0.0
Zn325 Zn 0.01254 0.98014 0.72348 0.0
O326 O 0.98928 0.01483 0.75052 0.0
O327 O 0.989 0.98527 0.74998 0.0
O328 O 0.05218 0.02593 0.77778 0.0
O329 O 0.02502 0.03529 0.77808 0.0
O330 O 0.01211 0.03852 0.67744 0.0
O331 O 0.02045 0.02352 0.61731 0.0
O332 O 0.01954 0.9788 0.61386 0.0
O333 O 0.05197 0.98257 0.77934 0.0
O334 O 0.00869 0.96314 0.67091 0.0
O335 O 0.02611 0.96811 0.77004 0.0
C336 C 0.06915 0.00284 0.65058 0.0
C337 C 0.98169 -0.00015 0.75862 0.0
C338 C 0.01543 0.03779 0.63573 0.0
C339 C 0.0407 0.03638 0.79242 0.0
C340 C 0.01212 0.96468 0.62933 0.0
C341 C 0.04104 0.96999 0.78882 0.0
O342 O 0.05482 0.00206 0.62875 0.0
O343 O 0.50667 0.03648 0.64265 0.0
Zn344 Zn 0.51228 0.01829 0.6904 0.0
O345 O 0.51988 0.996 0.66254 0.0
Zn346 Zn 0.50391 0.97612 0.68067 0.0
Zn347 Zn 0.52049 0.99895 0.59748 0.0
Zn348 Zn 0.54318 0.98954 0.68057 0.0
O349 O 0.51592 0.95691 0.71315 0.0
O350 O 0.54388 0.96578 0.71196 0.0
O351 O 0.49087 0.01385 0.73005 0.0
O352 O 0.48619 0.98452 0.72465 0.0
O353 O 0.49135 0.96593 0.62648 0.0
O354 O 0.50818 0.97719 0.57435 0.0
O355 O 0.54461 0.9984 0.57217 0.0
O356 O 0.53181 0.02892 0.72941 0.0
O357 O 0.56064 0.99021 0.63007 0.0
O358 O 0.55149 0.00781 0.72334 0.0
C359 C 0.50603 0.03608 0.59988 0.0
C360 C 0.53181 0.9546 0.72302 0.0
C361 C 0.49294 0.97363 0.58877 0.0
C362 C 0.48237 0.99958 0.74094 0.0
C363 C 0.55922 0.99433 0.58892 0.0
C364 C 0.54647 0.02245 0.73941 0.0
O365 O 0.51 0.02214 0.578 0.0
O366 O 0.46751 0.49412 0.63543 0.0
Zn367 Zn 0.48592 0.49579 0.68408 0.0
O368 O 0.50936 0.49979 0.65883 0.0
Zn369 Zn 0.52291 0.47899 0.6678 0.0
Zn370 Zn 0.50654 0.50469 0.59605 0.0
Zn371 Zn 0.52202 0.51973 0.68509 0.0
O372 O 0.54744 0.48534 0.6892 0.0
O373 O 0.54312 0.51195 0.71971 0.0
O374 O 0.48478 0.47358 0.72357 0.0
O375 O 0.51169 0.46362 0.71611 0.0
O376 O 0.52199 0.4644 0.6111 0.0
O377 O 0.51095 0.48297 0.56138 0.0
O378 O 0.52135 0.52531 0.5741 0.0
O379 O 0.47952 0.51789 0.7182 0.0
O380 O 0.52981 0.53819 0.63818 0.0
O381 O 0.50561 0.53197 0.72415 0.0
C382 C 0.46748 0.50235 0.59814 0.0
C383 C 0.55249 0.49842 0.7141 0.0
C384 C 0.51652 0.46781 0.57174 0.0
C385 C 0.49652 0.46257 0.73359 0.0
C386 C 0.52905 0.53804 0.59545 0.0
C387 C 0.48928 0.53085 0.73215 0.0
O388 O 0.48151 0.50923 0.58186 0.0
O389 O 0.97899 0.51574 0.60902 0.0
Zn390 Zn 0.00114 0.52113 0.64544 0.0
O391 O 0.01071 0.49925 0.67113 0.0
Zn392 Zn 0.00883 0.50012 0.73569 0.0
Zn393 Zn -0.00231 0.47879 0.64704 0.0
Zn394 Zn 0.03493 0.49606 0.65728 0.0
O395 O 0.03132 0.49512 0.76816 0.0
O396 O 0.0502 0.49858 0.71222 0.0
O397 O -0.00265 0.53997 0.69376 0.0
O398 O 0.00392 0.52493 0.75507 0.0
O399 O 0.98814 0.48474 0.75326 0.0
O400 O 0.98485 0.46617 0.69532 0.0
O401 O 0.01253 0.46118 0.61647 0.0
O402 O 0.01836 0.53163 0.6017 0.0
O403 O 0.03944 0.47196 0.62917 0.0
O404 O 0.04136 0.51466 0.61279 0.0
C405 C 0.97245 0.50098 0.59409 0.0
C406 C 0.04696 0.49684 0.75386 0.0
C407 C 0.9802 0.47168 0.73361 0.0
C408 C -0.00043 0.53927 0.73615 0.0
C409 C 0.02899 0.45986 0.61349 0.0
C410 C 0.03396 0.52746 0.59343 0.0
O411 O 0.97891 0.48616 0.60452 0.0
H412 H 0.18717 0.01321 0.35368 0.0
H413 H 0.16323 0.01293 0.40703 0.0
H414 H 0.19617 0.98931 0.50653 0.0
H415 H 0.22026 0.98895 0.45216 0.0
H416 H 0.16305 0.97346 0.50468 0.0
H417 H 0.18737 0.03332 0.51287 0.0
H418 H 0.19829 0.06203 0.482 0.0
H419 H 0.14795 0.07047 0.42316 0.0
H420 H 0.1368 0.04169 0.45317 0.0
H421 H 0.1016 0.99336 0.67973 0.0
H422 H 0.12855 0.9924 0.63542 0.0
H423 H 0.10098 0.01171 0.52 0.0
H424 H 0.0741 0.01249 0.5636 0.0
H425 H 0.13309 0.02969 0.53618 0.0
H426 H 0.10896 0.97016 0.52279 0.0
H427 H 0.09724 0.9412 0.55014 0.0
H428 H 0.14614 0.93181 0.6155 0.0
H429 H 0.15807 0.9609 0.58921 0.0
C430 C 0.18936 0.00782 0.38679 0.0
C431 C 0.20564 0.00102 0.39857 0.0
C432 C 0.17566 0.00781 0.41744 0.0
C433 C 0.17793 0.00129 0.46101 0.0
C434 C 0.19415 0.99446 0.47311 0.0
C435 C 0.20794 0.99443 0.44222 0.0
C436 C 0.16326 0.00182 0.4935 0.0
C437 C 0.15673 0.98581 0.51238 0.0
C438 C 0.15469 0.01785 0.50261 0.0
C439 C 0.16129 0.0353 0.48509 0.0
C440 C 0.17866 0.04126 0.49317 0.0
C441 C 0.18489 0.05755 0.47583 0.0
C442 C 0.17383 0.06805 0.45058 0.0
C443 C 0.1565 0.06232 0.44273 0.0
C444 C 0.15021 0.04603 0.45995 0.0
C445 C 0.10133 0.99746 0.64497 0.0
C446 C 0.08572 0.00295 0.62513 0.0
C447 C 0.11668 0.99681 0.61967 0.0
C448 C 0.11671 0.00188 0.57439 0.0
C449 C 0.10123 0.00771 0.55486 0.0
C450 C 0.08587 0.0081 0.57983 0.0
C451 C 0.13286 0.00137 0.54716 0.0
C452 C 0.1396 0.01739 0.52911 0.0
C453 C 0.14148 0.98534 0.53865 0.0
C454 C 0.13433 0.96785 0.55458 0.0
C455 C 0.11716 0.96203 0.54345 0.0
C456 C 0.11048 0.94556 0.55867 0.0
C457 C 0.12091 0.9347 0.5847 0.0
C458 C 0.13806 0.94026 0.59545 0.0
C459 C 0.14478 0.95674 0.5804 0.0
H460 H 0.11573 0.92195 0.59641 0.0
H461 H 0.17868 0.08066 0.43716 0.0
H462 H 0.47424 0.15782 0.31246 0.0
H463 H 0.47998 0.13212 0.35957 0.0
H464 H 0.4771 0.16521 0.47783 0.0
H465 H 0.47153 0.19107 0.43067 0.0
H466 H 0.50396 0.14427 0.48463 0.0
H467 H 0.44337 0.13482 0.44813 0.0
H468 H 0.41715 0.13142 0.39998 0.0
H469 H 0.43932 0.08685 0.33297 0.0
H470 H 0.46576 0.09011 0.38038 0.0
H471 H 0.49961 0.06927 0.6342 0.0
H472 H 0.49384 0.09652 0.59279 0.0
H473 H 0.49755 0.06769 0.46796 0.0
H474 H 0.50312 0.04038 0.50895 0.0
H475 H 0.46948 0.08734 0.46847 0.0
H476 H 0.53039 0.09717 0.50608 0.0
H477 H 0.55648 0.10108 0.55449 0.0
H478 H 0.53347 0.14529 0.62094 0.0
H479 H 0.50712 0.1415 0.57336 0.0
C480 C 0.47464 0.1596 0.34852 0.0
C481 C 0.47235 0.17649 0.36777 0.0
C482 C 0.47792 0.14488 0.37548 0.0
C483 C 0.47873 0.14661 0.42241 0.0
C484 C 0.47653 0.16349 0.44175 0.0
C485 C 0.47337 0.17828 0.41474 0.0
C486 C 0.48221 0.13087 0.45104 0.0
C487 C 0.49624 0.1319 0.48164 0.0
C488 C 0.47236 0.11459 0.44666 0.0
C489 C 0.45661 0.11282 0.41754 0.0
C490 C 0.44272 0.1244 0.42284 0.0
C491 C 0.42781 0.12247 0.39575 0.0
C492 C 0.42659 0.10896 0.36337 0.0
C493 C 0.44028 0.09733 0.35803 0.0
C494 C 0.45523 0.0992 0.38503 0.0
C495 C 0.49914 0.06868 0.59792 0.0
C496 C 0.50176 0.05254 0.57498 0.0
C497 C 0.496 0.08436 0.57427 0.0
C498 C 0.49545 0.08425 0.52718 0.0
C499 C 0.49795 0.06814 0.50427 0.0
C500 C 0.50111 0.0525 0.52782 0.0
C501 C 0.49141 0.10062 0.50157 0.0
C502 C 0.47719 0.09972 0.47162 0.0
C503 C 0.50104 0.11701 0.50683 0.0
C504 C 0.51665 0.11888 0.53653 0.0
C505 C 0.53077 0.10757 0.53142 0.0
C506 C 0.54564 0.10981 0.55861 0.0
C507 C 0.5466 0.12338 0.59088 0.0
C508 C 0.53269 0.13475 0.59602 0.0
C509 C 0.51778 0.13256 0.56895 0.0
H510 H 0.55815 0.12512 0.61179 0.0
H511 H 0.41501 0.10747 0.34248 0.0
H512 H 0.31424 0.51659 0.4193 0.0
H513 H 0.33981 0.51198 0.46662 0.0
H514 H 0.37349 0.52061 0.35247 0.0
H515 H 0.34777 0.52481 0.30464 0.0
H516 H 0.38398 0.49332 0.40045 0.0
H517 H 0.36792 0.5533 0.43311 0.0
H518 H 0.34793 0.57683 0.45496 0.0
H519 H 0.33963 0.55168 0.58251 0.0
H520 H 0.35941 0.52784 0.56117 0.0
H521 H 0.46359 0.51367 0.51211 0.0
H522 H 0.43649 0.5164 0.46981 0.0
H523 H 0.40679 0.4978 0.58397 0.0
H524 H 0.43398 0.49489 0.62688 0.0
H525 H 0.39371 0.52913 0.53935 0.0
H526 H 0.41026 0.46937 0.50624 0.0
H527 H 0.43103 0.44651 0.48443 0.0
H528 H 0.43909 0.47234 0.35763 0.0
H529 H 0.41849 0.49545 0.37889 0.0
C530 C 0.32712 0.51759 0.40439 0.0
C531 C 0.32911 0.52125 0.35848 0.0
C532 C 0.3417 0.51497 0.43144 0.0
C533 C 0.35858 0.51628 0.41326 0.0
C534 C 0.36058 0.5196 0.36719 0.0
C535 C 0.34594 0.522 0.33994 0.0
C536 C 0.37411 0.51414 0.44236 0.0
C537 C 0.38618 0.5013 0.43052 0.0
C538 C 0.37678 0.52425 0.48225 0.0
C539 C 0.36503 0.53869 0.49536 0.0
C540 C 0.36175 0.55272 0.4657 0.0
C541 C 0.35047 0.56612 0.47801 0.0
C542 C 0.34248 0.56573 0.52005 0.0
C543 C 0.34581 0.55196 0.54993 0.0
C544 C 0.35707 0.5385 0.53777 0.0
C545 C 0.45133 0.51016 0.52839 0.0
C546 C 0.45095 0.50398 0.57284 0.0
C547 C 0.43586 0.51171 0.5041 0.0
C548 C 0.41972 0.5072 0.52377 0.0
C549 C 0.41919 0.50132 0.56832 0.0
C550 C 0.43471 0.49959 0.59263 0.0
C551 C 0.4035 0.50845 0.49711 0.0
C552 C 0.39137 0.52112 0.5094 0.0
C553 C 0.40079 0.49826 0.45756 0.0
C554 C 0.41292 0.4842 0.44427 0.0
C555 C 0.41653 0.47022 0.47379 0.0
C556 C 0.42826 0.45721 0.46152 0.0
C557 C 0.43639 0.45799 0.41971 0.0
C558 C 0.43277 0.47175 0.39001 0.0
C559 C 0.42104 0.48479 0.40211 0.0
H560 H 0.44549 0.44792 0.4103 0.0
H561 H 0.33374 0.57611 0.5295 0.0
H562 H 0.09987 0.31775 0.46127 0.0
H563 H 0.09185 0.34505 0.49958 0.0
H564 H 0.04773 0.34957 0.41037 0.0
H565 H 0.05549 0.32201 0.37223 0.0
H566 H 0.06437 0.3815 0.42333 0.0
H567 H 0.0418 0.3342 0.51447 0.0
H568 H 0.04188 0.30667 0.55923 0.0
H569 H 0.07907 0.33125 0.65068 0.0
H570 H 0.07945 0.35886 0.60601 0.0
H571 H 0.01181 0.4372 0.55546 0.0
H572 H 0.02273 0.41045 0.51992 0.0
H573 H 0.0723 0.41898 0.58736 0.0
H574 H 0.06158 0.44615 0.62266 0.0
H575 H 0.05392 0.38101 0.58754 0.0
H576 H 0.07588 0.42878 0.49168 0.0
H577 H 0.07175 0.45665 0.45004 0.0
H578 H 0.03168 0.43051 0.36961 0.0
H579 H 0.03543 0.40253 0.41124 0.0
C580 C 0.0884 0.32448 0.44983 0.0
C581 C 0.07821 0.31754 0.41389 0.0
C582 C 0.08386 0.34012 0.47178 0.0
C583 C 0.06904 0.34921 0.4583 0.0
C584 C 0.0592 0.34274 0.4214 0.0
C585 C 0.06371 0.32703 0.39946 0.0
C586 C 0.06374 0.36537 0.48301 0.0
C587 C 0.06201 0.38131 0.45917 0.0
C588 C 0.06078 0.36522 0.52995 0.0
C589 C 0.06085 0.34853 0.55648 0.0
C590 C 0.05018 0.33367 0.54379 0.0
C591 C 0.0501 0.31806 0.56922 0.0
C592 C 0.06053 0.31719 0.60767 0.0
C593 C 0.07104 0.33193 0.6208 0.0
C594 C 0.0712 0.34756 0.59543 0.0
C595 C 0.02504 0.43342 0.56284 0.0
C596 C 0.03586 0.44382 0.59176 0.0
C597 C 0.03122 0.41811 0.54257 0.0
C598 C 0.04826 0.41278 0.55121 0.0
C599 C 0.05908 0.42291 0.58052 0.0
C600 C 0.05299 0.43846 0.60032 0.0
C601 C 0.05482 0.39696 0.52785 0.0
C602 C 0.05661 0.38113 0.55185 0.0
C603 C 0.05762 0.39709 0.48109 0.0
C604 C 0.05588 0.41361 0.45465 0.0
C605 C 0.06616 0.429 0.46517 0.0
C606 C 0.06388 0.44481 0.4416 0.0
C607 C 0.05144 0.44536 0.40723 0.0
C608 C 0.04132 0.43006 0.39622 0.0
C609 C 0.04354 0.41421 0.41972 0.0
H610 H 0.04966 0.45762 0.3891 0.0
H611 H 0.06042 0.30511 0.62737 0.0
H612 H 0.85248 0.02228 0.02712 0.0
H613 H 0.88047 0.02094 0.9877 0.0
H614 H 0.8611 0.97452 0.9144 0.0
H615 H 0.83345 0.97547 0.95457 0.0
H616 H 0.89465 0.97122 0.93638 0.0
H617 H 0.8595 0.01645 0.86966 0.0
H618 H 0.84262 0.04384 0.86896 0.0
H619 H 0.88789 0.07442 0.9143 0.0
H620 H 0.90498 0.04717 0.91584 0.0
H621 H 0.9552 0.97425 0.75602 0.0
H622 H 0.9283 0.97353 0.80042 0.0
H623 H 0.94468 0.02334 0.86361 0.0
H624 H 0.97081 0.02465 0.8174 0.0
H625 H 0.91251 0.0245 0.84761 0.0
H626 H 0.94801 0.97927 0.91418 0.0
H627 H 0.96506 0.95199 0.91266 0.0
H628 H 0.91971 0.92153 0.86738 0.0
H629 H 0.90243 0.94866 0.8682 0.0
C630 C 0.85437 0.01159 0.00331 0.0
C631 C 0.84073 0.99913 0.99344 0.0
C632 C 0.87028 0.01092 0.98054 0.0
C633 C 0.87272 0.99783 0.94748 0.0
C634 C 0.85947 0.9848 0.93953 0.0
C635 C 0.84363 0.98544 0.96227 0.0
C636 C 0.88862 0.99818 0.91926 0.0
C637 C 0.89855 0.98283 0.91679 0.0
C638 C 0.89377 0.01338 0.89404 0.0
C639 C 0.88345 0.02974 0.89334 0.0
C640 C 0.8658 0.02899 0.87985 0.0
C641 C 0.85621 0.0445 0.87923 0.0
C642 C 0.86416 0.06085 0.8917 0.0
C643 C 0.88174 0.06174 0.90474 0.0
C644 C 0.89138 0.04627 0.90548 0.0
C645 C 0.9529 0.98509 0.77912 0.0
C646 C 0.96501 0.99954 0.78316 0.0
C647 C 0.93764 0.9846 0.80483 0.0
C648 C 0.9346 0.9982 0.83618 0.0
C649 C 0.94666 0.01269 0.83971 0.0
C650 C 0.96161 0.01344 0.81321 0.0
C651 C 0.91884 0.99764 0.86518 0.0
C652 C 0.90881 0.01292 0.86755 0.0
C653 C 0.91368 0.9824 0.89043 0.0
C654 C 0.92397 0.96602 0.89091 0.0
C655 C 0.94169 0.96676 0.90376 0.0
C656 C 0.9514 0.95132 0.90302 0.0
C657 C 0.94348 0.93504 0.88982 0.0
C658 C 0.92582 0.93415 0.87756 0.0
C659 C 0.91607 0.94954 0.87822 0.0
H660 H 0.95103 0.92312 0.88914 0.0
H661 H 0.85672 0.07284 0.89115 0.0
H662 H 0.54229 0.83077 0.02252 0.0
H663 H 0.54108 0.8592 0.9823 0.0
H664 H 0.56441 0.83509 0.86653 0.0
H665 H 0.5659 0.80689 0.90666 0.0
H666 H 0.57722 0.8688 0.87892 0.0
H667 H 0.52067 0.83814 0.87322 0.0
H668 H 0.49417 0.82353 0.90508 0.0
H669 H 0.48257 0.87184 0.97484 0.0
H670 H 0.50916 0.88667 0.94386 0.0
H671 H 0.55105 0.92575 0.70357 0.0
H672 H 0.55614 0.90024 0.75259 0.0
H673 H 0.52733 0.92536 0.85834 0.0
H674 H 0.52129 0.95015 0.80818 0.0
H675 H 0.51814 0.89235 0.85545 0.0
H676 H 0.57427 0.92381 0.85536 0.0
H677 H 0.59953 0.93829 0.81725 0.0
H678 H 0.61144 0.8885 0.75498 0.0
H679 H 0.5861 0.87378 0.79218 0.0
C680 C 0.5474 0.83167 0.98877 0.0
C681 C 0.55394 0.81659 0.96745 0.0
C682 C 0.54663 0.84785 0.96576 0.0
C683 C 0.55244 0.84918 0.92118 0.0
C684 C 0.5598 0.83437 0.90079 0.0
C685 C 0.5605 0.81823 0.92362 0.0
C686 C 0.54982 0.86551 0.89447 0.0
C687 C 0.56431 0.87396 0.87371 0.0
C688 C 0.533 0.87233 0.88801 0.0
C689 C 0.51702 0.86344 0.90669 0.0
C690 C 0.51255 0.8456 0.89567 0.0
C691 C 0.4975 0.83729 0.91351 0.0
C692 C 0.48672 0.84673 0.94209 0.0
C693 C 0.49095 0.86453 0.95279 0.0
C694 C 0.50601 0.87289 0.9351 0.0
C695 C 0.54592 0.92573 0.73736 0.0
C696 C 0.53587 0.93975 0.75248 0.0
C697 C 0.54889 0.91127 0.76546 0.0
C698 C 0.54241 0.91101 0.8096 0.0
C699 C 0.53248 0.92522 0.82456 0.0
C700 C 0.5291 0.93938 0.79607 0.0
C701 C 0.54555 0.89578 0.83994 0.0
C702 C 0.53112 0.88745 0.86125 0.0
C703 C 0.56243 0.88909 0.84681 0.0
C704 C 0.57825 0.8977 0.82646 0.0
C705 C 0.58229 0.91595 0.83359 0.0
C706 C 0.5966 0.92421 0.81207 0.0
C707 C 0.60708 0.91432 0.7837 0.0
C708 C 0.60333 0.89613 0.777 0.0
C709 C 0.58901 0.88781 0.79836 0.0
H710 H 0.6181 0.92075 0.76692 0.0
H711 H 0.47507 0.84028 0.95584 0.0
H712 H 0.67399 0.47945 0.00472 0.0
H713 H 0.64819 0.48342 0.95802 0.0
H714 H 0.68012 0.48156 0.83931 0.0
H715 H 0.70621 0.47798 0.8864 0.0
H716 H 0.65771 0.50694 0.83149 0.0
H717 H 0.65296 0.44553 0.87345 0.0
H718 H 0.65167 0.41945 0.92345 0.0
H719 H 0.60619 0.43938 0.98767 0.0
H720 H 0.60735 0.46573 0.93853 0.0
H721 H 0.58294 0.48436 0.686 0.0
H722 H 0.60997 0.48141 0.72981 0.0
H723 H 0.5858 0.50599 0.84358 0.0
H724 H 0.55903 0.50966 0.79945 0.0
H725 H 0.60415 0.46852 0.85117 0.0
H726 H 0.61061 0.53093 0.81166 0.0
H727 H 0.61118 0.55594 0.75835 0.0
H728 H 0.65325 0.53254 0.68681 0.0
H729 H 0.65268 0.50718 0.73929 0.0
C730 C 0.67551 0.47978 0.96863 0.0
C731 C 0.69207 0.47818 0.94912 0.0
C732 C 0.66073 0.48199 0.94194 0.0
C733 C 0.66211 0.48237 0.89505 0.0
C734 C 0.67871 0.48118 0.87543 0.0
C735 C 0.6936 0.47916 0.90226 0.0
C736 C 0.64623 0.48442 0.86681 0.0
C737 C 0.64612 0.49834 0.83546 0.0
C738 C 0.63091 0.47343 0.87239 0.0
C739 C 0.63037 0.45773 0.90258 0.0
C740 C 0.64279 0.44446 0.89855 0.0
C741 C 0.64206 0.4296 0.92668 0.0
C742 C 0.62889 0.42778 0.9588 0.0
C743 C 0.61641 0.44082 0.96283 0.0
C744 C 0.61709 0.45572 0.93484 0.0
C745 C 0.5835 0.48927 0.72021 0.0
C746 C 0.56901 0.49732 0.73937 0.0
C747 C 0.59888 0.48759 0.7451 0.0
C748 C 0.59979 0.49351 0.78975 0.0
C749 C 0.5853 0.50143 0.80906 0.0
C750 C 0.5701 0.50359 0.78381 0.0
C751 C 0.61576 0.49102 0.81664 0.0
C752 C 0.61584 0.47701 0.84746 0.0
C753 C 0.63104 0.50182 0.81049 0.0
C754 C 0.63143 0.51703 0.77897 0.0
C755 C 0.61982 0.53099 0.78421 0.0
C756 C 0.62018 0.54526 0.75423 0.0
C757 C 0.6322 0.5458 0.71909 0.0
C758 C 0.64392 0.53208 0.71396 0.0
C759 C 0.64358 0.51776 0.74381 0.0
H760 H 0.63247 0.55687 0.69594 0.0
H761 H 0.62833 0.41625 0.98048 0.0
H762 H 0.97886 0.68937 0.94198 0.0
H763 H 0.97897 0.66323 0.89248 0.0
H764 H 0.00665 0.6343 0.99351 0.0
H765 H 0.00673 0.66047 0.04293 0.0
H766 H 0.02148 0.6308 0.9127 0.0
H767 H 0.96401 0.62433 0.97287 0.0
H768 H 0.93418 0.63267 0.99313 0.0
H769 H 0.92217 0.6415 0.85439 0.0
H770 H 0.95201 0.63341 0.83332 0.0
H771 H 0.00999 0.5437 0.82312 0.0
H772 H 0.00868 0.57032 0.86974 0.0
H773 H 0.98485 0.59839 0.76087 0.0
H774 H 0.98616 0.57162 0.71337 0.0
H775 H 0.9681 0.60272 0.84368 0.0
H776 H 0.02648 0.60758 0.78502 0.0
H777 H 0.05605 0.59752 0.76784 0.0
H778 H 0.06611 0.59006 0.90813 0.0
H779 H 0.03652 0.59986 0.92615 0.0
C780 C 0.98499 0.67744 0.95357 0.0
C781 C 0.99282 0.67697 0.99629 0.0
C782 C 0.9849 0.66247 0.92544 0.0
C783 C 0.99271 0.64676 0.9394 0.0
C784 C 0.00051 0.64626 0.98208 0.0
C785 C 0.00047 0.66118 0.01036 0.0
C786 C 0.99338 0.63112 0.9088 0.0
C787 C 0.00979 0.62452 0.89805 0.0
C788 C 0.97815 0.62316 0.88894 0.0
C789 C 0.96033 0.62849 0.90158 0.0
C790 C 0.95508 0.62826 0.94672 0.0
C791 C 0.93815 0.63288 0.95834 0.0
C792 C 0.92631 0.63767 0.92509 0.0
C793 C 0.93137 0.63783 0.88013 0.0
C794 C 0.94829 0.63322 0.86833 0.0
C795 C 0.0044 0.55548 0.80889 0.0
C796 C -0.00186 0.55549 0.76438 0.0
C797 C 0.00378 0.57074 0.83562 0.0
C798 C 0.99686 0.58638 0.81863 0.0
C799 C 0.99033 0.58645 0.77451 0.0
C800 C 0.99109 0.57117 0.74743 0.0
C801 C 0.99618 0.60247 0.84758 0.0
C802 C 0.97978 0.6091 0.85812 0.0
C803 C 0.01141 0.61033 0.86768 0.0
C804 C 0.02919 0.60429 0.85689 0.0
C805 C 0.03493 0.60363 0.81219 0.0
C806 C 0.05171 0.59801 0.80231 0.0
C807 C 0.06293 0.5931 0.83686 0.0
C808 C 0.0574 0.59384 0.88139 0.0
C809 C 0.04063 0.59944 0.89146 0.0
H810 H 0.07592 0.58877 0.82914 0.0
H811 H 0.9132 0.64121 0.93414 0.0
H812 H 0.12652 0.14064 0.47308 0.0
H813 H 0.11272 0.1201 0.52652 0.0
H814 H 0.07622 0.16004 0.56269 0.0
H815 H 0.08924 0.1803 0.508 0.0
H816 H 0.09365 0.11637 0.61861 0.0
H817 H 0.04719 0.14951 0.50936 0.0
H818 H 0.04474 0.16423 0.4357 0.0
H819 H 0.07865 0.12613 0.37759 0.0
H820 H 0.08147 0.11143 0.45111 0.0
H821 H 0.01408 0.07138 0.67086 0.0
H822 H 0.03356 0.09608 0.64859 0.0
H823 H 0.04653 0.06781 0.52776 0.0
H824 H 0.02743 0.04269 0.55011 0.0
H825 H 0.04282 0.10441 0.51692 0.0
H826 H 0.07432 0.06394 0.60156 0.0
H827 H 0.0828 0.04383 0.6623 0.0
H828 H 0.0846 0.08771 0.75537 0.0
H829 H 0.07599 0.10814 0.69509 0.0
C830 C 0.11604 0.14533 0.49384 0.0
C831 C 0.10843 0.16174 0.48486 0.0
C832 C 0.10833 0.13364 0.52481 0.0
C833 C 0.09321 0.13848 0.54737 0.0
C834 C 0.08785 0.15611 0.54512 0.0
C835 C 0.09534 0.1677 0.51365 0.0
C836 C 0.08018 0.1244 0.55894 0.0
C837 C 0.08231 0.11395 0.59719 0.0
C838 C 0.0661 0.12054 0.52917 0.0
C839 C 0.0646 0.12951 0.48544 0.0
C840 C 0.05412 0.14436 0.48079 0.0
C841 C 0.05272 0.1527 0.43917 0.0
C842 C 0.06156 0.14614 0.402 0.0
C843 C 0.07185 0.13123 0.4064 0.0
C844 C 0.07343 0.12295 0.44804 0.0
C845 C 0.02058 0.07057 0.63876 0.0
C846 C 0.01967 0.05478 0.61298 0.0
C847 C 0.03191 0.08461 0.62654 0.0
C848 C 0.04192 0.08329 0.58767 0.0
C849 C 0.03914 0.06875 0.55853 0.0
C850 C 0.02802 0.05454 0.57106 0.0
C851 C 0.05561 0.09691 0.57807 0.0
C852 C 0.05379 0.10711 0.53947 0.0
C853 C 0.07031 0.09986 0.60666 0.0
C854 C 0.07427 0.08754 0.64388 0.0
C855 C 0.07621 0.06927 0.63512 0.0
C856 C 0.08115 0.05783 0.66939 0.0
C857 C 0.08426 0.06449 0.7126 0.0
C858 C 0.08222 0.08259 0.72181 0.0
C859 C 0.07732 0.09411 0.68758 0.0
H860 H 0.0884 0.05564 0.73879 0.0
H861 H 0.06042 0.15259 0.36979 0.0
H862 H 0.3385 0.02356 0.50473 0.0
H863 H 0.36395 0.01841 0.5532 0.0
H864 H 0.38521 0.9849 0.45007 0.0
H865 H 0.3594 0.98891 0.40414 0.0
H866 H 0.39639 0.97375 0.5222 0.0
H867 H 0.39207 0.03419 0.45986 0.0
H868 H 0.37806 0.06316 0.45258 0.0
H869 H 0.38282 0.07164 0.59475 0.0
H870 H 0.39668 0.04261 0.60283 0.0
H871 H 0.48293 0.98411 0.50631 0.0
H872 H 0.45551 0.99843 0.4885 0.0
H873 H 0.44624 0.00682 0.62944 0.0
H874 H 0.4735 0.99264 0.64724 0.0
H875 H 0.42808 0.03126 0.55631 0.0
H876 H 0.43487 0.96888 0.61189 0.0
H877 H 0.45323 0.94253 0.60871 0.0
H878 H 0.44647 0.93977 0.46577 0.0
H879 H 0.42829 0.96629 0.46814 0.0
C880 C 0.34835 0.01454 0.49367 0.0
C881 C 0.34722 0.00662 0.45105 0.0
C882 C 0.36294 0.01175 0.52094 0.0
C883 C 0.3768 0.00175 0.50467 0.0
C884 C 0.3748 0.99271 0.46354 0.0
C885 C 0.36007 0.99503 0.43715 0.0
C886 C 0.39429 0.00237 0.52637 0.0
C887 C 0.40315 0.98636 0.52999 0.0
C888 C 0.40331 0.01876 0.53694 0.0
C889 C 0.39518 0.03622 0.53199 0.0
C890 C 0.39006 0.04224 0.48953 0.0
C891 C 0.38215 0.05865 0.48527 0.0
C892 C 0.37951 0.06922 0.5232 0.0
C893 C 0.38483 0.06342 0.56543 0.0
C894 C 0.3927 0.047 0.56988 0.0
C895 C 0.47536 0.98968 0.53324 0.0
C896 C 0.47967 0.98652 0.5781 0.0
C897 C 0.45989 0.99806 0.52309 0.0
C898 C 0.4488 0.00319 0.55788 0.0
C899 C 0.45463 0.00279 0.60232 0.0
C900 C 0.47 0.99434 0.61245 0.0
C901 C 0.42991 0.00288 0.54958 0.0
C902 C 0.42099 0.01876 0.54935 0.0
C903 C 0.42088 0.98647 0.54098 0.0
C904 C 0.43017 0.96946 0.54023 0.0
C905 C 0.43718 0.96254 0.57987 0.0
C906 C 0.44762 0.94763 0.57818 0.0
C907 C 0.45099 0.93946 0.53707 0.0
C908 C 0.4438 0.94608 0.4976 0.0
C909 C 0.4334 0.96101 0.49911 0.0
H910 H 0.45917 0.92801 0.53578 0.0
H911 H 0.37337 0.08191 0.51985 0.0
H912 H 0.42343 0.33045 0.44488 0.0
H913 H 0.43523 0.35499 0.4921 0.0
H914 H 0.48732 0.34422 0.44659 0.0
H915 H 0.47579 0.31916 0.40271 0.0
H916 H 0.49021 0.35858 0.5235 0.0
H917 H 0.45389 0.37245 0.38809 0.0
H918 H 0.42561 0.37304 0.34787 0.0
H919 H 0.40308 0.40056 0.45889 0.0
H920 H 0.43114 0.39995 0.49985 0.0
H921 H 0.53396 0.44207 0.52554 0.0
H922 H 0.52032 0.41449 0.49412 0.0
H923 H 0.46957 0.43197 0.53535 0.0
H924 H 0.48288 0.4599 0.56153 0.0
H925 H 0.46435 0.41411 0.46847 0.0
H926 H 0.4981 0.4036 0.60281 0.0
H927 H 0.5256 0.4061 0.64633 0.0
H928 H 0.5511 0.37438 0.54773 0.0
H929 H 0.52377 0.37184 0.50344 0.0
C930 C 0.43745 0.33292 0.44678 0.0
C931 C 0.44871 0.32309 0.42002 0.0
C932 C 0.44418 0.34702 0.47325 0.0
C933 C 0.46208 0.35193 0.4713 0.0
C934 C 0.47345 0.34085 0.44839 0.0
C935 C 0.46683 0.32647 0.42327 0.0
C936 C 0.46887 0.36969 0.48665 0.0
C937 C 0.48451 0.37073 0.51164 0.0
C938 C 0.46129 0.38565 0.47214 0.0
C939 C 0.44452 0.38595 0.44717 0.0
C940 C 0.44287 0.37855 0.40391 0.0
C941 C 0.42688 0.37889 0.38103 0.0
C942 C 0.41255 0.38678 0.40087 0.0
C943 C 0.41417 0.3944 0.4436 0.0
C944 C 0.43009 0.39405 0.46666 0.0
C945 C 0.51988 0.44008 0.52625 0.0
C946 C 0.50938 0.45284 0.54564 0.0
C947 C 0.51209 0.42432 0.50904 0.0
C948 C 0.49397 0.42084 0.514 0.0
C949 C 0.48353 0.4342 0.53118 0.0
C950 C 0.49116 0.45015 0.54625 0.0
C951 C 0.4858 0.40301 0.50477 0.0
C952 C 0.46994 0.402 0.48098 0.0
C953 C 0.4929 0.3872 0.52157 0.0
C954 C 0.50891 0.38753 0.54985 0.0
C955 C 0.50955 0.39705 0.59062 0.0
C956 C 0.52512 0.39854 0.61531 0.0
C957 C 0.54009 0.3904 0.59979 0.0
C958 C 0.53948 0.38065 0.55974 0.0
C959 C 0.52394 0.37913 0.53489 0.0
H960 H 0.55216 0.39166 0.6188 0.0
H961 H 0.40019 0.38702 0.3831 0.0
H962 H 0.16588 0.49537 0.39006 0.0
H963 H 0.13952 0.49692 0.43581 0.0
H964 H 0.15239 0.55209 0.4663 0.0
H965 H 0.17858 0.55073 0.4197 0.0
H966 H 0.131 0.52026 0.53547 0.0
H967 H 0.13162 0.55902 0.39171 0.0
H968 H 0.1386 0.56035 0.31096 0.0
H969 H 0.11151 0.50984 0.28984 0.0
H970 H 0.10445 0.50825 0.37053 0.0
H971 H 0.05646 0.55566 0.60249 0.0
H972 H 0.08315 0.55833 0.55808 0.0
H973 H 0.06145 0.51976 0.46342 0.0
H974 H 0.03459 0.51756 0.50712 0.0
H975 H 0.08705 0.54039 0.42502 0.0
H976 H 0.07906 0.50366 0.55294 0.0
H977 H 0.0711 0.49604 0.63079 0.0
H978 H 0.11096 0.53277 0.68009 0.0
H979 H 0.1191 0.54082 0.60278 0.0
C980 C 0.16355 0.50753 0.40849 0.0
C981 C 0.17398 0.52301 0.40127 0.0
C982 C 0.14851 0.5084 0.43434 0.0
C983 C 0.14411 0.52467 0.45352 0.0
C984 C 0.15576 0.53946 0.45146 0.0
C985 C 0.17065 0.53868 0.42507 0.0
C986 C 0.12607 0.52736 0.467 0.0
C987 C 0.12141 0.52489 0.51169 0.0
C988 C 0.1135 0.53242 0.43514 0.0
C989 C 0.1176 0.5335 0.38687 0.0
C990 C 0.12721 0.54821 0.36976 0.0
C991 C 0.13116 0.54901 0.32406 0.0
C992 C 0.12554 0.53517 0.2953 0.0
C993 C 0.11589 0.52053 0.31215 0.0
C994 C 0.11189 0.51969 0.3578 0.0
C995 C 0.05695 0.54881 0.57048 0.0
C996 C 0.04376 0.53634 0.55801 0.0
C997 C 0.07224 0.55014 0.54545 0.0
C998 C 0.07438 0.53871 0.50865 0.0
C999 C 0.06004 0.52853 0.49205 0.0
C1000 C 0.04467 0.52738 0.51681 0.0
C1001 C 0.0921 0.53437 0.4944 0.0
C1002 C 0.09663 0.53609 0.44923 0.0
C1003 C 0.10434 0.52782 0.52557 0.0
C1004 C 0.09947 0.52308 0.57213 0.0
C1005 C 0.086 0.51028 0.58044 0.0
C1006 C 0.08146 0.50589 0.62447 0.0
C1007 C 0.09032 0.51423 0.66031 0.0
C1008 C 0.10396 0.52662 0.65229 0.0
C1009 C 0.10857 0.53106 0.60842 0.0
H1010 H 0.08668 0.51113 0.69432 0.0
H1011 H 0.12864 0.53581 0.25995 0.0
H1012 H 0.96599 0.84898 0.96049 0.0
H1013 H 0.97883 0.87156 0.91103 0.0
H1014 H 0.0231 0.83869 0.88883 0.0
H1015 H 0.0108 0.8165 0.94002 0.0
H1016 H 0.03251 0.86877 0.93095 0.0
H1017 H -0.00252 0.85428 0.79927 0.0
H1018 H 0.97057 0.84801 0.75518 0.0
H1019 H 0.95117 0.89887 0.79316 0.0
H1020 H 0.97786 0.90539 0.83776 0.0
H1021 H 0.06239 0.94283 0.77493 0.0
H1022 H 0.0565 0.9133 0.80748 0.0
H1023 H 0.02174 0.93633 0.90331 0.0
H1024 H 0.02764 0.96578 0.87098 0.0
H1025 H 0.01041 0.9096 0.81526 0.0
H1026 H 0.03701 0.91666 0.96813 0.0
H1027 H 0.06263 0.92701 0.01314 0.0
H1028 H 0.09567 0.89388 0.93508 0.0
H1029 H 0.07017 0.88338 0.88964 0.0
C1030 C 0.97818 0.8463 0.9439 0.0
C1031 C 0.98765 0.83125 0.95532 0.0
C1032 C 0.98543 0.85915 0.91517 0.0
C1033 C 0.00207 0.85691 0.89685 0.0
C1034 C 0.01031 0.84071 0.90302 0.0
C1035 C 0.00317 0.82795 0.93214 0.0
C1036 C 0.01236 0.87265 0.88096 0.0
C1037 C 0.02784 0.87737 0.90467 0.0
C1038 C 0.00594 0.88435 0.84817 0.0
C1039 C 0.98967 0.88026 0.82211 0.0
C1040 C 0.98741 0.86406 0.79857 0.0
C1041 C 0.97221 0.86049 0.77336 0.0
C1042 C 0.95916 0.87302 0.77141 0.0
C1043 C 0.96128 0.88917 0.79466 0.0
C1044 C 0.97647 0.89282 0.81983 0.0
C1045 C 0.05449 0.9417 0.80493 0.0
C1046 C 0.04543 0.95633 0.82076 0.0
C1047 C 0.05097 0.92487 0.82305 0.0
C1048 C 0.03853 0.92283 0.8571 0.0
C1049 C 0.03139 0.93782 0.877 0.0
C1050 C 0.03491 0.9546 0.85893 0.0
C1051 C 0.03021 0.90529 0.8651 0.0
C1052 C 0.01514 0.9005 0.84037 0.0
C1053 C 0.03664 0.89374 0.89747 0.0
C1054 C 0.05177 0.89918 0.92588 0.0
C1055 C 0.04975 0.91153 0.96086 0.0
C1056 C 0.06422 0.91744 0.98633 0.0
C1057 C 0.08077 0.91108 0.97702 0.0
C1058 C 0.08284 0.89874 0.94233 0.0
C1059 C 0.06838 0.89277 0.9168 0.0
H1060 H 0.09198 0.91573 0.99664 0.0
H1061 H 0.94742 0.87023 0.75184 0.0
H1062 H 0.69723 0.02659 0.90545 0.0
H1063 H 0.67504 0.03346 0.84985 0.0
H1064 H 0.64978 0.98185 0.87058 0.0
H1065 H 0.67218 0.97473 0.92549 0.0
H1066 H 0.64134 0.99548 0.7889 0.0
H1067 H 0.64197 0.01181 0.94402 0.0
H1068 H 0.65474 0.02503 0.01315 0.0
H1069 H 0.65733 0.07658 0.95105 0.0
H1070 H 0.6449 0.06355 0.88115 0.0
H1071 H 0.55089 0.02005 0.82887 0.0
H1072 H 0.58032 0.01974 0.8613 0.0
H1073 H 0.60141 0.04336 0.74068 0.0
H1074 H 0.57195 0.04436 0.70909 0.0
H1075 H 0.61254 0.04462 0.86892 0.0
H1076 H 0.62789 0.0042 0.70666 0.0
H1077 H 0.61384 0.98243 0.65434 0.0
H1078 H 0.5744 0.96969 0.75213 0.0
H1079 H 0.5884 0.99101 0.8052 0.0
C1080 C 0.68754 0.01632 0.8963 0.0
C1081 C 0.68597 0.00038 0.92072 0.0
C1082 C 0.67485 0.02029 0.8646 0.0
C1083 C 0.66052 0.0084 0.85759 0.0
C1084 C 0.66064 0.99128 0.87613 0.0
C1085 C 0.67335 0.98728 0.90772 0.0
C1086 C 0.6438 0.01514 0.84145 0.0
C1087 C 0.63521 0.00651 0.80553 0.0
C1088 C 0.63539 0.02878 0.86526 0.0
C1089 C 0.64277 0.03668 0.90721 0.0
C1090 C 0.64543 0.02593 0.94498 0.0
C1091 C 0.65259 0.03338 0.98429 0.0
C1092 C 0.65691 0.05162 0.98643 0.0
C1093 C 0.65404 0.06244 0.94928 0.0
C1094 C 0.64696 0.05503 0.90978 0.0
C1095 C 0.56164 0.02646 0.81089 0.0
C1096 C 0.55932 0.03226 0.76671 0.0
C1097 C 0.57846 0.02596 0.82899 0.0
C1098 C 0.59289 0.03103 0.80256 0.0
C1099 C 0.59033 0.0392 0.7611 0.0
C1100 C 0.5735 0.04009 0.74352 0.0
C1101 C 0.6104 0.02544 0.8152 0.0
C1102 C 0.61899 0.03412 0.85096 0.0
C1103 C 0.61835 0.01116 0.79282 0.0
C1104 C 0.60889 0.99967 0.75938 0.0
C1105 C 0.61604 0.99697 0.71666 0.0
C1106 C 0.60813 0.98463 0.68695 0.0
C1107 C 0.59299 0.97496 0.69946 0.0
C1108 C 0.58585 0.97749 0.74194 0.0
C1109 C 0.59376 0.98974 0.77185 0.0
H1110 H 0.58692 0.96537 0.67646 0.0
H1111 H 0.66243 0.05738 0.01693 0.0
H1112 H 0.53693 0.64961 0.94507 0.0
H1113 H 0.52376 0.62907 0.88988 0.0
H1114 H 0.5694 0.63553 0.80627 0.0
H1115 H 0.58289 0.65623 0.86266 0.0
H1116 H 0.52741 0.63639 0.76905 0.0
H1117 H 0.5726 0.60157 0.83031 0.0
H1118 H 0.59229 0.59068 0.88902 0.0
H1119 H 0.54806 0.57091 0.96429 0.0
H1120 H 0.52809 0.58197 0.9065 0.0
H1121 H 0.48298 0.55747 0.67713 0.0
H1122 H 0.49767 0.58516 0.69689 0.0
H1123 H 0.49188 0.57222 0.83745 0.0
H1124 H 0.4807 0.54254 0.81614 0.0
H1125 H 0.52315 0.5741 0.8233 0.0
H1126 H 0.47819 0.61623 0.76413 0.0
H1127 H 0.45985 0.62591 0.70093 0.0
H1128 H 0.50511 0.62989 0.61643 0.0
H1129 H 0.52366 0.6203 0.6791 0.0
C1130 C 0.54406 0.64677 0.91468 0.0
C1131 C 0.56081 0.65432 0.9077 0.0
C1132 C 0.53656 0.63514 0.88329 0.0
C1133 C 0.54565 0.6309 0.84431 0.0
C1134 C 0.56225 0.6388 0.83629 0.0
C1135 C 0.56991 0.65047 0.86826 0.0
C1136 C 0.53764 0.6172 0.81469 0.0
C1137 C 0.5266 0.62264 0.78014 0.0
C1138 C 0.53686 0.59933 0.82898 0.0
C1139 C 0.54884 0.59276 0.86415 0.0
C1140 C 0.56706 0.59509 0.85962 0.0
C1141 C 0.57828 0.58884 0.8927 0.0
C1142 C 0.57143 0.58014 0.93041 0.0
C1143 C 0.55335 0.57766 0.93509 0.0
C1144 C 0.54208 0.58391 0.90215 0.0
C1145 C 0.48391 0.56098 0.71242 0.0
C1146 C 0.48177 0.54766 0.74506 0.0
C1147 C 0.49246 0.57706 0.72386 0.0
C1148 C 0.49662 0.5808 0.76893 0.0
C1149 C 0.48959 0.56933 0.80222 0.0
C1150 C 0.48264 0.55251 0.7903 0.0
C1151 C 0.51114 0.5937 0.78124 0.0
C1152 C 0.52372 0.58781 0.81185 0.0
C1153 C 0.5134 0.61103 0.76282 0.0
C1154 C 0.50226 0.61758 0.72622 0.0
C1155 C 0.4842 0.61927 0.73212 0.0
C1156 C 0.47378 0.62472 0.69638 0.0
C1157 C 0.48131 0.62852 0.65471 0.0
C1158 C 0.4993 0.627 0.64873 0.0
C1159 C 0.50977 0.62165 0.68438 0.0
H1160 H 0.47321 0.63263 0.62705 0.0
H1161 H 0.58014 0.5753 0.95595 0.0
H1162 H 0.83409 0.51279 0.89202 0.0
H1163 H 0.85617 0.51517 0.8331 0.0
H1164 H 0.85506 0.45787 0.82048 0.0
H1165 H 0.83319 0.45541 0.87953 0.0
H1166 H 0.88637 0.49801 0.86373 0.0
H1167 H 0.85958 0.44982 0.73809 0.0
H1168 H 0.83705 0.44588 0.67881 0.0
H1169 H 0.8432 0.50131 0.64482 0.0
H1170 H 0.86549 0.50558 0.70452 0.0
H1171 H 0.9641 0.45917 0.8101 0.0
H1172 H 0.93301 0.4624 0.82784 0.0
H1173 H 0.92482 0.48574 0.69742 0.0
H1174 H 0.95494 0.48071 0.67839 0.0
H1175 H 0.89732 0.47051 0.71542 0.0
H1176 H 0.93391 0.5116 0.79818 0.0
H1177 H 0.95868 0.52061 0.84757 0.0
H1178 H 0.93579 0.49013 0.95523 0.0
H1179 H 0.91097 0.4808 0.90637 0.0
C1180 C 0.83801 0.50076 0.87516 0.0
C1181 C 0.83226 0.4839 0.89071 0.0
C1182 C 0.8505 0.50216 0.84136 0.0
C1183 C 0.85719 0.48671 0.82255 0.0
C1184 C 0.84978 0.46996 0.83398 0.0
C1185 C 0.83734 0.46855 0.86794 0.0
C1186 C 0.87475 0.4874 0.80268 0.0
C1187 C 0.88885 0.49226 0.831 0.0
C1188 C 0.87795 0.48048 0.75975 0.0
C1189 C 0.86389 0.47805 0.72606 0.0
C1190 C 0.85592 0.46118 0.71831 0.0
C1191 C 0.84323 0.4589 0.68465 0.0
C1192 C 0.83863 0.47336 0.65822 0.0
C1193 C 0.84666 0.49016 0.66554 0.0
C1194 C 0.85923 0.49253 0.69945 0.0
C1195 C 0.95535 0.46429 0.78496 0.0
C1196 C 0.96163 0.46948 0.74291 0.0
C1197 C 0.93776 0.46645 0.79516 0.0
C1198 C 0.92673 0.47489 0.76445 0.0
C1199 C 0.93296 0.4792 0.72168 0.0
C1200 C 0.95019 0.47626 0.71081 0.0
C1201 C 0.90907 0.48024 0.77742 0.0
C1202 C 0.89503 0.47661 0.74781 0.0
C1203 C 0.90607 0.48921 0.81841 0.0
C1204 C 0.92059 0.49546 0.84855 0.0
C1205 C 0.93415 0.50684 0.83241 0.0
C1206 C 0.94821 0.51198 0.86029 0.0
C1207 C 0.94881 0.50594 0.9045 0.0
C1208 C 0.9353 0.49482 0.921 0.0
C1209 C 0.9212 0.48964 0.89326 0.0
H1210 H 0.95974 0.50987 0.92597 0.0
H1211 H 0.8289 0.47153 0.63198 0.0
H1212 H 0.05914 0.15118 0.11512 0.0
H1213 H 0.0534 0.12612 0.06403 0.0
H1214 H 0.0887 0.15023 0.96753 0.0
H1215 H 0.09419 0.17561 0.01838 0.0
H1216 H 0.06097 0.1384 0.92581 0.0
H1217 H 0.09918 0.11237 0.03326 0.0
H1218 H 0.10983 0.10355 0.10784 0.0
H1219 H 0.06234 0.07258 0.12948 0.0
H1220 H 0.05133 0.08137 0.05521 0.0
H1221 H 0.07248 0.05362 0.80614 0.0
H1222 H 0.07944 0.07816 0.85886 0.0
H1223 H 0.02688 0.07425 0.91002 0.0
H1224 H 0.01956 0.05046 0.85572 0.0
H1225 H 0.06386 0.07528 0.97332 0.0
H1226 H 0.02499 0.10469 0.86744 0.0
H1227 H 0.01579 0.1124 0.79078 0.0
H1228 H 0.0666 0.13636 0.76561 0.0
H1229 H 0.07617 0.12849 0.84199 0.0
C1230 C 0.06582 0.15107 0.08319 0.0
C1231 C 0.07717 0.16539 0.07088 0.0
C1232 C 0.06257 0.13667 0.05399 0.0
C1233 C 0.07081 0.13606 0.01203 0.0
C1234 C 0.08217 0.15034 -0.00033 0.0
C1235 C 0.08528 0.16487 0.02871 0.0
C1236 C 0.06706 0.12087 0.98044 0.0
C1237 C 0.06183 0.12464 0.9363 0.0
C1238 C 0.06787 0.10278 0.99388 0.0
C1239 C 0.07436 0.09768 0.03883 0.0
C1240 C 0.09094 0.10381 0.05409 0.0
C1241 C 0.09706 0.09878 0.09626 0.0
C1242 C 0.08675 0.08755 0.12343 0.0
C1243 C 0.07031 0.0813 0.10843 0.0
C1244 C 0.06413 0.08628 0.06628 0.0
C1245 C 0.06241 0.05806 0.82844 0.0
C1246 C 0.04544 0.05027 0.82637 0.0
C1247 C 0.0664 0.07202 0.85857 0.0
C1248 C 0.05362 0.07805 0.88803 0.0
C1249 C 0.03686 0.06987 0.88725 0.0
C1250 C 0.03272 0.0563 0.85622 0.0
C1251 C 0.05775 0.09298 0.91949 0.0
C1252 C 0.06306 0.08911 0.9633 0.0
C1253 C 0.0571 0.11094 0.90584 0.0
C1254 C 0.05138 0.11572 0.86007 0.0
C1255 C 0.03427 0.11138 0.84534 0.0
C1256 C 0.02897 0.11583 0.80201 0.0
C1257 C 0.04063 0.12479 0.77325 0.0
C1258 C 0.0576 0.12937 0.78786 0.0
C1259 C 0.06297 0.12491 0.83116 0.0
H1260 H 0.03651 0.12824 0.73972 0.0
H1261 H 0.09152 0.08366 0.15604 0.0
H1262 H 0.36566 0.98184 0.0535 0.0
H1263 H 0.38986 0.97981 0.00056 0.0
H1264 H 0.37296 0.02709 0.93358 0.0
H1265 H 0.34857 0.02894 0.98587 0.0
H1266 H 0.38141 0.00334 0.87357 0.0
H1267 H 0.40867 0.02738 0.00779 0.0
H1268 H 0.41594 0.02781 0.08845 0.0
H1269 H 0.4412 0.97793 0.07461 0.0
H1270 H 0.43386 0.97707 0.99393 0.0
H1271 H 0.46145 0.0275 0.7604 0.0
H1272 H 0.43736 0.02784 0.81458 0.0
H1273 H 0.44728 0.97363 0.8513 0.0
H1274 H 0.47098 0.97299 0.79654 0.0
H1275 H 0.44279 0.99976 0.92632 0.0
H1276 H 0.41559 0.976 0.79208 0.0
H1277 H 0.4087 0.9759 0.71122 0.0
H1278 H 0.38359 0.02585 0.72551 0.0
H1279 H 0.39063 0.0264 0.80641 0.0
C1280 C 0.36721 0.99188 0.02771 0.0
C1281 C 0.35526 0.0056 0.02398 0.0
C1282 C 0.38105 0.99071 0.99743 0.0
C1283 C 0.38341 0.00343 0.96332 0.0
C1284 C 0.37142 0.01709 0.95949 0.0
C1285 C 0.3575 0.01815 0.98943 0.0
C1286 C 0.39832 0.00259 0.93156 0.0
C1287 C 0.39483 0.00278 0.88523 0.0
C1288 C 0.41586 0.00144 0.94656 0.0
C1289 C 0.42057 0.00208 0.9949 0.0
C1290 C 0.41569 0.01645 0.02199 0.0
C1291 C 0.41983 0.01678 0.06771 0.0
C1292 C 0.42899 0.00289 0.08667 0.0
C1293 C 0.43409 0.98867 0.05989 0.0
C1294 C 0.42996 0.98827 0.01415 0.0
C1295 C 0.45851 0.01568 0.78009 0.0
C1296 C 0.46805 0.0002 0.7741 0.0
C1297 C 0.44476 0.01588 0.81093 0.0
C1298 C 0.44059 0.00075 0.83687 0.0
C1299 C 0.45034 0.98544 0.83164 0.0
C1300 C 0.46379 0.98508 0.80017 0.0
C1301 C 0.4258 0.00076 0.86875 0.0
C1302 C 0.42934 0.00035 0.91492 0.0
C1303 C 0.40833 0.00176 0.85368 0.0
C1304 C 0.40384 0.00136 0.8052 0.0
C1305 C 0.40876 0.98705 0.77791 0.0
C1306 C 0.40479 0.98689 0.73209 0.0
C1307 C 0.39577 0.00089 0.7132 0.0
C1308 C 0.39062 0.01503 0.74017 0.0
C1309 C 0.39458 0.01527 0.78602 0.0
H1310 H 0.39273 0.00076 0.6777 0.0
H1311 H 0.43216 0.00315 0.12208 0.0
H1312 H 0.45379 0.31743 0.94558 0.0
H1313 H 0.45857 0.34281 0.89531 0.0
H1314 H 0.49109 0.36932 0.99567 0.0
H1315 H 0.48615 0.34411 0.04623 0.0
H1316 H 0.47099 0.39249 0.96038 0.0
H1317 H 0.50825 0.34893 0.90102 0.0
H1318 H 0.51644 0.31962 0.87176 0.0
H1319 H 0.48078 0.32474 0.76135 0.0
H1320 H 0.47216 0.35398 0.79034 0.0
H1321 H 0.51636 0.45218 0.80401 0.0
H1322 H 0.51046 0.42706 0.85503 0.0
H1323 H 0.4625 0.41405 0.78378 0.0
H1324 H 0.46796 0.4397 0.73393 0.0
H1325 H 0.49057 0.38443 0.80344 0.0
H1326 H 0.45387 0.42928 0.86799 0.0
H1327 H 0.4483 0.45904 0.89894 0.0
H1328 H 0.48668 0.45159 0.00206 0.0
H1329 H 0.49274 0.42191 0.97108 0.0
C1330 C 0.46204 0.32863 0.95684 0.0
C1331 C 0.46959 0.32871 -5e-05 0.0
C1332 C 0.46479 0.34314 0.92801 0.0
C1333 C 0.47539 0.35796 0.94133 0.0
C1334 C 0.48283 0.35811 0.98451 0.0
C1335 C 0.47996 0.34368 0.01348 0.0
C1336 C 0.47857 0.37338 0.91054 0.0
C1337 C 0.47544 0.39067 0.92624 0.0
C1338 C 0.48428 0.37115 0.86573 0.0
C1339 C 0.48942 0.35356 0.84815 0.0
C1340 C 0.50204 0.34374 0.87071 0.0
C1341 C 0.50678 0.32715 0.85414 0.0
C1342 C 0.49909 0.3203 0.8148 0.0
C1343 C 0.48669 0.33005 0.79188 0.0
C1344 C 0.48188 0.34664 0.80835 0.0
C1345 C 0.50448 0.44405 0.79959 0.0
C1346 C 0.49252 0.44793 0.76539 0.0
C1347 C 0.50115 0.42972 0.82862 0.0
C1348 C 0.48606 0.41872 0.82311 0.0
C1349 C 0.47419 0.42243 0.78861 0.0
C1350 C 0.47726 0.43711 0.76042 0.0
C1351 C 0.48277 0.4033 0.85333 0.0
C1352 C 0.48602 0.3861 0.83755 0.0
C1353 C 0.47752 0.40562 0.89828 0.0
C1354 C 0.47395 0.42349 0.91679 0.0
C1355 C 0.46131 0.43409 0.89686 0.0
C1356 C 0.45802 0.45092 0.9145 0.0
C1357 C 0.46718 0.45724 0.95234 0.0
C1358 C 0.47963 0.44671 0.97266 0.0
C1359 C 0.483 0.42988 0.95507 0.0
H1360 H 0.46459 0.47026 0.966 0.0
H1361 H 0.50278 0.30745 0.80201 0.0
H1362 H 0.16769 0.52756 0.05545 0.0
H1363 H 0.14064 0.52592 0.01144 0.0
H1364 H 0.16927 0.50802 0.89645 0.0
H1365 H 0.19642 0.50954 0.94044 0.0
H1366 H 0.14537 0.53317 0.8749 0.0
H1367 H 0.14623 0.47867 0.96191 0.0
H1368 H 0.1474 0.46117 0.03159 0.0
H1369 H 0.10116 0.48577 0.07915 0.0
H1370 H 0.09987 0.50362 0.01001 0.0
H1371 H 0.08063 0.48729 0.74197 0.0
H1372 H 0.10576 0.49454 0.79082 0.0
H1373 H 0.07141 0.51693 0.88863 0.0
H1374 H 0.0463 0.51051 0.83885 0.0
H1375 H 0.09646 0.49254 0.92299 0.0
H1376 H 0.09315 0.54481 0.83735 0.0
H1377 H 0.09184 0.56529 0.77325 0.0
H1378 H 0.14168 0.54818 0.72764 0.0
H1379 H 0.14305 0.52713 0.79066 0.0
C1380 C 0.16822 0.52324 0.02079 0.0
C1381 C 0.18417 0.51847 0.00151 0.0
C1382 C 0.15276 0.52233 0.99571 0.0
C1383 C 0.1529 0.51656 0.95092 0.0
C1384 C 0.16888 0.51245 0.93105 0.0
C1385 C 0.18438 0.51338 0.95613 0.0
C1386 C 0.13638 0.51448 0.9249 0.0
C1387 C 0.13476 0.52409 0.88497 0.0
C1388 C 0.12222 0.50329 0.93937 0.0
C1389 C 0.12308 0.49263 0.98102 0.0
C1390 C 0.13641 0.48047 0.98741 0.0
C1391 C 0.13708 0.47047 0.02678 0.0
C1392 C 0.1244 0.4724 0.05984 0.0
C1393 C 0.111 0.48432 0.05356 0.0
C1394 C 0.11029 0.49438 0.0143 0.0
C1395 C 0.07849 0.49397 0.77364 0.0
C1396 C 0.0616 0.49867 0.78622 0.0
C1397 C 0.09281 0.49805 0.8015 0.0
C1398 C 0.09044 0.50658 0.84286 0.0
C1399 C 0.07349 0.51049 0.85661 0.0
C1400 C 0.05917 0.50666 0.82837 0.0
C1401 C 0.1057 0.51079 0.87218 0.0
C1402 C 0.10705 0.50163 0.91282 0.0
C1403 C 0.11951 0.52259 0.85863 0.0
C1404 C 0.11809 0.53418 0.81857 0.0
C1405 C 0.10366 0.54509 0.81317 0.0
C1406 C 0.10296 0.55691 0.77714 0.0
C1407 C 0.11671 0.5581 0.74654 0.0
C1408 C 0.13108 0.54731 0.75153 0.0
C1409 C 0.13178 0.53536 0.78727 0.0
H1410 H 0.11618 0.56731 0.71878 0.0
H1411 H 0.12492 0.46463 0.09026 0.0
H1412 H 0.02584 0.82516 0.38788 0.0
H1413 H 0.02632 0.8513 0.43762 0.0
H1414 H 0.9707 0.85584 0.41832 0.0
H1415 H 0.97042 0.82997 0.36734 0.0
H1416 H 0.98609 0.8876 0.41415 0.0
H1417 H 0.98781 0.83939 0.51687 0.0
H1418 H -0.00171 0.81137 0.54833 0.0
H1419 H 0.04886 0.83637 0.57243 0.0
H1420 H 0.03876 0.86448 0.54048 0.0
H1421 H 0.98337 0.94184 0.62565 0.0
H1422 H 0.97889 0.91558 0.57637 0.0
H1423 H 0.02979 0.92573 0.51863 0.0
H1424 H 0.03394 0.95239 0.56593 0.0
H1425 H 0.01401 0.88637 0.56462 0.0
H1426 H 0.0113 0.93381 0.45046 0.0
H1427 H -0.00092 0.96113 0.41959 0.0
H1428 H 0.94768 0.93615 0.4193 0.0
H1429 H 0.95958 0.90883 0.45143 0.0
C1430 C 0.01375 0.83172 0.39466 0.0
C1431 C -0.00193 0.8256 0.37444 0.0
C1432 C 0.01398 0.84659 0.42311 0.0
C1433 C -0.00152 0.85541 0.43237 0.0
C1434 C 0.9828 0.84926 0.41184 0.0
C1435 C 0.98261 0.83448 0.383 0.0
C1436 C -0.00122 0.87121 0.46282 0.0
C1437 C 0.99201 0.88721 0.44725 0.0
C1438 C 0.00648 0.87082 0.50611 0.0
C1439 C 0.01256 0.85402 0.52598 0.0
C1440 C 0.0012 0.83889 0.52865 0.0
C1441 C 0.00707 0.82299 0.54658 0.0
C1442 C 0.02424 0.82208 0.56229 0.0
C1443 C 0.03557 0.83709 0.56022 0.0
C1444 C 0.02977 0.85302 0.54226 0.0
C1445 C 0.99347 0.93855 0.60199 0.0
C1446 C 0.0089 0.94922 0.5991 0.0
C1447 C 0.99091 0.9236 0.57397 0.0
C1448 C 0.00394 0.9189 0.54359 0.0
C1449 C 0.01947 0.92934 0.54135 0.0
C1450 C 0.02181 0.94456 0.56826 0.0
C1451 C 0.00173 0.90268 0.51535 0.0
C1452 C 0.00804 0.88661 0.53157 0.0
C1453 C 0.99343 0.90295 0.47294 0.0
C1454 C 0.98627 0.91945 0.4544 0.0
C1455 C -0.00265 0.93428 0.44476 0.0
C1456 C 0.99049 0.94973 0.4268 0.0
C1457 C 0.97259 0.95042 0.41776 0.0
C1458 C 0.96153 0.93564 0.42658 0.0
C1459 C 0.96832 0.92018 0.44475 0.0
H1460 H 0.96732 0.96238 0.4037 0.0
H1461 H 0.02877 0.80976 0.57614 0.0
H1462 H 0.70839 0.00629 0.39513 0.0
H1463 H 0.6825 0.00285 0.4426 0.0
H1464 H 0.65095 0.98918 0.32634 0.0
H1465 H 0.67678 0.99233 0.27877 0.0
H1466 H 0.63565 0.01388 0.37774 0.0
H1467 H 0.66033 0.95734 0.39915 0.0
H1468 H 0.68331 0.93612 0.41577 0.0
H1469 H 0.68933 0.95812 0.54838 0.0
H1470 H 0.66652 0.97965 0.53234 0.0
H1471 H 0.55989 0.98726 0.49943 0.0
H1472 H 0.58546 0.98686 0.45062 0.0
H1473 H 0.61893 0.00094 0.56319 0.0
H1474 H 0.59327 0.00125 0.61218 0.0
H1475 H 0.63268 0.97487 0.51163 0.0
H1476 H 0.60765 0.03237 0.48614 0.0
H1477 H 0.5834 0.05189 0.46774 0.0
H1478 H 0.57688 0.026 0.33972 0.0
H1479 H 0.60099 0.00619 0.35756 0.0
C1480 C 0.696 0.0023 0.37975 0.0
C1481 C 0.69465 0.99968 0.33314 0.0
C1482 C 0.6812 0.00038 0.4069 0.0
C1483 C 0.6648 0.99572 0.388 0.0
C1484 C 0.66345 0.99289 0.34158 0.0
C1485 C 0.67823 0.99477 0.31445 0.0
C1486 C 0.64898 0.99433 0.41656 0.0
C1487 C 0.63491 0.00517 0.40666 0.0
C1488 C 0.64808 0.98311 0.45454 0.0
C1489 C 0.66184 0.97023 0.46438 0.0
C1490 C 0.66666 0.95776 0.43173 0.0
C1491 C 0.67963 0.94565 0.44107 0.0
C1492 C 0.68781 0.9458 0.48307 0.0
C1493 C 0.683 0.95804 0.51584 0.0
C1494 C 0.67004 0.97018 0.50666 0.0
C1495 C 0.57271 0.99028 0.51373 0.0
C1496 C 0.57469 0.99413 0.55965 0.0
C1497 C 0.5873 0.99006 0.48583 0.0
C1498 C 0.60409 0.99403 0.50317 0.0
C1499 C 0.6061 0.99775 0.54915 0.0
C1500 C 0.5915 0.99783 0.57714 0.0
C1501 C 0.6195 0.9946 0.47317 0.0
C1502 C 0.63346 0.98358 0.48272 0.0
C1503 C 0.62022 0.00551 0.43457 0.0
C1504 C 0.60605 0.01774 0.4233 0.0
C1505 C 0.601 0.03081 0.45412 0.0
C1506 C 0.58729 0.04192 0.44379 0.0
C1507 C 0.57859 0.04017 0.40262 0.0
C1508 C 0.58363 0.02735 0.3716 0.0
C1509 C 0.59734 0.0162 0.38176 0.0
H1510 H 0.56795 0.04876 0.39473 0.0
H1511 H 0.69785 0.93641 0.49024 0.0
H1512 H 0.53162 0.68034 0.36156 0.0
H1513 H 0.53032 0.65604 0.4159 0.0
H1514 H 0.56956 0.62867 0.34175 0.0
H1515 H 0.57113 0.65301 0.28762 0.0
H1516 H 0.54264 0.60623 0.36469 0.0
H1517 H 0.58006 0.64956 0.43962 0.0
H1518 H 0.58842 0.67935 0.46965 0.0
H1519 H 0.544 0.67715 0.55717 0.0
H1520 H 0.53524 0.64743 0.52721 0.0
H1521 H 0.5513 0.53832 0.52471 0.0
H1522 H 0.55854 0.56337 0.47504 0.0
H1523 H 0.52655 0.59732 0.55536 0.0
H1524 H 0.52062 0.57259 0.60706 0.0
H1525 H 0.55161 0.61643 0.52779 0.0
H1526 H 0.51295 0.57391 0.4491 0.0
H1527 H 0.50412 0.54451 0.41723 0.0
H1528 H 0.55017 0.54541 0.33542 0.0
H1529 H 0.55936 0.57473 0.36714 0.0
C1530 C 0.54016 0.66929 0.35711 0.0
C1531 C 0.55151 0.6687 0.32017 0.0
C1532 C 0.53936 0.65536 0.38817 0.0
C1533 C 0.54995 0.64058 0.38315 0.0
C1534 C 0.56124 0.63991 0.34629 0.0
C1535 C 0.56207 0.65384 0.31527 0.0
C1536 C 0.54905 0.62569 0.41596 0.0
C1537 C 0.54482 0.6084 0.40032 0.0
C1538 C 0.55159 0.62855 0.46251 0.0
C1539 C 0.55692 0.64633 0.48091 0.0
C1540 C 0.57201 0.65548 0.46506 0.0
C1541 C 0.57683 0.67235 0.48209 0.0
C1542 C 0.56673 0.68016 0.51522 0.0
C1543 C 0.55181 0.67109 0.53148 0.0
C1544 C 0.54692 0.65423 0.51452 0.0
C1545 C 0.54619 0.55128 0.53216 0.0
C1546 C 0.5355 0.55362 0.56964 0.0
C1547 C 0.55009 0.56554 0.50342 0.0
C1548 C 0.5426 0.58219 0.51026 0.0
C1549 C 0.53245 0.58465 0.54893 0.0
C1550 C 0.52908 0.57054 0.57859 0.0
C1551 C 0.54487 0.59686 0.47679 0.0
C1552 C 0.54941 0.61417 0.49222 0.0
C1553 C 0.5425 0.59401 0.42997 0.0
C1554 C 0.53691 0.57642 0.41081 0.0
C1555 C 0.52123 0.56779 0.42449 0.0
C1556 C 0.51616 0.55114 0.40643 0.0
C1557 C 0.5266 0.54308 0.37441 0.0
C1558 C 0.54211 0.55166 0.36027 0.0
C1559 C 0.54724 0.56829 0.37823 0.0
H1560 H 0.52266 0.53019 0.36049 0.0
H1561 H 0.57047 0.69322 0.52836 0.0
H1562 H 0.83302 0.46514 0.37072 0.0
H1563 H 0.85804 0.47048 0.42079 0.0
H1564 H 0.87969 0.50956 0.32892 0.0
H1565 H 0.8547 0.50417 0.27845 0.0
H1566 H 0.90465 0.4893 0.35935 0.0
H1567 H 0.8597 0.52241 0.42534 0.0
H1568 H 0.83028 0.52783 0.45452 0.0
H1569 H 0.83709 0.48846 0.55651 0.0
H1570 H 0.86649 0.4826 0.52757 0.0
H1571 H 0.96452 0.52549 0.5301 0.0
H1572 H 0.94007 0.5237 0.47615 0.0
H1573 H 0.92144 0.47445 0.53605 0.0
H1574 H 0.94605 0.47583 0.58892 0.0
H1575 H 0.89537 0.50274 0.52041 0.0
H1576 H 0.94066 0.46937 0.44836 0.0
H1577 H 0.96976 0.46486 0.41598 0.0
H1578 H 0.96206 0.5074 0.32296 0.0
H1579 H 0.93302 0.51238 0.35536 0.0
C1580 C 0.84306 0.47495 0.36131 0.0
C1581 C 0.84182 0.48432 0.32079 0.0
C1582 C 0.85735 0.478 0.38995 0.0
C1583 C 0.87061 0.49065 0.379 0.0
C1584 C 0.8696 0.49977 0.33812 0.0
C1585 C 0.85534 0.49665 0.30928 0.0
C1586 C 0.88552 0.49425 0.41027 0.0
C1587 C 0.90262 0.49255 0.39439 0.0
C1588 C 0.88288 0.49838 0.4561 0.0
C1589 C 0.86527 0.50196 0.47402 0.0
C1590 C 0.85489 0.51481 0.45381 0.0
C1591 C 0.83822 0.51798 0.47034 0.0
C1592 C 0.83181 0.50847 0.5073 0.0
C1593 C 0.84208 0.49581 0.52789 0.0
C1594 C 0.85876 0.49257 0.51146 0.0
C1595 C 0.95513 0.51436 0.53184 0.0
C1596 C 0.95716 0.50079 0.56358 0.0
C1597 C 0.94126 0.51331 0.50095 0.0
C1598 C 0.92905 0.4989 0.50211 0.0
C1599 C 0.93078 0.48563 0.53461 0.0
C1600 C 0.94484 0.48644 0.56469 0.0
C1601 C 0.91439 0.49753 0.46952 0.0
C1602 C 0.89735 0.49968 0.48524 0.0
C1603 C 0.91711 0.49412 0.42343 0.0
C1604 C 0.93478 0.49146 0.40485 0.0
C1605 C 0.94528 0.47796 0.42152 0.0
C1606 C 0.96174 0.47527 0.40302 0.0
C1607 C 0.96779 0.48589 0.36758 0.0
C1608 C 0.95739 0.49922 0.35053 0.0
C1609 C 0.94093 0.50199 0.36897 0.0
H1610 H 0.98051 0.48374 0.35321 0.0
H1611 H 0.81889 0.51093 0.52004 0.0
loop_
_geom_bond_atom_site_label_1
_geom_bond_atom_site_label_2
_geom_bond_distance
_geom_bond_site_symmetry_2
_ccdc_geom_bond_type
C0 C1 1.264 . S
C0 C5 1.479 . S
C0 C10 1.465 . S
C1 C0 1.264 . S
C1 C3 1.339 . S
C1 H28 0.931 . S
C2 C3 1.395 . S
C2 C4 1.320 . S
C3 C1 1.339 . S
C3 C2 1.395 . S
C3 H29 0.929 . S
C4 C2 1.320 . S
C4 C5 1.405 . S
C4 H30 0.930 . S
C5 C0 1.479 . S
C5 C4 1.405 . S
C5 H31 0.931 . S
U6 O7 2.454 . S
U6 O8 2.458 1_554 S
U6 C9 2.984 . S
U6 C10 2.847 . S
U6 C23 2.882 1_554 S
U6 O24 2.441 . S
U6 O25 2.420 . S
U6 O26 2.455 1_554 S
U6 O27 2.449 . S
O7 U6 2.454 . S
O7 C9 1.353 . S
O8 U6 2.458 1_556 S
O8 C9 1.286 1_556 S
C9 U6 2.984 . S
C9 O7 1.353 . S
C9 O8 1.286 1_554 S
C9 C11 1.363 . S
C10 C0 1.465 . S
C10 U6 2.847 . S
C10 O24 1.249 . S
C10 O25 1.202 . S
C11 C9 1.363 . S
C11 C13 1.408 . S
C11 C16 1.342 1_554 S
C12 C13 1.310 . S
C12 C15 1.461 1_554 S
C12 H32 0.932 . S
C13 C11 1.408 . S
C13 C12 1.310 . S
C13 H33 0.930 . S
C14 C15 1.474 . S
C14 C16 1.285 . S
C14 H34 0.929 . S
C15 C12 1.461 1_556 S
C15 C14 1.474 . S
C16 C11 1.342 1_556 S
C16 C14 1.285 . S
C16 H35 0.930 . S
C17 C20 1.424 . S
C17 C22 1.245 . S
C17 C23 1.428 . S
C18 C21 1.260 . S
C18 C22 1.477 . S
C18 H36 0.932 . S
C19 C20 1.384 . S
C19 C21 1.479 . S
C19 H37 0.929 . S
C20 C17 1.424 . S
C20 C19 1.384 . S
C20 H38 0.928 . S
C21 C18 1.260 . S
C21 C19 1.479 . S
C22 C17 1.245 . S
C22 C18 1.477 . S
C22 H39 0.932 . S
C23 U6 2.882 1_556 S
C23 C17 1.428 . S
C23 O26 1.301 . S
C23 O27 1.282 1_556 S
O24 U6 2.441 . S
O24 C10 1.249 . S
O25 U6 2.420 . S
O25 C10 1.202 . S
O26 U6 2.455 1_556 S
O26 C23 1.301 . S
O27 U6 2.449 . S
O27 C23 1.282 1_554 S
H28 C1 0.931 . S
H29 C3 0.929 . S
H30 C4 0.930 . S
H31 C5 0.931 . S
H32 C12 0.932 . S
H33 C13 0.930 . S
H34 C14 0.929 . S
H35 C16 0.930 . S
H36 C18 0.932 . S
H37 C19 0.929 . S
H38 C20 0.928 . S
H39 C22 0.932 . S
C40 C41 1.264 . S
C40 C45 1.481 . S
C40 C50 1.465 . S
C41 C40 1.264 . S
C41 C43 1.339 . S
C41 H68 0.931 . S
C42 C43 1.395 1_655 S
C42 C44 1.320 . S
C43 C41 1.339 . S
C43 C42 1.395 1_455 S
C43 H69 0.929 . S
C44 C42 1.320 . S
C44 C45 1.402 1_655 S
C44 H70 0.930 . S
C45 C40 1.481 . S
C45 C44 1.402 1_455 S
C45 H71 0.928 . S
U46 O47 2.454 1_455 S
U46 O48 2.458 1_455 S
U46 C49 2.984 1_455 S
U46 C50 2.847 . S
U46 C63 2.882 . S
U46 O64 2.441 . S
U46 O65 2.420 . S
U46 O66 2.455 . S
U46 O67 2.449 . S
O47 U46 2.454 1_655 S
O47 C49 1.353 . S
O48 U46 2.458 1_655 S
O48 C49 1.286 . S
C49 U46 2.984 1_655 S
C49 O47 1.353 . S
C49 O48 1.286 . S
C49 C51 1.363 . S
C50 C40 1.465 . S
C50 U46 2.847 . S
C50 O64 1.249 . S
C50 O65 1.202 . S
C51 C49 1.363 . S
C51 C53 1.408 . S
C51 C56 1.342 . S
C52 C53 1.310 . S
C52 C55 1.461 . S
C52 H72 0.932 . S
C53 C51 1.408 . S
C53 C52 1.310 . S
C53 H73 0.930 . S
C54 C55 1.474 . S
C54 C56 1.285 . S
C54 H74 0.929 1_554 S
C55 C52 1.461 . S
C55 C54 1.474 . S
C56 C51 1.342 . S
C56 C54 1.285 . S
C56 H75 0.930 . S
C57 C60 1.424 . S
C57 C62 1.245 1_554 S
C57 C63 1.428 . S
C58 C61 1.251 1_455 S
C58 C62 1.477 . S
C58 H76 0.932 . S
C59 C60 1.384 1_556 S
C59 C61 1.474 1_455 S
C59 H77 0.929 1_556 S
C60 C57 1.424 . S
C60 C59 1.384 1_554 S
C60 H78 0.928 . S
C61 C58 1.251 1_655 S
C61 C59 1.474 1_655 S
C62 C57 1.245 1_556 S
C62 C58 1.477 . S
C62 H79 0.932 . S
C63 U46 2.882 . S
C63 C57 1.428 . S
C63 O66 1.301 . S
C63 O67 1.282 . S
O64 U46 2.441 . S
O64 C50 1.249 . S
O65 U46 2.420 . S
O65 C50 1.202 . S
O66 U46 2.455 . S
O66 C63 1.301 . S
O67 U46 2.449 . S
O67 C63 1.282 . S
H68 C41 0.931 . S
H69 C43 0.929 . S
H70 C44 0.930 . S
H71 C45 0.928 . S
H72 C52 0.932 . S
H73 C53 0.930 . S
H74 C54 0.929 1_556 S
H75 C56 0.930 . S
H76 C58 0.932 . S
H77 C59 0.929 1_554 S
H78 C60 0.928 . S
H79 C62 0.932 . S
C80 C81 1.264 . S
C80 C85 1.479 . S
C80 C90 1.465 . S
C81 C80 1.264 . S
C81 C83 1.339 . S
C81 H108 0.931 . S
C82 C83 1.395 . S
C82 C84 1.320 . S
C83 C81 1.339 . S
C83 C82 1.395 . S
C83 H109 0.929 . S
C84 C82 1.320 . S
C84 C85 1.405 . S
C84 H110 0.920 1_545 S
C85 C80 1.479 . S
C85 C84 1.405 . S
C85 H111 0.931 . S
U86 O87 2.454 . S
U86 O88 2.458 . S
U86 C89 2.984 . S
U86 C90 2.847 . S
U86 C103 2.882 . S
U86 O104 2.441 . S
U86 O105 2.420 . S
U86 O106 2.455 1_554 S
U86 O107 2.449 . S
O87 U86 2.454 . S
O87 C89 1.353 . S
O88 U86 2.458 . S
O88 C89 1.286 . S
C89 U86 2.984 . S
C89 O87 1.353 . S
C89 O88 1.286 . S
C89 C91 1.363 . S
C90 C80 1.465 . S
C90 U86 2.847 . S
C90 O104 1.249 . S
C90 O105 1.202 . S
C91 C89 1.363 . S
C91 C93 1.408 . S
C91 C96 1.351 1_554 S
C92 C93 1.310 . S
C92 C95 1.460 1_545 S
C92 H112 0.935 . S
C93 C91 1.408 . S
C93 C92 1.310 . S
C93 H113 0.930 . S
C94 C95 1.475 1_556 S
C94 C96 1.278 1_565 S
C94 H114 0.933 . S
C95 C92 1.460 1_565 S
C95 C94 1.475 1_554 S
C96 C91 1.351 1_556 S
C96 C94 1.278 1_545 S
C96 H115 0.930 . S
C97 C100 1.424 . S
C97 C102 1.245 . S
C97 C103 1.428 1_556 S
C98 C101 1.260 . S
C98 C102 1.477 . S
C98 H116 0.932 . S
C99 C100 1.384 . S
C99 C101 1.479 . S
C99 H117 0.929 . S
C100 C97 1.424 . S
C100 C99 1.384 . S
C100 H118 0.928 1_556 S
C101 C98 1.260 . S
C101 C99 1.479 . S
C102 C97 1.245 . S
C102 C98 1.477 . S
C102 H119 0.932 . S
C103 U86 2.882 . S
C103 C97 1.428 1_554 S
C103 O106 1.301 1_554 S
C103 O107 1.282 . S
O104 U86 2.441 . S
O104 C90 1.249 . S
O105 U86 2.420 . S
O105 C90 1.202 . S
O106 U86 2.455 1_556 S
O106 C103 1.301 1_556 S
O107 U86 2.449 . S
O107 C103 1.282 . S
H108 C81 0.931 . S
H109 C83 0.929 . S
H110 C84 0.920 1_565 S
H111 C85 0.931 . S
H112 C92 0.935 . S
H113 C93 0.930 . S
H114 C94 0.933 . S
H115 C96 0.930 . S
H116 C98 0.932 . S
H117 C99 0.929 . S
H118 C100 0.928 1_554 S
H119 C102 0.932 . S
C120 C121 1.264 . S
C120 C125 1.479 . S
C120 C130 1.465 . S
C121 C120 1.264 . S
C121 C123 1.339 . S
C121 H148 0.931 . S
C122 C123 1.395 . S
C122 C124 1.320 . S
C123 C121 1.339 . S
C123 C122 1.395 . S
C123 H149 0.929 . S
C124 C122 1.320 . S
C124 C125 1.405 . S
C124 H150 0.930 . S
C125 C120 1.479 . S
C125 C124 1.405 . S
C125 H151 0.931 . S
U126 O127 2.454 . S
U126 O128 2.458 . S
U126 C129 2.984 . S
U126 C130 2.847 . S
U126 C143 2.882 1_554 S
U126 O144 2.441 . S
U126 O145 2.420 . S
U126 O146 2.455 1_554 S
U126 O147 2.449 . S
O127 U126 2.454 . S
O127 C129 1.353 . S
O128 U126 2.458 . S
O128 C129 1.286 . S
C129 U126 2.984 . S
C129 O127 1.353 . S
C129 O128 1.286 . S
C129 C131 1.363 . S
C130 C120 1.465 . S
C130 U126 2.847 . S
C130 O144 1.249 . S
C130 O145 1.202 . S
C131 C129 1.363 . S
C131 C133 1.408 . S
C131 C136 1.342 1_554 S
C132 C133 1.310 . S
C132 C135 1.461 1_554 S
C132 H152 0.932 . S
C133 C131 1.408 . S
C133 C132 1.310 . S
C133 H153 0.930 . S
C134 C135 1.474 . S
C134 C136 1.285 . S
C134 H154 0.929 . S
C135 C132 1.461 1_556 S
C135 C134 1.474 . S
C136 C131 1.342 1_556 S
C136 C134 1.285 . S
C136 H155 0.930 . S
C137 C140 1.424 . S
C137 C142 1.245 . S
C137 C143 1.428 . S
C138 C141 1.260 . S
C138 C142 1.477 . S
C138 H156 0.932 . S
C139 C140 1.384 . S
C139 C141 1.479 . S
C139 H157 0.929 . S
C140 C137 1.424 . S
C140 C139 1.384 . S
C140 H158 0.928 . S
C141 C138 1.260 . S
C141 C139 1.479 . S
C142 C137 1.245 . S
C142 C138 1.477 . S
C142 H159 0.932 . S
C143 U126 2.882 1_556 S
C143 C137 1.428 . S
C143 O146 1.301 . S
C143 O147 1.282 1_556 S
O144 U126 2.441 . S
O144 C130 1.249 . S
O145 U126 2.420 . S
O145 C130 1.202 . S
O146 U126 2.455 1_556 S
O146 C143 1.301 . S
O147 U126 2.449 . S
O147 C143 1.282 1_554 S
H148 C121 0.931 . S
H149 C123 0.929 . S
H150 C124 0.930 . S
H151 C125 0.931 . S
H152 C132 0.932 . S
H153 C133 0.930 . S
H154 C134 0.929 . S
H155 C136 0.930 . S
H156 C138 0.932 . S
H157 C139 0.929 . S
H158 C140 0.928 . S
H159 C142 0.932 . S
C160 C161 1.264 . S
C160 C165 1.479 . S
C160 C170 1.465 . S
C161 C160 1.264 . S
C161 C163 1.339 . S
C161 H188 0.931 . S
C162 C163 1.395 . S
C162 C164 1.320 . S
C163 C161 1.339 . S
C163 C162 1.395 . S
C163 H189 0.929 . S
C164 C162 1.320 . S
C164 C165 1.405 . S
C164 H190 0.930 . S
C165 C160 1.479 . S
C165 C164 1.405 . S
C165 H191 0.931 . S
U166 O167 2.454 . S
U166 O168 2.458 . S
U166 C169 2.984 . S
U166 C170 2.847 . S
U166 C183 2.882 . S
U166 O184 2.441 . S
U166 O185 2.420 . S
U166 O186 2.455 . S
U166 O187 2.449 . S
O167 U166 2.454 . S
O167 C169 1.353 . S
O168 U166 2.458 . S
O168 C169 1.286 . S
C169 U166 2.984 . S
C169 O167 1.353 . S
C169 O168 1.286 . S
C169 C171 1.363 . S
C170 C160 1.465 . S
C170 U166 2.847 . S
C170 O184 1.249 . S
C170 O185 1.202 . S
C171 C169 1.363 . S
C171 C173 1.408 . S
C171 C176 1.342 . S
C172 C173 1.310 . S
C172 C175 1.461 . S
C172 H192 0.932 . S
C173 C171 1.408 . S
C173 C172 1.310 . S
C173 H193 0.930 . S
C174 C175 1.474 . S
C174 C176 1.285 . S
C174 H194 0.929 . S
C175 C172 1.461 . S
C175 C174 1.474 . S
C176 C171 1.342 . S
C176 C174 1.285 . S
C176 H195 0.930 . S
C177 C180 1.424 . S
C177 C182 1.245 . S
C177 C183 1.428 . S
C178 C181 1.260 . S
C178 C182 1.477 . S
C178 H196 0.932 . S
C179 C180 1.384 . S
C179 C181 1.479 . S
C179 H197 0.929 . S
C180 C177 1.424 . S
C180 C179 1.384 . S
C180 H198 0.928 . S
C181 C178 1.260 . S
C181 C179 1.479 . S
C182 C177 1.245 . S
C182 C178 1.477 . S
C182 H199 0.932 . S
C183 U166 2.882 . S
C183 C177 1.428 . S
C183 O186 1.301 . S
C183 O187 1.282 . S
O184 U166 2.441 . S
O184 C170 1.249 . S
O185 U166 2.420 . S
O185 C170 1.202 . S
O186 U166 2.455 . S
O186 C183 1.301 . S
O187 U166 2.449 . S
O187 C183 1.282 . S
H188 C161 0.931 . S
H189 C163 0.929 . S
H190 C164 0.930 . S
H191 C165 0.931 . S
H192 C172 0.932 . S
H193 C173 0.930 . S
H194 C174 0.929 . S
H195 C176 0.930 . S
H196 C178 0.932 . S
H197 C179 0.929 . S
H198 C180 0.928 . S
H199 C182 0.932 . S
C200 C201 1.264 . S
C200 C205 1.479 . S
C200 C210 1.465 . S
C201 C200 1.264 . S
C201 C203 1.339 . S
C201 H228 0.931 . S
C202 C203 1.395 . S
C202 C204 1.320 . S
C203 C201 1.339 . S
C203 C202 1.395 . S
C203 H229 0.929 . S
C204 C202 1.320 . S
C204 C205 1.405 . S
C204 H230 0.930 . S
C205 C200 1.479 . S
C205 C204 1.405 . S
C205 H231 0.931 . S
U206 O207 2.454 . S
U206 O208 2.458 . S
U206 C209 2.984 . S
U206 C210 2.847 . S
U206 C223 2.882 . S
U206 O224 2.441 . S
U206 O225 2.420 . S
U206 O226 2.455 . S
U206 O227 2.449 . S
O207 U206 2.454 . S
O207 C209 1.353 . S
O208 U206 2.458 . S
O208 C209 1.286 . S
C209 U206 2.984 . S
C209 O207 1.353 . S
C209 O208 1.286 . S
C209 C211 1.363 . S
C210 C200 1.465 . S
C210 U206 2.847 . S
C210 O224 1.249 . S
C210 O225 1.202 . S
C211 C209 1.363 . S
C211 C213 1.408 . S
C211 C216 1.342 . S
C212 C213 1.310 . S
C212 C215 1.461 . S
C212 H232 0.932 . S
C213 C211 1.408 . S
C213 C212 1.310 . S
C213 H233 0.930 . S
C214 C215 1.474 . S
C214 C216 1.285 . S
C214 H234 0.929 . S
C215 C212 1.461 . S
C215 C214 1.474 . S
C216 C211 1.342 . S
C216 C214 1.285 . S
C216 H235 0.930 . S
C217 C220 1.424 . S
C217 C222 1.245 . S
C217 C223 1.428 . S
C218 C221 1.260 . S
C218 C222 1.477 . S
C218 H236 0.932 . S
C219 C220 1.384 . S
C219 C221 1.479 . S
C219 H237 0.929 . S
C220 C217 1.424 . S
C220 C219 1.384 . S
C220 H238 0.928 . S
C221 C218 1.260 . S
C221 C219 1.479 . S
C222 C217 1.245 . S
C222 C218 1.477 . S
C222 H239 0.932 . S
C223 U206 2.882 . S
C223 C217 1.428 . S
C223 O226 1.301 . S
C223 O227 1.282 . S
O224 U206 2.441 . S
O224 C210 1.249 . S
O225 U206 2.420 . S
O225 C210 1.202 . S
O226 U206 2.455 . S
O226 C223 1.301 . S
O227 U206 2.449 . S
O227 C223 1.282 . S
H228 C201 0.931 . S
H229 C203 0.929 . S
H230 C204 0.930 . S
H231 C205 0.931 . S
H232 C212 0.932 . S
H233 C213 0.930 . S
H234 C214 0.929 . S
H235 C216 0.930 . S
H236 C218 0.932 . S
H237 C219 0.929 . S
H238 C220 0.928 . S
H239 C222 0.932 . S
C240 C241 1.264 . S
C240 C245 1.479 . S
C240 C250 1.465 . S
C241 C240 1.264 . S
C241 C243 1.339 . S
C241 H268 0.931 . S
C242 C243 1.395 . S
C242 C244 1.320 . S
C243 C241 1.339 . S
C243 C242 1.395 . S
C243 H269 0.929 . S
C244 C242 1.320 . S
C244 C245 1.405 . S
C244 H270 0.924 1_545 S
C245 C240 1.479 . S
C245 C244 1.405 . S
C245 H271 0.931 . S
U246 O247 2.454 . S
U246 O248 2.458 . S
U246 C249 2.984 . S
U246 C250 2.847 . S
U246 C263 2.882 . S
U246 O264 2.441 . S
U246 O265 2.420 . S
U246 O266 2.455 . S
U246 O267 2.449 . S
O247 U246 2.454 . S
O247 C249 1.353 . S
O248 U246 2.458 . S
O248 C249 1.286 . S
C249 U246 2.984 . S
C249 O247 1.353 . S
C249 O248 1.286 . S
C249 C251 1.363 . S
C250 C240 1.465 . S
C250 U246 2.847 . S
C250 O264 1.249 . S
C250 O265 1.202 . S
C251 C249 1.363 . S
C251 C253 1.408 . S
C251 C256 1.342 . S
C252 C253 1.310 . S
C252 C255 1.460 . S
C252 H272 0.934 . S
C253 C251 1.408 . S
C253 C252 1.310 . S
C253 H273 0.930 . S
C254 C255 1.474 1_565 S
C254 C256 1.285 1_565 S
C254 H274 0.931 . S
C255 C252 1.460 . S
C255 C254 1.474 1_545 S
C256 C251 1.342 . S
C256 C254 1.285 1_545 S
C256 H275 0.934 . S
C257 C260 1.424 . S
C257 C262 1.245 . S
C257 C263 1.428 . S
C258 C261 1.260 . S
C258 C262 1.477 . S
C258 H276 0.932 . S
C259 C260 1.384 . S
C259 C261 1.479 . S
C259 H277 0.929 . S
C260 C257 1.424 . S
C260 C259 1.384 . S
C260 H278 0.928 . S
C261 C258 1.260 . S
C261 C259 1.479 . S
C262 C257 1.245 . S
C262 C258 1.477 . S
C262 H279 0.932 . S
C263 U246 2.882 . S
C263 C257 1.428 . S
C263 O266 1.301 . S
C263 O267 1.282 . S
O264 U246 2.441 . S
O264 C250 1.249 . S
O265 U246 2.420 . S
O265 C250 1.202 . S
O266 U246 2.455 . S
O266 C263 1.301 . S
O267 U246 2.449 . S
O267 C263 1.282 . S
H268 C241 0.931 . S
H269 C243 0.929 . S
H270 C244 0.924 1_565 S
H271 C245 0.931 . S
H272 C252 0.934 . S
H273 C253 0.930 . S
H274 C254 0.931 . S
H275 C256 0.934 . S
H276 C258 0.932 . S
H277 C259 0.929 . S
H278 C260 0.928 . S
H279 C262 0.932 . S
C280 C281 1.264 . S
C280 C285 1.479 . S
C280 C290 1.465 . S
C281 C280 1.264 . S
C281 C283 1.339 . S
C281 H308 0.931 . S
C282 C283 1.395 . S
C282 C284 1.320 . S
C283 C281 1.339 . S
C283 C282 1.395 . S
C283 H309 0.929 . S
C284 C282 1.320 . S
C284 C285 1.405 . S
C284 H310 0.930 . S
C285 C280 1.479 . S
C285 C284 1.405 . S
C285 H311 0.931 . S
U286 O287 2.454 . S
U286 O288 2.458 . S
U286 C289 2.984 . S
U286 C290 2.847 . S
U286 C303 2.882 . S
U286 O304 2.441 . S
U286 O305 2.420 . S
U286 O306 2.455 . S
U286 O307 2.449 . S
O287 U286 2.454 . S
O287 C289 1.353 . S
O288 U286 2.458 . S
O288 C289 1.286 . S
C289 U286 2.984 . S
C289 O287 1.353 . S
C289 O288 1.286 . S
C289 C291 1.363 . S
C290 C280 1.465 . S
C290 U286 2.847 . S
C290 O304 1.249 . S
C290 O305 1.202 . S
C291 C289 1.363 . S
C291 C293 1.408 . S
C291 C296 1.342 . S
C292 C293 1.310 . S
C292 C295 1.461 . S
C292 H312 0.932 . S
C293 C291 1.408 . S
C293 C292 1.310 . S
C293 H313 0.930 . S
C294 C295 1.474 . S
C294 C296 1.285 . S
C294 H314 0.929 . S
C295 C292 1.461 . S
C295 C294 1.474 . S
C296 C291 1.342 . S
C296 C294 1.285 . S
C296 H315 0.930 . S
C297 C300 1.424 . S
C297 C302 1.245 . S
C297 C303 1.428 . S
C298 C301 1.260 . S
C298 C302 1.477 . S
C298 H316 0.932 . S
C299 C300 1.384 . S
C299 C301 1.479 . S
C299 H317 0.929 . S
C300 C297 1.424 . S
C300 C299 1.384 . S
C300 H318 0.928 . S
C301 C298 1.260 . S
C301 C299 1.479 . S
C302 C297 1.245 . S
C302 C298 1.477 . S
C302 H319 0.932 . S
C303 U286 2.882 . S
C303 C297 1.428 . S
C303 O306 1.301 . S
C303 O307 1.282 . S
O304 U286 2.441 . S
O304 C290 1.249 . S
O305 U286 2.420 . S
O305 C290 1.202 . S
O306 U286 2.455 . S
O306 C303 1.301 . S
O307 U286 2.449 . S
O307 C303 1.282 . S
H308 C281 0.931 . S
H309 C283 0.929 . S
H310 C284 0.930 . S
H311 C285 0.931 . S
H312 C292 0.932 . S
H313 C293 0.930 . S
H314 C294 0.929 . S
H315 C296 0.930 . S
H316 C298 0.932 . S
H317 C299 0.929 . S
H318 C300 0.928 . S
H319 C302 0.932 . S
O320 Zn321 1.954 . S
O320 C336 1.230 . S
Zn321 O320 1.954 . S
Zn321 O322 1.948 . S
Zn321 O328 1.888 1_565 S
Zn321 O333 1.962 . S
O322 Zn321 1.948 . S
O322 Zn323 1.905 1_565 S
O322 Zn324 1.952 . S
O322 Zn325 1.960 . S
Zn323 O322 1.905 1_545 S
Zn323 O326 1.933 1_455 S
Zn323 O329 1.941 . S
Zn323 O330 1.965 . S
Zn324 O322 1.952 . S
Zn324 O331 1.938 1_565 S
Zn324 O332 1.906 . S
Zn324 O342 1.953 . S
Zn325 O322 1.960 . S
Zn325 O327 1.932 1_455 S
Zn325 O334 1.977 . S
Zn325 O335 1.910 . S
O326 Zn323 1.933 1_655 S
O326 C337 1.226 . S
O327 Zn325 1.932 1_655 S
O327 C337 1.307 1_565 S
O328 Zn321 1.888 1_545 S
O328 C339 1.253 . S
O329 Zn323 1.941 . S
O329 C339 1.283 . S
O330 Zn323 1.965 . S
O330 C338 1.303 . S
O331 Zn324 1.938 1_545 S
O331 C338 1.247 . S
O332 Zn324 1.906 . S
O332 C340 1.304 . S
O333 Zn321 1.962 . S
O333 C341 1.311 . S
O334 Zn325 1.977 . S
O334 C340 1.272 . S
O335 Zn325 1.910 . S
O335 C341 1.231 . S
C336 O320 1.230 . S
C336 O342 1.298 . S
C337 O326 1.226 . S
C337 O327 1.307 1_545 S
C338 O330 1.303 . S
C338 O331 1.247 . S
C339 O328 1.253 . S
C339 O329 1.283 . S
C340 O332 1.304 . S
C340 O334 1.272 . S
C341 O333 1.311 . S
C341 O335 1.231 . S
O342 Zn324 1.953 . S
O342 C336 1.298 . S
O343 Zn344 1.953 . S
O343 C359 1.225 . S
Zn344 O343 1.953 . S
Zn344 O345 1.949 . S
Zn344 O351 1.919 . S
Zn344 O356 1.924 . S
O345 Zn344 1.949 . S
O345 Zn346 1.923 1_545 S
O345 Zn347 1.950 . S
O345 Zn348 1.945 1_545 S
Zn346 O345 1.923 1_565 S
Zn346 O349 1.933 . S
Zn346 O352 1.941 . S
Zn346 O353 1.965 . S
Zn347 O345 1.950 . S
Zn347 O354 1.938 . S
Zn347 O355 1.903 1_545 S
Zn347 O365 1.953 . S
Zn348 O345 1.945 1_565 S
Zn348 O350 1.932 . S
Zn348 O357 1.977 . S
Zn348 O358 1.910 1_565 S
O349 Zn346 1.933 . S
O349 C360 1.226 . S
O350 Zn348 1.932 . S
O350 C360 1.307 . S
O351 Zn344 1.919 . S
O351 C362 1.253 . S
O352 Zn346 1.941 . S
O352 C362 1.283 1_565 S
O353 Zn346 1.965 . S
O353 C361 1.303 . S
O354 Zn347 1.938 . S
O354 C361 1.247 1_545 S
O355 Zn347 1.903 1_565 S
O355 C363 1.308 . S
O356 Zn344 1.924 . S
O356 C364 1.311 . S
O357 Zn348 1.977 . S
O357 C363 1.272 . S
O358 Zn348 1.910 1_545 S
O358 C364 1.231 . S
C359 O343 1.225 . S
C359 O365 1.298 . S
C360 O349 1.226 . S
C360 O350 1.307 . S
C361 O353 1.303 . S
C361 O354 1.247 1_565 S
C362 O351 1.253 . S
C362 O352 1.283 1_545 S
C363 O355 1.308 . S
C363 O357 1.272 . S
C364 O356 1.311 . S
C364 O358 1.231 . S
O365 Zn347 1.953 . S
O365 C359 1.298 . S
O366 Zn367 1.953 . S
O366 C382 1.225 . S
Zn367 O366 1.953 . S
Zn367 O368 1.949 . S
Zn367 O374 1.919 . S
Zn367 O379 1.924 . S
O368 Zn367 1.949 . S
O368 Zn369 1.923 . S
O368 Zn370 1.950 . S
O368 Zn371 1.945 . S
Zn369 O368 1.923 . S
Zn369 O372 1.933 . S
Zn369 O375 1.941 . S
Zn369 O376 1.965 . S
Zn370 O368 1.950 . S
Zn370 O377 1.938 . S
Zn370 O378 1.906 . S
Zn370 O388 1.953 . S
Zn371 O368 1.945 . S
Zn371 O373 1.932 . S
Zn371 O380 1.977 . S
Zn371 O381 1.910 . S
O372 Zn369 1.933 . S
O372 C383 1.226 . S
O373 Zn371 1.932 . S
O373 C383 1.307 . S
O374 Zn367 1.919 . S
O374 C385 1.253 . S
O375 Zn369 1.941 . S
O375 C385 1.283 . S
O376 Zn369 1.965 . S
O376 C384 1.303 . S
O377 Zn370 1.938 . S
O377 C384 1.247 . S
O378 Zn370 1.906 . S
O378 C386 1.304 . S
O379 Zn367 1.924 . S
O379 C387 1.311 . S
O380 Zn371 1.977 . S
O380 C386 1.272 . S
O381 Zn371 1.910 . S
O381 C387 1.231 . S
C382 O366 1.225 . S
C382 O388 1.298 . S
C383 O372 1.226 . S
C383 O373 1.307 . S
C384 O376 1.303 . S
C384 O377 1.247 . S
C385 O374 1.253 . S
C385 O375 1.283 . S
C386 O378 1.304 . S
C386 O380 1.272 . S
C387 O379 1.311 . S
C387 O381 1.231 . S
O388 Zn370 1.953 . S
O388 C382 1.298 . S
O389 Zn390 1.953 1_655 S
O389 C405 1.225 . S
Zn390 O389 1.953 1_455 S
Zn390 O391 1.949 . S
Zn390 O397 1.919 . S
Zn390 O402 1.924 . S
O391 Zn390 1.949 . S
O391 Zn392 1.923 . S
O391 Zn393 1.950 1_455 S
O391 Zn394 1.945 . S
Zn392 O391 1.923 . S
Zn392 O395 1.933 . S
Zn392 O398 1.941 . S
Zn392 O399 1.965 1_455 S
Zn393 O391 1.950 1_655 S
Zn393 O400 1.938 . S
Zn393 O401 1.906 1_655 S
Zn393 O411 1.953 . S
Zn394 O391 1.945 . S
Zn394 O396 1.932 . S
Zn394 O403 1.977 . S
Zn394 O404 1.910 . S
O395 Zn392 1.933 . S
O395 C406 1.226 . S
O396 Zn394 1.932 . S
O396 C406 1.307 . S
O397 Zn390 1.919 . S
O397 C408 1.253 . S
O398 Zn392 1.941 . S
O398 C408 1.283 . S
O399 Zn392 1.965 1_655 S
O399 C407 1.303 . S
O400 Zn393 1.938 . S
O400 C407 1.247 . S
O401 Zn393 1.906 1_455 S
O401 C409 1.304 . S
O402 Zn390 1.924 . S
O402 C410 1.311 . S
O403 Zn394 1.977 . S
O403 C409 1.272 . S
O404 Zn394 1.910 . S
O404 C410 1.231 . S
C405 O389 1.225 . S
C405 O411 1.298 . S
C406 O395 1.226 . S
C406 O396 1.307 . S
C407 O399 1.303 . S
C407 O400 1.247 . S
C408 O397 1.253 . S
C408 O398 1.283 . S
C409 O401 1.304 . S
C409 O403 1.272 . S
C410 O402 1.311 . S
C410 O404 1.231 . S
O411 Zn393 1.953 . S
O411 C405 1.298 . S
H412 C430 0.951 . S
H413 C432 0.951 . S
H414 C434 0.950 . S
H415 C435 0.950 . S
H416 C437 0.950 . S
H417 C440 0.950 . S
H418 C441 0.950 . S
H419 C443 0.950 . S
H420 C444 0.950 . S
H421 C445 0.951 . S
H422 C447 0.951 . S
H423 C449 0.950 . S
H424 C450 0.950 . S
H425 C452 0.950 . S
H426 C455 0.950 . S
H427 C456 0.950 . S
H428 C458 0.950 . S
H429 C459 0.950 . S
C430 H412 0.951 . S
C430 C431 1.350 1_545 S
C430 C432 1.388 . S
C431 C430 1.350 1_565 S
C431 C435 1.401 . S
C432 H413 0.951 . S
C432 C430 1.388 . S
C432 C433 1.345 1_545 S
C433 C432 1.345 1_565 S
C433 C434 1.437 . S
C433 C436 1.500 . S
C434 H414 0.950 . S
C434 C433 1.437 . S
C434 C435 1.374 . S
C435 H415 0.950 . S
C435 C431 1.401 . S
C435 C434 1.374 . S
C436 C433 1.500 . S
C436 C437 1.373 . S
C436 C438 1.389 1_565 S
C437 H416 0.950 . S
C437 C436 1.373 . S
C437 C453 1.377 . S
C438 C436 1.389 1_545 S
C438 C439 1.524 . S
C438 C452 1.377 . S
C439 C438 1.524 . S
C439 C440 1.397 . S
C439 C444 1.363 . S
C440 H417 0.950 . S
C440 C439 1.397 . S
C440 C441 1.334 . S
C441 H418 0.950 . S
C441 C440 1.334 . S
C441 C442 1.287 . S
C442 C441 1.287 . S
C442 C443 1.524 . S
C442 H461 0.913 . S
C443 H419 0.950 . S
C443 C442 1.524 . S
C443 C444 1.415 . S
C444 H420 0.950 . S
C444 C439 1.363 . S
C444 C443 1.415 . S
C445 H421 0.951 . S
C445 C446 1.366 . S
C445 C447 1.388 . S
C446 C445 1.366 . S
C446 C450 1.385 1_565 S
C447 H422 0.951 . S
C447 C445 1.388 . S
C447 C448 1.366 . S
C448 C447 1.366 . S
C448 C449 1.414 1_565 S
C448 C451 1.499 . S
C449 H423 0.950 . S
C449 C448 1.414 1_545 S
C449 C450 1.374 . S
C450 H424 0.950 . S
C450 C446 1.385 1_545 S
C450 C449 1.374 . S
C451 C448 1.499 . S
C451 C452 1.373 1_565 S
C451 C453 1.389 . S
C452 H425 0.950 . S
C452 C438 1.377 . S
C452 C451 1.373 1_545 S
C453 C437 1.377 . S
C453 C451 1.389 . S
C453 C454 1.524 . S
C454 C453 1.524 . S
C454 C455 1.397 . S
C454 C459 1.363 . S
C455 H426 0.950 . S
C455 C454 1.397 . S
C455 C456 1.334 . S
C456 H427 0.950 . S
C456 C455 1.334 . S
C456 C457 1.287 . S
C457 C456 1.287 . S
C457 C458 1.524 . S
C457 H460 0.999 . S
C458 H428 0.950 . S
C458 C457 1.524 . S
C458 C459 1.415 . S
C459 H429 0.950 . S
C459 C454 1.363 . S
C459 C458 1.415 . S
H460 C457 0.999 . S
H461 C442 0.913 . S
H462 C480 0.951 . S
H463 C482 0.951 . S
H464 C484 0.950 . S
H465 C485 0.950 . S
H466 C487 0.950 . S
H467 C490 0.950 . S
H468 C491 0.950 . S
H469 C493 0.950 . S
H470 C494 0.950 . S
H471 C495 0.951 . S
H472 C497 0.951 . S
H473 C499 0.950 . S
H474 C500 0.950 . S
H475 C502 0.950 . S
H476 C505 0.950 . S
H477 C506 0.950 . S
H478 C508 0.950 . S
H479 C509 0.950 . S
C480 H462 0.951 . S
C480 C481 1.366 . S
C480 C482 1.388 . S
C481 C480 1.366 . S
C481 C485 1.385 . S
C482 H463 0.951 . S
C482 C480 1.388 . S
C482 C483 1.366 . S
C483 C482 1.366 . S
C483 C484 1.414 . S
C483 C486 1.499 . S
C484 H464 0.950 . S
C484 C483 1.414 . S
C484 C485 1.374 . S
C485 H465 0.950 . S
C485 C481 1.385 . S
C485 C484 1.374 . S
C486 C483 1.499 . S
C486 C487 1.373 . S
C486 C488 1.389 . S
C487 H466 0.950 . S
C487 C486 1.373 . S
C487 C503 1.377 . S
C488 C486 1.389 . S
C488 C489 1.524 . S
C488 C502 1.377 . S
C489 C488 1.524 . S
C489 C490 1.397 . S
C489 C494 1.363 . S
C490 H467 0.950 . S
C490 C489 1.397 . S
C490 C491 1.334 . S
C491 H468 0.950 . S
C491 C490 1.334 . S
C491 C492 1.287 . S
C492 C491 1.287 . S
C492 C493 1.524 . S
C492 H511 0.913 . S
C493 H469 0.950 . S
C493 C492 1.524 . S
C493 C494 1.415 . S
C494 H470 0.950 . S
C494 C489 1.363 . S
C494 C493 1.415 . S
C495 H471 0.951 . S
C495 C496 1.366 . S
C495 C497 1.388 . S
C496 C495 1.366 . S
C496 C500 1.385 . S
C497 H472 0.951 . S
C497 C495 1.388 . S
C497 C498 1.366 . S
C498 C497 1.366 . S
C498 C499 1.414 . S
C498 C501 1.499 . S
C499 H473 0.950 . S
C499 C498 1.414 . S
C499 C500 1.374 . S
C500 H474 0.950 . S
C500 C496 1.385 . S
C500 C499 1.374 . S
C501 C498 1.499 . S
C501 C502 1.373 . S
C501 C503 1.389 . S
C502 H475 0.950 . S
C502 C488 1.377 . S
C502 C501 1.373 . S
C503 C487 1.377 . S
C503 C501 1.389 . S
C503 C504 1.524 . S
C504 C503 1.524 . S
C504 C505 1.397 . S
C504 C509 1.363 . S
C505 H476 0.950 . S
C505 C504 1.397 . S
C505 C506 1.334 . S
C506 H477 0.950 . S
C506 C505 1.334 . S
C506 C507 1.287 . S
C507 C506 1.287 . S
C507 C508 1.524 . S
C507 H510 0.999 . S
C508 H478 0.950 . S
C508 C507 1.524 . S
C508 C509 1.415 . S
C509 H479 0.950 . S
C509 C504 1.363 . S
C509 C508 1.415 . S
H510 C507 0.999 . S
H511 C492 0.913 . S
H512 C530 0.951 . S
H513 C532 0.951 . S
H514 C534 0.950 . S
H515 C535 0.950 . S
H516 C537 0.950 . S
H517 C540 0.950 . S
H518 C541 0.950 . S
H519 C543 0.950 . S
H520 C544 0.950 . S
H521 C545 0.951 . S
H522 C547 0.951 . S
H523 C549 0.950 . S
H524 C550 0.950 . S
H525 C552 0.950 . S
H526 C555 0.950 . S
H527 C556 0.950 . S
H528 C558 0.950 . S
H529 C559 0.950 . S
C530 H512 0.951 . S
C530 C531 1.366 . S
C530 C532 1.388 . S
C531 C530 1.366 . S
C531 C535 1.385 . S
C532 H513 0.951 . S
C532 C530 1.388 . S
C532 C533 1.366 . S
C533 C532 1.366 . S
C533 C534 1.414 . S
C533 C536 1.499 . S
C534 H514 0.950 . S
C534 C533 1.414 . S
C534 C535 1.374 . S
C535 H515 0.950 . S
C535 C531 1.385 . S
C535 C534 1.374 . S
C536 C533 1.499 . S
C536 C537 1.373 . S
C536 C538 1.389 . S
C537 H516 0.950 . S
C537 C536 1.373 . S
C537 C553 1.377 . S
C538 C536 1.389 . S
C538 C539 1.524 . S
C538 C552 1.377 . S
C539 C538 1.524 . S
C539 C540 1.397 . S
C539 C544 1.363 . S
C540 H517 0.950 . S
C540 C539 1.397 . S
C540 C541 1.334 . S
C541 H518 0.950 . S
C541 C540 1.334 . S
C541 C542 1.287 . S
C542 C541 1.287 . S
C542 C543 1.524 . S
C542 H561 0.913 . S
C543 H519 0.950 . S
C543 C542 1.524 . S
C543 C544 1.415 . S
C544 H520 0.950 . S
C544 C539 1.363 . S
C544 C543 1.415 . S
C545 H521 0.951 . S
C545 C546 1.366 . S
C545 C547 1.388 . S
C546 C545 1.366 . S
C546 C550 1.385 . S
C547 H522 0.951 . S
C547 C545 1.388 . S
C547 C548 1.366 . S
C548 C547 1.366 . S
C548 C549 1.414 . S
C548 C551 1.499 . S
C549 H523 0.950 . S
C549 C548 1.414 . S
C549 C550 1.374 . S
C550 H524 0.950 . S
C550 C546 1.385 . S
C550 C549 1.374 . S
C551 C548 1.499 . S
C551 C552 1.373 . S
C551 C553 1.389 . S
C552 H525 0.950 . S
C552 C538 1.377 . S
C552 C551 1.373 . S
C553 C537 1.377 . S
C553 C551 1.389 . S
C553 C554 1.524 . S
C554 C553 1.524 . S
C554 C555 1.397 . S
C554 C559 1.363 . S
C555 H526 0.950 . S
C555 C554 1.397 . S
C555 C556 1.334 . S
C556 H527 0.950 . S
C556 C555 1.334 . S
C556 C557 1.287 . S
C557 C556 1.287 . S
C557 C558 1.524 . S
C557 H560 0.999 . S
C558 H528 0.950 . S
C558 C557 1.524 . S
C558 C559 1.415 . S
C559 H529 0.950 . S
C559 C554 1.363 . S
C559 C558 1.415 . S
H560 C557 0.999 . S
H561 C542 0.913 . S
H562 C580 0.951 . S
H563 C582 0.951 . S
H564 C584 0.950 . S
H565 C585 0.950 . S
H566 C587 0.950 . S
H567 C590 0.950 . S
H568 C591 0.950 . S
H569 C593 0.950 . S
H570 C594 0.950 . S
H571 C595 0.951 . S
H572 C597 0.951 . S
H573 C599 0.950 . S
H574 C600 0.950 . S
H575 C602 0.950 . S
H576 C605 0.950 . S
H577 C606 0.950 . S
H578 C608 0.950 . S
H579 C609 0.950 . S
C580 H562 0.951 . S
C580 C581 1.366 . S
C580 C582 1.388 . S
C581 C580 1.366 . S
C581 C585 1.385 . S
C582 H563 0.951 . S
C582 C580 1.388 . S
C582 C583 1.366 . S
C583 C582 1.366 . S
C583 C584 1.414 . S
C583 C586 1.499 . S
C584 H564 0.950 . S
C584 C583 1.414 . S
C584 C585 1.374 . S
C585 H565 0.950 . S
C585 C581 1.385 . S
C585 C584 1.374 . S
C586 C583 1.499 . S
C586 C587 1.373 . S
C586 C588 1.389 . S
C587 H566 0.950 . S
C587 C586 1.373 . S
C587 C603 1.377 . S
C588 C586 1.389 . S
C588 C589 1.524 . S
C588 C602 1.377 . S
C589 C588 1.524 . S
C589 C590 1.397 . S
C589 C594 1.363 . S
C590 H567 0.950 . S
C590 C589 1.397 . S
C590 C591 1.334 . S
C591 H568 0.950 . S
C591 C590 1.334 . S
C591 C592 1.287 . S
C592 C591 1.287 . S
C592 C593 1.524 . S
C592 H611 0.913 . S
C593 H569 0.950 . S
C593 C592 1.524 . S
C593 C594 1.415 . S
C594 H570 0.950 . S
C594 C589 1.363 . S
C594 C593 1.415 . S
C595 H571 0.951 . S
C595 C596 1.366 . S
C595 C597 1.388 . S
C596 C595 1.366 . S
C596 C600 1.385 . S
C597 H572 0.951 . S
C597 C595 1.388 . S
C597 C598 1.366 . S
C598 C597 1.366 . S
C598 C599 1.414 . S
C598 C601 1.499 . S
C599 H573 0.950 . S
C599 C598 1.414 . S
C599 C600 1.374 . S
C600 H574 0.950 . S
C600 C596 1.385 . S
C600 C599 1.374 . S
C601 C598 1.499 . S
C601 C602 1.373 . S
C601 C603 1.389 . S
C602 H575 0.950 . S
C602 C588 1.377 . S
C602 C601 1.373 . S
C603 C587 1.377 . S
C603 C601 1.389 . S
C603 C604 1.524 . S
C604 C603 1.524 . S
C604 C605 1.397 . S
C604 C609 1.363 . S
C605 H576 0.950 . S
C605 C604 1.397 . S
C605 C606 1.334 . S
C606 H577 0.950 . S
C606 C605 1.334 . S
C606 C607 1.287 . S
C607 C606 1.287 . S
C607 C608 1.524 . S
C607 H610 0.999 . S
C608 H578 0.950 . S
C608 C607 1.524 . S
C608 C609 1.415 . S
C609 H579 0.950 . S
C609 C604 1.363 . S
C609 C608 1.415 . S
H610 C607 0.999 . S
H611 C592 0.913 . S
H612 C630 0.945 1_554 S
H613 C632 0.951 . S
H614 C634 0.950 . S
H615 C635 0.950 . S
H616 C637 0.950 . S
H617 C640 0.950 . S
H618 C641 0.950 . S
H619 C643 0.950 . S
H620 C644 0.950 . S
H621 C645 0.951 . S
H622 C647 0.951 . S
H623 C649 0.950 . S
H624 C650 0.950 . S
H625 C652 0.950 . S
H626 C655 0.950 . S
H627 C656 0.950 . S
H628 C658 0.950 . S
H629 C659 0.950 . S
C630 H612 0.945 1_556 S
C630 C631 1.367 . S
C630 C632 1.392 . S
C631 C630 1.367 . S
C631 C635 1.384 1_545 S
C632 H613 0.951 . S
C632 C630 1.392 . S
C632 C633 1.366 . S
C633 C632 1.366 . S
C633 C634 1.414 1_545 S
C633 C636 1.499 . S
C634 H614 0.950 . S
C634 C633 1.414 1_565 S
C634 C635 1.374 . S
C635 H615 0.950 . S
C635 C631 1.384 1_565 S
C635 C634 1.374 . S
C636 C633 1.499 . S
C636 C637 1.373 1_545 S
C636 C638 1.389 . S
C637 H616 0.950 . S
C637 C636 1.373 1_565 S
C637 C653 1.377 . S
C638 C636 1.389 . S
C638 C639 1.524 . S
C638 C652 1.377 . S
C639 C638 1.524 . S
C639 C640 1.397 . S
C639 C644 1.363 . S
C640 H617 0.950 . S
C640 C639 1.397 . S
C640 C641 1.334 . S
C641 H618 0.950 . S
C641 C640 1.334 . S
C641 C642 1.287 . S
C642 C641 1.287 . S
C642 C643 1.524 . S
C642 H661 0.913 . S
C643 H619 0.950 . S
C643 C642 1.524 . S
C643 C644 1.415 . S
C644 H620 0.950 . S
C644 C639 1.363 . S
C644 C643 1.415 . S
C645 H621 0.951 . S
C645 C646 1.366 1_565 S
C645 C647 1.388 . S
C646 C645 1.366 1_545 S
C646 C650 1.385 . S
C647 H622 0.951 . S
C647 C645 1.388 . S
C647 C648 1.366 1_565 S
C648 C647 1.366 1_545 S
C648 C649 1.414 . S
C648 C651 1.499 . S
C649 H623 0.950 . S
C649 C648 1.414 . S
C649 C650 1.374 . S
C650 H624 0.950 . S
C650 C646 1.385 . S
C650 C649 1.374 . S
C651 C648 1.499 . S
C651 C652 1.373 . S
C651 C653 1.389 1_545 S
C652 H625 0.950 . S
C652 C638 1.377 . S
C652 C651 1.373 . S
C653 C637 1.377 . S
C653 C651 1.389 1_565 S
C653 C654 1.524 . S
C654 C653 1.524 . S
C654 C655 1.397 . S
C654 C659 1.363 . S
C655 H626 0.950 . S
C655 C654 1.397 . S
C655 C656 1.334 . S
C656 H627 0.950 . S
C656 C655 1.334 . S
C656 C657 1.287 . S
C657 C656 1.287 . S
C657 C658 1.524 . S
C657 H660 0.999 . S
C658 H628 0.950 . S
C658 C657 1.524 . S
C658 C659 1.415 . S
C659 H629 0.950 . S
C659 C654 1.363 . S
C659 C658 1.415 . S
H660 C657 0.999 . S
H661 C642 0.913 . S
H662 C680 0.951 1_554 S
H663 C682 0.951 . S
H664 C684 0.950 . S
H665 C685 0.950 . S
H666 C687 0.950 . S
H667 C690 0.950 . S
H668 C691 0.950 . S
H669 C693 0.950 . S
H670 C694 0.950 . S
H671 C695 0.951 . S
H672 C697 0.951 . S
H673 C699 0.950 . S
H674 C700 0.950 . S
H675 C702 0.950 . S
H676 C705 0.950 . S
H677 C706 0.950 . S
H678 C708 0.950 . S
H679 C709 0.950 . S
C680 H662 0.951 1_556 S
C680 C681 1.366 . S
C680 C682 1.388 . S
C681 C680 1.366 . S
C681 C685 1.385 . S
C682 H663 0.951 . S
C682 C680 1.388 . S
C682 C683 1.366 . S
C683 C682 1.366 . S
C683 C684 1.414 . S
C683 C686 1.499 . S
C684 H664 0.950 . S
C684 C683 1.414 . S
C684 C685 1.374 . S
C685 H665 0.950 . S
C685 C681 1.385 . S
C685 C684 1.374 . S
C686 C683 1.499 . S
C686 C687 1.373 . S
C686 C688 1.389 . S
C687 H666 0.950 . S
C687 C686 1.373 . S
C687 C703 1.377 . S
C688 C686 1.389 . S
C688 C689 1.524 . S
C688 C702 1.377 . S
C689 C688 1.524 . S
C689 C690 1.397 . S
C689 C694 1.363 . S
C690 H667 0.950 . S
C690 C689 1.397 . S
C690 C691 1.334 . S
C691 H668 0.950 . S
C691 C690 1.334 . S
C691 C692 1.287 . S
C692 C691 1.287 . S
C692 C693 1.524 . S
C692 H711 0.913 . S
C693 H669 0.950 . S
C693 C692 1.524 . S
C693 C694 1.415 . S
C694 H670 0.950 . S
C694 C689 1.363 . S
C694 C693 1.415 . S
C695 H671 0.951 . S
C695 C696 1.366 . S
C695 C697 1.388 . S
C696 C695 1.366 . S
C696 C700 1.385 . S
C697 H672 0.951 . S
C697 C695 1.388 . S
C697 C698 1.366 . S
C698 C697 1.366 . S
C698 C699 1.414 . S
C698 C701 1.499 . S
C699 H673 0.950 . S
C699 C698 1.414 . S
C699 C700 1.374 . S
C700 H674 0.950 . S
C700 C696 1.385 . S
C700 C699 1.374 . S
C701 C698 1.499 . S
C701 C702 1.373 . S
C701 C703 1.389 . S
C702 H675 0.950 . S
C702 C688 1.377 . S
C702 C701 1.373 . S
C703 C687 1.377 . S
C703 C701 1.389 . S
C703 C704 1.524 . S
C704 C703 1.524 . S
C704 C705 1.397 . S
C704 C709 1.363 . S
C705 H676 0.950 . S
C705 C704 1.397 . S
C705 C706 1.334 . S
C706 H677 0.950 . S
C706 C705 1.334 . S
C706 C707 1.287 . S
C707 C706 1.287 . S
C707 C708 1.524 . S
C707 H710 0.999 . S
C708 H678 0.950 . S
C708 C707 1.524 . S
C708 C709 1.415 . S
C709 H679 0.950 . S
C709 C704 1.363 . S
C709 C708 1.415 . S
H710 C707 0.999 . S
H711 C692 0.913 . S
H712 C730 0.951 1_554 S
H713 C732 0.951 . S
H714 C734 0.950 . S
H715 C735 0.950 . S
H716 C737 0.950 . S
H717 C740 0.950 . S
H718 C741 0.950 . S
H719 C743 0.950 . S
H720 C744 0.950 . S
H721 C745 0.951 . S
H722 C747 0.951 . S
H723 C749 0.950 . S
H724 C750 0.950 . S
H725 C752 0.950 . S
H726 C755 0.950 . S
H727 C756 0.950 . S
H728 C758 0.950 . S
H729 C759 0.950 . S
C730 H712 0.951 1_556 S
C730 C731 1.366 . S
C730 C732 1.388 . S
C731 C730 1.366 . S
C731 C735 1.385 . S
C732 H713 0.951 . S
C732 C730 1.388 . S
C732 C733 1.366 . S
C733 C732 1.366 . S
C733 C734 1.414 . S
C733 C736 1.499 . S
C734 H714 0.950 . S
C734 C733 1.414 . S
C734 C735 1.374 . S
C735 H715 0.950 . S
C735 C731 1.385 . S
C735 C734 1.374 . S
C736 C733 1.499 . S
C736 C737 1.373 . S
C736 C738 1.389 . S
C737 H716 0.950 . S
C737 C736 1.373 . S
C737 C753 1.377 . S
C738 C736 1.389 . S
C738 C739 1.524 . S
C738 C752 1.377 . S
C739 C738 1.524 . S
C739 C740 1.397 . S
C739 C744 1.363 . S
C740 H717 0.950 . S
C740 C739 1.397 . S
C740 C741 1.334 . S
C741 H718 0.950 . S
C741 C740 1.334 . S
C741 C742 1.287 . S
C742 C741 1.287 . S
C742 C743 1.524 . S
C742 H761 0.913 . S
C743 H719 0.950 . S
C743 C742 1.524 . S
C743 C744 1.415 . S
C744 H720 0.950 . S
C744 C739 1.363 . S
C744 C743 1.415 . S
C745 H721 0.951 . S
C745 C746 1.366 . S
C745 C747 1.388 . S
C746 C745 1.366 . S
C746 C750 1.385 . S
C747 H722 0.951 . S
C747 C745 1.388 . S
C747 C748 1.366 . S
C748 C747 1.366 . S
C748 C749 1.414 . S
C748 C751 1.499 . S
C749 H723 0.950 . S
C749 C748 1.414 . S
C749 C750 1.374 . S
C750 H724 0.950 . S
C750 C746 1.385 . S
C750 C749 1.374 . S
C751 C748 1.499 . S
C751 C752 1.373 . S
C751 C753 1.389 . S
C752 H725 0.950 . S
C752 C738 1.377 . S
C752 C751 1.373 . S
C753 C737 1.377 . S
C753 C751 1.389 . S
C753 C754 1.524 . S
C754 C753 1.524 . S
C754 C755 1.397 . S
C754 C759 1.363 . S
C755 H726 0.950 . S
C755 C754 1.397 . S
C755 C756 1.334 . S
C756 H727 0.950 . S
C756 C755 1.334 . S
C756 C757 1.287 . S
C757 C756 1.287 . S
C757 C758 1.524 . S
C757 H760 0.999 . S
C758 H728 0.950 . S
C758 C757 1.524 . S
C758 C759 1.415 . S
C759 H729 0.950 . S
C759 C754 1.363 . S
C759 C758 1.415 . S
H760 C757 0.999 . S
H761 C742 0.913 . S
H762 C780 0.951 . S
H763 C782 0.951 . S
H764 C784 0.950 . S
H765 C785 0.974 . S
H766 C787 0.950 . S
H767 C790 0.950 . S
H768 C791 0.950 . S
H769 C793 0.950 . S
H770 C794 0.950 . S
H771 C795 0.951 . S
H772 C797 0.951 . S
H773 C799 0.970 . S
H774 C800 0.950 1_655 S
H775 C802 0.950 . S
H776 C805 0.950 . S
H777 C806 0.950 . S
H778 C808 0.950 . S
H779 C809 0.950 . S
C780 H762 0.951 . S
C780 C781 1.366 1_556 S
C780 C782 1.388 . S
C781 C780 1.366 1_554 S
C781 C785 1.355 1_655 S
C782 H763 0.951 . S
C782 C780 1.388 . S
C782 C783 1.366 . S
C783 C782 1.366 . S
C783 C784 1.414 1_655 S
C783 C786 1.499 . S
C784 H764 0.950 . S
C784 C783 1.414 1_455 S
C784 C785 1.384 1_556 S
C785 H765 0.974 . S
C785 C781 1.355 1_455 S
C785 C784 1.384 1_554 S
C786 C783 1.499 . S
C786 C787 1.373 1_655 S
C786 C788 1.389 . S
C787 H766 0.950 . S
C787 C786 1.373 1_455 S
C787 C803 1.377 . S
C788 C786 1.389 . S
C788 C789 1.524 . S
C788 C802 1.377 . S
C789 C788 1.524 . S
C789 C790 1.397 . S
C789 C794 1.363 . S
C790 H767 0.950 . S
C790 C789 1.397 . S
C790 C791 1.334 . S
C791 H768 0.950 . S
C791 C790 1.334 . S
C791 C792 1.287 . S
C792 C791 1.287 . S
C792 C793 1.524 . S
C792 H811 0.913 . S
C793 H769 0.950 . S
C793 C792 1.524 . S
C793 C794 1.415 . S
C794 H770 0.950 . S
C794 C789 1.363 . S
C794 C793 1.415 . S
C795 H771 0.951 . S
C795 C796 1.366 . S
C795 C797 1.388 . S
C796 C795 1.366 . S
C796 C800 1.385 . S
C797 H772 0.951 . S
C797 C795 1.388 . S
C797 C798 1.366 . S
C798 C797 1.366 . S
C798 C799 1.400 1_455 S
C798 C801 1.499 . S
C799 H773 0.970 . S
C799 C798 1.400 1_655 S
C799 C800 1.369 1_655 S
C800 H774 0.950 1_455 S
C800 C796 1.385 . S
C800 C799 1.369 1_455 S
C801 C798 1.499 . S
C801 C802 1.373 1_455 S
C801 C803 1.389 . S
C802 H775 0.950 . S
C802 C788 1.377 . S
C802 C801 1.373 1_655 S
C803 C787 1.377 . S
C803 C801 1.389 . S
C803 C804 1.524 . S
C804 C803 1.524 . S
C804 C805 1.397 . S
C804 C809 1.363 . S
C805 H776 0.950 . S
C805 C804 1.397 . S
C805 C806 1.334 . S
C806 H777 0.950 . S
C806 C805 1.334 . S
C806 C807 1.287 . S
C807 C806 1.287 . S
C807 C808 1.524 . S
C807 H810 0.999 . S
C808 H778 0.950 . S
C808 C807 1.524 . S
C808 C809 1.415 . S
C809 H779 0.950 . S
C809 C804 1.363 . S
C809 C808 1.415 . S
H810 C807 0.999 . S
H811 C792 0.913 . S
H812 C830 0.951 . S
H813 C832 0.951 . S
H814 C834 0.950 . S
H815 C835 0.950 . S
H816 C837 0.950 . S
H817 C840 0.950 . S
H818 C841 0.950 . S
H819 C843 0.950 . S
H820 C844 0.950 . S
H821 C845 0.951 . S
H822 C847 0.951 . S
H823 C849 0.950 . S
H824 C850 0.950 . S
H825 C852 0.950 . S
H826 C855 0.950 . S
H827 C856 0.950 . S
H828 C858 0.950 . S
H829 C859 0.950 . S
C830 H812 0.951 . S
C830 C831 1.366 . S
C830 C832 1.388 . S
C831 C830 1.366 . S
C831 C835 1.385 . S
C832 H813 0.951 . S
C832 C830 1.388 . S
C832 C833 1.366 . S
C833 C832 1.366 . S
C833 C834 1.414 . S
C833 C836 1.499 . S
C834 H814 0.950 . S
C834 C833 1.414 . S
C834 C835 1.374 . S
C835 H815 0.950 . S
C835 C831 1.385 . S
C835 C834 1.374 . S
C836 C833 1.499 . S
C836 C837 1.373 . S
C836 C838 1.389 . S
C837 H816 0.950 . S
C837 C836 1.373 . S
C837 C853 1.377 . S
C838 C836 1.389 . S
C838 C839 1.524 . S
C838 C852 1.377 . S
C839 C838 1.524 . S
C839 C840 1.397 . S
C839 C844 1.363 . S
C840 H817 0.950 . S
C840 C839 1.397 . S
C840 C841 1.334 . S
C841 H818 0.950 . S
C841 C840 1.334 . S
C841 C842 1.287 . S
C842 C841 1.287 . S
C842 C843 1.524 . S
C842 H861 0.913 . S
C843 H819 0.950 . S
C843 C842 1.524 . S
C843 C844 1.415 . S
C844 H820 0.950 . S
C844 C839 1.363 . S
C844 C843 1.415 . S
C845 H821 0.951 . S
C845 C846 1.366 . S
C845 C847 1.388 . S
C846 C845 1.366 . S
C846 C850 1.385 . S
C847 H822 0.951 . S
C847 C845 1.388 . S
C847 C848 1.366 . S
C848 C847 1.366 . S
C848 C849 1.414 . S
C848 C851 1.499 . S
C849 H823 0.950 . S
C849 C848 1.414 . S
C849 C850 1.374 . S
C850 H824 0.950 . S
C850 C846 1.385 . S
C850 C849 1.374 . S
C851 C848 1.499 . S
C851 C852 1.373 . S
C851 C853 1.389 . S
C852 H825 0.950 . S
C852 C838 1.377 . S
C852 C851 1.373 . S
C853 C837 1.377 . S
C853 C851 1.389 . S
C853 C854 1.524 . S
C854 C853 1.524 . S
C854 C855 1.397 . S
C854 C859 1.363 . S
C855 H826 0.950 . S
C855 C854 1.397 . S
C855 C856 1.334 . S
C856 H827 0.950 . S
C856 C855 1.334 . S
C856 C857 1.287 . S
C857 C856 1.287 . S
C857 C858 1.524 . S
C857 H860 0.999 . S
C858 H828 0.950 . S
C858 C857 1.524 . S
C858 C859 1.415 . S
C859 H829 0.950 . S
C859 C854 1.363 . S
C859 C858 1.415 . S
H860 C857 0.999 . S
H861 C842 0.913 . S
H862 C880 0.951 . S
H863 C882 0.951 . S
H864 C884 0.950 . S
H865 C885 0.950 . S
H866 C887 0.950 . S
H867 C890 0.950 . S
H868 C891 0.950 . S
H869 C893 0.950 . S
H870 C894 0.950 . S
H871 C895 0.951 . S
H872 C897 0.951 . S
H873 C899 0.950 . S
H874 C900 0.950 . S
H875 C902 0.950 . S
H876 C905 0.950 . S
H877 C906 0.950 . S
H878 C908 0.950 . S
H879 C909 0.950 . S
C880 H862 0.951 . S
C880 C881 1.373 . S
C880 C882 1.388 . S
C881 C880 1.373 . S
C881 C885 1.377 1_545 S
C882 H863 0.951 . S
C882 C880 1.388 . S
C882 C883 1.382 . S
C883 C882 1.382 . S
C883 C884 1.400 1_545 S
C883 C886 1.497 . S
C884 H864 0.950 . S
C884 C883 1.400 1_565 S
C884 C885 1.374 . S
C885 H865 0.950 . S
C885 C881 1.377 1_565 S
C885 C884 1.374 . S
C886 C883 1.497 . S
C886 C887 1.345 1_545 S
C886 C888 1.414 . S
C887 H866 0.950 . S
C887 C886 1.345 1_565 S
C887 C903 1.377 . S
C888 C886 1.414 . S
C888 C889 1.524 . S
C888 C902 1.377 . S
C889 C888 1.524 . S
C889 C890 1.397 . S
C889 C894 1.363 . S
C890 H867 0.950 . S
C890 C889 1.397 . S
C890 C891 1.334 . S
C891 H868 0.950 . S
C891 C890 1.334 . S
C891 C892 1.287 . S
C892 C891 1.287 . S
C892 C893 1.524 . S
C892 H911 0.913 . S
C893 H869 0.950 . S
C893 C892 1.524 . S
C893 C894 1.415 . S
C894 H870 0.950 . S
C894 C889 1.363 . S
C894 C893 1.415 . S
C895 H871 0.951 . S
C895 C896 1.366 . S
C895 C897 1.388 . S
C896 C895 1.366 . S
C896 C900 1.385 1_565 S
C897 H872 0.951 . S
C897 C895 1.388 . S
C897 C898 1.366 . S
C898 C897 1.366 . S
C898 C899 1.414 1_565 S
C898 C901 1.499 . S
C899 H873 0.950 . S
C899 C898 1.414 1_545 S
C899 C900 1.374 . S
C900 H874 0.950 . S
C900 C896 1.385 1_545 S
C900 C899 1.374 . S
C901 C898 1.499 . S
C901 C902 1.373 1_565 S
C901 C903 1.389 . S
C902 H875 0.950 . S
C902 C888 1.377 . S
C902 C901 1.373 1_545 S
C903 C887 1.377 . S
C903 C901 1.389 . S
C903 C904 1.524 . S
C904 C903 1.524 . S
C904 C905 1.397 . S
C904 C909 1.363 . S
C905 H876 0.950 . S
C905 C904 1.397 . S
C905 C906 1.334 . S
C906 H877 0.950 . S
C906 C905 1.334 . S
C906 C907 1.287 . S
C907 C906 1.287 . S
C907 C908 1.524 . S
C907 H910 0.999 . S
C908 H878 0.950 . S
C908 C907 1.524 . S
C908 C909 1.415 . S
C909 H879 0.950 . S
C909 C904 1.363 . S
C909 C908 1.415 . S
H910 C907 0.999 . S
H911 C892 0.913 . S
H912 C930 0.951 . S
H913 C932 0.951 . S
H914 C934 0.950 . S
H915 C935 0.950 . S
H916 C937 0.950 . S
H917 C940 0.950 . S
H918 C941 0.950 . S
H919 C943 0.950 . S
H920 C944 0.950 . S
H921 C945 0.951 . S
H922 C947 0.951 . S
H923 C949 0.950 . S
H924 C950 0.950 . S
H925 C952 0.950 . S
H926 C955 0.950 . S
H927 C956 0.950 . S
H928 C958 0.950 . S
H929 C959 0.950 . S
C930 H912 0.951 . S
C930 C931 1.366 . S
C930 C932 1.388 . S
C931 C930 1.366 . S
C931 C935 1.385 . S
C932 H913 0.951 . S
C932 C930 1.388 . S
C932 C933 1.366 . S
C933 C932 1.366 . S
C933 C934 1.414 . S
C933 C936 1.499 . S
C934 H914 0.950 . S
C934 C933 1.414 . S
C934 C935 1.374 . S
C935 H915 0.950 . S
C935 C931 1.385 . S
C935 C934 1.374 . S
C936 C933 1.499 . S
C936 C937 1.373 . S
C936 C938 1.389 . S
C937 H916 0.950 . S
C937 C936 1.373 . S
C937 C953 1.377 . S
C938 C936 1.389 . S
C938 C939 1.524 . S
C938 C952 1.377 . S
C939 C938 1.524 . S
C939 C940 1.397 . S
C939 C944 1.363 . S
C940 H917 0.950 . S
C940 C939 1.397 . S
C940 C941 1.334 . S
C941 H918 0.950 . S
C941 C940 1.334 . S
C941 C942 1.287 . S
C942 C941 1.287 . S
C942 C943 1.524 . S
C942 H961 0.913 . S
C943 H919 0.950 . S
C943 C942 1.524 . S
C943 C944 1.415 . S
C944 H920 0.950 . S
C944 C939 1.363 . S
C944 C943 1.415 . S
C945 H921 0.951 . S
C945 C946 1.366 . S
C945 C947 1.388 . S
C946 C945 1.366 . S
C946 C950 1.385 . S
C947 H922 0.951 . S
C947 C945 1.388 . S
C947 C948 1.366 . S
C948 C947 1.366 . S
C948 C949 1.414 . S
C948 C951 1.499 . S
C949 H923 0.950 . S
C949 C948 1.414 . S
C949 C950 1.374 . S
C950 H924 0.950 . S
C950 C946 1.385 . S
C950 C949 1.374 . S
C951 C948 1.499 . S
C951 C952 1.373 . S
C951 C953 1.389 . S
C952 H925 0.950 . S
C952 C938 1.377 . S
C952 C951 1.373 . S
C953 C937 1.377 . S
C953 C951 1.389 . S
C953 C954 1.524 . S
C954 C953 1.524 . S
C954 C955 1.397 . S
C954 C959 1.363 . S
C955 H926 0.950 . S
C955 C954 1.397 . S
C955 C956 1.334 . S
C956 H927 0.950 . S
C956 C955 1.334 . S
C956 C957 1.287 . S
C957 C956 1.287 . S
C957 C958 1.524 . S
C957 H960 0.999 . S
C958 H928 0.950 . S
C958 C957 1.524 . S
C958 C959 1.415 . S
C959 H929 0.950 . S
C959 C954 1.363 . S
C959 C958 1.415 . S
H960 C957 0.999 . S
H961 C942 0.913 . S
H962 C980 0.951 . S
H963 C982 0.951 . S
H964 C984 0.950 . S
H965 C985 0.950 . S
H966 C987 0.950 . S
H967 C990 0.950 . S
H968 C991 0.950 . S
H969 C993 0.950 . S
H970 C994 0.950 . S
H971 C995 0.951 . S
H972 C997 0.951 . S
H973 C999 0.950 . S
H974 C1000 0.950 . S
H975 C1002 0.950 . S
H976 C1005 0.950 . S
H977 C1006 0.950 . S
H978 C1008 0.950 . S
H979 C1009 0.950 . S
C980 H962 0.951 . S
C980 C981 1.366 . S
C980 C982 1.388 . S
C981 C980 1.366 . S
C981 C985 1.385 . S
C982 H963 0.951 . S
C982 C980 1.388 . S
C982 C983 1.366 . S
C983 C982 1.366 . S
C983 C984 1.414 . S
C983 C986 1.499 . S
C984 H964 0.950 . S
C984 C983 1.414 . S
C984 C985 1.374 . S
C985 H965 0.950 . S
C985 C981 1.385 . S
C985 C984 1.374 . S
C986 C983 1.499 . S
C986 C987 1.373 . S
C986 C988 1.389 . S
C987 H966 0.950 . S
C987 C986 1.373 . S
C987 C1003 1.377 . S
C988 C986 1.389 . S
C988 C989 1.524 . S
C988 C1002 1.377 . S
C989 C988 1.524 . S
C989 C990 1.397 . S
C989 C994 1.363 . S
C990 H967 0.950 . S
C990 C989 1.397 . S
C990 C991 1.334 . S
C991 H968 0.950 . S
C991 C990 1.334 . S
C991 C992 1.287 . S
C992 C991 1.287 . S
C992 C993 1.524 . S
C992 H1011 0.913 . S
C993 H969 0.950 . S
C993 C992 1.524 . S
C993 C994 1.415 . S
C994 H970 0.950 . S
C994 C989 1.363 . S
C994 C993 1.415 . S
C995 H971 0.951 . S
C995 C996 1.366 . S
C995 C997 1.388 . S
C996 C995 1.366 . S
C996 C1000 1.385 . S
C997 H972 0.951 . S
C997 C995 1.388 . S
C997 C998 1.366 . S
C998 C997 1.366 . S
C998 C999 1.414 . S
C998 C1001 1.499 . S
C999 H973 0.950 . S
C999 C998 1.414 . S
C999 C1000 1.374 . S
C1000 H974 0.950 . S
C1000 C996 1.385 . S
C1000 C999 1.374 . S
C1001 C998 1.499 . S
C1001 C1002 1.373 . S
C1001 C1003 1.389 . S
C1002 H975 0.950 . S
C1002 C988 1.377 . S
C1002 C1001 1.373 . S
C1003 C987 1.377 . S
C1003 C1001 1.389 . S
C1003 C1004 1.524 . S
C1004 C1003 1.524 . S
C1004 C1005 1.397 . S
C1004 C1009 1.363 . S
C1005 H976 0.950 . S
C1005 C1004 1.397 . S
C1005 C1006 1.334 . S
C1006 H977 0.950 . S
C1006 C1005 1.334 . S
C1006 C1007 1.287 . S
C1007 C1006 1.287 . S
C1007 C1008 1.524 . S
C1007 H1010 0.999 . S
C1008 H978 0.950 . S
C1008 C1007 1.524 . S
C1008 C1009 1.415 . S
C1009 H979 0.950 . S
C1009 C1004 1.363 . S
C1009 C1008 1.415 . S
H1010 C1007 0.999 . S
H1011 C992 0.913 . S
H1012 C1030 0.951 . S
H1013 C1032 0.951 . S
H1014 C1034 0.950 . S
H1015 C1035 0.950 . S
H1016 C1037 0.950 . S
H1017 C1040 0.956 1_455 S
H1018 C1041 0.950 . S
H1019 C1043 0.950 . S
H1020 C1044 0.950 . S
H1021 C1045 0.951 . S
H1022 C1047 0.951 . S
H1023 C1049 0.950 . S
H1024 C1050 0.950 . S
H1025 C1052 0.950 . S
H1026 C1055 0.950 . S
H1027 C1056 0.950 . S
H1028 C1058 0.950 . S
H1029 C1059 0.950 . S
C1030 H1012 0.951 . S
C1030 C1031 1.366 . S
C1030 C1032 1.388 . S
C1031 C1030 1.366 . S
C1031 C1035 1.385 1_655 S
C1032 H1013 0.951 . S
C1032 C1030 1.388 . S
C1032 C1033 1.366 1_655 S
C1033 C1032 1.366 1_455 S
C1033 C1034 1.414 . S
C1033 C1036 1.499 . S
C1034 H1014 0.950 . S
C1034 C1033 1.414 . S
C1034 C1035 1.374 . S
C1035 H1015 0.950 . S
C1035 C1031 1.385 1_455 S
C1035 C1034 1.374 . S
C1036 C1033 1.499 . S
C1036 C1037 1.373 . S
C1036 C1038 1.389 . S
C1037 H1016 0.950 . S
C1037 C1036 1.373 . S
C1037 C1053 1.377 . S
C1038 C1036 1.389 . S
C1038 C1039 1.524 1_455 S
C1038 C1052 1.377 . S
C1039 C1038 1.524 1_655 S
C1039 C1040 1.397 . S
C1039 C1044 1.363 . S
C1040 H1017 0.956 1_655 S
C1040 C1039 1.397 . S
C1040 C1041 1.334 . S
C1041 H1018 0.950 . S
C1041 C1040 1.334 . S
C1041 C1042 1.287 . S
C1042 C1041 1.287 . S
C1042 C1043 1.524 . S
C1042 H1061 0.913 . S
C1043 H1019 0.950 . S
C1043 C1042 1.524 . S
C1043 C1044 1.415 . S
C1044 H1020 0.950 . S
C1044 C1039 1.363 . S
C1044 C1043 1.415 . S
C1045 H1021 0.951 . S
C1045 C1046 1.366 . S
C1045 C1047 1.388 . S
C1046 C1045 1.366 . S
C1046 C1050 1.385 . S
C1047 H1022 0.951 . S
C1047 C1045 1.388 . S
C1047 C1048 1.366 . S
C1048 C1047 1.366 . S
C1048 C1049 1.414 . S
C1048 C1051 1.499 . S
C1049 H1023 0.950 . S
C1049 C1048 1.414 . S
C1049 C1050 1.374 . S
C1050 H1024 0.950 . S
C1050 C1046 1.385 . S
C1050 C1049 1.374 . S
C1051 C1048 1.499 . S
C1051 C1052 1.373 . S
C1051 C1053 1.389 . S
C1052 H1025 0.950 . S
C1052 C1038 1.377 . S
C1052 C1051 1.373 . S
C1053 C1037 1.377 . S
C1053 C1051 1.389 . S
C1053 C1054 1.524 . S
C1054 C1053 1.524 . S
C1054 C1055 1.397 . S
C1054 C1059 1.363 . S
C1055 H1026 0.950 . S
C1055 C1054 1.397 . S
C1055 C1056 1.334 . S
C1056 H1027 0.950 . S
C1056 C1055 1.334 . S
C1056 C1057 1.287 . S
C1057 C1056 1.287 . S
C1057 C1058 1.524 . S
C1057 H1060 0.999 . S
C1058 H1028 0.950 . S
C1058 C1057 1.524 . S
C1058 C1059 1.415 . S
C1059 H1029 0.950 . S
C1059 C1054 1.363 . S
C1059 C1058 1.415 . S
H1060 C1057 0.999 . S
H1061 C1042 0.913 . S
H1062 C1080 0.951 . S
H1063 C1082 0.951 . S
H1064 C1084 0.950 . S
H1065 C1085 0.950 . S
H1066 C1087 0.950 . S
H1067 C1090 0.950 . S
H1068 C1091 0.950 . S
H1069 C1093 0.950 . S
H1070 C1094 0.950 . S
H1071 C1095 0.951 . S
H1072 C1097 0.951 1_565 S
H1073 C1099 0.950 . S
H1074 C1100 0.950 . S
H1075 C1102 0.950 . S
H1076 C1105 0.950 1_545 S
H1077 C1106 0.950 . S
H1078 C1108 0.950 . S
H1079 C1109 0.950 . S
C1080 H1062 0.951 . S
C1080 C1081 1.366 1_545 S
C1080 C1082 1.388 . S
C1081 C1080 1.366 1_565 S
C1081 C1085 1.385 . S
C1082 H1063 0.951 . S
C1082 C1080 1.388 . S
C1082 C1083 1.366 . S
C1083 C1082 1.366 . S
C1083 C1084 1.414 1_545 S
C1083 C1086 1.499 . S
C1084 H1064 0.950 . S
C1084 C1083 1.414 1_565 S
C1084 C1085 1.374 . S
C1085 H1065 0.950 . S
C1085 C1081 1.385 . S
C1085 C1084 1.374 . S
C1086 C1083 1.499 . S
C1086 C1087 1.373 1_545 S
C1086 C1088 1.389 . S
C1087 H1066 0.950 . S
C1087 C1086 1.373 1_565 S
C1087 C1103 1.363 1_565 S
C1088 C1086 1.389 . S
C1088 C1089 1.524 . S
C1088 C1102 1.377 . S
C1089 C1088 1.524 . S
C1089 C1090 1.397 . S
C1089 C1094 1.363 . S
C1090 H1067 0.950 . S
C1090 C1089 1.397 . S
C1090 C1091 1.334 . S
C1091 H1068 0.950 . S
C1091 C1090 1.334 . S
C1091 C1092 1.287 . S
C1092 C1091 1.287 . S
C1092 C1093 1.524 . S
C1092 H1111 0.913 . S
C1093 H1069 0.950 . S
C1093 C1092 1.524 . S
C1093 C1094 1.415 . S
C1094 H1070 0.950 . S
C1094 C1089 1.363 . S
C1094 C1093 1.415 . S
C1095 H1071 0.951 . S
C1095 C1096 1.366 . S
C1095 C1097 1.388 . S
C1096 C1095 1.366 . S
C1096 C1100 1.385 . S
C1097 H1072 0.951 1_545 S
C1097 C1095 1.388 . S
C1097 C1098 1.366 . S
C1098 C1097 1.366 . S
C1098 C1099 1.414 . S
C1098 C1101 1.499 . S
C1099 H1073 0.950 . S
C1099 C1098 1.414 . S
C1099 C1100 1.374 . S
C1100 H1074 0.950 . S
C1100 C1096 1.385 . S
C1100 C1099 1.374 . S
C1101 C1098 1.499 . S
C1101 C1102 1.373 . S
C1101 C1103 1.440 . S
C1102 H1075 0.950 . S
C1102 C1088 1.377 . S
C1102 C1101 1.373 . S
C1103 C1087 1.363 1_545 S
C1103 C1101 1.440 . S
C1103 C1104 1.489 1_545 S
C1104 C1103 1.489 1_565 S
C1104 C1105 1.397 . S
C1104 C1109 1.363 . S
C1105 H1076 0.950 1_565 S
C1105 C1104 1.397 . S
C1105 C1106 1.334 . S
C1106 H1077 0.950 . S
C1106 C1105 1.334 . S
C1106 C1107 1.287 . S
C1107 C1106 1.287 . S
C1107 C1108 1.524 . S
C1107 H1110 0.999 . S
C1108 H1078 0.950 . S
C1108 C1107 1.524 . S
C1108 C1109 1.415 . S
C1109 H1079 0.950 . S
C1109 C1104 1.363 . S
C1109 C1108 1.415 . S
H1110 C1107 0.999 . S
H1111 C1092 0.913 . S
H1112 C1130 0.951 . S
H1113 C1132 0.951 . S
H1114 C1134 0.950 . S
H1115 C1135 0.950 . S
H1116 C1137 0.950 . S
H1117 C1140 0.950 . S
H1118 C1141 0.950 . S
H1119 C1143 0.950 . S
H1120 C1144 0.950 . S
H1121 C1145 0.951 . S
H1122 C1147 0.951 . S
H1123 C1149 0.950 . S
H1124 C1150 0.950 . S
H1125 C1152 0.950 . S
H1126 C1155 0.950 . S
H1127 C1156 0.950 . S
H1128 C1158 0.950 . S
H1129 C1159 0.950 . S
C1130 H1112 0.951 . S
C1130 C1131 1.366 . S
C1130 C1132 1.388 . S
C1131 C1130 1.366 . S
C1131 C1135 1.385 . S
C1132 H1113 0.951 . S
C1132 C1130 1.388 . S
C1132 C1133 1.366 . S
C1133 C1132 1.366 . S
C1133 C1134 1.414 . S
C1133 C1136 1.499 . S
C1134 H1114 0.950 . S
C1134 C1133 1.414 . S
C1134 C1135 1.374 . S
C1135 H1115 0.950 . S
C1135 C1131 1.385 . S
C1135 C1134 1.374 . S
C1136 C1133 1.499 . S
C1136 C1137 1.373 . S
C1136 C1138 1.389 . S
C1137 H1116 0.950 . S
C1137 C1136 1.373 . S
C1137 C1153 1.377 . S
C1138 C1136 1.389 . S
C1138 C1139 1.524 . S
C1138 C1152 1.377 . S
C1139 C1138 1.524 . S
C1139 C1140 1.397 . S
C1139 C1144 1.363 . S
C1140 H1117 0.950 . S
C1140 C1139 1.397 . S
C1140 C1141 1.334 . S
C1141 H1118 0.950 . S
C1141 C1140 1.334 . S
C1141 C1142 1.287 . S
C1142 C1141 1.287 . S
C1142 C1143 1.524 . S
C1142 H1161 0.913 . S
C1143 H1119 0.950 . S
C1143 C1142 1.524 . S
C1143 C1144 1.415 . S
C1144 H1120 0.950 . S
C1144 C1139 1.363 . S
C1144 C1143 1.415 . S
C1145 H1121 0.951 . S
C1145 C1146 1.366 . S
C1145 C1147 1.388 . S
C1146 C1145 1.366 . S
C1146 C1150 1.385 . S
C1147 H1122 0.951 . S
C1147 C1145 1.388 . S
C1147 C1148 1.366 . S
C1148 C1147 1.366 . S
C1148 C1149 1.414 . S
C1148 C1151 1.499 . S
C1149 H1123 0.950 . S
C1149 C1148 1.414 . S
C1149 C1150 1.374 . S
C1150 H1124 0.950 . S
C1150 C1146 1.385 . S
C1150 C1149 1.374 . S
C1151 C1148 1.499 . S
C1151 C1152 1.373 . S
C1151 C1153 1.389 . S
C1152 H1125 0.950 . S
C1152 C1138 1.377 . S
C1152 C1151 1.373 . S
C1153 C1137 1.377 . S
C1153 C1151 1.389 . S
C1153 C1154 1.524 . S
C1154 C1153 1.524 . S
C1154 C1155 1.397 . S
C1154 C1159 1.363 . S
C1155 H1126 0.950 . S
C1155 C1154 1.397 . S
C1155 C1156 1.334 . S
C1156 H1127 0.950 . S
C1156 C1155 1.334 . S
C1156 C1157 1.287 . S
C1157 C1156 1.287 . S
C1157 C1158 1.524 . S
C1157 H1160 0.999 . S
C1158 H1128 0.950 . S
C1158 C1157 1.524 . S
C1158 C1159 1.415 . S
C1159 H1129 0.950 . S
C1159 C1154 1.363 . S
C1159 C1158 1.415 . S
H1160 C1157 0.999 . S
H1161 C1142 0.913 . S
H1162 C1180 0.951 . S
H1163 C1182 0.951 . S
H1164 C1184 0.950 . S
H1165 C1185 0.950 . S
H1166 C1187 0.950 . S
H1167 C1190 0.950 . S
H1168 C1191 0.950 . S
H1169 C1193 0.950 . S
H1170 C1194 0.950 . S
H1171 C1195 0.951 . S
H1172 C1197 0.951 . S
H1173 C1199 0.950 . S
H1174 C1200 0.950 . S
H1175 C1202 0.950 . S
H1176 C1205 0.950 . S
H1177 C1206 0.950 . S
H1178 C1208 0.950 . S
H1179 C1209 0.950 . S
C1180 H1162 0.951 . S
C1180 C1181 1.366 . S
C1180 C1182 1.388 . S
C1181 C1180 1.366 . S
C1181 C1185 1.385 . S
C1182 H1163 0.951 . S
C1182 C1180 1.388 . S
C1182 C1183 1.366 . S
C1183 C1182 1.366 . S
C1183 C1184 1.414 . S
C1183 C1186 1.499 . S
C1184 H1164 0.950 . S
C1184 C1183 1.414 . S
C1184 C1185 1.374 . S
C1185 H1165 0.950 . S
C1185 C1181 1.385 . S
C1185 C1184 1.374 . S
C1186 C1183 1.499 . S
C1186 C1187 1.373 . S
C1186 C1188 1.389 . S
C1187 H1166 0.950 . S
C1187 C1186 1.373 . S
C1187 C1203 1.377 . S
C1188 C1186 1.389 . S
C1188 C1189 1.524 . S
C1188 C1202 1.377 . S
C1189 C1188 1.524 . S
C1189 C1190 1.397 . S
C1189 C1194 1.363 . S
C1190 H1167 0.950 . S
C1190 C1189 1.397 . S
C1190 C1191 1.334 . S
C1191 H1168 0.950 . S
C1191 C1190 1.334 . S
C1191 C1192 1.287 . S
C1192 C1191 1.287 . S
C1192 C1193 1.524 . S
C1192 H1211 0.913 . S
C1193 H1169 0.950 . S
C1193 C1192 1.524 . S
C1193 C1194 1.415 . S
C1194 H1170 0.950 . S
C1194 C1189 1.363 . S
C1194 C1193 1.415 . S
C1195 H1171 0.951 . S
C1195 C1196 1.366 . S
C1195 C1197 1.388 . S
C1196 C1195 1.366 . S
C1196 C1200 1.385 . S
C1197 H1172 0.951 . S
C1197 C1195 1.388 . S
C1197 C1198 1.366 . S
C1198 C1197 1.366 . S
C1198 C1199 1.414 . S
C1198 C1201 1.499 . S
C1199 H1173 0.950 . S
C1199 C1198 1.414 . S
C1199 C1200 1.374 . S
C1200 H1174 0.950 . S
C1200 C1196 1.385 . S
C1200 C1199 1.374 . S
C1201 C1198 1.499 . S
C1201 C1202 1.373 . S
C1201 C1203 1.389 . S
C1202 H1175 0.950 . S
C1202 C1188 1.377 . S
C1202 C1201 1.373 . S
C1203 C1187 1.377 . S
C1203 C1201 1.389 . S
C1203 C1204 1.524 . S
C1204 C1203 1.524 . S
C1204 C1205 1.397 . S
C1204 C1209 1.363 . S
C1205 H1176 0.950 . S
C1205 C1204 1.397 . S
C1205 C1206 1.334 . S
C1206 H1177 0.950 . S
C1206 C1205 1.334 . S
C1206 C1207 1.287 . S
C1207 C1206 1.287 . S
C1207 C1208 1.524 . S
C1207 H1210 0.999 . S
C1208 H1178 0.950 . S
C1208 C1207 1.524 . S
C1208 C1209 1.415 . S
C1209 H1179 0.950 . S
C1209 C1204 1.363 . S
C1209 C1208 1.415 . S
H1210 C1207 0.999 . S
H1211 C1192 0.913 . S
H1212 C1230 0.951 . S
H1213 C1232 0.951 . S
H1214 C1234 0.950 . S
H1215 C1235 0.950 . S
H1216 C1237 0.950 . S
H1217 C1240 0.950 . S
H1218 C1241 0.950 . S
H1219 C1243 0.950 . S
H1220 C1244 0.950 . S
H1221 C1245 0.951 . S
H1222 C1247 0.951 . S
H1223 C1249 0.950 . S
H1224 C1250 0.950 . S
H1225 C1252 0.950 . S
H1226 C1255 0.950 . S
H1227 C1256 0.950 . S
H1228 C1258 0.950 . S
H1229 C1259 0.950 . S
C1230 H1212 0.951 . S
C1230 C1231 1.366 . S
C1230 C1232 1.388 . S
C1231 C1230 1.366 . S
C1231 C1235 1.385 . S
C1232 H1213 0.951 . S
C1232 C1230 1.388 . S
C1232 C1233 1.366 . S
C1233 C1232 1.366 . S
C1233 C1234 1.414 1_554 S
C1233 C1236 1.499 1_554 S
C1234 H1214 0.950 . S
C1234 C1233 1.414 1_556 S
C1234 C1235 1.374 1_556 S
C1235 H1215 0.950 . S
C1235 C1231 1.385 . S
C1235 C1234 1.374 1_554 S
C1236 C1233 1.499 1_556 S
C1236 C1237 1.373 . S
C1236 C1238 1.398 . S
C1237 H1216 0.950 . S
C1237 C1236 1.373 . S
C1237 C1253 1.377 . S
C1238 C1236 1.398 . S
C1238 C1239 1.502 1_556 S
C1238 C1252 1.391 . S
C1239 C1238 1.502 1_554 S
C1239 C1240 1.397 . S
C1239 C1244 1.363 . S
C1240 H1217 0.950 . S
C1240 C1239 1.397 . S
C1240 C1241 1.334 . S
C1241 H1218 0.950 . S
C1241 C1240 1.334 . S
C1241 C1242 1.287 . S
C1242 C1241 1.287 . S
C1242 C1243 1.524 . S
C1242 H1261 0.913 . S
C1243 H1219 0.950 . S
C1243 C1242 1.524 . S
C1243 C1244 1.415 . S
C1244 H1220 0.950 . S
C1244 C1239 1.363 . S
C1244 C1243 1.415 . S
C1245 H1221 0.951 . S
C1245 C1246 1.366 . S
C1245 C1247 1.388 . S
C1246 C1245 1.366 . S
C1246 C1250 1.385 . S
C1247 H1222 0.951 . S
C1247 C1245 1.388 . S
C1247 C1248 1.366 . S
C1248 C1247 1.366 . S
C1248 C1249 1.414 . S
C1248 C1251 1.499 . S
C1249 H1223 0.950 . S
C1249 C1248 1.414 . S
C1249 C1250 1.374 . S
C1250 H1224 0.950 . S
C1250 C1246 1.385 . S
C1250 C1249 1.374 . S
C1251 C1248 1.499 . S
C1251 C1252 1.373 . S
C1251 C1253 1.389 . S
C1252 H1225 0.950 . S
C1252 C1238 1.391 . S
C1252 C1251 1.373 . S
C1253 C1237 1.377 . S
C1253 C1251 1.389 . S
C1253 C1254 1.524 . S
C1254 C1253 1.524 . S
C1254 C1255 1.397 . S
C1254 C1259 1.363 . S
C1255 H1226 0.950 . S
C1255 C1254 1.397 . S
C1255 C1256 1.334 . S
C1256 H1227 0.950 . S
C1256 C1255 1.334 . S
C1256 C1257 1.287 . S
C1257 C1256 1.287 . S
C1257 C1258 1.524 . S
C1257 H1260 0.999 . S
C1258 H1228 0.950 . S
C1258 C1257 1.524 . S
C1258 C1259 1.415 . S
C1259 H1229 0.950 . S
C1259 C1254 1.363 . S
C1259 C1258 1.415 . S
H1260 C1257 0.999 . S
H1261 C1242 0.913 . S
H1262 C1280 0.951 . S
H1263 C1282 0.953 . S
H1264 C1284 0.950 . S
H1265 C1285 0.950 . S
H1266 C1287 0.950 . S
H1267 C1290 0.950 . S
H1268 C1291 0.950 . S
H1269 C1293 0.950 . S
H1270 C1294 0.950 . S
H1271 C1295 0.951 . S
H1272 C1297 0.951 . S
H1273 C1299 0.950 . S
H1274 C1300 0.950 . S
H1275 C1302 0.950 . S
H1276 C1305 0.950 . S
H1277 C1306 0.950 . S
H1278 C1308 0.950 . S
H1279 C1309 0.950 . S
C1280 H1262 0.951 . S
C1280 C1281 1.361 1_565 S
C1280 C1282 1.398 . S
C1281 C1280 1.361 1_545 S
C1281 C1285 1.389 1_554 S
C1282 H1263 0.953 . S
C1282 C1280 1.398 . S
C1282 C1283 1.318 1_564 S
C1283 C1282 1.318 1_546 S
C1283 C1284 1.450 . S
C1283 C1286 1.499 . S
C1284 H1264 0.950 . S
C1284 C1283 1.450 . S
C1284 C1285 1.374 . S
C1285 H1265 0.950 . S
C1285 C1281 1.389 1_556 S
C1285 C1284 1.374 . S
C1286 C1283 1.499 . S
C1286 C1287 1.373 . S
C1286 C1288 1.381 1_545 S
C1287 H1266 0.950 . S
C1287 C1286 1.373 . S
C1287 C1303 1.377 . S
C1288 C1286 1.381 1_565 S
C1288 C1289 1.524 1_556 S
C1288 C1302 1.384 . S
C1289 C1288 1.524 1_554 S
C1289 C1290 1.350 1_565 S
C1289 C1294 1.407 . S
C1290 H1267 0.950 . S
C1290 C1289 1.350 1_545 S
C1290 C1291 1.334 . S
C1291 H1268 0.950 . S
C1291 C1290 1.334 . S
C1291 C1292 1.287 . S
C1292 C1291 1.287 . S
C1292 C1293 1.524 1_545 S
C1292 H1311 0.913 . S
C1293 H1269 0.950 . S
C1293 C1292 1.524 1_565 S
C1293 C1294 1.415 . S
C1294 H1270 0.950 . S
C1294 C1289 1.407 . S
C1294 C1293 1.415 . S
C1295 H1271 0.951 . S
C1295 C1296 1.370 . S
C1295 C1297 1.388 . S
C1296 C1295 1.370 . S
C1296 C1300 1.381 1_545 S
C1297 H1272 0.951 . S
C1297 C1295 1.388 . S
C1297 C1298 1.349 1_545 S
C1298 C1297 1.349 1_565 S
C1298 C1299 1.431 . S
C1298 C1301 1.499 . S
C1299 H1273 0.950 . S
C1299 C1298 1.431 . S
C1299 C1300 1.374 . S
C1300 H1274 0.950 . S
C1300 C1296 1.381 1_565 S
C1300 C1299 1.374 . S
C1301 C1298 1.499 . S
C1301 C1302 1.379 . S
C1301 C1303 1.381 1_565 S
C1302 H1275 0.950 . S
C1302 C1288 1.384 . S
C1302 C1301 1.379 . S
C1303 C1287 1.377 . S
C1303 C1301 1.381 1_545 S
C1303 C1304 1.524 . S
C1304 C1303 1.524 . S
C1304 C1305 1.397 1_545 S
C1304 C1309 1.363 . S
C1305 H1276 0.950 . S
C1305 C1304 1.397 1_565 S
C1305 C1306 1.334 . S
C1306 H1277 0.950 . S
C1306 C1305 1.334 . S
C1306 C1307 1.287 . S
C1307 C1306 1.287 . S
C1307 C1308 1.524 1_565 S
C1307 H1310 0.999 . S
C1308 H1278 0.950 . S
C1308 C1307 1.524 1_545 S
C1308 C1309 1.415 . S
C1309 H1279 0.950 . S
C1309 C1304 1.363 . S
C1309 C1308 1.415 . S
H1310 C1307 0.999 . S
H1311 C1292 0.913 . S
H1312 C1330 0.951 . S
H1313 C1332 0.951 . S
H1314 C1334 0.950 . S
H1315 C1335 0.950 . S
H1316 C1337 0.950 . S
H1317 C1340 0.950 . S
H1318 C1341 0.950 . S
H1319 C1343 0.950 . S
H1320 C1344 0.950 . S
H1321 C1345 0.951 . S
H1322 C1347 0.951 . S
H1323 C1349 0.950 . S
H1324 C1350 0.950 . S
H1325 C1352 0.950 . S
H1326 C1355 0.950 . S
H1327 C1356 0.950 . S
H1328 C1358 0.950 1_554 S
H1329 C1359 0.950 . S
C1330 H1312 0.951 . S
C1330 C1331 1.366 . S
C1330 C1332 1.388 . S
C1331 C1330 1.366 . S
C1331 C1335 1.385 1_556 S
C1332 H1313 0.951 . S
C1332 C1330 1.388 . S
C1332 C1333 1.366 . S
C1333 C1332 1.366 . S
C1333 C1334 1.414 . S
C1333 C1336 1.499 . S
C1334 H1314 0.950 . S
C1334 C1333 1.414 . S
C1334 C1335 1.374 1_556 S
C1335 H1315 0.950 . S
C1335 C1331 1.385 1_554 S
C1335 C1334 1.374 1_554 S
C1336 C1333 1.499 . S
C1336 C1337 1.373 . S
C1336 C1338 1.389 . S
C1337 H1316 0.950 . S
C1337 C1336 1.373 . S
C1337 C1353 1.377 . S
C1338 C1336 1.389 . S
C1338 C1339 1.524 . S
C1338 C1352 1.377 . S
C1339 C1338 1.524 . S
C1339 C1340 1.397 . S
C1339 C1344 1.363 . S
C1340 H1317 0.950 . S
C1340 C1339 1.397 . S
C1340 C1341 1.334 . S
C1341 H1318 0.950 . S
C1341 C1340 1.334 . S
C1341 C1342 1.287 . S
C1342 C1341 1.287 . S
C1342 C1343 1.524 . S
C1342 H1361 0.913 . S
C1343 H1319 0.950 . S
C1343 C1342 1.524 . S
C1343 C1344 1.415 . S
C1344 H1320 0.950 . S
C1344 C1339 1.363 . S
C1344 C1343 1.415 . S
C1345 H1321 0.951 . S
C1345 C1346 1.366 . S
C1345 C1347 1.388 . S
C1346 C1345 1.366 . S
C1346 C1350 1.385 . S
C1347 H1322 0.951 . S
C1347 C1345 1.388 . S
C1347 C1348 1.366 . S
C1348 C1347 1.366 . S
C1348 C1349 1.414 . S
C1348 C1351 1.499 . S
C1349 H1323 0.950 . S
C1349 C1348 1.414 . S
C1349 C1350 1.374 . S
C1350 H1324 0.950 . S
C1350 C1346 1.385 . S
C1350 C1349 1.374 . S
C1351 C1348 1.499 . S
C1351 C1352 1.373 . S
C1351 C1353 1.389 . S
C1352 H1325 0.950 . S
C1352 C1338 1.377 . S
C1352 C1351 1.373 . S
C1353 C1337 1.377 . S
C1353 C1351 1.389 . S
C1353 C1354 1.524 . S
C1354 C1353 1.524 . S
C1354 C1355 1.397 . S
C1354 C1359 1.363 . S
C1355 H1326 0.950 . S
C1355 C1354 1.397 . S
C1355 C1356 1.334 . S
C1356 H1327 0.950 . S
C1356 C1355 1.334 . S
C1356 C1357 1.287 . S
C1357 C1356 1.287 . S
C1357 C1358 1.524 . S
C1357 H1360 0.999 . S
C1358 H1328 0.950 1_556 S
C1358 C1357 1.524 . S
C1358 C1359 1.415 . S
C1359 H1329 0.950 . S
C1359 C1354 1.363 . S
C1359 C1358 1.415 . S
H1360 C1357 0.999 . S
H1361 C1342 0.913 . S
H1362 C1380 0.951 . S
H1363 C1382 0.951 1_554 S
H1364 C1384 0.950 . S
H1365 C1385 0.950 . S
H1366 C1387 0.950 . S
H1367 C1390 0.950 . S
H1368 C1391 0.950 . S
H1369 C1393 0.950 . S
H1370 C1394 0.950 . S
H1371 C1395 0.951 . S
H1372 C1397 0.951 . S
H1373 C1399 0.950 . S
H1374 C1400 0.950 . S
H1375 C1402 0.950 . S
H1376 C1405 0.950 . S
H1377 C1406 0.950 . S
H1378 C1408 0.950 . S
H1379 C1409 0.950 . S
C1380 H1362 0.951 . S
C1380 C1381 1.366 1_554 S
C1380 C1382 1.388 1_554 S
C1381 C1380 1.366 1_556 S
C1381 C1385 1.385 . S
C1382 H1363 0.951 1_556 S
C1382 C1380 1.388 1_556 S
C1382 C1383 1.366 . S
C1383 C1382 1.366 . S
C1383 C1384 1.414 . S
C1383 C1386 1.499 . S
C1384 H1364 0.950 . S
C1384 C1383 1.414 . S
C1384 C1385 1.374 . S
C1385 H1365 0.950 . S
C1385 C1381 1.385 . S
C1385 C1384 1.374 . S
C1386 C1383 1.499 . S
C1386 C1387 1.373 . S
C1386 C1388 1.389 . S
C1387 H1366 0.950 . S
C1387 C1386 1.373 . S
C1387 C1403 1.377 . S
C1388 C1386 1.389 . S
C1388 C1389 1.524 . S
C1388 C1402 1.377 . S
C1389 C1388 1.524 . S
C1389 C1390 1.397 . S
C1389 C1394 1.363 1_556 S
C1390 H1367 0.950 . S
C1390 C1389 1.397 . S
C1390 C1391 1.334 1_556 S
C1391 H1368 0.950 . S
C1391 C1390 1.334 1_554 S
C1391 C1392 1.287 . S
C1392 C1391 1.287 . S
C1392 C1393 1.524 . S
C1392 H1411 0.913 . S
C1393 H1369 0.950 . S
C1393 C1392 1.524 . S
C1393 C1394 1.415 . S
C1394 H1370 0.950 . S
C1394 C1389 1.363 1_554 S
C1394 C1393 1.415 . S
C1395 H1371 0.951 . S
C1395 C1396 1.366 . S
C1395 C1397 1.388 . S
C1396 C1395 1.366 . S
C1396 C1400 1.385 . S
C1397 H1372 0.951 . S
C1397 C1395 1.388 . S
C1397 C1398 1.366 . S
C1398 C1397 1.366 . S
C1398 C1399 1.414 . S
C1398 C1401 1.499 . S
C1399 H1373 0.950 . S
C1399 C1398 1.414 . S
C1399 C1400 1.374 . S
C1400 H1374 0.950 . S
C1400 C1396 1.385 . S
C1400 C1399 1.374 . S
C1401 C1398 1.499 . S
C1401 C1402 1.373 . S
C1401 C1403 1.389 . S
C1402 H1375 0.950 . S
C1402 C1388 1.377 . S
C1402 C1401 1.373 . S
C1403 C1387 1.377 . S
C1403 C1401 1.389 . S
C1403 C1404 1.524 . S
C1404 C1403 1.524 . S
C1404 C1405 1.397 . S
C1404 C1409 1.363 . S
C1405 H1376 0.950 . S
C1405 C1404 1.397 . S
C1405 C1406 1.334 . S
C1406 H1377 0.950 . S
C1406 C1405 1.334 . S
C1406 C1407 1.287 . S
C1407 C1406 1.287 . S
C1407 C1408 1.524 . S
C1407 H1410 0.999 . S
C1408 H1378 0.950 . S
C1408 C1407 1.524 . S
C1408 C1409 1.415 . S
C1409 H1379 0.950 . S
C1409 C1404 1.363 . S
C1409 C1408 1.415 . S
H1410 C1407 0.999 . S
H1411 C1392 0.913 . S
H1412 C1430 0.951 . S
H1413 C1432 0.951 . S
H1414 C1434 0.950 . S
H1415 C1435 0.950 . S
H1416 C1437 0.950 . S
H1417 C1440 0.950 1_655 S
H1418 C1441 0.950 . S
H1419 C1443 0.950 . S
H1420 C1444 0.950 . S
H1421 C1445 0.951 . S
H1422 C1447 0.951 . S
H1423 C1449 0.950 . S
H1424 C1450 0.950 . S
H1425 C1452 0.950 . S
H1426 C1455 0.950 1_455 S
H1427 C1456 0.950 1_455 S
H1428 C1458 0.950 . S
H1429 C1459 0.950 . S
C1430 H1412 0.951 . S
C1430 C1431 1.366 1_455 S
C1430 C1432 1.388 . S
C1431 C1430 1.366 1_655 S
C1431 C1435 1.385 . S
C1432 H1413 0.951 . S
C1432 C1430 1.388 . S
C1432 C1433 1.366 1_455 S
C1433 C1432 1.366 1_655 S
C1433 C1434 1.414 . S
C1433 C1436 1.499 . S
C1434 H1414 0.950 . S
C1434 C1433 1.414 . S
C1434 C1435 1.374 . S
C1435 H1415 0.950 . S
C1435 C1431 1.385 . S
C1435 C1434 1.374 . S
C1436 C1433 1.499 . S
C1436 C1437 1.388 . S
C1436 C1438 1.374 1_655 S
C1437 H1416 0.950 . S
C1437 C1436 1.388 . S
C1437 C1453 1.377 . S
C1438 C1436 1.374 1_455 S
C1438 C1439 1.524 . S
C1438 C1452 1.377 . S
C1439 C1438 1.524 . S
C1439 C1440 1.397 . S
C1439 C1444 1.363 . S
C1440 H1417 0.950 1_455 S
C1440 C1439 1.397 . S
C1440 C1441 1.334 . S
C1441 H1418 0.950 . S
C1441 C1440 1.334 . S
C1441 C1442 1.287 . S
C1442 C1441 1.287 . S
C1442 C1443 1.524 . S
C1442 H1461 0.913 . S
C1443 H1419 0.950 . S
C1443 C1442 1.524 . S
C1443 C1444 1.415 . S
C1444 H1420 0.950 . S
C1444 C1439 1.363 . S
C1444 C1443 1.415 . S
C1445 H1421 0.951 . S
C1445 C1446 1.366 1_655 S
C1445 C1447 1.388 . S
C1446 C1445 1.366 1_455 S
C1446 C1450 1.385 . S
C1447 H1422 0.951 . S
C1447 C1445 1.388 . S
C1447 C1448 1.366 1_655 S
C1448 C1447 1.366 1_455 S
C1448 C1449 1.414 . S
C1448 C1451 1.499 . S
C1449 H1423 0.950 . S
C1449 C1448 1.414 . S
C1449 C1450 1.374 . S
C1450 H1424 0.950 . S
C1450 C1446 1.385 . S
C1450 C1449 1.374 . S
C1451 C1448 1.499 . S
C1451 C1452 1.373 . S
C1451 C1453 1.389 1_455 S
C1452 H1425 0.950 . S
C1452 C1438 1.377 . S
C1452 C1451 1.373 . S
C1453 C1437 1.377 . S
C1453 C1451 1.389 1_655 S
C1453 C1454 1.524 . S
C1454 C1453 1.524 . S
C1454 C1455 1.397 . S
C1454 C1459 1.363 . S
C1455 H1426 0.950 1_655 S
C1455 C1454 1.397 . S
C1455 C1456 1.334 . S
C1456 H1427 0.950 1_655 S
C1456 C1455 1.334 . S
C1456 C1457 1.287 . S
C1457 C1456 1.287 . S
C1457 C1458 1.524 . S
C1457 H1460 0.999 . S
C1458 H1428 0.950 . S
C1458 C1457 1.524 . S
C1458 C1459 1.415 . S
C1459 H1429 0.950 . S
C1459 C1454 1.363 . S
C1459 C1458 1.415 . S
H1460 C1457 0.999 . S
H1461 C1442 0.913 . S
H1462 C1480 0.951 . S
H1463 C1482 0.958 . S
H1464 C1484 0.950 . S
H1465 C1485 0.950 . S
H1466 C1487 0.950 . S
H1467 C1490 0.950 . S
H1468 C1491 0.950 . S
H1469 C1493 0.950 . S
H1470 C1494 0.950 . S
H1471 C1495 0.951 . S
H1472 C1497 0.951 . S
H1473 C1499 0.950 . S
H1474 C1500 0.950 . S
H1475 C1502 0.950 . S
H1476 C1505 0.950 . S
H1477 C1506 0.950 . S
H1478 C1508 0.950 . S
H1479 C1509 0.950 . S
C1480 H1462 0.951 . S
C1480 C1481 1.366 1_545 S
C1480 C1482 1.388 1_545 S
C1481 C1480 1.366 1_565 S
C1481 C1485 1.385 . S
C1482 H1463 0.958 . S
C1482 C1480 1.388 1_565 S
C1482 C1483 1.366 . S
C1483 C1482 1.366 . S
C1483 C1484 1.414 . S
C1483 C1486 1.499 . S
C1484 H1464 0.950 . S
C1484 C1483 1.414 . S
C1484 C1485 1.374 . S
C1485 H1465 0.950 . S
C1485 C1481 1.385 . S
C1485 C1484 1.374 . S
C1486 C1483 1.499 . S
C1486 C1487 1.373 1_565 S
C1486 C1488 1.389 . S
C1487 H1466 0.950 . S
C1487 C1486 1.373 1_545 S
C1487 C1503 1.377 . S
C1488 C1486 1.389 . S
C1488 C1489 1.524 . S
C1488 C1502 1.377 . S
C1489 C1488 1.524 . S
C1489 C1490 1.397 . S
C1489 C1494 1.363 . S
C1490 H1467 0.950 . S
C1490 C1489 1.397 . S
C1490 C1491 1.334 . S
C1491 H1468 0.950 . S
C1491 C1490 1.334 . S
C1491 C1492 1.287 . S
C1492 C1491 1.287 . S
C1492 C1493 1.524 . S
C1492 H1511 0.913 . S
C1493 H1469 0.950 . S
C1493 C1492 1.524 . S
C1493 C1494 1.415 . S
C1494 H1470 0.950 . S
C1494 C1489 1.363 . S
C1494 C1493 1.415 . S
C1495 H1471 0.951 . S
C1495 C1496 1.366 . S
C1495 C1497 1.388 . S
C1496 C1495 1.366 . S
C1496 C1500 1.385 . S
C1497 H1472 0.951 . S
C1497 C1495 1.388 . S
C1497 C1498 1.366 . S
C1498 C1497 1.366 . S
C1498 C1499 1.414 . S
C1498 C1501 1.499 . S
C1499 H1473 0.950 . S
C1499 C1498 1.414 . S
C1499 C1500 1.374 . S
C1500 H1474 0.950 . S
C1500 C1496 1.385 . S
C1500 C1499 1.374 . S
C1501 C1498 1.499 . S
C1501 C1502 1.373 . S
C1501 C1503 1.389 1_565 S
C1502 H1475 0.950 . S
C1502 C1488 1.377 . S
C1502 C1501 1.373 . S
C1503 C1487 1.377 . S
C1503 C1501 1.389 1_545 S
C1503 C1504 1.524 . S
C1504 C1503 1.524 . S
C1504 C1505 1.397 . S
C1504 C1509 1.363 . S
C1505 H1476 0.950 . S
C1505 C1504 1.397 . S
C1505 C1506 1.334 . S
C1506 H1477 0.950 . S
C1506 C1505 1.334 . S
C1506 C1507 1.287 . S
C1507 C1506 1.287 . S
C1507 C1508 1.524 . S
C1507 H1510 0.999 . S
C1508 H1478 0.950 . S
C1508 C1507 1.524 . S
C1508 C1509 1.415 . S
C1509 H1479 0.950 . S
C1509 C1504 1.363 . S
C1509 C1508 1.415 . S
H1510 C1507 0.999 . S
H1511 C1492 0.913 . S
H1512 C1530 0.951 . S
H1513 C1532 0.951 . S
H1514 C1534 0.950 . S
H1515 C1535 0.950 . S
H1516 C1537 0.950 . S
H1517 C1540 0.950 . S
H1518 C1541 0.950 . S
H1519 C1543 0.950 . S
H1520 C1544 0.950 . S
H1521 C1545 0.951 . S
H1522 C1547 0.951 . S
H1523 C1549 0.950 . S
H1524 C1550 0.950 . S
H1525 C1552 0.950 . S
H1526 C1555 0.950 . S
H1527 C1556 0.950 . S
H1528 C1558 0.950 . S
H1529 C1559 0.950 . S
C1530 H1512 0.951 . S
C1530 C1531 1.366 . S
C1530 C1532 1.388 . S
C1531 C1530 1.366 . S
C1531 C1535 1.385 . S
C1532 H1513 0.951 . S
C1532 C1530 1.388 . S
C1532 C1533 1.366 . S
C1533 C1532 1.366 . S
C1533 C1534 1.414 . S
C1533 C1536 1.499 . S
C1534 H1514 0.950 . S
C1534 C1533 1.414 . S
C1534 C1535 1.374 . S
C1535 H1515 0.950 . S
C1535 C1531 1.385 . S
C1535 C1534 1.374 . S
C1536 C1533 1.499 . S
C1536 C1537 1.373 . S
C1536 C1538 1.389 . S
C1537 H1516 0.950 . S
C1537 C1536 1.373 . S
C1537 C1553 1.377 . S
C1538 C1536 1.389 . S
C1538 C1539 1.524 . S
C1538 C1552 1.377 . S
C1539 C1538 1.524 . S
C1539 C1540 1.397 . S
C1539 C1544 1.363 . S
C1540 H1517 0.950 . S
C1540 C1539 1.397 . S
C1540 C1541 1.334 . S
C1541 H1518 0.950 . S
C1541 C1540 1.334 . S
C1541 C1542 1.287 . S
C1542 C1541 1.287 . S
C1542 C1543 1.524 . S
C1542 H1561 0.913 . S
C1543 H1519 0.950 . S
C1543 C1542 1.524 . S
C1543 C1544 1.415 . S
C1544 H1520 0.950 . S
C1544 C1539 1.363 . S
C1544 C1543 1.415 . S
C1545 H1521 0.951 . S
C1545 C1546 1.366 . S
C1545 C1547 1.388 . S
C1546 C1545 1.366 . S
C1546 C1550 1.385 . S
C1547 H1522 0.951 . S
C1547 C1545 1.388 . S
C1547 C1548 1.366 . S
C1548 C1547 1.366 . S
C1548 C1549 1.414 . S
C1548 C1551 1.499 . S
C1549 H1523 0.950 . S
C1549 C1548 1.414 . S
C1549 C1550 1.374 . S
C1550 H1524 0.950 . S
C1550 C1546 1.385 . S
C1550 C1549 1.374 . S
C1551 C1548 1.499 . S
C1551 C1552 1.373 . S
C1551 C1553 1.389 . S
C1552 H1525 0.950 . S
C1552 C1538 1.377 . S
C1552 C1551 1.373 . S
C1553 C1537 1.377 . S
C1553 C1551 1.389 . S
C1553 C1554 1.524 . S
C1554 C1553 1.524 . S
C1554 C1555 1.397 . S
C1554 C1559 1.363 . S
C1555 H1526 0.950 . S
C1555 C1554 1.397 . S
C1555 C1556 1.334 . S
C1556 H1527 0.950 . S
C1556 C1555 1.334 . S
C1556 C1557 1.287 . S
C1557 C1556 1.287 . S
C1557 C1558 1.524 . S
C1557 H1560 0.999 . S
C1558 H1528 0.950 . S
C1558 C1557 1.524 . S
C1558 C1559 1.415 . S
C1559 H1529 0.950 . S
C1559 C1554 1.363 . S
C1559 C1558 1.415 . S
H1560 C1557 0.999 . S
H1561 C1542 0.913 . S
H1562 C1580 0.951 . S
H1563 C1582 0.951 . S
H1564 C1584 0.950 . S
H1565 C1585 0.950 . S
H1566 C1587 0.950 . S
H1567 C1590 0.950 . S
H1568 C1591 0.950 . S
H1569 C1593 0.950 . S
H1570 C1594 0.950 . S
H1571 C1595 0.951 . S
H1572 C1597 0.951 . S
H1573 C1599 0.950 . S
H1574 C1600 0.950 . S
H1575 C1602 0.950 . S
H1576 C1605 0.950 . S
H1577 C1606 0.950 . S
H1578 C1608 0.950 . S
H1579 C1609 0.950 . S
C1580 H1562 0.951 . S
C1580 C1581 1.366 . S
C1580 C1582 1.388 . S
C1581 C1580 1.366 . S
C1581 C1585 1.385 . S
C1582 H1563 0.951 . S
C1582 C1580 1.388 . S
C1582 C1583 1.366 . S
C1583 C1582 1.366 . S
C1583 C1584 1.414 . S
C1583 C1586 1.499 . S
C1584 H1564 0.950 . S
C1584 C1583 1.414 . S
C1584 C1585 1.374 . S
C1585 H1565 0.950 . S
C1585 C1581 1.385 . S
C1585 C1584 1.374 . S
C1586 C1583 1.499 . S
C1586 C1587 1.373 . S
C1586 C1588 1.389 . S
C1587 H1566 0.950 . S
C1587 C1586 1.373 . S
C1587 C1603 1.377 . S
C1588 C1586 1.389 . S
C1588 C1589 1.524 . S
C1588 C1602 1.377 . S
C1589 C1588 1.524 . S
C1589 C1590 1.397 . S
C1589 C1594 1.363 . S
C1590 H1567 0.950 . S
C1590 C1589 1.397 . S
C1590 C1591 1.334 . S
C1591 H1568 0.950 . S
C1591 C1590 1.334 . S
C1591 C1592 1.287 . S
C1592 C1591 1.287 . S
C1592 C1593 1.524 . S
C1592 H1611 0.913 . S
C1593 H1569 0.950 . S
C1593 C1592 1.524 . S
C1593 C1594 1.415 . S
C1594 H1570 0.950 . S
C1594 C1589 1.363 . S
C1594 C1593 1.415 . S
C1595 H1571 0.951 . S
C1595 C1596 1.366 . S
C1595 C1597 1.388 . S
C1596 C1595 1.366 . S
C1596 C1600 1.385 . S
C1597 H1572 0.951 . S
C1597 C1595 1.388 . S
C1597 C1598 1.366 . S
C1598 C1597 1.366 . S
C1598 C1599 1.414 . S
C1598 C1601 1.499 . S
C1599 H1573 0.950 . S
C1599 C1598 1.414 . S
C1599 C1600 1.374 . S
C1600 H1574 0.950 . S
C1600 C1596 1.385 . S
C1600 C1599 1.374 . S
C1601 C1598 1.499 . S
C1601 C1602 1.373 . S
C1601 C1603 1.389 . S
C1602 H1575 0.950 . S
C1602 C1588 1.377 . S
C1602 C1601 1.373 . S
C1603 C1587 1.377 . S
C1603 C1601 1.389 . S
C1603 C1604 1.524 . S
C1604 C1603 1.524 . S
C1604 C1605 1.397 . S
C1604 C1609 1.363 . S
C1605 H1576 0.950 . S
C1605 C1604 1.397 . S
C1605 C1606 1.334 . S
C1606 H1577 0.950 . S
C1606 C1605 1.334 . S
C1606 C1607 1.287 . S
C1607 C1606 1.287 . S
C1607 C1608 1.524 . S
C1607 H1610 0.999 . S
C1608 H1578 0.950 . S
C1608 C1607 1.524 . S
C1608 C1609 1.415 . S
C1609 H1579 0.950 . S
C1609 C1604 1.363 . S
C1609 C1608 1.415 . S
H1610 C1607 0.999 . S
H1611 C1592 0.913 . S
C431 C255 1.613 1_565 S
C446 C336 1.616 . S
C496 C359 1.838 . S
C481 C295 1.829 . S
C546 C382 1.727 . S
C531 C175 1.713 . S
C596 C409 1.601 . S
C581 C215 1.675 . S
C646 C337 1.574 . S
C631 C95 1.562 1_546 S
C681 C135 1.577 . S
C696 C360 1.601 . S
C731 C15 1.402 . S
C746 C383 1.414 . S
C781 C55 1.694 . S
C796 C408 1.704 . S
C846 C338 0.449 . S
C831 C221 0.654 . S
C896 C361 0.773 . S
C881 C261 0.888 . S
C946 C384 0.454 . S
C931 C301 0.560 . S
C981 C181 0.690 . S
C996 C410 0.815 . S
C1031 C61 0.667 . S
C1046 C341 0.731 . S
C1096 C364 0.838 . S
C1081 C101 0.662 1_565 S
C1146 C387 0.763 . S
C1131 C141 0.694 . S
C1181 C21 0.710 . S
C1196 C407 0.619 . S
C1231 C202 2.042 . S
C1246 C339 1.991 . S
C1281 C242 1.904 . S
C1296 C362 1.905 . S
C1346 C385 1.945 . S
C1331 C282 1.959 1_556 S
C1396 C406 1.580 . S
C1381 C162 1.510 1_556 S
C1431 C42 1.962 . S
C1446 C340 1.920 . S
C1496 C363 1.777 . S
C1481 C82 1.834 1_565 S
C1546 C386 1.773 . S
C1531 C122 1.802 . S
C1581 C2 2.055 . S
C1596 C405 2.098 . S
