# Generated by pormake.
# Topology pyr, (3,6)-cn, num edge types: 1
# Building blocks:
#     Node 0, Type 0, BuildingBlock: OLANEW_clean_sbu_2, # of connection points: 3
#     Node 1, Type 0, BuildingBlock: OLANEW_clean_sbu_2, # of connection points: 3
#     Node 2, Type 0, BuildingBlock: OLANEW_clean_sbu_2, # of connection points: 3
#     Node 3, Type 0, BuildingBlock: OLANEW_clean_sbu_2, # of connection points: 3
#     Node 4, Type 0, BuildingBlock: OLANEW_clean_sbu_2, # of connection points: 3
#     Node 5, Type 0, BuildingBlock: OLANEW_clean_sbu_2, # of connection points: 3
#     Node 6, Type 0, BuildingBlock: OLANEW_clean_sbu_2, # of connection points: 3
#     Node 7, Type 0, BuildingBlock: OLANEW_clean_sbu_2, # of connection points: 3
#     Node 8, Type 1, BuildingBlock: PAMTUU_clean_sbu_0, # of connection points: 6
#     Node 9, Type 1, BuildingBlock: PAMTUU_clean_sbu_0, # of connection points: 6
#     Node 10, Type 1, BuildingBlock: PAMTUU_clean_sbu_0, # of connection points: 6
#     Node 11, Type 1, BuildingBlock: PAMTUU_clean_sbu_0, # of connection points: 6
#     Edge 12, Type (0, 1), BuildingBlock: CIFDUS_clean_linker_0, # of connection points: 2
#     Edge 13, Type (0, 1), BuildingBlock: CIFDUS_clean_linker_0, # of connection points: 2
#     Edge 14, Type (0, 1), BuildingBlock: CIFDUS_clean_linker_0, # of connection points: 2
#     Edge 15, Type (0, 1), BuildingBlock: CIFDUS_clean_linker_0, # of connection points: 2
#     Edge 16, Type (0, 1), BuildingBlock: CIFDUS_clean_linker_0, # of connection points: 2
#     Edge 17, Type (0, 1), BuildingBlock: CIFDUS_clean_linker_0, # of connection points: 2
#     Edge 18, Type (0, 1), BuildingBlock: CIFDUS_clean_linker_0, # of connection points: 2
#     Edge 19, Type (0, 1), BuildingBlock: CIFDUS_clean_linker_0, # of connection points: 2
#     Edge 20, Type (0, 1), BuildingBlock: CIFDUS_clean_linker_0, # of connection points: 2
#     Edge 21, Type (0, 1), BuildingBlock: CIFDUS_clean_linker_0, # of connection points: 2
#     Edge 22, Type (0, 1), BuildingBlock: CIFDUS_clean_linker_0, # of connection points: 2
#     Edge 23, Type (0, 1), BuildingBlock: CIFDUS_clean_linker_0, # of connection points: 2
#     Edge 24, Type (0, 1), BuildingBlock: CIFDUS_clean_linker_0, # of connection points: 2
#     Edge 25, Type (0, 1), BuildingBlock: CIFDUS_clean_linker_0, # of connection points: 2
#     Edge 26, Type (0, 1), BuildingBlock: CIFDUS_clean_linker_0, # of connection points: 2
#     Edge 27, Type (0, 1), BuildingBlock: CIFDUS_clean_linker_0, # of connection points: 2
#     Edge 28, Type (0, 1), BuildingBlock: CIFDUS_clean_linker_0, # of connection points: 2
#     Edge 29, Type (0, 1), BuildingBlock: CIFDUS_clean_linker_0, # of connection points: 2
#     Edge 30, Type (0, 1), BuildingBlock: CIFDUS_clean_linker_0, # of connection points: 2
#     Edge 31, Type (0, 1), BuildingBlock: CIFDUS_clean_linker_0, # of connection points: 2
#     Edge 32, Type (0, 1), BuildingBlock: CIFDUS_clean_linker_0, # of connection points: 2
#     Edge 33, Type (0, 1), BuildingBlock: CIFDUS_clean_linker_0, # of connection points: 2
#     Edge 34, Type (0, 1), BuildingBlock: CIFDUS_clean_linker_0, # of connection points: 2
#     Edge 35, Type (0, 1), BuildingBlock: CIFDUS_clean_linker_0, # of connection points: 2
# Relax obj value: 0.147
# Max RMSD: 0.189
# Mean RMSD: 0.123
data_MOF--net-pyr--node1-OLANEW_clean_sbu_2--node2-PAMTUU_clean_sbu_0--edge1-CIFDUS_clean_linker_0
_symmetry_space_group_name_H-M    P1
_symmetry_Int_Tables_number       1
_symmetry_cell_setting            triclinic
loop_
_symmetry_equiv_pos_as_xyz
'x, y, z'
_cell_length_a     36.153035
_cell_length_b     38.615255
_cell_length_c     36.696199
_cell_angle_alpha  94.694085
_cell_angle_beta   87.934893
_cell_angle_gamma 104.36814
loop_
_atom_site_label
_atom_site_type_symbol
_atom_site_fract_x
_atom_site_fract_y
_atom_site_fract_z
_atom_type_partial_charge
O0 O 0.38602 0.25859 0.10565 0.0
Cd1 Cd 0.37753 0.32013 0.11382 0.0
O2 O 0.38229 0.25837 0.16515 0.0
Cd3 Cd 0.37456 0.23424 0.21725 0.0
O4 O 0.34269 0.21233 0.26486 0.0
C5 C 0.35727 0.21299 0.29595 0.0
O6 O 0.39404 0.22688 0.30018 0.0
C7 C 0.38715 0.24246 0.13431 0.0
C8 C 0.30761 0.33251 0.09499 0.0
O9 O 0.33531 0.33507 0.07172 0.0
O10 O 0.31243 0.32278 0.1267 0.0
O11 O 0.19301 0.7913 0.80011 0.0
Cd12 Cd 0.16587 0.76921 0.74032 0.0
O13 O 0.14196 0.7977 0.83172 0.0
Cd14 Cd 0.10767 0.78968 0.78249 0.0
O15 O 0.08043 0.81041 0.73972 0.0
C16 C 0.10073 0.83828 0.72614 0.0
O17 O 0.13599 0.85091 0.73732 0.0
C18 C 0.17739 0.79871 0.83034 0.0
C19 C 0.22364 0.74456 0.70238 0.0
O20 O 0.19927 0.72419 0.72246 0.0
O21 O 0.2195 0.77609 0.69862 0.0
O22 O 0.71644 0.40904 0.87698 0.0
Cd23 Cd 0.65747 0.39115 0.83747 0.0
O24 O 0.71574 0.36929 0.91855 0.0
Cd25 Cd 0.66595 0.32076 0.91948 0.0
O26 O 0.62797 0.26881 0.93754 0.0
C27 C 0.64091 0.24979 0.95845 0.0
O28 O 0.67664 0.26108 0.96863 0.0
C29 C 0.73173 0.39842 0.90374 0.0
C30 C 0.64427 0.42909 0.77657 0.0
O31 O 0.63456 0.43787 0.80934 0.0
O32 O 0.66187 0.40394 0.77256 0.0
O33 O 0.91889 0.76644 0.35472 0.0
Cd34 Cd 0.88986 0.70546 0.32441 0.0
O35 O 0.86813 0.76309 0.39117 0.0
Cd36 Cd 0.83355 0.70826 0.38337 0.0
O37 O 0.78742 0.67863 0.4177 0.0
C38 C 0.77524 0.6974 0.44337 0.0
O39 O 0.79051 0.7321 0.44692 0.0
C40 C 0.90029 0.78069 0.37945 0.0
C41 C 0.91426 0.67744 0.25607 0.0
O42 O 0.89199 0.69875 0.25769 0.0
O43 O 0.92676 0.6709 0.2864 0.0
O44 O 0.6832 0.75355 0.78365 0.0
Cd45 Cd 0.64607 0.7057 0.81909 0.0
O46 O 0.68058 0.79148 0.83048 0.0
Cd47 Cd 0.68498 0.83947 0.86823 0.0
O48 O 0.66578 0.87178 0.91345 0.0
C49 C 0.63639 0.85502 0.93047 0.0
O50 O 0.62155 0.82117 0.92006 0.0
C51 C 0.69283 0.78544 0.79816 0.0
C52 C 0.69826 0.6819 0.85813 0.0
O53 O 0.6888 0.66859 0.82566 0.0
O54 O 0.68187 0.70561 0.87275 0.0
O55 O 0.89134 0.2457 0.32815 0.0
Cd56 Cd 0.93192 0.27427 0.37921 0.0
O57 O 0.85414 0.28325 0.32853 0.0
Cd58 Cd 0.87235 0.31888 0.37729 0.0
O59 O 0.83606 0.34724 0.41082 0.0
C60 C 0.80621 0.34859 0.39421 0.0
O61 O 0.80168 0.3346 0.3603 0.0
C62 C 0.86412 0.25562 0.31463 0.0
C63 C 0.95815 0.22103 0.40979 0.0
O64 O 0.97777 0.23929 0.38493 0.0
O65 O 0.92681 0.22864 0.42069 0.0
O66 O 0.41865 0.76889 0.26168 0.0
Cd67 Cd 0.3994 0.71464 0.30075 0.0
O68 O 0.3716 0.74315 0.22505 0.0
Cd69 Cd 0.32674 0.72739 0.18265 0.0
O70 O 0.27716 0.69515 0.15049 0.0
C71 C 0.25359 0.70972 0.13654 0.0
O72 O 0.25943 0.74478 0.14077 0.0
C73 C 0.39911 0.77029 0.23352 0.0
C74 C 0.43466 0.68857 0.35851 0.0
O75 O 0.43329 0.67368 0.32586 0.0
O76 O 0.42206 0.71693 0.3635 0.0
O77 O 0.1484 0.43522 0.76993 0.0
Cd78 Cd 0.17224 0.4184 0.70864 0.0
O79 O 0.11421 0.38055 0.77926 0.0
Cd80 Cd 0.1262 0.34854 0.72947 0.0
O81 O 0.12062 0.30037 0.69074 0.0
C82 C 0.10122 0.27046 0.7012 0.0
O83 O 0.08596 0.26976 0.73426 0.0
C84 C 0.12552 0.41371 0.78992 0.0
C85 C 0.24491 0.45649 0.68474 0.0
O86 O 0.21552 0.4691 0.68244 0.0
O87 O 0.24031 0.42668 0.69945 0.0
Tb88 Tb 0.06171 0.02412 0.53126 0.0
Tb89 Tb 0.97877 1.00357 0.57421 0.0
C90 C 0.99812 0.95566 0.50634 0.0
C91 C 0.15109 0.06409 0.4784 0.0
C92 C 0.19875 0.11249 0.43329 0.0
C93 C 0.21209 0.08539 0.44794 0.0
C94 C 0.18842 0.06143 0.47029 0.0
C95 C 0.13784 0.0917 0.46493 0.0
C96 C 0.16155 0.11577 0.44247 0.0
C97 C 0.12599 0.03645 0.49904 0.0
O98 O 0.02446 0.04725 0.50049 0.0
O99 O 0.97788 0.04948 0.54453 0.0
O100 O 0.01712 0.04686 0.60677 0.0
O101 O 0.05875 0.07353 0.56288 0.0
O102 O 0.91866 0.99053 0.57425 0.0
O103 O 0.94971 0.99893 0.62468 0.0
O104 O 0.00861 0.96425 0.58821 0.0
O105 O 0.06869 1.00015 0.58137 0.0
O106 O 0.03446 0.96879 0.51336 0.0
O107 O 0.97181 0.96964 0.52303 0.0
C108 C 0.99491 0.0589 0.51339 0.0
O109 O 0.1212 0.04462 0.53376 0.0
O110 O 0.09405 0.01954 0.48345 0.0
C111 C 0.04238 0.07482 0.5953 0.0
C112 C 0.88748 0.96182 0.62556 0.0
C113 C 0.8341 0.90913 0.66164 0.0
C114 C 0.83052 0.94463 0.66343 0.0
C115 C 0.85697 0.97069 0.64553 0.0
C116 C 0.89098 0.92634 0.62298 0.0
C117 C 0.86432 0.90008 0.64082 0.0
C118 C 0.91621 0.99072 0.60978 0.0
C119 C 0.04532 0.97217 0.59469 0.0
H120 H 0.24031 0.08176 0.44096 0.0
H121 H 0.19893 0.04012 0.48042 0.0
H122 H 0.109 0.0941 0.4711 0.0
H123 H 0.15062 0.13657 0.43186 0.0
H124 H 0.80727 0.9523 0.67878 0.0
H125 H 0.85394 0.99802 0.6478 0.0
H126 H 0.91461 0.91916 0.60782 0.0
H127 H 0.86791 0.87297 0.63916 0.0
Tb128 Tb 0.53424 0.03496 0.13701 0.0
Tb129 Tb 0.47175 1.00379 0.07203 0.0
C130 C 0.54811 0.98194 0.07168 0.0
C131 C 0.61787 0.08866 0.19163 0.0
C132 C 0.6855 0.14256 0.20557 0.0
C133 C 0.68619 0.11221 0.18187 0.0
C134 C 0.65262 0.08549 0.17486 0.0
C135 C 0.61725 0.11914 0.21499 0.0
C136 C 0.6506 0.14584 0.22177 0.0
C137 C 0.58229 0.06015 0.18667 0.0
O138 O 0.54823 0.07616 0.09864 0.0
O139 O 0.51531 0.04707 0.04746 0.0
O140 O 0.46215 0.05395 0.09504 0.0
O141 O 0.48254 0.05281 0.15262 0.0
O142 O 0.45784 0.98361 0.01808 0.0
O143 O 0.41447 0.99412 0.05701 0.0
O144 O 0.45192 0.96789 0.11671 0.0
O145 O 0.50527 0.98203 0.15279 0.0
O146 O 0.56305 0.01206 0.09104 0.0
O147 O 0.51109 0.96983 0.0689 0.0
C148 C 0.54057 0.07437 0.06368 0.0
O149 O 0.5514 0.07092 0.18269 0.0
O150 O 0.58322 0.03207 0.16473 0.0
C151 C 0.46317 0.06535 0.1295 0.0
C152 C 0.39337 0.9507 1.00805 0.0
C153 C 0.34004 0.89522 0.96955 0.0
C154 C 0.33093 0.92778 0.98111 0.0
C155 C 0.3573 0.95513 1.00014 0.0
C156 C 0.40224 0.91777 0.99804 0.0
C157 C 0.37572 0.89021 0.97892 0.0
C158 C 0.4216 0.98209 0.02389 0.0
C159 C 0.47177 0.96121 0.1438 0.0
H160 H 0.7127 0.10903 0.169 0.0
H161 H 0.65403 0.06223 0.15676 0.0
H162 H 0.59098 0.12207 0.22861 0.0
H163 H 0.64924 0.1685 0.24077 0.0
H164 H 0.30413 0.93295 0.97385 0.0
H165 H 0.35001 0.98043 1.00747 0.0
H166 H 0.42992 0.91372 1.00403 0.0
H167 H 0.38347 0.86532 0.97073 0.0
Tb168 Tb 0.52483 0.51381 0.54561 0.0
Tb169 Tb 0.5234 0.58799 0.59546 0.0
C170 C 0.49538 0.57631 0.51372 0.0
C171 C 0.55998 0.44232 0.49324 0.0
C172 C 0.62128 0.41577 0.46295 0.0
C173 C 0.58323 0.39783 0.4548 0.0
C174 C 0.55288 0.41106 0.46975 0.0
C175 C 0.59775 0.4599 0.50225 0.0
C176 C 0.62817 0.44675 0.48723 0.0
C177 C 0.52809 0.45727 0.50699 0.0
O178 O 0.57595 0.55228 0.53002 0.0
O179 O 0.58306 0.59636 0.57753 0.0
O180 O 0.53891 0.55182 0.63174 0.0
O181 O 0.5634 0.51502 0.59083 0.0
O182 O 0.52945 0.64376 0.60239 0.0
O183 O 0.5123 0.61064 0.64742 0.0
O184 O 0.46428 0.55652 0.59167 0.0
O185 O 0.476 0.501 0.58259 0.0
O186 O 0.49046 0.54134 0.5151 0.0
O187 O 0.51256 0.59892 0.54013 0.0
C188 C 0.59611 0.58114 0.54799 0.0
O189 O 0.52251 0.45868 0.54226 0.0
O190 O 0.52648 0.48705 0.49364 0.0
C191 C 0.55887 0.52777 0.62463 0.0
C192 C 0.48153 0.65673 0.64334 0.0
C193 C 0.41192 0.67528 0.66035 0.0
C194 C 0.43658 0.67295 0.68829 0.0
C195 C 0.47115 0.66392 0.67983 0.0
C196 C 0.45735 0.65993 0.61527 0.0
C197 C 0.42297 0.66944 0.62373 0.0
C198 C 0.51512 0.64199 0.63547 0.0
C199 C 0.45341 0.52168 0.59375 0.0
H200 H 0.57687 0.37358 0.4367 0.0
H201 H 0.52389 0.39712 0.46261 0.0
H202 H 0.60369 0.48412 0.5204 0.0
H203 H 0.65707 0.46142 0.49383 0.0
H204 H 0.42885 0.67766 0.71673 0.0
H205 H 0.48921 0.66133 0.70188 0.0
H206 H 0.46438 0.654 0.58687 0.0
H207 H 0.40432 0.67085 0.60173 0.0
Tb208 Tb 0.99791 0.56529 1.00186 0.0
Tb209 Tb 0.0077 0.4962 0.04345 0.0
C210 C 0.04112 0.51071 0.96433 0.0
C211 C 0.95267 0.62386 0.95386 0.0
C212 C 0.88586 0.6338 0.92384 0.0
C213 C 0.92125 0.64445 0.90562 0.0
C214 C 0.9544 0.63958 0.92058 0.0
C215 C 0.91743 0.61349 0.97237 0.0
C216 C 0.8843 0.6187 0.95759 0.0
C217 C 0.9871 0.61566 0.96722 0.0
O218 O 0.95101 0.52039 0.98354 0.0
O219 O 0.94671 0.48492 0.0314 0.0
O220 O 0.99283 0.53348 0.08591 0.0
O221 O 0.96388 0.56646 0.05221 0.0
O222 O 1.00362 0.44077 0.04231 0.0
O223 O 0.02275 0.47544 0.09041 0.0
O224 O 0.0645 0.53296 0.04304 0.0
O225 O 0.04777 0.5857 0.03603 0.0
O226 O 0.04184 0.54478 0.97119 0.0
O227 O 0.02251 0.4867 0.98607 0.0
C228 C 0.93205 0.49375 1.00216 0.0
O229 O 0.991 0.6178 1.00256 0.0
O230 O 0.99491 0.58675 0.95165 0.0
C231 C 0.97235 0.55702 0.08392 0.0
C232 C 0.05118 0.42672 0.07801 0.0
C233 C 0.11277 0.395 0.08703 0.0
C234 C 0.09677 0.41141 0.11719 0.0
C235 C 0.06628 0.42686 0.11273 0.0
C236 C 0.06711 0.41049 0.04771 0.0
C237 C 0.09752 0.39476 0.0522 0.0
C238 C 0.01888 0.44346 0.07437 0.0
C239 C 0.0723 0.56827 0.04594 0.0
H240 H 0.92325 0.65644 0.87971 0.0
H241 H 0.9813 0.64743 0.90579 0.0
H242 H 0.91539 0.60072 0.99783 0.0
H243 H 0.85731 0.60999 0.972 0.0
H244 H 0.1081 0.41278 0.14433 0.0
H245 H 0.05457 0.43917 0.13656 0.0
H246 H 0.05609 0.40983 0.02053 0.0
H247 H 0.10875 0.38203 0.0284 0.0
H248 H 0.28006 0.19083 0.29766 0.0
H249 H 0.37938 0.20128 0.36351 0.0
H250 H 0.33862 0.17347 0.41311 0.0
H251 H 0.27506 0.14358 0.43643 0.0
H252 H 0.17631 0.132 0.3695 0.0
H253 H 0.21659 0.16373 0.32196 0.0
C254 C 0.29287 0.18713 0.32288 0.0
C255 C 0.33275 0.19778 0.32673 0.0
C256 C 0.26935 0.17114 0.35116 0.0
C257 C 0.34878 0.19317 0.35977 0.0
C258 C 0.3255 0.17727 0.38813 0.0
C259 C 0.26238 0.14807 0.41145 0.0
C260 C 0.22277 0.13529 0.40647 0.0
C261 C 0.2858 0.16574 0.38392 0.0
C262 C 0.20664 0.14189 0.37424 0.0
C263 C 0.2297 0.15972 0.34688 0.0
H264 H 0.2529 0.80217 0.83621 0.0
H265 H 0.15593 0.82326 0.89808 0.0
H266 H 0.19748 0.85092 0.94901 0.0
H267 H 0.26213 0.8746 0.97321 0.0
H268 H 0.35913 0.8565 0.90927 0.0
H269 H 0.31659 0.82122 0.8625 0.0
C270 C 0.24068 0.81244 0.86097 0.0
C271 C 0.20139 0.81109 0.86305 0.0
C272 C 0.26478 0.82883 0.88986 0.0
C273 C 0.18609 0.82417 0.89556 0.0
C274 C 0.20986 0.84007 0.9247 0.0
C275 C 0.27396 0.86274 0.94914 0.0
C276 C 0.31385 0.8686 0.94465 0.0
C277 C 0.24938 0.84344 0.92171 0.0
C278 C 0.32861 0.85229 0.9137 0.0
C279 C 0.30429 0.83241 0.88667 0.0
H280 H 0.60705 0.48313 0.77597 0.0
H281 H 0.65697 0.41274 0.70367 0.0
H282 H 0.63617 0.43695 0.65061 0.0
H283 H 0.60161 0.47703 0.62415 0.0
H284 H 0.55235 0.54746 0.69733 0.0
H285 H 0.57498 0.52452 0.74978 0.0
C286 C 0.61367 0.47319 0.74865 0.0
C287 C 0.63366 0.44596 0.74419 0.0
C288 C 0.60149 0.48724 0.718 0.0
C289 C 0.64176 0.43363 0.70828 0.0
C290 C 0.62974 0.44746 0.67775 0.0
C291 C 0.59597 0.48753 0.65153 0.0
C292 C 0.57498 0.51407 0.65628 0.0
C293 C 0.60923 0.4741 0.68216 0.0
C294 C 0.56822 0.52712 0.69231 0.0
C295 C 0.58119 0.51394 0.7226 0.0
H296 H 0.94676 0.62062 0.24518 0.0
H297 H 0.90168 0.69305 0.18663 0.0
H298 H 0.91423 0.66191 0.12843 0.0
H299 H 0.93838 0.61387 0.09378 0.0
H300 H 0.98194 0.54098 0.15346 0.0
H301 H 0.96928 0.57218 0.21103 0.0
C302 C 0.93987 0.6298 0.21971 0.0
C303 C 0.92354 0.65943 0.22049 0.0
C304 C 0.94662 0.61139 0.18627 0.0
C305 C 0.91441 0.67049 0.18704 0.0
C306 C 0.92149 0.65258 0.15365 0.0
C307 C 0.9448 0.60458 0.11936 0.0
C308 C 0.96116 0.5749 0.11889 0.0
C309 C 0.93751 0.62287 0.15286 0.0
C310 C 0.96938 0.5636 0.15258 0.0
C311 C 0.96225 0.58156 0.18574 0.0
H312 H 0.423 0.21175 0.18268 0.0
H313 H 0.36741 0.19153 0.07826 0.0
H314 H 0.38262 0.13324 0.06976 0.0
H315 H 0.41517 0.09015 0.08969 0.0
H316 H 0.47318 0.11014 0.19288 0.0
H317 H 0.45224 0.16585 0.20486 0.0
C318 C 0.41324 0.19416 0.15859 0.0
C319 C 0.39362 0.20585 0.13133 0.0
C320 C 0.42255 0.16069 0.15366 0.0
C321 C 0.3825 0.18322 0.09962 0.0
C322 C 0.39115 0.14985 0.09477 0.0
C323 C 0.42301 0.1064 0.11507 0.0
C324 C 0.44601 0.096 0.14024 0.0
C325 C 0.41171 0.13863 0.12128 0.0
C326 C 0.45547 0.11738 0.17306 0.0
C327 C 0.44372 0.14939 0.17977 0.0
H328 H 0.13756 0.89758 0.6929 0.0
H329 H 0.02732 0.82305 0.70122 0.0
H330 H 1.00029 0.85764 0.66102 0.0
H331 H 0.0078 0.91013 0.6247 0.0
H332 H 0.11868 0.98411 0.61714 0.0
H333 H 0.14541 0.94864 0.65589 0.0
C334 C 0.10763 0.88874 0.68586 0.0
C335 C 0.08452 0.85781 0.70017 0.0
C336 C 0.09229 0.90878 0.66295 0.0
C337 C 0.0458 0.84676 0.6906 0.0
C338 C 0.03029 0.86659 0.66767 0.0
C339 C 0.0378 0.91848 0.63151 0.0
C340 C 0.06107 0.94989 0.61805 0.0
C341 C 0.05322 0.89783 0.65391 0.0
C342 C 0.09997 0.96015 0.62707 0.0
C343 C 0.11539 0.93986 0.64927 0.0
H344 H 0.77162 0.38683 0.96223 0.0
H345 H 0.77716 0.46025 0.8784 0.0
H346 H 0.83845 0.49603 0.90155 0.0
H347 H 0.89123 0.50646 0.94511 0.0
H348 H 0.88566 0.43327 0.02913 0.0
H349 H 0.82394 0.39784 1.00646 0.0
C350 C 0.78612 0.41064 0.94891 0.0
C351 C 0.76935 0.42051 0.91833 0.0
C352 C 0.8216 0.43133 0.96247 0.0
C353 C 0.78896 0.4517 0.90182 0.0
C354 C 0.8242 0.47229 0.9151 0.0
C355 C 0.8766 0.48278 0.9586 0.0
C356 C 0.89354 0.47271 0.98893 0.0
C357 C 0.8409 0.46235 0.94534 0.0
C358 C 0.87367 0.44191 1.00587 0.0
C359 C 0.83825 0.4215 0.99282 0.0
H360 H 0.74331 0.62637 0.44945 0.0
H361 H 0.73684 0.73164 0.49412 0.0
H362 H 0.68327 0.70505 0.5336 0.0
H363 H 0.63506 0.65179 0.55242 0.0
H364 H 0.64173 0.54691 0.50671 0.0
H365 H 0.69849 0.57334 0.47137 0.0
C366 C 0.7303 0.64351 0.46791 0.0
C367 C 0.74387 0.68093 0.46847 0.0
C368 C 0.69947 0.62807 0.49059 0.0
C369 C 0.72688 0.70271 0.49291 0.0
C370 C 0.6962 0.68754 0.51558 0.0
C371 C 0.64945 0.63476 0.53531 0.0
C372 C 0.63403 0.59748 0.53209 0.0
C373 C 0.68187 0.65023 0.51433 0.0
C374 C 0.65281 0.57574 0.5095 0.0
C375 C 0.68526 0.59082 0.48913 0.0
H376 H 0.24247 0.32558 0.13646 0.0
H377 H 0.29292 0.36263 0.03392 0.0
H378 H 0.23683 0.38416 0.02182 0.0
H379 H 0.17505 0.39566 0.04199 0.0
H380 H 0.12384 0.35682 0.1437 0.0
H381 H 0.17877 0.33331 0.15456 0.0
C382 C 0.24111 0.33811 0.11132 0.0
C383 C 0.27204 0.34261 0.08626 0.0
C384 C 0.20875 0.35052 0.10452 0.0
C385 C 0.2696 0.35878 0.05374 0.0
C386 C 0.23754 0.37124 0.04682 0.0
C387 C 0.17553 0.38156 0.06626 0.0
C388 C 0.14534 0.37852 0.09216 0.0
C389 C 0.20713 0.36767 0.07223 0.0
C390 C 0.14692 0.36041 0.12364 0.0
C391 C 0.17826 0.34668 0.1298 0.0
H392 H 0.6615 0.20633 1.00447 0.0
H393 H 0.5652 0.2163 0.94381 0.0
H394 H 0.52595 0.16147 0.96834 0.0
H395 H 0.51832 0.11133 1.0097 0.0
H396 H 0.61554 0.10474 0.07114 0.0
H397 H 0.65478 0.15694 0.04347 0.0
C398 C 0.63196 0.19661 0.99635 0.0
C399 C 0.61653 0.21579 0.97224 0.0
C400 C 0.60953 0.16527 0.01079 0.0
C401 C 0.57805 0.20236 0.96231 0.0
C402 C 0.55552 0.17087 0.97637 0.0
C403 C 0.54822 0.12107 0.01651 0.0
C404 C 0.56391 0.10389 0.04249 0.0
C405 C 0.57084 0.1521 1.00091 0.0
C406 C 0.60262 0.11733 0.05139 0.0
C407 C 0.62517 0.14732 0.03559 0.0
H408 H 0.97424 0.81494 0.39799 0.0
H409 H 0.85917 0.82824 0.40166 0.0
H410 H 0.8791 0.88368 0.44037 0.0
H411 H 0.92787 0.92623 0.47712 0.0
H412 H 0.04312 0.91333 0.47494 0.0
H413 H 0.02454 0.86031 0.43223 0.0
C414 C 0.95383 0.83047 0.4066 0.0
C415 C 0.91527 0.81744 0.39683 0.0
C416 C 0.96534 0.86221 0.42981 0.0
C417 C 0.88902 0.83762 0.40877 0.0
C418 C 0.90033 0.86929 0.43112 0.0
C419 C 0.949 0.91191 0.4673 0.0
C420 C 0.98676 0.92375 0.47966 0.0
C421 C 0.93818 0.88141 0.44258 0.0
C422 C 0.01375 0.90489 0.46616 0.0
C423 C 1.00317 0.87449 0.4416 0.0
H424 H 0.25083 0.68945 0.7216 0.0
H425 H 0.2729 0.77484 0.64886 0.0
H426 H 0.33236 0.7597 0.62785 0.0
H427 H 0.38004 0.7244 0.63302 0.0
H428 H 0.35903 0.64137 0.70839 0.0
H429 H 0.29728 0.65344 0.72564 0.0
C430 C 0.26836 0.70445 0.70078 0.0
C431 C 0.25741 0.73316 0.68674 0.0
C432 C 0.30294 0.69627 0.68963 0.0
C433 C 0.2807 0.7526 0.6601 0.0
C434 C 0.31475 0.74403 0.64815 0.0
C435 C 0.36172 0.70883 0.65299 0.0
C436 C 0.37407 0.68224 0.66963 0.0
C437 C 0.32647 0.71629 0.66318 0.0
C438 C 0.35028 0.66233 0.69563 0.0
C439 C 0.31493 0.66909 0.70536 0.0
H440 H 0.71637 0.77911 0.72755 0.0
H441 H 0.72828 0.85523 0.82194 0.0
H442 H 0.77196 0.89991 0.78778 0.0
H443 H 0.80857 0.917 0.73158 0.0
H444 H 0.79847 0.84041 0.6378 0.0
H445 H 0.75294 0.79602 0.67156 0.0
C446 C 0.7283 0.80551 0.74075 0.0
C447 C 0.7183 0.81373 0.77737 0.0
C448 C 0.75418 0.83091 0.7211 0.0
C449 C 0.73444 0.84809 0.79381 0.0
C450 C 0.75986 0.8737 0.77428 0.0
C451 C 0.79613 0.89068 0.71843 0.0
C452 C 0.80677 0.88202 0.6822 0.0
C453 C 0.77005 0.86534 0.73799 0.0
C454 C 0.79098 0.84761 0.66575 0.0
C455 C 0.7648 0.82232 0.68496 0.0
H456 H 0.80928 0.27181 0.27542 0.0
H457 H 0.8648 0.18699 0.2895 0.0
H458 H 0.81649 0.14503 0.25211 0.0
H459 H 0.75331 0.13061 0.22373 0.0
H460 H 0.69733 0.21535 0.21116 0.0
H461 H 0.75108 0.25919 0.23964 0.0
C462 C 0.81125 0.2443 0.26981 0.0
C463 C 0.84022 0.23244 0.28582 0.0
C464 C 0.78298 0.22017 0.24897 0.0
C465 C 0.84266 0.19682 0.27775 0.0
C466 C 0.81489 0.17272 0.25654 0.0
C467 C 0.75336 0.1588 0.22631 0.0
C468 C 0.72113 0.16966 0.21593 0.0
C469 C 0.78413 0.1838 0.24321 0.0
C470 C 0.72151 0.20627 0.21962 0.0
C471 C 0.75223 0.23134 0.23585 0.0
H472 H 0.44166 0.61946 0.36329 0.0
H473 H 0.458 0.72175 0.42534 0.0
H474 H 0.47768 0.69634 0.47807 0.0
H475 H 0.48981 0.64512 0.50728 0.0
H476 H 0.47114 0.54185 0.44679 0.0
H477 H 0.45261 0.56738 0.39334 0.0
C478 C 0.44983 0.63629 0.38824 0.0
C479 C 0.44858 0.67277 0.38994 0.0
C480 C 0.46044 0.62118 0.41907 0.0
C481 C 0.45873 0.69379 0.42291 0.0
C482 C 0.46995 0.67919 0.45324 0.0
C483 C 0.48166 0.62802 0.48248 0.0
C484 C 0.48204 0.59137 0.48141 0.0
C485 C 0.47078 0.6429 0.45177 0.0
C486 C 0.47106 0.56997 0.4488 0.0
C487 C 0.46058 0.58467 0.41803 0.0
H488 H 0.12932 0.48336 0.81598 0.0
H489 H 0.08715 0.37383 0.84372 0.0
H490 H 0.05869 0.39412 0.90006 0.0
H491 H 0.0436 0.44245 0.94071 0.0
H492 H 0.08403 0.55214 0.91309 0.0
H493 H 0.1152 0.53229 0.85783 0.0
C494 C 0.11418 0.46395 0.83448 0.0
C495 C 0.11045 0.42703 0.82534 0.0
C496 C 0.09729 0.4758 0.86692 0.0
C497 C 0.09046 0.40235 0.84973 0.0
C498 C 0.07408 0.41393 0.88208 0.0
C499 C 0.0593 0.46214 0.92274 0.0
C500 C 0.06124 0.49881 0.93121 0.0
C501 C 0.07695 0.45053 0.8908 0.0
C502 C 0.08187 0.52375 0.9074 0.0
C503 C 0.09976 0.5124 0.87569 0.0
H504 H 0.66211 0.92257 0.9639 0.0
H505 H 0.56786 0.82845 0.9633 0.0
H506 H 0.53381 0.85874 1.00871 0.0
H507 H 0.52878 0.9126 0.04587 0.0
H508 H 0.62217 1.0072 0.04804 0.0
H509 H 0.65882 0.97588 1.00526 0.0
C510 C 0.63422 0.90867 0.97388 0.0
C511 C 0.61746 0.87337 0.95987 0.0
C512 C 0.61464 0.92626 1.00031 0.0
C513 C 0.58145 0.85562 0.97339 0.0
C514 C 0.56186 0.87292 0.9994 0.0
C515 C 0.55729 0.92636 0.03722 0.0
C516 C 0.5726 0.96226 0.04981 0.0
C517 C 0.57792 0.90834 0.01262 0.0
C518 C 0.60977 0.97952 0.03876 0.0
C519 C 0.63061 0.96169 0.01412 0.0
H520 H 0.91904 0.17427 0.45706 0.0
H521 H 0.02538 0.20117 0.39624 0.0
H522 H 0.04557 0.15209 0.42127 0.0
H523 H 0.03348 0.10229 0.46184 0.0
H524 H 0.9268 0.07646 0.52247 0.0
H525 H 0.90628 0.12409 0.49581 0.0
C526 C 0.94667 0.16948 0.44926 0.0
C527 C 0.97071 0.19151 0.42498 0.0
C528 C 0.95801 0.14123 0.46361 0.0
C529 C 0.00632 0.1847 0.41499 0.0
C530 C 0.01788 0.15659 0.42925 0.0
C531 C 0.00558 0.10684 0.46886 0.0
C532 C 0.9818 0.08584 0.49421 0.0
C533 C 0.99398 0.13471 0.45369 0.0
C534 C 0.94583 0.09231 0.50323 0.0
C535 C 0.93402 0.11961 0.48802 0.0
H536 H 0.23075 0.63633 0.12396 0.0
H537 H 0.19868 0.73371 0.10462 0.0
H538 H 0.1411 0.69886 0.07413 0.0
H539 H 0.09864 0.64101 0.05433 0.0
H540 H 0.1296 0.54309 0.07343 0.0
H541 H 0.18862 0.57784 0.10228 0.0
C542 C 0.21125 0.64995 0.11296 0.0
C543 C 0.21922 0.68775 0.11683 0.0
C544 C 0.17782 0.62962 0.09535 0.0
C545 C 0.19348 0.70477 0.10226 0.0
C546 C 0.1604 0.68482 0.08475 0.0
C547 C 0.11829 0.62712 0.0646 0.0
C548 C 0.1094 0.58933 0.06164 0.0
C549 C 0.15212 0.64726 0.08135 0.0
C550 C 0.13551 0.57207 0.07519 0.0
C551 C 0.16932 0.59198 0.09182 0.0
H552 H 0.30518 0.42786 0.6671 0.0
H553 H 0.26907 0.52619 0.6668 0.0
H554 H 0.33031 0.55546 0.63903 0.0
H555 H 0.39415 0.55271 0.6138 0.0
H556 H 0.42789 0.4528 0.61205 0.0
H557 H 0.36773 0.42477 0.64127 0.0
C558 C 0.31076 0.45577 0.6612 0.0
C559 C 0.28261 0.47482 0.66926 0.0
C560 C 0.34565 0.47217 0.6445 0.0
C561 C 0.29022 0.51087 0.66094 0.0
C562 C 0.32525 0.52762 0.64498 0.0
C563 C 0.3883 0.52479 0.61972 0.0
C564 C 0.41573 0.505 0.61053 0.0
C565 C 0.35317 0.50847 0.63641 0.0
C566 C 0.40746 0.46879 0.61849 0.0
C567 C 0.37299 0.45265 0.63539 0.0
H568 H 0.74856 0.64552 0.82863 0.0
H569 H 0.71757 0.69674 0.9301 0.0
H570 H 0.77198 0.68472 0.96 0.0
H571 H 0.83043 0.66255 0.95631 0.0
H572 H 0.86255 0.61387 0.85397 0.0
H573 H 0.80569 0.62214 0.82531 0.0
C574 C 0.75343 0.65371 0.8574 0.0
C575 C 0.72905 0.67196 0.87711 0.0
C576 C 0.78518 0.64747 0.87414 0.0
C577 C 0.73596 0.68267 0.91429 0.0
C578 C 0.7671 0.67588 0.93139 0.0
C579 C 0.82469 0.65348 0.92784 0.0
C580 C 0.85062 0.63781 0.90718 0.0
C581 C 0.7922 0.65875 0.91144 0.0
C582 C 0.84317 0.62643 0.87024 0.0
C583 C 0.81062 0.631 0.85391 0.0
H584 H 0.44335 0.83744 0.25331 0.0
H585 H 0.37497 0.77765 0.16454 0.0
H586 H 0.38839 0.83099 0.13007 0.0
H587 H 0.42165 0.89532 0.12388 0.0
H588 H 0.49064 0.95379 0.21312 0.0
H589 H 0.47483 0.90106 0.24798 0.0
C590 C 0.43132 0.83593 0.22641 0.0
C591 C 0.40783 0.80312 0.21198 0.0
C592 C 0.4393 0.86694 0.20649 0.0
C593 C 0.39261 0.80225 0.17696 0.0
C594 C 0.40047 0.83294 0.15698 0.0
C595 C 0.43277 0.89666 0.15114 0.0
C596 C 0.45745 0.92894 0.16555 0.0
C597 C 0.42388 0.8656 0.17136 0.0
C598 C 0.4718 0.92962 0.20092 0.0
C599 C 0.46281 0.89928 0.22106 0.0
H600 H 0.06088 0.20379 0.71649 0.0
H601 H 0.12774 0.26132 0.63071 0.0
H602 H 0.11642 0.20592 0.59064 0.0
H603 H 0.08641 0.14103 0.57963 0.0
H604 H 0.0192 0.08464 0.6661 0.0
H605 H 0.03193 0.13961 0.706 0.0
C606 C 0.07311 0.20434 0.68906 0.0
C607 C 0.09512 0.23685 0.67673 0.0
C608 C 0.0664 0.17246 0.66617 0.0
C609 C 0.11067 0.23679 0.64102 0.0
C610 C 0.10419 0.20507 0.61805 0.0
C611 C 0.07471 0.1407 0.60727 0.0
C612 C 0.05183 0.10851 0.61968 0.0
C613 C 0.08197 0.17271 0.63028 0.0
C614 C 0.03683 0.10882 0.6556 0.0
C615 C 0.04408 0.14035 0.67856 0.0
H616 H 0.74105 0.35505 0.36448 0.0
H617 H 0.80332 0.37648 0.46535 0.0
H618 H 0.7518 0.3995 0.49555 0.0
H619 H 0.68813 0.41206 0.4935 0.0
H620 H 0.62713 0.39087 0.39184 0.0
H621 H 0.67896 0.36881 0.36197 0.0
C622 C 0.74353 0.36483 0.39307 0.0
C623 C 0.77603 0.36395 0.41261 0.0
C624 C 0.71384 0.37782 0.41023 0.0
C625 C 0.77865 0.37684 0.44963 0.0
C626 C 0.74915 0.38995 0.46693 0.0
C627 C 0.68633 0.40289 0.46474 0.0
C628 C 0.65352 0.40285 0.44508 0.0
C629 C 0.71649 0.39039 0.44753 0.0
C630 C 0.6516 0.39056 0.40788 0.0
C631 C 0.68138 0.37817 0.39065 0.0
loop_
_geom_bond_atom_site_label_1
_geom_bond_atom_site_label_2
_geom_bond_distance
_geom_bond_site_symmetry_2
_ccdc_geom_bond_type
O0 Cd1 2.300 . S
O0 C7 1.275 . S
Cd1 O0 2.300 . S
Cd1 O9 2.381 . S
Cd1 O10 2.378 . S
O2 Cd3 2.385 . S
O2 C7 1.255 . S
Cd3 O2 2.385 . S
Cd3 O4 2.317 . S
O4 Cd3 2.317 . S
O4 C5 1.232 . S
C5 O4 1.232 . S
C5 O6 1.218 . S
O6 C5 1.218 . S
C7 O0 1.275 . S
C7 O2 1.255 . S
C8 O9 1.258 . S
C8 O10 1.256 . S
O9 Cd1 2.381 . S
O9 C8 1.258 . S
O10 Cd1 2.378 . S
O10 C8 1.256 . S
O11 Cd12 2.300 . S
O11 C18 1.275 . S
Cd12 O11 2.300 . S
Cd12 O20 2.381 . S
Cd12 O21 2.378 . S
O13 Cd14 2.385 . S
O13 C18 1.255 . S
Cd14 O13 2.385 . S
Cd14 O15 2.317 . S
O15 Cd14 2.317 . S
O15 C16 1.232 . S
C16 O15 1.232 . S
C16 O17 1.218 . S
O17 C16 1.218 . S
C18 O11 1.275 . S
C18 O13 1.255 . S
C19 O20 1.258 . S
C19 O21 1.256 . S
O20 Cd12 2.381 . S
O20 C19 1.258 . S
O21 Cd12 2.378 . S
O21 C19 1.256 . S
O22 Cd23 2.300 . S
O22 C29 1.275 . S
Cd23 O22 2.300 . S
Cd23 O31 2.381 . S
Cd23 O32 2.378 . S
O24 Cd25 2.385 . S
O24 C29 1.255 . S
Cd25 O24 2.385 . S
Cd25 O26 2.317 . S
O26 Cd25 2.317 . S
O26 C27 1.232 . S
C27 O26 1.232 . S
C27 O28 1.218 . S
O28 C27 1.218 . S
C29 O22 1.275 . S
C29 O24 1.255 . S
C30 O31 1.258 . S
C30 O32 1.256 . S
O31 Cd23 2.381 . S
O31 C30 1.258 . S
O32 Cd23 2.378 . S
O32 C30 1.256 . S
O33 Cd34 2.300 . S
O33 C40 1.275 . S
Cd34 O33 2.300 . S
Cd34 O42 2.381 . S
Cd34 O43 2.378 . S
O35 Cd36 2.385 . S
O35 C40 1.255 . S
Cd36 O35 2.385 . S
Cd36 O37 2.317 . S
O37 Cd36 2.317 . S
O37 C38 1.232 . S
C38 O37 1.232 . S
C38 O39 1.218 . S
O39 C38 1.218 . S
C40 O33 1.275 . S
C40 O35 1.255 . S
C41 O42 1.258 . S
C41 O43 1.256 . S
O42 Cd34 2.381 . S
O42 C41 1.258 . S
O43 Cd34 2.378 . S
O43 C41 1.256 . S
O44 Cd45 2.300 . S
O44 C51 1.275 . S
Cd45 O44 2.300 . S
Cd45 O53 2.381 . S
Cd45 O54 2.378 . S
O46 Cd47 2.385 . S
O46 C51 1.255 . S
Cd47 O46 2.385 . S
Cd47 O48 2.317 . S
O48 Cd47 2.317 . S
O48 C49 1.232 . S
C49 O48 1.232 . S
C49 O50 1.218 . S
O50 C49 1.218 . S
C51 O44 1.275 . S
C51 O46 1.255 . S
C52 O53 1.258 . S
C52 O54 1.256 . S
O53 Cd45 2.381 . S
O53 C52 1.258 . S
O54 Cd45 2.378 . S
O54 C52 1.256 . S
O55 Cd56 2.300 . S
O55 C62 1.275 . S
Cd56 O55 2.300 . S
Cd56 O64 2.381 . S
Cd56 O65 2.378 . S
O57 Cd58 2.385 . S
O57 C62 1.255 . S
Cd58 O57 2.385 . S
Cd58 O59 2.317 . S
O59 Cd58 2.317 . S
O59 C60 1.232 . S
C60 O59 1.232 . S
C60 O61 1.218 . S
O61 C60 1.218 . S
C62 O55 1.275 . S
C62 O57 1.255 . S
C63 O64 1.258 . S
C63 O65 1.256 . S
O64 Cd56 2.381 . S
O64 C63 1.258 . S
O65 Cd56 2.378 . S
O65 C63 1.256 . S
O66 Cd67 2.300 . S
O66 C73 1.275 . S
Cd67 O66 2.300 . S
Cd67 O75 2.381 . S
Cd67 O76 2.378 . S
O68 Cd69 2.385 . S
O68 C73 1.255 . S
Cd69 O68 2.385 . S
Cd69 O70 2.317 . S
O70 Cd69 2.317 . S
O70 C71 1.232 . S
C71 O70 1.232 . S
C71 O72 1.218 . S
O72 C71 1.218 . S
C73 O66 1.275 . S
C73 O68 1.255 . S
C74 O75 1.258 . S
C74 O76 1.256 . S
O75 Cd67 2.381 . S
O75 C74 1.258 . S
O76 Cd67 2.378 . S
O76 C74 1.256 . S
O77 Cd78 2.300 . S
O77 C84 1.275 . S
Cd78 O77 2.300 . S
Cd78 O86 2.381 . S
Cd78 O87 2.378 . S
O79 Cd80 2.385 . S
O79 C84 1.255 . S
Cd80 O79 2.385 . S
Cd80 O81 2.317 . S
O81 Cd80 2.317 . S
O81 C82 1.232 . S
C82 O81 1.232 . S
C82 O83 1.218 . S
O83 C82 1.218 . S
C84 O77 1.275 . S
C84 O79 1.255 . S
C85 O86 1.258 . S
C85 O87 1.256 . S
O86 Cd78 2.381 . S
O86 C85 1.258 . S
O87 Cd78 2.378 . S
O87 C85 1.256 . S
Tb88 C97 2.764 . S
Tb88 O98 2.319 1_455 S
Tb88 O101 2.303 . S
Tb88 O105 2.322 1_545 S
Tb88 O106 2.349 1_545 S
Tb88 O109 2.415 . S
Tb88 O110 2.399 . S
Tb89 O99 2.322 . S
Tb89 O100 2.349 . S
Tb89 O102 2.415 1_545 S
Tb89 O103 2.399 1_545 S
Tb89 O104 2.325 1_645 S
Tb89 O107 2.303 1_545 S
Tb89 C118 2.764 1_545 S
C90 O106 1.261 1_655 S
C90 O107 1.257 . S
C91 C94 1.358 . S
C91 C95 1.332 . S
C91 C97 1.504 . S
C92 C93 1.373 . S
C92 C96 1.308 . S
C93 C92 1.373 . S
C93 C94 1.429 . S
C93 H120 0.932 . S
C94 C91 1.358 . S
C94 C93 1.429 . S
C94 H121 0.930 . S
C95 C91 1.332 . S
C95 C96 1.394 . S
C95 H122 0.932 . S
C96 C92 1.308 . S
C96 C95 1.394 . S
C96 H123 0.929 . S
C97 Tb88 2.764 . S
C97 C91 1.504 . S
C97 O109 1.239 . S
C97 O110 1.263 . S
O98 Tb88 2.319 1_655 S
O98 C108 1.243 . S
O99 Tb89 2.322 . S
O99 C108 1.257 . S
O100 Tb89 2.349 . S
O100 C111 1.261 1_655 S
O101 Tb88 2.303 . S
O101 C111 1.257 . S
O102 Tb89 2.415 1_565 S
O102 C118 1.239 . S
O103 Tb89 2.399 1_565 S
O103 C118 1.263 . S
O104 Tb89 2.325 1_465 S
O104 C119 1.236 . S
O105 Tb88 2.322 1_565 S
O105 C119 1.257 . S
O106 Tb88 2.349 1_565 S
O106 C90 1.261 1_455 S
O107 Tb89 2.303 1_565 S
O107 C90 1.257 . S
C108 O98 1.243 . S
C108 O99 1.257 . S
O109 Tb88 2.415 . S
O109 C97 1.239 . S
O110 Tb88 2.399 . S
O110 C97 1.263 . S
C111 O100 1.261 1_455 S
C111 O101 1.257 . S
C112 C115 1.358 . S
C112 C116 1.332 . S
C112 C118 1.504 . S
C113 C114 1.373 . S
C113 C117 1.308 . S
C114 C113 1.373 . S
C114 C115 1.429 . S
C114 H124 0.932 . S
C115 C112 1.358 . S
C115 C114 1.429 . S
C115 H125 0.930 . S
C116 C112 1.332 . S
C116 C117 1.394 . S
C116 H126 0.932 . S
C117 C113 1.308 . S
C117 C116 1.394 . S
C117 H127 0.929 . S
C118 Tb89 2.764 1_565 S
C118 O102 1.239 . S
C118 O103 1.263 . S
C118 C112 1.504 . S
C119 O104 1.236 . S
C119 O105 1.257 . S
H120 C93 0.932 . S
H121 C94 0.930 . S
H122 C95 0.932 . S
H123 C96 0.929 . S
H124 C114 0.932 . S
H125 C115 0.930 . S
H126 C116 0.932 . S
H127 C117 0.929 . S
Tb128 C137 2.764 . S
Tb128 O138 2.325 . S
Tb128 O141 2.303 . S
Tb128 O145 2.322 1_545 S
Tb128 O146 2.349 . S
Tb128 O149 2.415 . S
Tb128 O150 2.399 . S
Tb129 O139 2.322 . S
Tb129 O140 2.349 . S
Tb129 O142 2.415 1_544 S
Tb129 O143 2.399 1_545 S
Tb129 O144 2.325 1_545 S
Tb129 O147 2.303 . S
Tb129 C158 2.764 1_544 S
C130 O146 1.261 1_565 S
C130 O147 1.257 1_565 S
C131 C134 1.358 . S
C131 C135 1.332 . S
C131 C137 1.504 . S
C132 C133 1.373 . S
C132 C136 1.308 . S
C133 C132 1.373 . S
C133 C134 1.429 . S
C133 H160 0.932 . S
C134 C131 1.358 . S
C134 C133 1.429 . S
C134 H161 0.930 . S
C135 C131 1.332 . S
C135 C136 1.394 . S
C135 H162 0.932 . S
C136 C132 1.308 . S
C136 C135 1.394 . S
C136 H163 0.929 . S
C137 Tb128 2.764 . S
C137 C131 1.504 . S
C137 O149 1.239 . S
C137 O150 1.263 . S
O138 Tb128 2.325 . S
O138 C148 1.236 . S
O139 Tb129 2.322 . S
O139 C148 1.257 . S
O140 Tb129 2.349 . S
O140 C151 1.261 . S
O141 Tb128 2.303 . S
O141 C151 1.257 . S
O142 Tb129 2.415 1_566 S
O142 C158 1.239 . S
O143 Tb129 2.399 1_565 S
O143 C158 1.263 1_554 S
O144 Tb129 2.325 1_565 S
O144 C159 1.236 . S
O145 Tb128 2.322 1_565 S
O145 C159 1.257 . S
O146 Tb128 2.349 . S
O146 C130 1.261 1_545 S
O147 Tb129 2.303 . S
O147 C130 1.257 1_545 S
C148 O138 1.236 . S
C148 O139 1.257 . S
O149 Tb128 2.415 . S
O149 C137 1.239 . S
O150 Tb128 2.399 . S
O150 C137 1.263 . S
C151 O140 1.261 . S
C151 O141 1.257 . S
C152 C155 1.358 . S
C152 C156 1.332 . S
C152 C158 1.504 . S
C153 C154 1.373 . S
C153 C157 1.308 . S
C154 C153 1.373 . S
C154 C155 1.429 . S
C154 H164 0.932 . S
C155 C152 1.358 . S
C155 C154 1.429 . S
C155 H165 0.930 . S
C156 C152 1.332 . S
C156 C157 1.394 . S
C156 H166 0.932 . S
C157 C153 1.308 . S
C157 C156 1.394 . S
C157 H167 0.929 . S
C158 Tb129 2.764 1_566 S
C158 O142 1.239 . S
C158 O143 1.263 1_556 S
C158 C152 1.504 . S
C159 O144 1.236 . S
C159 O145 1.257 . S
H160 C133 0.932 . S
H161 C134 0.930 . S
H162 C135 0.932 . S
H163 C136 0.929 . S
H164 C154 0.932 . S
H165 C155 0.930 . S
H166 C156 0.932 . S
H167 C157 0.929 . S
Tb168 C177 2.764 . S
Tb168 O178 2.325 . S
Tb168 O181 2.303 . S
Tb168 O185 2.322 . S
Tb168 O186 2.349 . S
Tb168 O189 2.415 . S
Tb168 O190 2.399 . S
Tb169 O179 2.322 . S
Tb169 O180 2.349 . S
Tb169 O182 2.415 . S
Tb169 O183 2.399 . S
Tb169 O184 2.325 . S
Tb169 O187 2.303 . S
Tb169 C198 2.764 . S
C170 O186 1.261 . S
C170 O187 1.257 . S
C171 C174 1.358 . S
C171 C175 1.332 . S
C171 C177 1.504 . S
C172 C173 1.373 . S
C172 C176 1.308 . S
C173 C172 1.373 . S
C173 C174 1.429 . S
C173 H200 0.932 . S
C174 C171 1.358 . S
C174 C173 1.429 . S
C174 H201 0.930 . S
C175 C171 1.332 . S
C175 C176 1.394 . S
C175 H202 0.932 . S
C176 C172 1.308 . S
C176 C175 1.394 . S
C176 H203 0.929 . S
C177 Tb168 2.764 . S
C177 C171 1.504 . S
C177 O189 1.239 . S
C177 O190 1.263 . S
O178 Tb168 2.325 . S
O178 C188 1.236 . S
O179 Tb169 2.322 . S
O179 C188 1.257 . S
O180 Tb169 2.349 . S
O180 C191 1.261 . S
O181 Tb168 2.303 . S
O181 C191 1.257 . S
O182 Tb169 2.415 . S
O182 C198 1.239 . S
O183 Tb169 2.399 . S
O183 C198 1.263 . S
O184 Tb169 2.325 . S
O184 C199 1.236 . S
O185 Tb168 2.322 . S
O185 C199 1.257 . S
O186 Tb168 2.349 . S
O186 C170 1.261 . S
O187 Tb169 2.303 . S
O187 C170 1.257 . S
C188 O178 1.236 . S
C188 O179 1.257 . S
O189 Tb168 2.415 . S
O189 C177 1.239 . S
O190 Tb168 2.399 . S
O190 C177 1.263 . S
C191 O180 1.261 . S
C191 O181 1.257 . S
C192 C195 1.358 . S
C192 C196 1.332 . S
C192 C198 1.504 . S
C193 C194 1.373 . S
C193 C197 1.308 . S
C194 C193 1.373 . S
C194 C195 1.429 . S
C194 H204 0.932 . S
C195 C192 1.358 . S
C195 C194 1.429 . S
C195 H205 0.930 . S
C196 C192 1.332 . S
C196 C197 1.394 . S
C196 H206 0.932 . S
C197 C193 1.308 . S
C197 C196 1.394 . S
C197 H207 0.929 . S
C198 Tb169 2.764 . S
C198 O182 1.239 . S
C198 O183 1.263 . S
C198 C192 1.504 . S
C199 O184 1.236 . S
C199 O185 1.257 . S
H200 C173 0.932 . S
H201 C174 0.930 . S
H202 C175 0.932 . S
H203 C176 0.929 . S
H204 C194 0.932 . S
H205 C195 0.930 . S
H206 C196 0.932 . S
H207 C197 0.929 . S
Tb208 C217 2.764 1_455 S
Tb208 O218 2.325 1_455 S
Tb208 O221 2.303 1_556 S
Tb208 O225 2.322 1_556 S
Tb208 O226 2.349 . S
Tb208 O229 2.415 1_455 S
Tb208 O230 2.399 1_455 S
Tb209 O219 2.322 1_455 S
Tb209 O220 2.349 1_455 S
Tb209 O222 2.415 . S
Tb209 O223 2.399 . S
Tb209 O224 2.325 . S
Tb209 O227 2.303 1_554 S
Tb209 C238 2.764 . S
C210 O226 1.261 . S
C210 O227 1.257 . S
C211 C214 1.358 . S
C211 C215 1.332 . S
C211 C217 1.504 . S
C212 C213 1.373 . S
C212 C216 1.308 . S
C213 C212 1.373 . S
C213 C214 1.429 . S
C213 H240 0.932 . S
C214 C211 1.358 . S
C214 C213 1.429 . S
C214 H241 0.930 . S
C215 C211 1.332 . S
C215 C216 1.394 . S
C215 H242 0.932 . S
C216 C212 1.308 . S
C216 C215 1.394 . S
C216 H243 0.929 . S
C217 Tb208 2.764 1_655 S
C217 C211 1.504 . S
C217 O229 1.239 . S
C217 O230 1.263 . S
O218 Tb208 2.325 1_655 S
O218 C228 1.236 . S
O219 Tb209 2.322 1_655 S
O219 C228 1.257 1_554 S
O220 Tb209 2.349 1_655 S
O220 C231 1.261 . S
O221 Tb208 2.303 1_554 S
O221 C231 1.257 1_455 S
O222 Tb209 2.415 . S
O222 C238 1.239 . S
O223 Tb209 2.399 . S
O223 C238 1.263 . S
O224 Tb209 2.325 . S
O224 C239 1.236 . S
O225 Tb208 2.322 1_554 S
O225 C239 1.257 . S
O226 Tb208 2.349 . S
O226 C210 1.261 . S
O227 Tb209 2.303 1_556 S
O227 C210 1.257 . S
C228 O218 1.236 . S
C228 O219 1.257 1_556 S
O229 Tb208 2.415 1_655 S
O229 C217 1.239 . S
O230 Tb208 2.399 1_655 S
O230 C217 1.263 . S
C231 O220 1.261 . S
C231 O221 1.257 1_655 S
C232 C235 1.358 . S
C232 C236 1.332 . S
C232 C238 1.504 . S
C233 C234 1.373 . S
C233 C237 1.308 . S
C234 C233 1.373 . S
C234 C235 1.429 . S
C234 H244 0.932 . S
C235 C232 1.358 . S
C235 C234 1.429 . S
C235 H245 0.930 . S
C236 C232 1.332 . S
C236 C237 1.394 . S
C236 H246 0.932 . S
C237 C233 1.308 . S
C237 C236 1.394 . S
C237 H247 0.929 . S
C238 Tb209 2.764 . S
C238 O222 1.239 . S
C238 O223 1.263 . S
C238 C232 1.504 . S
C239 O224 1.236 . S
C239 O225 1.257 . S
H240 C213 0.932 . S
H241 C214 0.930 . S
H242 C215 0.932 . S
H243 C216 0.929 . S
H244 C234 0.932 . S
H245 C235 0.930 . S
H246 C236 0.932 . S
H247 C237 0.929 . S
H248 C254 0.930 . S
H249 C257 0.930 . S
H250 C258 0.930 . S
H251 C259 0.930 . S
H252 C262 0.930 . S
H253 C263 0.930 . S
C254 H248 0.930 . S
C254 C255 1.355 . S
C254 C256 1.415 . S
C255 C254 1.355 . S
C255 C257 1.419 . S
C256 C254 1.415 . S
C256 C261 1.425 . S
C256 C263 1.409 . S
C257 H249 0.930 . S
C257 C255 1.419 . S
C257 C258 1.362 . S
C258 H250 0.930 . S
C258 C257 1.362 . S
C258 C261 1.409 . S
C259 H251 0.930 . S
C259 C260 1.355 . S
C259 C261 1.415 . S
C260 C259 1.355 . S
C260 C262 1.419 . S
C261 C256 1.425 . S
C261 C258 1.409 . S
C261 C259 1.415 . S
C262 H252 0.930 . S
C262 C260 1.419 . S
C262 C263 1.362 . S
C263 H253 0.930 . S
C263 C256 1.409 . S
C263 C262 1.362 . S
H264 C270 0.930 . S
H265 C273 0.930 . S
H266 C274 0.930 . S
H267 C275 0.930 . S
H268 C278 0.930 . S
H269 C279 0.930 . S
C270 H264 0.930 . S
C270 C271 1.355 . S
C270 C272 1.415 . S
C271 C270 1.355 . S
C271 C273 1.419 . S
C272 C270 1.415 . S
C272 C277 1.425 . S
C272 C279 1.409 . S
C273 H265 0.930 . S
C273 C271 1.419 . S
C273 C274 1.362 . S
C274 H266 0.930 . S
C274 C273 1.362 . S
C274 C277 1.409 . S
C275 H267 0.930 . S
C275 C276 1.355 . S
C275 C277 1.415 . S
C276 C275 1.355 . S
C276 C278 1.419 . S
C277 C272 1.425 . S
C277 C274 1.409 . S
C277 C275 1.415 . S
C278 H268 0.930 . S
C278 C276 1.419 . S
C278 C279 1.362 . S
C279 H269 0.930 . S
C279 C272 1.409 . S
C279 C278 1.362 . S
H280 C286 0.930 . S
H281 C289 0.930 . S
H282 C290 0.930 . S
H283 C291 0.930 . S
H284 C294 0.930 . S
H285 C295 0.930 . S
C286 H280 0.930 . S
C286 C287 1.355 . S
C286 C288 1.415 . S
C287 C286 1.355 . S
C287 C289 1.419 . S
C288 C286 1.415 . S
C288 C293 1.425 . S
C288 C295 1.409 . S
C289 H281 0.930 . S
C289 C287 1.419 . S
C289 C290 1.362 . S
C290 H282 0.930 . S
C290 C289 1.362 . S
C290 C293 1.409 . S
C291 H283 0.930 . S
C291 C292 1.355 . S
C291 C293 1.415 . S
C292 C291 1.355 . S
C292 C294 1.419 . S
C293 C288 1.425 . S
C293 C290 1.409 . S
C293 C291 1.415 . S
C294 H284 0.930 . S
C294 C292 1.419 . S
C294 C295 1.362 . S
C295 H285 0.930 . S
C295 C288 1.409 . S
C295 C294 1.362 . S
H296 C302 0.930 . S
H297 C305 0.930 . S
H298 C306 0.930 . S
H299 C307 0.930 . S
H300 C310 0.930 . S
H301 C311 0.930 . S
C302 H296 0.930 . S
C302 C303 1.355 . S
C302 C304 1.415 . S
C303 C302 1.355 . S
C303 C305 1.419 . S
C304 C302 1.415 . S
C304 C309 1.425 . S
C304 C311 1.409 1_655 S
C305 H297 0.930 . S
C305 C303 1.419 . S
C305 C306 1.362 . S
C306 H298 0.930 . S
C306 C305 1.362 . S
C306 C309 1.409 . S
C307 H299 0.930 . S
C307 C308 1.355 . S
C307 C309 1.415 . S
C308 C307 1.355 . S
C308 C310 1.419 1_655 S
C309 C304 1.425 . S
C309 C306 1.409 . S
C309 C307 1.415 . S
C310 H300 0.930 . S
C310 C308 1.419 1_455 S
C310 C311 1.362 . S
C311 H301 0.930 . S
C311 C304 1.409 1_455 S
C311 C310 1.362 . S
H312 C318 0.930 . S
H313 C321 0.930 . S
H314 C322 0.930 . S
H315 C323 0.930 . S
H316 C326 0.930 . S
H317 C327 0.930 . S
C318 H312 0.930 . S
C318 C319 1.355 . S
C318 C320 1.415 . S
C319 C318 1.355 . S
C319 C321 1.419 . S
C320 C318 1.415 . S
C320 C325 1.425 . S
C320 C327 1.409 . S
C321 H313 0.930 . S
C321 C319 1.419 . S
C321 C322 1.362 . S
C322 H314 0.930 . S
C322 C321 1.362 . S
C322 C325 1.409 . S
C323 H315 0.930 . S
C323 C324 1.355 . S
C323 C325 1.415 . S
C324 C323 1.355 . S
C324 C326 1.419 . S
C325 C320 1.425 . S
C325 C322 1.409 . S
C325 C323 1.415 . S
C326 H316 0.930 . S
C326 C324 1.419 . S
C326 C327 1.362 . S
C327 H317 0.930 . S
C327 C320 1.409 . S
C327 C326 1.362 . S
H328 C334 0.930 . S
H329 C337 0.930 . S
H330 C338 0.930 . S
H331 C339 0.930 . S
H332 C342 0.930 . S
H333 C343 0.930 . S
C334 H328 0.930 . S
C334 C335 1.355 . S
C334 C336 1.415 . S
C335 C334 1.355 . S
C335 C337 1.419 . S
C336 C334 1.415 . S
C336 C341 1.425 . S
C336 C343 1.409 . S
C337 H329 0.930 . S
C337 C335 1.419 . S
C337 C338 1.362 . S
C338 H330 0.930 . S
C338 C337 1.362 . S
C338 C341 1.409 . S
C339 H331 0.930 . S
C339 C340 1.355 . S
C339 C341 1.415 . S
C340 C339 1.355 . S
C340 C342 1.419 . S
C341 C336 1.425 . S
C341 C338 1.409 . S
C341 C339 1.415 . S
C342 H332 0.930 . S
C342 C340 1.419 . S
C342 C343 1.362 . S
C343 H333 0.930 . S
C343 C336 1.409 . S
C343 C342 1.362 . S
H344 C350 0.930 . S
H345 C353 0.930 . S
H346 C354 0.930 . S
H347 C355 0.930 . S
H348 C358 0.930 . S
H349 C359 0.930 . S
C350 H344 0.930 . S
C350 C351 1.355 . S
C350 C352 1.415 . S
C351 C350 1.355 . S
C351 C353 1.419 . S
C352 C350 1.415 . S
C352 C357 1.425 . S
C352 C359 1.409 . S
C353 H345 0.930 . S
C353 C351 1.419 . S
C353 C354 1.362 . S
C354 H346 0.930 . S
C354 C353 1.362 . S
C354 C357 1.409 . S
C355 H347 0.930 . S
C355 C356 1.355 . S
C355 C357 1.415 . S
C356 C355 1.355 . S
C356 C358 1.419 . S
C357 C352 1.425 . S
C357 C354 1.409 . S
C357 C355 1.415 . S
C358 H348 0.930 . S
C358 C356 1.419 . S
C358 C359 1.362 . S
C359 H349 0.930 . S
C359 C352 1.409 . S
C359 C358 1.362 . S
H360 C366 0.930 . S
H361 C369 0.930 . S
H362 C370 0.930 . S
H363 C371 0.930 . S
H364 C374 0.930 . S
H365 C375 0.930 . S
C366 H360 0.930 . S
C366 C367 1.355 . S
C366 C368 1.415 . S
C367 C366 1.355 . S
C367 C369 1.419 . S
C368 C366 1.415 . S
C368 C373 1.425 . S
C368 C375 1.409 . S
C369 H361 0.930 . S
C369 C367 1.419 . S
C369 C370 1.362 . S
C370 H362 0.930 . S
C370 C369 1.362 . S
C370 C373 1.409 . S
C371 H363 0.930 . S
C371 C372 1.355 . S
C371 C373 1.415 . S
C372 C371 1.355 . S
C372 C374 1.419 . S
C373 C368 1.425 . S
C373 C370 1.409 . S
C373 C371 1.415 . S
C374 H364 0.930 . S
C374 C372 1.419 . S
C374 C375 1.362 . S
C375 H365 0.930 . S
C375 C368 1.409 . S
C375 C374 1.362 . S
H376 C382 0.930 . S
H377 C385 0.930 . S
H378 C386 0.930 . S
H379 C387 0.930 . S
H380 C390 0.930 . S
H381 C391 0.930 . S
C382 H376 0.930 . S
C382 C383 1.355 . S
C382 C384 1.415 . S
C383 C382 1.355 . S
C383 C385 1.419 . S
C384 C382 1.415 . S
C384 C389 1.425 . S
C384 C391 1.409 . S
C385 H377 0.930 . S
C385 C383 1.419 . S
C385 C386 1.362 . S
C386 H378 0.930 . S
C386 C385 1.362 . S
C386 C389 1.409 . S
C387 H379 0.930 . S
C387 C388 1.355 . S
C387 C389 1.415 . S
C388 C387 1.355 . S
C388 C390 1.419 . S
C389 C384 1.425 . S
C389 C386 1.409 . S
C389 C387 1.415 . S
C390 H380 0.930 . S
C390 C388 1.419 . S
C390 C391 1.362 . S
C391 H381 0.930 . S
C391 C384 1.409 . S
C391 C390 1.362 . S
H392 C398 0.930 . S
H393 C401 0.930 . S
H394 C402 0.930 . S
H395 C403 0.930 . S
H396 C406 0.930 . S
H397 C407 0.930 . S
C398 H392 0.930 . S
C398 C399 1.355 . S
C398 C400 1.415 . S
C399 C398 1.355 . S
C399 C401 1.419 . S
C400 C398 1.415 . S
C400 C405 1.425 . S
C400 C407 1.409 1_556 S
C401 H393 0.930 . S
C401 C399 1.419 . S
C401 C402 1.362 . S
C402 H394 0.930 . S
C402 C401 1.362 . S
C402 C405 1.409 . S
C403 H395 0.930 . S
C403 C404 1.355 1_556 S
C403 C405 1.415 . S
C404 C403 1.355 1_554 S
C404 C406 1.419 . S
C405 C400 1.425 . S
C405 C402 1.409 . S
C405 C403 1.415 . S
C406 H396 0.930 . S
C406 C404 1.419 . S
C406 C407 1.362 . S
C407 H397 0.930 . S
C407 C400 1.409 1_554 S
C407 C406 1.362 . S
H408 C414 0.930 . S
H409 C417 0.930 . S
H410 C418 0.930 . S
H411 C419 0.930 . S
H412 C422 0.930 1_455 S
H413 C423 0.930 1_455 S
C414 H408 0.930 . S
C414 C415 1.355 . S
C414 C416 1.415 . S
C415 C414 1.355 . S
C415 C417 1.419 . S
C416 C414 1.415 . S
C416 C421 1.425 . S
C416 C423 1.409 . S
C417 H409 0.930 . S
C417 C415 1.419 . S
C417 C418 1.362 . S
C418 H410 0.930 . S
C418 C417 1.362 . S
C418 C421 1.409 . S
C419 H411 0.930 . S
C419 C420 1.355 . S
C419 C421 1.415 . S
C420 C419 1.355 . S
C420 C422 1.419 . S
C421 C416 1.425 . S
C421 C418 1.409 . S
C421 C419 1.415 . S
C422 H412 0.930 1_655 S
C422 C420 1.419 . S
C422 C423 1.362 . S
C423 H413 0.930 1_655 S
C423 C416 1.409 . S
C423 C422 1.362 . S
H424 C430 0.930 . S
H425 C433 0.930 . S
H426 C434 0.930 . S
H427 C435 0.930 . S
H428 C438 0.930 . S
H429 C439 0.930 . S
C430 H424 0.930 . S
C430 C431 1.355 . S
C430 C432 1.415 . S
C431 C430 1.355 . S
C431 C433 1.419 . S
C432 C430 1.415 . S
C432 C437 1.425 . S
C432 C439 1.409 . S
C433 H425 0.930 . S
C433 C431 1.419 . S
C433 C434 1.362 . S
C434 H426 0.930 . S
C434 C433 1.362 . S
C434 C437 1.409 . S
C435 H427 0.930 . S
C435 C436 1.355 . S
C435 C437 1.415 . S
C436 C435 1.355 . S
C436 C438 1.419 . S
C437 C432 1.425 . S
C437 C434 1.409 . S
C437 C435 1.415 . S
C438 H428 0.930 . S
C438 C436 1.419 . S
C438 C439 1.362 . S
C439 H429 0.930 . S
C439 C432 1.409 . S
C439 C438 1.362 . S
H440 C446 0.930 . S
H441 C449 0.930 . S
H442 C450 0.930 . S
H443 C451 0.930 . S
H444 C454 0.930 . S
H445 C455 0.930 . S
C446 H440 0.930 . S
C446 C447 1.355 . S
C446 C448 1.415 . S
C447 C446 1.355 . S
C447 C449 1.419 . S
C448 C446 1.415 . S
C448 C453 1.425 . S
C448 C455 1.409 . S
C449 H441 0.930 . S
C449 C447 1.419 . S
C449 C450 1.362 . S
C450 H442 0.930 . S
C450 C449 1.362 . S
C450 C453 1.409 . S
C451 H443 0.930 . S
C451 C452 1.355 . S
C451 C453 1.415 . S
C452 C451 1.355 . S
C452 C454 1.419 . S
C453 C448 1.425 . S
C453 C450 1.409 . S
C453 C451 1.415 . S
C454 H444 0.930 . S
C454 C452 1.419 . S
C454 C455 1.362 . S
C455 H445 0.930 . S
C455 C448 1.409 . S
C455 C454 1.362 . S
H456 C462 0.930 . S
H457 C465 0.930 . S
H458 C466 0.930 . S
H459 C467 0.930 . S
H460 C470 0.930 . S
H461 C471 0.930 . S
C462 H456 0.930 . S
C462 C463 1.355 . S
C462 C464 1.415 . S
C463 C462 1.355 . S
C463 C465 1.419 . S
C464 C462 1.415 . S
C464 C469 1.425 . S
C464 C471 1.409 . S
C465 H457 0.930 . S
C465 C463 1.419 . S
C465 C466 1.362 . S
C466 H458 0.930 . S
C466 C465 1.362 . S
C466 C469 1.409 . S
C467 H459 0.930 . S
C467 C468 1.355 . S
C467 C469 1.415 . S
C468 C467 1.355 . S
C468 C470 1.419 . S
C469 C464 1.425 . S
C469 C466 1.409 . S
C469 C467 1.415 . S
C470 H460 0.930 . S
C470 C468 1.419 . S
C470 C471 1.362 . S
C471 H461 0.930 . S
C471 C464 1.409 . S
C471 C470 1.362 . S
H472 C478 0.930 . S
H473 C481 0.930 . S
H474 C482 0.930 . S
H475 C483 0.930 . S
H476 C486 0.930 . S
H477 C487 0.930 . S
C478 H472 0.930 . S
C478 C479 1.355 . S
C478 C480 1.415 . S
C479 C478 1.355 . S
C479 C481 1.419 . S
C480 C478 1.415 . S
C480 C485 1.425 . S
C480 C487 1.409 . S
C481 H473 0.930 . S
C481 C479 1.419 . S
C481 C482 1.362 . S
C482 H474 0.930 . S
C482 C481 1.362 . S
C482 C485 1.409 . S
C483 H475 0.930 . S
C483 C484 1.355 . S
C483 C485 1.415 . S
C484 C483 1.355 . S
C484 C486 1.419 . S
C485 C480 1.425 . S
C485 C482 1.409 . S
C485 C483 1.415 . S
C486 H476 0.930 . S
C486 C484 1.419 . S
C486 C487 1.362 . S
C487 H477 0.930 . S
C487 C480 1.409 . S
C487 C486 1.362 . S
H488 C494 0.930 . S
H489 C497 0.930 . S
H490 C498 0.930 . S
H491 C499 0.930 . S
H492 C502 0.930 . S
H493 C503 0.930 . S
C494 H488 0.930 . S
C494 C495 1.355 . S
C494 C496 1.415 . S
C495 C494 1.355 . S
C495 C497 1.419 . S
C496 C494 1.415 . S
C496 C501 1.425 . S
C496 C503 1.409 . S
C497 H489 0.930 . S
C497 C495 1.419 . S
C497 C498 1.362 . S
C498 H490 0.930 . S
C498 C497 1.362 . S
C498 C501 1.409 . S
C499 H491 0.930 . S
C499 C500 1.355 . S
C499 C501 1.415 . S
C500 C499 1.355 . S
C500 C502 1.419 . S
C501 C496 1.425 . S
C501 C498 1.409 . S
C501 C499 1.415 . S
C502 H492 0.930 . S
C502 C500 1.419 . S
C502 C503 1.362 . S
C503 H493 0.930 . S
C503 C496 1.409 . S
C503 C502 1.362 . S
H504 C510 0.930 . S
H505 C513 0.930 . S
H506 C514 0.930 . S
H507 C515 0.930 . S
H508 C518 0.930 . S
H509 C519 0.930 1_554 S
C510 H504 0.930 . S
C510 C511 1.355 . S
C510 C512 1.415 . S
C511 C510 1.355 . S
C511 C513 1.419 . S
C512 C510 1.415 . S
C512 C517 1.425 . S
C512 C519 1.409 . S
C513 H505 0.930 . S
C513 C511 1.419 . S
C513 C514 1.362 . S
C514 H506 0.930 . S
C514 C513 1.362 . S
C514 C517 1.409 . S
C515 H507 0.930 . S
C515 C516 1.355 1_556 S
C515 C517 1.415 . S
C516 C515 1.355 1_554 S
C516 C518 1.419 . S
C517 C512 1.425 . S
C517 C514 1.409 . S
C517 C515 1.415 . S
C518 H508 0.930 . S
C518 C516 1.419 . S
C518 C519 1.362 1_554 S
C519 H509 0.930 1_556 S
C519 C512 1.409 . S
C519 C518 1.362 1_556 S
H520 C526 0.930 . S
H521 C529 0.930 . S
H522 C530 0.930 . S
H523 C531 0.930 . S
H524 C534 0.930 1_455 S
H525 C535 0.930 1_455 S
C526 H520 0.930 . S
C526 C527 1.355 . S
C526 C528 1.415 . S
C527 C526 1.355 . S
C527 C529 1.419 . S
C528 C526 1.415 . S
C528 C533 1.425 . S
C528 C535 1.409 . S
C529 H521 0.930 . S
C529 C527 1.419 . S
C529 C530 1.362 . S
C530 H522 0.930 . S
C530 C529 1.362 . S
C530 C533 1.409 . S
C531 H523 0.930 . S
C531 C532 1.355 . S
C531 C533 1.415 . S
C532 C531 1.355 . S
C532 C534 1.419 . S
C533 C528 1.425 . S
C533 C530 1.409 . S
C533 C531 1.415 . S
C534 H524 0.930 1_655 S
C534 C532 1.419 . S
C534 C535 1.362 . S
C535 H525 0.930 1_655 S
C535 C528 1.409 . S
C535 C534 1.362 . S
H536 C542 0.930 . S
H537 C545 0.930 . S
H538 C546 0.930 . S
H539 C547 0.930 . S
H540 C550 0.930 . S
H541 C551 0.930 . S
C542 H536 0.930 . S
C542 C543 1.355 . S
C542 C544 1.415 . S
C543 C542 1.355 . S
C543 C545 1.419 . S
C544 C542 1.415 . S
C544 C549 1.425 . S
C544 C551 1.409 . S
C545 H537 0.930 . S
C545 C543 1.419 . S
C545 C546 1.362 . S
C546 H538 0.930 . S
C546 C545 1.362 . S
C546 C549 1.409 . S
C547 H539 0.930 . S
C547 C548 1.355 . S
C547 C549 1.415 . S
C548 C547 1.355 . S
C548 C550 1.419 . S
C549 C544 1.425 . S
C549 C546 1.409 . S
C549 C547 1.415 . S
C550 H540 0.930 . S
C550 C548 1.419 . S
C550 C551 1.362 . S
C551 H541 0.930 . S
C551 C544 1.409 . S
C551 C550 1.362 . S
H552 C558 0.930 . S
H553 C561 0.930 . S
H554 C562 0.930 . S
H555 C563 0.930 . S
H556 C566 0.930 . S
H557 C567 0.930 . S
C558 H552 0.930 . S
C558 C559 1.355 . S
C558 C560 1.415 . S
C559 C558 1.355 . S
C559 C561 1.419 . S
C560 C558 1.415 . S
C560 C565 1.425 . S
C560 C567 1.409 . S
C561 H553 0.930 . S
C561 C559 1.419 . S
C561 C562 1.362 . S
C562 H554 0.930 . S
C562 C561 1.362 . S
C562 C565 1.409 . S
C563 H555 0.930 . S
C563 C564 1.355 . S
C563 C565 1.415 . S
C564 C563 1.355 . S
C564 C566 1.419 . S
C565 C560 1.425 . S
C565 C562 1.409 . S
C565 C563 1.415 . S
C566 H556 0.930 . S
C566 C564 1.419 . S
C566 C567 1.362 . S
C567 H557 0.930 . S
C567 C560 1.409 . S
C567 C566 1.362 . S
H568 C574 0.930 . S
H569 C577 0.930 . S
H570 C578 0.930 . S
H571 C579 0.930 . S
H572 C582 0.930 . S
H573 C583 0.930 . S
C574 H568 0.930 . S
C574 C575 1.355 . S
C574 C576 1.415 . S
C575 C574 1.355 . S
C575 C577 1.419 . S
C576 C574 1.415 . S
C576 C581 1.425 . S
C576 C583 1.409 . S
C577 H569 0.930 . S
C577 C575 1.419 . S
C577 C578 1.362 . S
C578 H570 0.930 . S
C578 C577 1.362 . S
C578 C581 1.409 . S
C579 H571 0.930 . S
C579 C580 1.355 . S
C579 C581 1.415 . S
C580 C579 1.355 . S
C580 C582 1.419 . S
C581 C576 1.425 . S
C581 C578 1.409 . S
C581 C579 1.415 . S
C582 H572 0.930 . S
C582 C580 1.419 . S
C582 C583 1.362 . S
C583 H573 0.930 . S
C583 C576 1.409 . S
C583 C582 1.362 . S
H584 C590 0.930 . S
H585 C593 0.930 . S
H586 C594 0.930 . S
H587 C595 0.930 . S
H588 C598 0.930 . S
H589 C599 0.930 . S
C590 H584 0.930 . S
C590 C591 1.355 . S
C590 C592 1.415 . S
C591 C590 1.355 . S
C591 C593 1.419 . S
C592 C590 1.415 . S
C592 C597 1.425 . S
C592 C599 1.409 . S
C593 H585 0.930 . S
C593 C591 1.419 . S
C593 C594 1.362 . S
C594 H586 0.930 . S
C594 C593 1.362 . S
C594 C597 1.409 . S
C595 H587 0.930 . S
C595 C596 1.355 . S
C595 C597 1.415 . S
C596 C595 1.355 . S
C596 C598 1.419 . S
C597 C592 1.425 . S
C597 C594 1.409 . S
C597 C595 1.415 . S
C598 H588 0.930 . S
C598 C596 1.419 . S
C598 C599 1.362 . S
C599 H589 0.930 . S
C599 C592 1.409 . S
C599 C598 1.362 . S
H600 C606 0.930 . S
H601 C609 0.930 . S
H602 C610 0.930 . S
H603 C611 0.930 . S
H604 C614 0.930 1_655 S
H605 C615 0.930 1_655 S
C606 H600 0.930 . S
C606 C607 1.355 . S
C606 C608 1.415 . S
C607 C606 1.355 . S
C607 C609 1.419 . S
C608 C606 1.415 . S
C608 C613 1.425 . S
C608 C615 1.409 . S
C609 H601 0.930 . S
C609 C607 1.419 . S
C609 C610 1.362 . S
C610 H602 0.930 . S
C610 C609 1.362 . S
C610 C613 1.409 . S
C611 H603 0.930 . S
C611 C612 1.355 . S
C611 C613 1.415 . S
C612 C611 1.355 . S
C612 C614 1.419 . S
C613 C608 1.425 . S
C613 C610 1.409 . S
C613 C611 1.415 . S
C614 H604 0.930 1_455 S
C614 C612 1.419 . S
C614 C615 1.362 . S
C615 H605 0.930 1_455 S
C615 C608 1.409 . S
C615 C614 1.362 . S
H616 C622 0.930 . S
H617 C625 0.930 . S
H618 C626 0.930 . S
H619 C627 0.930 . S
H620 C630 0.930 . S
H621 C631 0.930 . S
C622 H616 0.930 . S
C622 C623 1.355 . S
C622 C624 1.415 . S
C623 C622 1.355 . S
C623 C625 1.419 . S
C624 C622 1.415 . S
C624 C629 1.425 . S
C624 C631 1.409 . S
C625 H617 0.930 . S
C625 C623 1.419 . S
C625 C626 1.362 . S
C626 H618 0.930 . S
C626 C625 1.362 . S
C626 C629 1.409 . S
C627 H619 0.930 . S
C627 C628 1.355 . S
C627 C629 1.415 . S
C628 C627 1.355 . S
C628 C630 1.419 . S
C629 C624 1.425 . S
C629 C626 1.409 . S
C629 C627 1.415 . S
C630 H620 0.930 . S
C630 C628 1.419 . S
C630 C631 1.362 . S
C631 H621 0.930 . S
C631 C624 1.409 . S
C631 C630 1.362 . S
C255 C5 0.933 . S
C260 C92 1.032 . S
C271 C18 1.130 . S
C276 C153 1.158 . S
C292 C191 2.353 . S
C287 C30 2.387 . S
C303 C41 2.149 . S
C308 C231 2.076 . S
C324 C151 1.329 . S
C319 C7 1.326 . S
C340 C119 2.065 . S
C335 C16 2.016 . S
C356 C228 1.823 . S
C351 C29 1.804 . S
C372 C188 1.560 . S
C367 C38 1.442 . S
C383 C8 1.162 . S
C388 C233 1.190 . S
C404 C148 2.553 . S
C399 C27 2.264 . S
C415 C40 2.299 . S
C420 C90 2.236 . S
C431 C19 1.360 . S
C436 C193 1.363 . S
C452 C113 0.991 . S
C447 C51 0.809 . S
C463 C62 1.412 . S
C468 C132 1.399 . S
C479 C74 2.472 . S
C484 C170 2.450 . S
C495 C84 2.120 . S
C500 C210 2.189 . S
C511 C49 1.327 . S
C516 C130 1.649 . S
C532 C108 2.089 . S
C527 C63 2.039 . S
C548 C239 1.635 . S
C543 C71 1.494 . S
C564 C199 1.637 . S
C559 C85 1.675 . S
C575 C52 1.185 . S
C580 C212 1.265 . S
C596 C159 2.706 . S
C591 C73 2.656 . S
C612 C111 1.883 . S
C607 C82 1.629 . S
C623 C60 1.395 . S
C628 C172 1.451 . S
