# Generated by pormake.
# Topology anh, (6,3)-cn, num edge types: 1
# Building blocks:
#     Node 0, Type 0, BuildingBlock: CUKXOW_clean_sbu_0, # of connection points: 6
#     Node 1, Type 0, BuildingBlock: CUKXOW_clean_sbu_0, # of connection points: 6
#     Node 2, Type 0, BuildingBlock: CUKXOW_clean_sbu_0, # of connection points: 6
#     Node 3, Type 1, BuildingBlock: WUSLED_clean_sbu_0, # of connection points: 3
#     Node 4, Type 1, BuildingBlock: WUSLED_clean_sbu_0, # of connection points: 3
#     Node 5, Type 1, BuildingBlock: WUSLED_clean_sbu_0, # of connection points: 3
#     Node 6, Type 1, BuildingBlock: WUSLED_clean_sbu_0, # of connection points: 3
#     Node 7, Type 1, BuildingBlock: WUSLED_clean_sbu_0, # of connection points: 3
#     Node 8, Type 1, BuildingBlock: WUSLED_clean_sbu_0, # of connection points: 3
#     Edge 9, Type (0, 1), BuildingBlock: OJICUG_clean_linker_0, # of connection points: 2
#     Edge 10, Type (0, 1), BuildingBlock: OJICUG_clean_linker_0, # of connection points: 2
#     Edge 11, Type (0, 1), BuildingBlock: OJICUG_clean_linker_0, # of connection points: 2
#     Edge 12, Type (0, 1), BuildingBlock: OJICUG_clean_linker_0, # of connection points: 2
#     Edge 13, Type (0, 1), BuildingBlock: OJICUG_clean_linker_0, # of connection points: 2
#     Edge 14, Type (0, 1), BuildingBlock: OJICUG_clean_linker_0, # of connection points: 2
#     Edge 15, Type (0, 1), BuildingBlock: OJICUG_clean_linker_0, # of connection points: 2
#     Edge 16, Type (0, 1), BuildingBlock: OJICUG_clean_linker_0, # of connection points: 2
#     Edge 17, Type (0, 1), BuildingBlock: OJICUG_clean_linker_0, # of connection points: 2
#     Edge 18, Type (0, 1), BuildingBlock: OJICUG_clean_linker_0, # of connection points: 2
#     Edge 19, Type (0, 1), BuildingBlock: OJICUG_clean_linker_0, # of connection points: 2
#     Edge 20, Type (0, 1), BuildingBlock: OJICUG_clean_linker_0, # of connection points: 2
#     Edge 21, Type (0, 1), BuildingBlock: OJICUG_clean_linker_0, # of connection points: 2
#     Edge 22, Type (0, 1), BuildingBlock: OJICUG_clean_linker_0, # of connection points: 2
#     Edge 23, Type (0, 1), BuildingBlock: OJICUG_clean_linker_0, # of connection points: 2
#     Edge 24, Type (0, 1), BuildingBlock: OJICUG_clean_linker_0, # of connection points: 2
#     Edge 25, Type (0, 1), BuildingBlock: OJICUG_clean_linker_0, # of connection points: 2
#     Edge 26, Type (0, 1), BuildingBlock: OJICUG_clean_linker_0, # of connection points: 2
# Relax obj value: 0.130
# Max RMSD: 0.190
# Mean RMSD: 0.136
data_MOF--net-anh--node1-CUKXOW_clean_sbu_0--node2-WUSLED_clean_sbu_0--edge1-OJICUG_clean_linker_0
_symmetry_space_group_name_H-M    P1
_symmetry_Int_Tables_number       1
_symmetry_cell_setting            triclinic
loop_
_symmetry_equiv_pos_as_xyz
'x, y, z'
_cell_length_a     29.61789
_cell_length_b     28.780818
_cell_length_c     53.847562
_cell_angle_alpha  96.208258
_cell_angle_beta   89.96262
_cell_angle_gamma 113.45511
loop_
_atom_site_label
_atom_site_type_symbol
_atom_site_fract_x
_atom_site_fract_y
_atom_site_fract_z
_atom_type_partial_charge
Tb0 Tb 0.09344 0.55778 0.17297 0.0
C1 C 0.06437 0.50956 0.22383 0.0
Tb2 Tb 1.02959 0.4434 0.17125 0.0
O3 O 0.0335 0.57364 0.15727 0.0
O4 O 1.01718 0.51213 0.17771 0.0
O5 O 0.08228 0.55208 0.2129 0.0
C6 C 0.94717 0.36217 0.17686 0.0
O7 O 0.04571 0.46357 0.21108 0.0
C8 C 0.12416 0.4574 0.16721 0.0
C9 C 0.06101 0.49127 0.122 0.0
O10 O 0.96961 0.40019 0.1937 0.0
O11 O 0.97162 0.36909 0.15653 0.0
O12 O 0.08767 0.41304 0.16741 0.0
O13 O 0.10518 0.48992 0.16971 0.0
O14 O 1.02378 0.45866 0.13316 0.0
O15 O 0.09893 0.52821 0.13483 0.0
C16 C 0.17055 0.64718 0.18169 0.0
O17 O 0.13302 0.6379 0.1666 0.0
O18 O 0.16458 0.60628 0.19168 0.0
C19 C 0.99811 0.53335 0.16388 0.0
Tb20 Tb 0.49636 1.00834 0.51449 0.0
C21 C 0.54608 0.04727 0.46553 0.0
Tb22 Tb 0.6052 0.08493 0.51871 0.0
O23 O 0.47453 0.06838 0.50371 0.0
O24 O 0.5364 0.08656 0.52717 0.0
O25 O 0.51082 1.00915 0.47489 0.0
C26 C 0.68734 0.16898 0.51571 0.0
O27 O 0.58239 0.08362 0.47971 0.0
C28 C 0.59085 0.98951 0.51993 0.0
C29 C 0.55481 0.04598 0.568 0.0
O30 O 0.68043 0.12305 0.5062 0.0
O31 O 0.64844 0.16724 0.52742 0.0
O32 O 0.62945 0.02774 0.53026 0.0
O33 O 0.56581 1.00602 0.5072 0.0
O34 O 0.59245 0.0817 0.55836 0.0
O35 O 0.51585 0.01178 0.55433 0.0
C36 C 0.41207 0.92457 0.51222 0.0
O37 O 0.41685 0.97052 0.52043 0.0
O38 O 0.45475 0.92602 0.50578 0.0
C39 C 0.51251 0.10527 0.51535 0.0
Tb40 Tb 0.52538 0.52143 0.83572 0.0
C41 C 0.57805 0.52934 0.88809 0.0
Tb42 Tb 0.63785 0.54954 0.838 0.0
O43 O 0.50011 0.43784 0.82679 0.0
O44 O 0.57309 0.48492 0.83259 0.0
O45 O 0.53863 0.52948 0.87622 0.0
C46 C 0.72782 0.55411 0.84082 0.0
O47 O 0.61878 0.53241 0.87644 0.0
C48 C 0.61101 0.62447 0.83365 0.0
C49 C 0.58277 0.53089 0.78554 0.0
O50 O 0.71269 0.58526 0.85394 0.0
O51 O 0.6921 0.51965 0.82675 0.0
O52 O 0.65133 0.62284 0.82514 0.0
O53 O 0.59033 0.5877 0.84622 0.0
O54 O 0.6223 0.53225 0.79772 0.0
O55 O 0.54305 0.53114 0.79683 0.0
C56 C 0.44159 0.53099 0.83135 0.0
O57 O 0.48326 0.56317 0.8245 0.0
O58 O 0.44742 0.4948 0.84157 0.0
C59 C 0.54442 0.43915 0.82751 0.0
C60 C 0.6602 0.13199 0.19669 0.0
C61 C 0.6953 0.15038 0.21676 0.0
C62 C 0.75507 0.20636 0.19049 0.0
C63 C 0.74239 0.18722 0.21367 0.0
C64 C 0.7193 0.18834 0.17064 0.0
C65 C 0.67235 0.15145 0.17373 0.0
U66 U 0.55517 0.04764 0.23461 0.0
O67 O 0.51267 0.96449 0.22679 0.0
O68 O 0.47494 0.01787 0.22634 0.0
C69 C 0.47159 0.97063 0.22325 0.0
C70 C 0.61155 0.09103 0.1989 0.0
C71 C 0.42455 0.92729 0.21691 0.0
C72 C 0.36574 0.86535 0.18588 0.0
C73 C 0.40884 0.90924 0.19184 0.0
C74 C 0.35344 0.85816 0.23006 0.0
C75 C 0.338 0.8389 0.20495 0.0
C76 C 0.39646 0.90195 0.23596 0.0
C77 C 0.57378 0.07427 0.30768 0.0
C78 C 0.52473 0.02711 0.3401 0.0
C79 C 0.59739 0.10452 0.3515 0.0
C80 C 0.60546 0.11007 0.32629 0.0
C81 C 0.55684 0.06316 0.35892 0.0
C82 C 0.53318 0.03259 0.31464 0.0
C83 C 0.58591 0.08163 0.28146 0.0
O84 O 0.61187 0.05047 0.20785 0.0
O85 O 0.57736 0.10528 0.20812 0.0
O86 O 0.55962 0.09933 0.26872 0.0
O87 O 0.59642 0.04634 0.2683 0.0
H88 H 0.68651 0.1357 0.23465 0.0
H89 H 0.76913 0.19995 0.2293 0.0
H90 H 0.72744 0.20295 0.15272 0.0
H91 H 0.64559 0.13775 0.15808 0.0
H92 H 0.35508 0.85119 0.16638 0.0
H93 H 0.43046 0.92838 0.17691 0.0
H94 H 0.33249 0.83907 0.24516 0.0
H95 H 0.40826 0.91556 0.2554 0.0
H96 H 0.49293 0.99494 0.34498 0.0
H97 H 0.62384 0.13239 0.36516 0.0
H98 H 0.6372 0.14227 0.32128 0.0
H99 H 0.50831 1.0044 0.30047 0.0
C100 C 0.55248 0.67871 0.52874 0.0
C101 C 0.55138 0.70844 0.55101 0.0
C102 C 0.55869 0.77916 0.52756 0.0
C103 C 0.55455 0.75833 0.55042 0.0
C104 C 0.55968 0.74889 0.5054 0.0
C105 C 0.55664 0.69933 0.50603 0.0
U106 U 0.55247 0.56058 0.55801 0.0
O107 O 0.58428 0.50712 0.54206 0.0
O108 O 0.50399 0.48054 0.54531 0.0
C109 C 0.54094 0.46885 0.538 0.0
C110 C 0.54883 0.62601 0.52828 0.0
C111 C 0.5368 0.4162 0.53946 0.0
C112 C 0.49204 0.32595 0.52505 0.0
C113 C 0.49453 0.37572 0.5284 0.0
C114 C 0.57388 0.35554 0.54437 0.0
C115 C 0.53203 0.31515 0.53246 0.0
C116 C 0.57633 0.4056 0.54775 0.0
C117 C 0.57268 0.57495 0.63118 0.0
C118 C 0.55705 0.51308 0.66097 0.0
C119 C 0.60031 0.6033 0.67476 0.0
C120 C 0.59634 0.61423 0.65045 0.0
C121 C 0.58046 0.55269 0.68037 0.0
C122 C 0.55334 0.52412 0.63646 0.0
C123 C 0.5668 0.58944 0.60637 0.0
O124 O 0.58953 0.62068 0.53387 0.0
O125 O 0.50981 0.59372 0.53804 0.0
O126 O 0.52283 0.56764 0.59504 0.0
O127 O 0.60299 0.59581 0.59116 0.0
H128 H 0.54803 0.6931 0.56875 0.0
H129 H 0.55336 0.78043 0.56782 0.0
H130 H 0.56375 0.76383 0.48754 0.0
H131 H 0.55769 0.677 0.48865 0.0
H132 H 0.45874 0.29598 0.51635 0.0
H133 H 0.46383 0.38284 0.52145 0.0
H134 H 0.60555 0.34891 0.55024 0.0
H135 H 0.60973 0.43611 0.55603 0.0
H136 H 0.54155 0.47371 0.66479 0.0
H137 H 0.61771 0.63466 0.68934 0.0
H138 H 0.611 0.65372 0.64678 0.0
H139 H 0.53486 0.49325 0.62181 0.0
C140 C 1.00789 0.5477 0.85518 0.0
C141 C 0.97281 0.53858 0.87351 0.0
C142 C 0.92007 0.55772 0.84616 0.0
C143 C 0.92924 0.5437 0.86907 0.0
C144 C 0.95432 0.56526 0.82736 0.0
C145 C 0.9987 0.56071 0.83199 0.0
U146 U 0.08099 0.53688 0.90652 0.0
O147 O 0.13063 0.49852 0.91104 0.0
O148 O 0.158 0.58219 0.91945 0.0
C149 C 0.16913 0.54243 0.91421 0.0
C150 C 0.05513 0.54786 0.86211 0.0
C151 C 0.20517 0.54868 0.89511 0.0
C152 C 0.22353 0.52922 0.8524 0.0
C153 C 0.18945 0.52452 0.87065 0.0
C154 C 0.28861 0.58644 0.88215 0.0
C155 C 0.27345 0.5589 0.8583 0.0
C156 C 0.25449 0.58119 0.90055 0.0
C157 C 1.02505 0.51192 0.96759 0.0
C158 C 0.07811 0.50716 1.00048 0.0
C159 C 0.99268 0.49148 1.00799 0.0
C160 C 0.98573 0.49959 0.98348 0.0
C161 C 0.03907 0.49565 0.01672 0.0
C162 C 0.07111 0.51522 0.97605 0.0
C163 C 1.01849 0.52034 0.94195 0.0
O164 O 0.08068 0.58678 0.8786 0.0
O165 O 0.0527 0.50385 0.86811 0.0
O166 O 1.0192 0.48382 0.92525 0.0
O167 O 0.04604 0.56646 0.93659 0.0
H168 H 0.97973 0.52874 0.89156 0.0
H169 H 0.90268 0.53683 0.88356 0.0
H170 H 0.9472 0.57575 0.80951 0.0
H171 H 1.02592 0.5682 0.81785 0.0
H172 H 0.21143 0.50747 0.83414 0.0
H173 H 0.15103 0.50067 0.8658 0.0
H174 H 0.32726 0.60897 0.88709 0.0
H175 H 0.26673 0.60124 0.91913 0.0
H176 H 0.11401 0.51004 1.00669 0.0
H177 H 0.96217 0.48324 0.02027 0.0
H178 H 0.94996 0.49666 0.97701 0.0
H179 H 0.10167 0.52423 0.96375 0.0
C180 C 0.93498 0.44666 0.49197 0.0
C181 C 0.91262 0.40896 0.47174 0.0
C182 C 0.8537 0.35539 0.49932 0.0
C183 C 0.87247 0.3637 0.47539 0.0
C184 C 0.87615 0.39356 0.51943 0.0
C185 C 0.91633 0.4386 0.51577 0.0
U186 U 1.02179 0.53798 0.44983 0.0
O187 O 0.10271 0.57746 0.45121 0.0
O188 O 0.05681 0.62211 0.45308 0.0
C189 C 0.1014 0.6227 0.45202 0.0
C190 C 0.97804 0.4941 0.48866 0.0
C191 C 0.14352 0.66731 0.46402 0.0
C192 C 0.19082 0.72611 0.49975 0.0
C193 C 0.14847 0.6838 0.48979 0.0
C194 C 0.22249 0.73545 0.45827 0.0
C195 C 0.22862 0.75172 0.48404 0.0
C196 C 0.1805 0.69387 0.44843 0.0
C197 C 1.00001 0.50365 0.37907 0.0
C198 C 0.06055 0.54382 0.34896 0.0
C199 C 0.97967 0.48052 0.33465 0.0
C200 C 0.96624 0.47547 0.35936 0.0
C201 C 1.02725 0.51387 0.32918 0.0
C202 C 0.04705 0.5386 0.37382 0.0
C203 C 0.98614 0.49385 0.4048 0.0
O204 O 1.01615 0.48783 0.47881 0.0
O205 O 0.96831 0.52966 0.47932 0.0
O206 O 0.97128 0.52635 0.41752 0.0
O207 O 1.01628 0.48152 0.41786 0.0
H208 H 0.9263 0.41449 0.45315 0.0
H209 H 0.85577 0.33549 0.45942 0.0
H210 H 0.86316 0.3883 0.53814 0.0
H211 H 0.93311 0.4671 0.53164 0.0
H212 H 0.19466 0.73793 0.5197 0.0
H213 H 0.12015 0.66382 0.50212 0.0
H214 H 0.25047 0.75487 0.44564 0.0
H215 H 0.17712 0.68203 0.42846 0.0
H216 H 0.09744 0.56973 0.34524 0.0
H217 H 0.95301 0.4576 0.31976 0.0
H218 H 0.92975 0.44859 0.36307 0.0
H219 H 0.07359 0.56081 0.38889 0.0
C220 C 0.57694 0.90408 0.82739 0.0
C221 C 0.56334 0.86933 0.80558 0.0
C222 C 0.57625 0.80605 0.82798 0.0
C223 C 0.56309 0.82062 0.80587 0.0
C224 C 0.58943 0.84103 0.84976 0.0
C225 C 0.58986 0.88962 0.84942 0.0
U226 U 0.57787 0.02027 0.79691 0.0
O227 O 0.62465 0.10074 0.80983 0.0
O228 O 0.54388 0.07241 0.8114 0.0
C229 C 0.58661 0.11119 0.8163 0.0
C230 C 0.57883 0.95588 0.82778 0.0
C231 C 0.58902 0.16218 0.81337 0.0
C232 C 0.60666 0.2476 0.83344 0.0
C233 C 0.60895 0.20021 0.83361 0.0
C234 C 0.56596 0.22028 0.7922 0.0
C235 C 0.58436 0.25797 0.81295 0.0
C236 C 0.56817 0.17256 0.79242 0.0
C237 C 0.56889 1.00558 0.72313 0.0
C238 C 0.54971 0.05243 0.69261 0.0
C239 C 0.58115 0.98839 0.67905 0.0
C240 C 0.58319 0.97856 0.70372 0.0
C241 C 0.56439 0.02532 0.67319 0.0
C242 C 0.5522 0.04281 0.71753 0.0
C243 C 0.57015 0.99152 0.74855 0.0
O244 O 0.61892 0.9893 0.81939 0.0
O245 O 0.53836 0.95966 0.82026 0.0
O246 O 0.53192 0.98595 0.76223 0.0
O247 O 0.61258 0.01268 0.76138 0.0
H248 H 0.55333 0.87999 0.78838 0.0
H249 H 0.55274 0.79437 0.78882 0.0
H250 H 0.60071 0.83132 0.86691 0.0
H251 H 0.60082 0.91621 0.86636 0.0
H252 H 0.62032 0.27521 0.84991 0.0
H253 H 0.62469 0.19255 0.85006 0.0
H254 H 0.54894 0.22732 0.77603 0.0
H255 H 0.55248 0.1435 0.77666 0.0
H256 H 0.53683 0.08125 0.68854 0.0
H257 H 0.59201 0.96647 0.66445 0.0
H258 H 0.59561 0.94928 0.70764 0.0
H259 H 0.54089 0.06403 0.73228 0.0
C260 C 0.69047 0.49805 0.14834 0.0
C261 C 0.72211 0.5136 0.12857 0.0
C262 C 0.7896 0.50355 0.1514 0.0
C263 C 0.77084 0.51621 0.13006 0.0
C264 C 0.75719 0.48741 0.17091 0.0
C265 C 0.7087 0.4847 0.16936 0.0
U266 U 0.56182 0.49628 0.12325 0.0
O267 O 0.51681 0.53247 0.14365 0.0
O268 O 0.48915 0.44924 0.13722 0.0
C269 C 0.4806 0.48881 0.14677 0.0
C270 C 0.63915 0.49659 0.14853 0.0
C271 C 0.42823 0.48479 0.14666 0.0
C272 C 0.34621 0.44672 0.1636 0.0
C273 C 0.39432 0.44927 0.16073 0.0
C274 C 0.36358 0.51533 0.1382 0.0
C275 C 0.32948 0.47948 0.15238 0.0
C276 C 0.41224 0.51806 0.13545 0.0
C277 C 0.56722 0.5057 0.04775 0.0
C278 C 0.54778 0.53886 0.01125 0.0
C279 C 0.59267 0.48449 1.00646 0.0
C280 C 0.59027 0.48017 0.03221 0.0
C281 C 0.57123 0.51373 0.99557 0.0
C282 C 0.5462 0.53526 0.03706 0.0
C283 C 0.56551 0.502 0.07503 0.0
O284 O 0.63276 0.53812 0.145 0.0
O285 O 0.60284 0.45492 0.13839 0.0
O286 O 0.55126 0.4582 0.08433 0.0
O287 O 0.57756 0.54254 0.0916 0.0
H288 H 0.70932 0.52402 0.11206 0.0
H289 H 0.79372 0.52805 0.11433 0.0
H290 H 0.76953 0.47806 0.18786 0.0
H291 H 0.68544 0.47278 0.18499 0.0
H292 H 0.32245 0.41943 0.17525 0.0
H293 H 0.4055 0.42387 0.17016 0.0
H294 H 0.35268 0.54117 0.12905 0.0
H295 H 0.43738 0.54649 0.12474 0.0
H296 H 0.53123 0.56203 1.00364 0.0
H297 H 0.6107 0.46429 0.99501 0.0
H298 H 0.60693 0.45728 0.04004 0.0
H299 H 0.52817 0.55529 0.04865 0.0
C300 C 0.18969 0.42276 0.16169 0.0
C301 C 0.17711 0.46525 0.16336 0.0
H302 H 0.24522 0.39324 0.15638 0.0
C303 C 0.21509 0.51311 0.16077 0.0
H304 H 0.16169 0.38515 0.16332 0.0
C305 C 0.26416 0.51803 0.15689 0.0
C306 C 0.27683 0.47527 0.15556 0.0
H307 H 0.20695 0.54674 0.16172 0.0
H308 H 0.29229 0.5556 0.15538 0.0
C309 C 0.23824 0.42757 0.15784 0.0
C310 C 0.76754 0.21458 0.49601 0.0
C311 C 0.73048 0.21619 0.51195 0.0
H312 H 0.83541 0.25705 0.47948 0.0
C313 C 0.73395 0.26367 0.52355 0.0
H314 H 0.76567 0.17853 0.48669 0.0
C315 C 0.77377 0.30863 0.51942 0.0
C316 C 0.81099 0.30729 0.50344 0.0
H317 H 0.7057 0.26614 0.53576 0.0
H318 H 0.77499 0.3446 0.52849 0.0
C319 C 0.80726 0.25964 0.49172 0.0
C320 C 0.61242 0.6951 0.81072 0.0
C321 C 0.59606 0.66674 0.83099 0.0
H322 H 0.61837 0.76101 0.79373 0.0
C323 C 0.56935 0.68185 0.8493 0.0
H324 H 0.63288 0.68392 0.7963 0.0
C325 C 0.56154 0.72646 0.848 0.0
C326 C 0.57947 0.75592 0.82812 0.0
H327 H 0.55649 0.66053 0.86512 0.0
H328 H 0.5423 0.73847 0.86277 0.0
C329 C 0.60386 0.73902 0.80918 0.0
C330 C 0.90646 0.484 0.17086 0.0
C331 C 0.94429 0.52293 0.16016 0.0
H332 H 0.82886 0.44649 0.17625 0.0
C333 C 0.93049 0.55388 0.14589 0.0
H334 H 0.91536 0.45917 0.18185 0.0
C335 C 0.88095 0.54709 0.14281 0.0
C336 C 0.84279 0.50883 0.1538 0.0
H337 H 0.95833 0.58427 0.13728 0.0
H338 H 0.87293 0.57305 0.13226 0.0
C339 C 0.8566 0.47706 0.16774 0.0
C340 C 0.36487 0.83527 0.49308 0.0
C341 C 0.36519 0.87899 0.50756 0.0
H342 H 0.32153 0.76097 0.47451 0.0
C343 C 0.32034 0.87933 0.51598 0.0
H344 H 0.39881 0.83384 0.4863 0.0
C345 C 0.27579 0.83703 0.5094 0.0
C346 C 0.27546 0.79421 0.49396 0.0
H347 H 0.31961 0.91259 0.52719 0.0
H348 H 0.24153 0.83862 0.51551 0.0
C349 C 0.32058 0.79357 0.48626 0.0
C350 C 0.52129 0.34884 0.81041 0.0
C351 C 0.55708 0.39473 0.82204 0.0
H352 H 0.5019 0.26987 0.79831 0.0
C353 C 0.60325 0.39656 0.82929 0.0
H354 H 0.48532 0.3465 0.80468 0.0
C355 C 0.61297 0.35259 0.82552 0.0
C356 C 0.57665 0.30614 0.81438 0.0
H357 H 0.63111 0.43134 0.83864 0.0
H358 H 0.64861 0.35473 0.83171 0.0
C359 C 0.53099 0.30506 0.80653 0.0
C360 C 0.60233 0.92306 0.54228 0.0
C361 C 0.57964 0.93538 0.52257 0.0
H362 H 0.6134 0.86438 0.55941 0.0
C363 C 0.54793 0.89585 0.50523 0.0
H364 H 0.62681 0.95281 0.55599 0.0
C365 C 0.54007 0.84505 0.50722 0.0
C366 C 0.56369 0.83268 0.52663 0.0
H367 H 0.53032 0.90427 0.48973 0.0
H368 H 0.5158 0.81545 0.49339 0.0
C369 C 0.59429 0.87232 0.54436 0.0
C370 C 0.81279 0.59215 0.85914 0.0
C371 C 0.77833 0.55854 0.84084 0.0
H372 H 0.8862 0.61862 0.87483 0.0
C373 C 0.79231 0.52892 0.82256 0.0
H374 H 0.80258 0.61555 0.87326 0.0
C375 C 0.84009 0.53133 0.82319 0.0
C376 C 0.87377 0.56294 0.84227 0.0
H377 H 0.76611 0.50318 0.80812 0.0
H378 H 0.84996 0.50666 0.80965 0.0
C379 C 0.86036 0.59415 0.85993 0.0
C380 C 0.24743 0.70236 0.20652 0.0
C381 C 0.21293 0.69636 0.18731 0.0
H382 H 0.31399 0.75189 0.227 0.0
C383 C 0.2194 0.73746 0.17381 0.0
H384 H 0.24328 0.67119 0.2172 0.0
C385 C 0.26006 0.78392 0.17944 0.0
C386 C 0.29453 0.79004 0.19881 0.0
H387 H 0.1932 0.73365 0.15889 0.0
H388 H 0.26421 0.81518 0.16884 0.0
C389 C 0.28772 0.7487 0.21225 0.0
C390 C 0.50024 0.17966 0.5014 0.0
C391 C 0.52028 0.15961 0.51887 0.0
H392 H 0.48995 0.24477 0.49138 0.0
C393 C 0.54646 0.19148 0.54026 0.0
H394 H 0.48056 0.15607 0.48457 0.0
C395 C 0.55089 0.24203 0.54457 0.0
C396 C 0.52982 0.26209 0.52739 0.0
H397 H 0.56219 0.17685 0.55409 0.0
H398 H 0.5696 0.26483 0.56173 0.0
C399 C 0.50538 0.23043 0.50546 0.0
C400 C 0.35168 0.49461 0.83274 0.0
C401 C 0.39537 0.53695 0.83039 0.0
H402 H 0.27689 0.46891 0.84272 0.0
C403 C 0.39517 0.58564 0.83093 0.0
H404 H 0.35133 0.45667 0.83203 0.0
C405 C 0.35265 0.59281 0.8373 0.0
C406 C 0.31042 0.55107 0.84254 0.0
H407 H 0.42881 0.6186 0.82891 0.0
H408 H 0.35398 0.63118 0.84032 0.0
C409 C 0.3091 0.50157 0.83855 0.0
C410 C 0.87578 0.28098 0.16119 0.0
C411 C 0.89926 0.32076 0.18028 0.0
H412 H 0.81198 0.21293 0.14959 0.0
C413 C 0.87571 0.32226 0.20282 0.0
H414 H 0.89325 0.27905 0.14365 0.0
C415 C 0.8292 0.28503 0.20616 0.0
C416 C 0.80518 0.24526 0.18705 0.0
H417 H 0.8929 0.35278 0.21782 0.0
H418 H 0.81163 0.28811 0.22354 0.0
C419 C 0.82915 0.24346 0.16456 0.0
C420 C 1.0176 0.45124 0.08066 0.0
C421 C 0.05837 0.48867 0.09463 0.0
H422 H 0.97989 0.42375 0.04478 0.0
C423 C 0.09484 0.52561 0.08236 0.0
H424 H 0.98913 0.4219 0.08955 0.0
C425 C 0.08934 0.52672 0.0568 0.0
C426 C 0.04736 0.49085 0.04309 0.0
H427 H 0.1268 0.55481 0.09259 0.0
H428 H 0.11693 0.55698 0.04799 0.0
C429 C 1.01213 0.45237 0.05509 0.0
C430 C 0.56194 0.0981 0.42941 0.0
C431 C 0.54505 0.05031 0.43829 0.0
H432 H 0.57611 0.13956 0.39777 0.0
C433 C 0.52861 1.00615 0.42094 0.0
H434 H 0.57393 0.13275 0.44236 0.0
C435 C 0.53125 1.00995 0.39515 0.0
C436 C 0.54951 0.05803 0.38619 0.0
H437 H 0.51546 0.96877 0.42733 0.0
H438 H 0.52053 0.97528 0.38234 0.0
C439 C 0.56345 0.1019 0.40376 0.0
C440 C 0.5401 0.50589 0.74317 0.0
C441 C 0.58355 0.53178 0.7582 0.0
H442 H 0.50537 0.49127 0.70657 0.0
C443 C 0.62686 0.56154 0.74713 0.0
H444 H 0.50624 0.4826 0.7513 0.0
C445 C 0.6262 0.56713 0.72166 0.0
C446 C 0.58244 0.54223 0.70669 0.0
H447 H 0.66071 0.58226 0.75837 0.0
H448 H 0.65974 0.59168 0.71375 0.0
C449 C 0.53968 0.51059 0.71758 0.0
C450 C 0.60152 0.04795 0.60678 0.0
C451 C 0.55732 0.04329 0.59514 0.0
H452 H 0.63811 0.04543 0.64061 0.0
C453 C 0.51586 0.03525 0.60955 0.0
H454 H 0.63388 0.05383 0.59602 0.0
C455 C 0.51861 0.03172 0.63524 0.0
C456 C 0.56246 0.0347 0.64671 0.0
H457 H 0.48146 0.03185 0.60095 0.0
H458 H 0.48608 0.02494 0.64595 0.0
C459 C 0.6039 0.04307 0.63223 0.0
C460 C 0.5333 0.51906 0.92845 0.0
C461 C 0.57652 0.52564 0.91563 0.0
H462 H 0.49756 0.50965 0.96334 0.0
C463 C 0.61807 0.52837 0.92944 0.0
H464 H 0.50042 0.5165 0.91856 0.0
C465 C 0.61637 0.52445 0.95524 0.0
C466 C 0.57314 0.51787 0.96803 0.0
H467 H 0.65213 0.53369 0.92037 0.0
H468 H 0.64922 0.52724 0.96525 0.0
C469 C 0.53168 0.51532 0.95424 0.0
C470 C 0.07432 0.55922 0.26662 0.0
C471 C 0.06085 0.51238 0.25139 0.0
H472 H 0.07441 0.59662 0.30347 0.0
C473 C 0.04027 0.46691 0.26254 0.0
H474 H 0.09046 0.59495 0.25866 0.0
C475 C 0.03097 0.46796 0.28786 0.0
C476 C 0.04214 0.51444 0.30287 0.0
H477 H 1.02988 0.43004 0.25159 0.0
H478 H 1.01415 0.4321 0.29567 0.0
C479 C 0.06522 0.56023 0.29223 0.0
loop_
_geom_bond_atom_site_label_1
_geom_bond_atom_site_label_2
_geom_bond_distance
_geom_bond_site_symmetry_2
_ccdc_geom_bond_type
Tb0 O3 2.453 1_455 S
Tb0 O4 2.596 1_455 S
Tb0 O5 2.374 . S
Tb0 O13 2.343 . S
Tb0 O15 2.353 . S
Tb0 O17 2.427 . S
Tb0 O18 2.513 . S
C1 O5 1.251 . S
C1 O7 1.263 . S
Tb2 O4 2.343 1_455 S
Tb2 O7 2.353 . S
Tb2 O10 2.427 1_455 S
Tb2 O11 2.513 1_455 S
Tb2 O12 2.453 . S
Tb2 O13 2.596 . S
Tb2 O14 2.374 . S
O3 Tb0 2.453 1_655 S
O3 C19 1.245 . S
O4 Tb0 2.596 1_655 S
O4 Tb2 2.343 1_655 S
O4 C19 1.259 . S
O5 Tb0 2.374 . S
O5 C1 1.251 . S
C6 O10 1.275 . S
C6 O11 1.246 . S
O7 C1 1.263 . S
O7 Tb2 2.353 . S
C8 O12 1.245 . S
C8 O13 1.259 . S
C9 O14 1.250 . S
C9 O15 1.263 . S
O10 Tb2 2.427 1_655 S
O10 C6 1.275 . S
O11 Tb2 2.513 1_655 S
O11 C6 1.246 . S
O12 Tb2 2.453 . S
O12 C8 1.245 . S
O13 Tb0 2.343 . S
O13 Tb2 2.596 . S
O13 C8 1.259 . S
O14 Tb2 2.374 . S
O14 C9 1.250 . S
O15 Tb0 2.353 . S
O15 C9 1.263 . S
C16 O17 1.275 . S
C16 O18 1.246 . S
O17 Tb0 2.427 . S
O17 C16 1.275 . S
O18 Tb0 2.513 . S
O18 C16 1.246 . S
C19 O3 1.245 . S
C19 O4 1.259 . S
Tb20 O23 2.453 . S
Tb20 O24 2.596 . S
Tb20 O25 2.374 . S
Tb20 O33 2.343 1_545 S
Tb20 O35 2.353 . S
Tb20 O37 2.427 1_545 S
Tb20 O38 2.513 1_545 S
C21 O25 1.251 . S
C21 O27 1.263 . S
Tb22 O24 2.343 . S
Tb22 O27 2.353 . S
Tb22 O30 2.427 . S
Tb22 O31 2.513 . S
Tb22 O32 2.453 1_545 S
Tb22 O33 2.596 1_545 S
Tb22 O34 2.374 . S
O23 Tb20 2.453 . S
O23 C39 1.245 . S
O24 Tb20 2.596 . S
O24 Tb22 2.343 . S
O24 C39 1.259 . S
O25 Tb20 2.374 . S
O25 C21 1.251 . S
C26 O30 1.275 . S
C26 O31 1.246 . S
O27 C21 1.263 . S
O27 Tb22 2.353 . S
C28 O32 1.245 . S
C28 O33 1.259 . S
C29 O34 1.250 . S
C29 O35 1.263 . S
O30 Tb22 2.427 . S
O30 C26 1.275 . S
O31 Tb22 2.513 . S
O31 C26 1.246 . S
O32 Tb22 2.453 1_565 S
O32 C28 1.245 . S
O33 Tb20 2.343 1_565 S
O33 Tb22 2.596 1_565 S
O33 C28 1.259 . S
O34 Tb22 2.374 . S
O34 C29 1.250 . S
O35 Tb20 2.353 . S
O35 C29 1.263 . S
C36 O37 1.275 . S
C36 O38 1.246 . S
O37 Tb20 2.427 1_565 S
O37 C36 1.275 . S
O38 Tb20 2.513 1_565 S
O38 C36 1.246 . S
C39 O23 1.245 . S
C39 O24 1.259 . S
Tb40 O43 2.453 . S
Tb40 O44 2.596 . S
Tb40 O45 2.374 . S
Tb40 O53 2.343 . S
Tb40 O55 2.353 . S
Tb40 O57 2.427 . S
Tb40 O58 2.513 . S
C41 O45 1.251 . S
C41 O47 1.263 . S
Tb42 O44 2.343 . S
Tb42 O47 2.353 . S
Tb42 O50 2.427 . S
Tb42 O51 2.513 . S
Tb42 O52 2.453 . S
Tb42 O53 2.596 . S
Tb42 O54 2.374 . S
O43 Tb40 2.453 . S
O43 C59 1.245 . S
O44 Tb40 2.596 . S
O44 Tb42 2.343 . S
O44 C59 1.259 . S
O45 Tb40 2.374 . S
O45 C41 1.251 . S
C46 O50 1.275 . S
C46 O51 1.246 . S
O47 C41 1.263 . S
O47 Tb42 2.353 . S
C48 O52 1.245 . S
C48 O53 1.259 . S
C49 O54 1.250 . S
C49 O55 1.263 . S
O50 Tb42 2.427 . S
O50 C46 1.275 . S
O51 Tb42 2.513 . S
O51 C46 1.246 . S
O52 Tb42 2.453 . S
O52 C48 1.245 . S
O53 Tb40 2.343 . S
O53 Tb42 2.596 . S
O53 C48 1.259 . S
O54 Tb42 2.374 . S
O54 C49 1.250 . S
O55 Tb40 2.353 . S
O55 C49 1.263 . S
C56 O57 1.275 . S
C56 O58 1.246 . S
O57 Tb40 2.427 . S
O57 C56 1.275 . S
O58 Tb40 2.513 . S
O58 C56 1.246 . S
C59 O43 1.245 . S
C59 O44 1.259 . S
C60 C61 1.264 . S
C60 C65 1.479 . S
C60 C70 1.465 . S
C61 C60 1.264 . S
C61 C63 1.339 . S
C61 H88 0.931 . S
C62 C63 1.395 . S
C62 C64 1.320 . S
C63 C61 1.339 . S
C63 C62 1.395 . S
C63 H89 0.929 . S
C64 C62 1.320 . S
C64 C65 1.405 . S
C64 H90 0.930 . S
C65 C60 1.479 . S
C65 C64 1.405 . S
C65 H91 0.931 . S
U66 O67 2.454 1_545 S
U66 O68 2.458 1_545 S
U66 C69 2.984 1_545 S
U66 C70 2.847 . S
U66 C83 2.882 . S
U66 O84 2.441 . S
U66 O85 2.420 . S
U66 O86 2.455 . S
U66 O87 2.449 . S
O67 U66 2.454 1_565 S
O67 C69 1.353 . S
O68 U66 2.458 1_565 S
O68 C69 1.286 . S
C69 U66 2.984 1_565 S
C69 O67 1.353 . S
C69 O68 1.286 . S
C69 C71 1.363 . S
C70 C60 1.465 . S
C70 U66 2.847 . S
C70 O84 1.249 . S
C70 O85 1.202 . S
C71 C69 1.363 . S
C71 C73 1.408 . S
C71 C76 1.342 . S
C72 C73 1.310 . S
C72 C75 1.461 . S
C72 H92 0.932 . S
C73 C71 1.408 . S
C73 C72 1.310 . S
C73 H93 0.930 . S
C74 C75 1.474 . S
C74 C76 1.285 . S
C74 H94 0.929 . S
C75 C72 1.461 . S
C75 C74 1.474 . S
C76 C71 1.342 . S
C76 C74 1.285 . S
C76 H95 0.930 . S
C77 C80 1.424 . S
C77 C82 1.245 . S
C77 C83 1.428 . S
C78 C81 1.260 . S
C78 C82 1.477 . S
C78 H96 0.932 . S
C79 C80 1.384 . S
C79 C81 1.479 . S
C79 H97 0.929 . S
C80 C77 1.424 . S
C80 C79 1.384 . S
C80 H98 0.928 . S
C81 C78 1.260 . S
C81 C79 1.479 . S
C82 C77 1.245 . S
C82 C78 1.477 . S
C82 H99 0.932 . S
C83 U66 2.882 . S
C83 C77 1.428 . S
C83 O86 1.301 . S
C83 O87 1.282 . S
O84 U66 2.441 . S
O84 C70 1.249 . S
O85 U66 2.420 . S
O85 C70 1.202 . S
O86 U66 2.455 . S
O86 C83 1.301 . S
O87 U66 2.449 . S
O87 C83 1.282 . S
H88 C61 0.931 . S
H89 C63 0.929 . S
H90 C64 0.930 . S
H91 C65 0.931 . S
H92 C72 0.932 . S
H93 C73 0.930 . S
H94 C74 0.929 . S
H95 C76 0.930 . S
H96 C78 0.932 . S
H97 C79 0.929 . S
H98 C80 0.928 . S
H99 C82 0.932 . S
C100 C101 1.264 . S
C100 C105 1.479 . S
C100 C110 1.465 . S
C101 C100 1.264 . S
C101 C103 1.339 . S
C101 H128 0.931 . S
C102 C103 1.395 . S
C102 C104 1.320 . S
C103 C101 1.339 . S
C103 C102 1.395 . S
C103 H129 0.929 . S
C104 C102 1.320 . S
C104 C105 1.405 . S
C104 H130 0.930 . S
C105 C100 1.479 . S
C105 C104 1.405 . S
C105 H131 0.931 . S
U106 O107 2.454 . S
U106 O108 2.458 . S
U106 C109 2.984 . S
U106 C110 2.847 . S
U106 C123 2.882 . S
U106 O124 2.441 . S
U106 O125 2.420 . S
U106 O126 2.455 . S
U106 O127 2.449 . S
O107 U106 2.454 . S
O107 C109 1.353 . S
O108 U106 2.458 . S
O108 C109 1.286 . S
C109 U106 2.984 . S
C109 O107 1.353 . S
C109 O108 1.286 . S
C109 C111 1.363 . S
C110 C100 1.465 . S
C110 U106 2.847 . S
C110 O124 1.249 . S
C110 O125 1.202 . S
C111 C109 1.363 . S
C111 C113 1.408 . S
C111 C116 1.342 . S
C112 C113 1.310 . S
C112 C115 1.461 . S
C112 H132 0.932 . S
C113 C111 1.408 . S
C113 C112 1.310 . S
C113 H133 0.930 . S
C114 C115 1.474 . S
C114 C116 1.285 . S
C114 H134 0.929 . S
C115 C112 1.461 . S
C115 C114 1.474 . S
C116 C111 1.342 . S
C116 C114 1.285 . S
C116 H135 0.930 . S
C117 C120 1.424 . S
C117 C122 1.245 . S
C117 C123 1.428 . S
C118 C121 1.260 . S
C118 C122 1.477 . S
C118 H136 0.932 . S
C119 C120 1.384 . S
C119 C121 1.479 . S
C119 H137 0.929 . S
C120 C117 1.424 . S
C120 C119 1.384 . S
C120 H138 0.928 . S
C121 C118 1.260 . S
C121 C119 1.479 . S
C122 C117 1.245 . S
C122 C118 1.477 . S
C122 H139 0.932 . S
C123 U106 2.882 . S
C123 C117 1.428 . S
C123 O126 1.301 . S
C123 O127 1.282 . S
O124 U106 2.441 . S
O124 C110 1.249 . S
O125 U106 2.420 . S
O125 C110 1.202 . S
O126 U106 2.455 . S
O126 C123 1.301 . S
O127 U106 2.449 . S
O127 C123 1.282 . S
H128 C101 0.931 . S
H129 C103 0.929 . S
H130 C104 0.930 . S
H131 C105 0.931 . S
H132 C112 0.932 . S
H133 C113 0.930 . S
H134 C114 0.929 . S
H135 C116 0.930 . S
H136 C118 0.932 . S
H137 C119 0.929 . S
H138 C120 0.928 . S
H139 C122 0.932 . S
C140 C141 1.264 . S
C140 C145 1.479 . S
C140 C150 1.465 . S
C141 C140 1.264 . S
C141 C143 1.339 . S
C141 H168 0.931 . S
C142 C143 1.395 . S
C142 C144 1.320 . S
C143 C141 1.339 . S
C143 C142 1.395 . S
C143 H169 0.929 . S
C144 C142 1.320 . S
C144 C145 1.405 . S
C144 H170 0.930 . S
C145 C140 1.479 . S
C145 C144 1.405 . S
C145 H171 0.931 . S
U146 O147 2.454 . S
U146 O148 2.458 . S
U146 C149 2.984 . S
U146 C150 2.847 1_455 S
U146 C163 2.882 . S
U146 O164 2.441 . S
U146 O165 2.420 1_455 S
U146 O166 2.455 . S
U146 O167 2.449 . S
O147 U146 2.454 . S
O147 C149 1.353 . S
O148 U146 2.458 . S
O148 C149 1.286 . S
C149 U146 2.984 . S
C149 O147 1.353 . S
C149 O148 1.286 . S
C149 C151 1.363 . S
C150 C140 1.465 . S
C150 U146 2.847 1_655 S
C150 O164 1.249 1_655 S
C150 O165 1.202 . S
C151 C149 1.363 . S
C151 C153 1.408 . S
C151 C156 1.342 . S
C152 C153 1.310 . S
C152 C155 1.461 . S
C152 H172 0.932 . S
C153 C151 1.408 . S
C153 C152 1.310 . S
C153 H173 0.930 . S
C154 C155 1.474 . S
C154 C156 1.285 . S
C154 H174 0.929 . S
C155 C152 1.461 . S
C155 C154 1.474 . S
C156 C151 1.342 . S
C156 C154 1.285 . S
C156 H175 0.930 . S
C157 C160 1.424 . S
C157 C162 1.245 . S
C157 C163 1.428 . S
C158 C161 1.277 . S
C158 C162 1.446 1_554 S
C158 H176 0.949 . S
C159 C160 1.384 . S
C159 C161 1.479 1_556 S
C159 H177 0.929 1_456 S
C160 C157 1.424 . S
C160 C159 1.384 . S
C160 H178 0.928 1_455 S
C161 C158 1.277 . S
C161 C159 1.479 1_554 S
C162 C157 1.245 . S
C162 C158 1.446 1_556 S
C162 H179 0.932 . S
C163 U146 2.882 . S
C163 C157 1.428 . S
C163 O166 1.301 . S
C163 O167 1.282 . S
O164 U146 2.441 . S
O164 C150 1.249 1_455 S
O165 U146 2.420 1_655 S
O165 C150 1.202 . S
O166 U146 2.455 . S
O166 C163 1.301 . S
O167 U146 2.449 . S
O167 C163 1.282 . S
H168 C141 0.931 . S
H169 C143 0.929 . S
H170 C144 0.930 . S
H171 C145 0.931 . S
H172 C152 0.932 . S
H173 C153 0.930 . S
H174 C154 0.929 . S
H175 C156 0.930 . S
H176 C158 0.949 . S
H177 C159 0.929 1_654 S
H178 C160 0.928 1_655 S
H179 C162 0.932 . S
C180 C181 1.264 . S
C180 C185 1.479 . S
C180 C190 1.465 . S
C181 C180 1.264 . S
C181 C183 1.339 . S
C181 H208 0.931 . S
C182 C183 1.395 . S
C182 C184 1.320 . S
C183 C181 1.339 . S
C183 C182 1.395 . S
C183 H209 0.929 . S
C184 C182 1.320 . S
C184 C185 1.405 . S
C184 H210 0.930 . S
C185 C180 1.479 . S
C185 C184 1.405 . S
C185 H211 0.931 . S
U186 O187 2.454 1_655 S
U186 O188 2.458 1_655 S
U186 C189 2.984 1_655 S
U186 C190 2.847 . S
U186 C203 2.882 . S
U186 O204 2.441 . S
U186 O205 2.420 . S
U186 O206 2.455 1_655 S
U186 O207 2.449 . S
O187 U186 2.454 1_455 S
O187 C189 1.353 . S
O188 U186 2.458 1_455 S
O188 C189 1.286 . S
C189 U186 2.984 1_455 S
C189 O187 1.353 . S
C189 O188 1.286 . S
C189 C191 1.363 . S
C190 C180 1.465 . S
C190 U186 2.847 . S
C190 O204 1.249 . S
C190 O205 1.202 . S
C191 C189 1.363 . S
C191 C193 1.408 . S
C191 C196 1.342 . S
C192 C193 1.310 . S
C192 C195 1.461 . S
C192 H212 0.932 . S
C193 C191 1.408 . S
C193 C192 1.310 . S
C193 H213 0.930 . S
C194 C195 1.474 . S
C194 C196 1.285 . S
C194 H214 0.929 . S
C195 C192 1.461 . S
C195 C194 1.474 . S
C196 C191 1.342 . S
C196 C194 1.285 . S
C196 H215 0.930 . S
C197 C200 1.424 . S
C197 C202 1.245 1_655 S
C197 C203 1.428 . S
C198 C201 1.260 1_455 S
C198 C202 1.477 . S
C198 H216 0.932 . S
C199 C200 1.384 . S
C199 C201 1.479 . S
C199 H217 0.929 . S
C200 C197 1.424 . S
C200 C199 1.384 . S
C200 H218 0.928 . S
C201 C198 1.260 1_655 S
C201 C199 1.479 . S
C202 C197 1.245 1_455 S
C202 C198 1.477 . S
C202 H219 0.932 . S
C203 U186 2.882 . S
C203 C197 1.428 . S
C203 O206 1.301 1_655 S
C203 O207 1.282 . S
O204 U186 2.441 . S
O204 C190 1.249 . S
O205 U186 2.420 . S
O205 C190 1.202 . S
O206 U186 2.455 1_455 S
O206 C203 1.301 1_455 S
O207 U186 2.449 . S
O207 C203 1.282 . S
H208 C181 0.931 . S
H209 C183 0.929 . S
H210 C184 0.930 . S
H211 C185 0.931 . S
H212 C192 0.932 . S
H213 C193 0.930 . S
H214 C194 0.929 . S
H215 C196 0.930 . S
H216 C198 0.932 . S
H217 C199 0.929 . S
H218 C200 0.928 . S
H219 C202 0.932 . S
C220 C221 1.264 . S
C220 C225 1.479 . S
C220 C230 1.465 . S
C221 C220 1.264 . S
C221 C223 1.339 . S
C221 H248 0.931 . S
C222 C223 1.395 . S
C222 C224 1.320 . S
C223 C221 1.339 . S
C223 C222 1.395 . S
C223 H249 0.929 . S
C224 C222 1.320 . S
C224 C225 1.405 . S
C224 H250 0.930 . S
C225 C220 1.479 . S
C225 C224 1.405 . S
C225 H251 0.931 . S
U226 O227 2.454 . S
U226 O228 2.458 . S
U226 C229 2.984 . S
U226 C230 2.847 1_545 S
U226 C243 2.883 1_545 S
U226 O244 2.441 1_545 S
U226 O245 2.420 1_545 S
U226 O246 2.455 . S
U226 O247 2.449 1_545 S
O227 U226 2.454 . S
O227 C229 1.353 . S
O228 U226 2.458 . S
O228 C229 1.286 . S
C229 U226 2.984 . S
C229 O227 1.353 . S
C229 O228 1.286 . S
C229 C231 1.363 . S
C230 C220 1.465 . S
C230 U226 2.847 1_565 S
C230 O244 1.249 . S
C230 O245 1.202 . S
C231 C229 1.363 . S
C231 C233 1.408 . S
C231 C236 1.342 . S
C232 C233 1.310 . S
C232 C235 1.461 . S
C232 H252 0.932 . S
C233 C231 1.408 . S
C233 C232 1.310 . S
C233 H253 0.930 . S
C234 C235 1.474 . S
C234 C236 1.285 . S
C234 H254 0.929 . S
C235 C232 1.461 . S
C235 C234 1.474 . S
C236 C231 1.342 . S
C236 C234 1.285 . S
C236 H255 0.930 . S
C237 C240 1.431 . S
C237 C242 1.238 1_565 S
C237 C243 1.428 . S
C238 C241 1.260 1_545 S
C238 C242 1.477 . S
C238 H256 0.932 . S
C239 C240 1.384 . S
C239 C241 1.479 . S
C239 H257 0.929 . S
C240 C237 1.431 . S
C240 C239 1.384 . S
C240 H258 0.928 . S
C241 C238 1.260 1_565 S
C241 C239 1.479 . S
C242 C237 1.238 1_545 S
C242 C238 1.477 . S
C242 H259 0.932 . S
C243 U226 2.883 1_565 S
C243 C237 1.428 . S
C243 O246 1.296 1_565 S
C243 O247 1.288 . S
O244 U226 2.441 1_565 S
O244 C230 1.249 . S
O245 U226 2.420 1_565 S
O245 C230 1.202 . S
O246 U226 2.455 . S
O246 C243 1.296 1_545 S
O247 U226 2.449 1_565 S
O247 C243 1.288 . S
H248 C221 0.931 . S
H249 C223 0.929 . S
H250 C224 0.930 . S
H251 C225 0.931 . S
H252 C232 0.932 . S
H253 C233 0.930 . S
H254 C234 0.929 . S
H255 C236 0.930 . S
H256 C238 0.932 . S
H257 C239 0.929 . S
H258 C240 0.928 . S
H259 C242 0.932 . S
C260 C261 1.264 . S
C260 C265 1.479 . S
C260 C270 1.465 . S
C261 C260 1.264 . S
C261 C263 1.339 . S
C261 H288 0.931 . S
C262 C263 1.395 . S
C262 C264 1.320 . S
C263 C261 1.339 . S
C263 C262 1.395 . S
C263 H289 0.929 . S
C264 C262 1.320 . S
C264 C265 1.405 . S
C264 H290 0.930 . S
C265 C260 1.479 . S
C265 C264 1.405 . S
C265 H291 0.931 . S
U266 O267 2.454 . S
U266 O268 2.458 . S
U266 C269 2.984 . S
U266 C270 2.847 . S
U266 C283 2.882 . S
U266 O284 2.441 . S
U266 O285 2.420 . S
U266 O286 2.455 . S
U266 O287 2.449 . S
O267 U266 2.454 . S
O267 C269 1.353 . S
O268 U266 2.458 . S
O268 C269 1.286 . S
C269 U266 2.984 . S
C269 O267 1.353 . S
C269 O268 1.286 . S
C269 C271 1.363 . S
C270 C260 1.465 . S
C270 U266 2.847 . S
C270 O284 1.249 . S
C270 O285 1.202 . S
C271 C269 1.363 . S
C271 C273 1.408 . S
C271 C276 1.342 . S
C272 C273 1.310 . S
C272 C275 1.461 . S
C272 H292 0.932 . S
C273 C271 1.408 . S
C273 C272 1.310 . S
C273 H293 0.930 . S
C274 C275 1.474 . S
C274 C276 1.285 . S
C274 H294 0.929 . S
C275 C272 1.461 . S
C275 C274 1.474 . S
C276 C271 1.342 . S
C276 C274 1.285 . S
C276 H295 0.930 . S
C277 C280 1.424 . S
C277 C282 1.245 . S
C277 C283 1.428 . S
C278 C281 1.260 . S
C278 C282 1.477 1_556 S
C278 H296 0.932 . S
C279 C280 1.384 1_556 S
C279 C281 1.479 . S
C279 H297 0.929 . S
C280 C277 1.424 . S
C280 C279 1.384 1_554 S
C280 H298 0.928 . S
C281 C278 1.260 . S
C281 C279 1.479 . S
C282 C277 1.245 . S
C282 C278 1.477 1_554 S
C282 H299 0.932 . S
C283 U266 2.882 . S
C283 C277 1.428 . S
C283 O286 1.301 . S
C283 O287 1.282 . S
O284 U266 2.441 . S
O284 C270 1.249 . S
O285 U266 2.420 . S
O285 C270 1.202 . S
O286 U266 2.455 . S
O286 C283 1.301 . S
O287 U266 2.449 . S
O287 C283 1.282 . S
H288 C261 0.931 . S
H289 C263 0.929 . S
H290 C264 0.930 . S
H291 C265 0.931 . S
H292 C272 0.932 . S
H293 C273 0.930 . S
H294 C274 0.929 . S
H295 C276 0.930 . S
H296 C278 0.932 . S
H297 C279 0.929 . S
H298 C280 0.928 . S
H299 C282 0.932 . S
C300 C301 1.387 . S
C300 H304 0.950 . S
C300 C309 1.390 . S
C301 C300 1.387 . S
C301 C303 1.387 . S
H302 C309 0.950 . S
C303 C301 1.387 . S
C303 C305 1.390 . S
C303 H307 0.950 . S
H304 C300 0.950 . S
C305 C303 1.390 . S
C305 C306 1.387 . S
C305 H308 0.950 . S
C306 C305 1.387 . S
C306 C309 1.387 . S
H307 C303 0.950 . S
H308 C305 0.950 . S
C309 C300 1.390 . S
C309 H302 0.950 . S
C309 C306 1.387 . S
C310 C311 1.387 . S
C310 H314 0.950 . S
C310 C319 1.390 . S
C311 C310 1.387 . S
C311 C313 1.387 . S
H312 C319 0.950 . S
C313 C311 1.387 . S
C313 C315 1.390 . S
C313 H317 0.950 . S
H314 C310 0.950 . S
C315 C313 1.390 . S
C315 C316 1.387 . S
C315 H318 0.950 . S
C316 C315 1.387 . S
C316 C319 1.387 . S
H317 C313 0.950 . S
H318 C315 0.950 . S
C319 C310 1.390 . S
C319 H312 0.950 . S
C319 C316 1.387 . S
C320 C321 1.387 . S
C320 H324 0.950 . S
C320 C329 1.390 . S
C321 C320 1.387 . S
C321 C323 1.387 . S
H322 C329 0.950 . S
C323 C321 1.387 . S
C323 C325 1.390 . S
C323 H327 0.950 . S
H324 C320 0.950 . S
C325 C323 1.390 . S
C325 C326 1.387 . S
C325 H328 0.950 . S
C326 C325 1.387 . S
C326 C329 1.387 . S
H327 C323 0.950 . S
H328 C325 0.950 . S
C329 C320 1.390 . S
C329 H322 0.950 . S
C329 C326 1.387 . S
C330 C331 1.387 . S
C330 H334 0.950 . S
C330 C339 1.390 . S
C331 C330 1.387 . S
C331 C333 1.387 . S
H332 C339 0.950 . S
C333 C331 1.387 . S
C333 C335 1.390 . S
C333 H337 0.950 . S
H334 C330 0.950 . S
C335 C333 1.390 . S
C335 C336 1.387 . S
C335 H338 0.950 . S
C336 C335 1.387 . S
C336 C339 1.387 . S
H337 C333 0.950 . S
H338 C335 0.950 . S
C339 C330 1.390 . S
C339 H332 0.950 . S
C339 C336 1.387 . S
C340 C341 1.387 . S
C340 H344 0.950 . S
C340 C349 1.390 . S
C341 C340 1.387 . S
C341 C343 1.387 . S
H342 C349 0.950 . S
C343 C341 1.387 . S
C343 C345 1.390 . S
C343 H347 0.950 . S
H344 C340 0.950 . S
C345 C343 1.390 . S
C345 C346 1.387 . S
C345 H348 0.950 . S
C346 C345 1.387 . S
C346 C349 1.387 . S
H347 C343 0.950 . S
H348 C345 0.950 . S
C349 C340 1.390 . S
C349 H342 0.950 . S
C349 C346 1.387 . S
C350 C351 1.387 . S
C350 H354 0.950 . S
C350 C359 1.390 . S
C351 C350 1.387 . S
C351 C353 1.387 . S
H352 C359 0.950 . S
C353 C351 1.387 . S
C353 C355 1.390 . S
C353 H357 0.950 . S
H354 C350 0.950 . S
C355 C353 1.390 . S
C355 C356 1.387 . S
C355 H358 0.950 . S
C356 C355 1.387 . S
C356 C359 1.387 . S
H357 C353 0.950 . S
H358 C355 0.950 . S
C359 C350 1.390 . S
C359 H352 0.950 . S
C359 C356 1.387 . S
C360 C361 1.387 . S
C360 H364 0.950 . S
C360 C369 1.390 . S
C361 C360 1.387 . S
C361 C363 1.387 . S
H362 C369 0.950 . S
C363 C361 1.387 . S
C363 C365 1.390 . S
C363 H367 0.950 . S
H364 C360 0.950 . S
C365 C363 1.390 . S
C365 C366 1.387 . S
C365 H368 0.950 . S
C366 C365 1.387 . S
C366 C369 1.387 . S
H367 C363 0.950 . S
H368 C365 0.950 . S
C369 C360 1.390 . S
C369 H362 0.950 . S
C369 C366 1.387 . S
C370 C371 1.387 . S
C370 H374 0.950 . S
C370 C379 1.390 . S
C371 C370 1.387 . S
C371 C373 1.387 . S
H372 C379 0.950 . S
C373 C371 1.387 . S
C373 C375 1.390 . S
C373 H377 0.950 . S
H374 C370 0.950 . S
C375 C373 1.390 . S
C375 C376 1.387 . S
C375 H378 0.950 . S
C376 C375 1.387 . S
C376 C379 1.387 . S
H377 C373 0.950 . S
H378 C375 0.950 . S
C379 C370 1.390 . S
C379 H372 0.950 . S
C379 C376 1.387 . S
C380 C381 1.387 . S
C380 H384 0.950 . S
C380 C389 1.390 . S
C381 C380 1.387 . S
C381 C383 1.387 . S
H382 C389 0.950 . S
C383 C381 1.387 . S
C383 C385 1.390 . S
C383 H387 0.950 . S
H384 C380 0.950 . S
C385 C383 1.390 . S
C385 C386 1.387 . S
C385 H388 0.950 . S
C386 C385 1.387 . S
C386 C389 1.387 . S
H387 C383 0.950 . S
H388 C385 0.950 . S
C389 C380 1.390 . S
C389 H382 0.950 . S
C389 C386 1.387 . S
C390 C391 1.387 . S
C390 H394 0.950 . S
C390 C399 1.390 . S
C391 C390 1.387 . S
C391 C393 1.387 . S
H392 C399 0.950 . S
C393 C391 1.387 . S
C393 C395 1.390 . S
C393 H397 0.950 . S
H394 C390 0.950 . S
C395 C393 1.390 . S
C395 C396 1.387 . S
C395 H398 0.950 . S
C396 C395 1.387 . S
C396 C399 1.387 . S
H397 C393 0.950 . S
H398 C395 0.950 . S
C399 C390 1.390 . S
C399 H392 0.950 . S
C399 C396 1.387 . S
C400 C401 1.387 . S
C400 H404 0.950 . S
C400 C409 1.390 . S
C401 C400 1.387 . S
C401 C403 1.387 . S
H402 C409 0.950 . S
C403 C401 1.387 . S
C403 C405 1.390 . S
C403 H407 0.950 . S
H404 C400 0.950 . S
C405 C403 1.390 . S
C405 C406 1.387 . S
C405 H408 0.950 . S
C406 C405 1.387 . S
C406 C409 1.387 . S
H407 C403 0.950 . S
H408 C405 0.950 . S
C409 C400 1.390 . S
C409 H402 0.950 . S
C409 C406 1.387 . S
C410 C411 1.387 . S
C410 H414 0.950 . S
C410 C419 1.390 . S
C411 C410 1.387 . S
C411 C413 1.387 . S
H412 C419 0.950 . S
C413 C411 1.387 . S
C413 C415 1.390 . S
C413 H417 0.950 . S
H414 C410 0.950 . S
C415 C413 1.390 . S
C415 C416 1.387 . S
C415 H418 0.950 . S
C416 C415 1.387 . S
C416 C419 1.387 . S
H417 C413 0.950 . S
H418 C415 0.950 . S
C419 C410 1.390 . S
C419 H412 0.950 . S
C419 C416 1.387 . S
C420 C421 1.387 . S
C420 H424 0.950 1_455 S
C420 C429 1.390 . S
C421 C420 1.387 . S
C421 C423 1.387 . S
H422 C429 0.950 1_655 S
C423 C421 1.387 . S
C423 C425 1.390 . S
C423 H427 0.950 . S
H424 C420 0.950 1_655 S
C425 C423 1.390 . S
C425 C426 1.387 . S
C425 H428 0.950 . S
C426 C425 1.387 . S
C426 C429 1.387 . S
H427 C423 0.950 . S
H428 C425 0.950 . S
C429 C420 1.390 . S
C429 H422 0.950 1_455 S
C429 C426 1.387 . S
C430 C431 1.387 . S
C430 H434 0.950 . S
C430 C439 1.390 . S
C431 C430 1.387 . S
C431 C433 1.387 . S
H432 C439 0.950 . S
C433 C431 1.387 . S
C433 C435 1.390 . S
C433 H437 0.950 1_545 S
H434 C430 0.950 . S
C435 C433 1.390 . S
C435 C436 1.387 . S
C435 H438 0.966 . S
C436 C435 1.387 . S
C436 C439 1.387 . S
H437 C433 0.950 1_565 S
H438 C435 0.966 . S
C439 C430 1.390 . S
C439 H432 0.950 . S
C439 C436 1.387 . S
C440 C441 1.387 . S
C440 H444 0.950 . S
C440 C449 1.390 . S
C441 C440 1.387 . S
C441 C443 1.387 . S
H442 C449 0.950 . S
C443 C441 1.387 . S
C443 C445 1.390 . S
C443 H447 0.950 . S
H444 C440 0.950 . S
C445 C443 1.390 . S
C445 C446 1.387 . S
C445 H448 0.950 . S
C446 C445 1.387 . S
C446 C449 1.387 . S
H447 C443 0.950 . S
H448 C445 0.950 . S
C449 C440 1.390 . S
C449 H442 0.950 . S
C449 C446 1.387 . S
C450 C451 1.387 1_565 S
C450 H454 0.950 . S
C450 C459 1.390 . S
C451 C450 1.387 1_545 S
C451 C453 1.387 . S
H452 C459 0.950 . S
C453 C451 1.387 . S
C453 C455 1.390 . S
C453 H457 0.950 . S
H454 C450 0.950 . S
C455 C453 1.390 . S
C455 C456 1.387 . S
C455 H458 0.950 . S
C456 C455 1.387 . S
C456 C459 1.387 1_545 S
H457 C453 0.950 . S
H458 C455 0.950 . S
C459 C450 1.390 . S
C459 H452 0.950 . S
C459 C456 1.387 1_565 S
C460 C461 1.387 . S
C460 H464 0.950 . S
C460 C469 1.390 . S
C461 C460 1.387 . S
C461 C463 1.387 . S
H462 C469 0.950 . S
C463 C461 1.387 . S
C463 C465 1.390 . S
C463 H467 0.950 . S
H464 C460 0.950 . S
C465 C463 1.390 . S
C465 C466 1.387 . S
C465 H468 0.950 . S
C466 C465 1.387 . S
C466 C469 1.387 . S
H467 C463 0.950 . S
H468 C465 0.950 . S
C469 C460 1.390 . S
C469 H462 0.950 . S
C469 C466 1.387 . S
C470 C471 1.387 . S
C470 H474 0.950 . S
C470 C479 1.390 . S
C471 C470 1.387 . S
C471 C473 1.387 1_455 S
H472 C479 0.950 . S
C473 C471 1.387 1_655 S
C473 C475 1.390 . S
C473 H477 0.950 . S
H474 C470 0.950 . S
C475 C473 1.390 . S
C475 C476 1.387 . S
C475 H478 0.950 . S
C476 C475 1.387 . S
C476 C479 1.387 1_655 S
H477 C473 0.950 . S
H478 C475 0.950 . S
C479 C470 1.390 . S
C479 H472 0.950 . S
C479 C476 1.387 1_455 S
C301 C8 2.162 . S
C306 C275 2.210 . S
C311 C26 1.462 . S
C316 C182 1.445 . S
C321 C48 1.625 . S
C326 C222 1.668 . S
C331 C19 2.037 . S
C336 C262 2.022 . S
C346 C195 1.668 . S
C341 C36 1.696 . S
C356 C235 1.923 . S
C351 C59 1.960 . S
C361 C28 1.649 . S
C366 C102 1.693 . S
C371 C46 1.367 . S
C376 C142 1.355 . S
C381 C16 1.766 . S
C386 C75 1.736 . S
C396 C115 1.886 . S
C391 C39 1.940 . S
C406 C155 1.165 . S
C401 C56 1.189 . S
C411 C6 1.523 . S
C416 C62 1.502 . S
C426 C161 1.427 . S
C421 C9 1.411 . S
C431 C21 1.533 . S
C436 C81 1.537 . S
C441 C49 1.503 . S
C446 C121 1.505 . S
C456 C241 1.492 1_545 S
C451 C29 1.500 . S
C466 C281 1.597 . S
C461 C41 1.581 . S
C471 C1 1.521 . S
C476 C201 1.527 . S
