# Generated by pormake.
# Topology zzz, (3,6)-cn, num edge types: 1
# Building blocks:
#     Node 0, Type 0, BuildingBlock: OLANEW_clean_sbu_2, # of connection points: 3
#     Node 1, Type 0, BuildingBlock: OLANEW_clean_sbu_2, # of connection points: 3
#     Node 2, Type 0, BuildingBlock: OLANEW_clean_sbu_2, # of connection points: 3
#     Node 3, Type 0, BuildingBlock: OLANEW_clean_sbu_2, # of connection points: 3
#     Node 4, Type 0, BuildingBlock: OLANEW_clean_sbu_2, # of connection points: 3
#     Node 5, Type 0, BuildingBlock: OLANEW_clean_sbu_2, # of connection points: 3
#     Node 6, Type 0, BuildingBlock: OLANEW_clean_sbu_2, # of connection points: 3
#     Node 7, Type 0, BuildingBlock: OLANEW_clean_sbu_2, # of connection points: 3
#     Node 8, Type 1, BuildingBlock: NUHQIS_clean_sbu_0, # of connection points: 6
#     Node 9, Type 1, BuildingBlock: NUHQIS_clean_sbu_0, # of connection points: 6
#     Node 10, Type 1, BuildingBlock: NUHQIS_clean_sbu_0, # of connection points: 6
#     Node 11, Type 1, BuildingBlock: NUHQIS_clean_sbu_0, # of connection points: 6
#     Edge 12, Type (0, 1), BuildingBlock: XIVTED_clean_linker_0, # of connection points: 2
#     Edge 13, Type (0, 1), BuildingBlock: XIVTED_clean_linker_0, # of connection points: 2
#     Edge 14, Type (0, 1), BuildingBlock: XIVTED_clean_linker_0, # of connection points: 2
#     Edge 15, Type (0, 1), BuildingBlock: XIVTED_clean_linker_0, # of connection points: 2
#     Edge 16, Type (0, 1), BuildingBlock: XIVTED_clean_linker_0, # of connection points: 2
#     Edge 17, Type (0, 1), BuildingBlock: XIVTED_clean_linker_0, # of connection points: 2
#     Edge 18, Type (0, 1), BuildingBlock: XIVTED_clean_linker_0, # of connection points: 2
#     Edge 19, Type (0, 1), BuildingBlock: XIVTED_clean_linker_0, # of connection points: 2
#     Edge 20, Type (0, 1), BuildingBlock: XIVTED_clean_linker_0, # of connection points: 2
#     Edge 21, Type (0, 1), BuildingBlock: XIVTED_clean_linker_0, # of connection points: 2
#     Edge 22, Type (0, 1), BuildingBlock: XIVTED_clean_linker_0, # of connection points: 2
#     Edge 23, Type (0, 1), BuildingBlock: XIVTED_clean_linker_0, # of connection points: 2
#     Edge 24, Type (0, 1), BuildingBlock: XIVTED_clean_linker_0, # of connection points: 2
#     Edge 25, Type (0, 1), BuildingBlock: XIVTED_clean_linker_0, # of connection points: 2
#     Edge 26, Type (0, 1), BuildingBlock: XIVTED_clean_linker_0, # of connection points: 2
#     Edge 27, Type (0, 1), BuildingBlock: XIVTED_clean_linker_0, # of connection points: 2
#     Edge 28, Type (0, 1), BuildingBlock: XIVTED_clean_linker_0, # of connection points: 2
#     Edge 29, Type (0, 1), BuildingBlock: XIVTED_clean_linker_0, # of connection points: 2
#     Edge 30, Type (0, 1), BuildingBlock: XIVTED_clean_linker_0, # of connection points: 2
#     Edge 31, Type (0, 1), BuildingBlock: XIVTED_clean_linker_0, # of connection points: 2
#     Edge 32, Type (0, 1), BuildingBlock: XIVTED_clean_linker_0, # of connection points: 2
#     Edge 33, Type (0, 1), BuildingBlock: XIVTED_clean_linker_0, # of connection points: 2
#     Edge 34, Type (0, 1), BuildingBlock: XIVTED_clean_linker_0, # of connection points: 2
#     Edge 35, Type (0, 1), BuildingBlock: XIVTED_clean_linker_0, # of connection points: 2
# Relax obj value: 0.227
# Max RMSD: 0.158
# Mean RMSD: 0.148
data_MOF--net-zzz--node1-OLANEW_clean_sbu_2--node2-NUHQIS_clean_sbu_0--edge1-XIVTED_clean_linker_0
_symmetry_space_group_name_H-M    P1
_symmetry_Int_Tables_number       1
_symmetry_cell_setting            triclinic
loop_
_symmetry_equiv_pos_as_xyz
'x, y, z'
_cell_length_a     56.387406
_cell_length_b     56.446512
_cell_length_c     15.864906
_cell_angle_alpha  89.826565
_cell_angle_beta   90.056662
_cell_angle_gamma 89.965776
loop_
_atom_site_label
_atom_site_type_symbol
_atom_site_fract_x
_atom_site_fract_y
_atom_site_fract_z
_atom_type_partial_charge
O0 O 0.73829 0.49247 0.21628 0.0
Cd1 Cd 0.69998 0.49625 0.28675 0.0
O2 O 0.74687 0.47426 0.33399 0.0
Cd3 Cd 0.77213 0.46003 0.42435 0.0
O4 O 0.80753 0.46057 0.47697 0.0
C5 C 0.8115 0.47203 0.5442 0.0
O6 O 0.79366 0.48191 0.58411 0.0
C7 C 0.75328 0.48143 0.26138 0.0
C8 C 0.66202 0.50006 0.17607 0.0
O9 O 0.67092 0.51858 0.21027 0.0
O10 O 0.67118 0.47987 0.19381 0.0
O11 O 0.95388 0.74149 0.20567 0.0
Cd12 Cd 0.9416 0.70608 0.2823 0.0
O13 O 0.98087 0.74136 0.30429 0.0
Cd14 Cd 0.00651 0.75862 0.38594 0.0
O15 O 0.01266 0.7915 0.45226 0.0
C16 C 0.99706 0.80707 0.43569 0.0
O17 O 0.97971 0.8017 0.38384 0.0
C18 C 0.97172 0.75127 0.23981 0.0
C19 C 0.96109 0.66563 0.21199 0.0
O20 O 0.93947 0.67135 0.19741 0.0
O21 O 0.97348 0.67895 0.26016 0.0
O22 O 0.75559 0.94405 0.17137 0.0
Cd23 Cd 0.79233 0.92382 0.20884 0.0
O24 O 0.75786 0.96326 0.29078 0.0
Cd25 Cd 0.74041 0.98313 0.38981 0.0
O26 O 0.70801 0.98775 0.46108 0.0
C27 C 0.69147 0.97328 0.44355 0.0
O28 O 0.69517 0.95711 0.38563 0.0
C29 C 0.74686 0.95892 0.22257 0.0
C30 C 0.83091 0.94387 0.12676 0.0
O31 O 0.81831 0.92779 0.09157 0.0
O32 O 0.82532 0.95045 0.2014 0.0
O33 O 0.534 0.76217 0.27792 0.0
Cd34 Cd 0.54429 0.79854 0.3519 0.0
O35 O 0.49771 0.7693 0.31971 0.0
Cd36 Cd 0.46239 0.75644 0.35095 0.0
O37 O 0.45758 0.72075 0.39826 0.0
C38 C 0.47137 0.71573 0.45904 0.0
O39 O 0.48477 0.73252 0.49084 0.0
C40 C 0.51238 0.75597 0.28148 0.0
C41 C 0.53342 0.83827 0.25563 0.0
O42 O 0.55436 0.82941 0.25538 0.0
O43 O 0.51762 0.82837 0.3018 0.0
O44 O 0.25812 0.52856 0.02809 0.0
Cd45 Cd 0.29944 0.52914 0.98287 0.0
O46 O 0.25818 0.48995 0.0166 0.0
Cd47 Cd 0.244 0.45387 0.01938 0.0
O48 O 0.24107 0.41404 0.99929 0.0
C49 C 0.2244 0.40474 0.95585 0.0
O50 O 0.24179 0.41327 0.00073 0.0
C51 C 0.24739 0.50892 0.03637 0.0
C52 C 0.32903 0.5219 0.12167 0.0
O53 O 0.322 0.54273 0.10107 0.0
O54 O 0.32229 0.50446 0.07598 0.0
O55 O 0.96246 0.28397 0.10223 0.0
Cd56 Cd 0.9724 0.32265 0.04386 0.0
O57 O 0.00084 0.27845 0.09366 0.0
Cd58 Cd 0.03296 0.25715 0.10932 0.0
O59 O 0.04967 0.22372 0.07588 0.0
C60 C 0.05144 0.22022 0.99712 0.0
O61 O 0.04577 0.23756 0.94538 0.0
C62 C 0.98035 0.2706 0.11253 0.0
C63 C 0.9859 0.35243 0.17418 0.0
O64 O 0.96525 0.35419 0.141 0.0
O65 O 0.00027 0.33694 0.14483 0.0
O66 O 0.23063 0.94932 0.10314 0.0
Cd67 Cd 0.19017 0.94845 0.04988 0.0
O68 O 0.22763 0.98805 0.10634 0.0
Cd69 Cd 0.24428 0.02279 0.1172 0.0
O70 O 0.27741 0.04036 0.08605 0.0
C71 C 0.28174 0.0427 0.00794 0.0
O72 O 0.26525 0.03674 0.95339 0.0
C73 C 0.23962 0.96934 0.12053 0.0
C74 C 0.16069 0.9643 0.17824 0.0
O75 O 0.16635 0.94239 0.17195 0.0
O76 O 0.16847 0.97873 0.1222 0.0
O77 O 0.53166 0.23164 0.10075 0.0
Cd78 Cd 0.52159 0.19264 0.04707 0.0
O79 O 0.49368 0.2387 0.08598 0.0
Cd80 Cd 0.4623 0.26135 0.09399 0.0
O81 O 0.44664 0.29474 0.05341 0.0
C82 C 0.44617 0.29767 0.97404 0.0
O83 O 0.45262 0.27997 0.92553 0.0
C84 C 0.51429 0.24584 0.10666 0.0
C85 C 0.51442 0.16178 0.1811 0.0
O86 O 0.53436 0.16248 0.14245 0.0
O87 O 0.49776 0.17551 0.1557 0.0
Tb88 Tb 0.02828 0.00072 0.81825 0.0
Eu89 Eu 0.99895 0.02626 0.6598 0.0
C90 C 0.05349 0.01437 0.64538 0.0
C91 C 0.02806 0.05589 0.7983 0.0
C92 C 0.0403 0.95692 0.98401 0.0
C93 C 0.04915 0.917 0.03284 0.0
C94 C 0.05665 0.93868 0.99914 0.0
C95 C 0.01638 0.95342 0.00547 0.0
C96 C 0.00891 0.93185 0.03988 0.0
C97 C 0.02509 0.91315 0.05241 0.0
C98 C 0.04785 0.97827 0.93735 0.0
O99 O 0.99316 0.01011 0.86479 0.0
O100 O 0.97233 0.00787 0.74153 0.0
O101 O 0.004 0.98804 0.62582 0.0
O102 O 0.00776 0.97273 0.75954 0.0
C103 C 0.97317 0.00698 0.82394 0.0
O104 O 0.96938 0.04856 0.61932 0.0
O105 O 0.99264 0.03276 0.52617 0.0
O106 O 0.0375 0.03069 0.62978 0.0
O107 O 0.05108 -0.0009 0.70762 0.0
O108 O 0.04068 0.03714 0.81857 0.0
O109 O 0.00864 0.05452 0.75279 0.0
C110 C 0.00436 0.97001 0.67824 0.0
O111 O 0.0526 0.97478 0.85812 0.0
O112 O 0.03532 0.99746 0.94808 0.0
C113 C 0.9752 0.06978 0.49288 0.0
C114 C 0.97441 0.11304 0.40369 0.0
C115 C 0.95332 0.10041 0.41826 0.0
C116 C 0.95374 0.07895 0.46232 0.0
C117 C 0.99632 0.08234 0.47897 0.0
C118 C 0.99594 0.10375 0.43433 0.0
C119 C 0.97504 0.04729 0.53974 0.0
H120 H 0.06209 0.90298 0.04037 0.0
H121 H 0.07512 0.94089 0.98199 0.0
H122 H 0.00331 0.96711 0.9936 0.0
H123 H 0.99034 0.92976 0.05552 0.0
H124 H 0.93651 0.10699 0.39476 0.0
H125 H 0.93728 0.06948 0.47259 0.0
H126 H 0.01305 0.07564 0.50279 0.0
H127 H 0.01243 0.11323 0.42498 0.0
Tb128 Tb 0.50238 0.02862 0.8301 0.0
Eu129 Eu 0.47655 0.99104 0.69917 0.0
C130 C 0.49009 0.04471 0.64726 0.0
C131 C 0.44708 0.02774 0.8082 0.0
C132 C 0.54836 0.04483 0.97449 0.0
C133 C 0.57899 0.04784 0.08203 0.0
C134 C 0.55797 0.05631 0.04497 0.0
C135 C 0.56006 0.02504 0.94117 0.0
C136 C 0.58088 0.01664 0.97769 0.0
C137 C 0.59048 0.02767 0.04926 0.0
C138 C 0.52555 0.05201 0.93709 0.0
O139 O 0.51021 0.99292 0.87304 0.0
O140 O 0.47658 0.9746 0.82837 0.0
O141 O 0.51511 0.98064 0.7013 0.0
O142 O 0.52927 0.01705 0.74165 0.0
C143 C 0.49482 0.97567 0.87921 0.0
O144 O 0.44835 0.96549 0.67562 0.0
O145 O 0.47382 0.97332 0.57744 0.0
O146 O 0.48884 0.02242 0.62408 0.0
O147 O 0.49 0.0511 0.72706 0.0
O148 O 0.46481 0.02857 0.86194 0.0
O149 O 0.44962 0.01864 0.73283 0.0
C150 C 0.53253 0.99593 0.70914 0.0
O151 O 0.5261 0.05639 0.85633 0.0
O152 O 0.50776 0.03831 0.95657 0.0
C153 C 0.43455 0.9649 0.53613 0.0
C154 C 0.395 0.96894 0.42808 0.0
C155 C 0.40407 0.94653 0.45039 0.0
C156 C 0.42367 0.94456 0.50397 0.0
C157 C 0.42591 0.98731 0.51316 0.0
C158 C 0.40634 0.98932 0.4594 0.0
C159 C 0.45409 0.96255 0.59676 0.0
H160 H 0.58592 0.05667 0.1373 0.0
H161 H 0.54907 0.07151 0.07199 0.0
H162 H 0.5529 0.0158 0.88723 0.0
H163 H 0.58946 0.00142 0.94958 0.0
H164 H 0.39559 0.93046 0.4286 0.0
H165 H 0.43004 0.92712 0.52164 0.0
H166 H 0.4341 0.00323 0.53774 0.0
H167 H 0.40004 0.00685 0.44271 0.0
Tb168 Tb 0.46539 0.51659 0.77461 0.0
Eu169 Eu 0.49771 0.49191 0.62323 0.0
C170 C 0.44288 0.50029 0.60039 0.0
C171 C 0.46721 0.46116 0.75688 0.0
C172 C 0.44898 0.55946 0.94071 0.0
C173 C 0.44252 0.60069 0.97846 0.0
C174 C 0.43593 0.58053 0.93327 0.0
C175 C 0.4684 0.55872 0.99634 0.0
C176 C 0.47486 0.57885 0.0423 0.0
C177 C 0.46221 0.60023 0.03309 0.0
C178 C 0.4429 0.53914 0.88613 0.0
O179 O 0.49897 0.50697 0.83315 0.0
O180 O 0.52323 0.50707 0.71692 0.0
O181 O 0.49114 0.53005 0.5892 0.0
O182 O 0.48881 0.54355 0.72418 0.0
C183 C 0.52015 0.50748 0.79879 0.0
O184 O 0.52775 0.46995 0.5857 0.0
O185 O 0.5062 0.48721 0.49031 0.0
O186 O 0.45985 0.4847 0.58998 0.0
O187 O 0.44409 0.51663 0.65928 0.0
O188 O 0.45428 0.47973 0.77662 0.0
O189 O 0.48655 0.46268 0.71092 0.0
C190 C 0.49127 0.54754 0.64331 0.0
O191 O 0.44166 0.54385 0.80582 0.0
O192 O 0.45382 0.51913 0.9003 0.0
C193 C 0.52274 0.44989 0.45731 0.0
C194 C 0.52271 0.4066 0.36943 0.0
C195 C 0.54409 0.41859 0.38521 0.0
C196 C 0.54408 0.44009 0.42864 0.0
C197 C 0.50133 0.43799 0.44191 0.0
C198 C 0.5013 0.41657 0.3979 0.0
C199 C 0.52321 0.47207 0.50542 0.0
H200 H 0.43255 0.61685 0.96835 0.0
H201 H 0.42096 0.58159 0.89054 0.0
H202 H 0.47887 0.54275 0.00347 0.0
H203 H 0.48987 0.57764 0.08471 0.0
H204 H 0.56082 0.41142 0.36348 0.0
H205 H 0.56077 0.44901 0.44032 0.0
H206 H 0.48467 0.44515 0.46449 0.0
H207 H 0.48459 0.40757 0.38767 0.0
Tb208 Tb 0.01155 0.47222 0.84979 0.0
Eu209 Eu 0.03379 0.50877 0.70302 0.0
C210 C 0.02586 0.45464 0.66539 0.0
C211 C 0.0671 0.47613 0.82496 0.0
C212 C 0.96729 0.45091 -4e-05 0.0
C213 C 0.93103 0.43581 0.06268 0.0
C214 C 0.9537 0.43188 0.02956 0.0
C215 C 0.95823 0.47401 0.00578 0.0
C216 C 0.93567 0.47798 0.03927 0.0
C217 C 0.92156 0.4589 0.06672 0.0
C218 C 0.9895 0.44652 0.95405 0.0
O219 O 0.01896 0.50514 0.9157 0.0
O220 O 0.02012 0.53209 0.80608 0.0
O221 O 0.99563 0.50059 0.67282 0.0
O222 O 0.98358 0.49581 0.80846 0.0
C223 C 0.01834 0.52696 0.88656 0.0
O224 O 0.05924 0.53539 0.65982 0.0
O225 O 0.03091 0.52401 0.57721 0.0
O226 O 0.04053 0.47235 0.65536 0.0
O227 O 0.01111 0.45336 0.72947 0.0
O228 O 0.049 0.46333 0.85084 0.0
O229 O 0.06495 0.49517 0.7775 0.0
C230 C 0.97865 0.49935 0.72893 0.0
O231 O 0.98699 0.44506 0.87272 0.0
O232 O 0.0076 0.45972 0.97419 0.0
C233 C 0.068 0.53161 0.51551 0.0
C234 C 0.10233 0.52347 0.38975 0.0
C235 C 0.09796 0.54656 0.41948 0.0
C236 C 0.0809 0.55057 0.48178 0.0
C237 C 0.07214 0.5086 0.48571 0.0
C238 C 0.08902 0.50458 0.42309 0.0
C239 C 0.05076 0.53571 0.5833 0.0
H240 H 0.92062 0.42064 0.08208 0.0
H241 H 0.96027 0.4139 0.02443 0.0
H242 H 0.96834 0.48893 0.98221 0.0
H243 H 0.9292 0.49602 0.04263 0.0
H244 H 0.10813 0.56147 0.39628 0.0
H245 H 0.07802 0.56843 0.50449 0.0
H246 H 0.06243 0.49368 0.51132 0.0
H247 H 0.09165 0.48664 0.40099 0.0
H248 H 0.14788 0.93964 0.31914 0.0
H249 H 0.06375 0.04026 0.5028 0.0
H250 H 0.14062 0.00816 0.20018 0.0
H251 H 0.08676 0.97915 0.64571 0.0
H252 H 0.09151 0.02937 0.39091 0.0
H253 H 0.1244 0.95381 0.43765 0.0
C254 C 0.1413 0.95767 0.31785 0.0
C255 C 0.14614 0.97272 0.24953 0.0
C256 C 0.09065 0.01854 0.44728 0.0
C257 C 0.11925 0.9891 0.38533 0.0
C258 C 0.07486 0.02477 0.51133 0.0
C259 C 0.07274 0.01049 0.58359 0.0
C260 C 0.10421 0.99777 0.45527 0.0
C261 C 0.08763 0.99064 0.59106 0.0
C262 C 0.12801 0.96581 0.38584 0.0
C263 C 0.13727 0.99596 0.25158 0.0
N264 N 0.1025 0.98474 0.52732 0.0
N265 N 0.12411 0.00342 0.31824 0.0
H266 H 0.48072 0.16447 0.30485 0.0
H267 H 0.50909 0.03773 0.49257 0.0
H268 H 0.53977 0.12211 0.22014 0.0
H269 H 0.47896 0.09226 0.64989 0.0
H270 H 0.51523 0.06691 0.38145 0.0
H271 H 0.47487 0.13671 0.42254 0.0
C272 C 0.49241 0.14933 0.311 0.0
C273 C 0.51073 0.1455 0.25272 0.0
C274 C 0.50731 0.07251 0.44029 0.0
C275 C 0.50397 0.1138 0.38584 0.0
C276 C 0.50362 0.05586 0.50359 0.0
C277 C 0.49342 0.06261 0.58049 0.0
C278 C 0.50037 0.09605 0.45311 0.0
C279 C 0.48694 0.0864 0.59152 0.0
C280 C 0.48914 0.13365 0.37825 0.0
C281 C 0.52548 0.12573 0.26375 0.0
N282 N 0.49033 0.10233 0.52799 0.0
N283 N 0.52162 0.11049 0.32858 0.0
H284 H 0.34153 0.55419 0.24198 0.0
H285 H 0.43209 0.46789 0.47773 0.0
H286 H 0.35144 0.48105 0.17138 0.0
H287 H 0.40984 0.53535 0.57822 0.0
H288 H 0.40295 0.47226 0.36459 0.0
H289 H 0.36722 0.54779 0.36398 0.0
C290 C 0.3491 0.53677 0.25213 0.0
C291 C 0.34439 0.51815 0.19619 0.0
C292 C 0.4043 0.48599 0.41187 0.0
C293 C 0.37385 0.5107 0.33586 0.0
C294 C 0.42093 0.48351 0.47658 0.0
C295 C 0.42351 0.50133 0.53748 0.0
C296 C 0.39032 0.50656 0.40742 0.0
C297 C 0.4085 0.52115 0.53275 0.0
C298 C 0.36369 0.5331 0.32205 0.0
C299 C 0.35461 0.49592 0.21281 0.0
N300 N 0.39272 0.52333 0.46839 0.0
N301 N 0.36897 0.49285 0.28087 0.0
H302 H 0.97332 0.39833 0.20288 0.0
H303 H 0.01541 0.40722 0.67103 0.0
H304 H 0.01389 0.34047 0.30762 0.0
H305 H 0.02817 0.46514 0.49895 0.0
H306 H 0.00686 0.38146 0.54942 0.0
H307 H 0.98493 0.42293 0.32368 0.0
C308 C 0.9846 0.39084 0.25147 0.0
C309 C 0.99281 0.36747 0.24559 0.0
C310 C 0.01179 0.39977 0.53887 0.0
C311 C 0.00551 0.39508 0.38359 0.0
C312 C 0.01663 0.41439 0.60776 0.0
C313 C 0.02279 0.43816 0.59456 0.0
C314 C 0.01228 0.40936 0.45718 0.0
C315 C 0.02391 0.44678 0.51158 0.0
C316 C 0.99125 0.40484 0.31981 0.0
C317 C 0.00741 0.35852 0.3099 0.0
N318 N 0.01834 0.43247 0.44594 0.0
N319 N 0.0131 0.37227 0.37712 0.0
H320 H 0.84203 0.93994 0.96014 0.0
H321 H 0.96664 0.00534 0.99553 0.0
H322 H 0.86617 0.97186 0.19179 0.0
H323 H 0.93049 0.99314 0.75945 0.0
H324 H 0.93139 0.9913 0.07067 0.0
H325 H 0.87602 0.95708 0.8872 0.0
C326 C 0.8545 0.95056 0.99569 0.0
C327 C 0.8513 0.95446 0.08217 0.0
C328 C 0.93117 0.99192 0.00245 0.0
C329 C 0.89031 0.97407 0.99908 0.0
C330 C 0.95126 -9e-05 0.9595 0.0
C331 C 0.95154 0.0004 0.87101 0.0
C332 C 0.91139 0.98409 0.95647 0.0
C333 C 0.93111 0.9931 0.82764 0.0
C334 C 0.87384 0.96044 0.95392 0.0
C335 C 0.86797 0.96846 0.12499 0.0
N336 N 0.91196 0.98508 0.87079 0.0
N337 N 0.88688 0.97765 0.08307 0.0
H338 H 0.56424 0.86866 0.17842 0.0
H339 H 0.46471 0.93999 0.92763 0.0
H340 H 0.48951 0.85546 0.21408 0.0
H341 H 0.5356 0.96678 0.96668 0.0
H342 H 0.47369 0.90695 0.02302 0.0
H343 H 0.55438 0.90283 0.09019 0.0
C344 C 0.54575 0.87296 0.16769 0.0
C345 C 0.52766 0.85921 0.20354 0.0
C346 C 0.48719 0.92016 0.0109 0.0
C347 C 0.51627 0.89815 0.10227 0.0
C348 C 0.48212 0.93895 0.95634 0.0
C349 C 0.49945 0.95611 0.93899 0.0
C350 C 0.50984 0.91837 0.04726 0.0
C351 C 0.52168 0.95396 0.97823 0.0
C352 C 0.54014 0.89251 0.11763 0.0
C353 C 0.50401 0.86564 0.1878 0.0
N354 N 0.52629 0.93534 0.02999 0.0
N355 N 0.49898 0.88458 0.13777 0.0
H356 H 0.64916 0.469 0.05314 0.0
H357 H 0.52389 0.52562 0.95798 0.0
H358 H 0.62842 0.53497 0.16853 0.0
H359 H 0.56411 0.48996 0.76486 0.0
H360 H 0.55907 0.52487 0.04946 0.0
H361 H 0.61474 0.47179 0.95929 0.0
C362 C 0.63734 0.48405 0.0587 0.0
C363 C 0.6416 0.50181 0.11836 0.0
C364 C 0.56013 0.51734 0.98686 0.0
C365 C 0.60218 0.50488 0.01257 0.0
C366 C 0.54011 0.51765 0.93495 0.0
C367 C 0.54119 0.50786 0.85388 0.0
C368 C 0.58105 0.50661 0.95806 0.0
C369 C 0.56262 0.49783 0.82678 0.0
C370 C 0.61782 0.48567 0.00503 0.0
C371 C 0.62579 0.52098 0.12291 0.0
N372 N 0.58167 0.49722 0.87917 0.0
N373 N 0.60657 0.52191 0.07117 0.0
H374 H 0.00702 0.65894 0.16374 0.0
H375 H 0.99167 0.52481 0.02941 0.0
H376 H 0.93883 0.62438 0.17177 0.0
H377 H 0.03274 0.57308 0.87684 0.0
H378 H 0.97909 0.55821 0.11725 0.0
H379 H 0.02348 0.62413 0.09148 0.0
C380 C 0.99562 0.64392 0.1511 0.0
C381 C 0.97154 0.64446 0.17302 0.0
C382 C 0.99109 0.56133 0.06509 0.0
C383 C 0.99027 0.60479 0.09301 0.0
C384 C 0.99838 0.54236 0.01538 0.0
C385 C 0.01314 0.54631 0.94567 0.0
C386 C 0.99917 0.5842 0.04611 0.0
C387 C 0.0212 0.5694 0.92979 0.0
C388 C 0.00498 0.62422 0.10985 0.0
C389 C 0.95744 0.62465 0.15511 0.0
N390 N 0.01415 0.58756 0.97992 0.0
N391 N 0.96706 0.60549 0.1165 0.0
H392 H 0.00232 0.22996 0.06261 0.0
H393 H 0.94297 0.14968 0.42177 0.0
H394 H 0.95091 0.25644 0.2394 0.0
H395 H 0.0046 0.12842 0.27975 0.0
H396 H 0.94257 0.18736 0.34524 0.0
H397 H 0.00041 0.19107 0.13095 0.0
C398 C 0.99092 0.22761 0.11676 0.0
C399 C 0.9775 0.24656 0.14771 0.0
C400 C 0.95616 0.17444 0.33073 0.0
C401 C 0.97441 0.20202 0.22424 0.0
C402 C 0.95633 0.15289 0.37409 0.0
C403 C 0.97388 0.1359 0.35724 0.0
C404 C 0.97357 0.17901 0.26959 0.0
C405 C 0.99092 0.14112 0.29546 0.0
C406 C 0.98959 0.20538 0.15511 0.0
C407 C 0.9618 0.2423 0.21448 0.0
N408 N 0.99032 0.16219 0.25382 0.0
N409 N 0.9608 0.22049 0.25103 0.0
H410 H 0.2776 0.94056 0.08922 0.0
H411 H 0.3581 0.00018 0.44616 0.0
H412 H 0.25581 0.00028 0.23925 0.0
H413 H 0.38192 0.94216 0.29096 0.0
H414 H 0.32147 0.00188 0.36476 0.0
H415 H 0.31661 0.94176 0.15753 0.0
C416 C 0.28116 0.9541 0.13577 0.0
C417 C 0.26367 0.9707 0.15721 0.0
C418 C 0.33474 0.98884 0.34813 0.0
C419 C 0.30803 0.97204 0.23632 0.0
C420 C 0.35579 0.98796 0.3943 0.0
C421 C 0.37318 0.97095 0.37568 0.0
C422 C 0.33089 0.97252 0.28289 0.0
C423 C 0.36889 0.95532 0.30855 0.0
C424 C 0.3034 0.95481 0.17467 0.0
C425 C 0.26905 0.98771 0.21855 0.0
N426 N 0.34815 0.95641 0.26487 0.0
N427 N 0.29071 0.98789 0.25608 0.0
H428 H 0.54369 0.25971 0.23368 0.0
H429 H 0.49289 0.39187 0.24372 0.0
H430 H 0.49423 0.287 0.05045 0.0
H431 H 0.55254 0.36888 0.39371 0.0
H432 H 0.49245 0.35327 0.17417 0.0
H433 H 0.54733 0.29952 0.29366 0.0
C434 C 0.53358 0.27413 0.2062 0.0
C435 C 0.51793 0.27 0.13915 0.0
C436 C 0.50573 0.3567 0.22196 0.0
C437 C 0.52195 0.31544 0.20705 0.0
C438 C 0.50588 0.37867 0.26202 0.0
C439 C 0.52273 0.38355 0.32473 0.0
C440 C 0.5224 0.33937 0.24534 0.0
C441 C 0.53936 0.36592 0.34521 0.0
C442 C 0.53562 0.2968 0.24044 0.0
C443 C 0.5055 0.28926 0.10497 0.0
N444 N 0.53868 0.34456 0.30603 0.0
N445 N 0.50759 0.31112 0.13973 0.0
H446 H 0.21341 0.54302 0.02325 0.0
H447 H 0.13339 0.48607 0.38395 0.0
H448 H 0.22705 0.47467 0.13549 0.0
H449 H 0.1149 0.5506 0.25247 0.0
H450 H 0.16595 0.48007 0.28555 0.0
H451 H 0.17567 0.54477 0.09866 0.0
C452 C 0.20825 0.52818 0.06263 0.0
C453 C 0.22326 0.50854 0.07236 0.0
C454 C 0.15466 0.49545 0.27772 0.0
C455 C 0.18031 0.51057 0.15997 0.0
C456 C 0.13594 0.49885 0.33373 0.0
C457 C 0.12138 0.51897 0.32698 0.0
C458 C 0.15909 0.51239 0.21473 0.0
C459 C 0.12591 0.53508 0.26126 0.0
C460 C 0.18671 0.52919 0.10565 0.0
C461 C 0.21578 0.48985 0.12433 0.0
N462 N 0.14446 0.53153 0.20813 0.0
N463 N 0.19494 0.49144 0.16687 0.0
H464 H 0.0169 0.76933 0.24562 0.0
H465 H 0.9834 0.89047 0.01313 0.0
H466 H 0.94605 0.78607 0.16191 0.0
H467 H 0.04775 0.88133 0.15762 0.0
H468 H 0.97043 0.85127 0.05837 0.0
H469 H 0.02972 0.80905 0.20383 0.0
C470 C 0.00396 0.78147 0.21958 0.0
C471 C 0.9802 0.77463 0.20967 0.0
C472 C 0.98735 0.85788 0.08042 0.0
C473 C 0.99494 0.81983 0.1587 0.0
C474 C 0.99474 0.8804 0.05512 0.0
C475 C 0.01673 0.88943 0.08172 0.0
C476 C 0.00211 0.84404 0.13211 0.0
C477 C 0.03082 0.8751 0.13443 0.0
C478 C 0.01134 0.80408 0.19505 0.0
C479 C 0.96449 0.79068 0.17138 0.0
N480 N 0.02331 0.85313 0.15763 0.0
N481 N 0.97212 0.81254 0.14751 0.0
H482 H 0.73179 0.00414 0.25635 0.0
H483 H 0.60131 0.98107 0.07608 0.0
H484 H 0.70886 0.93808 0.14768 0.0
H485 H 0.62931 0.05144 0.11278 0.0
H486 H 0.63875 0.9645 0.12543 0.0
H487 H 0.69261 0.02118 0.22578 0.0
C488 C 0.71839 0.99315 0.22711 0.0
C489 C 0.72341 0.96959 0.20538 0.0
C490 C 0.63672 0.98357 0.12294 0.0
C491 C 0.67883 0.98897 0.16948 0.0
C492 C 0.61535 0.99307 0.09455 0.0
C493 C 0.61229 0.01772 0.08865 0.0
C494 C 0.65527 -0.00125 0.1463 0.0
C495 C 0.63089 0.03235 0.1161 0.0
C496 C 0.69615 0.00293 0.20911 0.0
C497 C 0.7057 0.95632 0.16541 0.0
N498 N 0.65169 0.02264 0.14319 0.0
N499 N 0.68418 0.96616 0.14908 0.0
H500 H 0.46964 0.74437 0.21054 0.0
H501 H 0.50773 0.61503 0.06814 0.0
H502 H 0.5384 0.7152 0.26945 0.0
H503 H 0.43452 0.63589 0.09896 0.0
H504 H 0.52 0.6522 0.13329 0.0
H505 H 0.45708 0.70562 0.15903 0.0
C506 C 0.48194 0.72969 0.21427 0.0
C507 C 0.50484 0.73282 0.24699 0.0
C508 C 0.50125 0.64854 0.12615 0.0
C509 C 0.49094 0.68864 0.18436 0.0
C510 C 0.49418 0.62721 0.0894 0.0
C511 C 0.46998 0.6222 0.07735 0.0
C512 C 0.48407 0.66519 0.15014 0.0
C513 C 0.45337 0.63907 0.10499 0.0
C514 C 0.47484 0.70762 0.18404 0.0
C515 C 0.5205 0.71349 0.24546 0.0
N516 N 0.46072 0.65984 0.13938 0.0
N517 N 0.51328 0.69221 0.2146 0.0
H518 H 0.78262 0.44379 0.29271 0.0
H519 H 0.88891 0.49098 0.00615 0.0
H520 H 0.77951 0.51017 0.158 0.0
H521 H 0.89733 0.43599 0.19376 0.0
H522 H 0.84815 0.49687 0.05334 0.0
H523 H 0.8238 0.439 0.24878 0.0
C524 C 0.79077 0.45763 0.25537 0.0
C525 C 0.77789 0.47785 0.23164 0.0
C526 C 0.85896 0.48358 0.08433 0.0
C527 C 0.82479 0.47196 0.17769 0.0
C528 C 0.88234 0.48028 0.05785 0.0
C529 C 0.89677 0.46298 0.09612 0.0
C530 C 0.84973 0.46933 0.14907 0.0
C531 C 0.88689 0.44931 0.16143 0.0
C532 C 0.81421 0.45473 0.22938 0.0
C533 C 0.78891 0.49445 0.17854 0.0
N534 N 0.86402 0.45273 0.18559 0.0
N535 N 0.81176 0.49117 0.15347 0.0
H536 H 0.05047 0.20605 0.83292 0.0
H537 H 0.05551 0.06744 0.93523 0.0
H538 H 0.05997 0.17918 0.08591 0.0
H539 H 0.01887 0.09808 0.72219 0.0
H540 H 0.06657 0.10753 0.98126 0.0
H541 H 0.04917 0.16546 0.78104 0.0
C542 C 0.05267 0.19164 0.87749 0.0
C543 C 0.05497 0.19602 0.9641 0.0
C544 C 0.05625 0.10535 0.92419 0.0
C545 C 0.05341 0.14953 0.90492 0.0
C546 C 0.04999 0.08257 0.89788 0.0
C547 C 0.03603 0.07954 0.82544 0.0
C548 C 0.04889 0.12504 0.87658 0.0
C549 C 0.02934 0.09966 0.77914 0.0
C550 C 0.05182 0.16848 0.84778 0.0
C551 C 0.05794 0.1766 0.01871 0.0
N552 N 0.03584 0.12154 0.80548 0.0
N553 N 0.05685 0.15412 0.98828 0.0
H554 H 0.32157 0.05033 0.10356 0.0
H555 H 0.40738 0.03267 0.7105 0.0
H556 H 0.29749 0.04623 0.84556 0.0
H557 H 0.43248 0.04123 0.96588 0.0
H558 H 0.3674 0.04223 0.75742 0.0
H559 H 0.36248 0.05201 0.05331 0.0
C560 C 0.32485 0.05017 0.0363 0.0
C561 C 0.30609 0.04779 0.9787 0.0
C562 C 0.38166 0.04225 0.80316 0.0
C563 C 0.35287 0.04946 0.92087 0.0
C564 C 0.40454 0.03674 0.77641 0.0
C565 C 0.42329 0.03584 0.83456 0.0
C566 C 0.37741 0.04671 0.88887 0.0
C567 C 0.41854 0.04153 0.91896 0.0
C568 C 0.34823 0.05107 0.00765 0.0
C569 C 0.3114 0.04778 0.89231 0.0
N570 N 0.39601 0.04646 0.94377 0.0
N571 N 0.3343 0.04828 0.8661 0.0
H572 H 0.4493 0.31056 0.80858 0.0
H573 H 0.43955 0.44974 0.89336 0.0
H574 H 0.43594 0.33927 0.05607 0.0
H575 H 0.47775 0.41868 0.68548 0.0
H576 H 0.42948 0.40973 0.9433 0.0
H577 H 0.45028 0.35071 0.75166 0.0
C578 C 0.44622 0.32528 0.85085 0.0
C579 C 0.44286 0.32156 0.93748 0.0
C580 C 0.43992 0.41178 0.88647 0.0
C581 C 0.44406 0.36757 0.87253 0.0
C582 C 0.44561 0.43453 0.85788 0.0
C583 C 0.4597 0.43746 0.78573 0.0
C584 C 0.44803 0.39197 0.84156 0.0
C585 C 0.46712 0.41721 0.74205 0.0
C586 C 0.4469 0.3482 0.81828 0.0
C587 C 0.43879 0.34135 0.98899 0.0
N588 N 0.46119 0.39534 0.77066 0.0
N589 N 0.43971 0.36358 0.95582 0.0
H590 H 0.1994 0.40253 0.81166 0.0
H591 H 0.08262 0.45815 0.97517 0.0
H592 H 0.20057 0.43734 0.05317 0.0
H593 H 0.10609 0.47583 0.72409 0.0
H594 H 0.12281 0.44374 0.00809 0.0
H595 H 0.16187 0.42275 0.77873 0.0
C596 C 0.19184 0.41464 0.8572 0.0
C597 C 0.20313 0.41862 0.9344 0.0
C598 C 0.11909 0.45096 0.94612 0.0
C599 C 0.16012 0.44088 0.89887 0.0
C600 C 0.09626 0.459 0.92721 0.0
C601 C 0.09119 0.46815 0.84695 0.0
C602 C 0.13658 0.45134 0.88333 0.0
C603 C 0.10941 0.46899 0.78686 0.0
C604 C 0.17056 0.42612 0.83842 0.0
C605 C 0.19256 0.43419 0.99221 0.0
N606 N 0.13126 0.46028 0.80578 0.0
N607 N 0.17135 0.4445 0.9738 0.0
H608 H 0.02318 0.82146 0.57188 0.0
H609 H 0.98721 0.95719 0.5239 0.0
H610 H 0.97345 0.84667 0.38484 0.0
H611 H 0.01544 0.92804 0.75521 0.0
H612 H 0.9851 0.91725 0.46573 0.0
H613 H 0.02401 0.86118 0.63376 0.0
C614 C 0.01249 0.83536 0.54383 0.0
C615 C 0.99817 0.83082 0.47341 0.0
C616 C 0.99161 0.9196 0.52941 0.0
C617 C 0.99911 0.87607 0.5433 0.0
C618 C 0.99286 0.94238 0.56258 0.0
C619 C 0.0015 0.94591 0.64447 0.0
C620 C -0.00061 0.90029 0.57802 0.0
C621 C 0.00854 0.92608 0.69189 0.0
C622 C 0.01287 0.85793 0.57936 0.0
C623 C 0.98462 0.84939 0.43953 0.0
N624 N 0.00751 0.90409 0.65768 0.0
N625 N 0.98551 0.87126 0.47458 0.0
H626 H 0.65201 0.94603 0.41708 0.0
H627 H 0.57359 0.01911 0.74444 0.0
H628 H 0.67832 0.00375 0.56868 0.0
H629 H 0.54616 0.95985 0.60308 0.0
H630 H 0.61256 0.01196 0.68536 0.0
H631 H 0.61364 0.94934 0.48779 0.0
C632 C 0.64976 0.95934 0.46543 0.0
C633 C 0.66838 0.9747 0.48686 0.0
C634 C 0.59811 0.0004 0.66736 0.0
C635 C 0.62457 0.97855 0.56785 0.0
C636 C 0.57577 0.00447 0.70114 0.0
C637 C 0.5565 0.99015 0.67811 0.0
C638 C 0.60132 0.98198 0.60936 0.0
C639 C 0.56053 0.97134 0.62235 0.0
C640 C 0.62785 0.96119 0.50579 0.0
C641 C 0.66446 0.9916 0.54991 0.0
N642 N 0.58251 0.9679 0.58918 0.0
N643 N 0.64298 0.9931 0.58794 0.0
H644 H 0.49158 0.70032 0.60538 0.0
H645 H 0.48504 0.56346 0.48175 0.0
H646 H 0.45857 0.67511 0.377 0.0
H647 H 0.49759 0.58785 0.73568 0.0
H648 H 0.48079 0.60462 0.43576 0.0
H649 H 0.49861 0.65931 0.64853 0.0
C650 C 0.4857 0.68613 0.56455 0.0
C651 C 0.47431 0.69107 0.4879 0.0
C652 C 0.4846 0.60093 0.50142 0.0
C653 C 0.48262 0.64422 0.53617 0.0
C654 C 0.48722 0.57746 0.52762 0.0
C655 C 0.4916 0.57223 0.61275 0.0
C656 C 0.48658 0.61924 0.56065 0.0
C657 C 0.49412 0.59108 0.6695 0.0
C658 C 0.48974 0.66276 0.58916 0.0
C659 C 0.46715 0.67205 0.43715 0.0
N660 N 0.49153 0.61377 0.64243 0.0
N661 N 0.47153 0.64942 0.46205 0.0
H662 H 0.8523 0.46277 0.45772 0.0
H663 H 0.93901 0.50183 0.82781 0.0
H664 H 0.82671 0.49087 0.69366 0.0
H665 H 0.96138 0.49488 0.56872 0.0
H666 H 0.89795 0.49587 0.7833 0.0
H667 H 0.89281 0.47153 0.50169 0.0
C668 C 0.8552 0.47066 0.51904 0.0
C669 C 0.8361 0.47609 0.57224 0.0
C670 C 0.91184 0.49591 0.73616 0.0
C671 C 0.88243 0.48624 0.62265 0.0
C672 C 0.93527 0.49933 0.76143 0.0
C673 C 0.95365 0.49882 0.70181 0.0
C674 C 0.90681 0.49163 0.65091 0.0
C675 C 0.94777 0.49549 0.61675 0.0
C676 C 0.87833 0.47581 0.54379 0.0
C677 C 0.84093 0.48643 0.65071 0.0
N678 N 0.92486 0.49178 0.59393 0.0
N679 N 0.86366 0.4911 0.67376 0.0
loop_
_geom_bond_atom_site_label_1
_geom_bond_atom_site_label_2
_geom_bond_distance
_geom_bond_site_symmetry_2
_ccdc_geom_bond_type
O0 Cd1 2.300 . S
O0 C7 1.275 . S
Cd1 O0 2.300 . S
Cd1 O9 2.381 . S
Cd1 O10 2.378 . S
O2 Cd3 2.385 . S
O2 C7 1.255 . S
Cd3 O2 2.385 . S
Cd3 O4 2.317 . S
O4 Cd3 2.317 . S
O4 C5 1.232 . S
C5 O4 1.232 . S
C5 O6 1.218 . S
O6 C5 1.218 . S
C7 O0 1.275 . S
C7 O2 1.255 . S
C8 O9 1.258 . S
C8 O10 1.256 . S
O9 Cd1 2.381 . S
O9 C8 1.258 . S
O10 Cd1 2.378 . S
O10 C8 1.256 . S
O11 Cd12 2.300 1_655 S
O11 C18 1.275 1_655 S
Cd12 O11 2.300 1_455 S
Cd12 O20 2.381 1_455 S
Cd12 O21 2.378 . S
O13 Cd14 2.385 . S
O13 C18 1.255 . S
Cd14 O13 2.385 . S
Cd14 O15 2.317 . S
O15 Cd14 2.317 . S
O15 C16 1.232 . S
C16 O15 1.232 . S
C16 O17 1.218 . S
O17 C16 1.218 . S
C18 O11 1.275 1_455 S
C18 O13 1.255 . S
C19 O20 1.258 1_455 S
C19 O21 1.256 . S
O20 Cd12 2.381 1_655 S
O20 C19 1.258 1_655 S
O21 Cd12 2.378 . S
O21 C19 1.256 . S
O22 Cd23 2.300 1_565 S
O22 C29 1.275 1_565 S
Cd23 O22 2.300 1_545 S
Cd23 O31 2.381 1_545 S
Cd23 O32 2.378 . S
O24 Cd25 2.385 . S
O24 C29 1.255 . S
Cd25 O24 2.385 . S
Cd25 O26 2.317 . S
O26 Cd25 2.317 . S
O26 C27 1.232 . S
C27 O26 1.232 . S
C27 O28 1.218 . S
O28 C27 1.218 . S
C29 O22 1.275 1_545 S
C29 O24 1.255 . S
C30 O31 1.258 1_545 S
C30 O32 1.256 . S
O31 Cd23 2.381 1_565 S
O31 C30 1.258 1_565 S
O32 Cd23 2.378 . S
O32 C30 1.256 . S
O33 Cd34 2.300 . S
O33 C40 1.275 . S
Cd34 O33 2.300 . S
Cd34 O42 2.381 . S
Cd34 O43 2.378 . S
O35 Cd36 2.385 . S
O35 C40 1.255 . S
Cd36 O35 2.385 . S
Cd36 O37 2.317 . S
O37 Cd36 2.317 . S
O37 C38 1.232 . S
C38 O37 1.232 . S
C38 O39 1.218 . S
O39 C38 1.218 . S
C40 O33 1.275 . S
C40 O35 1.255 . S
C41 O42 1.258 . S
C41 O43 1.256 . S
O42 Cd34 2.381 . S
O42 C41 1.258 . S
O43 Cd34 2.378 . S
O43 C41 1.256 . S
O44 Cd45 2.300 . S
O44 C51 1.275 . S
Cd45 O44 2.300 . S
Cd45 O53 2.381 . S
Cd45 O54 2.378 . S
O46 Cd47 2.385 1_554 S
O46 C51 1.255 . S
Cd47 O46 2.385 1_556 S
Cd47 O48 2.317 . S
O48 Cd47 2.317 . S
O48 C49 1.232 . S
C49 O48 1.232 . S
C49 O50 1.218 . S
O50 C49 1.218 . S
C51 O44 1.275 . S
C51 O46 1.255 . S
C52 O53 1.258 . S
C52 O54 1.256 . S
O53 Cd45 2.381 . S
O53 C52 1.258 . S
O54 Cd45 2.378 . S
O54 C52 1.256 . S
O55 Cd56 2.300 1_655 S
O55 C62 1.275 1_655 S
Cd56 O55 2.300 1_455 S
Cd56 O64 2.381 1_455 S
Cd56 O65 2.378 . S
O57 Cd58 2.385 1_554 S
O57 C62 1.255 . S
Cd58 O57 2.385 1_556 S
Cd58 O59 2.317 . S
O59 Cd58 2.317 . S
O59 C60 1.232 . S
C60 O59 1.232 . S
C60 O61 1.218 . S
O61 C60 1.218 . S
C62 O55 1.275 1_455 S
C62 O57 1.255 . S
C63 O64 1.258 1_455 S
C63 O65 1.256 . S
O64 Cd56 2.381 1_655 S
O64 C63 1.258 1_655 S
O65 Cd56 2.378 . S
O65 C63 1.256 . S
O66 Cd67 2.300 1_565 S
O66 C73 1.275 1_565 S
Cd67 O66 2.300 1_545 S
Cd67 O75 2.381 1_545 S
Cd67 O76 2.378 . S
O68 Cd69 2.385 1_554 S
O68 C73 1.255 . S
Cd69 O68 2.385 1_556 S
Cd69 O70 2.317 . S
O70 Cd69 2.317 . S
O70 C71 1.232 . S
C71 O70 1.232 . S
C71 O72 1.218 . S
O72 C71 1.218 . S
C73 O66 1.275 1_545 S
C73 O68 1.255 . S
C74 O75 1.258 1_545 S
C74 O76 1.256 . S
O75 Cd67 2.381 1_565 S
O75 C74 1.258 1_565 S
O76 Cd67 2.378 . S
O76 C74 1.256 . S
O77 Cd78 2.300 . S
O77 C84 1.275 . S
Cd78 O77 2.300 . S
Cd78 O86 2.381 . S
Cd78 O87 2.378 . S
O79 Cd80 2.385 1_554 S
O79 C84 1.255 . S
Cd80 O79 2.385 1_556 S
Cd80 O81 2.317 . S
O81 Cd80 2.317 . S
O81 C82 1.232 . S
C82 O81 1.232 . S
C82 O83 1.218 . S
O83 C82 1.218 . S
C84 O77 1.275 . S
C84 O79 1.255 . S
C85 O86 1.258 . S
C85 O87 1.256 . S
O86 Cd78 2.381 . S
O86 C85 1.258 . S
O87 Cd78 2.378 . S
O87 C85 1.256 . S
Tb88 C98 2.825 . S
Tb88 O99 2.347 1_455 S
Tb88 O102 2.366 . S
Tb88 O107 2.418 . S
Tb88 O108 2.384 1_565 S
Tb88 O111 2.479 . S
Tb88 O112 2.471 . S
Eu89 O100 2.418 . S
Eu89 O101 2.384 1_545 S
Eu89 O104 2.479 . S
Eu89 O105 2.471 . S
Eu89 O106 2.347 1_655 S
Eu89 O109 2.366 . S
Eu89 C119 2.825 . S
C90 O106 1.259 1_565 S
C90 O107 1.265 . S
C91 O108 1.255 . S
C91 O109 1.265 1_455 S
C92 C94 1.380 . S
C92 C95 1.374 . S
C92 C98 1.507 . S
C93 C94 1.384 . S
C93 C97 1.387 1_556 S
C93 H120 0.930 1_556 S
C94 C92 1.380 . S
C94 C93 1.384 . S
C94 H121 0.931 . S
C95 C92 1.374 . S
C95 C96 1.390 . S
C95 H122 0.930 1_455 S
C96 C95 1.390 . S
C96 C97 1.391 1_556 S
C96 H123 0.930 1_456 S
C97 C93 1.387 1_554 S
C97 C96 1.391 1_554 S
C98 Tb88 2.825 . S
C98 C92 1.507 . S
C98 O111 1.238 . S
C98 O112 1.247 . S
O99 Tb88 2.347 1_655 S
O99 C103 1.259 1_565 S
O100 Eu89 2.418 . S
O100 C103 1.265 . S
O101 Eu89 2.384 1_565 S
O101 C110 1.255 . S
O102 Tb88 2.366 . S
O102 C110 1.265 1_455 S
C103 O99 1.259 1_545 S
C103 O100 1.265 . S
O104 Eu89 2.479 . S
O104 C119 1.238 . S
O105 Eu89 2.471 . S
O105 C119 1.247 . S
O106 Eu89 2.347 1_455 S
O106 C90 1.259 1_545 S
O107 Tb88 2.418 . S
O107 C90 1.265 . S
O108 Tb88 2.384 1_545 S
O108 C91 1.255 . S
O109 Eu89 2.366 . S
O109 C91 1.265 1_655 S
C110 O101 1.255 . S
C110 O102 1.265 1_655 S
O111 Tb88 2.479 . S
O111 C98 1.238 . S
O112 Tb88 2.471 . S
O112 C98 1.247 . S
C113 C116 1.380 . S
C113 C117 1.374 . S
C113 C119 1.507 . S
C114 C115 1.387 . S
C114 C118 1.391 . S
C115 C114 1.387 . S
C115 C116 1.384 . S
C115 H124 0.930 . S
C116 C113 1.380 . S
C116 C115 1.384 . S
C116 H125 0.931 . S
C117 C113 1.374 . S
C117 C118 1.390 . S
C117 H126 0.930 1_655 S
C118 C114 1.391 . S
C118 C117 1.390 . S
C118 H127 0.930 1_655 S
C119 Eu89 2.825 . S
C119 O104 1.238 . S
C119 O105 1.247 . S
C119 C113 1.507 . S
H120 C93 0.930 1_554 S
H121 C94 0.931 . S
H122 C95 0.930 1_655 S
H123 C96 0.930 1_654 S
H124 C115 0.930 . S
H125 C116 0.931 . S
H126 C117 0.930 1_455 S
H127 C118 0.930 1_455 S
Tb128 C138 2.825 . S
Tb128 O139 2.347 1_545 S
Tb128 O142 2.366 . S
Tb128 O147 2.418 . S
Tb128 O148 2.384 . S
Tb128 O151 2.479 . S
Tb128 O152 2.471 . S
Eu129 O140 2.418 . S
Eu129 O141 2.384 . S
Eu129 O144 2.479 . S
Eu129 O145 2.471 . S
Eu129 O146 2.347 1_565 S
Eu129 O149 2.366 . S
Eu129 C159 2.825 . S
C130 O146 1.259 . S
C130 O147 1.265 . S
C131 O148 1.255 . S
C131 O149 1.265 1_545 S
C132 C134 1.380 . S
C132 C135 1.374 . S
C132 C138 1.507 . S
C133 C134 1.384 . S
C133 C137 1.387 1_556 S
C133 H160 0.930 1_556 S
C134 C132 1.380 . S
C134 C133 1.384 . S
C134 H161 0.931 . S
C135 C132 1.374 . S
C135 C136 1.392 . S
C135 H162 0.930 1_545 S
C136 C135 1.392 . S
C136 C137 1.390 1_556 S
C136 H163 0.929 1_546 S
C137 C133 1.387 1_554 S
C137 C136 1.390 1_554 S
C138 Tb128 2.825 . S
C138 C132 1.507 . S
C138 O151 1.238 . S
C138 O152 1.247 . S
O139 Tb128 2.347 1_565 S
O139 C143 1.259 . S
O140 Eu129 2.418 . S
O140 C143 1.265 . S
O141 Eu129 2.384 . S
O141 C150 1.255 . S
O142 Tb128 2.366 . S
O142 C150 1.265 1_545 S
C143 O139 1.259 . S
C143 O140 1.265 . S
O144 Eu129 2.479 . S
O144 C159 1.238 . S
O145 Eu129 2.471 . S
O145 C159 1.247 . S
O146 Eu129 2.347 1_545 S
O146 C130 1.259 . S
O147 Tb128 2.418 . S
O147 C130 1.265 . S
O148 Tb128 2.384 . S
O148 C131 1.255 . S
O149 Eu129 2.366 . S
O149 C131 1.265 1_565 S
C150 O141 1.255 . S
C150 O142 1.265 1_565 S
O151 Tb128 2.479 . S
O151 C138 1.238 . S
O152 Tb128 2.471 . S
O152 C138 1.247 . S
C153 C156 1.380 . S
C153 C157 1.374 . S
C153 C159 1.507 . S
C154 C155 1.387 . S
C154 C158 1.391 . S
C155 C154 1.387 . S
C155 C156 1.384 . S
C155 H164 0.930 . S
C156 C153 1.380 . S
C156 C155 1.384 . S
C156 H165 0.931 . S
C157 C153 1.374 . S
C157 C158 1.390 . S
C157 H166 0.930 1_565 S
C158 C154 1.391 . S
C158 C157 1.390 . S
C158 H167 0.930 1_565 S
C159 Eu129 2.825 . S
C159 O144 1.238 . S
C159 O145 1.247 . S
C159 C153 1.507 . S
H160 C133 0.930 1_554 S
H161 C134 0.931 . S
H162 C135 0.930 1_565 S
H163 C136 0.929 1_564 S
H164 C155 0.930 . S
H165 C156 0.931 . S
H166 C157 0.930 1_545 S
H167 C158 0.930 1_545 S
Tb168 C178 2.825 . S
Tb168 O179 2.347 . S
Tb168 O182 2.366 . S
Tb168 O187 2.418 . S
Tb168 O188 2.384 . S
Tb168 O191 2.479 . S
Tb168 O192 2.471 . S
Eu169 O180 2.418 . S
Eu169 O181 2.384 . S
Eu169 O184 2.479 . S
Eu169 O185 2.471 . S
Eu169 O186 2.347 . S
Eu169 O189 2.366 . S
Eu169 C199 2.825 . S
C170 O186 1.259 . S
C170 O187 1.265 . S
C171 O188 1.255 . S
C171 O189 1.265 . S
C172 C174 1.380 . S
C172 C175 1.374 . S
C172 C178 1.507 . S
C173 C174 1.384 . S
C173 C177 1.387 1_556 S
C173 H200 0.930 1_556 S
C174 C172 1.380 . S
C174 C173 1.384 . S
C174 H201 0.931 . S
C175 C172 1.374 . S
C175 C176 1.386 1_556 S
C175 H202 0.930 . S
C176 C175 1.386 1_554 S
C176 C177 1.393 . S
C176 H203 0.932 . S
C177 C173 1.387 1_554 S
C177 C176 1.393 . S
C178 Tb168 2.825 . S
C178 C172 1.507 . S
C178 O191 1.238 . S
C178 O192 1.247 . S
O179 Tb168 2.347 . S
O179 C183 1.259 . S
O180 Eu169 2.418 . S
O180 C183 1.265 . S
O181 Eu169 2.384 . S
O181 C190 1.255 . S
O182 Tb168 2.366 . S
O182 C190 1.265 . S
C183 O179 1.259 . S
C183 O180 1.265 . S
O184 Eu169 2.479 . S
O184 C199 1.238 . S
O185 Eu169 2.471 . S
O185 C199 1.247 . S
O186 Eu169 2.347 . S
O186 C170 1.259 . S
O187 Tb168 2.418 . S
O187 C170 1.265 . S
O188 Tb168 2.384 . S
O188 C171 1.255 . S
O189 Eu169 2.366 . S
O189 C171 1.265 . S
C190 O181 1.255 . S
C190 O182 1.265 . S
O191 Tb168 2.479 . S
O191 C178 1.238 . S
O192 Tb168 2.471 . S
O192 C178 1.247 . S
C193 C196 1.380 . S
C193 C197 1.374 . S
C193 C199 1.507 . S
C194 C195 1.387 . S
C194 C198 1.391 . S
C195 C194 1.387 . S
C195 C196 1.384 . S
C195 H204 0.930 . S
C196 C193 1.380 . S
C196 C195 1.384 . S
C196 H205 0.931 . S
C197 C193 1.374 . S
C197 C198 1.390 . S
C197 H206 0.930 . S
C198 C194 1.391 . S
C198 C197 1.390 . S
C198 H207 0.930 . S
C199 Eu169 2.825 . S
C199 O184 1.238 . S
C199 O185 1.247 . S
C199 C193 1.507 . S
H200 C173 0.930 1_554 S
H201 C174 0.931 . S
H202 C175 0.930 . S
H203 C176 0.932 . S
H204 C195 0.930 . S
H205 C196 0.931 . S
H206 C197 0.930 . S
H207 C198 0.930 . S
Tb208 C218 2.825 . S
Tb208 O219 2.347 . S
Tb208 O222 2.366 . S
Tb208 O227 2.418 . S
Tb208 O228 2.384 1_655 S
Tb208 O231 2.479 . S
Tb208 O232 2.471 . S
Eu209 O220 2.418 . S
Eu209 O221 2.384 1_455 S
Eu209 O224 2.479 . S
Eu209 O225 2.471 . S
Eu209 O226 2.347 . S
Eu209 O229 2.366 . S
Eu209 C239 2.825 . S
C210 O226 1.259 1_655 S
C210 O227 1.265 . S
C211 O228 1.255 . S
C211 O229 1.265 . S
C212 C214 1.380 . S
C212 C215 1.374 . S
C212 C218 1.507 . S
C213 C214 1.384 . S
C213 C217 1.387 1_556 S
C213 H240 0.930 1_556 S
C214 C212 1.380 . S
C214 C213 1.384 . S
C214 H241 0.931 . S
C215 C212 1.374 . S
C215 C216 1.390 . S
C215 H242 0.930 . S
C216 C215 1.390 . S
C216 C217 1.391 1_556 S
C216 H243 0.930 1_556 S
C217 C213 1.387 1_554 S
C217 C216 1.391 1_554 S
C218 Tb208 2.825 . S
C218 C212 1.507 . S
C218 O231 1.238 . S
C218 O232 1.247 . S
O219 Tb208 2.347 . S
O219 C223 1.259 1_655 S
O220 Eu209 2.418 . S
O220 C223 1.265 . S
O221 Eu209 2.384 1_655 S
O221 C230 1.255 . S
O222 Tb208 2.366 . S
O222 C230 1.265 . S
C223 O219 1.259 1_455 S
C223 O220 1.265 . S
O224 Eu209 2.479 . S
O224 C239 1.238 . S
O225 Eu209 2.471 . S
O225 C239 1.247 . S
O226 Eu209 2.347 . S
O226 C210 1.259 1_455 S
O227 Tb208 2.418 . S
O227 C210 1.265 . S
O228 Tb208 2.384 1_455 S
O228 C211 1.255 . S
O229 Eu209 2.366 . S
O229 C211 1.265 . S
C230 O221 1.255 . S
C230 O222 1.265 . S
O231 Tb208 2.479 . S
O231 C218 1.238 . S
O232 Tb208 2.471 . S
O232 C218 1.247 . S
C233 C236 1.380 . S
C233 C237 1.374 . S
C233 C239 1.507 . S
C234 C235 1.387 . S
C234 C238 1.391 . S
C235 C234 1.387 . S
C235 C236 1.384 . S
C235 H244 0.930 . S
C236 C233 1.380 . S
C236 C235 1.384 . S
C236 H245 0.931 . S
C237 C233 1.374 . S
C237 C238 1.390 . S
C237 H246 0.930 . S
C238 C234 1.391 . S
C238 C237 1.390 . S
C238 H247 0.930 . S
C239 Eu209 2.825 . S
C239 O224 1.238 . S
C239 O225 1.247 . S
C239 C233 1.507 . S
H240 C213 0.930 1_554 S
H241 C214 0.931 . S
H242 C215 0.930 . S
H243 C216 0.930 1_554 S
H244 C235 0.930 . S
H245 C236 0.931 . S
H246 C237 0.930 . S
H247 C238 0.930 . S
H248 C254 0.930 . S
H249 C258 0.930 . S
H250 C263 0.929 . S
H251 C261 0.929 . S
H252 C256 0.929 . S
H253 C262 0.929 . S
C254 H248 0.930 . S
C254 C255 1.375 . S
C254 C262 1.378 . S
C255 C254 1.375 . S
C255 C263 1.425 1_565 S
C256 H252 0.929 . S
C256 C258 1.378 . S
C256 C260 1.350 . S
C257 C260 1.462 1_565 S
C257 C262 1.360 . S
C257 N265 1.417 1_565 S
C258 H249 0.930 . S
C258 C256 1.378 . S
C258 C259 1.367 . S
C259 C258 1.367 . S
C259 C261 1.433 1_545 S
C260 C256 1.350 . S
C260 C257 1.462 1_545 S
C260 N264 1.427 1_545 S
C261 H251 0.929 . S
C261 C259 1.433 1_565 S
C261 N264 1.384 . S
C262 H253 0.929 . S
C262 C254 1.378 . S
C262 C257 1.360 . S
C263 H250 0.929 . S
C263 C255 1.425 1_545 S
C263 N265 1.384 . S
N264 C260 1.427 1_565 S
N264 C261 1.384 . S
N265 C257 1.417 1_545 S
N265 C263 1.384 . S
H266 C272 0.930 . S
H267 C276 0.930 . S
H268 C281 0.929 . S
H269 C279 0.929 . S
H270 C274 0.929 . S
H271 C280 0.929 . S
C272 H266 0.930 . S
C272 C273 1.367 . S
C272 C280 1.378 . S
C273 C272 1.367 . S
C273 C281 1.433 . S
C274 H270 0.929 . S
C274 C276 1.378 . S
C274 C278 1.350 . S
C275 C278 1.463 . S
C275 C280 1.350 . S
C275 N283 1.427 . S
C276 H267 0.930 . S
C276 C274 1.378 . S
C276 C277 1.367 . S
C277 C276 1.367 . S
C277 C279 1.433 . S
C278 C274 1.350 . S
C278 C275 1.463 . S
C278 N282 1.427 . S
C279 H269 0.929 . S
C279 C277 1.433 . S
C279 N282 1.384 . S
C280 H271 0.929 . S
C280 C272 1.378 . S
C280 C275 1.350 . S
C281 H268 0.929 . S
C281 C273 1.433 . S
C281 N283 1.384 . S
N282 C278 1.427 . S
N282 C279 1.384 . S
N283 C275 1.427 . S
N283 C281 1.384 . S
H284 C290 0.930 . S
H285 C294 0.930 . S
H286 C299 0.929 . S
H287 C297 0.929 . S
H288 C292 0.929 . S
H289 C298 0.929 . S
C290 H284 0.930 . S
C290 C291 1.367 . S
C290 C298 1.378 . S
C291 C290 1.367 . S
C291 C299 1.433 . S
C292 H288 0.929 . S
C292 C294 1.378 . S
C292 C296 1.350 . S
C293 C296 1.463 . S
C293 C298 1.350 . S
C293 N301 1.427 . S
C294 H285 0.930 . S
C294 C292 1.378 . S
C294 C295 1.367 . S
C295 C294 1.367 . S
C295 C297 1.433 . S
C296 C292 1.350 . S
C296 C293 1.463 . S
C296 N300 1.427 . S
C297 H287 0.929 . S
C297 C295 1.433 . S
C297 N300 1.384 . S
C298 H289 0.929 . S
C298 C290 1.378 . S
C298 C293 1.350 . S
C299 H286 0.929 . S
C299 C291 1.433 . S
C299 N301 1.384 . S
N300 C296 1.427 . S
N300 C297 1.384 . S
N301 C293 1.427 . S
N301 C299 1.384 . S
H302 C308 0.932 . S
H303 C312 0.930 . S
H304 C317 0.929 . S
H305 C315 0.929 1_655 S
H306 C310 0.929 . S
H307 C316 0.928 . S
C308 H302 0.932 . S
C308 C309 1.366 1_655 S
C308 C316 1.378 . S
C309 C308 1.366 1_455 S
C309 C317 1.434 . S
C310 H306 0.929 . S
C310 C312 1.378 . S
C310 C314 1.352 . S
C311 C314 1.462 . S
C311 C316 1.349 1_455 S
C311 N319 1.428 . S
C312 H303 0.930 . S
C312 C310 1.378 . S
C312 C313 1.369 . S
C313 C312 1.369 . S
C313 C315 1.432 . S
C314 C310 1.352 . S
C314 C311 1.462 . S
C314 N318 1.427 1_455 S
C315 H305 0.929 1_455 S
C315 C313 1.432 . S
C315 N318 1.384 1_455 S
C316 H307 0.928 . S
C316 C308 1.378 . S
C316 C311 1.349 1_655 S
C317 H304 0.929 . S
C317 C309 1.434 . S
C317 N319 1.384 . S
N318 C314 1.427 1_655 S
N318 C315 1.384 1_655 S
N319 C311 1.428 . S
N319 C317 1.384 . S
H320 C326 0.930 . S
H321 C330 0.930 . S
H322 C335 0.929 . S
H323 C333 0.929 . S
H324 C328 0.929 . S
H325 C334 0.929 . S
C326 H320 0.930 . S
C326 C327 1.366 . S
C326 C334 1.378 . S
C327 C326 1.366 . S
C327 C335 1.434 1_565 S
C328 H324 0.929 . S
C328 C330 1.378 1_554 S
C328 C332 1.350 1_545 S
C329 C332 1.463 . S
C329 C334 1.350 . S
C329 N337 1.427 1_565 S
C330 H321 0.930 . S
C330 C328 1.378 1_556 S
C330 C331 1.366 1_545 S
C331 C330 1.366 1_565 S
C331 C333 1.435 . S
C332 C328 1.350 1_565 S
C332 C329 1.463 . S
C332 N336 1.428 1_554 S
C333 H323 0.929 . S
C333 C331 1.435 . S
C333 N336 1.384 . S
C334 H325 0.929 . S
C334 C326 1.378 . S
C334 C329 1.350 . S
C335 H322 0.929 . S
C335 C327 1.434 1_545 S
C335 N337 1.384 . S
N336 C332 1.428 1_556 S
N336 C333 1.384 . S
N337 C329 1.427 1_545 S
N337 C335 1.384 . S
H338 C344 0.930 . S
H339 C348 0.930 . S
H340 C353 0.929 . S
H341 C351 0.929 . S
H342 C346 0.929 . S
H343 C352 0.929 . S
C344 H338 0.930 . S
C344 C345 1.367 . S
C344 C352 1.378 . S
C345 C344 1.367 . S
C345 C353 1.433 . S
C346 H342 0.929 . S
C346 C348 1.378 . S
C346 C350 1.350 1_556 S
C347 C350 1.463 . S
C347 C352 1.350 . S
C347 N355 1.427 . S
C348 H339 0.930 . S
C348 C346 1.378 . S
C348 C349 1.367 . S
C349 C348 1.367 . S
C349 C351 1.433 . S
C350 C346 1.350 1_554 S
C350 C347 1.463 . S
C350 N354 1.427 . S
C351 H341 0.929 . S
C351 C349 1.433 . S
C351 N354 1.384 1_556 S
C352 H343 0.929 . S
C352 C344 1.378 . S
C352 C347 1.350 . S
C353 H340 0.929 . S
C353 C345 1.433 . S
C353 N355 1.384 . S
N354 C350 1.427 . S
N354 C351 1.384 1_554 S
N355 C347 1.427 . S
N355 C353 1.384 . S
H356 C362 0.930 . S
H357 C366 0.930 . S
H358 C371 0.929 . S
H359 C369 0.929 . S
H360 C364 0.929 . S
H361 C370 0.929 . S
C362 H356 0.930 . S
C362 C363 1.367 . S
C362 C370 1.378 . S
C363 C362 1.367 . S
C363 C371 1.433 . S
C364 H360 0.929 . S
C364 C366 1.378 1_554 S
C364 C368 1.350 . S
C365 C368 1.463 . S
C365 C370 1.350 . S
C365 N373 1.427 . S
C366 H357 0.930 . S
C366 C364 1.378 1_556 S
C366 C367 1.367 . S
C367 C366 1.367 . S
C367 C369 1.433 . S
C368 C364 1.350 . S
C368 C365 1.463 . S
C368 N372 1.427 1_554 S
C369 H359 0.929 . S
C369 C367 1.433 . S
C369 N372 1.384 . S
C370 H361 0.929 . S
C370 C362 1.378 . S
C370 C365 1.350 . S
C371 H358 0.929 . S
C371 C363 1.433 . S
C371 N373 1.384 . S
N372 C368 1.427 1_556 S
N372 C369 1.384 . S
N373 C365 1.427 . S
N373 C371 1.384 . S
H374 C380 0.930 . S
H375 C384 0.930 . S
H376 C389 0.929 . S
H377 C387 0.929 . S
H378 C382 0.929 . S
H379 C388 0.929 . S
C380 H374 0.930 . S
C380 C381 1.367 1_455 S
C380 C388 1.378 . S
C381 C380 1.367 1_655 S
C381 C389 1.433 . S
C382 H378 0.929 . S
C382 C384 1.378 1_554 S
C382 C386 1.363 . S
C383 C386 1.462 . S
C383 C388 1.347 1_655 S
C383 N391 1.430 . S
C384 H375 0.930 . S
C384 C382 1.378 1_556 S
C384 C385 1.367 . S
C385 C384 1.367 . S
C385 C387 1.433 1_655 S
C386 C382 1.363 . S
C386 C383 1.462 . S
C386 N390 1.416 1_654 S
C387 H377 0.929 . S
C387 C385 1.433 1_455 S
C387 N390 1.384 . S
C388 H379 0.929 . S
C388 C380 1.378 . S
C388 C383 1.347 1_455 S
C389 H376 0.929 . S
C389 C381 1.433 . S
C389 N391 1.384 . S
N390 C386 1.416 1_456 S
N390 C387 1.384 . S
N391 C383 1.430 . S
N391 C389 1.384 . S
H392 C398 0.930 . S
H393 C402 0.930 . S
H394 C407 0.929 . S
H395 C405 0.929 . S
H396 C400 0.929 . S
H397 C406 0.929 . S
C398 H392 0.930 . S
C398 C399 1.366 . S
C398 C406 1.379 1_455 S
C399 C398 1.366 . S
C399 C407 1.425 1_455 S
C400 H396 0.929 . S
C400 C402 1.378 . S
C400 C404 1.350 . S
C401 C404 1.463 . S
C401 C406 1.350 . S
C401 N409 1.427 . S
C402 H393 0.930 . S
C402 C400 1.378 . S
C402 C403 1.367 . S
C403 C402 1.367 . S
C403 C405 1.433 . S
C404 C400 1.350 . S
C404 C401 1.463 . S
C404 N408 1.427 . S
C405 H395 0.929 . S
C405 C403 1.433 . S
C405 N408 1.384 . S
C406 H397 0.929 . S
C406 C398 1.379 1_655 S
C406 C401 1.350 . S
C407 H394 0.929 . S
C407 C399 1.425 1_655 S
C407 N409 1.384 . S
N408 C404 1.427 . S
N408 C405 1.384 . S
N409 C401 1.427 . S
N409 C407 1.384 . S
H410 C416 0.930 . S
H411 C420 0.930 . S
H412 C425 0.929 . S
H413 C423 0.929 . S
H414 C418 0.929 . S
H415 C424 0.929 . S
C416 H410 0.930 . S
C416 C417 1.353 1_565 S
C416 C424 1.378 . S
C417 C416 1.353 1_545 S
C417 C425 1.441 . S
C418 H414 0.929 . S
C418 C420 1.378 . S
C418 C422 1.350 . S
C419 C422 1.463 . S
C419 C424 1.350 . S
C419 N427 1.408 1_565 S
C420 H411 0.930 . S
C420 C418 1.378 . S
C420 C421 1.367 . S
C421 C420 1.367 . S
C421 C423 1.433 . S
C422 C418 1.350 . S
C422 C419 1.463 . S
C422 N426 1.427 . S
C423 H413 0.929 . S
C423 C421 1.433 . S
C423 N426 1.384 . S
C424 H415 0.929 . S
C424 C416 1.378 . S
C424 C419 1.350 . S
C425 H412 0.929 . S
C425 C417 1.441 . S
C425 N427 1.394 . S
N426 C422 1.427 . S
N426 C423 1.384 . S
N427 C419 1.408 1_545 S
N427 C425 1.394 . S
H428 C434 0.930 . S
H429 C438 0.930 . S
H430 C443 0.929 . S
H431 C441 0.929 . S
H432 C436 0.929 . S
H433 C442 0.929 . S
C434 H428 0.930 . S
C434 C435 1.367 . S
C434 C442 1.378 . S
C435 C434 1.367 . S
C435 C443 1.433 . S
C436 H432 0.929 . S
C436 C438 1.378 . S
C436 C440 1.350 . S
C437 C440 1.463 . S
C437 C442 1.350 . S
C437 N445 1.427 . S
C438 H429 0.930 . S
C438 C436 1.378 . S
C438 C439 1.367 . S
C439 C438 1.367 . S
C439 C441 1.433 . S
C440 C436 1.350 . S
C440 C437 1.463 . S
C440 N444 1.427 . S
C441 H431 0.929 . S
C441 C439 1.433 . S
C441 N444 1.384 . S
C442 H433 0.929 . S
C442 C434 1.378 . S
C442 C437 1.350 . S
C443 H430 0.929 . S
C443 C435 1.433 . S
C443 N445 1.384 . S
N444 C440 1.427 . S
N444 C441 1.384 . S
N445 C437 1.427 . S
N445 C443 1.384 . S
H446 C452 0.930 . S
H447 C456 0.930 . S
H448 C461 0.929 . S
H449 C459 0.929 . S
H450 C454 0.929 . S
H451 C460 0.929 . S
C452 H446 0.930 . S
C452 C453 1.367 . S
C452 C460 1.378 . S
C453 C452 1.367 . S
C453 C461 1.433 . S
C454 H450 0.929 . S
C454 C456 1.378 . S
C454 C458 1.350 . S
C455 C458 1.463 . S
C455 C460 1.350 . S
C455 N463 1.427 . S
C456 H447 0.930 . S
C456 C454 1.378 . S
C456 C457 1.367 . S
C457 C456 1.367 . S
C457 C459 1.433 . S
C458 C454 1.350 . S
C458 C455 1.463 . S
C458 N462 1.427 . S
C459 H449 0.929 . S
C459 C457 1.433 . S
C459 N462 1.384 . S
C460 H451 0.929 . S
C460 C452 1.378 . S
C460 C455 1.350 . S
C461 H448 0.929 . S
C461 C453 1.433 . S
C461 N463 1.384 . S
N462 C458 1.427 . S
N462 C459 1.384 . S
N463 C455 1.427 . S
N463 C461 1.384 . S
H464 C470 0.930 . S
H465 C474 0.922 1_656 S
H466 C479 0.929 . S
H467 C477 0.929 . S
H468 C472 0.929 1_655 S
H469 C478 0.929 . S
C470 H464 0.930 . S
C470 C471 1.350 1_455 S
C470 C478 1.378 . S
C471 C470 1.350 1_655 S
C471 C479 1.446 . S
C472 H468 0.929 1_455 S
C472 C474 1.378 . S
C472 C476 1.350 . S
C473 C476 1.463 . S
C473 C478 1.350 . S
C473 N481 1.427 1_455 S
C474 H465 0.922 1_454 S
C474 C472 1.378 . S
C474 C475 1.367 . S
C475 C474 1.367 . S
C475 C477 1.433 . S
C476 C472 1.350 . S
C476 C473 1.463 . S
C476 N480 1.427 . S
C477 H467 0.929 . S
C477 C475 1.433 . S
C477 N480 1.384 . S
C478 H469 0.929 . S
C478 C470 1.378 . S
C478 C473 1.350 . S
C479 H466 0.929 . S
C479 C471 1.446 . S
C479 N481 1.384 . S
N480 C476 1.427 . S
N480 C477 1.384 . S
N481 C473 1.427 1_655 S
N481 C479 1.384 . S
H482 C488 0.930 . S
H483 C492 0.930 1_565 S
H484 C497 0.929 . S
H485 C495 0.929 . S
H486 C490 0.971 . S
H487 C496 0.929 . S
C488 H482 0.930 . S
C488 C489 1.364 1_545 S
C488 C496 1.378 . S
C489 C488 1.364 1_565 S
C489 C497 1.436 . S
C490 H486 0.971 . S
C490 C492 1.368 1_565 S
C490 C494 1.318 1_565 S
C491 C494 1.463 . S
C491 C496 1.350 . S
C491 N499 1.427 1_545 S
C492 H483 0.930 1_545 S
C492 C490 1.368 1_545 S
C492 C493 1.367 . S
C493 C492 1.367 . S
C493 C495 1.433 . S
C494 C490 1.318 1_545 S
C494 C491 1.463 . S
C494 N498 1.427 . S
C495 H485 0.929 . S
C495 C493 1.433 . S
C495 N498 1.384 . S
C496 H487 0.929 . S
C496 C488 1.378 . S
C496 C491 1.350 . S
C497 H484 0.929 . S
C497 C489 1.436 . S
C497 N499 1.384 . S
N498 C494 1.427 . S
N498 C495 1.384 . S
N499 C491 1.427 1_565 S
N499 C497 1.384 . S
H500 C506 0.930 . S
H501 C510 0.930 1_556 S
H502 C515 0.929 . S
H503 C513 0.929 . S
H504 C508 0.929 . S
H505 C514 0.929 . S
C506 H500 0.930 . S
C506 C507 1.367 . S
C506 C514 1.378 . S
C507 C506 1.367 . S
C507 C515 1.433 . S
C508 H504 0.929 . S
C508 C510 1.378 . S
C508 C512 1.350 . S
C509 C512 1.463 . S
C509 C514 1.350 . S
C509 N517 1.427 . S
C510 H501 0.930 1_554 S
C510 C508 1.378 . S
C510 C511 1.367 . S
C511 C510 1.367 . S
C511 C513 1.433 . S
C512 C508 1.350 . S
C512 C509 1.463 . S
C512 N516 1.427 . S
C513 H503 0.929 . S
C513 C511 1.433 . S
C513 N516 1.384 . S
C514 H505 0.929 . S
C514 C506 1.378 . S
C514 C509 1.350 . S
C515 H502 0.929 . S
C515 C507 1.433 . S
C515 N517 1.384 . S
N516 C512 1.427 . S
N516 C513 1.384 . S
N517 C509 1.427 . S
N517 C515 1.384 . S
H518 C524 0.930 . S
H519 C528 0.930 . S
H520 C533 0.929 . S
H521 C531 0.929 . S
H522 C526 0.929 . S
H523 C532 0.929 . S
C524 H518 0.930 . S
C524 C525 1.367 . S
C524 C532 1.378 . S
C525 C524 1.367 . S
C525 C533 1.433 . S
C526 H522 0.929 . S
C526 C528 1.378 . S
C526 C530 1.350 . S
C527 C530 1.463 . S
C527 C532 1.350 . S
C527 N535 1.427 . S
C528 H519 0.930 . S
C528 C526 1.378 . S
C528 C529 1.367 . S
C529 C528 1.367 . S
C529 C531 1.433 . S
C530 C526 1.350 . S
C530 C527 1.463 . S
C530 N534 1.427 . S
C531 H521 0.929 . S
C531 C529 1.433 . S
C531 N534 1.384 . S
C532 H523 0.929 . S
C532 C524 1.378 . S
C532 C527 1.350 . S
C533 H520 0.929 . S
C533 C525 1.433 . S
C533 N535 1.384 . S
N534 C530 1.427 . S
N534 C531 1.384 . S
N535 C527 1.427 . S
N535 C533 1.384 . S
H536 C542 0.930 . S
H537 C546 0.930 . S
H538 C551 0.929 . S
H539 C549 0.929 . S
H540 C544 0.929 . S
H541 C550 0.929 . S
C542 H536 0.930 . S
C542 C543 1.367 1_655 S
C542 C550 1.378 . S
C543 C542 1.367 1_455 S
C543 C551 1.433 . S
C544 H540 0.929 . S
C544 C546 1.378 . S
C544 C548 1.350 . S
C545 C548 1.463 . S
C545 C550 1.350 1_455 S
C545 N553 1.427 . S
C546 H537 0.930 . S
C546 C544 1.378 . S
C546 C547 1.367 . S
C547 C546 1.367 . S
C547 C549 1.433 1_455 S
C548 C544 1.350 . S
C548 C545 1.463 . S
C548 N552 1.427 1_455 S
C549 H539 0.929 . S
C549 C547 1.433 1_655 S
C549 N552 1.384 . S
C550 H541 0.929 . S
C550 C542 1.378 . S
C550 C545 1.350 1_655 S
C551 H538 0.929 . S
C551 C543 1.433 . S
C551 N553 1.384 . S
N552 C548 1.427 1_655 S
N552 C549 1.384 . S
N553 C545 1.427 . S
N553 C551 1.384 . S
H554 C560 0.930 . S
H555 C564 0.932 . S
H556 C569 0.929 . S
H557 C567 0.929 . S
H558 C562 0.929 1_565 S
H559 C568 0.929 . S
C560 H554 0.930 . S
C560 C561 1.367 . S
C560 C568 1.378 . S
C561 C560 1.367 . S
C561 C569 1.433 1_545 S
C562 H558 0.929 1_545 S
C562 C564 1.378 . S
C562 C566 1.350 . S
C563 C566 1.463 . S
C563 C568 1.350 . S
C563 N571 1.427 1_545 S
C564 H555 0.932 . S
C564 C562 1.378 . S
C564 C565 1.367 . S
C565 C564 1.367 . S
C565 C567 1.433 . S
C566 C562 1.350 . S
C566 C563 1.463 . S
C566 N570 1.427 . S
C567 H557 0.929 . S
C567 C565 1.433 . S
C567 N570 1.384 . S
C568 H559 0.929 . S
C568 C560 1.378 . S
C568 C563 1.350 . S
C569 H556 0.929 . S
C569 C561 1.433 1_565 S
C569 N571 1.384 . S
N570 C566 1.427 . S
N570 C567 1.384 . S
N571 C563 1.427 1_565 S
N571 C569 1.384 . S
H572 C578 0.930 . S
H573 C582 0.930 . S
H574 C587 0.929 . S
H575 C585 0.929 . S
H576 C580 0.929 . S
H577 C586 0.929 . S
C578 H572 0.930 . S
C578 C579 1.367 . S
C578 C586 1.378 . S
C579 C578 1.367 . S
C579 C587 1.433 . S
C580 H576 0.929 . S
C580 C582 1.378 . S
C580 C584 1.350 . S
C581 C584 1.463 . S
C581 C586 1.350 . S
C581 N589 1.427 . S
C582 H573 0.930 . S
C582 C580 1.378 . S
C582 C583 1.367 . S
C583 C582 1.367 . S
C583 C585 1.433 . S
C584 C580 1.350 . S
C584 C581 1.463 . S
C584 N588 1.427 . S
C585 H575 0.929 . S
C585 C583 1.433 . S
C585 N588 1.384 . S
C586 H577 0.929 . S
C586 C578 1.378 . S
C586 C581 1.350 . S
C587 H574 0.929 . S
C587 C579 1.433 . S
C587 N589 1.384 . S
N588 C584 1.427 . S
N588 C585 1.384 . S
N589 C581 1.427 . S
N589 C587 1.384 . S
H590 C596 0.930 . S
H591 C600 0.930 . S
H592 C605 0.929 . S
H593 C603 0.929 . S
H594 C598 0.929 . S
H595 C604 0.929 . S
C596 H590 0.930 . S
C596 C597 1.367 . S
C596 C604 1.378 . S
C597 C596 1.367 . S
C597 C605 1.433 . S
C598 H594 0.929 . S
C598 C600 1.378 . S
C598 C602 1.350 . S
C599 C602 1.463 . S
C599 C604 1.350 . S
C599 N607 1.427 . S
C600 H591 0.930 . S
C600 C598 1.378 . S
C600 C601 1.367 . S
C601 C600 1.367 . S
C601 C603 1.433 . S
C602 C598 1.350 . S
C602 C599 1.463 . S
C602 N606 1.427 . S
C603 H593 0.929 . S
C603 C601 1.433 . S
C603 N606 1.384 . S
C604 H595 0.929 . S
C604 C596 1.378 . S
C604 C599 1.350 . S
C605 H592 0.929 . S
C605 C597 1.433 . S
C605 N607 1.384 . S
N606 C602 1.427 . S
N606 C603 1.384 . S
N607 C599 1.427 . S
N607 C605 1.384 . S
H608 C614 0.930 . S
H609 C618 0.930 . S
H610 C623 0.929 . S
H611 C621 0.929 . S
H612 C616 0.929 . S
H613 C622 0.929 . S
C614 H608 0.930 . S
C614 C615 1.367 1_455 S
C614 C622 1.378 . S
C615 C614 1.367 1_655 S
C615 C623 1.433 . S
C616 H612 0.929 . S
C616 C618 1.378 . S
C616 C620 1.350 . S
C617 C620 1.463 . S
C617 C622 1.350 1_655 S
C617 N625 1.427 . S
C618 H609 0.930 . S
C618 C616 1.378 . S
C618 C619 1.367 . S
C619 C618 1.367 . S
C619 C621 1.433 1_655 S
C620 C616 1.350 . S
C620 C617 1.463 . S
C620 N624 1.427 1_655 S
C621 H611 0.929 . S
C621 C619 1.433 1_455 S
C621 N624 1.384 . S
C622 H613 0.929 . S
C622 C614 1.378 . S
C622 C617 1.350 1_455 S
C623 H610 0.929 . S
C623 C615 1.433 . S
C623 N625 1.384 . S
N624 C620 1.427 1_455 S
N624 C621 1.384 . S
N625 C617 1.427 . S
N625 C623 1.384 . S
H626 C632 0.930 . S
H627 C636 0.930 . S
H628 C641 0.929 . S
H629 C639 0.929 . S
H630 C634 0.929 . S
H631 C640 0.929 . S
C632 H626 0.930 . S
C632 C633 1.367 . S
C632 C640 1.378 . S
C633 C632 1.367 . S
C633 C641 1.433 1_565 S
C634 H630 0.929 . S
C634 C636 1.378 . S
C634 C638 1.350 1_545 S
C635 C638 1.463 . S
C635 C640 1.350 . S
C635 N643 1.427 1_565 S
C636 H627 0.930 . S
C636 C634 1.378 . S
C636 C637 1.367 1_545 S
C637 C636 1.367 1_565 S
C637 C639 1.433 . S
C638 C634 1.350 1_565 S
C638 C635 1.463 . S
C638 N642 1.427 . S
C639 H629 0.929 . S
C639 C637 1.433 . S
C639 N642 1.384 . S
C640 H631 0.929 . S
C640 C632 1.378 . S
C640 C635 1.350 . S
C641 H628 0.929 . S
C641 C633 1.433 1_545 S
C641 N643 1.384 . S
N642 C638 1.427 . S
N642 C639 1.384 . S
N643 C635 1.427 1_545 S
N643 C641 1.384 . S
H644 C650 0.930 . S
H645 C654 0.930 . S
H646 C659 0.929 . S
H647 C657 0.929 . S
H648 C652 0.929 . S
H649 C658 0.929 . S
C650 H644 0.930 . S
C650 C651 1.367 . S
C650 C658 1.378 . S
C651 C650 1.367 . S
C651 C659 1.433 . S
C652 H648 0.929 . S
C652 C654 1.378 . S
C652 C656 1.350 . S
C653 C656 1.463 . S
C653 C658 1.350 . S
C653 N661 1.427 . S
C654 H645 0.930 . S
C654 C652 1.378 . S
C654 C655 1.367 . S
C655 C654 1.367 . S
C655 C657 1.433 . S
C656 C652 1.350 . S
C656 C653 1.463 . S
C656 N660 1.427 . S
C657 H647 0.929 . S
C657 C655 1.433 . S
C657 N660 1.384 . S
C658 H649 0.929 . S
C658 C650 1.378 . S
C658 C653 1.350 . S
C659 H646 0.929 . S
C659 C651 1.433 . S
C659 N661 1.384 . S
N660 C656 1.427 . S
N660 C657 1.384 . S
N661 C653 1.427 . S
N661 C659 1.384 . S
H662 C668 0.930 . S
H663 C672 0.930 . S
H664 C677 0.929 . S
H665 C675 0.929 . S
H666 C670 0.929 . S
H667 C676 0.929 . S
C668 H662 0.930 . S
C668 C669 1.367 . S
C668 C676 1.378 . S
C669 C668 1.367 . S
C669 C677 1.433 . S
C670 H666 0.929 . S
C670 C672 1.378 . S
C670 C674 1.350 . S
C671 C674 1.463 . S
C671 C676 1.350 . S
C671 N679 1.427 . S
C672 H663 0.930 . S
C672 C670 1.378 . S
C672 C673 1.367 . S
C673 C672 1.367 . S
C673 C675 1.433 . S
C674 C670 1.350 . S
C674 C671 1.463 . S
C674 N678 1.427 . S
C675 H665 0.929 . S
C675 C673 1.433 . S
C675 N678 1.384 . S
C676 H667 0.929 . S
C676 C668 1.378 . S
C676 C671 1.350 . S
C677 H664 0.929 . S
C677 C669 1.433 . S
C677 N679 1.384 . S
N678 C674 1.427 . S
N678 C675 1.384 . S
N679 C671 1.427 . S
N679 C677 1.384 . S
C255 C74 1.792 1_565 S
C259 C90 1.897 1_545 S
C277 C130 1.902 . S
C273 C85 1.787 . S
C295 C170 1.908 . S
C291 C52 1.798 . S
C313 C210 1.898 1_455 S
C309 C63 1.805 . S
C331 C103 1.897 1_565 S
C327 C30 1.791 1_565 S
C345 C41 1.810 . S
C349 C143 1.906 . S
C363 C8 1.799 . S
C367 C183 1.907 . S
C381 C19 1.791 1_655 S
C385 C223 1.903 1_655 S
C403 C114 0.584 . S
C399 C62 0.592 . S
C421 C154 0.586 . S
C417 C73 0.600 . S
C439 C194 0.583 . S
C435 C84 0.583 . S
C453 C51 0.584 . S
C457 C234 0.570 . S
C471 C18 0.589 1_655 S
C475 C97 0.577 . S
C493 C137 0.576 . S
C489 C29 0.589 1_565 S
C511 C177 0.588 . S
C507 C40 0.610 . S
C525 C7 0.593 . S
C529 C217 0.579 . S
C543 C60 1.740 . S
C547 C91 2.263 . S
C561 C71 1.704 . S
C565 C131 2.247 . S
C583 C171 2.243 . S
C579 C82 1.703 . S
C601 C211 2.260 . S
C597 C49 1.719 . S
C615 C16 1.785 1_655 S
C619 C110 2.273 . S
C637 C150 2.247 . S
C633 C27 1.769 1_565 S
C655 C190 2.240 . S
C651 C38 1.785 . S
C669 C5 1.777 . S
C673 C230 2.262 . S
