# Generated by pormake.
# Topology gar, (4,6)-cn, num edge types: 1
# Building blocks:
#     Node 0, Type 0, BuildingBlock: UXUYUI_clean_sbu_0, # of connection points: 4
#     Node 1, Type 0, BuildingBlock: UXUYUI_clean_sbu_0, # of connection points: 4
#     Node 2, Type 0, BuildingBlock: UXUYUI_clean_sbu_0, # of connection points: 4
#     Node 3, Type 0, BuildingBlock: UXUYUI_clean_sbu_0, # of connection points: 4
#     Node 4, Type 0, BuildingBlock: UXUYUI_clean_sbu_0, # of connection points: 4
#     Node 5, Type 0, BuildingBlock: UXUYUI_clean_sbu_0, # of connection points: 4
#     Node 6, Type 0, BuildingBlock: UXUYUI_clean_sbu_0, # of connection points: 4
#     Node 7, Type 0, BuildingBlock: UXUYUI_clean_sbu_0, # of connection points: 4
#     Node 8, Type 0, BuildingBlock: UXUYUI_clean_sbu_0, # of connection points: 4
#     Node 9, Type 0, BuildingBlock: UXUYUI_clean_sbu_0, # of connection points: 4
#     Node 10, Type 0, BuildingBlock: UXUYUI_clean_sbu_0, # of connection points: 4
#     Node 11, Type 0, BuildingBlock: UXUYUI_clean_sbu_0, # of connection points: 4
#     Node 12, Type 0, BuildingBlock: UXUYUI_clean_sbu_0, # of connection points: 4
#     Node 13, Type 0, BuildingBlock: UXUYUI_clean_sbu_0, # of connection points: 4
#     Node 14, Type 0, BuildingBlock: UXUYUI_clean_sbu_0, # of connection points: 4
#     Node 15, Type 0, BuildingBlock: UXUYUI_clean_sbu_0, # of connection points: 4
#     Node 16, Type 0, BuildingBlock: UXUYUI_clean_sbu_0, # of connection points: 4
#     Node 17, Type 0, BuildingBlock: UXUYUI_clean_sbu_0, # of connection points: 4
#     Node 18, Type 0, BuildingBlock: UXUYUI_clean_sbu_0, # of connection points: 4
#     Node 19, Type 0, BuildingBlock: UXUYUI_clean_sbu_0, # of connection points: 4
#     Node 20, Type 0, BuildingBlock: UXUYUI_clean_sbu_0, # of connection points: 4
#     Node 21, Type 0, BuildingBlock: UXUYUI_clean_sbu_0, # of connection points: 4
#     Node 22, Type 0, BuildingBlock: UXUYUI_clean_sbu_0, # of connection points: 4
#     Node 23, Type 0, BuildingBlock: UXUYUI_clean_sbu_0, # of connection points: 4
#     Node 24, Type 1, BuildingBlock: INOVEN_clean_sbu_0, # of connection points: 6
#     Node 25, Type 1, BuildingBlock: INOVEN_clean_sbu_0, # of connection points: 6
#     Node 26, Type 1, BuildingBlock: INOVEN_clean_sbu_0, # of connection points: 6
#     Node 27, Type 1, BuildingBlock: INOVEN_clean_sbu_0, # of connection points: 6
#     Node 28, Type 1, BuildingBlock: INOVEN_clean_sbu_0, # of connection points: 6
#     Node 29, Type 1, BuildingBlock: INOVEN_clean_sbu_0, # of connection points: 6
#     Node 30, Type 1, BuildingBlock: INOVEN_clean_sbu_0, # of connection points: 6
#     Node 31, Type 1, BuildingBlock: INOVEN_clean_sbu_0, # of connection points: 6
#     Node 32, Type 1, BuildingBlock: INOVEN_clean_sbu_0, # of connection points: 6
#     Node 33, Type 1, BuildingBlock: INOVEN_clean_sbu_0, # of connection points: 6
#     Node 34, Type 1, BuildingBlock: INOVEN_clean_sbu_0, # of connection points: 6
#     Node 35, Type 1, BuildingBlock: INOVEN_clean_sbu_0, # of connection points: 6
#     Node 36, Type 1, BuildingBlock: INOVEN_clean_sbu_0, # of connection points: 6
#     Node 37, Type 1, BuildingBlock: INOVEN_clean_sbu_0, # of connection points: 6
#     Node 38, Type 1, BuildingBlock: INOVEN_clean_sbu_0, # of connection points: 6
#     Node 39, Type 1, BuildingBlock: INOVEN_clean_sbu_0, # of connection points: 6
#     Edge 40, Type (0, 1), BuildingBlock: CIFDUS_clean_linker_0, # of connection points: 2
#     Edge 41, Type (0, 1), BuildingBlock: CIFDUS_clean_linker_0, # of connection points: 2
#     Edge 42, Type (0, 1), BuildingBlock: CIFDUS_clean_linker_0, # of connection points: 2
#     Edge 43, Type (0, 1), BuildingBlock: CIFDUS_clean_linker_0, # of connection points: 2
#     Edge 44, Type (0, 1), BuildingBlock: CIFDUS_clean_linker_0, # of connection points: 2
#     Edge 45, Type (0, 1), BuildingBlock: CIFDUS_clean_linker_0, # of connection points: 2
#     Edge 46, Type (0, 1), BuildingBlock: CIFDUS_clean_linker_0, # of connection points: 2
#     Edge 47, Type (0, 1), BuildingBlock: CIFDUS_clean_linker_0, # of connection points: 2
#     Edge 48, Type (0, 1), BuildingBlock: CIFDUS_clean_linker_0, # of connection points: 2
#     Edge 49, Type (0, 1), BuildingBlock: CIFDUS_clean_linker_0, # of connection points: 2
#     Edge 50, Type (0, 1), BuildingBlock: CIFDUS_clean_linker_0, # of connection points: 2
#     Edge 51, Type (0, 1), BuildingBlock: CIFDUS_clean_linker_0, # of connection points: 2
#     Edge 52, Type (0, 1), BuildingBlock: CIFDUS_clean_linker_0, # of connection points: 2
#     Edge 53, Type (0, 1), BuildingBlock: CIFDUS_clean_linker_0, # of connection points: 2
#     Edge 54, Type (0, 1), BuildingBlock: CIFDUS_clean_linker_0, # of connection points: 2
#     Edge 55, Type (0, 1), BuildingBlock: CIFDUS_clean_linker_0, # of connection points: 2
#     Edge 56, Type (0, 1), BuildingBlock: CIFDUS_clean_linker_0, # of connection points: 2
#     Edge 57, Type (0, 1), BuildingBlock: CIFDUS_clean_linker_0, # of connection points: 2
#     Edge 58, Type (0, 1), BuildingBlock: CIFDUS_clean_linker_0, # of connection points: 2
#     Edge 59, Type (0, 1), BuildingBlock: CIFDUS_clean_linker_0, # of connection points: 2
#     Edge 60, Type (0, 1), BuildingBlock: CIFDUS_clean_linker_0, # of connection points: 2
#     Edge 61, Type (0, 1), BuildingBlock: CIFDUS_clean_linker_0, # of connection points: 2
#     Edge 62, Type (0, 1), BuildingBlock: CIFDUS_clean_linker_0, # of connection points: 2
#     Edge 63, Type (0, 1), BuildingBlock: CIFDUS_clean_linker_0, # of connection points: 2
#     Edge 64, Type (0, 1), BuildingBlock: CIFDUS_clean_linker_0, # of connection points: 2
#     Edge 65, Type (0, 1), BuildingBlock: CIFDUS_clean_linker_0, # of connection points: 2
#     Edge 66, Type (0, 1), BuildingBlock: CIFDUS_clean_linker_0, # of connection points: 2
#     Edge 67, Type (0, 1), BuildingBlock: CIFDUS_clean_linker_0, # of connection points: 2
#     Edge 68, Type (0, 1), BuildingBlock: CIFDUS_clean_linker_0, # of connection points: 2
#     Edge 69, Type (0, 1), BuildingBlock: CIFDUS_clean_linker_0, # of connection points: 2
#     Edge 70, Type (0, 1), BuildingBlock: CIFDUS_clean_linker_0, # of connection points: 2
#     Edge 71, Type (0, 1), BuildingBlock: CIFDUS_clean_linker_0, # of connection points: 2
#     Edge 72, Type (0, 1), BuildingBlock: CIFDUS_clean_linker_0, # of connection points: 2
#     Edge 73, Type (0, 1), BuildingBlock: CIFDUS_clean_linker_0, # of connection points: 2
#     Edge 74, Type (0, 1), BuildingBlock: CIFDUS_clean_linker_0, # of connection points: 2
#     Edge 75, Type (0, 1), BuildingBlock: CIFDUS_clean_linker_0, # of connection points: 2
#     Edge 76, Type (0, 1), BuildingBlock: CIFDUS_clean_linker_0, # of connection points: 2
#     Edge 77, Type (0, 1), BuildingBlock: CIFDUS_clean_linker_0, # of connection points: 2
#     Edge 78, Type (0, 1), BuildingBlock: CIFDUS_clean_linker_0, # of connection points: 2
#     Edge 79, Type (0, 1), BuildingBlock: CIFDUS_clean_linker_0, # of connection points: 2
#     Edge 80, Type (0, 1), BuildingBlock: CIFDUS_clean_linker_0, # of connection points: 2
#     Edge 81, Type (0, 1), BuildingBlock: CIFDUS_clean_linker_0, # of connection points: 2
#     Edge 82, Type (0, 1), BuildingBlock: CIFDUS_clean_linker_0, # of connection points: 2
#     Edge 83, Type (0, 1), BuildingBlock: CIFDUS_clean_linker_0, # of connection points: 2
#     Edge 84, Type (0, 1), BuildingBlock: CIFDUS_clean_linker_0, # of connection points: 2
#     Edge 85, Type (0, 1), BuildingBlock: CIFDUS_clean_linker_0, # of connection points: 2
#     Edge 86, Type (0, 1), BuildingBlock: CIFDUS_clean_linker_0, # of connection points: 2
#     Edge 87, Type (0, 1), BuildingBlock: CIFDUS_clean_linker_0, # of connection points: 2
#     Edge 88, Type (0, 1), BuildingBlock: CIFDUS_clean_linker_0, # of connection points: 2
#     Edge 89, Type (0, 1), BuildingBlock: CIFDUS_clean_linker_0, # of connection points: 2
#     Edge 90, Type (0, 1), BuildingBlock: CIFDUS_clean_linker_0, # of connection points: 2
#     Edge 91, Type (0, 1), BuildingBlock: CIFDUS_clean_linker_0, # of connection points: 2
#     Edge 92, Type (0, 1), BuildingBlock: CIFDUS_clean_linker_0, # of connection points: 2
#     Edge 93, Type (0, 1), BuildingBlock: CIFDUS_clean_linker_0, # of connection points: 2
#     Edge 94, Type (0, 1), BuildingBlock: CIFDUS_clean_linker_0, # of connection points: 2
#     Edge 95, Type (0, 1), BuildingBlock: CIFDUS_clean_linker_0, # of connection points: 2
#     Edge 96, Type (0, 1), BuildingBlock: CIFDUS_clean_linker_0, # of connection points: 2
#     Edge 97, Type (0, 1), BuildingBlock: CIFDUS_clean_linker_0, # of connection points: 2
#     Edge 98, Type (0, 1), BuildingBlock: CIFDUS_clean_linker_0, # of connection points: 2
#     Edge 99, Type (0, 1), BuildingBlock: CIFDUS_clean_linker_0, # of connection points: 2
#     Edge 100, Type (0, 1), BuildingBlock: CIFDUS_clean_linker_0, # of connection points: 2
#     Edge 101, Type (0, 1), BuildingBlock: CIFDUS_clean_linker_0, # of connection points: 2
#     Edge 102, Type (0, 1), BuildingBlock: CIFDUS_clean_linker_0, # of connection points: 2
#     Edge 103, Type (0, 1), BuildingBlock: CIFDUS_clean_linker_0, # of connection points: 2
#     Edge 104, Type (0, 1), BuildingBlock: CIFDUS_clean_linker_0, # of connection points: 2
#     Edge 105, Type (0, 1), BuildingBlock: CIFDUS_clean_linker_0, # of connection points: 2
#     Edge 106, Type (0, 1), BuildingBlock: CIFDUS_clean_linker_0, # of connection points: 2
#     Edge 107, Type (0, 1), BuildingBlock: CIFDUS_clean_linker_0, # of connection points: 2
#     Edge 108, Type (0, 1), BuildingBlock: CIFDUS_clean_linker_0, # of connection points: 2
#     Edge 109, Type (0, 1), BuildingBlock: CIFDUS_clean_linker_0, # of connection points: 2
#     Edge 110, Type (0, 1), BuildingBlock: CIFDUS_clean_linker_0, # of connection points: 2
#     Edge 111, Type (0, 1), BuildingBlock: CIFDUS_clean_linker_0, # of connection points: 2
#     Edge 112, Type (0, 1), BuildingBlock: CIFDUS_clean_linker_0, # of connection points: 2
#     Edge 113, Type (0, 1), BuildingBlock: CIFDUS_clean_linker_0, # of connection points: 2
#     Edge 114, Type (0, 1), BuildingBlock: CIFDUS_clean_linker_0, # of connection points: 2
#     Edge 115, Type (0, 1), BuildingBlock: CIFDUS_clean_linker_0, # of connection points: 2
#     Edge 116, Type (0, 1), BuildingBlock: CIFDUS_clean_linker_0, # of connection points: 2
#     Edge 117, Type (0, 1), BuildingBlock: CIFDUS_clean_linker_0, # of connection points: 2
#     Edge 118, Type (0, 1), BuildingBlock: CIFDUS_clean_linker_0, # of connection points: 2
#     Edge 119, Type (0, 1), BuildingBlock: CIFDUS_clean_linker_0, # of connection points: 2
#     Edge 120, Type (0, 1), BuildingBlock: CIFDUS_clean_linker_0, # of connection points: 2
#     Edge 121, Type (0, 1), BuildingBlock: CIFDUS_clean_linker_0, # of connection points: 2
#     Edge 122, Type (0, 1), BuildingBlock: CIFDUS_clean_linker_0, # of connection points: 2
#     Edge 123, Type (0, 1), BuildingBlock: CIFDUS_clean_linker_0, # of connection points: 2
#     Edge 124, Type (0, 1), BuildingBlock: CIFDUS_clean_linker_0, # of connection points: 2
#     Edge 125, Type (0, 1), BuildingBlock: CIFDUS_clean_linker_0, # of connection points: 2
#     Edge 126, Type (0, 1), BuildingBlock: CIFDUS_clean_linker_0, # of connection points: 2
#     Edge 127, Type (0, 1), BuildingBlock: CIFDUS_clean_linker_0, # of connection points: 2
#     Edge 128, Type (0, 1), BuildingBlock: CIFDUS_clean_linker_0, # of connection points: 2
#     Edge 129, Type (0, 1), BuildingBlock: CIFDUS_clean_linker_0, # of connection points: 2
#     Edge 130, Type (0, 1), BuildingBlock: CIFDUS_clean_linker_0, # of connection points: 2
#     Edge 131, Type (0, 1), BuildingBlock: CIFDUS_clean_linker_0, # of connection points: 2
#     Edge 132, Type (0, 1), BuildingBlock: CIFDUS_clean_linker_0, # of connection points: 2
#     Edge 133, Type (0, 1), BuildingBlock: CIFDUS_clean_linker_0, # of connection points: 2
#     Edge 134, Type (0, 1), BuildingBlock: CIFDUS_clean_linker_0, # of connection points: 2
#     Edge 135, Type (0, 1), BuildingBlock: CIFDUS_clean_linker_0, # of connection points: 2
# Relax obj value: 0.199
# Max RMSD: 0.295
# Mean RMSD: 0.198
data_MOF--net-gar--node1-UXUYUI_clean_sbu_0--node2-INOVEN_clean_sbu_0--edge1-CIFDUS_clean_linker_0
_symmetry_space_group_name_H-M    P1
_symmetry_Int_Tables_number       1
_symmetry_cell_setting            triclinic
loop_
_symmetry_equiv_pos_as_xyz
'x, y, z'
_cell_length_a     68.146809
_cell_length_b     63.392489
_cell_length_c     63.548525
_cell_angle_alpha  99.317147
_cell_angle_beta   95.14428
_cell_angle_gamma 103.00484
loop_
_atom_site_label
_atom_site_type_symbol
_atom_site_fract_x
_atom_site_fract_y
_atom_site_fract_z
_atom_type_partial_charge
Li0 Li 0.08579 0.32543 0.36691 0.0
Li1 Li 0.10816 0.34945 0.39795 0.0
Li2 Li 0.12187 0.32643 0.36959 0.0
Li3 Li 0.10045 0.30953 0.39581 0.0
C4 C 0.10689 0.36469 0.35327 0.0
N5 N 0.1017 0.39219 0.32479 0.0
C6 C 0.10427 0.38573 0.36078 0.0
C7 C 0.10716 0.35772 0.33132 0.0
C8 C 0.10156 0.39934 0.34613 0.0
C9 C 0.10446 0.37187 0.31717 0.0
C10 C 0.06736 0.3291 0.41049 0.0
C11 C 0.05735 0.32966 0.44594 0.0
N12 N 0.03808 0.32928 0.4378 0.0
C13 C 0.04748 0.32871 0.40246 0.0
C14 C 0.0724 0.32964 0.43239 0.0
C15 C 0.0329 0.32885 0.41654 0.0
C16 C 0.05046 0.3014 0.34081 0.0
N17 N 0.06229 0.32205 0.34815 0.0
C18 C 0.03938 0.33757 0.32884 0.0
C19 C 0.05692 0.34006 0.34288 0.0
C20 C 0.02737 0.3163 0.32014 0.0
C21 C 0.03323 0.29804 0.32615 0.0
H22 H 0.0542 0.28749 0.34652 0.0
H23 H 0.06586 0.35636 0.35007 0.0
C24 C 0.12798 0.38831 0.42896 0.0
N25 N 0.11071 0.37614 0.41631 0.0
C26 C 0.12748 0.40748 0.443 0.0
C27 C 0.09187 0.40159 0.42956 0.0
C28 C 0.09297 0.3825 0.41614 0.0
C29 C 0.1092 0.41404 0.44328 0.0
H30 H 0.14197 0.38304 0.42834 0.0
H31 H 0.07967 0.3727 0.40547 0.0
C32 C 0.09147 0.2816 0.34926 0.0
N33 N 0.07866 0.24368 0.31829 0.0
C34 C 0.08857 0.26094 0.35518 0.0
C35 C 0.08807 0.28299 0.32754 0.0
C36 C 0.08212 0.24197 0.33929 0.0
C37 C 0.08143 0.26362 0.31215 0.0
C38 C 0.14314 0.33519 0.41786 0.0
C39 C 0.16256 0.33389 0.41331 0.0
C40 C 0.13985 0.34135 0.43912 0.0
C41 C 0.17849 0.339 0.43015 0.0
C42 C 0.15623 0.34653 0.4555 0.0
N43 N 0.17503 0.34523 0.45072 0.0
C44 C 0.15987 0.34012 0.35402 0.0
C45 C 0.14062 0.30339 0.34138 0.0
C46 C 0.17539 0.33605 0.34216 0.0
N47 N 0.14308 0.32365 0.35357 0.0
C48 C 0.15516 0.29886 0.32883 0.0
C49 C 0.17309 0.31498 0.32969 0.0
H50 H 0.16144 0.35609 0.36403 0.0
H51 H 0.12773 0.29036 0.34181 0.0
C52 C 0.07603 0.27731 0.41351 0.0
N53 N 0.09549 0.28682 0.41128 0.0
C54 C 0.072 0.26038 0.42517 0.0
C55 C 0.10809 0.26267 0.43088 0.0
C56 C 0.11142 0.27982 0.41946 0.0
C57 C 0.08819 0.25291 0.43415 0.0
H58 H 0.06365 0.28296 0.40632 0.0
H59 H 0.12668 0.28747 0.41695 0.0
O60 O 0.10934 0.3511 0.36741 0.0
O61 O 0.0817 0.32877 0.39682 0.0
O62 O 0.09855 0.30032 0.36459 0.0
O63 O 0.12755 0.33064 0.40145 0.0
H64 H 0.10429 0.39152 0.37772 0.0
H65 H 0.10932 0.34153 0.3253 0.0
H66 H 0.09938 0.4156 0.35172 0.0
H67 H 0.10455 0.3667 0.30011 0.0
H68 H 0.06097 0.32994 0.46292 0.0
H69 H 0.04336 0.32832 0.38553 0.0
H70 H 0.0877 0.32983 0.4388 0.0
H71 H 0.01746 0.32858 0.41055 0.0
H72 H 0.03496 0.35218 0.32549 0.0
H73 H 0.0244 0.28135 0.31999 0.0
H74 H 0.14105 0.41697 0.45354 0.0
H75 H 0.07754 0.4063 0.42962 0.0
H76 H 0.09154 0.25954 0.37184 0.0
H77 H 0.0905 0.29888 0.32268 0.0
H78 H 0.07993 0.22587 0.34364 0.0
H79 H 0.07857 0.26443 0.29532 0.0
H80 H 0.16529 0.32894 0.39694 0.0
H81 H 0.12491 0.34249 0.44288 0.0
H82 H 0.1936 0.33805 0.42686 0.0
H83 H 0.15399 0.35162 0.47202 0.0
H84 H 0.18918 0.34885 0.34328 0.0
H85 H 0.15267 0.28256 0.31911 0.0
H86 H 0.05645 0.25352 0.42737 0.0
H87 H 0.12099 0.25706 0.43694 0.0
Li88 Li 1.00694 0.76958 0.63528 0.0
Li89 Li 0.01952 0.75565 0.66671 0.0
Li90 Li 0.99879 0.72996 0.63528 0.0
Li91 Li 0.98353 0.75304 0.66033 0.0
C92 C 0.04072 0.74851 0.62513 0.0
N93 N 0.07158 0.74608 0.60019 0.0
C94 C 0.061 0.75579 0.6345 0.0
C95 C 0.0361 0.73995 0.60309 0.0
C96 C 0.07638 0.75449 0.62161 0.0
C97 C 0.05194 0.73881 0.59076 0.0
C98 C 0.01133 0.7967 0.68323 0.0
C99 C 0.01399 0.81036 0.72129 0.0
N100 N 0.02348 0.83075 0.7183 0.0
C101 C 0.02099 0.8178 0.68048 0.0
C102 C 1.00767 0.79292 0.70374 0.0
C103 C 0.02705 0.8348 0.69843 0.0
C104 C 1.00114 0.80615 0.61892 0.0
N105 N 0.01388 0.79262 0.6203 0.0
C106 C 0.03857 0.81524 0.60398 0.0
C107 C 0.03231 0.79686 0.61317 0.0
C108 C 0.02595 0.82974 0.60261 0.0
C109 C 1.00694 0.825 0.61011 0.0
H110 H 0.98679 0.80259 0.62526 0.0
H111 H 0.04249 0.78641 0.61501 0.0
C112 C 0.04673 0.7437 0.69481 0.0
N113 N 0.04211 0.76102 0.68723 0.0
C114 C 0.0641 0.74689 0.70918 0.0
C115 C 0.07245 0.78549 0.70657 0.0
C116 C 0.05447 0.78165 0.69278 0.0
C117 C 0.07761 0.76782 0.71453 0.0
H118 H 0.03747 0.72723 0.68898 0.0
H119 H 0.05104 0.79485 0.6855 0.0
C120 C 0.96361 0.73794 0.61298 0.0
N121 N 0.93021 0.7186 0.58253 0.0
C122 C 0.94554 0.72684 0.61916 0.0
C123 C 0.96476 0.73921 0.59138 0.0
C124 C 0.9288 0.71718 0.6035 0.0
C125 C 0.9477 0.72928 0.5762 0.0
C126 C 0.99658 0.7152 0.67958 0.0
C127 C 0.99292 0.69262 0.67141 0.0
C128 C 1.00058 0.72277 0.70183 0.0
C129 C 0.99403 0.67809 0.68555 0.0
C130 C 1.00157 0.7077 0.71545 0.0
N131 N 0.99836 0.68587 0.70709 0.0
C132 C 0.01531 0.6964 0.62477 0.0
C133 C 0.98253 0.68882 0.60484 0.0
C134 C 0.01806 0.6762 0.61536 0.0
N135 N 0.9979 0.70235 0.61931 0.0
C136 C 0.9846 0.6682 0.59502 0.0
C137 C 1.00257 0.66176 0.60037 0.0
H138 H 0.02702 0.70737 0.63672 0.0
H139 H 0.96872 0.69389 0.60105 0.0
C140 C 0.95525 0.7747 0.67401 0.0
N141 N 0.96231 0.75658 0.67546 0.0
C142 C 0.94194 0.78065 0.68786 0.0
C143 C 0.94361 0.74909 0.70434 0.0
C144 C 0.95659 0.74355 0.6899 0.0
C145 C 0.93628 0.76799 0.70353 0.0
H146 H 0.96049 0.78484 0.66251 0.0
H147 H 0.96258 0.72931 0.69069 0.0
O148 O 0.02554 0.75035 0.63744 0.0
O149 O 1.00586 0.7798 0.6659 0.0
O150 O 0.97972 0.74871 0.62816 0.0
O151 O 0.9966 0.72976 0.66582 0.0
H152 H 0.06482 0.76261 0.6515 0.0
H153 H 0.02046 0.73441 0.59559 0.0
H154 H 0.09215 0.7602 0.62862 0.0
H155 H 0.04862 0.73223 0.57368 0.0
H156 H 0.01138 0.80767 0.73729 0.0
H157 H 0.02399 0.82093 0.66469 0.0
H158 H 1.00018 0.77669 0.70609 0.0
H159 H 0.03466 0.85119 0.69658 0.0
H160 H 0.0532 0.81808 0.59811 0.0
H161 H 0.99687 0.83596 0.60961 0.0
H162 H 0.06754 0.7328 0.71496 0.0
H163 H 0.08276 0.8017 0.70974 0.0
H164 H 0.94439 0.72592 0.63588 0.0
H165 H 0.97863 0.74796 0.58645 0.0
H166 H 0.91465 0.70865 0.60802 0.0
H167 H 0.94832 0.73018 0.55941 0.0
H168 H 0.98915 0.68627 0.65436 0.0
H169 H 1.00339 0.74015 0.70847 0.0
H170 H 0.99141 0.66061 0.67938 0.0
H171 H 1.00499 0.71338 0.73266 0.0
H172 H 0.03234 0.67213 0.61955 0.0
H173 H 0.97234 0.65743 0.58348 0.0
H174 H 0.93626 0.79505 0.68639 0.0
H175 H 0.93976 0.73898 0.71628 0.0
Li176 Li 0.58761 0.82538 0.86778 0.0
Li177 Li 0.60954 0.8487 0.90003 0.0
Li178 Li 0.62342 0.82659 0.87197 0.0
Li179 Li 0.60099 0.80855 0.89684 0.0
C180 C 0.60808 0.86547 0.85626 0.0
N181 N 0.60234 0.89432 0.82938 0.0
C182 C 0.59981 0.88324 0.86339 0.0
C183 C 0.61323 0.86225 0.83538 0.0
C184 C 0.59712 0.8977 0.84959 0.0
C185 C 0.61022 0.87704 0.82204 0.0
C186 C 0.56578 0.82702 0.90796 0.0
C187 C 0.5478 0.81859 0.93773 0.0
N188 N 0.53152 0.82443 0.9285 0.0
C189 C 0.5489 0.83297 0.89878 0.0
C190 C 0.56526 0.81976 0.92758 0.0
C191 C 0.53171 0.83152 0.90941 0.0
C192 C 0.55194 0.79959 0.8451 0.0
N193 N 0.56456 0.82001 0.84752 0.0
C194 C 0.54217 0.83051 0.82256 0.0
C195 C 0.56016 0.83532 0.83643 0.0
C196 C 0.52878 0.80978 0.8202 0.0
C197 C 0.53384 0.79399 0.83122 0.0
H198 H 0.55563 0.78794 0.85454 0.0
H199 H 0.56997 0.85154 0.8389 0.0
C200 C 0.62284 0.89478 0.91476 0.0
N201 N 0.61272 0.8753 0.91928 0.0
C202 C 0.61887 0.91444 0.92466 0.0
C203 C 0.59581 0.8935 0.94491 0.0
C204 C 0.60041 0.87443 0.9349 0.0
C205 C 0.60437 0.91353 0.93898 0.0
H206 H 0.63248 0.89486 0.90213 0.0
H207 H 0.59304 0.85878 0.93849 0.0
C208 C 0.5951 0.7832 0.84885 0.0
N209 N 0.58435 0.74788 0.8149 0.0
C210 C 0.59235 0.7617 0.85267 0.0
C211 C 0.59268 0.7868 0.82776 0.0
C212 C 0.58688 0.74405 0.83529 0.0
C213 C 0.5871 0.76869 0.81081 0.0
C214 C 0.64461 0.83639 0.91949 0.0
C215 C 0.66418 0.83684 0.9143 0.0
C216 C 0.64169 0.84258 0.94086 0.0
C217 C 0.68059 0.84346 0.93068 0.0
C218 C 0.65853 0.84929 0.95677 0.0
N219 N 0.67746 0.84952 0.9514 0.0
C220 C 0.65645 0.84295 0.85143 0.0
C221 C 0.64483 0.80397 0.84623 0.0
C222 C 0.67026 0.841 0.8368 0.0
N223 N 0.64408 0.82452 0.85561 0.0
C224 C 0.65794 0.80126 0.83114 0.0
C225 C 0.67068 0.81992 0.82632 0.0
H226 H 0.65533 0.85906 0.8592 0.0
H227 H 0.63517 0.78968 0.85036 0.0
C228 C 0.57495 0.77159 0.904 0.0
N229 N 0.594 0.78462 0.9103 0.0
C230 C 0.56857 0.75275 0.91258 0.0
C231 C 0.60148 0.7615 0.93427 0.0
C232 C 0.60728 0.78011 0.92512 0.0
C233 C 0.58195 0.74756 0.92786 0.0
H234 H 0.56484 0.77581 0.89213 0.0
H235 H 0.62235 0.79085 0.92966 0.0
O236 O 0.61113 0.85133 0.86962 0.0
O237 O 0.58268 0.82818 0.89769 0.0
O238 O 0.60038 0.80059 0.86577 0.0
O239 O 0.62839 0.82901 0.90371 0.0
H240 H 0.59507 0.88556 0.8792 0.0
H241 H 0.61934 0.8484 0.8295 0.0
H242 H 0.59074 0.91149 0.85489 0.0
H243 H 0.61413 0.87475 0.80584 0.0
H244 H 0.54722 0.81308 0.95296 0.0
H245 H 0.5491 0.83872 0.88366 0.0
H246 H 0.57829 0.81531 0.93502 0.0
H247 H 0.51852 0.83605 0.90249 0.0
H248 H 0.53813 0.84324 0.81481 0.0
H249 H 0.52332 0.77815 0.83022 0.0
H250 H 0.62584 0.92984 0.92003 0.0
H251 H 0.5849 0.8925 0.95634 0.0
H252 H 0.59461 0.75865 0.86886 0.0
H253 H 0.59495 0.80338 0.82456 0.0
H254 H 0.5847 0.72732 0.83802 0.0
H255 H 0.58499 0.77118 0.7944 0.0
H256 H 0.66662 0.83182 0.89783 0.0
H257 H 0.62658 0.84212 0.94511 0.0
H258 H 0.69581 0.84371 0.92693 0.0
H259 H 0.65655 0.85418 0.9734 0.0
H260 H 0.6804 0.85562 0.83364 0.0
H261 H 0.65855 0.7848 0.82375 0.0
H262 H 0.55333 0.74249 0.90752 0.0
H263 H 0.61219 0.75786 0.94598 0.0
Li264 Li 0.50591 0.27031 0.13635 0.0
Li265 Li 0.51956 0.25592 0.16696 0.0
Li266 Li 0.49857 0.23042 0.135 0.0
Li267 Li 0.48343 0.25232 0.16122 0.0
C268 C 0.5396 0.24935 0.12432 0.0
N269 N 0.56937 0.24586 0.09815 0.0
C270 C 0.56008 0.25594 0.13304 0.0
C271 C 0.53422 0.24109 0.10231 0.0
C272 C 0.57491 0.25408 0.11953 0.0
C273 C 0.54952 0.23937 0.08935 0.0
C274 C 0.50885 0.2972 0.18381 0.0
C275 C 0.50894 0.31222 0.22116 0.0
N276 N 0.51817 0.33252 0.21773 0.0
C277 C 0.51823 0.31821 0.18059 0.0
C278 C 0.50409 0.29412 0.20421 0.0
C279 C 0.52286 0.33586 0.19797 0.0
C280 C 0.49844 0.30298 0.11376 0.0
N281 N 0.51267 0.29312 0.12122 0.0
C282 C 0.53878 0.31672 0.1075 0.0
C283 C 0.53257 0.2999 0.11874 0.0
C284 C 0.52444 0.32704 0.09944 0.0
C285 C 0.50409 0.32034 0.10283 0.0
H286 H 0.48279 0.29739 0.11637 0.0
H287 H 0.54367 0.29242 0.12566 0.0
C288 C 0.55181 0.2438 0.18648 0.0
N289 N 0.5428 0.26084 0.1866 0.0
C290 C 0.57066 0.24703 0.19849 0.0
C291 C 0.5702 0.28507 0.21099 0.0
C292 C 0.55154 0.28117 0.19852 0.0
C293 C 0.58013 0.268 0.21069 0.0
H294 H 0.54473 0.22802 0.17629 0.0
H295 H 0.54464 0.2947 0.19776 0.0
C296 C 0.46292 0.23943 0.11383 0.0
N297 N 0.42979 0.22123 0.08278 0.0
C298 C 0.44495 0.22728 0.1193 0.0
C299 C 0.46407 0.24241 0.09264 0.0
C300 C 0.42834 0.21823 0.10335 0.0
C301 C 0.44716 0.23298 0.07713 0.0
C302 C 0.49927 0.2152 0.17923 0.0
C303 C 0.4938 0.19246 0.17155 0.0
C304 C 0.5065 0.22334 0.20097 0.0
C305 C 0.49624 0.17821 0.18564 0.0
C306 C 0.50879 0.20855 0.21455 0.0
N307 N 0.50369 0.18649 0.20667 0.0
C308 C 0.5123 0.1942 0.12333 0.0
C309 C 0.48268 0.19334 0.10023 0.0
C310 C 0.51396 0.17437 0.11161 0.0
N311 N 0.49692 0.20325 0.11745 0.0
C312 C 0.48402 0.17366 0.08768 0.0
C313 C 0.5 0.1641 0.09319 0.0
H314 H 0.52332 0.20252 0.13719 0.0
H315 H 0.47055 0.20079 0.0959 0.0
C316 C 0.45426 0.27095 0.17866 0.0
N317 N 0.46166 0.2527 0.17625 0.0
C318 C 0.43901 0.27239 0.19154 0.0
C319 C 0.43946 0.23617 0.19902 0.0
C320 C 0.4546 0.2354 0.18588 0.0
C321 C 0.43159 0.25489 0.20201 0.0
H322 H 0.46045 0.28444 0.17083 0.0
H323 H 0.46089 0.22114 0.1836 0.0
O324 O 0.52495 0.25136 0.13733 0.0
O325 O 0.50511 0.27965 0.16718 0.0
O326 O 0.47909 0.24904 0.12928 0.0
O327 O 0.49739 0.22932 0.16545 0.0
H328 H 0.5645 0.26271 0.14999 0.0
H329 H 0.51842 0.2361 0.09532 0.0
H330 H 0.59083 0.25922 0.12604 0.0
H331 H 0.54561 0.23292 0.07229 0.0
H332 H 0.50547 0.31011 0.23708 0.0
H333 H 0.52215 0.32077 0.16491 0.0
H334 H 0.49702 0.27789 0.20697 0.0
H335 H 0.53027 0.35219 0.19577 0.0
H336 H 0.55464 0.32184 0.10536 0.0
H337 H 0.49275 0.32817 0.09679 0.0
H338 H 0.57811 0.23358 0.19743 0.0
H339 H 0.57706 0.30142 0.22023 0.0
H340 H 0.44381 0.22495 0.13569 0.0
H341 H 0.4779 0.25186 0.08824 0.0
H342 H 0.41428 0.20886 0.10734 0.0
H343 H 0.44783 0.23506 0.06063 0.0
H344 H 0.48756 0.18583 0.15493 0.0
H345 H 0.51049 0.2409 0.20723 0.0
H346 H 0.49217 0.16058 0.17988 0.0
H347 H 0.51463 0.21461 0.23137 0.0
H348 H 0.52622 0.16735 0.11683 0.0
H349 H 0.47305 0.16643 0.07351 0.0
H350 H 0.43305 0.28694 0.19319 0.0
H351 H 0.43421 0.22247 0.20698 0.0
Li352 Li 0.0877 0.8273 0.10134 0.0
Li353 Li 0.10981 0.80975 0.12924 0.0
Li354 Li 0.08518 0.7866 0.09615 0.0
Li355 Li 0.0695 0.80302 0.12689 0.0
C356 C 0.12188 0.80656 0.08185 0.0
N357 N 0.1454 0.79666 0.05026 0.0
C358 C 0.14216 0.80649 0.08745 0.0
C359 C 0.11353 0.80165 0.06023 0.0
C360 C 0.15383 0.80152 0.07122 0.0
C361 C 0.12566 0.79656 0.04448 0.0
C362 C 0.09313 0.84969 0.14952 0.0
C363 C 0.08923 0.86652 0.18517 0.0
N364 N 0.09573 0.88677 0.1801 0.0
C365 C 0.09982 0.87062 0.14463 0.0
C366 C 0.08779 0.84754 0.16989 0.0
C367 C 0.101 0.88919 0.16032 0.0
C368 C 0.06868 0.86141 0.08956 0.0
N369 N 0.0853 0.85302 0.0873 0.0
C370 C 0.0975 0.87983 0.06551 0.0
C371 C 0.09948 0.86179 0.07526 0.0
C372 C 0.08079 0.8894 0.06805 0.0
C373 C 0.06615 0.87952 0.08018 0.0
H374 H 0.05734 0.85418 0.0989 0.0
H375 H 0.11244 0.85482 0.07318 0.0
C376 C 0.1401 0.79053 0.15071 0.0
N377 N 0.13641 0.81029 0.14786 0.0
C378 C 0.15805 0.78931 0.16304 0.0
C379 C 0.16903 0.82874 0.16901 0.0
C380 C 0.15066 0.82925 0.15687 0.0
C381 C 0.17315 0.80855 0.17242 0.0
H382 H 0.12915 0.77542 0.14319 0.0
H383 H 0.14792 0.84494 0.15456 0.0
C384 C 0.04707 0.79381 0.07964 0.0
N385 N 0.01482 0.77637 0.0473 0.0
C386 C 0.02879 0.78127 0.08411 0.0
C387 C 0.04892 0.79759 0.05876 0.0
C388 C 0.01265 0.77261 0.06754 0.0
C389 C 0.03247 0.78855 0.04261 0.0
C390 C 0.0839 0.765 0.13686 0.0
C391 C 0.07291 0.74415 0.12592 0.0
C392 C 0.09076 0.76817 0.15879 0.0
C393 C 0.06925 0.7267 0.13706 0.0
C394 C 0.08674 0.75031 0.16938 0.0
N395 N 0.07619 0.7301 0.15838 0.0
C396 C 0.09958 0.75122 0.0775 0.0
C397 C 0.06454 0.74589 0.0658 0.0
C398 C 0.0988 0.7294 0.06859 0.0
N399 N 0.08254 0.75895 0.0765 0.0
C400 C 0.06306 0.7238 0.05666 0.0
C401 C 0.08022 0.71514 0.05878 0.0
H402 H 0.11356 0.76158 0.08657 0.0
H403 H 0.05097 0.75193 0.06566 0.0
C404 C 0.03305 0.8128 0.14153 0.0
N405 N 0.04528 0.79856 0.14223 0.0
C406 C 0.01458 0.80919 0.15028 0.0
C407 C 0.02153 0.77644 0.1606 0.0
C408 C 0.03973 0.78058 0.15153 0.0
C409 C 1.00841 0.7907 0.15999 0.0
H410 H 0.03738 0.82676 0.13368 0.0
H411 H 0.04917 0.76909 0.15174 0.0
O412 O 0.1104 0.81162 0.09758 0.0
O413 O 0.0915 0.83141 0.13423 0.0
O414 O 0.06295 0.80257 0.09571 0.0
O415 O 0.08786 0.78228 0.12624 0.0
H416 H 0.14883 0.81037 0.10415 0.0
H417 H 0.09783 0.80159 0.05569 0.0
H418 H 0.16959 0.80153 0.0753 0.0
H419 H 0.11939 0.79257 0.02767 0.0
H420 H 0.08514 0.86515 0.20103 0.0
H421 H 0.10405 0.87251 0.1289 0.0
H422 H 0.08253 0.83138 0.17382 0.0
H423 H 0.10611 0.90552 0.15677 0.0
H424 H 0.10905 0.88608 0.05594 0.0
H425 H 0.05302 0.886 0.08295 0.0
H426 H 0.16029 0.77325 0.16468 0.0
H427 H 0.17987 0.84417 0.17584 0.0
H428 H 0.02709 0.77817 0.10018 0.0
H429 H 0.06292 0.80739 0.05508 0.0
H430 H 0.99842 0.76288 0.07076 0.0
H431 H 0.0337 0.79125 0.02635 0.0
H432 H 0.06714 0.74144 0.10908 0.0
H433 H 0.09906 0.78429 0.16753 0.0
H434 H 0.06085 0.71045 0.12877 0.0
H435 H 0.09199 0.7525 0.18634 0.0
H436 H 0.11239 0.72335 0.07045 0.0
H437 H 0.0484 0.71324 0.04945 0.0
H438 H 1.00504 0.82056 0.14891 0.0
H439 H 0.0179 0.76214 0.1681 0.0
Li440 Li 0.5238 0.79269 0.44005 0.0
Li441 Li 0.49969 0.76952 0.40708 0.0
Li442 Li 0.52123 0.7516 0.43504 0.0
Li443 Li 0.53918 0.77488 0.40936 0.0
C444 C 0.48654 0.77308 0.45373 0.0
N445 N 0.46239 0.78489 0.48397 0.0
C446 C 0.46916 0.77996 0.4475 0.0
C447 C 0.49154 0.77194 0.47525 0.0
C448 C 0.45716 0.78592 0.46306 0.0
C449 C 0.47916 0.77807 0.49032 0.0
C450 C 0.52451 0.8135 0.39886 0.0
C451 C 0.53163 0.82785 0.36675 0.0
N452 N 0.53011 0.84799 0.37671 0.0
C453 C 0.52281 0.83427 0.40872 0.0
C454 C 0.52875 0.81017 0.37765 0.0
C455 C 0.52576 0.85152 0.39727 0.0
C456 C 0.54718 0.83468 0.46169 0.0
N457 N 0.52847 0.82066 0.45981 0.0
C458 C 0.516 0.84904 0.48003 0.0
C459 C 0.51306 0.82745 0.46893 0.0
C460 C 0.53492 0.86385 0.48165 0.0
C461 C 0.55077 0.85649 0.47266 0.0
H462 H 0.55905 0.82925 0.45375 0.0
H463 H 0.49814 0.81665 0.46672 0.0
C464 C 0.45684 0.75151 0.386 0.0
N465 N 0.47348 0.76875 0.38837 0.0
C466 C 0.43823 0.75184 0.3744 0.0
C467 C 0.45383 0.78744 0.36731 0.0
C468 C 0.47211 0.78648 0.3791 0.0
C469 C 0.43625 0.7701 0.36492 0.0
H470 H 0.45784 0.73752 0.39343 0.0
H471 H 0.48508 0.80032 0.38115 0.0
C472 C 0.56213 0.78362 0.45613 0.0
N473 N 0.59553 0.799 0.48735 0.0
C474 C 0.5817 0.78508 0.45053 0.0
C475 C 0.55951 0.78983 0.47761 0.0
C476 C 0.59839 0.79284 0.46655 0.0
C477 C 0.57661 0.79769 0.49315 0.0
C478 C 0.5183 0.73054 0.38592 0.0
C479 C 0.52539 0.71259 0.39063 0.0
C480 C 0.51217 0.7315 0.36461 0.0
C481 C 0.52623 0.69577 0.37385 0.0
C482 C 0.51327 0.71435 0.34826 0.0
N483 N 0.5202 0.69698 0.35318 0.0
C484 C 0.50786 0.7132 0.45608 0.0
C485 C 0.54278 0.72227 0.45246 0.0
C486 C 0.51034 0.6954 0.46597 0.0
N487 N 0.52395 0.72627 0.44941 0.0
C488 C 0.5459 0.70458 0.46216 0.0
C489 C 0.52957 0.69068 0.46915 0.0
H490 H 0.493 0.71648 0.45368 0.0
H491 H 0.5555 0.73278 0.44721 0.0
C492 C 0.57341 0.80064 0.39416 0.0
N493 N 0.56318 0.77951 0.39409 0.0
C494 C 0.59103 0.80505 0.38415 0.0
C495 C 0.5882 0.76597 0.37512 0.0
C496 C 0.57042 0.76228 0.38503 0.0
C497 C 0.59868 0.7876 0.37433 0.0
H498 H 0.56796 0.81419 0.40216 0.0
H499 H 0.5625 0.74562 0.38562 0.0
O500 O 0.49862 0.76762 0.43879 0.0
O501 O 0.52202 0.7965 0.4099 0.0
O502 O 0.54568 0.77653 0.44052 0.0
O503 O 0.51657 0.74664 0.40219 0.0
H504 H 0.46514 0.78099 0.4309 0.0
H505 H 0.50495 0.76661 0.48026 0.0
H506 H 0.44376 0.79145 0.45852 0.0
H507 H 0.4829 0.77745 0.50708 0.0
H508 H 0.53508 0.82556 0.35037 0.0
H509 H 0.51911 0.83707 0.42495 0.0
H510 H 0.52994 0.79412 0.36976 0.0
H511 H 0.52455 0.86769 0.40473 0.0
H512 H 0.50338 0.85439 0.48651 0.0
H513 H 0.56547 0.86772 0.47331 0.0
H514 H 0.42546 0.73777 0.37294 0.0
H515 H 0.4534 0.80207 0.36074 0.0
H516 H 0.58399 0.78022 0.434 0.0
H517 H 0.54446 0.78887 0.48219 0.0
H518 H 0.61362 0.79402 0.46245 0.0
H519 H 0.57486 0.80278 0.50982 0.0
H520 H 0.53005 0.71156 0.40706 0.0
H521 H 0.50651 0.74527 0.36079 0.0
H522 H 0.53161 0.68171 0.37726 0.0
H523 H 0.50855 0.71481 0.33167 0.0
H524 H 0.49713 0.6852 0.47076 0.0
H525 H 0.56108 0.70206 0.4644 0.0
H526 H 0.59873 0.82201 0.3843 0.0
H527 H 0.59348 0.75198 0.36778 0.0
Li528 Li 0.58554 0.32698 0.59997 0.0
Li529 Li 0.60746 0.3095 0.62766 0.0
Li530 Li 0.58326 0.28635 0.59467 0.0
Li531 Li 0.56742 0.30272 0.62564 0.0
C532 C 0.62015 0.30557 0.58092 0.0
N533 N 0.64436 0.29438 0.55049 0.0
C534 C 0.64034 0.30564 0.58724 0.0
C535 C 0.61225 0.29992 0.55915 0.0
C536 C 0.65236 0.3 0.5716 0.0
C537 C 0.62472 0.29417 0.54401 0.0
C538 C 0.59215 0.34931 0.6486 0.0
C539 C 0.5902 0.36591 0.68497 0.0
N540 N 0.5973 0.38619 0.68021 0.0
C541 C 0.59948 0.37027 0.64405 0.0
C542 C 0.58748 0.34702 0.66918 0.0
C543 C 0.60196 0.38874 0.66025 0.0
C544 C 0.56405 0.35576 0.58088 0.0
N545 N 0.58296 0.35261 0.58604 0.0
C546 C 0.59777 0.38569 0.57335 0.0
C547 C 0.59965 0.36703 0.582 0.0
C548 C 0.5785 0.38976 0.56844 0.0
C549 C 0.56147 0.3741 0.57194 0.0
H550 H 0.55086 0.34423 0.58409 0.0
H551 H 0.61456 0.36434 0.58594 0.0
C552 C 0.64065 0.29147 0.64494 0.0
N553 N 0.63364 0.31019 0.6466 0.0
C554 C 0.6587 0.29081 0.65753 0.0
C555 C 0.66221 0.32857 0.67383 0.0
C556 C 0.64417 0.32855 0.6609 0.0
C557 C 0.67014 0.30959 0.67233 0.0
H558 H 0.63228 0.27687 0.63366 0.0
H559 H 0.63857 0.34333 0.6624 0.0
C560 C 0.54479 0.29452 0.57853 0.0
N561 N 0.51241 0.27809 0.5462 0.0
C562 C 0.52604 0.28319 0.58314 0.0
C563 C 0.54704 0.29763 0.55752 0.0
C564 C 0.50986 0.27499 0.56656 0.0
C565 C 0.53049 0.28915 0.54139 0.0
C566 C 0.58273 0.26502 0.63567 0.0
C567 C 0.57223 0.24382 0.62515 0.0
C568 C 0.58995 0.26881 0.65755 0.0
C569 C 0.56919 0.2267 0.63673 0.0
C570 C 0.58656 0.25125 0.66859 0.0
N571 N 0.57636 0.23073 0.65804 0.0
C572 C 0.59601 0.24911 0.57436 0.0
C573 C 0.56107 0.24698 0.56538 0.0
C574 C 0.59318 0.22689 0.56491 0.0
N575 N 0.57994 0.25857 0.57496 0.0
C576 C 0.55758 0.22482 0.55583 0.0
C577 C 0.57357 0.21422 0.5563 0.0
H578 H 0.61078 0.25835 0.58255 0.0
H579 H 0.5483 0.25421 0.56648 0.0
C580 C 0.53305 0.31411 0.64456 0.0
N581 N 0.54352 0.29814 0.64134 0.0
C582 C 0.51534 0.31077 0.65469 0.0
C583 C 0.51916 0.2745 0.65778 0.0
C584 C 0.53664 0.27846 0.6475 0.0
C585 C 0.50823 0.2908 0.66173 0.0
H586 H 0.53841 0.32949 0.63918 0.0
H587 H 0.54454 0.2656 0.64428 0.0
O588 O 0.60839 0.31147 0.59605 0.0
O589 O 0.58919 0.33114 0.63281 0.0
O590 O 0.56089 0.30224 0.59449 0.0
O591 O 0.58581 0.28204 0.62468 0.0
H592 H 0.6467 0.31024 0.60403 0.0
H593 H 0.59664 0.2998 0.55404 0.0
H594 H 0.66806 0.30012 0.57625 0.0
H595 H 0.61881 0.28959 0.5271 0.0
H596 H 0.58663 0.36444 0.70099 0.0
H597 H 0.6032 0.37226 0.62819 0.0
H598 H 0.58173 0.33085 0.67286 0.0
H599 H 0.60756 0.40509 0.65695 0.0
H600 H 0.6114 0.39703 0.57073 0.0
H601 H 0.54632 0.37641 0.56859 0.0
H602 H 0.66376 0.2757 0.65527 0.0
H603 H 0.66968 0.34349 0.68515 0.0
H604 H 0.52406 0.28054 0.59929 0.0
H605 H 0.56145 0.30637 0.55371 0.0
H606 H 0.49531 0.26609 0.56987 0.0
H607 H 0.53202 0.29132 0.52503 0.0
H608 H 0.56628 0.24062 0.60831 0.0
H609 H 0.59799 0.28517 0.66591 0.0
H610 H 0.56108 0.21022 0.6288 0.0
H611 H 0.59203 0.25393 0.68555 0.0
H612 H 0.60593 0.21936 0.56579 0.0
H613 H 0.54223 0.21575 0.5492 0.0
H614 H 0.50756 0.32391 0.65737 0.0
H615 H 0.51415 0.25865 0.66241 0.0
Li616 Li 0.02279 0.29332 0.9381 0.0
Li617 Li 0.99846 0.26969 0.90502 0.0
Li618 Li 0.02101 0.25224 0.9334 0.0
Li619 Li 0.03867 0.27542 0.90741 0.0
C620 C 0.98552 0.27157 0.95196 0.0
N621 N 0.9609 0.28073 0.98265 0.0
C622 C 0.96734 0.27714 0.94608 0.0
C623 C 0.99106 0.27033 0.97334 0.0
C624 C 0.95515 0.28183 0.96187 0.0
C625 C 0.97841 0.27508 0.98865 0.0
C626 C 0.0243 0.31403 0.89702 0.0
C627 C 0.03282 0.32897 0.86556 0.0
N628 N 0.03097 0.34898 0.87551 0.0
C629 C 0.02225 0.33467 0.90685 0.0
C630 C 0.02939 0.31105 0.87613 0.0
C631 C 0.02575 0.35215 0.89574 0.0
C632 C 0.04411 0.33673 0.96037 0.0
N633 N 0.02613 0.32127 0.95771 0.0
C634 C 0.01029 0.34795 0.9756 0.0
C635 C 0.00957 0.32648 0.96561 0.0
C636 C 0.02816 0.36452 0.9773 0.0
C637 C 0.04549 0.35859 0.97026 0.0
H638 H 0.05701 0.33247 0.95356 0.0
H639 H 0.9953 0.31451 0.96299 0.0
C640 C 0.95544 0.25293 0.87913 0.0
N641 N 0.97197 0.27031 0.88639 0.0
C642 C 0.93795 0.25546 0.8666 0.0
C643 C 0.95438 0.29358 0.86917 0.0
C644 C 0.97125 0.29046 0.88177 0.0
C645 C 0.93725 0.27602 0.86105 0.0
H646 H 0.95571 0.23696 0.88293 0.0
H647 H 0.98384 0.30444 0.88789 0.0
C648 C 0.06142 0.28515 0.95451 0.0
N649 N 0.09455 0.30031 0.9861 0.0
C650 C 0.08108 0.28664 0.94915 0.0
C651 C 0.05859 0.29127 0.97594 0.0
C652 C 0.09763 0.2943 0.96536 0.0
C653 C 0.07555 0.299 0.99167 0.0
C654 C 0.01756 0.23036 0.88467 0.0
C655 C 0.02483 0.21276 0.89009 0.0
C656 C 0.01119 0.23043 0.86319 0.0
C657 C 0.02563 0.19542 0.87383 0.0
C658 C 0.01226 0.21279 0.84738 0.0
N659 N 0.01938 0.19579 0.85299 0.0
C660 C 0.01031 0.21207 0.95388 0.0
C661 C 0.04514 0.22669 0.9529 0.0
C662 C 0.01483 0.19514 0.96408 0.0
N663 N 0.0254 0.22752 0.94838 0.0
C664 C 0.05031 0.21009 0.96297 0.0
C665 C 0.03515 0.19371 0.96879 0.0
H666 H 0.99466 0.21278 0.95036 0.0
H667 H 0.05708 0.23878 0.94834 0.0
C668 C 0.07436 0.29953 0.89116 0.0
N669 N 0.06309 0.27908 0.89225 0.0
C670 C 0.09274 0.30211 0.88218 0.0
C671 C 0.08804 0.2627 0.87603 0.0
C672 C 0.0697 0.26085 0.88487 0.0
C673 C 0.1 0.28354 0.87465 0.0
H674 H 0.06939 0.31396 0.89778 0.0
H675 H 0.06102 0.24479 0.88633 0.0
O676 O 0.99795 0.26777 0.93685 0.0
O677 O 0.02112 0.29674 0.90768 0.0
O678 O 0.04508 0.27782 0.93877 0.0
O679 O 0.01598 0.24705 0.90042 0.0
H680 H 0.96292 0.27825 0.92959 0.0
H681 H 1.00508 0.266 0.97808 0.0
H682 H 0.94117 0.28644 0.95763 0.0
H683 H 0.98254 0.27436 1.0053 0.0
H684 H 0.03695 0.32697 0.84945 0.0
H685 H 0.01771 0.33715 0.92273 0.0
H686 H 0.03081 0.2951 0.86824 0.0
H687 H 0.02425 0.36821 0.90317 0.0
H688 H 0.99665 0.35176 0.98102 0.0
H689 H 0.05955 0.37094 0.97111 0.0
H690 H 0.92535 0.24125 0.86079 0.0
H691 H 0.95481 0.30987 0.86579 0.0
H692 H 0.08356 0.28181 0.93268 0.0
H693 H 0.04347 0.29023 0.98034 0.0
H694 H 0.11292 0.29547 0.96145 0.0
H695 H 0.07361 0.30395 0.00831 0.0
H696 H 0.02973 0.21244 0.90666 0.0
H697 H 1.0054 0.24392 0.85883 0.0
H698 H 0.03118 0.18166 0.87779 0.0
H699 H 1.00736 0.21257 0.83067 0.0
H700 H 1.00237 0.18342 0.96836 0.0
H701 H 0.06617 0.20994 0.96561 0.0
H702 H 0.1015 0.31855 0.88181 0.0
H703 H 0.09285 0.24786 0.87039 0.0
Li704 Li 0.44606 0.03038 0.31005 0.0
Li705 Li 0.41918 1.00543 0.28506 0.0
Li706 Li 0.44752 0.02715 0.2724 0.0
Li707 Li 0.4216 0.04388 0.28742 0.0
C708 C 0.4582 0.98922 0.29004 0.0
N709 N 0.4801 0.95738 0.28726 0.0
C710 C 0.44868 0.96745 0.2908 0.0
C711 C 0.4789 0.99489 0.28812 0.0
C712 C 0.46001 0.95158 0.28937 0.0
C713 C 0.48969 0.97851 0.28662 0.0
C714 C 0.40182 0.01903 0.32255 0.0
C715 C 0.36685 0.0108 0.32909 0.0
N716 N 0.3723 1.00318 0.34701 0.0
C717 C 0.40708 0.01126 0.34111 0.0
C718 C 0.38158 0.01901 0.31657 0.0
C719 C 0.39195 1.00329 0.35325 0.0
C720 C 0.47121 0.05544 0.34556 0.0
N721 N 0.4616 0.03465 0.3356 0.0
C722 C 0.47462 0.01928 0.36371 0.0
C723 C 0.4632 0.01666 0.34393 0.0
C724 C 0.48473 0.0406 0.37454 0.0
C725 C 0.48316 0.05884 0.3652 0.0
H726 H 0.46954 0.06929 0.33821 0.0
H727 H 0.45518 1.00038 0.33539 0.0
C728 C 0.401 0.96934 0.25602 0.0
N729 N 0.40165 0.9784 0.277 0.0
C730 C 0.3843 0.95299 0.2458 0.0
C731 C 0.37189 0.95246 0.28033 0.0
C732 C 0.38827 0.96964 0.28956 0.0
C733 C 0.36911 0.94485 0.25789 0.0
H734 H 0.41268 0.97602 0.24684 0.0
H735 H 0.38997 0.97619 0.30651 0.0
C736 C 0.46774 0.07052 0.29111 0.0
N737 N 0.50048 0.1033 0.28653 0.0
C738 C 0.46458 0.08927 0.2838 0.0
C739 C 0.48749 0.0684 0.29616 0.0
C740 C 0.48135 0.10568 0.2816 0.0
C741 C 0.50386 0.08515 0.29366 0.0
C742 C 0.40411 0.01493 0.24449 0.0
C743 C 0.40914 0.01132 0.22358 0.0
C744 C 0.38369 0.0102 0.24783 0.0
C745 C 0.39366 1.00269 0.20634 0.0
C746 C 0.36867 1.00141 0.23017 0.0
N747 N 0.37392 0.99787 0.20997 0.0
C748 C 0.45944 1.00257 0.24156 0.0
C749 C 0.4745 0.04048 0.24254 0.0
C750 C 0.4683 0.99638 0.22367 0.0
N751 N 0.46283 0.02417 0.25064 0.0
C752 C 0.48359 0.03501 0.22437 0.0
C753 C 0.48028 0.01274 0.21498 0.0
H754 H 0.4492 0.99019 0.2478 0.0
H755 H 0.47612 0.05756 0.24958 0.0
C756 C 0.4024 0.07636 0.30231 0.0
N757 N 0.40751 0.06459 0.28477 0.0
C758 C 0.39239 0.09279 0.29978 0.0
C759 C 0.39264 0.08373 0.26121 0.0
C760 C 0.40295 0.06788 0.26454 0.0
C761 C 0.38761 0.09655 0.279 0.0
H762 H 0.40641 0.07318 0.31816 0.0
H763 H 0.40776 0.05858 0.25105 0.0
O764 O 0.44697 1.00458 0.28989 0.0
O765 O 0.41649 0.0271 0.31063 0.0
O766 O 0.45152 0.0547 0.29398 0.0
O767 O 0.41922 0.02232 0.26159 0.0
H768 H 0.43268 0.96278 0.29234 0.0
H769 H 0.48643 0.01165 0.28731 0.0
H770 H 0.45281 0.93464 0.28982 0.0
H771 H 0.50567 0.98257 0.28483 0.0
H772 H 0.3511 0.01052 0.32459 0.0
H773 H 0.42266 0.01135 0.34611 0.0
H774 H 0.37729 0.02518 0.30237 0.0
H775 H 0.39582 0.99718 0.36762 0.0
H776 H 0.47526 1.00484 0.37057 0.0
H777 H 0.49109 0.07547 0.37292 0.0
H778 H 0.3832 0.94727 0.22864 0.0
H779 H 0.36154 0.94543 0.29074 0.0
H780 H 0.44933 0.09116 0.28002 0.0
H781 H 0.49011 0.05397 0.30191 0.0
H782 H 0.47916 0.12034 0.27603 0.0
H783 H 0.51926 0.08375 0.29745 0.0
H784 H 0.42485 0.015 0.2207 0.0
H785 H 0.37956 0.01275 0.26392 0.0
H786 H 0.39736 0.99972 0.19009 0.0
H787 H 0.35283 0.99729 0.23252 0.0
H788 H 0.46516 0.97914 0.21616 0.0
H789 H 0.4924 0.04787 0.21729 0.0
H790 H 0.38855 0.10251 0.31375 0.0
H791 H 0.3893 0.0865 0.24503 0.0
Li792 Li 0.29319 0.21335 0.52233 0.0
Li793 Li 0.30757 0.18333 0.50436 0.0
Li794 Li 0.29259 0.20833 0.48163 0.0
Li795 Li 0.26801 0.17874 0.49993 0.0
C796 C 0.33353 0.23206 0.51267 0.0
N797 N 0.36849 0.26494 0.52761 0.0
C798 C 0.35023 0.22736 0.52375 0.0
C799 C 0.33462 0.25346 0.50915 0.0
C800 C 0.36777 0.2442 0.53115 0.0
C801 C 0.35242 0.26988 0.5169 0.0
C802 C 0.29015 0.17057 0.5418 0.0
C803 C 0.28438 0.13596 0.55413 0.0
N804 N 0.29439 0.14661 0.57381 0.0
C805 C 0.30046 0.18117 0.5621 0.0
C806 C 0.28211 0.14779 0.53771 0.0
C807 C 0.30242 0.16877 0.57808 0.0
C808 C 0.27704 0.23284 0.55778 0.0
N809 N 0.295 0.23288 0.54997 0.0
C810 C 0.31325 0.2532 0.58401 0.0
C811 C 0.31297 0.2431 0.56257 0.0
C812 C 0.29486 0.253 0.59256 0.0
C813 C 0.27662 0.24304 0.57891 0.0
H814 H 0.26295 0.22393 0.54791 0.0
H815 H 0.32714 0.24241 0.55646 0.0
C816 C 0.34162 0.1688 0.49037 0.0
N817 N 0.32988 0.16849 0.50658 0.0
C818 C 0.35841 0.15946 0.49091 0.0
C819 C 0.35113 0.14972 0.52498 0.0
C820 C 0.33459 0.15948 0.52389 0.0
C821 C 0.36328 0.14935 0.50822 0.0
H822 H 0.33802 0.17652 0.47701 0.0
H823 H 0.32563 0.1598 0.537 0.0
C824 C 0.25869 0.22603 0.5037 0.0
N825 N 0.23633 0.25671 0.51348 0.0
C826 C 0.23767 0.21919 0.50318 0.0
C827 C 0.2684 0.24843 0.50911 0.0
C828 C 0.2266 0.23498 0.50809 0.0
C829 C 0.25682 0.2637 0.51414 0.0
C830 C 0.2852 0.15892 0.4598 0.0
C831 C 0.27958 0.16297 0.43943 0.0
C832 C 0.28926 0.13868 0.46191 0.0
C833 C 0.2782 0.14664 0.42138 0.0
C834 C 0.28766 0.12274 0.44345 0.0
N835 N 0.28223 0.12703 0.42374 0.0
C836 C 0.3127 0.22037 0.44539 0.0
C837 C 0.28172 0.23101 0.44645 0.0
C838 C 0.31547 0.22803 0.42599 0.0
N839 N 0.29589 0.22164 0.45519 0.0
C840 C 0.28392 0.23893 0.42702 0.0
C841 C 0.30084 0.23722 0.41613 0.0
H842 H 0.32393 0.21304 0.45249 0.0
H843 H 0.26843 0.232 0.45431 0.0
C844 C 0.23511 0.15607 0.51998 0.0
N845 N 0.24034 0.15881 0.50018 0.0
C846 C 0.21636 0.14234 0.52227 0.0
C847 C 0.20764 0.1351 0.48385 0.0
C848 C 0.22685 0.14868 0.48223 0.0
C849 C 0.20217 0.1315 0.5041 0.0
H850 H 0.24559 0.1645 0.5342 0.0
H851 H 0.23095 0.15101 0.46656 0.0
O852 O 0.31649 0.21561 0.50467 0.0
O853 O 0.28793 0.18241 0.52598 0.0
O854 O 0.26966 0.21074 0.49909 0.0
O855 O 0.28715 0.17492 0.47754 0.0
H856 H 0.34968 0.21089 0.52659 0.0
H857 H 0.32188 0.25732 0.50046 0.0
H858 H 0.38083 0.24079 0.53968 0.0
H859 H 0.35348 0.28653 0.51431 0.0
H860 H 0.2782 0.11832 0.55123 0.0
H861 H 0.30699 0.19873 0.56548 0.0
H862 H 0.27422 0.13935 0.52201 0.0
H863 H 0.31035 0.17675 0.59388 0.0
H864 H 0.3277 0.26062 0.59394 0.0
H865 H 0.2621 0.24206 0.58486 0.0
H866 H 0.36753 0.16031 0.47784 0.0
H867 H 0.35406 0.14218 0.53866 0.0
H868 H 0.22999 0.20187 0.49897 0.0
H869 H 0.28471 0.25389 0.5097 0.0
H870 H 0.21029 0.22995 0.50766 0.0
H871 H 0.26411 0.28109 0.51857 0.0
H872 H 0.27633 0.17854 0.43757 0.0
H873 H 0.29369 0.13538 0.47761 0.0
H874 H 0.27393 0.14956 0.40549 0.0
H875 H 0.29078 0.10698 0.44478 0.0
H876 H 0.32905 0.22669 0.41879 0.0
H877 H 0.27208 0.24571 0.42029 0.0
H878 H 0.21295 0.14024 0.53823 0.0
H879 H 0.19738 0.127 0.46934 0.0
Li880 Li 0.18646 0.04052 0.77489 0.0
Li881 Li 0.15585 0.01464 0.79436 0.0
Li882 Li 0.18268 0.99313 0.77066 0.0
Li883 Li 0.15464 0.01215 0.75011 0.0
C884 C 0.2015 0.02415 0.81567 0.0
N885 N 0.22912 0.03287 0.85234 0.0
C886 C 0.19621 0.03238 0.83554 0.0
C887 C 0.2208 0.02038 0.81436 0.0
C888 C 0.21038 0.03666 0.85392 0.0
C889 C 0.23458 0.02492 0.83312 0.0
C890 C 0.14241 0.05017 0.77218 0.0
C891 C 0.10829 0.05276 0.76172 0.0
N892 N 0.11477 0.07513 0.76601 0.0
C893 C 0.14875 0.07314 0.7765 0.0
C894 C 0.12203 0.03983 0.7648 0.0
C895 C 0.13453 0.08548 0.77329 0.0
C896 C 0.19918 0.08339 0.75735 0.0
N897 N 0.20395 0.07386 0.77446 0.0
C898 C 0.22904 0.10882 0.78956 0.0
C899 C 0.2188 0.08658 0.79045 0.0
C900 C 0.2241 0.11916 0.77228 0.0
C901 C 0.20872 0.10564 0.7561 0.0
H902 H 0.18754 0.07384 0.74452 0.0
H903 H 0.22277 0.07969 0.80428 0.0
C904 C 0.12949 0.99678 0.8295 0.0
N905 N 0.13955 0.01571 0.82336 0.0
C906 C 0.11899 0.99709 0.84816 0.0
C907 C 0.12911 0.03627 0.8553 0.0
C908 C 0.13915 0.03529 0.83624 0.0
C909 C 0.11853 0.017 0.86194 0.0
H910 H 0.1294 0.98102 0.81987 0.0
H911 H 0.14673 0.05059 0.8319 0.0
C912 C 0.19386 0.01374 0.7308 0.0
N913 N 0.21153 0.01057 0.69338 0.0
C914 C 0.18279 1.00055 0.7118 0.0
C915 C 0.21392 0.02521 0.73085 0.0
C916 C 0.19196 0.99928 0.69299 0.0
C917 C 0.22262 0.02334 0.71176 0.0
C918 C 0.13494 0.96901 0.76159 0.0
C919 C 0.13864 0.94944 0.75106 0.0
C920 C 0.11512 0.96988 0.76492 0.0
C921 C 0.1224 0.93097 0.74406 0.0
C922 C 0.09927 0.95108 0.75759 0.0
N923 N 0.10322 0.93217 0.74743 0.0
C924 C 0.20785 0.95908 0.78645 0.0
C925 C 0.20002 0.95255 0.74914 0.0
C926 C 0.21785 0.94105 0.78502 0.0
N927 N 0.19887 0.96503 0.76867 0.0
C928 C 0.20966 0.93435 0.74709 0.0
C929 C 0.21904 0.92769 0.76508 0.0
H930 H 0.20733 0.96823 0.80222 0.0
H931 H 0.1933 0.9565 0.73465 0.0
C932 C 0.14407 0.03414 0.71391 0.0
N933 N 0.13792 0.01439 0.72038 0.0
C934 C 0.13505 0.03868 0.69459 0.0
C935 C 0.11297 1.0026 0.68771 0.0
C936 C 0.12249 0.99867 0.70734 0.0
C937 C 0.11896 0.02305 0.68074 0.0
H938 H 0.15629 0.04671 0.7238 0.0
H939 H 0.11736 0.98286 0.71199 0.0
O940 O 0.18765 0.01928 0.79765 0.0
O941 O 0.15614 0.03783 0.77492 0.0
O942 O 0.18513 0.01542 0.7493 0.0
O943 O 0.15074 0.98707 0.76902 0.0
H944 H 0.18132 0.03536 0.83675 0.0
H945 H 0.22504 0.01392 0.79905 0.0
H946 H 0.20648 0.04296 0.86944 0.0
H947 H 0.24958 0.02206 0.8324 0.0
H948 H 0.09248 0.04502 0.7559 0.0
H949 H 0.16446 0.08134 0.78236 0.0
H950 H 0.11694 0.02204 0.76129 0.0
H951 H 0.13921 0.1033 0.77659 0.0
H952 H 0.24049 0.11808 0.80273 0.0
H953 H 0.20405 0.11221 0.7423 0.0
H954 H 0.11129 0.98148 0.85185 0.0
H955 H 0.12927 0.05225 0.86452 0.0
H956 H 0.16729 0.99141 0.71158 0.0
H957 H 0.22267 0.0354 0.74551 0.0
H958 H 0.18355 0.98926 0.67811 0.0
H959 H 0.23817 0.03206 0.71156 0.0
H960 H 0.15392 0.94849 0.74846 0.0
H961 H 0.11203 0.98488 0.77318 0.0
H962 H 0.12505 0.91568 0.73598 0.0
H963 H 0.08385 0.95149 0.76005 0.0
H964 H 0.22429 0.93739 0.7998 0.0
H965 H 0.20985 0.92562 0.73103 0.0
H966 H 0.14116 0.05456 0.69053 0.0
H967 H 0.10075 0.98966 0.67826 0.0
Li968 Li 0.30445 0.94212 1.00623 0.0
Li969 Li 0.32181 0.91709 0.02098 0.0
Li970 Li 0.34104 0.94924 0.01074 0.0
Li971 Li 0.32208 0.91697 0.98329 0.0
C972 C 0.32792 0.96309 0.05115 0.0
N973 N 0.34194 0.99463 0.0881 0.0
C974 C 0.32989 0.95681 0.07121 0.0
C975 C 0.3324 0.98547 0.04999 0.0
C976 C 0.33714 0.97298 0.08966 0.0
C977 C 0.33966 1.00115 0.06885 0.0
C978 C 0.28354 0.89208 1.00236 0.0
C979 C 0.27025 0.85315 1.00046 0.0
N980 N 0.25399 0.85743 0.00977 0.0
C981 C 0.2667 0.89612 0.01185 0.0
C982 C 0.28532 0.87046 0.99649 0.0
C983 C 0.25191 0.87837 0.01547 0.0
C984 C 0.2712 0.95689 0.99082 0.0
N985 N 0.2828 0.95506 0.0086 0.0
C986 C 0.26196 0.97043 0.03174 0.0
C987 C 0.27864 0.96166 0.02878 0.0
C988 C 0.24933 0.97197 0.01371 0.0
C989 C 0.25416 0.96534 0.99303 0.0
H990 H 0.275 0.95139 0.97502 0.0
H991 H 0.28787 0.95951 0.04258 0.0
C992 C 0.34365 0.90887 0.05279 0.0
N993 N 0.32424 0.90227 0.04282 0.0
C994 C 0.34872 0.90244 0.07179 0.0
C995 C 0.31352 0.88271 0.07016 0.0
C996 C 0.30909 0.8896 0.05102 0.0
C997 C 0.3335 0.88949 0.08065 0.0
H998 H 0.35498 0.92022 0.04661 0.0
H999 H 0.29363 0.88558 0.04331 0.0
C1000 C 0.33096 0.96349 0.97208 0.0
N1001 N 0.3483 0.99323 0.94776 0.0
C1002 C 0.33972 0.95634 0.95403 0.0
C1003 C 0.33085 0.98568 0.9777 0.0
C1004 C 0.34843 0.97165 0.94194 0.0
C1005 C 0.33978 1.00049 0.96523 0.0
C1006 C 0.35897 0.90732 1.00574 0.0
C1007 C 0.37969 0.91735 0.00759 0.0
C1008 C 0.35261 0.88459 1.00479 0.0
C1009 C 0.39375 0.90444 0.00838 0.0
C1010 C 0.36717 0.87226 1.00574 0.0
N1011 N 0.38726 0.88235 0.00747 0.0
C1012 C 0.37377 0.97403 0.04055 0.0
C1013 C 0.37568 0.98004 1.00495 0.0
C1014 C 0.39246 0.98877 0.04773 0.0
N1015 N 0.36556 0.9704 0.0196 0.0
C1016 C 0.39485 0.99389 0.01111 0.0
C1017 C 0.40387 0.99815 0.03278 0.0
H1018 H 0.36629 0.96485 0.05165 0.0
H1019 H 0.36964 0.97582 0.9882 0.0
C1020 C 0.30462 0.89183 0.94285 0.0
N1021 N 0.32203 0.89894 0.95682 0.0
C1022 C 0.3042 0.87801 0.92328 0.0
C1023 C 0.33949 0.87875 0.93326 0.0
C1024 C 0.33933 0.89291 0.95234 0.0
C1025 C 0.32182 0.87124 0.91833 0.0
H1026 H 0.29113 0.89702 0.9469 0.0
H1027 H 0.3531 0.89916 0.96345 0.0
O1028 O 0.32248 0.94737 0.03273 0.0
O1029 O 0.29782 0.90919 0.99815 0.0
O1030 O 0.32231 0.94875 0.98402 0.0
O1031 O 0.34505 0.91983 1.00487 0.0
H1032 H 0.32594 0.93967 0.0726 0.0
H1033 H 0.33095 0.99061 0.03461 0.0
H1034 H 0.33901 0.9683 0.10522 0.0
H1035 H 0.34366 0.0185 0.06815 0.0
H1036 H 0.27143 0.83632 0.99609 0.0
H1037 H 0.26502 0.91277 0.01632 0.0
H1038 H 0.29821 0.86712 0.98896 0.0
H1039 H 0.23878 0.88123 0.02279 0.0
H1040 H 0.25856 0.97516 0.04791 0.0
H1041 H 0.24478 0.96652 0.97879 0.0
H1042 H 0.36428 0.90774 0.07962 0.0
H1043 H 0.30153 0.87273 0.07698 0.0
H1044 H 0.33992 0.93922 0.94946 0.0
H1045 H 0.32408 0.99138 0.99163 0.0
H1046 H 0.35532 0.96639 0.92796 0.0
H1047 H 0.33994 0.01776 0.96943 0.0
H1048 H 0.38484 0.93492 0.00829 0.0
H1049 H 0.33662 0.8766 1.0034 0.0
H1050 H 0.40983 0.91197 0.00973 0.0
H1051 H 0.36251 0.85466 1.00509 0.0
H1052 H 0.39824 0.99148 0.0646 0.0
H1053 H 0.40283 0.99949 0.99834 0.0
H1054 H 0.29033 0.87296 0.91207 0.0
H1055 H 0.35333 0.87374 0.9303 0.0
Li1056 Li 0.3004 0.3962 0.03056 0.0
Li1057 Li 0.31531 0.37131 0.05246 0.0
Li1058 Li 0.3397 0.40125 0.03399 0.0
Li1059 Li 0.31513 0.36627 0.0115 0.0
C1060 C 0.31925 0.42045 0.07373 0.0
N1061 N 0.31652 0.45202 0.108 0.0
C1062 C 0.3094 0.4142 0.09092 0.0
C1063 C 0.32766 0.44269 0.07388 0.0
C1064 C 0.30821 0.43042 0.10813 0.0
C1065 C 0.32609 0.45843 0.09137 0.0
C1066 C 0.274 0.34791 0.0241 0.0
C1067 C 0.25544 0.31017 0.011 0.0
N1068 N 0.23774 0.31607 0.01387 0.0
C1069 C 0.25561 0.35358 0.02699 0.0
C1070 C 0.27395 0.32601 0.01614 0.0
C1071 C 0.23744 0.33725 0.02173 0.0
C1072 C 0.26919 0.41137 0.00763 0.0
N1073 N 0.27778 0.41054 0.02762 0.0
C1074 C 0.25248 0.42646 0.04351 0.0
C1075 C 0.26971 0.41791 0.04541 0.0
C1076 C 0.24338 0.42764 0.02311 0.0
C1077 C 0.25212 0.42014 1.00503 0.0
H1078 H 0.27533 0.40481 0.99359 0.0
H1079 H 0.2763 0.41666 0.06112 0.0
C1080 C 0.32666 0.36287 0.09581 0.0
N1081 N 0.31206 0.35704 0.07837 0.0
C1082 C 0.32362 0.354 0.11462 0.0
C1083 C 0.29092 0.33244 0.0971 0.0
C1084 C 0.29444 0.34199 0.07884 0.0
C1085 C 0.30538 0.33855 0.11588 0.0
H1086 H 0.34061 0.37489 0.09538 0.0
H1087 H 0.28286 0.33738 0.06503 0.0
C1088 C 0.31889 0.40965 0.9926 0.0
N1089 N 0.3167 0.43409 0.96063 0.0
C1090 C 0.31936 0.4003 0.97122 0.0
C1091 C 0.31749 0.43148 0.99778 0.0
C1092 C 0.31825 0.41293 0.95529 0.0
C1093 C 0.3163 0.44354 0.98135 0.0
C1094 C 0.34937 0.35391 0.02998 0.0
C1095 C 0.36895 0.36047 0.02456 0.0
C1096 C 0.3408 0.33168 0.02975 0.0
C1097 C 0.3796 0.3445 0.01865 0.0
C1098 C 0.35197 0.31622 0.02378 0.0
N1099 N 0.37096 0.32289 0.01837 0.0
C1100 C 0.3794 0.43087 0.05356 0.0
C1101 C 0.37455 0.42497 0.01569 0.0
C1102 C 0.39924 0.44393 0.05409 0.0
N1103 N 0.36739 0.42145 0.03455 0.0
C1104 C 0.39439 0.43786 0.01548 0.0
C1105 C 0.40743 0.44749 0.03487 0.0
H1106 H 0.37368 0.42809 0.06848 0.0
H1107 H 0.36502 0.41739 1.00061 0.0
C1108 C 0.29459 0.34022 0.97054 0.0
N1109 N 0.31261 0.34663 0.98376 0.0
C1110 C 0.29359 0.32971 0.94909 0.0
C1111 C 0.32948 0.33195 0.95533 0.0
C1112 C 0.32983 0.34255 0.97648 0.0
C1113 C 0.31132 0.32577 0.94108 0.0
H1114 H 0.28116 0.34422 0.97629 0.0
H1115 H 0.34418 0.34869 0.98659 0.0
O1116 O 0.32141 0.40477 0.05727 0.0
O1117 O 0.29191 0.36378 0.02881 0.0
O1118 O 0.31935 0.39733 0.00831 0.0
O1119 O 0.33854 0.36922 0.0351 0.0
H1120 H 0.30278 0.39703 0.091 0.0
H1121 H 0.33542 0.44771 0.0607 0.0
H1122 H 0.30072 0.42584 0.12161 0.0
H1123 H 0.33257 0.47573 0.09177 0.0
H1124 H 0.25516 0.29318 1.0047 0.0
H1125 H 0.25533 0.37038 0.03329 0.0
H1126 H 0.28804 0.32133 0.01381 0.0
H1127 H 0.22312 0.34143 0.02388 0.0
H1128 H 0.24633 0.43209 0.05792 0.0
H1129 H 0.24547 0.42043 0.98897 0.0
H1130 H 0.3355 0.35982 0.12811 0.0
H1131 H 0.2768 0.32026 0.09606 0.0
H1132 H 0.3206 0.3835 0.96692 0.0
H1133 H 0.31704 0.43889 0.01426 0.0
H1134 H 0.31857 0.40588 0.93868 0.0
H1135 H 0.31501 0.4604 0.98507 0.0
H1136 H 0.3757 0.37766 0.02461 0.0
H1137 H 0.32563 0.32643 0.03392 0.0
H1138 H 0.3947 0.34928 0.0142 0.0
H1139 H 0.34553 0.29891 0.02339 0.0
H1140 H 0.40801 0.45121 0.06964 0.0
H1141 H 0.39955 0.43967 1.00011 0.0
H1142 H 0.2792 0.32525 0.93876 0.0
H1143 H 0.34365 0.32985 0.94988 0.0
Li1144 Li 0.7865 0.16306 0.05063 0.0
Li1145 Li 0.80321 0.13771 0.0263 0.0
Li1146 Li 0.78525 0.16289 0.01285 0.0
Li1147 Li 0.76719 0.13066 0.0244 0.0
C1148 C 0.82457 0.18763 0.03135 0.0
N1149 N 0.85536 0.22299 0.02773 0.0
C1150 C 0.8442 0.18496 0.0297 0.0
C1151 C 0.82056 0.20828 0.03124 0.0
C1152 C 0.85957 0.20303 0.02787 0.0
C1153 C 0.83635 0.22595 0.02932 0.0
C1154 C 0.77998 0.11673 0.06229 0.0
C1155 C 0.76564 0.07946 0.06628 0.0
N1156 N 0.76517 0.08676 0.08753 0.0
C1157 C 0.7796 0.12382 0.0842 0.0
C1158 C 0.77339 0.09431 0.0533 0.0
C1159 C 0.77205 0.10844 0.0967 0.0
C1160 C 0.7705 0.17734 0.08764 0.0
N1161 N 0.78677 0.1813 0.07672 0.0
C1162 C 0.80217 0.21437 0.10167 0.0
C1163 C 0.80237 0.19939 0.08319 0.0
C1164 C 0.78599 0.21036 0.11395 0.0
C1165 C 0.76992 0.19157 0.10662 0.0
H1166 H 0.75805 0.16304 0.08161 0.0
H1167 H 0.81484 0.20234 0.07384 0.0
C1168 C 0.83207 0.12732 1.00304 0.0
N1169 N 0.82449 0.12508 0.02181 0.0
C1170 C 0.8485 0.11879 0.9981 0.0
C1171 C 0.84827 0.105 0.03154 0.0
C1172 C 0.83188 0.11397 0.03592 0.0
C1173 C 0.85689 0.10775 0.01259 0.0
H1174 H 0.82545 0.13602 0.9921 0.0
H1175 H 0.82518 0.11231 0.05055 0.0
C1176 C 0.74811 0.17182 0.02933 0.0
N1177 N 0.71902 0.19575 0.02664 0.0
C1178 C 0.72907 0.16203 0.01736 0.0
C1179 C 0.75231 0.19375 0.04006 0.0
C1180 C 0.71457 0.17441 0.01621 0.0
C1181 C 0.73742 0.20558 0.03843 0.0
C1182 C 0.77613 0.11833 0.98156 0.0
C1183 C 0.76368 0.12455 0.96619 0.0
C1184 C 0.78094 0.09789 0.97711 0.0
C1185 C 0.75614 0.11011 0.94663 0.0
C1186 C 0.77287 0.0838 0.95748 0.0
N1187 N 0.76078 0.09017 0.94275 0.0
C1188 C 0.79987 0.1772 0.97792 0.0
C1189 C 0.77218 0.19127 0.98895 0.0
C1190 C 0.79857 0.18535 0.95896 0.0
N1191 N 0.78631 0.17971 0.99196 0.0
C1192 C 0.77022 0.19951 0.97032 0.0
C1193 C 0.78307 0.19593 0.95478 0.0
H1194 H 0.81085 0.16773 0.98091 0.0
H1195 H 0.76157 0.19298 1.00018 0.0
C1196 C 0.73384 0.11099 0.03887 0.0
N1197 N 0.74368 0.10851 0.02138 0.0
C1198 C 0.71616 0.09574 0.04009 0.0
C1199 C 0.71883 0.07579 1.00498 0.0
C1200 C 0.73673 0.09133 1.00461 0.0
C1201 C 0.70831 0.07816 0.02281 0.0
H1202 H 0.73974 0.12502 0.05178 0.0
H1203 H 0.74461 0.08978 0.99078 0.0
O1204 O 0.80974 0.17034 0.0344 0.0
O1205 O 0.78737 0.13174 0.05001 0.0
O1206 O 0.76261 0.16006 0.0303 0.0
O1207 O 0.78383 0.13223 1.00076 0.0
H1208 H 0.84767 0.16923 0.03032 0.0
H1209 H 0.80548 0.21065 0.03281 0.0
H1210 H 0.87488 0.20123 0.02675 0.0
H1211 H 0.83352 0.24205 0.02924 0.0
H1212 H 0.76007 0.0621 0.05948 0.0
H1213 H 0.78542 0.14098 0.09156 0.0
H1214 H 0.77391 0.08853 0.03641 0.0
H1215 H 0.77172 0.11373 0.1137 0.0
H1216 H 0.81456 0.22898 0.10616 0.0
H1217 H 0.75719 0.18765 0.11553 0.0
H1218 H 0.85462 0.12082 0.98319 0.0
H1219 H 0.85444 0.0965 0.04302 0.0
H1220 H 0.7256 0.1451 0.00893 0.0
H1221 H 0.76706 0.20169 0.04912 0.0
H1222 H 0.69979 0.16708 0.00696 0.0
H1223 H 0.74053 0.22262 0.04645 0.0
H1224 H 0.75984 0.14032 0.96933 0.0
H1225 H 0.79049 0.09282 0.9889 0.0
H1226 H 0.74654 0.11471 0.93455 0.0
H1227 H 0.77619 0.0678 0.95395 0.0
H1228 H 0.8088 0.18251 0.94731 0.0
H1229 H 0.75779 0.20721 0.96752 0.0
H1230 H 0.70799 0.09856 0.05373 0.0
H1231 H 0.71274 0.06275 0.99114 0.0
Li1232 Li 0.1888 0.5726 0.25515 0.0
Li1233 Li 0.15898 0.54901 0.26238 0.0
Li1234 Li 0.18543 0.53412 0.24654 0.0
Li1235 Li 0.16304 0.55117 0.22636 0.0
C1236 C 0.20188 0.5599 0.29168 0.0
N1237 N 0.2327 0.57869 0.32524 0.0
C1238 C 0.19725 0.56678 0.31227 0.0
C1239 C 0.22216 0.56222 0.2882 0.0
C1240 C 0.21306 0.57632 0.32902 0.0
C1241 C 0.23753 0.57187 0.30537 0.0
C1242 C 0.15092 0.59034 0.2455 0.0
C1243 C 0.11933 0.60001 0.23665 0.0
N1244 N 0.12902 0.62173 0.24239 0.0
C1245 C 0.1606 0.61278 0.25109 0.0
C1246 C 0.13012 0.58389 0.23815 0.0
C1247 C 0.14926 0.62839 0.24949 0.0
C1248 C 0.21869 0.60609 0.25128 0.0
N1249 N 0.20652 0.59858 0.26543 0.0
C1250 C 0.22124 0.63005 0.29253 0.0
C1251 C 0.2072 0.60998 0.28564 0.0
C1252 C 0.23416 0.63771 0.27817 0.0
C1253 C 0.23333 0.62536 0.25762 0.0
H1254 H 0.21641 0.5977 0.23486 0.0
H1255 H 0.19635 0.60393 0.29597 0.0
C1256 C 0.13874 0.53131 0.29407 0.0
N1257 N 0.14182 0.54791 0.28274 0.0
C1258 C 0.12923 0.5336 0.3125 0.0
C1259 C 0.12599 0.56955 0.30639 0.0
C1260 C 0.13572 0.56672 0.2885 0.0
C1261 C 0.12316 0.5531 0.31867 0.0
H1262 H 0.14465 0.51701 0.28947 0.0
H1263 H 0.13957 0.58023 0.28027 0.0
C1264 C 0.20582 0.55634 0.21256 0.0
N1265 N 0.2322 0.56001 0.18197 0.0
C1266 C 0.19827 0.55185 0.19069 0.0
C1267 C 0.22685 0.56234 0.21882 0.0
C1268 C 0.21184 0.55385 0.17549 0.0
C1269 C 0.23991 0.56421 0.20313 0.0
C1270 C 0.13966 0.50791 0.2407 0.0
C1271 C 0.14212 0.4869 0.2422 0.0
C1272 C 0.12041 0.51212 0.24081 0.0
C1273 C 0.12525 0.47043 0.24406 0.0
C1274 C 0.10394 0.49526 0.24286 0.0
N1275 N 0.10668 0.47493 0.24439 0.0
C1276 C 0.19659 0.50208 0.26368 0.0
C1277 C 0.21389 0.51098 0.23425 0.0
C1278 C 0.20802 0.48715 0.26704 0.0
N1279 N 0.19966 0.51335 0.24741 0.0
C1280 C 0.22621 0.49691 0.23752 0.0
C1281 C 0.22313 0.48456 0.25389 0.0
H1282 H 0.18525 0.5048 0.274 0.0
H1283 H 0.21584 0.52006 0.22139 0.0
C1284 C 0.14788 0.56817 0.19277 0.0
N1285 N 0.14831 0.54973 0.20082 0.0
C1286 C 0.13434 0.56682 0.17468 0.0
C1287 C 0.12285 0.52743 0.1734 0.0
C1288 C 0.13655 0.52957 0.19145 0.0
C1289 C 0.1215 0.54626 0.16512 0.0
H1290 H 0.1576 0.5839 0.20077 0.0
H1291 H 0.13759 0.51525 0.19822 0.0
O1292 O 0.18661 0.55144 0.27493 0.0
O1293 O 0.16134 0.57491 0.24928 0.0
O1294 O 0.19268 0.55586 0.22772 0.0
O1295 O 0.15586 0.52387 0.23791 0.0
H1296 H 0.18161 0.56514 0.31518 0.0
H1297 H 0.22596 0.557 0.27233 0.0
H1298 H 0.20972 0.58195 0.345 0.0
H1299 H 0.2533 0.57402 0.30289 0.0
H1300 H 0.10319 0.59525 0.23114 0.0
H1301 H 0.17659 0.61818 0.25707 0.0
H1302 H 0.12233 0.56661 0.23405 0.0
H1303 H 0.15652 0.64579 0.25406 0.0
H1304 H 0.22135 0.63988 0.30818 0.0
H1305 H 0.24286 0.63149 0.24605 0.0
H1306 H 0.12744 0.52095 0.32225 0.0
H1307 H 0.12184 0.58498 0.31136 0.0
H1308 H 0.18213 0.54702 0.18543 0.0
H1309 H 0.233 0.56579 0.23566 0.0
H1310 H 0.20616 0.5506 0.15854 0.0
H1311 H 0.25619 0.56909 0.20777 0.0
H1312 H 0.15682 0.48322 0.24152 0.0
H1313 H 0.11824 0.52824 0.23936 0.0
H1314 H 0.12692 0.45405 0.24511 0.0
H1315 H 0.08896 0.4983 0.24312 0.0
H1316 H 0.20492 0.47768 0.27961 0.0
H1317 H 0.238 0.49577 0.22735 0.0
H1318 H 0.13357 0.58163 0.16854 0.0
H1319 H 0.11342 0.51129 0.16602 0.0
Li1320 Li 0.80043 0.8953 0.53076 0.0
Li1321 Li 0.81512 0.8701 0.55265 0.0
Li1322 Li 0.83968 0.89979 0.53364 0.0
Li1323 Li 0.81427 0.86514 0.51127 0.0
C1324 C 0.81925 0.91959 0.57337 0.0
N1325 N 0.81589 0.95159 0.60694 0.0
C1326 C 0.80942 0.9136 0.59066 0.0
C1327 C 0.8273 0.94181 0.57306 0.0
C1328 C 0.80792 0.93003 0.60751 0.0
C1329 C 0.82542 0.95776 0.59019 0.0
C1330 C 0.77342 0.84738 0.52467 0.0
C1331 C 0.7544 0.80983 0.51147 0.0
N1332 N 0.73682 0.81612 0.51415 0.0
C1333 C 0.75517 0.85345 0.52736 0.0
C1334 C 0.77307 0.82538 0.51678 0.0
C1335 C 0.73683 0.8374 0.52196 0.0
C1336 C 0.76987 0.90912 0.5065 0.0
N1337 N 0.77815 0.90997 0.52705 0.0
C1338 C 0.75403 0.92939 0.54063 0.0
C1339 C 0.77037 0.91965 0.54404 0.0
C1340 C 0.74579 0.92948 0.51957 0.0
C1341 C 0.75391 0.91912 0.50238 0.0
H1342 H 0.77566 0.90066 0.49318 0.0
H1343 H 0.7767 0.91972 0.56026 0.0
C1344 C 0.82917 0.85685 0.59286 0.0
N1345 N 0.81229 0.85634 0.57927 0.0
C1346 C 0.8275 0.84909 0.61243 0.0
C1347 C 0.79115 0.83994 0.60393 0.0
C1348 C 0.79347 0.84778 0.58446 0.0
C1349 C 0.8083 0.8407 0.6184 0.0
H1350 H 0.84404 0.86376 0.58877 0.0
H1351 H 0.78012 0.84752 0.57375 0.0
C1352 C 0.81832 0.9087 0.49274 0.0
N1353 N 0.81579 0.93357 0.46116 0.0
C1354 C 0.81885 0.89968 0.47127 0.0
C1355 C 0.8167 0.93044 0.49818 0.0
C1356 C 0.81755 0.91251 0.45555 0.0
C1357 C 0.81533 0.94271 0.48195 0.0
C1358 C 0.84851 0.85222 0.52809 0.0
C1359 C 0.86738 0.85882 0.52106 0.0
C1360 C 0.84046 0.83002 0.5285 0.0
C1361 C 0.87789 0.84295 0.51432 0.0
C1362 C 0.85146 0.81465 0.52164 0.0
N1363 N 0.86978 0.82138 0.51474 0.0
C1364 C 0.88307 0.92044 0.54941 0.0
C1365 C 0.87163 0.93088 0.51746 0.0
C1366 C 0.90307 0.9326 0.54885 0.0
N1367 N 0.86766 0.91955 0.53378 0.0
C1368 C 0.8914 0.94334 0.51635 0.0
C1369 C 0.90775 0.94426 0.53204 0.0
H1370 H 0.87996 0.91135 0.56224 0.0
H1371 H 0.85956 0.92997 0.50488 0.0
C1372 C 0.79188 0.84053 0.47079 0.0
N1373 N 0.81046 0.84595 0.48291 0.0
C1374 C 0.78945 0.83062 0.44897 0.0
C1375 C 0.82516 0.83161 0.4524 0.0
C1376 C 0.82691 0.8415 0.47408 0.0
C1377 C 0.80632 0.82638 0.4393 0.0
H1378 H 0.7791 0.84494 0.47772 0.0
H1379 H 0.84169 0.84664 0.48347 0.0
O1380 O 0.82175 0.90371 0.5573 0.0
O1381 O 0.79148 0.863 0.52931 0.0
O1382 O 0.81912 0.89623 0.50829 0.0
O1383 O 0.83796 0.86748 0.53451 0.0
H1384 H 0.80314 0.89646 0.59114 0.0
H1385 H 0.83504 0.94663 0.55979 0.0
H1386 H 0.80046 0.92564 0.62107 0.0
H1387 H 0.83163 0.97505 0.59023 0.0
H1388 H 0.75387 0.79278 0.50517 0.0
H1389 H 0.75514 0.87036 0.53356 0.0
H1390 H 0.78705 0.82043 0.51453 0.0
H1391 H 0.72261 0.84188 0.52394 0.0
H1392 H 0.74817 0.93718 0.55433 0.0
H1393 H 0.74781 0.91856 0.48591 0.0
H1394 H 0.84116 0.85013 0.62307 0.0
H1395 H 0.77603 0.83371 0.60782 0.0
H1396 H 0.82031 0.883 0.46675 0.0
H1397 H 0.81628 0.93765 0.51474 0.0
H1398 H 0.81794 0.90572 0.43888 0.0
H1399 H 0.81388 0.95949 0.48589 0.0
H1400 H 0.87372 0.87596 0.52056 0.0
H1401 H 0.82585 0.82474 0.53394 0.0
H1402 H 0.89247 0.84777 0.5087 0.0
H1403 H 0.84543 0.79737 0.52179 0.0
H1404 H 0.91479 0.93284 0.56162 0.0
H1405 H 0.8939 0.95166 0.50287 0.0
H1406 H 0.77466 0.82728 0.43958 0.0
H1407 H 0.8386 0.82855 0.44586 0.0
Li1408 Li 0.95337 0.0674 0.28458 0.0
Li1409 Li 0.92141 0.0392 0.26039 0.0
Li1410 Li 0.95162 0.06476 0.2402 0.0
Li1411 Li 0.92494 0.08612 0.26344 0.0
C1412 C 0.9656 0.02953 0.26302 0.0
N1413 N 0.99378 1.00545 0.27023 0.0
C1414 C 0.95942 1.00861 0.26809 0.0
C1415 C 0.98605 0.03817 0.26144 0.0
C1416 C 0.97392 0.99671 0.27173 0.0
C1417 C 1.00009 0.02574 0.26519 0.0
C1418 C 0.91202 0.0638 0.30278 0.0
C1419 C 0.88342 0.07046 0.32022 0.0
N1420 N 0.89068 0.06335 0.33774 0.0
C1421 C 0.91908 0.05635 0.32085 0.0
C1422 C 0.89403 0.07089 0.30241 0.0
C1423 C 0.90816 0.05637 0.33841 0.0
C1424 C 0.9813 0.0862 0.32862 0.0
N1425 N 0.97119 0.06743 0.31438 0.0
C1426 C 0.98164 0.0461 0.34044 0.0
C1427 C 0.97154 0.0476 0.32027 0.0
C1428 C 0.99207 0.06511 0.35559 0.0
C1429 C 0.99171 0.08541 0.34893 0.0
H1430 H 0.98113 0.10207 0.32451 0.0
H1431 H 0.9634 0.03256 0.30957 0.0
C1432 C 0.89853 0.99085 0.24087 0.0
N1433 N 0.90355 1.0059 0.25975 0.0
C1434 C 0.88831 0.96832 0.23995 0.0
C1435 C 0.88809 0.97587 0.27787 0.0
C1436 C 0.89828 0.99841 0.2781 0.0
C1437 C 0.88283 0.95975 0.2586 0.0
H1438 H 0.90266 0.99616 0.22617 0.0
H1439 H 0.90227 0.00979 0.29333 0.0
C1440 C 0.97258 0.11058 0.27007 0.0
N1441 N 1.00423 0.14796 0.27989 0.0
C1442 C 0.96903 0.13115 0.26837 0.0
C1443 C 0.9922 0.10899 0.27678 0.0
C1444 C 0.98524 0.14986 0.27339 0.0
C1445 C 1.00801 0.1281 0.28168 0.0
C1446 C 0.90649 0.05749 0.21916 0.0
C1447 C 0.91347 0.06449 0.20084 0.0
C1448 C 0.88584 0.04836 0.2191 0.0
C1449 C 0.89958 0.0621 0.18258 0.0
C1450 C 0.8724 0.04635 0.20054 0.0
N1451 N 0.8795 0.05317 0.18281 0.0
C1452 C 0.96397 0.04483 0.19534 0.0
C1453 C 0.98162 0.08154 0.20772 0.0
C1454 C 0.97408 0.04389 0.17632 0.0
N1455 N 0.96762 0.06351 0.21107 0.0
C1456 C 0.99206 0.08124 0.18903 0.0
C1457 C 0.98874 0.06221 0.17245 0.0
H1458 H 0.95306 0.03024 0.19735 0.0
H1459 H 0.98489 0.0966 0.21959 0.0
C1460 C 0.91429 0.13176 0.28241 0.0
N1461 N 0.90909 0.11434 0.26525 0.0
C1462 C 0.90507 0.15027 0.28414 0.0
C1463 C 0.88439 0.13377 0.25091 0.0
C1464 C 0.89411 0.11555 0.24967 0.0
C1465 C 0.88965 0.15218 0.2683 0.0
H1466 H 0.92589 0.13162 0.29514 0.0
H1467 H 0.88946 0.10233 0.2358 0.0
O1468 O 0.95171 0.04154 0.25967 0.0
O1469 O 0.92292 0.06485 0.28579 0.0
O1470 O 0.9568 0.09218 0.26559 0.0
O1471 O 0.91989 0.05941 0.23703 0.0
H1472 H 0.94364 1.00174 0.2694 0.0
H1473 H 0.99102 0.05432 0.25742 0.0
H1474 H 0.96938 0.98054 0.27579 0.0
H1475 H 0.01599 0.03222 0.2641 0.0
H1476 H 0.86946 0.07587 0.32016 0.0
H1477 H 0.9328 0.05061 0.32134 0.0
H1478 H 0.88839 0.07674 0.28853 0.0
H1479 H 0.91356 0.05082 0.35257 0.0
H1480 H 0.98128 0.02989 0.34396 0.0
H1481 H 0.99904 0.10086 0.35955 0.0
H1482 H 0.88476 0.95785 0.22425 0.0
H1483 H 0.88475 0.97122 0.29304 0.0
H1484 H 0.95391 0.13264 0.26322 0.0
H1485 H 0.99516 0.09321 0.27836 0.0
H1486 H 0.98271 0.16589 0.27215 0.0
H1487 H 0.02328 0.12715 0.28694 0.0
H1488 H 0.92945 0.07165 0.20073 0.0
H1489 H 0.88028 0.0429 0.23323 0.0
H1490 H 0.90475 0.06736 0.16823 0.0
H1491 H 0.85634 0.03932 0.20021 0.0
H1492 H 0.97055 0.02854 0.16483 0.0
H1493 H 1.00263 0.09631 0.18763 0.0
H1494 H 0.91012 0.16305 0.29832 0.0
H1495 H 0.87295 0.13349 0.23785 0.0
Li1496 Li 0.28582 0.66223 0.5478 0.0
Li1497 Li 0.30266 0.63783 0.52335 0.0
Li1498 Li 0.28299 0.66218 0.50977 0.0
Li1499 Li 0.26669 0.6291 0.52161 0.0
C1500 C 0.32368 0.68816 0.53137 0.0
N1501 N 0.3557 0.72414 0.53305 0.0
C1502 C 0.34349 0.6855 0.53158 0.0
C1503 C 0.32011 0.7091 0.53213 0.0
C1504 C 0.35949 0.7039 0.53248 0.0
C1505 C 0.33652 0.72709 0.53286 0.0
C1506 C 0.27932 0.61677 0.56005 0.0
C1507 C 0.26594 0.5799 0.56578 0.0
N1508 N 0.26457 0.58816 0.58659 0.0
C1509 C 0.27784 0.62488 0.58149 0.0
C1510 C 0.27359 0.59409 0.55215 0.0
C1511 C 0.27039 0.61016 0.59467 0.0
C1512 C 0.26975 0.68197 0.58255 0.0
N1513 N 0.28723 0.68076 0.57417 0.0
C1514 C 0.30712 0.70627 0.60429 0.0
C1515 C 0.30568 0.69271 0.58438 0.0
C1516 C 0.28937 0.70748 0.61343 0.0
C1517 C 0.27047 0.69545 0.60237 0.0
H1518 H 0.25531 0.6721 0.57404 0.0
H1519 H 0.31926 0.69133 0.57724 0.0
C1520 C 0.3299 0.62315 0.49935 0.0
N1521 N 0.32408 0.62517 0.5193 0.0
C1522 C 0.34445 0.61156 0.49449 0.0
C1523 C 0.34723 0.60529 0.53118 0.0
C1524 C 0.33226 0.61658 0.53518 0.0
C1525 C 0.35323 0.6026 0.51057 0.0
H1526 H 0.32291 0.63018 0.48713 0.0
H1527 H 0.32694 0.61829 0.55076 0.0
C1528 C 0.24717 0.67075 0.52804 0.0
N1529 N 0.21927 0.6962 0.52621 0.0
C1530 C 0.22672 0.66081 0.52051 0.0
C1531 C 0.25343 0.69362 0.53469 0.0
C1532 C 0.21286 0.67397 0.51967 0.0
C1533 C 0.23908 0.7062 0.53366 0.0
C1534 C 0.27818 0.61745 0.47871 0.0
C1535 C 0.26865 0.62304 0.46072 0.0
C1536 C 0.28222 0.59661 0.47722 0.0
C1537 C 0.26307 0.60756 0.44157 0.0
C1538 C 0.27625 0.58155 0.4578 0.0
N1539 N 0.26689 0.58729 0.44054 0.0
C1540 C 0.29826 0.68782 0.48085 0.0
C1541 C 0.26273 0.68165 0.48245 0.0
C1542 C 0.29672 0.69975 0.46452 0.0
N1543 N 0.28138 0.67936 0.4895 0.0
C1544 C 0.26057 0.69378 0.46662 0.0
C1545 C 0.27767 0.70275 0.45759 0.0
H1546 H 0.3127 0.68477 0.48622 0.0
H1547 H 0.2494 0.67328 0.48831 0.0
C1548 C 0.23231 0.60636 0.5334 0.0
N1549 N 0.24325 0.60632 0.51666 0.0
C1550 C 0.21301 0.59271 0.53095 0.0
C1551 C 0.21698 0.57827 0.49434 0.0
C1552 C 0.23613 0.59246 0.49746 0.0
C1553 C 0.20484 0.57905 0.5109 0.0
H1554 H 0.23812 0.61807 0.54823 0.0
H1555 H 0.24446 0.59311 0.48402 0.0
O1556 O 0.30794 0.67023 0.53042 0.0
O1557 O 0.28727 0.631 0.54726 0.0
O1558 O 0.26101 0.65811 0.52816 0.0
O1559 O 0.28301 0.63208 0.49781 0.0
H1560 H 0.34649 0.66939 0.53115 0.0
H1561 H 0.30483 0.71139 0.53193 0.0
H1562 H 0.37492 0.7021 0.53271 0.0
H1563 H 0.33401 0.74339 0.53328 0.0
H1564 H 0.26119 0.56231 0.55984 0.0
H1565 H 0.28275 0.64233 0.58804 0.0
H1566 H 0.27486 0.58756 0.53563 0.0
H1567 H 0.26932 0.61622 0.61134 0.0
H1568 H 0.32191 0.71526 0.61273 0.0
H1569 H 0.25659 0.69591 0.60932 0.0
H1570 H 0.34898 0.60981 0.47851 0.0
H1571 H 0.35384 0.59845 0.54384 0.0
H1572 H 0.22166 0.64315 0.51505 0.0
H1573 H 0.26922 0.70157 0.54041 0.0
H1574 H 0.19701 0.66652 0.51374 0.0
H1575 H 0.2437 0.72392 0.5387 0.0
H1576 H 0.26537 0.63903 0.46157 0.0
H1577 H 0.28929 0.59191 0.49108 0.0
H1578 H 0.2556 0.61163 0.42756 0.0
H1579 H 0.27894 0.56524 0.4565 0.0
H1580 H 0.30999 0.70613 0.45713 0.0
H1581 H 0.24561 0.69536 0.46083 0.0
H1582 H 0.20403 0.59445 0.54406 0.0
H1583 H 0.21119 0.56806 0.47865 0.0
Li1584 Li 0.42085 0.53815 0.75956 0.0
Li1585 Li 0.45319 0.56643 0.78379 0.0
Li1586 Li 0.42461 0.58538 0.76268 0.0
Li1587 Li 0.45106 0.56399 0.73913 0.0
C1588 C 0.41256 0.56301 0.80249 0.0
N1589 N 0.39273 0.56234 0.83848 0.0
C1590 C 0.41913 0.55331 0.81916 0.0
C1591 C 0.39584 0.57224 0.80401 0.0
C1592 C 0.40898 0.55326 0.8373 0.0
C1593 C 0.38597 0.57166 0.82232 0.0
C1594 C 0.46442 0.52759 0.75992 0.0
C1595 C 0.49749 0.52084 0.75636 0.0
N1596 N 0.49182 0.50198 0.76425 0.0
C1597 C 0.45886 0.5081 0.76787 0.0
C1598 C 0.48383 0.53401 0.754 0.0
C1599 C 0.47295 0.49538 0.76996 0.0
C1600 C 0.39306 0.48968 0.74227 0.0
N1601 N 0.40294 0.50485 0.7602 0.0
C1602 C 0.39266 0.47585 0.78133 0.0
C1603 C 0.40252 0.49785 0.77956 0.0
C1604 C 0.3824 0.45973 0.76317 0.0
C1605 C 0.38273 0.46751 0.74342 0.0
H1606 H 0.39331 0.49449 0.7267 0.0
H1607 H 0.41029 0.50923 0.79398 0.0
C1608 C 0.46985 0.57833 0.83323 0.0
N1609 N 0.47113 0.56602 0.81371 0.0
C1610 C 0.4796 0.57524 0.85309 0.0
C1611 C 0.49269 0.54744 0.83318 0.0
C1612 C 0.48298 0.5512 0.81385 0.0
C1613 C 0.49094 0.55906 0.85362 0.0
H1614 H 0.46062 0.59019 0.83372 0.0
H1615 H 0.48485 0.54165 0.79894 0.0
C1616 C 0.4059 0.55701 0.71841 0.0
N1617 N 0.379 0.55349 0.68219 0.0
C1618 C 0.41297 0.56432 0.70025 0.0
C1619 C 0.38522 0.54797 0.71826 0.0
C1620 C 0.39911 0.56234 0.68205 0.0
C1621 C 0.37183 0.54637 0.69977 0.0
C1622 C 0.47223 0.60973 0.76923 0.0
C1623 C 0.46859 0.6303 0.76771 0.0
C1624 C 0.4919 0.60818 0.77581 0.0
C1625 C 0.48473 0.64906 0.77286 0.0
C1626 C 0.50765 0.62735 0.78081 0.0
N1627 N 0.50376 0.64721 0.77926 0.0
C1628 C 0.41499 0.6321 0.78061 0.0
C1629 C 0.3927 0.61401 0.74967 0.0
C1630 C 0.40586 0.65069 0.78199 0.0
N1631 N 0.40875 0.61372 0.76446 0.0
C1632 C 0.38293 0.63219 0.75073 0.0
C1633 C 0.38932 0.65154 0.76699 0.0
H1634 H 0.42743 0.63274 0.79272 0.0
H1635 H 0.38723 0.60006 0.73659 0.0
C1636 C 0.46506 0.5442 0.69495 0.0
N1637 N 0.46731 0.56313 0.71003 0.0
C1638 C 0.47534 0.5436 0.67602 0.0
C1639 C 0.49061 0.58185 0.68748 0.0
C1640 C 0.4801 0.58177 0.70612 0.0
C1641 C 0.48871 0.56259 0.67151 0.0
H1642 H 0.45516 0.52912 0.69739 0.0
H1643 H 0.48229 0.59705 0.71749 0.0
O1644 O 0.42269 0.56401 0.78495 0.0
O1645 O 0.45115 0.54067 0.75847 0.0
O1646 O 0.41925 0.55854 0.73621 0.0
O1647 O 0.45649 0.59129 0.76478 0.0
H1648 H 0.43192 0.5459 0.81811 0.0
H1649 H 0.3906 0.5798 0.79119 0.0
H1650 H 0.41401 0.54598 0.85043 0.0
H1651 H 0.37298 0.57871 0.82372 0.0
H1652 H 0.51263 0.52567 0.75203 0.0
H1653 H 0.44396 0.50303 0.77267 0.0
H1654 H 0.48837 0.54917 0.74796 0.0
H1655 H 0.46892 0.48033 0.77624 0.0
H1656 H 0.3931 0.47157 0.79715 0.0
H1657 H 0.37549 0.45632 0.72865 0.0
H1658 H 0.47754 0.58496 0.868 0.0
H1659 H 0.50155 0.53521 0.83195 0.0
H1660 H 0.42897 0.57139 0.70021 0.0
H1661 H 0.3796 0.54227 0.73226 0.0
H1662 H 0.40435 0.56784 0.66782 0.0
H1663 H 0.35575 0.53942 0.69937 0.0
H1664 H 0.45345 0.63175 0.7626 0.0
H1665 H 0.49493 0.59237 0.77716 0.0
H1666 H 0.48213 0.6651 0.77179 0.0
H1667 H 0.52295 0.62644 0.78598 0.0
H1668 H 0.41185 0.66446 0.79517 0.0
H1669 H 0.3706 0.63118 0.73834 0.0
H1670 H 0.47287 0.52801 0.66508 0.0
H1671 H 0.50004 0.59743 0.68566 0.0
Li1672 Li 0.65786 0.05061 0.76001 0.0
Li1673 Li 0.68938 0.07353 0.75313 0.0
Li1674 Li 0.66302 0.05181 0.72425 0.0
Li1675 Li 0.68404 0.03398 0.74615 0.0
C1676 C 0.65174 0.09263 0.74576 0.0
N1677 N 0.63019 0.12473 0.74661 0.0
C1678 C 0.66078 0.11421 0.75637 0.0
C1679 C 0.63181 0.08738 0.7354 0.0
C1680 C 0.64963 0.13021 0.75662 0.0
C1681 C 0.62114 0.10384 0.73611 0.0
C1682 C 0.7002 0.05934 0.79071 0.0
C1683 C 0.73559 0.06782 0.80525 0.0
N1684 N 0.73073 0.07469 0.82508 0.0
C1685 C 0.69553 0.0663 0.81128 0.0
C1686 C 0.72037 0.05992 0.78767 0.0
C1687 C 0.71119 0.07403 0.82844 0.0
C1688 C 0.64241 0.03512 0.79414 0.0
N1689 N 0.64068 0.04931 0.78062 0.0
C1690 C 0.62727 0.07171 0.80615 0.0
C1691 C 0.63233 0.06661 0.78574 0.0
C1692 C 0.63061 0.05861 0.82125 0.0
C1693 C 0.63718 0.03938 0.81478 0.0
H1694 H 0.6497 0.02187 0.78965 0.0
H1695 H 0.63146 0.07779 0.77492 0.0
C1696 C 0.72085 0.1049 0.74672 0.0
N1697 N 0.70977 0.09849 0.76219 0.0
C1698 C 0.73917 0.12032 0.75234 0.0
C1699 C 0.73299 0.1243 0.78961 0.0
C1700 C 0.71497 0.10825 0.78323 0.0
C1701 C 0.74521 0.13035 0.77396 0.0
H1702 H 0.71529 0.09824 0.73001 0.0
H1703 H 0.70505 0.10379 0.79493 0.0
C1704 C 0.63855 1.00879 0.7393 0.0
N1705 N 0.60591 0.97562 0.74341 0.0
C1706 C 0.64121 0.98783 0.7407 0.0
C1707 C 0.61927 0.01287 0.7397 0.0
C1708 C 0.62452 0.97127 0.74278 0.0
C1709 C 0.60297 0.9959 0.74197 0.0
C1710 C 0.70624 0.05525 0.71194 0.0
C1711 C 0.69927 0.0512 0.68995 0.0
C1712 C 0.72716 0.06136 0.71881 0.0
C1713 C 0.71327 0.05402 0.67527 0.0
C1714 C 0.74068 0.06411 0.70364 0.0
N1715 N 0.73352 0.06047 0.68236 0.0
C1716 C 0.65271 0.0704 0.69003 0.0
C1717 C 0.63735 0.03229 0.68743 0.0
C1718 C 0.64242 0.07038 0.67016 0.0
N1719 N 0.6499 0.05152 0.69804 0.0
C1720 C 0.6268 0.03148 0.66755 0.0
C1721 C 0.62927 0.05073 0.65882 0.0
H1722 H 0.66286 0.08537 0.69916 0.0
H1723 H 0.6356 0.01765 0.69445 0.0
C1724 C 0.69332 1.00336 0.76701 0.0
N1725 N 0.69793 0.01331 0.75012 0.0
C1726 C 0.70539 0.99043 0.7743 0.0
C1727 C 0.72704 0.99911 0.74703 0.0
C1728 C 0.71429 0.01147 0.74001 0.0
C1729 C 0.7225 0.98828 0.76427 0.0
H1730 H 0.68053 1.00599 0.7751 0.0
H1731 H 0.71777 0.02006 0.72699 0.0
O1732 O 0.66215 0.07662 0.74634 0.0
O1733 O 0.68521 0.05323 0.7735 0.0
O1734 O 0.65454 0.02476 0.73611 0.0
O1735 O 0.69265 0.0544 0.72664 0.0
H1736 H 0.67615 0.1185 0.76456 0.0
H1737 H 0.62454 0.07067 0.72735 0.0
H1738 H 0.6564 0.14696 0.76486 0.0
H1739 H 0.60562 0.09999 0.7284 0.0
H1740 H 0.7513 0.06869 0.80308 0.0
H1741 H 0.68006 0.06633 0.81387 0.0
H1742 H 0.72428 0.05494 0.77181 0.0
H1743 H 0.70782 0.07972 0.84439 0.0
H1744 H 0.62251 0.08684 0.8105 0.0
H1745 H 0.63958 0.0287 0.82594 0.0
H1746 H 0.74748 0.12599 0.73971 0.0
H1747 H 0.73662 0.13304 0.80613 0.0
H1748 H 0.65592 0.98425 0.73971 0.0
H1749 H 0.61694 0.02894 0.73825 0.0
H1750 H 0.62635 0.95492 0.74375 0.0
H1751 H 0.58796 0.99881 0.74244 0.0
H1752 H 0.68325 0.04604 0.68417 0.0
H1753 H 0.73288 0.06444 0.73575 0.0
H1754 H 0.70803 0.05117 0.65823 0.0
H1755 H 0.75688 0.06925 0.70879 0.0
H1756 H 0.64441 0.08554 0.66393 0.0
H1757 H 0.61689 0.01601 0.65907 0.0
H1758 H 0.70131 0.98212 0.78746 0.0
H1759 H 0.74035 0.99812 0.73916 0.0
Li1760 Li 0.79454 0.71415 0.02285 0.0
Li1761 Li 0.80841 0.68332 1.00479 0.0
Li1762 Li 0.79333 0.70848 0.98184 0.0
Li1763 Li 0.76878 0.67959 1.00092 0.0
C1764 C 0.83464 0.73212 0.01229 0.0
N1765 N 0.86946 0.76526 0.02692 0.0
C1766 C 0.85164 0.72751 0.02289 0.0
C1767 C 0.83537 0.75356 0.00908 0.0
C1768 C 0.8691 0.7445 0.03016 0.0
C1769 C 0.85311 0.7701 0.01665 0.0
C1770 C 0.78927 0.67108 0.04248 0.0
C1771 C 0.78174 0.63606 0.05401 0.0
N1772 N 0.79039 0.64626 0.0743 0.0
C1773 C 0.79812 0.68121 0.06345 0.0
C1774 C 0.78107 0.64832 0.03767 0.0
C1775 C 0.79854 0.66838 0.0793 0.0
C1776 C 0.77998 0.7343 0.05969 0.0
N1777 N 0.79737 0.73353 0.05086 0.0
C1778 C 0.81728 0.75011 0.08513 0.0
C1779 C 0.81587 0.74184 0.06304 0.0
C1780 C 0.79952 0.75017 0.09474 0.0
C1781 C 0.78073 0.74282 0.08162 0.0
H1782 H 0.76542 0.72686 0.05007 0.0
H1783 H 0.82952 0.74042 0.05613 0.0
C1784 C 0.84335 0.66698 0.99305 0.0
N1785 N 0.83064 0.66829 0.00834 0.0
C1786 C 0.86034 0.65817 0.99629 0.0
C1787 C 0.85088 0.65188 0.03076 0.0
C1788 C 0.83431 0.66103 0.027 0.0
C1789 C 0.86442 0.65043 0.01545 0.0
H1790 H 0.84058 0.67327 0.97851 0.0
H1791 H 0.82469 0.6626 0.03934 0.0
C1792 C 0.75961 0.72668 1.00438 0.0
N1793 N 0.73661 0.75684 0.01356 0.0
C1794 C 0.73854 0.71953 1.00312 0.0
C1795 C 0.76905 0.74912 0.01026 0.0
C1796 C 0.72715 0.73505 0.00774 0.0
C1797 C 0.75714 0.76412 0.01496 0.0
C1798 C 0.78516 0.65894 0.96032 0.0
C1799 C 0.77882 0.66299 0.94016 0.0
C1800 C 0.78959 0.63878 0.96205 0.0
C1801 C 0.77716 0.64678 0.92193 0.0
C1802 C 0.78765 0.62294 0.94344 0.0
N1803 N 0.78157 0.62726 0.92394 0.0
C1804 C 0.8108 0.71718 0.94282 0.0
C1805 C 0.78364 0.734 0.94832 0.0
C1806 C 0.8128 0.72452 0.92313 0.0
N1807 N 0.79616 0.72161 0.95496 0.0
C1808 C 0.78533 0.74195 0.92882 0.0
C1809 C 0.79986 0.73694 0.9156 0.0
H1810 H 0.82078 0.70749 0.94821 0.0
H1811 H 0.77205 0.73748 0.95798 0.0
C1812 C 0.73544 0.65888 0.02198 0.0
N1813 N 0.74093 0.66023 1.00202 0.0
C1814 C 0.7163 0.64623 0.02471 0.0
C1815 C 0.70798 0.63673 0.98631 0.0
C1816 C 0.72751 0.6493 0.9843 0.0
C1817 C 0.70178 0.63502 1.0068 0.0
H1818 H 0.74594 0.66781 0.03603 0.0
H1819 H 0.73177 0.65057 0.96847 0.0
O1820 O 0.81757 0.71559 1.00463 0.0
O1821 O 0.78901 0.68328 0.02664 0.0
O1822 O 0.77087 0.71165 0.99994 0.0
O1823 O 0.78758 0.67491 0.97819 0.0
H1824 H 0.85137 0.71103 0.02552 0.0
H1825 H 0.82238 0.75735 1.00079 0.0
H1826 H 0.88237 0.74117 0.03836 0.0
H1827 H 0.85389 0.78678 0.01431 0.0
H1828 H 0.77542 0.61843 0.05054 0.0
H1829 H 0.80484 0.69869 0.06743 0.0
H1830 H 0.77434 0.64022 0.02147 0.0
H1831 H 0.80541 0.67601 0.09557 0.0
H1832 H 0.83203 0.75528 0.09484 0.0
H1833 H 0.7667 0.74216 0.08855 0.0
H1834 H 0.8704 0.65792 0.98406 0.0
H1835 H 0.85291 0.64594 0.04565 0.0
H1836 H 0.73107 0.70218 0.99851 0.0
H1837 H 0.7854 0.75483 0.01141 0.0
H1838 H 0.7108 0.72978 1.00672 0.0
H1839 H 0.7642 0.78155 0.01972 0.0
H1840 H 0.77523 0.67849 0.93859 0.0
H1841 H 0.79458 0.63548 0.97759 0.0
H1842 H 0.77238 0.64973 0.9062 0.0
H1843 H 0.79104 0.60725 0.9445 0.0
H1844 H 0.82443 0.72044 0.91381 0.0
H1845 H 0.77492 0.75137 0.92382 0.0
H1846 H 0.7131 0.64537 0.04095 0.0
H1847 H 0.69773 0.62891 0.97176 0.0
Li1848 Li 0.91617 0.50658 0.78421 0.0
Li1849 Li 0.94215 0.52888 0.81162 0.0
Li1850 Li 0.92083 0.54495 0.78812 0.0
Li1851 Li 0.94661 0.52639 0.77487 0.0
C1852 C 0.89857 0.51825 0.82221 0.0
N1853 N 0.87109 0.50246 0.84878 0.0
C1854 C 0.9037 0.50557 0.83689 0.0
C1855 C 0.87946 0.52291 0.82101 0.0
C1856 C 0.88966 0.49785 0.85029 0.0
C1857 C 0.86571 0.51462 0.83447 0.0
C1858 C 0.95434 0.48839 0.79479 0.0
C1859 C 0.9866 0.47868 0.79681 0.0
N1860 N 0.97686 0.4574 0.7966 0.0
C1861 C 0.94469 0.4665 0.79495 0.0
C1862 C 0.9755 0.49464 0.79604 0.0
C1863 C 0.95633 0.45106 0.79579 0.0
C1864 C 0.90518 0.46769 0.75773 0.0
N1865 N 0.89828 0.4805 0.77324 0.0
C1866 C 0.86557 0.45652 0.76641 0.0
C1867 C 0.87885 0.47569 0.77749 0.0
C1868 C 0.87275 0.4423 0.75139 0.0
C1869 C 0.89256 0.44809 0.74657 0.0
H1870 H 0.92058 0.47268 0.75428 0.0
H1871 H 0.87369 0.48666 0.78931 0.0
C1872 C 0.96775 0.55326 0.84683 0.0
N1873 N 0.95735 0.53247 0.83755 0.0
C1874 C 0.9822 0.55658 0.86463 0.0
C1875 C 0.97458 0.51698 0.86276 0.0
C1876 C 0.96031 0.51446 0.84509 0.0
C1877 C 0.9857 0.53824 0.87259 0.0
H1878 H 0.96519 0.56712 0.84002 0.0
H1879 H 0.95198 0.49814 0.8371 0.0
C1880 C 0.90546 0.51389 0.74404 0.0
N1881 N 0.87743 0.49238 0.70858 0.0
C1882 C 0.91198 0.50676 0.72448 0.0
C1883 C 0.88464 0.51051 0.7454 0.0
C1884 C 0.89759 0.49596 0.70674 0.0
C1885 C 0.87072 0.49932 0.7274 0.0
C1886 C 0.96652 0.56898 0.79213 0.0
C1887 C 0.96288 0.58669 0.78319 0.0
C1888 C 0.98642 0.56721 0.79689 0.0
C1889 C 0.97932 0.60237 0.77902 0.0
C1890 C 1.00245 0.5832 0.79243 0.0
N1891 N 0.9986 0.6003 0.78368 0.0
C1892 C 0.9059 0.58118 0.80261 0.0
C1893 C 0.9006 0.56735 0.76492 0.0
C1894 C 0.89615 0.59772 0.79964 0.0
N1895 N 0.90795 0.56665 0.78527 0.0
C1896 C 0.89039 0.58316 0.76126 0.0
C1897 C 0.88836 0.59864 0.77872 0.0
H1898 H 0.91201 0.57997 0.81856 0.0
H1899 H 0.90296 0.55592 0.75146 0.0
C1900 C 0.96259 0.50132 0.74709 0.0
N1901 N 0.96299 0.52282 0.75415 0.0
C1902 C 0.96912 0.49485 0.7278 0.0
C1903 C 0.97612 0.53287 0.72298 0.0
C1904 C 0.96988 0.53873 0.74283 0.0
C1905 C 0.97501 0.51053 0.71512 0.0
H1906 H 0.95537 0.48872 0.75519 0.0
H1907 H 0.96878 0.55542 0.74817 0.0
O1908 O 0.9125 0.5272 0.80992 0.0
O1909 O 0.94293 0.50305 0.79136 0.0
O1910 O 0.91939 0.52463 0.76159 0.0
O1911 O 0.95069 0.55388 0.7969 0.0
H1912 H 0.91839 0.50184 0.83807 0.0
H1913 H 0.8753 0.53279 0.80976 0.0
H1914 H 0.89353 0.48821 0.8619 0.0
H1915 H 0.85082 0.51798 0.83363 0.0
H1916 H 1.00295 0.48317 0.79735 0.0
H1917 H 0.92834 0.46139 0.7941 0.0
H1918 H 0.98317 0.51147 0.79566 0.0
H1919 H 0.94902 0.434 0.79562 0.0
H1920 H 0.85045 0.45183 0.77092 0.0
H1921 H 0.8985 0.43695 0.73554 0.0
H1922 H 0.99052 0.57317 0.87206 0.0
H1923 H 0.97718 0.50249 0.86844 0.0
H1924 H 0.92798 0.50966 0.72292 0.0
H1925 H 0.87931 0.51618 0.76034 0.0
H1926 H 0.90245 0.49042 0.6915 0.0
H1927 H 0.85458 0.4962 0.72836 0.0
H1928 H 0.94754 0.58836 0.77957 0.0
H1929 H 0.98943 0.55365 0.80398 0.0
H1930 H 0.97675 0.61619 0.77212 0.0
H1931 H 0.01795 0.58205 0.79599 0.0
H1932 H 0.89463 0.60956 0.81337 0.0
H1933 H 0.88467 0.58369 0.74493 0.0
H1934 H 0.96816 0.47752 0.72219 0.0
H1935 H 0.98025 0.54534 0.71329 0.0
Li1936 Li 0.82278 0.41707 0.52196 0.0
Li1937 Li 0.80467 0.44199 0.50707 0.0
Li1938 Li 0.82242 0.41701 0.48411 0.0
Li1939 Li 0.84099 0.44954 0.5112 0.0
C1940 C 0.78414 0.39187 0.50322 0.0
N1941 N 0.75427 0.35699 0.50963 0.0
C1942 C 0.76719 0.39578 0.51257 0.0
C1943 C 0.7859 0.37028 0.49702 0.0
C1944 C 0.75225 0.3779 0.51569 0.0
C1945 C 0.77064 0.35285 0.50047 0.0
C1946 C 0.83111 0.46288 0.55191 0.0
C1947 C 0.84515 0.50069 0.56953 0.0
N1948 N 0.84812 0.49393 0.58856 0.0
C1949 C 0.83395 0.45638 0.57175 0.0
C1950 C 0.83635 0.48528 0.55087 0.0
C1951 C 0.84266 0.47228 0.59005 0.0
C1952 C 0.84508 0.40688 0.55299 0.0
N1953 N 0.82546 0.40178 0.54372 0.0
C1954 C 0.81427 0.38377 0.572 0.0
C1955 C 0.81003 0.39043 0.55263 0.0
C1956 C 0.83439 0.38955 0.58206 0.0
C1957 C 0.84995 0.40083 0.5723 0.0
H1958 H 0.85683 0.41689 0.54612 0.0
H1959 H 0.7945 0.38744 0.54536 0.0
C1960 C 0.77026 0.45446 0.49127 0.0
N1961 N 0.78317 0.4553 0.50907 0.0
C1962 C 0.7543 0.46478 0.49293 0.0
C1963 C 0.76567 0.47686 0.5311 0.0
C1964 C 0.7812 0.46609 0.52873 0.0
C1965 C 0.75188 0.4762 0.51307 0.0
H1966 H 0.77235 0.44569 0.47588 0.0
H1967 H 0.79168 0.46637 0.5426 0.0
C1968 C 0.85949 0.40752 0.5045 0.0
N1969 N 0.88763 0.38224 0.50438 0.0
C1970 C 0.88015 0.41739 0.50537 0.0
C1971 C 0.85311 0.38478 0.50341 0.0
C1972 C 0.89415 0.40433 0.50533 0.0
C1973 C 0.86759 0.37228 0.5034 0.0
C1974 C 0.82997 0.46294 0.472 0.0
C1975 C 0.84177 0.45674 0.45634 0.0
C1976 C 0.82563 0.48363 0.47421 0.0
C1977 C 0.84913 0.47146 0.4431 0.0
C1978 C 0.83348 0.49799 0.46083 0.0
N1979 N 0.84492 0.49163 0.44565 0.0
C1980 C 0.80325 0.38997 0.4454 0.0
C1981 C 0.839 0.39447 0.45085 0.0
C1982 C 0.80187 0.37641 0.42546 0.0
N1983 N 0.82163 0.39878 0.45748 0.0
C1984 C 0.83831 0.38099 0.43104 0.0
C1985 C 0.81959 0.37202 0.41818 0.0
H1986 H 0.78974 0.39371 0.45119 0.0
H1987 H 0.85343 0.40185 0.46069 0.0
C1988 C 0.87635 0.46773 0.53747 0.0
N1989 N 0.86519 0.47105 0.52003 0.0
C1990 C 0.89602 0.48037 0.54402 0.0
C1991 C 0.89169 0.50081 0.51558 0.0
C1992 C 0.87208 0.48776 0.50961 0.0
C1993 C 0.90411 0.49629 0.53221 0.0
H1994 H 0.87036 0.45435 0.54547 0.0
H1995 H 0.86301 0.49019 0.49592 0.0
O1996 O 0.79852 0.40909 0.49939 0.0
O1997 O 0.82278 0.44741 0.53377 0.0
O1998 O 0.84574 0.42029 0.50543 0.0
O1999 O 0.82222 0.44863 0.48475 0.0
H2000 H 0.76558 0.41242 0.5173 0.0
H2001 H 0.79886 0.36704 0.48957 0.0
H2002 H 0.73902 0.38065 0.52287 0.0
H2003 H 0.77178 0.33603 0.4958 0.0
H2004 H 0.84959 0.51804 0.56889 0.0
H2005 H 0.82918 0.4393 0.57317 0.0
H2006 H 0.83392 0.49065 0.53573 0.0
H2007 H 0.845 0.46742 0.60546 0.0
H2008 H 0.80204 0.3749 0.57936 0.0
H2009 H 0.86563 0.40519 0.57969 0.0
H2010 H 0.74383 0.46357 0.47868 0.0
H2011 H 0.76459 0.48573 0.54685 0.0
H2012 H 0.88535 0.43495 0.50609 0.0
H2013 H 0.83718 0.37693 0.50283 0.0
H2014 H 0.91019 0.41176 0.50608 0.0
H2015 H 0.86291 0.35468 0.5027 0.0
H2016 H 0.8452 0.44076 0.45441 0.0
H2017 H 0.8165 0.48861 0.48631 0.0
H2018 H 0.85821 0.46686 0.43083 0.0
H2019 H 0.83046 0.51417 0.4625 0.0
H2020 H 0.78725 0.36982 0.41563 0.0
H2021 H 0.85222 0.37794 0.42562 0.0
H2022 H 0.9054 0.47642 0.55679 0.0
H2023 H 0.89769 0.51272 0.50588 0.0
Li2024 Li 0.65573 0.51424 0.29359 0.0
Li2025 Li 0.6861 0.53992 0.27413 0.0
Li2026 Li 0.65449 0.51103 0.24933 0.0
Li2027 Li 0.68269 0.49273 0.27026 0.0
C2028 C 0.64198 0.54958 0.27201 0.0
N2029 N 0.61443 0.57499 0.26754 0.0
C2030 C 0.64846 0.57254 0.27691 0.0
C2031 C 0.62149 0.53949 0.26499 0.0
C2032 C 0.6343 0.58511 0.27453 0.0
C2033 C 0.60779 0.55264 0.26277 0.0
C2034 C 0.70138 0.52409 0.31504 0.0
C2035 C 0.73451 0.52505 0.33247 0.0
N2036 N 0.72907 0.53306 0.35168 0.0
C2037 C 0.69611 0.53241 0.33489 0.0
C2038 C 0.72071 0.52041 0.31373 0.0
C2039 C 0.71033 0.53681 0.35326 0.0
C2040 C 0.62967 0.4964 0.32868 0.0
N2041 N 0.63946 0.51538 0.32246 0.0
C2042 C 0.62874 0.53582 0.35426 0.0
C2043 C 0.63884 0.53493 0.33524 0.0
C2044 C 0.61838 0.51649 0.36098 0.0
C2045 C 0.61922 0.49661 0.34735 0.0
H2046 H 0.62982 0.48069 0.31914 0.0
H2047 H 0.64629 0.55026 0.33087 0.0
C2048 C 0.69912 0.58476 0.25886 0.0
N2049 N 0.70392 0.57321 0.27438 0.0
C2050 C 0.71009 0.60693 0.25869 0.0
C2051 C 0.73124 0.60582 0.29028 0.0
C2052 C 0.7198 0.58385 0.29004 0.0
C2053 C 0.7268 0.61819 0.27445 0.0
H2054 H 0.68659 0.57684 0.24633 0.0
H2055 H 0.72383 0.57535 0.30261 0.0
C2056 C 0.63491 0.46847 0.26131 0.0
N2057 N 0.60292 0.43188 0.24724 0.0
C2058 C 0.63841 0.44882 0.2507 0.0
C2059 C 0.61516 0.46954 0.26475 0.0
C2060 C 0.62203 0.43048 0.24374 0.0
C2061 C 0.59918 0.45086 0.25747 0.0
C2062 C 0.69443 0.51343 0.23055 0.0
C2063 C 0.68423 0.49977 0.2114 0.0
C2064 C 0.71427 0.52584 0.23115 0.0
C2065 C 0.69394 0.49907 0.19295 0.0
C2066 C 0.72356 0.52447 0.21242 0.0
N2067 N 0.71326 0.5113 0.19385 0.0
C2068 C 0.63615 0.53089 0.21374 0.0
C2069 C 0.62834 0.49232 0.20437 0.0
C2070 C 0.62644 0.53241 0.19334 0.0
N2071 N 0.63727 0.51106 0.21921 0.0
C2072 C 0.6188 0.49316 0.18366 0.0
C2073 C 0.61777 0.51343 0.17738 0.0
H2074 H 0.64324 0.54594 0.22507 0.0
H2075 H 0.62898 0.47647 0.20824 0.0
C2076 C 0.70868 0.4599 0.2865 0.0
N2077 N 0.69878 0.46474 0.26863 0.0
C2078 C 0.71864 0.4419 0.28546 0.0
C2079 C 0.70828 0.43276 0.24777 0.0
C2080 C 0.69886 0.45112 0.2494 0.0
C2081 C 0.71869 0.42739 0.26588 0.0
H2082 H 0.70891 0.46992 0.30206 0.0
H2083 H 0.69136 0.45419 0.23486 0.0
O2084 O 0.65571 0.53704 0.27372 0.0
O2085 O 0.68746 0.51901 0.29705 0.0
O2086 O 0.65083 0.48642 0.26866 0.0
O2087 O 0.68506 0.51473 0.24866 0.0
H2088 H 0.66425 0.58055 0.28254 0.0
H2089 H 0.61629 0.52171 0.26104 0.0
H2090 H 0.6391 0.60291 0.27823 0.0
H2091 H 0.5919 0.5451 0.2572 0.0
H2092 H 0.74953 0.52223 0.33175 0.0
H2093 H 0.68119 0.53532 0.33612 0.0
H2094 H 0.72493 0.5139 0.29842 0.0
H2095 H 0.70644 0.54317 0.36877 0.0
H2096 H 0.62876 0.55179 0.3634 0.0
H2097 H 0.61196 0.48092 0.35117 0.0
H2098 H 0.70572 0.61495 0.24585 0.0
H2099 H 0.74363 0.61313 0.30312 0.0
H2100 H 0.65362 0.44771 0.248 0.0
H2101 H 0.61224 0.48461 0.27306 0.0
H2102 H 0.62452 0.41513 0.2356 0.0
H2103 H 0.58381 0.45144 0.26002 0.0
H2104 H 0.669 0.4898 0.2108 0.0
H2105 H 0.72238 0.53638 0.24594 0.0
H2106 H 0.68616 0.48874 0.17794 0.0
H2107 H 0.73894 0.53393 0.21264 0.0
H2108 H 0.62644 0.54857 0.18988 0.0
H2109 H 0.61228 0.47778 0.17256 0.0
H2110 H 0.72588 0.43907 0.30026 0.0
H2111 H 0.70747 0.42279 0.23204 0.0
Gd2112 Gd 0.03294 0.02721 1.0032 0.0
Gd2113 Gd 0.07192 0.04976 0.02951 0.0
C2114 C 0.04736 0.08071 0.00891 0.0
C2115 C 0.99448 0.01542 0.9898 0.0
C2116 C 0.97765 0.02605 0.99263 0.0
C2117 C 0.96026 0.01908 0.97738 0.0
C2118 C 0.97922 0.04393 0.00951 0.0
C2119 C 0.94538 0.04646 0.99666 0.0
C2120 C 0.96312 0.05413 0.01149 0.0
C2121 C 0.94417 0.02914 0.97944 0.0
C2122 C 0.06145 0.0262 0.974 0.0
C2123 C 0.05562 0.99602 0.02502 0.0
C2124 C 0.11059 0.06186 0.04209 0.0
C2125 C 0.12758 0.05112 0.0406 0.0
C2126 C 0.14044 0.05214 0.05942 0.0
C2127 C 0.13064 0.03904 0.02111 0.0
C2128 C 0.16014 0.03048 0.03921 0.0
C2129 C 0.14687 0.02895 0.0204 0.0
C2130 C 0.15646 0.04182 0.05879 0.0
C2131 C 0.04374 0.05095 0.05888 0.0
O2132 O 0.03242 0.06277 1.00485 0.0
O2133 O 0.06548 0.08013 0.01784 0.0
O2134 O 1.00798 0.02488 0.9788 0.0
O2135 O 1.00255 0.00953 1.00672 0.0
O2136 O 0.04233 0.01649 0.97021 0.0
O2137 O 0.06506 0.03471 0.99426 0.0
O2138 O 0.07133 0.01343 0.02965 0.0
O2139 O 0.03814 0.99745 0.01547 0.0
O2140 O 0.09727 0.05403 0.0541 0.0
O2141 O 0.10227 0.06621 0.02442 0.0
O2142 O 0.06287 0.06068 0.06249 0.0
O2143 O 0.03982 0.04231 0.0386 0.0
H2144 H 0.95907 1.00571 0.96397 0.0
H2145 H 0.99277 0.04982 0.02118 0.0
H2146 H 0.96422 0.0675 0.02489 0.0
H2147 H 0.93062 0.02322 0.96778 0.0
H2148 H 0.13805 0.06095 0.0747 0.0
H2149 H 0.12063 0.03756 1.00643 0.0
H2150 H 0.1493 0.02045 1.00501 0.0
H2151 H 0.16602 0.04283 0.07366 0.0
Gd2152 Gd 0.31724 0.79124 0.25482 0.0
Gd2153 Gd 0.29393 0.79371 0.2847 0.0
C2154 C 0.3129 0.83846 0.27376 0.0
C2155 C 0.33904 0.79356 0.22386 0.0
C2156 C 0.34433 0.80791 0.20881 0.0
C2157 C 0.36158 0.80709 0.19866 0.0
C2158 C 0.33179 0.82155 0.20373 0.0
C2159 C 0.3525 0.83163 0.17654 0.0
C2160 C 0.33608 0.83372 0.18778 0.0
C2161 C 0.36555 0.8188 0.18224 0.0
C2162 C 0.337 0.78207 0.29062 0.0
C2163 C 0.29408 0.7476 0.26027 0.0
C2164 C 0.27671 0.79499 0.31896 0.0
C2165 C 0.26989 0.77635 0.32935 0.0
C2166 C 0.25161 0.77376 0.33812 0.0
C2167 C 0.28066 0.75984 0.32857 0.0
C2168 C 0.25689 0.7403 0.34885 0.0
C2169 C 0.27415 0.74185 0.33822 0.0
C2170 C 0.24506 0.7557 0.3478 0.0
C2171 C 0.26899 0.78639 0.2468 0.0
O2172 O 0.32479 0.82715 0.26494 0.0
O2173 O 0.29794 0.82898 0.28294 0.0
O2174 O 0.34616 0.80218 0.24381 0.0
O2175 O 0.3201 0.7825 0.22125 0.0
O2176 O 0.334 0.77039 0.27151 0.0
O2177 O 0.3278 0.79747 0.29021 0.0
O2178 O 0.29553 0.75869 0.27981 0.0
O2179 O 0.29758 0.75804 0.24462 0.0
O2180 O 0.2668 0.79301 0.30005 0.0
O2181 O 0.29634 0.80179 0.31943 0.0
O2182 O 0.26661 0.77461 0.26167 0.0
O2183 O 0.28652 0.80002 0.2512 0.0
H2184 H 0.37129 0.79655 0.20267 0.0
H2185 H 0.31818 0.82185 0.21124 0.0
H2186 H 0.32572 0.84335 0.18306 0.0
H2187 H 0.37804 0.81692 0.17326 0.0
H2188 H 0.24277 0.78598 0.33804 0.0
H2189 H 0.29453 0.76124 0.32126 0.0
H2190 H 0.28365 0.73032 0.33907 0.0
H2191 H 0.23171 0.7547 0.35602 0.0
Gd2192 Gd 0.57634 0.03835 0.51584 0.0
Gd2193 Gd 0.53058 0.03862 0.51803 0.0
C2194 C 0.54168 0.99235 0.50926 0.0
C2195 C 0.61274 0.03188 0.51798 0.0
C2196 C 0.62455 0.01471 0.51676 0.0
C2197 C 0.63441 0.01003 0.49864 0.0
C2198 C 0.62789 1.00456 0.53437 0.0
C2199 C 0.65128 0.98603 0.51613 0.0
C2200 C 0.64107 0.99049 0.53407 0.0
C2201 C 0.64753 0.99583 0.49828 0.0
C2202 C 0.55457 0.04028 0.47963 0.0
C2203 C 0.56567 0.08514 0.52377 0.0
C2204 C 0.49434 0.04521 0.51331 0.0
C2205 C 0.48269 0.06231 0.51827 0.0
C2206 C 0.47119 0.06233 0.53563 0.0
C2207 C 0.48103 0.07712 0.50433 0.0
C2208 C 0.45542 0.0902 0.52385 0.0
C2209 C 0.46765 0.09089 0.50712 0.0
C2210 C 0.4578 0.07617 0.53844 0.0
C2211 C 0.55184 0.0368 0.55467 0.0
O2212 O 0.56069 1.00296 0.51695 0.0
O2213 O 0.52757 1.00287 0.5047 0.0
O2214 O 0.60232 0.03327 0.50017 0.0
O2215 O 0.60347 0.03569 0.53491 0.0
O2216 O 0.57363 0.05009 0.48447 0.0
O2217 O 0.5484 0.02877 0.49302 0.0
O2218 O 0.54619 0.07451 0.51998 0.0
O2219 O 0.58056 0.07493 0.52521 0.0
O2220 O 0.50121 0.03702 0.52929 0.0
O2221 O 0.50687 0.04759 0.49888 0.0
O2222 O 0.53268 0.02724 0.54956 0.0
O2223 O 0.55837 0.04807 0.54109 0.0
H2224 H 0.63234 0.01777 0.48487 0.0
H2225 H 0.62078 1.00797 0.5487 0.0
H2226 H 0.64375 0.98371 0.54833 0.0
H2227 H 0.65482 0.99266 0.48404 0.0
H2228 H 0.47194 0.05103 0.5466 0.0
H2229 H 0.48957 0.07758 0.49077 0.0
H2230 H 0.46655 0.10178 0.49581 0.0
H2231 H 0.4486 0.07507 0.55145 0.0
Gd2232 Gd 0.28212 0.29386 0.76425 0.0
Gd2233 Gd 0.32518 0.28439 0.76953 0.0
C2234 C 0.30712 0.30092 0.81245 0.0
C2235 C 0.24355 0.28958 0.76762 0.0
C2236 C 0.22947 0.2932 0.78399 0.0
C2237 C 0.22414 0.31347 0.789 0.0
C2238 C 0.21958 0.27559 0.79317 0.0
C2239 C 0.19833 0.2979 0.81063 0.0
C2240 C 0.2043 0.27788 0.80623 0.0
C2241 C 0.20895 0.31582 0.8022 0.0
C2242 C 0.311 0.33345 0.76413 0.0
C2243 C 0.30064 0.27862 0.72139 0.0
C2244 C 0.36362 0.28704 0.76677 0.0
C2245 C 0.37779 0.28671 0.75009 0.0
C2246 C 0.38754 0.26934 0.74647 0.0
C2247 C 0.38264 0.3039 0.73851 0.0
C2248 C 0.40738 0.28682 0.72086 0.0
C2249 C 0.39721 0.30397 0.72415 0.0
C2250 C 0.40202 0.26933 0.73206 0.0
C2251 C 0.29665 0.24451 0.76912 0.0
O2252 O 0.29051 0.30078 0.79997 0.0
O2253 O 0.32323 0.29573 0.80475 0.0
O2254 O 0.25501 0.30672 0.76203 0.0
O2255 O 0.2529 0.27383 0.7686 0.0
O2256 O 0.29134 0.33023 0.76162 0.0
O2257 O 0.3142 0.31454 0.76623 0.0
O2258 O 0.31778 0.28069 0.73387 0.0
O2259 O 0.28381 0.28147 0.72917 0.0
O2260 O 0.35032 0.26866 0.76669 0.0
O2261 O 0.35611 0.30427 0.77131 0.0
O2262 O 0.31629 0.24825 0.77174 0.0
O2263 O 0.29296 0.26336 0.76743 0.0
H2264 H 0.23134 0.32745 0.78228 0.0
H2265 H 0.2231 0.25966 0.78962 0.0
H2266 H 0.19657 0.26351 0.81204 0.0
H2267 H 0.20536 0.33171 0.80549 0.0
H2268 H 0.38416 0.2558 0.75507 0.0
H2269 H 0.37549 0.31758 0.74082 0.0
H2270 H 0.40093 0.3179 0.71614 0.0
H2271 H 0.40906 0.25557 0.72978 0.0
Gd2272 Gd 0.04942 0.06271 0.52676 0.0
Gd2273 Gd 0.05828 0.01737 0.50701 0.0
C2274 C 0.0381 0.04324 0.47359 0.0
C2275 C 0.05207 0.10436 0.53475 0.0
C2276 C 0.05391 0.12069 0.5205 0.0
C2277 C 0.03776 0.13057 0.51657 0.0
C2278 C 0.07094 0.12545 0.5096 0.0
C2279 C 0.056 0.15028 0.4918 0.0
C2280 C 0.07197 0.14012 0.49537 0.0
C2281 C 0.03876 0.14521 0.50225 0.0
C2282 C 0.01565 0.02943 0.52722 0.0
C2283 C 0.0673 0.03499 0.5604 0.0
C2284 C 0.0574 0.97622 0.4984 0.0
C2285 C 0.05251 0.95929 0.51152 0.0
C2286 C 0.06345 0.94303 0.51121 0.0
C2287 C 0.03818 0.96051 0.52591 0.0
C2288 C 0.04413 0.9279 0.53785 0.0
C2289 C 0.03384 0.94477 0.53884 0.0
C2290 C 0.05933 0.9274 0.5244 0.0
C2291 C 0.09101 0.05168 0.50556 0.0
O2292 O 0.04174 0.06049 0.48986 0.0
O2293 O 0.0419 0.02416 0.47669 0.0
O2294 O 0.03472 0.08962 0.53121 0.0
O2295 O 0.06772 0.09599 0.53845 0.0
O2296 O 0.01754 0.05017 0.53455 0.0
O2297 O 0.03245 0.02753 0.52076 0.0
O2298 O 0.06385 0.01855 0.54347 0.0
O2299 O 0.06417 0.05463 0.55796 0.0
O2300 O 0.07404 0.99138 0.50609 0.0
O2301 O 0.04233 0.9842 0.4915 0.0
O2302 O 0.09013 0.03116 0.49839 0.0
O2303 O 0.07428 0.05222 0.51244 0.0
H2304 H 0.02437 0.12697 0.52461 0.0
H2305 H 0.08354 0.11799 0.51212 0.0
H2306 H 0.08537 0.14376 0.48734 0.0
H2307 H 0.02637 0.15305 0.49984 0.0
H2308 H 0.07508 0.94238 0.50073 0.0
H2309 H 0.03033 0.9736 0.52705 0.0
H2310 H 0.02231 0.94561 0.54943 0.0
H2311 H 0.06749 0.91452 0.52355 0.0
Gd2312 Gd 0.32252 0.80502 0.76639 0.0
Gd2313 Gd 0.28497 0.77345 0.76485 0.0
C2314 C 0.32452 0.75199 0.76717 0.0
C2315 C 0.35884 0.82909 0.77523 0.0
C2316 C 0.37803 0.82338 0.78059 0.0
C2317 C 0.39352 0.82753 0.76762 0.0
C2318 C 0.38085 0.8132 0.79833 0.0
C2319 C 0.41523 0.81396 0.79158 0.0
C2320 C 0.39939 0.80862 0.80383 0.0
C2321 C 0.41207 0.82273 0.77304 0.0
C2322 C 0.30423 0.78662 0.72645 0.0
C2323 C 0.28286 0.82653 0.76536 0.0
C2324 C 0.24885 0.74953 0.75377 0.0
C2325 C 0.22926 0.75525 0.75112 0.0
C2326 C 0.21757 0.75626 0.76823 0.0
C2327 C 0.22211 0.75983 0.73135 0.0
C2328 C 0.19096 0.76355 0.74496 0.0
C2329 C 0.20308 0.76402 0.72834 0.0
C2330 C 0.19845 0.76046 0.76515 0.0
C2331 C 0.30243 0.79085 0.80522 0.0
O2332 O 0.33478 0.77334 0.7712 0.0
O2333 O 0.30439 0.74782 0.76266 0.0
O2334 O 0.35008 0.82148 0.75546 0.0
O2335 O 0.34618 0.8272 0.78951 0.0
O2336 O 0.31192 0.80766 0.73233 0.0
O2337 O 0.30651 0.77685 0.74181 0.0
O2338 O 0.27266 0.80522 0.76133 0.0
O2339 O 0.30305 0.83081 0.76946 0.0
O2340 O 0.25803 0.75329 0.77347 0.0
O2341 O 0.2611 0.75517 0.7398 0.0
O2342 O 0.29313 0.77025 0.79887 0.0
O2343 O 0.30133 0.80131 0.79009 0.0
H2344 H 0.39142 0.83494 0.75363 0.0
H2345 H 0.36896 0.80923 0.8083 0.0
H2346 H 0.40163 0.80168 0.81811 0.0
H2347 H 0.42426 0.82698 0.76349 0.0
H2348 H 0.22286 0.75304 0.78371 0.0
H2349 H 0.23086 0.75941 0.71794 0.0
H2350 H 0.19725 0.76622 0.71261 0.0
H2351 H 0.189 0.75981 0.77798 0.0
Gd2352 Gd 0.56073 0.03797 0.03833 0.0
Gd2353 Gd 0.54745 0.03957 0.99344 0.0
C2354 C 0.51573 0.01173 0.01382 0.0
C2355 C 0.55901 0.03407 0.07721 0.0
C2356 C 0.54092 0.02211 0.08503 0.0
C2357 C 0.53869 0.99982 0.08645 0.0
C2358 C 0.52478 0.03201 0.08888 0.0
C2359 C 0.50641 0.99901 0.09964 0.0
C2360 C 0.5076 0.0205 0.09605 0.0
C2361 C 0.52138 0.98823 0.09335 0.0
C2362 C 0.57541 0.01182 0.01045 0.0
C2363 C 0.59271 0.06566 0.01649 0.0
C2364 C 0.54706 0.04425 0.95454 0.0
C2365 C 0.56358 0.05817 0.94614 0.0
C2366 C 0.56448 0.08065 0.94676 0.0
C2367 C 0.57965 0.04957 0.93934 0.0
C2368 C 0.59512 0.08443 0.92978 0.0
C2369 C 0.59535 0.0626 0.93141 0.0
C2370 C 0.58031 0.09377 0.93887 0.0
C2371 C 0.53646 0.06846 0.02298 0.0
O2372 O 0.52715 0.02265 0.03182 0.0
O2373 O 0.52262 0.0116 0.99529 0.0
O2374 O 0.5676 0.02171 0.06434 0.0
O2375 O 0.55765 0.05237 0.07073 0.0
O2376 O 0.58548 0.02276 0.02865 0.0
O2377 O 0.5573 0.01389 0.0082 0.0
O2378 O 0.58076 0.05556 0.99854 0.0
O2379 O 0.58661 0.06488 0.03548 0.0
O2380 O 0.53742 0.0548 0.96783 0.0
O2381 O 0.55113 0.02684 0.96084 0.0
O2382 O 0.52426 0.05705 1.00617 0.0
O2383 O 0.55353 0.06418 0.02321 0.0
H2384 H 0.55058 0.9915 0.08285 0.0
H2385 H 0.52567 0.04891 0.08713 0.0
H2386 H 0.4963 0.02925 0.10088 0.0
H2387 H 0.52069 0.97163 0.09598 0.0
H2388 H 0.55266 0.08797 0.95271 0.0
H2389 H 0.5798 0.03252 0.9394 0.0
H2390 H 0.60646 0.05469 0.92457 0.0
H2391 H 0.57998 0.11064 0.93811 0.0
Gd2392 Gd 0.31685 0.3184 0.27879 0.0
Gd2393 Gd 0.29558 0.26674 0.25913 0.0
C2394 C 0.26776 0.29954 0.27209 0.0
C2395 C 0.3272 0.36021 0.28286 0.0
C2396 C 0.31351 0.37489 0.28323 0.0
C2397 C 0.31748 0.3939 0.29917 0.0
C2398 C 0.29513 0.36852 0.26934 0.0
C2399 C 0.2858 0.40129 0.28585 0.0
C2400 C 0.28132 0.38156 0.27075 0.0
C2401 C 0.30369 0.40714 0.30044 0.0
C2402 C 0.31132 0.29415 0.31095 0.0
C2403 C 0.34495 0.28633 0.26453 0.0
C2404 C 0.28499 0.22483 0.25526 0.0
C2405 C 0.29741 0.20866 0.25448 0.0
C2406 C 0.29775 0.19501 0.23485 0.0
C2407 C 0.31002 0.20773 0.27284 0.0
C2408 C 0.32239 0.17897 0.25217 0.0
C2409 C 0.32226 0.19291 0.27173 0.0
C2410 C 0.31027 0.18039 0.23365 0.0
C2411 C 0.29952 0.29166 0.22751 0.0
O2412 O 0.28349 0.31667 0.27404 0.0
O2413 O 0.2689 0.27877 0.26829 0.0
O2414 O 0.32739 0.35037 0.29941 0.0
O2415 O 0.32643 0.34705 0.26444 0.0
O2416 O 0.31918 0.31519 0.31404 0.0
O2417 O 0.30743 0.28754 0.29076 0.0
O2418 O 0.32914 0.26898 0.26127 0.0
O2419 O 0.34386 0.30691 0.27048 0.0
O2420 O 0.28482 0.2347 0.23871 0.0
O2421 O 0.2865 0.23819 0.27371 0.0
O2422 O 0.29018 0.27094 0.22405 0.0
O2423 O 0.30502 0.29739 0.24753 0.0
H2424 H 0.33128 0.39854 0.31048 0.0
H2425 H 0.2914 0.35351 0.25734 0.0
H2426 H 0.2674 0.37658 0.25957 0.0
H2427 H 0.3074 0.42234 0.31218 0.0
H2428 H 0.28841 0.19573 0.22039 0.0
H2429 H 0.31038 0.2183 0.28815 0.0
H2430 H 0.33114 0.19198 0.28641 0.0
H2431 H 0.31033 0.17011 0.2183 0.0
Gd2432 Gd 0.54977 0.56319 0.02761 0.0
Gd2433 Gd 0.55822 0.51782 0.00727 0.0
C2434 C 0.53976 0.54581 0.97428 0.0
C2435 C 0.55239 0.6047 0.03663 0.0
C2436 C 0.55476 0.62168 0.02329 0.0
C2437 C 0.54343 0.63754 0.02632 0.0
C2438 C 0.56712 0.62145 1.0067 0.0
C2439 C 0.55838 0.65432 0.99802 0.0
C2440 C 0.56893 0.63776 0.99412 0.0
C2441 C 0.54528 0.65382 0.01382 0.0
C2442 C 0.51639 0.52906 0.02752 0.0
C2443 C 0.56862 0.53639 0.06104 0.0
C2444 C 0.55454 0.47608 0.99923 0.0
C2445 C 0.55106 0.45989 0.01349 0.0
C2446 C 0.56499 0.44694 0.01589 0.0
C2447 C 0.5353 0.45882 0.0264 0.0
C2448 C 0.54701 0.43133 0.04329 0.0
C2449 C 0.5332 0.44453 0.04103 0.0
C2450 C 0.56308 0.43289 0.03074 0.0
C2451 C 0.59142 0.55094 1.00528 0.0
O2452 O 0.54291 0.56201 0.99138 0.0
O2453 O 0.54334 0.52626 0.97635 0.0
O2454 O 0.53501 0.59001 0.03203 0.0
O2455 O 0.56799 0.59625 0.04027 0.0
O2456 O 0.51737 0.5496 0.03493 0.0
O2457 O 0.53338 0.52848 0.02126 0.0
O2458 O 0.56689 0.52007 0.04415 0.0
O2459 O 0.56365 0.55505 0.05841 0.0
O2460 O 0.57219 0.49032 1.00392 0.0
O2461 O 0.53951 0.485 0.99437 0.0
O2462 O 0.58909 0.53026 0.99718 0.0
O2463 O 0.57521 0.55287 0.01313 0.0
H2464 H 0.53335 0.63749 0.03856 0.0
H2465 H 0.57555 0.60891 1.00369 0.0
H2466 H 0.57915 0.63798 0.98198 0.0
H2467 H 0.53689 0.66639 0.01683 0.0
H2468 H 0.57758 0.44798 1.00651 0.0
H2469 H 0.52463 0.46907 0.02529 0.0
H2470 H 0.52053 0.44356 0.05028 0.0
H2471 H 0.57422 0.42329 0.03241 0.0
Gd2472 Gd 0.82289 0.30577 0.26985 0.0
Gd2473 Gd 0.78463 0.27345 0.26437 0.0
C2474 C 0.8247 0.25236 0.2675 0.0
C2475 C 0.85859 0.32962 0.28413 0.0
C2476 C 0.87817 0.32367 0.28505 0.0
C2477 C 0.88815 0.32152 0.26668 0.0
C2478 C 0.886 0.31795 0.30393 0.0
C2479 C 0.91311 0.30747 0.28597 0.0
C2480 C 0.90325 0.30981 0.30434 0.0
C2481 C 0.90553 0.31347 0.26716 0.0
C2482 C 0.80818 0.28854 0.2285 0.0
C2483 C 0.78292 0.32692 0.26646 0.0
C2484 C 0.74905 0.24895 0.25047 0.0
C2485 C 0.72864 0.25273 0.25053 0.0
C2486 C 0.71859 0.25145 0.26883 0.0
C2487 C 0.7192 0.25812 0.23228 0.0
C2488 C 0.68974 0.26006 0.2503 0.0
C2489 C 0.69991 0.2619 0.23222 0.0
C2490 C 0.69921 0.25506 0.26867 0.0
C2491 C 0.79935 0.29097 0.30564 0.0
O2492 O 0.83488 0.27368 0.27306 0.0
O2493 O 0.8047 0.24826 0.26165 0.0
O2494 O 0.8496 0.32925 0.26492 0.0
O2495 O 0.84616 0.32069 0.29661 0.0
O2496 O 0.81775 0.30901 0.23515 0.0
O2497 O 0.80829 0.27817 0.24371 0.0
O2498 O 0.77264 0.3056 0.2614 0.0
O2499 O 0.80298 0.33107 0.27191 0.0
O2500 O 0.75877 0.24887 0.26919 0.0
O2501 O 0.76052 0.25957 0.23819 0.0
O2502 O 0.79054 0.27025 0.29919 0.0
O2503 O 0.799 0.30112 0.2903 0.0
H2504 H 0.88243 0.32575 0.25187 0.0
H2505 H 0.87863 0.3195 0.31833 0.0
H2506 H 0.90918 0.30588 0.31924 0.0
H2507 H 0.91308 0.31198 0.25289 0.0
H2508 H 0.72556 0.24745 0.28318 0.0
H2509 H 0.72661 0.25918 0.21796 0.0
H2510 H 0.69264 0.26543 0.21776 0.0
H2511 H 0.69147 0.25361 0.28273 0.0
Gd2512 Gd 0.05588 0.53584 0.53598 0.0
Gd2513 Gd 0.04798 0.54626 0.49058 0.0
C2514 C 0.0145 0.50974 0.50518 0.0
C2515 C 0.05262 0.53098 0.57417 0.0
C2516 C 0.03529 0.51637 0.58029 0.0
C2517 C 0.03808 0.49799 0.58869 0.0
C2518 C 0.01559 0.5195 0.5764 0.0
C2519 C 1.00428 0.49271 0.59812 0.0
C2520 C 0.9998 0.50705 0.58485 0.0
C2521 C 0.02209 0.48536 0.5967 0.0
C2522 C 0.07304 0.51084 0.50859 0.0
C2523 C 0.09052 0.56701 0.52009 0.0
C2524 C 0.04797 0.55312 0.45272 0.0
C2525 C 0.06603 0.5667 0.44638 0.0
C2526 C 0.06562 0.58744 0.4416 0.0
C2527 C 0.08462 0.56056 0.44801 0.0
C2528 C 0.10005 0.59204 0.43325 0.0
C2529 C 0.10166 0.57339 0.44182 0.0
C2530 C 0.08282 0.60041 0.43565 0.0
C2531 C 0.04023 0.57443 0.52304 0.0
O2532 O 0.02605 0.51239 0.52363 0.0
O2533 O 0.01951 0.52075 0.48977 0.0
O2534 O 0.06363 0.52071 0.56249 0.0
O2535 O 0.04929 0.54851 0.56745 0.0
O2536 O 0.07401 0.51059 0.5289 0.0
O2537 O 0.06338 0.52456 0.50422 0.0
O2538 O 0.08122 0.55858 0.5004 0.0
O2539 O 0.08116 0.56495 0.5371 0.0
O2540 O 0.03901 0.56399 0.46658 0.0
O2541 O 0.04964 0.53401 0.45717 0.0
O2542 O 0.04904 0.58041 0.50701 0.0
O2543 O 0.03589 0.55377 0.52107 0.0
H2544 H 0.05288 0.49437 0.59045 0.0
H2545 H 0.01266 0.53253 0.56837 0.0
H2546 H 0.98559 0.51204 0.58492 0.0
H2547 H 0.02531 0.47341 0.60608 0.0
H2548 H 0.05178 0.59314 0.44152 0.0
H2549 H 0.08587 0.54536 0.45304 0.0
H2550 H 0.11494 0.56676 0.44047 0.0
H2551 H 0.08145 0.61499 0.42937 0.0
Gd2552 Gd 0.7832 0.79783 0.26771 0.0
Gd2553 Gd 0.82343 0.78183 0.266 0.0
C2554 C 0.81061 0.79744 0.31218 0.0
C2555 C 0.74643 0.80096 0.27299 0.0
C2556 C 0.73065 0.79782 0.28777 0.0
C2557 C 0.7222 0.81556 0.29489 0.0
C2558 C 0.72351 0.77776 0.29453 0.0
C2559 C 0.69928 0.79323 0.31482 0.0
C2560 C 0.70799 0.77549 0.30783 0.0
C2561 C 0.70685 0.81337 0.30825 0.0
C2562 C 0.81466 0.83448 0.26563 0.0
C2563 C 0.79679 0.78386 0.22134 0.0
C2564 C 0.86007 0.77799 0.26074 0.0
C2565 C 0.87619 0.78123 0.24645 0.0
C2566 C 0.8896 0.76733 0.24561 0.0
C2567 C 0.87845 0.79749 0.23363 0.0
C2568 C 0.90823 0.78663 0.22038 0.0
C2569 C 0.89429 0.80016 0.22075 0.0
C2570 C 0.90539 0.76996 0.2328 0.0
C2571 C 0.79204 0.74547 0.26924 0.0
O2572 O 0.79238 0.79621 0.30229 0.0
O2573 O 0.82601 0.79473 0.3016 0.0
O2574 O 0.76267 0.81681 0.28019 0.0
O2575 O 0.75041 0.78372 0.26134 0.0
O2576 O 0.79574 0.83425 0.26669 0.0
O2577 O 0.81588 0.81448 0.26564 0.0
O2578 O 0.81407 0.78214 0.23128 0.0
O2579 O 0.78181 0.7885 0.23169 0.0
O2580 O 0.84364 0.76257 0.25304 0.0
O2581 O 0.85627 0.79529 0.27242 0.0
O2582 O 0.81115 0.74597 0.2695 0.0
O2583 O 0.79084 0.76534 0.26853 0.0
H2584 H 0.72745 0.83126 0.29001 0.0
H2585 H 0.72972 0.76376 0.28939 0.0
H2586 H 0.70256 0.7596 0.31222 0.0
H2587 H 0.70105 0.82763 0.31351 0.0
H2588 H 0.88806 0.75452 0.25519 0.0
H2589 H 0.86811 0.8082 0.23368 0.0
H2590 H 0.89564 0.8129 0.21112 0.0
H2591 H 0.91576 0.75933 0.23323 0.0
Gd2592 Gd 0.81277 0.28867 0.74894 0.0
Gd2593 Gd 0.78923 0.29459 0.78907 0.0
C2594 C 0.81706 0.33639 0.77898 0.0
C2595 C 0.82461 0.2914 0.71243 0.0
C2596 C 0.84065 0.30688 0.70518 0.0
C2597 C 0.85332 0.29861 0.69164 0.0
C2598 C 0.84122 0.32948 0.70864 0.0
C2599 C 0.85985 0.33273 0.67835 0.0
C2600 C 0.85082 0.34245 0.69515 0.0
C2601 C 0.8634 0.31178 0.67855 0.0
C2602 C 0.8379 0.28626 0.7845 0.0
C2603 C 0.78292 0.24761 0.75871 0.0
C2604 C 0.77627 0.2916 0.825 0.0
C2605 C 0.76524 0.27213 0.83207 0.0
C2606 C 0.7467 0.27213 0.83989 0.0
C2607 C 0.77316 0.25347 0.83125 0.0
C2608 C 0.74817 0.23884 0.85314 0.0
C2609 C 0.76464 0.23684 0.84175 0.0
C2610 C 0.73785 0.25515 0.84995 0.0
C2611 C 0.76451 0.29584 0.75261 0.0
O2612 O 0.81994 0.32467 0.76091 0.0
O2613 O 0.80691 0.32864 0.79366 0.0
O2614 O 0.83038 0.27827 0.72429 0.0
O2615 O 0.80949 0.29929 0.7188 0.0
O2616 O 0.84246 0.28496 0.7651 0.0
O2617 O 0.81987 0.28918 0.78401 0.0
O2618 O 0.78289 0.25866 0.7781 0.0
O2619 O 0.79227 0.25566 0.74361 0.0
O2620 O 0.7662 0.29785 0.8097 0.0
O2621 O 0.79525 0.29235 0.82236 0.0
O2622 O 0.75965 0.29837 0.77187 0.0
O2623 O 0.78258 0.29342 0.75418 0.0
H2624 H 0.85362 0.28138 0.68941 0.0
H2625 H 0.83226 0.3365 0.71984 0.0
H2626 H 0.84829 0.35881 0.6958 0.0
H2627 H 0.87103 0.30434 0.66618 0.0
H2628 H 0.73984 0.28594 0.83955 0.0
H2629 H 0.78686 0.25252 0.82411 0.0
H2630 H 0.77279 0.22424 0.84335 0.0
H2631 H 0.7246 0.25646 0.85781 0.0
Gd2632 Gd 0.81567 0.81512 0.77545 0.0
Gd2633 Gd 0.79216 0.76416 0.7596 0.0
C2634 C 0.76697 0.79818 0.77611 0.0
C2635 C 0.82539 0.85664 0.77646 0.0
C2636 C 0.81157 0.87119 0.77621 0.0
C2637 C 0.81697 0.89231 0.78901 0.0
C2638 C 0.79224 0.86342 0.76412 0.0
C2639 C 0.78511 0.89888 0.77501 0.0
C2640 C 0.77908 0.87717 0.76358 0.0
C2641 C 0.80376 0.90618 0.7884 0.0
C2642 C 0.81253 0.79394 0.80997 0.0
C2643 C 0.84159 0.78074 0.76186 0.0
C2644 C 0.78142 0.72255 0.75781 0.0
C2645 C 0.79413 0.70667 0.75615 0.0
C2646 C 0.79152 0.69079 0.73733 0.0
C2647 C 0.81003 0.70839 0.77248 0.0
C2648 C 0.81949 0.67743 0.75189 0.0
C2649 C 0.82245 0.6938 0.77045 0.0
C2650 C 0.80419 0.67636 0.73514 0.0
C2651 C 0.79528 0.78551 0.72503 0.0
O2652 O 0.78288 0.81457 0.77628 0.0
O2653 O 0.76662 0.77713 0.77079 0.0
O2654 O 0.8266 0.84825 0.79386 0.0
O2655 O 0.8239 0.84224 0.75872 0.0
O2656 O 0.82188 0.81438 0.81099 0.0
O2657 O 0.80645 0.78587 0.7902 0.0
O2658 O 0.82525 0.76442 0.76068 0.0
O2659 O 0.84158 0.80182 0.76616 0.0
O2660 O 0.77931 0.73149 0.74087 0.0
O2661 O 0.78447 0.7367 0.77597 0.0
O2662 O 0.78626 0.76499 0.72399 0.0
O2663 O 0.80129 0.79349 0.74483 0.0
H2664 H 0.83156 0.89822 0.79899 0.0
H2665 H 0.78747 0.84692 0.7546 0.0
H2666 H 0.76455 0.87119 0.75345 0.0
H2667 H 0.80856 0.92292 0.79741 0.0
H2668 H 0.7797 0.68961 0.72428 0.0
H2669 H 0.81282 0.72085 0.78697 0.0
H2670 H 0.83391 0.69492 0.78383 0.0
H2671 H 0.80184 0.66418 0.72049 0.0
Gd2672 Gd 0.53583 0.53015 0.50457 0.0
Gd2673 Gd 0.5719 0.54885 0.52987 0.0
C2674 C 0.55236 0.58213 0.50913 0.0
C2675 C 0.49728 0.51996 0.49143 0.0
C2676 C 0.48071 0.53066 0.49576 0.0
C2677 C 0.46655 0.53103 0.47853 0.0
C2678 C 0.47989 0.54219 0.51634 0.0
C2679 C 0.45066 0.55421 0.50234 0.0
C2680 C 0.46486 0.55369 0.51964 0.0
C2681 C 0.45174 0.5428 0.48173 0.0
C2682 C 0.56267 0.52825 0.47387 0.0
C2683 C 0.55649 0.49533 0.52192 0.0
C2684 C 0.60943 0.55871 0.54753 0.0
C2685 C 0.62622 0.54785 0.54495 0.0
C2686 C 0.64138 0.55091 0.56232 0.0
C2687 C 0.62689 0.53382 0.52562 0.0
C2688 C 0.65809 0.5265 0.54105 0.0
C2689 C 0.64279 0.52332 0.52365 0.0
C2690 C 0.65718 0.5403 0.56041 0.0
C2691 C 0.54116 0.55189 0.55581 0.0
O2692 O 0.53589 0.56657 0.50875 0.0
O2693 O 0.56998 0.57813 0.51452 0.0
O2694 O 0.51088 0.53049 0.48121 0.0
O2695 O 0.50525 0.5122 0.50709 0.0
O2696 O 0.54353 0.51878 0.47111 0.0
O2697 O 0.56797 0.53685 0.49398 0.0
O2698 O 0.57175 0.51277 0.52871 0.0
O2699 O 0.53966 0.49751 0.51163 0.0
O2700 O 0.5944 0.54833 0.55611 0.0
O2701 O 0.60328 0.56665 0.53116 0.0
O2702 O 0.55707 0.56754 0.55545 0.0
O2703 O 0.54177 0.53557 0.54114 0.0
H2704 H 0.46724 0.52259 0.46246 0.0
H2705 H 0.49094 0.54249 0.52982 0.0
H2706 H 0.46433 0.56204 0.53578 0.0
H2707 H 0.44139 0.54323 0.46793 0.0
H2708 H 0.64099 0.56151 0.57738 0.0
H2709 H 0.61512 0.53096 0.5121 0.0
H2710 H 0.64302 0.51254 0.50863 0.0
H2711 H 0.66887 0.54317 0.574 0.0
Gd2712 Gd 0.07828 0.54117 0.01478 0.0
Gd2713 Gd 0.03225 0.53924 0.01939 0.0
C2714 C 0.04621 0.49431 0.01634 0.0
C2715 C 0.11522 0.53633 0.0177 0.0
C2716 C 0.12717 0.51933 0.01377 0.0
C2717 C 0.13469 0.51486 0.99403 0.0
C2718 C 0.13314 0.50925 0.0306 0.0
C2719 C 0.15526 0.49219 0.00872 0.0
C2720 C 0.14697 0.49592 0.02813 0.0
C2721 C 0.14841 0.50137 0.9915 0.0
C2722 C 0.05327 0.53529 0.97847 0.0
C2723 C 0.06421 0.58581 0.01789 0.0
C2724 C 0.99531 0.544 0.01814 0.0
C2725 C 0.98343 0.5611 0.01926 0.0
C2726 C 0.96958 0.56196 0.03434 0.0
C2727 C 0.98429 0.57524 1.00429 0.0
C2728 C 0.95591 0.58864 0.01766 0.0
C2729 C 0.97072 0.58882 1.00352 0.0
C2730 C 0.95601 0.57563 0.03362 0.0
C2731 C 0.05739 0.54446 0.05546 0.0
O2732 O 0.06515 0.50657 0.01998 0.0
O2733 O 0.03038 0.50274 0.01244 0.0
O2734 O 0.10639 0.54188 1.00098 0.0
O2735 O 0.10428 0.53583 0.03364 0.0
O2736 O 0.07205 0.54639 0.98093 0.0
O2737 O 0.04915 0.52687 0.99451 0.0
O2738 O 0.04532 0.57352 0.01284 0.0
O2739 O 0.07972 0.57739 0.02311 0.0
O2740 O 1.00627 0.54318 0.03582 0.0
O2741 O 1.00417 0.54003 1.00093 0.0
O2742 O 0.03873 0.53298 0.05276 0.0
O2743 O 0.06142 0.55339 0.0397 0.0
H2744 H 0.1305 0.52233 0.98069 0.0
H2745 H 0.1278 0.51239 0.04608 0.0
H2746 H 0.15187 0.48948 0.04192 0.0
H2747 H 0.15396 0.49856 0.97611 0.0
H2748 H 0.96864 0.55132 0.04614 0.0
H2749 H 0.99495 0.57524 0.99263 0.0
H2750 H 0.97138 0.59899 0.99133 0.0
H2751 H 0.94487 0.57505 0.04477 0.0
H2752 H 0.01213 0.15125 0.96698 0.0
H2753 H 0.07066 0.19385 0.99454 0.0
H2754 H 0.08002 0.16365 0.00911 0.0
H2755 H 0.07184 0.12404 0.01377 0.0
H2756 H 0.01194 0.08348 0.98776 0.0
H2757 H 1.00318 0.11377 0.97374 0.0
C2758 C 0.02685 0.15433 0.97645 0.0
C2759 C 0.04056 0.17524 0.97912 0.0
C2760 C 0.03211 0.1369 0.98534 0.0
C2761 C 0.0597 0.17808 0.99139 0.0
C2762 C 0.06511 0.1607 1.00003 0.0
C2763 C 0.05684 0.12186 1.00517 0.0
C2764 C 0.04275 0.10102 1.00194 0.0
C2765 C 0.05151 0.13984 0.99699 0.0
C2766 C 0.02336 0.09894 0.99069 0.0
C2767 C 0.01819 0.11641 0.98249 0.0
H2768 H 0.17984 0.7809 0.20072 0.0
H2769 H 0.21212 0.83387 0.17282 0.0
H2770 H 0.24421 0.8322 0.19239 0.0
H2771 H 0.26393 0.81548 0.21799 0.0
H2772 H 0.23052 0.76223 0.24501 0.0
H2773 H 0.19897 0.76454 0.22579 0.0
C2774 C 0.19384 0.79207 0.19873 0.0
C2775 C 0.19308 0.80754 0.18504 0.0
C2776 C 0.21252 0.79105 0.21016 0.0
C2777 C 0.21175 0.82193 0.18327 0.0
C2778 C 0.23033 0.8209 0.19447 0.0
C2779 C 0.2498 0.80424 0.21953 0.0
C2780 C 0.25016 0.78851 0.2331 0.0
C2781 C 0.23106 0.80549 0.20804 0.0
C2782 C 0.23128 0.77443 0.23478 0.0
C2783 C 0.21294 0.77571 0.22371 0.0
H2784 H 0.52456 0.89408 0.4608 0.0
H2785 H 0.55014 0.88575 0.52245 0.0
H2786 H 0.55377 0.925 0.53705 0.0
H2787 H 0.55069 0.96201 0.5316 0.0
H2788 H 0.52367 0.96955 0.47017 0.0
H2789 H 0.51973 0.93038 0.45593 0.0
C2790 C 0.53092 0.90098 0.47741 0.0
C2791 C 0.53731 0.88738 0.49056 0.0
C2792 C 0.53273 0.92334 0.48563 0.0
C2793 C 0.5454 0.89618 0.51209 0.0
C2794 C 0.5474 0.91851 0.52039 0.0
C2795 C 0.54372 0.95489 0.51521 0.0
C2796 C 0.53731 0.96839 0.50193 0.0
C2797 C 0.54126 0.93229 0.50725 0.0
C2798 C 0.52834 0.95924 0.48072 0.0
C2799 C 0.52624 0.93694 0.47255 0.0
H2800 H 0.47187 0.30262 0.65456 0.0
H2801 H 0.50373 0.27073 0.69661 0.0
H2802 H 0.47537 0.26568 0.71758 0.0
H2803 H 0.44241 0.27222 0.7256 0.0
H2804 H 0.40975 0.30304 0.68313 0.0
H2805 H 0.43753 0.30689 0.66124 0.0
C2806 C 0.47266 0.29464 0.66836 0.0
C2807 C 0.49016 0.28721 0.67392 0.0
C2808 C 0.45616 0.29176 0.68054 0.0
C2809 C 0.49056 0.27651 0.69169 0.0
C2810 C 0.47432 0.27371 0.70385 0.0
C2811 C 0.44109 0.27948 0.71139 0.0
C2812 C 0.42387 0.28759 0.70642 0.0
C2813 C 0.45712 0.28147 0.69861 0.0
C2814 C 0.42287 0.29712 0.68789 0.0
C2815 C 0.43878 0.29922 0.67519 0.0
H2816 H 1.00299 0.84639 0.57593 0.0
H2817 H 0.06397 0.85733 0.60805 0.0
H2818 H 0.07525 0.88874 0.59062 0.0
H2819 H 0.06767 0.91284 0.56574 0.0
H2820 H 1.00624 0.90261 0.53535 0.0
H2821 H 0.99509 0.87135 0.553 0.0
C2822 C 0.01866 0.85587 0.57944 0.0
C2823 C 0.03261 0.84951 0.59315 0.0
C2824 C 0.02494 0.87402 0.5697 0.0
C2825 C 0.05299 0.86171 0.59723 0.0
C2826 C 0.05943 0.87973 0.58738 0.0
C2827 C 0.05187 0.90372 0.56313 0.0
C2828 C 0.03772 0.90982 0.54941 0.0
C2829 C 0.04555 0.88593 0.57347 0.0
C2830 C 0.01726 0.89816 0.54608 0.0
C2831 C 0.01092 0.8803 0.55605 0.0
H2832 H 0.5022 0.8272 0.83958 0.0
H2833 H 0.50911 0.78601 0.78122 0.0
H2834 H 0.47356 0.78299 0.76688 0.0
H2835 H 0.44097 0.79338 0.7712 0.0
H2836 H 0.43501 0.83409 0.83049 0.0
H2837 H 0.46995 0.83608 0.84452 0.0
C2838 C 0.49579 0.81757 0.82372 0.0
C2839 C 0.50781 0.807 0.8112 0.0
C2840 C 0.4757 0.81587 0.81594 0.0
C2841 C 0.49977 0.79431 0.79085 0.0
C2842 C 0.47961 0.79263 0.78276 0.0
C2843 C 0.44743 0.8025 0.7872 0.0
C2844 C 0.43571 0.81347 0.79996 0.0
C2845 C 0.46749 0.8035 0.79516 0.0
C2846 C 0.4439 0.82531 0.82066 0.0
C2847 C 0.46381 0.82656 0.8286 0.0
H2848 H 0.53572 0.1558 0.0839 0.0
H2849 H 0.47091 0.12808 0.07077 0.0
H2850 H 0.47643 0.09594 0.04729 0.0
H2851 H 0.49995 0.07569 0.03079 0.0
H2852 H 0.56461 0.10261 0.04719 0.0
H2853 H 0.55884 0.13491 0.06985 0.0
C2854 C 0.52274 0.14256 0.07637 0.0
C2855 C 0.50295 0.14429 0.07925 0.0
C2856 C 0.52601 0.12397 0.06358 0.0
C2857 C 0.48633 0.12727 0.06866 0.0
C2858 C 0.48946 0.10882 0.05536 0.0
C2859 C 0.51268 0.08868 0.03941 0.0
C2860 C 0.5326 0.08707 0.03731 0.0
C2861 C 0.50926 0.10702 0.05273 0.0
C2862 C 0.54912 0.10366 0.04865 0.0
C2863 C 0.54585 0.12211 0.06152 0.0
H2864 H 0.1974 0.33851 0.30565 0.0
H2865 H 0.18568 0.27745 0.32957 0.0
H2866 H 0.21188 0.26576 0.31057 0.0
H2867 H 0.23947 0.27379 0.28943 0.0
H2868 H 0.25377 0.33581 0.26765 0.0
H2869 H 0.22504 0.34623 0.28339 0.0
C2870 C 0.20073 0.32274 0.30674 0.0
C2871 C 0.1896 0.30879 0.31876 0.0
C2872 C 0.21611 0.31625 0.2961 0.0
C2873 C 0.19387 0.28831 0.32004 0.0
C2874 C 0.20885 0.28161 0.30926 0.0
C2875 C 0.23601 0.28936 0.28767 0.0
C2876 C 0.24857 0.30408 0.27751 0.0
C2877 C 0.22013 0.2955 0.29739 0.0
C2878 C 0.24421 0.32434 0.27559 0.0
C2879 C 0.22791 0.33032 0.28465 0.0
H2880 H 0.97898 0.03624 0.12912 0.0
H2881 H 0.02727 0.08691 0.16888 0.0
H2882 H 0.04687 0.0881 0.13886 0.0
H2883 H 0.05171 0.07516 0.10085 0.0
H2884 H 1.00422 0.0251 0.05987 0.0
H2885 H 0.98387 0.02334 0.09005 0.0
C2886 C 0.99379 0.04762 0.13147 0.0
C2887 C 1.00087 0.06175 0.15229 0.0
C2888 C 1.00559 0.0484 0.11341 0.0
C2889 C 0.02044 0.07608 0.1538 0.0
C2890 C 0.03204 0.0767 0.13631 0.0
C2891 C 0.03682 0.06388 0.09822 0.0
C2892 C 0.02986 0.0504 0.07726 0.0
C2893 C 0.0249 0.06307 0.11594 0.0
C2894 C 0.01036 0.03597 0.07514 0.0
C2895 C 0.99861 0.03491 0.09273 0.0
H2896 H 0.27316 0.68344 0.41654 0.0
H2897 H 0.2741 0.74421 0.45879 0.0
H2898 H 0.2639 0.75993 0.42803 0.0
H2899 H 0.25615 0.75656 0.38966 0.0
H2900 H 0.25656 0.69665 0.34657 0.0
H2901 H 0.26413 0.67966 0.37745 0.0
C2902 C 0.27141 0.70023 0.41874 0.0
C2903 C 0.27472 0.71311 0.43936 0.0
C2904 C 0.26525 0.70882 0.40115 0.0
C2905 C 0.27199 0.73452 0.4427 0.0
C2906 C 0.26594 0.74327 0.42528 0.0
C2907 C 0.25715 0.7395 0.38703 0.0
C2908 C 0.25546 0.72761 0.36611 0.0
C2909 C 0.26248 0.73051 0.40453 0.0
C2910 C 0.2575 0.70582 0.36273 0.0
C2911 C 0.26211 0.69632 0.38027 0.0
H2912 H 0.58962 0.03202 0.6465 0.0
H2913 H 0.64322 0.06853 0.6252 0.0
H2914 H 0.62365 0.06754 0.5907 0.0
H2915 H 0.59125 0.0567 0.56721 0.0
H2916 H 0.53831 0.01798 0.58767 0.0
H2917 H 0.55776 0.01952 0.62232 0.0
C2918 C 0.59703 0.03953 0.63419 0.0
C2919 C 0.6177 0.0503 0.63816 0.0
C2920 C 0.58587 0.03857 0.61448 0.0
C2921 C 0.62718 0.06038 0.62239 0.0
C2922 C 0.61608 0.05971 0.60272 0.0
C2923 C 0.58412 0.04826 0.57911 0.0
C2924 C 0.56358 0.03705 0.57502 0.0
C2925 C 0.59543 0.04887 0.59866 0.0
C2926 C 0.55423 0.0266 0.59061 0.0
C2927 C 0.56528 0.02749 0.61034 0.0
H2928 H 0.29131 0.33609 0.90656 0.0
H2929 H 0.33222 0.29655 0.92287 0.0
H2930 H 0.33555 0.28602 0.88483 0.0
H2931 H 0.32731 0.28873 0.8465 0.0
H2932 H 0.28566 0.32794 0.8312 0.0
H2933 H 0.28218 0.33768 0.86896 0.0
C2934 C 0.30069 0.32485 0.90185 0.0
C2935 C 0.31154 0.31725 0.91772 0.0
C2936 C 0.30262 0.31893 0.87995 0.0
C2937 C 0.32386 0.30294 0.91111 0.0
C2938 C 0.32579 0.29688 0.8893 0.0
C2939 C 0.31767 0.29958 0.85151 0.0
C2940 C 0.30688 0.30766 0.83594 0.0
C2941 C 0.31546 0.30503 0.87353 0.0
C2942 C 0.29417 0.32142 0.84274 0.0
C2943 C 0.2921 0.32702 0.8644 0.0
H2944 H 0.98439 0.0325 0.38158 0.0
H2945 H 0.0258 0.09477 0.38078 0.0
H2946 H 0.04291 0.09414 0.41598 0.0
H2947 H 0.04643 0.07637 0.4484 0.0
H2948 H 1.00662 0.01294 0.44779 0.0
H2949 H 0.98909 0.01383 0.41272 0.0
C2950 C 0.99722 0.04599 0.38882 0.0
C2951 C 1.00314 0.06392 0.37778 0.0
C2952 C 1.00751 0.04545 0.40947 0.0
C2953 C 0.02003 0.08095 0.38836 0.0
C2954 C 0.03012 0.08056 0.40877 0.0
C2955 C 0.03391 0.0627 0.44065 0.0
C2956 C 0.028 0.04458 0.45134 0.0
C2957 C 0.02397 0.06303 0.41974 0.0
C2958 C 0.01181 0.02708 0.44039 0.0
C2959 C 1.00164 0.0276 0.42012 0.0
H2960 H 0.2845 0.7486 0.6268 0.0
H2961 H 0.29799 0.69208 0.64902 0.0
H2962 H 0.30251 0.71135 0.68636 0.0
H2963 H 0.30395 0.74448 0.71224 0.0
H2964 H 0.29285 0.80242 0.69084 0.0
H2965 H 0.2857 0.78237 0.65342 0.0
C2966 C 0.28827 0.74063 0.63995 0.0
C2967 C 0.2909 0.71911 0.63556 0.0
C2968 C 0.29121 0.75199 0.6613 0.0
C2969 C 0.29589 0.70869 0.65237 0.0
C2970 C 0.29847 0.71967 0.67359 0.0
C2971 C 0.29983 0.75271 0.69941 0.0
C2972 C 0.29893 0.77483 0.7041 0.0
C2973 C 0.29635 0.74135 0.67819 0.0
C2974 C 0.29372 0.78538 0.68742 0.0
C2975 C 0.28965 0.77394 0.66612 0.0
H2976 H 0.60253 0.07849 0.83669 0.0
H2977 H 0.65597 0.05706 0.85653 0.0
H2978 H 0.65359 0.07091 0.89415 0.0
H2979 H 0.63357 0.08474 0.92098 0.0
H2980 H 0.5795 0.10437 0.89982 0.0
H2981 H 0.5866 0.09841 0.86309 0.0
C2982 C 0.61398 0.07731 0.84916 0.0
C2983 C 0.62914 0.06645 0.84394 0.0
C2984 C 0.61295 0.08588 0.87046 0.0
C2985 C 0.64369 0.06471 0.86029 0.0
C2986 C 0.64262 0.07304 0.88172 0.0
C2987 C 0.62384 0.08854 0.90838 0.0
C2988 C 0.60557 0.09386 0.91293 0.0
C2989 C 0.62701 0.0832 0.88697 0.0
C2990 C 0.59351 0.09978 0.89679 0.0
C2991 C 0.59721 0.09579 0.87559 0.0
H2992 H 0.33229 0.33926 0.15265 0.0
H2993 H 0.26842 0.3168 0.12712 0.0
H2994 H 0.26157 0.30084 0.15833 0.0
H2995 H 0.27303 0.29245 0.1933 0.0
H2996 H 0.33538 0.31856 0.22149 0.0
H2997 H 0.34311 0.33426 0.18936 0.0
C2998 C 0.31673 0.33129 0.15369 0.0
C2999 C 0.3012 0.32925 0.13636 0.0
C3000 C 0.3124 0.32284 0.17266 0.0
C3001 C 0.28125 0.31834 0.139 0.0
C3002 C 0.27707 0.30929 0.15732 0.0
C3003 C 0.28823 0.30202 0.19261 0.0
C3004 C 0.30352 0.30465 0.21001 0.0
C3005 C 0.29245 0.31137 0.17423 0.0
C3006 C 0.32319 0.31678 0.20866 0.0
C3007 C 0.32764 0.32554 0.19011 0.0
H3008 H 0.24569 1.00785 0.04108 0.0
H3009 H 0.2114 0.95277 0.99293 0.0
H3010 H 0.18035 0.96517 0.99759 0.0
H3011 H 0.16323 0.9921 0.01478 0.0
H3012 H 0.19807 0.04832 0.06156 0.0
H3013 H 0.22845 0.03451 0.05866 0.0
C3014 C 0.23137 0.99855 0.03172 0.0
C3015 C 0.23074 0.97961 0.01654 0.0
C3016 C 0.21367 1.00582 0.0344 0.0
C3017 C 0.2122 0.96767 1.00441 0.0
C3018 C 0.19447 0.97465 0.00719 0.0
C3019 C 0.17748 1.00146 0.02421 0.0
C3020 C 0.1783 0.02127 0.03828 0.0
C3021 C 0.19507 0.99383 0.02198 0.0
C3022 C 0.19685 0.03286 0.05079 0.0
C3023 C 0.21433 0.02511 0.049 0.0
H3024 H 0.67454 0.60012 0.97871 0.0
H3025 H 0.67964 0.64098 0.04128 0.0
H3026 H 0.64616 0.62052 0.04623 0.0
H3027 H 0.61488 0.58945 0.03336 0.0
H3028 H 0.61029 0.55023 0.97019 0.0
H3029 H 0.6431 0.57192 0.96493 0.0
C3030 C 0.66844 0.60501 0.99338 0.0
C3031 C 0.68044 0.62233 0.00958 0.0
C3032 C 0.64866 0.59337 0.99608 0.0
C3033 C 0.67162 0.62756 0.02851 0.0
C3034 C 0.65208 0.61591 0.03135 0.0
C3035 C 0.62082 0.58604 0.01825 0.0
C3036 C 0.60969 0.56815 1.00208 0.0
C3037 C 0.64035 0.5986 0.01531 0.0
C3038 C 0.61819 0.56385 0.9829 0.0
C3039 C 0.63717 0.57622 0.97988 0.0
H3040 H 0.75664 0.42135 0.28517 0.0
H3041 H 0.70288 0.38474 0.24242 0.0
H3042 H 0.71616 0.35166 0.23908 0.0
H3043 H 0.74356 0.33157 0.24796 0.0
H3044 H 0.79838 0.36951 0.28841 0.0
H3045 H 0.78453 0.40199 0.29249 0.0
C3046 C 0.74762 0.40623 0.27509 0.0
C3047 C 0.7282 0.40653 0.2642 0.0
C3048 C 0.7558 0.38668 0.27264 0.0
C3049 C 0.71764 0.38604 0.25112 0.0
C3050 C 0.72536 0.36668 0.24919 0.0
C3051 C 0.75262 0.34684 0.25776 0.0
C3052 C 0.77249 0.34702 0.26795 0.0
C3053 C 0.74452 0.36651 0.25981 0.0
C3054 C 0.78332 0.36783 0.28021 0.0
C3055 C 0.77525 0.38686 0.28266 0.0
H3056 H 0.92895 0.46947 0.5272 0.0
H3057 H 0.92748 0.53803 0.53614 0.0
H3058 H 0.96168 0.54758 0.52576 0.0
H3059 H 0.99031 0.53581 0.51167 0.0
H3060 H 0.99281 0.46775 0.50429 0.0
H3061 H 0.95882 0.45804 0.51556 0.0
C3062 C 0.93641 0.48659 0.52754 0.0
C3063 C 0.92605 0.50316 0.5325 0.0
C3064 C 0.95549 0.49169 0.52081 0.0
C3065 C 0.93548 0.5252 0.5325 0.0
C3066 C 0.95475 0.53054 0.52626 0.0
C3067 C 0.98305 0.51876 0.51198 0.0
C3068 C 0.99317 0.50219 0.50635 0.0
C3069 C 0.96447 0.51378 0.51966 0.0
C3070 C 0.98456 0.48037 0.5078 0.0
C3071 C 0.9655 0.47502 0.51463 0.0
H3072 H 0.35417 0.09368 0.25198 0.0
H3073 H 0.40083 0.13928 0.29842 0.0
H3074 H 0.38616 0.1698 0.29176 0.0
H3075 H 0.3596 0.18295 0.27356 0.0
H3076 H 0.3109 0.13658 0.22988 0.0
H3077 H 0.3276 0.10698 0.23354 0.0
C3078 C 0.36105 0.11036 0.26055 0.0
C3079 C 0.37829 0.1145 0.27573 0.0
C3080 C 0.35248 0.1276 0.25678 0.0
C3081 C 0.38727 0.13594 0.28691 0.0
C3082 C 0.37905 0.1533 0.28296 0.0
C3083 C 0.35257 0.16635 0.26493 0.0
C3084 C 0.33394 0.16191 0.25172 0.0
C3085 C 0.36157 0.14925 0.26806 0.0
C3086 C 0.32536 0.14049 0.24002 0.0
C3087 C 0.33472 0.12348 0.24234 0.0
H3088 H 0.38948 0.14545 0.5427 0.0
H3089 H 0.37547 0.12648 0.47354 0.0
H3090 H 0.40287 0.10785 0.47247 0.0
H3091 H 0.43014 0.0957 0.49071 0.0
H3092 H 0.44406 0.11285 0.55978 0.0
H3093 H 0.41705 0.13268 0.5613 0.0
C3094 C 0.39226 0.13712 0.52738 0.0
C3095 C 0.38033 0.13781 0.50818 0.0
C3096 C 0.40799 0.12586 0.52682 0.0
C3097 C 0.38453 0.12694 0.48857 0.0
C3098 C 0.40016 0.116 0.48791 0.0
C3099 C 0.42753 0.10404 0.50612 0.0
C3100 C 0.43935 0.10289 0.52506 0.0
C3101 C 0.41197 0.11532 0.50688 0.0
C3102 C 0.43523 0.11334 0.54491 0.0
C3103 C 0.41979 0.12477 0.54578 0.0
H3104 H 0.71737 0.65796 0.26394 0.0
H3105 H 0.76827 0.63239 0.28367 0.0
H3106 H 0.79134 0.66783 0.28412 0.0
H3107 H 0.79837 0.70652 0.27895 0.0
H3108 H 0.74883 0.73439 0.26065 0.0
H3109 H 0.72472 0.69859 0.25972 0.0
C3110 C 0.7335 0.66 0.26835 0.0
C3111 C 0.74053 0.64154 0.27398 0.0
C3112 C 0.7473 0.68134 0.26892 0.0
C3113 C 0.76177 0.64553 0.2796 0.0
C3114 C 0.77524 0.66611 0.27977 0.0
C3115 C 0.78227 0.70506 0.27487 0.0
C3116 C 0.7759 0.72395 0.26998 0.0
C3117 C 0.76835 0.68423 0.27456 0.0
C3118 C 0.7547 0.72084 0.26472 0.0
C3119 C 0.74076 0.70003 0.26409 0.0
H3120 H 0.88345 0.41463 0.77336 0.0
H3121 H 0.83838 0.42094 0.72426 0.0
H3122 H 0.81395 0.38962 0.73271 0.0
H3123 H 0.80524 0.36307 0.75617 0.0
H3124 H 0.84971 0.35871 0.80686 0.0
H3125 H 0.87438 0.38923 0.79765 0.0
C3126 C 0.86848 0.40849 0.76403 0.0
C3127 C 0.86243 0.4194 0.74812 0.0
C3128 C 0.8542 0.39255 0.77058 0.0
C3129 C 0.84312 0.4121 0.73624 0.0
C3130 C 0.82911 0.39487 0.74156 0.0
C3131 C 0.82009 0.36963 0.76568 0.0
C3132 C 0.82605 0.35933 0.78206 0.0
C3133 C 0.83429 0.38579 0.75932 0.0
C3134 C 0.84508 0.36715 0.79444 0.0
C3135 C 0.85926 0.38389 0.78869 0.0
H3136 H 0.04625 0.90282 0.05416 0.0
H3137 H 0.11179 0.9231 0.06122 0.0
H3138 H 0.10992 0.95649 0.04788 0.0
H3139 H 0.09 0.98161 0.03585 0.0
H3140 H 0.02458 0.9616 0.02894 0.0
H3141 H 0.02627 0.92731 0.04096 0.0
C3142 C 0.06022 0.91452 0.05303 0.0
C3143 C 0.07918 0.90989 0.05896 0.0
C3144 C 0.05912 0.93423 0.0455 0.0
C3145 C 0.09689 0.9255 0.05666 0.0
C3146 C 0.09588 0.94495 0.04916 0.0
C3147 C 0.07609 0.96974 0.0369 0.0
C3148 C 0.05718 0.9745 0.03146 0.0
C3149 C 0.07713 0.9497 0.04375 0.0
C3150 C 0.0394 0.95861 0.03284 0.0
C3151 C 0.04034 0.93887 0.03983 0.0
H3152 H 0.89449 0.26256 0.85988 0.0
H3153 H 0.94071 0.29735 0.8272 0.0
H3154 H 0.91469 0.30446 0.80242 0.0
H3155 H 0.87887 0.3004 0.78883 0.0
H3156 H 0.83158 0.26739 0.82111 0.0
H3157 H 0.85754 0.26022 0.8469 0.0
C3158 C 0.89889 0.27165 0.84731 0.0
C3159 C 0.91998 0.27936 0.84574 0.0
C3160 C 0.88348 0.27619 0.83294 0.0
C3161 C 0.92496 0.29128 0.82924 0.0
C3162 C 0.90995 0.29537 0.8149 0.0
C3163 C 0.87412 0.29192 0.80172 0.0
C3164 C 0.85304 0.28474 0.80296 0.0
C3165 C 0.88919 0.28796 0.81652 0.0
C3166 C 0.8475 0.27361 0.81981 0.0
C3167 C 0.86247 0.26928 0.83448 0.0
H3168 H 0.59519 0.18875 0.5335 0.0
H3169 H 0.54245 0.18463 0.56702 0.0
H3170 H 0.53538 0.14464 0.55954 0.0
H3171 H 0.54429 0.11079 0.54429 0.0
H3172 H 0.5976 0.11375 0.51214 0.0
H3173 H 0.60437 0.15417 0.51822 0.0
C3174 C 0.58216 0.17906 0.53912 0.0
C3175 C 0.56922 0.18975 0.55055 0.0
C3176 C 0.57831 0.15587 0.53507 0.0
C3177 C 0.55238 0.17692 0.55772 0.0
C3178 C 0.5484 0.154 0.55364 0.0
C3179 C 0.55739 0.1203 0.53859 0.0
C3180 C 0.57045 0.10943 0.52783 0.0
C3181 C 0.56126 0.14333 0.54241 0.0
C3182 C 0.58748 0.12187 0.52069 0.0
C3183 C 0.59127 0.14492 0.52409 0.0
H3184 H 0.6316 0.76925 0.3761 0.0
H3185 H 0.60707 0.81595 0.34639 0.0
H3186 H 0.63587 0.8222 0.32596 0.0
H3187 H 0.66708 0.81301 0.31498 0.0
H3188 H 0.6929 0.76797 0.34622 0.0
H3189 H 0.66448 0.76226 0.36712 0.0
C3190 C 0.63254 0.78076 0.36513 0.0
C3191 C 0.61699 0.79195 0.36272 0.0
C3192 C 0.64933 0.78444 0.35345 0.0
C3193 C 0.61876 0.80714 0.34869 0.0
C3194 C 0.63522 0.81065 0.33688 0.0
C3195 C 0.6668 0.80218 0.32656 0.0
C3196 C 0.68225 0.79071 0.32857 0.0
C3197 C 0.65052 0.79924 0.33895 0.0
C3198 C 0.68113 0.7766 0.34367 0.0
C3199 C 0.66489 0.77343 0.35585 0.0
H3200 H 0.05599 0.21681 0.42816 0.0
H3201 H 0.11192 0.2497 0.46981 0.0
H3202 H 0.107 0.2204 0.49052 0.0
H3203 H 0.08702 0.18574 0.49709 0.0
H3204 H 0.02984 0.1538 0.45791 0.0
H3205 H 0.03467 0.18295 0.43629 0.0
C3206 C 0.06697 0.21778 0.44195 0.0
C3207 C 0.08449 0.23534 0.44715 0.0
C3208 C 0.06377 0.20116 0.45428 0.0
C3209 C 0.09861 0.23611 0.46498 0.0
C3210 C 0.09573 0.21947 0.47701 0.0
C3211 C 0.0757 0.18513 0.48371 0.0
C3212 C 0.05832 0.16766 0.47877 0.0
C3213 C 0.07847 0.20192 0.47173 0.0
C3214 C 0.04342 0.16717 0.46181 0.0
C3215 C 0.04621 0.18375 0.4495 0.0
H3216 H 0.5956 0.24209 0.2338 0.0
H3217 H 0.6113 0.30379 0.2115 0.0
H3218 H 0.64696 0.30842 0.22492 0.0
H3219 H 0.67399 0.29238 0.23854 0.0
H3220 H 0.6583 0.22946 0.25838 0.0
H3221 H 0.62222 0.22767 0.25019 0.0
C3222 C 0.60685 0.25659 0.23202 0.0
C3223 C 0.60099 0.2724 0.22151 0.0
C3224 C 0.62727 0.2588 0.23912 0.0
C3225 C 0.61551 0.29142 0.21967 0.0
C3226 C 0.6359 0.294 0.22715 0.0
C3227 C 0.66256 0.27854 0.24139 0.0
C3228 C 0.66849 0.26107 0.24896 0.0
C3229 C 0.64198 0.27743 0.23625 0.0
C3230 C 0.65385 0.24316 0.25276 0.0
C3231 C 0.63331 0.24206 0.24794 0.0
H3232 H 0.62555 0.95124 0.96471 0.0
H3233 H 0.56624 0.91827 0.93072 0.0
H3234 H 0.55197 0.94777 0.948 0.0
H3235 H 0.55578 0.98049 0.97616 0.0
H3236 H 0.61501 0.01214 0.01146 0.0
H3237 H 0.62999 0.98585 0.99027 0.0
C3238 C 0.60963 0.95089 0.96085 0.0
C3239 C 0.59684 0.93285 0.94676 0.0
C3240 C 0.6015 0.96749 0.97127 0.0
C3241 C 0.57619 0.93217 0.94177 0.0
C3242 C 0.56806 0.94892 0.95163 0.0
C3243 C 0.57198 0.98173 0.9789 0.0
C3244 C 0.58423 0.99776 0.99548 0.0
C3245 C 0.58045 0.96629 0.96694 0.0
C3246 C 0.60524 0.99954 0.99893 0.0
C3247 C 0.61385 0.98457 0.98683 0.0
H3248 H 0.90589 0.74043 0.71738 0.0
H3249 H 0.93541 0.80936 0.72334 0.0
H3250 H 0.90956 0.81952 0.74434 0.0
H3251 H 0.87694 0.80873 0.75768 0.0
H3252 H 0.848 0.73958 0.75208 0.0
H3253 H 0.87597 0.72962 0.73499 0.0
C3254 C 0.90703 0.75766 0.72373 0.0
C3255 C 0.92229 0.77412 0.71849 0.0
C3256 C 0.89231 0.76335 0.73588 0.0
C3257 C 0.92342 0.79639 0.72667 0.0
C3258 C 0.90877 0.80221 0.7388 0.0
C3259 C 0.87691 0.79147 0.75312 0.0
C3260 C 0.86024 0.77493 0.75577 0.0
C3261 C 0.89285 0.78581 0.74299 0.0
C3262 C 0.86053 0.75266 0.74996 0.0
C3263 C 0.87648 0.74692 0.7401 0.0
H3264 H 0.12802 0.04157 0.90566 0.0
H3265 H 0.07983 0.99283 0.8639 0.0
H3266 H 0.05904 0.99156 0.89324 0.0
H3267 H 0.05356 1.00369 0.9313 0.0
H3268 H 0.1017 0.05077 0.97446 0.0
H3269 H 0.12278 0.05293 0.94493 0.0
C3270 C 0.11298 0.03061 0.9028 0.0
C3271 C 0.10601 0.01723 0.88166 0.0
C3272 C 0.10077 0.02948 0.9205 0.0
C3273 C 0.08624 1.00325 0.87933 0.0
C3274 C 0.0741 1.00253 0.89639 0.0
C3275 C 0.06873 0.01442 0.93452 0.0
C3276 C 0.07562 0.02699 0.95589 0.0
C3277 C 0.08108 0.01542 0.91716 0.0
C3278 C 0.09554 0.04068 0.95882 0.0
C3279 C 0.10772 0.04197 0.94161 0.0
H3280 H 0.82759 0.34855 0.58901 0.0
H3281 H 0.8539 0.4162 0.61925 0.0
H3282 H 0.86664 0.40448 0.65167 0.0
H3283 H 0.87 0.37466 0.67105 0.0
H3284 H 0.84322 0.30709 0.63987 0.0
H3285 H 0.83167 0.31907 0.60776 0.0
C3286 C 0.83587 0.36062 0.60289 0.0
C3287 C 0.83969 0.38301 0.60225 0.0
C3288 C 0.84358 0.35379 0.62091 0.0
C3289 C 0.85074 0.39879 0.61986 0.0
C3290 C 0.85814 0.39212 0.63817 0.0
C3291 C 0.86205 0.36263 0.65702 0.0
C3292 C 0.85788 0.3401 0.65771 0.0
C3293 C 0.8548 0.36961 0.63876 0.0
C3294 C 0.84731 0.32456 0.63955 0.0
C3295 C 0.84027 0.33135 0.62129 0.0
H3296 H 0.50945 0.0157 0.38642 0.0
H3297 H 0.48697 0.07255 0.40955 0.0
H3298 H 0.50751 0.07795 0.44433 0.0
H3299 H 0.53168 0.06626 0.46808 0.0
H3300 H 0.55201 1.00795 0.44588 0.0
H3301 H 0.53192 1.00282 0.41063 0.0
C3302 C 0.50882 0.02908 0.39916 0.0
C3303 C 0.49687 0.04376 0.39552 0.0
C3304 C 0.5202 0.03175 0.41911 0.0
C3305 C 0.49642 0.06128 0.41197 0.0
C3306 C 0.508 0.06429 0.43184 0.0
C3307 C 0.5317 0.05261 0.45533 0.0
C3308 C 0.54334 0.03775 0.4588 0.0
C3309 C 0.51997 0.04967 0.43551 0.0
C3310 C 0.54325 0.01971 0.44286 0.0
C3311 C 0.53179 0.01678 0.42293 0.0
H3312 H 0.79019 0.78439 0.12113 0.0
H3313 H 0.8101 0.72456 0.12152 0.0
H3314 H 0.81018 0.72917 0.1605 0.0
H3315 H 0.80508 0.7504 0.19463 0.0
H3316 H 0.78489 0.81009 0.19499 0.0
H3317 H 0.78478 0.80575 0.15581 0.0
C3318 C 0.79462 0.7725 0.12986 0.0
C3319 C 0.80034 0.75426 0.11856 0.0
C3320 C 0.79463 0.77529 0.1524 0.0
C3321 C 0.80597 0.73888 0.12997 0.0
C3322 C 0.80591 0.74145 0.15222 0.0
C3323 C 0.80046 0.76232 0.18604 0.0
C3324 C 0.79473 0.78036 0.19755 0.0
C3325 C 0.80032 0.75959 0.16361 0.0
C3326 C 0.7889 0.7958 0.18635 0.0
C3327 C 0.789 0.79338 0.164 0.0
H3328 H 0.09755 0.99508 0.64179 0.0
H3329 H 0.11642 0.06398 0.67127 0.0
H3330 H 0.10281 0.07383 0.63861 0.0
H3331 H 0.08571 0.06365 0.60024 0.0
H3332 H 0.06612 0.99469 0.57133 0.0
H3333 H 0.07909 0.98483 0.60436 0.0
C3334 C 0.0987 0.01232 0.64139 0.0
C3335 C 0.10888 0.02853 0.6598 0.0
C3336 C 0.0904 0.0182 0.62205 0.0
C3337 C 0.10963 0.0507 0.65789 0.0
C3338 C 0.10151 0.05653 0.63892 0.0
C3339 C 0.08411 0.04643 0.60108 0.0
C3340 C 0.07477 0.03012 0.58248 0.0
C3341 C 0.09195 0.04054 0.62065 0.0
C3342 C 0.07321 1.00794 0.5847 0.0
C3343 C 0.08072 1.00214 0.60388 0.0
H3344 H 0.80994 0.32775 0.40529 0.0
H3345 H 0.82712 0.38906 0.38287 0.0
H3346 H 0.82352 0.36911 0.34582 0.0
H3347 H 0.81379 0.3345 0.31991 0.0
H3348 H 0.79631 0.27278 0.34175 0.0
H3349 H 0.80205 0.29252 0.37913 0.0
C3350 C 0.81302 0.33656 0.3922 0.0
C3351 C 0.8187 0.35965 0.39643 0.0
C3352 C 0.8109 0.32496 0.37103 0.0
C3353 C 0.82275 0.3712 0.37967 0.0
C3354 C 0.82067 0.35984 0.35861 0.0
C3355 C 0.81138 0.32534 0.33287 0.0
C3356 C 0.80446 0.30229 0.32821 0.0
C3357 C 0.81452 0.33676 0.3541 0.0
C3358 C 0.80152 0.29058 0.34506 0.0
C3359 C 0.80475 0.30185 0.36637 0.0
H3360 H 0.45883 1.00763 0.17681 0.0
H3361 H 0.51594 1.00297 0.20833 0.0
H3362 H 0.52672 0.99145 0.1734 0.0
H3363 H 0.52141 0.98769 0.13488 0.0
H3364 H 0.46605 0.99672 0.10304 0.0
H3365 H 0.45224 1.00032 0.13729 0.0
C3366 C 0.47358 1.00399 0.17578 0.0
C3367 C 0.48694 1.00642 0.19451 0.0
C3368 C 0.47958 0.99768 0.15584 0.0
C3369 C 0.50585 1.00149 0.1937 0.0
C3370 C 0.51181 0.99473 0.17391 0.0
C3371 C 0.50595 0.98944 0.13519 0.0
C3372 C 0.4947 0.99193 0.11656 0.0
C3373 C 0.49895 0.99325 0.15494 0.0
C3374 C 0.47486 0.99462 0.11724 0.0
C3375 C 0.46717 0.99709 0.13683 0.0
H3376 H 0.80058 0.77768 0.90488 0.0
H3377 H 0.80207 0.71157 0.87694 0.0
H3378 H 0.80446 0.72203 0.84161 0.0
H3379 H 0.80736 0.75068 0.81821 0.0
H3380 H 0.8078 0.8171 0.84753 0.0
H3381 H 0.80348 0.80592 0.88197 0.0
C3382 C 0.8013 0.76549 0.89106 0.0
C3383 C 0.80112 0.74377 0.89384 0.0
C3384 C 0.80307 0.77175 0.87067 0.0
C3385 C 0.80234 0.72843 0.87555 0.0
C3386 C 0.80363 0.73441 0.85519 0.0
C3387 C 0.80618 0.76258 0.83204 0.0
C3388 C 0.80776 0.78477 0.82993 0.0
C3389 C 0.80414 0.7561 0.85244 0.0
C3390 C 0.80661 0.79993 0.84839 0.0
C3391 C 0.80415 0.79356 0.86829 0.0
H3392 H 0.86169 0.06694 0.01358 0.0
H3393 H 0.89206 0.13042 1.00164 0.0
H3394 H 0.92265 0.11728 0.99581 0.0
H3395 H 0.94096 0.08768 0.99504 0.0
H3396 H 0.90972 0.0239 1.0055 0.0
H3397 H 0.87924 0.03716 0.01122 0.0
C3398 C 0.87508 0.07784 0.00976 0.0
C3399 C 0.87488 0.09955 0.0082 0.0
C3400 C 0.89241 0.07015 1.00631 0.0
C3401 C 0.89203 0.11356 1.00286 0.0
C3402 C 0.90949 0.10611 0.99963 0.0
C3403 C 0.92744 0.07684 0.99863 0.0
C3404 C 0.92739 0.05499 1.00005 0.0
C3405 C 0.9099 0.08447 1.0015 0.0
C3406 C 0.90988 0.04082 1.00441 0.0
C3407 C 0.89253 0.04836 0.00767 0.0
H3408 H 0.42489 0.47222 1.00534 0.0
H3409 H 0.44066 0.45216 0.06517 0.0
H3410 H 0.47524 0.47391 0.0675 0.0
H3411 H 0.50151 0.50027 0.05368 0.0
H3412 H 0.48658 0.51943 0.9935 0.0
H3413 H 0.45194 0.49621 0.99001 0.0
C3414 C 0.43581 0.47225 0.01882 0.0
C3415 C 0.42937 0.46053 0.03529 0.0
C3416 C 0.45628 0.48466 0.01995 0.0
C3417 C 0.44434 0.46131 0.05251 0.0
C3418 C 0.46447 0.47367 0.05378 0.0
C3419 C 0.49083 0.49889 0.03952 0.0
C3420 C 0.49696 0.51125 0.02359 0.0
C3421 C 0.47067 0.4856 0.03776 0.0
C3422 C 0.48257 0.50973 1.00573 0.0
C3423 C 0.4626 0.49658 1.00385 0.0
H3424 H 0.34811 0.65587 0.75778 0.0
H3425 H 0.40868 0.6964 0.77868 0.0
H3426 H 0.39568 0.72956 0.78053 0.0
H3427 H 0.36668 0.74875 0.77631 0.0
H3428 H 0.30603 0.70756 0.75712 0.0
H3429 H 0.31924 0.67477 0.75495 0.0
C3430 C 0.3587 0.67184 0.76273 0.0
C3431 C 0.37991 0.67252 0.76801 0.0
C3432 C 0.35087 0.69164 0.76424 0.0
C3433 C 0.3925 0.69424 0.77458 0.0
C3434 C 0.38493 0.71367 0.7756 0.0
C3435 C 0.35616 0.7327 0.77163 0.0
C3436 C 0.3348 0.73176 0.76678 0.0
C3437 C 0.36405 0.71289 0.77052 0.0
C3438 C 0.32227 0.70996 0.76095 0.0
C3439 C 0.32996 0.69069 0.75964 0.0
H3440 H 0.17984 0.5608 0.53719 0.0
H3441 H 0.18024 0.57818 0.47419 0.0
H3442 H 0.14439 0.57738 0.47227 0.0
H3443 H 0.11466 0.57746 0.49061 0.0
H3444 H 0.11505 0.56397 0.55513 0.0
H3445 H 0.14982 0.5601 0.5553 0.0
C3446 C 0.17199 0.56419 0.52297 0.0
C3447 C 0.18277 0.57018 0.50625 0.0
C3448 C 0.15202 0.56592 0.52282 0.0
C3449 C 0.17234 0.57355 0.48741 0.0
C3450 C 0.15195 0.5737 0.48649 0.0
C3451 C 0.12249 0.574 0.50481 0.0
C3452 C 0.11251 0.57116 0.52281 0.0
C3453 C 0.14207 0.57115 0.50458 0.0
C3454 C 0.12266 0.56669 0.5412 0.0
C3455 C 0.1423 0.56393 0.54114 0.0
H3456 H 0.73668 0.95987 0.7377 0.0
H3457 H 0.73515 0.98335 0.80502 0.0
H3458 H 0.75434 0.95716 0.81468 0.0
H3459 H 0.77156 0.92747 0.80346 0.0
H3460 H 0.77314 0.90556 0.73582 0.0
H3461 H 0.75421 0.9318 0.72673 0.0
C3462 C 0.74089 0.95961 0.75452 0.0
C3463 C 0.73476 0.97354 0.77062 0.0
C3464 C 0.75187 0.94483 0.75984 0.0
C3465 C 0.73972 0.97259 0.79235 0.0
C3466 C 0.75071 0.95774 0.79786 0.0
C3467 C 0.76769 0.92857 0.78681 0.0
C3468 C 0.77336 0.91458 0.77027 0.0
C3469 C 0.75682 0.94373 0.78168 0.0
C3470 C 0.76846 0.91597 0.74871 0.0
C3471 C 0.75779 0.931 0.74351 0.0
H3472 H 0.70879 0.92299 0.53415 0.0
H3473 H 0.7457 0.9614 0.49556 0.0
H3474 H 0.71962 0.98175 0.49023 0.0
H3475 H 0.68714 0.99009 0.49837 0.0
H3476 H 0.64906 0.94947 0.53463 0.0
H3477 H 0.67469 0.92874 0.53905 0.0
C3478 C 0.71107 0.9358 0.52456 0.0
C3479 C 0.72928 0.94088 0.5155 0.0
C3480 C 0.69582 0.94718 0.52124 0.0
C3481 C 0.73186 0.95724 0.50276 0.0
C3482 C 0.71695 0.9689 0.49974 0.0
C3483 C 0.6842 0.97648 0.50693 0.0
C3484 C 0.66619 0.97184 0.51657 0.0
C3485 C 0.69894 0.9642 0.50911 0.0
C3486 C 0.66294 0.95405 0.52762 0.0
C3487 C 0.67759 0.942 0.53005 0.0
H3488 H 0.34624 0.42969 0.74077 0.0
H3489 H 0.39521 0.43322 0.78998 0.0
H3490 H 0.37986 0.39549 0.79399 0.0
H3491 H 0.35109 0.36033 0.7846 0.0
H3492 H 0.30186 0.35861 0.73624 0.0
H3493 H 0.31834 0.39532 0.73129 0.0
C3494 C 0.35379 0.42236 0.75235 0.0
C3495 C 0.37227 0.43535 0.76503 0.0
C3496 C 0.34454 0.40015 0.75491 0.0
C3497 C 0.38106 0.42461 0.77999 0.0
C3498 C 0.3722 0.40258 0.78228 0.0
C3499 C 0.34409 0.36765 0.77261 0.0
C3500 C 0.32491 0.35548 0.7605 0.0
C3501 C 0.35374 0.38992 0.76995 0.0
C3502 C 0.31645 0.36657 0.74571 0.0
C3503 C 0.32595 0.38801 0.74286 0.0
H3504 H 0.2263 0.66744 0.25698 0.0
H3505 H 0.26827 0.65633 0.30646 0.0
H3506 H 0.29368 0.68911 0.30212 0.0
H3507 H 0.30378 0.71908 0.28255 0.0
H3508 H 0.26282 0.72674 0.2301 0.0
H3509 H 0.23747 0.69468 0.23523 0.0
C3510 C 0.24092 0.67264 0.26708 0.0
C3511 C 0.24581 0.66014 0.28201 0.0
C3512 C 0.25581 0.68936 0.26272 0.0
C3513 C 0.26449 0.66634 0.29514 0.0
C3514 C 0.27904 0.68445 0.29219 0.0
C3515 C 0.28955 0.71302 0.27183 0.0
C3516 C 0.28464 0.72473 0.25624 0.0
C3517 C 0.27502 0.69548 0.27551 0.0
C3518 C 0.26659 0.71735 0.24205 0.0
C3519 C 0.25199 0.69963 0.24542 0.0
H3520 H 0.55485 0.66254 0.46019 0.0
H3521 H 0.51115 0.67555 0.50255 0.0
H3522 H 0.51416 0.64376 0.51861 0.0
H3523 H 0.52827 0.6109 0.51995 0.0
H3524 H 0.57364 0.59955 0.47939 0.0
H3525 H 0.57081 0.63157 0.46342 0.0
C3526 C 0.54608 0.65864 0.47307 0.0
C3527 C 0.53246 0.67154 0.47971 0.0
C3528 C 0.54807 0.64029 0.48256 0.0
C3529 C 0.52132 0.66583 0.4965 0.0
C3530 C 0.52313 0.64761 0.50587 0.0
C3531 C 0.53762 0.61556 0.50772 0.0
C3532 C 0.55118 0.60275 0.5009 0.0
C3533 C 0.53624 0.63447 0.49887 0.0
C3534 C 0.56325 0.60917 0.48512 0.0
C3535 C 0.56157 0.62749 0.4759 0.0
H3536 H 0.68363 0.27476 0.68672 0.0
H3537 H 0.70313 0.34484 0.68839 0.0
H3538 H 0.73411 0.34649 0.71126 0.0
H3539 H 0.75563 0.32883 0.73298 0.0
H3540 H 0.7374 0.25887 0.73038 0.0
H3541 H 0.70681 0.25646 0.70569 0.0
C3542 C 0.69465 0.29044 0.69173 0.0
C3543 C 0.69014 0.30976 0.68577 0.0
C3544 C 0.71317 0.29134 0.70479 0.0
C3545 C 0.70517 0.32969 0.69294 0.0
C3546 C 0.7233 0.33068 0.70598 0.0
C3547 C 0.74536 0.31292 0.72637 0.0
C3548 C 0.74945 0.29391 0.73306 0.0
C3549 C 0.72748 0.31171 0.71225 0.0
C3550 C 0.73526 0.27366 0.725 0.0
C3551 C 0.7175 0.27234 0.71104 0.0
H3552 H 0.05574 0.39674 1.00602 0.0
H3553 H 0.99974 0.38499 0.96367 0.0
H3554 H 0.99906 0.42362 0.97354 0.0
H3555 H 0.01545 0.46142 0.99261 0.0
H3556 H 0.07167 0.47321 0.03468 0.0
H3557 H 0.07102 0.43411 0.02682 0.0
C3558 C 0.04339 0.40267 0.99903 0.0
C3559 C 0.02781 0.38799 0.98419 0.0
C3560 C 0.04306 0.42497 1.0048 0.0
C3561 C 0.01181 0.39589 0.97535 0.0
C3562 C 0.01143 0.41801 0.98092 0.0
C3563 C 0.02731 0.45533 1.00038 0.0
C3564 C 0.04361 0.47021 0.01413 0.0
C3565 C 0.02705 0.43278 0.9955 0.0
C3566 C 0.059 0.4621 0.0239 0.0
C3567 C 0.0587 0.43973 0.01937 0.0
H3568 H 0.9885 0.82049 0.17936 0.0
H3569 H 0.98296 0.75049 0.16163 0.0
H3570 H 0.95189 0.74305 0.17822 0.0
H3571 H 0.92616 0.75628 0.19829 0.0
H3572 H 0.93152 0.8263 0.21519 0.0
H3573 H 0.96202 0.83357 0.19764 0.0
C3574 C 0.98044 0.80356 0.17875 0.0
C3575 C 0.98857 0.78619 0.16932 0.0
C3576 C 0.96222 0.79927 0.18808 0.0
C3577 C 0.97768 0.76438 0.16915 0.0
C3578 C 0.95966 0.76003 0.17852 0.0
C3579 C 0.93399 0.77317 0.19824 0.0
C3580 C 0.9263 0.79068 0.20823 0.0
C3581 C 0.95184 0.77735 0.18822 0.0
C3582 C 0.93668 0.81238 0.20749 0.0
C3583 C 0.95434 0.81662 0.19758 0.0
H3584 H 0.52192 0.36921 0.10949 0.0
H3585 H 0.54152 0.32383 0.06271 0.0
H3586 H 0.55141 0.35268 0.04166 0.0
H3587 H 0.55235 0.38985 0.03561 0.0
H3588 H 0.53468 0.43622 0.08335 0.0
H3589 H 0.52603 0.40782 0.10507 0.0
C3590 C 0.52836 0.3658 0.09466 0.0
C3591 C 0.53079 0.3446 0.08731 0.0
C3592 C 0.53425 0.38249 0.0829 0.0
C3593 C 0.53947 0.34015 0.06841 0.0
C3594 C 0.5451 0.35657 0.05645 0.0
C3595 C 0.54704 0.39396 0.05098 0.0
C3596 C 0.54394 0.41505 0.05771 0.0
C3597 C 0.54233 0.37771 0.06343 0.0
C3598 C 0.53677 0.41995 0.07757 0.0
C3599 C 0.53191 0.40377 0.09004 0.0
H3600 H 0.99237 0.28617 0.32073 0.0
H3601 H 0.01815 0.34017 0.29001 0.0
H3602 H 0.98429 0.33995 0.27376 0.0
H3603 H 0.94754 0.32799 0.27294 0.0
H3604 H 0.92208 0.27354 0.30306 0.0
H3605 H 0.95613 0.26967 0.31421 0.0
C3606 C 0.99081 0.29736 0.30983 0.0
C3607 C 1.00773 0.31342 0.30689 0.0
C3608 C 0.97145 0.29704 0.30047 0.0
C3609 C 1.00526 0.32803 0.29299 0.0
C3610 C 0.98596 0.32783 0.28358 0.0
C3611 C 0.94944 0.31476 0.28125 0.0
C3612 C 0.93256 0.30128 0.28753 0.0
C3613 C 0.96894 0.31293 0.28788 0.0
C3614 C 0.93506 0.28431 0.29844 0.0
C3615 C 0.95444 0.28215 0.30483 0.0
H3616 H 0.99397 0.6442 0.55797 0.0
H3617 H 0.01976 0.63294 0.61848 0.0
H3618 H 0.03256 0.60317 0.59964 0.0
H3619 H 0.04004 0.58387 0.56583 0.0
H3620 H 0.01468 0.5954 0.50545 0.0
H3621 H 0.99768 0.62144 0.52436 0.0
C3622 C 1.00181 0.63477 0.56705 0.0
C3623 C 1.00618 0.64089 0.58949 0.0
C3624 C 1.00935 0.61795 0.55615 0.0
C3625 C 0.01656 0.6287 0.6011 0.0
C3626 C 0.02387 0.61172 0.59038 0.0
C3627 C 0.03036 0.59164 0.55692 0.0
C3628 C 0.02858 0.58803 0.5345 0.0
C3629 C 0.02095 0.60674 0.56789 0.0
C3630 C 0.01637 0.59841 0.52288 0.0
C3631 C 1.00664 0.61317 0.53363 0.0
H3632 H 0.71023 0.83001 0.83901 0.0
H3633 H 0.66515 0.80199 0.78371 0.0
H3634 H 0.69133 0.79234 0.76243 0.0
H3635 H 0.72711 0.79055 0.76058 0.0
H3636 H 0.77138 0.81806 0.8168 0.0
H3637 H 0.74538 0.82876 0.83716 0.0
C3638 C 0.70633 0.8222 0.82217 0.0
C3639 C 0.6862 0.81695 0.81261 0.0
C3640 C 0.72118 0.81626 0.81049 0.0
C3641 C 0.68084 0.80631 0.79105 0.0
C3642 C 0.69569 0.80069 0.77905 0.0
C3643 C 0.73086 0.79899 0.77723 0.0
C3644 C 0.75084 0.80396 0.78731 0.0
C3645 C 0.71588 0.8053 0.78872 0.0
C3646 C 0.75593 0.8146 0.80886 0.0
C3647 C 0.74117 0.82067 0.82045 0.0
H3648 H 0.48194 0.53292 0.6302 0.0
H3649 H 0.52419 0.59217 0.66537 0.0
H3650 H 0.54268 0.59437 0.63461 0.0
H3651 H 0.54789 0.58033 0.59663 0.0
H3652 H 0.50711 0.52042 0.56147 0.0
H3653 H 0.48802 0.51795 0.59239 0.0
C3654 C 0.49519 0.54642 0.63146 0.0
C3655 C 0.50069 0.56266 0.65115 0.0
C3656 C 0.5065 0.54764 0.61307 0.0
C3657 C 0.51838 0.5796 0.65117 0.0
C3658 C 0.52941 0.58085 0.63322 0.0
C3659 C 0.53479 0.56666 0.59549 0.0
C3660 C 0.52926 0.55064 0.57581 0.0
C3661 C 0.52367 0.56515 0.61388 0.0
C3662 C 0.51214 0.53316 0.57572 0.0
C3663 C 0.50105 0.53174 0.59371 0.0
H3664 H 0.77292 0.23243 0.94662 0.0
H3665 H 0.78188 0.17013 0.9157 0.0
H3666 H 0.76764 0.17584 0.88094 0.0
H3667 H 0.75239 0.19862 0.85982 0.0
H3668 H 0.74351 0.26067 0.89208 0.0
H3669 H 0.75567 0.25351 0.92635 0.0
C3670 C 0.77166 0.22006 0.93227 0.0
C3671 C 0.77832 0.20097 0.93356 0.0
C3672 C 0.76246 0.22277 0.91286 0.0
C3673 C 0.7771 0.1852 0.9149 0.0
C3674 C 0.76857 0.18819 0.89519 0.0
C3675 C 0.75271 0.2103 0.87443 0.0
C3676 C 0.7473 0.2302 0.87324 0.0
C3677 C 0.76093 0.2068 0.89409 0.0
C3678 C 0.74733 0.24503 0.89234 0.0
C3679 C 0.75483 0.2413 0.912 0.0
H3680 H 0.12878 0.56353 0.12999 0.0
H3681 H 0.08178 0.52432 0.15848 0.0
H3682 H 0.0577 0.51966 0.12624 0.0
H3683 H 0.05027 0.52684 0.09026 0.0
H3684 H 0.0967 0.56781 0.06259 0.0
H3685 H 0.12106 0.57165 0.09438 0.0
C3686 C 0.11319 0.55421 0.12916 0.0
C3687 C 0.10689 0.54426 0.14629 0.0
C3688 C 0.09953 0.5518 0.11083 0.0
C3689 C 0.08683 0.53191 0.14518 0.0
C3690 C 0.07312 0.5293 0.12688 0.0
C3691 C 0.06572 0.5366 0.09127 0.0
C3692 C 0.0719 0.54685 0.07431 0.0
C3693 C 0.07936 0.53914 0.10964 0.0
C3694 C 0.09183 0.55958 0.07556 0.0
C3695 C 0.10568 0.56187 0.09369 0.0
H3696 H 0.83362 0.8377 0.41137 0.0
H3697 H 0.77493 0.79523 0.41356 0.0
H3698 H 0.77133 0.78219 0.37474 0.0
H3699 H 0.78435 0.78367 0.33979 0.0
H3700 H 0.84374 0.82456 0.33796 0.0
H3701 H 0.84764 0.8372 0.37698 0.0
C3702 C 0.82016 0.82532 0.4035 0.0
C3703 C 0.80454 0.81761 0.4156 0.0
C3704 C 0.81829 0.81762 0.38114 0.0
C3705 C 0.78708 0.80183 0.4048 0.0
C3706 C 0.78504 0.79423 0.38255 0.0
C3707 C 0.79823 0.79517 0.34801 0.0
C3708 C 0.81378 0.80313 0.33603 0.0
C3709 C 0.80045 0.80216 0.37051 0.0
C3710 C 0.83169 0.81797 0.34686 0.0
C3711 C 0.83385 0.82531 0.36915 0.0
H3712 H 0.50775 0.58625 0.89418 0.0
H3713 H 0.49499 0.51845 0.86182 0.0
H3714 H 0.50894 0.50825 0.89431 0.0
H3715 H 0.52445 0.51789 0.93326 0.0
H3716 H 0.53735 0.58594 0.96509 0.0
H3717 H 0.5241 0.59604 0.9324 0.0
C3718 C 0.50787 0.56917 0.89407 0.0
C3719 C 0.50005 0.55337 0.87474 0.0
C3720 C 0.51615 0.56314 0.91327 0.0
C3721 C 0.50092 0.5314 0.87573 0.0
C3722 C 0.5089 0.52538 0.89464 0.0
C3723 C 0.52448 0.53497 0.93315 0.0
C3724 C 0.53203 0.55091 0.95245 0.0
C3725 C 0.51658 0.54101 0.91371 0.0
C3726 C 0.53168 0.57293 0.95115 0.0
C3727 C 0.52399 0.57888 0.93217 0.0
H3728 H 0.81908 0.23255 0.14244 0.0
H3729 H 0.75374 0.2218 0.13221 0.0
H3730 H 0.75482 0.24548 0.16685 0.0
H3731 H 0.77455 0.26908 0.20033 0.0
H3732 H 0.83985 0.28183 0.2085 0.0
H3733 H 0.83867 0.25817 0.1737 0.0
C3734 C 0.80505 0.23577 0.14736 0.0
C3735 C 0.78638 0.22537 0.13458 0.0
C3736 C 0.80582 0.24999 0.1668 0.0
C3737 C 0.76834 0.22924 0.14181 0.0
C3738 C 0.76894 0.24297 0.16153 0.0
C3739 C 0.78844 0.2669 0.19417 0.0
C3740 C 0.80727 0.27724 0.20647 0.0
C3741 C 0.7876 0.2534 0.17416 0.0
C3742 C 0.82527 0.27425 0.19883 0.0
C3743 C 0.82457 0.26063 0.17913 0.0
H3744 H 0.14635 0.5719 0.35588 0.0
H3745 H 0.08437 0.54732 0.32562 0.0
H3746 H 0.07221 0.56291 0.35826 0.0
H3747 H 0.07924 0.58194 0.39484 0.0
H3748 H 0.14052 0.60275 0.42772 0.0
H3749 H 0.15348 0.59146 0.39382 0.0
C3750 C 0.1302 0.56964 0.35685 0.0
C3751 C 0.11602 0.55812 0.3391 0.0
C3752 C 0.1235 0.57878 0.37548 0.0
C3753 C 0.09522 0.55565 0.33965 0.0
C3754 C 0.0884 0.56487 0.35802 0.0
C3755 C 0.09553 0.58487 0.39447 0.0
C3756 C 0.10905 0.5937 0.41342 0.0
C3757 C 0.10243 0.57653 0.37586 0.0
C3758 C 0.13002 0.59655 0.41303 0.0
C3759 C 0.13728 0.58963 0.39388 0.0
H3760 H 0.80854 0.80073 0.63 0.0
H3761 H 0.8033 0.86597 0.65574 0.0
H3762 H 0.80025 0.8561 0.69136 0.0
H3763 H 0.79831 0.82818 0.71563 0.0
H3764 H 0.80247 0.76267 0.68848 0.0
H3765 H 0.80677 0.77326 0.65379 0.0
C3766 C 0.80677 0.81279 0.64343 0.0
C3767 C 0.80621 0.83414 0.64008 0.0
C3768 C 0.8049 0.80691 0.66396 0.0
C3769 C 0.8038 0.84945 0.65776 0.0
C3770 C 0.80208 0.84379 0.67822 0.0
C3771 C 0.80051 0.81638 0.70223 0.0
C3772 C 0.80026 0.7946 0.70505 0.0
C3773 C 0.80261 0.82251 0.68167 0.0
C3774 C 0.80267 0.77954 0.6871 0.0
C3775 C 0.80509 0.78555 0.66704 0.0
H3776 H 0.72901 0.4779 0.54594 0.0
H3777 H 0.73671 0.49903 0.48526 0.0
H3778 H 0.70791 0.51571 0.48824 0.0
H3779 H 0.6807 0.52453 0.50817 0.0
H3780 H 0.67393 0.50483 0.56951 0.0
H3781 H 0.70266 0.48786 0.56647 0.0
C3782 C 0.7246 0.48642 0.5335 0.0
C3783 C 0.73491 0.48706 0.51532 0.0
C3784 C 0.70826 0.49629 0.53547 0.0
C3785 C 0.72877 0.4979 0.49921 0.0
C3786 C 0.7124 0.50758 0.50096 0.0
C3787 C 0.68542 0.51633 0.52076 0.0
C3788 C 0.67519 0.5158 0.53897 0.0
C3789 C 0.70197 0.50677 0.51896 0.0
C3790 C 0.68166 0.50552 0.55538 0.0
C3791 C 0.69802 0.49577 0.55363 0.0
H3792 H 0.16204 0.13015 0.48924 0.0
H3793 H 0.19821 0.0967 0.52478 0.0
H3794 H 0.16752 0.06998 0.52907 0.0
H3795 H 0.1302 0.05497 0.52182 0.0
H3796 H 0.09333 0.08917 0.48845 0.0
H3797 H 0.12401 0.11658 0.48445 0.0
C3798 C 0.16319 0.117 0.49791 0.0
C3799 C 0.18267 0.11547 0.50649 0.0
C3800 C 0.14517 0.10181 0.50087 0.0
C3801 C 0.18363 0.09841 0.51795 0.0
C3802 C 0.16599 0.08304 0.52042 0.0
C3803 C 0.12885 0.06866 0.514 0.0
C3804 C 0.10932 0.07021 0.50584 0.0
C3805 C 0.14666 0.08446 0.5119 0.0
C3806 C 0.108 0.08791 0.49548 0.0
C3807 C 0.12565 0.10344 0.49294 0.0
H3808 H 0.25182 0.91748 0.79107 0.0
H3809 H 0.2095 0.8892 0.73347 0.0
H3810 H 0.22374 0.85698 0.72852 0.0
H3811 H 0.24853 0.83498 0.74009 0.0
H3812 H 0.29243 0.86453 0.7961 0.0
H3813 H 0.27746 0.89634 0.80175 0.0
C3814 C 0.24546 0.90439 0.77736 0.0
C3815 C 0.22901 0.907 0.76275 0.0
C3816 C 0.25421 0.8852 0.77418 0.0
C3817 C 0.22195 0.88897 0.74518 0.0
C3818 C 0.23018 0.86998 0.7423 0.0
C3819 C 0.25492 0.84824 0.75366 0.0
C3820 C 0.27202 0.84631 0.76774 0.0
C3821 C 0.24638 0.8676 0.75662 0.0
C3822 C 0.27959 0.86464 0.7848 0.0
C3823 C 0.27087 0.88322 0.78811 0.0
H3824 H 0.4289 0.02573 0.01198 0.0
H3825 H 0.43044 0.99344 0.06697 0.0
H3826 H 0.46594 0.99501 0.06556 0.0
H3827 H 0.49463 0.9985 0.04482 0.0
H3828 H 0.48931 0.02047 0.98417 0.0
H3829 H 0.4561 0.02673 0.98991 0.0
C3830 C 0.43664 0.01833 0.02335 0.0
C3831 C 0.42613 1.00771 0.03822 0.0
C3832 C 0.45606 0.01594 0.02057 0.0
C3833 C 0.43742 1.00098 0.05455 0.0
C3834 C 0.45781 1.00136 0.05359 0.0
C3835 C 0.48587 1.00404 0.03263 0.0
C3836 C 0.49404 1.00862 0.01402 0.0
C3837 C 0.46672 1.00723 0.03579 0.0
C3838 C 0.48294 0.01622 0.99839 0.0
C3839 C 0.46425 0.02038 1.0019 0.0
H3840 H 0.8515 0.59324 0.7571 0.0
H3841 H 0.90399 0.64252 0.79089 0.0
H3842 H 0.88831 0.67182 0.78241 0.0
H3843 H 0.85924 0.68298 0.76657 0.0
H3844 H 0.80536 0.6334 0.73602 0.0
H3845 H 0.82256 0.60447 0.7408 0.0
C3846 C 0.85941 0.61045 0.76253 0.0
C3847 C 0.87861 0.61604 0.77469 0.0
C3848 C 0.8503 0.62697 0.75775 0.0
C3849 C 0.88896 0.63816 0.7818 0.0
C3850 C 0.88013 0.65477 0.77677 0.0
C3851 C 0.85124 0.66585 0.761 0.0
C3852 C 0.83101 0.66034 0.75122 0.0
C3853 C 0.86074 0.64932 0.76493 0.0
C3854 C 0.82104 0.63811 0.74342 0.0
C3855 C 0.83073 0.62153 0.74644 0.0
H3856 H 0.88259 0.62691 0.98619 0.0
H3857 H 0.88751 0.65255 0.0542 0.0
H3858 H 0.91561 0.63563 0.06107 0.0
H3859 H 0.93912 0.61324 0.0478 0.0
H3860 H 0.93478 0.58938 0.97956 0.0
H3861 H 0.90679 0.60645 0.97291 0.0
C3862 C 0.88992 0.6292 1.00252 0.0
C3863 C 0.8825 0.64095 0.01956 0.0
C3864 C 0.90647 0.61979 1.00641 0.0
C3865 C 0.8923 0.64322 0.04064 0.0
C3866 C 0.90861 0.63367 0.04465 0.0
C3867 C 0.93205 0.61181 0.03148 0.0
C3868 C 0.93927 0.60012 0.0142 0.0
C3869 C 0.9158 0.62179 0.02766 0.0
C3870 C 0.9299 0.59857 0.99317 0.0
C3871 C 0.91373 0.60821 0.98932 0.0
H3872 H 0.26521 0.1408 0.77319 0.0
H3873 H 0.20597 0.15401 0.76893 0.0
H3874 H 0.22121 0.19284 0.76782 0.0
H3875 H 0.25245 0.22468 0.76805 0.0
H3876 H 0.31079 0.20844 0.76989 0.0
H3877 H 0.2951 0.17085 0.77151 0.0
C3878 C 0.25548 0.15206 0.77206 0.0
C3879 C 0.23413 0.1437 0.77137 0.0
C3880 C 0.26443 0.17469 0.77082 0.0
C3881 C 0.22231 0.15925 0.76954 0.0
C3882 C 0.23116 0.18182 0.76889 0.0
C3883 C 0.26184 0.21305 0.76876 0.0
C3884 C 0.28345 0.22073 0.76908 0.0
C3885 C 0.25238 0.19007 0.76949 0.0
C3886 C 0.29449 0.20428 0.76987 0.0
C3887 C 0.28542 0.1822 0.7708 0.0
H3888 H 0.33102 0.93684 0.2692 0.0
H3889 H 0.36782 0.91143 0.224 0.0
H3890 H 0.34662 0.87495 0.22051 0.0
H3891 H 0.32783 0.8504 0.2398 0.0
H3892 H 0.29908 0.87345 0.29373 0.0
H3893 H 0.30743 0.91081 0.28538 0.0
C3894 C 0.33414 0.92328 0.25835 0.0
C3895 C 0.35171 0.92659 0.24806 0.0
C3896 C 0.32394 0.90186 0.25896 0.0
C3897 C 0.35475 0.90945 0.23265 0.0
C3898 C 0.3428 0.88837 0.2309 0.0
C3899 C 0.32304 0.86341 0.24961 0.0
C3900 C 0.31393 0.85977 0.26796 0.0
C3901 C 0.329 0.88436 0.24562 0.0
C3902 C 0.30693 0.87641 0.28 0.0
C3903 C 0.31159 0.89755 0.27513 0.0
H3904 H 0.55083 0.39667 0.53669 0.0
H3905 H 0.60158 0.43117 0.5848 0.0
H3906 H 0.59955 0.46603 0.57447 0.0
H3907 H 0.58368 0.48727 0.55202 0.0
H3908 H 0.53255 0.45386 0.50412 0.0
H3909 H 0.53456 0.41843 0.51389 0.0
C3910 C 0.56144 0.41181 0.54492 0.0
C3911 C 0.57657 0.41099 0.56143 0.0
C3912 C 0.56023 0.43217 0.53882 0.0
C3913 C 0.59009 0.43098 0.57179 0.0
C3914 C 0.58887 0.45107 0.56595 0.0
C3915 C 0.57303 0.47225 0.54354 0.0
C3916 C 0.55808 0.47342 0.52718 0.0
C3917 C 0.57412 0.45192 0.54944 0.0
C3918 C 0.54427 0.45364 0.51673 0.0
C3919 C 0.5454 0.43329 0.52236 0.0
H3920 H 0.42835 0.78951 0.32961 0.0
H3921 H 0.39767 0.75381 0.37444 0.0
H3922 H 0.36493 0.75518 0.35661 0.0
H3923 H 0.34419 0.76579 0.32759 0.0
H3924 H 0.37471 0.80162 0.28303 0.0
H3925 H 0.40776 0.80111 0.30135 0.0
C3926 C 0.41459 0.78217 0.33571 0.0
C3927 C 0.41595 0.77135 0.35351 0.0
C3928 C 0.39545 0.78318 0.32538 0.0
C3929 C 0.39754 0.76183 0.36065 0.0
C3930 C 0.37861 0.76278 0.35051 0.0
C3931 C 0.3581 0.77394 0.32224 0.0
C3932 C 0.35685 0.78436 0.30428 0.0
C3933 C 0.37727 0.77335 0.33282 0.0
C3934 C 0.37513 0.79408 0.29714 0.0
C3935 C 0.39411 0.7936 0.30754 0.0
H3936 H 0.06358 0.68586 0.02116 0.0
H3937 H 0.0926 0.69028 0.08543 0.0
H3938 H 0.09142 0.65104 0.07802 0.0
H3939 H 0.08237 0.61535 0.05337 0.0
H3940 H 0.05157 0.60964 0.98979 0.0
H3941 H 0.05366 0.6494 0.99645 0.0
C3942 C 0.06963 0.67816 0.03346 0.0
C3943 C 0.07854 0.69103 0.05368 0.0
C3944 C 0.06889 0.65542 0.02907 0.0
C3945 C 0.08613 0.68082 0.06958 0.0
C3946 C 0.08542 0.65837 0.06539 0.0
C3947 C 0.07642 0.62296 0.04091 0.0
C3948 C 0.06718 0.60988 0.02102 0.0
C3949 C 0.07706 0.64556 0.04516 0.0
C3950 C 0.05894 0.61961 1.00515 0.0
C3951 C 0.06004 0.64227 0.00902 0.0
H3952 H 0.11621 0.30995 0.8468 0.0
H3953 H 0.12944 0.26195 0.8833 0.0
H3954 H 0.16122 0.26312 0.86807 0.0
H3955 H 0.18479 0.27651 0.84328 0.0
H3956 H 0.17066 0.32302 0.80516 0.0
H3957 H 0.14046 0.32417 0.82258 0.0
C3958 C 0.12612 0.29988 0.85158 0.0
C3959 C 0.12012 0.28564 0.86605 0.0
C3960 C 0.14444 0.30041 0.84248 0.0
C3961 C 0.1333 0.27273 0.87192 0.0
C3962 C 0.15161 0.27347 0.86326 0.0
C3963 C 0.17511 0.28681 0.83855 0.0
C3964 C 0.18036 0.29959 0.82265 0.0
C3965 C 0.15721 0.28695 0.84824 0.0
C3966 C 0.16756 0.31319 0.81744 0.0
C3967 C 0.14999 0.31371 0.82729 0.0
H3968 H 0.58546 0.74562 0.96988 0.0
H3969 H 0.56367 0.70564 0.90697 0.0
H3970 H 0.55404 0.67275 0.92302 0.0
H3971 H 0.55302 0.65534 0.95528 0.0
H3972 H 0.57387 0.69623 0.01796 0.0
H3973 H 0.5829 0.72887 1.00173 0.0
C3974 C 0.5787 0.72966 0.95973 0.0
C3975 C 0.57549 0.72785 0.93738 0.0
C3976 C 0.57313 0.71106 0.96903 0.0
C3977 C 0.56628 0.70727 0.92429 0.0
C3978 C 0.56086 0.68852 0.93343 0.0
C3979 C 0.5595 0.67147 0.96523 0.0
C3980 C 0.56288 0.67362 0.98766 0.0
C3981 C 0.5644 0.6902 0.9558 0.0
C3982 C 0.57111 0.69443 1.00062 0.0
C3983 C 0.5763 0.71301 0.99139 0.0
H3984 H 0.10039 0.73899 0.70657 0.0
H3985 H 0.10168 0.80234 0.74459 0.0
H3986 H 0.13747 0.80671 0.75831 0.0
H3987 H 0.16866 0.79252 0.7581 0.0
H3988 H 0.16561 0.72883 0.71987 0.0
H3989 H 0.12965 0.72409 0.70812 0.0
C3990 C 0.10817 0.75346 0.71844 0.0
C3991 C 0.09835 0.77011 0.7249 0.0
C3992 C 0.12834 0.75573 0.72616 0.0
C3993 C 0.10901 0.78925 0.73948 0.0
C3994 C 0.12939 0.79172 0.74731 0.0
C3995 C 0.15989 0.77764 0.74737 0.0
C3996 C 0.16935 0.76108 0.73955 0.0
C3997 C 0.13925 0.77512 0.74056 0.0
C3998 C 0.1583 0.74175 0.72573 0.0
C3999 C 0.13788 0.73905 0.71907 0.0
H4000 H 0.1014 0.45154 0.43432 0.0
H4001 H 0.11166 0.41756 0.48622 0.0
H4002 H 0.10208 0.44575 0.5115 0.0
H4003 H 0.08841 0.47803 0.51793 0.0
H4004 H 0.07685 0.51184 0.46626 0.0
H4005 H 0.08978 0.4859 0.44149 0.0
C4006 C 0.10198 0.45078 0.4513 0.0
C4007 C 0.10739 0.43296 0.45872 0.0
C4008 C 0.09617 0.46678 0.46552 0.0
C4009 C 0.1079 0.43156 0.48051 0.0
C4010 C 0.10226 0.44747 0.49482 0.0
C4011 C 0.0889 0.47985 0.50127 0.0
C4012 C 0.08164 0.49657 0.49368 0.0
C4013 C 0.09601 0.46485 0.48736 0.0
C4014 C 0.08227 0.49888 0.4722 0.0
C4015 C 0.08964 0.4841 0.45815 0.0
H4016 H 0.42862 0.29005 0.23074 0.0
H4017 H 0.39842 0.22225 0.20377 0.0
H4018 H 0.37002 0.22524 0.22386 0.0
H4019 H 0.35231 0.24814 0.24548 0.0
H4020 H 0.38129 0.31686 0.27018 0.0
H4021 H 0.41172 0.31245 0.25442 0.0
C4022 C 0.4158 0.27595 0.22927 0.0
C4023 C 0.41542 0.25607 0.21564 0.0
C4024 C 0.39934 0.27796 0.24032 0.0
C4025 C 0.39904 0.23772 0.21426 0.0
C4026 C 0.38277 0.23944 0.22562 0.0
C4027 C 0.3654 0.26207 0.24782 0.0
C4028 C 0.36448 0.28279 0.25881 0.0
C4029 C 0.38257 0.25963 0.23823 0.0
C4030 C 0.38158 0.3007 0.26167 0.0
C4031 C 0.39896 0.29825 0.25261 0.0
H4032 H 0.62547 0.54551 0.40246 0.0
H4033 H 0.58257 0.48763 0.36585 0.0
H4034 H 0.56264 0.48611 0.39579 0.0
H4035 H 0.5562 0.50085 0.433 0.0
H4036 H 0.59961 0.55719 0.47105 0.0
H4037 H 0.61962 0.55951 0.44076 0.0
C4038 C 0.61177 0.53248 0.40081 0.0
C4039 C 0.60614 0.51659 0.38096 0.0
C4040 C 0.60005 0.53134 0.41887 0.0
C4041 C 0.58807 0.50005 0.38026 0.0
C4042 C 0.57635 0.49918 0.39767 0.0
C4043 C 0.57013 0.51364 0.43492 0.0
C4044 C 0.57604 0.5288 0.45509 0.0
C4045 C 0.58206 0.51464 0.41718 0.0
C4046 C 0.59434 0.54506 0.45639 0.0
C4047 C 0.6059 0.54644 0.43874 0.0
H4048 H 0.3275 0.84811 0.0863 0.0
H4049 H 0.35242 0.91553 0.11827 0.0
H4050 H 0.36366 0.90324 0.1509 0.0
H4051 H 0.3642 0.87311 0.17061 0.0
H4052 H 0.3397 0.80585 0.13811 0.0
H4053 H 0.33061 0.81814 0.10488 0.0
C4054 C 0.33524 0.85999 0.10055 0.0
C4055 C 0.33893 0.88248 0.10045 0.0
C4056 C 0.34195 0.85284 0.11876 0.0
C4057 C 0.34934 0.89804 0.11851 0.0
C4058 C 0.35584 0.89107 0.13694 0.0
C4059 C 0.35754 0.86132 0.15594 0.0
C4060 C 0.35282 0.83883 0.1562 0.0
C4061 C 0.3521 0.86851 0.13724 0.0
C4062 C 0.34379 0.8233 0.13764 0.0
C4063 C 0.33834 0.83028 0.11891 0.0
H4064 H 0.97996 0.51944 0.90692 0.0
H4065 H 0.02454 0.56335 0.87987 0.0
H4066 H 0.04967 0.56678 0.91106 0.0
H4067 H 0.05884 0.55638 0.94537 0.0
H4068 H 0.01451 0.51077 0.97107 0.0
H4069 H 0.98912 0.5088 0.9408 0.0
C4070 C 0.99523 0.52965 0.90787 0.0
C4071 C 1.00061 0.54108 0.89138 0.0
C4072 C 0.00947 0.5312 0.92544 0.0
C4073 C 0.02021 0.55459 0.89268 0.0
C4074 C 0.03453 0.55643 0.91034 0.0
C4075 C 0.04363 0.546 0.94423 0.0
C4076 C 0.03834 0.53386 0.96023 0.0
C4077 C 0.02931 0.54468 0.92671 0.0
C4078 C 0.0187 0.52042 0.95885 0.0
C4079 C 1.00425 0.51923 0.94161 0.0
H4080 H 0.318 0.24646 0.62699 0.0
H4081 H 0.27047 0.27806 0.61065 0.0
H4082 H 0.2674 0.28849 0.64883 0.0
H4083 H 0.2776 0.28756 0.68726 0.0
H4084 H 0.32541 0.25577 0.70258 0.0
H4085 H 0.32884 0.24654 0.66474 0.0
C4086 C 0.30717 0.25592 0.63176 0.0
C4087 C 0.29447 0.26139 0.61589 0.0
C4088 C 0.30531 0.26162 0.65372 0.0
C4089 C 0.28033 0.27341 0.62248 0.0
C4090 C 0.27854 0.27937 0.64434 0.0
C4091 C 0.28862 0.27847 0.68225 0.0
C4092 C 0.30114 0.27234 0.69786 0.0
C4093 C 0.29073 0.27327 0.66017 0.0
C4094 C 0.31557 0.26081 0.69103 0.0
C4095 C 0.3176 0.25549 0.66931 0.0
H4096 H 0.59609 0.54285 0.1628 0.0
H4097 H 0.61916 0.48691 0.13858 0.0
H4098 H 0.60621 0.48831 0.1019 0.0
H4099 H 0.58861 0.50565 0.07542 0.0
H4100 H 0.56567 0.56166 0.09966 0.0
H4101 H 0.57783 0.55969 0.13644 0.0
C4102 C 0.59841 0.53091 0.14961 0.0
C4103 C 0.60884 0.51465 0.1543 0.0
C4104 C 0.59074 0.53175 0.12794 0.0
C4105 C 0.61113 0.49944 0.1363 0.0
C4106 C 0.60374 0.50031 0.11496 0.0
C4107 C 0.58619 0.51747 0.08867 0.0
C4108 C 0.57612 0.53397 0.08403 0.0
C4109 C 0.59351 0.51639 0.11038 0.0
C4110 C 0.57339 0.54889 0.10203 0.0
C4111 C 0.58042 0.54776 0.12339 0.0
H4112 H 0.29158 0.83679 0.89679 0.0
H4113 H 0.35253 0.87326 0.89321 0.0
H4114 H 0.35247 0.85029 0.85857 0.0
H4115 H 0.33427 0.8214 0.8281 0.0
H4116 H 0.27326 0.78549 0.83129 0.0
H4117 H 0.27387 0.80716 0.86701 0.0
C4118 C 0.30478 0.83987 0.88836 0.0
C4119 C 0.32195 0.85683 0.89755 0.0
C4120 C 0.30456 0.82683 0.8683 0.0
C4121 C 0.33914 0.86019 0.88664 0.0
C4122 C 0.3391 0.84718 0.86673 0.0
C4123 C 0.32129 0.81821 0.83685 0.0
C4124 C 0.30389 0.80187 0.8275 0.0
C4125 C 0.32181 0.83066 0.8573 0.0
C4126 C 0.28698 0.79777 0.83862 0.0
C4127 C 0.28727 0.81024 0.85889 0.0
H4128 H 1.00427 0.52994 0.69449 0.0
H4129 H 0.95202 0.47488 0.68647 0.0
H4130 H 0.95658 0.46365 0.64902 0.0
H4131 H 0.97508 0.47047 0.61818 0.0
H4132 H 0.02528 0.5277 0.62647 0.0
H4133 H 0.0215 0.53761 0.66413 0.0
C4134 C 0.9938 0.51562 0.68446 0.0
C4135 C 0.97801 0.50322 0.69299 0.0
C4136 C 0.99596 0.50984 0.663 0.0
C4137 C 0.96461 0.48444 0.68013 0.0
C4138 C 0.96703 0.47814 0.65873 0.0
C4139 C 0.98493 0.48509 0.62836 0.0
C4140 C 1.00027 0.49838 0.62002 0.0
C4141 C 0.98257 0.49086 0.64995 0.0
C4142 C 0.01326 0.51738 0.63296 0.0
C4143 C 0.01122 0.523 0.65438 0.0
H4144 H 0.28945 0.27198 0.40095 0.0
H4145 H 0.31712 0.21822 0.38179 0.0
H4146 H 0.32124 0.22931 0.34712 0.0
H4147 H 0.31812 0.25529 0.32196 0.0
H4148 H 0.29092 0.30913 0.34186 0.0
H4149 H 0.28513 0.29676 0.37568 0.0
C4150 C 0.29616 0.26243 0.38918 0.0
C4151 C 0.30302 0.24422 0.39448 0.0
C4152 C 0.29843 0.26885 0.36895 0.0
C4153 C 0.31198 0.23253 0.37873 0.0
C4154 C 0.3142 0.23876 0.35863 0.0
C4155 C 0.31041 0.2639 0.33345 0.0
C4156 C 0.30455 0.2829 0.32901 0.0
C4157 C 0.30756 0.25696 0.35346 0.0
C4158 C 0.29526 0.29425 0.34457 0.0
C4159 C 0.29208 0.28729 0.3641 0.0
H4160 H 0.39164 0.61442 0.52974 0.0
H4161 H 0.35013 0.56558 0.48103 0.0
H4162 H 0.37687 0.54615 0.47396 0.0
H4163 H 0.41153 0.54263 0.48282 0.0
H4164 H 0.45385 0.59348 0.52948 0.0
H4165 H 0.42709 0.61245 0.53652 0.0
C4166 C 0.38857 0.59948 0.51764 0.0
C4167 C 0.36916 0.59111 0.50606 0.0
C4168 C 0.40401 0.58878 0.51347 0.0
C4169 C 0.36512 0.57206 0.49013 0.0
C4170 C 0.38033 0.56103 0.48614 0.0
C4171 C 0.41507 0.55806 0.49426 0.0
C4172 C 0.43467 0.56642 0.50578 0.0
C4173 C 0.3998 0.56921 0.49782 0.0
C4174 C 0.4388 0.58631 0.52077 0.0
C4175 C 0.42356 0.5973 0.5247 0.0
H4176 H 0.92133 0.9833 0.51718 0.0
H4177 H 0.94379 0.93343 0.54365 0.0
H4178 H 0.9787 0.95363 0.54303 0.0
H4179 H 1.00356 0.98715 0.53715 0.0
H4180 H 0.98067 0.03636 0.51024 0.0
H4181 H 0.94588 0.01501 0.50889 0.0
C4182 C 0.93376 0.97659 0.52262 0.0
C4183 C 0.92944 0.95672 0.53075 0.0
C4184 C 0.95411 0.98837 0.52215 0.0
C4185 C 0.94621 0.9488 0.5378 0.0
C4186 C 0.96638 0.96034 0.53729 0.0
C4187 C 0.99105 0.99276 0.5302 0.0
C4188 C 0.99509 0.01323 0.52321 0.0
C4189 C 0.97065 0.98033 0.52972 0.0
C4190 C 0.97829 0.0206 0.51539 0.0
C4191 C 0.95823 1.0084 0.51473 0.0
H4192 H 0.85078 0.1577 0.25045 0.0
H4193 H 0.90609 0.19593 0.28989 0.0
H4194 H 0.8925 0.22859 0.29322 0.0
H4195 H 0.86458 0.2482 0.28508 0.0
H4196 H 0.80894 0.20931 0.24674 0.0
H4197 H 0.8228 0.17685 0.2431 0.0
C4198 C 0.86013 0.17305 0.2598 0.0
C4199 C 0.88 0.17308 0.2699 0.0
C4200 C 0.85194 0.19262 0.26195 0.0
C4201 C 0.89092 0.19405 0.28195 0.0
C4202 C 0.88304 0.21329 0.28383 0.0
C4203 C 0.85531 0.23272 0.27585 0.0
C4204 C 0.83518 0.23228 0.26618 0.0
C4205 C 0.86349 0.21309 0.27395 0.0
C4206 C 0.82418 0.21122 0.25457 0.0
C4207 C 0.83225 0.19219 0.2524 0.0
H4208 H 0.67943 0.07506 0.99065 0.0
H4209 H 0.68989 0.05705 0.05254 0.0
H4210 H 0.65402 0.05325 0.05684 0.0
H4211 H 0.62148 0.06029 0.04511 0.0
H4212 H 0.6113 0.07927 0.98354 0.0
H4213 H 0.64599 0.07848 0.97728 0.0
C4214 C 0.67366 0.06941 1.00466 0.0
C4215 C 0.68704 0.06656 0.0214 0.0
C4216 C 0.65358 0.06871 0.00755 0.0
C4217 C 0.67961 0.05932 0.03955 0.0
C4218 C 0.65932 0.05765 0.04218 0.0
C4219 C 0.62705 0.06484 0.03059 0.0
C4220 C 0.61431 0.0706 0.0151 0.0
C4221 C 0.64655 0.06356 0.02682 0.0
C4222 C 0.62126 0.07551 0.99593 0.0
C4223 C 0.64084 0.07461 0.99218 0.0
H4224 H 0.23714 0.4745 0.29146 0.0
H4225 H 0.23588 0.45839 0.22245 0.0
H4226 H 0.25567 0.43169 0.22674 0.0
H4227 H 0.27271 0.41273 0.24966 0.0
H4228 H 0.27175 0.42555 0.31829 0.0
H4229 H 0.25268 0.45358 0.31452 0.0
C4230 C 0.24089 0.46489 0.27734 0.0
C4231 C 0.23515 0.4685 0.25669 0.0
C4232 C 0.25156 0.44892 0.27981 0.0
C4233 C 0.24052 0.4563 0.23857 0.0
C4234 C 0.25161 0.44084 0.24095 0.0
C4235 C 0.26797 0.42132 0.26377 0.0
C4236 C 0.2733 0.41707 0.28416 0.0
C4237 C 0.25705 0.43697 0.26144 0.0
C4238 C 0.2677 0.42872 0.30243 0.0
C4239 C 0.25687 0.44464 0.30027 0.0
H4240 H 0.23518 0.45732 0.99866 0.0
H4241 H 0.20928 0.41696 0.04252 0.0
H4242 H 0.17924 0.43193 0.04068 0.0
H4243 H 0.16086 0.45756 0.02787 0.0
H4244 H 0.18789 0.49992 0.98597 0.0
H4245 H 0.21634 0.48263 0.98526 0.0
C4246 C 0.22288 0.45168 0.00767 0.0
C4247 C 0.22464 0.43615 0.02088 0.0
C4248 C 0.20569 0.46066 1.00682 0.0
C4249 C 0.20854 0.42912 0.0325 0.0
C4250 C 0.19128 0.43763 0.03139 0.0
C4251 C 0.17299 0.46321 0.01868 0.0
C4252 C 0.17197 0.48022 0.00705 0.0
C4253 C 0.18981 0.45367 0.01888 0.0
C4254 C 0.18781 0.48671 0.99484 0.0
C4255 C 0.20433 0.47696 0.9946 0.0
H4256 H 0.86259 0.93728 0.28959 0.0
H4257 H 0.87866 0.92301 0.22545 0.0
H4258 H 0.86135 0.88471 0.22233 0.0
H4259 H 0.83968 0.85368 0.23656 0.0
H4260 H 0.82463 0.86738 0.30086 0.0
H4261 H 0.84331 0.90589 0.30483 0.0
C4262 C 0.86264 0.92607 0.27484 0.0
C4263 C 0.87218 0.93466 0.25766 0.0
C4264 C 0.85267 0.90296 0.27306 0.0
C4265 C 0.8714 0.9185 0.23903 0.0
C4266 C 0.86146 0.8959 0.23718 0.0
C4267 C 0.84102 0.8648 0.25177 0.0
C4268 C 0.83098 0.85658 0.26871 0.0
C4269 C 0.85183 0.8877 0.25395 0.0
C4270 C 0.83248 0.87232 0.2877 0.0
C4271 C 0.8431 0.89475 0.28991 0.0
H4272 H 0.73227 0.16582 0.78116 0.0
H4273 H 0.78599 0.14232 0.77153 0.0
H4274 H 0.80239 0.17732 0.76146 0.0
H4275 H 0.79979 0.21356 0.75356 0.0
H4276 H 0.7433 0.23286 0.75766 0.0
H4277 H 0.72835 0.19898 0.76971 0.0
C4278 C 0.74787 0.16876 0.77763 0.0
C4279 C 0.75833 0.15223 0.77758 0.0
C4280 C 0.75584 0.18715 0.76932 0.0
C4281 C 0.77817 0.15548 0.77228 0.0
C4282 C 0.78715 0.175 0.76587 0.0
C4283 C 0.78395 0.20965 0.75617 0.0
C4284 C 0.77238 0.22504 0.75487 0.0
C4285 C 0.77576 0.19055 0.76359 0.0
C4286 C 0.75204 0.2206 0.75841 0.0
C4287 C 0.74379 0.20172 0.76587 0.0
loop_
_geom_bond_atom_site_label_1
_geom_bond_atom_site_label_2
_geom_bond_distance
_geom_bond_site_symmetry_2
_ccdc_geom_bond_type
Li0 N17 1.990 . S
Li0 O60 1.956 . S
Li0 O61 1.970 . S
Li0 O62 1.961 . S
Li1 N25 1.990 . S
Li1 O60 1.970 . S
Li1 O61 1.956 . S
Li1 O63 1.961 . S
Li2 N47 1.990 . S
Li2 O60 1.961 . S
Li2 O62 1.956 . S
Li2 O63 1.970 . S
Li3 N53 1.990 . S
Li3 O61 1.961 . S
Li3 O62 1.970 . S
Li3 O63 1.956 . S
C4 C6 1.348 . S
C4 C7 1.356 . S
C4 O60 1.325 . S
N5 C8 1.314 . S
N5 C9 1.279 . S
C6 C4 1.348 . S
C6 C8 1.353 . S
C6 H64 0.929 . S
C7 C4 1.356 . S
C7 C9 1.358 . S
C7 H65 0.930 . S
C8 N5 1.314 . S
C8 C6 1.353 . S
C8 H66 0.930 . S
C9 N5 1.279 . S
C9 C7 1.358 . S
C9 H67 0.930 . S
C10 C13 1.348 . S
C10 C14 1.356 . S
C10 O61 1.325 . S
C11 N12 1.279 . S
C11 C14 1.358 . S
C11 H68 0.930 . S
N12 C11 1.279 . S
N12 C15 1.314 . S
C13 C10 1.348 . S
C13 C15 1.353 . S
C13 H69 0.929 . S
C14 C10 1.356 . S
C14 C11 1.358 . S
C14 H70 0.930 . S
C15 N12 1.314 . S
C15 C13 1.353 . S
C15 H71 0.930 . S
C16 N17 1.314 . S
C16 C21 1.353 . S
C16 H22 0.930 . S
N17 Li0 1.990 . S
N17 C16 1.314 . S
N17 C19 1.279 . S
C18 C19 1.358 . S
C18 C20 1.356 . S
C18 H72 0.930 . S
C19 N17 1.279 . S
C19 C18 1.358 . S
C19 H23 0.930 . S
C20 C18 1.356 . S
C20 C21 1.348 . S
C21 C16 1.353 . S
C21 C20 1.348 . S
C21 H73 0.929 . S
H22 C16 0.930 . S
H23 C19 0.930 . S
C24 N25 1.314 . S
C24 C26 1.353 . S
C24 H30 0.930 . S
N25 Li1 1.990 . S
N25 C24 1.314 . S
N25 C28 1.279 . S
C26 C24 1.353 . S
C26 C29 1.348 . S
C26 H74 0.929 . S
C27 C28 1.358 . S
C27 C29 1.356 . S
C27 H75 0.930 . S
C28 N25 1.279 . S
C28 C27 1.358 . S
C28 H31 0.930 . S
C29 C26 1.348 . S
C29 C27 1.356 . S
H30 C24 0.930 . S
H31 C28 0.930 . S
C32 C34 1.348 . S
C32 C35 1.356 . S
C32 O62 1.325 . S
N33 C36 1.314 . S
N33 C37 1.279 . S
C34 C32 1.348 . S
C34 C36 1.353 . S
C34 H76 0.929 . S
C35 C32 1.356 . S
C35 C37 1.358 . S
C35 H77 0.930 . S
C36 N33 1.314 . S
C36 C34 1.353 . S
C36 H78 0.930 . S
C37 N33 1.279 . S
C37 C35 1.358 . S
C37 H79 0.930 . S
C38 C39 1.348 . S
C38 C40 1.356 . S
C38 O63 1.325 . S
C39 C38 1.348 . S
C39 C41 1.353 . S
C39 H80 0.929 . S
C40 C38 1.356 . S
C40 C42 1.358 . S
C40 H81 0.930 . S
C41 C39 1.353 . S
C41 N43 1.314 . S
C41 H82 0.930 . S
C42 C40 1.358 . S
C42 N43 1.279 . S
C42 H83 0.930 . S
N43 C41 1.314 . S
N43 C42 1.279 . S
C44 C46 1.353 . S
C44 N47 1.314 . S
C44 H50 0.930 . S
C45 N47 1.279 . S
C45 C48 1.358 . S
C45 H51 0.930 . S
C46 C44 1.353 . S
C46 C49 1.348 . S
C46 H84 0.929 . S
N47 Li2 1.990 . S
N47 C44 1.314 . S
N47 C45 1.279 . S
C48 C45 1.358 . S
C48 C49 1.356 . S
C48 H85 0.930 . S
C49 C46 1.348 . S
C49 C48 1.356 . S
H50 C44 0.930 . S
H51 C45 0.930 . S
C52 N53 1.314 . S
C52 C54 1.353 . S
C52 H58 0.930 . S
N53 Li3 1.990 . S
N53 C52 1.314 . S
N53 C56 1.279 . S
C54 C52 1.353 . S
C54 C57 1.348 . S
C54 H86 0.929 . S
C55 C56 1.358 . S
C55 C57 1.356 . S
C55 H87 0.930 . S
C56 N53 1.279 . S
C56 C55 1.358 . S
C56 H59 0.930 . S
C57 C54 1.348 . S
C57 C55 1.356 . S
H58 C52 0.930 . S
H59 C56 0.930 . S
O60 Li0 1.956 . S
O60 Li1 1.970 . S
O60 Li2 1.961 . S
O60 C4 1.325 . S
O61 Li0 1.970 . S
O61 Li1 1.956 . S
O61 Li3 1.961 . S
O61 C10 1.325 . S
O62 Li0 1.961 . S
O62 Li2 1.956 . S
O62 Li3 1.970 . S
O62 C32 1.325 . S
O63 Li1 1.961 . S
O63 Li2 1.970 . S
O63 Li3 1.956 . S
O63 C38 1.325 . S
H64 C6 0.929 . S
H65 C7 0.930 . S
H66 C8 0.930 . S
H67 C9 0.930 . S
H68 C11 0.930 . S
H69 C13 0.929 . S
H70 C14 0.930 . S
H71 C15 0.930 . S
H72 C18 0.930 . S
H73 C21 0.929 . S
H74 C26 0.929 . S
H75 C27 0.930 . S
H76 C34 0.929 . S
H77 C35 0.930 . S
H78 C36 0.930 . S
H79 C37 0.930 . S
H80 C39 0.929 . S
H81 C40 0.930 . S
H82 C41 0.930 . S
H83 C42 0.930 . S
H84 C46 0.929 . S
H85 C48 0.930 . S
H86 C54 0.929 . S
H87 C55 0.930 . S
Li88 N105 1.990 . S
Li88 O148 1.956 . S
Li88 O149 1.970 . S
Li88 O150 1.961 1_455 S
Li89 N113 1.990 . S
Li89 O148 1.970 . S
Li89 O149 1.956 . S
Li89 O151 1.928 1_455 S
Li90 N135 1.990 . S
Li90 O148 1.961 1_655 S
Li90 O150 1.956 . S
Li90 O151 1.972 . S
Li91 N141 1.990 . S
Li91 O149 1.961 1_655 S
Li91 O150 1.970 . S
Li91 O151 2.003 . S
C92 C94 1.348 . S
C92 C95 1.356 . S
C92 O148 1.325 . S
N93 C96 1.314 . S
N93 C97 1.279 . S
C94 C92 1.348 . S
C94 C96 1.353 . S
C94 H152 0.929 . S
C95 C92 1.356 . S
C95 C97 1.358 . S
C95 H153 0.930 . S
C96 N93 1.314 . S
C96 C94 1.353 . S
C96 H154 0.930 . S
C97 N93 1.279 . S
C97 C95 1.358 . S
C97 H155 0.930 . S
C98 C101 1.348 . S
C98 C102 1.356 . S
C98 O149 1.325 . S
C99 N100 1.279 . S
C99 C102 1.358 . S
C99 H156 0.930 . S
N100 C99 1.279 . S
N100 C103 1.314 . S
C101 C98 1.348 . S
C101 C103 1.353 . S
C101 H157 0.929 . S
C102 C98 1.356 . S
C102 C99 1.358 . S
C102 H158 0.930 . S
C103 N100 1.314 . S
C103 C101 1.353 . S
C103 H159 0.930 . S
C104 N105 1.314 1_655 S
C104 C109 1.353 . S
C104 H110 0.930 . S
N105 Li88 1.990 . S
N105 C104 1.314 1_455 S
N105 C107 1.279 . S
C106 C107 1.358 . S
C106 C108 1.356 . S
C106 H160 0.930 . S
C107 N105 1.279 . S
C107 C106 1.358 . S
C107 H111 0.930 . S
C108 C106 1.356 . S
C108 C109 1.348 1_455 S
C109 C104 1.353 . S
C109 C108 1.348 1_655 S
C109 H161 0.929 . S
H110 C104 0.930 . S
H111 C107 0.930 . S
C112 N113 1.314 . S
C112 C114 1.353 . S
C112 H118 0.930 . S
N113 Li89 1.990 . S
N113 C112 1.314 . S
N113 C116 1.279 . S
C114 C112 1.353 . S
C114 C117 1.348 . S
C114 H162 0.929 . S
C115 C116 1.358 . S
C115 C117 1.356 . S
C115 H163 0.930 . S
C116 N113 1.279 . S
C116 C115 1.358 . S
C116 H119 0.930 . S
C117 C114 1.348 . S
C117 C115 1.356 . S
H118 C112 0.930 . S
H119 C116 0.930 . S
C120 C122 1.348 . S
C120 C123 1.356 . S
C120 O150 1.325 . S
N121 C124 1.314 . S
N121 C125 1.279 . S
C122 C120 1.348 . S
C122 C124 1.353 . S
C122 H164 0.929 . S
C123 C120 1.356 . S
C123 C125 1.358 . S
C123 H165 0.930 . S
C124 N121 1.314 . S
C124 C122 1.353 . S
C124 H166 0.930 . S
C125 N121 1.279 . S
C125 C123 1.358 . S
C125 H167 0.930 . S
C126 C127 1.348 . S
C126 C128 1.356 1_655 S
C126 O151 1.323 . S
C127 C126 1.348 . S
C127 C129 1.353 . S
C127 H168 0.929 . S
C128 C126 1.356 1_455 S
C128 C130 1.357 . S
C128 H169 0.930 . S
C129 C127 1.353 . S
C129 N131 1.314 . S
C129 H170 0.930 . S
C130 C128 1.357 . S
C130 N131 1.274 1_455 S
C130 H171 0.942 . S
N131 C129 1.314 . S
N131 C130 1.274 1_655 S
C132 C134 1.353 . S
C132 N135 1.314 1_455 S
C132 H138 0.930 . S
C133 N135 1.279 . S
C133 C136 1.358 . S
C133 H139 0.930 . S
C134 C132 1.353 . S
C134 C137 1.348 1_455 S
C134 H172 0.929 . S
N135 Li90 1.990 . S
N135 C132 1.314 1_655 S
N135 C133 1.279 . S
C136 C133 1.358 . S
C136 C137 1.356 . S
C136 H173 0.930 . S
C137 C134 1.348 1_655 S
C137 C136 1.356 . S
H138 C132 0.930 . S
H139 C133 0.930 . S
C140 N141 1.314 . S
C140 C142 1.353 . S
C140 H146 0.930 . S
N141 Li91 1.990 . S
N141 C140 1.314 . S
N141 C144 1.279 . S
C142 C140 1.353 . S
C142 C145 1.348 . S
C142 H174 0.929 . S
C143 C144 1.358 . S
C143 C145 1.356 . S
C143 H175 0.930 . S
C144 N141 1.279 . S
C144 C143 1.358 . S
C144 H147 0.930 . S
C145 C142 1.348 . S
C145 C143 1.356 . S
H146 C140 0.930 . S
H147 C144 0.930 . S
O148 Li88 1.956 . S
O148 Li89 1.970 . S
O148 Li90 1.961 1_455 S
O148 C92 1.325 . S
O149 Li88 1.970 . S
O149 Li89 1.956 . S
O149 Li91 1.961 1_455 S
O149 C98 1.325 . S
O150 Li88 1.961 1_655 S
O150 Li90 1.956 . S
O150 Li91 1.970 . S
O150 C120 1.325 . S
O151 Li89 1.928 1_655 S
O151 Li90 1.972 . S
O151 Li91 2.003 . S
O151 C126 1.323 . S
H152 C94 0.929 . S
H153 C95 0.930 . S
H154 C96 0.930 . S
H155 C97 0.930 . S
H156 C99 0.930 . S
H157 C101 0.929 . S
H158 C102 0.930 . S
H159 C103 0.930 . S
H160 C106 0.930 . S
H161 C109 0.929 . S
H162 C114 0.929 . S
H163 C115 0.930 . S
H164 C122 0.929 . S
H165 C123 0.930 . S
H166 C124 0.930 . S
H167 C125 0.930 . S
H168 C127 0.929 . S
H169 C128 0.930 . S
H170 C129 0.930 . S
H171 C130 0.942 . S
H172 C134 0.929 . S
H173 C136 0.930 . S
H174 C142 0.929 . S
H175 C143 0.930 . S
Li176 N193 1.990 . S
Li176 O236 1.956 . S
Li176 O237 1.970 . S
Li176 O238 1.961 . S
Li177 N201 1.990 . S
Li177 O236 1.970 . S
Li177 O237 1.956 . S
Li177 O239 1.961 . S
Li178 N223 1.990 . S
Li178 O236 1.961 . S
Li178 O238 1.956 . S
Li178 O239 1.970 . S
Li179 N229 1.990 . S
Li179 O237 1.961 . S
Li179 O238 1.970 . S
Li179 O239 1.956 . S
C180 C182 1.348 . S
C180 C183 1.356 . S
C180 O236 1.325 . S
N181 C184 1.314 . S
N181 C185 1.279 . S
C182 C180 1.348 . S
C182 C184 1.353 . S
C182 H240 0.929 . S
C183 C180 1.356 . S
C183 C185 1.358 . S
C183 H241 0.930 . S
C184 N181 1.314 . S
C184 C182 1.353 . S
C184 H242 0.930 . S
C185 N181 1.279 . S
C185 C183 1.358 . S
C185 H243 0.930 . S
C186 C189 1.348 . S
C186 C190 1.356 . S
C186 O237 1.325 . S
C187 N188 1.279 . S
C187 C190 1.358 . S
C187 H244 0.930 . S
N188 C187 1.279 . S
N188 C191 1.314 . S
C189 C186 1.348 . S
C189 C191 1.353 . S
C189 H245 0.929 . S
C190 C186 1.356 . S
C190 C187 1.358 . S
C190 H246 0.930 . S
C191 N188 1.314 . S
C191 C189 1.353 . S
C191 H247 0.930 . S
C192 N193 1.314 . S
C192 C197 1.353 . S
C192 H198 0.930 . S
N193 Li176 1.990 . S
N193 C192 1.314 . S
N193 C195 1.279 . S
C194 C195 1.358 . S
C194 C196 1.356 . S
C194 H248 0.930 . S
C195 N193 1.279 . S
C195 C194 1.358 . S
C195 H199 0.930 . S
C196 C194 1.356 . S
C196 C197 1.348 . S
C197 C192 1.353 . S
C197 C196 1.348 . S
C197 H249 0.929 . S
H198 C192 0.930 . S
H199 C195 0.930 . S
C200 N201 1.314 . S
C200 C202 1.353 . S
C200 H206 0.930 . S
N201 Li177 1.990 . S
N201 C200 1.314 . S
N201 C204 1.279 . S
C202 C200 1.353 . S
C202 C205 1.348 . S
C202 H250 0.929 . S
C203 C204 1.358 . S
C203 C205 1.356 . S
C203 H251 0.930 . S
C204 N201 1.279 . S
C204 C203 1.358 . S
C204 H207 0.930 . S
C205 C202 1.348 . S
C205 C203 1.356 . S
H206 C200 0.930 . S
H207 C204 0.930 . S
C208 C210 1.348 . S
C208 C211 1.356 . S
C208 O238 1.325 . S
N209 C212 1.314 . S
N209 C213 1.279 . S
C210 C208 1.348 . S
C210 C212 1.353 . S
C210 H252 0.929 . S
C211 C208 1.356 . S
C211 C213 1.358 . S
C211 H253 0.930 . S
C212 N209 1.314 . S
C212 C210 1.353 . S
C212 H254 0.930 . S
C213 N209 1.279 . S
C213 C211 1.358 . S
C213 H255 0.930 . S
C214 C215 1.348 . S
C214 C216 1.356 . S
C214 O239 1.325 . S
C215 C214 1.348 . S
C215 C217 1.353 . S
C215 H256 0.929 . S
C216 C214 1.356 . S
C216 C218 1.358 . S
C216 H257 0.930 . S
C217 C215 1.353 . S
C217 N219 1.314 . S
C217 H258 0.930 . S
C218 C216 1.358 . S
C218 N219 1.279 . S
C218 H259 0.930 . S
N219 C217 1.314 . S
N219 C218 1.279 . S
C220 C222 1.353 . S
C220 N223 1.314 . S
C220 H226 0.930 . S
C221 N223 1.279 . S
C221 C224 1.358 . S
C221 H227 0.930 . S
C222 C220 1.353 . S
C222 C225 1.348 . S
C222 H260 0.929 . S
N223 Li178 1.990 . S
N223 C220 1.314 . S
N223 C221 1.279 . S
C224 C221 1.358 . S
C224 C225 1.356 . S
C224 H261 0.930 . S
C225 C222 1.348 . S
C225 C224 1.356 . S
H226 C220 0.930 . S
H227 C221 0.930 . S
C228 N229 1.314 . S
C228 C230 1.353 . S
C228 H234 0.930 . S
N229 Li179 1.990 . S
N229 C228 1.314 . S
N229 C232 1.279 . S
C230 C228 1.353 . S
C230 C233 1.348 . S
C230 H262 0.929 . S
C231 C232 1.358 . S
C231 C233 1.356 . S
C231 H263 0.930 . S
C232 N229 1.279 . S
C232 C231 1.358 . S
C232 H235 0.930 . S
C233 C230 1.348 . S
C233 C231 1.356 . S
H234 C228 0.930 . S
H235 C232 0.930 . S
O236 Li176 1.956 . S
O236 Li177 1.970 . S
O236 Li178 1.961 . S
O236 C180 1.325 . S
O237 Li176 1.970 . S
O237 Li177 1.956 . S
O237 Li179 1.961 . S
O237 C186 1.325 . S
O238 Li176 1.961 . S
O238 Li178 1.956 . S
O238 Li179 1.970 . S
O238 C208 1.325 . S
O239 Li177 1.961 . S
O239 Li178 1.970 . S
O239 Li179 1.956 . S
O239 C214 1.325 . S
H240 C182 0.929 . S
H241 C183 0.930 . S
H242 C184 0.930 . S
H243 C185 0.930 . S
H244 C187 0.930 . S
H245 C189 0.929 . S
H246 C190 0.930 . S
H247 C191 0.930 . S
H248 C194 0.930 . S
H249 C197 0.929 . S
H250 C202 0.929 . S
H251 C203 0.930 . S
H252 C210 0.929 . S
H253 C211 0.930 . S
H254 C212 0.930 . S
H255 C213 0.930 . S
H256 C215 0.929 . S
H257 C216 0.930 . S
H258 C217 0.930 . S
H259 C218 0.930 . S
H260 C222 0.929 . S
H261 C224 0.930 . S
H262 C230 0.929 . S
H263 C231 0.930 . S
Li264 N281 1.990 . S
Li264 O324 1.956 . S
Li264 O325 1.970 . S
Li264 O326 1.961 . S
Li265 N289 1.990 . S
Li265 O324 1.970 . S
Li265 O325 1.956 . S
Li265 O327 1.961 . S
Li266 N311 1.990 . S
Li266 O324 1.961 . S
Li266 O326 1.956 . S
Li266 O327 1.970 . S
Li267 N317 1.990 . S
Li267 O325 1.961 . S
Li267 O326 1.970 . S
Li267 O327 1.956 . S
C268 C270 1.348 . S
C268 C271 1.356 . S
C268 O324 1.325 . S
N269 C272 1.314 . S
N269 C273 1.279 . S
C270 C268 1.348 . S
C270 C272 1.353 . S
C270 H328 0.929 . S
C271 C268 1.356 . S
C271 C273 1.358 . S
C271 H329 0.930 . S
C272 N269 1.314 . S
C272 C270 1.353 . S
C272 H330 0.930 . S
C273 N269 1.279 . S
C273 C271 1.358 . S
C273 H331 0.930 . S
C274 C277 1.348 . S
C274 C278 1.356 . S
C274 O325 1.325 . S
C275 N276 1.279 . S
C275 C278 1.358 . S
C275 H332 0.930 . S
N276 C275 1.279 . S
N276 C279 1.314 . S
C277 C274 1.348 . S
C277 C279 1.353 . S
C277 H333 0.929 . S
C278 C274 1.356 . S
C278 C275 1.358 . S
C278 H334 0.930 . S
C279 N276 1.314 . S
C279 C277 1.353 . S
C279 H335 0.930 . S
C280 N281 1.314 . S
C280 C285 1.353 . S
C280 H286 0.930 . S
N281 Li264 1.990 . S
N281 C280 1.314 . S
N281 C283 1.279 . S
C282 C283 1.358 . S
C282 C284 1.356 . S
C282 H336 0.930 . S
C283 N281 1.279 . S
C283 C282 1.358 . S
C283 H287 0.930 . S
C284 C282 1.356 . S
C284 C285 1.348 . S
C285 C280 1.353 . S
C285 C284 1.348 . S
C285 H337 0.929 . S
H286 C280 0.930 . S
H287 C283 0.930 . S
C288 N289 1.314 . S
C288 C290 1.353 . S
C288 H294 0.930 . S
N289 Li265 1.990 . S
N289 C288 1.314 . S
N289 C292 1.279 . S
C290 C288 1.353 . S
C290 C293 1.348 . S
C290 H338 0.929 . S
C291 C292 1.358 . S
C291 C293 1.356 . S
C291 H339 0.930 . S
C292 N289 1.279 . S
C292 C291 1.358 . S
C292 H295 0.930 . S
C293 C290 1.348 . S
C293 C291 1.356 . S
H294 C288 0.930 . S
H295 C292 0.930 . S
C296 C298 1.348 . S
C296 C299 1.356 . S
C296 O326 1.325 . S
N297 C300 1.314 . S
N297 C301 1.279 . S
C298 C296 1.348 . S
C298 C300 1.353 . S
C298 H340 0.929 . S
C299 C296 1.356 . S
C299 C301 1.358 . S
C299 H341 0.930 . S
C300 N297 1.314 . S
C300 C298 1.353 . S
C300 H342 0.930 . S
C301 N297 1.279 . S
C301 C299 1.358 . S
C301 H343 0.930 . S
C302 C303 1.348 . S
C302 C304 1.356 . S
C302 O327 1.325 . S
C303 C302 1.348 . S
C303 C305 1.353 . S
C303 H344 0.929 . S
C304 C302 1.356 . S
C304 C306 1.358 . S
C304 H345 0.930 . S
C305 C303 1.353 . S
C305 N307 1.314 . S
C305 H346 0.930 . S
C306 C304 1.358 . S
C306 N307 1.279 . S
C306 H347 0.930 . S
N307 C305 1.314 . S
N307 C306 1.279 . S
C308 C310 1.353 . S
C308 N311 1.314 . S
C308 H314 0.930 . S
C309 N311 1.279 . S
C309 C312 1.358 . S
C309 H315 0.930 . S
C310 C308 1.353 . S
C310 C313 1.348 . S
C310 H348 0.929 . S
N311 Li266 1.990 . S
N311 C308 1.314 . S
N311 C309 1.279 . S
C312 C309 1.358 . S
C312 C313 1.356 . S
C312 H349 0.930 . S
C313 C310 1.348 . S
C313 C312 1.356 . S
H314 C308 0.930 . S
H315 C309 0.930 . S
C316 N317 1.314 . S
C316 C318 1.353 . S
C316 H322 0.930 . S
N317 Li267 1.990 . S
N317 C316 1.314 . S
N317 C320 1.279 . S
C318 C316 1.353 . S
C318 C321 1.348 . S
C318 H350 0.929 . S
C319 C320 1.358 . S
C319 C321 1.356 . S
C319 H351 0.930 . S
C320 N317 1.279 . S
C320 C319 1.358 . S
C320 H323 0.930 . S
C321 C318 1.348 . S
C321 C319 1.356 . S
H322 C316 0.930 . S
H323 C320 0.930 . S
O324 Li264 1.956 . S
O324 Li265 1.970 . S
O324 Li266 1.961 . S
O324 C268 1.325 . S
O325 Li264 1.970 . S
O325 Li265 1.956 . S
O325 Li267 1.961 . S
O325 C274 1.325 . S
O326 Li264 1.961 . S
O326 Li266 1.956 . S
O326 Li267 1.970 . S
O326 C296 1.325 . S
O327 Li265 1.961 . S
O327 Li266 1.970 . S
O327 Li267 1.956 . S
O327 C302 1.325 . S
H328 C270 0.929 . S
H329 C271 0.930 . S
H330 C272 0.930 . S
H331 C273 0.930 . S
H332 C275 0.930 . S
H333 C277 0.929 . S
H334 C278 0.930 . S
H335 C279 0.930 . S
H336 C282 0.930 . S
H337 C285 0.929 . S
H338 C290 0.929 . S
H339 C291 0.930 . S
H340 C298 0.929 . S
H341 C299 0.930 . S
H342 C300 0.930 . S
H343 C301 0.930 . S
H344 C303 0.929 . S
H345 C304 0.930 . S
H346 C305 0.930 . S
H347 C306 0.930 . S
H348 C310 0.929 . S
H349 C312 0.930 . S
H350 C318 0.929 . S
H351 C319 0.930 . S
Li352 N369 1.990 . S
Li352 O412 1.956 . S
Li352 O413 1.970 . S
Li352 O414 1.961 . S
Li353 N377 1.990 . S
Li353 O412 1.970 . S
Li353 O413 1.956 . S
Li353 O415 1.961 . S
Li354 N399 1.990 . S
Li354 O412 1.961 . S
Li354 O414 1.956 . S
Li354 O415 1.970 . S
Li355 N405 1.990 . S
Li355 O413 1.961 . S
Li355 O414 1.970 . S
Li355 O415 1.956 . S
C356 C358 1.348 . S
C356 C359 1.356 . S
C356 O412 1.325 . S
N357 C360 1.314 . S
N357 C361 1.279 . S
C358 C356 1.348 . S
C358 C360 1.353 . S
C358 H416 0.929 . S
C359 C356 1.356 . S
C359 C361 1.358 . S
C359 H417 0.930 . S
C360 N357 1.314 . S
C360 C358 1.353 . S
C360 H418 0.930 . S
C361 N357 1.279 . S
C361 C359 1.358 . S
C361 H419 0.930 . S
C362 C365 1.348 . S
C362 C366 1.356 . S
C362 O413 1.325 . S
C363 N364 1.279 . S
C363 C366 1.358 . S
C363 H420 0.930 . S
N364 C363 1.279 . S
N364 C367 1.314 . S
C365 C362 1.348 . S
C365 C367 1.353 . S
C365 H421 0.929 . S
C366 C362 1.356 . S
C366 C363 1.358 . S
C366 H422 0.930 . S
C367 N364 1.314 . S
C367 C365 1.353 . S
C367 H423 0.930 . S
C368 N369 1.314 . S
C368 C373 1.353 . S
C368 H374 0.930 . S
N369 Li352 1.990 . S
N369 C368 1.314 . S
N369 C371 1.279 . S
C370 C371 1.358 . S
C370 C372 1.356 . S
C370 H424 0.930 . S
C371 N369 1.279 . S
C371 C370 1.358 . S
C371 H375 0.930 . S
C372 C370 1.356 . S
C372 C373 1.348 . S
C373 C368 1.353 . S
C373 C372 1.348 . S
C373 H425 0.929 . S
H374 C368 0.930 . S
H375 C371 0.930 . S
C376 N377 1.314 . S
C376 C378 1.353 . S
C376 H382 0.930 . S
N377 Li353 1.990 . S
N377 C376 1.314 . S
N377 C380 1.279 . S
C378 C376 1.353 . S
C378 C381 1.348 . S
C378 H426 0.929 . S
C379 C380 1.358 . S
C379 C381 1.356 . S
C379 H427 0.930 . S
C380 N377 1.279 . S
C380 C379 1.358 . S
C380 H383 0.930 . S
C381 C378 1.348 . S
C381 C379 1.356 . S
H382 C376 0.930 . S
H383 C380 0.930 . S
C384 C386 1.348 . S
C384 C387 1.356 . S
C384 O414 1.325 . S
N385 C388 1.314 . S
N385 C389 1.279 1_655 S
C386 C384 1.348 . S
C386 C388 1.353 1_455 S
C386 H428 0.929 . S
C387 C384 1.356 . S
C387 C389 1.358 . S
C387 H429 0.930 . S
C388 N385 1.314 . S
C388 C386 1.353 1_655 S
C388 H430 0.930 . S
C389 N385 1.279 1_455 S
C389 C387 1.358 . S
C389 H431 0.930 . S
C390 C391 1.348 . S
C390 C392 1.356 . S
C390 O415 1.325 . S
C391 C390 1.348 . S
C391 C393 1.353 . S
C391 H432 0.929 . S
C392 C390 1.356 . S
C392 C394 1.358 . S
C392 H433 0.930 . S
C393 C391 1.353 . S
C393 N395 1.314 . S
C393 H434 0.930 . S
C394 C392 1.358 . S
C394 N395 1.279 . S
C394 H435 0.930 . S
N395 C393 1.314 . S
N395 C394 1.279 . S
C396 C398 1.353 . S
C396 N399 1.314 . S
C396 H402 0.930 . S
C397 N399 1.279 . S
C397 C400 1.358 . S
C397 H403 0.930 . S
C398 C396 1.353 . S
C398 C401 1.348 . S
C398 H436 0.929 . S
N399 Li354 1.990 . S
N399 C396 1.314 . S
N399 C397 1.279 . S
C400 C397 1.358 . S
C400 C401 1.356 . S
C400 H437 0.930 . S
C401 C398 1.348 . S
C401 C400 1.356 . S
H402 C396 0.930 . S
H403 C397 0.930 . S
C404 N405 1.314 . S
C404 C406 1.353 . S
C404 H410 0.930 . S
N405 Li355 1.990 . S
N405 C404 1.314 . S
N405 C408 1.279 . S
C406 C404 1.353 . S
C406 C409 1.348 1_455 S
C406 H438 0.929 . S
C407 C408 1.358 . S
C407 C409 1.356 1_455 S
C407 H439 0.930 . S
C408 N405 1.279 . S
C408 C407 1.358 . S
C408 H411 0.930 . S
C409 C406 1.348 1_655 S
C409 C407 1.356 1_655 S
H410 C404 0.930 . S
H411 C408 0.930 . S
O412 Li352 1.956 . S
O412 Li353 1.970 . S
O412 Li354 1.961 . S
O412 C356 1.325 . S
O413 Li352 1.970 . S
O413 Li353 1.956 . S
O413 Li355 1.961 . S
O413 C362 1.325 . S
O414 Li352 1.961 . S
O414 Li354 1.956 . S
O414 Li355 1.970 . S
O414 C384 1.325 . S
O415 Li353 1.961 . S
O415 Li354 1.970 . S
O415 Li355 1.956 . S
O415 C390 1.325 . S
H416 C358 0.929 . S
H417 C359 0.930 . S
H418 C360 0.930 . S
H419 C361 0.930 . S
H420 C363 0.930 . S
H421 C365 0.929 . S
H422 C366 0.930 . S
H423 C367 0.930 . S
H424 C370 0.930 . S
H425 C373 0.929 . S
H426 C378 0.929 . S
H427 C379 0.930 . S
H428 C386 0.929 . S
H429 C387 0.930 . S
H430 C388 0.930 . S
H431 C389 0.930 . S
H432 C391 0.929 . S
H433 C392 0.930 . S
H434 C393 0.930 . S
H435 C394 0.930 . S
H436 C398 0.929 . S
H437 C400 0.930 . S
H438 C406 0.929 . S
H439 C407 0.930 . S
Li440 N457 1.990 . S
Li440 O500 1.956 . S
Li440 O501 1.970 . S
Li440 O502 1.961 . S
Li441 N465 1.990 . S
Li441 O500 1.970 . S
Li441 O501 1.956 . S
Li441 O503 1.961 . S
Li442 N487 1.990 . S
Li442 O500 1.961 . S
Li442 O502 1.956 . S
Li442 O503 1.970 . S
Li443 N493 1.990 . S
Li443 O501 1.961 . S
Li443 O502 1.970 . S
Li443 O503 1.956 . S
C444 C446 1.348 . S
C444 C447 1.356 . S
C444 O500 1.325 . S
N445 C448 1.314 . S
N445 C449 1.279 . S
C446 C444 1.348 . S
C446 C448 1.353 . S
C446 H504 0.929 . S
C447 C444 1.356 . S
C447 C449 1.358 . S
C447 H505 0.930 . S
C448 N445 1.314 . S
C448 C446 1.353 . S
C448 H506 0.930 . S
C449 N445 1.279 . S
C449 C447 1.358 . S
C449 H507 0.930 . S
C450 C453 1.348 . S
C450 C454 1.356 . S
C450 O501 1.325 . S
C451 N452 1.279 . S
C451 C454 1.358 . S
C451 H508 0.930 . S
N452 C451 1.279 . S
N452 C455 1.314 . S
C453 C450 1.348 . S
C453 C455 1.353 . S
C453 H509 0.929 . S
C454 C450 1.356 . S
C454 C451 1.358 . S
C454 H510 0.930 . S
C455 N452 1.314 . S
C455 C453 1.353 . S
C455 H511 0.930 . S
C456 N457 1.314 . S
C456 C461 1.353 . S
C456 H462 0.930 . S
N457 Li440 1.990 . S
N457 C456 1.314 . S
N457 C459 1.279 . S
C458 C459 1.358 . S
C458 C460 1.356 . S
C458 H512 0.930 . S
C459 N457 1.279 . S
C459 C458 1.358 . S
C459 H463 0.930 . S
C460 C458 1.356 . S
C460 C461 1.348 . S
C461 C456 1.353 . S
C461 C460 1.348 . S
C461 H513 0.929 . S
H462 C456 0.930 . S
H463 C459 0.930 . S
C464 N465 1.314 . S
C464 C466 1.353 . S
C464 H470 0.930 . S
N465 Li441 1.990 . S
N465 C464 1.314 . S
N465 C468 1.279 . S
C466 C464 1.353 . S
C466 C469 1.348 . S
C466 H514 0.929 . S
C467 C468 1.358 . S
C467 C469 1.356 . S
C467 H515 0.930 . S
C468 N465 1.279 . S
C468 C467 1.358 . S
C468 H471 0.930 . S
C469 C466 1.348 . S
C469 C467 1.356 . S
H470 C464 0.930 . S
H471 C468 0.930 . S
C472 C474 1.348 . S
C472 C475 1.356 . S
C472 O502 1.325 . S
N473 C476 1.314 . S
N473 C477 1.279 . S
C474 C472 1.348 . S
C474 C476 1.353 . S
C474 H516 0.929 . S
C475 C472 1.356 . S
C475 C477 1.358 . S
C475 H517 0.930 . S
C476 N473 1.314 . S
C476 C474 1.353 . S
C476 H518 0.930 . S
C477 N473 1.279 . S
C477 C475 1.358 . S
C477 H519 0.930 . S
C478 C479 1.348 . S
C478 C480 1.356 . S
C478 O503 1.325 . S
C479 C478 1.348 . S
C479 C481 1.353 . S
C479 H520 0.929 . S
C480 C478 1.356 . S
C480 C482 1.358 . S
C480 H521 0.930 . S
C481 C479 1.353 . S
C481 N483 1.314 . S
C481 H522 0.930 . S
C482 C480 1.358 . S
C482 N483 1.279 . S
C482 H523 0.930 . S
N483 C481 1.314 . S
N483 C482 1.279 . S
C484 C486 1.353 . S
C484 N487 1.314 . S
C484 H490 0.930 . S
C485 N487 1.279 . S
C485 C488 1.358 . S
C485 H491 0.930 . S
C486 C484 1.353 . S
C486 C489 1.348 . S
C486 H524 0.929 . S
N487 Li442 1.990 . S
N487 C484 1.314 . S
N487 C485 1.279 . S
C488 C485 1.358 . S
C488 C489 1.356 . S
C488 H525 0.930 . S
C489 C486 1.348 . S
C489 C488 1.356 . S
H490 C484 0.930 . S
H491 C485 0.930 . S
C492 N493 1.314 . S
C492 C494 1.353 . S
C492 H498 0.930 . S
N493 Li443 1.990 . S
N493 C492 1.314 . S
N493 C496 1.279 . S
C494 C492 1.353 . S
C494 C497 1.348 . S
C494 H526 0.929 . S
C495 C496 1.358 . S
C495 C497 1.356 . S
C495 H527 0.930 . S
C496 N493 1.279 . S
C496 C495 1.358 . S
C496 H499 0.930 . S
C497 C494 1.348 . S
C497 C495 1.356 . S
H498 C492 0.930 . S
H499 C496 0.930 . S
O500 Li440 1.956 . S
O500 Li441 1.970 . S
O500 Li442 1.961 . S
O500 C444 1.325 . S
O501 Li440 1.970 . S
O501 Li441 1.956 . S
O501 Li443 1.961 . S
O501 C450 1.325 . S
O502 Li440 1.961 . S
O502 Li442 1.956 . S
O502 Li443 1.970 . S
O502 C472 1.325 . S
O503 Li441 1.961 . S
O503 Li442 1.970 . S
O503 Li443 1.956 . S
O503 C478 1.325 . S
H504 C446 0.929 . S
H505 C447 0.930 . S
H506 C448 0.930 . S
H507 C449 0.930 . S
H508 C451 0.930 . S
H509 C453 0.929 . S
H510 C454 0.930 . S
H511 C455 0.930 . S
H512 C458 0.930 . S
H513 C461 0.929 . S
H514 C466 0.929 . S
H515 C467 0.930 . S
H516 C474 0.929 . S
H517 C475 0.930 . S
H518 C476 0.930 . S
H519 C477 0.930 . S
H520 C479 0.929 . S
H521 C480 0.930 . S
H522 C481 0.930 . S
H523 C482 0.930 . S
H524 C486 0.929 . S
H525 C488 0.930 . S
H526 C494 0.929 . S
H527 C495 0.930 . S
Li528 N545 1.990 . S
Li528 O588 1.956 . S
Li528 O589 1.970 . S
Li528 O590 1.961 . S
Li529 N553 1.990 . S
Li529 O588 1.970 . S
Li529 O589 1.956 . S
Li529 O591 1.961 . S
Li530 N575 1.990 . S
Li530 O588 1.961 . S
Li530 O590 1.956 . S
Li530 O591 1.970 . S
Li531 N581 1.990 . S
Li531 O589 1.961 . S
Li531 O590 1.970 . S
Li531 O591 1.956 . S
C532 C534 1.348 . S
C532 C535 1.356 . S
C532 O588 1.325 . S
N533 C536 1.314 . S
N533 C537 1.279 . S
C534 C532 1.348 . S
C534 C536 1.353 . S
C534 H592 0.929 . S
C535 C532 1.356 . S
C535 C537 1.358 . S
C535 H593 0.930 . S
C536 N533 1.314 . S
C536 C534 1.353 . S
C536 H594 0.930 . S
C537 N533 1.279 . S
C537 C535 1.358 . S
C537 H595 0.930 . S
C538 C541 1.348 . S
C538 C542 1.356 . S
C538 O589 1.325 . S
C539 N540 1.279 . S
C539 C542 1.358 . S
C539 H596 0.930 . S
N540 C539 1.279 . S
N540 C543 1.314 . S
C541 C538 1.348 . S
C541 C543 1.353 . S
C541 H597 0.929 . S
C542 C538 1.356 . S
C542 C539 1.358 . S
C542 H598 0.930 . S
C543 N540 1.314 . S
C543 C541 1.353 . S
C543 H599 0.930 . S
C544 N545 1.314 . S
C544 C549 1.353 . S
C544 H550 0.930 . S
N545 Li528 1.990 . S
N545 C544 1.314 . S
N545 C547 1.279 . S
C546 C547 1.358 . S
C546 C548 1.356 . S
C546 H600 0.930 . S
C547 N545 1.279 . S
C547 C546 1.358 . S
C547 H551 0.930 . S
C548 C546 1.356 . S
C548 C549 1.348 . S
C549 C544 1.353 . S
C549 C548 1.348 . S
C549 H601 0.929 . S
H550 C544 0.930 . S
H551 C547 0.930 . S
C552 N553 1.314 . S
C552 C554 1.353 . S
C552 H558 0.930 . S
N553 Li529 1.990 . S
N553 C552 1.314 . S
N553 C556 1.279 . S
C554 C552 1.353 . S
C554 C557 1.348 . S
C554 H602 0.929 . S
C555 C556 1.358 . S
C555 C557 1.356 . S
C555 H603 0.930 . S
C556 N553 1.279 . S
C556 C555 1.358 . S
C556 H559 0.930 . S
C557 C554 1.348 . S
C557 C555 1.356 . S
H558 C552 0.930 . S
H559 C556 0.930 . S
C560 C562 1.348 . S
C560 C563 1.356 . S
C560 O590 1.325 . S
N561 C564 1.314 . S
N561 C565 1.279 . S
C562 C560 1.348 . S
C562 C564 1.353 . S
C562 H604 0.929 . S
C563 C560 1.356 . S
C563 C565 1.358 . S
C563 H605 0.930 . S
C564 N561 1.314 . S
C564 C562 1.353 . S
C564 H606 0.930 . S
C565 N561 1.279 . S
C565 C563 1.358 . S
C565 H607 0.930 . S
C566 C567 1.348 . S
C566 C568 1.356 . S
C566 O591 1.325 . S
C567 C566 1.348 . S
C567 C569 1.353 . S
C567 H608 0.929 . S
C568 C566 1.356 . S
C568 C570 1.358 . S
C568 H609 0.930 . S
C569 C567 1.353 . S
C569 N571 1.314 . S
C569 H610 0.930 . S
C570 C568 1.358 . S
C570 N571 1.279 . S
C570 H611 0.930 . S
N571 C569 1.314 . S
N571 C570 1.279 . S
C572 C574 1.353 . S
C572 N575 1.314 . S
C572 H578 0.930 . S
C573 N575 1.279 . S
C573 C576 1.358 . S
C573 H579 0.930 . S
C574 C572 1.353 . S
C574 C577 1.348 . S
C574 H612 0.929 . S
N575 Li530 1.990 . S
N575 C572 1.314 . S
N575 C573 1.279 . S
C576 C573 1.358 . S
C576 C577 1.356 . S
C576 H613 0.930 . S
C577 C574 1.348 . S
C577 C576 1.356 . S
H578 C572 0.930 . S
H579 C573 0.930 . S
C580 N581 1.314 . S
C580 C582 1.353 . S
C580 H586 0.930 . S
N581 Li531 1.990 . S
N581 C580 1.314 . S
N581 C584 1.279 . S
C582 C580 1.353 . S
C582 C585 1.348 . S
C582 H614 0.929 . S
C583 C584 1.358 . S
C583 C585 1.356 . S
C583 H615 0.930 . S
C584 N581 1.279 . S
C584 C583 1.358 . S
C584 H587 0.930 . S
C585 C582 1.348 . S
C585 C583 1.356 . S
H586 C580 0.930 . S
H587 C584 0.930 . S
O588 Li528 1.956 . S
O588 Li529 1.970 . S
O588 Li530 1.961 . S
O588 C532 1.325 . S
O589 Li528 1.970 . S
O589 Li529 1.956 . S
O589 Li531 1.961 . S
O589 C538 1.325 . S
O590 Li528 1.961 . S
O590 Li530 1.956 . S
O590 Li531 1.970 . S
O590 C560 1.325 . S
O591 Li529 1.961 . S
O591 Li530 1.970 . S
O591 Li531 1.956 . S
O591 C566 1.325 . S
H592 C534 0.929 . S
H593 C535 0.930 . S
H594 C536 0.930 . S
H595 C537 0.930 . S
H596 C539 0.930 . S
H597 C541 0.929 . S
H598 C542 0.930 . S
H599 C543 0.930 . S
H600 C546 0.930 . S
H601 C549 0.929 . S
H602 C554 0.929 . S
H603 C555 0.930 . S
H604 C562 0.929 . S
H605 C563 0.930 . S
H606 C564 0.930 . S
H607 C565 0.930 . S
H608 C567 0.929 . S
H609 C568 0.930 . S
H610 C569 0.930 . S
H611 C570 0.930 . S
H612 C574 0.929 . S
H613 C576 0.930 . S
H614 C582 0.929 . S
H615 C583 0.930 . S
Li616 N633 1.990 . S
Li616 O676 1.956 1_455 S
Li616 O677 1.970 . S
Li616 O678 1.961 . S
Li617 N641 1.990 . S
Li617 O676 1.970 . S
Li617 O677 1.956 1_655 S
Li617 O679 1.961 1_655 S
Li618 N663 1.990 . S
Li618 O676 1.961 1_455 S
Li618 O678 1.956 . S
Li618 O679 1.970 . S
Li619 N669 1.990 . S
Li619 O677 1.961 . S
Li619 O678 1.970 . S
Li619 O679 1.956 . S
C620 C622 1.348 . S
C620 C623 1.356 . S
C620 O676 1.325 . S
N621 C624 1.314 . S
N621 C625 1.279 . S
C622 C620 1.348 . S
C622 C624 1.353 . S
C622 H680 0.929 . S
C623 C620 1.356 . S
C623 C625 1.358 . S
C623 H681 0.930 . S
C624 N621 1.314 . S
C624 C622 1.353 . S
C624 H682 0.930 . S
C625 N621 1.279 . S
C625 C623 1.358 . S
C625 H683 0.930 . S
C626 C629 1.348 . S
C626 C630 1.356 . S
C626 O677 1.325 . S
C627 N628 1.279 . S
C627 C630 1.358 . S
C627 H684 0.930 . S
N628 C627 1.279 . S
N628 C631 1.314 . S
C629 C626 1.348 . S
C629 C631 1.353 . S
C629 H685 0.929 . S
C630 C626 1.356 . S
C630 C627 1.358 . S
C630 H686 0.930 . S
C631 N628 1.314 . S
C631 C629 1.353 . S
C631 H687 0.930 . S
C632 N633 1.314 . S
C632 C637 1.353 . S
C632 H638 0.930 . S
N633 Li616 1.990 . S
N633 C632 1.314 . S
N633 C635 1.279 . S
C634 C635 1.358 . S
C634 C636 1.356 . S
C634 H688 0.930 . S
C635 N633 1.279 . S
C635 C634 1.358 . S
C635 H639 0.930 1_455 S
C636 C634 1.356 . S
C636 C637 1.348 . S
C637 C632 1.353 . S
C637 C636 1.348 . S
C637 H689 0.929 . S
H638 C632 0.930 . S
H639 C635 0.930 1_655 S
C640 N641 1.314 . S
C640 C642 1.353 . S
C640 H646 0.930 . S
N641 Li617 1.990 . S
N641 C640 1.314 . S
N641 C644 1.279 . S
C642 C640 1.353 . S
C642 C645 1.348 . S
C642 H690 0.929 . S
C643 C644 1.358 . S
C643 C645 1.356 . S
C643 H691 0.930 . S
C644 N641 1.279 . S
C644 C643 1.358 . S
C644 H647 0.930 . S
C645 C642 1.348 . S
C645 C643 1.356 . S
H646 C640 0.930 . S
H647 C644 0.930 . S
C648 C650 1.348 . S
C648 C651 1.356 . S
C648 O678 1.325 . S
N649 C652 1.314 . S
N649 C653 1.279 . S
C650 C648 1.348 . S
C650 C652 1.353 . S
C650 H692 0.929 . S
C651 C648 1.356 . S
C651 C653 1.358 . S
C651 H693 0.930 . S
C652 N649 1.314 . S
C652 C650 1.353 . S
C652 H694 0.930 . S
C653 N649 1.279 . S
C653 C651 1.358 . S
C653 H695 0.938 . S
C654 C655 1.348 . S
C654 C656 1.356 . S
C654 O679 1.325 . S
C655 C654 1.348 . S
C655 C657 1.353 . S
C655 H696 0.929 . S
C656 C654 1.356 . S
C656 C658 1.358 . S
C656 H697 0.930 . S
C657 C655 1.353 . S
C657 N659 1.314 . S
C657 H698 0.930 . S
C658 C656 1.358 . S
C658 N659 1.279 . S
C658 H699 0.930 1_455 S
N659 C657 1.314 . S
N659 C658 1.279 . S
C660 C662 1.353 . S
C660 N663 1.314 1_655 S
C660 H666 0.930 . S
C661 N663 1.279 . S
C661 C664 1.358 . S
C661 H667 0.930 . S
C662 C660 1.353 . S
C662 C665 1.348 1_655 S
C662 H700 0.929 . S
N663 Li618 1.990 . S
N663 C660 1.314 1_455 S
N663 C661 1.279 . S
C664 C661 1.358 . S
C664 C665 1.356 . S
C664 H701 0.930 . S
C665 C662 1.348 1_455 S
C665 C664 1.356 . S
H666 C660 0.930 . S
H667 C661 0.930 . S
C668 N669 1.314 . S
C668 C670 1.353 . S
C668 H674 0.930 . S
N669 Li619 1.990 . S
N669 C668 1.314 . S
N669 C672 1.279 . S
C670 C668 1.353 . S
C670 C673 1.348 . S
C670 H702 0.929 . S
C671 C672 1.358 . S
C671 C673 1.356 . S
C671 H703 0.930 . S
C672 N669 1.279 . S
C672 C671 1.358 . S
C672 H675 0.930 . S
C673 C670 1.348 . S
C673 C671 1.356 . S
H674 C668 0.930 . S
H675 C672 0.930 . S
O676 Li616 1.956 1_655 S
O676 Li617 1.970 . S
O676 Li618 1.961 1_655 S
O676 C620 1.325 . S
O677 Li616 1.970 . S
O677 Li617 1.956 1_455 S
O677 Li619 1.961 . S
O677 C626 1.325 . S
O678 Li616 1.961 . S
O678 Li618 1.956 . S
O678 Li619 1.970 . S
O678 C648 1.325 . S
O679 Li617 1.961 1_455 S
O679 Li618 1.970 . S
O679 Li619 1.956 . S
O679 C654 1.325 . S
H680 C622 0.929 . S
H681 C623 0.930 . S
H682 C624 0.930 . S
H683 C625 0.930 . S
H684 C627 0.930 . S
H685 C629 0.929 . S
H686 C630 0.930 . S
H687 C631 0.930 . S
H688 C634 0.930 . S
H689 C637 0.929 . S
H690 C642 0.929 . S
H691 C643 0.930 . S
H692 C650 0.929 . S
H693 C651 0.930 . S
H694 C652 0.930 . S
H695 C653 0.938 . S
H696 C655 0.929 . S
H697 C656 0.930 . S
H698 C657 0.930 . S
H699 C658 0.930 1_655 S
H700 C662 0.929 . S
H701 C664 0.930 . S
H702 C670 0.929 . S
H703 C671 0.930 . S
Li704 N721 1.990 . S
Li704 O764 1.956 1_545 S
Li704 O765 1.970 . S
Li704 O766 1.961 . S
Li705 N729 1.990 . S
Li705 O764 1.970 . S
Li705 O765 1.956 1_565 S
Li705 O767 1.961 . S
Li706 N751 1.990 . S
Li706 O764 1.961 1_545 S
Li706 O766 1.956 . S
Li706 O767 1.970 1_545 S
Li707 N757 1.990 . S
Li707 O765 1.961 . S
Li707 O766 1.970 . S
Li707 O767 1.956 1_545 S
C708 C710 1.348 . S
C708 C711 1.356 . S
C708 O764 1.325 . S
N709 C712 1.314 . S
N709 C713 1.279 . S
C710 C708 1.348 . S
C710 C712 1.353 . S
C710 H768 0.929 . S
C711 C708 1.356 . S
C711 C713 1.358 . S
C711 H769 0.930 . S
C712 N709 1.314 . S
C712 C710 1.353 . S
C712 H770 0.930 . S
C713 N709 1.279 . S
C713 C711 1.358 . S
C713 H771 0.930 . S
C714 C717 1.330 1_545 S
C714 C718 1.356 . S
C714 O765 1.325 . S
C715 N716 1.278 1_545 S
C715 C718 1.358 . S
C715 H772 0.930 . S
N716 C715 1.278 1_565 S
N716 C719 1.316 . S
C717 C714 1.330 1_565 S
C717 C719 1.354 . S
C717 H773 0.948 . S
C718 C714 1.356 . S
C718 C715 1.358 . S
C718 H774 0.930 . S
C719 N716 1.316 . S
C719 C717 1.354 . S
C719 H775 0.930 . S
C720 N721 1.314 . S
C720 C725 1.353 . S
C720 H726 0.930 . S
N721 Li704 1.990 . S
N721 C720 1.314 . S
N721 C723 1.279 1_545 S
C722 C723 1.358 1_545 S
C722 C724 1.356 . S
C722 H776 0.930 1_545 S
C723 N721 1.279 1_565 S
C723 C722 1.358 1_565 S
C723 H727 0.930 . S
C724 C722 1.356 . S
C724 C725 1.348 . S
C725 C720 1.353 . S
C725 C724 1.348 . S
C725 H777 0.929 . S
H726 C720 0.930 . S
H727 C723 0.930 . S
C728 N729 1.314 . S
C728 C730 1.353 . S
C728 H734 0.930 . S
N729 Li705 1.990 . S
N729 C728 1.314 . S
N729 C732 1.279 . S
C730 C728 1.353 . S
C730 C733 1.348 . S
C730 H778 0.929 . S
C731 C732 1.358 . S
C731 C733 1.356 . S
C731 H779 0.930 . S
C732 N729 1.279 . S
C732 C731 1.358 . S
C732 H735 0.930 . S
C733 C730 1.348 . S
C733 C731 1.356 . S
H734 C728 0.930 . S
H735 C732 0.930 . S
C736 C738 1.348 . S
C736 C739 1.356 . S
C736 O766 1.325 . S
N737 C740 1.314 . S
N737 C741 1.279 . S
C738 C736 1.348 . S
C738 C740 1.353 . S
C738 H780 0.929 . S
C739 C736 1.356 . S
C739 C741 1.358 . S
C739 H781 0.930 . S
C740 N737 1.314 . S
C740 C738 1.353 . S
C740 H782 0.930 . S
C741 N737 1.279 . S
C741 C739 1.358 . S
C741 H783 0.930 . S
C742 C743 1.348 . S
C742 C744 1.356 . S
C742 O767 1.325 . S
C743 C742 1.348 . S
C743 C745 1.353 . S
C743 H784 0.929 1_565 S
C744 C742 1.356 . S
C744 C746 1.358 . S
C744 H785 0.930 . S
C745 C743 1.353 . S
C745 N747 1.314 . S
C745 H786 0.941 . S
C746 C744 1.358 . S
C746 N747 1.279 . S
C746 H787 0.930 . S
N747 C745 1.314 . S
N747 C746 1.279 . S
C748 C750 1.353 . S
C748 N751 1.314 1_565 S
C748 H754 0.930 . S
C749 N751 1.279 . S
C749 C752 1.358 . S
C749 H755 0.930 . S
C750 C748 1.353 . S
C750 C753 1.348 1_565 S
C750 H788 0.929 . S
N751 Li706 1.990 . S
N751 C748 1.314 1_545 S
N751 C749 1.279 . S
C752 C749 1.358 . S
C752 C753 1.356 . S
C752 H789 0.930 . S
C753 C750 1.348 1_545 S
C753 C752 1.356 . S
H754 C748 0.930 . S
H755 C749 0.930 . S
C756 N757 1.314 . S
C756 C758 1.353 . S
C756 H762 0.930 . S
N757 Li707 1.990 . S
N757 C756 1.314 . S
N757 C760 1.279 . S
C758 C756 1.353 . S
C758 C761 1.348 . S
C758 H790 0.929 . S
C759 C760 1.358 . S
C759 C761 1.356 . S
C759 H791 0.930 . S
C760 N757 1.279 . S
C760 C759 1.358 . S
C760 H763 0.930 . S
C761 C758 1.348 . S
C761 C759 1.356 . S
H762 C756 0.930 . S
H763 C760 0.930 . S
O764 Li704 1.956 1_565 S
O764 Li705 1.970 . S
O764 Li706 1.961 1_565 S
O764 C708 1.325 . S
O765 Li704 1.970 . S
O765 Li705 1.956 1_545 S
O765 Li707 1.961 . S
O765 C714 1.325 . S
O766 Li704 1.961 . S
O766 Li706 1.956 . S
O766 Li707 1.970 . S
O766 C736 1.325 . S
O767 Li705 1.961 . S
O767 Li706 1.970 1_565 S
O767 Li707 1.956 1_565 S
O767 C742 1.325 . S
H768 C710 0.929 . S
H769 C711 0.930 . S
H770 C712 0.930 . S
H771 C713 0.930 . S
H772 C715 0.930 . S
H773 C717 0.948 . S
H774 C718 0.930 . S
H775 C719 0.930 . S
H776 C722 0.930 1_565 S
H777 C725 0.929 . S
H778 C730 0.929 . S
H779 C731 0.930 . S
H780 C738 0.929 . S
H781 C739 0.930 . S
H782 C740 0.930 . S
H783 C741 0.930 . S
H784 C743 0.929 1_545 S
H785 C744 0.930 . S
H786 C745 0.941 . S
H787 C746 0.930 . S
H788 C750 0.929 . S
H789 C752 0.930 . S
H790 C758 0.929 . S
H791 C759 0.930 . S
Li792 N809 1.990 . S
Li792 O852 1.956 . S
Li792 O853 1.970 . S
Li792 O854 1.961 . S
Li793 N817 1.990 . S
Li793 O852 1.970 . S
Li793 O853 1.956 . S
Li793 O855 1.961 . S
Li794 N839 1.990 . S
Li794 O852 1.961 . S
Li794 O854 1.956 . S
Li794 O855 1.970 . S
Li795 N845 1.990 . S
Li795 O853 1.961 . S
Li795 O854 1.970 . S
Li795 O855 1.956 . S
C796 C798 1.348 . S
C796 C799 1.356 . S
C796 O852 1.325 . S
N797 C800 1.314 . S
N797 C801 1.279 . S
C798 C796 1.348 . S
C798 C800 1.353 . S
C798 H856 0.929 . S
C799 C796 1.356 . S
C799 C801 1.358 . S
C799 H857 0.930 . S
C800 N797 1.314 . S
C800 C798 1.353 . S
C800 H858 0.930 . S
C801 N797 1.279 . S
C801 C799 1.358 . S
C801 H859 0.930 . S
C802 C805 1.348 . S
C802 C806 1.356 . S
C802 O853 1.325 . S
C803 N804 1.279 . S
C803 C806 1.358 . S
C803 H860 0.930 . S
N804 C803 1.279 . S
N804 C807 1.314 . S
C805 C802 1.348 . S
C805 C807 1.353 . S
C805 H861 0.929 . S
C806 C802 1.356 . S
C806 C803 1.358 . S
C806 H862 0.930 . S
C807 N804 1.314 . S
C807 C805 1.353 . S
C807 H863 0.930 . S
C808 N809 1.314 . S
C808 C813 1.353 . S
C808 H814 0.930 . S
N809 Li792 1.990 . S
N809 C808 1.314 . S
N809 C811 1.279 . S
C810 C811 1.358 . S
C810 C812 1.356 . S
C810 H864 0.930 . S
C811 N809 1.279 . S
C811 C810 1.358 . S
C811 H815 0.930 . S
C812 C810 1.356 . S
C812 C813 1.348 . S
C813 C808 1.353 . S
C813 C812 1.348 . S
C813 H865 0.929 . S
H814 C808 0.930 . S
H815 C811 0.930 . S
C816 N817 1.314 . S
C816 C818 1.353 . S
C816 H822 0.930 . S
N817 Li793 1.990 . S
N817 C816 1.314 . S
N817 C820 1.279 . S
C818 C816 1.353 . S
C818 C821 1.348 . S
C818 H866 0.929 . S
C819 C820 1.358 . S
C819 C821 1.356 . S
C819 H867 0.930 . S
C820 N817 1.279 . S
C820 C819 1.358 . S
C820 H823 0.930 . S
C821 C818 1.348 . S
C821 C819 1.356 . S
H822 C816 0.930 . S
H823 C820 0.930 . S
C824 C826 1.348 . S
C824 C827 1.356 . S
C824 O854 1.325 . S
N825 C828 1.314 . S
N825 C829 1.279 . S
C826 C824 1.348 . S
C826 C828 1.353 . S
C826 H868 0.929 . S
C827 C824 1.356 . S
C827 C829 1.358 . S
C827 H869 0.930 . S
C828 N825 1.314 . S
C828 C826 1.353 . S
C828 H870 0.930 . S
C829 N825 1.279 . S
C829 C827 1.358 . S
C829 H871 0.930 . S
C830 C831 1.348 . S
C830 C832 1.356 . S
C830 O855 1.325 . S
C831 C830 1.348 . S
C831 C833 1.353 . S
C831 H872 0.929 . S
C832 C830 1.356 . S
C832 C834 1.358 . S
C832 H873 0.930 . S
C833 C831 1.353 . S
C833 N835 1.314 . S
C833 H874 0.930 . S
C834 C832 1.358 . S
C834 N835 1.279 . S
C834 H875 0.930 . S
N835 C833 1.314 . S
N835 C834 1.279 . S
C836 C838 1.353 . S
C836 N839 1.314 . S
C836 H842 0.930 . S
C837 N839 1.279 . S
C837 C840 1.358 . S
C837 H843 0.930 . S
C838 C836 1.353 . S
C838 C841 1.348 . S
C838 H876 0.929 . S
N839 Li794 1.990 . S
N839 C836 1.314 . S
N839 C837 1.279 . S
C840 C837 1.358 . S
C840 C841 1.356 . S
C840 H877 0.930 . S
C841 C838 1.348 . S
C841 C840 1.356 . S
H842 C836 0.930 . S
H843 C837 0.930 . S
C844 N845 1.314 . S
C844 C846 1.353 . S
C844 H850 0.930 . S
N845 Li795 1.990 . S
N845 C844 1.314 . S
N845 C848 1.279 . S
C846 C844 1.353 . S
C846 C849 1.348 . S
C846 H878 0.929 . S
C847 C848 1.358 . S
C847 C849 1.356 . S
C847 H879 0.930 . S
C848 N845 1.279 . S
C848 C847 1.358 . S
C848 H851 0.930 . S
C849 C846 1.348 . S
C849 C847 1.356 . S
H850 C844 0.930 . S
H851 C848 0.930 . S
O852 Li792 1.956 . S
O852 Li793 1.970 . S
O852 Li794 1.961 . S
O852 C796 1.325 . S
O853 Li792 1.970 . S
O853 Li793 1.956 . S
O853 Li795 1.961 . S
O853 C802 1.325 . S
O854 Li792 1.961 . S
O854 Li794 1.956 . S
O854 Li795 1.970 . S
O854 C824 1.325 . S
O855 Li793 1.961 . S
O855 Li794 1.970 . S
O855 Li795 1.956 . S
O855 C830 1.325 . S
H856 C798 0.929 . S
H857 C799 0.930 . S
H858 C800 0.930 . S
H859 C801 0.930 . S
H860 C803 0.930 . S
H861 C805 0.929 . S
H862 C806 0.930 . S
H863 C807 0.930 . S
H864 C810 0.930 . S
H865 C813 0.929 . S
H866 C818 0.929 . S
H867 C819 0.930 . S
H868 C826 0.929 . S
H869 C827 0.930 . S
H870 C828 0.930 . S
H871 C829 0.930 . S
H872 C831 0.929 . S
H873 C832 0.930 . S
H874 C833 0.930 . S
H875 C834 0.930 . S
H876 C838 0.929 . S
H877 C840 0.930 . S
H878 C846 0.929 . S
H879 C847 0.930 . S
Li880 N897 1.990 . S
Li880 O940 1.956 . S
Li880 O941 1.970 . S
Li880 O942 1.961 . S
Li881 N905 1.990 . S
Li881 O940 1.964 . S
Li881 O941 1.993 . S
Li881 O943 1.928 1_545 S
Li882 N927 1.990 . S
Li882 O940 1.961 1_565 S
Li882 O942 1.956 1_565 S
Li882 O943 1.970 . S
Li883 N933 1.990 . S
Li883 O941 1.961 1_565 S
Li883 O942 1.970 1_565 S
Li883 O943 1.956 . S
C884 C886 1.348 . S
C884 C887 1.356 . S
C884 O940 1.325 . S
N885 C888 1.314 . S
N885 C889 1.279 . S
C886 C884 1.348 . S
C886 C888 1.353 . S
C886 H944 0.929 . S
C887 C884 1.356 . S
C887 C889 1.358 . S
C887 H945 0.930 . S
C888 N885 1.314 . S
C888 C886 1.353 . S
C888 H946 0.930 . S
C889 N885 1.279 . S
C889 C887 1.358 . S
C889 H947 0.930 . S
C890 C893 1.348 . S
C890 C894 1.356 . S
C890 O941 1.325 . S
C891 N892 1.279 . S
C891 C894 1.358 . S
C891 H948 0.930 . S
N892 C891 1.279 . S
N892 C895 1.314 . S
C893 C890 1.348 . S
C893 C895 1.353 . S
C893 H949 0.929 . S
C894 C890 1.356 . S
C894 C891 1.358 . S
C894 H950 0.930 . S
C895 N892 1.314 . S
C895 C893 1.353 . S
C895 H951 0.930 . S
C896 N897 1.314 . S
C896 C901 1.353 . S
C896 H902 0.930 . S
N897 Li880 1.990 . S
N897 C896 1.314 . S
N897 C899 1.279 . S
C898 C899 1.358 . S
C898 C900 1.356 . S
C898 H952 0.930 . S
C899 N897 1.279 . S
C899 C898 1.358 . S
C899 H903 0.930 . S
C900 C898 1.356 . S
C900 C901 1.348 . S
C901 C896 1.353 . S
C901 C900 1.348 . S
C901 H953 0.929 . S
H902 C896 0.930 . S
H903 C899 0.930 . S
C904 N905 1.294 1_565 S
C904 C906 1.353 . S
C904 H910 0.930 . S
N905 Li881 1.990 . S
N905 C904 1.294 1_545 S
N905 C908 1.298 . S
C906 C904 1.353 . S
C906 C909 1.371 . S
C906 H954 0.929 . S
C907 C908 1.358 . S
C907 C909 1.332 1_545 S
C907 H955 0.930 . S
C908 N905 1.298 . S
C908 C907 1.358 . S
C908 H911 0.930 . S
C909 C906 1.371 . S
C909 C907 1.332 1_565 S
H910 C904 0.930 . S
H911 C908 0.930 . S
C912 C914 1.348 1_545 S
C912 C915 1.356 . S
C912 O942 1.325 . S
N913 C916 1.310 1_545 S
N913 C917 1.284 . S
C914 C912 1.348 1_565 S
C914 C916 1.353 . S
C914 H956 0.929 . S
C915 C912 1.356 . S
C915 C917 1.358 . S
C915 H957 0.930 . S
C916 N913 1.310 1_565 S
C916 C914 1.353 . S
C916 H958 0.930 . S
C917 N913 1.284 . S
C917 C915 1.358 . S
C917 H959 0.930 . S
C918 C919 1.348 . S
C918 C920 1.356 . S
C918 O943 1.325 . S
C919 C918 1.348 . S
C919 C921 1.353 . S
C919 H960 0.929 . S
C920 C918 1.356 . S
C920 C922 1.358 . S
C920 H961 0.930 . S
C921 C919 1.353 . S
C921 N923 1.314 . S
C921 H962 0.930 . S
C922 C920 1.358 . S
C922 N923 1.279 . S
C922 H963 0.930 . S
N923 C921 1.314 . S
N923 C922 1.279 . S
C924 C926 1.353 . S
C924 N927 1.314 . S
C924 H930 0.930 . S
C925 N927 1.279 . S
C925 C928 1.358 . S
C925 H931 0.930 . S
C926 C924 1.353 . S
C926 C929 1.348 . S
C926 H964 0.929 . S
N927 Li882 1.990 . S
N927 C924 1.314 . S
N927 C925 1.279 . S
C928 C925 1.358 . S
C928 C929 1.356 . S
C928 H965 0.930 . S
C929 C926 1.348 . S
C929 C928 1.356 . S
H930 C924 0.930 . S
H931 C925 0.930 . S
C932 N933 1.314 1_545 S
C932 C934 1.353 . S
C932 H938 0.930 . S
N933 Li883 1.990 . S
N933 C932 1.314 1_565 S
N933 C936 1.279 . S
C934 C932 1.353 . S
C934 C937 1.348 1_545 S
C934 H966 0.929 . S
C935 C936 1.358 . S
C935 C937 1.356 . S
C935 H967 0.930 . S
C936 N933 1.279 . S
C936 C935 1.358 . S
C936 H939 0.930 . S
C937 C934 1.348 1_565 S
C937 C935 1.356 . S
H938 C932 0.930 . S
H939 C936 0.930 . S
O940 Li880 1.956 . S
O940 Li881 1.964 . S
O940 Li882 1.961 1_545 S
O940 C884 1.325 . S
O941 Li880 1.970 . S
O941 Li881 1.993 . S
O941 Li883 1.961 1_545 S
O941 C890 1.325 . S
O942 Li880 1.961 . S
O942 Li882 1.956 1_545 S
O942 Li883 1.970 1_545 S
O942 C912 1.325 . S
O943 Li881 1.928 1_565 S
O943 Li882 1.970 . S
O943 Li883 1.956 . S
O943 C918 1.325 . S
H944 C886 0.929 . S
H945 C887 0.930 . S
H946 C888 0.930 . S
H947 C889 0.930 . S
H948 C891 0.930 . S
H949 C893 0.929 . S
H950 C894 0.930 . S
H951 C895 0.930 . S
H952 C898 0.930 . S
H953 C901 0.929 . S
H954 C906 0.929 . S
H955 C907 0.930 . S
H956 C914 0.929 . S
H957 C915 0.930 . S
H958 C916 0.930 . S
H959 C917 0.930 . S
H960 C919 0.929 . S
H961 C920 0.930 . S
H962 C921 0.930 . S
H963 C922 0.930 . S
H964 C926 0.929 . S
H965 C928 0.930 . S
H966 C934 0.929 . S
H967 C935 0.930 . S
Li968 N985 1.990 . S
Li968 O1028 1.956 . S
Li968 O1029 1.970 . S
Li968 O1030 1.961 1_554 S
Li969 N993 1.990 . S
Li969 O1028 1.970 . S
Li969 O1029 1.956 . S
Li969 O1031 1.961 . S
Li970 N1015 1.990 . S
Li970 O1028 1.961 . S
Li970 O1030 1.956 1_554 S
Li970 O1031 1.970 . S
Li971 N1021 1.990 . S
Li971 O1029 1.961 1_556 S
Li971 O1030 1.970 . S
Li971 O1031 1.956 1_556 S
C972 C974 1.348 . S
C972 C975 1.356 . S
C972 O1028 1.325 . S
N973 C976 1.314 . S
N973 C977 1.279 . S
C974 C972 1.348 . S
C974 C976 1.353 . S
C974 H1032 0.929 . S
C975 C972 1.356 . S
C975 C977 1.358 . S
C975 H1033 0.930 . S
C976 N973 1.314 . S
C976 C974 1.353 . S
C976 H1034 0.930 . S
C977 N973 1.279 . S
C977 C975 1.358 . S
C977 H1035 0.930 1_565 S
C978 C981 1.348 . S
C978 C982 1.356 1_554 S
C978 O1029 1.325 . S
C979 N980 1.279 . S
C979 C982 1.358 . S
C979 H1036 0.930 . S
N980 C979 1.279 . S
N980 C983 1.314 1_556 S
C981 C978 1.348 . S
C981 C983 1.353 . S
C981 H1037 0.929 . S
C982 C978 1.356 1_556 S
C982 C979 1.358 . S
C982 H1038 0.930 . S
C983 N980 1.314 1_554 S
C983 C981 1.353 . S
C983 H1039 0.930 . S
C984 N985 1.314 1_556 S
C984 C989 1.353 . S
C984 H990 0.930 . S
N985 Li968 1.990 . S
N985 C984 1.314 1_554 S
N985 C987 1.279 . S
C986 C987 1.358 . S
C986 C988 1.356 . S
C986 H1040 0.930 . S
C987 N985 1.279 . S
C987 C986 1.358 . S
C987 H991 0.930 . S
C988 C986 1.356 . S
C988 C989 1.348 1_554 S
C989 C984 1.353 . S
C989 C988 1.348 1_556 S
C989 H1041 0.929 . S
H990 C984 0.930 . S
H991 C987 0.930 . S
C992 N993 1.314 . S
C992 C994 1.353 . S
C992 H998 0.930 . S
N993 Li969 1.990 . S
N993 C992 1.314 . S
N993 C996 1.279 . S
C994 C992 1.353 . S
C994 C997 1.348 . S
C994 H1042 0.929 . S
C995 C996 1.358 . S
C995 C997 1.356 . S
C995 H1043 0.930 . S
C996 N993 1.279 . S
C996 C995 1.358 . S
C996 H999 0.930 . S
C997 C994 1.348 . S
C997 C995 1.356 . S
H998 C992 0.930 . S
H999 C996 0.930 . S
C1000 C1002 1.348 . S
C1000 C1003 1.356 . S
C1000 O1030 1.325 . S
N1001 C1004 1.314 . S
N1001 C1005 1.279 . S
C1002 C1000 1.348 . S
C1002 C1004 1.353 . S
C1002 H1044 0.929 . S
C1003 C1000 1.356 . S
C1003 C1005 1.358 . S
C1003 H1045 0.930 . S
C1004 N1001 1.314 . S
C1004 C1002 1.353 . S
C1004 H1046 0.930 . S
C1005 N1001 1.279 . S
C1005 C1003 1.358 . S
C1005 H1047 0.930 . S
C1006 C1007 1.348 . S
C1006 C1008 1.356 . S
C1006 O1031 1.325 . S
C1007 C1006 1.348 . S
C1007 C1009 1.353 . S
C1007 H1048 0.929 . S
C1008 C1006 1.356 . S
C1008 C1010 1.358 . S
C1008 H1049 0.930 . S
C1009 C1007 1.353 . S
C1009 N1011 1.314 . S
C1009 H1050 0.922 1_554 S
C1010 C1008 1.358 . S
C1010 N1011 1.279 . S
C1010 H1051 0.930 . S
N1011 C1009 1.314 . S
N1011 C1010 1.279 . S
C1012 C1014 1.353 . S
C1012 N1015 1.314 . S
C1012 H1018 0.930 . S
C1013 N1015 1.261 1_556 S
C1013 C1016 1.361 1_556 S
C1013 H1019 0.948 . S
C1014 C1012 1.353 . S
C1014 C1017 1.348 . S
C1014 H1052 0.929 . S
N1015 Li970 1.990 . S
N1015 C1012 1.314 . S
N1015 C1013 1.261 1_554 S
C1016 C1013 1.361 1_554 S
C1016 C1017 1.356 . S
C1016 H1053 0.930 1_554 S
C1017 C1014 1.348 . S
C1017 C1016 1.356 . S
H1018 C1012 0.930 . S
H1019 C1013 0.948 . S
C1020 N1021 1.314 . S
C1020 C1022 1.353 . S
C1020 H1026 0.930 . S
N1021 Li971 1.990 . S
N1021 C1020 1.314 . S
N1021 C1024 1.279 . S
C1022 C1020 1.353 . S
C1022 C1025 1.348 . S
C1022 H1054 0.929 . S
C1023 C1024 1.358 . S
C1023 C1025 1.356 . S
C1023 H1055 0.930 . S
C1024 N1021 1.279 . S
C1024 C1023 1.358 . S
C1024 H1027 0.930 . S
C1025 C1022 1.348 . S
C1025 C1023 1.356 . S
H1026 C1020 0.930 . S
H1027 C1024 0.930 . S
O1028 Li968 1.956 . S
O1028 Li969 1.970 . S
O1028 Li970 1.961 . S
O1028 C972 1.325 . S
O1029 Li968 1.970 . S
O1029 Li969 1.956 . S
O1029 Li971 1.961 1_554 S
O1029 C978 1.325 . S
O1030 Li968 1.961 1_556 S
O1030 Li970 1.956 1_556 S
O1030 Li971 1.970 . S
O1030 C1000 1.325 . S
O1031 Li969 1.961 . S
O1031 Li970 1.970 . S
O1031 Li971 1.956 1_554 S
O1031 C1006 1.325 . S
H1032 C974 0.929 . S
H1033 C975 0.930 . S
H1034 C976 0.930 . S
H1035 C977 0.930 1_545 S
H1036 C979 0.930 . S
H1037 C981 0.929 . S
H1038 C982 0.930 . S
H1039 C983 0.930 . S
H1040 C986 0.930 . S
H1041 C989 0.929 . S
H1042 C994 0.929 . S
H1043 C995 0.930 . S
H1044 C1002 0.929 . S
H1045 C1003 0.930 . S
H1046 C1004 0.930 . S
H1047 C1005 0.930 . S
H1048 C1007 0.929 . S
H1049 C1008 0.930 . S
H1050 C1009 0.922 1_556 S
H1051 C1010 0.930 . S
H1052 C1014 0.929 . S
H1053 C1016 0.930 1_556 S
H1054 C1022 0.929 . S
H1055 C1023 0.930 . S
Li1056 N1073 1.990 . S
Li1056 O1116 1.956 . S
Li1056 O1117 1.970 . S
Li1056 O1118 1.961 1_554 S
Li1057 N1081 1.990 . S
Li1057 O1116 1.970 . S
Li1057 O1117 1.956 . S
Li1057 O1119 1.961 . S
Li1058 N1103 1.990 . S
Li1058 O1116 1.961 . S
Li1058 O1118 1.956 1_554 S
Li1058 O1119 1.970 . S
Li1059 N1109 1.990 . S
Li1059 O1117 1.961 1_556 S
Li1059 O1118 1.970 . S
Li1059 O1119 1.956 1_556 S
C1060 C1062 1.348 . S
C1060 C1063 1.356 . S
C1060 O1116 1.325 . S
N1061 C1064 1.314 . S
N1061 C1065 1.279 . S
C1062 C1060 1.348 . S
C1062 C1064 1.353 . S
C1062 H1120 0.929 . S
C1063 C1060 1.356 . S
C1063 C1065 1.358 . S
C1063 H1121 0.930 . S
C1064 N1061 1.314 . S
C1064 C1062 1.353 . S
C1064 H1122 0.930 . S
C1065 N1061 1.279 . S
C1065 C1063 1.358 . S
C1065 H1123 0.930 . S
C1066 C1069 1.348 . S
C1066 C1070 1.356 . S
C1066 O1117 1.325 . S
C1067 N1068 1.279 . S
C1067 C1070 1.358 . S
C1067 H1124 0.930 1_554 S
N1068 C1067 1.279 . S
N1068 C1071 1.314 . S
C1069 C1066 1.348 . S
C1069 C1071 1.353 . S
C1069 H1125 0.929 . S
C1070 C1066 1.356 . S
C1070 C1067 1.358 . S
C1070 H1126 0.930 . S
C1071 N1068 1.314 . S
C1071 C1069 1.353 . S
C1071 H1127 0.930 . S
C1072 N1073 1.314 . S
C1072 C1077 1.353 . S
C1072 H1078 0.930 1_554 S
N1073 Li1056 1.990 . S
N1073 C1072 1.314 . S
N1073 C1075 1.279 . S
C1074 C1075 1.358 . S
C1074 C1076 1.356 . S
C1074 H1128 0.930 . S
C1075 N1073 1.279 . S
C1075 C1074 1.358 . S
C1075 H1079 0.930 . S
C1076 C1074 1.356 . S
C1076 C1077 1.348 . S
C1077 C1072 1.353 . S
C1077 C1076 1.348 . S
C1077 H1129 0.929 1_554 S
H1078 C1072 0.930 1_556 S
H1079 C1075 0.930 . S
C1080 N1081 1.314 . S
C1080 C1082 1.353 . S
C1080 H1086 0.930 . S
N1081 Li1057 1.990 . S
N1081 C1080 1.314 . S
N1081 C1084 1.279 . S
C1082 C1080 1.353 . S
C1082 C1085 1.348 . S
C1082 H1130 0.929 . S
C1083 C1084 1.358 . S
C1083 C1085 1.356 . S
C1083 H1131 0.930 . S
C1084 N1081 1.279 . S
C1084 C1083 1.358 . S
C1084 H1087 0.930 . S
C1085 C1082 1.348 . S
C1085 C1083 1.356 . S
H1086 C1080 0.930 . S
H1087 C1084 0.930 . S
C1088 C1090 1.348 . S
C1088 C1091 1.356 . S
C1088 O1118 1.325 . S
N1089 C1092 1.314 . S
N1089 C1093 1.279 . S
C1090 C1088 1.348 . S
C1090 C1092 1.353 . S
C1090 H1132 0.929 . S
C1091 C1088 1.356 . S
C1091 C1093 1.358 . S
C1091 H1133 0.930 . S
C1092 N1089 1.314 . S
C1092 C1090 1.353 . S
C1092 H1134 0.930 . S
C1093 N1089 1.279 . S
C1093 C1091 1.358 . S
C1093 H1135 0.930 . S
C1094 C1095 1.348 . S
C1094 C1096 1.356 . S
C1094 O1119 1.325 . S
C1095 C1094 1.348 . S
C1095 C1097 1.353 . S
C1095 H1136 0.929 . S
C1096 C1094 1.356 . S
C1096 C1098 1.358 . S
C1096 H1137 0.930 . S
C1097 C1095 1.353 . S
C1097 N1099 1.314 . S
C1097 H1138 0.930 . S
C1098 C1096 1.358 . S
C1098 N1099 1.279 . S
C1098 H1139 0.930 . S
N1099 C1097 1.314 . S
N1099 C1098 1.279 . S
C1100 C1102 1.353 . S
C1100 N1103 1.314 . S
C1100 H1106 0.930 . S
C1101 N1103 1.279 . S
C1101 C1104 1.358 . S
C1101 H1107 0.930 1_554 S
C1102 C1100 1.353 . S
C1102 C1105 1.348 . S
C1102 H1140 0.929 . S
N1103 Li1058 1.990 . S
N1103 C1100 1.314 . S
N1103 C1101 1.279 . S
C1104 C1101 1.358 . S
C1104 C1105 1.356 . S
C1104 H1141 0.912 1_554 S
C1105 C1102 1.348 . S
C1105 C1104 1.356 . S
H1106 C1100 0.930 . S
H1107 C1101 0.930 1_556 S
C1108 N1109 1.314 . S
C1108 C1110 1.353 . S
C1108 H1114 0.930 . S
N1109 Li1059 1.990 . S
N1109 C1108 1.314 . S
N1109 C1112 1.279 . S
C1110 C1108 1.353 . S
C1110 C1113 1.348 . S
C1110 H1142 0.929 . S
C1111 C1112 1.358 . S
C1111 C1113 1.356 . S
C1111 H1143 0.930 . S
C1112 N1109 1.279 . S
C1112 C1111 1.358 . S
C1112 H1115 0.930 . S
C1113 C1110 1.348 . S
C1113 C1111 1.356 . S
H1114 C1108 0.930 . S
H1115 C1112 0.930 . S
O1116 Li1056 1.956 . S
O1116 Li1057 1.970 . S
O1116 Li1058 1.961 . S
O1116 C1060 1.325 . S
O1117 Li1056 1.970 . S
O1117 Li1057 1.956 . S
O1117 Li1059 1.961 1_554 S
O1117 C1066 1.325 . S
O1118 Li1056 1.961 1_556 S
O1118 Li1058 1.956 1_556 S
O1118 Li1059 1.970 . S
O1118 C1088 1.325 . S
O1119 Li1057 1.961 . S
O1119 Li1058 1.970 . S
O1119 Li1059 1.956 1_554 S
O1119 C1094 1.325 . S
H1120 C1062 0.929 . S
H1121 C1063 0.930 . S
H1122 C1064 0.930 . S
H1123 C1065 0.930 . S
H1124 C1067 0.930 1_556 S
H1125 C1069 0.929 . S
H1126 C1070 0.930 . S
H1127 C1071 0.930 . S
H1128 C1074 0.930 . S
H1129 C1077 0.929 1_556 S
H1130 C1082 0.929 . S
H1131 C1083 0.930 . S
H1132 C1090 0.929 . S
H1133 C1091 0.930 . S
H1134 C1092 0.930 . S
H1135 C1093 0.930 . S
H1136 C1095 0.929 . S
H1137 C1096 0.930 . S
H1138 C1097 0.930 . S
H1139 C1098 0.930 . S
H1140 C1102 0.929 . S
H1141 C1104 0.912 1_556 S
H1142 C1110 0.929 . S
H1143 C1111 0.930 . S
Li1144 N1161 1.990 . S
Li1144 O1204 1.956 . S
Li1144 O1205 1.970 . S
Li1144 O1206 1.961 . S
Li1145 N1169 1.990 . S
Li1145 O1204 1.970 . S
Li1145 O1205 1.956 . S
Li1145 O1207 1.961 1_554 S
Li1146 N1191 1.990 . S
Li1146 O1204 1.961 1_556 S
Li1146 O1206 1.956 1_556 S
Li1146 O1207 1.970 . S
Li1147 N1197 1.990 . S
Li1147 O1205 1.961 . S
Li1147 O1206 1.970 . S
Li1147 O1207 1.956 1_554 S
C1148 C1150 1.348 . S
C1148 C1151 1.356 . S
C1148 O1204 1.325 . S
N1149 C1152 1.314 . S
N1149 C1153 1.279 . S
C1150 C1148 1.348 . S
C1150 C1152 1.353 . S
C1150 H1208 0.929 . S
C1151 C1148 1.356 . S
C1151 C1153 1.358 . S
C1151 H1209 0.930 . S
C1152 N1149 1.314 . S
C1152 C1150 1.353 . S
C1152 H1210 0.930 . S
C1153 N1149 1.279 . S
C1153 C1151 1.358 . S
C1153 H1211 0.930 . S
C1154 C1157 1.348 . S
C1154 C1158 1.356 . S
C1154 O1205 1.325 . S
C1155 N1156 1.279 . S
C1155 C1158 1.358 . S
C1155 H1212 0.930 . S
N1156 C1155 1.279 . S
N1156 C1159 1.314 . S
C1157 C1154 1.348 . S
C1157 C1159 1.353 . S
C1157 H1213 0.929 . S
C1158 C1154 1.356 . S
C1158 C1155 1.358 . S
C1158 H1214 0.930 . S
C1159 N1156 1.314 . S
C1159 C1157 1.353 . S
C1159 H1215 0.930 . S
C1160 N1161 1.314 . S
C1160 C1165 1.353 . S
C1160 H1166 0.930 . S
N1161 Li1144 1.990 . S
N1161 C1160 1.314 . S
N1161 C1163 1.279 . S
C1162 C1163 1.358 . S
C1162 C1164 1.356 . S
C1162 H1216 0.930 . S
C1163 N1161 1.279 . S
C1163 C1162 1.358 . S
C1163 H1167 0.930 . S
C1164 C1162 1.356 . S
C1164 C1165 1.348 . S
C1165 C1160 1.353 . S
C1165 C1164 1.348 . S
C1165 H1217 0.929 . S
H1166 C1160 0.930 . S
H1167 C1163 0.930 . S
C1168 N1169 1.314 1_556 S
C1168 C1170 1.353 . S
C1168 H1174 0.930 . S
N1169 Li1145 1.990 . S
N1169 C1168 1.314 1_554 S
N1169 C1172 1.279 . S
C1170 C1168 1.353 . S
C1170 C1173 1.348 1_556 S
C1170 H1218 0.929 . S
C1171 C1172 1.358 . S
C1171 C1173 1.356 . S
C1171 H1219 0.930 . S
C1172 N1169 1.279 . S
C1172 C1171 1.358 . S
C1172 H1175 0.930 . S
C1173 C1170 1.348 1_554 S
C1173 C1171 1.356 . S
H1174 C1168 0.930 . S
H1175 C1172 0.930 . S
C1176 C1178 1.348 . S
C1176 C1179 1.356 . S
C1176 O1206 1.325 . S
N1177 C1180 1.314 . S
N1177 C1181 1.279 . S
C1178 C1176 1.348 . S
C1178 C1180 1.353 . S
C1178 H1220 0.928 1_554 S
C1179 C1176 1.356 . S
C1179 C1181 1.358 . S
C1179 H1221 0.930 . S
C1180 N1177 1.314 . S
C1180 C1178 1.353 . S
C1180 H1222 0.930 . S
C1181 N1177 1.279 . S
C1181 C1179 1.358 . S
C1181 H1223 0.930 . S
C1182 C1183 1.348 . S
C1182 C1184 1.356 . S
C1182 O1207 1.325 . S
C1183 C1182 1.348 . S
C1183 C1185 1.353 . S
C1183 H1224 0.929 . S
C1184 C1182 1.356 . S
C1184 C1186 1.358 . S
C1184 H1225 0.930 . S
C1185 C1183 1.353 . S
C1185 N1187 1.314 . S
C1185 H1226 0.930 . S
C1186 C1184 1.358 . S
C1186 N1187 1.279 . S
C1186 H1227 0.930 . S
N1187 C1185 1.314 . S
N1187 C1186 1.279 . S
C1188 C1190 1.353 . S
C1188 N1191 1.314 . S
C1188 H1194 0.930 . S
C1189 N1191 1.279 . S
C1189 C1192 1.358 . S
C1189 H1195 0.930 . S
C1190 C1188 1.353 . S
C1190 C1193 1.348 . S
C1190 H1228 0.929 . S
N1191 Li1146 1.990 . S
N1191 C1188 1.314 . S
N1191 C1189 1.279 . S
C1192 C1189 1.358 . S
C1192 C1193 1.356 . S
C1192 H1229 0.930 . S
C1193 C1190 1.348 . S
C1193 C1192 1.356 . S
H1194 C1188 0.930 . S
H1195 C1189 0.930 . S
C1196 N1197 1.314 . S
C1196 C1198 1.353 . S
C1196 H1202 0.930 . S
N1197 Li1147 1.990 . S
N1197 C1196 1.314 . S
N1197 C1200 1.279 1_554 S
C1198 C1196 1.353 . S
C1198 C1201 1.358 . S
C1198 H1230 0.929 . S
C1199 C1200 1.358 . S
C1199 C1201 1.344 1_556 S
C1199 H1231 0.930 . S
C1200 N1197 1.279 1_556 S
C1200 C1199 1.358 . S
C1200 H1203 0.930 . S
C1201 C1198 1.358 . S
C1201 C1199 1.344 1_554 S
H1202 C1196 0.930 . S
H1203 C1200 0.930 . S
O1204 Li1144 1.956 . S
O1204 Li1145 1.970 . S
O1204 Li1146 1.961 1_554 S
O1204 C1148 1.325 . S
O1205 Li1144 1.970 . S
O1205 Li1145 1.956 . S
O1205 Li1147 1.961 . S
O1205 C1154 1.325 . S
O1206 Li1144 1.961 . S
O1206 Li1146 1.956 1_554 S
O1206 Li1147 1.970 . S
O1206 C1176 1.325 . S
O1207 Li1145 1.961 1_556 S
O1207 Li1146 1.970 . S
O1207 Li1147 1.956 1_556 S
O1207 C1182 1.325 . S
H1208 C1150 0.929 . S
H1209 C1151 0.930 . S
H1210 C1152 0.930 . S
H1211 C1153 0.930 . S
H1212 C1155 0.930 . S
H1213 C1157 0.929 . S
H1214 C1158 0.930 . S
H1215 C1159 0.930 . S
H1216 C1162 0.930 . S
H1217 C1165 0.929 . S
H1218 C1170 0.929 . S
H1219 C1171 0.930 . S
H1220 C1178 0.928 1_556 S
H1221 C1179 0.930 . S
H1222 C1180 0.930 . S
H1223 C1181 0.930 . S
H1224 C1183 0.929 . S
H1225 C1184 0.930 . S
H1226 C1185 0.930 . S
H1227 C1186 0.930 . S
H1228 C1190 0.929 . S
H1229 C1192 0.930 . S
H1230 C1198 0.929 . S
H1231 C1199 0.930 . S
Li1232 N1249 1.990 . S
Li1232 O1292 1.956 . S
Li1232 O1293 1.970 . S
Li1232 O1294 1.961 . S
Li1233 N1257 1.990 . S
Li1233 O1292 1.970 . S
Li1233 O1293 1.956 . S
Li1233 O1295 1.961 . S
Li1234 N1279 1.990 . S
Li1234 O1292 1.961 . S
Li1234 O1294 1.956 . S
Li1234 O1295 1.970 . S
Li1235 N1285 1.990 . S
Li1235 O1293 1.961 . S
Li1235 O1294 1.970 . S
Li1235 O1295 1.956 . S
C1236 C1238 1.348 . S
C1236 C1239 1.356 . S
C1236 O1292 1.325 . S
N1237 C1240 1.314 . S
N1237 C1241 1.279 . S
C1238 C1236 1.348 . S
C1238 C1240 1.353 . S
C1238 H1296 0.929 . S
C1239 C1236 1.356 . S
C1239 C1241 1.358 . S
C1239 H1297 0.930 . S
C1240 N1237 1.314 . S
C1240 C1238 1.353 . S
C1240 H1298 0.930 . S
C1241 N1237 1.279 . S
C1241 C1239 1.358 . S
C1241 H1299 0.930 . S
C1242 C1245 1.348 . S
C1242 C1246 1.356 . S
C1242 O1293 1.325 . S
C1243 N1244 1.279 . S
C1243 C1246 1.358 . S
C1243 H1300 0.930 . S
N1244 C1243 1.279 . S
N1244 C1247 1.314 . S
C1245 C1242 1.348 . S
C1245 C1247 1.353 . S
C1245 H1301 0.929 . S
C1246 C1242 1.356 . S
C1246 C1243 1.358 . S
C1246 H1302 0.930 . S
C1247 N1244 1.314 . S
C1247 C1245 1.353 . S
C1247 H1303 0.930 . S
C1248 N1249 1.314 . S
C1248 C1253 1.353 . S
C1248 H1254 0.930 . S
N1249 Li1232 1.990 . S
N1249 C1248 1.314 . S
N1249 C1251 1.279 . S
C1250 C1251 1.358 . S
C1250 C1252 1.356 . S
C1250 H1304 0.930 . S
C1251 N1249 1.279 . S
C1251 C1250 1.358 . S
C1251 H1255 0.930 . S
C1252 C1250 1.356 . S
C1252 C1253 1.348 . S
C1253 C1248 1.353 . S
C1253 C1252 1.348 . S
C1253 H1305 0.929 . S
H1254 C1248 0.930 . S
H1255 C1251 0.930 . S
C1256 N1257 1.314 . S
C1256 C1258 1.353 . S
C1256 H1262 0.930 . S
N1257 Li1233 1.990 . S
N1257 C1256 1.314 . S
N1257 C1260 1.279 . S
C1258 C1256 1.353 . S
C1258 C1261 1.348 . S
C1258 H1306 0.929 . S
C1259 C1260 1.358 . S
C1259 C1261 1.356 . S
C1259 H1307 0.930 . S
C1260 N1257 1.279 . S
C1260 C1259 1.358 . S
C1260 H1263 0.930 . S
C1261 C1258 1.348 . S
C1261 C1259 1.356 . S
H1262 C1256 0.930 . S
H1263 C1260 0.930 . S
C1264 C1266 1.348 . S
C1264 C1267 1.356 . S
C1264 O1294 1.325 . S
N1265 C1268 1.314 . S
N1265 C1269 1.279 . S
C1266 C1264 1.348 . S
C1266 C1268 1.353 . S
C1266 H1308 0.929 . S
C1267 C1264 1.356 . S
C1267 C1269 1.358 . S
C1267 H1309 0.930 . S
C1268 N1265 1.314 . S
C1268 C1266 1.353 . S
C1268 H1310 0.930 . S
C1269 N1265 1.279 . S
C1269 C1267 1.358 . S
C1269 H1311 0.930 . S
C1270 C1271 1.348 . S
C1270 C1272 1.356 . S
C1270 O1295 1.325 . S
C1271 C1270 1.348 . S
C1271 C1273 1.353 . S
C1271 H1312 0.929 . S
C1272 C1270 1.356 . S
C1272 C1274 1.358 . S
C1272 H1313 0.930 . S
C1273 C1271 1.353 . S
C1273 N1275 1.314 . S
C1273 H1314 0.930 . S
C1274 C1272 1.358 . S
C1274 N1275 1.279 . S
C1274 H1315 0.930 . S
N1275 C1273 1.314 . S
N1275 C1274 1.279 . S
C1276 C1278 1.353 . S
C1276 N1279 1.314 . S
C1276 H1282 0.930 . S
C1277 N1279 1.279 . S
C1277 C1280 1.358 . S
C1277 H1283 0.930 . S
C1278 C1276 1.353 . S
C1278 C1281 1.348 . S
C1278 H1316 0.929 . S
N1279 Li1234 1.990 . S
N1279 C1276 1.314 . S
N1279 C1277 1.279 . S
C1280 C1277 1.358 . S
C1280 C1281 1.356 . S
C1280 H1317 0.930 . S
C1281 C1278 1.348 . S
C1281 C1280 1.356 . S
H1282 C1276 0.930 . S
H1283 C1277 0.930 . S
C1284 N1285 1.314 . S
C1284 C1286 1.353 . S
C1284 H1290 0.930 . S
N1285 Li1235 1.990 . S
N1285 C1284 1.314 . S
N1285 C1288 1.279 . S
C1286 C1284 1.353 . S
C1286 C1289 1.348 . S
C1286 H1318 0.929 . S
C1287 C1288 1.358 . S
C1287 C1289 1.356 . S
C1287 H1319 0.930 . S
C1288 N1285 1.279 . S
C1288 C1287 1.358 . S
C1288 H1291 0.930 . S
C1289 C1286 1.348 . S
C1289 C1287 1.356 . S
H1290 C1284 0.930 . S
H1291 C1288 0.930 . S
O1292 Li1232 1.956 . S
O1292 Li1233 1.970 . S
O1292 Li1234 1.961 . S
O1292 C1236 1.325 . S
O1293 Li1232 1.970 . S
O1293 Li1233 1.956 . S
O1293 Li1235 1.961 . S
O1293 C1242 1.325 . S
O1294 Li1232 1.961 . S
O1294 Li1234 1.956 . S
O1294 Li1235 1.970 . S
O1294 C1264 1.325 . S
O1295 Li1233 1.961 . S
O1295 Li1234 1.970 . S
O1295 Li1235 1.956 . S
O1295 C1270 1.325 . S
H1296 C1238 0.929 . S
H1297 C1239 0.930 . S
H1298 C1240 0.930 . S
H1299 C1241 0.930 . S
H1300 C1243 0.930 . S
H1301 C1245 0.929 . S
H1302 C1246 0.930 . S
H1303 C1247 0.930 . S
H1304 C1250 0.930 . S
H1305 C1253 0.929 . S
H1306 C1258 0.929 . S
H1307 C1259 0.930 . S
H1308 C1266 0.929 . S
H1309 C1267 0.930 . S
H1310 C1268 0.930 . S
H1311 C1269 0.930 . S
H1312 C1271 0.929 . S
H1313 C1272 0.930 . S
H1314 C1273 0.930 . S
H1315 C1274 0.930 . S
H1316 C1278 0.929 . S
H1317 C1280 0.930 . S
H1318 C1286 0.929 . S
H1319 C1287 0.930 . S
Li1320 N1337 1.990 . S
Li1320 O1380 1.956 . S
Li1320 O1381 1.970 . S
Li1320 O1382 1.961 . S
Li1321 N1345 1.990 . S
Li1321 O1380 1.970 . S
Li1321 O1381 1.956 . S
Li1321 O1383 1.961 . S
Li1322 N1367 1.990 . S
Li1322 O1380 1.961 . S
Li1322 O1382 1.956 . S
Li1322 O1383 1.970 . S
Li1323 N1373 1.990 . S
Li1323 O1381 1.961 . S
Li1323 O1382 1.970 . S
Li1323 O1383 1.956 . S
C1324 C1326 1.348 . S
C1324 C1327 1.356 . S
C1324 O1380 1.325 . S
N1325 C1328 1.314 . S
N1325 C1329 1.279 . S
C1326 C1324 1.348 . S
C1326 C1328 1.353 . S
C1326 H1384 0.929 . S
C1327 C1324 1.356 . S
C1327 C1329 1.358 . S
C1327 H1385 0.930 . S
C1328 N1325 1.314 . S
C1328 C1326 1.353 . S
C1328 H1386 0.930 . S
C1329 N1325 1.279 . S
C1329 C1327 1.358 . S
C1329 H1387 0.930 . S
C1330 C1333 1.348 . S
C1330 C1334 1.356 . S
C1330 O1381 1.325 . S
C1331 N1332 1.279 . S
C1331 C1334 1.358 . S
C1331 H1388 0.930 . S
N1332 C1331 1.279 . S
N1332 C1335 1.314 . S
C1333 C1330 1.348 . S
C1333 C1335 1.353 . S
C1333 H1389 0.929 . S
C1334 C1330 1.356 . S
C1334 C1331 1.358 . S
C1334 H1390 0.930 . S
C1335 N1332 1.314 . S
C1335 C1333 1.353 . S
C1335 H1391 0.930 . S
C1336 N1337 1.314 . S
C1336 C1341 1.353 . S
C1336 H1342 0.930 . S
N1337 Li1320 1.990 . S
N1337 C1336 1.314 . S
N1337 C1339 1.279 . S
C1338 C1339 1.358 . S
C1338 C1340 1.356 . S
C1338 H1392 0.930 . S
C1339 N1337 1.279 . S
C1339 C1338 1.358 . S
C1339 H1343 0.930 . S
C1340 C1338 1.356 . S
C1340 C1341 1.348 . S
C1341 C1336 1.353 . S
C1341 C1340 1.348 . S
C1341 H1393 0.929 . S
H1342 C1336 0.930 . S
H1343 C1339 0.930 . S
C1344 N1345 1.314 . S
C1344 C1346 1.353 . S
C1344 H1350 0.930 . S
N1345 Li1321 1.990 . S
N1345 C1344 1.314 . S
N1345 C1348 1.279 . S
C1346 C1344 1.353 . S
C1346 C1349 1.348 . S
C1346 H1394 0.929 . S
C1347 C1348 1.358 . S
C1347 C1349 1.356 . S
C1347 H1395 0.930 . S
C1348 N1345 1.279 . S
C1348 C1347 1.358 . S
C1348 H1351 0.930 . S
C1349 C1346 1.348 . S
C1349 C1347 1.356 . S
H1350 C1344 0.930 . S
H1351 C1348 0.930 . S
C1352 C1354 1.348 . S
C1352 C1355 1.356 . S
C1352 O1382 1.325 . S
N1353 C1356 1.314 . S
N1353 C1357 1.279 . S
C1354 C1352 1.348 . S
C1354 C1356 1.353 . S
C1354 H1396 0.929 . S
C1355 C1352 1.356 . S
C1355 C1357 1.358 . S
C1355 H1397 0.930 . S
C1356 N1353 1.314 . S
C1356 C1354 1.353 . S
C1356 H1398 0.930 . S
C1357 N1353 1.279 . S
C1357 C1355 1.358 . S
C1357 H1399 0.930 . S
C1358 C1359 1.348 . S
C1358 C1360 1.356 . S
C1358 O1383 1.325 . S
C1359 C1358 1.348 . S
C1359 C1361 1.353 . S
C1359 H1400 0.929 . S
C1360 C1358 1.356 . S
C1360 C1362 1.358 . S
C1360 H1401 0.930 . S
C1361 C1359 1.353 . S
C1361 N1363 1.314 . S
C1361 H1402 0.930 . S
C1362 C1360 1.358 . S
C1362 N1363 1.279 . S
C1362 H1403 0.930 . S
N1363 C1361 1.314 . S
N1363 C1362 1.279 . S
C1364 C1366 1.353 . S
C1364 N1367 1.314 . S
C1364 H1370 0.930 . S
C1365 N1367 1.279 . S
C1365 C1368 1.358 . S
C1365 H1371 0.930 . S
C1366 C1364 1.353 . S
C1366 C1369 1.348 . S
C1366 H1404 0.929 . S
N1367 Li1322 1.990 . S
N1367 C1364 1.314 . S
N1367 C1365 1.279 . S
C1368 C1365 1.358 . S
C1368 C1369 1.356 . S
C1368 H1405 0.930 . S
C1369 C1366 1.348 . S
C1369 C1368 1.356 . S
H1370 C1364 0.930 . S
H1371 C1365 0.930 . S
C1372 N1373 1.314 . S
C1372 C1374 1.353 . S
C1372 H1378 0.930 . S
N1373 Li1323 1.990 . S
N1373 C1372 1.314 . S
N1373 C1376 1.279 . S
C1374 C1372 1.353 . S
C1374 C1377 1.348 . S
C1374 H1406 0.929 . S
C1375 C1376 1.358 . S
C1375 C1377 1.356 . S
C1375 H1407 0.930 . S
C1376 N1373 1.279 . S
C1376 C1375 1.358 . S
C1376 H1379 0.930 . S
C1377 C1374 1.348 . S
C1377 C1375 1.356 . S
H1378 C1372 0.930 . S
H1379 C1376 0.930 . S
O1380 Li1320 1.956 . S
O1380 Li1321 1.970 . S
O1380 Li1322 1.961 . S
O1380 C1324 1.325 . S
O1381 Li1320 1.970 . S
O1381 Li1321 1.956 . S
O1381 Li1323 1.961 . S
O1381 C1330 1.325 . S
O1382 Li1320 1.961 . S
O1382 Li1322 1.956 . S
O1382 Li1323 1.970 . S
O1382 C1352 1.325 . S
O1383 Li1321 1.961 . S
O1383 Li1322 1.970 . S
O1383 Li1323 1.956 . S
O1383 C1358 1.325 . S
H1384 C1326 0.929 . S
H1385 C1327 0.930 . S
H1386 C1328 0.930 . S
H1387 C1329 0.930 . S
H1388 C1331 0.930 . S
H1389 C1333 0.929 . S
H1390 C1334 0.930 . S
H1391 C1335 0.930 . S
H1392 C1338 0.930 . S
H1393 C1341 0.929 . S
H1394 C1346 0.929 . S
H1395 C1347 0.930 . S
H1396 C1354 0.929 . S
H1397 C1355 0.930 . S
H1398 C1356 0.930 . S
H1399 C1357 0.930 . S
H1400 C1359 0.929 . S
H1401 C1360 0.930 . S
H1402 C1361 0.930 . S
H1403 C1362 0.930 . S
H1404 C1366 0.929 . S
H1405 C1368 0.930 . S
H1406 C1374 0.929 . S
H1407 C1375 0.930 . S
Li1408 N1425 1.990 . S
Li1408 O1468 1.956 . S
Li1408 O1469 1.970 . S
Li1408 O1470 1.961 . S
Li1409 N1433 1.990 . S
Li1409 O1468 1.970 . S
Li1409 O1469 1.956 . S
Li1409 O1471 1.961 . S
Li1410 N1455 1.990 . S
Li1410 O1468 1.961 . S
Li1410 O1470 1.956 . S
Li1410 O1471 1.970 . S
Li1411 N1461 1.990 . S
Li1411 O1469 1.961 . S
Li1411 O1470 1.970 . S
Li1411 O1471 1.956 . S
C1412 C1414 1.348 . S
C1412 C1415 1.356 . S
C1412 O1468 1.325 . S
N1413 C1416 1.314 . S
N1413 C1417 1.279 1_565 S
C1414 C1412 1.348 . S
C1414 C1416 1.353 1_545 S
C1414 H1472 0.930 . S
C1415 C1412 1.356 . S
C1415 C1417 1.358 . S
C1415 H1473 0.930 . S
C1416 N1413 1.314 . S
C1416 C1414 1.353 1_565 S
C1416 H1474 0.930 . S
C1417 N1413 1.279 1_545 S
C1417 C1415 1.358 . S
C1417 H1475 0.930 1_655 S
C1418 C1421 1.348 . S
C1418 C1422 1.356 . S
C1418 O1469 1.325 . S
C1419 N1420 1.279 . S
C1419 C1422 1.358 . S
C1419 H1476 0.930 . S
N1420 C1419 1.279 . S
N1420 C1423 1.314 . S
C1421 C1418 1.348 . S
C1421 C1423 1.353 . S
C1421 H1477 0.929 . S
C1422 C1418 1.356 . S
C1422 C1419 1.358 . S
C1422 H1478 0.930 . S
C1423 N1420 1.314 . S
C1423 C1421 1.353 . S
C1423 H1479 0.930 . S
C1424 N1425 1.314 . S
C1424 C1429 1.353 . S
C1424 H1430 0.930 . S
N1425 Li1408 1.990 . S
N1425 C1424 1.314 . S
N1425 C1427 1.279 . S
C1426 C1427 1.358 . S
C1426 C1428 1.356 . S
C1426 H1480 0.930 . S
C1427 N1425 1.279 . S
C1427 C1426 1.358 . S
C1427 H1431 0.930 . S
C1428 C1426 1.356 . S
C1428 C1429 1.348 . S
C1429 C1424 1.353 . S
C1429 C1428 1.348 . S
C1429 H1481 0.929 . S
H1430 C1424 0.930 . S
H1431 C1427 0.930 . S
C1432 N1433 1.314 1_565 S
C1432 C1434 1.353 . S
C1432 H1438 0.930 . S
N1433 Li1409 1.990 . S
N1433 C1432 1.314 1_545 S
N1433 C1436 1.294 . S
C1434 C1432 1.353 . S
C1434 C1437 1.348 . S
C1434 H1482 0.929 . S
C1435 C1436 1.330 1_565 S
C1435 C1437 1.356 . S
C1435 H1483 0.930 . S
C1436 N1433 1.294 . S
C1436 C1435 1.330 1_545 S
C1436 H1439 0.946 . S
C1437 C1434 1.348 . S
C1437 C1435 1.356 . S
H1438 C1432 0.930 . S
H1439 C1436 0.946 . S
C1440 C1442 1.348 . S
C1440 C1443 1.356 . S
C1440 O1470 1.325 . S
N1441 C1444 1.314 . S
N1441 C1445 1.261 1_655 S
C1442 C1440 1.348 . S
C1442 C1444 1.353 . S
C1442 H1484 0.929 . S
C1443 C1440 1.356 . S
C1443 C1445 1.339 1_655 S
C1443 H1485 0.930 . S
C1444 N1441 1.314 . S
C1444 C1442 1.353 . S
C1444 H1486 0.930 . S
C1445 N1441 1.261 1_455 S
C1445 C1443 1.339 1_455 S
C1445 H1487 0.974 . S
C1446 C1447 1.348 . S
C1446 C1448 1.356 . S
C1446 O1471 1.325 . S
C1447 C1446 1.348 . S
C1447 C1449 1.353 . S
C1447 H1488 0.929 . S
C1448 C1446 1.356 . S
C1448 C1450 1.358 . S
C1448 H1489 0.930 . S
C1449 C1447 1.353 . S
C1449 N1451 1.314 . S
C1449 H1490 0.930 . S
C1450 C1448 1.358 . S
C1450 N1451 1.279 . S
C1450 H1491 0.930 . S
N1451 C1449 1.314 . S
N1451 C1450 1.279 . S
C1452 C1454 1.353 . S
C1452 N1455 1.314 . S
C1452 H1458 0.930 . S
C1453 N1455 1.279 . S
C1453 C1456 1.358 . S
C1453 H1459 0.930 . S
C1454 C1452 1.353 . S
C1454 C1457 1.348 . S
C1454 H1492 0.929 . S
N1455 Li1410 1.990 . S
N1455 C1452 1.314 . S
N1455 C1453 1.279 . S
C1456 C1453 1.358 . S
C1456 C1457 1.356 . S
C1456 H1493 0.930 . S
C1457 C1454 1.348 . S
C1457 C1456 1.356 . S
H1458 C1452 0.930 . S
H1459 C1453 0.930 . S
C1460 N1461 1.314 . S
C1460 C1462 1.353 . S
C1460 H1466 0.930 . S
N1461 Li1411 1.990 . S
N1461 C1460 1.314 . S
N1461 C1464 1.279 . S
C1462 C1460 1.353 . S
C1462 C1465 1.348 . S
C1462 H1494 0.929 . S
C1463 C1464 1.358 . S
C1463 C1465 1.356 . S
C1463 H1495 0.930 . S
C1464 N1461 1.279 . S
C1464 C1463 1.358 . S
C1464 H1467 0.930 . S
C1465 C1462 1.348 . S
C1465 C1463 1.356 . S
H1466 C1460 0.930 . S
H1467 C1464 0.930 . S
O1468 Li1408 1.956 . S
O1468 Li1409 1.970 . S
O1468 Li1410 1.961 . S
O1468 C1412 1.325 . S
O1469 Li1408 1.970 . S
O1469 Li1409 1.956 . S
O1469 Li1411 1.961 . S
O1469 C1418 1.325 . S
O1470 Li1408 1.961 . S
O1470 Li1410 1.956 . S
O1470 Li1411 1.970 . S
O1470 C1440 1.325 . S
O1471 Li1409 1.961 . S
O1471 Li1410 1.970 . S
O1471 Li1411 1.956 . S
O1471 C1446 1.325 . S
H1472 C1414 0.930 . S
H1473 C1415 0.930 . S
H1474 C1416 0.930 . S
H1475 C1417 0.930 1_455 S
H1476 C1419 0.930 . S
H1477 C1421 0.929 . S
H1478 C1422 0.930 . S
H1479 C1423 0.930 . S
H1480 C1426 0.930 . S
H1481 C1429 0.929 . S
H1482 C1434 0.929 . S
H1483 C1435 0.930 . S
H1484 C1442 0.929 . S
H1485 C1443 0.930 . S
H1486 C1444 0.930 . S
H1487 C1445 0.974 . S
H1488 C1447 0.929 . S
H1489 C1448 0.930 . S
H1490 C1449 0.930 . S
H1491 C1450 0.930 . S
H1492 C1454 0.929 . S
H1493 C1456 0.930 . S
H1494 C1462 0.929 . S
H1495 C1463 0.930 . S
Li1496 N1513 1.990 . S
Li1496 O1556 1.956 . S
Li1496 O1557 1.970 . S
Li1496 O1558 1.961 . S
Li1497 N1521 1.990 . S
Li1497 O1556 1.970 . S
Li1497 O1557 1.956 . S
Li1497 O1559 1.961 . S
Li1498 N1543 1.990 . S
Li1498 O1556 1.961 . S
Li1498 O1558 1.956 . S
Li1498 O1559 1.970 . S
Li1499 N1549 1.990 . S
Li1499 O1557 1.961 . S
Li1499 O1558 1.970 . S
Li1499 O1559 1.956 . S
C1500 C1502 1.348 . S
C1500 C1503 1.356 . S
C1500 O1556 1.325 . S
N1501 C1504 1.314 . S
N1501 C1505 1.279 . S
C1502 C1500 1.348 . S
C1502 C1504 1.353 . S
C1502 H1560 0.929 . S
C1503 C1500 1.356 . S
C1503 C1505 1.358 . S
C1503 H1561 0.930 . S
C1504 N1501 1.314 . S
C1504 C1502 1.353 . S
C1504 H1562 0.930 . S
C1505 N1501 1.279 . S
C1505 C1503 1.358 . S
C1505 H1563 0.930 . S
C1506 C1509 1.348 . S
C1506 C1510 1.356 . S
C1506 O1557 1.325 . S
C1507 N1508 1.279 . S
C1507 C1510 1.358 . S
C1507 H1564 0.930 . S
N1508 C1507 1.279 . S
N1508 C1511 1.314 . S
C1509 C1506 1.348 . S
C1509 C1511 1.353 . S
C1509 H1565 0.929 . S
C1510 C1506 1.356 . S
C1510 C1507 1.358 . S
C1510 H1566 0.930 . S
C1511 N1508 1.314 . S
C1511 C1509 1.353 . S
C1511 H1567 0.930 . S
C1512 N1513 1.314 . S
C1512 C1517 1.353 . S
C1512 H1518 0.930 . S
N1513 Li1496 1.990 . S
N1513 C1512 1.314 . S
N1513 C1515 1.279 . S
C1514 C1515 1.358 . S
C1514 C1516 1.356 . S
C1514 H1568 0.930 . S
C1515 N1513 1.279 . S
C1515 C1514 1.358 . S
C1515 H1519 0.930 . S
C1516 C1514 1.356 . S
C1516 C1517 1.348 . S
C1517 C1512 1.353 . S
C1517 C1516 1.348 . S
C1517 H1569 0.929 . S
H1518 C1512 0.930 . S
H1519 C1515 0.930 . S
C1520 N1521 1.314 . S
C1520 C1522 1.353 . S
C1520 H1526 0.930 . S
N1521 Li1497 1.990 . S
N1521 C1520 1.314 . S
N1521 C1524 1.279 . S
C1522 C1520 1.353 . S
C1522 C1525 1.348 . S
C1522 H1570 0.929 . S
C1523 C1524 1.358 . S
C1523 C1525 1.356 . S
C1523 H1571 0.930 . S
C1524 N1521 1.279 . S
C1524 C1523 1.358 . S
C1524 H1527 0.930 . S
C1525 C1522 1.348 . S
C1525 C1523 1.356 . S
H1526 C1520 0.930 . S
H1527 C1524 0.930 . S
C1528 C1530 1.348 . S
C1528 C1531 1.356 . S
C1528 O1558 1.325 . S
N1529 C1532 1.314 . S
N1529 C1533 1.279 . S
C1530 C1528 1.348 . S
C1530 C1532 1.353 . S
C1530 H1572 0.929 . S
C1531 C1528 1.356 . S
C1531 C1533 1.358 . S
C1531 H1573 0.930 . S
C1532 N1529 1.314 . S
C1532 C1530 1.353 . S
C1532 H1574 0.930 . S
C1533 N1529 1.279 . S
C1533 C1531 1.358 . S
C1533 H1575 0.930 . S
C1534 C1535 1.348 . S
C1534 C1536 1.356 . S
C1534 O1559 1.325 . S
C1535 C1534 1.348 . S
C1535 C1537 1.353 . S
C1535 H1576 0.929 . S
C1536 C1534 1.356 . S
C1536 C1538 1.358 . S
C1536 H1577 0.930 . S
C1537 C1535 1.353 . S
C1537 N1539 1.314 . S
C1537 H1578 0.930 . S
C1538 C1536 1.358 . S
C1538 N1539 1.279 . S
C1538 H1579 0.930 . S
N1539 C1537 1.314 . S
N1539 C1538 1.279 . S
C1540 C1542 1.353 . S
C1540 N1543 1.314 . S
C1540 H1546 0.930 . S
C1541 N1543 1.279 . S
C1541 C1544 1.358 . S
C1541 H1547 0.930 . S
C1542 C1540 1.353 . S
C1542 C1545 1.348 . S
C1542 H1580 0.929 . S
N1543 Li1498 1.990 . S
N1543 C1540 1.314 . S
N1543 C1541 1.279 . S
C1544 C1541 1.358 . S
C1544 C1545 1.356 . S
C1544 H1581 0.930 . S
C1545 C1542 1.348 . S
C1545 C1544 1.356 . S
H1546 C1540 0.930 . S
H1547 C1541 0.930 . S
C1548 N1549 1.314 . S
C1548 C1550 1.353 . S
C1548 H1554 0.930 . S
N1549 Li1499 1.990 . S
N1549 C1548 1.314 . S
N1549 C1552 1.279 . S
C1550 C1548 1.353 . S
C1550 C1553 1.348 . S
C1550 H1582 0.929 . S
C1551 C1552 1.358 . S
C1551 C1553 1.356 . S
C1551 H1583 0.930 . S
C1552 N1549 1.279 . S
C1552 C1551 1.358 . S
C1552 H1555 0.930 . S
C1553 C1550 1.348 . S
C1553 C1551 1.356 . S
H1554 C1548 0.930 . S
H1555 C1552 0.930 . S
O1556 Li1496 1.956 . S
O1556 Li1497 1.970 . S
O1556 Li1498 1.961 . S
O1556 C1500 1.325 . S
O1557 Li1496 1.970 . S
O1557 Li1497 1.956 . S
O1557 Li1499 1.961 . S
O1557 C1506 1.325 . S
O1558 Li1496 1.961 . S
O1558 Li1498 1.956 . S
O1558 Li1499 1.970 . S
O1558 C1528 1.325 . S
O1559 Li1497 1.961 . S
O1559 Li1498 1.970 . S
O1559 Li1499 1.956 . S
O1559 C1534 1.325 . S
H1560 C1502 0.929 . S
H1561 C1503 0.930 . S
H1562 C1504 0.930 . S
H1563 C1505 0.930 . S
H1564 C1507 0.930 . S
H1565 C1509 0.929 . S
H1566 C1510 0.930 . S
H1567 C1511 0.930 . S
H1568 C1514 0.930 . S
H1569 C1517 0.929 . S
H1570 C1522 0.929 . S
H1571 C1523 0.930 . S
H1572 C1530 0.929 . S
H1573 C1531 0.930 . S
H1574 C1532 0.930 . S
H1575 C1533 0.930 . S
H1576 C1535 0.929 . S
H1577 C1536 0.930 . S
H1578 C1537 0.930 . S
H1579 C1538 0.930 . S
H1580 C1542 0.929 . S
H1581 C1544 0.930 . S
H1582 C1550 0.929 . S
H1583 C1551 0.930 . S
Li1584 N1601 1.990 . S
Li1584 O1644 1.956 . S
Li1584 O1645 1.970 . S
Li1584 O1646 1.961 . S
Li1585 N1609 1.990 . S
Li1585 O1644 1.970 . S
Li1585 O1645 1.956 . S
Li1585 O1647 1.961 . S
Li1586 N1631 1.990 . S
Li1586 O1644 1.961 . S
Li1586 O1646 1.956 . S
Li1586 O1647 1.970 . S
Li1587 N1637 1.990 . S
Li1587 O1645 1.961 . S
Li1587 O1646 1.970 . S
Li1587 O1647 1.956 . S
C1588 C1590 1.348 . S
C1588 C1591 1.356 . S
C1588 O1644 1.325 . S
N1589 C1592 1.314 . S
N1589 C1593 1.279 . S
C1590 C1588 1.348 . S
C1590 C1592 1.353 . S
C1590 H1648 0.929 . S
C1591 C1588 1.356 . S
C1591 C1593 1.358 . S
C1591 H1649 0.930 . S
C1592 N1589 1.314 . S
C1592 C1590 1.353 . S
C1592 H1650 0.930 . S
C1593 N1589 1.279 . S
C1593 C1591 1.358 . S
C1593 H1651 0.930 . S
C1594 C1597 1.348 . S
C1594 C1598 1.356 . S
C1594 O1645 1.325 . S
C1595 N1596 1.279 . S
C1595 C1598 1.358 . S
C1595 H1652 0.930 . S
N1596 C1595 1.279 . S
N1596 C1599 1.314 . S
C1597 C1594 1.348 . S
C1597 C1599 1.353 . S
C1597 H1653 0.929 . S
C1598 C1594 1.356 . S
C1598 C1595 1.358 . S
C1598 H1654 0.930 . S
C1599 N1596 1.314 . S
C1599 C1597 1.353 . S
C1599 H1655 0.930 . S
C1600 N1601 1.314 . S
C1600 C1605 1.353 . S
C1600 H1606 0.930 . S
N1601 Li1584 1.990 . S
N1601 C1600 1.314 . S
N1601 C1603 1.279 . S
C1602 C1603 1.358 . S
C1602 C1604 1.356 . S
C1602 H1656 0.930 . S
C1603 N1601 1.279 . S
C1603 C1602 1.358 . S
C1603 H1607 0.930 . S
C1604 C1602 1.356 . S
C1604 C1605 1.348 . S
C1605 C1600 1.353 . S
C1605 C1604 1.348 . S
C1605 H1657 0.929 . S
H1606 C1600 0.930 . S
H1607 C1603 0.930 . S
C1608 N1609 1.314 . S
C1608 C1610 1.353 . S
C1608 H1614 0.930 . S
N1609 Li1585 1.990 . S
N1609 C1608 1.314 . S
N1609 C1612 1.279 . S
C1610 C1608 1.353 . S
C1610 C1613 1.348 . S
C1610 H1658 0.929 . S
C1611 C1612 1.358 . S
C1611 C1613 1.356 . S
C1611 H1659 0.930 . S
C1612 N1609 1.279 . S
C1612 C1611 1.358 . S
C1612 H1615 0.930 . S
C1613 C1610 1.348 . S
C1613 C1611 1.356 . S
H1614 C1608 0.930 . S
H1615 C1612 0.930 . S
C1616 C1618 1.348 . S
C1616 C1619 1.356 . S
C1616 O1646 1.325 . S
N1617 C1620 1.314 . S
N1617 C1621 1.279 . S
C1618 C1616 1.348 . S
C1618 C1620 1.353 . S
C1618 H1660 0.929 . S
C1619 C1616 1.356 . S
C1619 C1621 1.358 . S
C1619 H1661 0.930 . S
C1620 N1617 1.314 . S
C1620 C1618 1.353 . S
C1620 H1662 0.930 . S
C1621 N1617 1.279 . S
C1621 C1619 1.358 . S
C1621 H1663 0.930 . S
C1622 C1623 1.348 . S
C1622 C1624 1.356 . S
C1622 O1647 1.325 . S
C1623 C1622 1.348 . S
C1623 C1625 1.353 . S
C1623 H1664 0.929 . S
C1624 C1622 1.356 . S
C1624 C1626 1.358 . S
C1624 H1665 0.930 . S
C1625 C1623 1.353 . S
C1625 N1627 1.314 . S
C1625 H1666 0.930 . S
C1626 C1624 1.358 . S
C1626 N1627 1.279 . S
C1626 H1667 0.930 . S
N1627 C1625 1.314 . S
N1627 C1626 1.279 . S
C1628 C1630 1.353 . S
C1628 N1631 1.314 . S
C1628 H1634 0.930 . S
C1629 N1631 1.279 . S
C1629 C1632 1.358 . S
C1629 H1635 0.930 . S
C1630 C1628 1.353 . S
C1630 C1633 1.348 . S
C1630 H1668 0.929 . S
N1631 Li1586 1.990 . S
N1631 C1628 1.314 . S
N1631 C1629 1.279 . S
C1632 C1629 1.358 . S
C1632 C1633 1.356 . S
C1632 H1669 0.930 . S
C1633 C1630 1.348 . S
C1633 C1632 1.356 . S
H1634 C1628 0.930 . S
H1635 C1629 0.930 . S
C1636 N1637 1.314 . S
C1636 C1638 1.353 . S
C1636 H1642 0.930 . S
N1637 Li1587 1.990 . S
N1637 C1636 1.314 . S
N1637 C1640 1.279 . S
C1638 C1636 1.353 . S
C1638 C1641 1.348 . S
C1638 H1670 0.929 . S
C1639 C1640 1.358 . S
C1639 C1641 1.356 . S
C1639 H1671 0.930 . S
C1640 N1637 1.279 . S
C1640 C1639 1.358 . S
C1640 H1643 0.930 . S
C1641 C1638 1.348 . S
C1641 C1639 1.356 . S
H1642 C1636 0.930 . S
H1643 C1640 0.930 . S
O1644 Li1584 1.956 . S
O1644 Li1585 1.970 . S
O1644 Li1586 1.961 . S
O1644 C1588 1.325 . S
O1645 Li1584 1.970 . S
O1645 Li1585 1.956 . S
O1645 Li1587 1.961 . S
O1645 C1594 1.325 . S
O1646 Li1584 1.961 . S
O1646 Li1586 1.956 . S
O1646 Li1587 1.970 . S
O1646 C1616 1.325 . S
O1647 Li1585 1.961 . S
O1647 Li1586 1.970 . S
O1647 Li1587 1.956 . S
O1647 C1622 1.325 . S
H1648 C1590 0.929 . S
H1649 C1591 0.930 . S
H1650 C1592 0.930 . S
H1651 C1593 0.930 . S
H1652 C1595 0.930 . S
H1653 C1597 0.929 . S
H1654 C1598 0.930 . S
H1655 C1599 0.930 . S
H1656 C1602 0.930 . S
H1657 C1605 0.929 . S
H1658 C1610 0.929 . S
H1659 C1611 0.930 . S
H1660 C1618 0.929 . S
H1661 C1619 0.930 . S
H1662 C1620 0.930 . S
H1663 C1621 0.930 . S
H1664 C1623 0.929 . S
H1665 C1624 0.930 . S
H1666 C1625 0.930 . S
H1667 C1626 0.930 . S
H1668 C1630 0.929 . S
H1669 C1632 0.930 . S
H1670 C1638 0.929 . S
H1671 C1639 0.930 . S
Li1672 N1689 1.990 . S
Li1672 O1732 1.956 . S
Li1672 O1733 1.970 . S
Li1672 O1734 1.961 . S
Li1673 N1697 1.990 . S
Li1673 O1732 1.970 . S
Li1673 O1733 1.956 . S
Li1673 O1735 1.961 . S
Li1674 N1719 1.990 . S
Li1674 O1732 1.961 . S
Li1674 O1734 1.956 . S
Li1674 O1735 1.970 . S
Li1675 N1725 1.990 . S
Li1675 O1733 1.961 . S
Li1675 O1734 1.970 . S
Li1675 O1735 1.956 . S
C1676 C1678 1.348 . S
C1676 C1679 1.356 . S
C1676 O1732 1.325 . S
N1677 C1680 1.314 . S
N1677 C1681 1.279 . S
C1678 C1676 1.348 . S
C1678 C1680 1.353 . S
C1678 H1736 0.929 . S
C1679 C1676 1.356 . S
C1679 C1681 1.358 . S
C1679 H1737 0.930 . S
C1680 N1677 1.314 . S
C1680 C1678 1.353 . S
C1680 H1738 0.930 . S
C1681 N1677 1.279 . S
C1681 C1679 1.358 . S
C1681 H1739 0.930 . S
C1682 C1685 1.348 . S
C1682 C1686 1.356 . S
C1682 O1733 1.325 . S
C1683 N1684 1.279 . S
C1683 C1686 1.358 . S
C1683 H1740 0.930 . S
N1684 C1683 1.279 . S
N1684 C1687 1.314 . S
C1685 C1682 1.348 . S
C1685 C1687 1.353 . S
C1685 H1741 0.929 . S
C1686 C1682 1.356 . S
C1686 C1683 1.358 . S
C1686 H1742 0.930 . S
C1687 N1684 1.314 . S
C1687 C1685 1.353 . S
C1687 H1743 0.930 . S
C1688 N1689 1.314 . S
C1688 C1693 1.353 . S
C1688 H1694 0.930 . S
N1689 Li1672 1.990 . S
N1689 C1688 1.314 . S
N1689 C1691 1.279 . S
C1690 C1691 1.358 . S
C1690 C1692 1.356 . S
C1690 H1744 0.930 . S
C1691 N1689 1.279 . S
C1691 C1690 1.358 . S
C1691 H1695 0.930 . S
C1692 C1690 1.356 . S
C1692 C1693 1.348 . S
C1693 C1688 1.353 . S
C1693 C1692 1.348 . S
C1693 H1745 0.929 . S
H1694 C1688 0.930 . S
H1695 C1691 0.930 . S
C1696 N1697 1.314 . S
C1696 C1698 1.353 . S
C1696 H1702 0.930 . S
N1697 Li1673 1.990 . S
N1697 C1696 1.314 . S
N1697 C1700 1.279 . S
C1698 C1696 1.353 . S
C1698 C1701 1.348 . S
C1698 H1746 0.929 . S
C1699 C1700 1.358 . S
C1699 C1701 1.356 . S
C1699 H1747 0.930 . S
C1700 N1697 1.279 . S
C1700 C1699 1.358 . S
C1700 H1703 0.930 . S
C1701 C1698 1.348 . S
C1701 C1699 1.356 . S
H1702 C1696 0.930 . S
H1703 C1700 0.930 . S
C1704 C1706 1.348 1_545 S
C1704 C1707 1.356 . S
C1704 O1734 1.325 . S
N1705 C1708 1.314 . S
N1705 C1709 1.279 . S
C1706 C1704 1.348 1_565 S
C1706 C1708 1.353 . S
C1706 H1748 0.929 . S
C1707 C1704 1.356 . S
C1707 C1709 1.358 1_545 S
C1707 H1749 0.930 . S
C1708 N1705 1.314 . S
C1708 C1706 1.353 . S
C1708 H1750 0.930 . S
C1709 N1705 1.279 . S
C1709 C1707 1.358 1_565 S
C1709 H1751 0.930 . S
C1710 C1711 1.348 . S
C1710 C1712 1.356 . S
C1710 O1735 1.325 . S
C1711 C1710 1.348 . S
C1711 C1713 1.353 . S
C1711 H1752 0.929 . S
C1712 C1710 1.356 . S
C1712 C1714 1.358 . S
C1712 H1753 0.930 . S
C1713 C1711 1.353 . S
C1713 N1715 1.314 . S
C1713 H1754 0.930 . S
C1714 C1712 1.358 . S
C1714 N1715 1.279 . S
C1714 H1755 0.930 . S
N1715 C1713 1.314 . S
N1715 C1714 1.279 . S
C1716 C1718 1.353 . S
C1716 N1719 1.314 . S
C1716 H1722 0.930 . S
C1717 N1719 1.279 . S
C1717 C1720 1.358 . S
C1717 H1723 0.930 . S
C1718 C1716 1.353 . S
C1718 C1721 1.348 . S
C1718 H1756 0.929 . S
N1719 Li1674 1.990 . S
N1719 C1716 1.314 . S
N1719 C1717 1.279 . S
C1720 C1717 1.358 . S
C1720 C1721 1.356 . S
C1720 H1757 0.930 . S
C1721 C1718 1.348 . S
C1721 C1720 1.356 . S
H1722 C1716 0.930 . S
H1723 C1717 0.930 . S
C1724 N1725 1.314 . S
C1724 C1726 1.353 1_545 S
C1724 H1730 0.930 . S
N1725 Li1675 1.990 . S
N1725 C1724 1.314 . S
N1725 C1728 1.279 . S
C1726 C1724 1.353 1_565 S
C1726 C1729 1.348 . S
C1726 H1758 0.929 . S
C1727 C1728 1.358 1_565 S
C1727 C1729 1.356 . S
C1727 H1759 0.930 . S
C1728 N1725 1.279 . S
C1728 C1727 1.358 1_545 S
C1728 H1731 0.930 . S
C1729 C1726 1.348 . S
C1729 C1727 1.356 . S
H1730 C1724 0.930 . S
H1731 C1728 0.930 . S
O1732 Li1672 1.956 . S
O1732 Li1673 1.970 . S
O1732 Li1674 1.961 . S
O1732 C1676 1.325 . S
O1733 Li1672 1.970 . S
O1733 Li1673 1.956 . S
O1733 Li1675 1.961 . S
O1733 C1682 1.325 . S
O1734 Li1672 1.961 . S
O1734 Li1674 1.956 . S
O1734 Li1675 1.970 . S
O1734 C1704 1.325 . S
O1735 Li1673 1.961 . S
O1735 Li1674 1.970 . S
O1735 Li1675 1.956 . S
O1735 C1710 1.325 . S
H1736 C1678 0.929 . S
H1737 C1679 0.930 . S
H1738 C1680 0.930 . S
H1739 C1681 0.930 . S
H1740 C1683 0.930 . S
H1741 C1685 0.929 . S
H1742 C1686 0.930 . S
H1743 C1687 0.930 . S
H1744 C1690 0.930 . S
H1745 C1693 0.929 . S
H1746 C1698 0.929 . S
H1747 C1699 0.930 . S
H1748 C1706 0.929 . S
H1749 C1707 0.930 . S
H1750 C1708 0.930 . S
H1751 C1709 0.930 . S
H1752 C1711 0.929 . S
H1753 C1712 0.930 . S
H1754 C1713 0.930 . S
H1755 C1714 0.930 . S
H1756 C1718 0.929 . S
H1757 C1720 0.930 . S
H1758 C1726 0.929 . S
H1759 C1727 0.930 . S
Li1760 N1777 1.990 . S
Li1760 O1820 1.956 . S
Li1760 O1821 1.970 . S
Li1760 O1822 1.961 . S
Li1761 N1785 1.990 . S
Li1761 O1820 1.970 . S
Li1761 O1821 1.956 . S
Li1761 O1823 1.961 1_554 S
Li1762 N1807 1.990 . S
Li1762 O1820 1.961 1_556 S
Li1762 O1822 1.956 1_556 S
Li1762 O1823 1.970 . S
Li1763 N1813 1.990 . S
Li1763 O1821 1.961 1_556 S
Li1763 O1822 1.970 1_556 S
Li1763 O1823 1.956 . S
C1764 C1766 1.348 . S
C1764 C1767 1.356 . S
C1764 O1820 1.325 . S
N1765 C1768 1.314 . S
N1765 C1769 1.279 . S
C1766 C1764 1.348 . S
C1766 C1768 1.353 . S
C1766 H1824 0.929 . S
C1767 C1764 1.356 . S
C1767 C1769 1.358 . S
C1767 H1825 0.930 . S
C1768 N1765 1.314 . S
C1768 C1766 1.353 . S
C1768 H1826 0.930 . S
C1769 N1765 1.279 . S
C1769 C1767 1.358 . S
C1769 H1827 0.930 . S
C1770 C1773 1.348 . S
C1770 C1774 1.356 . S
C1770 O1821 1.325 . S
C1771 N1772 1.279 . S
C1771 C1774 1.358 . S
C1771 H1828 0.930 . S
N1772 C1771 1.279 . S
N1772 C1775 1.314 . S
C1773 C1770 1.348 . S
C1773 C1775 1.353 . S
C1773 H1829 0.929 . S
C1774 C1770 1.356 . S
C1774 C1771 1.358 . S
C1774 H1830 0.930 . S
C1775 N1772 1.314 . S
C1775 C1773 1.353 . S
C1775 H1831 0.930 . S
C1776 N1777 1.314 . S
C1776 C1781 1.353 . S
C1776 H1782 0.930 . S
N1777 Li1760 1.990 . S
N1777 C1776 1.314 . S
N1777 C1779 1.279 . S
C1778 C1779 1.358 . S
C1778 C1780 1.356 . S
C1778 H1832 0.930 . S
C1779 N1777 1.279 . S
C1779 C1778 1.358 . S
C1779 H1783 0.930 . S
C1780 C1778 1.356 . S
C1780 C1781 1.348 . S
C1781 C1776 1.353 . S
C1781 C1780 1.348 . S
C1781 H1833 0.929 . S
H1782 C1776 0.930 . S
H1783 C1779 0.930 . S
C1784 N1785 1.314 1_556 S
C1784 C1786 1.353 . S
C1784 H1790 0.930 . S
N1785 Li1761 1.990 . S
N1785 C1784 1.314 1_554 S
N1785 C1788 1.279 . S
C1786 C1784 1.353 . S
C1786 C1789 1.348 1_556 S
C1786 H1834 0.929 . S
C1787 C1788 1.358 . S
C1787 C1789 1.356 . S
C1787 H1835 0.930 . S
C1788 N1785 1.279 . S
C1788 C1787 1.358 . S
C1788 H1791 0.930 . S
C1789 C1786 1.348 1_554 S
C1789 C1787 1.356 . S
H1790 C1784 0.930 . S
H1791 C1788 0.930 . S
C1792 C1794 1.348 1_554 S
C1792 C1795 1.356 . S
C1792 O1822 1.325 . S
N1793 C1796 1.314 1_554 S
N1793 C1797 1.279 . S
C1794 C1792 1.348 1_556 S
C1794 C1796 1.353 . S
C1794 H1836 0.929 . S
C1795 C1792 1.356 . S
C1795 C1797 1.358 . S
C1795 H1837 0.930 . S
C1796 N1793 1.314 1_556 S
C1796 C1794 1.353 . S
C1796 H1838 0.930 . S
C1797 N1793 1.279 . S
C1797 C1795 1.358 . S
C1797 H1839 0.930 . S
C1798 C1799 1.348 . S
C1798 C1800 1.356 . S
C1798 O1823 1.325 . S
C1799 C1798 1.348 . S
C1799 C1801 1.353 . S
C1799 H1840 0.929 . S
C1800 C1798 1.356 . S
C1800 C1802 1.358 . S
C1800 H1841 0.930 . S
C1801 C1799 1.353 . S
C1801 N1803 1.314 . S
C1801 H1842 0.930 . S
C1802 C1800 1.358 . S
C1802 N1803 1.279 . S
C1802 H1843 0.930 . S
N1803 C1801 1.314 . S
N1803 C1802 1.279 . S
C1804 C1806 1.353 . S
C1804 N1807 1.314 . S
C1804 H1810 0.930 . S
C1805 N1807 1.279 . S
C1805 C1808 1.358 . S
C1805 H1811 0.930 . S
C1806 C1804 1.353 . S
C1806 C1809 1.348 . S
C1806 H1844 0.929 . S
N1807 Li1762 1.990 . S
N1807 C1804 1.314 . S
N1807 C1805 1.279 . S
C1808 C1805 1.358 . S
C1808 C1809 1.356 . S
C1808 H1845 0.930 . S
C1809 C1806 1.348 . S
C1809 C1808 1.356 . S
H1810 C1804 0.930 . S
H1811 C1805 0.930 . S
C1812 N1813 1.314 1_554 S
C1812 C1814 1.353 . S
C1812 H1818 0.930 . S
N1813 Li1763 1.990 . S
N1813 C1812 1.314 1_556 S
N1813 C1816 1.279 . S
C1814 C1812 1.353 . S
C1814 C1817 1.348 1_554 S
C1814 H1846 0.929 . S
C1815 C1816 1.358 . S
C1815 C1817 1.356 . S
C1815 H1847 0.930 . S
C1816 N1813 1.279 . S
C1816 C1815 1.358 . S
C1816 H1819 0.930 . S
C1817 C1814 1.348 1_556 S
C1817 C1815 1.356 . S
H1818 C1812 0.930 . S
H1819 C1816 0.930 . S
O1820 Li1760 1.956 . S
O1820 Li1761 1.970 . S
O1820 Li1762 1.961 1_554 S
O1820 C1764 1.325 . S
O1821 Li1760 1.970 . S
O1821 Li1761 1.956 . S
O1821 Li1763 1.961 1_554 S
O1821 C1770 1.325 . S
O1822 Li1760 1.961 . S
O1822 Li1762 1.956 1_554 S
O1822 Li1763 1.970 1_554 S
O1822 C1792 1.325 . S
O1823 Li1761 1.961 1_556 S
O1823 Li1762 1.970 . S
O1823 Li1763 1.956 . S
O1823 C1798 1.325 . S
H1824 C1766 0.929 . S
H1825 C1767 0.930 . S
H1826 C1768 0.930 . S
H1827 C1769 0.930 . S
H1828 C1771 0.930 . S
H1829 C1773 0.929 . S
H1830 C1774 0.930 . S
H1831 C1775 0.930 . S
H1832 C1778 0.930 . S
H1833 C1781 0.929 . S
H1834 C1786 0.929 . S
H1835 C1787 0.930 . S
H1836 C1794 0.929 . S
H1837 C1795 0.930 . S
H1838 C1796 0.930 . S
H1839 C1797 0.930 . S
H1840 C1799 0.929 . S
H1841 C1800 0.930 . S
H1842 C1801 0.930 . S
H1843 C1802 0.930 . S
H1844 C1806 0.929 . S
H1845 C1808 0.930 . S
H1846 C1814 0.929 . S
H1847 C1815 0.930 . S
Li1848 N1865 1.990 . S
Li1848 O1908 1.956 . S
Li1848 O1909 1.970 . S
Li1848 O1910 1.961 . S
Li1849 N1873 1.990 . S
Li1849 O1908 1.970 . S
Li1849 O1909 1.956 . S
Li1849 O1911 1.961 . S
Li1850 N1895 1.990 . S
Li1850 O1908 1.961 . S
Li1850 O1910 1.956 . S
Li1850 O1911 1.970 . S
Li1851 N1901 1.990 . S
Li1851 O1909 1.961 . S
Li1851 O1910 1.970 . S
Li1851 O1911 1.956 . S
C1852 C1854 1.348 . S
C1852 C1855 1.356 . S
C1852 O1908 1.325 . S
N1853 C1856 1.314 . S
N1853 C1857 1.279 . S
C1854 C1852 1.348 . S
C1854 C1856 1.353 . S
C1854 H1912 0.929 . S
C1855 C1852 1.356 . S
C1855 C1857 1.358 . S
C1855 H1913 0.930 . S
C1856 N1853 1.314 . S
C1856 C1854 1.353 . S
C1856 H1914 0.930 . S
C1857 N1853 1.279 . S
C1857 C1855 1.358 . S
C1857 H1915 0.930 . S
C1858 C1861 1.348 . S
C1858 C1862 1.356 . S
C1858 O1909 1.325 . S
C1859 N1860 1.279 . S
C1859 C1862 1.358 . S
C1859 H1916 0.930 . S
N1860 C1859 1.279 . S
N1860 C1863 1.314 . S
C1861 C1858 1.348 . S
C1861 C1863 1.353 . S
C1861 H1917 0.929 . S
C1862 C1858 1.356 . S
C1862 C1859 1.358 . S
C1862 H1918 0.930 . S
C1863 N1860 1.314 . S
C1863 C1861 1.353 . S
C1863 H1919 0.930 . S
C1864 N1865 1.314 . S
C1864 C1869 1.353 . S
C1864 H1870 0.930 . S
N1865 Li1848 1.990 . S
N1865 C1864 1.314 . S
N1865 C1867 1.279 . S
C1866 C1867 1.358 . S
C1866 C1868 1.356 . S
C1866 H1920 0.930 . S
C1867 N1865 1.279 . S
C1867 C1866 1.358 . S
C1867 H1871 0.930 . S
C1868 C1866 1.356 . S
C1868 C1869 1.348 . S
C1869 C1864 1.353 . S
C1869 C1868 1.348 . S
C1869 H1921 0.929 . S
H1870 C1864 0.930 . S
H1871 C1867 0.930 . S
C1872 N1873 1.314 . S
C1872 C1874 1.353 . S
C1872 H1878 0.930 . S
N1873 Li1849 1.990 . S
N1873 C1872 1.314 . S
N1873 C1876 1.279 . S
C1874 C1872 1.353 . S
C1874 C1877 1.348 . S
C1874 H1922 0.929 . S
C1875 C1876 1.358 . S
C1875 C1877 1.356 . S
C1875 H1923 0.930 . S
C1876 N1873 1.279 . S
C1876 C1875 1.358 . S
C1876 H1879 0.930 . S
C1877 C1874 1.348 . S
C1877 C1875 1.356 . S
H1878 C1872 0.930 . S
H1879 C1876 0.930 . S
C1880 C1882 1.348 . S
C1880 C1883 1.356 . S
C1880 O1910 1.325 . S
N1881 C1884 1.314 . S
N1881 C1885 1.279 . S
C1882 C1880 1.348 . S
C1882 C1884 1.353 . S
C1882 H1924 0.929 . S
C1883 C1880 1.356 . S
C1883 C1885 1.358 . S
C1883 H1925 0.930 . S
C1884 N1881 1.314 . S
C1884 C1882 1.353 . S
C1884 H1926 0.930 . S
C1885 N1881 1.279 . S
C1885 C1883 1.358 . S
C1885 H1927 0.930 . S
C1886 C1887 1.348 . S
C1886 C1888 1.356 . S
C1886 O1911 1.325 . S
C1887 C1886 1.348 . S
C1887 C1889 1.353 . S
C1887 H1928 0.929 . S
C1888 C1886 1.356 . S
C1888 C1890 1.358 . S
C1888 H1929 0.930 . S
C1889 C1887 1.353 . S
C1889 N1891 1.314 . S
C1889 H1930 0.930 . S
C1890 C1888 1.358 . S
C1890 N1891 1.279 . S
C1890 H1931 0.930 . S
N1891 C1889 1.314 . S
N1891 C1890 1.279 . S
C1892 C1894 1.353 . S
C1892 N1895 1.314 . S
C1892 H1898 0.930 . S
C1893 N1895 1.279 . S
C1893 C1896 1.358 . S
C1893 H1899 0.930 . S
C1894 C1892 1.353 . S
C1894 C1897 1.348 . S
C1894 H1932 0.929 . S
N1895 Li1850 1.990 . S
N1895 C1892 1.314 . S
N1895 C1893 1.279 . S
C1896 C1893 1.358 . S
C1896 C1897 1.356 . S
C1896 H1933 0.930 . S
C1897 C1894 1.348 . S
C1897 C1896 1.356 . S
H1898 C1892 0.930 . S
H1899 C1893 0.930 . S
C1900 N1901 1.314 . S
C1900 C1902 1.353 . S
C1900 H1906 0.930 . S
N1901 Li1851 1.990 . S
N1901 C1900 1.314 . S
N1901 C1904 1.279 . S
C1902 C1900 1.353 . S
C1902 C1905 1.348 . S
C1902 H1934 0.929 . S
C1903 C1904 1.358 . S
C1903 C1905 1.356 . S
C1903 H1935 0.930 . S
C1904 N1901 1.279 . S
C1904 C1903 1.358 . S
C1904 H1907 0.930 . S
C1905 C1902 1.348 . S
C1905 C1903 1.356 . S
H1906 C1900 0.930 . S
H1907 C1904 0.930 . S
O1908 Li1848 1.956 . S
O1908 Li1849 1.970 . S
O1908 Li1850 1.961 . S
O1908 C1852 1.325 . S
O1909 Li1848 1.970 . S
O1909 Li1849 1.956 . S
O1909 Li1851 1.961 . S
O1909 C1858 1.325 . S
O1910 Li1848 1.961 . S
O1910 Li1850 1.956 . S
O1910 Li1851 1.970 . S
O1910 C1880 1.325 . S
O1911 Li1849 1.961 . S
O1911 Li1850 1.970 . S
O1911 Li1851 1.956 . S
O1911 C1886 1.325 . S
H1912 C1854 0.929 . S
H1913 C1855 0.930 . S
H1914 C1856 0.930 . S
H1915 C1857 0.930 . S
H1916 C1859 0.930 . S
H1917 C1861 0.929 . S
H1918 C1862 0.930 . S
H1919 C1863 0.930 . S
H1920 C1866 0.930 . S
H1921 C1869 0.929 . S
H1922 C1874 0.929 . S
H1923 C1875 0.930 . S
H1924 C1882 0.929 . S
H1925 C1883 0.930 . S
H1926 C1884 0.930 . S
H1927 C1885 0.930 . S
H1928 C1887 0.929 . S
H1929 C1888 0.930 . S
H1930 C1889 0.930 . S
H1931 C1890 0.930 . S
H1932 C1894 0.929 . S
H1933 C1896 0.930 . S
H1934 C1902 0.929 . S
H1935 C1903 0.930 . S
Li1936 N1953 1.990 . S
Li1936 O1996 1.956 . S
Li1936 O1997 1.970 . S
Li1936 O1998 1.961 . S
Li1937 N1961 1.990 . S
Li1937 O1996 1.970 . S
Li1937 O1997 1.956 . S
Li1937 O1999 1.961 . S
Li1938 N1983 1.990 . S
Li1938 O1996 1.961 . S
Li1938 O1998 1.956 . S
Li1938 O1999 1.970 . S
Li1939 N1989 1.990 . S
Li1939 O1997 1.961 . S
Li1939 O1998 1.970 . S
Li1939 O1999 1.956 . S
C1940 C1942 1.348 . S
C1940 C1943 1.356 . S
C1940 O1996 1.325 . S
N1941 C1944 1.314 . S
N1941 C1945 1.279 . S
C1942 C1940 1.348 . S
C1942 C1944 1.353 . S
C1942 H2000 0.929 . S
C1943 C1940 1.356 . S
C1943 C1945 1.358 . S
C1943 H2001 0.930 . S
C1944 N1941 1.314 . S
C1944 C1942 1.353 . S
C1944 H2002 0.930 . S
C1945 N1941 1.279 . S
C1945 C1943 1.358 . S
C1945 H2003 0.930 . S
C1946 C1949 1.348 . S
C1946 C1950 1.356 . S
C1946 O1997 1.325 . S
C1947 N1948 1.279 . S
C1947 C1950 1.358 . S
C1947 H2004 0.930 . S
N1948 C1947 1.279 . S
N1948 C1951 1.314 . S
C1949 C1946 1.348 . S
C1949 C1951 1.353 . S
C1949 H2005 0.929 . S
C1950 C1946 1.356 . S
C1950 C1947 1.358 . S
C1950 H2006 0.930 . S
C1951 N1948 1.314 . S
C1951 C1949 1.353 . S
C1951 H2007 0.930 . S
C1952 N1953 1.314 . S
C1952 C1957 1.353 . S
C1952 H1958 0.930 . S
N1953 Li1936 1.990 . S
N1953 C1952 1.314 . S
N1953 C1955 1.279 . S
C1954 C1955 1.358 . S
C1954 C1956 1.356 . S
C1954 H2008 0.930 . S
C1955 N1953 1.279 . S
C1955 C1954 1.358 . S
C1955 H1959 0.930 . S
C1956 C1954 1.356 . S
C1956 C1957 1.348 . S
C1957 C1952 1.353 . S
C1957 C1956 1.348 . S
C1957 H2009 0.929 . S
H1958 C1952 0.930 . S
H1959 C1955 0.930 . S
C1960 N1961 1.314 . S
C1960 C1962 1.353 . S
C1960 H1966 0.930 . S
N1961 Li1937 1.990 . S
N1961 C1960 1.314 . S
N1961 C1964 1.279 . S
C1962 C1960 1.353 . S
C1962 C1965 1.348 . S
C1962 H2010 0.929 . S
C1963 C1964 1.358 . S
C1963 C1965 1.356 . S
C1963 H2011 0.930 . S
C1964 N1961 1.279 . S
C1964 C1963 1.358 . S
C1964 H1967 0.930 . S
C1965 C1962 1.348 . S
C1965 C1963 1.356 . S
H1966 C1960 0.930 . S
H1967 C1964 0.930 . S
C1968 C1970 1.348 . S
C1968 C1971 1.356 . S
C1968 O1998 1.325 . S
N1969 C1972 1.314 . S
N1969 C1973 1.279 . S
C1970 C1968 1.348 . S
C1970 C1972 1.353 . S
C1970 H2012 0.929 . S
C1971 C1968 1.356 . S
C1971 C1973 1.358 . S
C1971 H2013 0.930 . S
C1972 N1969 1.314 . S
C1972 C1970 1.353 . S
C1972 H2014 0.930 . S
C1973 N1969 1.279 . S
C1973 C1971 1.358 . S
C1973 H2015 0.930 . S
C1974 C1975 1.348 . S
C1974 C1976 1.356 . S
C1974 O1999 1.325 . S
C1975 C1974 1.348 . S
C1975 C1977 1.353 . S
C1975 H2016 0.929 . S
C1976 C1974 1.356 . S
C1976 C1978 1.358 . S
C1976 H2017 0.930 . S
C1977 C1975 1.353 . S
C1977 N1979 1.314 . S
C1977 H2018 0.930 . S
C1978 C1976 1.358 . S
C1978 N1979 1.279 . S
C1978 H2019 0.930 . S
N1979 C1977 1.314 . S
N1979 C1978 1.279 . S
C1980 C1982 1.353 . S
C1980 N1983 1.314 . S
C1980 H1986 0.930 . S
C1981 N1983 1.279 . S
C1981 C1984 1.358 . S
C1981 H1987 0.930 . S
C1982 C1980 1.353 . S
C1982 C1985 1.348 . S
C1982 H2020 0.929 . S
N1983 Li1938 1.990 . S
N1983 C1980 1.314 . S
N1983 C1981 1.279 . S
C1984 C1981 1.358 . S
C1984 C1985 1.356 . S
C1984 H2021 0.930 . S
C1985 C1982 1.348 . S
C1985 C1984 1.356 . S
H1986 C1980 0.930 . S
H1987 C1981 0.930 . S
C1988 N1989 1.314 . S
C1988 C1990 1.353 . S
C1988 H1994 0.930 . S
N1989 Li1939 1.990 . S
N1989 C1988 1.314 . S
N1989 C1992 1.279 . S
C1990 C1988 1.353 . S
C1990 C1993 1.348 . S
C1990 H2022 0.929 . S
C1991 C1992 1.358 . S
C1991 C1993 1.356 . S
C1991 H2023 0.930 . S
C1992 N1989 1.279 . S
C1992 C1991 1.358 . S
C1992 H1995 0.930 . S
C1993 C1990 1.348 . S
C1993 C1991 1.356 . S
H1994 C1988 0.930 . S
H1995 C1992 0.930 . S
O1996 Li1936 1.956 . S
O1996 Li1937 1.970 . S
O1996 Li1938 1.961 . S
O1996 C1940 1.325 . S
O1997 Li1936 1.970 . S
O1997 Li1937 1.956 . S
O1997 Li1939 1.961 . S
O1997 C1946 1.325 . S
O1998 Li1936 1.961 . S
O1998 Li1938 1.956 . S
O1998 Li1939 1.970 . S
O1998 C1968 1.325 . S
O1999 Li1937 1.961 . S
O1999 Li1938 1.970 . S
O1999 Li1939 1.956 . S
O1999 C1974 1.325 . S
H2000 C1942 0.929 . S
H2001 C1943 0.930 . S
H2002 C1944 0.930 . S
H2003 C1945 0.930 . S
H2004 C1947 0.930 . S
H2005 C1949 0.929 . S
H2006 C1950 0.930 . S
H2007 C1951 0.930 . S
H2008 C1954 0.930 . S
H2009 C1957 0.929 . S
H2010 C1962 0.929 . S
H2011 C1963 0.930 . S
H2012 C1970 0.929 . S
H2013 C1971 0.930 . S
H2014 C1972 0.930 . S
H2015 C1973 0.930 . S
H2016 C1975 0.929 . S
H2017 C1976 0.930 . S
H2018 C1977 0.930 . S
H2019 C1978 0.930 . S
H2020 C1982 0.929 . S
H2021 C1984 0.930 . S
H2022 C1990 0.929 . S
H2023 C1991 0.930 . S
Li2024 N2041 1.990 . S
Li2024 O2084 1.956 . S
Li2024 O2085 1.970 . S
Li2024 O2086 1.961 . S
Li2025 N2049 1.990 . S
Li2025 O2084 1.970 . S
Li2025 O2085 1.956 . S
Li2025 O2087 1.961 . S
Li2026 N2071 1.990 . S
Li2026 O2084 1.961 . S
Li2026 O2086 1.956 . S
Li2026 O2087 1.970 . S
Li2027 N2077 1.990 . S
Li2027 O2085 1.961 . S
Li2027 O2086 1.970 . S
Li2027 O2087 1.956 . S
C2028 C2030 1.348 . S
C2028 C2031 1.356 . S
C2028 O2084 1.325 . S
N2029 C2032 1.314 . S
N2029 C2033 1.279 . S
C2030 C2028 1.348 . S
C2030 C2032 1.353 . S
C2030 H2088 0.929 . S
C2031 C2028 1.356 . S
C2031 C2033 1.358 . S
C2031 H2089 0.930 . S
C2032 N2029 1.314 . S
C2032 C2030 1.353 . S
C2032 H2090 0.930 . S
C2033 N2029 1.279 . S
C2033 C2031 1.358 . S
C2033 H2091 0.930 . S
C2034 C2037 1.348 . S
C2034 C2038 1.356 . S
C2034 O2085 1.325 . S
C2035 N2036 1.279 . S
C2035 C2038 1.358 . S
C2035 H2092 0.930 . S
N2036 C2035 1.279 . S
N2036 C2039 1.314 . S
C2037 C2034 1.348 . S
C2037 C2039 1.353 . S
C2037 H2093 0.929 . S
C2038 C2034 1.356 . S
C2038 C2035 1.358 . S
C2038 H2094 0.930 . S
C2039 N2036 1.314 . S
C2039 C2037 1.353 . S
C2039 H2095 0.930 . S
C2040 N2041 1.314 . S
C2040 C2045 1.353 . S
C2040 H2046 0.930 . S
N2041 Li2024 1.990 . S
N2041 C2040 1.314 . S
N2041 C2043 1.279 . S
C2042 C2043 1.358 . S
C2042 C2044 1.356 . S
C2042 H2096 0.930 . S
C2043 N2041 1.279 . S
C2043 C2042 1.358 . S
C2043 H2047 0.930 . S
C2044 C2042 1.356 . S
C2044 C2045 1.348 . S
C2045 C2040 1.353 . S
C2045 C2044 1.348 . S
C2045 H2097 0.929 . S
H2046 C2040 0.930 . S
H2047 C2043 0.930 . S
C2048 N2049 1.314 . S
C2048 C2050 1.353 . S
C2048 H2054 0.930 . S
N2049 Li2025 1.990 . S
N2049 C2048 1.314 . S
N2049 C2052 1.279 . S
C2050 C2048 1.353 . S
C2050 C2053 1.348 . S
C2050 H2098 0.929 . S
C2051 C2052 1.358 . S
C2051 C2053 1.356 . S
C2051 H2099 0.930 . S
C2052 N2049 1.279 . S
C2052 C2051 1.358 . S
C2052 H2055 0.930 . S
C2053 C2050 1.348 . S
C2053 C2051 1.356 . S
H2054 C2048 0.930 . S
H2055 C2052 0.930 . S
C2056 C2058 1.348 . S
C2056 C2059 1.356 . S
C2056 O2086 1.325 . S
N2057 C2060 1.314 . S
N2057 C2061 1.279 . S
C2058 C2056 1.348 . S
C2058 C2060 1.353 . S
C2058 H2100 0.929 . S
C2059 C2056 1.356 . S
C2059 C2061 1.358 . S
C2059 H2101 0.930 . S
C2060 N2057 1.314 . S
C2060 C2058 1.353 . S
C2060 H2102 0.930 . S
C2061 N2057 1.279 . S
C2061 C2059 1.358 . S
C2061 H2103 0.930 . S
C2062 C2063 1.348 . S
C2062 C2064 1.356 . S
C2062 O2087 1.325 . S
C2063 C2062 1.348 . S
C2063 C2065 1.353 . S
C2063 H2104 0.929 . S
C2064 C2062 1.356 . S
C2064 C2066 1.358 . S
C2064 H2105 0.930 . S
C2065 C2063 1.353 . S
C2065 N2067 1.314 . S
C2065 H2106 0.930 . S
C2066 C2064 1.358 . S
C2066 N2067 1.279 . S
C2066 H2107 0.930 . S
N2067 C2065 1.314 . S
N2067 C2066 1.279 . S
C2068 C2070 1.353 . S
C2068 N2071 1.314 . S
C2068 H2074 0.930 . S
C2069 N2071 1.279 . S
C2069 C2072 1.358 . S
C2069 H2075 0.930 . S
C2070 C2068 1.353 . S
C2070 C2073 1.348 . S
C2070 H2108 0.929 . S
N2071 Li2026 1.990 . S
N2071 C2068 1.314 . S
N2071 C2069 1.279 . S
C2072 C2069 1.358 . S
C2072 C2073 1.356 . S
C2072 H2109 0.930 . S
C2073 C2070 1.348 . S
C2073 C2072 1.356 . S
H2074 C2068 0.930 . S
H2075 C2069 0.930 . S
C2076 N2077 1.314 . S
C2076 C2078 1.353 . S
C2076 H2082 0.930 . S
N2077 Li2027 1.990 . S
N2077 C2076 1.314 . S
N2077 C2080 1.279 . S
C2078 C2076 1.353 . S
C2078 C2081 1.348 . S
C2078 H2110 0.929 . S
C2079 C2080 1.358 . S
C2079 C2081 1.356 . S
C2079 H2111 0.930 . S
C2080 N2077 1.279 . S
C2080 C2079 1.358 . S
C2080 H2083 0.930 . S
C2081 C2078 1.348 . S
C2081 C2079 1.356 . S
H2082 C2076 0.930 . S
H2083 C2080 0.930 . S
O2084 Li2024 1.956 . S
O2084 Li2025 1.970 . S
O2084 Li2026 1.961 . S
O2084 C2028 1.325 . S
O2085 Li2024 1.970 . S
O2085 Li2025 1.956 . S
O2085 Li2027 1.961 . S
O2085 C2034 1.325 . S
O2086 Li2024 1.961 . S
O2086 Li2026 1.956 . S
O2086 Li2027 1.970 . S
O2086 C2056 1.325 . S
O2087 Li2025 1.961 . S
O2087 Li2026 1.970 . S
O2087 Li2027 1.956 . S
O2087 C2062 1.325 . S
H2088 C2030 0.929 . S
H2089 C2031 0.930 . S
H2090 C2032 0.930 . S
H2091 C2033 0.930 . S
H2092 C2035 0.930 . S
H2093 C2037 0.929 . S
H2094 C2038 0.930 . S
H2095 C2039 0.930 . S
H2096 C2042 0.930 . S
H2097 C2045 0.929 . S
H2098 C2050 0.929 . S
H2099 C2051 0.930 . S
H2100 C2058 0.929 . S
H2101 C2059 0.930 . S
H2102 C2060 0.930 . S
H2103 C2061 0.930 . S
H2104 C2063 0.929 . S
H2105 C2064 0.930 . S
H2106 C2065 0.930 . S
H2107 C2066 0.930 . S
H2108 C2070 0.929 . S
H2109 C2072 0.930 . S
H2110 C2078 0.929 . S
H2111 C2079 0.930 . S
Gd2112 C2115 2.818 1_455 S
Gd2112 O2132 2.377 . S
Gd2112 O2134 2.448 1_455 S
Gd2112 O2135 2.506 1_456 S
Gd2112 O2136 2.435 . S
Gd2112 O2137 2.717 . S
Gd2112 O2139 2.395 1_546 S
Gd2112 O2143 2.327 1_556 S
Gd2113 C2124 2.818 . S
Gd2113 O2133 2.395 . S
Gd2113 O2137 2.327 1_554 S
Gd2113 O2138 2.377 . S
Gd2113 O2140 2.448 . S
Gd2113 O2141 2.506 . S
Gd2113 O2142 2.435 . S
Gd2113 O2143 2.717 . S
C2114 O2132 1.240 1_554 S
C2114 O2133 1.240 . S
C2115 Gd2112 2.818 1_655 S
C2115 C2116 1.510 . S
C2115 O2134 1.249 . S
C2115 O2135 1.252 1_556 S
C2116 C2115 1.510 . S
C2116 C2117 1.404 . S
C2116 C2118 1.352 1_556 S
C2117 C2116 1.404 . S
C2117 C2121 1.389 . S
C2117 H2144 0.930 . S
C2118 C2116 1.352 1_554 S
C2118 C2120 1.374 1_554 S
C2118 H2145 0.931 . S
C2119 C2120 1.359 . S
C2119 C2121 1.364 . S
C2120 C2118 1.374 1_556 S
C2120 C2119 1.359 . S
C2120 H2146 0.931 1_556 S
C2121 C2117 1.389 . S
C2121 C2119 1.364 . S
C2121 H2147 0.931 . S
C2122 O2136 1.256 . S
C2122 O2137 1.257 . S
C2123 O2138 1.240 1_565 S
C2123 O2139 1.240 . S
C2124 Gd2113 2.818 . S
C2124 C2125 1.510 . S
C2124 O2140 1.249 . S
C2124 O2141 1.252 . S
C2125 C2124 1.510 . S
C2125 C2126 1.404 . S
C2125 C2127 1.352 . S
C2126 C2125 1.404 . S
C2126 C2130 1.389 . S
C2126 H2148 0.930 . S
C2127 C2125 1.352 . S
C2127 C2129 1.374 1_545 S
C2127 H2149 0.931 1_545 S
C2128 C2129 1.359 . S
C2128 C2130 1.361 1_565 S
C2129 C2127 1.374 1_565 S
C2129 C2128 1.359 . S
C2129 H2150 0.931 . S
C2130 C2126 1.389 . S
C2130 C2128 1.361 1_545 S
C2130 H2151 0.931 . S
C2131 O2142 1.256 . S
C2131 O2143 1.257 . S
O2132 Gd2112 2.377 . S
O2132 C2114 1.240 1_556 S
O2133 Gd2113 2.395 . S
O2133 C2114 1.240 . S
O2134 Gd2112 2.448 1_655 S
O2134 C2115 1.249 . S
O2135 Gd2112 2.506 1_654 S
O2135 C2115 1.252 1_554 S
O2136 Gd2112 2.435 . S
O2136 C2122 1.256 . S
O2137 Gd2112 2.717 . S
O2137 Gd2113 2.327 1_556 S
O2137 C2122 1.257 . S
O2138 Gd2113 2.377 . S
O2138 C2123 1.240 1_545 S
O2139 Gd2112 2.395 1_564 S
O2139 C2123 1.240 . S
O2140 Gd2113 2.448 . S
O2140 C2124 1.249 . S
O2141 Gd2113 2.506 . S
O2141 C2124 1.252 . S
O2142 Gd2113 2.435 . S
O2142 C2131 1.256 . S
O2143 Gd2112 2.327 1_554 S
O2143 Gd2113 2.717 . S
O2143 C2131 1.257 . S
H2144 C2117 0.930 . S
H2145 C2118 0.931 . S
H2146 C2120 0.931 1_554 S
H2147 C2121 0.931 . S
H2148 C2126 0.930 . S
H2149 C2127 0.931 1_565 S
H2150 C2129 0.931 . S
H2151 C2130 0.931 . S
Gd2152 C2155 2.818 . S
Gd2152 O2172 2.377 . S
Gd2152 O2174 2.448 . S
Gd2152 O2175 2.506 . S
Gd2152 O2176 2.435 . S
Gd2152 O2177 2.717 . S
Gd2152 O2179 2.395 . S
Gd2152 O2183 2.327 . S
Gd2153 C2164 2.818 . S
Gd2153 O2173 2.395 . S
Gd2153 O2177 2.327 . S
Gd2153 O2178 2.377 . S
Gd2153 O2180 2.448 . S
Gd2153 O2181 2.506 . S
Gd2153 O2182 2.435 . S
Gd2153 O2183 2.717 . S
C2154 O2172 1.240 . S
C2154 O2173 1.240 . S
C2155 Gd2152 2.818 . S
C2155 C2156 1.510 . S
C2155 O2174 1.249 . S
C2155 O2175 1.252 . S
C2156 C2155 1.510 . S
C2156 C2157 1.404 . S
C2156 C2158 1.352 . S
C2157 C2156 1.404 . S
C2157 C2161 1.389 . S
C2157 H2184 0.930 . S
C2158 C2156 1.352 . S
C2158 C2160 1.374 . S
C2158 H2185 0.931 . S
C2159 C2160 1.359 . S
C2159 C2161 1.364 . S
C2160 C2158 1.374 . S
C2160 C2159 1.359 . S
C2160 H2186 0.931 . S
C2161 C2157 1.389 . S
C2161 C2159 1.364 . S
C2161 H2187 0.931 . S
C2162 O2176 1.256 . S
C2162 O2177 1.257 . S
C2163 O2178 1.240 . S
C2163 O2179 1.240 . S
C2164 Gd2153 2.818 . S
C2164 C2165 1.510 . S
C2164 O2180 1.249 . S
C2164 O2181 1.252 . S
C2165 C2164 1.510 . S
C2165 C2166 1.404 . S
C2165 C2167 1.352 . S
C2166 C2165 1.404 . S
C2166 C2170 1.389 . S
C2166 H2188 0.930 . S
C2167 C2165 1.352 . S
C2167 C2169 1.374 . S
C2167 H2189 0.931 . S
C2168 C2169 1.359 . S
C2168 C2170 1.364 . S
C2169 C2167 1.374 . S
C2169 C2168 1.359 . S
C2169 H2190 0.931 . S
C2170 C2166 1.389 . S
C2170 C2168 1.364 . S
C2170 H2191 0.931 . S
C2171 O2182 1.256 . S
C2171 O2183 1.257 . S
O2172 Gd2152 2.377 . S
O2172 C2154 1.240 . S
O2173 Gd2153 2.395 . S
O2173 C2154 1.240 . S
O2174 Gd2152 2.448 . S
O2174 C2155 1.249 . S
O2175 Gd2152 2.506 . S
O2175 C2155 1.252 . S
O2176 Gd2152 2.435 . S
O2176 C2162 1.256 . S
O2177 Gd2152 2.717 . S
O2177 Gd2153 2.327 . S
O2177 C2162 1.257 . S
O2178 Gd2153 2.377 . S
O2178 C2163 1.240 . S
O2179 Gd2152 2.395 . S
O2179 C2163 1.240 . S
O2180 Gd2153 2.448 . S
O2180 C2164 1.249 . S
O2181 Gd2153 2.506 . S
O2181 C2164 1.252 . S
O2182 Gd2153 2.435 . S
O2182 C2171 1.256 . S
O2183 Gd2152 2.327 . S
O2183 Gd2153 2.717 . S
O2183 C2171 1.257 . S
H2184 C2157 0.930 . S
H2185 C2158 0.931 . S
H2186 C2160 0.931 . S
H2187 C2161 0.931 . S
H2188 C2166 0.930 . S
H2189 C2167 0.931 . S
H2190 C2169 0.931 . S
H2191 C2170 0.931 . S
Gd2192 C2195 2.818 . S
Gd2192 O2212 2.377 1_545 S
Gd2192 O2214 2.448 . S
Gd2192 O2215 2.506 . S
Gd2192 O2216 2.435 . S
Gd2192 O2217 2.717 . S
Gd2192 O2219 2.395 . S
Gd2192 O2223 2.327 . S
Gd2193 C2204 2.818 . S
Gd2193 O2213 2.395 1_545 S
Gd2193 O2217 2.327 . S
Gd2193 O2218 2.377 . S
Gd2193 O2220 2.448 . S
Gd2193 O2221 2.506 . S
Gd2193 O2222 2.435 . S
Gd2193 O2223 2.717 . S
C2194 O2212 1.240 . S
C2194 O2213 1.240 . S
C2195 Gd2192 2.818 . S
C2195 C2196 1.510 1_545 S
C2195 O2214 1.249 . S
C2195 O2215 1.252 . S
C2196 C2195 1.510 1_565 S
C2196 C2197 1.404 . S
C2196 C2198 1.352 . S
C2197 C2196 1.404 . S
C2197 C2201 1.389 . S
C2197 H2224 0.891 1_565 S
C2198 C2196 1.352 . S
C2198 C2200 1.374 . S
C2198 H2225 0.931 . S
C2199 C2200 1.359 . S
C2199 C2201 1.364 . S
C2200 C2198 1.374 . S
C2200 C2199 1.359 . S
C2200 H2226 0.931 . S
C2201 C2197 1.389 . S
C2201 C2199 1.364 . S
C2201 H2227 0.931 . S
C2202 O2216 1.256 . S
C2202 O2217 1.257 . S
C2203 O2218 1.240 . S
C2203 O2219 1.240 . S
C2204 Gd2193 2.818 . S
C2204 C2205 1.510 . S
C2204 O2220 1.249 . S
C2204 O2221 1.252 . S
C2205 C2204 1.510 . S
C2205 C2206 1.404 . S
C2205 C2207 1.352 . S
C2206 C2205 1.404 . S
C2206 C2210 1.389 . S
C2206 H2228 0.930 . S
C2207 C2205 1.352 . S
C2207 C2209 1.374 . S
C2207 H2229 0.931 . S
C2208 C2209 1.359 . S
C2208 C2210 1.364 . S
C2209 C2207 1.374 . S
C2209 C2208 1.359 . S
C2209 H2230 0.931 . S
C2210 C2206 1.389 . S
C2210 C2208 1.364 . S
C2210 H2231 0.931 . S
C2211 O2222 1.256 . S
C2211 O2223 1.257 . S
O2212 Gd2192 2.377 1_565 S
O2212 C2194 1.240 . S
O2213 Gd2193 2.395 1_565 S
O2213 C2194 1.240 . S
O2214 Gd2192 2.448 . S
O2214 C2195 1.249 . S
O2215 Gd2192 2.506 . S
O2215 C2195 1.252 . S
O2216 Gd2192 2.435 . S
O2216 C2202 1.256 . S
O2217 Gd2192 2.717 . S
O2217 Gd2193 2.327 . S
O2217 C2202 1.257 . S
O2218 Gd2193 2.377 . S
O2218 C2203 1.240 . S
O2219 Gd2192 2.395 . S
O2219 C2203 1.240 . S
O2220 Gd2193 2.448 . S
O2220 C2204 1.249 . S
O2221 Gd2193 2.506 . S
O2221 C2204 1.252 . S
O2222 Gd2193 2.435 . S
O2222 C2211 1.256 . S
O2223 Gd2192 2.327 . S
O2223 Gd2193 2.717 . S
O2223 C2211 1.257 . S
H2224 C2197 0.891 1_545 S
H2225 C2198 0.931 . S
H2226 C2200 0.931 . S
H2227 C2201 0.931 . S
H2228 C2206 0.930 . S
H2229 C2207 0.931 . S
H2230 C2209 0.931 . S
H2231 C2210 0.931 . S
Gd2232 C2235 2.818 . S
Gd2232 O2252 2.377 . S
Gd2232 O2254 2.448 . S
Gd2232 O2255 2.506 . S
Gd2232 O2256 2.435 . S
Gd2232 O2257 2.717 . S
Gd2232 O2259 2.395 . S
Gd2232 O2263 2.327 . S
Gd2233 C2244 2.818 . S
Gd2233 O2253 2.395 . S
Gd2233 O2257 2.327 . S
Gd2233 O2258 2.377 . S
Gd2233 O2260 2.448 . S
Gd2233 O2261 2.506 . S
Gd2233 O2262 2.435 . S
Gd2233 O2263 2.717 . S
C2234 O2252 1.240 . S
C2234 O2253 1.240 . S
C2235 Gd2232 2.818 . S
C2235 C2236 1.510 . S
C2235 O2254 1.249 . S
C2235 O2255 1.252 . S
C2236 C2235 1.510 . S
C2236 C2237 1.404 . S
C2236 C2238 1.352 . S
C2237 C2236 1.404 . S
C2237 C2241 1.389 . S
C2237 H2264 0.930 . S
C2238 C2236 1.352 . S
C2238 C2240 1.374 . S
C2238 H2265 0.931 . S
C2239 C2240 1.359 . S
C2239 C2241 1.364 . S
C2240 C2238 1.374 . S
C2240 C2239 1.359 . S
C2240 H2266 0.931 . S
C2241 C2237 1.389 . S
C2241 C2239 1.364 . S
C2241 H2267 0.931 . S
C2242 O2256 1.256 . S
C2242 O2257 1.257 . S
C2243 O2258 1.240 . S
C2243 O2259 1.240 . S
C2244 Gd2233 2.818 . S
C2244 C2245 1.510 . S
C2244 O2260 1.249 . S
C2244 O2261 1.252 . S
C2245 C2244 1.510 . S
C2245 C2246 1.404 . S
C2245 C2247 1.352 . S
C2246 C2245 1.404 . S
C2246 C2250 1.389 . S
C2246 H2268 0.930 . S
C2247 C2245 1.352 . S
C2247 C2249 1.374 . S
C2247 H2269 0.931 . S
C2248 C2249 1.359 . S
C2248 C2250 1.364 . S
C2249 C2247 1.374 . S
C2249 C2248 1.359 . S
C2249 H2270 0.931 . S
C2250 C2246 1.389 . S
C2250 C2248 1.364 . S
C2250 H2271 0.931 . S
C2251 O2262 1.256 . S
C2251 O2263 1.257 . S
O2252 Gd2232 2.377 . S
O2252 C2234 1.240 . S
O2253 Gd2233 2.395 . S
O2253 C2234 1.240 . S
O2254 Gd2232 2.448 . S
O2254 C2235 1.249 . S
O2255 Gd2232 2.506 . S
O2255 C2235 1.252 . S
O2256 Gd2232 2.435 . S
O2256 C2242 1.256 . S
O2257 Gd2232 2.717 . S
O2257 Gd2233 2.327 . S
O2257 C2242 1.257 . S
O2258 Gd2233 2.377 . S
O2258 C2243 1.240 . S
O2259 Gd2232 2.395 . S
O2259 C2243 1.240 . S
O2260 Gd2233 2.448 . S
O2260 C2244 1.249 . S
O2261 Gd2233 2.506 . S
O2261 C2244 1.252 . S
O2262 Gd2233 2.435 . S
O2262 C2251 1.256 . S
O2263 Gd2232 2.327 . S
O2263 Gd2233 2.717 . S
O2263 C2251 1.257 . S
H2264 C2237 0.930 . S
H2265 C2238 0.931 . S
H2266 C2240 0.931 . S
H2267 C2241 0.931 . S
H2268 C2246 0.930 . S
H2269 C2247 0.931 . S
H2270 C2249 0.931 . S
H2271 C2250 0.931 . S
Gd2272 C2275 2.818 . S
Gd2272 O2292 2.377 . S
Gd2272 O2294 2.448 . S
Gd2272 O2295 2.506 . S
Gd2272 O2296 2.435 . S
Gd2272 O2297 2.717 . S
Gd2272 O2299 2.395 . S
Gd2272 O2303 2.327 . S
Gd2273 C2284 2.780 1_545 S
Gd2273 O2293 2.423 . S
Gd2273 O2297 2.351 . S
Gd2273 O2298 2.384 . S
Gd2273 O2300 2.412 1_545 S
Gd2273 O2301 2.474 1_545 S
Gd2273 O2302 2.449 . S
Gd2273 O2303 2.756 . S
C2274 O2292 1.240 . S
C2274 O2293 1.240 . S
C2275 Gd2272 2.818 . S
C2275 C2276 1.510 . S
C2275 O2294 1.249 . S
C2275 O2295 1.252 . S
C2276 C2275 1.510 . S
C2276 C2277 1.404 . S
C2276 C2278 1.352 . S
C2277 C2276 1.404 . S
C2277 C2281 1.389 . S
C2277 H2304 0.930 . S
C2278 C2276 1.352 . S
C2278 C2280 1.374 . S
C2278 H2305 0.931 . S
C2279 C2280 1.359 . S
C2279 C2281 1.364 . S
C2280 C2278 1.374 . S
C2280 C2279 1.359 . S
C2280 H2306 0.931 . S
C2281 C2277 1.389 . S
C2281 C2279 1.364 . S
C2281 H2307 0.931 . S
C2282 O2296 1.256 . S
C2282 O2297 1.257 . S
C2283 O2298 1.240 . S
C2283 O2299 1.240 . S
C2284 Gd2273 2.780 1_565 S
C2284 C2285 1.510 . S
C2284 O2300 1.249 . S
C2284 O2301 1.252 . S
C2285 C2284 1.510 . S
C2285 C2286 1.404 . S
C2285 C2287 1.352 . S
C2286 C2285 1.404 . S
C2286 C2290 1.389 . S
C2286 H2308 0.930 . S
C2287 C2285 1.352 . S
C2287 C2289 1.374 . S
C2287 H2309 0.931 . S
C2288 C2289 1.359 . S
C2288 C2290 1.364 . S
C2289 C2287 1.374 . S
C2289 C2288 1.359 . S
C2289 H2310 0.931 . S
C2290 C2286 1.389 . S
C2290 C2288 1.364 . S
C2290 H2311 0.931 . S
C2291 O2302 1.256 . S
C2291 O2303 1.257 . S
O2292 Gd2272 2.377 . S
O2292 C2274 1.240 . S
O2293 Gd2273 2.423 . S
O2293 C2274 1.240 . S
O2294 Gd2272 2.448 . S
O2294 C2275 1.249 . S
O2295 Gd2272 2.506 . S
O2295 C2275 1.252 . S
O2296 Gd2272 2.435 . S
O2296 C2282 1.256 . S
O2297 Gd2272 2.717 . S
O2297 Gd2273 2.351 . S
O2297 C2282 1.257 . S
O2298 Gd2273 2.384 . S
O2298 C2283 1.240 . S
O2299 Gd2272 2.395 . S
O2299 C2283 1.240 . S
O2300 Gd2273 2.412 1_565 S
O2300 C2284 1.249 . S
O2301 Gd2273 2.474 1_565 S
O2301 C2284 1.252 . S
O2302 Gd2273 2.449 . S
O2302 C2291 1.256 . S
O2303 Gd2272 2.327 . S
O2303 Gd2273 2.756 . S
O2303 C2291 1.257 . S
H2304 C2277 0.930 . S
H2305 C2278 0.931 . S
H2306 C2280 0.931 . S
H2307 C2281 0.931 . S
H2308 C2286 0.930 . S
H2309 C2287 0.931 . S
H2310 C2289 0.931 . S
H2311 C2290 0.931 . S
Gd2312 C2315 2.818 . S
Gd2312 O2332 2.377 . S
Gd2312 O2334 2.448 . S
Gd2312 O2335 2.506 . S
Gd2312 O2336 2.435 . S
Gd2312 O2337 2.717 . S
Gd2312 O2339 2.395 . S
Gd2312 O2343 2.327 . S
Gd2313 C2324 2.818 . S
Gd2313 O2333 2.395 . S
Gd2313 O2337 2.327 . S
Gd2313 O2338 2.377 . S
Gd2313 O2340 2.448 . S
Gd2313 O2341 2.506 . S
Gd2313 O2342 2.435 . S
Gd2313 O2343 2.717 . S
C2314 O2332 1.240 . S
C2314 O2333 1.240 . S
C2315 Gd2312 2.818 . S
C2315 C2316 1.510 . S
C2315 O2334 1.249 . S
C2315 O2335 1.252 . S
C2316 C2315 1.510 . S
C2316 C2317 1.404 . S
C2316 C2318 1.352 . S
C2317 C2316 1.404 . S
C2317 C2321 1.389 . S
C2317 H2344 0.930 . S
C2318 C2316 1.352 . S
C2318 C2320 1.374 . S
C2318 H2345 0.931 . S
C2319 C2320 1.359 . S
C2319 C2321 1.364 . S
C2320 C2318 1.374 . S
C2320 C2319 1.359 . S
C2320 H2346 0.931 . S
C2321 C2317 1.389 . S
C2321 C2319 1.364 . S
C2321 H2347 0.931 . S
C2322 O2336 1.256 . S
C2322 O2337 1.257 . S
C2323 O2338 1.240 . S
C2323 O2339 1.240 . S
C2324 Gd2313 2.818 . S
C2324 C2325 1.510 . S
C2324 O2340 1.249 . S
C2324 O2341 1.252 . S
C2325 C2324 1.510 . S
C2325 C2326 1.404 . S
C2325 C2327 1.352 . S
C2326 C2325 1.404 . S
C2326 C2330 1.389 . S
C2326 H2348 0.930 . S
C2327 C2325 1.352 . S
C2327 C2329 1.374 . S
C2327 H2349 0.931 . S
C2328 C2329 1.359 . S
C2328 C2330 1.364 . S
C2329 C2327 1.374 . S
C2329 C2328 1.359 . S
C2329 H2350 0.931 . S
C2330 C2326 1.389 . S
C2330 C2328 1.364 . S
C2330 H2351 0.931 . S
C2331 O2342 1.256 . S
C2331 O2343 1.257 . S
O2332 Gd2312 2.377 . S
O2332 C2314 1.240 . S
O2333 Gd2313 2.395 . S
O2333 C2314 1.240 . S
O2334 Gd2312 2.448 . S
O2334 C2315 1.249 . S
O2335 Gd2312 2.506 . S
O2335 C2315 1.252 . S
O2336 Gd2312 2.435 . S
O2336 C2322 1.256 . S
O2337 Gd2312 2.717 . S
O2337 Gd2313 2.327 . S
O2337 C2322 1.257 . S
O2338 Gd2313 2.377 . S
O2338 C2323 1.240 . S
O2339 Gd2312 2.395 . S
O2339 C2323 1.240 . S
O2340 Gd2313 2.448 . S
O2340 C2324 1.249 . S
O2341 Gd2313 2.506 . S
O2341 C2324 1.252 . S
O2342 Gd2313 2.435 . S
O2342 C2331 1.256 . S
O2343 Gd2312 2.327 . S
O2343 Gd2313 2.717 . S
O2343 C2331 1.257 . S
H2344 C2317 0.930 . S
H2345 C2318 0.931 . S
H2346 C2320 0.931 . S
H2347 C2321 0.931 . S
H2348 C2326 0.930 . S
H2349 C2327 0.931 . S
H2350 C2329 0.931 . S
H2351 C2330 0.931 . S
Gd2352 C2355 2.818 . S
Gd2352 O2372 2.377 . S
Gd2352 O2374 2.411 1_545 S
Gd2352 O2375 2.506 . S
Gd2352 O2376 2.435 1_545 S
Gd2352 O2377 2.717 1_554 S
Gd2352 O2379 2.395 . S
Gd2352 O2383 2.327 . S
Gd2353 C2364 2.818 . S
Gd2353 O2373 2.395 . S
Gd2353 O2377 2.327 . S
Gd2353 O2378 2.377 . S
Gd2353 O2380 2.448 . S
Gd2353 O2381 2.506 . S
Gd2353 O2382 2.435 1_556 S
Gd2353 O2383 2.717 1_556 S
C2354 O2372 1.240 . S
C2354 O2373 1.240 1_554 S
C2355 Gd2352 2.818 . S
C2355 C2356 1.510 . S
C2355 O2374 1.210 1_545 S
C2355 O2375 1.252 . S
C2356 C2355 1.510 . S
C2356 C2357 1.404 1_545 S
C2356 C2358 1.352 . S
C2357 C2356 1.404 1_565 S
C2357 C2361 1.389 . S
C2357 H2384 0.930 . S
C2358 C2356 1.352 . S
C2358 C2360 1.374 . S
C2358 H2385 0.931 . S
C2359 C2360 1.359 1_565 S
C2359 C2361 1.364 . S
C2360 C2358 1.374 . S
C2360 C2359 1.359 1_545 S
C2360 H2386 0.931 . S
C2361 C2357 1.389 . S
C2361 C2359 1.364 . S
C2361 H2387 0.931 . S
C2362 O2376 1.230 1_556 S
C2362 O2377 1.266 1_565 S
C2363 O2378 1.240 1_554 S
C2363 O2379 1.240 . S
C2364 Gd2353 2.818 . S
C2364 C2365 1.510 . S
C2364 O2380 1.249 . S
C2364 O2381 1.252 . S
C2365 C2364 1.510 . S
C2365 C2366 1.404 . S
C2365 C2367 1.352 . S
C2366 C2365 1.404 . S
C2366 C2370 1.389 . S
C2366 H2388 0.930 . S
C2367 C2365 1.352 . S
C2367 C2369 1.374 . S
C2367 H2389 0.931 . S
C2368 C2369 1.359 . S
C2368 C2370 1.364 . S
C2369 C2367 1.374 . S
C2369 C2368 1.359 . S
C2369 H2390 0.931 . S
C2370 C2366 1.389 . S
C2370 C2368 1.364 . S
C2370 H2391 0.931 . S
C2371 O2382 1.256 . S
C2371 O2383 1.257 . S
O2372 Gd2352 2.377 . S
O2372 C2354 1.240 . S
O2373 Gd2353 2.395 . S
O2373 C2354 1.240 1_556 S
O2374 Gd2352 2.411 1_565 S
O2374 C2355 1.210 1_565 S
O2375 Gd2352 2.506 . S
O2375 C2355 1.252 . S
O2376 Gd2352 2.435 1_565 S
O2376 C2362 1.230 1_554 S
O2377 Gd2352 2.717 1_556 S
O2377 Gd2353 2.327 . S
O2377 C2362 1.266 1_545 S
O2378 Gd2353 2.377 . S
O2378 C2363 1.240 1_556 S
O2379 Gd2352 2.395 . S
O2379 C2363 1.240 . S
O2380 Gd2353 2.448 . S
O2380 C2364 1.249 . S
O2381 Gd2353 2.506 . S
O2381 C2364 1.252 . S
O2382 Gd2353 2.435 1_554 S
O2382 C2371 1.256 . S
O2383 Gd2352 2.327 . S
O2383 Gd2353 2.717 1_554 S
O2383 C2371 1.257 . S
H2384 C2357 0.930 . S
H2385 C2358 0.931 . S
H2386 C2360 0.931 . S
H2387 C2361 0.931 . S
H2388 C2366 0.930 . S
H2389 C2367 0.931 . S
H2390 C2369 0.931 . S
H2391 C2370 0.931 . S
Gd2392 C2395 2.818 . S
Gd2392 O2412 2.377 . S
Gd2392 O2414 2.448 . S
Gd2392 O2415 2.506 . S
Gd2392 O2416 2.435 . S
Gd2392 O2417 2.717 . S
Gd2392 O2419 2.395 . S
Gd2392 O2423 2.327 . S
Gd2393 C2404 2.818 . S
Gd2393 O2413 2.395 . S
Gd2393 O2417 2.327 . S
Gd2393 O2418 2.377 . S
Gd2393 O2420 2.448 . S
Gd2393 O2421 2.506 . S
Gd2393 O2422 2.435 . S
Gd2393 O2423 2.717 . S
C2394 O2412 1.240 . S
C2394 O2413 1.240 . S
C2395 Gd2392 2.818 . S
C2395 C2396 1.510 . S
C2395 O2414 1.249 . S
C2395 O2415 1.252 . S
C2396 C2395 1.510 . S
C2396 C2397 1.404 . S
C2396 C2398 1.352 . S
C2397 C2396 1.404 . S
C2397 C2401 1.389 . S
C2397 H2424 0.930 . S
C2398 C2396 1.352 . S
C2398 C2400 1.374 . S
C2398 H2425 0.931 . S
C2399 C2400 1.359 . S
C2399 C2401 1.364 . S
C2400 C2398 1.374 . S
C2400 C2399 1.359 . S
C2400 H2426 0.931 . S
C2401 C2397 1.389 . S
C2401 C2399 1.364 . S
C2401 H2427 0.931 . S
C2402 O2416 1.256 . S
C2402 O2417 1.257 . S
C2403 O2418 1.240 . S
C2403 O2419 1.240 . S
C2404 Gd2393 2.818 . S
C2404 C2405 1.510 . S
C2404 O2420 1.249 . S
C2404 O2421 1.252 . S
C2405 C2404 1.510 . S
C2405 C2406 1.404 . S
C2405 C2407 1.352 . S
C2406 C2405 1.404 . S
C2406 C2410 1.389 . S
C2406 H2428 0.930 . S
C2407 C2405 1.352 . S
C2407 C2409 1.374 . S
C2407 H2429 0.931 . S
C2408 C2409 1.359 . S
C2408 C2410 1.364 . S
C2409 C2407 1.374 . S
C2409 C2408 1.359 . S
C2409 H2430 0.931 . S
C2410 C2406 1.389 . S
C2410 C2408 1.364 . S
C2410 H2431 0.931 . S
C2411 O2422 1.256 . S
C2411 O2423 1.257 . S
O2412 Gd2392 2.377 . S
O2412 C2394 1.240 . S
O2413 Gd2393 2.395 . S
O2413 C2394 1.240 . S
O2414 Gd2392 2.448 . S
O2414 C2395 1.249 . S
O2415 Gd2392 2.506 . S
O2415 C2395 1.252 . S
O2416 Gd2392 2.435 . S
O2416 C2402 1.256 . S
O2417 Gd2392 2.717 . S
O2417 Gd2393 2.327 . S
O2417 C2402 1.257 . S
O2418 Gd2393 2.377 . S
O2418 C2403 1.240 . S
O2419 Gd2392 2.395 . S
O2419 C2403 1.240 . S
O2420 Gd2393 2.448 . S
O2420 C2404 1.249 . S
O2421 Gd2393 2.506 . S
O2421 C2404 1.252 . S
O2422 Gd2393 2.435 . S
O2422 C2411 1.256 . S
O2423 Gd2392 2.327 . S
O2423 Gd2393 2.717 . S
O2423 C2411 1.257 . S
H2424 C2397 0.930 . S
H2425 C2398 0.931 . S
H2426 C2400 0.931 . S
H2427 C2401 0.931 . S
H2428 C2406 0.930 . S
H2429 C2407 0.931 . S
H2430 C2409 0.931 . S
H2431 C2410 0.931 . S
Gd2432 C2435 2.839 . S
Gd2432 O2452 2.377 1_554 S
Gd2432 O2454 2.448 . S
Gd2432 O2455 2.503 . S
Gd2432 O2456 2.435 . S
Gd2432 O2457 2.717 . S
Gd2432 O2459 2.395 . S
Gd2432 O2463 2.327 . S
Gd2433 C2444 2.822 . S
Gd2433 O2453 2.389 1_554 S
Gd2433 O2457 2.330 . S
Gd2433 O2458 2.383 . S
Gd2433 O2460 2.451 . S
Gd2433 O2461 2.511 . S
Gd2433 O2462 2.441 . S
Gd2433 O2463 2.717 . S
C2434 O2452 1.240 . S
C2434 O2453 1.240 . S
C2435 Gd2432 2.839 . S
C2435 C2436 1.489 1_554 S
C2435 O2454 1.272 . S
C2435 O2455 1.250 . S
C2436 C2435 1.489 1_556 S
C2436 C2437 1.404 . S
C2436 C2438 1.352 . S
C2437 C2436 1.404 . S
C2437 C2441 1.389 . S
C2437 H2464 0.930 1_556 S
C2438 C2436 1.352 . S
C2438 C2440 1.374 . S
C2438 H2465 0.931 . S
C2439 C2440 1.359 . S
C2439 C2441 1.364 . S
C2440 C2438 1.374 . S
C2440 C2439 1.359 . S
C2440 H2466 0.931 . S
C2441 C2437 1.389 . S
C2441 C2439 1.364 . S
C2441 H2467 0.931 . S
C2442 O2456 1.256 . S
C2442 O2457 1.257 . S
C2443 O2458 1.240 . S
C2443 O2459 1.240 . S
C2444 Gd2433 2.822 . S
C2444 C2445 1.510 . S
C2444 O2460 1.249 . S
C2444 O2461 1.252 . S
C2445 C2444 1.510 . S
C2445 C2446 1.404 . S
C2445 C2447 1.352 . S
C2446 C2445 1.404 . S
C2446 C2450 1.389 . S
C2446 H2468 0.930 . S
C2447 C2445 1.352 . S
C2447 C2449 1.374 . S
C2447 H2469 0.931 . S
C2448 C2449 1.359 . S
C2448 C2450 1.364 . S
C2449 C2447 1.374 . S
C2449 C2448 1.359 . S
C2449 H2470 0.931 . S
C2450 C2446 1.389 . S
C2450 C2448 1.364 . S
C2450 H2471 0.931 . S
C2451 O2462 1.256 . S
C2451 O2463 1.257 . S
O2452 Gd2432 2.377 1_556 S
O2452 C2434 1.240 . S
O2453 Gd2433 2.389 1_556 S
O2453 C2434 1.240 . S
O2454 Gd2432 2.448 . S
O2454 C2435 1.272 . S
O2455 Gd2432 2.503 . S
O2455 C2435 1.250 . S
O2456 Gd2432 2.435 . S
O2456 C2442 1.256 . S
O2457 Gd2432 2.717 . S
O2457 Gd2433 2.330 . S
O2457 C2442 1.257 . S
O2458 Gd2433 2.383 . S
O2458 C2443 1.240 . S
O2459 Gd2432 2.395 . S
O2459 C2443 1.240 . S
O2460 Gd2433 2.451 . S
O2460 C2444 1.249 . S
O2461 Gd2433 2.511 . S
O2461 C2444 1.252 . S
O2462 Gd2433 2.441 . S
O2462 C2451 1.256 . S
O2463 Gd2432 2.327 . S
O2463 Gd2433 2.717 . S
O2463 C2451 1.257 . S
H2464 C2437 0.930 1_554 S
H2465 C2438 0.931 . S
H2466 C2440 0.931 . S
H2467 C2441 0.931 . S
H2468 C2446 0.930 . S
H2469 C2447 0.931 . S
H2470 C2449 0.931 . S
H2471 C2450 0.931 . S
Gd2472 C2475 2.818 . S
Gd2472 O2492 2.377 . S
Gd2472 O2494 2.448 . S
Gd2472 O2495 2.506 . S
Gd2472 O2496 2.435 . S
Gd2472 O2497 2.717 . S
Gd2472 O2499 2.395 . S
Gd2472 O2503 2.327 . S
Gd2473 C2484 2.818 . S
Gd2473 O2493 2.395 . S
Gd2473 O2497 2.327 . S
Gd2473 O2498 2.377 . S
Gd2473 O2500 2.448 . S
Gd2473 O2501 2.506 . S
Gd2473 O2502 2.435 . S
Gd2473 O2503 2.717 . S
C2474 O2492 1.240 . S
C2474 O2493 1.240 . S
C2475 Gd2472 2.818 . S
C2475 C2476 1.510 . S
C2475 O2494 1.249 . S
C2475 O2495 1.252 . S
C2476 C2475 1.510 . S
C2476 C2477 1.404 . S
C2476 C2478 1.352 . S
C2477 C2476 1.404 . S
C2477 C2481 1.389 . S
C2477 H2504 0.930 . S
C2478 C2476 1.352 . S
C2478 C2480 1.374 . S
C2478 H2505 0.931 . S
C2479 C2480 1.359 . S
C2479 C2481 1.364 . S
C2480 C2478 1.374 . S
C2480 C2479 1.359 . S
C2480 H2506 0.931 . S
C2481 C2477 1.389 . S
C2481 C2479 1.364 . S
C2481 H2507 0.931 . S
C2482 O2496 1.256 . S
C2482 O2497 1.257 . S
C2483 O2498 1.240 . S
C2483 O2499 1.240 . S
C2484 Gd2473 2.818 . S
C2484 C2485 1.510 . S
C2484 O2500 1.249 . S
C2484 O2501 1.252 . S
C2485 C2484 1.510 . S
C2485 C2486 1.404 . S
C2485 C2487 1.352 . S
C2486 C2485 1.404 . S
C2486 C2490 1.389 . S
C2486 H2508 0.930 . S
C2487 C2485 1.352 . S
C2487 C2489 1.374 . S
C2487 H2509 0.931 . S
C2488 C2489 1.359 . S
C2488 C2490 1.364 . S
C2489 C2487 1.374 . S
C2489 C2488 1.359 . S
C2489 H2510 0.931 . S
C2490 C2486 1.389 . S
C2490 C2488 1.364 . S
C2490 H2511 0.931 . S
C2491 O2502 1.256 . S
C2491 O2503 1.257 . S
O2492 Gd2472 2.377 . S
O2492 C2474 1.240 . S
O2493 Gd2473 2.395 . S
O2493 C2474 1.240 . S
O2494 Gd2472 2.448 . S
O2494 C2475 1.249 . S
O2495 Gd2472 2.506 . S
O2495 C2475 1.252 . S
O2496 Gd2472 2.435 . S
O2496 C2482 1.256 . S
O2497 Gd2472 2.717 . S
O2497 Gd2473 2.327 . S
O2497 C2482 1.257 . S
O2498 Gd2473 2.377 . S
O2498 C2483 1.240 . S
O2499 Gd2472 2.395 . S
O2499 C2483 1.240 . S
O2500 Gd2473 2.448 . S
O2500 C2484 1.249 . S
O2501 Gd2473 2.506 . S
O2501 C2484 1.252 . S
O2502 Gd2473 2.435 . S
O2502 C2491 1.256 . S
O2503 Gd2472 2.327 . S
O2503 Gd2473 2.717 . S
O2503 C2491 1.257 . S
H2504 C2477 0.930 . S
H2505 C2478 0.931 . S
H2506 C2480 0.931 . S
H2507 C2481 0.931 . S
H2508 C2486 0.930 . S
H2509 C2487 0.931 . S
H2510 C2489 0.931 . S
H2511 C2490 0.931 . S
Gd2512 C2515 2.818 . S
Gd2512 O2532 2.377 . S
Gd2512 O2534 2.448 . S
Gd2512 O2535 2.506 . S
Gd2512 O2536 2.435 . S
Gd2512 O2537 2.717 . S
Gd2512 O2539 2.395 . S
Gd2512 O2543 2.327 . S
Gd2513 C2524 2.818 . S
Gd2513 O2533 2.395 . S
Gd2513 O2537 2.327 . S
Gd2513 O2538 2.377 . S
Gd2513 O2540 2.448 . S
Gd2513 O2541 2.506 . S
Gd2513 O2542 2.435 . S
Gd2513 O2543 2.717 . S
C2514 O2532 1.240 . S
C2514 O2533 1.240 . S
C2515 Gd2512 2.818 . S
C2515 C2516 1.510 . S
C2515 O2534 1.249 . S
C2515 O2535 1.252 . S
C2516 C2515 1.510 . S
C2516 C2517 1.404 . S
C2516 C2518 1.352 . S
C2517 C2516 1.404 . S
C2517 C2521 1.389 . S
C2517 H2544 0.930 . S
C2518 C2516 1.352 . S
C2518 C2520 1.374 1_455 S
C2518 H2545 0.943 . S
C2519 C2520 1.359 . S
C2519 C2521 1.364 1_655 S
C2520 C2518 1.374 1_655 S
C2520 C2519 1.359 . S
C2520 H2546 0.931 . S
C2521 C2517 1.389 . S
C2521 C2519 1.364 1_455 S
C2521 H2547 0.931 . S
C2522 O2536 1.256 . S
C2522 O2537 1.257 . S
C2523 O2538 1.240 . S
C2523 O2539 1.240 . S
C2524 Gd2513 2.818 . S
C2524 C2525 1.510 . S
C2524 O2540 1.249 . S
C2524 O2541 1.252 . S
C2525 C2524 1.510 . S
C2525 C2526 1.404 . S
C2525 C2527 1.352 . S
C2526 C2525 1.404 . S
C2526 C2530 1.389 . S
C2526 H2548 0.930 . S
C2527 C2525 1.352 . S
C2527 C2529 1.374 . S
C2527 H2549 0.931 . S
C2528 C2529 1.359 . S
C2528 C2530 1.364 . S
C2529 C2527 1.374 . S
C2529 C2528 1.359 . S
C2529 H2550 0.931 . S
C2530 C2526 1.389 . S
C2530 C2528 1.364 . S
C2530 H2551 0.931 . S
C2531 O2542 1.256 . S
C2531 O2543 1.257 . S
O2532 Gd2512 2.377 . S
O2532 C2514 1.240 . S
O2533 Gd2513 2.395 . S
O2533 C2514 1.240 . S
O2534 Gd2512 2.448 . S
O2534 C2515 1.249 . S
O2535 Gd2512 2.506 . S
O2535 C2515 1.252 . S
O2536 Gd2512 2.435 . S
O2536 C2522 1.256 . S
O2537 Gd2512 2.717 . S
O2537 Gd2513 2.327 . S
O2537 C2522 1.257 . S
O2538 Gd2513 2.377 . S
O2538 C2523 1.240 . S
O2539 Gd2512 2.395 . S
O2539 C2523 1.240 . S
O2540 Gd2513 2.448 . S
O2540 C2524 1.249 . S
O2541 Gd2513 2.506 . S
O2541 C2524 1.252 . S
O2542 Gd2513 2.435 . S
O2542 C2531 1.256 . S
O2543 Gd2512 2.327 . S
O2543 Gd2513 2.717 . S
O2543 C2531 1.257 . S
H2544 C2517 0.930 . S
H2545 C2518 0.943 . S
H2546 C2520 0.931 . S
H2547 C2521 0.931 . S
H2548 C2526 0.930 . S
H2549 C2527 0.931 . S
H2550 C2529 0.931 . S
H2551 C2530 0.931 . S
Gd2552 C2555 2.818 . S
Gd2552 O2572 2.377 . S
Gd2552 O2574 2.448 . S
Gd2552 O2575 2.506 . S
Gd2552 O2576 2.435 . S
Gd2552 O2577 2.717 . S
Gd2552 O2579 2.395 . S
Gd2552 O2583 2.327 . S
Gd2553 C2564 2.818 . S
Gd2553 O2573 2.395 . S
Gd2553 O2577 2.327 . S
Gd2553 O2578 2.377 . S
Gd2553 O2580 2.448 . S
Gd2553 O2581 2.506 . S
Gd2553 O2582 2.435 . S
Gd2553 O2583 2.717 . S
C2554 O2572 1.240 . S
C2554 O2573 1.240 . S
C2555 Gd2552 2.818 . S
C2555 C2556 1.510 . S
C2555 O2574 1.249 . S
C2555 O2575 1.252 . S
C2556 C2555 1.510 . S
C2556 C2557 1.404 . S
C2556 C2558 1.352 . S
C2557 C2556 1.404 . S
C2557 C2561 1.389 . S
C2557 H2584 0.930 . S
C2558 C2556 1.352 . S
C2558 C2560 1.374 . S
C2558 H2585 0.931 . S
C2559 C2560 1.359 . S
C2559 C2561 1.364 . S
C2560 C2558 1.374 . S
C2560 C2559 1.359 . S
C2560 H2586 0.931 . S
C2561 C2557 1.389 . S
C2561 C2559 1.364 . S
C2561 H2587 0.931 . S
C2562 O2576 1.256 . S
C2562 O2577 1.257 . S
C2563 O2578 1.240 . S
C2563 O2579 1.240 . S
C2564 Gd2553 2.818 . S
C2564 C2565 1.510 . S
C2564 O2580 1.249 . S
C2564 O2581 1.252 . S
C2565 C2564 1.510 . S
C2565 C2566 1.404 . S
C2565 C2567 1.352 . S
C2566 C2565 1.404 . S
C2566 C2570 1.389 . S
C2566 H2588 0.930 . S
C2567 C2565 1.352 . S
C2567 C2569 1.374 . S
C2567 H2589 0.931 . S
C2568 C2569 1.359 . S
C2568 C2570 1.364 . S
C2569 C2567 1.374 . S
C2569 C2568 1.359 . S
C2569 H2590 0.931 . S
C2570 C2566 1.389 . S
C2570 C2568 1.364 . S
C2570 H2591 0.931 . S
C2571 O2582 1.256 . S
C2571 O2583 1.257 . S
O2572 Gd2552 2.377 . S
O2572 C2554 1.240 . S
O2573 Gd2553 2.395 . S
O2573 C2554 1.240 . S
O2574 Gd2552 2.448 . S
O2574 C2555 1.249 . S
O2575 Gd2552 2.506 . S
O2575 C2555 1.252 . S
O2576 Gd2552 2.435 . S
O2576 C2562 1.256 . S
O2577 Gd2552 2.717 . S
O2577 Gd2553 2.327 . S
O2577 C2562 1.257 . S
O2578 Gd2553 2.377 . S
O2578 C2563 1.240 . S
O2579 Gd2552 2.395 . S
O2579 C2563 1.240 . S
O2580 Gd2553 2.448 . S
O2580 C2564 1.249 . S
O2581 Gd2553 2.506 . S
O2581 C2564 1.252 . S
O2582 Gd2553 2.435 . S
O2582 C2571 1.256 . S
O2583 Gd2552 2.327 . S
O2583 Gd2553 2.717 . S
O2583 C2571 1.257 . S
H2584 C2557 0.930 . S
H2585 C2558 0.931 . S
H2586 C2560 0.931 . S
H2587 C2561 0.931 . S
H2588 C2566 0.930 . S
H2589 C2567 0.931 . S
H2590 C2569 0.931 . S
H2591 C2570 0.931 . S
Gd2592 C2595 2.818 . S
Gd2592 O2612 2.377 . S
Gd2592 O2614 2.448 . S
Gd2592 O2615 2.506 . S
Gd2592 O2616 2.435 . S
Gd2592 O2617 2.717 . S
Gd2592 O2619 2.395 . S
Gd2592 O2623 2.327 . S
Gd2593 C2604 2.818 . S
Gd2593 O2613 2.395 . S
Gd2593 O2617 2.327 . S
Gd2593 O2618 2.377 . S
Gd2593 O2620 2.448 . S
Gd2593 O2621 2.506 . S
Gd2593 O2622 2.435 . S
Gd2593 O2623 2.717 . S
C2594 O2612 1.240 . S
C2594 O2613 1.240 . S
C2595 Gd2592 2.818 . S
C2595 C2596 1.510 . S
C2595 O2614 1.249 . S
C2595 O2615 1.252 . S
C2596 C2595 1.510 . S
C2596 C2597 1.404 . S
C2596 C2598 1.352 . S
C2597 C2596 1.404 . S
C2597 C2601 1.389 . S
C2597 H2624 0.930 . S
C2598 C2596 1.352 . S
C2598 C2600 1.374 . S
C2598 H2625 0.931 . S
C2599 C2600 1.359 . S
C2599 C2601 1.364 . S
C2600 C2598 1.374 . S
C2600 C2599 1.359 . S
C2600 H2626 0.931 . S
C2601 C2597 1.389 . S
C2601 C2599 1.364 . S
C2601 H2627 0.931 . S
C2602 O2616 1.256 . S
C2602 O2617 1.257 . S
C2603 O2618 1.240 . S
C2603 O2619 1.240 . S
C2604 Gd2593 2.818 . S
C2604 C2605 1.510 . S
C2604 O2620 1.249 . S
C2604 O2621 1.252 . S
C2605 C2604 1.510 . S
C2605 C2606 1.404 . S
C2605 C2607 1.352 . S
C2606 C2605 1.404 . S
C2606 C2610 1.389 . S
C2606 H2628 0.930 . S
C2607 C2605 1.352 . S
C2607 C2609 1.374 . S
C2607 H2629 0.931 . S
C2608 C2609 1.359 . S
C2608 C2610 1.364 . S
C2609 C2607 1.374 . S
C2609 C2608 1.359 . S
C2609 H2630 0.931 . S
C2610 C2606 1.389 . S
C2610 C2608 1.364 . S
C2610 H2631 0.931 . S
C2611 O2622 1.256 . S
C2611 O2623 1.257 . S
O2612 Gd2592 2.377 . S
O2612 C2594 1.240 . S
O2613 Gd2593 2.395 . S
O2613 C2594 1.240 . S
O2614 Gd2592 2.448 . S
O2614 C2595 1.249 . S
O2615 Gd2592 2.506 . S
O2615 C2595 1.252 . S
O2616 Gd2592 2.435 . S
O2616 C2602 1.256 . S
O2617 Gd2592 2.717 . S
O2617 Gd2593 2.327 . S
O2617 C2602 1.257 . S
O2618 Gd2593 2.377 . S
O2618 C2603 1.240 . S
O2619 Gd2592 2.395 . S
O2619 C2603 1.240 . S
O2620 Gd2593 2.448 . S
O2620 C2604 1.249 . S
O2621 Gd2593 2.506 . S
O2621 C2604 1.252 . S
O2622 Gd2593 2.435 . S
O2622 C2611 1.256 . S
O2623 Gd2592 2.327 . S
O2623 Gd2593 2.717 . S
O2623 C2611 1.257 . S
H2624 C2597 0.930 . S
H2625 C2598 0.931 . S
H2626 C2600 0.931 . S
H2627 C2601 0.931 . S
H2628 C2606 0.930 . S
H2629 C2607 0.931 . S
H2630 C2609 0.931 . S
H2631 C2610 0.931 . S
Gd2632 C2635 2.818 . S
Gd2632 O2652 2.377 . S
Gd2632 O2654 2.448 . S
Gd2632 O2655 2.506 . S
Gd2632 O2656 2.435 . S
Gd2632 O2657 2.717 . S
Gd2632 O2659 2.395 . S
Gd2632 O2663 2.327 . S
Gd2633 C2644 2.818 . S
Gd2633 O2653 2.395 . S
Gd2633 O2657 2.327 . S
Gd2633 O2658 2.377 . S
Gd2633 O2660 2.448 . S
Gd2633 O2661 2.506 . S
Gd2633 O2662 2.435 . S
Gd2633 O2663 2.717 . S
C2634 O2652 1.240 . S
C2634 O2653 1.240 . S
C2635 Gd2632 2.818 . S
C2635 C2636 1.510 . S
C2635 O2654 1.249 . S
C2635 O2655 1.252 . S
C2636 C2635 1.510 . S
C2636 C2637 1.404 . S
C2636 C2638 1.352 . S
C2637 C2636 1.404 . S
C2637 C2641 1.389 . S
C2637 H2664 0.930 . S
C2638 C2636 1.352 . S
C2638 C2640 1.374 . S
C2638 H2665 0.931 . S
C2639 C2640 1.359 . S
C2639 C2641 1.364 . S
C2640 C2638 1.374 . S
C2640 C2639 1.359 . S
C2640 H2666 0.931 . S
C2641 C2637 1.389 . S
C2641 C2639 1.364 . S
C2641 H2667 0.931 . S
C2642 O2656 1.256 . S
C2642 O2657 1.257 . S
C2643 O2658 1.240 . S
C2643 O2659 1.240 . S
C2644 Gd2633 2.818 . S
C2644 C2645 1.510 . S
C2644 O2660 1.249 . S
C2644 O2661 1.252 . S
C2645 C2644 1.510 . S
C2645 C2646 1.404 . S
C2645 C2647 1.352 . S
C2646 C2645 1.404 . S
C2646 C2650 1.389 . S
C2646 H2668 0.930 . S
C2647 C2645 1.352 . S
C2647 C2649 1.374 . S
C2647 H2669 0.931 . S
C2648 C2649 1.359 . S
C2648 C2650 1.364 . S
C2649 C2647 1.374 . S
C2649 C2648 1.359 . S
C2649 H2670 0.931 . S
C2650 C2646 1.389 . S
C2650 C2648 1.364 . S
C2650 H2671 0.931 . S
C2651 O2662 1.256 . S
C2651 O2663 1.257 . S
O2652 Gd2632 2.377 . S
O2652 C2634 1.240 . S
O2653 Gd2633 2.395 . S
O2653 C2634 1.240 . S
O2654 Gd2632 2.448 . S
O2654 C2635 1.249 . S
O2655 Gd2632 2.506 . S
O2655 C2635 1.252 . S
O2656 Gd2632 2.435 . S
O2656 C2642 1.256 . S
O2657 Gd2632 2.717 . S
O2657 Gd2633 2.327 . S
O2657 C2642 1.257 . S
O2658 Gd2633 2.377 . S
O2658 C2643 1.240 . S
O2659 Gd2632 2.395 . S
O2659 C2643 1.240 . S
O2660 Gd2633 2.448 . S
O2660 C2644 1.249 . S
O2661 Gd2633 2.506 . S
O2661 C2644 1.252 . S
O2662 Gd2633 2.435 . S
O2662 C2651 1.256 . S
O2663 Gd2632 2.327 . S
O2663 Gd2633 2.717 . S
O2663 C2651 1.257 . S
H2664 C2637 0.930 . S
H2665 C2638 0.931 . S
H2666 C2640 0.931 . S
H2667 C2641 0.931 . S
H2668 C2646 0.930 . S
H2669 C2647 0.931 . S
H2670 C2649 0.931 . S
H2671 C2650 0.931 . S
Gd2672 C2675 2.818 . S
Gd2672 O2692 2.377 . S
Gd2672 O2694 2.448 . S
Gd2672 O2695 2.506 . S
Gd2672 O2696 2.435 . S
Gd2672 O2697 2.717 . S
Gd2672 O2699 2.395 . S
Gd2672 O2703 2.327 . S
Gd2673 C2684 2.818 . S
Gd2673 O2693 2.395 . S
Gd2673 O2697 2.327 . S
Gd2673 O2698 2.377 . S
Gd2673 O2700 2.448 . S
Gd2673 O2701 2.506 . S
Gd2673 O2702 2.435 . S
Gd2673 O2703 2.717 . S
C2674 O2692 1.240 . S
C2674 O2693 1.240 . S
C2675 Gd2672 2.818 . S
C2675 C2676 1.510 . S
C2675 O2694 1.249 . S
C2675 O2695 1.252 . S
C2676 C2675 1.510 . S
C2676 C2677 1.404 . S
C2676 C2678 1.352 . S
C2677 C2676 1.404 . S
C2677 C2681 1.389 . S
C2677 H2704 0.930 . S
C2678 C2676 1.352 . S
C2678 C2680 1.374 . S
C2678 H2705 0.931 . S
C2679 C2680 1.359 . S
C2679 C2681 1.364 . S
C2680 C2678 1.374 . S
C2680 C2679 1.359 . S
C2680 H2706 0.931 . S
C2681 C2677 1.389 . S
C2681 C2679 1.364 . S
C2681 H2707 0.931 . S
C2682 O2696 1.256 . S
C2682 O2697 1.257 . S
C2683 O2698 1.240 . S
C2683 O2699 1.240 . S
C2684 Gd2673 2.818 . S
C2684 C2685 1.510 . S
C2684 O2700 1.249 . S
C2684 O2701 1.252 . S
C2685 C2684 1.510 . S
C2685 C2686 1.404 . S
C2685 C2687 1.352 . S
C2686 C2685 1.404 . S
C2686 C2690 1.389 . S
C2686 H2708 0.930 . S
C2687 C2685 1.352 . S
C2687 C2689 1.374 . S
C2687 H2709 0.931 . S
C2688 C2689 1.359 . S
C2688 C2690 1.364 . S
C2689 C2687 1.374 . S
C2689 C2688 1.359 . S
C2689 H2710 0.931 . S
C2690 C2686 1.389 . S
C2690 C2688 1.364 . S
C2690 H2711 0.931 . S
C2691 O2702 1.256 . S
C2691 O2703 1.257 . S
O2692 Gd2672 2.377 . S
O2692 C2674 1.240 . S
O2693 Gd2673 2.395 . S
O2693 C2674 1.240 . S
O2694 Gd2672 2.448 . S
O2694 C2675 1.249 . S
O2695 Gd2672 2.506 . S
O2695 C2675 1.252 . S
O2696 Gd2672 2.435 . S
O2696 C2682 1.256 . S
O2697 Gd2672 2.717 . S
O2697 Gd2673 2.327 . S
O2697 C2682 1.257 . S
O2698 Gd2673 2.377 . S
O2698 C2683 1.240 . S
O2699 Gd2672 2.395 . S
O2699 C2683 1.240 . S
O2700 Gd2673 2.448 . S
O2700 C2684 1.249 . S
O2701 Gd2673 2.506 . S
O2701 C2684 1.252 . S
O2702 Gd2673 2.435 . S
O2702 C2691 1.256 . S
O2703 Gd2672 2.327 . S
O2703 Gd2673 2.717 . S
O2703 C2691 1.257 . S
H2704 C2677 0.930 . S
H2705 C2678 0.931 . S
H2706 C2680 0.931 . S
H2707 C2681 0.931 . S
H2708 C2686 0.930 . S
H2709 C2687 0.931 . S
H2710 C2689 0.931 . S
H2711 C2690 0.931 . S
Gd2712 C2715 2.818 1_554 S
Gd2712 O2732 2.377 1_554 S
Gd2712 O2734 2.448 1_554 S
Gd2712 O2735 2.506 . S
Gd2712 O2736 2.435 1_554 S
Gd2712 O2737 2.717 1_554 S
Gd2712 O2739 2.395 . S
Gd2712 O2743 2.327 . S
Gd2713 C2724 2.818 1_455 S
Gd2713 O2733 2.395 . S
Gd2713 O2737 2.327 1_554 S
Gd2713 O2738 2.377 . S
Gd2713 O2740 2.448 1_455 S
Gd2713 O2741 2.506 1_455 S
Gd2713 O2742 2.435 . S
Gd2713 O2743 2.717 . S
C2714 O2732 1.240 1_554 S
C2714 O2733 1.240 . S
C2715 Gd2712 2.818 1_556 S
C2715 C2716 1.510 . S
C2715 O2734 1.249 . S
C2715 O2735 1.252 1_556 S
C2716 C2715 1.510 . S
C2716 C2717 1.404 . S
C2716 C2718 1.352 1_556 S
C2717 C2716 1.404 . S
C2717 C2721 1.389 . S
C2717 H2744 0.930 . S
C2718 C2716 1.352 1_554 S
C2718 C2720 1.374 . S
C2718 H2745 0.931 . S
C2719 C2720 1.359 1_556 S
C2719 C2721 1.364 . S
C2720 C2718 1.374 . S
C2720 C2719 1.359 1_554 S
C2720 H2746 0.931 . S
C2721 C2717 1.389 . S
C2721 C2719 1.364 . S
C2721 H2747 0.931 . S
C2722 O2736 1.256 . S
C2722 O2737 1.257 . S
C2723 O2738 1.240 . S
C2723 O2739 1.240 . S
C2724 Gd2713 2.818 1_655 S
C2724 C2725 1.510 . S
C2724 O2740 1.249 . S
C2724 O2741 1.252 . S
C2725 C2724 1.510 . S
C2725 C2726 1.404 . S
C2725 C2727 1.352 . S
C2726 C2725 1.404 . S
C2726 C2730 1.389 . S
C2726 H2748 0.930 . S
C2727 C2725 1.352 . S
C2727 C2729 1.374 . S
C2727 H2749 0.931 . S
C2728 C2729 1.359 . S
C2728 C2730 1.364 . S
C2729 C2727 1.374 . S
C2729 C2728 1.359 . S
C2729 H2750 0.931 . S
C2730 C2726 1.389 . S
C2730 C2728 1.364 . S
C2730 H2751 0.931 . S
C2731 O2742 1.256 . S
C2731 O2743 1.257 . S
O2732 Gd2712 2.377 1_556 S
O2732 C2714 1.240 1_556 S
O2733 Gd2713 2.395 . S
O2733 C2714 1.240 . S
O2734 Gd2712 2.448 1_556 S
O2734 C2715 1.249 . S
O2735 Gd2712 2.506 . S
O2735 C2715 1.252 1_554 S
O2736 Gd2712 2.435 1_556 S
O2736 C2722 1.256 . S
O2737 Gd2712 2.717 1_556 S
O2737 Gd2713 2.327 1_556 S
O2737 C2722 1.257 . S
O2738 Gd2713 2.377 . S
O2738 C2723 1.240 . S
O2739 Gd2712 2.395 . S
O2739 C2723 1.240 . S
O2740 Gd2713 2.448 1_655 S
O2740 C2724 1.249 . S
O2741 Gd2713 2.506 1_655 S
O2741 C2724 1.252 . S
O2742 Gd2713 2.435 . S
O2742 C2731 1.256 . S
O2743 Gd2712 2.327 . S
O2743 Gd2713 2.717 . S
O2743 C2731 1.257 . S
H2744 C2717 0.930 . S
H2745 C2718 0.931 . S
H2746 C2720 0.931 . S
H2747 C2721 0.931 . S
H2748 C2726 0.930 . S
H2749 C2727 0.931 . S
H2750 C2729 0.931 . S
H2751 C2730 0.931 . S
H2752 C2758 0.930 1_655 S
H2753 C2761 0.930 . S
H2754 C2762 0.930 1_554 S
H2755 C2763 0.936 . S
H2756 C2766 0.930 . S
H2757 C2767 0.930 1_655 S
C2758 H2752 0.930 1_455 S
C2758 C2759 1.355 . S
C2758 C2760 1.415 . S
C2759 C2758 1.355 . S
C2759 C2761 1.419 . S
C2760 C2758 1.415 . S
C2760 C2765 1.425 . S
C2760 C2767 1.409 . S
C2761 H2753 0.930 . S
C2761 C2759 1.419 . S
C2761 C2762 1.362 . S
C2762 H2754 0.930 1_556 S
C2762 C2761 1.362 . S
C2762 C2765 1.409 . S
C2763 H2755 0.936 . S
C2763 C2764 1.359 1_554 S
C2763 C2765 1.405 1_554 S
C2764 C2763 1.359 1_556 S
C2764 C2766 1.419 . S
C2765 C2760 1.425 . S
C2765 C2762 1.409 . S
C2765 C2763 1.405 1_556 S
C2766 H2756 0.930 . S
C2766 C2764 1.419 . S
C2766 C2767 1.362 . S
C2767 H2757 0.930 1_455 S
C2767 C2760 1.409 . S
C2767 C2766 1.362 . S
H2768 C2774 0.930 . S
H2769 C2777 0.930 . S
H2770 C2778 0.930 . S
H2771 C2779 0.930 . S
H2772 C2782 0.930 . S
H2773 C2783 0.930 . S
C2774 H2768 0.930 . S
C2774 C2775 1.355 . S
C2774 C2776 1.415 . S
C2775 C2774 1.355 . S
C2775 C2777 1.419 . S
C2776 C2774 1.415 . S
C2776 C2781 1.425 . S
C2776 C2783 1.409 . S
C2777 H2769 0.930 . S
C2777 C2775 1.419 . S
C2777 C2778 1.362 . S
C2778 H2770 0.930 . S
C2778 C2777 1.362 . S
C2778 C2781 1.409 . S
C2779 H2771 0.930 . S
C2779 C2780 1.355 . S
C2779 C2781 1.415 . S
C2780 C2779 1.355 . S
C2780 C2782 1.419 . S
C2781 C2776 1.425 . S
C2781 C2778 1.409 . S
C2781 C2779 1.415 . S
C2782 H2772 0.930 . S
C2782 C2780 1.419 . S
C2782 C2783 1.362 . S
C2783 H2773 0.930 . S
C2783 C2776 1.409 . S
C2783 C2782 1.362 . S
H2784 C2790 0.930 . S
H2785 C2793 0.930 . S
H2786 C2794 0.930 . S
H2787 C2795 0.930 . S
H2788 C2798 0.930 . S
H2789 C2799 0.930 . S
C2790 H2784 0.930 . S
C2790 C2791 1.355 . S
C2790 C2792 1.415 . S
C2791 C2790 1.355 . S
C2791 C2793 1.419 . S
C2792 C2790 1.415 . S
C2792 C2797 1.425 . S
C2792 C2799 1.409 . S
C2793 H2785 0.930 . S
C2793 C2791 1.419 . S
C2793 C2794 1.362 . S
C2794 H2786 0.930 . S
C2794 C2793 1.362 . S
C2794 C2797 1.409 . S
C2795 H2787 0.930 . S
C2795 C2796 1.355 . S
C2795 C2797 1.415 . S
C2796 C2795 1.355 . S
C2796 C2798 1.419 . S
C2797 C2792 1.425 . S
C2797 C2794 1.409 . S
C2797 C2795 1.415 . S
C2798 H2788 0.930 . S
C2798 C2796 1.419 . S
C2798 C2799 1.362 . S
C2799 H2789 0.930 . S
C2799 C2792 1.409 . S
C2799 C2798 1.362 . S
H2800 C2806 0.930 . S
H2801 C2809 0.930 . S
H2802 C2810 0.930 . S
H2803 C2811 0.930 . S
H2804 C2814 0.930 . S
H2805 C2815 0.930 . S
C2806 H2800 0.930 . S
C2806 C2807 1.355 . S
C2806 C2808 1.415 . S
C2807 C2806 1.355 . S
C2807 C2809 1.419 . S
C2808 C2806 1.415 . S
C2808 C2813 1.425 . S
C2808 C2815 1.409 . S
C2809 H2801 0.930 . S
C2809 C2807 1.419 . S
C2809 C2810 1.362 . S
C2810 H2802 0.930 . S
C2810 C2809 1.362 . S
C2810 C2813 1.409 . S
C2811 H2803 0.930 . S
C2811 C2812 1.355 . S
C2811 C2813 1.415 . S
C2812 C2811 1.355 . S
C2812 C2814 1.419 . S
C2813 C2808 1.425 . S
C2813 C2810 1.409 . S
C2813 C2811 1.415 . S
C2814 H2804 0.930 . S
C2814 C2812 1.419 . S
C2814 C2815 1.362 . S
C2815 H2805 0.930 . S
C2815 C2808 1.409 . S
C2815 C2814 1.362 . S
H2816 C2822 0.930 1_655 S
H2817 C2825 0.930 . S
H2818 C2826 0.930 . S
H2819 C2827 0.930 . S
H2820 C2830 0.930 . S
H2821 C2831 0.930 . S
C2822 H2816 0.930 1_455 S
C2822 C2823 1.355 . S
C2822 C2824 1.415 . S
C2823 C2822 1.355 . S
C2823 C2825 1.419 . S
C2824 C2822 1.415 . S
C2824 C2829 1.425 . S
C2824 C2831 1.409 . S
C2825 H2817 0.930 . S
C2825 C2823 1.419 . S
C2825 C2826 1.362 . S
C2826 H2818 0.930 . S
C2826 C2825 1.362 . S
C2826 C2829 1.409 . S
C2827 H2819 0.930 . S
C2827 C2828 1.355 . S
C2827 C2829 1.415 . S
C2828 C2827 1.355 . S
C2828 C2830 1.419 . S
C2829 C2824 1.425 . S
C2829 C2826 1.409 . S
C2829 C2827 1.415 . S
C2830 H2820 0.930 . S
C2830 C2828 1.419 . S
C2830 C2831 1.362 . S
C2831 H2821 0.930 . S
C2831 C2824 1.409 . S
C2831 C2830 1.362 . S
H2832 C2838 0.930 . S
H2833 C2841 0.930 . S
H2834 C2842 0.930 . S
H2835 C2843 0.930 . S
H2836 C2846 0.930 . S
H2837 C2847 0.930 . S
C2838 H2832 0.930 . S
C2838 C2839 1.355 . S
C2838 C2840 1.415 . S
C2839 C2838 1.355 . S
C2839 C2841 1.419 . S
C2840 C2838 1.415 . S
C2840 C2845 1.425 . S
C2840 C2847 1.409 . S
C2841 H2833 0.930 . S
C2841 C2839 1.419 . S
C2841 C2842 1.362 . S
C2842 H2834 0.930 . S
C2842 C2841 1.362 . S
C2842 C2845 1.409 . S
C2843 H2835 0.930 . S
C2843 C2844 1.355 . S
C2843 C2845 1.415 . S
C2844 C2843 1.355 . S
C2844 C2846 1.419 . S
C2845 C2840 1.425 . S
C2845 C2842 1.409 . S
C2845 C2843 1.415 . S
C2846 H2836 0.930 . S
C2846 C2844 1.419 . S
C2846 C2847 1.362 . S
C2847 H2837 0.930 . S
C2847 C2840 1.409 . S
C2847 C2846 1.362 . S
H2848 C2854 0.930 . S
H2849 C2857 0.930 . S
H2850 C2858 0.930 . S
H2851 C2859 0.930 . S
H2852 C2862 0.930 . S
H2853 C2863 0.930 . S
C2854 H2848 0.930 . S
C2854 C2855 1.355 . S
C2854 C2856 1.415 . S
C2855 C2854 1.355 . S
C2855 C2857 1.419 . S
C2856 C2854 1.415 . S
C2856 C2861 1.425 . S
C2856 C2863 1.409 . S
C2857 H2849 0.930 . S
C2857 C2855 1.419 . S
C2857 C2858 1.362 . S
C2858 H2850 0.930 . S
C2858 C2857 1.362 . S
C2858 C2861 1.409 . S
C2859 H2851 0.930 . S
C2859 C2860 1.355 . S
C2859 C2861 1.415 . S
C2860 C2859 1.355 . S
C2860 C2862 1.419 . S
C2861 C2856 1.425 . S
C2861 C2858 1.409 . S
C2861 C2859 1.415 . S
C2862 H2852 0.930 . S
C2862 C2860 1.419 . S
C2862 C2863 1.362 . S
C2863 H2853 0.930 . S
C2863 C2856 1.409 . S
C2863 C2862 1.362 . S
H2864 C2870 0.930 . S
H2865 C2873 0.930 . S
H2866 C2874 0.930 . S
H2867 C2875 0.930 . S
H2868 C2878 0.930 . S
H2869 C2879 0.930 . S
C2870 H2864 0.930 . S
C2870 C2871 1.355 . S
C2870 C2872 1.415 . S
C2871 C2870 1.355 . S
C2871 C2873 1.419 . S
C2872 C2870 1.415 . S
C2872 C2877 1.425 . S
C2872 C2879 1.409 . S
C2873 H2865 0.930 . S
C2873 C2871 1.419 . S
C2873 C2874 1.362 . S
C2874 H2866 0.930 . S
C2874 C2873 1.362 . S
C2874 C2877 1.409 . S
C2875 H2867 0.930 . S
C2875 C2876 1.355 . S
C2875 C2877 1.415 . S
C2876 C2875 1.355 . S
C2876 C2878 1.419 . S
C2877 C2872 1.425 . S
C2877 C2874 1.409 . S
C2877 C2875 1.415 . S
C2878 H2868 0.930 . S
C2878 C2876 1.419 . S
C2878 C2879 1.362 . S
C2879 H2869 0.930 . S
C2879 C2872 1.409 . S
C2879 C2878 1.362 . S
H2880 C2886 0.930 . S
H2881 C2889 0.930 . S
H2882 C2890 0.930 . S
H2883 C2891 0.930 . S
H2884 C2894 0.930 . S
H2885 C2895 0.930 . S
C2886 H2880 0.930 . S
C2886 C2887 1.355 1_655 S
C2886 C2888 1.415 1_655 S
C2887 C2886 1.355 1_455 S
C2887 C2889 1.419 . S
C2888 C2886 1.415 1_455 S
C2888 C2893 1.425 . S
C2888 C2895 1.409 1_455 S
C2889 H2881 0.930 . S
C2889 C2887 1.419 . S
C2889 C2890 1.362 . S
C2890 H2882 0.930 . S
C2890 C2889 1.362 . S
C2890 C2893 1.409 . S
C2891 H2883 0.930 . S
C2891 C2892 1.355 . S
C2891 C2893 1.415 . S
C2892 C2891 1.355 . S
C2892 C2894 1.419 . S
C2893 C2888 1.425 . S
C2893 C2890 1.409 . S
C2893 C2891 1.415 . S
C2894 H2884 0.930 . S
C2894 C2892 1.419 . S
C2894 C2895 1.362 1_455 S
C2895 H2885 0.930 . S
C2895 C2888 1.409 1_655 S
C2895 C2894 1.362 1_655 S
H2896 C2902 0.930 . S
H2897 C2905 0.930 . S
H2898 C2906 0.930 . S
H2899 C2907 0.930 . S
H2900 C2910 0.930 . S
H2901 C2911 0.930 . S
C2902 H2896 0.930 . S
C2902 C2903 1.355 . S
C2902 C2904 1.415 . S
C2903 C2902 1.355 . S
C2903 C2905 1.419 . S
C2904 C2902 1.415 . S
C2904 C2909 1.425 . S
C2904 C2911 1.409 . S
C2905 H2897 0.930 . S
C2905 C2903 1.419 . S
C2905 C2906 1.362 . S
C2906 H2898 0.930 . S
C2906 C2905 1.362 . S
C2906 C2909 1.409 . S
C2907 H2899 0.930 . S
C2907 C2908 1.355 . S
C2907 C2909 1.415 . S
C2908 C2907 1.355 . S
C2908 C2910 1.419 . S
C2909 C2904 1.425 . S
C2909 C2906 1.409 . S
C2909 C2907 1.415 . S
C2910 H2900 0.930 . S
C2910 C2908 1.419 . S
C2910 C2911 1.362 . S
C2911 H2901 0.930 . S
C2911 C2904 1.409 . S
C2911 C2910 1.362 . S
H2912 C2918 0.930 . S
H2913 C2921 0.930 . S
H2914 C2922 0.930 . S
H2915 C2923 0.930 . S
H2916 C2926 0.930 . S
H2917 C2927 0.930 . S
C2918 H2912 0.930 . S
C2918 C2919 1.355 . S
C2918 C2920 1.415 . S
C2919 C2918 1.355 . S
C2919 C2921 1.419 . S
C2920 C2918 1.415 . S
C2920 C2925 1.425 . S
C2920 C2927 1.409 . S
C2921 H2913 0.930 . S
C2921 C2919 1.419 . S
C2921 C2922 1.362 . S
C2922 H2914 0.930 . S
C2922 C2921 1.362 . S
C2922 C2925 1.409 . S
C2923 H2915 0.930 . S
C2923 C2924 1.355 . S
C2923 C2925 1.415 . S
C2924 C2923 1.355 . S
C2924 C2926 1.419 . S
C2925 C2920 1.425 . S
C2925 C2922 1.409 . S
C2925 C2923 1.415 . S
C2926 H2916 0.930 . S
C2926 C2924 1.419 . S
C2926 C2927 1.362 . S
C2927 H2917 0.930 . S
C2927 C2920 1.409 . S
C2927 C2926 1.362 . S
H2928 C2934 0.930 . S
H2929 C2937 0.930 . S
H2930 C2938 0.930 . S
H2931 C2939 0.930 . S
H2932 C2942 0.930 . S
H2933 C2943 0.930 . S
C2934 H2928 0.930 . S
C2934 C2935 1.355 . S
C2934 C2936 1.415 . S
C2935 C2934 1.355 . S
C2935 C2937 1.419 . S
C2936 C2934 1.415 . S
C2936 C2941 1.425 . S
C2936 C2943 1.409 . S
C2937 H2929 0.930 . S
C2937 C2935 1.419 . S
C2937 C2938 1.362 . S
C2938 H2930 0.930 . S
C2938 C2937 1.362 . S
C2938 C2941 1.409 . S
C2939 H2931 0.930 . S
C2939 C2940 1.355 . S
C2939 C2941 1.415 . S
C2940 C2939 1.355 . S
C2940 C2942 1.419 . S
C2941 C2936 1.425 . S
C2941 C2938 1.409 . S
C2941 C2939 1.415 . S
C2942 H2932 0.930 . S
C2942 C2940 1.419 . S
C2942 C2943 1.362 . S
C2943 H2933 0.930 . S
C2943 C2936 1.409 . S
C2943 C2942 1.362 . S
H2944 C2950 0.930 . S
H2945 C2953 0.930 . S
H2946 C2954 0.930 . S
H2947 C2955 0.930 . S
H2948 C2958 0.930 1_655 S
H2949 C2959 0.930 . S
C2950 H2944 0.930 . S
C2950 C2951 1.355 1_655 S
C2950 C2952 1.415 1_655 S
C2951 C2950 1.355 1_455 S
C2951 C2953 1.419 . S
C2952 C2950 1.415 1_455 S
C2952 C2957 1.425 . S
C2952 C2959 1.409 1_455 S
C2953 H2945 0.930 . S
C2953 C2951 1.419 . S
C2953 C2954 1.362 . S
C2954 H2946 0.930 . S
C2954 C2953 1.362 . S
C2954 C2957 1.409 . S
C2955 H2947 0.930 . S
C2955 C2956 1.355 . S
C2955 C2957 1.415 . S
C2956 C2955 1.355 . S
C2956 C2958 1.419 . S
C2957 C2952 1.425 . S
C2957 C2954 1.409 . S
C2957 C2955 1.415 . S
C2958 H2948 0.930 1_455 S
C2958 C2956 1.419 . S
C2958 C2959 1.362 1_455 S
C2959 H2949 0.930 . S
C2959 C2952 1.409 1_655 S
C2959 C2958 1.362 1_655 S
H2960 C2966 0.930 . S
H2961 C2969 0.930 . S
H2962 C2970 0.930 . S
H2963 C2971 0.930 . S
H2964 C2974 0.930 . S
H2965 C2975 0.930 . S
C2966 H2960 0.930 . S
C2966 C2967 1.355 . S
C2966 C2968 1.415 . S
C2967 C2966 1.355 . S
C2967 C2969 1.419 . S
C2968 C2966 1.415 . S
C2968 C2973 1.425 . S
C2968 C2975 1.409 . S
C2969 H2961 0.930 . S
C2969 C2967 1.419 . S
C2969 C2970 1.362 . S
C2970 H2962 0.930 . S
C2970 C2969 1.362 . S
C2970 C2973 1.409 . S
C2971 H2963 0.930 . S
C2971 C2972 1.355 . S
C2971 C2973 1.415 . S
C2972 C2971 1.355 . S
C2972 C2974 1.419 . S
C2973 C2968 1.425 . S
C2973 C2970 1.409 . S
C2973 C2971 1.415 . S
C2974 H2964 0.930 . S
C2974 C2972 1.419 . S
C2974 C2975 1.362 . S
C2975 H2965 0.930 . S
C2975 C2968 1.409 . S
C2975 C2974 1.362 . S
H2976 C2982 0.930 . S
H2977 C2985 0.930 . S
H2978 C2986 0.930 . S
H2979 C2987 0.930 . S
H2980 C2990 0.930 . S
H2981 C2991 0.930 . S
C2982 H2976 0.930 . S
C2982 C2983 1.355 . S
C2982 C2984 1.415 . S
C2983 C2982 1.355 . S
C2983 C2985 1.419 . S
C2984 C2982 1.415 . S
C2984 C2989 1.425 . S
C2984 C2991 1.409 . S
C2985 H2977 0.930 . S
C2985 C2983 1.419 . S
C2985 C2986 1.362 . S
C2986 H2978 0.930 . S
C2986 C2985 1.362 . S
C2986 C2989 1.409 . S
C2987 H2979 0.930 . S
C2987 C2988 1.355 . S
C2987 C2989 1.415 . S
C2988 C2987 1.355 . S
C2988 C2990 1.419 . S
C2989 C2984 1.425 . S
C2989 C2986 1.409 . S
C2989 C2987 1.415 . S
C2990 H2980 0.930 . S
C2990 C2988 1.419 . S
C2990 C2991 1.362 . S
C2991 H2981 0.930 . S
C2991 C2984 1.409 . S
C2991 C2990 1.362 . S
H2992 C2998 0.930 . S
H2993 C3001 0.930 . S
H2994 C3002 0.930 . S
H2995 C3003 0.930 . S
H2996 C3006 0.930 . S
H2997 C3007 0.930 . S
C2998 H2992 0.930 . S
C2998 C2999 1.355 . S
C2998 C3000 1.415 . S
C2999 C2998 1.355 . S
C2999 C3001 1.419 . S
C3000 C2998 1.415 . S
C3000 C3005 1.425 . S
C3000 C3007 1.409 . S
C3001 H2993 0.930 . S
C3001 C2999 1.419 . S
C3001 C3002 1.362 . S
C3002 H2994 0.930 . S
C3002 C3001 1.362 . S
C3002 C3005 1.409 . S
C3003 H2995 0.930 . S
C3003 C3004 1.355 . S
C3003 C3005 1.415 . S
C3004 C3003 1.355 . S
C3004 C3006 1.419 . S
C3005 C3000 1.425 . S
C3005 C3002 1.409 . S
C3005 C3003 1.415 . S
C3006 H2996 0.930 . S
C3006 C3004 1.419 . S
C3006 C3007 1.362 . S
C3007 H2997 0.930 . S
C3007 C3000 1.409 . S
C3007 C3006 1.362 . S
H3008 C3014 0.930 1_545 S
H3009 C3017 0.930 1_556 S
H3010 C3018 0.926 1_556 S
H3011 C3019 0.930 . S
H3012 C3022 0.930 . S
H3013 C3023 0.930 . S
C3014 H3008 0.930 1_565 S
C3014 C3015 1.355 . S
C3014 C3016 1.415 . S
C3015 C3014 1.355 . S
C3015 C3017 1.419 . S
C3016 C3014 1.415 . S
C3016 C3021 1.425 . S
C3016 C3023 1.409 1_565 S
C3017 H3009 0.930 1_554 S
C3017 C3015 1.419 . S
C3017 C3018 1.362 . S
C3018 H3010 0.926 1_554 S
C3018 C3017 1.362 . S
C3018 C3021 1.409 . S
C3019 H3011 0.930 . S
C3019 C3020 1.355 . S
C3019 C3021 1.415 . S
C3020 C3019 1.355 . S
C3020 C3022 1.419 1_565 S
C3021 C3016 1.425 . S
C3021 C3018 1.409 . S
C3021 C3019 1.415 . S
C3022 H3012 0.930 . S
C3022 C3020 1.419 1_545 S
C3022 C3023 1.362 . S
C3023 H3013 0.930 . S
C3023 C3016 1.409 1_545 S
C3023 C3022 1.362 . S
H3024 C3030 0.930 . S
H3025 C3033 0.930 . S
H3026 C3034 0.930 . S
H3027 C3035 0.930 . S
H3028 C3038 0.930 . S
H3029 C3039 0.930 . S
C3030 H3024 0.930 . S
C3030 C3031 1.355 . S
C3030 C3032 1.415 . S
C3031 C3030 1.355 . S
C3031 C3033 1.419 1_556 S
C3032 C3030 1.415 . S
C3032 C3037 1.425 1_556 S
C3032 C3039 1.409 . S
C3033 H3025 0.930 . S
C3033 C3031 1.419 1_554 S
C3033 C3034 1.362 . S
C3034 H3026 0.930 . S
C3034 C3033 1.362 . S
C3034 C3037 1.409 . S
C3035 H3027 0.930 . S
C3035 C3036 1.347 1_554 S
C3035 C3037 1.415 . S
C3036 C3035 1.347 1_556 S
C3036 C3038 1.435 . S
C3037 C3032 1.425 1_554 S
C3037 C3034 1.409 . S
C3037 C3035 1.415 . S
C3038 H3028 0.930 . S
C3038 C3036 1.435 . S
C3038 C3039 1.362 . S
C3039 H3029 0.930 . S
C3039 C3032 1.409 . S
C3039 C3038 1.362 . S
H3040 C3046 0.930 . S
H3041 C3049 0.930 . S
H3042 C3050 0.930 . S
H3043 C3051 0.930 . S
H3044 C3054 0.930 . S
H3045 C3055 0.930 . S
C3046 H3040 0.930 . S
C3046 C3047 1.355 . S
C3046 C3048 1.415 . S
C3047 C3046 1.355 . S
C3047 C3049 1.419 . S
C3048 C3046 1.415 . S
C3048 C3053 1.425 . S
C3048 C3055 1.409 . S
C3049 H3041 0.930 . S
C3049 C3047 1.419 . S
C3049 C3050 1.362 . S
C3050 H3042 0.930 . S
C3050 C3049 1.362 . S
C3050 C3053 1.409 . S
C3051 H3043 0.930 . S
C3051 C3052 1.355 . S
C3051 C3053 1.415 . S
C3052 C3051 1.355 . S
C3052 C3054 1.419 . S
C3053 C3048 1.425 . S
C3053 C3050 1.409 . S
C3053 C3051 1.415 . S
C3054 H3044 0.930 . S
C3054 C3052 1.419 . S
C3054 C3055 1.362 . S
C3055 H3045 0.930 . S
C3055 C3048 1.409 . S
C3055 C3054 1.362 . S
H3056 C3062 0.930 . S
H3057 C3065 0.930 . S
H3058 C3066 0.930 . S
H3059 C3067 0.930 . S
H3060 C3070 0.930 . S
H3061 C3071 0.930 . S
C3062 H3056 0.930 . S
C3062 C3063 1.355 . S
C3062 C3064 1.415 . S
C3063 C3062 1.355 . S
C3063 C3065 1.419 . S
C3064 C3062 1.415 . S
C3064 C3069 1.425 . S
C3064 C3071 1.409 . S
C3065 H3057 0.930 . S
C3065 C3063 1.419 . S
C3065 C3066 1.362 . S
C3066 H3058 0.930 . S
C3066 C3065 1.362 . S
C3066 C3069 1.409 . S
C3067 H3059 0.930 . S
C3067 C3068 1.355 . S
C3067 C3069 1.415 . S
C3068 C3067 1.355 . S
C3068 C3070 1.419 . S
C3069 C3064 1.425 . S
C3069 C3066 1.409 . S
C3069 C3067 1.415 . S
C3070 H3060 0.930 . S
C3070 C3068 1.419 . S
C3070 C3071 1.362 . S
C3071 H3061 0.930 . S
C3071 C3064 1.409 . S
C3071 C3070 1.362 . S
H3072 C3078 0.930 . S
H3073 C3081 0.930 . S
H3074 C3082 0.930 . S
H3075 C3083 0.930 . S
H3076 C3086 0.930 . S
H3077 C3087 0.930 . S
C3078 H3072 0.930 . S
C3078 C3079 1.355 . S
C3078 C3080 1.415 . S
C3079 C3078 1.355 . S
C3079 C3081 1.419 . S
C3080 C3078 1.415 . S
C3080 C3085 1.425 . S
C3080 C3087 1.409 . S
C3081 H3073 0.930 . S
C3081 C3079 1.419 . S
C3081 C3082 1.362 . S
C3082 H3074 0.930 . S
C3082 C3081 1.362 . S
C3082 C3085 1.409 . S
C3083 H3075 0.930 . S
C3083 C3084 1.355 . S
C3083 C3085 1.415 . S
C3084 C3083 1.355 . S
C3084 C3086 1.419 . S
C3085 C3080 1.425 . S
C3085 C3082 1.409 . S
C3085 C3083 1.415 . S
C3086 H3076 0.930 . S
C3086 C3084 1.419 . S
C3086 C3087 1.362 . S
C3087 H3077 0.930 . S
C3087 C3080 1.409 . S
C3087 C3086 1.362 . S
H3088 C3094 0.930 . S
H3089 C3097 0.930 . S
H3090 C3098 0.930 . S
H3091 C3099 0.930 . S
H3092 C3102 0.930 . S
H3093 C3103 0.930 . S
C3094 H3088 0.930 . S
C3094 C3095 1.355 . S
C3094 C3096 1.415 . S
C3095 C3094 1.355 . S
C3095 C3097 1.419 . S
C3096 C3094 1.415 . S
C3096 C3101 1.425 . S
C3096 C3103 1.409 . S
C3097 H3089 0.930 . S
C3097 C3095 1.419 . S
C3097 C3098 1.362 . S
C3098 H3090 0.930 . S
C3098 C3097 1.362 . S
C3098 C3101 1.409 . S
C3099 H3091 0.930 . S
C3099 C3100 1.355 . S
C3099 C3101 1.415 . S
C3100 C3099 1.355 . S
C3100 C3102 1.419 . S
C3101 C3096 1.425 . S
C3101 C3098 1.409 . S
C3101 C3099 1.415 . S
C3102 H3092 0.930 . S
C3102 C3100 1.419 . S
C3102 C3103 1.362 . S
C3103 H3093 0.930 . S
C3103 C3096 1.409 . S
C3103 C3102 1.362 . S
H3104 C3110 0.930 . S
H3105 C3113 0.930 . S
H3106 C3114 0.930 . S
H3107 C3115 0.930 . S
H3108 C3118 0.930 . S
H3109 C3119 0.930 . S
C3110 H3104 0.930 . S
C3110 C3111 1.355 . S
C3110 C3112 1.415 . S
C3111 C3110 1.355 . S
C3111 C3113 1.419 . S
C3112 C3110 1.415 . S
C3112 C3117 1.425 . S
C3112 C3119 1.409 . S
C3113 H3105 0.930 . S
C3113 C3111 1.419 . S
C3113 C3114 1.362 . S
C3114 H3106 0.930 . S
C3114 C3113 1.362 . S
C3114 C3117 1.409 . S
C3115 H3107 0.930 . S
C3115 C3116 1.355 . S
C3115 C3117 1.415 . S
C3116 C3115 1.355 . S
C3116 C3118 1.419 . S
C3117 C3112 1.425 . S
C3117 C3114 1.409 . S
C3117 C3115 1.415 . S
C3118 H3108 0.930 . S
C3118 C3116 1.419 . S
C3118 C3119 1.362 . S
C3119 H3109 0.930 . S
C3119 C3112 1.409 . S
C3119 C3118 1.362 . S
H3120 C3126 0.930 . S
H3121 C3129 0.930 . S
H3122 C3130 0.930 . S
H3123 C3131 0.930 . S
H3124 C3134 0.930 . S
H3125 C3135 0.930 . S
C3126 H3120 0.930 . S
C3126 C3127 1.355 . S
C3126 C3128 1.415 . S
C3127 C3126 1.355 . S
C3127 C3129 1.419 . S
C3128 C3126 1.415 . S
C3128 C3133 1.425 . S
C3128 C3135 1.409 . S
C3129 H3121 0.930 . S
C3129 C3127 1.419 . S
C3129 C3130 1.362 . S
C3130 H3122 0.930 . S
C3130 C3129 1.362 . S
C3130 C3133 1.409 . S
C3131 H3123 0.930 . S
C3131 C3132 1.355 . S
C3131 C3133 1.415 . S
C3132 C3131 1.355 . S
C3132 C3134 1.419 . S
C3133 C3128 1.425 . S
C3133 C3130 1.409 . S
C3133 C3131 1.415 . S
C3134 H3124 0.930 . S
C3134 C3132 1.419 . S
C3134 C3135 1.362 . S
C3135 H3125 0.930 . S
C3135 C3128 1.409 . S
C3135 C3134 1.362 . S
H3136 C3142 0.930 . S
H3137 C3145 0.930 . S
H3138 C3146 0.930 . S
H3139 C3147 0.930 . S
H3140 C3150 0.930 . S
H3141 C3151 0.930 . S
C3142 H3136 0.930 . S
C3142 C3143 1.355 . S
C3142 C3144 1.415 . S
C3143 C3142 1.355 . S
C3143 C3145 1.419 . S
C3144 C3142 1.415 . S
C3144 C3149 1.425 . S
C3144 C3151 1.409 . S
C3145 H3137 0.930 . S
C3145 C3143 1.419 . S
C3145 C3146 1.362 . S
C3146 H3138 0.930 . S
C3146 C3145 1.362 . S
C3146 C3149 1.409 . S
C3147 H3139 0.930 . S
C3147 C3148 1.355 . S
C3147 C3149 1.415 . S
C3148 C3147 1.355 . S
C3148 C3150 1.419 . S
C3149 C3144 1.425 . S
C3149 C3146 1.409 . S
C3149 C3147 1.415 . S
C3150 H3140 0.930 . S
C3150 C3148 1.419 . S
C3150 C3151 1.362 . S
C3151 H3141 0.930 . S
C3151 C3144 1.409 . S
C3151 C3150 1.362 . S
H3152 C3158 0.930 . S
H3153 C3161 0.930 . S
H3154 C3162 0.930 . S
H3155 C3163 0.930 . S
H3156 C3166 0.930 . S
H3157 C3167 0.930 . S
C3158 H3152 0.930 . S
C3158 C3159 1.355 . S
C3158 C3160 1.415 . S
C3159 C3158 1.355 . S
C3159 C3161 1.419 . S
C3160 C3158 1.415 . S
C3160 C3165 1.425 . S
C3160 C3167 1.409 . S
C3161 H3153 0.930 . S
C3161 C3159 1.419 . S
C3161 C3162 1.362 . S
C3162 H3154 0.930 . S
C3162 C3161 1.362 . S
C3162 C3165 1.409 . S
C3163 H3155 0.930 . S
C3163 C3164 1.355 . S
C3163 C3165 1.415 . S
C3164 C3163 1.355 . S
C3164 C3166 1.419 . S
C3165 C3160 1.425 . S
C3165 C3162 1.409 . S
C3165 C3163 1.415 . S
C3166 H3156 0.930 . S
C3166 C3164 1.419 . S
C3166 C3167 1.362 . S
C3167 H3157 0.930 . S
C3167 C3160 1.409 . S
C3167 C3166 1.362 . S
H3168 C3174 0.930 . S
H3169 C3177 0.930 . S
H3170 C3178 0.930 . S
H3171 C3179 0.930 . S
H3172 C3182 0.930 . S
H3173 C3183 0.930 . S
C3174 H3168 0.930 . S
C3174 C3175 1.355 . S
C3174 C3176 1.415 . S
C3175 C3174 1.355 . S
C3175 C3177 1.419 . S
C3176 C3174 1.415 . S
C3176 C3181 1.425 . S
C3176 C3183 1.409 . S
C3177 H3169 0.930 . S
C3177 C3175 1.419 . S
C3177 C3178 1.362 . S
C3178 H3170 0.930 . S
C3178 C3177 1.362 . S
C3178 C3181 1.409 . S
C3179 H3171 0.930 . S
C3179 C3180 1.355 . S
C3179 C3181 1.415 . S
C3180 C3179 1.355 . S
C3180 C3182 1.419 . S
C3181 C3176 1.425 . S
C3181 C3178 1.409 . S
C3181 C3179 1.415 . S
C3182 H3172 0.930 . S
C3182 C3180 1.419 . S
C3182 C3183 1.362 . S
C3183 H3173 0.930 . S
C3183 C3176 1.409 . S
C3183 C3182 1.362 . S
H3184 C3190 0.930 . S
H3185 C3193 0.930 . S
H3186 C3194 0.930 . S
H3187 C3195 0.930 . S
H3188 C3198 0.930 . S
H3189 C3199 0.930 . S
C3190 H3184 0.930 . S
C3190 C3191 1.355 . S
C3190 C3192 1.415 . S
C3191 C3190 1.355 . S
C3191 C3193 1.419 . S
C3192 C3190 1.415 . S
C3192 C3197 1.425 . S
C3192 C3199 1.409 . S
C3193 H3185 0.930 . S
C3193 C3191 1.419 . S
C3193 C3194 1.362 . S
C3194 H3186 0.930 . S
C3194 C3193 1.362 . S
C3194 C3197 1.409 . S
C3195 H3187 0.930 . S
C3195 C3196 1.355 . S
C3195 C3197 1.415 . S
C3196 C3195 1.355 . S
C3196 C3198 1.419 . S
C3197 C3192 1.425 . S
C3197 C3194 1.409 . S
C3197 C3195 1.415 . S
C3198 H3188 0.930 . S
C3198 C3196 1.419 . S
C3198 C3199 1.362 . S
C3199 H3189 0.930 . S
C3199 C3192 1.409 . S
C3199 C3198 1.362 . S
H3200 C3206 0.930 . S
H3201 C3209 0.930 . S
H3202 C3210 0.930 . S
H3203 C3211 0.930 . S
H3204 C3214 0.930 . S
H3205 C3215 0.930 . S
C3206 H3200 0.930 . S
C3206 C3207 1.355 . S
C3206 C3208 1.415 . S
C3207 C3206 1.355 . S
C3207 C3209 1.419 . S
C3208 C3206 1.415 . S
C3208 C3213 1.425 . S
C3208 C3215 1.409 . S
C3209 H3201 0.930 . S
C3209 C3207 1.419 . S
C3209 C3210 1.362 . S
C3210 H3202 0.930 . S
C3210 C3209 1.362 . S
C3210 C3213 1.409 . S
C3211 H3203 0.930 . S
C3211 C3212 1.355 . S
C3211 C3213 1.415 . S
C3212 C3211 1.355 . S
C3212 C3214 1.419 . S
C3213 C3208 1.425 . S
C3213 C3210 1.409 . S
C3213 C3211 1.415 . S
C3214 H3204 0.930 . S
C3214 C3212 1.419 . S
C3214 C3215 1.362 . S
C3215 H3205 0.930 . S
C3215 C3208 1.409 . S
C3215 C3214 1.362 . S
H3216 C3222 0.930 . S
H3217 C3225 0.930 . S
H3218 C3226 0.930 . S
H3219 C3227 0.930 . S
H3220 C3230 0.930 . S
H3221 C3231 0.930 . S
C3222 H3216 0.930 . S
C3222 C3223 1.355 . S
C3222 C3224 1.415 . S
C3223 C3222 1.355 . S
C3223 C3225 1.419 . S
C3224 C3222 1.415 . S
C3224 C3229 1.425 . S
C3224 C3231 1.409 . S
C3225 H3217 0.930 . S
C3225 C3223 1.419 . S
C3225 C3226 1.362 . S
C3226 H3218 0.930 . S
C3226 C3225 1.362 . S
C3226 C3229 1.409 . S
C3227 H3219 0.930 . S
C3227 C3228 1.355 . S
C3227 C3229 1.415 . S
C3228 C3227 1.355 . S
C3228 C3230 1.419 . S
C3229 C3224 1.425 . S
C3229 C3226 1.409 . S
C3229 C3227 1.415 . S
C3230 H3220 0.930 . S
C3230 C3228 1.419 . S
C3230 C3231 1.362 . S
C3231 H3221 0.930 . S
C3231 C3224 1.409 . S
C3231 C3230 1.362 . S
H3232 C3238 0.930 . S
H3233 C3241 0.930 . S
H3234 C3242 0.930 . S
H3235 C3243 0.930 . S
H3236 C3246 0.930 1_544 S
H3237 C3247 0.930 . S
C3238 H3232 0.930 . S
C3238 C3239 1.355 . S
C3238 C3240 1.415 . S
C3239 C3238 1.355 . S
C3239 C3241 1.419 . S
C3240 C3238 1.415 . S
C3240 C3245 1.425 . S
C3240 C3247 1.409 . S
C3241 H3233 0.930 . S
C3241 C3239 1.419 . S
C3241 C3242 1.362 . S
C3242 H3234 0.930 . S
C3242 C3241 1.362 . S
C3242 C3245 1.409 . S
C3243 H3235 0.930 . S
C3243 C3244 1.355 . S
C3243 C3245 1.415 . S
C3244 C3243 1.355 . S
C3244 C3246 1.419 . S
C3245 C3240 1.425 . S
C3245 C3242 1.409 . S
C3245 C3243 1.415 . S
C3246 H3236 0.930 1_566 S
C3246 C3244 1.419 . S
C3246 C3247 1.362 . S
C3247 H3237 0.930 . S
C3247 C3240 1.409 . S
C3247 C3246 1.362 . S
H3248 C3254 0.930 . S
H3249 C3257 0.930 . S
H3250 C3258 0.930 . S
H3251 C3259 0.930 . S
H3252 C3262 0.930 . S
H3253 C3263 0.930 . S
C3254 H3248 0.930 . S
C3254 C3255 1.355 . S
C3254 C3256 1.415 . S
C3255 C3254 1.355 . S
C3255 C3257 1.419 . S
C3256 C3254 1.415 . S
C3256 C3261 1.425 . S
C3256 C3263 1.409 . S
C3257 H3249 0.930 . S
C3257 C3255 1.419 . S
C3257 C3258 1.362 . S
C3258 H3250 0.930 . S
C3258 C3257 1.362 . S
C3258 C3261 1.409 . S
C3259 H3251 0.930 . S
C3259 C3260 1.355 . S
C3259 C3261 1.415 . S
C3260 C3259 1.355 . S
C3260 C3262 1.419 . S
C3261 C3256 1.425 . S
C3261 C3258 1.409 . S
C3261 C3259 1.415 . S
C3262 H3252 0.930 . S
C3262 C3260 1.419 . S
C3262 C3263 1.362 . S
C3263 H3253 0.930 . S
C3263 C3256 1.409 . S
C3263 C3262 1.362 . S
H3264 C3270 0.930 . S
H3265 C3273 0.930 . S
H3266 C3274 0.930 . S
H3267 C3275 0.930 1_565 S
H3268 C3278 0.930 . S
H3269 C3279 0.930 . S
C3270 H3264 0.930 . S
C3270 C3271 1.372 . S
C3270 C3272 1.415 . S
C3271 C3270 1.372 . S
C3271 C3273 1.404 1_545 S
C3272 C3270 1.415 . S
C3272 C3277 1.425 . S
C3272 C3279 1.409 . S
C3273 H3265 0.930 . S
C3273 C3271 1.404 1_565 S
C3273 C3274 1.362 . S
C3274 H3266 0.930 . S
C3274 C3273 1.362 . S
C3274 C3277 1.409 1_565 S
C3275 H3267 0.930 1_545 S
C3275 C3276 1.355 . S
C3275 C3277 1.415 . S
C3276 C3275 1.355 . S
C3276 C3278 1.419 . S
C3277 C3272 1.425 . S
C3277 C3274 1.409 1_545 S
C3277 C3275 1.415 . S
C3278 H3268 0.930 . S
C3278 C3276 1.419 . S
C3278 C3279 1.362 . S
C3279 H3269 0.930 . S
C3279 C3272 1.409 . S
C3279 C3278 1.362 . S
H3280 C3286 0.930 . S
H3281 C3289 0.930 . S
H3282 C3290 0.930 . S
H3283 C3291 0.930 . S
H3284 C3294 0.930 . S
H3285 C3295 0.930 . S
C3286 H3280 0.930 . S
C3286 C3287 1.355 . S
C3286 C3288 1.415 . S
C3287 C3286 1.355 . S
C3287 C3289 1.419 . S
C3288 C3286 1.415 . S
C3288 C3293 1.425 . S
C3288 C3295 1.409 . S
C3289 H3281 0.930 . S
C3289 C3287 1.419 . S
C3289 C3290 1.362 . S
C3290 H3282 0.930 . S
C3290 C3289 1.362 . S
C3290 C3293 1.409 . S
C3291 H3283 0.930 . S
C3291 C3292 1.355 . S
C3291 C3293 1.415 . S
C3292 C3291 1.355 . S
C3292 C3294 1.419 . S
C3293 C3288 1.425 . S
C3293 C3290 1.409 . S
C3293 C3291 1.415 . S
C3294 H3284 0.930 . S
C3294 C3292 1.419 . S
C3294 C3295 1.362 . S
C3295 H3285 0.930 . S
C3295 C3288 1.409 . S
C3295 C3294 1.362 . S
H3296 C3302 0.930 1_565 S
H3297 C3305 0.930 . S
H3298 C3306 0.930 . S
H3299 C3307 0.930 . S
H3300 C3310 0.902 1_565 S
H3301 C3311 0.930 1_565 S
C3302 H3296 0.930 1_545 S
C3302 C3303 1.355 . S
C3302 C3304 1.415 . S
C3303 C3302 1.355 . S
C3303 C3305 1.419 . S
C3304 C3302 1.415 . S
C3304 C3309 1.425 . S
C3304 C3311 1.409 . S
C3305 H3297 0.930 . S
C3305 C3303 1.419 . S
C3305 C3306 1.362 . S
C3306 H3298 0.930 . S
C3306 C3305 1.362 . S
C3306 C3309 1.409 . S
C3307 H3299 0.930 . S
C3307 C3308 1.355 . S
C3307 C3309 1.415 . S
C3308 C3307 1.355 . S
C3308 C3310 1.419 . S
C3309 C3304 1.425 . S
C3309 C3306 1.409 . S
C3309 C3307 1.415 . S
C3310 H3300 0.902 1_545 S
C3310 C3308 1.419 . S
C3310 C3311 1.362 . S
C3311 H3301 0.930 1_545 S
C3311 C3304 1.409 . S
C3311 C3310 1.362 . S
H3312 C3318 0.930 . S
H3313 C3321 0.930 . S
H3314 C3322 0.930 . S
H3315 C3323 0.930 . S
H3316 C3326 0.930 . S
H3317 C3327 0.930 . S
C3318 H3312 0.930 . S
C3318 C3319 1.355 . S
C3318 C3320 1.415 . S
C3319 C3318 1.355 . S
C3319 C3321 1.419 . S
C3320 C3318 1.415 . S
C3320 C3325 1.425 . S
C3320 C3327 1.409 . S
C3321 H3313 0.930 . S
C3321 C3319 1.419 . S
C3321 C3322 1.362 . S
C3322 H3314 0.930 . S
C3322 C3321 1.362 . S
C3322 C3325 1.409 . S
C3323 H3315 0.930 . S
C3323 C3324 1.355 . S
C3323 C3325 1.415 . S
C3324 C3323 1.355 . S
C3324 C3326 1.419 . S
C3325 C3320 1.425 . S
C3325 C3322 1.409 . S
C3325 C3323 1.415 . S
C3326 H3316 0.930 . S
C3326 C3324 1.419 . S
C3326 C3327 1.362 . S
C3327 H3317 0.930 . S
C3327 C3320 1.409 . S
C3327 C3326 1.362 . S
H3328 C3334 0.930 . S
H3329 C3337 0.930 . S
H3330 C3338 0.930 . S
H3331 C3339 0.930 . S
H3332 C3342 0.930 . S
H3333 C3343 0.930 . S
C3334 H3328 0.930 . S
C3334 C3335 1.355 . S
C3334 C3336 1.415 . S
C3335 C3334 1.355 . S
C3335 C3337 1.419 1_565 S
C3336 C3334 1.415 . S
C3336 C3341 1.425 1_565 S
C3336 C3343 1.409 . S
C3337 H3329 0.930 . S
C3337 C3335 1.419 1_545 S
C3337 C3338 1.362 . S
C3338 H3330 0.930 . S
C3338 C3337 1.362 . S
C3338 C3341 1.409 . S
C3339 H3331 0.930 . S
C3339 C3340 1.355 . S
C3339 C3341 1.415 . S
C3340 C3339 1.355 . S
C3340 C3342 1.419 1_545 S
C3341 C3336 1.425 1_545 S
C3341 C3338 1.409 . S
C3341 C3339 1.415 . S
C3342 H3332 0.930 . S
C3342 C3340 1.419 1_565 S
C3342 C3343 1.362 . S
C3343 H3333 0.930 . S
C3343 C3336 1.409 . S
C3343 C3342 1.362 . S
H3344 C3350 0.930 . S
H3345 C3353 0.930 . S
H3346 C3354 0.930 . S
H3347 C3355 0.930 . S
H3348 C3358 0.930 . S
H3349 C3359 0.930 . S
C3350 H3344 0.930 . S
C3350 C3351 1.355 . S
C3350 C3352 1.415 . S
C3351 C3350 1.355 . S
C3351 C3353 1.419 . S
C3352 C3350 1.415 . S
C3352 C3357 1.425 . S
C3352 C3359 1.409 . S
C3353 H3345 0.930 . S
C3353 C3351 1.419 . S
C3353 C3354 1.362 . S
C3354 H3346 0.930 . S
C3354 C3353 1.362 . S
C3354 C3357 1.409 . S
C3355 H3347 0.930 . S
C3355 C3356 1.355 . S
C3355 C3357 1.415 . S
C3356 C3355 1.355 . S
C3356 C3358 1.419 . S
C3357 C3352 1.425 . S
C3357 C3354 1.409 . S
C3357 C3355 1.415 . S
C3358 H3348 0.930 . S
C3358 C3356 1.419 . S
C3358 C3359 1.362 . S
C3359 H3349 0.930 . S
C3359 C3352 1.409 . S
C3359 C3358 1.362 . S
H3360 C3366 0.930 . S
H3361 C3369 0.930 . S
H3362 C3370 0.930 . S
H3363 C3371 0.930 . S
H3364 C3374 0.930 . S
H3365 C3375 0.939 . S
C3366 H3360 0.930 . S
C3366 C3367 1.355 . S
C3366 C3368 1.409 1_545 S
C3367 C3366 1.355 . S
C3367 C3369 1.419 1_545 S
C3368 C3366 1.409 1_565 S
C3368 C3373 1.441 . S
C3368 C3375 1.396 1_565 S
C3369 H3361 0.930 . S
C3369 C3367 1.419 1_565 S
C3369 C3370 1.362 . S
C3370 H3362 0.930 . S
C3370 C3369 1.362 . S
C3370 C3373 1.409 . S
C3371 H3363 0.930 . S
C3371 C3372 1.355 . S
C3371 C3373 1.415 . S
C3372 C3371 1.355 . S
C3372 C3374 1.419 . S
C3373 C3368 1.441 . S
C3373 C3370 1.409 . S
C3373 C3371 1.415 . S
C3374 H3364 0.930 . S
C3374 C3372 1.419 . S
C3374 C3375 1.359 1_565 S
C3375 H3365 0.939 . S
C3375 C3368 1.396 1_545 S
C3375 C3374 1.359 1_545 S
H3376 C3382 0.930 . S
H3377 C3385 0.930 . S
H3378 C3386 0.930 . S
H3379 C3387 0.930 . S
H3380 C3390 0.930 . S
H3381 C3391 0.930 . S
C3382 H3376 0.930 . S
C3382 C3383 1.355 . S
C3382 C3384 1.415 . S
C3383 C3382 1.355 . S
C3383 C3385 1.419 . S
C3384 C3382 1.415 . S
C3384 C3389 1.425 . S
C3384 C3391 1.409 . S
C3385 H3377 0.930 . S
C3385 C3383 1.419 . S
C3385 C3386 1.362 . S
C3386 H3378 0.930 . S
C3386 C3385 1.362 . S
C3386 C3389 1.409 . S
C3387 H3379 0.930 . S
C3387 C3388 1.355 . S
C3387 C3389 1.415 . S
C3388 C3387 1.355 . S
C3388 C3390 1.419 . S
C3389 C3384 1.425 . S
C3389 C3386 1.409 . S
C3389 C3387 1.415 . S
C3390 H3380 0.930 . S
C3390 C3388 1.419 . S
C3390 C3391 1.362 . S
C3391 H3381 0.930 . S
C3391 C3384 1.409 . S
C3391 C3390 1.362 . S
H3392 C3398 0.930 . S
H3393 C3401 0.930 . S
H3394 C3402 0.930 . S
H3395 C3403 0.930 . S
H3396 C3406 0.930 . S
H3397 C3407 0.913 1_554 S
C3398 H3392 0.930 . S
C3398 C3399 1.355 . S
C3398 C3400 1.415 1_554 S
C3399 C3398 1.355 . S
C3399 C3401 1.419 1_554 S
C3400 C3398 1.415 1_556 S
C3400 C3405 1.425 . S
C3400 C3407 1.409 . S
C3401 H3393 0.930 . S
C3401 C3399 1.419 1_556 S
C3401 C3402 1.362 . S
C3402 H3394 0.930 . S
C3402 C3401 1.362 . S
C3402 C3405 1.409 . S
C3403 H3395 0.930 . S
C3403 C3404 1.355 . S
C3403 C3405 1.415 . S
C3404 C3403 1.355 . S
C3404 C3406 1.419 . S
C3405 C3400 1.425 . S
C3405 C3402 1.409 . S
C3405 C3403 1.415 . S
C3406 H3396 0.930 . S
C3406 C3404 1.419 . S
C3406 C3407 1.362 . S
C3407 H3397 0.913 1_556 S
C3407 C3400 1.409 . S
C3407 C3406 1.362 . S
H3408 C3414 0.930 . S
H3409 C3417 0.930 . S
H3410 C3418 0.930 . S
H3411 C3419 0.930 . S
H3412 C3422 0.909 1_556 S
H3413 C3423 0.950 . S
C3414 H3408 0.930 . S
C3414 C3415 1.355 . S
C3414 C3416 1.415 . S
C3415 C3414 1.355 . S
C3415 C3417 1.419 . S
C3416 C3414 1.415 . S
C3416 C3421 1.425 . S
C3416 C3423 1.386 1_554 S
C3417 H3409 0.930 . S
C3417 C3415 1.419 . S
C3417 C3418 1.362 . S
C3418 H3410 0.930 . S
C3418 C3417 1.362 . S
C3418 C3421 1.409 . S
C3419 H3411 0.930 . S
C3419 C3420 1.355 . S
C3419 C3421 1.415 . S
C3420 C3419 1.355 . S
C3420 C3422 1.437 . S
C3421 C3416 1.425 . S
C3421 C3418 1.409 . S
C3421 C3419 1.415 . S
C3422 H3412 0.909 1_554 S
C3422 C3420 1.437 . S
C3422 C3423 1.370 1_554 S
C3423 H3413 0.950 . S
C3423 C3416 1.386 1_556 S
C3423 C3422 1.370 1_556 S
H3424 C3430 0.930 . S
H3425 C3433 0.930 . S
H3426 C3434 0.930 . S
H3427 C3435 0.930 . S
H3428 C3438 0.930 . S
H3429 C3439 0.930 . S
C3430 H3424 0.930 . S
C3430 C3431 1.355 . S
C3430 C3432 1.415 . S
C3431 C3430 1.355 . S
C3431 C3433 1.419 . S
C3432 C3430 1.415 . S
C3432 C3437 1.425 . S
C3432 C3439 1.409 . S
C3433 H3425 0.930 . S
C3433 C3431 1.419 . S
C3433 C3434 1.362 . S
C3434 H3426 0.930 . S
C3434 C3433 1.362 . S
C3434 C3437 1.409 . S
C3435 H3427 0.930 . S
C3435 C3436 1.355 . S
C3435 C3437 1.415 . S
C3436 C3435 1.355 . S
C3436 C3438 1.419 . S
C3437 C3432 1.425 . S
C3437 C3434 1.409 . S
C3437 C3435 1.415 . S
C3438 H3428 0.930 . S
C3438 C3436 1.419 . S
C3438 C3439 1.362 . S
C3439 H3429 0.930 . S
C3439 C3432 1.409 . S
C3439 C3438 1.362 . S
H3440 C3446 0.930 . S
H3441 C3449 0.930 . S
H3442 C3450 0.930 . S
H3443 C3451 0.930 . S
H3444 C3454 0.930 . S
H3445 C3455 0.930 . S
C3446 H3440 0.930 . S
C3446 C3447 1.355 . S
C3446 C3448 1.415 . S
C3447 C3446 1.355 . S
C3447 C3449 1.419 . S
C3448 C3446 1.415 . S
C3448 C3453 1.425 . S
C3448 C3455 1.409 . S
C3449 H3441 0.930 . S
C3449 C3447 1.419 . S
C3449 C3450 1.362 . S
C3450 H3442 0.930 . S
C3450 C3449 1.362 . S
C3450 C3453 1.409 . S
C3451 H3443 0.930 . S
C3451 C3452 1.355 . S
C3451 C3453 1.415 . S
C3452 C3451 1.355 . S
C3452 C3454 1.419 . S
C3453 C3448 1.425 . S
C3453 C3450 1.409 . S
C3453 C3451 1.415 . S
C3454 H3444 0.930 . S
C3454 C3452 1.419 . S
C3454 C3455 1.362 . S
C3455 H3445 0.930 . S
C3455 C3448 1.409 . S
C3455 C3454 1.362 . S
H3456 C3462 0.930 . S
H3457 C3465 0.930 . S
H3458 C3466 0.930 . S
H3459 C3467 0.930 . S
H3460 C3470 0.930 . S
H3461 C3471 0.930 . S
C3462 H3456 0.930 . S
C3462 C3463 1.355 . S
C3462 C3464 1.415 . S
C3463 C3462 1.355 . S
C3463 C3465 1.419 . S
C3464 C3462 1.415 . S
C3464 C3469 1.425 . S
C3464 C3471 1.409 . S
C3465 H3457 0.930 . S
C3465 C3463 1.419 . S
C3465 C3466 1.362 . S
C3466 H3458 0.930 . S
C3466 C3465 1.362 . S
C3466 C3469 1.409 . S
C3467 H3459 0.930 . S
C3467 C3468 1.355 . S
C3467 C3469 1.415 . S
C3468 C3467 1.355 . S
C3468 C3470 1.419 . S
C3469 C3464 1.425 . S
C3469 C3466 1.409 . S
C3469 C3467 1.415 . S
C3470 H3460 0.930 . S
C3470 C3468 1.419 . S
C3470 C3471 1.362 . S
C3471 H3461 0.930 . S
C3471 C3464 1.409 . S
C3471 C3470 1.362 . S
H3472 C3478 0.930 . S
H3473 C3481 0.930 . S
H3474 C3482 0.930 . S
H3475 C3483 0.930 . S
H3476 C3486 0.930 . S
H3477 C3487 0.930 . S
C3478 H3472 0.930 . S
C3478 C3479 1.355 . S
C3478 C3480 1.415 . S
C3479 C3478 1.355 . S
C3479 C3481 1.419 . S
C3480 C3478 1.415 . S
C3480 C3485 1.425 . S
C3480 C3487 1.409 . S
C3481 H3473 0.930 . S
C3481 C3479 1.419 . S
C3481 C3482 1.362 . S
C3482 H3474 0.930 . S
C3482 C3481 1.362 . S
C3482 C3485 1.409 . S
C3483 H3475 0.930 . S
C3483 C3484 1.355 . S
C3483 C3485 1.415 . S
C3484 C3483 1.355 . S
C3484 C3486 1.419 . S
C3485 C3480 1.425 . S
C3485 C3482 1.409 . S
C3485 C3483 1.415 . S
C3486 H3476 0.930 . S
C3486 C3484 1.419 . S
C3486 C3487 1.362 . S
C3487 H3477 0.930 . S
C3487 C3480 1.409 . S
C3487 C3486 1.362 . S
H3488 C3494 0.930 . S
H3489 C3497 0.930 . S
H3490 C3498 0.930 . S
H3491 C3499 0.930 . S
H3492 C3502 0.930 . S
H3493 C3503 0.930 . S
C3494 H3488 0.930 . S
C3494 C3495 1.355 . S
C3494 C3496 1.415 . S
C3495 C3494 1.355 . S
C3495 C3497 1.419 . S
C3496 C3494 1.415 . S
C3496 C3501 1.425 . S
C3496 C3503 1.409 . S
C3497 H3489 0.930 . S
C3497 C3495 1.419 . S
C3497 C3498 1.362 . S
C3498 H3490 0.930 . S
C3498 C3497 1.362 . S
C3498 C3501 1.409 . S
C3499 H3491 0.930 . S
C3499 C3500 1.355 . S
C3499 C3501 1.415 . S
C3500 C3499 1.355 . S
C3500 C3502 1.419 . S
C3501 C3496 1.425 . S
C3501 C3498 1.409 . S
C3501 C3499 1.415 . S
C3502 H3492 0.930 . S
C3502 C3500 1.419 . S
C3502 C3503 1.362 . S
C3503 H3493 0.930 . S
C3503 C3496 1.409 . S
C3503 C3502 1.362 . S
H3504 C3510 0.930 . S
H3505 C3513 0.930 . S
H3506 C3514 0.930 . S
H3507 C3515 0.930 . S
H3508 C3518 0.930 . S
H3509 C3519 0.930 . S
C3510 H3504 0.930 . S
C3510 C3511 1.355 . S
C3510 C3512 1.415 . S
C3511 C3510 1.355 . S
C3511 C3513 1.419 . S
C3512 C3510 1.415 . S
C3512 C3517 1.425 . S
C3512 C3519 1.409 . S
C3513 H3505 0.930 . S
C3513 C3511 1.419 . S
C3513 C3514 1.362 . S
C3514 H3506 0.930 . S
C3514 C3513 1.362 . S
C3514 C3517 1.409 . S
C3515 H3507 0.930 . S
C3515 C3516 1.355 . S
C3515 C3517 1.415 . S
C3516 C3515 1.355 . S
C3516 C3518 1.419 . S
C3517 C3512 1.425 . S
C3517 C3514 1.409 . S
C3517 C3515 1.415 . S
C3518 H3508 0.930 . S
C3518 C3516 1.419 . S
C3518 C3519 1.362 . S
C3519 H3509 0.930 . S
C3519 C3512 1.409 . S
C3519 C3518 1.362 . S
H3520 C3526 0.930 . S
H3521 C3529 0.930 . S
H3522 C3530 0.930 . S
H3523 C3531 0.930 . S
H3524 C3534 0.930 . S
H3525 C3535 0.930 . S
C3526 H3520 0.930 . S
C3526 C3527 1.355 . S
C3526 C3528 1.415 . S
C3527 C3526 1.355 . S
C3527 C3529 1.419 . S
C3528 C3526 1.415 . S
C3528 C3533 1.425 . S
C3528 C3535 1.409 . S
C3529 H3521 0.930 . S
C3529 C3527 1.419 . S
C3529 C3530 1.362 . S
C3530 H3522 0.930 . S
C3530 C3529 1.362 . S
C3530 C3533 1.409 . S
C3531 H3523 0.930 . S
C3531 C3532 1.355 . S
C3531 C3533 1.415 . S
C3532 C3531 1.355 . S
C3532 C3534 1.419 . S
C3533 C3528 1.425 . S
C3533 C3530 1.409 . S
C3533 C3531 1.415 . S
C3534 H3524 0.930 . S
C3534 C3532 1.419 . S
C3534 C3535 1.362 . S
C3535 H3525 0.930 . S
C3535 C3528 1.409 . S
C3535 C3534 1.362 . S
H3536 C3542 0.930 . S
H3537 C3545 0.930 . S
H3538 C3546 0.930 . S
H3539 C3547 0.930 . S
H3540 C3550 0.930 . S
H3541 C3551 0.930 . S
C3542 H3536 0.930 . S
C3542 C3543 1.355 . S
C3542 C3544 1.415 . S
C3543 C3542 1.355 . S
C3543 C3545 1.419 . S
C3544 C3542 1.415 . S
C3544 C3549 1.425 . S
C3544 C3551 1.409 . S
C3545 H3537 0.930 . S
C3545 C3543 1.419 . S
C3545 C3546 1.362 . S
C3546 H3538 0.930 . S
C3546 C3545 1.362 . S
C3546 C3549 1.409 . S
C3547 H3539 0.930 . S
C3547 C3548 1.355 . S
C3547 C3549 1.415 . S
C3548 C3547 1.355 . S
C3548 C3550 1.419 . S
C3549 C3544 1.425 . S
C3549 C3546 1.409 . S
C3549 C3547 1.415 . S
C3550 H3540 0.930 . S
C3550 C3548 1.419 . S
C3550 C3551 1.362 . S
C3551 H3541 0.930 . S
C3551 C3544 1.409 . S
C3551 C3550 1.362 . S
H3552 C3558 0.930 . S
H3553 C3561 0.930 . S
H3554 C3562 0.930 . S
H3555 C3563 0.930 . S
H3556 C3566 0.930 . S
H3557 C3567 0.930 . S
C3558 H3552 0.930 . S
C3558 C3559 1.355 1_554 S
C3558 C3560 1.415 . S
C3559 C3558 1.355 1_556 S
C3559 C3561 1.419 . S
C3560 C3558 1.415 . S
C3560 C3565 1.425 1_554 S
C3560 C3567 1.409 . S
C3561 H3553 0.930 . S
C3561 C3559 1.419 . S
C3561 C3562 1.362 . S
C3562 H3554 0.930 . S
C3562 C3561 1.362 . S
C3562 C3565 1.409 . S
C3563 H3555 0.930 . S
C3563 C3564 1.355 1_556 S
C3563 C3565 1.415 . S
C3564 C3563 1.355 1_554 S
C3564 C3566 1.419 . S
C3565 C3560 1.425 1_556 S
C3565 C3562 1.409 . S
C3565 C3563 1.415 . S
C3566 H3556 0.930 . S
C3566 C3564 1.419 . S
C3566 C3567 1.362 . S
C3567 H3557 0.930 . S
C3567 C3560 1.409 . S
C3567 C3566 1.362 . S
H3568 C3574 0.930 . S
H3569 C3577 0.930 . S
H3570 C3578 0.930 . S
H3571 C3579 0.930 . S
H3572 C3582 0.930 . S
H3573 C3583 0.930 . S
C3574 H3568 0.930 . S
C3574 C3575 1.355 . S
C3574 C3576 1.415 . S
C3575 C3574 1.355 . S
C3575 C3577 1.419 . S
C3576 C3574 1.415 . S
C3576 C3581 1.425 . S
C3576 C3583 1.409 . S
C3577 H3569 0.930 . S
C3577 C3575 1.419 . S
C3577 C3578 1.362 . S
C3578 H3570 0.930 . S
C3578 C3577 1.362 . S
C3578 C3581 1.409 . S
C3579 H3571 0.930 . S
C3579 C3580 1.355 . S
C3579 C3581 1.415 . S
C3580 C3579 1.355 . S
C3580 C3582 1.419 . S
C3581 C3576 1.425 . S
C3581 C3578 1.409 . S
C3581 C3579 1.415 . S
C3582 H3572 0.930 . S
C3582 C3580 1.419 . S
C3582 C3583 1.362 . S
C3583 H3573 0.930 . S
C3583 C3576 1.409 . S
C3583 C3582 1.362 . S
H3584 C3590 0.930 . S
H3585 C3593 0.930 . S
H3586 C3594 0.930 . S
H3587 C3595 0.930 . S
H3588 C3598 0.930 . S
H3589 C3599 0.930 . S
C3590 H3584 0.930 . S
C3590 C3591 1.355 . S
C3590 C3592 1.415 . S
C3591 C3590 1.355 . S
C3591 C3593 1.419 . S
C3592 C3590 1.415 . S
C3592 C3597 1.425 . S
C3592 C3599 1.409 . S
C3593 H3585 0.930 . S
C3593 C3591 1.419 . S
C3593 C3594 1.362 . S
C3594 H3586 0.930 . S
C3594 C3593 1.362 . S
C3594 C3597 1.409 . S
C3595 H3587 0.930 . S
C3595 C3596 1.355 . S
C3595 C3597 1.415 . S
C3596 C3595 1.355 . S
C3596 C3598 1.419 . S
C3597 C3592 1.425 . S
C3597 C3594 1.409 . S
C3597 C3595 1.415 . S
C3598 H3588 0.930 . S
C3598 C3596 1.419 . S
C3598 C3599 1.362 . S
C3599 H3589 0.930 . S
C3599 C3592 1.409 . S
C3599 C3598 1.362 . S
H3600 C3606 0.930 . S
H3601 C3609 0.951 . S
H3602 C3610 0.930 . S
H3603 C3611 0.930 . S
H3604 C3614 0.930 . S
H3605 C3615 0.930 . S
C3606 H3600 0.930 . S
C3606 C3607 1.355 1_655 S
C3606 C3608 1.415 . S
C3607 C3606 1.355 1_455 S
C3607 C3609 1.428 . S
C3608 C3606 1.415 . S
C3608 C3613 1.425 . S
C3608 C3615 1.409 . S
C3609 H3601 0.951 . S
C3609 C3607 1.428 . S
C3609 C3610 1.334 1_455 S
C3610 H3602 0.930 . S
C3610 C3609 1.334 1_655 S
C3610 C3613 1.409 . S
C3611 H3603 0.930 . S
C3611 C3612 1.355 . S
C3611 C3613 1.415 . S
C3612 C3611 1.355 . S
C3612 C3614 1.419 . S
C3613 C3608 1.425 . S
C3613 C3610 1.409 . S
C3613 C3611 1.415 . S
C3614 H3604 0.930 . S
C3614 C3612 1.419 . S
C3614 C3615 1.362 . S
C3615 H3605 0.930 . S
C3615 C3608 1.409 . S
C3615 C3614 1.362 . S
H3616 C3622 0.930 . S
H3617 C3625 0.930 . S
H3618 C3626 0.930 . S
H3619 C3627 0.930 . S
H3620 C3630 0.930 . S
H3621 C3631 0.930 . S
C3622 H3616 0.930 . S
C3622 C3623 1.355 . S
C3622 C3624 1.415 1_655 S
C3623 C3622 1.355 . S
C3623 C3625 1.419 1_655 S
C3624 C3622 1.415 1_455 S
C3624 C3629 1.425 . S
C3624 C3631 1.409 1_455 S
C3625 H3617 0.930 . S
C3625 C3623 1.419 1_455 S
C3625 C3626 1.362 . S
C3626 H3618 0.930 . S
C3626 C3625 1.362 . S
C3626 C3629 1.409 . S
C3627 H3619 0.930 . S
C3627 C3628 1.355 . S
C3627 C3629 1.415 . S
C3628 C3627 1.355 . S
C3628 C3630 1.419 . S
C3629 C3624 1.425 . S
C3629 C3626 1.409 . S
C3629 C3627 1.415 . S
C3630 H3620 0.930 . S
C3630 C3628 1.419 . S
C3630 C3631 1.362 1_455 S
C3631 H3621 0.930 . S
C3631 C3624 1.409 1_655 S
C3631 C3630 1.362 1_655 S
H3632 C3638 0.930 . S
H3633 C3641 0.930 . S
H3634 C3642 0.930 . S
H3635 C3643 0.930 . S
H3636 C3646 0.930 . S
H3637 C3647 0.930 . S
C3638 H3632 0.930 . S
C3638 C3639 1.355 . S
C3638 C3640 1.415 . S
C3639 C3638 1.355 . S
C3639 C3641 1.419 . S
C3640 C3638 1.415 . S
C3640 C3645 1.425 . S
C3640 C3647 1.409 . S
C3641 H3633 0.930 . S
C3641 C3639 1.419 . S
C3641 C3642 1.362 . S
C3642 H3634 0.930 . S
C3642 C3641 1.362 . S
C3642 C3645 1.409 . S
C3643 H3635 0.930 . S
C3643 C3644 1.355 . S
C3643 C3645 1.415 . S
C3644 C3643 1.355 . S
C3644 C3646 1.419 . S
C3645 C3640 1.425 . S
C3645 C3642 1.409 . S
C3645 C3643 1.415 . S
C3646 H3636 0.930 . S
C3646 C3644 1.419 . S
C3646 C3647 1.362 . S
C3647 H3637 0.930 . S
C3647 C3640 1.409 . S
C3647 C3646 1.362 . S
H3648 C3654 0.930 . S
H3649 C3657 0.930 . S
H3650 C3658 0.930 . S
H3651 C3659 0.930 . S
H3652 C3662 0.930 . S
H3653 C3663 0.930 . S
C3654 H3648 0.930 . S
C3654 C3655 1.355 . S
C3654 C3656 1.415 . S
C3655 C3654 1.355 . S
C3655 C3657 1.419 . S
C3656 C3654 1.415 . S
C3656 C3661 1.425 . S
C3656 C3663 1.409 . S
C3657 H3649 0.930 . S
C3657 C3655 1.419 . S
C3657 C3658 1.362 . S
C3658 H3650 0.930 . S
C3658 C3657 1.362 . S
C3658 C3661 1.409 . S
C3659 H3651 0.930 . S
C3659 C3660 1.355 . S
C3659 C3661 1.415 . S
C3660 C3659 1.355 . S
C3660 C3662 1.419 . S
C3661 C3656 1.425 . S
C3661 C3658 1.409 . S
C3661 C3659 1.415 . S
C3662 H3652 0.930 . S
C3662 C3660 1.419 . S
C3662 C3663 1.362 . S
C3663 H3653 0.930 . S
C3663 C3656 1.409 . S
C3663 C3662 1.362 . S
H3664 C3670 0.930 . S
H3665 C3673 0.930 . S
H3666 C3674 0.930 . S
H3667 C3675 0.930 . S
H3668 C3678 0.930 . S
H3669 C3679 0.930 . S
C3670 H3664 0.930 . S
C3670 C3671 1.355 . S
C3670 C3672 1.415 . S
C3671 C3670 1.355 . S
C3671 C3673 1.419 . S
C3672 C3670 1.415 . S
C3672 C3677 1.425 . S
C3672 C3679 1.409 . S
C3673 H3665 0.930 . S
C3673 C3671 1.419 . S
C3673 C3674 1.362 . S
C3674 H3666 0.930 . S
C3674 C3673 1.362 . S
C3674 C3677 1.409 . S
C3675 H3667 0.930 . S
C3675 C3676 1.355 . S
C3675 C3677 1.415 . S
C3676 C3675 1.355 . S
C3676 C3678 1.419 . S
C3677 C3672 1.425 . S
C3677 C3674 1.409 . S
C3677 C3675 1.415 . S
C3678 H3668 0.930 . S
C3678 C3676 1.419 . S
C3678 C3679 1.362 . S
C3679 H3669 0.930 . S
C3679 C3672 1.409 . S
C3679 C3678 1.362 . S
H3680 C3686 0.930 . S
H3681 C3689 0.930 . S
H3682 C3690 0.930 . S
H3683 C3691 0.930 . S
H3684 C3694 0.930 . S
H3685 C3695 0.930 . S
C3686 H3680 0.930 . S
C3686 C3687 1.355 . S
C3686 C3688 1.415 . S
C3687 C3686 1.355 . S
C3687 C3689 1.419 . S
C3688 C3686 1.415 . S
C3688 C3693 1.425 . S
C3688 C3695 1.409 . S
C3689 H3681 0.930 . S
C3689 C3687 1.419 . S
C3689 C3690 1.362 . S
C3690 H3682 0.930 . S
C3690 C3689 1.362 . S
C3690 C3693 1.409 . S
C3691 H3683 0.930 . S
C3691 C3692 1.355 . S
C3691 C3693 1.415 . S
C3692 C3691 1.355 . S
C3692 C3694 1.419 . S
C3693 C3688 1.425 . S
C3693 C3690 1.409 . S
C3693 C3691 1.415 . S
C3694 H3684 0.930 . S
C3694 C3692 1.419 . S
C3694 C3695 1.362 . S
C3695 H3685 0.930 . S
C3695 C3688 1.409 . S
C3695 C3694 1.362 . S
H3696 C3702 0.930 . S
H3697 C3705 0.930 . S
H3698 C3706 0.930 . S
H3699 C3707 0.930 . S
H3700 C3710 0.930 . S
H3701 C3711 0.930 . S
C3702 H3696 0.930 . S
C3702 C3703 1.355 . S
C3702 C3704 1.415 . S
C3703 C3702 1.355 . S
C3703 C3705 1.419 . S
C3704 C3702 1.415 . S
C3704 C3709 1.425 . S
C3704 C3711 1.409 . S
C3705 H3697 0.930 . S
C3705 C3703 1.419 . S
C3705 C3706 1.362 . S
C3706 H3698 0.930 . S
C3706 C3705 1.362 . S
C3706 C3709 1.409 . S
C3707 H3699 0.930 . S
C3707 C3708 1.355 . S
C3707 C3709 1.415 . S
C3708 C3707 1.355 . S
C3708 C3710 1.419 . S
C3709 C3704 1.425 . S
C3709 C3706 1.409 . S
C3709 C3707 1.415 . S
C3710 H3700 0.930 . S
C3710 C3708 1.419 . S
C3710 C3711 1.362 . S
C3711 H3701 0.930 . S
C3711 C3704 1.409 . S
C3711 C3710 1.362 . S
H3712 C3718 0.930 . S
H3713 C3721 0.930 . S
H3714 C3722 0.930 . S
H3715 C3723 0.930 . S
H3716 C3726 0.930 . S
H3717 C3727 0.930 . S
C3718 H3712 0.930 . S
C3718 C3719 1.355 . S
C3718 C3720 1.415 . S
C3719 C3718 1.355 . S
C3719 C3721 1.419 . S
C3720 C3718 1.415 . S
C3720 C3725 1.425 . S
C3720 C3727 1.409 . S
C3721 H3713 0.930 . S
C3721 C3719 1.419 . S
C3721 C3722 1.362 . S
C3722 H3714 0.930 . S
C3722 C3721 1.362 . S
C3722 C3725 1.409 . S
C3723 H3715 0.930 . S
C3723 C3724 1.355 . S
C3723 C3725 1.415 . S
C3724 C3723 1.355 . S
C3724 C3726 1.419 . S
C3725 C3720 1.425 . S
C3725 C3722 1.409 . S
C3725 C3723 1.415 . S
C3726 H3716 0.930 . S
C3726 C3724 1.419 . S
C3726 C3727 1.362 . S
C3727 H3717 0.930 . S
C3727 C3720 1.409 . S
C3727 C3726 1.362 . S
H3728 C3734 0.930 . S
H3729 C3737 0.930 . S
H3730 C3738 0.930 . S
H3731 C3739 0.930 . S
H3732 C3742 0.930 . S
H3733 C3743 0.930 . S
C3734 H3728 0.930 . S
C3734 C3735 1.355 . S
C3734 C3736 1.415 . S
C3735 C3734 1.355 . S
C3735 C3737 1.419 . S
C3736 C3734 1.415 . S
C3736 C3741 1.425 . S
C3736 C3743 1.409 . S
C3737 H3729 0.930 . S
C3737 C3735 1.419 . S
C3737 C3738 1.362 . S
C3738 H3730 0.930 . S
C3738 C3737 1.362 . S
C3738 C3741 1.409 . S
C3739 H3731 0.930 . S
C3739 C3740 1.355 . S
C3739 C3741 1.415 . S
C3740 C3739 1.355 . S
C3740 C3742 1.419 . S
C3741 C3736 1.425 . S
C3741 C3738 1.409 . S
C3741 C3739 1.415 . S
C3742 H3732 0.930 . S
C3742 C3740 1.419 . S
C3742 C3743 1.362 . S
C3743 H3733 0.930 . S
C3743 C3736 1.409 . S
C3743 C3742 1.362 . S
H3744 C3750 0.930 . S
H3745 C3753 0.930 . S
H3746 C3754 0.930 . S
H3747 C3755 0.930 . S
H3748 C3758 0.930 . S
H3749 C3759 0.930 . S
C3750 H3744 0.930 . S
C3750 C3751 1.355 . S
C3750 C3752 1.415 . S
C3751 C3750 1.355 . S
C3751 C3753 1.419 . S
C3752 C3750 1.415 . S
C3752 C3757 1.425 . S
C3752 C3759 1.409 . S
C3753 H3745 0.930 . S
C3753 C3751 1.419 . S
C3753 C3754 1.362 . S
C3754 H3746 0.930 . S
C3754 C3753 1.362 . S
C3754 C3757 1.409 . S
C3755 H3747 0.930 . S
C3755 C3756 1.355 . S
C3755 C3757 1.415 . S
C3756 C3755 1.355 . S
C3756 C3758 1.419 . S
C3757 C3752 1.425 . S
C3757 C3754 1.409 . S
C3757 C3755 1.415 . S
C3758 H3748 0.930 . S
C3758 C3756 1.419 . S
C3758 C3759 1.362 . S
C3759 H3749 0.930 . S
C3759 C3752 1.409 . S
C3759 C3758 1.362 . S
H3760 C3766 0.930 . S
H3761 C3769 0.930 . S
H3762 C3770 0.930 . S
H3763 C3771 0.930 . S
H3764 C3774 0.930 . S
H3765 C3775 0.930 . S
C3766 H3760 0.930 . S
C3766 C3767 1.355 . S
C3766 C3768 1.415 . S
C3767 C3766 1.355 . S
C3767 C3769 1.419 . S
C3768 C3766 1.415 . S
C3768 C3773 1.425 . S
C3768 C3775 1.409 . S
C3769 H3761 0.930 . S
C3769 C3767 1.419 . S
C3769 C3770 1.362 . S
C3770 H3762 0.930 . S
C3770 C3769 1.362 . S
C3770 C3773 1.409 . S
C3771 H3763 0.930 . S
C3771 C3772 1.355 . S
C3771 C3773 1.415 . S
C3772 C3771 1.355 . S
C3772 C3774 1.419 . S
C3773 C3768 1.425 . S
C3773 C3770 1.409 . S
C3773 C3771 1.415 . S
C3774 H3764 0.930 . S
C3774 C3772 1.419 . S
C3774 C3775 1.362 . S
C3775 H3765 0.930 . S
C3775 C3768 1.409 . S
C3775 C3774 1.362 . S
H3776 C3782 0.930 . S
H3777 C3785 0.930 . S
H3778 C3786 0.930 . S
H3779 C3787 0.930 . S
H3780 C3790 0.930 . S
H3781 C3791 0.930 . S
C3782 H3776 0.930 . S
C3782 C3783 1.355 . S
C3782 C3784 1.415 . S
C3783 C3782 1.355 . S
C3783 C3785 1.419 . S
C3784 C3782 1.415 . S
C3784 C3789 1.425 . S
C3784 C3791 1.409 . S
C3785 H3777 0.930 . S
C3785 C3783 1.419 . S
C3785 C3786 1.362 . S
C3786 H3778 0.930 . S
C3786 C3785 1.362 . S
C3786 C3789 1.409 . S
C3787 H3779 0.930 . S
C3787 C3788 1.355 . S
C3787 C3789 1.415 . S
C3788 C3787 1.355 . S
C3788 C3790 1.419 . S
C3789 C3784 1.425 . S
C3789 C3786 1.409 . S
C3789 C3787 1.415 . S
C3790 H3780 0.930 . S
C3790 C3788 1.419 . S
C3790 C3791 1.362 . S
C3791 H3781 0.930 . S
C3791 C3784 1.409 . S
C3791 C3790 1.362 . S
H3792 C3798 0.930 . S
H3793 C3801 0.930 . S
H3794 C3802 0.930 . S
H3795 C3803 0.930 . S
H3796 C3806 0.930 . S
H3797 C3807 0.930 . S
C3798 H3792 0.930 . S
C3798 C3799 1.355 . S
C3798 C3800 1.415 . S
C3799 C3798 1.355 . S
C3799 C3801 1.419 . S
C3800 C3798 1.415 . S
C3800 C3805 1.425 . S
C3800 C3807 1.409 . S
C3801 H3793 0.930 . S
C3801 C3799 1.419 . S
C3801 C3802 1.362 . S
C3802 H3794 0.930 . S
C3802 C3801 1.362 . S
C3802 C3805 1.409 . S
C3803 H3795 0.930 . S
C3803 C3804 1.355 . S
C3803 C3805 1.415 . S
C3804 C3803 1.355 . S
C3804 C3806 1.419 . S
C3805 C3800 1.425 . S
C3805 C3802 1.409 . S
C3805 C3803 1.415 . S
C3806 H3796 0.930 . S
C3806 C3804 1.419 . S
C3806 C3807 1.362 . S
C3807 H3797 0.930 . S
C3807 C3800 1.409 . S
C3807 C3806 1.362 . S
H3808 C3814 0.930 . S
H3809 C3817 0.930 . S
H3810 C3818 0.930 . S
H3811 C3819 0.930 . S
H3812 C3822 0.930 . S
H3813 C3823 0.930 . S
C3814 H3808 0.930 . S
C3814 C3815 1.355 . S
C3814 C3816 1.415 . S
C3815 C3814 1.355 . S
C3815 C3817 1.419 . S
C3816 C3814 1.415 . S
C3816 C3821 1.425 . S
C3816 C3823 1.409 . S
C3817 H3809 0.930 . S
C3817 C3815 1.419 . S
C3817 C3818 1.362 . S
C3818 H3810 0.930 . S
C3818 C3817 1.362 . S
C3818 C3821 1.409 . S
C3819 H3811 0.930 . S
C3819 C3820 1.355 . S
C3819 C3821 1.415 . S
C3820 C3819 1.355 . S
C3820 C3822 1.419 . S
C3821 C3816 1.425 . S
C3821 C3818 1.409 . S
C3821 C3819 1.415 . S
C3822 H3812 0.930 . S
C3822 C3820 1.419 . S
C3822 C3823 1.362 . S
C3823 H3813 0.930 . S
C3823 C3816 1.409 . S
C3823 C3822 1.362 . S
H3824 C3830 0.954 1_556 S
H3825 C3833 0.930 . S
H3826 C3834 0.930 . S
H3827 C3835 0.930 . S
H3828 C3838 0.930 . S
H3829 C3839 0.930 . S
C3830 H3824 0.954 1_554 S
C3830 C3831 1.339 1_545 S
C3830 C3832 1.410 . S
C3831 C3830 1.339 1_565 S
C3831 C3833 1.419 . S
C3832 C3830 1.410 . S
C3832 C3837 1.430 . S
C3832 C3839 1.409 1_554 S
C3833 H3825 0.930 . S
C3833 C3831 1.419 . S
C3833 C3834 1.362 . S
C3834 H3826 0.930 . S
C3834 C3833 1.362 . S
C3834 C3837 1.406 1_565 S
C3835 H3827 0.930 . S
C3835 C3836 1.355 . S
C3835 C3837 1.414 . S
C3836 C3835 1.355 . S
C3836 C3838 1.419 1_554 S
C3837 C3832 1.430 . S
C3837 C3834 1.406 1_545 S
C3837 C3835 1.414 . S
C3838 H3828 0.930 . S
C3838 C3836 1.419 1_556 S
C3838 C3839 1.362 . S
C3839 H3829 0.930 . S
C3839 C3832 1.409 1_556 S
C3839 C3838 1.362 . S
H3840 C3846 0.930 . S
H3841 C3849 0.930 . S
H3842 C3850 0.930 . S
H3843 C3851 0.930 . S
H3844 C3854 0.930 . S
H3845 C3855 0.930 . S
C3846 H3840 0.930 . S
C3846 C3847 1.355 . S
C3846 C3848 1.415 . S
C3847 C3846 1.355 . S
C3847 C3849 1.419 . S
C3848 C3846 1.415 . S
C3848 C3853 1.425 . S
C3848 C3855 1.409 . S
C3849 H3841 0.930 . S
C3849 C3847 1.419 . S
C3849 C3850 1.362 . S
C3850 H3842 0.930 . S
C3850 C3849 1.362 . S
C3850 C3853 1.409 . S
C3851 H3843 0.930 . S
C3851 C3852 1.355 . S
C3851 C3853 1.415 . S
C3852 C3851 1.355 . S
C3852 C3854 1.419 . S
C3853 C3848 1.425 . S
C3853 C3850 1.409 . S
C3853 C3851 1.415 . S
C3854 H3844 0.930 . S
C3854 C3852 1.419 . S
C3854 C3855 1.362 . S
C3855 H3845 0.930 . S
C3855 C3848 1.409 . S
C3855 C3854 1.362 . S
H3856 C3862 0.930 . S
H3857 C3865 0.930 . S
H3858 C3866 0.930 . S
H3859 C3867 0.930 . S
H3860 C3870 0.930 . S
H3861 C3871 0.930 . S
C3862 H3856 0.930 . S
C3862 C3863 1.355 1_556 S
C3862 C3864 1.415 1_556 S
C3863 C3862 1.355 1_554 S
C3863 C3865 1.419 . S
C3864 C3862 1.415 1_554 S
C3864 C3869 1.425 . S
C3864 C3871 1.409 1_554 S
C3865 H3857 0.930 . S
C3865 C3863 1.419 . S
C3865 C3866 1.362 . S
C3866 H3858 0.930 . S
C3866 C3865 1.362 . S
C3866 C3869 1.409 . S
C3867 H3859 0.930 . S
C3867 C3868 1.355 . S
C3867 C3869 1.415 . S
C3868 C3867 1.355 . S
C3868 C3870 1.419 . S
C3869 C3864 1.425 . S
C3869 C3866 1.409 . S
C3869 C3867 1.415 . S
C3870 H3860 0.930 . S
C3870 C3868 1.419 . S
C3870 C3871 1.362 1_554 S
C3871 H3861 0.930 . S
C3871 C3864 1.409 1_556 S
C3871 C3870 1.362 1_556 S
H3872 C3878 0.930 . S
H3873 C3881 0.930 . S
H3874 C3882 0.930 . S
H3875 C3883 0.930 . S
H3876 C3886 0.930 . S
H3877 C3887 0.930 . S
C3878 H3872 0.930 . S
C3878 C3879 1.355 . S
C3878 C3880 1.415 . S
C3879 C3878 1.355 . S
C3879 C3881 1.419 . S
C3880 C3878 1.415 . S
C3880 C3885 1.425 . S
C3880 C3887 1.409 . S
C3881 H3873 0.930 . S
C3881 C3879 1.419 . S
C3881 C3882 1.362 . S
C3882 H3874 0.930 . S
C3882 C3881 1.362 . S
C3882 C3885 1.409 . S
C3883 H3875 0.930 . S
C3883 C3884 1.355 . S
C3883 C3885 1.415 . S
C3884 C3883 1.355 . S
C3884 C3886 1.419 . S
C3885 C3880 1.425 . S
C3885 C3882 1.409 . S
C3885 C3883 1.415 . S
C3886 H3876 0.930 . S
C3886 C3884 1.419 . S
C3886 C3887 1.362 . S
C3887 H3877 0.930 . S
C3887 C3880 1.409 . S
C3887 C3886 1.362 . S
H3888 C3894 0.930 . S
H3889 C3897 0.930 . S
H3890 C3898 0.930 . S
H3891 C3899 0.930 . S
H3892 C3902 0.930 . S
H3893 C3903 0.930 . S
C3894 H3888 0.930 . S
C3894 C3895 1.355 . S
C3894 C3896 1.415 . S
C3895 C3894 1.355 . S
C3895 C3897 1.419 . S
C3896 C3894 1.415 . S
C3896 C3901 1.425 . S
C3896 C3903 1.409 . S
C3897 H3889 0.930 . S
C3897 C3895 1.419 . S
C3897 C3898 1.362 . S
C3898 H3890 0.930 . S
C3898 C3897 1.362 . S
C3898 C3901 1.409 . S
C3899 H3891 0.930 . S
C3899 C3900 1.355 . S
C3899 C3901 1.415 . S
C3900 C3899 1.355 . S
C3900 C3902 1.419 . S
C3901 C3896 1.425 . S
C3901 C3898 1.409 . S
C3901 C3899 1.415 . S
C3902 H3892 0.930 . S
C3902 C3900 1.419 . S
C3902 C3903 1.362 . S
C3903 H3893 0.930 . S
C3903 C3896 1.409 . S
C3903 C3902 1.362 . S
H3904 C3910 0.930 . S
H3905 C3913 0.930 . S
H3906 C3914 0.930 . S
H3907 C3915 0.930 . S
H3908 C3918 0.930 . S
H3909 C3919 0.930 . S
C3910 H3904 0.930 . S
C3910 C3911 1.355 . S
C3910 C3912 1.415 . S
C3911 C3910 1.355 . S
C3911 C3913 1.419 . S
C3912 C3910 1.415 . S
C3912 C3917 1.425 . S
C3912 C3919 1.409 . S
C3913 H3905 0.930 . S
C3913 C3911 1.419 . S
C3913 C3914 1.362 . S
C3914 H3906 0.930 . S
C3914 C3913 1.362 . S
C3914 C3917 1.409 . S
C3915 H3907 0.930 . S
C3915 C3916 1.355 . S
C3915 C3917 1.415 . S
C3916 C3915 1.355 . S
C3916 C3918 1.419 . S
C3917 C3912 1.425 . S
C3917 C3914 1.409 . S
C3917 C3915 1.415 . S
C3918 H3908 0.930 . S
C3918 C3916 1.419 . S
C3918 C3919 1.362 . S
C3919 H3909 0.930 . S
C3919 C3912 1.409 . S
C3919 C3918 1.362 . S
H3920 C3926 0.930 . S
H3921 C3929 0.930 . S
H3922 C3930 0.930 . S
H3923 C3931 0.930 . S
H3924 C3934 0.930 . S
H3925 C3935 0.930 . S
C3926 H3920 0.930 . S
C3926 C3927 1.355 . S
C3926 C3928 1.415 . S
C3927 C3926 1.355 . S
C3927 C3929 1.419 . S
C3928 C3926 1.415 . S
C3928 C3933 1.425 . S
C3928 C3935 1.409 . S
C3929 H3921 0.930 . S
C3929 C3927 1.419 . S
C3929 C3930 1.362 . S
C3930 H3922 0.930 . S
C3930 C3929 1.362 . S
C3930 C3933 1.409 . S
C3931 H3923 0.930 . S
C3931 C3932 1.355 . S
C3931 C3933 1.415 . S
C3932 C3931 1.355 . S
C3932 C3934 1.419 . S
C3933 C3928 1.425 . S
C3933 C3930 1.409 . S
C3933 C3931 1.415 . S
C3934 H3924 0.930 . S
C3934 C3932 1.419 . S
C3934 C3935 1.362 . S
C3935 H3925 0.930 . S
C3935 C3928 1.409 . S
C3935 C3934 1.362 . S
H3936 C3942 0.892 1_556 S
H3937 C3945 0.930 . S
H3938 C3946 0.930 . S
H3939 C3947 0.930 . S
H3940 C3950 0.930 . S
H3941 C3951 0.930 . S
C3942 H3936 0.892 1_554 S
C3942 C3943 1.355 . S
C3942 C3944 1.415 . S
C3943 C3942 1.355 . S
C3943 C3945 1.419 . S
C3944 C3942 1.415 . S
C3944 C3949 1.425 . S
C3944 C3951 1.409 1_554 S
C3945 H3937 0.930 . S
C3945 C3943 1.419 . S
C3945 C3946 1.362 . S
C3946 H3938 0.930 . S
C3946 C3945 1.362 . S
C3946 C3949 1.409 . S
C3947 H3939 0.930 . S
C3947 C3948 1.355 . S
C3947 C3949 1.415 . S
C3948 C3947 1.355 . S
C3948 C3950 1.419 1_554 S
C3949 C3944 1.425 . S
C3949 C3946 1.409 . S
C3949 C3947 1.415 . S
C3950 H3940 0.930 . S
C3950 C3948 1.419 1_556 S
C3950 C3951 1.362 . S
C3951 H3941 0.930 . S
C3951 C3944 1.409 1_556 S
C3951 C3950 1.362 . S
H3952 C3958 0.930 . S
H3953 C3961 0.930 . S
H3954 C3962 0.930 . S
H3955 C3963 0.930 . S
H3956 C3966 0.930 . S
H3957 C3967 0.930 . S
C3958 H3952 0.930 . S
C3958 C3959 1.355 . S
C3958 C3960 1.415 . S
C3959 C3958 1.355 . S
C3959 C3961 1.419 . S
C3960 C3958 1.415 . S
C3960 C3965 1.425 . S
C3960 C3967 1.409 . S
C3961 H3953 0.930 . S
C3961 C3959 1.419 . S
C3961 C3962 1.362 . S
C3962 H3954 0.930 . S
C3962 C3961 1.362 . S
C3962 C3965 1.409 . S
C3963 H3955 0.930 . S
C3963 C3964 1.355 . S
C3963 C3965 1.415 . S
C3964 C3963 1.355 . S
C3964 C3966 1.419 . S
C3965 C3960 1.425 . S
C3965 C3962 1.409 . S
C3965 C3963 1.415 . S
C3966 H3956 0.930 . S
C3966 C3964 1.419 . S
C3966 C3967 1.362 . S
C3967 H3957 0.930 . S
C3967 C3960 1.409 . S
C3967 C3966 1.362 . S
H3968 C3974 0.930 . S
H3969 C3977 0.930 . S
H3970 C3978 0.930 . S
H3971 C3979 0.930 . S
H3972 C3982 0.930 . S
H3973 C3983 0.930 . S
C3974 H3968 0.930 . S
C3974 C3975 1.355 . S
C3974 C3976 1.415 . S
C3975 C3974 1.355 . S
C3975 C3977 1.419 . S
C3976 C3974 1.415 . S
C3976 C3981 1.425 . S
C3976 C3983 1.409 . S
C3977 H3969 0.930 . S
C3977 C3975 1.419 . S
C3977 C3978 1.362 . S
C3978 H3970 0.930 . S
C3978 C3977 1.362 . S
C3978 C3981 1.409 . S
C3979 H3971 0.930 . S
C3979 C3980 1.355 . S
C3979 C3981 1.415 . S
C3980 C3979 1.355 . S
C3980 C3982 1.419 . S
C3981 C3976 1.425 . S
C3981 C3978 1.409 . S
C3981 C3979 1.415 . S
C3982 H3972 0.930 . S
C3982 C3980 1.419 . S
C3982 C3983 1.362 . S
C3983 H3973 0.930 . S
C3983 C3976 1.409 . S
C3983 C3982 1.362 . S
H3984 C3990 0.930 . S
H3985 C3993 0.930 . S
H3986 C3994 0.930 . S
H3987 C3995 0.930 . S
H3988 C3998 0.930 . S
H3989 C3999 0.930 . S
C3990 H3984 0.930 . S
C3990 C3991 1.355 . S
C3990 C3992 1.415 . S
C3991 C3990 1.355 . S
C3991 C3993 1.419 . S
C3992 C3990 1.415 . S
C3992 C3997 1.425 . S
C3992 C3999 1.409 . S
C3993 H3985 0.930 . S
C3993 C3991 1.419 . S
C3993 C3994 1.362 . S
C3994 H3986 0.930 . S
C3994 C3993 1.362 . S
C3994 C3997 1.409 . S
C3995 H3987 0.930 . S
C3995 C3996 1.355 . S
C3995 C3997 1.415 . S
C3996 C3995 1.355 . S
C3996 C3998 1.419 . S
C3997 C3992 1.425 . S
C3997 C3994 1.409 . S
C3997 C3995 1.415 . S
C3998 H3988 0.930 . S
C3998 C3996 1.419 . S
C3998 C3999 1.362 . S
C3999 H3989 0.930 . S
C3999 C3992 1.409 . S
C3999 C3998 1.362 . S
H4000 C4006 0.930 . S
H4001 C4009 0.930 . S
H4002 C4010 0.930 . S
H4003 C4011 0.930 . S
H4004 C4014 0.930 . S
H4005 C4015 0.930 . S
C4006 H4000 0.930 . S
C4006 C4007 1.355 . S
C4006 C4008 1.415 . S
C4007 C4006 1.355 . S
C4007 C4009 1.419 . S
C4008 C4006 1.415 . S
C4008 C4013 1.425 . S
C4008 C4015 1.409 . S
C4009 H4001 0.930 . S
C4009 C4007 1.419 . S
C4009 C4010 1.362 . S
C4010 H4002 0.930 . S
C4010 C4009 1.362 . S
C4010 C4013 1.409 . S
C4011 H4003 0.930 . S
C4011 C4012 1.355 . S
C4011 C4013 1.415 . S
C4012 C4011 1.355 . S
C4012 C4014 1.419 . S
C4013 C4008 1.425 . S
C4013 C4010 1.409 . S
C4013 C4011 1.415 . S
C4014 H4004 0.930 . S
C4014 C4012 1.419 . S
C4014 C4015 1.362 . S
C4015 H4005 0.930 . S
C4015 C4008 1.409 . S
C4015 C4014 1.362 . S
H4016 C4022 0.930 . S
H4017 C4025 0.930 . S
H4018 C4026 0.930 . S
H4019 C4027 0.930 . S
H4020 C4030 0.930 . S
H4021 C4031 0.930 . S
C4022 H4016 0.930 . S
C4022 C4023 1.355 . S
C4022 C4024 1.415 . S
C4023 C4022 1.355 . S
C4023 C4025 1.419 . S
C4024 C4022 1.415 . S
C4024 C4029 1.425 . S
C4024 C4031 1.409 . S
C4025 H4017 0.930 . S
C4025 C4023 1.419 . S
C4025 C4026 1.362 . S
C4026 H4018 0.930 . S
C4026 C4025 1.362 . S
C4026 C4029 1.409 . S
C4027 H4019 0.930 . S
C4027 C4028 1.355 . S
C4027 C4029 1.415 . S
C4028 C4027 1.355 . S
C4028 C4030 1.419 . S
C4029 C4024 1.425 . S
C4029 C4026 1.409 . S
C4029 C4027 1.415 . S
C4030 H4020 0.930 . S
C4030 C4028 1.419 . S
C4030 C4031 1.362 . S
C4031 H4021 0.930 . S
C4031 C4024 1.409 . S
C4031 C4030 1.362 . S
H4032 C4038 0.930 . S
H4033 C4041 0.930 . S
H4034 C4042 0.930 . S
H4035 C4043 0.930 . S
H4036 C4046 0.930 . S
H4037 C4047 0.930 . S
C4038 H4032 0.930 . S
C4038 C4039 1.355 . S
C4038 C4040 1.415 . S
C4039 C4038 1.355 . S
C4039 C4041 1.419 . S
C4040 C4038 1.415 . S
C4040 C4045 1.425 . S
C4040 C4047 1.409 . S
C4041 H4033 0.930 . S
C4041 C4039 1.419 . S
C4041 C4042 1.362 . S
C4042 H4034 0.930 . S
C4042 C4041 1.362 . S
C4042 C4045 1.409 . S
C4043 H4035 0.930 . S
C4043 C4044 1.355 . S
C4043 C4045 1.415 . S
C4044 C4043 1.355 . S
C4044 C4046 1.419 . S
C4045 C4040 1.425 . S
C4045 C4042 1.409 . S
C4045 C4043 1.415 . S
C4046 H4036 0.930 . S
C4046 C4044 1.419 . S
C4046 C4047 1.362 . S
C4047 H4037 0.930 . S
C4047 C4040 1.409 . S
C4047 C4046 1.362 . S
H4048 C4054 0.930 . S
H4049 C4057 0.930 . S
H4050 C4058 0.930 . S
H4051 C4059 0.930 . S
H4052 C4062 0.930 . S
H4053 C4063 0.930 . S
C4054 H4048 0.930 . S
C4054 C4055 1.355 . S
C4054 C4056 1.415 . S
C4055 C4054 1.355 . S
C4055 C4057 1.419 . S
C4056 C4054 1.415 . S
C4056 C4061 1.425 . S
C4056 C4063 1.409 . S
C4057 H4049 0.930 . S
C4057 C4055 1.419 . S
C4057 C4058 1.362 . S
C4058 H4050 0.930 . S
C4058 C4057 1.362 . S
C4058 C4061 1.409 . S
C4059 H4051 0.930 . S
C4059 C4060 1.355 . S
C4059 C4061 1.415 . S
C4060 C4059 1.355 . S
C4060 C4062 1.419 . S
C4061 C4056 1.425 . S
C4061 C4058 1.409 . S
C4061 C4059 1.415 . S
C4062 H4052 0.930 . S
C4062 C4060 1.419 . S
C4062 C4063 1.362 . S
C4063 H4053 0.930 . S
C4063 C4056 1.409 . S
C4063 C4062 1.362 . S
H4064 C4070 0.930 . S
H4065 C4073 0.930 . S
H4066 C4074 0.930 . S
H4067 C4075 0.930 . S
H4068 C4078 0.930 1_655 S
H4069 C4079 0.930 . S
C4070 H4064 0.930 . S
C4070 C4071 1.355 . S
C4070 C4072 1.415 . S
C4071 C4070 1.355 . S
C4071 C4073 1.419 1_655 S
C4072 C4070 1.415 . S
C4072 C4077 1.425 1_655 S
C4072 C4079 1.409 . S
C4073 H4065 0.930 . S
C4073 C4071 1.419 1_455 S
C4073 C4074 1.362 . S
C4074 H4066 0.930 . S
C4074 C4073 1.362 . S
C4074 C4077 1.409 . S
C4075 H4067 0.930 . S
C4075 C4076 1.355 . S
C4075 C4077 1.415 . S
C4076 C4075 1.355 . S
C4076 C4078 1.419 . S
C4077 C4072 1.425 1_455 S
C4077 C4074 1.409 . S
C4077 C4075 1.415 . S
C4078 H4068 0.930 1_455 S
C4078 C4076 1.419 . S
C4078 C4079 1.362 1_455 S
C4079 H4069 0.930 . S
C4079 C4072 1.409 . S
C4079 C4078 1.362 1_655 S
H4080 C4086 0.930 . S
H4081 C4089 0.930 . S
H4082 C4090 0.930 . S
H4083 C4091 0.930 . S
H4084 C4094 0.930 . S
H4085 C4095 0.930 . S
C4086 H4080 0.930 . S
C4086 C4087 1.355 . S
C4086 C4088 1.415 . S
C4087 C4086 1.355 . S
C4087 C4089 1.419 . S
C4088 C4086 1.415 . S
C4088 C4093 1.425 . S
C4088 C4095 1.409 . S
C4089 H4081 0.930 . S
C4089 C4087 1.419 . S
C4089 C4090 1.362 . S
C4090 H4082 0.930 . S
C4090 C4089 1.362 . S
C4090 C4093 1.409 . S
C4091 H4083 0.930 . S
C4091 C4092 1.355 . S
C4091 C4093 1.415 . S
C4092 C4091 1.355 . S
C4092 C4094 1.419 . S
C4093 C4088 1.425 . S
C4093 C4090 1.409 . S
C4093 C4091 1.415 . S
C4094 H4084 0.930 . S
C4094 C4092 1.419 . S
C4094 C4095 1.362 . S
C4095 H4085 0.930 . S
C4095 C4088 1.409 . S
C4095 C4094 1.362 . S
H4096 C4102 0.930 . S
H4097 C4105 0.930 . S
H4098 C4106 0.930 . S
H4099 C4107 0.930 . S
H4100 C4110 0.930 . S
H4101 C4111 0.930 . S
C4102 H4096 0.930 . S
C4102 C4103 1.355 . S
C4102 C4104 1.415 . S
C4103 C4102 1.355 . S
C4103 C4105 1.419 . S
C4104 C4102 1.415 . S
C4104 C4109 1.425 . S
C4104 C4111 1.409 . S
C4105 H4097 0.930 . S
C4105 C4103 1.419 . S
C4105 C4106 1.362 . S
C4106 H4098 0.930 . S
C4106 C4105 1.362 . S
C4106 C4109 1.409 . S
C4107 H4099 0.930 . S
C4107 C4108 1.355 . S
C4107 C4109 1.415 . S
C4108 C4107 1.355 . S
C4108 C4110 1.419 . S
C4109 C4104 1.425 . S
C4109 C4106 1.409 . S
C4109 C4107 1.415 . S
C4110 H4100 0.930 . S
C4110 C4108 1.419 . S
C4110 C4111 1.362 . S
C4111 H4101 0.930 . S
C4111 C4104 1.409 . S
C4111 C4110 1.362 . S
H4112 C4118 0.930 . S
H4113 C4121 0.930 . S
H4114 C4122 0.930 . S
H4115 C4123 0.930 . S
H4116 C4126 0.930 . S
H4117 C4127 0.930 . S
C4118 H4112 0.930 . S
C4118 C4119 1.355 . S
C4118 C4120 1.415 . S
C4119 C4118 1.355 . S
C4119 C4121 1.419 . S
C4120 C4118 1.415 . S
C4120 C4125 1.425 . S
C4120 C4127 1.409 . S
C4121 H4113 0.930 . S
C4121 C4119 1.419 . S
C4121 C4122 1.362 . S
C4122 H4114 0.930 . S
C4122 C4121 1.362 . S
C4122 C4125 1.409 . S
C4123 H4115 0.930 . S
C4123 C4124 1.355 . S
C4123 C4125 1.415 . S
C4124 C4123 1.355 . S
C4124 C4126 1.419 . S
C4125 C4120 1.425 . S
C4125 C4122 1.409 . S
C4125 C4123 1.415 . S
C4126 H4116 0.930 . S
C4126 C4124 1.419 . S
C4126 C4127 1.362 . S
C4127 H4117 0.930 . S
C4127 C4120 1.409 . S
C4127 C4126 1.362 . S
H4128 C4134 0.930 . S
H4129 C4137 0.930 . S
H4130 C4138 0.930 . S
H4131 C4139 0.930 . S
H4132 C4142 0.930 1_455 S
H4133 C4143 0.930 1_455 S
C4134 H4128 0.930 . S
C4134 C4135 1.355 . S
C4134 C4136 1.415 . S
C4135 C4134 1.355 . S
C4135 C4137 1.419 . S
C4136 C4134 1.415 . S
C4136 C4141 1.425 . S
C4136 C4143 1.409 . S
C4137 H4129 0.930 . S
C4137 C4135 1.419 . S
C4137 C4138 1.362 . S
C4138 H4130 0.930 . S
C4138 C4137 1.362 . S
C4138 C4141 1.409 . S
C4139 H4131 0.930 . S
C4139 C4140 1.355 . S
C4139 C4141 1.415 . S
C4140 C4139 1.355 . S
C4140 C4142 1.419 . S
C4141 C4136 1.425 . S
C4141 C4138 1.409 . S
C4141 C4139 1.415 . S
C4142 H4132 0.930 1_655 S
C4142 C4140 1.419 . S
C4142 C4143 1.362 . S
C4143 H4133 0.930 1_655 S
C4143 C4136 1.409 . S
C4143 C4142 1.362 . S
H4144 C4150 0.930 . S
H4145 C4153 0.930 . S
H4146 C4154 0.930 . S
H4147 C4155 0.930 . S
H4148 C4158 0.930 . S
H4149 C4159 0.930 . S
C4150 H4144 0.930 . S
C4150 C4151 1.355 . S
C4150 C4152 1.415 . S
C4151 C4150 1.355 . S
C4151 C4153 1.419 . S
C4152 C4150 1.415 . S
C4152 C4157 1.425 . S
C4152 C4159 1.409 . S
C4153 H4145 0.930 . S
C4153 C4151 1.419 . S
C4153 C4154 1.362 . S
C4154 H4146 0.930 . S
C4154 C4153 1.362 . S
C4154 C4157 1.409 . S
C4155 H4147 0.930 . S
C4155 C4156 1.355 . S
C4155 C4157 1.415 . S
C4156 C4155 1.355 . S
C4156 C4158 1.419 . S
C4157 C4152 1.425 . S
C4157 C4154 1.409 . S
C4157 C4155 1.415 . S
C4158 H4148 0.930 . S
C4158 C4156 1.419 . S
C4158 C4159 1.362 . S
C4159 H4149 0.930 . S
C4159 C4152 1.409 . S
C4159 C4158 1.362 . S
H4160 C4166 0.930 . S
H4161 C4169 0.930 . S
H4162 C4170 0.930 . S
H4163 C4171 0.930 . S
H4164 C4174 0.930 . S
H4165 C4175 0.930 . S
C4166 H4160 0.930 . S
C4166 C4167 1.355 . S
C4166 C4168 1.415 . S
C4167 C4166 1.355 . S
C4167 C4169 1.419 . S
C4168 C4166 1.415 . S
C4168 C4173 1.425 . S
C4168 C4175 1.409 . S
C4169 H4161 0.930 . S
C4169 C4167 1.419 . S
C4169 C4170 1.362 . S
C4170 H4162 0.930 . S
C4170 C4169 1.362 . S
C4170 C4173 1.409 . S
C4171 H4163 0.930 . S
C4171 C4172 1.355 . S
C4171 C4173 1.415 . S
C4172 C4171 1.355 . S
C4172 C4174 1.419 . S
C4173 C4168 1.425 . S
C4173 C4170 1.409 . S
C4173 C4171 1.415 . S
C4174 H4164 0.930 . S
C4174 C4172 1.419 . S
C4174 C4175 1.362 . S
C4175 H4165 0.930 . S
C4175 C4168 1.409 . S
C4175 C4174 1.362 . S
H4176 C4182 0.930 . S
H4177 C4185 0.930 . S
H4178 C4186 0.930 . S
H4179 C4187 0.930 . S
H4180 C4190 0.930 . S
H4181 C4191 0.930 . S
C4182 H4176 0.930 . S
C4182 C4183 1.355 . S
C4182 C4184 1.415 . S
C4183 C4182 1.355 . S
C4183 C4185 1.419 . S
C4184 C4182 1.415 . S
C4184 C4189 1.425 . S
C4184 C4191 1.409 1_565 S
C4185 H4177 0.930 . S
C4185 C4183 1.419 . S
C4185 C4186 1.362 . S
C4186 H4178 0.930 . S
C4186 C4185 1.362 . S
C4186 C4189 1.409 . S
C4187 H4179 0.930 . S
C4187 C4188 1.355 1_565 S
C4187 C4189 1.415 . S
C4188 C4187 1.355 1_545 S
C4188 C4190 1.419 . S
C4189 C4184 1.425 . S
C4189 C4186 1.409 . S
C4189 C4187 1.415 . S
C4190 H4180 0.930 . S
C4190 C4188 1.419 . S
C4190 C4191 1.362 . S
C4191 H4181 0.930 . S
C4191 C4184 1.409 1_545 S
C4191 C4190 1.362 . S
H4192 C4198 0.930 . S
H4193 C4201 0.930 . S
H4194 C4202 0.930 . S
H4195 C4203 0.930 . S
H4196 C4206 0.930 . S
H4197 C4207 0.930 . S
C4198 H4192 0.930 . S
C4198 C4199 1.355 . S
C4198 C4200 1.415 . S
C4199 C4198 1.355 . S
C4199 C4201 1.419 . S
C4200 C4198 1.415 . S
C4200 C4205 1.425 . S
C4200 C4207 1.409 . S
C4201 H4193 0.930 . S
C4201 C4199 1.419 . S
C4201 C4202 1.362 . S
C4202 H4194 0.930 . S
C4202 C4201 1.362 . S
C4202 C4205 1.409 . S
C4203 H4195 0.930 . S
C4203 C4204 1.355 . S
C4203 C4205 1.415 . S
C4204 C4203 1.355 . S
C4204 C4206 1.419 . S
C4205 C4200 1.425 . S
C4205 C4202 1.409 . S
C4205 C4203 1.415 . S
C4206 H4196 0.930 . S
C4206 C4204 1.419 . S
C4206 C4207 1.362 . S
C4207 H4197 0.930 . S
C4207 C4200 1.409 . S
C4207 C4206 1.362 . S
H4208 C4214 0.930 . S
H4209 C4217 0.930 . S
H4210 C4218 0.930 . S
H4211 C4219 0.930 . S
H4212 C4222 0.930 . S
H4213 C4223 0.930 . S
C4214 H4208 0.930 . S
C4214 C4215 1.335 1_556 S
C4214 C4216 1.415 . S
C4215 C4214 1.335 1_554 S
C4215 C4217 1.456 . S
C4216 C4214 1.415 . S
C4216 C4221 1.425 1_556 S
C4216 C4223 1.409 . S
C4217 H4209 0.930 . S
C4217 C4215 1.456 . S
C4217 C4218 1.362 . S
C4218 H4210 0.930 . S
C4218 C4217 1.362 . S
C4218 C4221 1.409 . S
C4219 H4211 0.930 . S
C4219 C4220 1.355 . S
C4219 C4221 1.415 . S
C4220 C4219 1.355 . S
C4220 C4222 1.419 1_554 S
C4221 C4216 1.425 1_554 S
C4221 C4218 1.409 . S
C4221 C4219 1.415 . S
C4222 H4212 0.930 . S
C4222 C4220 1.419 1_556 S
C4222 C4223 1.362 . S
C4223 H4213 0.930 . S
C4223 C4216 1.409 . S
C4223 C4222 1.362 . S
H4224 C4230 0.930 . S
H4225 C4233 0.930 . S
H4226 C4234 0.930 . S
H4227 C4235 0.930 . S
H4228 C4238 0.930 . S
H4229 C4239 0.930 . S
C4230 H4224 0.930 . S
C4230 C4231 1.355 . S
C4230 C4232 1.415 . S
C4231 C4230 1.355 . S
C4231 C4233 1.419 . S
C4232 C4230 1.415 . S
C4232 C4237 1.425 . S
C4232 C4239 1.409 . S
C4233 H4225 0.930 . S
C4233 C4231 1.419 . S
C4233 C4234 1.362 . S
C4234 H4226 0.930 . S
C4234 C4233 1.362 . S
C4234 C4237 1.409 . S
C4235 H4227 0.930 . S
C4235 C4236 1.355 . S
C4235 C4237 1.415 . S
C4236 C4235 1.355 . S
C4236 C4238 1.419 . S
C4237 C4232 1.425 . S
C4237 C4234 1.409 . S
C4237 C4235 1.415 . S
C4238 H4228 0.930 . S
C4238 C4236 1.419 . S
C4238 C4239 1.362 . S
C4239 H4229 0.930 . S
C4239 C4232 1.409 . S
C4239 C4238 1.362 . S
H4240 C4246 0.945 . S
H4241 C4249 0.930 . S
H4242 C4250 0.930 . S
H4243 C4251 0.937 . S
H4244 C4254 0.930 . S
H4245 C4255 0.930 . S
C4246 H4240 0.945 . S
C4246 C4247 1.355 . S
C4246 C4248 1.415 1_554 S
C4247 C4246 1.355 . S
C4247 C4249 1.419 . S
C4248 C4246 1.415 1_556 S
C4248 C4253 1.425 1_556 S
C4248 C4255 1.409 . S
C4249 H4241 0.930 . S
C4249 C4247 1.419 . S
C4249 C4250 1.362 . S
C4250 H4242 0.930 . S
C4250 C4249 1.362 . S
C4250 C4253 1.409 . S
C4251 H4243 0.937 . S
C4251 C4252 1.355 . S
C4251 C4253 1.415 1_556 S
C4252 C4251 1.355 . S
C4252 C4254 1.419 . S
C4253 C4248 1.425 1_554 S
C4253 C4250 1.409 . S
C4253 C4251 1.415 1_554 S
C4254 H4244 0.930 . S
C4254 C4252 1.419 . S
C4254 C4255 1.362 . S
C4255 H4245 0.930 . S
C4255 C4248 1.409 . S
C4255 C4254 1.362 . S
H4256 C4262 0.930 . S
H4257 C4265 0.930 . S
H4258 C4266 0.930 . S
H4259 C4267 0.930 . S
H4260 C4270 0.930 . S
H4261 C4271 0.930 . S
C4262 H4256 0.930 . S
C4262 C4263 1.355 . S
C4262 C4264 1.415 . S
C4263 C4262 1.355 . S
C4263 C4265 1.419 . S
C4264 C4262 1.415 . S
C4264 C4269 1.425 . S
C4264 C4271 1.409 . S
C4265 H4257 0.930 . S
C4265 C4263 1.419 . S
C4265 C4266 1.362 . S
C4266 H4258 0.930 . S
C4266 C4265 1.362 . S
C4266 C4269 1.409 . S
C4267 H4259 0.930 . S
C4267 C4268 1.355 . S
C4267 C4269 1.415 . S
C4268 C4267 1.355 . S
C4268 C4270 1.419 . S
C4269 C4264 1.425 . S
C4269 C4266 1.409 . S
C4269 C4267 1.415 . S
C4270 H4260 0.930 . S
C4270 C4268 1.419 . S
C4270 C4271 1.362 . S
C4271 H4261 0.930 . S
C4271 C4264 1.409 . S
C4271 C4270 1.362 . S
H4272 C4278 0.930 . S
H4273 C4281 0.930 . S
H4274 C4282 0.930 . S
H4275 C4283 0.930 . S
H4276 C4286 0.930 . S
H4277 C4287 0.930 . S
C4278 H4272 0.930 . S
C4278 C4279 1.355 . S
C4278 C4280 1.415 . S
C4279 C4278 1.355 . S
C4279 C4281 1.419 . S
C4280 C4278 1.415 . S
C4280 C4285 1.425 . S
C4280 C4287 1.409 . S
C4281 H4273 0.930 . S
C4281 C4279 1.419 . S
C4281 C4282 1.362 . S
C4282 H4274 0.930 . S
C4282 C4281 1.362 . S
C4282 C4285 1.409 . S
C4283 H4275 0.930 . S
C4283 C4284 1.355 . S
C4283 C4285 1.415 . S
C4284 C4283 1.355 . S
C4284 C4286 1.419 . S
C4285 C4280 1.425 . S
C4285 C4282 1.409 . S
C4285 C4283 1.415 . S
C4286 H4276 0.930 . S
C4286 C4284 1.419 . S
C4286 C4287 1.362 . S
C4287 H4277 0.930 . S
C4287 C4280 1.409 . S
C4287 C4286 1.362 . S
C2759 C665 2.217 . S
C2764 C2114 2.257 1_556 S
C2775 C381 2.104 . S
C2780 C2171 2.096 . S
C2791 C460 1.301 . S
C2796 C2194 1.302 . S
C2812 C2248 1.386 . S
C2807 C585 1.415 . S
C2823 C108 1.343 . S
C2828 C2288 1.271 . S
C2844 C2319 0.434 . S
C2839 C196 0.551 . S
C2860 C2371 1.437 . S
C2855 C313 1.406 . S
C2871 C49 1.717 . S
C2876 C2394 1.720 . S
C2892 C2131 2.414 . S
C2887 C1457 2.432 1_455 S
C2903 C1545 0.465 . S
C2908 C2168 0.547 . S
C2924 C2211 1.255 . S
C2919 C1721 1.290 . S
C2940 C2234 1.549 . S
C2935 C1113 1.496 . S
C2951 C1428 1.991 1_455 S
C2956 C2274 2.023 . S
C2972 C2322 1.416 . S
C2967 C1516 1.418 . S
C2988 C2368 0.393 . S
C2983 C1692 0.251 . S
C3004 C2411 2.017 . S
C2999 C1085 2.051 . S
C3020 C2128 1.504 . S
C3015 C988 1.522 . S
C3031 C1817 1.940 . S
C3036 C2451 1.927 1_556 S
C3052 C2483 2.518 . S
C3047 C2081 2.582 . S
C3068 C2514 0.670 1_655 S
C3063 C1993 0.745 . S
C3079 C761 1.448 . S
C3084 C2408 1.411 . S
C3095 C821 1.569 . S
C3100 C2208 1.542 . S
C3111 C2053 2.302 . S
C3116 C2571 2.282 . S
C3132 C2594 0.377 . S
C3127 C1868 0.431 . S
C3148 C2123 2.254 . S
C3143 C372 2.241 . S
C3164 C2602 2.106 . S
C3159 C645 2.074 . S
C3175 C577 1.231 . S
C3180 C2203 1.297 . S
C3191 C497 1.401 . S
C3196 C2559 1.360 . S
C3212 C2279 1.354 . S
C3207 C57 1.410 . S
C3223 C293 0.511 . S
C3228 C2488 0.440 . S
C3244 C2362 1.386 . S
C3239 C205 1.301 . S
C3260 C2643 1.729 . S
C3255 C145 1.724 . S
C3276 C2122 2.408 . S
C3271 C909 2.430 1_545 S
C3292 C2599 0.461 . S
C3287 C1956 0.363 . S
C3303 C724 1.295 . S
C3308 C2202 1.257 . S
C3319 C1780 1.437 . S
C3324 C2563 1.536 . S
C3335 C937 1.938 . S
C3340 C2283 2.019 . S
C3356 C2491 1.380 . S
C3351 C1985 1.414 . S
C3367 C753 0.382 . S
C3372 C2359 0.425 . S
C3383 C1809 2.035 . S
C3388 C2642 2.001 . S
C3399 C1173 1.514 . S
C3404 C2119 1.483 . S
C3415 C1105 1.952 . S
C3420 C2442 1.936 . S
C3431 C1633 2.581 . S
C3436 C2314 2.534 . S
C3447 C1553 0.697 . S
C3452 C2523 0.645 . S
C3468 C2639 1.342 . S
C3463 C1729 1.407 . S
C3479 C1340 1.528 . S
C3484 C2199 1.472 . S
C3500 C2242 2.247 . S
C3495 C1604 2.275 . S
C3516 C2163 0.336 . S
C3511 C1252 0.416 . S
C3527 C489 2.241 . S
C3532 C2674 2.256 . S
C3548 C2611 2.104 . S
C3543 C557 2.105 . S
C3559 C636 1.241 . S
C3564 C2714 1.318 . S
C3575 C409 1.401 . S
C3580 C2568 1.364 . S
C3591 C284 1.368 . S
C3596 C2448 1.298 . S
C3612 C2479 0.411 . S
C3607 C20 0.491 . S
C3628 C2531 1.369 . S
C3623 C137 1.332 . S
C3644 C2634 1.705 . S
C3639 C225 1.744 . S
C3660 C2691 2.413 . S
C3655 C1641 2.432 . S
C3671 C1193 0.385 . S
C3676 C2608 0.488 . S
C3692 C2731 1.312 . S
C3687 C1289 1.315 . S
C3708 C2554 1.543 . S
C3703 C1377 1.506 . S
C3724 C2434 2.013 . S
C3719 C1613 1.945 . S
C3735 C1164 1.422 . S
C3740 C2482 1.374 . S
C3756 C2528 0.574 . S
C3751 C1261 0.462 . S
C3767 C1349 2.034 . S
C3772 C2651 1.997 . S
C3788 C2688 1.540 . S
C3783 C1965 1.559 . S
C3799 C849 1.942 . S
C3804 C2291 1.948 . S
C3820 C2323 2.515 . S
C3815 C929 2.581 . S
C3836 C2354 0.641 . S
C3831 C1017 0.649 . S
C3852 C2648 1.383 . S
C3847 C1897 1.427 . S
C3863 C1789 1.523 . S
C3868 C2728 1.471 . S
C3884 C2251 2.246 . S
C3879 C900 2.287 . S
C3900 C2154 0.479 . S
C3895 C733 0.385 . S
C3911 C548 2.219 . S
C3916 C2683 2.266 . S
C3932 C2162 2.087 . S
C3927 C469 2.088 . S
C3943 C401 1.212 . S
C3948 C2723 1.306 . S
C3959 C673 1.414 . S
C3964 C2239 1.406 . S
C3975 C233 1.371 . S
C3980 C2439 1.319 . S
C3996 C2328 0.431 . S
C3991 C117 0.536 . S
C4007 C29 1.354 . S
C4012 C2522 1.420 . S
C4023 C321 1.762 . S
C4028 C2403 1.735 . S
C4044 C2682 2.403 . S
C4039 C2044 2.427 . S
C4055 C997 0.357 . S
C4060 C2159 0.449 . S
C4076 C2722 1.296 . S
C4071 C1877 1.311 . S
C4087 C812 1.472 . S
C4092 C2243 1.544 . S
C4103 C2073 1.974 . S
C4108 C2443 2.034 . S
C4124 C2331 1.371 . S
C4119 C1025 1.424 . S
C4135 C1905 0.235 . S
C4140 C2519 0.322 . S
C4156 C2402 1.995 . S
C4151 C841 2.032 . S
C4172 C2679 1.460 . S
C4167 C1525 1.521 . S
C4188 C2282 1.929 1_655 S
C4183 C1369 1.941 . S
C4199 C1465 2.581 . S
C4204 C2474 2.524 . S
C4220 C2363 0.641 . S
C4215 C1201 0.594 . S
C4231 C1281 1.477 . S
C4236 C2399 1.428 . S
C4247 C1076 1.564 . S
C4252 C2719 1.531 . S
C4268 C2562 2.248 . S
C4263 C1437 2.287 . S
C4284 C2603 0.373 . S
C4279 C1701 0.381 . S
