# Generated by pormake.
# Topology soc, (4,6)-cn, num edge types: 1
# Building blocks:
#     Node 0, Type 0, BuildingBlock: ESEHIV_clean_sbu_0, # of connection points: 4
#     Node 1, Type 0, BuildingBlock: ESEHIV_clean_sbu_0, # of connection points: 4
#     Node 2, Type 0, BuildingBlock: ESEHIV_clean_sbu_0, # of connection points: 4
#     Node 3, Type 0, BuildingBlock: ESEHIV_clean_sbu_0, # of connection points: 4
#     Node 4, Type 0, BuildingBlock: ESEHIV_clean_sbu_0, # of connection points: 4
#     Node 5, Type 0, BuildingBlock: ESEHIV_clean_sbu_0, # of connection points: 4
#     Node 6, Type 0, BuildingBlock: ESEHIV_clean_sbu_0, # of connection points: 4
#     Node 7, Type 0, BuildingBlock: ESEHIV_clean_sbu_0, # of connection points: 4
#     Node 8, Type 0, BuildingBlock: ESEHIV_clean_sbu_0, # of connection points: 4
#     Node 9, Type 0, BuildingBlock: ESEHIV_clean_sbu_0, # of connection points: 4
#     Node 10, Type 0, BuildingBlock: ESEHIV_clean_sbu_0, # of connection points: 4
#     Node 11, Type 0, BuildingBlock: ESEHIV_clean_sbu_0, # of connection points: 4
#     Node 12, Type 1, BuildingBlock: PAMTUU_clean_sbu_0, # of connection points: 6
#     Node 13, Type 1, BuildingBlock: PAMTUU_clean_sbu_0, # of connection points: 6
#     Node 14, Type 1, BuildingBlock: PAMTUU_clean_sbu_0, # of connection points: 6
#     Node 15, Type 1, BuildingBlock: PAMTUU_clean_sbu_0, # of connection points: 6
#     Node 16, Type 1, BuildingBlock: PAMTUU_clean_sbu_0, # of connection points: 6
#     Node 17, Type 1, BuildingBlock: PAMTUU_clean_sbu_0, # of connection points: 6
#     Node 18, Type 1, BuildingBlock: PAMTUU_clean_sbu_0, # of connection points: 6
#     Node 19, Type 1, BuildingBlock: PAMTUU_clean_sbu_0, # of connection points: 6
#     Edge 20, Type (0, 1), BuildingBlock: KIFKEQ_clean_linker_1, # of connection points: 2
#     Edge 21, Type (0, 1), BuildingBlock: KIFKEQ_clean_linker_1, # of connection points: 2
#     Edge 22, Type (0, 1), BuildingBlock: KIFKEQ_clean_linker_1, # of connection points: 2
#     Edge 23, Type (0, 1), BuildingBlock: KIFKEQ_clean_linker_1, # of connection points: 2
#     Edge 24, Type (0, 1), BuildingBlock: KIFKEQ_clean_linker_1, # of connection points: 2
#     Edge 25, Type (0, 1), BuildingBlock: KIFKEQ_clean_linker_1, # of connection points: 2
#     Edge 26, Type (0, 1), BuildingBlock: KIFKEQ_clean_linker_1, # of connection points: 2
#     Edge 27, Type (0, 1), BuildingBlock: KIFKEQ_clean_linker_1, # of connection points: 2
#     Edge 28, Type (0, 1), BuildingBlock: KIFKEQ_clean_linker_1, # of connection points: 2
#     Edge 29, Type (0, 1), BuildingBlock: KIFKEQ_clean_linker_1, # of connection points: 2
#     Edge 30, Type (0, 1), BuildingBlock: KIFKEQ_clean_linker_1, # of connection points: 2
#     Edge 31, Type (0, 1), BuildingBlock: KIFKEQ_clean_linker_1, # of connection points: 2
#     Edge 32, Type (0, 1), BuildingBlock: KIFKEQ_clean_linker_1, # of connection points: 2
#     Edge 33, Type (0, 1), BuildingBlock: KIFKEQ_clean_linker_1, # of connection points: 2
#     Edge 34, Type (0, 1), BuildingBlock: KIFKEQ_clean_linker_1, # of connection points: 2
#     Edge 35, Type (0, 1), BuildingBlock: KIFKEQ_clean_linker_1, # of connection points: 2
#     Edge 36, Type (0, 1), BuildingBlock: KIFKEQ_clean_linker_1, # of connection points: 2
#     Edge 37, Type (0, 1), BuildingBlock: KIFKEQ_clean_linker_1, # of connection points: 2
#     Edge 38, Type (0, 1), BuildingBlock: KIFKEQ_clean_linker_1, # of connection points: 2
#     Edge 39, Type (0, 1), BuildingBlock: KIFKEQ_clean_linker_1, # of connection points: 2
#     Edge 40, Type (0, 1), BuildingBlock: KIFKEQ_clean_linker_1, # of connection points: 2
#     Edge 41, Type (0, 1), BuildingBlock: KIFKEQ_clean_linker_1, # of connection points: 2
#     Edge 42, Type (0, 1), BuildingBlock: KIFKEQ_clean_linker_1, # of connection points: 2
#     Edge 43, Type (0, 1), BuildingBlock: KIFKEQ_clean_linker_1, # of connection points: 2
#     Edge 44, Type (0, 1), BuildingBlock: KIFKEQ_clean_linker_1, # of connection points: 2
#     Edge 45, Type (0, 1), BuildingBlock: KIFKEQ_clean_linker_1, # of connection points: 2
#     Edge 46, Type (0, 1), BuildingBlock: KIFKEQ_clean_linker_1, # of connection points: 2
#     Edge 47, Type (0, 1), BuildingBlock: KIFKEQ_clean_linker_1, # of connection points: 2
#     Edge 48, Type (0, 1), BuildingBlock: KIFKEQ_clean_linker_1, # of connection points: 2
#     Edge 49, Type (0, 1), BuildingBlock: KIFKEQ_clean_linker_1, # of connection points: 2
#     Edge 50, Type (0, 1), BuildingBlock: KIFKEQ_clean_linker_1, # of connection points: 2
#     Edge 51, Type (0, 1), BuildingBlock: KIFKEQ_clean_linker_1, # of connection points: 2
#     Edge 52, Type (0, 1), BuildingBlock: KIFKEQ_clean_linker_1, # of connection points: 2
#     Edge 53, Type (0, 1), BuildingBlock: KIFKEQ_clean_linker_1, # of connection points: 2
#     Edge 54, Type (0, 1), BuildingBlock: KIFKEQ_clean_linker_1, # of connection points: 2
#     Edge 55, Type (0, 1), BuildingBlock: KIFKEQ_clean_linker_1, # of connection points: 2
#     Edge 56, Type (0, 1), BuildingBlock: KIFKEQ_clean_linker_1, # of connection points: 2
#     Edge 57, Type (0, 1), BuildingBlock: KIFKEQ_clean_linker_1, # of connection points: 2
#     Edge 58, Type (0, 1), BuildingBlock: KIFKEQ_clean_linker_1, # of connection points: 2
#     Edge 59, Type (0, 1), BuildingBlock: KIFKEQ_clean_linker_1, # of connection points: 2
#     Edge 60, Type (0, 1), BuildingBlock: KIFKEQ_clean_linker_1, # of connection points: 2
#     Edge 61, Type (0, 1), BuildingBlock: KIFKEQ_clean_linker_1, # of connection points: 2
#     Edge 62, Type (0, 1), BuildingBlock: KIFKEQ_clean_linker_1, # of connection points: 2
#     Edge 63, Type (0, 1), BuildingBlock: KIFKEQ_clean_linker_1, # of connection points: 2
#     Edge 64, Type (0, 1), BuildingBlock: KIFKEQ_clean_linker_1, # of connection points: 2
#     Edge 65, Type (0, 1), BuildingBlock: KIFKEQ_clean_linker_1, # of connection points: 2
#     Edge 66, Type (0, 1), BuildingBlock: KIFKEQ_clean_linker_1, # of connection points: 2
#     Edge 67, Type (0, 1), BuildingBlock: KIFKEQ_clean_linker_1, # of connection points: 2
# Relax obj value: 0.135
# Max RMSD: 0.231
# Mean RMSD: 0.156
data_MOF--net-soc--node1-ESEHIV_clean_sbu_0--node2-PAMTUU_clean_sbu_0--edge1-KIFKEQ_clean_linker_1
_symmetry_space_group_name_H-M    P1
_symmetry_Int_Tables_number       1
_symmetry_cell_setting            triclinic
loop_
_symmetry_equiv_pos_as_xyz
'x, y, z'
_cell_length_a     52.359027
_cell_length_b     51.375478
_cell_length_c     43.758967
_cell_angle_alpha  82.799914
_cell_angle_beta   82.169687
_cell_angle_gamma 71.355589
loop_
_atom_site_label
_atom_site_type_symbol
_atom_site_fract_x
_atom_site_fract_y
_atom_site_fract_z
_atom_type_partial_charge
Cu0 Cu 0.06081 0.02469 0.37326 0.0
N1 N 0.07693 0.04227 0.39667 0.0
N2 N 0.10205 0.0673 0.40762 0.0
C3 C 0.09491 0.05576 0.38531 0.0
C4 C 0.08789 0.06076 0.43401 0.0
C5 C 0.07244 0.0454 0.42719 0.0
O6 O 0.0894 0.99991 0.34725 0.0
C7 C 1.01584 0.06969 0.37081 0.0
O8 O 1.01826 0.06452 0.40062 0.0
H9 H 0.10253 0.057 0.3611 0.0
H10 H 0.05835 0.03776 0.44327 0.0
N11 N 0.04326 0.00195 0.39795 0.0
N12 N 1.0181 0.97339 0.40878 0.0
C13 C 1.02482 0.99258 0.38814 0.0
C14 C 0.04855 0.98822 0.42578 0.0
C15 C 0.03294 0.97069 0.43261 0.0
C16 C 0.10979 0.98531 0.36126 0.0
O17 O 0.11035 0.98899 0.39029 0.0
H18 H 1.01779 0.99859 0.36541 0.0
H19 H 0.06361 0.98978 0.43946 0.0
O20 O 0.03295 0.0538 0.35224 0.0
H21 H 0.08797 0.06727 0.45656 0.0
H22 H 0.03315 0.95654 0.45316 0.0
Cu23 Cu 0.05018 0.04096 0.75243 0.0
N24 N 0.03797 0.02118 0.72766 0.0
N25 N 1.01535 0.99436 0.71529 0.0
C26 C 1.01861 0.00906 0.73715 0.0
C27 C 0.03341 0.99739 0.69105 0.0
C28 C 0.04732 0.01398 0.69874 0.0
O29 O 1.01842 0.0657 0.77473 0.0
C30 C 0.09928 0.00228 0.75913 0.0
O31 O 0.10035 0.00966 0.72925 0.0
H32 H 1.00779 0.01029 0.7601 0.0
H33 H 0.06351 0.01984 0.68451 0.0
N34 N 0.06791 0.06438 0.72948 0.0
N35 N 0.09423 0.09178 0.72133 0.0
C36 C 0.08435 0.07464 0.74188 0.0
C37 C 0.06707 0.07548 0.69995 0.0
C38 C 0.08334 0.09247 0.69485 0.0
C39 C 1.00131 0.08097 0.75664 0.0
O40 O 1.0062 0.07738 0.72695 0.0
H41 H 0.08843 0.06998 0.76588 0.0
H42 H 0.05528 0.07176 0.68347 0.0
O43 O 0.07763 0.01363 0.77615 0.0
H44 H 0.03644 0.9882 0.66937 0.0
H45 H 0.08693 0.10427 0.67333 0.0
Cu46 Cu 0.287 0.06176 0.11251 0.0
N47 N 0.25683 0.05935 0.096 0.0
N48 N 0.23456 0.04116 0.06919 0.0
C49 C 0.25895 0.04125 0.07547 0.0
C50 C 0.21615 0.05998 0.08629 0.0
C51 C 0.23001 0.07156 0.10257 0.0
O52 O 0.30527 0.02378 0.12952 0.0
C53 C 0.29159 0.10233 0.06721 0.0
O54 O 0.26756 0.113 0.08198 0.0
H55 H 0.27809 0.02737 0.06649 0.0
H56 H 0.22107 0.08726 0.11848 0.0
N57 N 0.2766 0.08475 0.14503 0.0
N58 N 0.27657 0.11531 0.17712 0.0
C59 C 0.29007 0.10089 0.15297 0.0
C60 C 0.25411 0.08886 0.16521 0.0
C61 C 0.25393 0.10786 0.18483 0.0
C62 C 0.28931 0.01263 0.1471 0.0
O63 O 0.2639 0.02751 0.15277 0.0
H64 H 0.30906 0.10248 0.14089 0.0
H65 H 0.23886 0.07873 0.16583 0.0
O66 O 0.30614 0.07862 0.0777 0.0
H67 H 0.19439 0.06467 0.08724 0.0
H68 H 0.23848 0.11545 0.2035 0.0
Cu69 Cu 0.07276 0.31549 0.10298 0.0
N70 N 0.08789 0.33414 0.06934 0.0
N71 N 0.11616 0.33899 0.02732 0.0
C72 C 0.11034 0.32174 0.05119 0.0
C73 C 0.0965 0.36332 0.03063 0.0
C74 C 0.0791 0.36028 0.05665 0.0
O75 O 0.09993 0.30283 0.13363 0.0
C76 C 0.04588 0.29991 0.06269 0.0
O77 O 0.04093 0.32644 0.05493 0.0
H78 H 0.1217 0.30014 0.05501 0.0
H79 H 0.06107 0.37584 0.06529 0.0
N80 N 0.04032 0.33728 0.12257 0.0
N81 N 0.9987 0.34638 0.14798 0.0
C82 C 1.01961 0.32744 0.1337 0.0
C83 C 0.03239 0.36349 0.13005 0.0
C84 C 1.00669 0.36916 0.14582 0.0
C85 C 0.11056 0.32094 0.13884 0.0
O86 O 0.10241 0.34564 0.12425 0.0
H87 H 1.02032 0.30635 0.13219 0.0
H88 H 0.04453 0.37732 0.12487 0.0
O89 O 0.06099 0.28862 0.08447 0.0
H90 H 0.09481 0.38197 1.01541 0.0
H91 H 0.99493 0.38849 0.15507 0.0
Cu92 Cu 0.79527 0.00298 1.01643 0.0
N93 N 0.81663 0.0181 0.98665 0.0
N94 N 0.82643 0.05226 0.95557 0.0
C95 C 0.81271 0.04537 0.98196 0.0
C96 C 0.8396 0.02827 0.94294 0.0
C97 C 0.83351 0.00712 0.96228 0.0
O98 O 0.77653 0.03255 0.04353 0.0
C99 C 0.78426 0.96307 0.98748 0.0
O100 O 0.80835 0.94909 0.99578 0.0
H101 H 0.79823 0.06018 0.99634 0.0
H102 H 0.83954 0.98561 0.95793 0.0
N103 N 0.8153 0.97448 0.04258 0.0
N104 N 0.82239 0.94511 0.08498 0.0
C105 C 0.80405 0.96501 0.06925 0.0
C106 C 0.84186 0.9603 0.04113 0.0
C107 C 0.8463 0.94205 0.06732 0.0
C108 C 0.79296 0.03763 0.05932 0.0
O109 O 0.81879 0.02355 0.0553 0.0
H110 H 0.78279 0.9733 0.07717 0.0
H111 H 0.85684 0.96315 0.02251 0.0
O112 O 0.77348 0.98796 0.99443 0.0
H113 H 0.85179 0.02629 0.92079 0.0
H114 H 0.86562 0.92764 0.07275 0.0
Cu115 Cu 0.0351 0.74806 0.03164 0.0
N116 N 1.0193 0.73318 1.0049 0.0
N117 N 0.99202 0.73032 0.9711 0.0
C118 C 0.9979 0.74684 0.98902 0.0
C119 C 1.01042 0.7053 0.97604 0.0
C120 C 0.02713 0.70711 0.99693 0.0
O121 O 1.00687 0.765 0.06465 0.0
C122 C 0.07342 0.7569 0.98497 0.0
O123 O 0.07299 0.73218 0.98084 0.0
H124 H 0.98716 0.76858 0.99025 0.0
H125 H 0.04399 0.69062 1.00548 0.0
N126 N 0.06138 0.72077 0.0522 0.0
N127 N 0.09867 0.70437 0.07678 0.0
C128 C 0.0836 0.72549 0.05908 0.0
C129 C 0.06221 0.69563 0.06607 0.0
C130 C 0.0853 0.68544 0.08145 0.0
C131 C 0.99266 0.74966 0.07753 0.0
O132 O 0.99728 0.72559 0.06691 0.0
H133 H 0.08777 0.74488 0.05265 0.0
H134 H 0.04676 0.68585 0.06597 0.0
O135 O 0.05663 0.77001 1.00619 0.0
H136 H 1.01155 0.68689 0.96561 0.0
H137 H 0.0914 0.66602 0.09548 0.0
Cu138 Cu 0.53796 0.53529 0.88778 0.0
N139 N 0.54961 0.5577 0.90956 0.0
N140 N 0.57287 0.58503 0.91888 0.0
C141 C 0.56934 0.56898 0.89866 0.0
C142 C 0.5545 0.58389 0.94345 0.0
C143 C 0.54021 0.56693 0.93766 0.0
O144 O 0.56998 0.51117 0.86506 0.0
C145 C 0.48645 0.57011 0.88226 0.0
O146 O 0.48663 0.56349 0.91223 0.0
H147 H 0.58054 0.56585 0.87603 0.0
H148 H 0.524 0.56188 0.95276 0.0
N149 N 0.52355 0.51084 0.91391 0.0
N150 N 0.50215 0.47915 0.92633 0.0
C151 C 0.50848 0.49737 0.9041 0.0
C152 C 0.52709 0.50084 0.94348 0.0
C153 C 0.51386 0.48117 0.95124 0.0
C154 C 0.58943 0.4988 0.8816 0.0
O155 O 0.5868 0.5044 0.91056 0.0
H156 H 0.50323 0.5002 0.88056 0.0
H157 H 0.53898 0.50685 0.95803 0.0
O158 O 0.50815 0.55982 0.86475 0.0
H159 H 0.55172 0.59439 0.96418 0.0
H160 H 0.51318 0.46915 0.97331 0.0
Cu161 Cu 0.56685 0.53328 0.24714 0.0
N162 N 0.55031 0.51548 0.22469 0.0
N163 N 0.52299 0.49229 0.21518 0.0
C164 C 0.52894 0.50657 0.23568 0.0
C165 C 0.54131 0.49235 0.19029 0.0
C166 C 0.55813 0.50657 0.19624 0.0
O167 O 0.53845 0.56088 0.26982 0.0
C168 C 0.61243 0.4902 0.25397 0.0
O169 O 0.61243 0.4956 0.22382 0.0
H170 H 0.5187 0.50961 0.25877 0.0
H171 H 0.57538 0.50934 0.1812 0.0
N172 N 0.58703 0.55344 0.222 0.0
N173 N 0.61275 0.58137 0.21163 0.0
C174 C 0.60137 0.5666 0.23377 0.0
C175 C 0.58931 0.56008 0.1912 0.0
C176 C 0.60537 0.57722 0.18471 0.0
C177 C 0.52461 0.57981 0.25148 0.0
O178 O 0.52949 0.5771 0.22159 0.0
H179 H 0.60309 0.56556 0.25829 0.0
H180 H 0.57927 0.55385 0.17474 0.0
O181 O 0.59286 0.50494 0.27121 0.0
H182 H 0.54271 0.48256 0.16935 0.0
H183 H 0.61031 0.58674 0.16214 0.0
Cu184 Cu 0.80096 0.56538 0.6043 0.0
N185 N 0.78524 0.59251 0.57423 0.0
N186 N 0.78208 0.6178 0.52868 0.0
C187 C 0.79711 0.5957 0.5454 0.0
C188 C 0.75967 0.6288 0.54789 0.0
C189 C 0.7617 0.61312 0.57604 0.0
O190 O 0.81274 0.58251 0.63509 0.0
C191 C 0.83685 0.51198 0.59105 0.0
O192 O 0.83499 0.50537 0.62104 0.0
H193 H 0.81662 0.58212 0.53708 0.0
H194 H 0.7474 0.61681 0.59653 0.0
N195 N 0.77604 0.54812 0.62383 0.0
N196 N 0.76601 0.51251 0.65183 0.0
C197 C 0.78039 0.53046 0.64936 0.0
C198 C 0.75738 0.54203 0.61022 0.0
C199 C 0.75103 0.52018 0.62754 0.0
C200 C 0.82374 0.60156 0.62765 0.0
O201 O 0.83062 0.60753 0.59823 0.0
H202 H 0.79607 0.52897 0.66384 0.0
H203 H 0.75131 0.55061 0.58751 0.0
O204 O 0.8281 0.53725 0.58094 0.0
H205 H 0.74341 0.64737 0.54245 0.0
H206 H 0.73871 0.50892 0.62078 0.0
Cu207 Cu 0.57517 0.79435 0.61159 0.0
N208 N 0.60134 0.77346 0.58238 0.0
N209 N 0.63405 0.76442 0.54242 0.0
C210 C 0.6161 0.78407 0.55931 0.0
C211 C 0.6302 0.74049 0.55557 0.0
C212 C 0.61013 0.74611 0.58008 0.0
O213 O 0.59341 0.81297 0.63355 0.0
C214 C 0.53509 0.80451 0.57597 0.0
O215 O 0.544 0.77746 0.58005 0.0
H216 H 0.61358 0.8059 0.55512 0.0
H217 H 0.60273 0.73127 0.59537 0.0
N218 N 0.55708 0.77457 0.64165 0.0
N219 N 0.52301 0.76641 0.67481 0.0
C220 C 0.53028 0.78338 0.65144 0.0
C221 C 0.56719 0.75121 0.65963 0.0
C222 C 0.54629 0.74615 0.68005 0.0
C223 C 0.61747 0.79934 0.63958 0.0
O224 O 0.62829 0.77421 0.63107 0.0
H225 H 0.51648 0.80242 0.64221 0.0
H226 H 0.58834 0.73902 0.65841 0.0
O227 O 0.54686 0.81848 0.5877 0.0
H228 H 0.64139 0.72016 0.54851 0.0
H229 H 0.54815 0.72886 0.69742 0.0
Cu230 Cu 0.30737 0.50276 0.53595 0.0
N231 N 0.32786 0.52183 0.50888 0.0
N232 N 0.33772 0.55672 0.47841 0.0
C233 C 0.31982 0.54922 0.50025 0.0
C234 C 0.35784 0.533 0.47329 0.0
C235 C 0.3517 0.51161 0.49199 0.0
O236 O 0.28278 0.5303 0.56157 0.0
C237 C 0.29912 0.4607 0.50675 0.0
O238 O 0.32165 0.44619 0.51859 0.0
H239 H 0.30062 0.56316 0.50893 0.0
H240 H 0.36342 0.49002 0.49257 0.0
N241 N 0.32771 0.47505 0.56364 0.0
N242 N 0.33623 0.44394 0.60492 0.0
C243 C 0.317 0.46197 0.58829 0.0
C244 C 0.35469 0.46504 0.56463 0.0
C245 C 0.36 0.44588 0.58996 0.0
C246 C 0.29455 0.53728 0.58133 0.0
O247 O 0.32076 0.52582 0.58223 0.0
H248 H 0.29541 0.46611 0.59417 0.0
H249 H 0.36948 0.47139 0.54829 0.0
O250 O 0.28894 0.48616 0.51142 0.0
H251 H 0.37566 0.53107 0.45691 0.0
H252 H 0.3799 0.43415 0.5966 0.0
Cu253 Cu 0.52894 0.25765 0.52042 0.0
N254 N 0.55988 0.23977 0.49463 0.0
N255 N 0.60095 0.23281 0.46805 0.0
C256 C 0.58 0.25064 0.48379 0.0
C257 C 0.59353 0.20984 0.46876 0.0
C258 C 0.56826 0.21418 0.48513 0.0
O259 O 0.5418 0.28087 0.5434 0.0
C260 C 0.49306 0.2598 0.4778 0.0
O261 O 0.50788 0.23377 0.47859 0.0
H262 H 0.57966 0.27093 0.48851 0.0
H263 H 0.55704 0.19951 0.49001 0.0
N264 N 0.51748 0.23355 0.55092 0.0
N265 N 0.49531 0.22087 0.59485 0.0
C266 C 0.4979 0.24198 0.57414 0.0
C267 C 0.52773 0.20608 0.55701 0.0
C268 C 0.51403 0.19819 0.58398 0.0
C269 C 0.5622 0.26677 0.55784 0.0
O270 O 0.57084 0.23989 0.55671 0.0
H271 H 0.48615 0.26338 0.57598 0.0
H272 H 0.54469 0.19282 0.54365 0.0
O273 O 0.49852 0.27552 0.49475 0.0
H274 H 0.60547 0.19116 0.45828 0.0
H275 H 0.51836 0.17752 0.59534 0.0
Tb276 Tb 0.30327 0.32075 0.29305 0.0
Tb277 Tb 0.27778 0.28385 0.34924 0.0
C278 C 0.2474 0.3099 0.28937 0.0
C279 C 0.34328 0.36457 0.24944 0.0
C280 C 0.38104 0.39421 0.24377 0.0
C281 C 0.36316 0.39832 0.22105 0.0
C282 C 0.34452 0.38361 0.22387 0.0
C283 C 0.36061 0.36071 0.27256 0.0
C284 C 0.37936 0.37538 0.26972 0.0
C285 C 0.32417 0.3486 0.2513 0.0
O286 O 0.29223 0.34534 0.33229 0.0
O287 O 0.26131 0.3265 0.36116 0.0
O288 O 0.31129 0.29095 0.36801 0.0
O289 O 0.33597 0.29912 0.32227 0.0
O290 O 0.2441 0.27909 0.37853 0.0
O291 O 0.28335 0.24839 0.38059 0.0
O292 O 0.30542 0.25509 0.31787 0.0
O293 O 0.30374 0.28396 0.27337 0.0
O294 O 0.26118 0.3278 0.28386 0.0
O295 O 0.25334 0.28929 0.31094 0.0
C296 C 0.27298 0.34604 0.35503 0.0
O297 O 0.33417 0.32201 0.25752 0.0
O298 O 0.30067 0.35862 0.26695 0.0
C299 C 0.33385 0.29359 0.35261 0.0
C300 C 0.2449 0.23289 0.38957 0.0
C301 C 0.21796 0.19319 0.38999 0.0
C302 C 0.22584 0.19836 0.41756 0.0
C303 C 0.23913 0.21808 0.41732 0.0
C304 C 0.23765 0.22745 0.36186 0.0
C305 C 0.22422 0.20782 0.36208 0.0
C306 C 0.25755 0.25461 0.38998 0.0
C307 C 0.30767 0.25916 0.28751 0.0
H308 H 0.3635 0.413 0.20106 0.0
H309 H 0.33117 0.38697 0.20591 0.0
H310 H 0.35989 0.34612 0.29256 0.0
H311 H 0.39294 0.37148 0.28751 0.0
H312 H 0.22107 0.1877 0.43948 0.0
H313 H 0.24453 0.22207 0.43893 0.0
H314 H 0.24207 0.23863 0.34014 0.0
H315 H 0.21873 0.2041 0.34041 0.0
Tb316 Tb 0.80062 0.26536 0.29315 0.0
Tb317 Tb 0.81957 0.29184 0.34875 0.0
C318 C 0.76888 0.32537 0.31338 0.0
C319 C 0.78785 0.22658 0.22904 0.0
C320 C 0.78834 0.18908 0.18655 0.0
C321 C 0.77164 0.21663 0.18356 0.0
C322 C 0.7714 0.23513 0.2046 0.0
C323 C 0.80556 0.19947 0.23124 0.0
C324 C 0.80581 0.18094 0.2102 0.0
C325 C 0.78258 0.24462 0.25449 0.0
O326 O 0.82545 0.29014 0.26886 0.0
O327 O 0.84971 0.28933 0.30902 0.0
O328 O 0.83972 0.24721 0.35129 0.0
O329 O 0.84108 0.23849 0.30073 0.0
O330 O 0.84003 0.31815 0.3592 0.0
O331 O 0.8258 0.29183 0.39547 0.0
O332 O 0.78093 0.28596 0.36767 0.0
O333 O 0.7848 0.25068 0.33846 0.0
O334 O 0.76792 0.30227 0.30434 0.0
O335 O 0.78956 0.32662 0.32665 0.0
C336 C 0.84601 0.2943 0.27954 0.0
O337 O 0.78877 0.23291 0.2818 0.0
O338 O 0.78687 0.26849 0.24904 0.0
C339 C 0.85046 0.23188 0.32795 0.0
C340 C 0.83698 0.33002 0.41056 0.0
C341 C 0.83649 0.36914 0.45102 0.0
C342 C 0.81209 0.36817 0.44154 0.0
C343 C 0.81234 0.34873 0.42142 0.0
C344 C 0.86117 0.33101 0.41991 0.0
C345 C 0.86098 0.35029 0.43979 0.0
C346 C 0.83906 0.30977 0.38855 0.0
C347 C 0.77305 0.26538 0.36192 0.0
H348 H 0.75828 0.22377 0.16536 0.0
H349 H 0.75738 0.25585 0.2026 0.0
H350 H 0.81829 0.1922 0.25003 0.0
H351 H 0.81878 0.15985 0.21346 0.0
H352 H 0.79284 0.38226 0.44986 0.0
H353 H 0.79344 0.34839 0.41429 0.0
H354 H 0.88044 0.31695 0.41149 0.0
H355 H 0.8802 0.35072 0.44589 0.0
Tb356 Tb 0.82819 0.79054 0.33406 0.0
Tb357 Tb 0.79164 0.77269 0.28835 0.0
C358 C 0.82267 0.73008 0.34012 0.0
C359 C 0.87285 0.82224 0.36801 0.0
C360 C 0.90654 0.8548 0.37175 0.0
C361 C 0.90978 0.82969 0.39015 0.0
C362 C 0.89305 0.81364 0.38832 0.0
C363 C 0.87007 0.84684 0.3488 0.0
C364 C 0.88673 0.86302 0.35074 0.0
C365 C 0.85375 0.8063 0.36918 0.0
O366 O 0.85709 0.77524 0.29391 0.0
O367 O 0.82708 0.77757 0.25897 0.0
O368 O 0.78015 0.81744 0.28555 0.0
O369 O 0.81929 0.82294 0.2969 0.0
O370 O 0.79013 0.74993 0.2525 0.0
O371 O 0.75403 0.78022 0.27129 0.0
O372 O 0.77004 0.77056 0.33402 0.0
O373 O 0.78684 0.79812 0.35797 0.0
O374 O 0.82808 0.74954 0.35237 0.0
O375 O 0.81241 0.73397 0.31345 0.0
C376 C 0.85161 0.77509 0.26534 0.0
O377 O 0.82924 0.82002 0.36241 0.0
O378 O 0.86289 0.7825 0.35745 0.0
C379 C 0.79732 0.83162 0.28263 0.0
C380 C 0.74809 0.74189 0.25176 0.0
C381 C 0.71829 0.70606 0.24597 0.0
C382 C 0.70844 0.73427 0.23623 0.0
C383 C 0.72326 0.75197 0.23902 0.0
C384 C 0.75775 0.71383 0.26221 0.0
C385 C 0.74301 0.69603 0.25919 0.0
C386 C 0.76394 0.76083 0.25244 0.0
C387 C 0.76926 0.78463 0.35738 0.0
H388 H 0.92462 0.8229 0.40679 0.0
H389 H 0.89541 0.79481 0.40345 0.0
H390 H 0.85468 0.85386 0.33281 0.0
H391 H 0.88398 0.88208 0.33598 0.0
H392 H 0.6896 0.74254 0.22569 0.0
H393 H 0.71552 0.77353 0.23072 0.0
H394 H 0.7768 0.70559 0.27232 0.0
H395 H 0.75092 0.67445 0.26723 0.0
Tb396 Tb 0.32923 0.79722 0.33486 0.0
Tb397 Tb 0.30833 0.7695 0.28267 0.0
C398 C 0.26708 0.81717 0.31985 0.0
C399 C 0.36117 0.82127 0.39567 0.0
C400 C 0.39437 0.8261 0.43875 0.0
C401 C 0.36723 0.84281 0.43931 0.0
C402 C 0.35082 0.84041 0.41791 0.0
C403 C 0.38793 0.80373 0.39577 0.0
C404 C 0.4044 0.80614 0.41718 0.0
C405 C 0.34474 0.82285 0.37045 0.0
O406 O 0.31898 0.7625 0.36233 0.0
O407 O 0.31517 0.73907 0.32243 0.0
O408 O 0.35238 0.75848 0.27669 0.0
O409 O 0.36175 0.75946 0.3259 0.0
O410 O 0.2884 0.74277 0.27267 0.0
O411 O 0.31245 0.75991 0.23641 0.0
O412 O 0.30427 0.81133 0.26289 0.0
O413 O 0.33622 0.81822 0.28909 0.0
O414 O 0.28723 0.82135 0.33129 0.0
O415 O 0.27028 0.79679 0.30276 0.0
C416 C 0.31654 0.74048 0.35193 0.0
O417 O 0.35753 0.81553 0.34365 0.0
O418 O 0.32287 0.81542 0.37697 0.0
C419 C 0.36849 0.74941 0.29884 0.0
C420 C 0.27766 0.74505 0.22166 0.0
C421 C 0.2399 0.73867 0.18548 0.0
C422 C 0.26751 0.72366 0.18045 0.0
C423 C 0.28618 0.72687 0.19838 0.0
C424 C 0.25037 0.76103 0.226 0.0
C425 C 0.2316 0.75789 0.20797 0.0
C426 C 0.29703 0.74404 0.24331 0.0
C427 C 0.32043 0.82541 0.2665 0.0
H428 H 0.35896 0.85847 0.45549 0.0
H429 H 0.33029 0.85433 0.41794 0.0
H430 H 0.39635 0.78881 0.37876 0.0
H431 H 0.4251 0.79261 0.4166 0.0
H432 H 0.27458 0.70844 0.16367 0.0
H433 H 0.30715 0.71418 0.19497 0.0
H434 H 0.24345 0.77516 0.24398 0.0
H435 H 0.21054 0.77008 0.21205 0.0
Tb436 Tb 0.2799 0.77526 0.7968 0.0
Tb437 Tb 0.29909 0.7953 0.85588 0.0
C438 C 0.25786 0.83635 0.81274 0.0
C439 C 0.26416 0.73978 0.73381 0.0
C440 C 0.26316 0.6974 0.69953 0.0
C441 C 0.25004 0.7251 0.69005 0.0
C442 C 0.25049 0.7461 0.70715 0.0
C443 C 0.27845 0.71229 0.74252 0.0
C444 C 0.27793 0.69124 0.7255 0.0
C445 C 0.26 0.7616 0.75423 0.0
O446 O 0.32156 0.77341 0.78065 0.0
O447 O 0.32925 0.79869 0.81652 0.0
O448 O 0.32596 0.75364 0.85251 0.0
O449 O 0.30595 0.73688 0.81856 0.0
O450 O 0.31277 0.8249 0.87144 0.0
O451 O 0.30594 0.79123 0.90276 0.0
O452 O 0.2665 0.77845 0.87614 0.0
O453 O 0.24538 0.78453 0.83232 0.0
O454 O 0.26873 0.82007 0.79048 0.0
O455 O 0.26391 0.82841 0.8412 0.0
C456 C 0.33664 0.78601 0.79077 0.0
O457 O 0.25493 0.75502 0.78367 0.0
O458 O 0.27619 0.77676 0.74911 0.0
C459 C 0.32429 0.73348 0.83792 0.0
C460 C 0.29462 0.8347 0.92195 0.0
C461 C 0.26553 0.87762 0.95908 0.0
C462 C 0.29189 0.86123 0.96498 0.0
C463 C 0.30638 0.83998 0.94641 0.0
C464 C 0.26781 0.85003 0.91702 0.0
C465 C 0.25342 0.87146 0.93533 0.0
C466 C 0.31091 0.81476 0.9002 0.0
C467 C 0.24498 0.78053 0.86257 0.0
H468 H 0.23845 0.73045 0.67023 0.0
H469 H 0.23916 0.76723 0.7003 0.0
H470 H 0.28911 0.70704 0.76309 0.0
H471 H 0.28867 0.6701 0.73297 0.0
H472 H 0.3018 0.86574 0.98293 0.0
H473 H 0.32707 0.82832 0.95047 0.0
H474 H 0.25837 0.84605 0.89833 0.0
H475 H 0.23308 0.88366 0.93046 0.0
Tb476 Tb 0.33877 0.27242 0.8489 0.0
Tb477 Tb 0.30277 0.25079 0.80717 0.0
C478 C 0.32331 0.21786 0.8692 0.0
C479 C 0.38257 0.30579 0.88207 0.0
C480 C 0.4113 0.34268 0.88745 0.0
C481 C 0.41622 0.31748 0.90592 0.0
C482 C 0.40194 0.29926 0.90326 0.0
C483 C 0.37832 0.33038 0.86264 0.0
C484 C 0.39255 0.34871 0.86536 0.0
C485 C 0.3655 0.28789 0.88287 0.0
O486 O 0.36432 0.2623 0.80602 0.0
O487 O 0.34556 0.23137 0.79233 0.0
O488 O 0.31261 0.2847 0.77865 0.0
O489 O 0.32376 0.30728 0.81467 0.0
O490 O 0.29842 0.21764 0.7873 0.0
O491 O 0.27129 0.25898 0.77866 0.0
O492 O 0.27268 0.27915 0.83712 0.0
O493 O 0.29941 0.27786 0.8751 0.0
O494 O 0.34278 0.22939 0.86551 0.0
O495 O 0.30323 0.22642 0.85164 0.0
C496 C 0.36503 0.24284 0.78889 0.0
O497 O 0.33997 0.30018 0.87935 0.0
O498 O 0.37541 0.26577 0.86798 0.0
C499 C 0.31744 0.30635 0.78672 0.0
C500 C 0.25436 0.22187 0.77492 0.0
C501 C 0.21526 0.19624 0.76886 0.0
C502 C 0.21676 0.21974 0.74938 0.0
C503 C 0.23618 0.23236 0.75236 0.0
C504 C 0.25211 0.19919 0.79543 0.0
C505 C 0.23273 0.18647 0.79238 0.0
C506 C 0.27712 0.23304 0.77406 0.0
C507 C 0.27549 0.2839 0.86513 0.0
H508 H 0.4303 0.31234 0.92335 0.0
H509 H 0.40536 0.28043 0.91855 0.0
H510 H 0.36349 0.33575 0.84603 0.0
H511 H 0.38861 0.36779 0.85051 0.0
H512 H 0.2038 0.22762 0.73087 0.0
H513 H 0.2377 0.24971 0.73616 0.0
H514 H 0.26584 0.19074 0.81313 0.0
H515 H 0.23178 0.16863 0.80802 0.0
Tb516 Tb 0.8121 0.29835 0.84528 0.0
Tb517 Tb 0.77739 0.27958 0.79609 0.0
C518 C 0.75009 0.3301 0.83628 0.0
C519 C 0.8618 0.30016 0.90126 0.0
C520 C 0.90521 0.28594 0.93938 0.0
C521 C 0.87918 0.28504 0.95181 0.0
C522 C 0.8578 0.29214 0.93306 0.0
C523 C 0.88796 0.30036 0.88865 0.0
C524 C 0.90933 0.29329 0.90738 0.0
C525 C 0.83827 0.31153 0.88241 0.0
O526 O 0.80957 0.25812 0.86343 0.0
O527 O 0.77236 0.25746 0.84132 0.0
O528 O 0.81613 0.24734 0.79738 0.0
O529 O 0.84247 0.269 0.81635 0.0
O530 O 0.7418 0.2714 0.78967 0.0
O531 O 0.77472 0.2665 0.75306 0.0
O532 O 0.79551 0.30901 0.76907 0.0
O533 O 0.80434 0.33075 0.80777 0.0
O534 O 0.76874 0.3204 0.85589 0.0
O535 O 0.75214 0.31944 0.80998 0.0
C536 C 0.79059 0.24712 0.86115 0.0
O537 O 0.8433 0.31384 0.8523 0.0
O538 O 0.81674 0.30375 0.89097 0.0
C539 C 0.83977 0.24823 0.8035 0.0
C540 C 0.72995 0.27661 0.73774 0.0
C541 C 0.69017 0.28924 0.69524 0.0
C542 C 0.71722 0.27371 0.68694 0.0
C543 C 0.73677 0.26744 0.70792 0.0
C544 C 0.70315 0.29296 0.7458 0.0
C545 C 0.68353 0.29919 0.72481 0.0
C546 C 0.74996 0.26584 0.76101 0.0
C547 C 0.80077 0.32982 0.77881 0.0
H548 H 0.87518 0.27918 0.97619 0.0
H549 H 0.8379 0.29205 0.94372 0.0
H550 H 0.8918 0.30689 0.86442 0.0
H551 H 0.92885 0.29469 0.89689 0.0
H552 H 0.72313 0.2653 0.66464 0.0
H553 H 0.75709 0.25445 0.70117 0.0
H554 H 0.69708 0.30029 0.76864 0.0
H555 H 0.66304 0.31148 0.73195 0.0
Tb556 Tb 0.80972 0.80633 0.78007 0.0
Tb557 Tb 0.77816 0.77351 0.8348 0.0
C558 C 0.74966 0.806 0.77672 0.0
C559 C 0.85335 0.84768 0.73808 0.0
C560 C 0.88913 0.87925 0.73478 0.0
C561 C 0.869 0.88595 0.71434 0.0
C562 C 0.85134 0.87028 0.71596 0.0
C563 C 0.87334 0.84089 0.75866 0.0
C564 C 0.89119 0.85646 0.7569 0.0
C565 C 0.83406 0.83196 0.73939 0.0
O566 O 0.8007 0.83039 0.81981 0.0
O567 O 0.76531 0.81652 0.84546 0.0
O568 O 0.81319 0.77595 0.85422 0.0
O569 O 0.84041 0.78019 0.80934 0.0
O570 O 0.7434 0.77339 0.86474 0.0
O571 O 0.77962 0.73829 0.86578 0.0
O572 O 0.80156 0.74307 0.8025 0.0
O573 O 0.80609 0.77179 0.75883 0.0
O574 O 0.76725 0.8199 0.77105 0.0
O575 O 0.75288 0.78444 0.79705 0.0
C576 C 0.77955 0.83388 0.84059 0.0
O577 O 0.84298 0.80547 0.74695 0.0
O578 O 0.80998 0.84311 0.75314 0.0
C579 C 0.83708 0.77467 0.83953 0.0
C580 C 0.7375 0.72949 0.87752 0.0
C581 C 0.70341 0.69586 0.884 0.0
C582 C 0.72267 0.69188 0.905 0.0
C583 C 0.73949 0.70862 0.90182 0.0
C584 C 0.71884 0.73303 0.85594 0.0
C585 C 0.70185 0.71645 0.85925 0.0
C586 C 0.75412 0.74806 0.87599 0.0
C587 C 0.80656 0.74731 0.77227 0.0
H588 H 0.86708 0.90315 0.69683 0.0
H589 H 0.83603 0.87585 0.69991 0.0
H590 H 0.87508 0.82366 0.77613 0.0
H591 H 0.90632 0.85097 0.77316 0.0
H592 H 0.72421 0.67636 0.92443 0.0
H593 H 0.75373 0.7056 0.91872 0.0
H594 H 0.71709 0.74889 0.83682 0.0
H595 H 0.68745 0.71975 0.84248 0.0
H596 H 0.1169 0.09549 0.35487 0.0
H597 H 0.12844 0.07725 0.45207 0.0
H598 H 0.14663 0.12413 0.34914 0.0
H599 H 0.15704 0.10695 0.44664 0.0
H600 H 0.22702 0.14225 0.42206 0.0
H601 H 0.20037 0.11063 0.42508 0.0
H602 H 0.14695 0.16775 0.36285 0.0
H603 H 0.17383 0.19913 0.35956 0.0
C604 C 0.1258 0.09744 0.37504 0.0
C605 C 0.1201 0.08398 0.40399 0.0
C606 C 0.14264 0.1142 0.37181 0.0
C607 C 0.15421 0.118 0.39744 0.0
C608 C 0.14877 0.1043 0.42629 0.0
C609 C 0.132 0.0875 0.4295 0.0
C610 C 0.20957 0.14805 0.40905 0.0
C611 C 0.20253 0.17326 0.39063 0.0
C612 C 0.19424 0.12994 0.41082 0.0
C613 C 0.17138 0.13664 0.39434 0.0
C614 C 0.16462 0.16167 0.37551 0.0
C615 C 0.18003 0.17972 0.37364 0.0
H616 H 0.98742 0.07745 0.31984 0.0
H617 H 0.99395 0.11687 0.39862 0.0
H618 H 0.94684 0.11591 0.30808 0.0
H619 H 0.9547 0.1554 0.3864 0.0
H620 H 0.86786 0.20454 0.38255 0.0
H621 H 0.90775 0.16515 0.39033 0.0
H622 H 0.92756 0.16376 0.29125 0.0
H623 H 0.88675 0.20268 0.2835 0.0
C624 C 0.98049 0.09455 0.33424 0.0
C625 C 0.99364 0.09402 0.36034 0.0
C626 C 0.95725 0.11661 0.32756 0.0
C627 C 0.947 0.13861 0.34669 0.0
C628 C 0.96125 0.1385 0.37174 0.0
C629 C 0.984 0.11645 0.37861 0.0
C630 C 0.88063 0.1958 0.36239 0.0
C631 C 0.87416 0.20693 0.33242 0.0
C632 C 0.90372 0.17325 0.36682 0.0
C633 C 0.92134 0.16143 0.34143 0.0
C634 C 0.91449 0.17214 0.31138 0.0
C635 C 0.89111 0.19456 0.30694 0.0
H636 H 1.01986 0.92234 0.43601 0.0
H637 H 0.97755 0.98739 0.37144 0.0
H638 H 0.99242 0.89434 0.42689 0.0
H639 H 0.95098 0.95886 0.36122 0.0
H640 H 0.88939 0.91069 0.37475 0.0
H641 H 0.91572 0.93982 0.38426 0.0
H642 H 0.98727 0.86864 0.38701 0.0
H643 H 0.96082 0.83952 0.37784 0.0
C644 C 1.00465 0.93078 0.41999 0.0
C645 C 1.00105 0.95718 0.40441 0.0
C646 C 0.98914 0.91453 0.41441 0.0
C647 C 0.96963 0.92421 0.3931 0.0
C648 C 0.96569 0.95078 0.37793 0.0
C649 C 0.98116 0.96706 0.38355 0.0
C650 C 0.91082 0.90133 0.377 0.0
C651 C 0.923 0.87278 0.37558 0.0
C652 C 0.92593 0.91803 0.38249 0.0
C653 C 0.95361 0.90658 0.3866 0.0
C654 C 0.96588 0.87808 0.38461 0.0
C655 C 0.95075 0.86138 0.37923 0.0
H656 H 0.10703 0.94661 0.32453 0.0
H657 H 0.16279 0.97324 0.36738 0.0
H658 H 0.14338 0.90382 0.31264 0.0
H659 H 0.19896 0.93155 0.35477 0.0
H660 H 0.24637 0.84407 0.37115 0.0
H661 H 0.20728 0.88483 0.37691 0.0
H662 H 0.18878 0.88064 0.28475 0.0
H663 H 0.22797 0.83881 0.27939 0.0
C664 C 0.12724 0.94371 0.33046 0.0
C665 C 0.13214 0.96309 0.34703 0.0
C666 C 0.14801 0.91918 0.32382 0.0
C667 C 0.17391 0.91385 0.33357 0.0
C668 C 0.17907 0.93445 0.34787 0.0
C669 C 0.15842 0.95855 0.35478 0.0
C670 C 0.2337 0.85151 0.35229 0.0
C671 C 0.24032 0.83834 0.32478 0.0
C672 C 0.21143 0.8751 0.35543 0.0
C673 C 0.19532 0.88658 0.33092 0.0
C674 C 0.20084 0.87244 0.30401 0.0
C675 C 0.22318 0.84843 0.30098 0.0
H676 H 0.15063 0.98818 0.73162 0.0
H677 H 0.10225 0.96776 0.81352 0.0
H678 H 0.18938 0.95004 0.74627 0.0
H679 H 0.14148 0.92869 0.82814 0.0
H680 H 0.22613 0.87249 0.85426 0.0
H681 H 0.18821 0.91396 0.84407 0.0
H682 H 0.20159 0.90065 0.7469 0.0
H683 H 0.23955 0.85963 0.75691 0.0
C684 C 0.14826 0.97554 0.75291 0.0
C685 C 0.12317 0.98084 0.7712 0.0
C686 C 0.17054 0.9535 0.76122 0.0
C687 C 0.1685 0.93587 0.78804 0.0
C688 C 0.14378 0.94188 0.8073 0.0
C689 C 0.12129 0.96422 0.79896 0.0
C690 C 0.22117 0.87857 0.83065 0.0
C691 C 0.2361 0.86273 0.80635 0.0
C692 C 0.19923 0.90224 0.82489 0.0
C693 C 0.19181 0.91075 0.79468 0.0
C694 C 0.20694 0.89501 0.77042 0.0
C695 C 0.22874 0.87137 0.77616 0.0
H696 H 0.13004 0.0769 0.76437 0.0
H697 H 0.09918 0.14001 0.69186 0.0
H698 H 0.15828 0.10268 0.77675 0.0
H699 H 0.12855 0.16534 0.70334 0.0
H700 H 0.16252 0.21728 0.75533 0.0
H701 H 0.13337 0.19197 0.74317 0.0
H702 H 0.19783 0.11538 0.75627 0.0
H703 H 0.22674 0.1406 0.7687 0.0
C704 C 0.12926 0.0963 0.75102 0.0
C705 C 0.11211 0.10647 0.72726 0.0
C706 C 0.14575 0.11094 0.75789 0.0
C707 C 0.1457 0.13611 0.74108 0.0
C708 C 0.12883 0.14618 0.71702 0.0
C709 C 0.11224 0.1315 0.71016 0.0
C710 C 0.17041 0.19503 0.75562 0.0
C711 C 0.19688 0.18093 0.76315 0.0
C712 C 0.15377 0.18054 0.74851 0.0
C713 C 0.16327 0.15164 0.74868 0.0
C714 C 0.18969 0.13758 0.7564 0.0
C715 C 0.20626 0.15204 0.76361 0.0
H716 H 0.9577 0.10672 0.72537 0.0
H717 H 0.98996 0.10699 0.81101 0.0
H718 H 0.91969 0.14659 0.73811 0.0
H719 H 0.95098 0.1473 0.82426 0.0
H720 H 0.89277 0.23905 0.81485 0.0
H721 H 0.93141 0.19748 0.80673 0.0
H722 H 0.87927 0.15947 0.77319 0.0
H723 H 0.84116 0.20072 0.78051 0.0
C724 C 0.95654 0.11513 0.7472 0.0
C725 C 0.97696 0.10357 0.76717 0.0
C726 C 0.93454 0.13803 0.7546 0.0
C727 C 0.93212 0.15023 0.78226 0.0
C728 C 0.95233 0.13853 0.80263 0.0
C729 C 0.97449 0.11529 0.79523 0.0
C730 C 0.88961 0.22188 0.80554 0.0
C731 C 0.86381 0.22354 0.79792 0.0
C732 C 0.91172 0.19792 0.80123 0.0
C733 C 0.90854 0.17512 0.78915 0.0
C734 C 0.88265 0.17674 0.78203 0.0
C735 C 0.86069 0.20054 0.78627 0.0
H736 H 0.96672 0.00352 0.74962 0.0
H737 H 1.02282 0.9479 0.68728 0.0
H738 H 0.93643 0.97527 0.75529 0.0
H739 H 0.99227 0.9199 0.69247 0.0
H740 H 0.94412 0.86118 0.73697 0.0
H741 H 0.97481 0.88904 0.7326 0.0
H742 H 0.90696 0.9632 0.72335 0.0
H743 H 0.8763 0.93542 0.72825 0.0
C744 C 0.97261 0.98523 0.73717 0.0
C745 C 0.9972 0.97796 0.71801 0.0
C746 C 0.95515 0.96918 0.74021 0.0
C747 C 0.96195 0.94534 0.72435 0.0
C748 C 0.98656 0.93801 0.70522 0.0
C749 C 1.00393 0.95422 0.70197 0.0
C750 C 0.93576 0.88344 0.73428 0.0
C751 C 0.90779 0.89609 0.73291 0.0
C752 C 0.95335 0.89938 0.73147 0.0
C753 C 0.94332 0.92832 0.72755 0.0
C754 C 0.91531 0.94096 0.72657 0.0
C755 C 0.89777 0.92504 0.72911 0.0
H756 H 0.32647 0.11175 0.19099 0.0
H757 H 0.2433 0.16376 0.19543 0.0
H758 H 0.3384 0.14547 0.21708 0.0
H759 H 0.25526 0.19758 0.22064 0.0
H760 H 0.2967 0.26319 0.22775 0.0
H761 H 0.29196 0.22717 0.19979 0.0
H762 H 0.31752 0.16728 0.27672 0.0
H763 H 0.32175 0.20356 0.30546 0.0
C764 C 0.31088 0.13049 0.19731 0.0
C765 C 0.28399 0.13525 0.19131 0.0
C766 C 0.31764 0.14959 0.21231 0.0
C767 C 0.2977 0.17399 0.22071 0.0
C768 C 0.27095 0.17891 0.21425 0.0
C769 C 0.26411 0.15959 0.19999 0.0
C770 C 0.3019 0.24229 0.23861 0.0
C771 C 0.30957 0.23628 0.26894 0.0
C772 C 0.29906 0.22173 0.22256 0.0
C773 C 0.30434 0.19462 0.2362 0.0
C774 C 0.31351 0.1881 0.26574 0.0
C775 C 0.31587 0.20884 0.28213 0.0
H776 H 0.97413 0.31008 0.13586 0.0
H777 H 0.96719 0.37275 0.1964 0.0
H778 H 0.93547 0.29933 0.16601 0.0
H779 H 0.92799 0.36261 0.22595 0.0
H780 H 0.88722 0.30986 0.29532 0.0
H781 H 0.92169 0.32457 0.26168 0.0
H782 H 0.88629 0.3158 0.18151 0.0
H783 H 0.85155 0.30054 0.21552 0.0
C784 C 0.96427 0.3217 0.15549 0.0
C785 C 0.9741 0.34204 0.16393 0.0
C786 C 0.94186 0.31574 0.17257 0.0
C787 C 0.92871 0.32991 0.19861 0.0
C788 C 0.93787 0.35099 0.20631 0.0
C789 C 0.96023 0.35701 0.18917 0.0
C790 C 0.8866 0.31103 0.27053 0.0
C791 C 0.86655 0.30385 0.2582 0.0
C792 C 0.90634 0.31977 0.25119 0.0
C793 C 0.90674 0.32158 0.21884 0.0
C794 C 0.88666 0.3145 0.20634 0.0
C795 C 0.86669 0.30585 0.22582 0.0
H796 H 0.77387 0.94063 0.11211 0.0
H797 H 0.85882 0.91704 0.12567 0.0
H798 H 0.76459 0.91829 0.16254 0.0
H799 H 0.84972 0.89305 0.17546 0.0
H800 H 0.82476 0.86951 0.27389 0.0
H801 H 0.82904 0.89973 0.22722 0.0
H802 H 0.77121 0.87339 0.18737 0.0
H803 H 0.76625 0.84402 0.23433 0.0
C804 C 0.79064 0.9308 0.12578 0.0
C805 C 0.81715 0.9309 0.11465 0.0
C806 C 0.7853 0.91763 0.15469 0.0
C807 C 0.80635 0.90389 0.17318 0.0
C808 C 0.83289 0.90386 0.16209 0.0
C809 C 0.83821 0.91727 0.13324 0.0
C810 C 0.81246 0.87071 0.25544 0.0
C811 C 0.79526 0.85427 0.25776 0.0
C812 C 0.81517 0.88778 0.22854 0.0
C813 C 0.80089 0.88861 0.20326 0.0
C814 C 0.78241 0.87345 0.2064 0.0
C815 C 0.77951 0.85658 0.23342 0.0
H816 H 0.13558 0.72959 0.05213 0.0
H817 H 0.11448 0.68001 0.13274 0.0
H818 H 0.17045 0.73685 0.07827 0.0
H819 H 0.15042 0.6862 0.15865 0.0
H820 H 0.18976 0.73491 0.20831 0.0
H821 H 0.15756 0.72368 0.18114 0.0
H822 H 0.21328 0.71609 0.09785 0.0
H823 H 0.24481 0.72882 0.12452 0.0
C824 C 0.13869 0.71991 0.07535 0.0
C825 C 0.12204 0.70456 0.09056 0.0
C826 C 0.15888 0.72385 0.09024 0.0
C827 C 0.16307 0.71234 0.12069 0.0
C828 C 0.14735 0.69576 0.13538 0.0
C829 C 0.12703 0.69187 0.12042 0.0
C830 C 0.19495 0.7313 0.18406 0.0
C831 C 0.21982 0.73292 0.16855 0.0
C832 C 0.1767 0.72434 0.16863 0.0
C833 C 0.18292 0.71876 0.13737 0.0
C834 C 0.20775 0.72045 0.12186 0.0
C835 C 0.22594 0.72754 0.13723 0.0
H836 H 0.20306 0.00828 0.08625 0.0
H837 H 0.25722 0.03033 1.01178 0.0
H838 H 0.20305 0.96924 0.0589 0.0
H839 H 0.25693 0.99194 0.98413 0.0
H840 H 0.24124 0.92933 0.93371 0.0
H841 H 0.22573 0.97204 0.95941 0.0
H842 H 0.24447 0.92535 0.04703 0.0
H843 H 0.26002 0.88253 0.02133 0.0
C844 C 0.21418 0.00523 0.06357 0.0
C845 C 0.23011 0.02209 0.0509 0.0
C846 C 0.21434 0.98292 0.04808 0.0
C847 C 0.22997 0.97768 1.01945 0.0
C848 C 0.24446 0.99572 1.00599 0.0
C849 C 0.24473 0.01756 0.02174 0.0
C850 C 0.24133 0.92813 0.95859 0.0
C851 C 0.25199 0.90268 0.97555 0.0
C852 C 0.23257 0.95256 0.97322 0.0
C853 C 0.23399 0.95192 1.00512 0.0
C854 C 0.24294 0.92635 0.02245 0.0
C855 C 0.25205 0.90192 1.00774 0.0
H856 H 0.16514 0.30059 0.03204 0.0
H857 H 0.11796 0.3621 0.96793 0.0
H858 H 0.20259 0.28836 0.9916 0.0
H859 H 0.1559 0.35023 0.92736 0.0
H860 H 0.22143 0.29674 0.85637 0.0
H861 H 0.1822 0.31123 0.89491 0.0
H862 H 0.23555 0.30934 0.96273 0.0
H863 H 0.27445 0.29482 0.92478 0.0
C864 C 0.16271 0.31148 1.00928 0.0
C865 C 0.13849 0.33233 1.00328 0.0
C866 C 0.18431 0.30465 0.98613 0.0
C867 C 0.18231 0.3184 0.95625 0.0
C868 C 0.15804 0.33914 0.95008 0.0
C869 C 0.13641 0.34614 0.9734 0.0
C870 C 0.22475 0.29959 0.87945 0.0
C871 C 0.25119 0.29439 0.88742 0.0
C872 C 0.20226 0.30798 0.9015 0.0
C873 C 0.20577 0.31117 0.932 0.0
C874 C 0.23214 0.30661 0.93964 0.0
C875 C 0.25449 0.29839 0.91771 0.0
H876 H 0.81878 0.09677 0.98642 0.0
H877 H 0.82658 0.07073 0.89467 0.0
H878 H 0.80794 0.14472 0.96506 0.0
H879 H 0.81636 0.11883 0.87304 0.0
H880 H 0.76702 0.20901 0.85036 0.0
H881 H 0.77651 0.16148 0.87346 0.0
H882 H 0.82938 0.17588 0.93262 0.0
H883 H 0.81969 0.2233 0.90999 0.0
C884 C 0.81841 0.10133 0.96162 0.0
C885 C 0.82344 0.08002 0.94223 0.0
C886 C 0.81232 0.12877 0.94937 0.0
C887 C 0.81105 0.13557 0.9174 0.0
C888 C 0.81677 0.11423 0.89784 0.0
C889 C 0.82303 0.08668 0.91013 0.0
C890 C 0.78023 0.2022 0.86874 0.0
C891 C 0.79257 0.21997 0.87835 0.0
C892 C 0.78595 0.17487 0.88164 0.0
C893 C 0.80394 0.16486 0.90459 0.0
C894 C 0.81536 0.18298 0.91507 0.0
C895 C 0.80979 0.21018 0.90207 0.0
H896 H 0.94335 0.76989 0.97815 0.0
H897 H 0.99183 0.70735 0.91862 0.0
H898 H 0.90651 0.78131 0.94522 0.0
H899 H 0.9548 0.71843 0.88598 0.0
H900 H 0.89091 0.76602 0.81856 0.0
H901 H 0.92898 0.75613 0.84959 0.0
H902 H 0.87429 0.75868 0.93324 0.0
H903 H 0.8364 0.7686 0.90252 0.0
C904 C 0.94623 0.75871 0.95793 0.0
C905 C 0.97052 0.73763 0.95112 0.0
C906 C 0.92502 0.76508 0.9392 0.0
C907 C 0.92767 0.75069 0.91303 0.0
C908 C 0.95216 0.73001 0.90585 0.0
C909 C 0.97328 0.72347 0.92474 0.0
C910 C 0.88702 0.7644 0.84356 0.0
C911 C 0.86055 0.76805 0.85798 0.0
C912 C 0.90885 0.75865 0.86134 0.0
C913 C 0.90465 0.75673 0.8939 0.0
C914 C 0.8782 0.76039 0.90823 0.0
C915 C 0.85647 0.76588 0.89054 0.0
H916 H 0.15078 0.34413 0.13319 0.0
H917 H 0.1188 0.28618 0.19311 0.0
H918 H 0.18327 0.34055 0.16915 0.0
H919 H 0.15074 0.28344 0.23051 0.0
H920 H 0.22653 0.26885 0.2812 0.0
H921 H 0.19479 0.26937 0.24511 0.0
H922 H 0.18797 0.35456 0.21518 0.0
H923 H 0.22075 0.35344 0.25019 0.0
C924 C 0.15067 0.33056 0.15424 0.0
C925 C 0.13204 0.31551 0.16021 0.0
C926 C 0.16921 0.32875 0.17523 0.0
C927 C 0.16957 0.3122 0.20347 0.0
C928 C 0.15141 0.29638 0.20909 0.0
C929 C 0.133 0.29788 0.18763 0.0
C930 C 0.21814 0.28778 0.26702 0.0
C931 C 0.22634 0.31114 0.26872 0.0
C932 C 0.19974 0.28811 0.24626 0.0
C933 C 0.18864 0.31191 0.22666 0.0
C934 C 0.1964 0.33549 0.22905 0.0
C935 C 0.21512 0.33501 0.24947 0.0
H936 H 0.10258 0.78852 1.00198 0.0
H937 H 0.09462 0.74606 0.92654 0.0
H938 H 0.14353 0.79684 0.9732 0.0
H939 H 0.13505 0.75383 0.89833 0.0
H940 H 0.19597 0.78855 0.84154 0.0
H941 H 0.15339 0.78781 0.87087 0.0
H942 H 0.19127 0.77103 0.95589 0.0
H943 H 0.23422 0.77242 0.9263 0.0
C944 C 0.10915 0.78158 0.97901 0.0
C945 C 0.09512 0.76689 0.96644 0.0
C946 C 0.13286 0.78595 0.96268 0.0
C947 C 0.1428 0.77602 0.93329 0.0
C948 C 0.12804 0.7622 0.92056 0.0
C949 C 0.10473 0.75767 0.93685 0.0
C950 C 0.19542 0.78471 0.86649 0.0
C951 C 0.21887 0.7802 0.88137 0.0
C952 C 0.17083 0.78422 0.88341 0.0
C953 C 0.16871 0.77908 0.91589 0.0
C954 C 0.19196 0.77526 0.93098 0.0
C955 C 0.21671 0.7758 0.91395 0.0
H956 H 0.34069 0.09035 0.02973 0.0
H957 H 0.26003 0.14848 0.03752 0.0
H958 H 0.3512 0.11551 0.98025 0.0
H959 H 0.27037 0.17291 0.9889 0.0
H960 H 0.28404 0.19282 0.88668 0.0
H961 H 0.27925 0.16269 0.93317 0.0
H962 H 0.35525 0.16446 0.95901 0.0
H963 H 0.3602 0.19489 0.91219 0.0
C964 C 0.32527 0.1084 0.02104 0.0
C965 C 0.29949 0.11725 0.03772 0.0
C966 C 0.33129 0.12283 0.99276 0.0
C967 C 0.31149 0.14604 0.98041 0.0
C968 C 0.28596 0.15488 0.99736 0.0
C969 C 0.28011 0.14085 0.02551 0.0
C970 C 0.29999 0.18661 0.90194 0.0
C971 C 0.3224 0.19662 0.89565 0.0
C972 C 0.29716 0.16935 0.92874 0.0
C973 C 0.31671 0.16137 0.95003 0.0
C974 C 0.33987 0.17013 0.94305 0.0
C975 C 0.34262 0.18768 0.91624 0.0
H976 H 0.05024 0.29514 1.00154 0.0
H977 H 1.00747 0.2755 0.08807 0.0
H978 H 1.01745 0.28617 0.97321 0.0
H979 H 0.97431 0.26625 0.05973 0.0
H980 H 0.90151 0.30073 0.99859 0.0
H981 H 0.93805 0.29603 0.02988 0.0
H982 H 0.99647 0.255 0.95792 0.0
H983 H 0.95987 0.25953 0.92662 0.0
C984 C 0.03442 0.28766 1.01446 0.0
C985 C 0.03179 0.2854 0.04698 0.0
C986 C 1.01546 0.28263 0.99822 0.0
C987 C 0.99295 0.27567 1.01406 0.0
C988 C 0.9912 0.27183 0.04671 0.0
C989 C 1.01046 0.2766 0.063 0.0
C990 C 0.92206 0.29015 0.98961 0.0
C991 C 0.92755 0.28074 0.95978 0.0
C992 C 0.94312 0.28741 1.00768 0.0
C993 C 0.97038 0.27522 0.99651 0.0
C994 C 0.97581 0.26489 0.96718 0.0
C995 C 0.95475 0.26758 0.94913 0.0
H996 H 0.76501 0.9823 0.93111 0.0
H997 H 0.77814 0.91265 0.99968 0.0
H998 H 0.75751 0.95408 0.89382 0.0
H999 H 0.7704 0.88466 0.963 0.0
H1000 H 0.79837 0.87853 0.83216 0.0
H1001 H 0.79123 0.91377 0.86768 0.0
H1002 H 0.73848 0.87702 0.93006 0.0
H1003 H 0.74558 0.84167 0.89453 0.0
C1004 C 0.76515 0.96134 0.93856 0.0
C1005 C 0.77187 0.94967 0.96829 0.0
C1006 C 0.76121 0.94508 0.91717 0.0
C1007 C 0.76352 0.91706 0.92539 0.0
C1008 C 0.7682 0.90618 0.95595 0.0
C1009 C 0.7726 0.92222 0.97701 0.0
C1010 C 0.78494 0.87813 0.85324 0.0
C1011 C 0.77278 0.85704 0.86059 0.0
C1012 C 0.78064 0.89853 0.87348 0.0
C1013 C 0.7643 0.89821 0.90174 0.0
C1014 C 0.75129 0.87777 0.90854 0.0
C1015 C 0.75534 0.85753 0.88813 0.0
H1016 H 0.95141 0.72842 0.09552 0.0
H1017 H 0.98637 0.78709 0.12115 0.0
H1018 H 0.91895 0.73598 0.14101 0.0
H1019 H 0.95308 0.79496 0.16748 0.0
H1020 H 0.90572 0.77244 0.26458 0.0
H1021 H 0.93977 0.76942 0.21927 0.0
H1022 H 0.87937 0.77233 0.15991 0.0
H1023 H 0.84595 0.77494 0.20432 0.0
C1024 C 0.95207 0.7432 0.11078 0.0
C1025 C 0.97157 0.75722 0.10441 0.0
C1026 C 0.93325 0.74761 0.13698 0.0
C1027 C 0.93319 0.76616 0.15805 0.0
C1028 C 0.95262 0.7804 0.15184 0.0
C1029 C 0.97149 0.77614 0.12514 0.0
C1030 C 0.89977 0.7724 0.24185 0.0
C1031 C 0.87302 0.77353 0.23844 0.0
C1032 C 0.91924 0.77092 0.21582 0.0
C1033 C 0.91245 0.77037 0.18584 0.0
C1034 C 0.88557 0.77221 0.18257 0.0
C1035 C 0.86628 0.77374 0.20828 0.0
H1036 H 0.34069 0.97716 0.15769 0.0
H1037 H 0.25621 0.98178 0.16728 0.0
H1038 H 0.35165 0.92999 0.18365 0.0
H1039 H 0.26691 0.93571 0.19293 0.0
H1040 H 0.29252 0.84514 0.21559 0.0
H1041 H 0.28883 0.88804 0.18327 0.0
H1042 H 0.34377 0.90615 0.23645 0.0
H1043 H 0.3479 0.86275 0.26866 0.0
C1044 C 0.32456 0.96809 0.165 0.0
C1045 C 0.29758 0.98335 0.16046 0.0
C1046 C 0.33077 0.94118 0.18005 0.0
C1047 C 0.31017 0.92891 0.1903 0.0
C1048 C 0.2834 0.94413 0.18501 0.0
C1049 C 0.27724 0.97082 0.17044 0.0
C1050 C 0.30409 0.85803 0.2203 0.0
C1051 C 0.3203 0.85047 0.24504 0.0
C1052 C 0.30189 0.88277 0.20176 0.0
C1053 C 0.31574 0.90083 0.20741 0.0
C1054 C 0.33294 0.89273 0.23126 0.0
C1055 C 0.33516 0.86788 0.24988 0.0
H1056 H 0.7569 0.09019 0.05276 0.0
H1057 H 0.81226 0.03451 0.11379 0.0
H1058 H 0.75355 0.12856 0.08328 0.0
H1059 H 0.80876 0.07219 0.14416 0.0
H1060 H 0.8298 0.14732 0.16121 0.0
H1061 H 0.82674 0.11149 0.13173 0.0
H1062 H 0.73992 0.14821 0.1359 0.0
H1063 H 0.74288 0.18408 0.16588 0.0
C1064 C 0.76759 0.08603 0.07322 0.0
C1065 C 0.78491 0.05947 0.08089 0.0
C1066 C 0.76587 0.10795 0.09055 0.0
C1067 C 0.78146 0.10351 0.11568 0.0
C1068 C 0.7971 0.07649 0.12447 0.0
C1069 C 0.79888 0.05483 0.10725 0.0
C1070 C 0.81002 0.14777 0.15602 0.0
C1071 C 0.78661 0.16851 0.16626 0.0
C1072 C 0.80824 0.1272 0.13909 0.0
C1073 C 0.78301 0.12675 0.13185 0.0
C1074 C 0.75964 0.14802 0.14102 0.0
C1075 C 0.76141 0.16862 0.15813 0.0
H1076 H 0.62233 0.57149 0.88623 0.0
H1077 H 0.56664 0.63356 0.94172 0.0
H1078 H 0.65407 0.59828 0.87744 0.0
H1079 H 0.59859 0.6602 0.93333 0.0
H1080 H 0.64878 0.71395 0.88024 0.0
H1081 H 0.61733 0.68679 0.88896 0.0
H1082 H 0.68364 0.61304 0.90745 0.0
H1083 H 0.71517 0.64016 0.89828 0.0
C1084 C 0.61686 0.59088 0.89651 0.0
C1085 C 0.59193 0.60046 0.91458 0.0
C1086 C 0.63514 0.60609 0.89171 0.0
C1087 C 0.6288 0.63137 0.90464 0.0
C1088 C 0.60393 0.64091 0.92283 0.0
C1089 C 0.58575 0.62555 0.92789 0.0
C1090 C 0.65667 0.6919 0.88588 0.0
C1091 C 0.68445 0.67917 0.88852 0.0
C1092 C 0.63862 0.6764 0.8912 0.0
C1093 C 0.648 0.6478 0.89899 0.0
C1094 C 0.67583 0.63502 0.90129 0.0
C1095 C 0.69385 0.65056 0.89626 0.0
H1096 H 0.47951 0.60265 0.8263 0.0
H1097 H 0.43612 0.5827 0.9126 0.0
H1098 H 0.43835 0.64002 0.81293 0.0
H1099 H 0.39575 0.61943 0.89937 0.0
H1100 H 0.3499 0.71232 0.88947 0.0
H1101 H 0.38805 0.67078 0.89628 0.0
H1102 H 0.38618 0.65193 0.8034 0.0
H1103 H 0.34732 0.69391 0.79657 0.0
C1104 C 0.46118 0.60584 0.84208 0.0
C1105 C 0.4613 0.58996 0.87075 0.0
C1106 C 0.43762 0.62718 0.83443 0.0
C1107 C 0.41392 0.63295 0.85536 0.0
C1108 C 0.41376 0.61589 0.88301 0.0
C1109 C 0.43702 0.59478 0.89056 0.0
C1110 C 0.35731 0.6992 0.87056 0.0
C1111 C 0.34538 0.70634 0.84258 0.0
C1112 C 0.37922 0.67534 0.87448 0.0
C1113 C 0.39018 0.65801 0.85039 0.0
C1114 C 0.37824 0.66493 0.82233 0.0
C1115 C 0.35583 0.68875 0.81857 0.0
H1116 H 0.46381 0.48697 0.88757 0.0
H1117 H 0.5075 0.42861 0.95689 0.0
H1118 H 0.44209 0.4539 0.87792 0.0
H1119 H 0.48485 0.39576 0.94813 0.0
H1120 H 0.46424 0.33327 0.89703 0.0
H1121 H 0.48536 0.36664 0.90798 0.0
H1122 H 0.40923 0.43154 0.90114 0.0
H1123 H 0.38822 0.39823 0.89001 0.0
C1124 C 0.4687 0.46709 0.90086 0.0
C1125 C 0.4876 0.46034 0.9228 0.0
C1126 C 0.456 0.44823 0.89556 0.0
C1127 C 0.4618 0.42212 0.91215 0.0
C1128 C 0.48022 0.41556 0.93465 0.0
C1129 C 0.49295 0.4345 0.93996 0.0
C1130 C 0.45203 0.35466 0.89793 0.0
C1131 C 0.42459 0.36312 0.89254 0.0
C1132 C 0.46408 0.37376 0.90434 0.0
C1133 C 0.44896 0.40175 0.90556 0.0
C1134 C 0.42156 0.41021 0.89997 0.0
C1135 C 0.40953 0.39113 0.89349 0.0
H1136 H 0.63913 0.48389 0.90184 0.0
H1137 H 0.59482 0.46305 0.83741 0.0
H1138 H 0.67786 0.44398 0.89021 0.0
H1139 H 0.63333 0.42212 0.82651 0.0
H1140 H 0.7154 0.36225 0.7954 0.0
H1141 H 0.67785 0.40377 0.80395 0.0
H1142 H 0.69283 0.396 0.89992 0.0
H1143 H 0.73136 0.35483 0.8909 0.0
C1144 C 0.63774 0.47076 0.88499 0.0
C1145 C 0.61389 0.47666 0.87053 0.0
C1146 C 0.6599 0.44759 0.87859 0.0
C1147 C 0.6588 0.42928 0.85782 0.0
C1148 C 0.63518 0.43573 0.84248 0.0
C1149 C 0.61303 0.45926 0.84863 0.0
C1150 C 0.7107 0.36926 0.81843 0.0
C1151 C 0.7265 0.35501 0.84252 0.0
C1152 C 0.68894 0.39316 0.82337 0.0
C1153 C 0.68204 0.40352 0.85263 0.0
C1154 C 0.69771 0.38909 0.87685 0.0
C1155 C 0.71975 0.36528 0.8718 0.0
H1156 H 0.6256 0.47573 0.31448 0.0
H1157 H 0.6505 0.45229 0.2209 0.0
H1158 H 0.66354 0.43658 0.33265 0.0
H1159 H 0.68754 0.41397 0.23891 0.0
H1160 H 0.72464 0.32955 0.28468 0.0
H1161 H 0.68644 0.36993 0.27463 0.0
H1162 H 0.71981 0.41856 0.32171 0.0
H1163 H 0.75878 0.37761 0.3321 0.0
C1164 C 0.63905 0.46235 0.29788 0.0
C1165 C 0.63487 0.46707 0.26629 0.0
C1166 C 0.6608 0.44014 0.30822 0.0
C1167 C 0.67832 0.42222 0.28716 0.0
C1168 C 0.67421 0.42727 0.2557 0.0
C1169 C 0.65291 0.44936 0.24542 0.0
C1170 C 0.72402 0.34868 0.29318 0.0
C1171 C 0.74512 0.3503 0.3089 0.0
C1172 C 0.70199 0.37185 0.28741 0.0
C1173 C 0.70024 0.39737 0.29724 0.0
C1174 C 0.72066 0.39904 0.31402 0.0
C1175 C 0.74302 0.37568 0.3197 0.0
H1176 H 0.60748 0.60919 0.26184 0.0
H1177 H 0.65246 0.59407 0.17211 0.0
H1178 H 0.63363 0.63868 0.27048 0.0
H1179 H 0.67837 0.62422 0.18049 0.0
H1180 H 0.73817 0.65536 0.22339 0.0
H1181 H 0.71272 0.62488 0.21487 0.0
H1182 H 0.63844 0.68408 0.24947 0.0
H1183 H 0.6639 0.71426 0.25849 0.0
C1184 C 0.62306 0.61205 0.244 0.0
C1185 C 0.62801 0.59916 0.21634 0.0
C1186 C 0.63784 0.6292 0.24882 0.0
C1187 C 0.65804 0.63377 0.22617 0.0
C1188 C 0.66308 0.62087 0.19849 0.0
C1189 C 0.6481 0.60385 0.19355 0.0
C1190 C 0.71644 0.6617 0.22945 0.0
C1191 C 0.70301 0.68717 0.24165 0.0
C1192 C 0.70186 0.64441 0.22425 0.0
C1193 C 0.67359 0.65213 0.23143 0.0
C1194 C 0.66023 0.67748 0.24391 0.0
C1195 C 0.67477 0.69484 0.24887 0.0
H1196 H 0.51079 0.62928 0.21858 0.0
H1197 H 0.49379 0.58879 0.30806 0.0
H1198 H 0.47565 0.67119 0.23204 0.0
H1199 H 0.45742 0.63109 0.32141 0.0
H1200 H 0.40513 0.72087 0.34021 0.0
H1201 H 0.44483 0.68042 0.33143 0.0
H1202 H 0.42741 0.68438 0.23695 0.0
H1203 H 0.38861 0.72474 0.24534 0.0
C1204 C 0.49943 0.62933 0.24122 0.0
C1205 C 0.50473 0.60557 0.26207 0.0
C1206 C 0.47917 0.6534 0.2489 0.0
C1207 C 0.46324 0.65439 0.27752 0.0
C1208 C 0.46933 0.63103 0.29915 0.0
C1209 C 0.49005 0.6068 0.29152 0.0
C1210 C 0.41006 0.71329 0.31745 0.0
C1211 C 0.39378 0.72626 0.29339 0.0
C1212 C 0.43265 0.68994 0.31254 0.0
C1213 C 0.43945 0.6792 0.28345 0.0
C1214 C 0.42317 0.69235 0.25949 0.0
C1215 C 0.40076 0.71554 0.26435 0.0
H1216 H 0.47554 0.50577 0.25234 0.0
H1217 H 0.52396 0.44714 0.18834 0.0
H1218 H 0.44099 0.48236 0.25968 0.0
H1219 H 0.48968 0.42366 0.19579 0.0
H1220 H 0.41125 0.40539 0.19054 0.0
H1221 H 0.44468 0.42987 0.18389 0.0
H1222 H 0.43227 0.44005 0.28188 0.0
H1223 H 0.39778 0.41661 0.2883 0.0
C1224 C 0.47893 0.48778 0.24002 0.0
C1225 C 0.5025 0.47846 0.21962 0.0
C1226 C 0.45912 0.47431 0.24425 0.0
C1227 C 0.46245 0.45115 0.22824 0.0
C1228 C 0.48614 0.44175 0.20804 0.0
C1229 C 0.50585 0.45524 0.20375 0.0
C1230 C 0.41534 0.41315 0.21064 0.0
C1231 C 0.40168 0.40906 0.23995 0.0
C1232 C 0.43483 0.4269 0.20689 0.0
C1233 C 0.44132 0.43687 0.23236 0.0
C1234 C 0.42763 0.43288 0.26169 0.0
C1235 C 0.40807 0.41914 0.26544 0.0
H1236 H 0.85074 0.63987 0.6208 0.0
H1237 H 0.79979 0.60442 0.68765 0.0
H1238 H 0.84922 0.67293 0.65679 0.0
H1239 H 0.79742 0.63818 0.72338 0.0
H1240 H 0.81213 0.69249 0.79016 0.0
H1241 H 0.81925 0.65535 0.757 0.0
H1242 H 0.81841 0.71314 0.6761 0.0
H1243 H 0.81222 0.74976 0.70899 0.0
C1244 C 0.83929 0.63902 0.64327 0.0
C1245 C 0.82528 0.61951 0.65118 0.0
C1246 C 0.83821 0.65821 0.6639 0.0
C1247 C 0.82283 0.6587 0.693 0.0
C1248 C 0.80965 0.63844 0.70137 0.0
C1249 C 0.81094 0.61906 0.68079 0.0
C1250 C 0.81367 0.69721 0.76528 0.0
C1251 C 0.81168 0.72421 0.75237 0.0
C1252 C 0.8176 0.6759 0.7462 0.0
C1253 C 0.81954 0.68102 0.71368 0.0
C1254 C 0.81763 0.70806 0.70091 0.0
C1255 C 0.81386 0.72925 0.71991 0.0
H1256 H 0.51056 0.74968 0.73493 0.0
H1257 H 0.47428 0.79078 0.65208 0.0
H1258 H 0.46548 0.75538 0.76252 0.0
H1259 H 0.42915 0.79655 0.67968 0.0
H1260 H 0.35497 0.77197 0.73126 0.0
H1261 H 0.3996 0.76785 0.70328 0.0
H1262 H 0.42449 0.7926 0.78214 0.0
H1263 H 0.37977 0.79694 0.81013 0.0
C1264 C 0.49299 0.75985 0.72253 0.0
C1265 C 0.4962 0.76975 0.69119 0.0
C1266 C 0.46707 0.76335 0.73846 0.0
C1267 C 0.44353 0.77649 0.72343 0.0
C1268 C 0.44674 0.7862 0.69202 0.0
C1269 C 0.47267 0.78307 0.67622 0.0
C1270 C 0.36985 0.77673 0.74265 0.0
C1271 C 0.36355 0.78488 0.77305 0.0
C1272 C 0.39549 0.77445 0.72649 0.0
C1273 C 0.41582 0.77981 0.74038 0.0
C1274 C 0.4095 0.78805 0.77074 0.0
C1275 C 0.38371 0.79075 0.78674 0.0
H1276 H 0.29229 0.42645 0.62422 0.0
H1277 H 0.37099 0.42108 0.64903 0.0
H1278 H 0.28593 0.39613 0.66998 0.0
H1279 H 0.36502 0.38985 0.69426 0.0
H1280 H 0.33675 0.35045 0.78754 0.0
H1281 H 0.34007 0.38556 0.74506 0.0
H1282 H 0.30313 0.34833 0.68749 0.0
H1283 H 0.29935 0.31393 0.72966 0.0
C1284 C 0.30823 0.41898 0.63944 0.0
C1285 C 0.33224 0.42629 0.6326 0.0
C1286 C 0.30468 0.40128 0.66565 0.0
C1287 C 0.32501 0.39029 0.68589 0.0
C1288 C 0.3488 0.39802 0.67943 0.0
C1289 C 0.35237 0.41572 0.65316 0.0
C1290 C 0.32903 0.35 0.76594 0.0
C1291 C 0.31778 0.32927 0.76218 0.0
C1292 C 0.33115 0.37 0.74145 0.0
C1293 C 0.32189 0.36988 0.71269 0.0
C1294 C 0.31015 0.34945 0.7093 0.0
C1295 C 0.30815 0.3295 0.73359 0.0
H1296 H 0.54525 0.30418 0.60225 0.0
H1297 H 0.61622 0.25562 0.54929 0.0
H1298 H 0.57452 0.31559 0.63465 0.0
H1299 H 0.64523 0.26669 0.58115 0.0
H1300 H 0.69419 0.30018 0.63189 0.0
H1301 H 0.66148 0.30164 0.59652 0.0
H1302 H 0.605 0.28933 0.67426 0.0
H1303 H 0.63774 0.28777 0.70968 0.0
C1304 C 0.56705 0.29668 0.59697 0.0
C1305 C 0.5785 0.2792 0.57316 0.0
C1306 C 0.58383 0.30288 0.61572 0.0
C1307 C 0.61233 0.292 0.61065 0.0
C1308 C 0.6235 0.27578 0.58563 0.0
C1309 C 0.60684 0.26935 0.56735 0.0
C1310 C 0.67477 0.29789 0.64152 0.0
C1311 C 0.66888 0.2935 0.67376 0.0
C1312 C 0.65593 0.2988 0.62119 0.0
C1313 C 0.6306 0.29535 0.63243 0.0
C1314 C 0.62414 0.29237 0.6647 0.0
C1315 C 0.64301 0.29144 0.68508 0.0
H1316 H 0.84768 0.45637 0.6055 0.0
H1317 H 0.83608 0.51838 0.52787 0.0
H1318 H 0.84771 0.42203 0.57194 0.0
H1319 H 0.83674 0.48379 0.49409 0.0
H1320 H 0.80568 0.42374 0.4517 0.0
H1321 H 0.80802 0.45759 0.48487 0.0
H1322 H 0.87161 0.39534 0.53026 0.0
H1323 H 0.86837 0.36134 0.49825 0.0
C1324 C 0.84575 0.46259 0.58112 0.0
C1325 C 0.84186 0.49023 0.56949 0.0
C1326 C 0.84575 0.44282 0.5618 0.0
C1327 C 0.84192 0.4501 0.53027 0.0
C1328 C 0.83918 0.47751 0.51836 0.0
C1329 C 0.83916 0.49731 0.53769 0.0
C1330 C 0.81989 0.41718 0.46905 0.0
C1331 C 0.83688 0.38975 0.47213 0.0
C1332 C 0.82154 0.43671 0.48779 0.0
C1333 C 0.84018 0.42934 0.51016 0.0
C1334 C 0.85688 0.40182 0.51349 0.0
C1335 C 0.85521 0.38233 0.49483 0.0
H1336 H 0.6523 0.80903 0.52516 0.0
H1337 H 0.66035 0.72812 0.49935 0.0
H1338 H 0.68401 0.8152 0.48073 0.0
H1339 H 0.69284 0.73381 0.45595 0.0
H1340 H 0.72832 0.76146 0.36224 0.0
H1341 H 0.6959 0.75758 0.40643 0.0
H1342 H 0.7306 0.80122 0.45898 0.0
H1343 H 0.76291 0.80569 0.41414 0.0
C1344 C 0.66071 0.7925 0.51014 0.0
C1345 C 0.65336 0.76807 0.51617 0.0
C1346 C 0.67928 0.79595 0.4847 0.0
C1347 C 0.69112 0.7751 0.46438 0.0
C1348 C 0.68394 0.75061 0.47059 0.0
C1349 C 0.6654 0.74718 0.49593 0.0
C1350 C 0.72907 0.77043 0.38309 0.0
C1351 C 0.74842 0.78394 0.38437 0.0
C1352 C 0.71049 0.76797 0.40871 0.0
C1353 C 0.71058 0.7788 0.43669 0.0
C1354 C 0.72962 0.79278 0.43787 0.0
C1355 C 0.74827 0.7953 0.41209 0.0
H1356 H 0.30922 0.60696 0.49907 0.0
H1357 H 0.35983 0.56836 0.42052 0.0
H1358 H 0.30335 0.65238 0.47049 0.0
H1359 H 0.35439 0.61341 0.39245 0.0
H1360 H 0.31227 0.69213 0.33703 0.0
H1361 H 0.31722 0.64913 0.36892 0.0
H1362 H 0.32851 0.68645 0.44699 0.0
H1363 H 0.3235 0.73023 0.4147 0.0
C1364 C 0.31913 0.60809 0.47578 0.0
C1365 C 0.33495 0.5838 0.46216 0.0
C1366 C 0.31596 0.63419 0.45951 0.0
C1367 C 0.32823 0.63665 0.42904 0.0
C1368 C 0.34434 0.61238 0.4157 0.0
C1369 C 0.34769 0.58643 0.43199 0.0
C1370 C 0.31572 0.69149 0.361 0.0
C1371 C 0.31765 0.7149 0.37307 0.0
C1372 C 0.31873 0.66658 0.37931 0.0
C1373 C 0.32366 0.66407 0.41048 0.0
C1374 C 0.32471 0.68763 0.42307 0.0
C1375 C 0.32188 0.71274 0.40453 0.0
H1376 H 0.49022 0.23852 0.42522 0.0
H1377 H 0.44431 0.30186 0.48492 0.0
H1378 H 0.45215 0.24908 0.39464 0.0
H1379 H 0.40563 0.31243 0.45411 0.0
H1380 H 0.33435 0.29257 0.4155 0.0
H1381 H 0.37254 0.28825 0.44435 0.0
H1382 H 0.42471 0.2851 0.3587 0.0
H1383 H 0.38653 0.28954 0.32976 0.0
C1384 C 0.47203 0.25499 0.43165 0.0
C1385 C 0.4704 0.26934 0.4576 0.0
C1386 C 0.45016 0.26113 0.41394 0.0
C1387 C 0.42568 0.28158 0.42183 0.0
C1388 C 0.42411 0.29641 0.44747 0.0
C1389 C 0.44633 0.29055 0.46498 0.0
C1390 C 0.35395 0.29096 0.40273 0.0
C1391 C 0.35729 0.29109 0.37019 0.0
C1392 C 0.37583 0.28876 0.41933 0.0
C1393 C 0.40181 0.28629 0.40396 0.0
C1394 C 0.40508 0.28673 0.37139 0.0
C1395 C 0.38313 0.28929 0.35475 0.0
H1396 H 0.67054 0.79444 0.6274 0.0
H1397 H 0.60057 0.82747 0.69161 0.0
H1398 H 0.69962 0.80365 0.66096 0.0
H1399 H 0.62997 0.83618 0.72591 0.0
H1400 H 0.70269 0.79259 0.79026 0.0
H1401 H 0.66744 0.79928 0.75619 0.0
H1402 H 0.70928 0.84211 0.68604 0.0
H1403 H 0.7445 0.83574 0.72021 0.0
C1404 C 0.66134 0.80431 0.64841 0.0
C1405 C 0.63338 0.81031 0.65697 0.0
C1406 C 0.67797 0.80966 0.66757 0.0
C1407 C 0.66706 0.82057 0.69605 0.0
C1408 C 0.63885 0.82775 0.70404 0.0
C1409 C 0.62205 0.82297 0.6844 0.0
C1410 C 0.70413 0.80389 0.76779 0.0
C1411 C 0.72653 0.81341 0.75782 0.0
C1412 C 0.68381 0.80793 0.74841 0.0
C1413 C 0.68566 0.82119 0.71849 0.0
C1414 C 0.7074 0.83179 0.70901 0.0
C1415 C 0.72751 0.82817 0.7286 0.0
H1416 H 0.64956 0.19368 0.45696 0.0
H1417 H 0.61027 0.28168 0.44873 0.0
H1418 H 0.69214 0.20082 0.43415 0.0
H1419 H 0.65285 0.28883 0.42582 0.0
H1420 H 0.73906 0.29409 0.40844 0.0
H1421 H 0.6982 0.28574 0.43613 0.0
H1422 H 0.71235 0.21497 0.3849 0.0
H1423 H 0.75323 0.2229 0.35787 0.0
C1424 C 0.64989 0.21455 0.45008 0.0
C1425 C 0.62631 0.23707 0.45462 0.0
C1426 C 0.67439 0.21867 0.43702 0.0
C1427 C 0.67602 0.24542 0.42805 0.0
C1428 C 0.65252 0.26796 0.43288 0.0
C1429 C 0.62801 0.26385 0.44598 0.0
C1430 C 0.73363 0.27655 0.40339 0.0
C1431 C 0.74952 0.25919 0.3809 0.0
C1432 C 0.71006 0.27189 0.41907 0.0
C1433 C 0.70184 0.24972 0.41271 0.0
C1434 C 0.71814 0.23203 0.39075 0.0
C1435 C 0.74161 0.23669 0.37509 0.0
H1436 H 0.8329 0.60858 0.49903 0.0
H1437 H 0.74857 0.65153 0.48794 0.0
H1438 H 0.84588 0.62856 0.44843 0.0
H1439 H 0.76178 0.67249 0.43768 0.0
H1440 H 0.79044 0.69728 0.34101 0.0
H1441 H 0.78214 0.66464 0.3839 0.0
H1442 H 0.84602 0.67496 0.42949 0.0
H1443 H 0.85447 0.70714 0.38668 0.0
C1444 C 0.81702 0.62197 0.48573 0.0
C1445 C 0.7896 0.62851 0.49782 0.0
C1446 C 0.82455 0.63362 0.45673 0.0
C1447 C 0.80491 0.65217 0.43904 0.0
C1448 C 0.77742 0.65801 0.45055 0.0
C1449 C 0.76986 0.64631 0.47961 0.0
C1450 C 0.80338 0.69174 0.35964 0.0
C1451 C 0.82304 0.70484 0.36058 0.0
C1452 C 0.79836 0.67335 0.38441 0.0
C1453 C 0.81313 0.66754 0.41032 0.0
C1454 C 0.83434 0.67885 0.40987 0.0
C1455 C 0.83919 0.69734 0.38532 0.0
H1456 H 0.52549 0.84619 0.52929 0.0
H1457 H 0.4895 0.79044 0.5878 0.0
H1458 H 0.48778 0.8588 0.49679 0.0
H1459 H 0.45217 0.80282 0.55589 0.0
H1460 H 0.38249 0.83453 0.50027 0.0
H1461 H 0.41285 0.83847 0.53589 0.0
H1462 H 0.47721 0.82989 0.46113 0.0
H1463 H 0.44665 0.82682 0.42533 0.0
C1464 C 0.50906 0.83739 0.53569 0.0
C1465 C 0.51025 0.81731 0.56074 0.0
C1466 C 0.48768 0.84437 0.51707 0.0
C1467 C 0.46715 0.83164 0.5237 0.0
C1468 C 0.46748 0.8132 0.55029 0.0
C1469 C 0.48891 0.80598 0.56848 0.0
C1470 C 0.40297 0.83401 0.49134 0.0
C1471 C 0.41232 0.82994 0.46011 0.0
C1472 C 0.42035 0.83621 0.51173 0.0
C1473 C 0.44741 0.83444 0.5013 0.0
C1474 C 0.45639 0.83165 0.46979 0.0
C1475 C 0.43903 0.82938 0.44941 0.0
H1476 H 0.30352 0.40649 0.51027 0.0
H1477 H 0.26811 0.48419 0.45858 0.0
H1478 H 0.2896 0.38239 0.47432 0.0
H1479 H 0.25428 0.45981 0.42205 0.0
H1480 H 0.28353 0.39532 0.34446 0.0
H1481 H 0.28264 0.42628 0.3828 0.0
H1482 H 0.24941 0.37626 0.45363 0.0
H1483 H 0.25022 0.3452 0.41524 0.0
C1484 C 0.29236 0.41848 0.49143 0.0
C1485 C 0.28704 0.44722 0.48713 0.0
C1486 C 0.28419 0.40466 0.47095 0.0
C1487 C 0.27083 0.41917 0.44534 0.0
C1488 C 0.26461 0.44809 0.44157 0.0
C1489 C 0.27239 0.46204 0.46251 0.0
C1490 C 0.27542 0.39125 0.36807 0.0
C1491 C 0.26718 0.36762 0.37683 0.0
C1492 C 0.27477 0.40912 0.39 0.0
C1493 C 0.26617 0.40359 0.42128 0.0
C1494 C 0.25635 0.38092 0.42971 0.0
C1495 C 0.25667 0.36322 0.40768 0.0
H1496 H 0.47249 0.26557 0.62788 0.0
H1497 H 0.47787 0.17994 0.62741 0.0
H1498 H 0.44246 0.2686 0.6756 0.0
H1499 H 0.44863 0.18268 0.6761 0.0
H1500 H 0.3697 0.20931 0.74293 0.0
H1501 H 0.40211 0.20276 0.69679 0.0
H1502 H 0.44224 0.25378 0.72976 0.0
H1503 H 0.4095 0.26087 0.77548 0.0
C1504 C 0.46729 0.24735 0.63784 0.0
C1505 C 0.47762 0.22252 0.6235 0.0
C1506 C 0.45031 0.24899 0.66559 0.0
C1507 C 0.44319 0.22585 0.67993 0.0
C1508 C 0.4535 0.20099 0.66565 0.0
C1509 C 0.47052 0.19934 0.63782 0.0
C1510 C 0.38564 0.21885 0.74057 0.0
C1511 C 0.38684 0.23575 0.76293 0.0
C1512 C 0.40431 0.21502 0.71408 0.0
C1513 C 0.42467 0.22797 0.7093 0.0
C1514 C 0.4265 0.24395 0.7323 0.0
C1515 C 0.40782 0.24783 0.75872 0.0
H1516 H 0.8125 0.4834 0.67745 0.0
H1517 H 0.73189 0.48179 0.66821 0.0
H1518 H 0.82234 0.43848 0.70612 0.0
H1519 H 0.74196 0.43633 0.69706 0.0
H1520 H 0.77941 0.34371 0.72295 0.0
H1521 H 0.77125 0.38795 0.69174 0.0
H1522 H 0.80884 0.41753 0.75626 0.0
H1523 H 0.81737 0.37341 0.78709 0.0
C1524 C 0.79663 0.47379 0.68192 0.0
C1525 C 0.77121 0.48652 0.67065 0.0
C1526 C 0.8024 0.44782 0.69828 0.0
C1527 C 0.78297 0.43379 0.70383 0.0
C1528 C 0.75751 0.44645 0.69275 0.0
C1529 C 0.75168 0.47254 0.67638 0.0
C1530 C 0.78637 0.35948 0.73017 0.0
C1531 C 0.79907 0.35499 0.75753 0.0
C1532 C 0.78138 0.38493 0.71249 0.0
C1533 C 0.78919 0.40631 0.72168 0.0
C1534 C 0.80272 0.40144 0.74843 0.0
C1535 C 0.80756 0.37613 0.76615 0.0
H1536 H 0.30368 0.53873 0.63988 0.0
H1537 H 0.25475 0.58559 0.56795 0.0
H1538 H 0.28913 0.57851 0.6699 0.0
H1539 H 0.23988 0.62596 0.59827 0.0
H1540 H 0.26721 0.69427 0.63699 0.0
H1541 H 0.26632 0.65568 0.61025 0.0
H1542 H 0.25196 0.61157 0.69832 0.0
H1543 H 0.25299 0.65007 0.72503 0.0
C1544 C 0.28915 0.55744 0.63095 0.0
C1545 C 0.28039 0.55926 0.60166 0.0
C1546 C 0.28069 0.58021 0.6482 0.0
C1547 C 0.2635 0.60543 0.63634 0.0
C1548 C 0.25332 0.60679 0.60782 0.0
C1549 C 0.26157 0.58372 0.59065 0.0
C1550 C 0.26343 0.67651 0.65058 0.0
C1551 C 0.26071 0.67493 0.6831 0.0
C1552 C 0.2627 0.6545 0.63528 0.0
C1553 C 0.25918 0.63056 0.65221 0.0
C1554 C 0.25506 0.62962 0.68469 0.0
C1555 C 0.25587 0.65155 0.69996 0.0
loop_
_geom_bond_atom_site_label_1
_geom_bond_atom_site_label_2
_geom_bond_distance
_geom_bond_site_symmetry_2
_ccdc_geom_bond_type
Cu0 N1 1.999 . S
Cu0 O6 1.974 1_545 S
Cu0 N11 1.985 1_545 S
Cu0 O20 1.959 1_455 S
N1 Cu0 1.999 . S
N1 C3 1.263 . S
N1 C5 1.389 . S
N2 C3 1.358 . S
N2 C4 1.400 . S
C3 N1 1.263 . S
C3 N2 1.358 . S
C3 H9 0.930 . S
C4 N2 1.400 . S
C4 C5 1.351 . S
C4 H21 0.930 . S
C5 N1 1.389 . S
C5 C4 1.351 . S
C5 H10 0.930 . S
O6 Cu0 1.974 1_565 S
O6 C16 1.282 . S
C7 O8 1.261 1_655 S
C7 O20 1.251 . S
O8 C7 1.261 1_455 S
H9 C3 0.930 . S
H10 C5 0.930 . S
N11 Cu0 1.985 1_565 S
N11 C13 1.335 1_455 S
N11 C14 1.390 . S
N12 C13 1.345 . S
N12 C15 1.336 1_655 S
C13 N11 1.335 1_655 S
C13 N12 1.345 . S
C13 H18 0.930 1_565 S
C14 N11 1.390 . S
C14 C15 1.346 . S
C14 H19 0.930 . S
C15 N12 1.336 1_455 S
C15 C14 1.346 . S
C15 H22 0.929 . S
C16 O6 1.282 . S
C16 O17 1.216 . S
O17 C16 1.216 . S
H18 C13 0.930 1_545 S
H19 C14 0.930 . S
O20 Cu0 1.959 1_655 S
O20 C7 1.251 . S
H21 C4 0.930 . S
H22 C15 0.929 . S
Cu23 N24 1.999 . S
Cu23 O29 1.974 1_455 S
Cu23 N34 1.985 . S
Cu23 O43 1.959 . S
N24 Cu23 1.999 . S
N24 C26 1.263 1_455 S
N24 C28 1.389 1_545 S
N25 C26 1.331 1_565 S
N25 C27 1.413 . S
C26 N24 1.263 1_655 S
C26 N25 1.331 1_545 S
C26 H32 0.930 . S
C27 N25 1.413 . S
C27 C28 1.351 1_655 S
C27 H44 0.930 . S
C28 N24 1.389 1_565 S
C28 C27 1.351 1_455 S
C28 H33 0.930 . S
O29 Cu23 1.974 1_655 S
O29 C39 1.282 . S
C30 O31 1.261 . S
C30 O43 1.251 . S
O31 C30 1.261 . S
H32 C26 0.930 . S
H33 C28 0.930 . S
N34 Cu23 1.985 . S
N34 C36 1.335 . S
N34 C37 1.390 . S
N35 C36 1.345 . S
N35 C38 1.336 . S
C36 N34 1.335 . S
C36 N35 1.345 . S
C36 H41 0.930 . S
C37 N34 1.390 . S
C37 C38 1.346 . S
C37 H42 0.930 . S
C38 N35 1.336 . S
C38 C37 1.346 . S
C38 H45 0.929 . S
C39 O29 1.282 . S
C39 O40 1.216 . S
O40 C39 1.216 . S
H41 C36 0.930 . S
H42 C37 0.930 . S
O43 Cu23 1.959 . S
O43 C30 1.251 . S
H44 C27 0.930 . S
H45 C38 0.929 . S
Cu46 N47 1.999 . S
Cu46 O52 1.974 . S
Cu46 N57 1.985 . S
Cu46 O66 1.959 . S
N47 Cu46 1.999 . S
N47 C49 1.263 . S
N47 C51 1.389 . S
N48 C49 1.358 . S
N48 C50 1.400 . S
C49 N47 1.263 . S
C49 N48 1.358 . S
C49 H55 0.930 . S
C50 N48 1.400 . S
C50 C51 1.351 . S
C50 H67 0.930 1_554 S
C51 N47 1.389 . S
C51 C50 1.351 . S
C51 H56 0.930 . S
O52 Cu46 1.974 . S
O52 C62 1.282 . S
C53 O54 1.261 . S
C53 O66 1.251 . S
O54 C53 1.261 . S
H55 C49 0.930 . S
H56 C51 0.930 . S
N57 Cu46 1.985 . S
N57 C59 1.335 . S
N57 C60 1.390 . S
N58 C59 1.345 . S
N58 C61 1.336 . S
C59 N57 1.335 . S
C59 N58 1.345 . S
C59 H64 0.930 . S
C60 N57 1.390 . S
C60 C61 1.346 . S
C60 H65 0.930 . S
C61 N58 1.336 . S
C61 C60 1.346 . S
C61 H68 0.929 . S
C62 O52 1.282 . S
C62 O63 1.216 . S
O63 C62 1.216 . S
H64 C59 0.930 . S
H65 C60 0.930 . S
O66 Cu46 1.959 . S
O66 C53 1.251 . S
H67 C50 0.930 1_556 S
H68 C61 0.929 . S
Cu69 N70 1.999 . S
Cu69 O75 1.974 . S
Cu69 N80 1.985 . S
Cu69 O89 1.959 . S
N70 Cu69 1.999 . S
N70 C72 1.263 . S
N70 C74 1.389 . S
N71 C72 1.358 . S
N71 C73 1.400 1_554 S
C72 N70 1.263 . S
C72 N71 1.358 . S
C72 H78 0.930 . S
C73 N71 1.400 1_556 S
C73 C74 1.351 1_556 S
C73 H90 0.930 . S
C74 N70 1.389 . S
C74 C73 1.351 1_554 S
C74 H79 0.930 . S
O75 Cu69 1.974 . S
O75 C85 1.282 . S
C76 O77 1.261 . S
C76 O89 1.251 . S
O77 C76 1.261 . S
H78 C72 0.930 . S
H79 C74 0.930 . S
N80 Cu69 1.985 . S
N80 C82 1.335 1_455 S
N80 C83 1.390 . S
N81 C82 1.345 . S
N81 C84 1.336 1_655 S
C82 N80 1.335 1_655 S
C82 N81 1.345 . S
C82 H87 0.930 . S
C83 N80 1.390 . S
C83 C84 1.346 . S
C83 H88 0.930 . S
C84 N81 1.336 1_455 S
C84 C83 1.346 . S
C84 H91 0.929 . S
C85 O75 1.282 . S
C85 O86 1.216 . S
O86 C85 1.216 . S
H87 C82 0.930 . S
H88 C83 0.930 . S
O89 Cu69 1.959 . S
O89 C76 1.251 . S
H90 C73 0.930 . S
H91 C84 0.929 . S
Cu92 N93 1.999 1_554 S
Cu92 O98 1.974 . S
Cu92 N103 1.985 1_545 S
Cu92 O112 1.959 1_544 S
N93 Cu92 1.999 1_556 S
N93 C95 1.263 . S
N93 C97 1.389 . S
N94 C95 1.358 . S
N94 C96 1.400 . S
C95 N93 1.263 . S
C95 N94 1.358 . S
C95 H101 0.930 . S
C96 N94 1.400 . S
C96 C97 1.351 . S
C96 H113 0.930 . S
C97 N93 1.389 . S
C97 C96 1.351 . S
C97 H102 0.930 . S
O98 Cu92 1.974 . S
O98 C108 1.282 . S
C99 O100 1.261 . S
C99 O112 1.251 . S
O100 C99 1.261 . S
H101 C95 0.930 . S
H102 C97 0.930 . S
N103 Cu92 1.985 1_565 S
N103 C105 1.335 . S
N103 C106 1.390 . S
N104 C105 1.345 . S
N104 C107 1.336 . S
C105 N103 1.335 . S
C105 N104 1.345 . S
C105 H110 0.930 . S
C106 N103 1.390 . S
C106 C107 1.346 . S
C106 H111 0.930 . S
C107 N104 1.336 . S
C107 C106 1.346 . S
C107 H114 0.929 . S
C108 O98 1.282 . S
C108 O109 1.216 . S
O109 C108 1.216 . S
H110 C105 0.930 . S
H111 C106 0.930 . S
O112 Cu92 1.959 1_566 S
O112 C99 1.251 . S
H113 C96 0.930 . S
H114 C107 0.929 . S
Cu115 N116 1.999 1_454 S
Cu115 O121 1.974 1_455 S
Cu115 N126 1.985 . S
Cu115 O135 1.959 1_554 S
N116 Cu115 1.999 1_656 S
N116 C118 1.263 . S
N116 C120 1.389 . S
N117 C118 1.358 . S
N117 C119 1.400 . S
C118 N116 1.263 . S
C118 N117 1.358 . S
C118 H124 0.930 . S
C119 N117 1.400 . S
C119 C120 1.351 . S
C119 H136 0.930 . S
C120 N116 1.389 . S
C120 C119 1.351 . S
C120 H125 0.930 1_655 S
O121 Cu115 1.974 1_655 S
O121 C131 1.282 . S
C122 O123 1.261 . S
C122 O135 1.251 . S
O123 C122 1.261 . S
H124 C118 0.930 . S
H125 C120 0.930 1_455 S
N126 Cu115 1.985 . S
N126 C128 1.335 . S
N126 C129 1.390 . S
N127 C128 1.345 . S
N127 C130 1.336 . S
C128 N126 1.335 . S
C128 N127 1.345 . S
C128 H133 0.930 . S
C129 N126 1.390 . S
C129 C130 1.346 . S
C129 H134 0.930 . S
C130 N127 1.336 . S
C130 C129 1.346 . S
C130 H137 0.929 . S
C131 O121 1.282 . S
C131 O132 1.216 . S
O132 C131 1.216 . S
H133 C128 0.930 . S
H134 C129 0.930 . S
O135 Cu115 1.959 1_556 S
O135 C122 1.251 . S
H136 C119 0.930 . S
H137 C130 0.929 . S
Cu138 N139 1.999 . S
Cu138 O144 1.974 . S
Cu138 N149 1.985 . S
Cu138 O158 1.959 . S
N139 Cu138 1.999 . S
N139 C141 1.263 . S
N139 C143 1.389 . S
N140 C141 1.358 . S
N140 C142 1.400 . S
C141 N139 1.263 . S
C141 N140 1.358 . S
C141 H147 0.930 . S
C142 N140 1.400 . S
C142 C143 1.351 . S
C142 H159 0.930 . S
C143 N139 1.389 . S
C143 C142 1.351 . S
C143 H148 0.930 . S
O144 Cu138 1.974 . S
O144 C154 1.282 . S
C145 O146 1.261 . S
C145 O158 1.251 . S
O146 C145 1.261 . S
H147 C141 0.930 . S
H148 C143 0.930 . S
N149 Cu138 1.985 . S
N149 C151 1.335 . S
N149 C152 1.390 . S
N150 C151 1.345 . S
N150 C153 1.336 . S
C151 N149 1.335 . S
C151 N150 1.345 . S
C151 H156 0.930 . S
C152 N149 1.390 . S
C152 C153 1.346 . S
C152 H157 0.930 . S
C153 N150 1.336 . S
C153 C152 1.346 . S
C153 H160 0.929 . S
C154 O144 1.282 . S
C154 O155 1.216 . S
O155 C154 1.216 . S
H156 C151 0.930 . S
H157 C152 0.930 . S
O158 Cu138 1.959 . S
O158 C145 1.251 . S
H159 C142 0.930 . S
H160 C153 0.929 . S
Cu161 N162 1.999 . S
Cu161 O167 1.974 . S
Cu161 N172 1.985 . S
Cu161 O181 1.959 . S
N162 Cu161 1.999 . S
N162 C164 1.263 . S
N162 C166 1.389 . S
N163 C164 1.358 . S
N163 C165 1.400 . S
C164 N162 1.263 . S
C164 N163 1.358 . S
C164 H170 0.930 . S
C165 N163 1.400 . S
C165 C166 1.351 . S
C165 H182 0.930 . S
C166 N162 1.389 . S
C166 C165 1.351 . S
C166 H171 0.930 . S
O167 Cu161 1.974 . S
O167 C177 1.282 . S
C168 O169 1.261 . S
C168 O181 1.251 . S
O169 C168 1.261 . S
H170 C164 0.930 . S
H171 C166 0.930 . S
N172 Cu161 1.985 . S
N172 C174 1.335 . S
N172 C175 1.390 . S
N173 C174 1.345 . S
N173 C176 1.336 . S
C174 N172 1.335 . S
C174 N173 1.345 . S
C174 H179 0.930 . S
C175 N172 1.390 . S
C175 C176 1.346 . S
C175 H180 0.930 . S
C176 N173 1.336 . S
C176 C175 1.346 . S
C176 H183 0.929 . S
C177 O167 1.282 . S
C177 O178 1.216 . S
O178 C177 1.216 . S
H179 C174 0.930 . S
H180 C175 0.930 . S
O181 Cu161 1.959 . S
O181 C168 1.251 . S
H182 C165 0.930 . S
H183 C176 0.929 . S
Cu184 N185 1.999 . S
Cu184 O190 1.974 . S
Cu184 N195 1.985 . S
Cu184 O204 1.959 . S
N185 Cu184 1.999 . S
N185 C187 1.263 . S
N185 C189 1.389 . S
N186 C187 1.358 . S
N186 C188 1.400 . S
C187 N185 1.263 . S
C187 N186 1.358 . S
C187 H193 0.930 . S
C188 N186 1.400 . S
C188 C189 1.351 . S
C188 H205 0.930 . S
C189 N185 1.389 . S
C189 C188 1.351 . S
C189 H194 0.930 . S
O190 Cu184 1.974 . S
O190 C200 1.282 . S
C191 O192 1.261 . S
C191 O204 1.251 . S
O192 C191 1.261 . S
H193 C187 0.930 . S
H194 C189 0.930 . S
N195 Cu184 1.985 . S
N195 C197 1.335 . S
N195 C198 1.390 . S
N196 C197 1.345 . S
N196 C199 1.336 . S
C197 N195 1.335 . S
C197 N196 1.345 . S
C197 H202 0.930 . S
C198 N195 1.390 . S
C198 C199 1.346 . S
C198 H203 0.930 . S
C199 N196 1.336 . S
C199 C198 1.346 . S
C199 H206 0.929 . S
C200 O190 1.282 . S
C200 O201 1.216 . S
O201 C200 1.216 . S
H202 C197 0.930 . S
H203 C198 0.930 . S
O204 Cu184 1.959 . S
O204 C191 1.251 . S
H205 C188 0.930 . S
H206 C199 0.929 . S
Cu207 N208 1.999 . S
Cu207 O213 1.974 . S
Cu207 N218 1.985 . S
Cu207 O227 1.959 . S
N208 Cu207 1.999 . S
N208 C210 1.263 . S
N208 C212 1.389 . S
N209 C210 1.358 . S
N209 C211 1.400 . S
C210 N208 1.263 . S
C210 N209 1.358 . S
C210 H216 0.930 . S
C211 N209 1.400 . S
C211 C212 1.351 . S
C211 H228 0.930 . S
C212 N208 1.389 . S
C212 C211 1.351 . S
C212 H217 0.930 . S
O213 Cu207 1.974 . S
O213 C223 1.282 . S
C214 O215 1.261 . S
C214 O227 1.251 . S
O215 C214 1.261 . S
H216 C210 0.930 . S
H217 C212 0.930 . S
N218 Cu207 1.985 . S
N218 C220 1.335 . S
N218 C221 1.390 . S
N219 C220 1.345 . S
N219 C222 1.336 . S
C220 N218 1.335 . S
C220 N219 1.345 . S
C220 H225 0.930 . S
C221 N218 1.390 . S
C221 C222 1.346 . S
C221 H226 0.930 . S
C222 N219 1.336 . S
C222 C221 1.346 . S
C222 H229 0.929 . S
C223 O213 1.282 . S
C223 O224 1.216 . S
O224 C223 1.216 . S
H225 C220 0.930 . S
H226 C221 0.930 . S
O227 Cu207 1.959 . S
O227 C214 1.251 . S
H228 C211 0.930 . S
H229 C222 0.929 . S
Cu230 N231 1.999 . S
Cu230 O236 1.974 . S
Cu230 N241 1.985 . S
Cu230 O250 1.959 . S
N231 Cu230 1.999 . S
N231 C233 1.263 . S
N231 C235 1.389 . S
N232 C233 1.358 . S
N232 C234 1.400 . S
C233 N231 1.263 . S
C233 N232 1.358 . S
C233 H239 0.930 . S
C234 N232 1.400 . S
C234 C235 1.351 . S
C234 H251 0.930 . S
C235 N231 1.389 . S
C235 C234 1.351 . S
C235 H240 0.930 . S
O236 Cu230 1.974 . S
O236 C246 1.282 . S
C237 O238 1.261 . S
C237 O250 1.251 . S
O238 C237 1.261 . S
H239 C233 0.930 . S
H240 C235 0.930 . S
N241 Cu230 1.985 . S
N241 C243 1.335 . S
N241 C244 1.390 . S
N242 C243 1.345 . S
N242 C245 1.336 . S
C243 N241 1.335 . S
C243 N242 1.345 . S
C243 H248 0.930 . S
C244 N241 1.390 . S
C244 C245 1.346 . S
C244 H249 0.930 . S
C245 N242 1.336 . S
C245 C244 1.346 . S
C245 H252 0.929 . S
C246 O236 1.282 . S
C246 O247 1.216 . S
O247 C246 1.216 . S
H248 C243 0.930 . S
H249 C244 0.930 . S
O250 Cu230 1.959 . S
O250 C237 1.251 . S
H251 C234 0.930 . S
H252 C245 0.929 . S
Cu253 N254 1.999 . S
Cu253 O259 1.974 . S
Cu253 N264 1.985 . S
Cu253 O273 1.959 . S
N254 Cu253 1.999 . S
N254 C256 1.263 . S
N254 C258 1.389 . S
N255 C256 1.358 . S
N255 C257 1.400 . S
C256 N254 1.263 . S
C256 N255 1.358 . S
C256 H262 0.930 . S
C257 N255 1.400 . S
C257 C258 1.351 . S
C257 H274 0.930 . S
C258 N254 1.389 . S
C258 C257 1.351 . S
C258 H263 0.930 . S
O259 Cu253 1.974 . S
O259 C269 1.282 . S
C260 O261 1.261 . S
C260 O273 1.251 . S
O261 C260 1.261 . S
H262 C256 0.930 . S
H263 C258 0.930 . S
N264 Cu253 1.985 . S
N264 C266 1.335 . S
N264 C267 1.390 . S
N265 C266 1.345 . S
N265 C268 1.336 . S
C266 N264 1.335 . S
C266 N265 1.345 . S
C266 H271 0.930 . S
C267 N264 1.390 . S
C267 C268 1.346 . S
C267 H272 0.930 . S
C268 N265 1.336 . S
C268 C267 1.346 . S
C268 H275 0.929 . S
C269 O259 1.282 . S
C269 O270 1.216 . S
O270 C269 1.216 . S
H271 C266 0.930 . S
H272 C267 0.930 . S
O273 Cu253 1.959 . S
O273 C260 1.251 . S
H274 C257 0.930 . S
H275 C268 0.929 . S
Tb276 C285 2.764 . S
Tb276 O286 2.325 . S
Tb276 O289 2.303 . S
Tb276 O293 2.322 . S
Tb276 O294 2.349 . S
Tb276 O297 2.415 . S
Tb276 O298 2.399 . S
Tb277 O287 2.322 . S
Tb277 O288 2.349 . S
Tb277 O290 2.415 . S
Tb277 O291 2.399 . S
Tb277 O292 2.325 . S
Tb277 O295 2.303 . S
Tb277 C306 2.764 . S
C278 O294 1.261 . S
C278 O295 1.257 . S
C279 C282 1.358 . S
C279 C283 1.332 . S
C279 C285 1.504 . S
C280 C281 1.373 . S
C280 C284 1.308 . S
C281 C280 1.373 . S
C281 C282 1.429 . S
C281 H308 0.932 . S
C282 C279 1.358 . S
C282 C281 1.429 . S
C282 H309 0.930 . S
C283 C279 1.332 . S
C283 C284 1.394 . S
C283 H310 0.932 . S
C284 C280 1.308 . S
C284 C283 1.394 . S
C284 H311 0.929 . S
C285 Tb276 2.764 . S
C285 C279 1.504 . S
C285 O297 1.239 . S
C285 O298 1.263 . S
O286 Tb276 2.325 . S
O286 C296 1.236 . S
O287 Tb277 2.322 . S
O287 C296 1.257 . S
O288 Tb277 2.349 . S
O288 C299 1.261 . S
O289 Tb276 2.303 . S
O289 C299 1.257 . S
O290 Tb277 2.415 . S
O290 C306 1.239 . S
O291 Tb277 2.399 . S
O291 C306 1.263 . S
O292 Tb277 2.325 . S
O292 C307 1.236 . S
O293 Tb276 2.322 . S
O293 C307 1.257 . S
O294 Tb276 2.349 . S
O294 C278 1.261 . S
O295 Tb277 2.303 . S
O295 C278 1.257 . S
C296 O286 1.236 . S
C296 O287 1.257 . S
O297 Tb276 2.415 . S
O297 C285 1.239 . S
O298 Tb276 2.399 . S
O298 C285 1.263 . S
C299 O288 1.261 . S
C299 O289 1.257 . S
C300 C303 1.358 . S
C300 C304 1.332 . S
C300 C306 1.504 . S
C301 C302 1.373 . S
C301 C305 1.308 . S
C302 C301 1.373 . S
C302 C303 1.429 . S
C302 H312 0.932 . S
C303 C300 1.358 . S
C303 C302 1.429 . S
C303 H313 0.930 . S
C304 C300 1.332 . S
C304 C305 1.394 . S
C304 H314 0.932 . S
C305 C301 1.308 . S
C305 C304 1.394 . S
C305 H315 0.929 . S
C306 Tb277 2.764 . S
C306 O290 1.239 . S
C306 O291 1.263 . S
C306 C300 1.504 . S
C307 O292 1.236 . S
C307 O293 1.257 . S
H308 C281 0.932 . S
H309 C282 0.930 . S
H310 C283 0.932 . S
H311 C284 0.929 . S
H312 C302 0.932 . S
H313 C303 0.930 . S
H314 C304 0.932 . S
H315 C305 0.929 . S
Tb316 C325 2.764 . S
Tb316 O326 2.325 . S
Tb316 O329 2.303 . S
Tb316 O333 2.322 . S
Tb316 O334 2.349 . S
Tb316 O337 2.415 . S
Tb316 O338 2.399 . S
Tb317 O327 2.322 . S
Tb317 O328 2.349 . S
Tb317 O330 2.415 . S
Tb317 O331 2.399 . S
Tb317 O332 2.325 . S
Tb317 O335 2.303 . S
Tb317 C346 2.764 . S
C318 O334 1.261 . S
C318 O335 1.257 . S
C319 C322 1.358 . S
C319 C323 1.332 . S
C319 C325 1.504 . S
C320 C321 1.373 . S
C320 C324 1.308 . S
C321 C320 1.373 . S
C321 C322 1.429 . S
C321 H348 0.932 . S
C322 C319 1.358 . S
C322 C321 1.429 . S
C322 H349 0.930 . S
C323 C319 1.332 . S
C323 C324 1.394 . S
C323 H350 0.932 . S
C324 C320 1.308 . S
C324 C323 1.394 . S
C324 H351 0.929 . S
C325 Tb316 2.764 . S
C325 C319 1.504 . S
C325 O337 1.239 . S
C325 O338 1.263 . S
O326 Tb316 2.325 . S
O326 C336 1.236 . S
O327 Tb317 2.322 . S
O327 C336 1.257 . S
O328 Tb317 2.349 . S
O328 C339 1.261 . S
O329 Tb316 2.303 . S
O329 C339 1.257 . S
O330 Tb317 2.415 . S
O330 C346 1.239 . S
O331 Tb317 2.399 . S
O331 C346 1.263 . S
O332 Tb317 2.325 . S
O332 C347 1.236 . S
O333 Tb316 2.322 . S
O333 C347 1.257 . S
O334 Tb316 2.349 . S
O334 C318 1.261 . S
O335 Tb317 2.303 . S
O335 C318 1.257 . S
C336 O326 1.236 . S
C336 O327 1.257 . S
O337 Tb316 2.415 . S
O337 C325 1.239 . S
O338 Tb316 2.399 . S
O338 C325 1.263 . S
C339 O328 1.261 . S
C339 O329 1.257 . S
C340 C343 1.358 . S
C340 C344 1.332 . S
C340 C346 1.504 . S
C341 C342 1.373 . S
C341 C345 1.308 . S
C342 C341 1.373 . S
C342 C343 1.429 . S
C342 H352 0.932 . S
C343 C340 1.358 . S
C343 C342 1.429 . S
C343 H353 0.930 . S
C344 C340 1.332 . S
C344 C345 1.394 . S
C344 H354 0.932 . S
C345 C341 1.308 . S
C345 C344 1.394 . S
C345 H355 0.929 . S
C346 Tb317 2.764 . S
C346 O330 1.239 . S
C346 O331 1.263 . S
C346 C340 1.504 . S
C347 O332 1.236 . S
C347 O333 1.257 . S
H348 C321 0.932 . S
H349 C322 0.930 . S
H350 C323 0.932 . S
H351 C324 0.929 . S
H352 C342 0.932 . S
H353 C343 0.930 . S
H354 C344 0.932 . S
H355 C345 0.929 . S
Tb356 C365 2.764 . S
Tb356 O366 2.325 . S
Tb356 O369 2.303 . S
Tb356 O373 2.322 . S
Tb356 O374 2.349 . S
Tb356 O377 2.415 . S
Tb356 O378 2.399 . S
Tb357 O367 2.322 . S
Tb357 O368 2.349 . S
Tb357 O370 2.415 . S
Tb357 O371 2.399 . S
Tb357 O372 2.325 . S
Tb357 O375 2.303 . S
Tb357 C386 2.764 . S
C358 O374 1.261 . S
C358 O375 1.257 . S
C359 C362 1.358 . S
C359 C363 1.332 . S
C359 C365 1.504 . S
C360 C361 1.373 . S
C360 C364 1.308 . S
C361 C360 1.373 . S
C361 C362 1.429 . S
C361 H388 0.932 . S
C362 C359 1.358 . S
C362 C361 1.429 . S
C362 H389 0.930 . S
C363 C359 1.332 . S
C363 C364 1.394 . S
C363 H390 0.932 . S
C364 C360 1.308 . S
C364 C363 1.394 . S
C364 H391 0.929 . S
C365 Tb356 2.764 . S
C365 C359 1.504 . S
C365 O377 1.239 . S
C365 O378 1.263 . S
O366 Tb356 2.325 . S
O366 C376 1.236 . S
O367 Tb357 2.322 . S
O367 C376 1.257 . S
O368 Tb357 2.349 . S
O368 C379 1.261 . S
O369 Tb356 2.303 . S
O369 C379 1.257 . S
O370 Tb357 2.415 . S
O370 C386 1.239 . S
O371 Tb357 2.399 . S
O371 C386 1.263 . S
O372 Tb357 2.325 . S
O372 C387 1.236 . S
O373 Tb356 2.322 . S
O373 C387 1.257 . S
O374 Tb356 2.349 . S
O374 C358 1.261 . S
O375 Tb357 2.303 . S
O375 C358 1.257 . S
C376 O366 1.236 . S
C376 O367 1.257 . S
O377 Tb356 2.415 . S
O377 C365 1.239 . S
O378 Tb356 2.399 . S
O378 C365 1.263 . S
C379 O368 1.261 . S
C379 O369 1.257 . S
C380 C383 1.358 . S
C380 C384 1.332 . S
C380 C386 1.504 . S
C381 C382 1.373 . S
C381 C385 1.308 . S
C382 C381 1.373 . S
C382 C383 1.429 . S
C382 H392 0.932 . S
C383 C380 1.358 . S
C383 C382 1.429 . S
C383 H393 0.930 . S
C384 C380 1.332 . S
C384 C385 1.394 . S
C384 H394 0.932 . S
C385 C381 1.308 . S
C385 C384 1.394 . S
C385 H395 0.929 . S
C386 Tb357 2.764 . S
C386 O370 1.239 . S
C386 O371 1.263 . S
C386 C380 1.504 . S
C387 O372 1.236 . S
C387 O373 1.257 . S
H388 C361 0.932 . S
H389 C362 0.930 . S
H390 C363 0.932 . S
H391 C364 0.929 . S
H392 C382 0.932 . S
H393 C383 0.930 . S
H394 C384 0.932 . S
H395 C385 0.929 . S
Tb396 C405 2.764 . S
Tb396 O406 2.325 . S
Tb396 O409 2.303 . S
Tb396 O413 2.322 . S
Tb396 O414 2.349 . S
Tb396 O417 2.415 . S
Tb396 O418 2.399 . S
Tb397 O407 2.322 . S
Tb397 O408 2.349 . S
Tb397 O410 2.415 . S
Tb397 O411 2.399 . S
Tb397 O412 2.325 . S
Tb397 O415 2.303 . S
Tb397 C426 2.764 . S
C398 O414 1.261 . S
C398 O415 1.257 . S
C399 C402 1.358 . S
C399 C403 1.332 . S
C399 C405 1.504 . S
C400 C401 1.373 . S
C400 C404 1.308 . S
C401 C400 1.373 . S
C401 C402 1.429 . S
C401 H428 0.932 . S
C402 C399 1.358 . S
C402 C401 1.429 . S
C402 H429 0.930 . S
C403 C399 1.332 . S
C403 C404 1.394 . S
C403 H430 0.932 . S
C404 C400 1.308 . S
C404 C403 1.394 . S
C404 H431 0.929 . S
C405 Tb396 2.764 . S
C405 C399 1.504 . S
C405 O417 1.239 . S
C405 O418 1.263 . S
O406 Tb396 2.325 . S
O406 C416 1.236 . S
O407 Tb397 2.322 . S
O407 C416 1.257 . S
O408 Tb397 2.349 . S
O408 C419 1.261 . S
O409 Tb396 2.303 . S
O409 C419 1.257 . S
O410 Tb397 2.415 . S
O410 C426 1.239 . S
O411 Tb397 2.399 . S
O411 C426 1.263 . S
O412 Tb397 2.325 . S
O412 C427 1.236 . S
O413 Tb396 2.322 . S
O413 C427 1.257 . S
O414 Tb396 2.349 . S
O414 C398 1.261 . S
O415 Tb397 2.303 . S
O415 C398 1.257 . S
C416 O406 1.236 . S
C416 O407 1.257 . S
O417 Tb396 2.415 . S
O417 C405 1.239 . S
O418 Tb396 2.399 . S
O418 C405 1.263 . S
C419 O408 1.261 . S
C419 O409 1.257 . S
C420 C423 1.358 . S
C420 C424 1.332 . S
C420 C426 1.504 . S
C421 C422 1.373 . S
C421 C425 1.308 . S
C422 C421 1.373 . S
C422 C423 1.429 . S
C422 H432 0.932 . S
C423 C420 1.358 . S
C423 C422 1.429 . S
C423 H433 0.930 . S
C424 C420 1.332 . S
C424 C425 1.394 . S
C424 H434 0.932 . S
C425 C421 1.308 . S
C425 C424 1.394 . S
C425 H435 0.929 . S
C426 Tb397 2.764 . S
C426 O410 1.239 . S
C426 O411 1.263 . S
C426 C420 1.504 . S
C427 O412 1.236 . S
C427 O413 1.257 . S
H428 C401 0.932 . S
H429 C402 0.930 . S
H430 C403 0.932 . S
H431 C404 0.929 . S
H432 C422 0.932 . S
H433 C423 0.930 . S
H434 C424 0.932 . S
H435 C425 0.929 . S
Tb436 C445 2.764 . S
Tb436 O446 2.325 . S
Tb436 O449 2.303 . S
Tb436 O453 2.322 . S
Tb436 O454 2.349 . S
Tb436 O457 2.415 . S
Tb436 O458 2.399 . S
Tb437 O447 2.322 . S
Tb437 O448 2.349 . S
Tb437 O450 2.415 . S
Tb437 O451 2.399 . S
Tb437 O452 2.325 . S
Tb437 O455 2.303 . S
Tb437 C466 2.764 . S
C438 O454 1.261 . S
C438 O455 1.257 . S
C439 C442 1.358 . S
C439 C443 1.332 . S
C439 C445 1.504 . S
C440 C441 1.373 . S
C440 C444 1.308 . S
C441 C440 1.373 . S
C441 C442 1.429 . S
C441 H468 0.932 . S
C442 C439 1.358 . S
C442 C441 1.429 . S
C442 H469 0.930 . S
C443 C439 1.332 . S
C443 C444 1.394 . S
C443 H470 0.932 . S
C444 C440 1.308 . S
C444 C443 1.394 . S
C444 H471 0.929 . S
C445 Tb436 2.764 . S
C445 C439 1.504 . S
C445 O457 1.239 . S
C445 O458 1.263 . S
O446 Tb436 2.325 . S
O446 C456 1.236 . S
O447 Tb437 2.322 . S
O447 C456 1.257 . S
O448 Tb437 2.349 . S
O448 C459 1.261 . S
O449 Tb436 2.303 . S
O449 C459 1.257 . S
O450 Tb437 2.415 . S
O450 C466 1.239 . S
O451 Tb437 2.399 . S
O451 C466 1.263 . S
O452 Tb437 2.325 . S
O452 C467 1.236 . S
O453 Tb436 2.322 . S
O453 C467 1.257 . S
O454 Tb436 2.349 . S
O454 C438 1.261 . S
O455 Tb437 2.303 . S
O455 C438 1.257 . S
C456 O446 1.236 . S
C456 O447 1.257 . S
O457 Tb436 2.415 . S
O457 C445 1.239 . S
O458 Tb436 2.399 . S
O458 C445 1.263 . S
C459 O448 1.261 . S
C459 O449 1.257 . S
C460 C463 1.358 . S
C460 C464 1.332 . S
C460 C466 1.504 . S
C461 C462 1.373 . S
C461 C465 1.308 . S
C462 C461 1.373 . S
C462 C463 1.429 . S
C462 H472 0.932 . S
C463 C460 1.358 . S
C463 C462 1.429 . S
C463 H473 0.930 . S
C464 C460 1.332 . S
C464 C465 1.394 . S
C464 H474 0.932 . S
C465 C461 1.308 . S
C465 C464 1.394 . S
C465 H475 0.929 . S
C466 Tb437 2.764 . S
C466 O450 1.239 . S
C466 O451 1.263 . S
C466 C460 1.504 . S
C467 O452 1.236 . S
C467 O453 1.257 . S
H468 C441 0.932 . S
H469 C442 0.930 . S
H470 C443 0.932 . S
H471 C444 0.929 . S
H472 C462 0.932 . S
H473 C463 0.930 . S
H474 C464 0.932 . S
H475 C465 0.929 . S
Tb476 C485 2.764 . S
Tb476 O486 2.325 . S
Tb476 O489 2.303 . S
Tb476 O493 2.322 . S
Tb476 O494 2.349 . S
Tb476 O497 2.415 . S
Tb476 O498 2.399 . S
Tb477 O487 2.322 . S
Tb477 O488 2.349 . S
Tb477 O490 2.415 . S
Tb477 O491 2.399 . S
Tb477 O492 2.325 . S
Tb477 O495 2.303 . S
Tb477 C506 2.764 . S
C478 O494 1.261 . S
C478 O495 1.257 . S
C479 C482 1.358 . S
C479 C483 1.332 . S
C479 C485 1.504 . S
C480 C481 1.373 . S
C480 C484 1.308 . S
C481 C480 1.373 . S
C481 C482 1.429 . S
C481 H508 0.932 . S
C482 C479 1.358 . S
C482 C481 1.429 . S
C482 H509 0.930 . S
C483 C479 1.332 . S
C483 C484 1.394 . S
C483 H510 0.932 . S
C484 C480 1.308 . S
C484 C483 1.394 . S
C484 H511 0.929 . S
C485 Tb476 2.764 . S
C485 C479 1.504 . S
C485 O497 1.239 . S
C485 O498 1.263 . S
O486 Tb476 2.325 . S
O486 C496 1.236 . S
O487 Tb477 2.322 . S
O487 C496 1.257 . S
O488 Tb477 2.349 . S
O488 C499 1.261 . S
O489 Tb476 2.303 . S
O489 C499 1.257 . S
O490 Tb477 2.415 . S
O490 C506 1.239 . S
O491 Tb477 2.399 . S
O491 C506 1.263 . S
O492 Tb477 2.325 . S
O492 C507 1.236 . S
O493 Tb476 2.322 . S
O493 C507 1.257 . S
O494 Tb476 2.349 . S
O494 C478 1.261 . S
O495 Tb477 2.303 . S
O495 C478 1.257 . S
C496 O486 1.236 . S
C496 O487 1.257 . S
O497 Tb476 2.415 . S
O497 C485 1.239 . S
O498 Tb476 2.399 . S
O498 C485 1.263 . S
C499 O488 1.261 . S
C499 O489 1.257 . S
C500 C503 1.358 . S
C500 C504 1.332 . S
C500 C506 1.504 . S
C501 C502 1.373 . S
C501 C505 1.308 . S
C502 C501 1.373 . S
C502 C503 1.429 . S
C502 H512 0.932 . S
C503 C500 1.358 . S
C503 C502 1.429 . S
C503 H513 0.930 . S
C504 C500 1.332 . S
C504 C505 1.394 . S
C504 H514 0.932 . S
C505 C501 1.308 . S
C505 C504 1.394 . S
C505 H515 0.929 . S
C506 Tb477 2.764 . S
C506 O490 1.239 . S
C506 O491 1.263 . S
C506 C500 1.504 . S
C507 O492 1.236 . S
C507 O493 1.257 . S
H508 C481 0.932 . S
H509 C482 0.930 . S
H510 C483 0.932 . S
H511 C484 0.929 . S
H512 C502 0.932 . S
H513 C503 0.930 . S
H514 C504 0.932 . S
H515 C505 0.929 . S
Tb516 C525 2.764 . S
Tb516 O526 2.325 . S
Tb516 O529 2.303 . S
Tb516 O533 2.322 . S
Tb516 O534 2.349 . S
Tb516 O537 2.415 . S
Tb516 O538 2.399 . S
Tb517 O527 2.322 . S
Tb517 O528 2.349 . S
Tb517 O530 2.415 . S
Tb517 O531 2.399 . S
Tb517 O532 2.325 . S
Tb517 O535 2.303 . S
Tb517 C546 2.764 . S
C518 O534 1.261 . S
C518 O535 1.257 . S
C519 C522 1.358 . S
C519 C523 1.332 . S
C519 C525 1.504 . S
C520 C521 1.373 . S
C520 C524 1.308 . S
C521 C520 1.373 . S
C521 C522 1.429 . S
C521 H548 0.932 . S
C522 C519 1.358 . S
C522 C521 1.429 . S
C522 H549 0.930 . S
C523 C519 1.332 . S
C523 C524 1.394 . S
C523 H550 0.932 . S
C524 C520 1.308 . S
C524 C523 1.394 . S
C524 H551 0.929 . S
C525 Tb516 2.764 . S
C525 C519 1.504 . S
C525 O537 1.239 . S
C525 O538 1.263 . S
O526 Tb516 2.325 . S
O526 C536 1.236 . S
O527 Tb517 2.322 . S
O527 C536 1.257 . S
O528 Tb517 2.349 . S
O528 C539 1.261 . S
O529 Tb516 2.303 . S
O529 C539 1.257 . S
O530 Tb517 2.415 . S
O530 C546 1.239 . S
O531 Tb517 2.399 . S
O531 C546 1.263 . S
O532 Tb517 2.325 . S
O532 C547 1.236 . S
O533 Tb516 2.322 . S
O533 C547 1.257 . S
O534 Tb516 2.349 . S
O534 C518 1.261 . S
O535 Tb517 2.303 . S
O535 C518 1.257 . S
C536 O526 1.236 . S
C536 O527 1.257 . S
O537 Tb516 2.415 . S
O537 C525 1.239 . S
O538 Tb516 2.399 . S
O538 C525 1.263 . S
C539 O528 1.261 . S
C539 O529 1.257 . S
C540 C543 1.358 . S
C540 C544 1.332 . S
C540 C546 1.504 . S
C541 C542 1.373 . S
C541 C545 1.308 . S
C542 C541 1.373 . S
C542 C543 1.429 . S
C542 H552 0.932 . S
C543 C540 1.358 . S
C543 C542 1.429 . S
C543 H553 0.930 . S
C544 C540 1.332 . S
C544 C545 1.394 . S
C544 H554 0.932 . S
C545 C541 1.308 . S
C545 C544 1.394 . S
C545 H555 0.929 . S
C546 Tb517 2.764 . S
C546 O530 1.239 . S
C546 O531 1.263 . S
C546 C540 1.504 . S
C547 O532 1.236 . S
C547 O533 1.257 . S
H548 C521 0.932 . S
H549 C522 0.930 . S
H550 C523 0.932 . S
H551 C524 0.929 . S
H552 C542 0.932 . S
H553 C543 0.930 . S
H554 C544 0.932 . S
H555 C545 0.929 . S
Tb556 C565 2.764 . S
Tb556 O566 2.325 . S
Tb556 O569 2.303 . S
Tb556 O573 2.322 . S
Tb556 O574 2.349 . S
Tb556 O577 2.415 . S
Tb556 O578 2.399 . S
Tb557 O567 2.322 . S
Tb557 O568 2.349 . S
Tb557 O570 2.415 . S
Tb557 O571 2.399 . S
Tb557 O572 2.325 . S
Tb557 O575 2.303 . S
Tb557 C586 2.764 . S
C558 O574 1.261 . S
C558 O575 1.257 . S
C559 C562 1.358 . S
C559 C563 1.332 . S
C559 C565 1.504 . S
C560 C561 1.373 . S
C560 C564 1.308 . S
C561 C560 1.373 . S
C561 C562 1.429 . S
C561 H588 0.932 . S
C562 C559 1.358 . S
C562 C561 1.429 . S
C562 H589 0.930 . S
C563 C559 1.332 . S
C563 C564 1.394 . S
C563 H590 0.932 . S
C564 C560 1.308 . S
C564 C563 1.394 . S
C564 H591 0.929 . S
C565 Tb556 2.764 . S
C565 C559 1.504 . S
C565 O577 1.239 . S
C565 O578 1.263 . S
O566 Tb556 2.325 . S
O566 C576 1.236 . S
O567 Tb557 2.322 . S
O567 C576 1.257 . S
O568 Tb557 2.349 . S
O568 C579 1.261 . S
O569 Tb556 2.303 . S
O569 C579 1.257 . S
O570 Tb557 2.415 . S
O570 C586 1.239 . S
O571 Tb557 2.399 . S
O571 C586 1.263 . S
O572 Tb557 2.325 . S
O572 C587 1.236 . S
O573 Tb556 2.322 . S
O573 C587 1.257 . S
O574 Tb556 2.349 . S
O574 C558 1.261 . S
O575 Tb557 2.303 . S
O575 C558 1.257 . S
C576 O566 1.236 . S
C576 O567 1.257 . S
O577 Tb556 2.415 . S
O577 C565 1.239 . S
O578 Tb556 2.399 . S
O578 C565 1.263 . S
C579 O568 1.261 . S
C579 O569 1.257 . S
C580 C583 1.358 . S
C580 C584 1.332 . S
C580 C586 1.504 . S
C581 C582 1.373 . S
C581 C585 1.308 . S
C582 C581 1.373 . S
C582 C583 1.429 . S
C582 H592 0.932 . S
C583 C580 1.358 . S
C583 C582 1.429 . S
C583 H593 0.930 . S
C584 C580 1.332 . S
C584 C585 1.394 . S
C584 H594 0.932 . S
C585 C581 1.308 . S
C585 C584 1.394 . S
C585 H595 0.929 . S
C586 Tb557 2.764 . S
C586 O570 1.239 . S
C586 O571 1.263 . S
C586 C580 1.504 . S
C587 O572 1.236 . S
C587 O573 1.257 . S
H588 C561 0.932 . S
H589 C562 0.930 . S
H590 C563 0.932 . S
H591 C564 0.929 . S
H592 C582 0.932 . S
H593 C583 0.930 . S
H594 C584 0.932 . S
H595 C585 0.929 . S
H596 C604 0.950 . S
H597 C609 0.950 . S
H598 C606 0.950 . S
H599 C608 0.950 . S
H600 C610 0.950 . S
H601 C612 0.950 . S
H602 C614 0.950 . S
H603 C615 0.950 . S
C604 H596 0.950 . S
C604 C605 1.386 . S
C604 C606 1.391 . S
C605 C604 1.386 . S
C605 C609 1.393 . S
C606 H598 0.950 . S
C606 C604 1.391 . S
C606 C607 1.400 . S
C607 C606 1.400 . S
C607 C608 1.398 . S
C607 C613 1.491 . S
C608 H599 0.950 . S
C608 C607 1.398 . S
C608 C609 1.391 . S
C609 H597 0.950 . S
C609 C605 1.393 . S
C609 C608 1.391 . S
C610 H600 0.950 . S
C610 C611 1.386 . S
C610 C612 1.391 . S
C611 C610 1.386 . S
C611 C615 1.393 . S
C612 H601 0.950 . S
C612 C610 1.391 . S
C612 C613 1.400 . S
C613 C607 1.491 . S
C613 C612 1.400 . S
C613 C614 1.398 . S
C614 H602 0.950 . S
C614 C613 1.398 . S
C614 C615 1.391 . S
C615 H603 0.950 . S
C615 C611 1.393 . S
C615 C614 1.391 . S
H616 C624 0.950 . S
H617 C629 0.950 . S
H618 C626 0.950 . S
H619 C628 0.950 . S
H620 C630 0.950 . S
H621 C632 0.950 . S
H622 C634 0.950 . S
H623 C635 0.950 . S
C624 H616 0.950 . S
C624 C625 1.386 . S
C624 C626 1.391 . S
C625 C624 1.386 . S
C625 C629 1.393 . S
C626 H618 0.950 . S
C626 C624 1.391 . S
C626 C627 1.400 . S
C627 C626 1.400 . S
C627 C628 1.398 . S
C627 C633 1.491 . S
C628 H619 0.950 . S
C628 C627 1.398 . S
C628 C629 1.391 . S
C629 H617 0.950 . S
C629 C625 1.393 . S
C629 C628 1.391 . S
C630 H620 0.950 . S
C630 C631 1.386 . S
C630 C632 1.391 . S
C631 C630 1.386 . S
C631 C635 1.393 . S
C632 H621 0.950 . S
C632 C630 1.391 . S
C632 C633 1.400 . S
C633 C627 1.491 . S
C633 C632 1.400 . S
C633 C634 1.398 . S
C634 H622 0.950 . S
C634 C633 1.398 . S
C634 C635 1.391 . S
C635 H623 0.950 . S
C635 C631 1.393 . S
C635 C634 1.391 . S
H636 C644 0.950 . S
H637 C649 0.950 . S
H638 C646 0.950 . S
H639 C648 0.950 . S
H640 C650 0.950 . S
H641 C652 0.950 . S
H642 C654 0.950 . S
H643 C655 0.950 . S
C644 H636 0.950 . S
C644 C645 1.386 . S
C644 C646 1.391 . S
C645 C644 1.386 . S
C645 C649 1.393 . S
C646 H638 0.950 . S
C646 C644 1.391 . S
C646 C647 1.400 . S
C647 C646 1.400 . S
C647 C648 1.398 . S
C647 C653 1.491 . S
C648 H639 0.950 . S
C648 C647 1.398 . S
C648 C649 1.391 . S
C649 H637 0.950 . S
C649 C645 1.393 . S
C649 C648 1.391 . S
C650 H640 0.950 . S
C650 C651 1.386 . S
C650 C652 1.391 . S
C651 C650 1.386 . S
C651 C655 1.393 . S
C652 H641 0.950 . S
C652 C650 1.391 . S
C652 C653 1.400 . S
C653 C647 1.491 . S
C653 C652 1.400 . S
C653 C654 1.398 . S
C654 H642 0.950 . S
C654 C653 1.398 . S
C654 C655 1.391 . S
C655 H643 0.950 . S
C655 C651 1.393 . S
C655 C654 1.391 . S
H656 C664 0.950 . S
H657 C669 0.950 . S
H658 C666 0.950 . S
H659 C668 0.950 . S
H660 C670 0.950 . S
H661 C672 0.950 . S
H662 C674 0.950 . S
H663 C675 0.950 . S
C664 H656 0.950 . S
C664 C665 1.386 . S
C664 C666 1.391 . S
C665 C664 1.386 . S
C665 C669 1.393 . S
C666 H658 0.950 . S
C666 C664 1.391 . S
C666 C667 1.400 . S
C667 C666 1.400 . S
C667 C668 1.398 . S
C667 C673 1.491 . S
C668 H659 0.950 . S
C668 C667 1.398 . S
C668 C669 1.391 . S
C669 H657 0.950 . S
C669 C665 1.393 . S
C669 C668 1.391 . S
C670 H660 0.950 . S
C670 C671 1.386 . S
C670 C672 1.391 . S
C671 C670 1.386 . S
C671 C675 1.393 . S
C672 H661 0.950 . S
C672 C670 1.391 . S
C672 C673 1.400 . S
C673 C667 1.491 . S
C673 C672 1.400 . S
C673 C674 1.398 . S
C674 H662 0.950 . S
C674 C673 1.398 . S
C674 C675 1.391 . S
C675 H663 0.950 . S
C675 C671 1.393 . S
C675 C674 1.391 . S
H676 C684 0.950 . S
H677 C689 0.950 . S
H678 C686 0.950 . S
H679 C688 0.950 . S
H680 C690 0.950 . S
H681 C692 0.950 . S
H682 C694 0.950 . S
H683 C695 0.950 . S
C684 H676 0.950 . S
C684 C685 1.386 . S
C684 C686 1.391 . S
C685 C684 1.386 . S
C685 C689 1.393 . S
C686 H678 0.950 . S
C686 C684 1.391 . S
C686 C687 1.400 . S
C687 C686 1.400 . S
C687 C688 1.398 . S
C687 C693 1.491 . S
C688 H679 0.950 . S
C688 C687 1.398 . S
C688 C689 1.391 . S
C689 H677 0.950 . S
C689 C685 1.393 . S
C689 C688 1.391 . S
C690 H680 0.950 . S
C690 C691 1.386 . S
C690 C692 1.391 . S
C691 C690 1.386 . S
C691 C695 1.393 . S
C692 H681 0.950 . S
C692 C690 1.391 . S
C692 C693 1.400 . S
C693 C687 1.491 . S
C693 C692 1.400 . S
C693 C694 1.398 . S
C694 H682 0.950 . S
C694 C693 1.398 . S
C694 C695 1.391 . S
C695 H683 0.950 . S
C695 C691 1.393 . S
C695 C694 1.391 . S
H696 C704 0.950 . S
H697 C709 0.950 . S
H698 C706 0.950 . S
H699 C708 0.950 . S
H700 C710 0.950 . S
H701 C712 0.950 . S
H702 C714 0.950 . S
H703 C715 0.950 . S
C704 H696 0.950 . S
C704 C705 1.386 . S
C704 C706 1.391 . S
C705 C704 1.386 . S
C705 C709 1.393 . S
C706 H698 0.950 . S
C706 C704 1.391 . S
C706 C707 1.400 . S
C707 C706 1.400 . S
C707 C708 1.398 . S
C707 C713 1.491 . S
C708 H699 0.950 . S
C708 C707 1.398 . S
C708 C709 1.391 . S
C709 H697 0.950 . S
C709 C705 1.393 . S
C709 C708 1.391 . S
C710 H700 0.950 . S
C710 C711 1.386 . S
C710 C712 1.391 . S
C711 C710 1.386 . S
C711 C715 1.393 . S
C712 H701 0.950 . S
C712 C710 1.391 . S
C712 C713 1.400 . S
C713 C707 1.491 . S
C713 C712 1.400 . S
C713 C714 1.398 . S
C714 H702 0.950 . S
C714 C713 1.398 . S
C714 C715 1.391 . S
C715 H703 0.950 . S
C715 C711 1.393 . S
C715 C714 1.391 . S
H716 C724 0.950 . S
H717 C729 0.950 . S
H718 C726 0.950 . S
H719 C728 0.950 . S
H720 C730 0.950 . S
H721 C732 0.950 . S
H722 C734 0.950 . S
H723 C735 0.950 . S
C724 H716 0.950 . S
C724 C725 1.386 . S
C724 C726 1.391 . S
C725 C724 1.386 . S
C725 C729 1.393 . S
C726 H718 0.950 . S
C726 C724 1.391 . S
C726 C727 1.400 . S
C727 C726 1.400 . S
C727 C728 1.398 . S
C727 C733 1.491 . S
C728 H719 0.950 . S
C728 C727 1.398 . S
C728 C729 1.391 . S
C729 H717 0.950 . S
C729 C725 1.393 . S
C729 C728 1.391 . S
C730 H720 0.950 . S
C730 C731 1.386 . S
C730 C732 1.391 . S
C731 C730 1.386 . S
C731 C735 1.393 . S
C732 H721 0.950 . S
C732 C730 1.391 . S
C732 C733 1.400 . S
C733 C727 1.491 . S
C733 C732 1.400 . S
C733 C734 1.398 . S
C734 H722 0.950 . S
C734 C733 1.398 . S
C734 C735 1.391 . S
C735 H723 0.950 . S
C735 C731 1.393 . S
C735 C734 1.391 . S
H736 C744 0.950 . S
H737 C749 0.950 . S
H738 C746 0.950 . S
H739 C748 0.950 . S
H740 C750 0.950 . S
H741 C752 0.950 . S
H742 C754 0.950 . S
H743 C755 0.950 . S
C744 H736 0.950 . S
C744 C745 1.386 1_545 S
C744 C746 1.391 1_545 S
C745 C744 1.386 1_565 S
C745 C749 1.393 . S
C746 H738 0.950 . S
C746 C744 1.391 1_565 S
C746 C747 1.400 . S
C747 C746 1.400 . S
C747 C748 1.398 . S
C747 C753 1.491 . S
C748 H739 0.950 . S
C748 C747 1.398 . S
C748 C749 1.391 . S
C749 H737 0.950 . S
C749 C745 1.393 . S
C749 C748 1.391 . S
C750 H740 0.950 . S
C750 C751 1.386 . S
C750 C752 1.391 . S
C751 C750 1.386 . S
C751 C755 1.393 . S
C752 H741 0.950 . S
C752 C750 1.391 . S
C752 C753 1.400 . S
C753 C747 1.491 . S
C753 C752 1.400 . S
C753 C754 1.398 . S
C754 H742 0.950 . S
C754 C753 1.398 . S
C754 C755 1.391 . S
C755 H743 0.950 . S
C755 C751 1.393 . S
C755 C754 1.391 . S
H756 C764 0.950 . S
H757 C769 0.950 . S
H758 C766 0.950 . S
H759 C768 0.950 . S
H760 C770 0.950 . S
H761 C772 0.950 . S
H762 C774 0.950 . S
H763 C775 0.950 . S
C764 H756 0.950 . S
C764 C765 1.386 . S
C764 C766 1.391 . S
C765 C764 1.386 . S
C765 C769 1.393 . S
C766 H758 0.950 . S
C766 C764 1.391 . S
C766 C767 1.400 . S
C767 C766 1.400 . S
C767 C768 1.398 . S
C767 C773 1.491 . S
C768 H759 0.950 . S
C768 C767 1.398 . S
C768 C769 1.391 . S
C769 H757 0.950 . S
C769 C765 1.393 . S
C769 C768 1.391 . S
C770 H760 0.950 . S
C770 C771 1.386 . S
C770 C772 1.391 . S
C771 C770 1.386 . S
C771 C775 1.393 . S
C772 H761 0.950 . S
C772 C770 1.391 . S
C772 C773 1.400 . S
C773 C767 1.491 . S
C773 C772 1.400 . S
C773 C774 1.398 . S
C774 H762 0.950 . S
C774 C773 1.398 . S
C774 C775 1.391 . S
C775 H763 0.950 . S
C775 C771 1.393 . S
C775 C774 1.391 . S
H776 C784 0.950 . S
H777 C789 0.950 . S
H778 C786 0.950 . S
H779 C788 0.950 . S
H780 C790 0.950 . S
H781 C792 0.950 . S
H782 C794 0.950 . S
H783 C795 0.950 . S
C784 H776 0.950 . S
C784 C785 1.386 . S
C784 C786 1.391 . S
C785 C784 1.386 . S
C785 C789 1.393 . S
C786 H778 0.950 . S
C786 C784 1.391 . S
C786 C787 1.400 . S
C787 C786 1.400 . S
C787 C788 1.398 . S
C787 C793 1.491 . S
C788 H779 0.950 . S
C788 C787 1.398 . S
C788 C789 1.391 . S
C789 H777 0.950 . S
C789 C785 1.393 . S
C789 C788 1.391 . S
C790 H780 0.950 . S
C790 C791 1.386 . S
C790 C792 1.391 . S
C791 C790 1.386 . S
C791 C795 1.393 . S
C792 H781 0.950 . S
C792 C790 1.391 . S
C792 C793 1.400 . S
C793 C787 1.491 . S
C793 C792 1.400 . S
C793 C794 1.398 . S
C794 H782 0.950 . S
C794 C793 1.398 . S
C794 C795 1.391 . S
C795 H783 0.950 . S
C795 C791 1.393 . S
C795 C794 1.391 . S
H796 C804 0.950 . S
H797 C809 0.950 . S
H798 C806 0.950 . S
H799 C808 0.950 . S
H800 C810 0.950 . S
H801 C812 0.950 . S
H802 C814 0.950 . S
H803 C815 0.950 . S
C804 H796 0.950 . S
C804 C805 1.386 . S
C804 C806 1.391 . S
C805 C804 1.386 . S
C805 C809 1.393 . S
C806 H798 0.950 . S
C806 C804 1.391 . S
C806 C807 1.400 . S
C807 C806 1.400 . S
C807 C808 1.398 . S
C807 C813 1.491 . S
C808 H799 0.950 . S
C808 C807 1.398 . S
C808 C809 1.391 . S
C809 H797 0.950 . S
C809 C805 1.393 . S
C809 C808 1.391 . S
C810 H800 0.950 . S
C810 C811 1.386 . S
C810 C812 1.391 . S
C811 C810 1.386 . S
C811 C815 1.393 . S
C812 H801 0.950 . S
C812 C810 1.391 . S
C812 C813 1.400 . S
C813 C807 1.491 . S
C813 C812 1.400 . S
C813 C814 1.398 . S
C814 H802 0.950 . S
C814 C813 1.398 . S
C814 C815 1.391 . S
C815 H803 0.950 . S
C815 C811 1.393 . S
C815 C814 1.391 . S
H816 C824 0.950 . S
H817 C829 0.950 . S
H818 C826 0.950 . S
H819 C828 0.950 . S
H820 C830 0.950 . S
H821 C832 0.950 . S
H822 C834 0.950 . S
H823 C835 0.950 . S
C824 H816 0.950 . S
C824 C825 1.386 . S
C824 C826 1.391 . S
C825 C824 1.386 . S
C825 C829 1.393 . S
C826 H818 0.950 . S
C826 C824 1.391 . S
C826 C827 1.400 . S
C827 C826 1.400 . S
C827 C828 1.398 . S
C827 C833 1.491 . S
C828 H819 0.950 . S
C828 C827 1.398 . S
C828 C829 1.391 . S
C829 H817 0.950 . S
C829 C825 1.393 . S
C829 C828 1.391 . S
C830 H820 0.950 . S
C830 C831 1.386 . S
C830 C832 1.391 . S
C831 C830 1.386 . S
C831 C835 1.393 . S
C832 H821 0.950 . S
C832 C830 1.391 . S
C832 C833 1.400 . S
C833 C827 1.491 . S
C833 C832 1.400 . S
C833 C834 1.398 . S
C834 H822 0.950 . S
C834 C833 1.398 . S
C834 C835 1.391 . S
C835 H823 0.950 . S
C835 C831 1.393 . S
C835 C834 1.391 . S
H836 C844 0.950 . S
H837 C849 0.963 . S
H838 C846 0.950 . S
H839 C848 0.950 . S
H840 C850 0.950 . S
H841 C852 0.950 . S
H842 C854 0.950 1_554 S
H843 C855 0.950 . S
C844 H836 0.950 . S
C844 C845 1.386 . S
C844 C846 1.391 . S
C845 C844 1.386 . S
C845 C849 1.357 1_554 S
C846 H838 0.950 . S
C846 C844 1.391 . S
C846 C847 1.400 1_554 S
C847 C846 1.400 1_556 S
C847 C848 1.398 . S
C847 C853 1.491 . S
C848 H839 0.950 . S
C848 C847 1.398 . S
C848 C849 1.415 . S
C849 H837 0.963 . S
C849 C845 1.357 1_556 S
C849 C848 1.415 . S
C850 H840 0.950 . S
C850 C851 1.386 . S
C850 C852 1.391 . S
C851 C850 1.386 . S
C851 C855 1.393 . S
C852 H841 0.950 . S
C852 C850 1.391 . S
C852 C853 1.400 . S
C853 C847 1.491 . S
C853 C852 1.400 . S
C853 C854 1.398 . S
C854 H842 0.950 1_556 S
C854 C853 1.398 . S
C854 C855 1.391 . S
C855 H843 0.950 . S
C855 C851 1.393 . S
C855 C854 1.391 . S
H856 C864 0.950 1_554 S
H857 C869 0.950 . S
H858 C866 0.950 . S
H859 C868 0.950 . S
H860 C870 0.950 . S
H861 C872 0.950 . S
H862 C874 0.950 . S
H863 C875 0.950 . S
C864 H856 0.950 1_556 S
C864 C865 1.386 . S
C864 C866 1.391 . S
C865 C864 1.386 . S
C865 C869 1.393 . S
C866 H858 0.950 . S
C866 C864 1.391 . S
C866 C867 1.400 . S
C867 C866 1.400 . S
C867 C868 1.398 . S
C867 C873 1.491 . S
C868 H859 0.950 . S
C868 C867 1.398 . S
C868 C869 1.391 . S
C869 H857 0.950 . S
C869 C865 1.393 . S
C869 C868 1.391 . S
C870 H860 0.950 . S
C870 C871 1.386 . S
C870 C872 1.391 . S
C871 C870 1.386 . S
C871 C875 1.393 . S
C872 H861 0.950 . S
C872 C870 1.391 . S
C872 C873 1.400 . S
C873 C867 1.491 . S
C873 C872 1.400 . S
C873 C874 1.398 . S
C874 H862 0.950 . S
C874 C873 1.398 . S
C874 C875 1.391 . S
C875 H863 0.950 . S
C875 C871 1.393 . S
C875 C874 1.391 . S
H876 C884 0.950 . S
H877 C889 0.950 . S
H878 C886 0.950 . S
H879 C888 0.950 . S
H880 C890 0.950 . S
H881 C892 0.950 . S
H882 C894 0.950 . S
H883 C895 0.950 . S
C884 H876 0.950 . S
C884 C885 1.386 . S
C884 C886 1.391 . S
C885 C884 1.386 . S
C885 C889 1.393 . S
C886 H878 0.950 . S
C886 C884 1.391 . S
C886 C887 1.400 . S
C887 C886 1.400 . S
C887 C888 1.398 . S
C887 C893 1.491 . S
C888 H879 0.950 . S
C888 C887 1.398 . S
C888 C889 1.391 . S
C889 H877 0.950 . S
C889 C885 1.393 . S
C889 C888 1.391 . S
C890 H880 0.950 . S
C890 C891 1.386 . S
C890 C892 1.391 . S
C891 C890 1.386 . S
C891 C895 1.393 . S
C892 H881 0.950 . S
C892 C890 1.391 . S
C892 C893 1.400 . S
C893 C887 1.491 . S
C893 C892 1.400 . S
C893 C894 1.398 . S
C894 H882 0.950 . S
C894 C893 1.398 . S
C894 C895 1.391 . S
C895 H883 0.950 . S
C895 C891 1.393 . S
C895 C894 1.391 . S
H896 C904 0.950 . S
H897 C909 0.950 . S
H898 C906 0.950 . S
H899 C908 0.950 . S
H900 C910 0.950 . S
H901 C912 0.950 . S
H902 C914 0.950 . S
H903 C915 0.950 . S
C904 H896 0.950 . S
C904 C905 1.386 . S
C904 C906 1.391 . S
C905 C904 1.386 . S
C905 C909 1.393 . S
C906 H898 0.950 . S
C906 C904 1.391 . S
C906 C907 1.400 . S
C907 C906 1.400 . S
C907 C908 1.398 . S
C907 C913 1.491 . S
C908 H899 0.950 . S
C908 C907 1.398 . S
C908 C909 1.391 . S
C909 H897 0.950 . S
C909 C905 1.393 . S
C909 C908 1.391 . S
C910 H900 0.950 . S
C910 C911 1.386 . S
C910 C912 1.391 . S
C911 C910 1.386 . S
C911 C915 1.393 . S
C912 H901 0.950 . S
C912 C910 1.391 . S
C912 C913 1.400 . S
C913 C907 1.491 . S
C913 C912 1.400 . S
C913 C914 1.398 . S
C914 H902 0.950 . S
C914 C913 1.398 . S
C914 C915 1.391 . S
C915 H903 0.950 . S
C915 C911 1.393 . S
C915 C914 1.391 . S
H916 C924 0.950 . S
H917 C929 0.950 . S
H918 C926 0.950 . S
H919 C928 0.950 . S
H920 C930 0.950 . S
H921 C932 0.950 . S
H922 C934 0.950 . S
H923 C935 0.950 . S
C924 H916 0.950 . S
C924 C925 1.386 . S
C924 C926 1.391 . S
C925 C924 1.386 . S
C925 C929 1.393 . S
C926 H918 0.950 . S
C926 C924 1.391 . S
C926 C927 1.400 . S
C927 C926 1.400 . S
C927 C928 1.398 . S
C927 C933 1.491 . S
C928 H919 0.950 . S
C928 C927 1.398 . S
C928 C929 1.391 . S
C929 H917 0.950 . S
C929 C925 1.393 . S
C929 C928 1.391 . S
C930 H920 0.950 . S
C930 C931 1.386 . S
C930 C932 1.391 . S
C931 C930 1.386 . S
C931 C935 1.393 . S
C932 H921 0.950 . S
C932 C930 1.391 . S
C932 C933 1.400 . S
C933 C927 1.491 . S
C933 C932 1.400 . S
C933 C934 1.398 . S
C934 H922 0.950 . S
C934 C933 1.398 . S
C934 C935 1.391 . S
C935 H923 0.950 . S
C935 C931 1.393 . S
C935 C934 1.391 . S
H936 C944 0.950 . S
H937 C949 0.950 . S
H938 C946 0.950 . S
H939 C948 0.950 . S
H940 C950 0.950 . S
H941 C952 0.950 . S
H942 C954 0.950 . S
H943 C955 0.950 . S
C944 H936 0.950 . S
C944 C945 1.386 . S
C944 C946 1.391 . S
C945 C944 1.386 . S
C945 C949 1.393 . S
C946 H938 0.950 . S
C946 C944 1.391 . S
C946 C947 1.400 . S
C947 C946 1.400 . S
C947 C948 1.398 . S
C947 C953 1.491 . S
C948 H939 0.950 . S
C948 C947 1.398 . S
C948 C949 1.391 . S
C949 H937 0.950 . S
C949 C945 1.393 . S
C949 C948 1.391 . S
C950 H940 0.950 . S
C950 C951 1.386 . S
C950 C952 1.391 . S
C951 C950 1.386 . S
C951 C955 1.393 . S
C952 H941 0.950 . S
C952 C950 1.391 . S
C952 C953 1.400 . S
C953 C947 1.491 . S
C953 C952 1.400 . S
C953 C954 1.398 . S
C954 H942 0.950 . S
C954 C953 1.398 . S
C954 C955 1.391 . S
C955 H943 0.950 . S
C955 C951 1.393 . S
C955 C954 1.391 . S
H956 C964 0.950 . S
H957 C969 0.950 . S
H958 C966 0.950 . S
H959 C968 0.950 . S
H960 C970 0.950 . S
H961 C972 0.950 . S
H962 C974 0.950 . S
H963 C975 0.950 . S
C964 H956 0.950 . S
C964 C965 1.386 . S
C964 C966 1.391 1_554 S
C965 C964 1.386 . S
C965 C969 1.393 . S
C966 H958 0.950 . S
C966 C964 1.391 1_556 S
C966 C967 1.400 . S
C967 C966 1.400 . S
C967 C968 1.398 . S
C967 C973 1.491 . S
C968 H959 0.950 . S
C968 C967 1.398 . S
C968 C969 1.391 1_556 S
C969 H957 0.950 . S
C969 C965 1.393 . S
C969 C968 1.391 1_554 S
C970 H960 0.950 . S
C970 C971 1.386 . S
C970 C972 1.391 . S
C971 C970 1.386 . S
C971 C975 1.393 . S
C972 H961 0.950 . S
C972 C970 1.391 . S
C972 C973 1.400 . S
C973 C967 1.491 . S
C973 C972 1.400 . S
C973 C974 1.398 . S
C974 H962 0.950 . S
C974 C973 1.398 . S
C974 C975 1.391 . S
C975 H963 0.950 . S
C975 C971 1.393 . S
C975 C974 1.391 . S
H976 C984 0.950 1_455 S
H977 C989 0.950 . S
H978 C986 0.950 . S
H979 C988 0.950 1_556 S
H980 C990 0.950 . S
H981 C992 0.950 . S
H982 C994 0.950 . S
H983 C995 0.950 . S
C984 H976 0.950 1_655 S
C984 C985 1.386 . S
C984 C986 1.391 . S
C985 C984 1.386 . S
C985 C989 1.393 . S
C986 H978 0.950 . S
C986 C984 1.391 . S
C986 C987 1.400 1_554 S
C987 C986 1.400 1_556 S
C987 C988 1.398 1_556 S
C987 C993 1.491 . S
C988 H979 0.950 1_554 S
C988 C987 1.398 1_554 S
C988 C989 1.391 . S
C989 H977 0.950 . S
C989 C985 1.393 . S
C989 C988 1.391 . S
C990 H980 0.950 . S
C990 C991 1.386 . S
C990 C992 1.391 . S
C991 C990 1.386 . S
C991 C995 1.393 . S
C992 H981 0.950 . S
C992 C990 1.391 . S
C992 C993 1.400 . S
C993 C987 1.491 . S
C993 C992 1.400 . S
C993 C994 1.398 . S
C994 H982 0.950 . S
C994 C993 1.398 . S
C994 C995 1.391 . S
C995 H983 0.950 . S
C995 C991 1.393 . S
C995 C994 1.391 . S
H996 C1004 0.950 . S
H997 C1009 0.950 . S
H998 C1006 0.950 . S
H999 C1008 0.950 . S
H1000 C1010 0.950 . S
H1001 C1012 0.950 . S
H1002 C1014 0.950 . S
H1003 C1015 0.950 . S
C1004 H996 0.950 . S
C1004 C1005 1.386 . S
C1004 C1006 1.391 . S
C1005 C1004 1.386 . S
C1005 C1009 1.393 . S
C1006 H998 0.950 . S
C1006 C1004 1.391 . S
C1006 C1007 1.400 . S
C1007 C1006 1.400 . S
C1007 C1008 1.398 . S
C1007 C1013 1.491 . S
C1008 H999 0.950 . S
C1008 C1007 1.398 . S
C1008 C1009 1.391 . S
C1009 H997 0.950 . S
C1009 C1005 1.393 . S
C1009 C1008 1.391 . S
C1010 H1000 0.950 . S
C1010 C1011 1.386 . S
C1010 C1012 1.391 . S
C1011 C1010 1.386 . S
C1011 C1015 1.393 . S
C1012 H1001 0.950 . S
C1012 C1010 1.391 . S
C1012 C1013 1.400 . S
C1013 C1007 1.491 . S
C1013 C1012 1.400 . S
C1013 C1014 1.398 . S
C1014 H1002 0.950 . S
C1014 C1013 1.398 . S
C1014 C1015 1.391 . S
C1015 H1003 0.950 . S
C1015 C1011 1.393 . S
C1015 C1014 1.391 . S
H1016 C1024 0.950 . S
H1017 C1029 0.950 . S
H1018 C1026 0.950 . S
H1019 C1028 0.950 . S
H1020 C1030 0.950 . S
H1021 C1032 0.950 . S
H1022 C1034 0.950 . S
H1023 C1035 0.950 . S
C1024 H1016 0.950 . S
C1024 C1025 1.386 . S
C1024 C1026 1.391 . S
C1025 C1024 1.386 . S
C1025 C1029 1.393 . S
C1026 H1018 0.950 . S
C1026 C1024 1.391 . S
C1026 C1027 1.400 . S
C1027 C1026 1.400 . S
C1027 C1028 1.398 . S
C1027 C1033 1.491 . S
C1028 H1019 0.950 . S
C1028 C1027 1.398 . S
C1028 C1029 1.391 . S
C1029 H1017 0.950 . S
C1029 C1025 1.393 . S
C1029 C1028 1.391 . S
C1030 H1020 0.950 . S
C1030 C1031 1.386 . S
C1030 C1032 1.391 . S
C1031 C1030 1.386 . S
C1031 C1035 1.393 . S
C1032 H1021 0.950 . S
C1032 C1030 1.391 . S
C1032 C1033 1.400 . S
C1033 C1027 1.491 . S
C1033 C1032 1.400 . S
C1033 C1034 1.398 . S
C1034 H1022 0.950 . S
C1034 C1033 1.398 . S
C1034 C1035 1.391 . S
C1035 H1023 0.950 . S
C1035 C1031 1.393 . S
C1035 C1034 1.391 . S
H1036 C1044 0.950 . S
H1037 C1049 0.950 . S
H1038 C1046 0.950 . S
H1039 C1048 0.950 . S
H1040 C1050 0.950 . S
H1041 C1052 0.950 . S
H1042 C1054 0.950 . S
H1043 C1055 0.950 . S
C1044 H1036 0.950 . S
C1044 C1045 1.386 . S
C1044 C1046 1.391 . S
C1045 C1044 1.386 . S
C1045 C1049 1.393 . S
C1046 H1038 0.950 . S
C1046 C1044 1.391 . S
C1046 C1047 1.400 . S
C1047 C1046 1.400 . S
C1047 C1048 1.398 . S
C1047 C1053 1.491 . S
C1048 H1039 0.950 . S
C1048 C1047 1.398 . S
C1048 C1049 1.391 . S
C1049 H1037 0.950 . S
C1049 C1045 1.393 . S
C1049 C1048 1.391 . S
C1050 H1040 0.950 . S
C1050 C1051 1.386 . S
C1050 C1052 1.391 . S
C1051 C1050 1.386 . S
C1051 C1055 1.393 . S
C1052 H1041 0.950 . S
C1052 C1050 1.391 . S
C1052 C1053 1.400 . S
C1053 C1047 1.491 . S
C1053 C1052 1.400 . S
C1053 C1054 1.398 . S
C1054 H1042 0.950 . S
C1054 C1053 1.398 . S
C1054 C1055 1.391 . S
C1055 H1043 0.950 . S
C1055 C1051 1.393 . S
C1055 C1054 1.391 . S
H1056 C1064 0.950 . S
H1057 C1069 0.950 . S
H1058 C1066 0.950 . S
H1059 C1068 0.950 . S
H1060 C1070 0.950 . S
H1061 C1072 0.950 . S
H1062 C1074 0.950 . S
H1063 C1075 0.950 . S
C1064 H1056 0.950 . S
C1064 C1065 1.386 . S
C1064 C1066 1.391 . S
C1065 C1064 1.386 . S
C1065 C1069 1.393 . S
C1066 H1058 0.950 . S
C1066 C1064 1.391 . S
C1066 C1067 1.400 . S
C1067 C1066 1.400 . S
C1067 C1068 1.398 . S
C1067 C1073 1.491 . S
C1068 H1059 0.950 . S
C1068 C1067 1.398 . S
C1068 C1069 1.391 . S
C1069 H1057 0.950 . S
C1069 C1065 1.393 . S
C1069 C1068 1.391 . S
C1070 H1060 0.950 . S
C1070 C1071 1.386 . S
C1070 C1072 1.391 . S
C1071 C1070 1.386 . S
C1071 C1075 1.393 . S
C1072 H1061 0.950 . S
C1072 C1070 1.391 . S
C1072 C1073 1.400 . S
C1073 C1067 1.491 . S
C1073 C1072 1.400 . S
C1073 C1074 1.398 . S
C1074 H1062 0.950 . S
C1074 C1073 1.398 . S
C1074 C1075 1.391 . S
C1075 H1063 0.950 . S
C1075 C1071 1.393 . S
C1075 C1074 1.391 . S
H1076 C1084 0.950 . S
H1077 C1089 0.950 . S
H1078 C1086 0.950 . S
H1079 C1088 0.950 . S
H1080 C1090 0.950 . S
H1081 C1092 0.950 . S
H1082 C1094 0.950 . S
H1083 C1095 0.950 . S
C1084 H1076 0.950 . S
C1084 C1085 1.386 . S
C1084 C1086 1.391 . S
C1085 C1084 1.386 . S
C1085 C1089 1.393 . S
C1086 H1078 0.950 . S
C1086 C1084 1.391 . S
C1086 C1087 1.400 . S
C1087 C1086 1.400 . S
C1087 C1088 1.398 . S
C1087 C1093 1.491 . S
C1088 H1079 0.950 . S
C1088 C1087 1.398 . S
C1088 C1089 1.391 . S
C1089 H1077 0.950 . S
C1089 C1085 1.393 . S
C1089 C1088 1.391 . S
C1090 H1080 0.950 . S
C1090 C1091 1.386 . S
C1090 C1092 1.391 . S
C1091 C1090 1.386 . S
C1091 C1095 1.393 . S
C1092 H1081 0.950 . S
C1092 C1090 1.391 . S
C1092 C1093 1.400 . S
C1093 C1087 1.491 . S
C1093 C1092 1.400 . S
C1093 C1094 1.398 . S
C1094 H1082 0.950 . S
C1094 C1093 1.398 . S
C1094 C1095 1.391 . S
C1095 H1083 0.950 . S
C1095 C1091 1.393 . S
C1095 C1094 1.391 . S
H1096 C1104 0.950 . S
H1097 C1109 0.950 . S
H1098 C1106 0.950 . S
H1099 C1108 0.950 . S
H1100 C1110 0.950 . S
H1101 C1112 0.950 . S
H1102 C1114 0.950 . S
H1103 C1115 0.950 . S
C1104 H1096 0.950 . S
C1104 C1105 1.386 . S
C1104 C1106 1.391 . S
C1105 C1104 1.386 . S
C1105 C1109 1.393 . S
C1106 H1098 0.950 . S
C1106 C1104 1.391 . S
C1106 C1107 1.400 . S
C1107 C1106 1.400 . S
C1107 C1108 1.398 . S
C1107 C1113 1.491 . S
C1108 H1099 0.950 . S
C1108 C1107 1.398 . S
C1108 C1109 1.391 . S
C1109 H1097 0.950 . S
C1109 C1105 1.393 . S
C1109 C1108 1.391 . S
C1110 H1100 0.950 . S
C1110 C1111 1.386 . S
C1110 C1112 1.391 . S
C1111 C1110 1.386 . S
C1111 C1115 1.393 . S
C1112 H1101 0.950 . S
C1112 C1110 1.391 . S
C1112 C1113 1.400 . S
C1113 C1107 1.491 . S
C1113 C1112 1.400 . S
C1113 C1114 1.398 . S
C1114 H1102 0.950 . S
C1114 C1113 1.398 . S
C1114 C1115 1.391 . S
C1115 H1103 0.950 . S
C1115 C1111 1.393 . S
C1115 C1114 1.391 . S
H1116 C1124 0.950 . S
H1117 C1129 0.950 . S
H1118 C1126 0.950 . S
H1119 C1128 0.950 . S
H1120 C1130 0.950 . S
H1121 C1132 0.950 . S
H1122 C1134 0.950 . S
H1123 C1135 0.950 . S
C1124 H1116 0.950 . S
C1124 C1125 1.386 . S
C1124 C1126 1.391 . S
C1125 C1124 1.386 . S
C1125 C1129 1.393 . S
C1126 H1118 0.950 . S
C1126 C1124 1.391 . S
C1126 C1127 1.400 . S
C1127 C1126 1.400 . S
C1127 C1128 1.398 . S
C1127 C1133 1.491 . S
C1128 H1119 0.950 . S
C1128 C1127 1.398 . S
C1128 C1129 1.391 . S
C1129 H1117 0.950 . S
C1129 C1125 1.393 . S
C1129 C1128 1.391 . S
C1130 H1120 0.950 . S
C1130 C1131 1.386 . S
C1130 C1132 1.391 . S
C1131 C1130 1.386 . S
C1131 C1135 1.393 . S
C1132 H1121 0.950 . S
C1132 C1130 1.391 . S
C1132 C1133 1.400 . S
C1133 C1127 1.491 . S
C1133 C1132 1.400 . S
C1133 C1134 1.398 . S
C1134 H1122 0.950 . S
C1134 C1133 1.398 . S
C1134 C1135 1.391 . S
C1135 H1123 0.950 . S
C1135 C1131 1.393 . S
C1135 C1134 1.391 . S
H1136 C1144 0.950 . S
H1137 C1149 0.950 . S
H1138 C1146 0.950 . S
H1139 C1148 0.950 . S
H1140 C1150 0.950 . S
H1141 C1152 0.950 . S
H1142 C1154 0.950 . S
H1143 C1155 0.950 . S
C1144 H1136 0.950 . S
C1144 C1145 1.386 . S
C1144 C1146 1.391 . S
C1145 C1144 1.386 . S
C1145 C1149 1.393 . S
C1146 H1138 0.950 . S
C1146 C1144 1.391 . S
C1146 C1147 1.400 . S
C1147 C1146 1.400 . S
C1147 C1148 1.398 . S
C1147 C1153 1.491 . S
C1148 H1139 0.950 . S
C1148 C1147 1.398 . S
C1148 C1149 1.391 . S
C1149 H1137 0.950 . S
C1149 C1145 1.393 . S
C1149 C1148 1.391 . S
C1150 H1140 0.950 . S
C1150 C1151 1.386 . S
C1150 C1152 1.391 . S
C1151 C1150 1.386 . S
C1151 C1155 1.393 . S
C1152 H1141 0.950 . S
C1152 C1150 1.391 . S
C1152 C1153 1.400 . S
C1153 C1147 1.491 . S
C1153 C1152 1.400 . S
C1153 C1154 1.398 . S
C1154 H1142 0.950 . S
C1154 C1153 1.398 . S
C1154 C1155 1.391 . S
C1155 H1143 0.950 . S
C1155 C1151 1.393 . S
C1155 C1154 1.391 . S
H1156 C1164 0.950 . S
H1157 C1169 0.950 . S
H1158 C1166 0.950 . S
H1159 C1168 0.950 . S
H1160 C1170 0.950 . S
H1161 C1172 0.950 . S
H1162 C1174 0.950 . S
H1163 C1175 0.950 . S
C1164 H1156 0.950 . S
C1164 C1165 1.386 . S
C1164 C1166 1.391 . S
C1165 C1164 1.386 . S
C1165 C1169 1.393 . S
C1166 H1158 0.950 . S
C1166 C1164 1.391 . S
C1166 C1167 1.400 . S
C1167 C1166 1.400 . S
C1167 C1168 1.398 . S
C1167 C1173 1.491 . S
C1168 H1159 0.950 . S
C1168 C1167 1.398 . S
C1168 C1169 1.391 . S
C1169 H1157 0.950 . S
C1169 C1165 1.393 . S
C1169 C1168 1.391 . S
C1170 H1160 0.950 . S
C1170 C1171 1.386 . S
C1170 C1172 1.391 . S
C1171 C1170 1.386 . S
C1171 C1175 1.393 . S
C1172 H1161 0.950 . S
C1172 C1170 1.391 . S
C1172 C1173 1.400 . S
C1173 C1167 1.491 . S
C1173 C1172 1.400 . S
C1173 C1174 1.398 . S
C1174 H1162 0.950 . S
C1174 C1173 1.398 . S
C1174 C1175 1.391 . S
C1175 H1163 0.950 . S
C1175 C1171 1.393 . S
C1175 C1174 1.391 . S
H1176 C1184 0.950 . S
H1177 C1189 0.950 . S
H1178 C1186 0.950 . S
H1179 C1188 0.950 . S
H1180 C1190 0.950 . S
H1181 C1192 0.950 . S
H1182 C1194 0.950 . S
H1183 C1195 0.950 . S
C1184 H1176 0.950 . S
C1184 C1185 1.386 . S
C1184 C1186 1.391 . S
C1185 C1184 1.386 . S
C1185 C1189 1.393 . S
C1186 H1178 0.950 . S
C1186 C1184 1.391 . S
C1186 C1187 1.400 . S
C1187 C1186 1.400 . S
C1187 C1188 1.398 . S
C1187 C1193 1.491 . S
C1188 H1179 0.950 . S
C1188 C1187 1.398 . S
C1188 C1189 1.391 . S
C1189 H1177 0.950 . S
C1189 C1185 1.393 . S
C1189 C1188 1.391 . S
C1190 H1180 0.950 . S
C1190 C1191 1.386 . S
C1190 C1192 1.391 . S
C1191 C1190 1.386 . S
C1191 C1195 1.393 . S
C1192 H1181 0.950 . S
C1192 C1190 1.391 . S
C1192 C1193 1.400 . S
C1193 C1187 1.491 . S
C1193 C1192 1.400 . S
C1193 C1194 1.398 . S
C1194 H1182 0.950 . S
C1194 C1193 1.398 . S
C1194 C1195 1.391 . S
C1195 H1183 0.950 . S
C1195 C1191 1.393 . S
C1195 C1194 1.391 . S
H1196 C1204 0.950 . S
H1197 C1209 0.950 . S
H1198 C1206 0.950 . S
H1199 C1208 0.950 . S
H1200 C1210 0.950 . S
H1201 C1212 0.950 . S
H1202 C1214 0.950 . S
H1203 C1215 0.950 . S
C1204 H1196 0.950 . S
C1204 C1205 1.386 . S
C1204 C1206 1.391 . S
C1205 C1204 1.386 . S
C1205 C1209 1.393 . S
C1206 H1198 0.950 . S
C1206 C1204 1.391 . S
C1206 C1207 1.400 . S
C1207 C1206 1.400 . S
C1207 C1208 1.398 . S
C1207 C1213 1.491 . S
C1208 H1199 0.950 . S
C1208 C1207 1.398 . S
C1208 C1209 1.391 . S
C1209 H1197 0.950 . S
C1209 C1205 1.393 . S
C1209 C1208 1.391 . S
C1210 H1200 0.950 . S
C1210 C1211 1.386 . S
C1210 C1212 1.391 . S
C1211 C1210 1.386 . S
C1211 C1215 1.393 . S
C1212 H1201 0.950 . S
C1212 C1210 1.391 . S
C1212 C1213 1.400 . S
C1213 C1207 1.491 . S
C1213 C1212 1.400 . S
C1213 C1214 1.398 . S
C1214 H1202 0.950 . S
C1214 C1213 1.398 . S
C1214 C1215 1.391 . S
C1215 H1203 0.950 . S
C1215 C1211 1.393 . S
C1215 C1214 1.391 . S
H1216 C1224 0.950 . S
H1217 C1229 0.950 . S
H1218 C1226 0.950 . S
H1219 C1228 0.950 . S
H1220 C1230 0.950 . S
H1221 C1232 0.950 . S
H1222 C1234 0.950 . S
H1223 C1235 0.950 . S
C1224 H1216 0.950 . S
C1224 C1225 1.386 . S
C1224 C1226 1.391 . S
C1225 C1224 1.386 . S
C1225 C1229 1.393 . S
C1226 H1218 0.950 . S
C1226 C1224 1.391 . S
C1226 C1227 1.400 . S
C1227 C1226 1.400 . S
C1227 C1228 1.398 . S
C1227 C1233 1.491 . S
C1228 H1219 0.950 . S
C1228 C1227 1.398 . S
C1228 C1229 1.391 . S
C1229 H1217 0.950 . S
C1229 C1225 1.393 . S
C1229 C1228 1.391 . S
C1230 H1220 0.950 . S
C1230 C1231 1.386 . S
C1230 C1232 1.391 . S
C1231 C1230 1.386 . S
C1231 C1235 1.393 . S
C1232 H1221 0.950 . S
C1232 C1230 1.391 . S
C1232 C1233 1.400 . S
C1233 C1227 1.491 . S
C1233 C1232 1.400 . S
C1233 C1234 1.398 . S
C1234 H1222 0.950 . S
C1234 C1233 1.398 . S
C1234 C1235 1.391 . S
C1235 H1223 0.950 . S
C1235 C1231 1.393 . S
C1235 C1234 1.391 . S
H1236 C1244 0.950 . S
H1237 C1249 0.950 . S
H1238 C1246 0.950 . S
H1239 C1248 0.950 . S
H1240 C1250 0.950 . S
H1241 C1252 0.950 . S
H1242 C1254 0.950 . S
H1243 C1255 0.950 . S
C1244 H1236 0.950 . S
C1244 C1245 1.386 . S
C1244 C1246 1.391 . S
C1245 C1244 1.386 . S
C1245 C1249 1.393 . S
C1246 H1238 0.950 . S
C1246 C1244 1.391 . S
C1246 C1247 1.400 . S
C1247 C1246 1.400 . S
C1247 C1248 1.398 . S
C1247 C1253 1.491 . S
C1248 H1239 0.950 . S
C1248 C1247 1.398 . S
C1248 C1249 1.391 . S
C1249 H1237 0.950 . S
C1249 C1245 1.393 . S
C1249 C1248 1.391 . S
C1250 H1240 0.950 . S
C1250 C1251 1.386 . S
C1250 C1252 1.391 . S
C1251 C1250 1.386 . S
C1251 C1255 1.393 . S
C1252 H1241 0.950 . S
C1252 C1250 1.391 . S
C1252 C1253 1.400 . S
C1253 C1247 1.491 . S
C1253 C1252 1.400 . S
C1253 C1254 1.398 . S
C1254 H1242 0.950 . S
C1254 C1253 1.398 . S
C1254 C1255 1.391 . S
C1255 H1243 0.950 . S
C1255 C1251 1.393 . S
C1255 C1254 1.391 . S
H1256 C1264 0.950 . S
H1257 C1269 0.950 . S
H1258 C1266 0.950 . S
H1259 C1268 0.950 . S
H1260 C1270 0.950 . S
H1261 C1272 0.950 . S
H1262 C1274 0.950 . S
H1263 C1275 0.950 . S
C1264 H1256 0.950 . S
C1264 C1265 1.386 . S
C1264 C1266 1.391 . S
C1265 C1264 1.386 . S
C1265 C1269 1.393 . S
C1266 H1258 0.950 . S
C1266 C1264 1.391 . S
C1266 C1267 1.400 . S
C1267 C1266 1.400 . S
C1267 C1268 1.398 . S
C1267 C1273 1.491 . S
C1268 H1259 0.950 . S
C1268 C1267 1.398 . S
C1268 C1269 1.391 . S
C1269 H1257 0.950 . S
C1269 C1265 1.393 . S
C1269 C1268 1.391 . S
C1270 H1260 0.950 . S
C1270 C1271 1.386 . S
C1270 C1272 1.391 . S
C1271 C1270 1.386 . S
C1271 C1275 1.393 . S
C1272 H1261 0.950 . S
C1272 C1270 1.391 . S
C1272 C1273 1.400 . S
C1273 C1267 1.491 . S
C1273 C1272 1.400 . S
C1273 C1274 1.398 . S
C1274 H1262 0.950 . S
C1274 C1273 1.398 . S
C1274 C1275 1.391 . S
C1275 H1263 0.950 . S
C1275 C1271 1.393 . S
C1275 C1274 1.391 . S
H1276 C1284 0.950 . S
H1277 C1289 0.950 . S
H1278 C1286 0.950 . S
H1279 C1288 0.950 . S
H1280 C1290 0.950 . S
H1281 C1292 0.950 . S
H1282 C1294 0.950 . S
H1283 C1295 0.950 . S
C1284 H1276 0.950 . S
C1284 C1285 1.386 . S
C1284 C1286 1.391 . S
C1285 C1284 1.386 . S
C1285 C1289 1.393 . S
C1286 H1278 0.950 . S
C1286 C1284 1.391 . S
C1286 C1287 1.400 . S
C1287 C1286 1.400 . S
C1287 C1288 1.398 . S
C1287 C1293 1.491 . S
C1288 H1279 0.950 . S
C1288 C1287 1.398 . S
C1288 C1289 1.391 . S
C1289 H1277 0.950 . S
C1289 C1285 1.393 . S
C1289 C1288 1.391 . S
C1290 H1280 0.950 . S
C1290 C1291 1.386 . S
C1290 C1292 1.391 . S
C1291 C1290 1.386 . S
C1291 C1295 1.393 . S
C1292 H1281 0.950 . S
C1292 C1290 1.391 . S
C1292 C1293 1.400 . S
C1293 C1287 1.491 . S
C1293 C1292 1.400 . S
C1293 C1294 1.398 . S
C1294 H1282 0.950 . S
C1294 C1293 1.398 . S
C1294 C1295 1.391 . S
C1295 H1283 0.950 . S
C1295 C1291 1.393 . S
C1295 C1294 1.391 . S
H1296 C1304 0.950 . S
H1297 C1309 0.950 . S
H1298 C1306 0.950 . S
H1299 C1308 0.950 . S
H1300 C1310 0.950 . S
H1301 C1312 0.950 . S
H1302 C1314 0.950 . S
H1303 C1315 0.950 . S
C1304 H1296 0.950 . S
C1304 C1305 1.386 . S
C1304 C1306 1.391 . S
C1305 C1304 1.386 . S
C1305 C1309 1.393 . S
C1306 H1298 0.950 . S
C1306 C1304 1.391 . S
C1306 C1307 1.400 . S
C1307 C1306 1.400 . S
C1307 C1308 1.398 . S
C1307 C1313 1.491 . S
C1308 H1299 0.950 . S
C1308 C1307 1.398 . S
C1308 C1309 1.391 . S
C1309 H1297 0.950 . S
C1309 C1305 1.393 . S
C1309 C1308 1.391 . S
C1310 H1300 0.950 . S
C1310 C1311 1.386 . S
C1310 C1312 1.391 . S
C1311 C1310 1.386 . S
C1311 C1315 1.393 . S
C1312 H1301 0.950 . S
C1312 C1310 1.391 . S
C1312 C1313 1.400 . S
C1313 C1307 1.491 . S
C1313 C1312 1.400 . S
C1313 C1314 1.398 . S
C1314 H1302 0.950 . S
C1314 C1313 1.398 . S
C1314 C1315 1.391 . S
C1315 H1303 0.950 . S
C1315 C1311 1.393 . S
C1315 C1314 1.391 . S
H1316 C1324 0.950 . S
H1317 C1329 0.950 . S
H1318 C1326 0.950 . S
H1319 C1328 0.950 . S
H1320 C1330 0.950 . S
H1321 C1332 0.950 . S
H1322 C1334 0.950 . S
H1323 C1335 0.950 . S
C1324 H1316 0.950 . S
C1324 C1325 1.386 . S
C1324 C1326 1.391 . S
C1325 C1324 1.386 . S
C1325 C1329 1.393 . S
C1326 H1318 0.950 . S
C1326 C1324 1.391 . S
C1326 C1327 1.400 . S
C1327 C1326 1.400 . S
C1327 C1328 1.398 . S
C1327 C1333 1.491 . S
C1328 H1319 0.950 . S
C1328 C1327 1.398 . S
C1328 C1329 1.391 . S
C1329 H1317 0.950 . S
C1329 C1325 1.393 . S
C1329 C1328 1.391 . S
C1330 H1320 0.950 . S
C1330 C1331 1.386 . S
C1330 C1332 1.391 . S
C1331 C1330 1.386 . S
C1331 C1335 1.393 . S
C1332 H1321 0.950 . S
C1332 C1330 1.391 . S
C1332 C1333 1.400 . S
C1333 C1327 1.491 . S
C1333 C1332 1.400 . S
C1333 C1334 1.398 . S
C1334 H1322 0.950 . S
C1334 C1333 1.398 . S
C1334 C1335 1.391 . S
C1335 H1323 0.950 . S
C1335 C1331 1.393 . S
C1335 C1334 1.391 . S
H1336 C1344 0.950 . S
H1337 C1349 0.950 . S
H1338 C1346 0.950 . S
H1339 C1348 0.950 . S
H1340 C1350 0.950 . S
H1341 C1352 0.950 . S
H1342 C1354 0.950 . S
H1343 C1355 0.950 . S
C1344 H1336 0.950 . S
C1344 C1345 1.386 . S
C1344 C1346 1.391 . S
C1345 C1344 1.386 . S
C1345 C1349 1.393 . S
C1346 H1338 0.950 . S
C1346 C1344 1.391 . S
C1346 C1347 1.400 . S
C1347 C1346 1.400 . S
C1347 C1348 1.398 . S
C1347 C1353 1.491 . S
C1348 H1339 0.950 . S
C1348 C1347 1.398 . S
C1348 C1349 1.391 . S
C1349 H1337 0.950 . S
C1349 C1345 1.393 . S
C1349 C1348 1.391 . S
C1350 H1340 0.950 . S
C1350 C1351 1.386 . S
C1350 C1352 1.391 . S
C1351 C1350 1.386 . S
C1351 C1355 1.393 . S
C1352 H1341 0.950 . S
C1352 C1350 1.391 . S
C1352 C1353 1.400 . S
C1353 C1347 1.491 . S
C1353 C1352 1.400 . S
C1353 C1354 1.398 . S
C1354 H1342 0.950 . S
C1354 C1353 1.398 . S
C1354 C1355 1.391 . S
C1355 H1343 0.950 . S
C1355 C1351 1.393 . S
C1355 C1354 1.391 . S
H1356 C1364 0.950 . S
H1357 C1369 0.950 . S
H1358 C1366 0.950 . S
H1359 C1368 0.950 . S
H1360 C1370 0.950 . S
H1361 C1372 0.950 . S
H1362 C1374 0.950 . S
H1363 C1375 0.950 . S
C1364 H1356 0.950 . S
C1364 C1365 1.386 . S
C1364 C1366 1.391 . S
C1365 C1364 1.386 . S
C1365 C1369 1.393 . S
C1366 H1358 0.950 . S
C1366 C1364 1.391 . S
C1366 C1367 1.400 . S
C1367 C1366 1.400 . S
C1367 C1368 1.398 . S
C1367 C1373 1.491 . S
C1368 H1359 0.950 . S
C1368 C1367 1.398 . S
C1368 C1369 1.391 . S
C1369 H1357 0.950 . S
C1369 C1365 1.393 . S
C1369 C1368 1.391 . S
C1370 H1360 0.950 . S
C1370 C1371 1.386 . S
C1370 C1372 1.391 . S
C1371 C1370 1.386 . S
C1371 C1375 1.393 . S
C1372 H1361 0.950 . S
C1372 C1370 1.391 . S
C1372 C1373 1.400 . S
C1373 C1367 1.491 . S
C1373 C1372 1.400 . S
C1373 C1374 1.398 . S
C1374 H1362 0.950 . S
C1374 C1373 1.398 . S
C1374 C1375 1.391 . S
C1375 H1363 0.950 . S
C1375 C1371 1.393 . S
C1375 C1374 1.391 . S
H1376 C1384 0.950 . S
H1377 C1389 0.950 . S
H1378 C1386 0.950 . S
H1379 C1388 0.950 . S
H1380 C1390 0.950 . S
H1381 C1392 0.950 . S
H1382 C1394 0.950 . S
H1383 C1395 0.950 . S
C1384 H1376 0.950 . S
C1384 C1385 1.386 . S
C1384 C1386 1.391 . S
C1385 C1384 1.386 . S
C1385 C1389 1.393 . S
C1386 H1378 0.950 . S
C1386 C1384 1.391 . S
C1386 C1387 1.400 . S
C1387 C1386 1.400 . S
C1387 C1388 1.398 . S
C1387 C1393 1.491 . S
C1388 H1379 0.950 . S
C1388 C1387 1.398 . S
C1388 C1389 1.391 . S
C1389 H1377 0.950 . S
C1389 C1385 1.393 . S
C1389 C1388 1.391 . S
C1390 H1380 0.950 . S
C1390 C1391 1.386 . S
C1390 C1392 1.391 . S
C1391 C1390 1.386 . S
C1391 C1395 1.393 . S
C1392 H1381 0.950 . S
C1392 C1390 1.391 . S
C1392 C1393 1.400 . S
C1393 C1387 1.491 . S
C1393 C1392 1.400 . S
C1393 C1394 1.398 . S
C1394 H1382 0.950 . S
C1394 C1393 1.398 . S
C1394 C1395 1.391 . S
C1395 H1383 0.950 . S
C1395 C1391 1.393 . S
C1395 C1394 1.391 . S
H1396 C1404 0.950 . S
H1397 C1409 0.950 . S
H1398 C1406 0.950 . S
H1399 C1408 0.950 . S
H1400 C1410 0.950 . S
H1401 C1412 0.950 . S
H1402 C1414 0.950 . S
H1403 C1415 0.950 . S
C1404 H1396 0.950 . S
C1404 C1405 1.386 . S
C1404 C1406 1.391 . S
C1405 C1404 1.386 . S
C1405 C1409 1.393 . S
C1406 H1398 0.950 . S
C1406 C1404 1.391 . S
C1406 C1407 1.400 . S
C1407 C1406 1.400 . S
C1407 C1408 1.398 . S
C1407 C1413 1.491 . S
C1408 H1399 0.950 . S
C1408 C1407 1.398 . S
C1408 C1409 1.391 . S
C1409 H1397 0.950 . S
C1409 C1405 1.393 . S
C1409 C1408 1.391 . S
C1410 H1400 0.950 . S
C1410 C1411 1.386 . S
C1410 C1412 1.391 . S
C1411 C1410 1.386 . S
C1411 C1415 1.393 . S
C1412 H1401 0.950 . S
C1412 C1410 1.391 . S
C1412 C1413 1.400 . S
C1413 C1407 1.491 . S
C1413 C1412 1.400 . S
C1413 C1414 1.398 . S
C1414 H1402 0.950 . S
C1414 C1413 1.398 . S
C1414 C1415 1.391 . S
C1415 H1403 0.950 . S
C1415 C1411 1.393 . S
C1415 C1414 1.391 . S
H1416 C1424 0.950 . S
H1417 C1429 0.950 . S
H1418 C1426 0.950 . S
H1419 C1428 0.950 . S
H1420 C1430 0.950 . S
H1421 C1432 0.950 . S
H1422 C1434 0.950 . S
H1423 C1435 0.950 . S
C1424 H1416 0.950 . S
C1424 C1425 1.386 . S
C1424 C1426 1.391 . S
C1425 C1424 1.386 . S
C1425 C1429 1.393 . S
C1426 H1418 0.950 . S
C1426 C1424 1.391 . S
C1426 C1427 1.400 . S
C1427 C1426 1.400 . S
C1427 C1428 1.398 . S
C1427 C1433 1.491 . S
C1428 H1419 0.950 . S
C1428 C1427 1.398 . S
C1428 C1429 1.391 . S
C1429 H1417 0.950 . S
C1429 C1425 1.393 . S
C1429 C1428 1.391 . S
C1430 H1420 0.950 . S
C1430 C1431 1.386 . S
C1430 C1432 1.391 . S
C1431 C1430 1.386 . S
C1431 C1435 1.393 . S
C1432 H1421 0.950 . S
C1432 C1430 1.391 . S
C1432 C1433 1.400 . S
C1433 C1427 1.491 . S
C1433 C1432 1.400 . S
C1433 C1434 1.398 . S
C1434 H1422 0.950 . S
C1434 C1433 1.398 . S
C1434 C1435 1.391 . S
C1435 H1423 0.950 . S
C1435 C1431 1.393 . S
C1435 C1434 1.391 . S
H1436 C1444 0.950 . S
H1437 C1449 0.950 . S
H1438 C1446 0.950 . S
H1439 C1448 0.950 . S
H1440 C1450 0.950 . S
H1441 C1452 0.950 . S
H1442 C1454 0.950 . S
H1443 C1455 0.950 . S
C1444 H1436 0.950 . S
C1444 C1445 1.386 . S
C1444 C1446 1.391 . S
C1445 C1444 1.386 . S
C1445 C1449 1.393 . S
C1446 H1438 0.950 . S
C1446 C1444 1.391 . S
C1446 C1447 1.400 . S
C1447 C1446 1.400 . S
C1447 C1448 1.398 . S
C1447 C1453 1.491 . S
C1448 H1439 0.950 . S
C1448 C1447 1.398 . S
C1448 C1449 1.391 . S
C1449 H1437 0.950 . S
C1449 C1445 1.393 . S
C1449 C1448 1.391 . S
C1450 H1440 0.950 . S
C1450 C1451 1.386 . S
C1450 C1452 1.391 . S
C1451 C1450 1.386 . S
C1451 C1455 1.393 . S
C1452 H1441 0.950 . S
C1452 C1450 1.391 . S
C1452 C1453 1.400 . S
C1453 C1447 1.491 . S
C1453 C1452 1.400 . S
C1453 C1454 1.398 . S
C1454 H1442 0.950 . S
C1454 C1453 1.398 . S
C1454 C1455 1.391 . S
C1455 H1443 0.950 . S
C1455 C1451 1.393 . S
C1455 C1454 1.391 . S
H1456 C1464 0.950 . S
H1457 C1469 0.950 . S
H1458 C1466 0.950 . S
H1459 C1468 0.950 . S
H1460 C1470 0.950 . S
H1461 C1472 0.950 . S
H1462 C1474 0.950 . S
H1463 C1475 0.950 . S
C1464 H1456 0.950 . S
C1464 C1465 1.386 . S
C1464 C1466 1.391 . S
C1465 C1464 1.386 . S
C1465 C1469 1.393 . S
C1466 H1458 0.950 . S
C1466 C1464 1.391 . S
C1466 C1467 1.400 . S
C1467 C1466 1.400 . S
C1467 C1468 1.398 . S
C1467 C1473 1.491 . S
C1468 H1459 0.950 . S
C1468 C1467 1.398 . S
C1468 C1469 1.391 . S
C1469 H1457 0.950 . S
C1469 C1465 1.393 . S
C1469 C1468 1.391 . S
C1470 H1460 0.950 . S
C1470 C1471 1.386 . S
C1470 C1472 1.391 . S
C1471 C1470 1.386 . S
C1471 C1475 1.393 . S
C1472 H1461 0.950 . S
C1472 C1470 1.391 . S
C1472 C1473 1.400 . S
C1473 C1467 1.491 . S
C1473 C1472 1.400 . S
C1473 C1474 1.398 . S
C1474 H1462 0.950 . S
C1474 C1473 1.398 . S
C1474 C1475 1.391 . S
C1475 H1463 0.950 . S
C1475 C1471 1.393 . S
C1475 C1474 1.391 . S
H1476 C1484 0.950 . S
H1477 C1489 0.950 . S
H1478 C1486 0.950 . S
H1479 C1488 0.950 . S
H1480 C1490 0.950 . S
H1481 C1492 0.950 . S
H1482 C1494 0.950 . S
H1483 C1495 0.950 . S
C1484 H1476 0.950 . S
C1484 C1485 1.386 . S
C1484 C1486 1.391 . S
C1485 C1484 1.386 . S
C1485 C1489 1.393 . S
C1486 H1478 0.950 . S
C1486 C1484 1.391 . S
C1486 C1487 1.400 . S
C1487 C1486 1.400 . S
C1487 C1488 1.398 . S
C1487 C1493 1.491 . S
C1488 H1479 0.950 . S
C1488 C1487 1.398 . S
C1488 C1489 1.391 . S
C1489 H1477 0.950 . S
C1489 C1485 1.393 . S
C1489 C1488 1.391 . S
C1490 H1480 0.950 . S
C1490 C1491 1.386 . S
C1490 C1492 1.391 . S
C1491 C1490 1.386 . S
C1491 C1495 1.393 . S
C1492 H1481 0.950 . S
C1492 C1490 1.391 . S
C1492 C1493 1.400 . S
C1493 C1487 1.491 . S
C1493 C1492 1.400 . S
C1493 C1494 1.398 . S
C1494 H1482 0.950 . S
C1494 C1493 1.398 . S
C1494 C1495 1.391 . S
C1495 H1483 0.950 . S
C1495 C1491 1.393 . S
C1495 C1494 1.391 . S
H1496 C1504 0.950 . S
H1497 C1509 0.950 . S
H1498 C1506 0.950 . S
H1499 C1508 0.950 . S
H1500 C1510 0.950 . S
H1501 C1512 0.950 . S
H1502 C1514 0.950 . S
H1503 C1515 0.950 . S
C1504 H1496 0.950 . S
C1504 C1505 1.386 . S
C1504 C1506 1.391 . S
C1505 C1504 1.386 . S
C1505 C1509 1.393 . S
C1506 H1498 0.950 . S
C1506 C1504 1.391 . S
C1506 C1507 1.400 . S
C1507 C1506 1.400 . S
C1507 C1508 1.398 . S
C1507 C1513 1.491 . S
C1508 H1499 0.950 . S
C1508 C1507 1.398 . S
C1508 C1509 1.391 . S
C1509 H1497 0.950 . S
C1509 C1505 1.393 . S
C1509 C1508 1.391 . S
C1510 H1500 0.950 . S
C1510 C1511 1.386 . S
C1510 C1512 1.391 . S
C1511 C1510 1.386 . S
C1511 C1515 1.393 . S
C1512 H1501 0.950 . S
C1512 C1510 1.391 . S
C1512 C1513 1.400 . S
C1513 C1507 1.491 . S
C1513 C1512 1.400 . S
C1513 C1514 1.398 . S
C1514 H1502 0.950 . S
C1514 C1513 1.398 . S
C1514 C1515 1.391 . S
C1515 H1503 0.950 . S
C1515 C1511 1.393 . S
C1515 C1514 1.391 . S
H1516 C1524 0.950 . S
H1517 C1529 0.950 . S
H1518 C1526 0.950 . S
H1519 C1528 0.950 . S
H1520 C1530 0.950 . S
H1521 C1532 0.950 . S
H1522 C1534 0.950 . S
H1523 C1535 0.950 . S
C1524 H1516 0.950 . S
C1524 C1525 1.386 . S
C1524 C1526 1.391 . S
C1525 C1524 1.386 . S
C1525 C1529 1.393 . S
C1526 H1518 0.950 . S
C1526 C1524 1.391 . S
C1526 C1527 1.400 . S
C1527 C1526 1.400 . S
C1527 C1528 1.398 . S
C1527 C1533 1.491 . S
C1528 H1519 0.950 . S
C1528 C1527 1.398 . S
C1528 C1529 1.391 . S
C1529 H1517 0.950 . S
C1529 C1525 1.393 . S
C1529 C1528 1.391 . S
C1530 H1520 0.950 . S
C1530 C1531 1.386 . S
C1530 C1532 1.391 . S
C1531 C1530 1.386 . S
C1531 C1535 1.393 . S
C1532 H1521 0.950 . S
C1532 C1530 1.391 . S
C1532 C1533 1.400 . S
C1533 C1527 1.491 . S
C1533 C1532 1.400 . S
C1533 C1534 1.398 . S
C1534 H1522 0.950 . S
C1534 C1533 1.398 . S
C1534 C1535 1.391 . S
C1535 H1523 0.950 . S
C1535 C1531 1.393 . S
C1535 C1534 1.391 . S
H1536 C1544 0.950 . S
H1537 C1549 0.950 . S
H1538 C1546 0.950 . S
H1539 C1548 0.950 . S
H1540 C1550 0.950 . S
H1541 C1552 0.950 . S
H1542 C1554 0.950 . S
H1543 C1555 0.950 . S
C1544 H1536 0.950 . S
C1544 C1545 1.386 . S
C1544 C1546 1.391 . S
C1545 C1544 1.386 . S
C1545 C1549 1.393 . S
C1546 H1538 0.950 . S
C1546 C1544 1.391 . S
C1546 C1547 1.400 . S
C1547 C1546 1.400 . S
C1547 C1548 1.398 . S
C1547 C1553 1.491 . S
C1548 H1539 0.950 . S
C1548 C1547 1.398 . S
C1548 C1549 1.391 . S
C1549 H1537 0.950 . S
C1549 C1545 1.393 . S
C1549 C1548 1.391 . S
C1550 H1540 0.950 . S
C1550 C1551 1.386 . S
C1550 C1552 1.391 . S
C1551 C1550 1.386 . S
C1551 C1555 1.393 . S
C1552 H1541 0.950 . S
C1552 C1550 1.391 . S
C1552 C1553 1.400 . S
C1553 C1547 1.491 . S
C1553 C1552 1.400 . S
C1553 C1554 1.398 . S
C1554 H1542 0.950 . S
C1554 C1553 1.398 . S
C1554 C1555 1.391 . S
C1555 H1543 0.950 . S
C1555 C1551 1.393 . S
C1555 C1554 1.391 . S
C611 C301 1.302 . S
C605 N2 1.272 . S
C631 C339 2.512 . S
C625 C7 2.522 . S
C651 C360 1.651 . S
C645 N12 1.528 . S
C665 C16 1.917 . S
C671 C398 1.966 . S
C691 C438 2.595 . S
C685 C30 2.596 1_565 S
C711 C501 1.425 . S
C705 N35 1.376 . S
C725 C39 2.115 . S
C731 C539 2.082 . S
C751 C560 1.178 . S
C745 N25 1.146 . S
C771 C307 1.189 . S
C765 N58 1.155 . S
C785 N81 1.961 . S
C791 C336 1.973 . S
C811 C379 1.347 . S
C805 N104 1.308 . S
C825 N127 1.154 . S
C831 C421 1.183 . S
C851 C461 0.862 . S
C845 N48 0.863 1_565 S
C871 C507 1.553 . S
C865 N71 1.498 1_556 S
C885 N94 1.399 . S
C891 C536 1.394 . S
C911 C579 1.833 . S
C905 N117 1.829 . S
C925 C85 2.403 . S
C931 C278 2.363 . S
C945 C122 2.438 . S
C951 C467 2.420 . S
C965 C53 1.930 . S
C971 C478 1.894 . S
C991 C520 1.390 . S
C985 C76 1.412 1_655 S
C1011 C576 1.804 . S
C1005 C99 1.809 . S
C1031 C376 1.975 . S
C1025 C131 1.961 . S
C1051 C427 1.791 . S
C1045 C62 1.804 1_565 S
C1065 C108 1.099 . S
C1071 C320 1.103 . S
C1091 C581 1.357 . S
C1085 N140 1.324 . S
C1105 C145 2.512 . S
C1111 C459 2.493 . S
C1131 C480 1.512 . S
C1125 N150 1.376 . S
C1145 C154 1.940 . S
C1151 C518 1.977 . S
C1171 C318 2.607 . S
C1165 C168 2.600 . S
C1185 N173 1.249 . S
C1191 C381 1.297 . S
C1211 C419 2.098 . S
C1205 C177 2.132 . S
C1231 C280 1.224 . S
C1225 N163 1.168 . S
C1251 C587 1.661 . S
C1245 C200 1.651 . S
C1271 C456 2.257 . S
C1265 N219 2.247 . S
C1285 N242 1.560 . S
C1291 C499 1.608 . S
C1311 C541 1.434 . S
C1305 C269 1.463 . S
C1331 C341 1.132 . S
C1325 C191 1.159 . S
C1345 N209 1.757 . S
C1351 C387 1.816 . S
C1365 N232 1.706 . S
C1371 C416 1.686 . S
C1385 C260 2.367 . S
C1391 C299 2.344 . S
C1405 C223 2.093 . S
C1411 C558 2.055 . S
C1425 N255 1.982 . S
C1431 C347 2.008 . S
C1445 N186 1.444 . S
C1451 C358 1.449 . S
C1471 C400 1.093 . S
C1465 C214 1.107 . S
C1491 C296 1.477 . S
C1485 C237 1.479 . S
C1511 C496 1.571 . S
C1505 N265 1.500 . S
C1531 C547 1.411 . S
C1525 N196 1.406 . S
C1551 C440 0.794 . S
C1545 C246 0.802 . S
