# Generated by pormake.
# Topology ssa, (4,4)-cn, num edge types: 1
# Building blocks:
#     Node 0, Type 0, BuildingBlock: NAWXER_clean_sbu_0, # of connection points: 4
#     Node 1, Type 0, BuildingBlock: NAWXER_clean_sbu_0, # of connection points: 4
#     Node 2, Type 0, BuildingBlock: NAWXER_clean_sbu_0, # of connection points: 4
#     Node 3, Type 0, BuildingBlock: NAWXER_clean_sbu_0, # of connection points: 4
#     Node 4, Type 0, BuildingBlock: NAWXER_clean_sbu_0, # of connection points: 4
#     Node 5, Type 0, BuildingBlock: NAWXER_clean_sbu_0, # of connection points: 4
#     Node 6, Type 1, BuildingBlock: KOZSID_clean_sbu_0, # of connection points: 4
#     Node 7, Type 1, BuildingBlock: KOZSID_clean_sbu_0, # of connection points: 4
#     Node 8, Type 1, BuildingBlock: KOZSID_clean_sbu_0, # of connection points: 4
#     Node 9, Type 1, BuildingBlock: KOZSID_clean_sbu_0, # of connection points: 4
#     Node 10, Type 1, BuildingBlock: KOZSID_clean_sbu_0, # of connection points: 4
#     Node 11, Type 1, BuildingBlock: KOZSID_clean_sbu_0, # of connection points: 4
#     Edge 12, Type (0, 1), BuildingBlock: UVAHIK_clean_linker_0, # of connection points: 2
#     Edge 13, Type (0, 1), BuildingBlock: UVAHIK_clean_linker_0, # of connection points: 2
#     Edge 14, Type (0, 1), BuildingBlock: UVAHIK_clean_linker_0, # of connection points: 2
#     Edge 15, Type (0, 1), BuildingBlock: UVAHIK_clean_linker_0, # of connection points: 2
#     Edge 16, Type (0, 1), BuildingBlock: UVAHIK_clean_linker_0, # of connection points: 2
#     Edge 17, Type (0, 1), BuildingBlock: UVAHIK_clean_linker_0, # of connection points: 2
#     Edge 18, Type (0, 1), BuildingBlock: UVAHIK_clean_linker_0, # of connection points: 2
#     Edge 19, Type (0, 1), BuildingBlock: UVAHIK_clean_linker_0, # of connection points: 2
#     Edge 20, Type (0, 1), BuildingBlock: UVAHIK_clean_linker_0, # of connection points: 2
#     Edge 21, Type (0, 1), BuildingBlock: UVAHIK_clean_linker_0, # of connection points: 2
#     Edge 22, Type (0, 1), BuildingBlock: UVAHIK_clean_linker_0, # of connection points: 2
#     Edge 23, Type (0, 1), BuildingBlock: UVAHIK_clean_linker_0, # of connection points: 2
#     Edge 24, Type (0, 1), BuildingBlock: UVAHIK_clean_linker_0, # of connection points: 2
#     Edge 25, Type (0, 1), BuildingBlock: UVAHIK_clean_linker_0, # of connection points: 2
#     Edge 26, Type (0, 1), BuildingBlock: UVAHIK_clean_linker_0, # of connection points: 2
#     Edge 27, Type (0, 1), BuildingBlock: UVAHIK_clean_linker_0, # of connection points: 2
#     Edge 28, Type (0, 1), BuildingBlock: UVAHIK_clean_linker_0, # of connection points: 2
#     Edge 29, Type (0, 1), BuildingBlock: UVAHIK_clean_linker_0, # of connection points: 2
#     Edge 30, Type (0, 1), BuildingBlock: UVAHIK_clean_linker_0, # of connection points: 2
#     Edge 31, Type (0, 1), BuildingBlock: UVAHIK_clean_linker_0, # of connection points: 2
#     Edge 32, Type (0, 1), BuildingBlock: UVAHIK_clean_linker_0, # of connection points: 2
#     Edge 33, Type (0, 1), BuildingBlock: UVAHIK_clean_linker_0, # of connection points: 2
#     Edge 34, Type (0, 1), BuildingBlock: UVAHIK_clean_linker_0, # of connection points: 2
#     Edge 35, Type (0, 1), BuildingBlock: UVAHIK_clean_linker_0, # of connection points: 2
# Relax obj value: 0.018
# Max RMSD: 0.054
# Mean RMSD: 0.027
data_MOF--net-ssa--node1-NAWXER_clean_sbu_0--node2-KOZSID_clean_sbu_0--edge1-UVAHIK_clean_linker_0
_symmetry_space_group_name_H-M    P1
_symmetry_Int_Tables_number       1
_symmetry_cell_setting            triclinic
loop_
_symmetry_equiv_pos_as_xyz
'x, y, z'
_cell_length_a     66.608369
_cell_length_b     66.592449
_cell_length_c     46.608451
_cell_angle_alpha  92.815084
_cell_angle_beta   92.760092
_cell_angle_gamma 120.0429
loop_
_atom_site_label
_atom_site_type_symbol
_atom_site_fract_x
_atom_site_fract_y
_atom_site_fract_z
_atom_type_partial_charge
C0 C 0.04356 0.55539 0.9969 0.0
C1 C 0.99812 0.47767 0.94747 0.0
O2 O 0.02595 0.54152 0.01004 0.0
Zn3 Zn 0.99822 0.50616 0.00518 0.0
O4 O 0.04795 0.54802 0.97371 0.0
Zn5 Zn 0.02158 0.51657 0.97195 0.0
O6 O 0.9925 0.52201 0.96546 0.0
O7 O 0.97108 0.50965 0.00237 0.0
O8 O 0.01628 0.49484 0.93932 0.0
O9 O 0.99018 0.47994 0.97118 0.0
O10 O 0.00412 0.49324 0.03861 0.0
O11 O 0.03059 0.50221 0.00737 0.0
C12 C 0.97463 0.5187 0.97839 0.0
C13 C 0.02264 0.49407 0.0313 0.0
C14 C 0.49997 0.03375 0.50326 0.0
C15 C 0.52504 0.98653 0.44832 0.0
O16 O 0.49745 0.01595 0.51563 0.0
Zn17 Zn 0.50342 0.98753 0.5083 0.0
O18 O 0.50849 0.03773 0.47893 0.0
Zn19 Zn 0.51271 0.01079 0.47478 0.0
O20 O 0.47765 0.98232 0.47065 0.0
O21 O 0.47241 0.96093 0.50736 0.0
O22 O 0.5253 0.00474 0.44063 0.0
O23 O 0.51739 0.97891 0.47253 0.0
O24 O 0.52595 0.99308 0.53979 0.0
O25 O 0.53977 0.01925 0.50789 0.0
C26 C 0.46441 0.96467 0.48419 0.0
C27 C 0.54275 0.01135 0.53127 0.0
C28 C 0.47217 0.44846 0.97959 0.0
C29 C 0.50155 0.52149 0.04009 0.0
O30 O 0.46924 0.46374 0.96733 0.0
Zn31 Zn 0.47573 0.49841 0.97711 0.0
O32 O 0.4812 0.45298 0.00545 0.0
Zn33 Zn 0.48607 0.48425 0.01113 0.0
O34 O 0.4515 0.47841 0.01158 0.0
O35 O 0.44505 0.49489 0.97507 0.0
O36 O 0.50112 0.50312 0.04734 0.0
O37 O 0.49271 0.52153 0.01506 0.0
O38 O 0.4968 0.51522 0.94865 0.0
O39 O 0.51167 0.50234 0.98143 0.0
C40 C 0.43797 0.48335 0.99696 0.0
C41 C 0.51376 0.51327 0.95883 0.0
C42 C 0.00959 0.52489 0.47498 0.0
C43 C 0.96744 0.45555 0.52767 0.0
O44 O 0.01888 0.52715 0.50055 0.0
Zn45 Zn 0.01316 0.5067 0.53671 0.0
O46 O 0.99139 0.50585 0.46586 0.0
Zn47 Zn 0.98813 0.48993 0.50073 0.0
O48 O 0.98047 0.50961 0.53176 0.0
O49 O 0.00893 0.52494 0.56657 0.0
O50 O 0.96211 0.45865 0.50236 0.0
O51 O 0.98577 0.47188 0.54215 0.0
O52 O 0.0408 0.50418 0.53997 0.0
O53 O 0.01734 0.4846 0.50115 0.0
C54 C 0.98967 0.52201 0.55577 0.0
C55 C 0.03615 0.49099 0.51703 0.0
C56 C 0.50422 0.9619 0.00189 0.0
C57 C 0.46809 0.00526 0.96818 0.0
O58 O 0.50895 0.97949 0.01936 0.0
Zn59 Zn 0.5008 0.00689 0.0225 0.0
O60 O 0.49113 0.9575 0.97894 0.0
Zn61 Zn 0.48557 0.98305 0.98519 0.0
O62 O 0.51912 0.01307 0.98086 0.0
O63 O 0.53147 0.0344 0.02256 0.0
O64 O 0.46596 0.98653 0.95666 0.0
O65 O 0.48036 0.0143 0.99231 0.0
O66 O 0.48393 0.0008 0.05705 0.0
O67 O 0.46522 0.97334 0.02158 0.0
C68 C 0.5347 0.03118 0.99645 0.0
C69 C 0.46638 0.98137 0.04755 0.0
C70 C 0.53906 0.5235 0.53913 0.0
C71 C 0.46499 0.49387 0.48118 0.0
O72 O 0.5209 0.52315 0.54714 0.0
Zn73 Zn 0.50147 0.50832 0.51126 0.0
O74 O 0.53866 0.51479 0.51384 0.0
Zn75 Zn 0.51498 0.49797 0.4764 0.0
O76 O 0.53101 0.5191 0.44767 0.0
O77 O 0.51876 0.53392 0.48135 0.0
O78 O 0.48003 0.49102 0.46816 0.0
O79 O 0.47012 0.50326 0.50691 0.0
O80 O 0.49567 0.47373 0.51102 0.0
O81 O 0.51165 0.46733 0.47387 0.0
C82 C 0.52918 0.53602 0.45829 0.0
C83 C 0.5004 0.46022 0.49598 0.0
C84 C 0.19458 0.47389 0.22429 0.0
C85 C 0.19655 0.49508 0.21874 0.0
C86 C 0.2174 0.51201 0.23187 0.0
C87 C 0.22689 0.50028 0.24476 0.0
N88 N 0.21339 0.47682 0.24066 0.0
Co89 Co 0.22022 0.45314 0.25645 0.0
N90 N 0.25094 0.47816 0.27571 0.0
C91 C 0.26067 0.50141 0.2743 0.0
C92 C 0.28206 0.51423 0.2893 0.0
C93 C 0.28626 0.49826 0.30118 0.0
C94 C 0.267 0.47651 0.29286 0.0
N95 N 0.22685 0.42949 0.27279 0.0
C96 C 0.24494 0.43247 0.29078 0.0
C97 C 0.24223 0.41131 0.29796 0.0
C98 C 0.22177 0.39435 0.28396 0.0
C99 C 0.2131 0.40605 0.26924 0.0
N100 N 0.18964 0.42814 0.23676 0.0
C101 C 0.18063 0.40485 0.23655 0.0
C102 C 0.15953 0.39204 0.22083 0.0
C103 C 0.15476 0.40808 0.21028 0.0
C104 C 0.17327 0.42983 0.22031 0.0
N105 N 0.23582 0.45261 0.22135 0.0
C106 C 0.25911 0.45208 0.1726 0.0
C107 C 0.24417 0.43148 0.18463 0.0
C108 C 0.23275 0.43212 0.20871 0.0
C109 C 0.26185 0.47289 0.18505 0.0
C110 C 0.25016 0.47276 0.20917 0.0
N111 N 0.20469 0.45369 0.29147 0.0
C112 C 0.1766 0.43349 0.32577 0.0
C113 C 0.18216 0.45456 0.34072 0.0
C114 C 0.19941 0.47516 0.33082 0.0
C115 C 0.21034 0.47433 0.30636 0.0
C116 C 0.18801 0.43345 0.30144 0.0
H117 H 0.22317 0.49064 0.2998 0.0
H118 H 0.18299 0.41684 0.29102 0.0
H119 H 0.22164 0.41582 0.21676 0.0
H120 H 0.25324 0.48924 0.21769 0.0
C121 C 0.24871 0.51078 0.26012 0.0
C122 C 0.17455 0.45153 0.2134 0.0
C123 C 0.26473 0.45489 0.30209 0.0
C124 C 0.19203 0.39553 0.2521 0.0
H125 H 0.18421 0.49802 0.20639 0.0
H126 H 0.22482 0.53066 0.2319 0.0
H127 H 0.29312 0.53298 0.29171 0.0
H128 H 0.30169 0.50222 0.31467 0.0
H129 H 0.25374 0.4084 0.31208 0.0
H130 H 0.21402 0.37572 0.28467 0.0
H131 H 0.14884 0.37327 0.21757 0.0
H132 H 0.13938 0.40421 0.19674 0.0
H133 H 0.24123 0.41486 0.17549 0.0
H134 H 0.27344 0.48937 0.17671 0.0
H135 H 0.16351 0.41705 0.33282 0.0
H136 H 0.20411 0.49195 0.34145 0.0
C137 C 0.73788 0.19355 0.71616 0.0
C138 C 0.71708 0.19239 0.70714 0.0
C139 C 0.71435 0.20708 0.72608 0.0
C140 C 0.73352 0.2164 0.74558 0.0
N141 N 0.74831 0.20874 0.73977 0.0
Co142 Co 0.77731 0.21698 0.76342 0.0
N143 N 0.77828 0.24461 0.78278 0.0
C144 C 0.76041 0.2485 0.7844 0.0
C145 C 0.76692 0.26968 0.79873 0.0
C146 C 0.79034 0.27961 0.80652 0.0
C147 C 0.79672 0.26384 0.79643 0.0
N148 N 0.80604 0.22515 0.78748 0.0
C149 C 0.82198 0.24596 0.80094 0.0
C150 C 0.84001 0.24464 0.81521 0.0
C151 C 0.83501 0.22204 0.81024 0.0
C152 C 0.8143 0.21093 0.7933 0.0
N153 N 0.77671 0.1895 0.74406 0.0
C154 C 0.78864 0.17933 0.75348 0.0
C155 C 0.78485 0.16062 0.73549 0.0
C156 C 0.76928 0.15866 0.71367 0.0
C157 C 0.76429 0.17627 0.71971 0.0
N158 N 0.79586 0.23627 0.73382 0.0
C159 C 0.82326 0.26588 0.69343 0.0
C160 C 0.82935 0.25084 0.70623 0.0
C161 C 0.81531 0.23603 0.72619 0.0
C162 C 0.80303 0.26554 0.70106 0.0
C163 C 0.78969 0.25075 0.7213 0.0
N164 N 0.75849 0.1978 0.79304 0.0
C165 C 0.72414 0.1634 0.80489 0.0
C166 C 0.72715 0.17276 0.83342 0.0
C167 C 0.74716 0.19436 0.84173 0.0
C168 C 0.7627 0.20649 0.82127 0.0
C169 C 0.73981 0.17616 0.78514 0.0
H170 H 0.77763 0.22333 0.82807 0.0
H171 H 0.73624 0.16875 0.7632 0.0
H172 H 0.82034 0.2246 0.73571 0.0
H173 H 0.77456 0.25137 0.72717 0.0
C174 C 0.7396 0.23438 0.7672 0.0
C175 C 0.74535 0.1777 0.70427 0.0
C176 C 0.81998 0.26684 0.80099 0.0
C177 C 0.80523 0.18946 0.77722 0.0
H178 H 0.70477 0.18155 0.68925 0.0
H179 H 0.70025 0.21075 0.72543 0.0
H180 H 0.75627 0.27754 0.80179 0.0
H181 H 0.80144 0.29652 0.81804 0.0
H182 H 0.85529 0.25858 0.8275 0.0
H183 H 0.84592 0.21501 0.81667 0.0
H184 H 0.79272 0.1499 0.7377 0.0
H185 H 0.76188 0.14534 0.69583 0.0
H186 H 0.84478 0.25043 0.70078 0.0
H187 H 0.79782 0.27709 0.69202 0.0
H188 H 0.70943 0.14646 0.79755 0.0
H189 H 0.75036 0.20235 0.86351 0.0
C190 C 0.54308 0.73302 0.20977 0.0
C191 C 0.52132 0.71342 0.20275 0.0
C192 C 0.50558 0.71777 0.21505 0.0
C193 C 0.51855 0.73968 0.22877 0.0
N194 N 0.54161 0.74981 0.22556 0.0
Co195 Co 0.56692 0.78102 0.24325 0.0
N196 N 0.54391 0.78669 0.26316 0.0
C197 C 0.52052 0.77247 0.26156 0.0
C198 C 0.50918 0.78144 0.27653 0.0
C199 C 0.52627 0.80281 0.28814 0.0
C200 C 0.54716 0.80561 0.2796 0.0
N201 N 0.59227 0.81199 0.26153 0.0
C202 C 0.59094 0.82839 0.27845 0.0
C203 C 0.61279 0.84754 0.28645 0.0
C204 C 0.62848 0.84325 0.27384 0.0
C205 C 0.61539 0.82178 0.25899 0.0
N206 N 0.58984 0.77554 0.22282 0.0
C207 C 0.61306 0.79027 0.22318 0.0
C208 C 0.62431 0.78143 0.20774 0.0
C209 C 0.60733 0.75963 0.19714 0.0
C210 C 0.58662 0.75644 0.20677 0.0
N211 N 0.56299 0.79629 0.20963 0.0
C212 C 0.55751 0.81898 0.16301 0.0
C213 C 0.57961 0.82524 0.17525 0.0
C214 C 0.58193 0.81374 0.19827 0.0
C215 C 0.5382 0.80091 0.17416 0.0
C216 C 0.54131 0.78993 0.1973 0.0
N217 N 0.57085 0.76557 0.27659 0.0
C218 C 0.59459 0.75419 0.30425 0.0
C219 C 0.57502 0.73705 0.31606 0.0
C220 C 0.55365 0.73563 0.30956 0.0
C221 C 0.55197 0.75 0.28995 0.0
C222 C 0.59217 0.76839 0.28502 0.0
H223 H 0.53508 0.74756 0.28512 0.0
H224 H 0.60769 0.78099 0.27651 0.0
H225 H 0.59924 0.81941 0.2066 0.0
H226 H 0.52588 0.77654 0.20502 0.0
C227 C 0.50968 0.7509 0.24554 0.0
C228 C 0.56461 0.73453 0.20163 0.0
C229 C 0.56947 0.8269 0.28683 0.0
C230 C 0.62408 0.81123 0.24065 0.0
H231 H 0.5173 0.69747 0.19041 0.0
H232 H 0.48696 0.70617 0.21457 0.0
H233 H 0.49066 0.77352 0.27842 0.0
H234 H 0.5236 0.8151 0.30106 0.0
H235 H 0.61689 0.86317 0.29962 0.0
H236 H 0.64715 0.85469 0.27473 0.0
H237 H 0.64279 0.7895 0.20545 0.0
H238 H 0.61 0.74722 0.1845 0.0
H239 H 0.59512 0.83897 0.16709 0.0
H240 H 0.5207 0.79562 0.16559 0.0
H241 H 0.61161 0.75629 0.30934 0.0
H242 H 0.53802 0.72268 0.3184 0.0
C243 C 0.76471 0.59625 0.72631 0.0
C244 C 0.77037 0.6182 0.71853 0.0
C245 C 0.78969 0.63378 0.73585 0.0
C246 C 0.7947 0.62049 0.75312 0.0
N247 N 0.77995 0.59734 0.74752 0.0
Co248 Co 0.78015 0.57169 0.76817 0.0
N249 N 0.80569 0.59459 0.79715 0.0
C250 C 0.81576 0.61805 0.7989 0.0
C251 C 0.83279 0.62915 0.82115 0.0
C252 C 0.83379 0.61175 0.83427 0.0
C253 C 0.81733 0.59099 0.81909 0.0
N254 N 0.78083 0.54599 0.78817 0.0
C255 C 0.79522 0.54704 0.81051 0.0
C256 C 0.79068 0.52499 0.81657 0.0
C257 C 0.77289 0.50949 0.79732 0.0
C258 C 0.76768 0.52285 0.78056 0.0
N259 N 0.75394 0.54877 0.73992 0.0
C260 C 0.74325 0.52527 0.73861 0.0
C261 C 0.72481 0.51419 0.71809 0.0
C262 C 0.72322 0.53164 0.70604 0.0
C263 C 0.74087 0.5524 0.71999 0.0
N264 N 0.80356 0.57228 0.74277 0.0
C265 C 0.83784 0.57252 0.70939 0.0
C266 C 0.81651 0.55219 0.7107 0.0
C267 C 0.7998 0.55244 0.72742 0.0
C268 C 0.8416 0.59284 0.72458 0.0
C269 C 0.82431 0.59238 0.7408 0.0
N270 N 0.75683 0.57114 0.7934 0.0
C271 C 0.72141 0.54949 0.8168 0.0
C272 C 0.72125 0.5699 0.82463 0.0
C273 C 0.73952 0.59101 0.81741 0.0
C274 C 0.75717 0.59126 0.80219 0.0
C275 C 0.73919 0.55048 0.8012 0.0
H276 H 0.77071 0.60791 0.7974 0.0
H277 H 0.73803 0.53428 0.79519 0.0
H278 H 0.78414 0.53626 0.72781 0.0
H279 H 0.82828 0.6085 0.75173 0.0
C280 C 0.81052 0.62918 0.77759 0.0
C281 C 0.74375 0.57502 0.71465 0.0
C282 C 0.81415 0.56843 0.82557 0.0
C283 C 0.7504 0.51415 0.75772 0.0
H284 H 0.76095 0.62252 0.70279 0.0
H285 H 0.79822 0.65258 0.7369 0.0
H286 H 0.84372 0.6477 0.82657 0.0
H287 H 0.84565 0.61406 0.85251 0.0
H288 H 0.79954 0.52052 0.83287 0.0
H289 H 0.7649 0.49072 0.79552 0.0
H290 H 0.71347 0.49564 0.7131 0.0
H291 H 0.71017 0.52936 0.68938 0.0
H292 H 0.81289 0.53594 0.69945 0.0
H293 H 0.85779 0.6091 0.72386 0.0
H294 H 0.7075 0.53272 0.82193 0.0
H295 H 0.74021 0.60727 0.82351 0.0
C296 C 0.23521 0.8103 0.30867 0.0
C297 C 0.23098 0.82614 0.3237 0.0
C298 C 0.21054 0.82328 0.31121 0.0
C299 C 0.20345 0.80588 0.28942 0.0
N300 N 0.2182 0.79771 0.28745 0.0
Co301 Co 0.21473 0.77259 0.25947 0.0
N302 N 0.19251 0.77618 0.23342 0.0
C303 C 0.181 0.78733 0.2405 0.0
C304 C 0.1673 0.78757 0.21774 0.0
C305 C 0.17012 0.77557 0.19506 0.0
C306 C 0.18525 0.76842 0.20537 0.0
N307 N 0.21108 0.74722 0.23174 0.0
C308 C 0.20172 0.74129 0.20408 0.0
C309 C 0.20175 0.72147 0.19309 0.0
C310 C 0.21127 0.71484 0.21467 0.0
C311 C 0.21648 0.73078 0.23763 0.0
N312 N 0.23701 0.76911 0.28555 0.0
C313 C 0.23984 0.75049 0.2857 0.0
C314 C 0.25702 0.75347 0.30587 0.0
C315 C 0.26539 0.77528 0.31934 0.0
C316 C 0.25262 0.7843 0.30669 0.0
N317 N 0.18888 0.74966 0.27961 0.0
C318 C 0.15354 0.71469 0.30844 0.0
C319 C 0.1738 0.73272 0.32369 0.0
C320 C 0.19107 0.75004 0.30897 0.0
C321 C 0.15115 0.71504 0.27842 0.0
C322 C 0.16897 0.73257 0.26447 0.0
N323 N 0.24063 0.79542 0.23943 0.0
C324 C 0.27601 0.80667 0.21666 0.0
C325 C 0.278 0.82803 0.21095 0.0
C326 C 0.2609 0.83276 0.21997 0.0
C327 C 0.24232 0.81619 0.234 0.0
C328 C 0.25732 0.79071 0.23099 0.0
H329 H 0.22929 0.82018 0.24041 0.0
H330 H 0.25643 0.77455 0.23531 0.0
H331 H 0.2065 0.76347 0.32139 0.0
H332 H 0.16676 0.73203 0.24134 0.0
C333 C 0.18607 0.8001 0.26725 0.0
C334 C 0.25465 0.80662 0.31606 0.0
C335 C 0.18997 0.75198 0.18898 0.0
C336 C 0.22925 0.73273 0.26338 0.0
H337 H 0.24156 0.83844 0.34173 0.0
H338 H 0.20243 0.83343 0.31654 0.0
H339 H 0.157 0.796 0.21742 0.0
H340 H 0.16157 0.77203 0.17356 0.0
H341 H 0.19506 0.71228 0.17196 0.0
H342 H 0.21441 0.70038 0.21354 0.0
H343 H 0.26347 0.74168 0.30945 0.0
H344 H 0.2793 0.7835 0.3364 0.0
H345 H 0.17675 0.73319 0.34682 0.0
H346 H 0.13568 0.70183 0.26565 0.0
H347 H 0.28897 0.8024 0.2104 0.0
H348 H 0.26165 0.84896 0.2158 0.0
C349 C 0.42508 0.23954 0.77513 0.0
C350 C 0.40306 0.23547 0.78037 0.0
C351 C 0.38765 0.21749 0.76121 0.0
C352 C 0.40105 0.2115 0.74556 0.0
N353 N 0.42412 0.22456 0.75355 0.0
Co354 Co 0.44966 0.22109 0.73715 0.0
N355 N 0.42707 0.19541 0.70795 0.0
C356 C 0.40385 0.1869 0.70395 0.0
C357 C 0.39299 0.1698 0.68175 0.0
C358 C 0.41028 0.16724 0.67082 0.0
C359 C 0.43077 0.18292 0.68716 0.0
N360 N 0.47514 0.2172 0.72134 0.0
C361 C 0.47421 0.2022 0.69984 0.0
C362 C 0.49596 0.20473 0.69659 0.0
C363 C 0.51121 0.22206 0.71651 0.0
C364 C 0.49797 0.229 0.73087 0.0
N365 N 0.47237 0.24725 0.76573 0.0
C366 C 0.49575 0.2566 0.76867 0.0
C367 C 0.50694 0.27505 0.78912 0.0
C368 C 0.48973 0.27779 0.79989 0.0
C369 C 0.46888 0.26061 0.78549 0.0
N370 N 0.4452 0.19797 0.7652 0.0
C371 C 0.43934 0.16365 0.80235 0.0
C372 C 0.46105 0.1836 0.80124 0.0
C373 C 0.46357 0.20038 0.78264 0.0
C374 C 0.42049 0.16145 0.78518 0.0
C375 C 0.42375 0.17874 0.76709 0.0
N376 N 0.45407 0.24402 0.70894 0.0
C377 C 0.47922 0.27542 0.68097 0.0
C378 C 0.46007 0.27509 0.66686 0.0
C379 C 0.4379 0.25918 0.67448 0.0
C380 C 0.43533 0.24397 0.69539 0.0
C381 C 0.47587 0.25993 0.70186 0.0
H382 H 0.41797 0.23219 0.70003 0.0
H383 H 0.49115 0.2611 0.71188 0.0
H384 H 0.48064 0.21497 0.78248 0.0
H385 H 0.40866 0.17599 0.75466 0.0
C386 C 0.39262 0.19462 0.72221 0.0
C387 C 0.44632 0.25794 0.79113 0.0
C388 C 0.45324 0.1852 0.6821 0.0
C389 C 0.50665 0.24727 0.75242 0.0
H390 H 0.3986 0.24466 0.79628 0.0
H391 H 0.36894 0.20989 0.75873 0.0
H392 H 0.37464 0.1602 0.67454 0.0
H393 H 0.40808 0.15516 0.65288 0.0
H394 H 0.50042 0.19507 0.68137 0.0
H395 H 0.52978 0.22893 0.71995 0.0
H396 H 0.52542 0.2853 0.79542 0.0
H397 H 0.49234 0.29106 0.81641 0.0
H398 H 0.4762 0.18599 0.81406 0.0
H399 H 0.40325 0.14644 0.7857 0.0
H400 H 0.49678 0.28773 0.67616 0.0
H401 H 0.4225 0.25815 0.664 0.0
C402 C 0.02789 0.4783 0.0773 0.0
C403 C 0.03532 0.48605 0.05018 0.0
C404 C 0.04043 0.47138 0.09521 0.0
C405 C 0.08452 0.45285 0.09428 0.0
H406 H 0.09764 0.47535 0.17514 0.0
C407 C 0.15932 0.4561 0.16563 0.0
C408 C 0.15577 0.45106 0.19441 0.0
C409 C 0.1424 0.45737 0.1482 0.0
C410 C 0.09383 0.46859 0.15272 0.0
H411 H 0.06163 0.49232 0.02053 0.0
H412 H 0.08346 0.48051 0.05172 0.0
H413 H 0.07194 0.48303 0.14446 0.0
H414 H 0.13199 0.44297 0.22769 0.0
H415 H 0.1021 0.445 0.19714 0.0
H416 H 0.10676 0.43879 0.1024 0.0
C417 C 0.06782 0.47948 0.05908 0.0
C418 C 0.07909 0.473 0.13512 0.0
C419 C 0.05536 0.48643 0.04125 0.0
C420 C 0.13493 0.44685 0.20546 0.0
C421 C 0.11799 0.44817 0.18805 0.0
C422 C 0.09925 0.44845 0.11185 0.0
C423 C 0.06059 0.47197 0.08633 0.0
C424 C 0.07458 0.46552 0.10558 0.0
C425 C 0.12163 0.45368 0.15928 0.0
C426 C 0.1044 0.4566 0.14117 0.0
H427 H 0.01249 0.47774 0.08481 0.0
H428 H 0.03428 0.46549 0.11598 0.0
H429 H 0.08104 0.44645 0.07173 0.0
H430 H 0.17541 0.45952 0.15687 0.0
H431 H 0.14591 0.46196 0.12629 0.0
C432 C 0.5841 0.04355 0.53751 0.0
C433 C 0.56555 0.02412 0.54829 0.0
C434 C 0.60525 0.05681 0.55405 0.0
C435 C 0.62901 0.07254 0.62923 0.0
H436 H 0.68829 0.10197 0.59548 0.0
C437 C 0.71364 0.1363 0.69725 0.0
C438 C 0.72801 0.15722 0.68517 0.0
C439 C 0.69555 0.11753 0.6803 0.0
C440 C 0.67185 0.09392 0.60515 0.0
H441 H 0.55495 0.00284 0.58451 0.0
H442 H 0.59211 0.02607 0.61349 0.0
H443 H 0.65324 0.07272 0.56635 0.0
H444 H 0.73524 0.17518 0.64629 0.0
H445 H 0.70326 0.14229 0.61634 0.0
H446 H 0.64742 0.09408 0.66778 0.0
C447 C 0.5901 0.03112 0.59229 0.0
C448 C 0.6518 0.07717 0.58852 0.0
C449 C 0.56888 0.01778 0.57566 0.0
C450 C 0.72443 0.15903 0.65579 0.0
C451 C 0.70625 0.14022 0.63876 0.0
C452 C 0.64903 0.08924 0.64585 0.0
C453 C 0.60839 0.05097 0.58178 0.0
C454 C 0.6301 0.06661 0.60024 0.0
C455 C 0.69136 0.11942 0.65101 0.0
C456 C 0.6706 0.10038 0.63386 0.0
H457 H 0.58219 0.04889 0.51646 0.0
H458 H 0.61884 0.07216 0.54546 0.0
H459 H 0.61252 0.06503 0.63877 0.0
H460 H 0.71607 0.13471 0.72001 0.0
H461 H 0.68456 0.10167 0.69026 0.0
C462 C 0.51784 0.5643 0.04846 0.0
C463 C 0.5124 0.54311 0.05969 0.0
C464 C 0.5274 0.58484 0.06644 0.0
C465 C 0.52976 0.6069 0.14021 0.0
H466 H 0.57846 0.66479 0.11504 0.0
C467 C 0.56093 0.69545 0.20452 0.0
C468 C 0.56385 0.71357 0.1879 0.0
C469 C 0.5581 0.67477 0.19128 0.0
C470 C 0.56477 0.64881 0.12233 0.0
H471 H 0.51299 0.52692 0.09871 0.0
H472 H 0.5295 0.56307 0.13047 0.0
H473 H 0.56728 0.62804 0.08771 0.0
H474 H 0.5663 0.72477 0.14485 0.0
H475 H 0.5611 0.68861 0.12145 0.0
H476 H 0.52658 0.62769 0.17418 0.0
C477 C 0.52636 0.56362 0.10758 0.0
C478 C 0.55844 0.62775 0.10673 0.0
C479 C 0.51701 0.54298 0.08943 0.0
C480 C 0.56433 0.71102 0.15799 0.0
C481 C 0.56145 0.69036 0.14471 0.0
C482 C 0.53601 0.62801 0.15576 0.0
C483 C 0.53162 0.58475 0.09621 0.0
C484 C 0.54049 0.60662 0.11509 0.0
C485 C 0.55803 0.67185 0.16115 0.0
C486 C 0.55322 0.64927 0.14661 0.0
H487 H 0.51463 0.56508 0.02564 0.0
H488 H 0.53094 0.60074 0.05706 0.0
H489 H 0.51573 0.59091 0.14703 0.0
H490 H 0.56044 0.69717 0.22768 0.0
H491 H 0.55577 0.66101 0.20461 0.0
C492 C 0.98684 0.54572 0.59736 0.0
C493 C 0.97736 0.53213 0.57095 0.0
C494 C 0.97447 0.55424 0.61212 0.0
C495 C 0.92453 0.56435 0.60261 0.0
H496 H 0.92171 0.55811 0.68482 0.0
C497 C 0.85048 0.56051 0.66518 0.0
C498 C 0.85617 0.5723 0.69279 0.0
C499 C 0.86749 0.55925 0.65013 0.0
C500 C 0.9226 0.56031 0.66195 0.0
H501 H 0.94762 0.5172 0.53911 0.0
H502 H 0.92602 0.53162 0.56496 0.0
H503 H 0.94776 0.54947 0.65883 0.0
H504 H 0.88415 0.59223 0.7262 0.0
H505 H 0.91395 0.59 0.69983 0.0
H506 H 0.89875 0.57442 0.60565 0.0
C507 C 0.94314 0.53609 0.57412 0.0
C508 C 0.93756 0.5554 0.64705 0.0
C509 C 0.95549 0.52764 0.55938 0.0
C510 C 0.87932 0.58317 0.70486 0.0
C511 C 0.8963 0.58174 0.68989 0.0
C512 C 0.90949 0.56912 0.61748 0.0
C513 C 0.95237 0.54933 0.60077 0.0
C514 C 0.93837 0.55693 0.6171 0.0
C515 C 0.89052 0.56961 0.66246 0.0
C516 C 0.90807 0.56675 0.6472 0.0
H517 H 0.00371 0.54958 0.60679 0.0
H518 H 0.98219 0.56462 0.63245 0.0
H519 H 0.92508 0.56616 0.57965 0.0
H520 H 0.83282 0.55215 0.65526 0.0
H521 H 0.86246 0.54959 0.62915 0.0
C522 C 0.43137 0.94394 0.05717 0.0
C523 C 0.44764 0.96732 0.0662 0.0
C524 C 0.41396 0.93015 0.07461 0.0
C525 C 0.37942 0.93168 0.13235 0.0
H526 H 0.36858 0.86964 0.14229 0.0
C527 C 0.30998 0.86889 0.20496 0.0
C528 C 0.2977 0.84508 0.19543 0.0
C529 C 0.32893 0.88473 0.19069 0.0
C530 C 0.37111 0.88678 0.13947 0.0
H531 H 0.45807 0.99464 0.10058 0.0
H532 H 0.42717 0.97044 0.13104 0.0
H533 H 0.40034 0.89568 0.11488 0.0
H534 H 0.29515 0.81938 0.16285 0.0
H535 H 0.32767 0.84688 0.13761 0.0
H536 H 0.34975 0.92256 0.15624 0.0
C537 C 0.42812 0.96288 0.1104 0.0
C538 C 0.38943 0.90175 0.12386 0.0
C539 C 0.44584 0.97668 0.09303 0.0
C540 C 0.30451 0.83754 0.17104 0.0
C541 C 0.32326 0.85335 0.15664 0.0
C542 C 0.36088 0.91657 0.14777 0.0
C543 C 0.41215 0.93939 0.10144 0.0
C544 C 0.39364 0.92426 0.11982 0.0
C545 C 0.33591 0.87714 0.16639 0.0
C546 C 0.35629 0.89379 0.15122 0.0
H547 H 0.4322 0.9361 0.03667 0.0
H548 H 0.40174 0.9122 0.06695 0.0
H549 H 0.38216 0.94888 0.12941 0.0
H550 H 0.30527 0.8752 0.22386 0.0
H551 H 0.33836 0.90283 0.19906 0.0
C552 C 0.47647 0.42745 0.52534 0.0
C553 C 0.49346 0.43697 0.50554 0.0
C554 C 0.47131 0.40667 0.53693 0.0
C555 C 0.49835 0.37291 0.55582 0.0
H556 H 0.43567 0.32714 0.57167 0.0
C557 C 0.47927 0.29574 0.62381 0.0
C558 C 0.46313 0.29125 0.64446 0.0
C559 C 0.48211 0.311 0.60275 0.0
C560 C 0.45328 0.33982 0.56752 0.0
H561 H 0.51782 0.43177 0.48158 0.0
H562 H 0.50891 0.3953 0.50224 0.0
H563 H 0.44169 0.35788 0.54075 0.0
H564 H 0.43755 0.29948 0.65942 0.0
H565 H 0.4426 0.32618 0.62293 0.0
H566 H 0.51002 0.35542 0.58346 0.0
C567 C 0.49963 0.40406 0.50869 0.0
C568 C 0.45671 0.35734 0.54972 0.0
C569 C 0.50463 0.42482 0.49678 0.0
C570 C 0.44986 0.30229 0.64355 0.0
C571 C 0.45272 0.31754 0.62256 0.0
C572 C 0.49492 0.35542 0.57373 0.0
C573 C 0.48313 0.39497 0.52919 0.0
C574 C 0.47931 0.37441 0.54427 0.0
C575 C 0.46888 0.3221 0.60192 0.0
C576 C 0.47238 0.33903 0.58036 0.0
H577 H 0.46748 0.43634 0.53242 0.0
H578 H 0.45872 0.40028 0.55292 0.0
H579 H 0.51598 0.38598 0.55226 0.0
H580 H 0.48952 0.28725 0.62371 0.0
H581 H 0.49453 0.31396 0.58699 0.0
C582 C 0.5387 0.97902 0.4015 0.0
C583 C 0.53344 0.97386 0.43003 0.0
C584 C 0.54594 0.96621 0.38449 0.0
C585 C 0.57066 0.92733 0.38998 0.0
H586 H 0.54097 0.90248 0.31286 0.0
C587 C 0.56832 0.84773 0.33226 0.0
C588 C 0.57008 0.84718 0.30244 0.0
C589 C 0.56698 0.86587 0.34667 0.0
C590 C 0.54974 0.90959 0.33417 0.0
H591 H 0.53203 0.95142 0.46311 0.0
H592 H 0.54449 0.92933 0.43368 0.0
H593 H 0.53312 0.92981 0.33988 0.0
H594 H 0.57227 0.86497 0.26414 0.0
H595 H 0.57014 0.89702 0.28933 0.0
H596 H 0.58691 0.9068 0.38459 0.0
C597 C 0.54325 0.94331 0.42441 0.0
C598 C 0.54524 0.92527 0.34965 0.0
C599 C 0.5359 0.95591 0.44124 0.0
C600 C 0.57097 0.86522 0.28723 0.0
C601 C 0.56958 0.88338 0.30161 0.0
C602 C 0.57517 0.91171 0.37454 0.0
C603 C 0.5483 0.94821 0.39582 0.0
C604 C 0.55523 0.93389 0.37798 0.0
C605 C 0.56734 0.88381 0.33148 0.0
C606 C 0.56438 0.90224 0.34669 0.0
H607 H 0.53697 0.99273 0.39222 0.0
H608 H 0.5498 0.97045 0.36254 0.0
H609 H 0.57898 0.93401 0.41157 0.0
H610 H 0.56744 0.83382 0.34424 0.0
H611 H 0.56492 0.86545 0.36957 0.0
C612 C 0.53982 0.53676 0.92143 0.0
C613 C 0.53594 0.52329 0.94505 0.0
C614 C 0.56098 0.54596 0.90873 0.0
C615 C 0.62184 0.55867 0.92279 0.0
H616 H 0.62113 0.55351 0.83948 0.0
C617 C 0.69403 0.55589 0.86357 0.0
C618 C 0.70183 0.569 0.83968 0.0
C619 C 0.67502 0.55415 0.87701 0.0
C620 C 0.62163 0.55539 0.86276 0.0
H621 H 0.55119 0.50885 0.97375 0.0
H622 H 0.58752 0.52435 0.95143 0.0
H623 H 0.58517 0.54344 0.86179 0.0
H624 H 0.69602 0.59062 0.81107 0.0
H625 H 0.66243 0.58731 0.83446 0.0
H626 H 0.65808 0.56964 0.92372 0.0
C627 C 0.57458 0.52834 0.94303 0.0
C628 C 0.60107 0.54969 0.87555 0.0
C629 C 0.5536 0.51926 0.9557 0.0
C630 C 0.69042 0.58055 0.82962 0.0
C631 C 0.67117 0.57854 0.84283 0.0
C632 C 0.64229 0.56415 0.91002 0.0
C633 C 0.57859 0.54184 0.91944 0.0
C634 C 0.60084 0.55071 0.90573 0.0
C635 C 0.66327 0.56526 0.86659 0.0
C636 C 0.64227 0.56207 0.87992 0.0
H637 H 0.52657 0.54022 0.91278 0.0
H638 H 0.5636 0.55641 0.89067 0.0
H639 H 0.62238 0.56019 0.94609 0.0
H640 H 0.70262 0.54692 0.8718 0.0
H641 H 0.66913 0.54359 0.89511 0.0
C642 C 0.01829 0.54049 0.42623 0.0
C643 C 0.02073 0.54439 0.45642 0.0
C644 C 0.03087 0.55891 0.40918 0.0
C645 C 0.08309 0.61864 0.41528 0.0
H646 H 0.05988 0.62164 0.33865 0.0
C647 C 0.13095 0.69947 0.35191 0.0
C648 C 0.13553 0.69531 0.32372 0.0
C649 C 0.11549 0.68108 0.3671 0.0
C650 C 0.06657 0.62094 0.36 0.0
H651 H 0.03714 0.57079 0.49232 0.0
H652 H 0.05807 0.60288 0.46283 0.0
H653 H 0.03524 0.58967 0.36719 0.0
H654 H 0.12671 0.66828 0.28932 0.0
H655 H 0.0992 0.63637 0.31565 0.0
H656 H 0.11419 0.65016 0.40827 0.0
C657 C 0.04733 0.58557 0.45214 0.0
C658 C 0.05252 0.60257 0.37634 0.0
C659 C 0.03514 0.56717 0.46912 0.0
C660 C 0.12346 0.6723 0.31079 0.0
C661 C 0.10773 0.65394 0.32589 0.0
C662 C 0.09693 0.63712 0.39916 0.0
C663 C 0.04587 0.58167 0.42196 0.0
C664 C 0.06059 0.60118 0.40427 0.0
C665 C 0.10393 0.6581 0.35439 0.0
C666 C 0.08885 0.63849 0.37137 0.0
H667 H 0.00738 0.52309 0.41585 0.0
H668 H 0.02939 0.55511 0.38607 0.0
H669 H 0.09029 0.61794 0.43628 0.0
H670 H 0.13941 0.71694 0.3624 0.0
H671 H 0.11262 0.68483 0.38891 0.0
C672 C 0.46311 0.03983 0.96424 0.0
C673 C 0.45812 0.01769 0.95299 0.0
C674 C 0.45599 0.05284 0.94861 0.0
C675 C 0.44114 0.05906 0.87383 0.0
H676 H 0.42587 0.10266 0.91065 0.0
C677 C 0.42399 0.12151 0.80939 0.0
C678 C 0.43658 0.14493 0.82056 0.0
C679 C 0.4226 0.10396 0.82586 0.0
C680 C 0.43012 0.09056 0.9001 0.0
H681 H 0.44067 0.99134 0.91714 0.0
H682 H 0.42783 0.01392 0.89004 0.0
H683 H 0.42964 0.07471 0.93909 0.0
H684 H 0.45685 0.16827 0.85806 0.0
H685 H 0.45448 0.13759 0.88684 0.0
H686 H 0.4419 0.07513 0.83494 0.0
C687 C 0.4377 0.02141 0.91071 0.0
C688 C 0.43232 0.07459 0.91636 0.0
C689 C 0.44494 0.00841 0.92632 0.0
C690 C 0.4472 0.15039 0.84882 0.0
C691 C 0.44564 0.13281 0.86538 0.0
C692 C 0.43877 0.07491 0.85754 0.0
C693 C 0.44357 0.04398 0.92141 0.0
C694 C 0.43837 0.05899 0.90356 0.0
C695 C 0.4336 0.10946 0.85392 0.0
C696 C 0.43371 0.09114 0.87064 0.0
H697 H 0.47325 0.04753 0.98471 0.0
H698 H 0.46113 0.07026 0.95737 0.0
H699 H 0.44617 0.04758 0.86332 0.0
H700 H 0.41577 0.11681 0.78759 0.0
H701 H 0.41309 0.08609 0.81655 0.0
C702 C 0.43682 0.47565 0.43755 0.0
C703 C 0.44234 0.48709 0.46541 0.0
C704 C 0.41645 0.47068 0.42141 0.0
C705 C 0.35852 0.46471 0.42556 0.0
H706 H 0.36504 0.47801 0.34535 0.0
C707 C 0.286 0.46461 0.35112 0.0
C708 C 0.28319 0.45588 0.3223 0.0
C709 C 0.30445 0.46717 0.36963 0.0
C710 C 0.3628 0.47387 0.36757 0.0
H711 H 0.43029 0.50158 0.49851 0.0
H712 H 0.39458 0.49296 0.47007 0.0
H713 H 0.39879 0.48479 0.37599 0.0
H714 H 0.29682 0.44254 0.29012 0.0
H715 H 0.32888 0.44652 0.32249 0.0
H716 H 0.32243 0.45382 0.417 0.0
C717 C 0.40608 0.48776 0.46087 0.0
C718 C 0.38218 0.4778 0.38518 0.0
C719 C 0.42656 0.49277 0.47711 0.0
C720 C 0.29873 0.44927 0.31234 0.0
C721 C 0.31713 0.45176 0.33081 0.0
C722 C 0.33904 0.46072 0.40787 0.0
C723 C 0.40103 0.47704 0.43263 0.0
C724 C 0.38027 0.47315 0.41433 0.0
C725 C 0.32042 0.46105 0.35959 0.0
C726 C 0.34095 0.46515 0.37861 0.0
H727 H 0.44843 0.47079 0.42792 0.0
H728 H 0.41286 0.46197 0.39997 0.0
H729 H 0.35645 0.46078 0.44786 0.0
H730 H 0.27419 0.4699 0.3591 0.0
H731 H 0.3066 0.47459 0.39153 0.0
C732 C 0.98806 0.45369 0.90003 0.0
C733 C 0.98525 0.45529 0.9296 0.0
C734 C 0.97373 0.43284 0.88293 0.0
C735 C 0.9328 0.36981 0.88743 0.0
H736 H 0.9008 0.37415 0.81832 0.0
C737 C 0.84354 0.29548 0.84241 0.0
C738 C 0.83997 0.28939 0.81267 0.0
C739 C 0.86363 0.31563 0.85395 0.0
C740 C 0.90985 0.37267 0.83732 0.0
H741 H 0.96611 0.43608 0.96469 0.0
H742 H 0.94135 0.40006 0.93513 0.0
H743 H 0.93339 0.4095 0.84338 0.0
H744 H 0.85393 0.29914 0.77142 0.0
H745 H 0.88923 0.33495 0.7916 0.0
H746 H 0.90872 0.33316 0.88206 0.0
C747 C 0.95455 0.41471 0.92502 0.0
C748 C 0.92855 0.39286 0.85159 0.0
C749 C 0.96865 0.43546 0.94194 0.0
C750 C 0.85643 0.30384 0.79444 0.0
C751 C 0.87651 0.32418 0.80596 0.0
C752 C 0.91409 0.34971 0.87329 0.0
C753 C 0.95663 0.41324 0.89525 0.0
C754 C 0.93974 0.39169 0.8773 0.0
C755 C 0.88045 0.33005 0.83589 0.0
C756 C 0.902 0.35102 0.8486 0.0
H757 H 0.00071 0.46872 0.88994 0.0
H758 H 0.97578 0.43214 0.86006 0.0
H759 H 0.94138 0.36831 0.90687 0.0
H760 H 0.831 0.28434 0.85672 0.0
H761 H 0.86605 0.31993 0.87705 0.0
C762 C 0.96322 0.53598 0.9389 0.0
C763 C 0.95841 0.52535 0.96498 0.0
C764 C 0.9479 0.54185 0.92554 0.0
C765 C 0.89978 0.55282 0.93791 0.0
H766 H 0.88745 0.53973 0.85492 0.0
C767 C 0.82703 0.55884 0.87175 0.0
C768 C 0.83202 0.56724 0.84446 0.0
C769 C 0.84298 0.55525 0.88804 0.0
C770 C 0.89094 0.54381 0.87805 0.0
H771 H 0.93382 0.5129 0.99772 0.0
H772 H 0.90683 0.52302 0.97411 0.0
H773 H 0.91372 0.52995 0.88034 0.0
H774 H 0.85759 0.57951 0.81309 0.0
H775 H 0.88578 0.5737 0.84167 0.0
H776 H 0.8768 0.5666 0.93547 0.0
C777 C 0.92263 0.52695 0.96419 0.0
C778 C 0.90598 0.53816 0.89264 0.0
C779 C 0.93803 0.52105 0.97763 0.0
C780 C 0.85348 0.57295 0.83412 0.0
C781 C 0.86944 0.56942 0.85036 0.0
C782 C 0.88468 0.55849 0.92326 0.0
C783 C 0.92732 0.53722 0.93783 0.0
C784 C 0.91073 0.54273 0.9227 0.0
C785 C 0.86417 0.56004 0.87724 0.0
C786 C 0.88022 0.55419 0.89311 0.0
H787 H 0.97884 0.53974 0.92862 0.0
H788 H 0.95226 0.55013 0.90554 0.0
H789 H 0.90325 0.55674 0.96105 0.0
H790 H 0.81047 0.55431 0.87997 0.0
H791 H 0.83833 0.54788 0.90854 0.0
C792 C 0.42505 0.92897 0.48581 0.0
C793 C 0.44013 0.94887 0.47225 0.0
C794 C 0.40239 0.91381 0.47348 0.0
C795 C 0.35797 0.90985 0.41836 0.0
H796 H 0.33675 0.84381 0.41256 0.0
C797 C 0.29031 0.84496 0.32973 0.0
C798 C 0.27355 0.82313 0.33755 0.0
C799 C 0.30835 0.86059 0.34983 0.0
C800 C 0.34227 0.86217 0.4144 0.0
H801 H 0.44311 0.96867 0.43541 0.0
H802 H 0.4041 0.94223 0.41386 0.0
H803 H 0.37256 0.87076 0.44201 0.0
H804 H 0.26132 0.80071 0.37242 0.0
H805 H 0.29326 0.82791 0.40765 0.0
H806 H 0.32816 0.90128 0.38974 0.0
C807 C 0.40947 0.93844 0.43422 0.0
C808 C 0.36274 0.8776 0.43133 0.0
C809 C 0.43198 0.95352 0.44648 0.0
C810 C 0.2745 0.81733 0.36591 0.0
C811 C 0.29266 0.83285 0.38596 0.0
C812 C 0.33763 0.89445 0.40129 0.0
C813 C 0.39444 0.91833 0.44742 0.0
C814 C 0.37112 0.90168 0.43291 0.0
C815 C 0.30985 0.85456 0.37804 0.0
C816 C 0.32988 0.87053 0.39863 0.0
H817 H 0.43079 0.92497 0.50575 0.0
H818 H 0.39114 0.89854 0.48428 0.0
H819 H 0.3637 0.92825 0.41964 0.0
H820 H 0.2896 0.84976 0.30798 0.0
H821 H 0.32147 0.87715 0.3431 0.0
C822 C 0.45632 0.42212 0.93414 0.0
C823 C 0.46618 0.42642 0.96272 0.0
C824 C 0.45239 0.40252 0.91701 0.0
C825 C 0.44608 0.34432 0.91807 0.0
H826 H 0.46563 0.3555 0.84058 0.0
C827 C 0.45086 0.27549 0.84162 0.0
C828 C 0.44526 0.2749 0.81206 0.0
C829 C 0.45187 0.29281 0.86092 0.0
C830 C 0.45971 0.35193 0.86197 0.0
H831 H 0.47887 0.4129 0.996 0.0
H832 H 0.47195 0.37846 0.96588 0.0
H833 H 0.47022 0.38759 0.87281 0.0
H834 H 0.43541 0.29106 0.77945 0.0
H835 H 0.43651 0.32099 0.81312 0.0
H836 H 0.43549 0.30855 0.90709 0.0
C837 C 0.46724 0.39037 0.95687 0.0
C838 C 0.46242 0.37038 0.8805 0.0
C839 C 0.47127 0.41012 0.97408 0.0
C840 C 0.43985 0.2913 0.80218 0.0
C841 C 0.44071 0.30852 0.82146 0.0
C842 C 0.44325 0.32575 0.89942 0.0
C843 C 0.45817 0.38662 0.92796 0.0
C844 C 0.45553 0.36681 0.90871 0.0
C845 C 0.44717 0.30979 0.85101 0.0
C846 C 0.44994 0.32932 0.87106 0.0
H847 H 0.45199 0.43416 0.92468 0.0
H848 H 0.44496 0.39991 0.89501 0.0
H849 H 0.44046 0.34099 0.93962 0.0
H850 H 0.45508 0.26292 0.8496 0.0
H851 H 0.45709 0.29333 0.88344 0.0
C852 C 0.0454 0.46603 0.4852 0.0
C853 C 0.05263 0.4838 0.50752 0.0
C854 C 0.06128 0.46062 0.4739 0.0
C855 C 0.12264 0.48815 0.46214 0.0
H856 H 0.10631 0.42538 0.43509 0.0
C857 C 0.18123 0.47091 0.39006 0.0
C858 C 0.16943 0.45518 0.36569 0.0
C859 C 0.16892 0.47264 0.41258 0.0
C860 C 0.11112 0.44301 0.44248 0.0
H861 H 0.08201 0.5092 0.53633 0.0
H862 H 0.10995 0.49982 0.51628 0.0
H863 H 0.08102 0.43143 0.4662 0.0
H864 H 0.13551 0.42869 0.3461 0.0
H865 H 0.11406 0.43182 0.38517 0.0
H866 H 0.15216 0.49984 0.43746 0.0
C867 C 0.09193 0.49015 0.50756 0.0
C868 C 0.09668 0.44646 0.46035 0.0
C869 C 0.07594 0.49544 0.5191 0.0
C870 C 0.14515 0.44075 0.36474 0.0
C871 C 0.13286 0.44252 0.3872 0.0
C872 C 0.13704 0.48472 0.44419 0.0
C873 C 0.08481 0.47295 0.48451 0.0
C874 C 0.10195 0.46909 0.4697 0.0
C875 C 0.14455 0.45872 0.4112 0.0
C876 C 0.1311 0.46213 0.4335 0.0
H877 H 0.02754 0.45664 0.47591 0.0
H878 H 0.05529 0.44748 0.45593 0.0
H879 H 0.12703 0.50581 0.46872 0.0
H880 H 0.19998 0.482 0.39161 0.0
H881 H 0.17847 0.48507 0.43095 0.0
C882 C 0.55555 0.04861 0.9532 0.0
C883 C 0.55583 0.04828 0.98335 0.0
C884 C 0.57518 0.06452 0.94029 0.0
C885 C 0.63813 0.09847 0.94865 0.0
H886 H 0.63039 0.13365 0.8896 0.0
C887 C 0.71445 0.16074 0.88314 0.0
C888 C 0.7088 0.16054 0.85359 0.0
C889 C 0.69688 0.14921 0.9017 0.0
C890 C 0.63287 0.12381 0.9058 0.0
H891 H 0.5771 0.06429 0.02361 0.0
H892 H 0.61189 0.09193 0.00075 0.0
H893 H 0.59774 0.10934 0.91698 0.0
H894 H 0.68001 0.14847 0.82076 0.0
H895 H 0.64983 0.12772 0.85246 0.0
H896 H 0.67298 0.11208 0.93659 0.0
C897 C 0.59623 0.0799 0.9873 0.0
C898 C 0.61417 0.11 0.92161 0.0
C899 C 0.57634 0.06419 0.00033 0.0
C900 C 0.68517 0.14867 0.84321 0.0
C901 C 0.66773 0.13707 0.86161 0.0
C902 C 0.65684 0.11209 0.93251 0.0
C903 C 0.59574 0.08029 0.95714 0.0
C904 C 0.61645 0.09686 0.94281 0.0
C905 C 0.67326 0.13722 0.89115 0.0
C906 C 0.65429 0.12455 0.91042 0.0
H907 H 0.54003 0.03666 0.93948 0.0
H908 H 0.57438 0.06428 0.91699 0.0
H909 H 0.6403 0.0884 0.96479 0.0
H910 H 0.73243 0.16957 0.89191 0.0
H911 H 0.70183 0.14986 0.92435 0.0
C912 C 0.5347 0.57574 0.45547 0.0
C913 C 0.53864 0.55812 0.44438 0.0
C914 C 0.54303 0.59652 0.44244 0.0
C915 C 0.56138 0.62169 0.37345 0.0
H916 H 0.5816 0.6795 0.42005 0.0
C917 C 0.58802 0.70822 0.32323 0.0
C918 C 0.57649 0.71967 0.33327 0.0
C919 C 0.5874 0.69007 0.33771 0.0
C920 C 0.57601 0.66349 0.4068 0.0
H921 H 0.55478 0.54868 0.41106 0.0
H922 H 0.56966 0.58532 0.38836 0.0
H923 H 0.57368 0.64458 0.44345 0.0
H924 H 0.5561 0.72181 0.36686 0.0
H925 H 0.55514 0.69016 0.39234 0.0
H926 H 0.56354 0.64066 0.33682 0.0
C927 C 0.55983 0.58283 0.40701 0.0
C928 C 0.57141 0.64347 0.42014 0.0
C929 C 0.55138 0.56189 0.42005 0.0
C930 C 0.56504 0.7132 0.35862 0.0
C931 C 0.56465 0.69523 0.37328 0.0
C932 C 0.56619 0.64178 0.36009 0.0
C933 C 0.55566 0.60035 0.41804 0.0
C934 C 0.56344 0.62219 0.40367 0.0
C935 C 0.57547 0.68322 0.36266 0.0
C936 C 0.57302 0.66272 0.37668 0.0
H937 H 0.52486 0.57341 0.4741 0.0
H938 H 0.53904 0.60938 0.45116 0.0
H939 H 0.55505 0.60556 0.36012 0.0
H940 H 0.59677 0.7127 0.30356 0.0
H941 H 0.59598 0.68117 0.32917 0.0
C942 C 0.48073 0.0424 0.54272 0.0
C943 C 0.49314 0.04938 0.51807 0.0
C944 C 0.47529 0.05723 0.5582 0.0
C945 C 0.46991 0.10969 0.5552 0.0
H946 H 0.47811 0.11147 0.63843 0.0
C947 C 0.46539 0.17726 0.63478 0.0
C948 C 0.45471 0.1691 0.66026 0.0
C949 C 0.46887 0.16264 0.61562 0.0
C950 C 0.47542 0.11098 0.61524 0.0
H951 H 0.50892 0.07725 0.48987 0.0
H952 H 0.49958 0.10348 0.51733 0.0
H953 H 0.48697 0.08659 0.60828 0.0
H954 H 0.43858 0.13942 0.6855 0.0
H955 H 0.44431 0.11364 0.65191 0.0
H956 H 0.45849 0.13435 0.56243 0.0
C957 C 0.49396 0.08636 0.52445 0.0
C958 C 0.48054 0.09672 0.59792 0.0
C959 C 0.49938 0.07138 0.50878 0.0
C960 C 0.44686 0.14598 0.66592 0.0
C961 C 0.45033 0.13137 0.64682 0.0
C962 C 0.46481 0.12406 0.57262 0.0
C963 C 0.48219 0.07955 0.54964 0.0
C964 C 0.47761 0.09567 0.56769 0.0
C965 C 0.46178 0.13965 0.62172 0.0
C966 C 0.4673 0.12467 0.60286 0.0
H967 H 0.47533 0.02546 0.55032 0.0
H968 H 0.46571 0.05118 0.57706 0.0
H969 H 0.46732 0.10917 0.532 0.0
H970 H 0.47162 0.19513 0.63018 0.0
H971 H 0.47787 0.16961 0.59661 0.0
C972 C 0.40569 0.46017 0.02748 0.0
C973 C 0.41478 0.47645 0.00678 0.0
C974 C 0.38494 0.45512 0.03912 0.0
C975 C 0.3505 0.48204 0.05557 0.0
H976 H 0.30596 0.42022 0.07569 0.0
C977 C 0.27566 0.46649 0.12558 0.0
C978 C 0.27247 0.45206 0.14801 0.0
C979 C 0.28959 0.4676 0.10351 0.0
C980 C 0.31827 0.4376 0.07029 0.0
H981 H 0.40877 0.49961 0.98128 0.0
H982 H 0.37239 0.49086 0.00192 0.0
H983 H 0.33646 0.42531 0.0448 0.0
H984 H 0.28118 0.42728 0.16465 0.0
H985 H 0.30555 0.42932 0.1264 0.0
H986 H 0.33297 0.49449 0.08196 0.0
C987 C 0.38147 0.48207 0.0091 0.0
C988 C 0.33568 0.4405 0.05254 0.0
C989 C 0.4022 0.48698 0.9972 0.0
C990 C 0.28301 0.43832 0.14748 0.0
C991 C 0.29696 0.43946 0.12548 0.0
C992 C 0.33313 0.47916 0.07341 0.0
C993 C 0.37282 0.46633 0.0305 0.0
C994 C 0.35233 0.46281 0.04558 0.0
C995 C 0.30067 0.45434 0.10343 0.0
C996 C 0.31717 0.45697 0.08157 0.0
H997 H 0.4149 0.45167 0.03524 0.0
H998 H 0.37891 0.44313 0.05581 0.0
H999 H 0.36323 0.49948 0.05086 0.0
H1000 H 0.26748 0.47702 0.12515 0.0
H1001 H 0.29183 0.47898 0.08662 0.0
C1002 C 0.92993 0.41758 0.52897 0.0
C1003 C 0.95259 0.4336 0.54099 0.0
C1004 C 0.91566 0.39757 0.54274 0.0
C1005 C 0.91715 0.35899 0.59624 0.0
H1006 H 0.85435 0.34498 0.60788 0.0
C1007 C 0.86233 0.2959 0.67899 0.0
C1008 C 0.8381 0.28238 0.67285 0.0
C1009 C 0.87607 0.31272 0.66071 0.0
C1010 C 0.87168 0.34832 0.60443 0.0
H1011 H 0.97821 0.44079 0.57649 0.0
H1012 H 0.95346 0.40595 0.60023 0.0
H1013 H 0.87854 0.37687 0.57932 0.0
H1014 H 0.80938 0.27517 0.64208 0.0
H1015 H 0.83331 0.30408 0.60986 0.0
H1016 H 0.91038 0.33049 0.62128 0.0
C1017 C 0.9467 0.4088 0.58019 0.0
C1018 C 0.88556 0.36667 0.58806 0.0
C1019 C 0.96083 0.42887 0.56665 0.0
C1020 C 0.82798 0.28556 0.64759 0.0
C1021 C 0.84172 0.30222 0.62919 0.0
C1022 C 0.90321 0.34052 0.61242 0.0
C1023 C 0.92387 0.39302 0.56859 0.0
C1024 C 0.90856 0.37241 0.5841 0.0
C1025 C 0.86592 0.31628 0.63569 0.0
C1026 C 0.88037 0.3351 0.61706 0.0
H1027 H 0.92305 0.42072 0.50925 0.0
H1028 H 0.8982 0.38565 0.53316 0.0
H1029 H 0.9347 0.36279 0.59325 0.0
H1030 H 0.87059 0.29405 0.69847 0.0
H1031 H 0.89456 0.32341 0.66672 0.0
C1032 C 0.53126 0.95393 0.03141 0.0
C1033 C 0.5131 0.94635 0.00958 0.0
C1034 C 0.53821 0.93868 0.04108 0.0
C1035 C 0.51435 0.87737 0.05005 0.0
H1036 H 0.57853 0.89637 0.07314 0.0
C1037 C 0.53794 0.81994 0.11608 0.0
C1038 C 0.55459 0.83182 0.13958 0.0
C1039 C 0.53442 0.83226 0.09488 0.0
C1040 C 0.56051 0.89082 0.06688 0.0
H1041 H 0.48857 0.91711 0.97994 0.0
H1042 H 0.50058 0.89025 0.99721 0.0
H1043 H 0.56986 0.92128 0.04458 0.0
H1044 H 0.58067 0.86589 0.15923 0.0
H1045 H 0.57438 0.88737 0.12259 0.0
H1046 H 0.50487 0.84749 0.07345 0.0
C1047 C 0.5094 0.90805 0.00675 0.0
C1048 C 0.55558 0.90504 0.05044 0.0
C1049 C 0.50261 0.92343 0.99681 0.0
C1050 C 0.56796 0.85622 0.14115 0.0
C1051 C 0.56439 0.86853 0.12007 0.0
C1052 C 0.51927 0.86321 0.06664 0.0
C1053 C 0.52701 0.91545 0.02932 0.0
C1054 C 0.53243 0.89874 0.04252 0.0
C1055 C 0.54742 0.85673 0.09683 0.0
C1056 C 0.54239 0.87009 0.07591 0.0
H1057 H 0.53977 0.97153 0.04158 0.0
H1058 H 0.55165 0.94483 0.05871 0.0
H1059 H 0.49632 0.87219 0.04453 0.0
H1060 H 0.5276 0.8011 0.11411 0.0
H1061 H 0.52142 0.82263 0.07707 0.0
C1062 C 0.56066 0.53608 0.5885 0.0
C1063 C 0.56074 0.53355 0.5584 0.0
C1064 C 0.58115 0.54359 0.60631 0.0
C1065 C 0.63788 0.5461 0.60442 0.0
H1066 H 0.65475 0.58588 0.67541 0.0
C1067 C 0.72576 0.57883 0.66851 0.0
C1068 C 0.7248 0.57603 0.69808 0.0
C1069 C 0.70648 0.5765 0.65209 0.0
C1070 C 0.65018 0.57468 0.65567 0.0
H1071 H 0.58259 0.53834 0.52332 0.0
H1072 H 0.61812 0.55193 0.55407 0.0
H1073 H 0.6193 0.57636 0.64564 0.0
H1074 H 0.70366 0.56927 0.73413 0.0
H1075 H 0.6698 0.56524 0.70545 0.0
H1076 H 0.66859 0.54434 0.61431 0.0
C1077 C 0.60223 0.54739 0.56413 0.0
C1078 C 0.62986 0.56917 0.63868 0.0
C1079 C 0.58183 0.5397 0.54646 0.0
C1080 C 0.7047 0.5717 0.71131 0.0
C1081 C 0.68543 0.56946 0.69493 0.0
C1082 C 0.65817 0.55171 0.62123 0.0
C1083 C 0.60208 0.54887 0.59429 0.0
C1084 C 0.62352 0.55486 0.61277 0.0
C1085 C 0.68593 0.57129 0.66502 0.0
C1086 C 0.66461 0.5661 0.647 0.0
H1087 H 0.54465 0.53147 0.5983 0.0
H1088 H 0.58039 0.54444 0.62947 0.0
H1089 H 0.63327 0.53453 0.58502 0.0
H1090 H 0.74113 0.58202 0.658 0.0
H1091 H 0.70747 0.57826 0.62915 0.0
C1092 C 0.08136 0.59368 0.00164 0.0
C1093 C 0.05863 0.57955 0.00965 0.0
C1094 C 0.09614 0.61549 0.01662 0.0
C1095 C 0.10446 0.64309 0.08871 0.0
H1096 H 0.14403 0.7022 0.05783 0.0
C1097 C 0.1508 0.72435 0.16477 0.0
C1098 C 0.17471 0.73878 0.16253 0.0
C1099 C 0.13681 0.70796 0.14229 0.0
C1100 C 0.13316 0.68575 0.06666 0.0
H1101 H 0.03298 0.57796 0.03792 0.0
H1102 H 0.05854 0.6157 0.06366 0.0
H1103 H 0.11946 0.66725 0.02475 0.0
H1104 H 0.20269 0.74835 0.13477 0.0
H1105 H 0.17817 0.71896 0.09529 0.0
H1106 H 0.11805 0.66097 0.13036 0.0
C1107 C 0.06516 0.60982 0.04634 0.0
C1108 C 0.11918 0.66583 0.04779 0.0
C1109 C 0.05053 0.58819 0.03158 0.0
C1110 C 0.1842 0.7375 0.13671 0.0
C1111 C 0.17019 0.72073 0.11422 0.0
C1112 C 0.11836 0.66278 0.10739 0.0
C1113 C 0.0883 0.62336 0.03969 0.0
C1114 C 0.10439 0.64444 0.05877 0.0
C1115 C 0.14654 0.70517 0.11736 0.0
C1116 C 0.13251 0.68444 0.09668 0.0
H1117 H 0.08802 0.58749 0.98472 0.0
H1118 H 0.11394 0.62565 0.01111 0.0
H1119 H 0.09369 0.6267 0.09776 0.0
H1120 H 0.14316 0.72484 0.18462 0.0
H1121 H 0.11854 0.69657 0.14507 0.0
loop_
_geom_bond_atom_site_label_1
_geom_bond_atom_site_label_2
_geom_bond_distance
_geom_bond_site_symmetry_2
_ccdc_geom_bond_type
C0 O2 1.247 . S
C0 O4 1.258 . S
C1 O8 1.247 . S
C1 O9 1.258 . S
O2 C0 1.247 . S
O2 Zn3 2.028 1_455 S
Zn3 O2 2.028 1_655 S
Zn3 O7 2.035 1_554 S
Zn3 O9 2.035 1_554 S
Zn3 O10 2.028 1_655 S
O4 C0 1.258 . S
O4 Zn5 2.035 1_554 S
Zn5 O4 2.035 1_556 S
Zn5 O6 2.028 1_455 S
Zn5 O8 2.028 1_455 S
Zn5 O11 2.035 1_556 S
O6 Zn5 2.028 1_655 S
O6 C12 1.247 . S
O7 Zn3 2.035 1_556 S
O7 C12 1.258 . S
O8 C1 1.247 . S
O8 Zn5 2.028 1_655 S
O9 C1 1.258 . S
O9 Zn3 2.035 1_556 S
O10 Zn3 2.028 1_455 S
O10 C13 1.247 . S
O11 Zn5 2.035 1_554 S
O11 C13 1.258 . S
C12 O6 1.247 . S
C12 O7 1.258 . S
C13 O10 1.247 . S
C13 O11 1.258 . S
C14 O16 1.247 . S
C14 O18 1.258 . S
C15 O22 1.247 . S
C15 O23 1.258 . S
O16 C14 1.247 . S
O16 Zn17 2.028 1_545 S
Zn17 O16 2.028 1_565 S
Zn17 O21 2.035 . S
Zn17 O23 2.035 . S
Zn17 O24 2.028 1_565 S
O18 C14 1.258 . S
O18 Zn19 2.035 . S
Zn19 O18 2.035 . S
Zn19 O20 2.028 1_545 S
Zn19 O22 2.028 1_545 S
Zn19 O25 2.035 . S
O20 Zn19 2.028 1_565 S
O20 C26 1.247 . S
O21 Zn17 2.035 . S
O21 C26 1.258 . S
O22 C15 1.247 . S
O22 Zn19 2.028 1_565 S
O23 C15 1.258 . S
O23 Zn17 2.035 . S
O24 Zn17 2.028 1_545 S
O24 C27 1.247 . S
O25 Zn19 2.035 . S
O25 C27 1.258 . S
C26 O20 1.247 . S
C26 O21 1.258 . S
C27 O24 1.247 . S
C27 O25 1.258 . S
C28 O30 1.247 . S
C28 O32 1.258 . S
C29 O36 1.247 . S
C29 O37 1.258 . S
O30 C28 1.247 . S
O30 Zn31 2.028 . S
Zn31 O30 2.028 . S
Zn31 O35 2.035 1_556 S
Zn31 O37 2.035 1_556 S
Zn31 O38 2.028 . S
O32 C28 1.258 . S
O32 Zn33 2.035 1_556 S
Zn33 O32 2.035 1_554 S
Zn33 O34 2.028 . S
Zn33 O36 2.028 . S
Zn33 O39 2.035 1_554 S
O34 Zn33 2.028 . S
O34 C40 1.247 . S
O35 Zn31 2.035 1_554 S
O35 C40 1.258 . S
O36 C29 1.247 . S
O36 Zn33 2.028 . S
O37 C29 1.258 . S
O37 Zn31 2.035 1_554 S
O38 Zn31 2.028 . S
O38 C41 1.247 . S
O39 Zn33 2.035 1_556 S
O39 C41 1.258 . S
C40 O34 1.247 . S
C40 O35 1.258 . S
C41 O38 1.247 . S
C41 O39 1.258 . S
C42 O44 1.247 . S
C42 O46 1.258 . S
C43 O50 1.247 . S
C43 O51 1.281 . S
O44 C42 1.247 . S
O44 Zn45 2.028 . S
Zn45 O44 2.028 . S
Zn45 O49 2.035 1_455 S
Zn45 O51 2.028 1_455 S
Zn45 O52 2.028 . S
O46 C42 1.258 . S
O46 Zn47 2.035 1_455 S
Zn47 O46 2.035 1_655 S
Zn47 O48 2.028 . S
Zn47 O50 2.028 . S
Zn47 O53 2.035 1_655 S
O48 Zn47 2.028 . S
O48 C54 1.247 . S
O49 Zn45 2.035 1_655 S
O49 C54 1.258 . S
O50 C43 1.247 . S
O50 Zn47 2.028 . S
O51 C43 1.281 . S
O51 Zn45 2.028 1_655 S
O52 Zn45 2.028 . S
O52 C55 1.247 . S
O53 Zn47 2.035 1_455 S
O53 C55 1.258 . S
C54 O48 1.247 . S
C54 O49 1.258 . S
C55 O52 1.247 . S
C55 O53 1.258 . S
C56 O58 1.299 . S
C56 O60 1.258 . S
C57 O64 1.247 . S
C57 O65 1.258 . S
O58 C56 1.299 . S
O58 Zn59 1.976 1_565 S
Zn59 O58 1.976 1_545 S
Zn59 O63 2.035 1_554 S
Zn59 O65 2.035 1_554 S
Zn59 O66 2.023 1_545 S
O60 C56 1.258 . S
O60 Zn61 2.035 1_554 S
Zn61 O60 2.035 1_556 S
Zn61 O62 2.028 1_565 S
Zn61 O64 2.028 1_565 S
Zn61 O67 2.035 1_556 S
O62 Zn61 2.028 1_545 S
O62 C68 1.247 . S
O63 Zn59 2.035 1_556 S
O63 C68 1.258 . S
O64 C57 1.247 . S
O64 Zn61 2.028 1_545 S
O65 C57 1.258 . S
O65 Zn59 2.035 1_556 S
O66 Zn59 2.023 1_565 S
O66 C69 1.263 . S
O67 Zn61 2.035 1_554 S
O67 C69 1.258 . S
C68 O62 1.247 . S
C68 O63 1.258 . S
C69 O66 1.263 . S
C69 O67 1.258 . S
C70 O72 1.247 . S
C70 O74 1.258 . S
C71 O78 1.247 . S
C71 O79 1.258 . S
O72 C70 1.247 . S
O72 Zn73 2.028 . S
Zn73 O72 2.028 . S
Zn73 O77 2.035 . S
Zn73 O79 2.035 . S
Zn73 O80 2.028 . S
O74 C70 1.258 . S
O74 Zn75 2.035 . S
Zn75 O74 2.035 . S
Zn75 O76 2.028 . S
Zn75 O78 2.028 . S
Zn75 O81 2.035 . S
O76 Zn75 2.028 . S
O76 C82 1.247 . S
O77 Zn73 2.035 . S
O77 C82 1.258 . S
O78 C71 1.247 . S
O78 Zn75 2.028 . S
O79 C71 1.258 . S
O79 Zn73 2.035 . S
O80 Zn73 2.028 . S
O80 C83 1.247 . S
O81 Zn75 2.035 . S
O81 C83 1.258 . S
C82 O76 1.247 . S
C82 O77 1.258 . S
C83 O80 1.247 . S
C83 O81 1.258 . S
C84 C85 1.443 . S
C84 N88 1.376 . S
C84 C122 1.389 . S
C85 C84 1.443 . S
C85 C86 1.340 . S
C85 H125 0.951 . S
C86 C85 1.340 . S
C86 C87 1.439 . S
C86 H126 0.950 . S
C87 C86 1.439 . S
C87 N88 1.374 . S
C87 C121 1.395 . S
N88 C84 1.376 . S
N88 C87 1.374 . S
N88 Co89 2.008 . S
Co89 N88 2.008 . S
Co89 N90 1.995 . S
Co89 N95 2.008 . S
Co89 N100 1.995 . S
Co89 N105 2.282 . S
Co89 N111 2.282 . S
N90 Co89 1.995 . S
N90 C91 1.376 . S
N90 C94 1.383 . S
C91 N90 1.376 . S
C91 C92 1.446 . S
C91 C121 1.391 . S
C92 C91 1.446 . S
C92 C93 1.339 . S
C92 H127 0.949 . S
C93 C92 1.339 . S
C93 C94 1.439 . S
C93 H128 0.950 . S
C94 N90 1.383 . S
C94 C93 1.439 . S
C94 C123 1.392 . S
N95 Co89 2.008 . S
N95 C96 1.376 . S
N95 C99 1.374 . S
C96 N95 1.376 . S
C96 C97 1.443 . S
C96 C123 1.389 . S
C97 C96 1.443 . S
C97 C98 1.340 . S
C97 H129 0.951 . S
C98 C97 1.340 . S
C98 C99 1.439 . S
C98 H130 0.950 . S
C99 N95 1.374 . S
C99 C98 1.439 . S
C99 C124 1.395 . S
N100 Co89 1.995 . S
N100 C101 1.376 . S
N100 C104 1.383 . S
C101 N100 1.376 . S
C101 C102 1.446 . S
C101 C124 1.391 . S
C102 C101 1.446 . S
C102 C103 1.339 . S
C102 H131 0.949 . S
C103 C102 1.339 . S
C103 C104 1.439 . S
C103 H132 0.950 . S
C104 N100 1.383 . S
C104 C103 1.439 . S
C104 C122 1.392 . S
N105 Co89 2.282 . S
N105 C108 1.332 . S
N105 C110 1.332 . S
C106 C107 1.386 . S
C106 C109 1.388 . S
C107 C106 1.386 . S
C107 C108 1.382 . S
C107 H133 0.950 . S
C108 N105 1.332 . S
C108 C107 1.382 . S
C108 H119 0.952 . S
C109 C106 1.388 . S
C109 C110 1.382 . S
C109 H134 0.950 . S
C110 N105 1.332 . S
C110 C109 1.382 . S
C110 H120 0.948 . S
N111 Co89 2.282 . S
N111 C115 1.332 . S
N111 C116 1.332 . S
C112 C113 1.388 . S
C112 C116 1.382 . S
C112 H135 0.950 . S
C113 C112 1.388 . S
C113 C114 1.386 . S
C114 C113 1.386 . S
C114 C115 1.382 . S
C114 H136 0.950 . S
C115 N111 1.332 . S
C115 C114 1.382 . S
C115 H117 0.952 . S
C116 N111 1.332 . S
C116 C112 1.382 . S
C116 H118 0.948 . S
H117 C115 0.952 . S
H118 C116 0.948 . S
H119 C108 0.952 . S
H120 C110 0.948 . S
C121 C87 1.395 . S
C121 C91 1.391 . S
C122 C84 1.389 . S
C122 C104 1.392 . S
C123 C94 1.392 . S
C123 C96 1.389 . S
C124 C99 1.395 . S
C124 C101 1.391 . S
H125 C85 0.951 . S
H126 C86 0.950 . S
H127 C92 0.949 . S
H128 C93 0.950 . S
H129 C97 0.951 . S
H130 C98 0.950 . S
H131 C102 0.949 . S
H132 C103 0.950 . S
H133 C107 0.950 . S
H134 C109 0.950 . S
H135 C112 0.950 . S
H136 C114 0.950 . S
C137 C138 1.443 . S
C137 N141 1.376 . S
C137 C175 1.389 . S
C138 C137 1.443 . S
C138 C139 1.340 . S
C138 H178 0.951 . S
C139 C138 1.340 . S
C139 C140 1.439 . S
C139 H179 0.950 . S
C140 C139 1.439 . S
C140 N141 1.374 . S
C140 C174 1.395 . S
N141 C137 1.376 . S
N141 C140 1.374 . S
N141 Co142 2.008 . S
Co142 N141 2.008 . S
Co142 N143 1.995 . S
Co142 N148 2.008 . S
Co142 N153 1.995 . S
Co142 N158 2.282 . S
Co142 N164 2.282 . S
N143 Co142 1.995 . S
N143 C144 1.376 . S
N143 C147 1.383 . S
C144 N143 1.376 . S
C144 C145 1.446 . S
C144 C174 1.391 . S
C145 C144 1.446 . S
C145 C146 1.339 . S
C145 H180 0.949 . S
C146 C145 1.339 . S
C146 C147 1.439 . S
C146 H181 0.950 . S
C147 N143 1.383 . S
C147 C146 1.439 . S
C147 C176 1.392 . S
N148 Co142 2.008 . S
N148 C149 1.376 . S
N148 C152 1.374 . S
C149 N148 1.376 . S
C149 C150 1.443 . S
C149 C176 1.389 . S
C150 C149 1.443 . S
C150 C151 1.340 . S
C150 H182 0.951 . S
C151 C150 1.340 . S
C151 C152 1.439 . S
C151 H183 0.950 . S
C152 N148 1.374 . S
C152 C151 1.439 . S
C152 C177 1.395 . S
N153 Co142 1.995 . S
N153 C154 1.376 . S
N153 C157 1.383 . S
C154 N153 1.376 . S
C154 C155 1.446 . S
C154 C177 1.391 . S
C155 C154 1.446 . S
C155 C156 1.339 . S
C155 H184 0.949 . S
C156 C155 1.339 . S
C156 C157 1.439 . S
C156 H185 0.950 . S
C157 N153 1.383 . S
C157 C156 1.439 . S
C157 C175 1.392 . S
N158 Co142 2.282 . S
N158 C161 1.332 . S
N158 C163 1.332 . S
C159 C160 1.386 . S
C159 C162 1.388 . S
C160 C159 1.386 . S
C160 C161 1.382 . S
C160 H186 0.950 . S
C161 N158 1.332 . S
C161 C160 1.382 . S
C161 H172 0.952 . S
C162 C159 1.388 . S
C162 C163 1.382 . S
C162 H187 0.950 . S
C163 N158 1.332 . S
C163 C162 1.382 . S
C163 H173 0.948 . S
N164 Co142 2.282 . S
N164 C168 1.332 . S
N164 C169 1.332 . S
C165 C166 1.388 . S
C165 C169 1.382 . S
C165 H188 0.950 . S
C166 C165 1.388 . S
C166 C167 1.386 . S
C167 C166 1.386 . S
C167 C168 1.382 . S
C167 H189 0.950 . S
C168 N164 1.332 . S
C168 C167 1.382 . S
C168 H170 0.952 . S
C169 N164 1.332 . S
C169 C165 1.382 . S
C169 H171 0.948 . S
H170 C168 0.952 . S
H171 C169 0.948 . S
H172 C161 0.952 . S
H173 C163 0.948 . S
C174 C140 1.395 . S
C174 C144 1.391 . S
C175 C137 1.389 . S
C175 C157 1.392 . S
C176 C147 1.392 . S
C176 C149 1.389 . S
C177 C152 1.395 . S
C177 C154 1.391 . S
H178 C138 0.951 . S
H179 C139 0.950 . S
H180 C145 0.949 . S
H181 C146 0.950 . S
H182 C150 0.951 . S
H183 C151 0.950 . S
H184 C155 0.949 . S
H185 C156 0.950 . S
H186 C160 0.950 . S
H187 C162 0.950 . S
H188 C165 0.950 . S
H189 C167 0.950 . S
C190 C191 1.443 . S
C190 N194 1.376 . S
C190 C228 1.389 . S
C191 C190 1.443 . S
C191 C192 1.340 . S
C191 H231 0.951 . S
C192 C191 1.340 . S
C192 C193 1.439 . S
C192 H232 0.950 . S
C193 C192 1.439 . S
C193 N194 1.374 . S
C193 C227 1.395 . S
N194 C190 1.376 . S
N194 C193 1.374 . S
N194 Co195 2.008 . S
Co195 N194 2.008 . S
Co195 N196 1.995 . S
Co195 N201 2.008 . S
Co195 N206 1.995 . S
Co195 N211 2.282 . S
Co195 N217 2.282 . S
N196 Co195 1.995 . S
N196 C197 1.376 . S
N196 C200 1.383 . S
C197 N196 1.376 . S
C197 C198 1.446 . S
C197 C227 1.391 . S
C198 C197 1.446 . S
C198 C199 1.339 . S
C198 H233 0.949 . S
C199 C198 1.339 . S
C199 C200 1.439 . S
C199 H234 0.950 . S
C200 N196 1.383 . S
C200 C199 1.439 . S
C200 C229 1.392 . S
N201 Co195 2.008 . S
N201 C202 1.376 . S
N201 C205 1.374 . S
C202 N201 1.376 . S
C202 C203 1.443 . S
C202 C229 1.389 . S
C203 C202 1.443 . S
C203 C204 1.340 . S
C203 H235 0.951 . S
C204 C203 1.340 . S
C204 C205 1.439 . S
C204 H236 0.950 . S
C205 N201 1.374 . S
C205 C204 1.439 . S
C205 C230 1.395 . S
N206 Co195 1.995 . S
N206 C207 1.376 . S
N206 C210 1.383 . S
C207 N206 1.376 . S
C207 C208 1.446 . S
C207 C230 1.391 . S
C208 C207 1.446 . S
C208 C209 1.339 . S
C208 H237 0.949 . S
C209 C208 1.339 . S
C209 C210 1.439 . S
C209 H238 0.950 . S
C210 N206 1.383 . S
C210 C209 1.439 . S
C210 C228 1.392 . S
N211 Co195 2.282 . S
N211 C214 1.332 . S
N211 C216 1.332 . S
C212 C213 1.386 . S
C212 C215 1.388 . S
C213 C212 1.386 . S
C213 C214 1.382 . S
C213 H239 0.950 . S
C214 N211 1.332 . S
C214 C213 1.382 . S
C214 H225 0.952 . S
C215 C212 1.388 . S
C215 C216 1.382 . S
C215 H240 0.950 . S
C216 N211 1.332 . S
C216 C215 1.382 . S
C216 H226 0.948 . S
N217 Co195 2.282 . S
N217 C221 1.332 . S
N217 C222 1.332 . S
C218 C219 1.388 . S
C218 C222 1.382 . S
C218 H241 0.950 . S
C219 C218 1.388 . S
C219 C220 1.386 . S
C220 C219 1.386 . S
C220 C221 1.382 . S
C220 H242 0.950 . S
C221 N217 1.332 . S
C221 C220 1.382 . S
C221 H223 0.952 . S
C222 N217 1.332 . S
C222 C218 1.382 . S
C222 H224 0.948 . S
H223 C221 0.952 . S
H224 C222 0.948 . S
H225 C214 0.952 . S
H226 C216 0.948 . S
C227 C193 1.395 . S
C227 C197 1.391 . S
C228 C190 1.389 . S
C228 C210 1.392 . S
C229 C200 1.392 . S
C229 C202 1.389 . S
C230 C205 1.395 . S
C230 C207 1.391 . S
H231 C191 0.951 . S
H232 C192 0.950 . S
H233 C198 0.949 . S
H234 C199 0.950 . S
H235 C203 0.951 . S
H236 C204 0.950 . S
H237 C208 0.949 . S
H238 C209 0.950 . S
H239 C213 0.950 . S
H240 C215 0.950 . S
H241 C218 0.950 . S
H242 C220 0.950 . S
C243 C244 1.443 . S
C243 N247 1.376 . S
C243 C281 1.389 . S
C244 C243 1.443 . S
C244 C245 1.340 . S
C244 H284 0.951 . S
C245 C244 1.340 . S
C245 C246 1.439 . S
C245 H285 0.950 . S
C246 C245 1.439 . S
C246 N247 1.374 . S
C246 C280 1.395 . S
N247 C243 1.376 . S
N247 C246 1.374 . S
N247 Co248 2.008 . S
Co248 N247 2.008 . S
Co248 N249 1.995 . S
Co248 N254 2.008 . S
Co248 N259 1.995 . S
Co248 N264 2.282 . S
Co248 N270 2.282 . S
N249 Co248 1.995 . S
N249 C250 1.376 . S
N249 C253 1.383 . S
C250 N249 1.376 . S
C250 C251 1.446 . S
C250 C280 1.391 . S
C251 C250 1.446 . S
C251 C252 1.339 . S
C251 H286 0.949 . S
C252 C251 1.339 . S
C252 C253 1.439 . S
C252 H287 0.950 . S
C253 N249 1.383 . S
C253 C252 1.439 . S
C253 C282 1.392 . S
N254 Co248 2.008 . S
N254 C255 1.376 . S
N254 C258 1.374 . S
C255 N254 1.376 . S
C255 C256 1.443 . S
C255 C282 1.389 . S
C256 C255 1.443 . S
C256 C257 1.340 . S
C256 H288 0.951 . S
C257 C256 1.340 . S
C257 C258 1.439 . S
C257 H289 0.950 . S
C258 N254 1.374 . S
C258 C257 1.439 . S
C258 C283 1.395 . S
N259 Co248 1.995 . S
N259 C260 1.376 . S
N259 C263 1.383 . S
C260 N259 1.376 . S
C260 C261 1.446 . S
C260 C283 1.391 . S
C261 C260 1.446 . S
C261 C262 1.339 . S
C261 H290 0.949 . S
C262 C261 1.339 . S
C262 C263 1.439 . S
C262 H291 0.950 . S
C263 N259 1.383 . S
C263 C262 1.439 . S
C263 C281 1.392 . S
N264 Co248 2.282 . S
N264 C267 1.332 . S
N264 C269 1.332 . S
C265 C266 1.386 . S
C265 C268 1.388 . S
C266 C265 1.386 . S
C266 C267 1.382 . S
C266 H292 0.950 . S
C267 N264 1.332 . S
C267 C266 1.382 . S
C267 H278 0.952 . S
C268 C265 1.388 . S
C268 C269 1.382 . S
C268 H293 0.950 . S
C269 N264 1.332 . S
C269 C268 1.382 . S
C269 H279 0.948 . S
N270 Co248 2.282 . S
N270 C274 1.332 . S
N270 C275 1.332 . S
C271 C272 1.388 . S
C271 C275 1.382 . S
C271 H294 0.950 . S
C272 C271 1.388 . S
C272 C273 1.386 . S
C273 C272 1.386 . S
C273 C274 1.382 . S
C273 H295 0.950 . S
C274 N270 1.332 . S
C274 C273 1.382 . S
C274 H276 0.952 . S
C275 N270 1.332 . S
C275 C271 1.382 . S
C275 H277 0.948 . S
H276 C274 0.952 . S
H277 C275 0.948 . S
H278 C267 0.952 . S
H279 C269 0.948 . S
C280 C246 1.395 . S
C280 C250 1.391 . S
C281 C243 1.389 . S
C281 C263 1.392 . S
C282 C253 1.392 . S
C282 C255 1.389 . S
C283 C258 1.395 . S
C283 C260 1.391 . S
H284 C244 0.951 . S
H285 C245 0.950 . S
H286 C251 0.949 . S
H287 C252 0.950 . S
H288 C256 0.951 . S
H289 C257 0.950 . S
H290 C261 0.949 . S
H291 C262 0.950 . S
H292 C266 0.950 . S
H293 C268 0.950 . S
H294 C271 0.950 . S
H295 C273 0.950 . S
C296 C297 1.443 . S
C296 N300 1.376 . S
C296 C334 1.389 . S
C297 C296 1.443 . S
C297 C298 1.340 . S
C297 H337 0.951 . S
C298 C297 1.340 . S
C298 C299 1.439 . S
C298 H338 0.950 . S
C299 C298 1.439 . S
C299 N300 1.374 . S
C299 C333 1.395 . S
N300 C296 1.376 . S
N300 C299 1.374 . S
N300 Co301 2.008 . S
Co301 N300 2.008 . S
Co301 N302 1.995 . S
Co301 N307 2.008 . S
Co301 N312 1.995 . S
Co301 N317 2.282 . S
Co301 N323 2.282 . S
N302 Co301 1.995 . S
N302 C303 1.376 . S
N302 C306 1.383 . S
C303 N302 1.376 . S
C303 C304 1.446 . S
C303 C333 1.391 . S
C304 C303 1.446 . S
C304 C305 1.339 . S
C304 H339 0.949 . S
C305 C304 1.339 . S
C305 C306 1.439 . S
C305 H340 0.950 . S
C306 N302 1.383 . S
C306 C305 1.439 . S
C306 C335 1.392 . S
N307 Co301 2.008 . S
N307 C308 1.376 . S
N307 C311 1.374 . S
C308 N307 1.376 . S
C308 C309 1.443 . S
C308 C335 1.389 . S
C309 C308 1.443 . S
C309 C310 1.340 . S
C309 H341 0.951 . S
C310 C309 1.340 . S
C310 C311 1.439 . S
C310 H342 0.950 . S
C311 N307 1.374 . S
C311 C310 1.439 . S
C311 C336 1.395 . S
N312 Co301 1.995 . S
N312 C313 1.376 . S
N312 C316 1.383 . S
C313 N312 1.376 . S
C313 C314 1.446 . S
C313 C336 1.391 . S
C314 C313 1.446 . S
C314 C315 1.339 . S
C314 H343 0.949 . S
C315 C314 1.339 . S
C315 C316 1.439 . S
C315 H344 0.950 . S
C316 N312 1.383 . S
C316 C315 1.439 . S
C316 C334 1.392 . S
N317 Co301 2.282 . S
N317 C320 1.332 . S
N317 C322 1.332 . S
C318 C319 1.386 . S
C318 C321 1.388 . S
C319 C318 1.386 . S
C319 C320 1.382 . S
C319 H345 0.950 . S
C320 N317 1.332 . S
C320 C319 1.382 . S
C320 H331 0.952 . S
C321 C318 1.388 . S
C321 C322 1.382 . S
C321 H346 0.950 . S
C322 N317 1.332 . S
C322 C321 1.382 . S
C322 H332 0.948 . S
N323 Co301 2.282 . S
N323 C327 1.332 . S
N323 C328 1.332 . S
C324 C325 1.388 . S
C324 C328 1.382 . S
C324 H347 0.950 . S
C325 C324 1.388 . S
C325 C326 1.386 . S
C326 C325 1.386 . S
C326 C327 1.382 . S
C326 H348 0.950 . S
C327 N323 1.332 . S
C327 C326 1.382 . S
C327 H329 0.952 . S
C328 N323 1.332 . S
C328 C324 1.382 . S
C328 H330 0.948 . S
H329 C327 0.952 . S
H330 C328 0.948 . S
H331 C320 0.952 . S
H332 C322 0.948 . S
C333 C299 1.395 . S
C333 C303 1.391 . S
C334 C296 1.389 . S
C334 C316 1.392 . S
C335 C306 1.392 . S
C335 C308 1.389 . S
C336 C311 1.395 . S
C336 C313 1.391 . S
H337 C297 0.951 . S
H338 C298 0.950 . S
H339 C304 0.949 . S
H340 C305 0.950 . S
H341 C309 0.951 . S
H342 C310 0.950 . S
H343 C314 0.949 . S
H344 C315 0.950 . S
H345 C319 0.950 . S
H346 C321 0.950 . S
H347 C324 0.950 . S
H348 C326 0.950 . S
C349 C350 1.443 . S
C349 N353 1.376 . S
C349 C387 1.389 . S
C350 C349 1.443 . S
C350 C351 1.340 . S
C350 H390 0.951 . S
C351 C350 1.340 . S
C351 C352 1.439 . S
C351 H391 0.950 . S
C352 C351 1.439 . S
C352 N353 1.374 . S
C352 C386 1.395 . S
N353 C349 1.376 . S
N353 C352 1.374 . S
N353 Co354 2.008 . S
Co354 N353 2.008 . S
Co354 N355 1.995 . S
Co354 N360 2.008 . S
Co354 N365 1.995 . S
Co354 N370 2.282 . S
Co354 N376 2.282 . S
N355 Co354 1.995 . S
N355 C356 1.376 . S
N355 C359 1.383 . S
C356 N355 1.376 . S
C356 C357 1.446 . S
C356 C386 1.391 . S
C357 C356 1.446 . S
C357 C358 1.339 . S
C357 H392 0.949 . S
C358 C357 1.339 . S
C358 C359 1.439 . S
C358 H393 0.950 . S
C359 N355 1.383 . S
C359 C358 1.439 . S
C359 C388 1.392 . S
N360 Co354 2.008 . S
N360 C361 1.376 . S
N360 C364 1.374 . S
C361 N360 1.376 . S
C361 C362 1.443 . S
C361 C388 1.389 . S
C362 C361 1.443 . S
C362 C363 1.340 . S
C362 H394 0.951 . S
C363 C362 1.340 . S
C363 C364 1.439 . S
C363 H395 0.950 . S
C364 N360 1.374 . S
C364 C363 1.439 . S
C364 C389 1.395 . S
N365 Co354 1.995 . S
N365 C366 1.376 . S
N365 C369 1.383 . S
C366 N365 1.376 . S
C366 C367 1.446 . S
C366 C389 1.391 . S
C367 C366 1.446 . S
C367 C368 1.339 . S
C367 H396 0.949 . S
C368 C367 1.339 . S
C368 C369 1.439 . S
C368 H397 0.950 . S
C369 N365 1.383 . S
C369 C368 1.439 . S
C369 C387 1.392 . S
N370 Co354 2.282 . S
N370 C373 1.332 . S
N370 C375 1.332 . S
C371 C372 1.386 . S
C371 C374 1.388 . S
C372 C371 1.386 . S
C372 C373 1.382 . S
C372 H398 0.950 . S
C373 N370 1.332 . S
C373 C372 1.382 . S
C373 H384 0.952 . S
C374 C371 1.388 . S
C374 C375 1.382 . S
C374 H399 0.950 . S
C375 N370 1.332 . S
C375 C374 1.382 . S
C375 H385 0.948 . S
N376 Co354 2.282 . S
N376 C380 1.332 . S
N376 C381 1.332 . S
C377 C378 1.388 . S
C377 C381 1.382 . S
C377 H400 0.950 . S
C378 C377 1.388 . S
C378 C379 1.386 . S
C379 C378 1.386 . S
C379 C380 1.382 . S
C379 H401 0.950 . S
C380 N376 1.332 . S
C380 C379 1.382 . S
C380 H382 0.952 . S
C381 N376 1.332 . S
C381 C377 1.382 . S
C381 H383 0.948 . S
H382 C380 0.952 . S
H383 C381 0.948 . S
H384 C373 0.952 . S
H385 C375 0.948 . S
C386 C352 1.395 . S
C386 C356 1.391 . S
C387 C349 1.389 . S
C387 C369 1.392 . S
C388 C359 1.392 . S
C388 C361 1.389 . S
C389 C364 1.395 . S
C389 C366 1.391 . S
H390 C350 0.951 . S
H391 C351 0.950 . S
H392 C357 0.949 . S
H393 C358 0.950 . S
H394 C362 0.951 . S
H395 C363 0.950 . S
H396 C367 0.949 . S
H397 C368 0.950 . S
H398 C372 0.950 . S
H399 C374 0.950 . S
H400 C377 0.950 . S
H401 C379 0.950 . S
C402 C403 1.349 . S
C402 C404 1.327 . S
C402 H427 0.950 . S
C403 C402 1.349 . S
C403 C419 1.349 . S
C404 C402 1.327 . S
C404 C423 1.429 . S
C404 H428 0.950 . S
C405 C422 1.574 . S
C405 C424 1.368 . S
C405 H429 0.949 . S
H406 C410 0.949 . S
C407 C408 1.349 . S
C407 C409 1.327 . S
C407 H430 0.950 . S
C408 C407 1.349 . S
C408 C420 1.349 . S
C409 C407 1.327 . S
C409 C425 1.429 . S
C409 H431 0.950 . S
C410 H406 0.949 . S
C410 C418 1.574 . S
C410 C426 1.368 . S
H411 C419 0.950 . S
H412 C417 0.950 . S
H413 C418 0.949 . S
H414 C420 0.950 . S
H415 C421 0.950 . S
H416 C422 0.949 . S
C417 H412 0.950 . S
C417 C419 1.327 . S
C417 C423 1.429 . S
C418 C410 1.574 . S
C418 H413 0.949 . S
C418 C424 1.368 . S
C419 C403 1.349 . S
C419 H411 0.950 . S
C419 C417 1.327 . S
C420 C408 1.349 . S
C420 H414 0.950 . S
C420 C421 1.327 . S
C421 H415 0.950 . S
C421 C420 1.327 . S
C421 C425 1.429 . S
C422 C405 1.574 . S
C422 H416 0.949 . S
C422 C426 1.368 . S
C423 C404 1.429 . S
C423 C417 1.429 . S
C423 C424 1.523 . S
C424 C405 1.368 . S
C424 C418 1.368 . S
C424 C423 1.523 . S
C425 C409 1.429 . S
C425 C421 1.429 . S
C425 C426 1.523 . S
C426 C410 1.368 . S
C426 C422 1.368 . S
C426 C425 1.523 . S
H427 C402 0.950 . S
H428 C404 0.950 . S
H429 C405 0.949 . S
H430 C407 0.950 . S
H431 C409 0.950 . S
C432 C433 1.349 . S
C432 C434 1.327 . S
C432 H457 0.950 . S
C433 C432 1.349 . S
C433 C449 1.349 . S
C434 C432 1.327 . S
C434 C453 1.429 . S
C434 H458 0.950 . S
C435 C452 1.574 . S
C435 C454 1.368 . S
C435 H459 0.949 . S
H436 C440 0.949 . S
C437 C438 1.349 . S
C437 C439 1.327 . S
C437 H460 0.950 . S
C438 C437 1.349 . S
C438 C450 1.349 . S
C439 C437 1.327 . S
C439 C455 1.429 . S
C439 H461 0.950 . S
C440 H436 0.949 . S
C440 C448 1.574 . S
C440 C456 1.368 . S
H441 C449 0.950 . S
H442 C447 0.950 . S
H443 C448 0.949 . S
H444 C450 0.950 . S
H445 C451 0.950 . S
H446 C452 0.949 . S
C447 H442 0.950 . S
C447 C449 1.327 . S
C447 C453 1.429 . S
C448 C440 1.574 . S
C448 H443 0.949 . S
C448 C454 1.368 . S
C449 C433 1.349 . S
C449 H441 0.950 . S
C449 C447 1.327 . S
C450 C438 1.349 . S
C450 H444 0.950 . S
C450 C451 1.327 . S
C451 H445 0.950 . S
C451 C450 1.327 . S
C451 C455 1.429 . S
C452 C435 1.574 . S
C452 H446 0.949 . S
C452 C456 1.368 . S
C453 C434 1.429 . S
C453 C447 1.429 . S
C453 C454 1.523 . S
C454 C435 1.368 . S
C454 C448 1.368 . S
C454 C453 1.523 . S
C455 C439 1.429 . S
C455 C451 1.429 . S
C455 C456 1.523 . S
C456 C440 1.368 . S
C456 C452 1.368 . S
C456 C455 1.523 . S
H457 C432 0.950 . S
H458 C434 0.950 . S
H459 C435 0.949 . S
H460 C437 0.950 . S
H461 C439 0.950 . S
C462 C463 1.349 . S
C462 C464 1.327 . S
C462 H487 0.950 . S
C463 C462 1.349 . S
C463 C479 1.349 . S
C464 C462 1.327 . S
C464 C483 1.429 . S
C464 H488 0.950 . S
C465 C482 1.574 . S
C465 C484 1.368 . S
C465 H489 0.949 . S
H466 C470 0.949 . S
C467 C468 1.349 . S
C467 C469 1.327 . S
C467 H490 0.950 . S
C468 C467 1.349 . S
C468 C480 1.349 . S
C469 C467 1.327 . S
C469 C485 1.429 . S
C469 H491 0.950 . S
C470 H466 0.949 . S
C470 C478 1.574 . S
C470 C486 1.368 . S
H471 C479 0.950 . S
H472 C477 0.950 . S
H473 C478 0.949 . S
H474 C480 0.950 . S
H475 C481 0.950 . S
H476 C482 0.949 . S
C477 H472 0.950 . S
C477 C479 1.327 . S
C477 C483 1.429 . S
C478 C470 1.574 . S
C478 H473 0.949 . S
C478 C484 1.368 . S
C479 C463 1.349 . S
C479 H471 0.950 . S
C479 C477 1.327 . S
C480 C468 1.349 . S
C480 H474 0.950 . S
C480 C481 1.327 . S
C481 H475 0.950 . S
C481 C480 1.327 . S
C481 C485 1.429 . S
C482 C465 1.574 . S
C482 H476 0.949 . S
C482 C486 1.368 . S
C483 C464 1.429 . S
C483 C477 1.429 . S
C483 C484 1.523 . S
C484 C465 1.368 . S
C484 C478 1.368 . S
C484 C483 1.523 . S
C485 C469 1.429 . S
C485 C481 1.429 . S
C485 C486 1.523 . S
C486 C470 1.368 . S
C486 C482 1.368 . S
C486 C485 1.523 . S
H487 C462 0.950 . S
H488 C464 0.950 . S
H489 C465 0.949 . S
H490 C467 0.950 . S
H491 C469 0.950 . S
C492 C493 1.349 . S
C492 C494 1.327 . S
C492 H517 0.950 . S
C493 C492 1.349 . S
C493 C509 1.349 . S
C494 C492 1.327 . S
C494 C513 1.429 . S
C494 H518 0.950 . S
C495 C512 1.574 . S
C495 C514 1.368 . S
C495 H519 0.949 . S
H496 C500 0.949 . S
C497 C498 1.349 . S
C497 C499 1.327 . S
C497 H520 0.950 . S
C498 C497 1.349 . S
C498 C510 1.349 . S
C499 C497 1.327 . S
C499 C515 1.429 . S
C499 H521 0.950 . S
C500 H496 0.949 . S
C500 C508 1.574 . S
C500 C516 1.368 . S
H501 C509 0.950 . S
H502 C507 0.950 . S
H503 C508 0.949 . S
H504 C510 0.950 . S
H505 C511 0.950 . S
H506 C512 0.949 . S
C507 H502 0.950 . S
C507 C509 1.327 . S
C507 C513 1.429 . S
C508 C500 1.574 . S
C508 H503 0.949 . S
C508 C514 1.368 . S
C509 C493 1.349 . S
C509 H501 0.950 . S
C509 C507 1.327 . S
C510 C498 1.349 . S
C510 H504 0.950 . S
C510 C511 1.327 . S
C511 H505 0.950 . S
C511 C510 1.327 . S
C511 C515 1.429 . S
C512 C495 1.574 . S
C512 H506 0.949 . S
C512 C516 1.368 . S
C513 C494 1.429 . S
C513 C507 1.429 . S
C513 C514 1.523 . S
C514 C495 1.368 . S
C514 C508 1.368 . S
C514 C513 1.523 . S
C515 C499 1.429 . S
C515 C511 1.429 . S
C515 C516 1.523 . S
C516 C500 1.368 . S
C516 C512 1.368 . S
C516 C515 1.523 . S
H517 C492 0.950 . S
H518 C494 0.950 . S
H519 C495 0.949 . S
H520 C497 0.950 . S
H521 C499 0.950 . S
C522 C523 1.349 . S
C522 C524 1.327 . S
C522 H547 0.950 . S
C523 C522 1.349 . S
C523 C539 1.349 . S
C524 C522 1.327 . S
C524 C543 1.429 . S
C524 H548 0.950 . S
C525 C542 1.574 . S
C525 C544 1.368 . S
C525 H549 0.949 . S
H526 C530 0.949 . S
C527 C528 1.349 . S
C527 C529 1.327 . S
C527 H550 0.950 . S
C528 C527 1.349 . S
C528 C540 1.349 . S
C529 C527 1.327 . S
C529 C545 1.429 . S
C529 H551 0.950 . S
C530 H526 0.949 . S
C530 C538 1.574 . S
C530 C546 1.368 . S
H531 C539 0.950 . S
H532 C537 0.950 . S
H533 C538 0.949 . S
H534 C540 0.950 . S
H535 C541 0.950 . S
H536 C542 0.949 . S
C537 H532 0.950 . S
C537 C539 1.327 . S
C537 C543 1.429 . S
C538 C530 1.574 . S
C538 H533 0.949 . S
C538 C544 1.368 . S
C539 C523 1.349 . S
C539 H531 0.950 . S
C539 C537 1.327 . S
C540 C528 1.349 . S
C540 H534 0.950 . S
C540 C541 1.327 . S
C541 H535 0.950 . S
C541 C540 1.327 . S
C541 C545 1.429 . S
C542 C525 1.574 . S
C542 H536 0.949 . S
C542 C546 1.368 . S
C543 C524 1.429 . S
C543 C537 1.429 . S
C543 C544 1.523 . S
C544 C525 1.368 . S
C544 C538 1.368 . S
C544 C543 1.523 . S
C545 C529 1.429 . S
C545 C541 1.429 . S
C545 C546 1.523 . S
C546 C530 1.368 . S
C546 C542 1.368 . S
C546 C545 1.523 . S
H547 C522 0.950 . S
H548 C524 0.950 . S
H549 C525 0.949 . S
H550 C527 0.950 . S
H551 C529 0.950 . S
C552 C553 1.349 . S
C552 C554 1.327 . S
C552 H577 0.950 . S
C553 C552 1.349 . S
C553 C569 1.349 . S
C554 C552 1.327 . S
C554 C573 1.429 . S
C554 H578 0.950 . S
C555 C572 1.574 . S
C555 C574 1.368 . S
C555 H579 0.949 . S
H556 C560 0.949 . S
C557 C558 1.349 . S
C557 C559 1.327 . S
C557 H580 0.950 . S
C558 C557 1.349 . S
C558 C570 1.349 . S
C559 C557 1.327 . S
C559 C575 1.429 . S
C559 H581 0.950 . S
C560 H556 0.949 . S
C560 C568 1.574 . S
C560 C576 1.368 . S
H561 C569 0.950 . S
H562 C567 0.950 . S
H563 C568 0.949 . S
H564 C570 0.950 . S
H565 C571 0.950 . S
H566 C572 0.949 . S
C567 H562 0.950 . S
C567 C569 1.327 . S
C567 C573 1.429 . S
C568 C560 1.574 . S
C568 H563 0.949 . S
C568 C574 1.368 . S
C569 C553 1.349 . S
C569 H561 0.950 . S
C569 C567 1.327 . S
C570 C558 1.349 . S
C570 H564 0.950 . S
C570 C571 1.327 . S
C571 H565 0.950 . S
C571 C570 1.327 . S
C571 C575 1.429 . S
C572 C555 1.574 . S
C572 H566 0.949 . S
C572 C576 1.368 . S
C573 C554 1.429 . S
C573 C567 1.429 . S
C573 C574 1.523 . S
C574 C555 1.368 . S
C574 C568 1.368 . S
C574 C573 1.523 . S
C575 C559 1.429 . S
C575 C571 1.429 . S
C575 C576 1.523 . S
C576 C560 1.368 . S
C576 C572 1.368 . S
C576 C575 1.523 . S
H577 C552 0.950 . S
H578 C554 0.950 . S
H579 C555 0.949 . S
H580 C557 0.950 . S
H581 C559 0.950 . S
C582 C583 1.349 . S
C582 C584 1.327 . S
C582 H607 0.950 . S
C583 C582 1.349 . S
C583 C599 1.349 . S
C584 C582 1.327 . S
C584 C603 1.429 . S
C584 H608 0.950 . S
C585 C602 1.574 . S
C585 C604 1.368 . S
C585 H609 0.949 . S
H586 C590 0.949 . S
C587 C588 1.349 . S
C587 C589 1.327 . S
C587 H610 0.950 . S
C588 C587 1.349 . S
C588 C600 1.349 . S
C589 C587 1.327 . S
C589 C605 1.429 . S
C589 H611 0.950 . S
C590 H586 0.949 . S
C590 C598 1.574 . S
C590 C606 1.368 . S
H591 C599 0.950 . S
H592 C597 0.950 . S
H593 C598 0.949 . S
H594 C600 0.950 . S
H595 C601 0.950 . S
H596 C602 0.949 . S
C597 H592 0.950 . S
C597 C599 1.327 . S
C597 C603 1.429 . S
C598 C590 1.574 . S
C598 H593 0.949 . S
C598 C604 1.368 . S
C599 C583 1.349 . S
C599 H591 0.950 . S
C599 C597 1.327 . S
C600 C588 1.349 . S
C600 H594 0.950 . S
C600 C601 1.327 . S
C601 H595 0.950 . S
C601 C600 1.327 . S
C601 C605 1.429 . S
C602 C585 1.574 . S
C602 H596 0.949 . S
C602 C606 1.368 . S
C603 C584 1.429 . S
C603 C597 1.429 . S
C603 C604 1.523 . S
C604 C585 1.368 . S
C604 C598 1.368 . S
C604 C603 1.523 . S
C605 C589 1.429 . S
C605 C601 1.429 . S
C605 C606 1.523 . S
C606 C590 1.368 . S
C606 C602 1.368 . S
C606 C605 1.523 . S
H607 C582 0.950 . S
H608 C584 0.950 . S
H609 C585 0.949 . S
H610 C587 0.950 . S
H611 C589 0.950 . S
C612 C613 1.349 . S
C612 C614 1.327 . S
C612 H637 0.950 . S
C613 C612 1.349 . S
C613 C629 1.349 . S
C614 C612 1.327 . S
C614 C633 1.429 . S
C614 H638 0.950 . S
C615 C632 1.574 . S
C615 C634 1.368 . S
C615 H639 0.949 . S
H616 C620 0.949 . S
C617 C618 1.349 . S
C617 C619 1.327 . S
C617 H640 0.950 . S
C618 C617 1.349 . S
C618 C630 1.349 . S
C619 C617 1.327 . S
C619 C635 1.429 . S
C619 H641 0.950 . S
C620 H616 0.949 . S
C620 C628 1.574 . S
C620 C636 1.368 . S
H621 C629 0.950 . S
H622 C627 0.950 . S
H623 C628 0.949 . S
H624 C630 0.950 . S
H625 C631 0.950 . S
H626 C632 0.949 . S
C627 H622 0.950 . S
C627 C629 1.327 . S
C627 C633 1.429 . S
C628 C620 1.574 . S
C628 H623 0.949 . S
C628 C634 1.368 . S
C629 C613 1.349 . S
C629 H621 0.950 . S
C629 C627 1.327 . S
C630 C618 1.349 . S
C630 H624 0.950 . S
C630 C631 1.327 . S
C631 H625 0.950 . S
C631 C630 1.327 . S
C631 C635 1.429 . S
C632 C615 1.574 . S
C632 H626 0.949 . S
C632 C636 1.368 . S
C633 C614 1.429 . S
C633 C627 1.429 . S
C633 C634 1.523 . S
C634 C615 1.368 . S
C634 C628 1.368 . S
C634 C633 1.523 . S
C635 C619 1.429 . S
C635 C631 1.429 . S
C635 C636 1.523 . S
C636 C620 1.368 . S
C636 C632 1.368 . S
C636 C635 1.523 . S
H637 C612 0.950 . S
H638 C614 0.950 . S
H639 C615 0.949 . S
H640 C617 0.950 . S
H641 C619 0.950 . S
C642 C643 1.349 . S
C642 C644 1.327 . S
C642 H667 0.950 . S
C643 C642 1.349 . S
C643 C659 1.349 . S
C644 C642 1.327 . S
C644 C663 1.429 . S
C644 H668 0.950 . S
C645 C662 1.574 . S
C645 C664 1.368 . S
C645 H669 0.949 . S
H646 C650 0.949 . S
C647 C648 1.349 . S
C647 C649 1.327 . S
C647 H670 0.950 . S
C648 C647 1.349 . S
C648 C660 1.349 . S
C649 C647 1.327 . S
C649 C665 1.429 . S
C649 H671 0.950 . S
C650 H646 0.949 . S
C650 C658 1.574 . S
C650 C666 1.368 . S
H651 C659 0.950 . S
H652 C657 0.950 . S
H653 C658 0.949 . S
H654 C660 0.950 . S
H655 C661 0.950 . S
H656 C662 0.949 . S
C657 H652 0.950 . S
C657 C659 1.327 . S
C657 C663 1.429 . S
C658 C650 1.574 . S
C658 H653 0.949 . S
C658 C664 1.368 . S
C659 C643 1.349 . S
C659 H651 0.950 . S
C659 C657 1.327 . S
C660 C648 1.349 . S
C660 H654 0.950 . S
C660 C661 1.327 . S
C661 H655 0.950 . S
C661 C660 1.327 . S
C661 C665 1.429 . S
C662 C645 1.574 . S
C662 H656 0.949 . S
C662 C666 1.368 . S
C663 C644 1.429 . S
C663 C657 1.429 . S
C663 C664 1.523 . S
C664 C645 1.368 . S
C664 C658 1.368 . S
C664 C663 1.523 . S
C665 C649 1.429 . S
C665 C661 1.429 . S
C665 C666 1.523 . S
C666 C650 1.368 . S
C666 C662 1.368 . S
C666 C665 1.523 . S
H667 C642 0.950 . S
H668 C644 0.950 . S
H669 C645 0.949 . S
H670 C647 0.950 . S
H671 C649 0.950 . S
C672 C673 1.349 . S
C672 C674 1.327 . S
C672 H697 0.950 . S
C673 C672 1.349 . S
C673 C689 1.349 . S
C674 C672 1.327 . S
C674 C693 1.429 . S
C674 H698 0.950 . S
C675 C692 1.574 . S
C675 C694 1.368 . S
C675 H699 0.949 . S
H676 C680 0.949 . S
C677 C678 1.349 . S
C677 C679 1.327 . S
C677 H700 0.950 . S
C678 C677 1.349 . S
C678 C690 1.349 . S
C679 C677 1.327 . S
C679 C695 1.429 . S
C679 H701 0.950 . S
C680 H676 0.949 . S
C680 C688 1.574 . S
C680 C696 1.368 . S
H681 C689 0.950 . S
H682 C687 0.950 . S
H683 C688 0.949 . S
H684 C690 0.950 . S
H685 C691 0.950 . S
H686 C692 0.949 . S
C687 H682 0.950 . S
C687 C689 1.327 . S
C687 C693 1.429 . S
C688 C680 1.574 . S
C688 H683 0.949 . S
C688 C694 1.368 . S
C689 C673 1.349 . S
C689 H681 0.950 . S
C689 C687 1.327 . S
C690 C678 1.349 . S
C690 H684 0.950 . S
C690 C691 1.327 . S
C691 H685 0.950 . S
C691 C690 1.327 . S
C691 C695 1.429 . S
C692 C675 1.574 . S
C692 H686 0.949 . S
C692 C696 1.368 . S
C693 C674 1.429 . S
C693 C687 1.429 . S
C693 C694 1.523 . S
C694 C675 1.368 . S
C694 C688 1.368 . S
C694 C693 1.523 . S
C695 C679 1.429 . S
C695 C691 1.429 . S
C695 C696 1.523 . S
C696 C680 1.368 . S
C696 C692 1.368 . S
C696 C695 1.523 . S
H697 C672 0.950 . S
H698 C674 0.950 . S
H699 C675 0.949 . S
H700 C677 0.950 . S
H701 C679 0.950 . S
C702 C703 1.349 . S
C702 C704 1.327 . S
C702 H727 0.950 . S
C703 C702 1.349 . S
C703 C719 1.349 . S
C704 C702 1.327 . S
C704 C723 1.429 . S
C704 H728 0.950 . S
C705 C722 1.574 . S
C705 C724 1.368 . S
C705 H729 0.949 . S
H706 C710 0.949 . S
C707 C708 1.349 . S
C707 C709 1.327 . S
C707 H730 0.950 . S
C708 C707 1.349 . S
C708 C720 1.349 . S
C709 C707 1.327 . S
C709 C725 1.429 . S
C709 H731 0.950 . S
C710 H706 0.949 . S
C710 C718 1.574 . S
C710 C726 1.368 . S
H711 C719 0.950 . S
H712 C717 0.950 . S
H713 C718 0.949 . S
H714 C720 0.950 . S
H715 C721 0.950 . S
H716 C722 0.949 . S
C717 H712 0.950 . S
C717 C719 1.327 . S
C717 C723 1.429 . S
C718 C710 1.574 . S
C718 H713 0.949 . S
C718 C724 1.368 . S
C719 C703 1.349 . S
C719 H711 0.950 . S
C719 C717 1.327 . S
C720 C708 1.349 . S
C720 H714 0.950 . S
C720 C721 1.327 . S
C721 H715 0.950 . S
C721 C720 1.327 . S
C721 C725 1.429 . S
C722 C705 1.574 . S
C722 H716 0.949 . S
C722 C726 1.368 . S
C723 C704 1.429 . S
C723 C717 1.429 . S
C723 C724 1.523 . S
C724 C705 1.368 . S
C724 C718 1.368 . S
C724 C723 1.523 . S
C725 C709 1.429 . S
C725 C721 1.429 . S
C725 C726 1.523 . S
C726 C710 1.368 . S
C726 C722 1.368 . S
C726 C725 1.523 . S
H727 C702 0.950 . S
H728 C704 0.950 . S
H729 C705 0.949 . S
H730 C707 0.950 . S
H731 C709 0.950 . S
C732 C733 1.349 . S
C732 C734 1.327 . S
C732 H757 0.950 . S
C733 C732 1.349 . S
C733 C749 1.349 . S
C734 C732 1.327 . S
C734 C753 1.429 . S
C734 H758 0.950 . S
C735 C752 1.574 . S
C735 C754 1.368 . S
C735 H759 0.949 . S
H736 C740 0.949 . S
C737 C738 1.349 . S
C737 C739 1.327 . S
C737 H760 0.950 . S
C738 C737 1.349 . S
C738 C750 1.349 . S
C739 C737 1.327 . S
C739 C755 1.429 . S
C739 H761 0.950 . S
C740 H736 0.949 . S
C740 C748 1.574 . S
C740 C756 1.368 . S
H741 C749 0.950 . S
H742 C747 0.950 . S
H743 C748 0.949 . S
H744 C750 0.950 . S
H745 C751 0.950 . S
H746 C752 0.949 . S
C747 H742 0.950 . S
C747 C749 1.327 . S
C747 C753 1.429 . S
C748 C740 1.574 . S
C748 H743 0.949 . S
C748 C754 1.368 . S
C749 C733 1.349 . S
C749 H741 0.950 . S
C749 C747 1.327 . S
C750 C738 1.349 . S
C750 H744 0.950 . S
C750 C751 1.327 . S
C751 H745 0.950 . S
C751 C750 1.327 . S
C751 C755 1.429 . S
C752 C735 1.574 . S
C752 H746 0.949 . S
C752 C756 1.368 . S
C753 C734 1.429 . S
C753 C747 1.429 . S
C753 C754 1.523 . S
C754 C735 1.368 . S
C754 C748 1.368 . S
C754 C753 1.523 . S
C755 C739 1.429 . S
C755 C751 1.429 . S
C755 C756 1.523 . S
C756 C740 1.368 . S
C756 C752 1.368 . S
C756 C755 1.523 . S
H757 C732 0.950 . S
H758 C734 0.950 . S
H759 C735 0.949 . S
H760 C737 0.950 . S
H761 C739 0.950 . S
C762 C763 1.349 . S
C762 C764 1.327 . S
C762 H787 0.950 . S
C763 C762 1.349 . S
C763 C779 1.349 . S
C764 C762 1.327 . S
C764 C783 1.429 . S
C764 H788 0.950 . S
C765 C782 1.574 . S
C765 C784 1.368 . S
C765 H789 0.949 . S
H766 C770 0.949 . S
C767 C768 1.349 . S
C767 C769 1.327 . S
C767 H790 0.950 . S
C768 C767 1.349 . S
C768 C780 1.349 . S
C769 C767 1.327 . S
C769 C785 1.429 . S
C769 H791 0.950 . S
C770 H766 0.949 . S
C770 C778 1.574 . S
C770 C786 1.368 . S
H771 C779 0.950 . S
H772 C777 0.950 . S
H773 C778 0.949 . S
H774 C780 0.950 . S
H775 C781 0.950 . S
H776 C782 0.949 . S
C777 H772 0.950 . S
C777 C779 1.327 . S
C777 C783 1.429 . S
C778 C770 1.574 . S
C778 H773 0.949 . S
C778 C784 1.368 . S
C779 C763 1.349 . S
C779 H771 0.950 . S
C779 C777 1.327 . S
C780 C768 1.349 . S
C780 H774 0.950 . S
C780 C781 1.327 . S
C781 H775 0.950 . S
C781 C780 1.327 . S
C781 C785 1.429 . S
C782 C765 1.574 . S
C782 H776 0.949 . S
C782 C786 1.368 . S
C783 C764 1.429 . S
C783 C777 1.429 . S
C783 C784 1.523 . S
C784 C765 1.368 . S
C784 C778 1.368 . S
C784 C783 1.523 . S
C785 C769 1.429 . S
C785 C781 1.429 . S
C785 C786 1.523 . S
C786 C770 1.368 . S
C786 C782 1.368 . S
C786 C785 1.523 . S
H787 C762 0.950 . S
H788 C764 0.950 . S
H789 C765 0.949 . S
H790 C767 0.950 . S
H791 C769 0.950 . S
C792 C793 1.349 . S
C792 C794 1.327 . S
C792 H817 0.950 . S
C793 C792 1.349 . S
C793 C809 1.349 . S
C794 C792 1.327 . S
C794 C813 1.429 . S
C794 H818 0.950 . S
C795 C812 1.574 . S
C795 C814 1.368 . S
C795 H819 0.949 . S
H796 C800 0.949 . S
C797 C798 1.349 . S
C797 C799 1.327 . S
C797 H820 0.950 . S
C798 C797 1.349 . S
C798 C810 1.349 . S
C799 C797 1.327 . S
C799 C815 1.429 . S
C799 H821 0.950 . S
C800 H796 0.949 . S
C800 C808 1.574 . S
C800 C816 1.368 . S
H801 C809 0.950 . S
H802 C807 0.950 . S
H803 C808 0.949 . S
H804 C810 0.950 . S
H805 C811 0.950 . S
H806 C812 0.949 . S
C807 H802 0.950 . S
C807 C809 1.327 . S
C807 C813 1.429 . S
C808 C800 1.574 . S
C808 H803 0.949 . S
C808 C814 1.368 . S
C809 C793 1.349 . S
C809 H801 0.950 . S
C809 C807 1.327 . S
C810 C798 1.349 . S
C810 H804 0.950 . S
C810 C811 1.327 . S
C811 H805 0.950 . S
C811 C810 1.327 . S
C811 C815 1.429 . S
C812 C795 1.574 . S
C812 H806 0.949 . S
C812 C816 1.368 . S
C813 C794 1.429 . S
C813 C807 1.429 . S
C813 C814 1.523 . S
C814 C795 1.368 . S
C814 C808 1.368 . S
C814 C813 1.523 . S
C815 C799 1.429 . S
C815 C811 1.429 . S
C815 C816 1.523 . S
C816 C800 1.368 . S
C816 C812 1.368 . S
C816 C815 1.523 . S
H817 C792 0.950 . S
H818 C794 0.950 . S
H819 C795 0.949 . S
H820 C797 0.950 . S
H821 C799 0.950 . S
C822 C823 1.349 . S
C822 C824 1.327 . S
C822 H847 0.950 . S
C823 C822 1.349 . S
C823 C839 1.349 . S
C824 C822 1.327 . S
C824 C843 1.429 . S
C824 H848 0.950 . S
C825 C842 1.574 . S
C825 C844 1.368 . S
C825 H849 0.949 . S
H826 C830 0.949 . S
C827 C828 1.349 . S
C827 C829 1.327 . S
C827 H850 0.950 . S
C828 C827 1.349 . S
C828 C840 1.349 . S
C829 C827 1.327 . S
C829 C845 1.429 . S
C829 H851 0.950 . S
C830 H826 0.949 . S
C830 C838 1.574 . S
C830 C846 1.368 . S
H831 C839 0.950 . S
H832 C837 0.950 . S
H833 C838 0.949 . S
H834 C840 0.950 . S
H835 C841 0.950 . S
H836 C842 0.949 . S
C837 H832 0.950 . S
C837 C839 1.327 . S
C837 C843 1.429 . S
C838 C830 1.574 . S
C838 H833 0.949 . S
C838 C844 1.368 . S
C839 C823 1.349 . S
C839 H831 0.950 . S
C839 C837 1.327 . S
C840 C828 1.349 . S
C840 H834 0.950 . S
C840 C841 1.327 . S
C841 H835 0.950 . S
C841 C840 1.327 . S
C841 C845 1.429 . S
C842 C825 1.574 . S
C842 H836 0.949 . S
C842 C846 1.368 . S
C843 C824 1.429 . S
C843 C837 1.429 . S
C843 C844 1.523 . S
C844 C825 1.368 . S
C844 C838 1.368 . S
C844 C843 1.523 . S
C845 C829 1.429 . S
C845 C841 1.429 . S
C845 C846 1.523 . S
C846 C830 1.368 . S
C846 C842 1.368 . S
C846 C845 1.523 . S
H847 C822 0.950 . S
H848 C824 0.950 . S
H849 C825 0.949 . S
H850 C827 0.950 . S
H851 C829 0.950 . S
C852 C853 1.349 . S
C852 C854 1.327 . S
C852 H877 0.950 . S
C853 C852 1.349 . S
C853 C869 1.349 . S
C854 C852 1.327 . S
C854 C873 1.429 . S
C854 H878 0.950 . S
C855 C872 1.574 . S
C855 C874 1.368 . S
C855 H879 0.949 . S
H856 C860 0.949 . S
C857 C858 1.349 . S
C857 C859 1.327 . S
C857 H880 0.950 . S
C858 C857 1.349 . S
C858 C870 1.349 . S
C859 C857 1.327 . S
C859 C875 1.429 . S
C859 H881 0.950 . S
C860 H856 0.949 . S
C860 C868 1.574 . S
C860 C876 1.368 . S
H861 C869 0.950 . S
H862 C867 0.950 . S
H863 C868 0.949 . S
H864 C870 0.950 . S
H865 C871 0.950 . S
H866 C872 0.949 . S
C867 H862 0.950 . S
C867 C869 1.327 . S
C867 C873 1.429 . S
C868 C860 1.574 . S
C868 H863 0.949 . S
C868 C874 1.368 . S
C869 C853 1.349 . S
C869 H861 0.950 . S
C869 C867 1.327 . S
C870 C858 1.349 . S
C870 H864 0.950 . S
C870 C871 1.327 . S
C871 H865 0.950 . S
C871 C870 1.327 . S
C871 C875 1.429 . S
C872 C855 1.574 . S
C872 H866 0.949 . S
C872 C876 1.368 . S
C873 C854 1.429 . S
C873 C867 1.429 . S
C873 C874 1.523 . S
C874 C855 1.368 . S
C874 C868 1.368 . S
C874 C873 1.523 . S
C875 C859 1.429 . S
C875 C871 1.429 . S
C875 C876 1.523 . S
C876 C860 1.368 . S
C876 C872 1.368 . S
C876 C875 1.523 . S
H877 C852 0.950 . S
H878 C854 0.950 . S
H879 C855 0.949 . S
H880 C857 0.950 . S
H881 C859 0.950 . S
C882 C883 1.349 . S
C882 C884 1.327 . S
C882 H907 0.950 . S
C883 C882 1.349 . S
C883 C899 1.349 . S
C884 C882 1.327 . S
C884 C903 1.429 . S
C884 H908 0.950 . S
C885 C902 1.574 . S
C885 C904 1.368 . S
C885 H909 0.949 . S
H886 C890 0.949 . S
C887 C888 1.349 . S
C887 C889 1.327 . S
C887 H910 0.950 . S
C888 C887 1.349 . S
C888 C900 1.349 . S
C889 C887 1.327 . S
C889 C905 1.429 . S
C889 H911 0.950 . S
C890 H886 0.949 . S
C890 C898 1.574 . S
C890 C906 1.368 . S
H891 C899 0.950 . S
H892 C897 0.950 . S
H893 C898 0.949 . S
H894 C900 0.950 . S
H895 C901 0.950 . S
H896 C902 0.949 . S
C897 H892 0.950 . S
C897 C899 1.327 . S
C897 C903 1.429 . S
C898 C890 1.574 . S
C898 H893 0.949 . S
C898 C904 1.368 . S
C899 C883 1.349 . S
C899 H891 0.950 . S
C899 C897 1.327 . S
C900 C888 1.349 . S
C900 H894 0.950 . S
C900 C901 1.327 . S
C901 H895 0.950 . S
C901 C900 1.327 . S
C901 C905 1.429 . S
C902 C885 1.574 . S
C902 H896 0.949 . S
C902 C906 1.368 . S
C903 C884 1.429 . S
C903 C897 1.429 . S
C903 C904 1.523 . S
C904 C885 1.368 . S
C904 C898 1.368 . S
C904 C903 1.523 . S
C905 C889 1.429 . S
C905 C901 1.429 . S
C905 C906 1.523 . S
C906 C890 1.368 . S
C906 C902 1.368 . S
C906 C905 1.523 . S
H907 C882 0.950 . S
H908 C884 0.950 . S
H909 C885 0.949 . S
H910 C887 0.950 . S
H911 C889 0.950 . S
C912 C913 1.349 . S
C912 C914 1.327 . S
C912 H937 0.950 . S
C913 C912 1.349 . S
C913 C929 1.349 . S
C914 C912 1.327 . S
C914 C933 1.429 . S
C914 H938 0.950 . S
C915 C932 1.574 . S
C915 C934 1.368 . S
C915 H939 0.949 . S
H916 C920 0.949 . S
C917 C918 1.349 . S
C917 C919 1.327 . S
C917 H940 0.950 . S
C918 C917 1.349 . S
C918 C930 1.349 . S
C919 C917 1.327 . S
C919 C935 1.429 . S
C919 H941 0.950 . S
C920 H916 0.949 . S
C920 C928 1.574 . S
C920 C936 1.368 . S
H921 C929 0.950 . S
H922 C927 0.950 . S
H923 C928 0.949 . S
H924 C930 0.950 . S
H925 C931 0.950 . S
H926 C932 0.949 . S
C927 H922 0.950 . S
C927 C929 1.327 . S
C927 C933 1.429 . S
C928 C920 1.574 . S
C928 H923 0.949 . S
C928 C934 1.368 . S
C929 C913 1.349 . S
C929 H921 0.950 . S
C929 C927 1.327 . S
C930 C918 1.349 . S
C930 H924 0.950 . S
C930 C931 1.327 . S
C931 H925 0.950 . S
C931 C930 1.327 . S
C931 C935 1.429 . S
C932 C915 1.574 . S
C932 H926 0.949 . S
C932 C936 1.368 . S
C933 C914 1.429 . S
C933 C927 1.429 . S
C933 C934 1.523 . S
C934 C915 1.368 . S
C934 C928 1.368 . S
C934 C933 1.523 . S
C935 C919 1.429 . S
C935 C931 1.429 . S
C935 C936 1.523 . S
C936 C920 1.368 . S
C936 C932 1.368 . S
C936 C935 1.523 . S
H937 C912 0.950 . S
H938 C914 0.950 . S
H939 C915 0.949 . S
H940 C917 0.950 . S
H941 C919 0.950 . S
C942 C943 1.349 . S
C942 C944 1.327 . S
C942 H967 0.950 . S
C943 C942 1.349 . S
C943 C959 1.349 . S
C944 C942 1.327 . S
C944 C963 1.429 . S
C944 H968 0.950 . S
C945 C962 1.574 . S
C945 C964 1.368 . S
C945 H969 0.949 . S
H946 C950 0.949 . S
C947 C948 1.349 . S
C947 C949 1.327 . S
C947 H970 0.950 . S
C948 C947 1.349 . S
C948 C960 1.349 . S
C949 C947 1.327 . S
C949 C965 1.429 . S
C949 H971 0.950 . S
C950 H946 0.949 . S
C950 C958 1.574 . S
C950 C966 1.368 . S
H951 C959 0.950 . S
H952 C957 0.950 . S
H953 C958 0.949 . S
H954 C960 0.950 . S
H955 C961 0.950 . S
H956 C962 0.949 . S
C957 H952 0.950 . S
C957 C959 1.327 . S
C957 C963 1.429 . S
C958 C950 1.574 . S
C958 H953 0.949 . S
C958 C964 1.368 . S
C959 C943 1.349 . S
C959 H951 0.950 . S
C959 C957 1.327 . S
C960 C948 1.349 . S
C960 H954 0.950 . S
C960 C961 1.327 . S
C961 H955 0.950 . S
C961 C960 1.327 . S
C961 C965 1.429 . S
C962 C945 1.574 . S
C962 H956 0.949 . S
C962 C966 1.368 . S
C963 C944 1.429 . S
C963 C957 1.429 . S
C963 C964 1.523 . S
C964 C945 1.368 . S
C964 C958 1.368 . S
C964 C963 1.523 . S
C965 C949 1.429 . S
C965 C961 1.429 . S
C965 C966 1.523 . S
C966 C950 1.368 . S
C966 C962 1.368 . S
C966 C965 1.523 . S
H967 C942 0.950 . S
H968 C944 0.950 . S
H969 C945 0.949 . S
H970 C947 0.950 . S
H971 C949 0.950 . S
C972 C973 1.349 . S
C972 C974 1.327 . S
C972 H997 0.950 . S
C973 C972 1.349 . S
C973 C989 1.349 . S
C974 C972 1.327 . S
C974 C993 1.429 . S
C974 H998 0.950 . S
C975 C992 1.574 . S
C975 C994 1.368 . S
C975 H999 0.949 . S
H976 C980 0.949 . S
C977 C978 1.349 . S
C977 C979 1.327 . S
C977 H1000 0.950 . S
C978 C977 1.349 . S
C978 C990 1.349 . S
C979 C977 1.327 . S
C979 C995 1.429 . S
C979 H1001 0.950 . S
C980 H976 0.949 . S
C980 C988 1.574 . S
C980 C996 1.368 . S
H981 C989 0.950 . S
H982 C987 0.950 . S
H983 C988 0.949 . S
H984 C990 0.950 . S
H985 C991 0.950 . S
H986 C992 0.949 . S
C987 H982 0.950 . S
C987 C989 1.327 . S
C987 C993 1.429 . S
C988 C980 1.574 . S
C988 H983 0.949 . S
C988 C994 1.368 . S
C989 C973 1.349 . S
C989 H981 0.950 . S
C989 C987 1.327 . S
C990 C978 1.349 . S
C990 H984 0.950 . S
C990 C991 1.327 . S
C991 H985 0.950 . S
C991 C990 1.327 . S
C991 C995 1.429 . S
C992 C975 1.574 . S
C992 H986 0.949 . S
C992 C996 1.368 . S
C993 C974 1.429 . S
C993 C987 1.429 . S
C993 C994 1.523 . S
C994 C975 1.368 . S
C994 C988 1.368 . S
C994 C993 1.523 . S
C995 C979 1.429 . S
C995 C991 1.429 . S
C995 C996 1.523 . S
C996 C980 1.368 . S
C996 C992 1.368 . S
C996 C995 1.523 . S
H997 C972 0.950 . S
H998 C974 0.950 . S
H999 C975 0.949 . S
H1000 C977 0.950 . S
H1001 C979 0.950 . S
C1002 C1003 1.349 . S
C1002 C1004 1.327 . S
C1002 H1027 0.950 . S
C1003 C1002 1.349 . S
C1003 C1019 1.349 . S
C1004 C1002 1.327 . S
C1004 C1023 1.429 . S
C1004 H1028 0.950 . S
C1005 C1022 1.574 . S
C1005 C1024 1.368 . S
C1005 H1029 0.949 . S
H1006 C1010 0.949 . S
C1007 C1008 1.349 . S
C1007 C1009 1.327 . S
C1007 H1030 0.950 . S
C1008 C1007 1.349 . S
C1008 C1020 1.349 . S
C1009 C1007 1.327 . S
C1009 C1025 1.429 . S
C1009 H1031 0.950 . S
C1010 H1006 0.949 . S
C1010 C1018 1.574 . S
C1010 C1026 1.368 . S
H1011 C1019 0.950 . S
H1012 C1017 0.950 . S
H1013 C1018 0.949 . S
H1014 C1020 0.950 . S
H1015 C1021 0.950 . S
H1016 C1022 0.949 . S
C1017 H1012 0.950 . S
C1017 C1019 1.327 . S
C1017 C1023 1.429 . S
C1018 C1010 1.574 . S
C1018 H1013 0.949 . S
C1018 C1024 1.368 . S
C1019 C1003 1.349 . S
C1019 H1011 0.950 . S
C1019 C1017 1.327 . S
C1020 C1008 1.349 . S
C1020 H1014 0.950 . S
C1020 C1021 1.327 . S
C1021 H1015 0.950 . S
C1021 C1020 1.327 . S
C1021 C1025 1.429 . S
C1022 C1005 1.574 . S
C1022 H1016 0.949 . S
C1022 C1026 1.368 . S
C1023 C1004 1.429 . S
C1023 C1017 1.429 . S
C1023 C1024 1.523 . S
C1024 C1005 1.368 . S
C1024 C1018 1.368 . S
C1024 C1023 1.523 . S
C1025 C1009 1.429 . S
C1025 C1021 1.429 . S
C1025 C1026 1.523 . S
C1026 C1010 1.368 . S
C1026 C1022 1.368 . S
C1026 C1025 1.523 . S
H1027 C1002 0.950 . S
H1028 C1004 0.950 . S
H1029 C1005 0.949 . S
H1030 C1007 0.950 . S
H1031 C1009 0.950 . S
C1032 C1033 1.349 . S
C1032 C1034 1.327 . S
C1032 H1057 0.950 . S
C1033 C1032 1.349 . S
C1033 C1049 1.349 . S
C1034 C1032 1.327 . S
C1034 C1053 1.429 . S
C1034 H1058 0.950 . S
C1035 C1052 1.574 . S
C1035 C1054 1.368 . S
C1035 H1059 0.949 . S
H1036 C1040 0.949 . S
C1037 C1038 1.349 . S
C1037 C1039 1.327 . S
C1037 H1060 0.950 . S
C1038 C1037 1.349 . S
C1038 C1050 1.349 . S
C1039 C1037 1.327 . S
C1039 C1055 1.429 . S
C1039 H1061 0.950 . S
C1040 H1036 0.949 . S
C1040 C1048 1.574 . S
C1040 C1056 1.368 . S
H1041 C1049 0.950 . S
H1042 C1047 0.950 . S
H1043 C1048 0.949 . S
H1044 C1050 0.950 . S
H1045 C1051 0.950 . S
H1046 C1052 0.949 . S
C1047 H1042 0.950 . S
C1047 C1049 1.327 . S
C1047 C1053 1.429 . S
C1048 C1040 1.574 . S
C1048 H1043 0.949 . S
C1048 C1054 1.368 . S
C1049 C1033 1.349 . S
C1049 H1041 0.950 . S
C1049 C1047 1.327 . S
C1050 C1038 1.349 . S
C1050 H1044 0.950 . S
C1050 C1051 1.327 . S
C1051 H1045 0.950 . S
C1051 C1050 1.327 . S
C1051 C1055 1.429 . S
C1052 C1035 1.574 . S
C1052 H1046 0.949 . S
C1052 C1056 1.368 . S
C1053 C1034 1.429 . S
C1053 C1047 1.429 . S
C1053 C1054 1.523 . S
C1054 C1035 1.368 . S
C1054 C1048 1.368 . S
C1054 C1053 1.523 . S
C1055 C1039 1.429 . S
C1055 C1051 1.429 . S
C1055 C1056 1.523 . S
C1056 C1040 1.368 . S
C1056 C1052 1.368 . S
C1056 C1055 1.523 . S
H1057 C1032 0.950 . S
H1058 C1034 0.950 . S
H1059 C1035 0.949 . S
H1060 C1037 0.950 . S
H1061 C1039 0.950 . S
C1062 C1063 1.349 . S
C1062 C1064 1.327 . S
C1062 H1087 0.950 . S
C1063 C1062 1.349 . S
C1063 C1079 1.349 . S
C1064 C1062 1.327 . S
C1064 C1083 1.429 . S
C1064 H1088 0.950 . S
C1065 C1082 1.574 . S
C1065 C1084 1.368 . S
C1065 H1089 0.949 . S
H1066 C1070 0.949 . S
C1067 C1068 1.349 . S
C1067 C1069 1.327 . S
C1067 H1090 0.950 . S
C1068 C1067 1.349 . S
C1068 C1080 1.349 . S
C1069 C1067 1.327 . S
C1069 C1085 1.429 . S
C1069 H1091 0.950 . S
C1070 H1066 0.949 . S
C1070 C1078 1.574 . S
C1070 C1086 1.368 . S
H1071 C1079 0.950 . S
H1072 C1077 0.950 . S
H1073 C1078 0.949 . S
H1074 C1080 0.950 . S
H1075 C1081 0.950 . S
H1076 C1082 0.949 . S
C1077 H1072 0.950 . S
C1077 C1079 1.327 . S
C1077 C1083 1.429 . S
C1078 C1070 1.574 . S
C1078 H1073 0.949 . S
C1078 C1084 1.368 . S
C1079 C1063 1.349 . S
C1079 H1071 0.950 . S
C1079 C1077 1.327 . S
C1080 C1068 1.349 . S
C1080 H1074 0.950 . S
C1080 C1081 1.327 . S
C1081 H1075 0.950 . S
C1081 C1080 1.327 . S
C1081 C1085 1.429 . S
C1082 C1065 1.574 . S
C1082 H1076 0.949 . S
C1082 C1086 1.368 . S
C1083 C1064 1.429 . S
C1083 C1077 1.429 . S
C1083 C1084 1.523 . S
C1084 C1065 1.368 . S
C1084 C1078 1.368 . S
C1084 C1083 1.523 . S
C1085 C1069 1.429 . S
C1085 C1081 1.429 . S
C1085 C1086 1.523 . S
C1086 C1070 1.368 . S
C1086 C1082 1.368 . S
C1086 C1085 1.523 . S
H1087 C1062 0.950 . S
H1088 C1064 0.950 . S
H1089 C1065 0.949 . S
H1090 C1067 0.950 . S
H1091 C1069 0.950 . S
C1092 C1093 1.349 . S
C1092 C1094 1.327 . S
C1092 H1117 0.950 . S
C1093 C1092 1.349 . S
C1093 C1109 1.349 . S
C1094 C1092 1.327 . S
C1094 C1113 1.429 . S
C1094 H1118 0.950 . S
C1095 C1112 1.574 . S
C1095 C1114 1.368 . S
C1095 H1119 0.949 . S
H1096 C1100 0.949 . S
C1097 C1098 1.349 . S
C1097 C1099 1.327 . S
C1097 H1120 0.950 . S
C1098 C1097 1.349 . S
C1098 C1110 1.349 . S
C1099 C1097 1.327 . S
C1099 C1115 1.429 . S
C1099 H1121 0.950 . S
C1100 H1096 0.949 . S
C1100 C1108 1.574 . S
C1100 C1116 1.368 . S
H1101 C1109 0.950 . S
H1102 C1107 0.950 . S
H1103 C1108 0.949 . S
H1104 C1110 0.950 . S
H1105 C1111 0.950 . S
H1106 C1112 0.949 . S
C1107 H1102 0.950 . S
C1107 C1109 1.327 . S
C1107 C1113 1.429 . S
C1108 C1100 1.574 . S
C1108 H1103 0.949 . S
C1108 C1114 1.368 . S
C1109 C1093 1.349 . S
C1109 H1101 0.950 . S
C1109 C1107 1.327 . S
C1110 C1098 1.349 . S
C1110 H1104 0.950 . S
C1110 C1111 1.327 . S
C1111 H1105 0.950 . S
C1111 C1110 1.327 . S
C1111 C1115 1.429 . S
C1112 C1095 1.574 . S
C1112 H1106 0.949 . S
C1112 C1116 1.368 . S
C1113 C1094 1.429 . S
C1113 C1107 1.429 . S
C1113 C1114 1.523 . S
C1114 C1095 1.368 . S
C1114 C1108 1.368 . S
C1114 C1113 1.523 . S
C1115 C1099 1.429 . S
C1115 C1111 1.429 . S
C1115 C1116 1.523 . S
C1116 C1100 1.368 . S
C1116 C1112 1.368 . S
C1116 C1115 1.523 . S
H1117 C1092 0.950 . S
H1118 C1094 0.950 . S
H1119 C1095 0.949 . S
H1120 C1097 0.950 . S
H1121 C1099 0.950 . S
C403 C13 1.920 . S
C408 C122 1.891 . S
C433 C27 1.639 . S
C438 C175 1.612 . S
C468 C228 1.788 . S
C463 C29 1.818 . S
C498 C265 1.472 . S
C493 C54 1.494 . S
C528 C325 1.727 . S
C523 C69 1.756 . S
C558 C378 1.562 . S
C553 C83 1.589 . S
C583 C15 1.920 . S
C588 C229 1.899 . S
C613 C41 1.589 . S
C618 C272 1.562 . S
C648 C318 1.733 . S
C643 C42 1.756 . S
C678 C371 1.472 . S
C673 C57 1.494 . S
C703 C71 1.818 . S
C708 C123 1.796 . S
C738 C176 1.618 . S
C733 C1 1.639 . S
C768 C282 1.892 . S
C763 C12 1.921 . S
C793 C26 1.639 . S
C798 C334 1.618 . S
C828 C387 1.795 . S
C823 C28 1.818 . S
C853 C55 1.493 . S
C858 C113 1.471 . S
C883 C68 1.756 . S
C888 C166 1.733 . S
C913 C82 1.589 . S
C918 C219 1.568 . S
C943 C14 1.921 . S
C948 C388 1.892 . S
C978 C106 1.562 . S
C973 C40 1.589 . S
C1003 C43 1.756 . S
C1008 C159 1.727 . S
C1033 C56 1.493 . S
C1038 C212 1.466 . S
C1063 C70 1.818 . S
C1068 C281 1.795 . S
C1093 C0 1.639 . S
C1098 C335 1.612 . S
