# Generated by pormake.
# Topology gar, (4,6)-cn, num edge types: 1
# Building blocks:
#     Node 0, Type 0, BuildingBlock: KUFVIS_clean_sbu_0, # of connection points: 4
#     Node 1, Type 0, BuildingBlock: KUFVIS_clean_sbu_0, # of connection points: 4
#     Node 2, Type 0, BuildingBlock: KUFVIS_clean_sbu_0, # of connection points: 4
#     Node 3, Type 0, BuildingBlock: KUFVIS_clean_sbu_0, # of connection points: 4
#     Node 4, Type 0, BuildingBlock: KUFVIS_clean_sbu_0, # of connection points: 4
#     Node 5, Type 0, BuildingBlock: KUFVIS_clean_sbu_0, # of connection points: 4
#     Node 6, Type 0, BuildingBlock: KUFVIS_clean_sbu_0, # of connection points: 4
#     Node 7, Type 0, BuildingBlock: KUFVIS_clean_sbu_0, # of connection points: 4
#     Node 8, Type 0, BuildingBlock: KUFVIS_clean_sbu_0, # of connection points: 4
#     Node 9, Type 0, BuildingBlock: KUFVIS_clean_sbu_0, # of connection points: 4
#     Node 10, Type 0, BuildingBlock: KUFVIS_clean_sbu_0, # of connection points: 4
#     Node 11, Type 0, BuildingBlock: KUFVIS_clean_sbu_0, # of connection points: 4
#     Node 12, Type 0, BuildingBlock: KUFVIS_clean_sbu_0, # of connection points: 4
#     Node 13, Type 0, BuildingBlock: KUFVIS_clean_sbu_0, # of connection points: 4
#     Node 14, Type 0, BuildingBlock: KUFVIS_clean_sbu_0, # of connection points: 4
#     Node 15, Type 0, BuildingBlock: KUFVIS_clean_sbu_0, # of connection points: 4
#     Node 16, Type 0, BuildingBlock: KUFVIS_clean_sbu_0, # of connection points: 4
#     Node 17, Type 0, BuildingBlock: KUFVIS_clean_sbu_0, # of connection points: 4
#     Node 18, Type 0, BuildingBlock: KUFVIS_clean_sbu_0, # of connection points: 4
#     Node 19, Type 0, BuildingBlock: KUFVIS_clean_sbu_0, # of connection points: 4
#     Node 20, Type 0, BuildingBlock: KUFVIS_clean_sbu_0, # of connection points: 4
#     Node 21, Type 0, BuildingBlock: KUFVIS_clean_sbu_0, # of connection points: 4
#     Node 22, Type 0, BuildingBlock: KUFVIS_clean_sbu_0, # of connection points: 4
#     Node 23, Type 0, BuildingBlock: KUFVIS_clean_sbu_0, # of connection points: 4
#     Node 24, Type 1, BuildingBlock: PAMTUU_clean_sbu_0, # of connection points: 6
#     Node 25, Type 1, BuildingBlock: PAMTUU_clean_sbu_0, # of connection points: 6
#     Node 26, Type 1, BuildingBlock: PAMTUU_clean_sbu_0, # of connection points: 6
#     Node 27, Type 1, BuildingBlock: PAMTUU_clean_sbu_0, # of connection points: 6
#     Node 28, Type 1, BuildingBlock: PAMTUU_clean_sbu_0, # of connection points: 6
#     Node 29, Type 1, BuildingBlock: PAMTUU_clean_sbu_0, # of connection points: 6
#     Node 30, Type 1, BuildingBlock: PAMTUU_clean_sbu_0, # of connection points: 6
#     Node 31, Type 1, BuildingBlock: PAMTUU_clean_sbu_0, # of connection points: 6
#     Node 32, Type 1, BuildingBlock: PAMTUU_clean_sbu_0, # of connection points: 6
#     Node 33, Type 1, BuildingBlock: PAMTUU_clean_sbu_0, # of connection points: 6
#     Node 34, Type 1, BuildingBlock: PAMTUU_clean_sbu_0, # of connection points: 6
#     Node 35, Type 1, BuildingBlock: PAMTUU_clean_sbu_0, # of connection points: 6
#     Node 36, Type 1, BuildingBlock: PAMTUU_clean_sbu_0, # of connection points: 6
#     Node 37, Type 1, BuildingBlock: PAMTUU_clean_sbu_0, # of connection points: 6
#     Node 38, Type 1, BuildingBlock: PAMTUU_clean_sbu_0, # of connection points: 6
#     Node 39, Type 1, BuildingBlock: PAMTUU_clean_sbu_0, # of connection points: 6
#     Edge 40, Type (0, 1), BuildingBlock: UVAHIK_clean_linker_0, # of connection points: 2
#     Edge 41, Type (0, 1), BuildingBlock: UVAHIK_clean_linker_0, # of connection points: 2
#     Edge 42, Type (0, 1), BuildingBlock: UVAHIK_clean_linker_0, # of connection points: 2
#     Edge 43, Type (0, 1), BuildingBlock: UVAHIK_clean_linker_0, # of connection points: 2
#     Edge 44, Type (0, 1), BuildingBlock: UVAHIK_clean_linker_0, # of connection points: 2
#     Edge 45, Type (0, 1), BuildingBlock: UVAHIK_clean_linker_0, # of connection points: 2
#     Edge 46, Type (0, 1), BuildingBlock: UVAHIK_clean_linker_0, # of connection points: 2
#     Edge 47, Type (0, 1), BuildingBlock: UVAHIK_clean_linker_0, # of connection points: 2
#     Edge 48, Type (0, 1), BuildingBlock: UVAHIK_clean_linker_0, # of connection points: 2
#     Edge 49, Type (0, 1), BuildingBlock: UVAHIK_clean_linker_0, # of connection points: 2
#     Edge 50, Type (0, 1), BuildingBlock: UVAHIK_clean_linker_0, # of connection points: 2
#     Edge 51, Type (0, 1), BuildingBlock: UVAHIK_clean_linker_0, # of connection points: 2
#     Edge 52, Type (0, 1), BuildingBlock: UVAHIK_clean_linker_0, # of connection points: 2
#     Edge 53, Type (0, 1), BuildingBlock: UVAHIK_clean_linker_0, # of connection points: 2
#     Edge 54, Type (0, 1), BuildingBlock: UVAHIK_clean_linker_0, # of connection points: 2
#     Edge 55, Type (0, 1), BuildingBlock: UVAHIK_clean_linker_0, # of connection points: 2
#     Edge 56, Type (0, 1), BuildingBlock: UVAHIK_clean_linker_0, # of connection points: 2
#     Edge 57, Type (0, 1), BuildingBlock: UVAHIK_clean_linker_0, # of connection points: 2
#     Edge 58, Type (0, 1), BuildingBlock: UVAHIK_clean_linker_0, # of connection points: 2
#     Edge 59, Type (0, 1), BuildingBlock: UVAHIK_clean_linker_0, # of connection points: 2
#     Edge 60, Type (0, 1), BuildingBlock: UVAHIK_clean_linker_0, # of connection points: 2
#     Edge 61, Type (0, 1), BuildingBlock: UVAHIK_clean_linker_0, # of connection points: 2
#     Edge 62, Type (0, 1), BuildingBlock: UVAHIK_clean_linker_0, # of connection points: 2
#     Edge 63, Type (0, 1), BuildingBlock: UVAHIK_clean_linker_0, # of connection points: 2
#     Edge 64, Type (0, 1), BuildingBlock: UVAHIK_clean_linker_0, # of connection points: 2
#     Edge 65, Type (0, 1), BuildingBlock: UVAHIK_clean_linker_0, # of connection points: 2
#     Edge 66, Type (0, 1), BuildingBlock: UVAHIK_clean_linker_0, # of connection points: 2
#     Edge 67, Type (0, 1), BuildingBlock: UVAHIK_clean_linker_0, # of connection points: 2
#     Edge 68, Type (0, 1), BuildingBlock: UVAHIK_clean_linker_0, # of connection points: 2
#     Edge 69, Type (0, 1), BuildingBlock: UVAHIK_clean_linker_0, # of connection points: 2
#     Edge 70, Type (0, 1), BuildingBlock: UVAHIK_clean_linker_0, # of connection points: 2
#     Edge 71, Type (0, 1), BuildingBlock: UVAHIK_clean_linker_0, # of connection points: 2
#     Edge 72, Type (0, 1), BuildingBlock: UVAHIK_clean_linker_0, # of connection points: 2
#     Edge 73, Type (0, 1), BuildingBlock: UVAHIK_clean_linker_0, # of connection points: 2
#     Edge 74, Type (0, 1), BuildingBlock: UVAHIK_clean_linker_0, # of connection points: 2
#     Edge 75, Type (0, 1), BuildingBlock: UVAHIK_clean_linker_0, # of connection points: 2
#     Edge 76, Type (0, 1), BuildingBlock: UVAHIK_clean_linker_0, # of connection points: 2
#     Edge 77, Type (0, 1), BuildingBlock: UVAHIK_clean_linker_0, # of connection points: 2
#     Edge 78, Type (0, 1), BuildingBlock: UVAHIK_clean_linker_0, # of connection points: 2
#     Edge 79, Type (0, 1), BuildingBlock: UVAHIK_clean_linker_0, # of connection points: 2
#     Edge 80, Type (0, 1), BuildingBlock: UVAHIK_clean_linker_0, # of connection points: 2
#     Edge 81, Type (0, 1), BuildingBlock: UVAHIK_clean_linker_0, # of connection points: 2
#     Edge 82, Type (0, 1), BuildingBlock: UVAHIK_clean_linker_0, # of connection points: 2
#     Edge 83, Type (0, 1), BuildingBlock: UVAHIK_clean_linker_0, # of connection points: 2
#     Edge 84, Type (0, 1), BuildingBlock: UVAHIK_clean_linker_0, # of connection points: 2
#     Edge 85, Type (0, 1), BuildingBlock: UVAHIK_clean_linker_0, # of connection points: 2
#     Edge 86, Type (0, 1), BuildingBlock: UVAHIK_clean_linker_0, # of connection points: 2
#     Edge 87, Type (0, 1), BuildingBlock: UVAHIK_clean_linker_0, # of connection points: 2
#     Edge 88, Type (0, 1), BuildingBlock: UVAHIK_clean_linker_0, # of connection points: 2
#     Edge 89, Type (0, 1), BuildingBlock: UVAHIK_clean_linker_0, # of connection points: 2
#     Edge 90, Type (0, 1), BuildingBlock: UVAHIK_clean_linker_0, # of connection points: 2
#     Edge 91, Type (0, 1), BuildingBlock: UVAHIK_clean_linker_0, # of connection points: 2
#     Edge 92, Type (0, 1), BuildingBlock: UVAHIK_clean_linker_0, # of connection points: 2
#     Edge 93, Type (0, 1), BuildingBlock: UVAHIK_clean_linker_0, # of connection points: 2
#     Edge 94, Type (0, 1), BuildingBlock: UVAHIK_clean_linker_0, # of connection points: 2
#     Edge 95, Type (0, 1), BuildingBlock: UVAHIK_clean_linker_0, # of connection points: 2
#     Edge 96, Type (0, 1), BuildingBlock: UVAHIK_clean_linker_0, # of connection points: 2
#     Edge 97, Type (0, 1), BuildingBlock: UVAHIK_clean_linker_0, # of connection points: 2
#     Edge 98, Type (0, 1), BuildingBlock: UVAHIK_clean_linker_0, # of connection points: 2
#     Edge 99, Type (0, 1), BuildingBlock: UVAHIK_clean_linker_0, # of connection points: 2
#     Edge 100, Type (0, 1), BuildingBlock: UVAHIK_clean_linker_0, # of connection points: 2
#     Edge 101, Type (0, 1), BuildingBlock: UVAHIK_clean_linker_0, # of connection points: 2
#     Edge 102, Type (0, 1), BuildingBlock: UVAHIK_clean_linker_0, # of connection points: 2
#     Edge 103, Type (0, 1), BuildingBlock: UVAHIK_clean_linker_0, # of connection points: 2
#     Edge 104, Type (0, 1), BuildingBlock: UVAHIK_clean_linker_0, # of connection points: 2
#     Edge 105, Type (0, 1), BuildingBlock: UVAHIK_clean_linker_0, # of connection points: 2
#     Edge 106, Type (0, 1), BuildingBlock: UVAHIK_clean_linker_0, # of connection points: 2
#     Edge 107, Type (0, 1), BuildingBlock: UVAHIK_clean_linker_0, # of connection points: 2
#     Edge 108, Type (0, 1), BuildingBlock: UVAHIK_clean_linker_0, # of connection points: 2
#     Edge 109, Type (0, 1), BuildingBlock: UVAHIK_clean_linker_0, # of connection points: 2
#     Edge 110, Type (0, 1), BuildingBlock: UVAHIK_clean_linker_0, # of connection points: 2
#     Edge 111, Type (0, 1), BuildingBlock: UVAHIK_clean_linker_0, # of connection points: 2
#     Edge 112, Type (0, 1), BuildingBlock: UVAHIK_clean_linker_0, # of connection points: 2
#     Edge 113, Type (0, 1), BuildingBlock: UVAHIK_clean_linker_0, # of connection points: 2
#     Edge 114, Type (0, 1), BuildingBlock: UVAHIK_clean_linker_0, # of connection points: 2
#     Edge 115, Type (0, 1), BuildingBlock: UVAHIK_clean_linker_0, # of connection points: 2
#     Edge 116, Type (0, 1), BuildingBlock: UVAHIK_clean_linker_0, # of connection points: 2
#     Edge 117, Type (0, 1), BuildingBlock: UVAHIK_clean_linker_0, # of connection points: 2
#     Edge 118, Type (0, 1), BuildingBlock: UVAHIK_clean_linker_0, # of connection points: 2
#     Edge 119, Type (0, 1), BuildingBlock: UVAHIK_clean_linker_0, # of connection points: 2
#     Edge 120, Type (0, 1), BuildingBlock: UVAHIK_clean_linker_0, # of connection points: 2
#     Edge 121, Type (0, 1), BuildingBlock: UVAHIK_clean_linker_0, # of connection points: 2
#     Edge 122, Type (0, 1), BuildingBlock: UVAHIK_clean_linker_0, # of connection points: 2
#     Edge 123, Type (0, 1), BuildingBlock: UVAHIK_clean_linker_0, # of connection points: 2
#     Edge 124, Type (0, 1), BuildingBlock: UVAHIK_clean_linker_0, # of connection points: 2
#     Edge 125, Type (0, 1), BuildingBlock: UVAHIK_clean_linker_0, # of connection points: 2
#     Edge 126, Type (0, 1), BuildingBlock: UVAHIK_clean_linker_0, # of connection points: 2
#     Edge 127, Type (0, 1), BuildingBlock: UVAHIK_clean_linker_0, # of connection points: 2
#     Edge 128, Type (0, 1), BuildingBlock: UVAHIK_clean_linker_0, # of connection points: 2
#     Edge 129, Type (0, 1), BuildingBlock: UVAHIK_clean_linker_0, # of connection points: 2
#     Edge 130, Type (0, 1), BuildingBlock: UVAHIK_clean_linker_0, # of connection points: 2
#     Edge 131, Type (0, 1), BuildingBlock: UVAHIK_clean_linker_0, # of connection points: 2
#     Edge 132, Type (0, 1), BuildingBlock: UVAHIK_clean_linker_0, # of connection points: 2
#     Edge 133, Type (0, 1), BuildingBlock: UVAHIK_clean_linker_0, # of connection points: 2
#     Edge 134, Type (0, 1), BuildingBlock: UVAHIK_clean_linker_0, # of connection points: 2
#     Edge 135, Type (0, 1), BuildingBlock: UVAHIK_clean_linker_0, # of connection points: 2
# Relax obj value: 0.144
# Max RMSD: 0.306
# Mean RMSD: 0.152
data_MOF--net-gar--node1-KUFVIS_clean_sbu_0--node2-PAMTUU_clean_sbu_0--edge1-UVAHIK_clean_linker_0
_symmetry_space_group_name_H-M    P1
_symmetry_Int_Tables_number       1
_symmetry_cell_setting            triclinic
loop_
_symmetry_equiv_pos_as_xyz
'x, y, z'
_cell_length_a     74.921287
_cell_length_b     71.332945
_cell_length_c     76.09772
_cell_angle_alpha  93.558194
_cell_angle_beta   93.327662
_cell_angle_gamma 106.44177
loop_
_atom_site_label
_atom_site_type_symbol
_atom_site_fract_x
_atom_site_fract_y
_atom_site_fract_z
_atom_type_partial_charge
Mn0 Mn 0.04685 0.26982 0.39372 0.0
Mn1 Mn 0.0485 0.30015 0.36041 0.0
C2 C 0.01774 0.27257 0.37856 0.0
C3 C 0.04685 0.23898 0.40779 0.0
C4 C 0.05419 0.31595 0.39948 0.0
O5 O 0.07464 0.2741 0.38504 0.0
O6 O 0.07301 0.2937 0.36345 0.0
C7 C 0.05116 0.27228 0.3308 0.0
N8 N 0.04266 0.28509 0.33809 0.0
C9 C 0.02167 0.28098 0.31207 0.0
C10 C 0.03032 0.26791 0.30421 0.0
C11 C 0.04507 0.26347 0.31366 0.0
C12 C 0.02833 0.2893 0.32919 0.0
H13 H 0.0625 0.2688 0.33799 0.0
C14 C 0.082 0.28384 0.37205 0.0
O15 O 0.05248 0.25636 0.41579 0.0
O16 O 0.04148 0.23919 0.39122 0.0
N17 N 0.0265 0.30783 0.35492 0.0
C18 C 0.0188 0.31965 0.36481 0.0
C19 C 1.00351 0.32499 0.35748 0.0
C20 C 0.99645 0.31837 0.34 0.0
C21 C 1.00472 0.30641 0.33001 0.0
C22 C 0.01996 0.30158 0.33801 0.0
H23 H 0.02416 0.32486 0.37824 0.0
O24 O 0.01853 0.26654 0.39429 0.0
O25 O 0.03404 0.27668 0.3719 0.0
O26 O 0.05242 0.29907 0.40552 0.0
O27 O 0.05407 0.31779 0.38284 0.0
C28 C 0.9981 0.29863 0.31261 0.0
C29 C 1.00652 0.28585 0.30367 0.0
H30 H 0.02564 0.26106 0.291 0.0
H31 H 0.05175 0.2533 0.30773 0.0
H32 H 0.99716 0.33419 0.3653 0.0
H33 H 0.98453 0.32237 0.33445 0.0
H34 H 0.98634 0.3021 0.30609 0.0
H35 H 1.0011 0.27969 0.2904 0.0
Mn36 Mn 0.04478 0.78378 0.66161 0.0
Mn37 Mn 0.05565 0.8187 0.69579 0.0
C38 C 0.07646 0.79403 0.67623 0.0
C39 C 0.03674 0.74986 0.64773 0.0
C40 C 0.04947 0.82883 0.65739 0.0
O41 O 0.01783 0.78289 0.67118 0.0
O42 O 0.02774 0.80529 0.69458 0.0
C43 C 0.04748 0.79375 0.72566 0.0
N44 N 0.05961 0.80792 0.71753 0.0
C45 C 0.08377 0.81143 0.74079 0.0
C46 C 0.07138 0.79723 0.74963 0.0
C47 C 0.05318 0.78829 0.74198 0.0
C48 C 0.0772 0.81652 0.72469 0.0
H49 H 0.03365 0.78654 0.71965 0.0
C50 C 0.01439 0.79253 0.68514 0.0
O51 O 0.03463 0.76458 0.63955 0.0
O52 O 0.04181 0.75434 0.66444 0.0
N53 N 0.0817 0.83241 0.69883 0.0
C54 C 0.0925 0.84403 0.68762 0.0
C55 C 0.11149 0.85299 0.69265 0.0
C56 C 0.11917 0.84992 0.70912 0.0
C57 C 0.1078 0.83785 0.7204 0.0
C58 C 0.08894 0.82942 0.71474 0.0
H59 H 0.08672 0.84633 0.67489 0.0
O60 O 0.07283 0.78708 0.65986 0.0
O61 O 0.06144 0.79596 0.68334 0.0
O62 O 0.04671 0.81113 0.65059 0.0
O63 O 0.05242 0.83272 0.67415 0.0
C64 C 0.11459 0.83337 0.73679 0.0
C65 C 0.10257 0.82019 0.74699 0.0
H66 H 0.07581 0.79278 0.76211 0.0
H67 H 0.04363 0.77708 0.74858 0.0
H68 H 0.1202 0.86218 0.68382 0.0
H69 H 0.13387 0.8567 0.71288 0.0
H70 H 0.12912 0.83965 0.7415 0.0
H71 H 0.10804 0.81652 0.75939 0.0
Mn72 Mn 0.54522 0.77304 0.89247 0.0
Mn73 Mn 0.54665 0.80266 0.85866 0.0
C74 C 0.516 0.77554 0.87734 0.0
C75 C 0.54536 0.74229 0.90671 0.0
C76 C 0.55255 0.81925 0.89751 0.0
O77 O 0.57302 0.77729 0.88378 0.0
O78 O 0.5712 0.79627 0.86172 0.0
C79 C 0.54897 0.7741 0.8295 0.0
N80 N 0.54051 0.78704 0.83662 0.0
C81 C 0.51885 0.78183 0.81096 0.0
C82 C 0.52744 0.76862 0.80328 0.0
C83 C 0.54252 0.76467 0.81263 0.0
C84 C 0.52588 0.79078 0.82782 0.0
H85 H 0.56054 0.77097 0.83662 0.0
C86 C 0.5803 0.7867 0.87058 0.0
O87 O 0.55096 0.75971 0.91465 0.0
O88 O 0.53995 0.74241 0.89015 0.0
N89 N 0.52459 0.81024 0.85314 0.0
C90 C 0.51718 0.82253 0.86277 0.0
C91 C 0.50171 0.82758 0.85547 0.0
C92 C 0.49417 0.82018 0.83826 0.0
C93 C 0.50218 0.80778 0.82851 0.0
C94 C 0.51763 0.8033 0.83646 0.0
H95 H 0.5229 0.82835 0.87598 0.0
O96 O 0.51689 0.76969 0.89312 0.0
O97 O 0.53227 0.77956 0.8706 0.0
O98 O 0.55072 0.8025 0.90385 0.0
O99 O 0.55247 0.82077 0.88082 0.0
C100 C 0.49513 0.7993 0.81138 0.0
C101 C 0.50341 0.78626 0.80265 0.0
H102 H 0.52249 0.7613 0.79027 0.0
H103 H 0.54916 0.7544 0.80683 0.0
H104 H 0.49559 0.83714 0.86309 0.0
H105 H 0.48211 0.82395 0.83274 0.0
H106 H 0.48316 0.80244 0.80493 0.0
H107 H 0.4977 0.77959 0.78959 0.0
Mn108 Mn 0.54707 0.28616 0.16224 0.0
Mn109 Mn 0.51288 0.27566 0.12867 0.0
C110 C 0.53582 0.25341 0.14707 0.0
C111 C 0.58013 0.2927 0.17475 0.0
C112 C 0.50399 0.28261 0.16722 0.0
O113 O 0.54912 0.31462 0.15245 0.0
O114 O 0.52612 0.30447 0.13045 0.0
C115 C 0.53597 0.28448 0.0983 0.0
N116 N 0.52293 0.27154 0.10673 0.0
C117 C 0.51979 0.24605 0.08354 0.0
C118 C 0.5331 0.25914 0.07456 0.0
C119 C 0.54123 0.27843 0.08198 0.0
C120 C 0.51494 0.25297 0.09967 0.0
H121 H 0.54234 0.29929 0.10399 0.0
C122 C 0.53921 0.31827 0.13904 0.0
O123 O 0.56688 0.29575 0.18374 0.0
O124 O 0.57472 0.28768 0.1582 0.0
N125 N 0.49948 0.24837 0.1254 0.0
C126 C 0.4881 0.23715 0.13645 0.0
C127 C 0.47947 0.21722 0.13135 0.0
C128 C 0.48265 0.20905 0.11497 0.0
C129 C 0.49445 0.22088 0.10384 0.0
C130 C 0.50253 0.24069 0.10956 0.0
H131 H 0.48574 0.2433 0.14912 0.0
O132 O 0.54271 0.25636 0.16337 0.0
O133 O 0.53443 0.26949 0.14064 0.0
O134 O 0.52098 0.28525 0.17384 0.0
O135 O 0.50004 0.27928 0.15052 0.0
C136 C 0.49889 0.21368 0.08751 0.0
C137 C 0.51152 0.22626 0.07735 0.0
H138 H 0.53733 0.25448 0.06205 0.0
H139 H 0.55158 0.2886 0.07517 0.0
H140 H 0.47047 0.20815 0.14006 0.0
H141 H 0.47613 0.19362 0.11116 0.0
H142 H 0.4929 0.19841 0.08277 0.0
H143 H 0.51506 0.22048 0.06495 0.0
Mn144 Mn 0.08399 0.79213 0.13347 0.0
Mn145 Mn 0.05297 0.77574 0.09792 0.0
C146 C 0.07644 0.75955 0.12226 0.0
C147 C 0.11405 0.80521 0.14725 0.0
C148 C 0.04142 0.78186 0.13468 0.0
O149 O 0.08289 0.81786 0.12335 0.0
O150 O 0.06209 0.80486 0.10014 0.0
C151 C 0.07936 0.78841 0.07062 0.0
N152 N 0.06649 0.77393 0.0777 0.0
C153 C 0.06925 0.74983 0.0553 0.0
C154 C 0.08246 0.7645 0.04769 0.0
C155 C 0.08756 0.78387 0.05541 0.0
C156 C 0.06156 0.75524 0.07045 0.0
H157 H 0.08336 0.80331 0.07654 0.0
C158 C 0.0729 0.81961 0.10967 0.0
O159 O 0.09937 0.80617 0.15506 0.0
O160 O 0.11137 0.79789 0.13092 0.0
N161 N 0.04292 0.74789 0.09393 0.0
C162 C 0.0301 0.73545 0.10301 0.0
C163 C 0.02359 0.71548 0.09707 0.0
C164 C 0.03013 0.70857 0.08176 0.0
C165 C 0.04299 0.72174 0.07243 0.0
C166 C 0.04889 0.74149 0.07891 0.0
H167 H 0.025 0.74068 0.11477 0.0
O168 O 0.08315 0.76471 0.13847 0.0
O169 O 0.07444 0.7736 0.11291 0.0
O170 O 0.05795 0.78823 0.14206 0.0
O171 O 0.03787 0.77665 0.1182 0.0
C172 C 0.05035 0.716 0.05705 0.0
C173 C 0.06354 0.73002 0.04854 0.0
H174 H 0.08883 0.76105 0.03597 0.0
H175 H 0.0978 0.79526 0.04965 0.0
H176 H 0.01361 0.70543 0.10432 0.0
H177 H 0.02522 0.69313 0.07731 0.0
H178 H 0.04609 0.70082 0.05175 0.0
H179 H 0.06924 0.7254 0.03682 0.0
Mn180 Mn 0.51125 0.76367 0.41863 0.0
Mn181 Mn 0.50826 0.79011 0.38362 0.0
C182 C 0.48225 0.76154 0.40456 0.0
C183 C 0.51567 0.73593 0.43116 0.0
C184 C 0.51511 0.8079 0.42153 0.0
O185 O 0.53791 0.77124 0.41091 0.0
O186 O 0.53357 0.78711 0.38707 0.0
C187 C 0.51272 0.76158 0.3555 0.0
N188 N 0.50287 0.77331 0.36229 0.0
C189 C 0.48048 0.76484 0.33702 0.0
C190 C 0.49044 0.75275 0.32968 0.0
C191 C 0.50659 0.75104 0.339 0.0
C192 C 0.48721 0.77487 0.35355 0.0
H193 H 0.52517 0.7603 0.36261 0.0
C194 C 0.54376 0.7803 0.39746 0.0
O195 O 0.51913 0.75274 0.44021 0.0
O196 O 0.50968 0.73515 0.41468 0.0
N197 N 0.4846 0.79443 0.37832 0.0
C198 C 0.47627 0.80616 0.38754 0.0
C199 C 0.45996 0.80944 0.38008 0.0
C200 C 0.45254 0.80086 0.36313 0.0
C201 C 0.46141 0.78895 0.35385 0.0
C202 C 0.47772 0.78634 0.36191 0.0
H203 H 0.48205 0.813 0.40047 0.0
O204 O 0.48361 0.7567 0.42064 0.0
O205 O 0.49781 0.76728 0.39705 0.0
O206 O 0.51442 0.79202 0.42871 0.0
O207 O 0.51343 0.80873 0.40484 0.0
C208 C 0.45458 0.77933 0.33704 0.0
C209 C 0.46405 0.76718 0.32868 0.0
H210 H 0.48577 0.74463 0.31694 0.0
H211 H 0.51431 0.74169 0.33344 0.0
H212 H 0.45317 0.81864 0.38733 0.0
H213 H 0.43997 0.80345 0.3574 0.0
H214 H 0.44191 0.78094 0.33056 0.0
H215 H 0.45852 0.75963 0.31587 0.0
Mn216 Mn 0.58743 0.299 0.63263 0.0
Mn217 Mn 0.55625 0.2824 0.59725 0.0
C218 C 0.57975 0.26638 0.62162 0.0
C219 C 0.6175 0.31187 0.64644 0.0
C220 C 0.54479 0.28861 0.63396 0.0
O221 O 0.58662 0.32467 0.62226 0.0
O222 O 0.56501 0.31154 0.59967 0.0
C223 C 0.58257 0.29562 0.56999 0.0
N224 N 0.56982 0.28095 0.577 0.0
C225 C 0.57298 0.25712 0.55453 0.0
C226 C 0.58606 0.27199 0.547 0.0
C227 C 0.59089 0.29132 0.55479 0.0
C228 C 0.56515 0.26229 0.56967 0.0
H229 H 0.58637 0.31048 0.57597 0.0
C230 C 0.57608 0.32633 0.60895 0.0
O231 O 0.60285 0.31312 0.65416 0.0
O232 O 0.6148 0.30442 0.63016 0.0
N233 N 0.54647 0.25454 0.59308 0.0
C234 C 0.5337 0.24191 0.60205 0.0
C235 C 0.52739 0.22197 0.59598 0.0
C236 C 0.53409 0.21528 0.58066 0.0
C237 C 0.54693 0.22863 0.57147 0.0
C238 C 0.55259 0.24835 0.57805 0.0
H239 H 0.52847 0.24697 0.61381 0.0
O240 O 0.58636 0.27161 0.63786 0.0
O241 O 0.57782 0.28037 0.61216 0.0
O242 O 0.56136 0.29541 0.64119 0.0
O243 O 0.54117 0.28294 0.61757 0.0
C244 C 0.55449 0.22311 0.55613 0.0
C245 C 0.56756 0.23734 0.5477 0.0
H246 H 0.59254 0.26872 0.53528 0.0
H247 H 0.60102 0.30286 0.54909 0.0
H248 H 0.51743 0.21176 0.60313 0.0
H249 H 0.52929 0.19987 0.57609 0.0
H250 H 0.55047 0.20794 0.5508 0.0
H251 H 0.57339 0.23289 0.536 0.0
Mn252 Mn 1.00829 0.25655 0.91971 0.0
Mn253 Mn 1.00628 0.28337 0.88477 0.0
C254 C 0.97953 0.25495 0.90539 0.0
C255 C 0.01221 0.22853 0.93221 0.0
C256 C 0.01352 0.30092 0.92275 0.0
O257 O 0.03509 0.26388 0.91217 0.0
O258 O 0.03108 0.27911 0.88778 0.0
C259 C 1.0092 0.25475 0.85602 0.0
N260 N 1.00004 0.26696 0.86323 0.0
C261 C 0.97766 0.26025 0.838 0.0
C262 C 0.98689 0.24767 0.83024 0.0
C263 C 1.00268 0.24484 0.83933 0.0
C264 C 0.98476 0.26965 0.85468 0.0
H265 H 0.0214 0.25265 0.86295 0.0
C266 C 0.04106 0.27234 0.89844 0.0
O267 O 0.01582 0.24534 0.94128 0.0
O268 O 1.00637 0.22791 0.9157 0.0
N269 N 0.98306 0.28886 0.88001 0.0
C270 C 0.97518 0.30057 0.88981 0.0
C271 C 0.95905 0.30461 0.88279 0.0
C272 C 0.95138 0.29683 0.8657 0.0
C273 C 0.95983 0.28495 0.85582 0.0
C274 C 0.97591 0.28149 0.86348 0.0
H275 H 0.98116 0.30679 0.90286 0.0
O276 O 0.98061 0.2499 0.92143 0.0
O277 O 0.99523 0.26057 0.89807 0.0
O278 O 0.01157 0.28487 0.92997 0.0
O279 O 0.01253 0.30188 0.90606 0.0
C280 C 0.95269 0.27604 0.83884 0.0
C281 C 0.96155 0.26362 0.82997 0.0
H282 H 0.98191 0.24001 0.81737 0.0
H283 H 1.00984 0.2351 0.83345 0.0
H284 H 0.95259 0.31376 0.89051 0.0
H285 H 0.9389 0.29993 0.86036 0.0
H286 H 0.94018 0.27833 0.83263 0.0
H287 H 0.95575 0.25658 0.81705 0.0
Mn288 Mn 0.44559 0.04873 0.3119 0.0
Mn289 Mn 0.41017 0.03703 0.33826 0.0
C290 C 0.43247 0.01661 0.3175 0.0
C291 C 0.45637 0.0542 0.2843 0.0
C292 C 0.45034 0.05654 0.35181 0.0
O293 O 0.43612 0.07267 0.31243 0.0
O294 O 0.4112 0.06221 0.32836 0.0
C295 C 0.37839 0.03064 0.31143 0.0
N296 N 0.38751 0.02377 0.32441 0.0
C297 C 0.36424 0.99237 0.32116 0.0
C298 C 0.35453 0.99915 0.30784 0.0
C299 C 0.36165 0.01835 0.30294 0.0
C300 C 0.3808 0.00531 0.32921 0.0
H301 H 0.38386 0.04536 0.30756 0.0
C302 C 0.42152 0.07476 0.31914 0.0
O303 O 0.46698 0.06171 0.29859 0.0
O304 O 0.43934 0.04397 0.28609 0.0
N305 N 0.40772 0.01257 0.34825 0.0
C306 C 0.41935 0.00794 0.36058 0.0
C307 C 0.41452 0.98907 0.36658 0.0
C308 C 0.39777 0.9752 0.35989 0.0
C309 C 0.38599 0.98033 0.34726 0.0
C310 C 0.39146 0.9994 0.34189 0.0
H311 H 0.43225 0.01854 0.36574 0.0
O312 O 0.44927 0.02204 0.31238 0.0
O313 O 0.42415 0.03017 0.31928 0.0
O314 O 0.45731 0.05624 0.33699 0.0
O315 O 0.43289 0.05024 0.35373 0.0
C316 C 0.36919 0.96716 0.33958 0.0
C317 C 0.35835 0.97316 0.3265 0.0
H318 H 0.34167 0.98967 0.30119 0.0
H319 H 0.35428 0.02366 0.29261 0.0
H320 H 0.42371 0.98521 0.3763 0.0
H321 H 0.39417 0.9606 0.36442 0.0
H322 H 0.3646 0.95231 0.34347 0.0
H323 H 0.34561 0.96282 0.3205 0.0
Mn324 Mn 0.299 0.19429 0.52154 0.0
Mn325 Mn 0.28727 0.15423 0.49226 0.0
C326 C 0.26794 0.17641 0.51477 0.0
C327 C 0.30547 0.20697 0.55177 0.0
C328 C 0.29963 0.19585 0.48084 0.0
O329 O 0.32364 0.18711 0.52057 0.0
O330 O 0.31349 0.15976 0.50177 0.0
C331 C 0.28962 0.12418 0.51667 0.0
N332 N 0.27959 0.13103 0.50444 0.0
C333 C 0.25268 0.10322 0.50567 0.0
C334 C 0.26276 0.0958 0.5182 0.0
C335 C 0.2813 0.10635 0.52374 0.0
C336 C 0.26175 0.12099 0.49899 0.0
H337 H 0.30386 0.13228 0.521 0.0
C338 C 0.32618 0.17216 0.51197 0.0
O339 O 0.31013 0.21824 0.53897 0.0
O340 O 0.29795 0.18861 0.54701 0.0
N341 N 0.262 0.1473 0.48233 0.0
C342 C 0.25383 0.1572 0.47115 0.0
C343 C 0.23503 0.14904 0.46491 0.0
C344 C 0.22488 0.13078 0.47016 0.0
C345 C 0.23363 0.12082 0.48158 0.0
C346 C 0.25243 0.1296 0.48726 0.0
H347 H 0.26156 0.17126 0.46711 0.0
O348 O 0.27219 0.19457 0.52104 0.0
O349 O 0.28192 0.16956 0.51226 0.0
O350 O 0.30175 0.20507 0.49629 0.0
O351 O 0.29455 0.17717 0.47846 0.0
C352 C 0.22432 0.10273 0.48786 0.0
C353 C 0.23384 0.09394 0.4999 0.0
H354 H 0.25635 0.08213 0.52379 0.0
H355 H 0.28915 0.10077 0.53347 0.0
H356 H 0.22836 0.15684 0.45614 0.0
H357 H 0.21032 0.12463 0.46548 0.0
H358 H 0.20975 0.09563 0.48376 0.0
H359 H 0.22645 0.0802 0.50487 0.0
Mn360 Mn 0.15273 0.01569 0.81471 0.0
Mn361 Mn 0.19341 0.02451 0.83962 0.0
C362 C 0.17025 0.04736 0.82324 0.0
C363 C 0.13601 0.01005 0.7874 0.0
C364 C 0.1557 0.01072 0.85417 0.0
O365 O 0.1588 0.98992 0.81154 0.0
O366 O 0.18663 0.99774 0.82747 0.0
C367 C 0.21843 0.02434 0.81101 0.0
N368 N 0.2137 0.03374 0.82534 0.0
C369 C 0.23976 0.06225 0.82352 0.0
C370 C 0.245 0.05282 0.80882 0.0
C371 C 0.23427 0.0338 0.80252 0.0
C372 C 0.22391 0.05205 0.8315 0.0
H373 H 0.21018 0.00976 0.80608 0.0
C374 C 0.17342 0.98584 0.81739 0.0
O375 O 0.12794 1.00428 0.80157 0.0
O376 O 0.15382 0.01876 0.78911 0.0
N377 N 0.20153 0.05013 0.85178 0.0
C378 C 0.1939 0.05761 0.86539 0.0
C379 C 0.20261 0.07676 0.87287 0.0
C380 C 0.21909 0.08798 0.86633 0.0
C381 C 0.22672 0.07991 0.85239 0.0
C382 C 0.2175 0.0607 0.84555 0.0
H383 H 0.1812 0.04909 0.87042 0.0
O384 O 0.15251 0.04354 0.81885 0.0
O385 O 0.17706 0.03255 0.82257 0.0
O386 O 0.14601 0.01032 0.83977 0.0
O387 O 0.17349 0.01559 0.85556 0.0
C388 C 0.24294 0.09031 0.84481 0.0
C389 C 0.24944 0.08149 0.83037 0.0
H390 H 0.25715 0.06011 0.80217 0.0
H391 H 0.23817 0.02647 0.79112 0.0
H392 H 0.1966 0.0829 0.88359 0.0
H393 H 0.22568 0.10281 0.87202 0.0
H394 H 0.25036 0.1052 0.8498 0.0
H395 H 0.26176 0.08974 0.82447 0.0
Mn396 Mn 0.28048 0.90345 0.00424 0.0
Mn397 Mn 0.29648 0.94523 0.98433 0.0
C398 C 0.31196 0.91667 1.00208 0.0
C399 C 0.27198 0.88729 0.02922 0.0
C400 C 0.27789 0.9058 0.96442 0.0
O401 O 0.25859 0.91476 0.00407 0.0
O402 O 0.27142 0.94323 0.9922 0.0
C403 C 0.30023 0.97419 0.01492 0.0
N404 N 0.30798 0.96656 1.00151 0.0
C405 C 0.33752 0.99102 0.00843 0.0
C406 C 0.32985 0.99921 0.02227 0.0
C407 C 0.31114 0.9907 0.02557 0.0
C408 C 0.32599 0.97453 0.99831 0.0
H409 H 0.28583 0.96775 0.01745 0.0
C410 C 0.25806 0.9314 0.99922 0.0
O411 O 0.26576 0.8789 0.01355 0.0
O412 O 0.28256 0.90527 0.03033 0.0
N413 N 0.32087 0.94894 0.97639 0.0
C414 C 0.32646 0.93845 0.96334 0.0
C415 C 0.34502 0.94454 0.95885 0.0
C416 C 0.35755 0.96144 0.96769 0.0
C417 C 0.35143 0.97205 0.98101 0.0
C418 C 0.33281 0.96523 0.98497 0.0
H419 H 0.31687 0.92548 0.95649 0.0
O420 O 0.30526 0.89817 0.00425 0.0
O421 O 0.30007 0.92676 1.00112 0.0
O422 O 0.27541 0.89582 0.97783 0.0
O423 O 0.28535 0.92431 0.96545 0.0
C424 C 0.36312 0.98901 0.99063 0.0
C425 C 0.3562 0.99844 0.00439 0.0
H426 H 0.33823 0.01195 0.0305 0.0
H427 H 0.30514 0.99691 0.03627 0.0
H428 H 0.34964 0.93624 0.94859 0.0
H429 H 0.37187 0.96608 0.96423 0.0
H430 H 0.37757 0.99471 0.98778 0.0
H431 H 0.36544 0.01125 0.01193 0.0
Mn432 Mn 0.29798 0.36025 0.03136 0.0
Mn433 Mn 0.30817 0.39915 0.00641 0.0
C434 C 0.32883 0.37827 0.02899 0.0
C435 C 0.29169 0.34838 0.05975 0.0
C436 C 0.29801 0.35702 0.99029 0.0
O437 O 0.27294 0.36649 0.02841 0.0
O438 O 0.28174 0.39219 0.01186 0.0
C439 C 0.30367 0.42875 0.0335 0.0
N440 N 0.31422 0.4228 0.02156 0.0
C441 C 0.33895 0.45295 0.02749 0.0
C442 C 0.3283 0.45947 0.03974 0.0
C443 C 0.31062 0.44728 0.04281 0.0
C444 C 0.33131 0.43434 0.01863 0.0
H445 H 0.29007 0.41943 0.03588 0.0
C446 C 0.26956 0.38024 0.02 0.0
O447 O 0.28699 0.33675 0.04532 0.0
O448 O 0.29937 0.36663 0.05755 0.0
N449 N 0.33333 0.40801 1.00004 0.0
C450 C 0.34233 0.39902 0.98869 0.0
C451 C 0.36026 0.40914 0.98431 0.0
C452 C 0.36873 0.42842 0.99159 0.0
C453 C 0.35925 0.43735 1.0033 0.0
C454 C 0.34131 0.42662 0.007 0.0
H455 H 0.33598 0.38415 0.98321 0.0
O456 O 0.3249 0.36045 0.03361 0.0
O457 O 0.31471 0.38502 0.02586 0.0
O458 O 0.2951 0.34851 0.00478 0.0
O459 O 0.30269 0.37564 0.98988 0.0
C460 C 0.36706 0.45631 0.01175 0.0
C461 C 0.35694 0.46407 0.0239 0.0
H462 H 0.33362 0.47375 0.04696 0.0
H463 H 0.30235 0.45217 0.05231 0.0
H464 H 0.36757 0.40207 0.97541 0.0
H465 H 0.38262 0.43614 0.98829 0.0
H466 H 0.38096 0.4649 0.00923 0.0
H467 H 0.3632 0.47854 0.03053 0.0
Mn468 Mn 0.79821 0.15763 0.05749 0.0
Mn469 Mn 0.76999 0.12179 0.02899 0.0
C470 C 0.76645 0.15081 0.05779 0.0
C471 C 0.81542 0.16772 0.08444 0.0
C472 C 0.78947 0.16229 0.01858 0.0
O473 O 0.81571 0.14265 0.049 0.0
O474 O 0.79532 0.11882 0.03118 0.0
C475 C 0.76939 0.08847 0.05045 0.0
N476 N 0.7601 0.09906 0.04126 0.0
C477 C 0.73035 0.07692 0.04623 0.0
C478 C 0.73959 0.0657 0.05568 0.0
C479 C 0.7592 0.07155 0.05787 0.0
C480 C 0.74126 0.09372 0.03928 0.0
H481 H 0.78446 0.0929 0.05208 0.0
C482 C 0.81164 0.12719 0.03849 0.0
O483 O 0.81914 0.17798 0.07088 0.0
O484 O 0.80228 0.15124 0.08205 0.0
N485 N 0.74477 0.12241 0.02518 0.0
C486 C 0.73805 0.13509 0.01599 0.0
C487 C 0.71872 0.13116 0.01231 0.0
C488 C 0.70653 0.11413 0.0179 0.0
C489 C 0.71375 0.10134 0.02738 0.0
C490 C 0.73315 0.10589 0.03045 0.0
H491 H 0.74738 0.14799 0.01134 0.0
O492 O 0.77725 0.16763 0.06449 0.0
O493 O 0.7745 0.13825 0.05137 0.0
O494 O 0.79767 0.1694 0.0337 0.0
O495 O 0.77915 0.14466 0.01544 0.0
C496 C 0.70247 0.08431 0.03397 0.0
C497 C 0.71077 0.07219 0.04352 0.0
H498 H 0.73177 0.0526 0.06138 0.0
H499 H 0.76642 0.06299 0.0652 0.0
H500 H 0.71322 0.14113 0.00503 0.0
H501 H 0.69164 0.111 0.01483 0.0
H502 H 0.6874 0.08053 0.03195 0.0
H503 H 0.70196 0.05926 0.04871 0.0
Mn504 Mn 0.15998 0.51097 0.24443 0.0
Mn505 Mn 0.19714 0.53307 0.2729 0.0
C506 C 0.17142 0.54458 0.24659 0.0
C507 C 0.14827 0.49516 0.21704 0.0
C508 C 0.15805 0.51526 0.28375 0.0
O509 O 0.17017 0.48882 0.25132 0.0
O510 O 0.1977 0.50619 0.26564 0.0
C511 C 0.22757 0.53571 0.24931 0.0
N512 N 0.21861 0.54458 0.26077 0.0
C513 C 0.24104 0.57598 0.25914 0.0
C514 C 0.25062 0.56716 0.24742 0.0
C515 C 0.2438 0.54696 0.24242 0.0
C516 C 0.22493 0.56403 0.26553 0.0
H517 H 0.22234 0.52019 0.24547 0.0
C518 C 0.18617 0.49018 0.2588 0.0
O519 O 0.13839 0.4922 0.23061 0.0
O520 O 0.16513 0.50687 0.21956 0.0
N521 N 0.19837 0.55935 0.28102 0.0
C522 C 0.18691 0.56572 0.29167 0.0
C523 C 0.19153 0.58566 0.29763 0.0
C524 C 0.20796 0.59878 0.29275 0.0
C525 C 0.21955 0.59186 0.28183 0.0
C526 C 0.2143 0.57182 0.27641 0.0
H527 H 0.17439 0.55568 0.29565 0.0
O528 O 0.15471 0.5361 0.23942 0.0
O529 O 0.18111 0.53312 0.25168 0.0
O530 O 0.14969 0.51185 0.26836 0.0
O531 O 0.17574 0.52201 0.28679 0.0
C532 C 0.23597 0.60412 0.2759 0.0
C533 C 0.24667 0.5962 0.2645 0.0
H534 H 0.26313 0.5758 0.24206 0.0
H535 H 0.25106 0.54007 0.23331 0.0
H536 H 0.18249 0.5909 0.30603 0.0
H537 H 0.21149 0.61413 0.2974 0.0
H538 H 0.24032 0.61971 0.27979 0.0
H539 H 0.25908 0.60581 0.25978 0.0
Mn540 Mn 0.79798 0.86021 0.53225 0.0
Mn541 Mn 0.80763 0.89868 0.50677 0.0
C542 C 0.82873 0.87766 0.52887 0.0
C543 C 0.79193 0.84895 0.56082 0.0
C544 C 0.79541 0.85623 0.49125 0.0
O545 O 0.77314 0.86692 0.52969 0.0
O546 O 0.78196 0.89346 0.51409 0.0
C547 C 0.80688 0.92986 0.534 0.0
N548 N 0.81598 0.92267 0.52145 0.0
C549 C 0.84238 0.9515 0.52583 0.0
C550 C 0.83324 0.95929 0.53872 0.0
C551 C 0.81544 0.94838 0.54287 0.0
C552 C 0.83316 0.93297 0.51745 0.0
H553 H 0.79319 0.92151 0.5372 0.0
C554 C 0.76992 0.88135 0.52223 0.0
O555 O 0.78691 0.83712 0.54654 0.0
O556 O 0.79997 0.86708 0.55839 0.0
N557 N 0.83213 0.90563 0.49866 0.0
C558 C 0.8394 0.89559 0.48655 0.0
C559 C 0.85728 0.90427 0.48119 0.0
C560 C 0.86741 0.92325 0.48818 0.0
C561 C 0.85956 0.93337 0.50048 0.0
C562 C 0.84163 0.92402 0.50524 0.0
H563 H 0.83162 0.88106 0.48102 0.0
O564 O 0.82481 0.86003 0.53397 0.0
O565 O 0.81465 0.88452 0.52598 0.0
O566 O 0.79436 0.84799 0.50591 0.0
O567 O 0.79963 0.8748 0.49056 0.0
C568 C 0.86895 0.95222 0.50846 0.0
C569 C 0.86039 0.96125 0.52117 0.0
H570 H 0.83981 0.97355 0.54561 0.0
H571 H 0.80833 0.95426 0.55286 0.0
H572 H 0.86325 0.89637 0.47168 0.0
H573 H 0.88124 0.92986 0.48408 0.0
H574 H 0.88289 0.95977 0.50512 0.0
H575 H 0.86787 0.97562 0.52742 0.0
Mn576 Mn 0.9214 0.02393 0.23367 0.0
Mn577 Mn 0.88595 0.99555 0.25424 0.0
C578 C 0.91279 0.99042 0.22771 0.0
C579 C 0.93223 0.04281 0.21074 0.0
C580 C 0.92487 0.01379 0.27175 0.0
O581 O 0.90876 0.04344 0.2435 0.0
O582 O 0.88434 0.02266 0.25462 0.0
C583 C 0.85471 0.99628 0.22892 0.0
N584 N 0.86412 0.986 0.23838 0.0
C585 C 0.84115 0.95544 0.22873 0.0
C586 C 0.83113 0.96569 0.21893 0.0
C587 C 0.83801 0.98619 0.21895 0.0
C588 C 0.8578 0.96628 0.23823 0.0
H589 H 0.8599 0.01205 0.22907 0.0
C590 C 0.89353 0.03979 0.25099 0.0
O591 O 0.94185 0.04536 0.2259 0.0
O592 O 0.91601 0.02979 0.20916 0.0
N593 N 0.88529 0.96869 0.25521 0.0
C594 C 0.89712 0.96098 0.26467 0.0
C595 C 0.8922 0.94069 0.26624 0.0
C596 C 0.87511 0.92859 0.25827 0.0
C597 C 0.86329 0.93681 0.24841 0.0
C598 C 0.86883 0.95714 0.24747 0.0
H599 H 0.91007 0.97027 0.27116 0.0
O600 O 0.9292 1.00102 0.22437 0.0
O601 O 0.90168 0.99969 0.23419 0.0
O602 O 0.93225 0.02182 0.25841 0.0
O603 O 0.90768 1.00419 0.27162 0.0
C604 C 0.84631 0.92561 0.23935 0.0
C605 C 0.83533 0.93491 0.22937 0.0
H606 H 0.8182 0.95796 0.2113 0.0
H607 H 0.83038 0.99419 0.21139 0.0
H608 H 0.90146 0.93441 0.27376 0.0
H609 H 0.87123 0.91299 0.25972 0.0
H610 H 0.84173 0.90982 0.23974 0.0
H611 H 0.82246 0.92613 0.22221 0.0
Mn612 Mn 0.30166 0.65411 0.55951 0.0
Mn613 Mn 0.27577 0.61377 0.53442 0.0
C614 C 0.26974 0.64498 0.55975 0.0
C615 C 0.31878 0.66854 0.58562 0.0
C616 C 0.29336 0.65278 0.51986 0.0
O617 O 0.3207 0.64024 0.55266 0.0
O618 O 0.30133 0.61208 0.53936 0.0
C619 C 0.27482 0.58434 0.56035 0.0
N620 N 0.26568 0.59298 0.54884 0.0
C621 C 0.23595 0.57096 0.55401 0.0
C622 C 0.24504 0.56167 0.56579 0.0
C623 C 0.26455 0.56846 0.56905 0.0
C624 C 0.24691 0.58677 0.54582 0.0
H625 H 0.28981 0.58957 0.56288 0.0
C626 C 0.31747 0.62287 0.54545 0.0
O627 O 0.32134 0.6771 0.57102 0.0
O628 O 0.30689 0.65123 0.58488 0.0
N629 N 0.25047 0.61309 0.52845 0.0
C630 C 0.24381 0.62425 0.51734 0.0
C631 C 0.22455 0.61947 0.51274 0.0
C632 C 0.21238 0.60313 0.5194 0.0
C633 C 0.21954 0.59188 0.53081 0.0
C634 C 0.23888 0.59723 0.53478 0.0
H635 H 0.25312 0.63662 0.51193 0.0
O636 O 0.27945 0.66273 0.56514 0.0
O637 O 0.27897 0.63289 0.55487 0.0
O638 O 0.29982 0.66251 0.53458 0.0
O639 O 0.28508 0.63439 0.51835 0.0
C640 C 0.20824 0.57571 0.53856 0.0
C641 C 0.21643 0.56534 0.55026 0.0
H642 H 0.23717 0.54941 0.57252 0.0
H643 H 0.27166 0.56145 0.57821 0.0
H644 H 0.21911 0.62826 0.50396 0.0
H645 H 0.19754 0.5994 0.51571 0.0
H646 H 0.19321 0.57134 0.53585 0.0
H647 H 0.20758 0.55314 0.55637 0.0
Mn648 Mn 0.41861 0.52984 0.73061 0.0
Mn649 Mn 0.3788 0.50894 0.74933 0.0
C650 C 0.40639 0.49629 0.72784 0.0
C651 C 0.43341 0.54488 0.70723 0.0
C652 C 0.41662 0.52452 0.76985 0.0
O653 O 0.40861 0.55276 0.7366 0.0
O654 O 0.38069 0.53656 0.74559 0.0
C655 C 0.35221 0.50975 0.7193 0.0
N656 N 0.35869 0.4996 0.7315 0.0
C657 C 0.33426 0.47006 0.72214 0.0
C658 C 0.32714 0.48024 0.70962 0.0
C659 C 0.33626 0.50013 0.70809 0.0
C660 C 0.35039 0.48034 0.73271 0.0
H661 H 0.35917 0.52505 0.71816 0.0
C662 C 0.39257 0.55213 0.7416 0.0
O663 O 0.4417 0.5478 0.72304 0.0
O664 O 0.41638 0.53352 0.70511 0.0
N665 N 0.3746 0.48204 0.75388 0.0
C666 C 0.38343 0.47428 0.76644 0.0
C667 C 0.37625 0.45443 0.76947 0.0
C668 C 0.3598 0.4429 0.75992 0.0
C669 C 0.3507 0.45132 0.74738 0.0
C670 C 0.35864 0.4711 0.74477 0.0
H671 H 0.39587 0.48315 0.77407 0.0
O672 O 0.4237 0.50428 0.72506 0.0
O673 O 0.39652 0.50812 0.73156 0.0
O674 O 0.42615 0.52923 0.75663 0.0
O675 O 0.39885 0.51762 0.76863 0.0
C676 C 0.33399 0.44091 0.73745 0.0
C677 C 0.32594 0.45017 0.72463 0.0
H678 H 0.31473 0.47291 0.70108 0.0
H679 H 0.33093 0.50806 0.69838 0.0
H680 H 0.3833 0.44807 0.77925 0.0
H681 H 0.35426 0.4276 0.76233 0.0
H682 H 0.32736 0.42567 0.73939 0.0
H683 H 0.31331 0.44189 0.71682 0.0
Mn684 Mn 0.64195 0.02228 0.75787 0.0
Mn685 Mn 0.66734 0.04239 0.79603 0.0
C686 C 0.65402 0.0558 0.76283 0.0
C687 C 0.63885 0.00893 0.72896 0.0
C688 C 0.62543 0.02594 0.79314 0.0
O689 O 0.64921 0.99934 0.76738 0.0
O690 O 0.6668 0.0146 0.79208 0.0
C691 C 0.70435 0.04092 0.78561 0.0
N692 N 0.69309 0.05144 0.79173 0.0
C693 C 0.71829 0.08137 0.79429 0.0
C694 C 0.7302 0.07085 0.78812 0.0
C695 C 0.72318 0.05055 0.78371 0.0
C696 C 0.69966 0.07098 0.79592 0.0
H697 H 0.69898 0.02532 0.78217 0.0
C698 C 0.65951 0.99944 0.78135 0.0
O699 O 0.625 0.00498 0.73891 0.0
O700 O 0.65481 0.02014 0.73603 0.0
N701 N 0.66909 0.06942 0.8014 0.0
C702 C 0.65555 0.0775 0.8064 0.0
C703 C 0.66018 0.09777 0.81099 0.0
C704 C 0.67868 0.10946 0.81053 0.0
C705 C 0.6924 0.10077 0.80547 0.0
C706 C 0.68698 0.08048 0.80119 0.0
H707 H 0.64132 0.06856 0.80685 0.0
O708 O 0.6397 0.04836 0.75153 0.0
O709 O 0.66069 0.04345 0.7709 0.0
O710 O 0.6236 0.02114 0.77663 0.0
O711 O 0.64114 0.03388 0.80178 0.0
C712 C 0.71116 0.11149 0.80425 0.0
C713 C 0.72409 0.10181 0.7986 0.0
H714 H 0.74472 0.07823 0.78658 0.0
H715 H 0.73227 0.04234 0.77886 0.0
H716 H 0.64952 0.10437 0.81487 0.0
H717 H 0.68219 0.12509 0.814 0.0
H718 H 0.71574 0.12723 0.80739 0.0
H719 H 0.73841 0.11024 0.79746 0.0
Mn720 Mn 0.79861 0.69563 0.02181 0.0
Mn721 Mn 0.78715 0.65555 0.9926 0.0
C722 C 0.76756 0.67773 0.01469 0.0
C723 C 0.80492 0.70823 0.05206 0.0
C724 C 0.79948 0.69717 0.98113 0.0
O725 O 0.8233 0.68851 0.02109 0.0
O726 O 0.81332 0.6612 1.00226 0.0
C727 C 0.78939 0.6259 0.01749 0.0
N728 N 0.77943 0.63252 0.00502 0.0
C729 C 0.75246 0.60485 0.00653 0.0
C730 C 0.76247 0.59766 0.01931 0.0
C731 C 0.781 0.60826 0.02483 0.0
C732 C 0.76158 0.62248 0.99965 0.0
H733 H 0.80361 0.63405 0.02182 0.0
C734 C 0.82593 0.6736 0.01252 0.0
O735 O 0.80966 0.71954 0.03931 0.0
O736 O 0.79735 0.68989 0.04724 0.0
N737 N 0.76195 0.64841 0.98246 0.0
C738 C 0.75396 0.65789 0.97071 0.0
C739 C 0.73529 0.64947 0.96418 0.0
C740 C 0.72508 0.63137 0.9697 0.0
C741 C 0.73366 0.62182 0.98168 0.0
C742 C 0.75235 0.63084 0.98762 0.0
H743 H 0.76175 0.67179 0.96641 0.0
O744 O 0.77173 0.69584 0.02108 0.0
O745 O 0.7816 0.67094 0.0124 0.0
O746 O 0.80159 0.7064 0.99659 0.0
O747 O 0.79444 0.67847 0.97877 0.0
C748 C 0.72431 0.60388 0.98817 0.0
C749 C 0.73369 0.59542 1.00063 0.0
H750 H 0.75602 0.58411 0.02507 0.0
H751 H 0.78879 0.60286 0.03475 0.0
H752 H 0.72876 0.65693 0.95495 0.0
H753 H 0.71063 0.62501 0.96476 0.0
H754 H 0.70982 0.5966 0.98387 0.0
H755 H 0.72627 0.58178 0.00574 0.0
Mn756 Mn 0.94916 0.55242 0.80739 0.0
Mn757 Mn 0.91352 0.53413 0.83228 0.0
C758 C 0.9386 0.51919 0.80992 0.0
C759 C 0.96047 0.56277 0.78101 0.0
C760 C 0.95266 0.55587 0.84745 0.0
O761 O 0.93725 0.57446 0.81016 0.0
O762 O 0.91232 0.55977 0.82472 0.0
C763 C 0.88194 0.52749 0.80518 0.0
N764 N 0.89171 0.52039 0.81746 0.0
C765 C 0.87044 0.48794 0.81197 0.0
C766 C 0.86008 0.49492 0.79935 0.0
C767 C 0.86589 0.51477 0.79591 0.0
C768 C 0.88631 0.50131 0.8208 0.0
H769 H 0.88637 0.54274 0.80247 0.0
C770 C 0.92195 0.57412 0.8168 0.0
O771 O 0.97018 0.56923 0.79594 0.0
O772 O 0.94398 0.55052 0.78144 0.0
N773 N 0.91309 0.50905 0.84007 0.0
C774 C 0.9252 0.50446 0.85193 0.0
C775 C 0.92166 0.48506 0.85652 0.0
C776 C 0.90567 0.47064 0.84897 0.0
C777 C 0.89336 0.47574 0.83686 0.0
C778 C 0.89758 0.49532 0.83284 0.0
H779 H 0.93748 0.51551 0.85782 0.0
O780 O 0.95539 0.52691 0.8054 0.0
O781 O 0.92875 0.53116 0.81288 0.0
O782 O 0.95992 0.55795 0.83277 0.0
O783 O 0.93535 0.54764 0.84881 0.0
C784 C 0.8772 0.46212 0.82846 0.0
C785 C 0.86581 0.46819 0.81594 0.0
H786 H 0.84772 0.48514 0.79214 0.0
H787 H 0.85801 0.52025 0.78613 0.0
H788 H 0.93124 0.48123 0.86586 0.0
H789 H 0.90304 0.45566 0.85248 0.0
H790 H 0.87352 0.44689 0.83136 0.0
H791 H 0.8536 0.45752 0.80935 0.0
Mn792 Mn 0.78036 0.40214 0.49909 0.0
Mn793 Mn 0.79112 0.4437 0.47807 0.0
C794 C 0.81058 0.41662 0.49301 0.0
C795 C 0.77622 0.38657 0.52498 0.0
C796 C 0.77256 0.40358 0.45948 0.0
O797 O 0.75777 0.41192 0.50187 0.0
O798 O 0.76708 0.44013 0.48862 0.0
C799 C 0.79685 0.47228 0.50927 0.0
N800 N 0.80342 0.46537 0.49465 0.0
C801 C 0.8327 0.49065 0.4996 0.0
C802 C 0.82622 0.49813 0.51464 0.0
C803 C 0.80824 0.48887 0.51952 0.0
C804 C 0.82073 0.4741 0.48991 0.0
H805 H 0.78305 0.46519 0.51307 0.0
C806 C 0.75539 0.42786 0.49698 0.0
O807 O 0.76838 0.3775 0.50993 0.0
O808 O 0.78594 0.40477 0.52497 0.0
N809 N 0.8143 0.44899 0.46738 0.0
C810 C 0.8187 0.43944 0.45295 0.0
C811 C 0.83637 0.44657 0.44657 0.0
C812 C 0.84922 0.46353 0.45498 0.0
C813 C 0.84427 0.47325 0.46966 0.0
C814 C 0.82644 0.46551 0.47538 0.0
H815 H 0.80886 0.42643 0.44641 0.0
O816 O 0.80531 0.3982 0.49589 0.0
O817 O 0.79809 0.42597 0.49389 0.0
O818 O 0.77226 0.39387 0.47303 0.0
O819 O 0.77901 0.42221 0.46001 0.0
C820 C 0.85639 0.49018 0.47897 0.0
C821 C 0.85065 0.49883 0.49398 0.0
H822 H 0.83497 0.5109 0.5226 0.0
H823 H 0.80316 0.4945 0.53115 0.0
H824 H 0.84008 0.43899 0.43522 0.0
H825 H 0.86289 0.46891 0.4501 0.0
H826 H 0.87027 0.49651 0.47485 0.0
H827 H 0.86021 0.51166 0.5012 0.0
Mn828 Mn 0.65704 0.51538 0.31124 0.0
Mn829 Mn 0.69672 0.52931 0.33808 0.0
C830 C 0.67071 0.54802 0.32036 0.0
C831 C 0.64176 0.50856 0.2832 0.0
C832 C 0.65888 0.5097 0.35053 0.0
O833 O 0.66712 0.49186 0.30846 0.0
O834 O 0.69434 0.50366 0.3253 0.0
C835 C 0.72453 0.53479 0.3114 0.0
N836 N 0.71725 0.54218 0.3253 0.0
C837 C 0.74055 0.57338 0.32586 0.0
C838 C 0.74837 0.56609 0.31161 0.0
C839 C 0.74028 0.54673 0.30432 0.0
C840 C 0.72486 0.5608 0.33236 0.0
H841 H 0.71838 0.51991 0.30578 0.0
C842 C 0.68286 0.4905 0.31468 0.0
O843 O 0.63353 0.50132 0.29685 0.0
O844 O 0.65901 0.51923 0.28582 0.0
N845 N 0.70054 0.55427 0.35083 0.0
C846 C 0.69056 0.55943 0.36374 0.0
C847 C 0.69632 0.57861 0.37189 0.0
C848 C 0.71233 0.59221 0.36678 0.0
C849 C 0.72241 0.58652 0.35353 0.0
C850 C 0.71601 0.56722 0.34587 0.0
H851 H 0.67826 0.54903 0.36773 0.0
O852 O 0.65307 0.5419 0.31516 0.0
O853 O 0.67956 0.53485 0.32024 0.0
O854 O 0.64946 0.5087 0.33586 0.0
O855 O 0.67659 0.51664 0.35264 0.0
C856 C 0.73844 0.59931 0.34746 0.0
C857 C 0.74754 0.59272 0.33367 0.0
H858 H 0.7605 0.57527 0.30608 0.0
H859 H 0.7462 0.54102 0.29328 0.0
H860 H 0.68844 0.58289 0.38209 0.0
H861 H 0.71668 0.60701 0.37305 0.0
H862 H 0.74374 0.61432 0.35314 0.0
H863 H 0.75972 0.60275 0.32897 0.0
Tb864 Tb 0.0644 0.04571 0.04448 0.0
Tb865 Tb 0.02417 0.01849 0.02628 0.0
C866 C 0.02773 0.04462 0.06148 0.0
C867 C 0.11249 0.05821 0.0627 0.0
C868 C 0.14026 0.03878 0.06322 0.0
C869 C 0.12627 0.0345 0.0751 0.0
C870 C 0.11242 0.04404 0.07478 0.0
C871 C 0.12747 0.06383 0.05208 0.0
C872 C 0.14115 0.0541 0.05221 0.0
C873 C 0.09582 0.06473 0.05895 0.0
O874 O 0.05842 0.01776 0.05662 0.0
O875 O 0.03832 0.99765 0.03485 0.0
O876 O 0.04375 0.01984 0.00637 0.0
O877 O 0.07097 0.02667 0.02415 0.0
O878 O 0.99898 0.9968 0.02857 0.0
O879 O 1.00474 0.01051 0.00421 0.0
O880 O 0.02466 0.04873 0.02293 0.0
O881 O 0.05629 0.0625 0.02403 0.0
O882 O 0.04368 0.05603 0.05744 0.0
O883 O 0.02024 0.02726 0.0532 0.0
C884 C 0.04983 1.00014 0.04904 0.0
O885 O 0.09099 0.06477 0.0422 0.0
O886 O 0.08143 0.05714 0.06776 0.0
C887 C 0.06139 0.02055 0.00888 0.0
C888 C 0.97544 0.00673 0.01411 0.0
C889 C 0.94562 0.02291 0.01342 0.0
C890 C 0.94363 1.00467 0.00421 0.0
C891 C 0.95863 0.99665 0.00443 0.0
C892 C 0.97709 0.02457 0.02383 0.0
C893 C 0.96232 0.03264 0.02344 0.0
C894 C 0.99198 0.99994 0.01332 0.0
C895 C 0.03922 0.06286 0.01941 0.0
H896 H 0.12548 0.02309 0.08402 0.0
H897 H 0.10113 0.03947 0.08327 0.0
H898 H 0.12785 0.07474 0.04271 0.0
H899 H 0.15159 0.05769 0.04274 0.0
H900 H 0.93074 0.99702 0.99645 0.0
H901 H 0.95728 0.98291 0.99682 0.0
H902 H 0.98999 0.0325 0.03142 0.0
H903 H 0.96398 0.0466 0.03083 0.0
Tb904 Tb 0.28578 0.78483 0.2944 0.0
Tb905 Tb 0.30803 0.77978 0.25945 0.0
C906 C 0.27199 0.79409 0.25688 0.0
C907 C 0.26996 0.77592 0.33794 0.0
C908 C 0.27215 0.75591 0.3682 0.0
C909 C 0.26457 0.77185 0.36872 0.0
C910 C 0.26348 0.7818 0.35363 0.0
C911 C 0.27753 0.76004 0.33739 0.0
C912 C 0.27857 0.75008 0.35238 0.0
C913 C 0.26983 0.78679 0.32232 0.0
O914 O 0.28106 0.75374 0.28768 0.0
O915 O 0.2824 0.75608 0.25813 0.0
O916 O 0.32036 0.76559 0.27943 0.0
O917 O 0.3123 0.78103 0.3039 0.0
O918 O 0.31002 0.76329 0.23609 0.0
O919 O 0.33016 0.79115 0.24389 0.0
O920 O 0.32382 0.80622 0.27514 0.0
O921 O 0.29975 0.81417 0.28776 0.0
O922 O 0.26732 0.78741 0.27218 0.0
O923 O 0.28868 0.79593 0.25142 0.0
C924 C 0.27651 0.74594 0.27145 0.0
O925 O 0.28596 0.79869 0.31956 0.0
O926 O 0.26158 0.77622 0.30795 0.0
C927 C 0.32235 0.77079 0.29651 0.0
C928 C 0.31896 0.78489 0.21414 0.0
C929 C 0.3082 0.7977 0.18208 0.0
C930 C 0.31485 0.78113 0.18212 0.0
C931 C 0.32019 0.77474 0.1981 0.0
C932 C 0.31235 0.80143 0.21406 0.0
C933 C 0.30698 0.80773 0.19823 0.0
C934 C 0.32322 0.77765 0.23105 0.0
C935 C 0.31682 0.81915 0.28286 0.0
H936 H 0.25945 0.77655 0.38074 0.0
H937 H 0.25774 0.79414 0.35423 0.0
H938 H 0.28287 0.75551 0.3254 0.0
H939 H 0.28477 0.73807 0.3517 0.0
H940 H 0.31601 0.77318 0.16985 0.0
H941 H 0.32507 0.76183 0.19794 0.0
H942 H 0.31105 0.80939 0.22628 0.0
H943 H 0.30152 0.82028 0.19868 0.0
Tb944 Tb 0.52719 0.02702 0.54213 0.0
Tb945 Tb 0.5757 0.03499 0.53313 0.0
C946 C 0.55148 0.01575 0.56527 0.0
C947 C 0.4827 0.04054 0.54035 0.0
C948 C 0.46105 0.0667 0.53562 0.0
C949 C 0.4792 0.07344 0.54399 0.0
C950 C 0.48999 0.0605 0.54625 0.0
C951 C 0.46469 0.03385 0.53186 0.0
C952 C 0.45397 0.04678 0.52949 0.0
C953 C 0.49345 0.02642 0.54316 0.0
O954 O 0.54416 0.05606 0.55381 0.0
O955 O 0.57464 0.06338 0.54441 0.0
O956 O 0.56549 0.04704 0.51095 0.0
O957 O 0.53549 0.04501 0.51996 0.0
O958 O 0.59887 0.03409 0.54951 0.0
O959 O 0.60046 0.03615 0.5212 0.0
O960 O 0.56078 0.00629 0.52045 0.0
O961 O 0.52977 0.99994 0.5282 0.0
O962 O 0.5339 0.01334 0.56591 0.0
O963 O 0.55643 0.02343 0.55088 0.0
C964 C 0.56112 0.06809 0.55253 0.0
O965 O 0.50022 0.02022 0.52926 0.0
O966 O 0.50544 0.03037 0.55696 0.0
C967 C 0.54912 0.05052 0.5093 0.0
C968 C 0.61819 0.01777 0.53553 0.0
C969 C 0.63746 0.98899 0.53484 0.0
C970 C 0.6415 1.00396 0.54865 0.0
C971 C 0.63196 0.0182 0.54896 0.0
C972 C 0.61383 1.00261 0.52188 0.0
C973 C 0.62343 0.9884 0.52151 0.0
C974 C 0.60878 0.03335 0.53604 0.0
C975 C 0.54341 0.99491 0.52046 0.0
H976 H 0.48512 0.08874 0.54866 0.0
H977 H 0.50395 0.06608 0.55269 0.0
H978 H 0.45883 0.01853 0.52721 0.0
H979 H 0.43997 0.04108 0.52315 0.0
H980 H 0.65234 0.00496 0.55901 0.0
H981 H 0.63549 0.02972 0.55964 0.0
H982 H 0.6031 1.00178 0.51145 0.0
H983 H 0.61982 0.9769 0.51083 0.0
Tb984 Tb 0.31638 0.26548 0.77684 0.0
Tb985 Tb 0.27636 0.27509 0.7705 0.0
C986 C 0.27912 0.23545 0.78405 0.0
C987 C 0.36277 0.2609 0.76804 0.0
C988 C 0.39208 0.26518 0.74563 0.0
C989 C 0.39396 0.25938 0.76283 0.0
C990 C 0.37942 0.25728 0.77393 0.0
C991 C 0.36069 0.26656 0.75088 0.0
C992 C 0.37523 0.26868 0.73976 0.0
C993 C 0.34784 0.25927 0.78001 0.0
O994 O 0.30448 0.2522 0.75033 0.0
O995 O 0.28458 0.27057 0.74375 0.0
O996 O 0.29814 0.30242 0.76883 0.0
O997 O 0.32138 0.28965 0.76048 0.0
O998 O 0.24819 0.2667 0.76055 0.0
O999 O 0.26069 0.29474 0.77513 0.0
O1000 O 0.28139 0.27502 0.79902 0.0
O1001 O 0.31328 0.28273 0.80091 0.0
O1002 O 0.29663 0.24347 0.78977 0.0
O1003 O 0.27041 0.24386 0.77294 0.0
C1004 C 0.29448 0.25886 0.73872 0.0
O1005 O 0.34485 0.27582 0.78522 0.0
O1006 O 0.33229 0.24557 0.77533 0.0
C1007 C 0.31391 0.30409 0.76158 0.0
C1008 C 0.22944 0.27906 0.77931 0.0
C1009 C 0.2 0.27582 0.80149 0.0
C1010 C 0.19911 0.28304 0.78475 0.0
C1011 C 0.21372 0.28469 0.77381 0.0
C1012 C 0.23028 0.27138 0.79579 0.0
C1013 C 0.21567 0.26976 0.8068 0.0
C1014 C 0.24524 0.28231 0.76818 0.0
C1015 C 0.29755 0.28154 0.80832 0.0
H1016 H 0.40663 0.25631 0.76769 0.0
H1017 H 0.38121 0.25291 0.78715 0.0
H1018 H 0.34791 0.26952 0.74615 0.0
H1019 H 0.3734 0.27341 0.72669 0.0
H1020 H 0.18712 0.28751 0.7801 0.0
H1021 H 0.21286 0.29063 0.76112 0.0
H1022 H 0.24238 0.267 0.80028 0.0
H1023 H 0.21689 0.2643 0.81964 0.0
Tb1024 Tb 0.04672 0.04485 0.54784 0.0
Tb1025 Tb 0.04996 0.0196 0.51259 0.0
C1026 C 0.01215 0.01385 0.52857 0.0
C1027 C 0.04368 0.05752 0.59461 0.0
C1028 C 0.04859 0.04507 0.6283 0.0
C1029 C 0.05379 0.06516 0.62565 0.0
C1030 C 0.05136 0.07133 0.60888 0.0
C1031 C 0.03726 0.03752 0.59742 0.0
C1032 C 0.03962 0.03134 0.61423 0.0
C1033 C 0.04586 0.06359 0.57668 0.0
O1034 O 0.0541 0.01891 0.55803 0.0
O1035 O 0.04824 0.99804 0.53282 0.0
O1036 O 0.07781 0.03111 0.52588 0.0
O1037 O 0.07258 0.05899 0.53688 0.0
O1038 O 0.03944 0.99488 0.49447 0.0
O1039 O 0.06558 0.01644 0.49123 0.0
O1040 O 0.04986 0.04857 0.50295 0.0
O1041 O 0.03944 0.06261 0.52678 0.0
O1042 O 0.02129 0.02092 0.5438 0.0
O1043 O 0.02042 0.01703 0.51389 0.0
C1044 C 0.05148 1.00101 0.55023 0.0
O1045 O 0.06116 0.06184 0.57034 0.0
O1046 O 0.03137 0.05698 0.56523 0.0
C1047 C 0.08407 0.04972 0.5312 0.0
C1048 C 0.04619 1.00234 0.46561 0.0
C1049 C 0.03138 1.00388 0.43117 0.0
C1050 C 0.03912 0.02122 0.44211 0.0
C1051 C 0.04637 0.02045 0.45925 0.0
C1052 C 0.03883 0.98505 0.4546 0.0
C1053 C 0.03144 0.9858 0.43749 0.0
C1054 C 0.05259 1.0012 0.48397 0.0
C1055 C 0.04409 0.06305 0.51016 0.0
H1056 H 0.06066 0.076 0.63635 0.0
H1057 H 0.05659 0.08677 0.60685 0.0
H1058 H 0.03158 0.02663 0.58644 0.0
H1059 H 0.03569 0.01576 0.61592 0.0
H1060 H 0.039 0.03532 0.43764 0.0
H1061 H 0.05179 0.03398 0.4676 0.0
H1062 H 0.0385 0.97096 0.45935 0.0
H1063 H 0.02565 0.97223 0.42924 0.0
Tb1064 Tb 0.3071 0.80579 0.76782 0.0
Tb1065 Tb 0.28644 0.76457 0.78239 0.0
C1066 C 0.30794 0.76597 0.74778 0.0
C1067 C 0.30886 0.85438 0.75833 0.0
C1068 C 0.28031 0.87253 0.75918 0.0
C1069 C 0.28832 0.87024 0.74329 0.0
C1070 C 0.30252 0.86108 0.74285 0.0
C1071 C 0.3019 0.85842 0.77445 0.0
C1072 C 0.28769 0.86734 0.77485 0.0
C1073 C 0.31864 0.83923 0.75701 0.0
O1074 O 0.27644 0.80207 0.76202 0.0
O1075 O 0.26399 0.76913 0.76399 0.0
O1076 O 0.2764 0.78623 0.79643 0.0
O1077 O 0.30219 0.81193 0.79503 0.0
O1078 O 0.27048 0.73505 0.77905 0.0
O1079 O 0.27992 0.74958 0.80509 0.0
O1080 O 0.31581 0.77282 0.79512 0.0
O1081 O 0.33155 0.7968 0.77831 0.0
O1082 O 0.31075 0.78491 0.74761 0.0
O1083 O 0.29998 0.75578 0.76038 0.0
C1084 C 0.26202 0.78602 0.75918 0.0
O1085 O 0.32507 0.83451 0.7719 0.0
O1086 O 0.30964 0.82373 0.74674 0.0
C1087 C 0.2869 0.80362 0.80235 0.0
C1088 C 0.28196 0.71761 0.7995 0.0
C1089 C 0.30086 0.68886 0.79848 0.0
C1090 C 0.28124 0.68346 0.79606 0.0
C1091 C 0.27186 0.6978 0.79643 0.0
C1092 C 0.30137 0.72287 0.80328 0.0
C1093 C 0.31075 0.70865 0.80274 0.0
C1094 C 0.27296 0.73281 0.7958 0.0
C1095 C 0.33185 0.78432 0.79046 0.0
H1096 H 0.28275 0.87427 0.7311 0.0
H1097 H 0.30751 0.85788 0.73026 0.0
H1098 H 0.30639 0.85337 0.78659 0.0
H1099 H 0.28179 0.86928 0.78728 0.0
H1100 H 0.27323 0.66827 0.79303 0.0
H1101 H 0.25688 0.69353 0.79337 0.0
H1102 H 0.3095 0.73808 0.80558 0.0
H1103 H 0.32586 0.71343 0.80442 0.0
Tb1104 Tb 0.54562 0.02524 0.04186 0.0
Tb1105 Tb 0.5378 0.04411 0.00587 0.0
C1106 C 0.57702 0.05335 0.02499 0.0
C1107 C 0.54475 0.01618 0.08807 0.0
C1108 C 0.53286 0.0254 0.12093 0.0
C1109 C 0.54576 0.01445 0.11975 0.0
C1110 C 0.5517 0.0099 0.10338 0.0
C1111 C 0.53186 0.02704 0.08917 0.0
C1112 C 0.52592 0.03158 0.10546 0.0
C1113 C 0.55132 0.01219 0.07094 0.0
O1114 O 0.54532 0.05535 0.05131 0.0
O1115 O 0.53231 0.06485 0.02654 0.0
O1116 O 0.51313 0.02071 0.00934 0.0
O1117 O 0.51612 0.02259 0.03936 0.0
O1118 O 0.54774 0.0563 0.9828 0.0
O1119 O 0.51942 0.05381 0.98934 0.0
O1120 O 0.54574 0.01751 0.99636 0.0
O1121 O 0.54311 1.00079 0.02142 0.0
O1122 O 0.57173 0.03557 0.02998 0.0
O1123 O 0.56473 0.06108 0.01802 0.0
C1124 C 0.53819 0.06805 0.04354 0.0
O1125 O 0.53827 1.00272 0.05886 0.0
O1126 O 0.56292 0.0273 0.06499 0.0
C1127 C 0.50588 0.01735 0.02442 0.0
C1128 C 0.52452 0.04956 0.95944 0.0
C1129 C 0.51554 0.03571 0.92375 0.0
C1130 C 0.51295 0.05367 0.92999 0.0
C1131 C 0.51752 0.06058 0.94771 0.0
C1132 C 0.52582 0.031 0.95361 0.0
C1133 C 0.52147 0.02416 0.93589 0.0
C1134 C 0.53143 0.05797 0.9774 0.0
C1135 C 0.54502 1.0012 0.00423 0.0
H1136 H 0.55145 0.00967 0.1315 0.0
H1137 H 0.56178 1.00164 0.10269 0.0
H1138 H 0.52641 0.03205 0.07742 0.0
H1139 H 0.51574 0.03974 0.10591 0.0
H1140 H 0.50813 0.06275 0.92105 0.0
H1141 H 0.51622 0.07484 0.95213 0.0
H1142 H 0.53103 0.0222 0.96259 0.0
H1143 H 0.5239 0.0104 0.93157 0.0
Tb1144 Tb 0.28635 0.25918 0.26671 0.0
Tb1145 Tb 0.30451 0.30374 0.28106 0.0
C1146 C 0.2883 0.29267 0.24142 0.0
C1147 C 0.28236 0.20839 0.25242 0.0
C1148 C 0.30212 0.18047 0.25379 0.0
C1149 C 0.28313 0.17538 0.25704 0.0
C1150 C 0.27332 0.18931 0.25642 0.0
C1151 C 0.30101 0.21316 0.24815 0.0
C1152 C 0.31081 0.19931 0.24881 0.0
C1153 C 0.2732 0.22382 0.25492 0.0
O1154 O 0.3152 0.26517 0.25753 0.0
O1155 O 0.32918 0.29601 0.27085 0.0
O1156 O 0.30021 0.28709 0.30427 0.0
O1157 O 0.3017 0.2579 0.29187 0.0
O1158 O 0.30746 0.33356 0.2797 0.0
O1159 O 0.32339 0.32356 0.29985 0.0
O1160 O 0.27422 0.29913 0.28563 0.0
O1161 O 0.26338 0.26563 0.28134 0.0
O1162 O 0.27778 0.27615 0.24648 0.0
O1163 O 0.30132 0.30446 0.25246 0.0
C1164 C 0.3302 0.28056 0.26072 0.0
O1165 O 0.27283 0.23002 0.2713 0.0
O1166 O 0.27817 0.2383 0.24495 0.0
C1167 C 0.30215 0.26963 0.306 0.0
C1168 C 0.31165 0.34996 0.30748 0.0
C1169 C 0.29239 0.37523 0.32096 0.0
C1170 C 0.31149 0.38245 0.31824 0.0
C1171 C 0.32095 0.36989 0.31108 0.0
C1172 C 0.29386 0.34223 0.31334 0.0
C1173 C 0.28417 0.3548 0.31989 0.0
C1174 C 0.3183 0.33836 0.29432 0.0
C1175 C 0.26083 0.28257 0.28709 0.0
H1176 H 0.27608 0.16087 0.26076 0.0
H1177 H 0.25896 0.18545 0.25983 0.0
H1178 H 0.3083 0.22785 0.24512 0.0
H1179 H 0.32549 0.20377 0.24649 0.0
H1180 H 0.31851 0.39804 0.3197 0.0
H1181 H 0.33484 0.376 0.30688 0.0
H1182 H 0.28666 0.32674 0.311 0.0
H1183 H 0.26959 0.3485 0.32199 0.0
Tb1184 Tb 0.54655 0.5461 0.0451 0.0
Tb1185 Tb 0.54773 0.52133 0.00871 0.0
C1186 C 0.51109 0.51598 0.02665 0.0
C1187 C 0.54541 0.55784 0.09241 0.0
C1188 C 0.55205 0.54497 0.12559 0.0
C1189 C 0.55664 0.56512 0.12324 0.0
C1190 C 0.55337 0.5715 0.10673 0.0
C1191 C 0.53958 0.53776 0.09498 0.0
C1192 C 0.5428 0.53135 0.11152 0.0
C1193 C 0.54679 0.56427 0.07453 0.0
O1194 O 0.55338 0.51947 0.05427 0.0
O1195 O 0.54714 0.49941 0.02848 0.0
O1196 O 0.57648 0.53192 0.02003 0.0
O1197 O 0.57301 0.55916 0.03479 0.0
O1198 O 0.53535 0.49679 0.99081 0.0
O1199 O 0.56112 0.51792 0.9858 0.0
O1200 O 0.54837 0.5508 1.00006 0.0
O1201 O 0.53938 0.56482 0.02475 0.0
O1202 O 0.52101 0.52233 0.04162 0.0
O1203 O 0.51863 0.5198 0.0117 0.0
C1204 C 0.55065 0.50183 0.0459 0.0
O1205 O 0.56178 0.56267 0.06745 0.0
O1206 O 0.53191 0.55785 0.06353 0.0
C1207 C 0.58363 0.54968 0.0276 0.0
C1208 C 0.53904 0.50485 0.96157 0.0
C1209 C 0.52038 0.50822 0.92933 0.0
C1210 C 0.53275 0.52487 0.93866 0.0
C1211 C 0.54193 0.52323 0.95469 0.0
C1212 C 0.52704 0.48814 0.95204 0.0
C1213 C 0.51773 0.48981 0.93605 0.0
C1214 C 0.54727 0.50312 0.97919 0.0
C1215 C 0.5434 0.56547 0.00794 0.0
H1216 H 0.56365 0.57589 0.13394 0.0
H1217 H 0.55815 0.58702 0.10488 0.0
H1218 H 0.53366 0.52699 0.08396 0.0
H1219 H 0.53929 0.51574 0.11295 0.0
H1220 H 0.53486 0.53926 0.93385 0.0
H1221 H 0.55094 0.53642 0.96187 0.0
H1222 H 0.52456 0.47387 0.95717 0.0
H1223 H 0.50835 0.47674 0.92901 0.0
Tb1224 Tb 0.81072 0.30349 0.26593 0.0
Tb1225 Tb 0.79026 0.26264 0.28127 0.0
C1226 C 0.81205 0.26422 0.24728 0.0
C1227 C 0.81466 0.35057 0.24903 0.0
C1228 C 0.79516 0.37877 0.24759 0.0
C1229 C 0.81462 0.38455 0.25151 0.0
C1230 C 0.8243 0.3705 0.2523 0.0
C1231 C 0.79542 0.34489 0.2441 0.0
C1232 C 0.78575 0.35885 0.24335 0.0
C1233 C 0.82392 0.33569 0.25318 0.0
O1234 O 0.78191 0.29404 0.2521 0.0
O1235 O 0.7663 0.27267 0.27105 0.0
O1236 O 0.79032 0.28435 0.30222 0.0
O1237 O 0.79449 0.31119 0.2863 0.0
O1238 O 0.7716 0.23434 0.27684 0.0
O1239 O 0.78615 0.24474 0.3024 0.0
O1240 O 0.82049 0.26632 0.28853 0.0
O1241 O 0.83336 0.29879 0.28415 0.0
O1242 O 0.82149 0.28233 0.25212 0.0
O1243 O 0.79704 0.25546 0.25483 0.0
C1244 C 0.76588 0.28378 0.25779 0.0
O1245 O 0.82576 0.33328 0.26999 0.0
O1246 O 0.81777 0.31898 0.24362 0.0
C1247 C 0.78982 0.30231 0.30058 0.0
C1248 C 0.78493 0.21335 0.29162 0.0
C1249 C 0.80469 0.1855 0.29298 0.0
C1250 C 0.7897 0.18433 0.30356 0.0
C1251 C 0.77989 0.19831 0.30294 0.0
C1252 C 0.79961 0.21423 0.2808 0.0
C1253 C 0.80934 0.20037 0.2814 0.0
C1254 C 0.77657 0.22948 0.29219 0.0
C1255 C 0.83503 0.28228 0.29033 0.0
H1256 H 0.82222 0.39985 0.25469 0.0
H1257 H 0.83912 0.37511 0.25626 0.0
H1258 H 0.78763 0.32957 0.24171 0.0
H1259 H 0.77073 0.35386 0.24058 0.0
H1260 H 0.78592 0.17296 0.3126 0.0
H1261 H 0.76875 0.19768 0.31154 0.0
H1262 H 0.80386 0.22591 0.27214 0.0
H1263 H 0.82059 0.20137 0.27284 0.0
Tb1264 Tb 0.04087 0.51719 0.5463 0.0
Tb1265 Tb 0.04162 0.53944 0.51091 0.0
C1266 C 0.07727 0.54486 0.53496 0.0
C1267 C 0.04134 0.50949 0.59305 0.0
C1268 C 0.03667 0.52679 0.62583 0.0
C1269 C 0.03044 0.50631 0.62228 0.0
C1270 C 0.03273 0.49772 0.60594 0.0
C1271 C 0.04874 0.52983 0.59697 0.0
C1272 C 0.04648 0.53843 0.61333 0.0
C1273 C 0.0394 0.50116 0.57481 0.0
O1274 O 0.0344 0.54489 0.55524 0.0
O1275 O 0.04251 0.56309 0.5315 0.0
O1276 O 0.01332 0.53144 0.51864 0.0
O1277 O 0.01523 0.50369 0.5303 0.0
O1278 O 0.0535 0.56271 0.49577 0.0
O1279 O 0.02832 0.54007 0.48607 0.0
O1280 O 0.04133 0.50927 0.50112 0.0
O1281 O 0.04915 0.49719 0.52684 0.0
O1282 O 0.06675 0.54023 0.54801 0.0
O1283 O 0.07024 0.54054 0.51858 0.0
C1284 C 0.03793 0.56194 0.54803 0.0
O1285 O 0.02478 0.50298 0.5657 0.0
O1286 O 0.05438 0.50577 0.56614 0.0
C1287 C 1.00529 0.51376 0.52288 0.0
C1288 C 0.0501 0.55132 0.4656 0.0
C1289 C 0.06436 0.53915 0.435 0.0
C1290 C 0.04542 0.53837 0.43493 0.0
C1291 C 0.03837 0.54449 0.45011 0.0
C1292 C 0.06917 0.55269 0.46553 0.0
C1293 C 0.07625 0.54679 0.45032 0.0
C1294 C 0.04189 0.55479 0.48208 0.0
C1295 C 0.04613 0.49538 0.50937 0.0
H1296 H 0.02298 0.49704 0.63182 0.0
H1297 H 0.02679 0.48204 0.603 0.0
H1298 H 0.05519 0.53916 0.587 0.0
H1299 H 0.05124 0.55426 0.6157 0.0
H1300 H 0.0359 0.53241 0.42337 0.0
H1301 H 0.02359 0.54317 0.44996 0.0
H1302 H 0.07856 0.55781 0.47731 0.0
H1303 H 0.09101 0.54799 0.45064 0.0
Tb1304 Tb 0.81555 0.76526 0.27765 0.0
Tb1305 Tb 0.77774 0.77911 0.27017 0.0
C1306 C 0.77647 0.73866 0.28457 0.0
C1307 C 0.86002 0.75618 0.26913 0.0
C1308 C 0.88915 0.75917 0.24669 0.0
C1309 C 0.89073 0.75317 0.26385 0.0
C1310 C 0.87627 0.75172 0.27498 0.0
C1311 C 0.85826 0.76202 0.25199 0.0
C1312 C 0.87269 0.76349 0.24086 0.0
C1313 C 0.84528 0.75557 0.28113 0.0
O1314 O 0.80359 0.75287 0.25088 0.0
O1315 O 0.78608 0.77352 0.24376 0.0
O1316 O 0.80104 0.80489 0.26743 0.0
O1317 O 0.82353 0.7897 0.26184 0.0
O1318 O 0.75002 0.773 0.25937 0.0
O1319 O 0.76375 0.80035 0.27465 0.0
O1320 O 0.78222 0.77961 0.29876 0.0
O1321 O 0.81359 0.78293 0.30184 0.0
O1322 O 0.79406 0.74519 0.29047 0.0
O1323 O 0.76905 0.74779 0.27305 0.0
C1324 C 0.7949 0.76067 0.23902 0.0
O1325 O 0.84381 0.77268 0.28674 0.0
O1326 O 0.82903 0.74318 0.27612 0.0
C1327 C 0.81724 0.80498 0.26166 0.0
C1328 C 0.73208 0.78633 0.27823 0.0
C1329 C 0.70256 0.78387 0.30017 0.0
C1330 C 0.70247 0.7921 0.28382 0.0
C1331 C 0.71713 0.79336 0.27299 0.0
C1332 C 0.7321 0.77769 0.29431 0.0
C1333 C 0.71748 0.77649 0.30521 0.0
C1334 C 0.74797 0.78892 0.26728 0.0
C1335 C 0.79806 0.78403 0.3086 0.0
H1336 H 0.90311 0.74951 0.26867 0.0
H1337 H 0.87783 0.74725 0.28819 0.0
H1338 H 0.84582 0.76568 0.2473 0.0
H1339 H 0.87112 0.76842 0.22783 0.0
H1340 H 0.69106 0.7976 0.27936 0.0
H1341 H 0.71691 0.80004 0.26061 0.0
H1342 H 0.74357 0.77218 0.29857 0.0
H1343 H 0.71811 0.77025 0.31777 0.0
Tb1344 Tb 0.79141 0.29243 0.79332 0.0
Tb1345 Tb 0.80936 0.28073 0.75751 0.0
C1346 C 0.77554 0.29841 0.75536 0.0
C1347 C 0.77849 0.29068 0.83869 0.0
C1348 C 0.7792 0.27344 0.87076 0.0
C1349 C 0.7749 0.29135 0.87013 0.0
C1350 C 0.77451 0.2999 0.85414 0.0
C1351 C 0.78298 0.27293 0.83931 0.0
C1352 C 0.78328 0.26434 0.85521 0.0
C1353 C 0.77866 0.29978 0.82201 0.0
O1354 O 0.78367 0.26063 0.78986 0.0
O1355 O 0.78328 0.25862 0.75987 0.0
O1356 O 0.82094 0.26704 0.77842 0.0
O1357 O 0.81838 0.28853 0.8012 0.0
O1358 O 0.80611 0.26292 0.73382 0.0
O1359 O 0.83191 0.28521 0.74157 0.0
O1360 O 0.82712 0.30893 0.76893 0.0
O1361 O 0.8055 0.31992 0.78318 0.0
O1362 O 0.7719 0.29395 0.77154 0.0
O1363 O 0.79133 0.29804 0.74889 0.0
C1364 C 0.77771 0.25092 0.77446 0.0
O1365 O 0.7952 0.30912 0.81765 0.0
O1366 O 0.76856 0.28852 0.80876 0.0
C1367 C 0.82584 0.27536 0.79455 0.0
C1368 C 0.82038 0.28186 0.71191 0.0
C1369 C 0.81335 0.29689 0.67978 0.0
C1370 C 0.81729 0.27874 0.6799 0.0
C1371 C 0.82074 0.27125 0.69589 0.0
C1372 C 0.81674 0.3001 0.71182 0.0
C1373 C 0.81325 0.30753 0.69592 0.0
C1374 C 0.82191 0.27327 0.72871 0.0
C1375 C 0.82173 0.32319 0.77652 0.0
H1376 H 0.77163 0.29858 0.88194 0.0
H1377 H 0.77117 0.3137 0.85383 0.0
H1378 H 0.78636 0.26577 0.82751 0.0
H1379 H 0.78694 0.25071 0.85538 0.0
H1380 H 0.81759 0.27029 0.66765 0.0
H1381 H 0.82331 0.25705 0.69577 0.0
H1382 H 0.81614 0.3084 0.72407 0.0
H1383 H 0.8099 0.32135 0.69632 0.0
Tb1384 Tb 0.78682 0.76278 0.76814 0.0
Tb1385 Tb 0.80425 0.80774 0.78226 0.0
C1386 C 0.78633 0.79565 0.74291 0.0
C1387 C 0.78429 0.71231 0.75395 0.0
C1388 C 0.80388 0.68429 0.75574 0.0
C1389 C 0.78447 0.67883 0.75706 0.0
C1390 C 0.77474 0.69281 0.75621 0.0
C1391 C 0.8035 0.71759 0.75182 0.0
C1392 C 0.81322 0.70369 0.75269 0.0
C1393 C 0.77476 0.7275 0.75578 0.0
O1394 O 0.81631 0.76992 0.76009 0.0
O1395 O 0.82986 0.80078 0.7737 0.0
O1396 O 0.8075 0.79236 0.80559 0.0
O1397 O 0.80022 0.76047 0.79388 0.0
O1398 O 0.81602 0.83701 0.7769 0.0
O1399 O 0.81065 0.82966 0.80336 0.0
O1400 O 0.77365 0.80208 0.78603 0.0
O1401 O 0.76357 0.76857 0.7827 0.0
O1402 O 0.77683 0.77871 0.74796 0.0
O1403 O 0.79898 0.80803 0.75382 0.0
C1404 C 0.83123 0.7854 0.76367 0.0
O1405 O 0.77322 0.73341 0.77199 0.0
O1406 O 0.78037 0.74217 0.74614 0.0
C1407 C 0.80545 0.77371 0.80741 0.0
C1408 C 0.80184 0.85623 0.79373 0.0
C1409 C 0.77586 0.87739 0.79762 0.0
C1410 C 0.79302 0.88323 0.8079 0.0
C1411 C 0.80594 0.87258 0.80602 0.0
C1412 C 0.78486 0.85068 0.78325 0.0
C1413 C 0.772 0.86118 0.78516 0.0
C1414 C 0.81412 0.84361 0.79276 0.0
C1415 C 0.76059 0.78543 0.78793 0.0
H1416 H 0.77695 0.66391 0.75929 0.0
H1417 H 0.75992 0.68858 0.75798 0.0
H1418 H 0.81118 0.73261 0.75021 0.0
H1419 H 0.82821 0.70844 0.75194 0.0
H1420 H 0.79623 0.89569 0.81764 0.0
H1421 H 0.81889 0.87684 0.81435 0.0
H1422 H 0.78139 0.838 0.77372 0.0
H1423 H 0.75902 0.85661 0.77686 0.0
Tb1424 Tb 0.57212 0.55314 0.54115 0.0
Tb1425 Tb 0.53243 0.5253 0.52199 0.0
C1426 C 0.53444 0.55048 0.55746 0.0
C1427 C 0.6215 0.56825 0.55373 0.0
C1428 C 0.6499 0.54993 0.55135 0.0
C1429 C 0.64549 0.55631 0.56794 0.0
C1430 C 0.63136 0.56545 0.56911 0.0
C1431 C 0.62685 0.56312 0.53715 0.0
C1432 C 0.64093 0.55408 0.53598 0.0
C1433 C 0.60364 0.57268 0.55502 0.0
O1434 O 0.57252 0.52304 0.5442 0.0
O1435 O 0.54098 0.5078 0.54142 0.0
O1436 O 0.55361 0.51568 0.50919 0.0
O1437 O 0.57724 0.54437 0.51455 0.0
O1438 O 0.50567 0.50643 0.52414 0.0
O1439 O 0.51549 0.51396 0.49864 0.0
O1440 O 0.53915 0.55258 0.50904 0.0
O1441 O 0.55799 0.57348 0.53109 0.0
O1442 O 0.55197 0.55116 0.56054 0.0
O1443 O 0.52546 0.54455 0.54191 0.0
C1444 C 0.55813 0.50798 0.54636 0.0
O1445 O 0.59609 0.57692 0.54048 0.0
O1446 O 0.59151 0.56015 0.56329 0.0
C1447 C 0.56972 0.52729 0.50569 0.0
C1448 C 0.48533 0.5144 0.50382 0.0
C1449 C 0.45512 0.53012 0.50088 0.0
C1450 C 0.45246 0.50997 0.4966 0.0
C1451 C 0.46755 0.50213 0.49812 0.0
C1452 C 0.48808 0.53453 0.50757 0.0
C1453 C 0.47315 0.54233 0.50613 0.0
C1454 C 0.50101 0.50655 0.50738 0.0
C1455 C 0.54727 0.57039 0.5163 0.0
H1456 H 0.65232 0.55341 0.57998 0.0
H1457 H 0.6273 0.56915 0.58202 0.0
H1458 H 0.61935 0.56482 0.52503 0.0
H1459 H 0.64376 0.54905 0.523 0.0
H1460 H 0.43871 0.50025 0.49245 0.0
H1461 H 0.46527 0.48652 0.49529 0.0
H1462 H 0.50172 0.54415 0.51225 0.0
H1463 H 0.47565 0.55779 0.50997 0.0
Tb1464 Tb 0.02093 0.52116 0.03929 0.0
Tb1465 Tb 0.06838 0.52845 0.02954 0.0
C1466 C 0.04475 0.50736 0.06289 0.0
C1467 C 0.977 0.53569 0.03869 0.0
C1468 C 0.95618 0.56276 0.03455 0.0
C1469 C 0.97411 0.56876 0.04344 0.0
C1470 C 0.98447 0.55538 0.04541 0.0
C1471 C 0.95921 0.52974 0.0297 0.0
C1472 C 0.9489 0.54313 0.02761 0.0
C1473 C 0.98739 0.52114 0.04112 0.0
O1474 O 0.03819 0.54936 0.05212 0.0
O1475 O 0.06785 0.55685 0.04126 0.0
O1476 O 0.05884 0.54306 0.00907 0.0
O1477 O 0.02807 0.53823 0.01654 0.0
O1478 O 0.09276 0.5286 0.04466 0.0
O1479 O 0.09222 0.52851 0.01617 0.0
O1480 O 0.05245 0.5012 0.01505 0.0
O1481 O 0.02311 0.49348 0.0265 0.0
O1482 O 0.02728 0.50639 0.062 0.0
O1483 O 0.05373 0.5154 0.05017 0.0
C1484 C 0.05492 0.56147 0.05032 0.0
O1485 O 0.99371 0.51477 0.02701 0.0
O1486 O 0.99965 0.52475 0.0547 0.0
C1487 C 0.04206 0.54523 0.00668 0.0
C1488 C 0.11187 0.51202 0.0301 0.0
C1489 C 0.13273 0.48456 0.02881 0.0
C1490 C 0.138 0.50172 0.01985 0.0
C1491 C 0.12769 0.51523 0.0205 0.0
C1492 C 0.10645 0.4949 0.03913 0.0
C1493 C 0.11683 0.48131 0.03852 0.0
C1494 C 0.10173 0.52705 0.03071 0.0
C1495 C 0.03575 0.48919 0.01675 0.0
H1496 H 0.98018 0.58383 0.04874 0.0
H1497 H 0.99828 0.56044 0.05225 0.0
H1498 H 0.95319 0.51465 0.02441 0.0
H1499 H 0.93507 0.538 0.02085 0.0
H1500 H 0.15033 0.50492 0.01252 0.0
H1501 H 0.13219 0.52837 0.01356 0.0
H1502 H 0.09425 0.49204 0.04665 0.0
H1503 H 0.1123 0.46819 0.04546 0.0
C1504 C 0.01367 0.19356 0.93036 0.0
C1505 C 0.01459 0.21099 0.94055 0.0
C1506 C 0.01614 0.17721 0.93846 0.0
C1507 C 0.01322 0.155 0.98127 0.0
H1508 H 0.04486 0.12564 0.96179 0.0
C1509 C 0.01831 0.08208 0.00779 0.0
C1510 C 0.03627 0.07966 0.0102 0.0
C1511 C 0.01545 0.09781 0.99904 0.0
C1512 C 0.03602 0.13373 0.96743 0.0
H1513 H 0.01874 0.22482 0.96726 0.0
H1514 H 0.02284 0.19638 0.9813 0.0
H1515 H 0.04018 0.15354 0.94694 0.0
H1516 H 0.06529 0.09192 0.0051 0.0
H1517 H 0.06026 0.11928 0.98973 0.0
H1518 H 1.00913 0.13531 1.0018 0.0
C1519 C 0.02018 0.19528 0.96708 0.0
C1520 C 0.0332 0.14959 0.95882 0.0
C1521 C 0.01793 0.21164 0.95899 0.0
C1522 C 0.05128 0.09333 1.00353 0.0
C1523 C 0.04838 0.10896 0.9946 0.0
C1524 C 0.01587 0.13902 0.98976 0.0
C1525 C 0.01934 0.17785 0.95694 0.0
C1526 C 0.02186 0.16052 0.9657 0.0
C1527 C 0.03044 0.11143 0.99228 0.0
C1528 C 0.02738 0.12824 0.98301 0.0
H1529 H 0.01114 0.19257 0.91613 0.0
H1530 H 0.01529 0.16397 0.93027 0.0
H1531 H 1.00428 0.16299 0.98686 0.0
H1532 H 1.00641 0.07184 0.01273 0.0
H1533 H 1.00143 0.09917 0.99736 0.0
C1534 C 0.14823 0.80761 0.149 0.0
C1535 C 0.13252 0.80958 0.15731 0.0
C1536 C 0.16492 0.80894 0.15898 0.0
C1537 C 0.18912 0.82335 0.20443 0.0
H1538 H 0.21587 0.78644 0.19006 0.0
C1539 C 0.24112 0.80082 0.25175 0.0
C1540 C 0.25772 0.79895 0.24515 0.0
C1541 C 0.22716 0.80429 0.24052 0.0
C1542 C 0.2087 0.797 0.19415 0.0
H1543 H 0.1222 0.81505 0.1826 0.0
H1544 H 0.15094 0.8169 0.19996 0.0
H1545 H 0.18931 0.7889 0.17134 0.0
H1546 H 0.2727 0.79937 0.22154 0.0
H1547 H 0.24825 0.80532 0.20193 0.0
H1548 H 0.20819 0.83084 0.2276 0.0
C1549 C 0.15066 0.81475 0.18572 0.0
C1550 C 0.19347 0.7985 0.18336 0.0
C1551 C 0.13407 0.81361 0.17574 0.0
C1552 C 0.26014 0.80085 0.22708 0.0
C1553 C 0.24607 0.80411 0.21581 0.0
C1554 C 0.20421 0.82168 0.2153 0.0
C1555 C 0.16624 0.81209 0.17754 0.0
C1556 C 0.18333 0.81156 0.18843 0.0
C1557 C 0.22938 0.80576 0.22239 0.0
C1558 C 0.21406 0.80836 0.21036 0.0
H1559 H 0.1475 0.8045 0.13482 0.0
H1560 H 0.17669 0.8072 0.15214 0.0
H1561 H 0.18195 0.83386 0.20866 0.0
H1562 H 0.2388 0.79943 0.26558 0.0
H1563 H 0.21439 0.8053 0.24596 0.0
C1564 C 0.52093 0.82718 0.45138 0.0
C1565 C 0.51741 0.82632 0.43293 0.0
C1566 C 0.52281 0.84461 0.46189 0.0
C1567 C 0.51134 0.89198 0.46163 0.0
H1568 H 0.55115 0.90956 0.49903 0.0
C1569 C 0.52086 0.96257 0.50815 0.0
C1570 C 0.53927 0.97482 0.51148 0.0
C1571 C 0.51729 0.94375 0.49952 0.0
C1572 C 0.53998 0.90488 0.48861 0.0
H1573 H 0.51306 0.84331 0.41119 0.0
H1574 H 0.51637 0.87343 0.42941 0.0
H1575 H 0.54673 0.87816 0.4821 0.0
H1576 H 0.56837 0.97657 0.50852 0.0
H1577 H 0.56213 0.94408 0.49357 0.0
H1578 H 0.50486 0.9189 0.46786 0.0
C1579 C 0.51753 0.86063 0.43581 0.0
C1580 C 0.53733 0.88677 0.47902 0.0
C1581 C 0.51578 0.84332 0.42532 0.0
C1582 C 0.55398 0.96768 0.50615 0.0
C1583 C 0.55043 0.9489 0.49768 0.0
C1584 C 0.51393 0.91004 0.47128 0.0
C1585 C 0.52105 0.86154 0.45423 0.0
C1586 C 0.52314 0.8802 0.46524 0.0
C1587 C 0.53205 0.93669 0.4942 0.0
C1588 C 0.52845 0.91685 0.48473 0.0
H1589 H 0.52224 0.81441 0.45773 0.0
H1590 H 0.52539 0.84476 0.47606 0.0
H1591 H 0.50012 0.88726 0.45126 0.0
H1592 H 0.50918 0.96752 0.51207 0.0
H1593 H 0.50297 0.93466 0.49717 0.0
C1594 C 0.53223 0.29311 0.6633 0.0
C1595 C 0.52897 0.2868 0.64522 0.0
C1596 C 0.51737 0.29099 0.674 0.0
C1597 C 0.46632 0.28338 0.67226 0.0
H1598 H 0.47154 0.26682 0.71939 0.0
C1599 C 0.4042 0.2617 0.71584 0.0
C1600 C 0.40769 0.26776 0.73396 0.0
C1601 C 0.41891 0.26412 0.70491 0.0
C1602 C 0.46992 0.27168 0.70635 0.0
H1603 H 0.5074 0.27331 0.62423 0.0
H1604 H 0.48154 0.26948 0.64294 0.0
H1605 H 0.49732 0.27096 0.70055 0.0
H1606 H 0.42941 0.28155 0.7547 0.0
H1607 H 0.45503 0.28576 0.73566 0.0
H1608 H 0.4389 0.28407 0.67807 0.0
C1609 C 0.4956 0.2763 0.64879 0.0
C1610 C 0.48471 0.27405 0.69554 0.0
C1611 C 0.51046 0.27843 0.63808 0.0
C1612 C 0.42624 0.27638 0.74087 0.0
C1613 C 0.44094 0.27881 0.72995 0.0
C1614 C 0.45152 0.281 0.68308 0.0
C1615 C 0.49888 0.28249 0.6669 0.0
C1616 C 0.48311 0.27996 0.67837 0.0
C1617 C 0.43747 0.27268 0.71184 0.0
C1618 C 0.45315 0.27514 0.70027 0.0
H1619 H 0.54629 0.29968 0.66927 0.0
H1620 H 0.52038 0.29619 0.68783 0.0
H1621 H 0.46471 0.28821 0.65921 0.0
H1622 H 0.39011 0.25476 0.71013 0.0
H1623 H 0.41577 0.25898 0.69107 0.0
C1624 C 0.04652 0.84384 0.6271 0.0
C1625 C 0.04956 0.84606 0.64577 0.0
C1626 C 0.04674 0.8601 0.61683 0.0
C1627 C 0.0467 0.9148 0.62091 0.0
H1628 H 0.05784 0.91333 0.57197 0.0
C1629 C 0.05434 0.9853 0.57997 0.0
C1630 C 0.05177 0.98347 0.56127 0.0
C1631 C 0.05413 0.96892 0.59 0.0
C1632 C 0.05443 0.91426 0.58554 0.0
H1633 H 0.05545 0.86839 0.66769 0.0
H1634 H 0.05603 0.89598 0.65032 0.0
H1635 H 0.05718 0.88536 0.58891 0.0
H1636 H 0.04672 0.96172 0.539 0.0
H1637 H 0.04616 0.93375 0.55601 0.0
H1638 H 0.04388 0.94363 0.61758 0.0
C1639 C 0.05309 0.88166 0.6433 0.0
C1640 C 0.05406 0.8978 0.5955 0.0
C1641 C 0.05288 0.86549 0.65349 0.0
C1642 C 0.04894 0.96427 0.55323 0.0
C1643 C 0.04872 0.94791 0.56323 0.0
C1644 C 0.04705 0.93123 0.61096 0.0
C1645 C 0.04999 0.87959 0.6246 0.0
C1646 C 0.05022 0.89748 0.61356 0.0
C1647 C 0.05129 0.94961 0.58198 0.0
C1648 C 0.05095 0.93159 0.5929 0.0
H1649 H 0.04389 0.82943 0.62028 0.0
H1650 H 0.04406 0.85715 0.60267 0.0
H1651 H 0.04328 0.91572 0.63448 0.0
H1652 H 0.05651 0.99953 0.58701 0.0
H1653 H 0.05645 0.97165 0.6042 0.0
C1654 C 0.48469 0.78445 0.877 0.0
C1655 C 0.49718 0.7763 0.86804 0.0
C1656 C 0.46719 0.78504 0.8688 0.0
C1657 C 0.43908 0.77978 0.82367 0.0
H1658 H 0.39731 0.77805 0.85181 0.0
C1659 C 0.36824 0.79271 0.7929 0.0
C1660 C 0.3508 0.78326 0.79931 0.0
C1661 C 0.38564 0.7916 0.80095 0.0
C1662 C 0.40863 0.77849 0.84349 0.0
H1663 H 0.49908 0.76056 0.84334 0.0
H1664 H 0.4692 0.76187 0.82905 0.0
H1665 H 0.42697 0.7764 0.86581 0.0
H1666 H 0.33918 0.76511 0.82001 0.0
H1667 H 0.36894 0.76343 0.83397 0.0
H1668 H 0.42075 0.78198 0.80136 0.0
C1669 C 0.47316 0.7685 0.8424 0.0
C1670 C 0.42606 0.77772 0.85173 0.0
C1671 C 0.49062 0.76781 0.85068 0.0
C1672 C 0.35191 0.77272 0.81436 0.0
C1673 C 0.36932 0.77185 0.82258 0.0
C1674 C 0.42172 0.78087 0.81548 0.0
C1675 C 0.4609 0.77729 0.85114 0.0
C1676 C 0.44188 0.77825 0.8421 0.0
C1677 C 0.38681 0.78121 0.81613 0.0
C1678 C 0.40586 0.78018 0.82509 0.0
H1679 H 0.48862 0.79079 0.89046 0.0
H1680 H 0.45869 0.79198 0.8764 0.0
H1681 H 0.45048 0.78043 0.81542 0.0
H1682 H 0.36851 0.80102 0.78143 0.0
H1683 H 0.39832 0.79929 0.79529 0.0
C1684 C 0.54298 0.23432 0.11973 0.0
C1685 C 0.53464 0.23427 0.13594 0.0
C1686 C 0.54289 0.21666 0.10984 0.0
C1687 C 0.53428 0.16111 0.11326 0.0
H1688 H 0.53704 0.15997 0.06262 0.0
C1689 C 0.54336 0.09092 0.07236 0.0
C1690 C 0.53722 0.08683 0.0542 0.0
C1691 C 0.54281 0.10844 0.08211 0.0
C1692 C 0.5361 0.15965 0.07673 0.0
H1693 H 0.52039 0.21467 0.15451 0.0
H1694 H 0.51986 0.18419 0.13747 0.0
H1695 H 0.53595 0.18986 0.07919 0.0
H1696 H 0.52551 0.09901 0.03252 0.0
H1697 H 0.52428 0.12891 0.04922 0.0
H1698 H 0.53395 0.13079 0.11078 0.0
C1699 C 0.52657 0.19792 0.13215 0.0
C1700 C 0.53573 0.17726 0.08647 0.0
C1701 C 0.52671 0.21562 0.14203 0.0
C1702 C 0.53045 0.10123 0.04637 0.0
C1703 C 0.52989 0.11876 0.05611 0.0
C1704 C 0.53464 0.14351 0.10353 0.0
C1705 C 0.53468 0.19786 0.11573 0.0
C1706 C 0.53485 0.17859 0.10507 0.0
C1707 C 0.53609 0.12298 0.07431 0.0
C1708 C 0.53559 0.14218 0.08493 0.0
H1709 H 0.54991 0.24818 0.11472 0.0
H1710 H 0.54971 0.21791 0.09765 0.0
H1711 H 0.5338 0.16095 0.12743 0.0
H1712 H 0.54877 0.08054 0.07915 0.0
H1713 H 0.54805 0.11064 0.09585 0.0
C1714 C 0.11173 0.27075 0.37014 0.0
C1715 C 0.10132 0.28369 0.36521 0.0
C1716 C 0.12876 0.27044 0.36235 0.0
C1717 C 0.16604 0.29947 0.33227 0.0
H1718 H 0.18328 0.25325 0.33114 0.0
C1719 C 0.23883 0.30034 0.30233 0.0
C1720 C 0.2425 0.2828 0.29589 0.0
C1721 C 0.22221 0.3004 0.31081 0.0
C1722 C 0.1789 0.26644 0.33104 0.0
H1723 H 0.10204 0.30646 0.34739 0.0
H1724 H 0.13062 0.30595 0.33434 0.0
H1725 H 0.15479 0.25329 0.34516 0.0
H1726 H 0.23022 0.2513 0.2941 0.0
H1727 H 0.20184 0.25132 0.30839 0.0
H1728 H 0.18991 0.31258 0.318 0.0
C1729 C 0.12607 0.29603 0.34444 0.0
C1730 C 0.16224 0.26652 0.33948 0.0
C1731 C 0.10916 0.29625 0.35208 0.0
C1732 C 0.22844 0.26531 0.29858 0.0
C1733 C 0.21186 0.26535 0.30711 0.0
C1734 C 0.18271 0.29943 0.32392 0.0
C1735 C 0.13657 0.28312 0.34918 0.0
C1736 C 0.1551 0.28302 0.34035 0.0
C1737 C 0.20807 0.28289 0.31357 0.0
C1738 C 0.18979 0.28291 0.32291 0.0
H1739 H 0.1066 0.26056 0.37992 0.0
H1740 H 0.13587 0.26017 0.36687 0.0
H1741 H 0.16193 0.31283 0.33247 0.0
H1742 H 0.24896 0.31429 0.30092 0.0
H1743 H 0.22072 0.31446 0.31548 0.0
C1744 C 0.95802 0.06639 0.1972 0.0
C1745 C 0.94043 0.05239 0.19532 0.0
C1746 C 0.96734 0.07265 0.18231 0.0
C1747 C 0.96215 0.0688 0.13292 0.0
H1748 H 0.01321 0.06629 0.138 0.0
C1749 C 0.99897 0.04193 0.07711 0.0
C1750 C 0.01794 0.05132 0.07568 0.0
C1751 C 0.9898 0.04759 0.09098 0.0
C1752 C 0.99911 0.06746 0.13641 0.0
H1753 H 0.91818 0.03502 0.17646 0.0
H1754 H 0.93456 0.0454 0.15062 0.0
H1755 H 0.99622 0.06711 0.16408 0.0
H1756 H 0.04211 0.07439 0.08726 0.0
H1757 H 0.02605 0.08407 0.11179 0.0
H1758 H 0.96484 0.06781 0.10503 0.0
C1759 C 0.94113 0.0519 0.16347 0.0
C1760 C 0.98935 0.06801 0.15138 0.0
C1761 C 0.93175 0.04582 0.17833 0.0
C1762 C 0.02747 0.06686 0.08809 0.0
C1763 C 0.01833 0.07238 0.1021 0.0
C1764 C 0.97187 0.06804 0.11793 0.0
C1765 C 0.95931 0.06485 0.1653 0.0
C1766 C 0.97057 0.06807 0.14977 0.0
C1767 C 0.99947 0.06263 0.10376 0.0
C1768 C 0.99024 0.06679 0.11954 0.0
H1769 H 0.96496 0.07186 0.21016 0.0
H1770 H 0.98117 0.08297 0.18417 0.0
H1771 H 0.94782 0.06923 0.13124 0.0
H1772 H 0.99122 0.03003 0.06763 0.0
H1773 H 0.9753 0.03967 0.09208 0.0
C1774 C 0.30021 0.68412 0.50507 0.0
C1775 C 0.29409 0.66351 0.50383 0.0
C1776 C 0.2988 0.6943 0.49023 0.0
C1777 C 0.27171 0.68791 0.44743 0.0
H1778 H 0.30922 0.73538 0.43794 0.0
C1779 C 0.26918 0.72499 0.3829 0.0
C1780 C 0.27377 0.74555 0.38414 0.0
C1781 C 0.2717 0.71518 0.39767 0.0
C1782 C 0.29855 0.72226 0.44056 0.0
H1783 H 0.28256 0.63742 0.48582 0.0
H1784 H 0.28048 0.6552 0.45994 0.0
H1785 H 0.31465 0.71761 0.46316 0.0
H1786 H 0.28443 0.77199 0.40176 0.0
H1787 H 0.28858 0.75475 0.42775 0.0
H1788 H 0.25564 0.6925 0.42484 0.0
C1789 C 0.28596 0.66348 0.47247 0.0
C1790 C 0.30166 0.71208 0.45495 0.0
C1791 C 0.28729 0.6533 0.48729 0.0
C1792 C 0.28064 0.75612 0.40049 0.0
C1793 C 0.28321 0.74629 0.41529 0.0
C1794 C 0.26862 0.69804 0.43304 0.0
C1795 C 0.29132 0.68406 0.47387 0.0
C1796 C 0.28828 0.69478 0.45849 0.0
C1797 C 0.27888 0.72574 0.41397 0.0
C1798 C 0.28202 0.71528 0.42946 0.0
H1799 H 0.30548 0.69245 0.51761 0.0
H1800 H 0.30292 0.71017 0.49174 0.0
H1801 H 0.26096 0.67485 0.45004 0.0
H1802 H 0.2637 0.71649 0.37047 0.0
H1803 H 0.26839 0.69933 0.39625 0.0
C1804 C 0.64811 0.01344 0.69823 0.0
C1805 C 0.63572 1.00322 0.70987 0.0
C1806 C 0.64294 0.01147 0.68014 0.0
C1807 C 0.60796 0.9838 0.64458 0.0
H1808 H 0.60929 0.03556 0.6308 0.0
C1809 C 0.55769 0.99593 0.58931 0.0
C1810 C 0.56382 0.01212 0.57941 0.0
C1811 C 0.5692 0.99302 0.60334 0.0
C1812 C 0.60916 0.02098 0.6341 0.0
H1813 H 0.60914 0.98144 0.71168 0.0
H1814 H 0.60019 0.97791 0.68009 0.0
H1815 H 0.62602 0.03237 0.65808 0.0
H1816 H 0.58577 0.03882 0.57716 0.0
H1817 H 0.6067 0.03294 0.6004 0.0
H1818 H 0.59088 0.97238 0.62064 0.0
C1819 C 0.61383 0.98748 0.6849 0.0
C1820 C 0.61878 0.01918 0.64981 0.0
C1821 C 0.6189 0.9896 0.70299 0.0
C1822 C 0.58139 0.0255 0.5838 0.0
C1823 C 0.59308 0.02242 0.59753 0.0
C1824 C 0.59854 0.98559 0.62867 0.0
C1825 C 0.62542 0.99908 0.67345 0.0
C1826 C 0.61792 1.00059 0.65539 0.0
C1827 C 0.58704 0.00629 0.60766 0.0
C1828 C 0.59866 1.00421 0.62347 0.0
H1829 H 0.66119 0.02401 0.70318 0.0
H1830 H 0.65217 0.02045 0.67151 0.0
H1831 H 0.60713 0.9693 0.64863 0.0
H1832 H 0.54394 0.98567 0.5863 0.0
H1833 H 0.56386 0.98072 0.6111 0.0
C1834 C 0.28809 0.32543 0.96938 0.0
C1835 C 0.29717 0.34566 0.97272 0.0
C1836 C 0.28744 0.31586 0.95236 0.0
C1837 C 0.31298 0.31676 0.91313 0.0
H1838 H 0.2667 0.29936 0.88342 0.0
C1839 C 0.31354 0.2998 0.83727 0.0
C1840 C 0.29771 0.28701 0.82768 0.0
C1841 C 0.31322 0.30529 0.85534 0.0
C1842 C 0.2798 0.30365 0.89147 0.0
H1843 H 0.31268 0.37137 0.96025 0.0
H1844 H 0.3123 0.35465 0.93161 0.0
H1845 H 0.26634 0.31004 0.91443 0.0
H1846 H 0.26926 0.26949 0.82992 0.0
H1847 H 0.26895 0.27803 0.86123 0.0
H1848 H 0.3266 0.31018 0.89065 0.0
C1849 C 0.30548 0.34622 0.94197 0.0
C1850 C 0.27951 0.30985 0.90937 0.0
C1851 C 0.30569 0.3558 0.95859 0.0
C1852 C 0.28169 0.27956 0.83678 0.0
C1853 C 0.28149 0.28466 0.85489 0.0
C1854 C 0.31327 0.31017 0.89538 0.0
C1855 C 0.2963 0.32621 0.93853 0.0
C1856 C 0.29612 0.31676 0.92035 0.0
C1857 C 0.29718 0.29781 0.86458 0.0
C1858 C 0.29673 0.30382 0.88402 0.0
H1859 H 0.28127 0.3171 0.97977 0.0
H1860 H 0.2802 0.30036 0.95006 0.0
H1861 H 0.32604 0.32211 0.92124 0.0
H1862 H 0.32609 0.30597 0.83073 0.0
H1863 H 0.32555 0.31576 0.86188 0.0
C1864 C 0.92992 1.00291 0.30167 0.0
C1865 C 0.93693 0.01455 0.28797 0.0
C1866 C 0.9415 1.00232 0.31645 0.0
C1867 C 0.98407 0.02896 0.34296 0.0
H1868 H 0.98245 0.97748 0.35779 0.0
C1869 C 0.03092 0.0187 0.40226 0.0
C1870 C 0.02235 1.0046 0.41357 0.0
C1871 C 0.02187 0.01993 0.38601 0.0
C1872 C 0.98294 0.99196 0.35392 0.0
H1873 H 0.9615 0.03525 0.27936 0.0
H1874 H 0.98175 0.03434 0.30549 0.0
H1875 H 0.96376 0.98025 0.33136 0.0
H1876 H 0.99761 0.98088 0.41695 0.0
H1877 H 0.98166 0.98319 0.38879 0.0
H1878 H 1.0028 0.04073 0.36582 0.0
C1879 C 0.96726 0.02563 0.30459 0.0
C1880 C 0.97229 0.99353 0.33879 0.0
C1881 C 0.95568 0.02608 0.28966 0.0
C1882 C 1.00466 0.99166 0.40833 0.0
C1883 C 0.99556 0.99298 0.39218 0.0
C1884 C 0.99462 0.02741 0.35824 0.0
C1885 C 0.9603 0.01348 0.31794 0.0
C1886 C 0.97257 0.01202 0.33332 0.0
C1887 C 1.00403 0.00716 0.38086 0.0
C1888 C 0.99396 0.00888 0.364 0.0
H1889 H 0.91555 0.99387 0.30087 0.0
H1890 H 0.93576 0.99307 0.32672 0.0
H1891 H 0.9844 0.04339 0.33902 0.0
H1892 H 0.04464 0.02874 0.40597 0.0
H1893 H 0.02886 0.03084 0.37747 0.0
C1894 C 0.32924 0.66886 0.61736 0.0
C1895 C 0.32671 0.67914 0.60275 0.0
C1896 C 0.33332 0.67853 0.63427 0.0
C1897 C 0.34182 0.72833 0.65881 0.0
H1898 H 0.31701 0.69658 0.69464 0.0
C1899 C 0.33047 0.76446 0.72536 0.0
C1900 C 0.31394 0.75562 0.73306 0.0
C1901 C 0.33599 0.75468 0.71115 0.0
C1902 C 0.32378 0.70579 0.68476 0.0
H1903 H 0.32718 0.7076 0.59409 0.0
H1904 H 0.33293 0.72417 0.62342 0.0
H1905 H 0.31989 0.68101 0.66643 0.0
H1906 H 0.29009 0.72988 0.73214 0.0
H1907 H 0.29878 0.71341 0.70661 0.0
H1908 H 0.34382 0.7533 0.67647 0.0
C1909 C 0.33268 0.70892 0.62209 0.0
C1910 C 0.32589 0.69673 0.66856 0.0
C1911 C 0.32925 0.69938 0.60515 0.0
C1912 C 0.303 0.73689 0.72644 0.0
C1913 C 0.30816 0.72738 0.7119 0.0
C1914 C 0.33911 0.73745 0.67479 0.0
C1915 C 0.33419 0.69851 0.637 0.0
C1916 C 0.33454 0.7079 0.65515 0.0
C1917 C 0.32474 0.73612 0.70399 0.0
C1918 C 0.32962 0.72634 0.68784 0.0
H1919 H 0.32749 0.65323 0.61576 0.0
H1920 H 0.33506 0.67008 0.64524 0.0
H1921 H 0.34912 0.73748 0.64914 0.0
H1922 H 0.33924 0.77884 0.73046 0.0
H1923 H 0.34906 0.76177 0.70582 0.0
C1924 C 0.5908 0.01835 0.79359 0.0
C1925 C 0.60846 0.02208 0.80276 0.0
C1926 C 0.57477 0.01503 0.80279 0.0
C1927 C 0.54772 0.02465 0.82833 0.0
H1928 H 0.54296 0.9934 0.86865 0.0
C1929 C 0.52288 0.045 0.89336 0.0
C1930 C 0.515 0.03041 0.90454 0.0
C1931 C 0.52699 0.03987 0.87644 0.0
C1932 C 0.54367 1.00175 0.85717 0.0
H1933 H 0.62317 0.02488 0.82865 0.0
H1934 H 0.5952 0.01903 0.84465 0.0
H1935 H 0.56577 0.9914 0.84768 0.0
H1936 H 0.50301 0.9991 0.9059 0.0
H1937 H 0.51062 0.99013 0.87636 0.0
H1938 H 0.52638 0.0359 0.83843 0.0
C1939 C 0.59376 0.01856 0.83037 0.0
C1940 C 0.55689 1.00077 0.84531 0.0
C1941 C 0.60978 0.02211 0.82123 0.0
C1942 C 0.50952 0.01066 0.89775 0.0
C1943 C 0.51376 0.00552 0.88083 0.0
C1944 C 0.53453 0.02572 0.84027 0.0
C1945 C 0.57615 0.01508 0.82124 0.0
C1946 C 0.55957 0.01285 0.83127 0.0
C1947 C 0.52338 0.02006 0.8704 0.0
C1948 C 0.53298 0.01492 0.85522 0.0
H1949 H 0.58937 0.01829 0.77934 0.0
H1950 H 0.56132 0.01245 0.79551 0.0
H1951 H 0.54957 0.03413 0.81758 0.0
H1952 H 0.52747 0.06035 0.89813 0.0
H1953 H 0.53459 0.05143 0.86881 0.0
C1954 C 0.29659 0.35495 0.09284 0.0
C1955 C 0.28939 0.34155 0.078 0.0
C1956 C 0.29521 0.349 0.11007 0.0
C1957 C 0.28568 0.30442 0.13612 0.0
H1958 H 0.28216 0.34193 0.17389 0.0
C1959 C 0.27585 0.28396 0.20923 0.0
C1960 C 0.28625 0.29788 0.22271 0.0
C1961 C 0.27517 0.28864 0.19151 0.0
C1962 C 0.28331 0.33126 0.16358 0.0
H1963 H 0.27493 0.31113 0.06995 0.0
H1964 H 0.27205 0.30073 0.10003 0.0
H1965 H 0.28256 0.3509 0.1436 0.0
H1966 H 0.30394 0.32781 0.22781 0.0
H1967 H 0.30259 0.33596 0.19725 0.0
H1968 H 0.28617 0.28471 0.1563 0.0
C1969 C 0.27913 0.31592 0.09835 0.0
C1970 C 0.2836 0.33645 0.14605 0.0
C1971 C 0.28064 0.3219 0.081 0.0
C1972 C 0.29569 0.31668 0.21792 0.0
C1973 C 0.29485 0.32141 0.20029 0.0
C1974 C 0.28523 0.29917 0.1537 0.0
C1975 C 0.2864 0.32938 0.11324 0.0
C1976 C 0.28506 0.32325 0.13196 0.0
C1977 C 0.28469 0.30746 0.18672 0.0
C1978 C 0.28426 0.3126 0.16777 0.0
H1979 H 0.3036 0.37018 0.09119 0.0
H1980 H 0.30144 0.35986 0.12092 0.0
H1981 H 0.28703 0.2938 0.12587 0.0
H1982 H 0.26849 0.26929 0.21231 0.0
H1983 H 0.26705 0.27752 0.18156 0.0
C1984 C 0.24191 0.95734 0.99918 0.0
C1985 C 0.24204 0.93848 1.00337 0.0
C1986 C 0.22845 0.9655 0.00526 0.0
C1987 C 0.19726 0.96208 0.04098 0.0
H1988 H 0.18115 1.00029 0.01499 0.0
C1989 C 0.14476 0.00533 0.06066 0.0
C1990 C 0.15229 0.02579 0.06053 0.0
C1991 C 0.15488 0.99278 0.05494 0.0
C1992 C 0.18557 0.98962 0.02232 0.0
H1993 H 0.22749 0.91291 0.01636 0.0
H1994 H 0.20349 0.92707 0.02659 0.0
H1995 H 0.19812 0.98012 1.00036 0.0
H1996 H 0.17688 0.0491 0.05566 0.0
H1997 H 0.19419 0.027 0.04494 0.0
H1998 H 0.18422 0.97157 0.06285 0.0
C1999 C 0.21415 0.93567 0.01894 0.0
C2000 C 0.19529 0.97812 0.01402 0.0
C2001 C 0.22779 0.92751 0.01296 0.0
C2002 C 0.17055 0.03343 0.05557 0.0
C2003 C 0.18048 0.02086 0.04953 0.0
C2004 C 0.18718 0.97335 0.04918 0.0
C2005 C 0.21463 0.95491 0.01547 0.0
C2006 C 0.20175 0.96467 0.02342 0.0
C2007 C 0.17247 1.00052 0.04877 0.0
C2008 C 0.1818 0.98753 0.04001 0.0
H2009 H 0.25267 0.96625 0.99183 0.0
H2010 H 0.22947 0.98049 1.00259 0.0
H2011 H 0.20221 0.95199 0.04863 0.0
H2012 H 0.13063 0.99891 0.06412 0.0
H2013 H 0.14854 0.97707 0.05434 0.0
C2014 C 0.73299 0.66745 0.00721 0.0
C2015 C 0.74879 0.66446 0.01598 0.0
C2016 C 0.71535 0.65418 0.00834 0.0
C2017 C 0.68251 0.61645 0.00474 0.0
H2018 H 0.6681 0.59914 0.05053 0.0
C2019 C 0.61423 0.55528 0.01382 0.0
C2020 C 0.60362 0.56018 0.02705 0.0
C2021 C 0.63252 0.56696 0.01238 0.0
C2022 C 0.67192 0.60381 0.03764 0.0
H2023 H 0.75871 0.64647 0.03385 0.0
H2024 H 0.72806 0.6234 0.03593 0.0
H2025 H 0.69841 0.62269 0.04825 0.0
H2026 H 0.604 0.58068 0.04947 0.0
H2027 H 0.63574 0.60075 0.04707 0.0
H2028 H 0.65579 0.59772 0.99422 0.0
C2029 C 0.72915 0.63568 0.02796 0.0
C2030 C 0.68932 0.61722 0.03632 0.0
C2031 C 0.74669 0.64877 0.02666 0.0
C2032 C 0.61181 0.57652 0.03912 0.0
C2033 C 0.63005 0.58799 0.03781 0.0
C2034 C 0.6651 0.60289 0.00605 0.0
C2035 C 0.7133 0.63809 0.01866 0.0
C2036 C 0.69476 0.62381 0.01989 0.0
C2037 C 0.64054 0.58352 0.0243 0.0
C2038 C 0.65956 0.5966 0.02256 0.0
H2039 H 0.73435 0.6797 0.99915 0.0
H2040 H 0.70333 0.65655 1.00124 0.0
H2041 H 0.68644 0.62109 0.99188 0.0
H2042 H 0.6082 0.54286 0.00426 0.0
H2043 H 0.64035 0.56311 1.0019 0.0
C2044 C 0.68304 0.46492 0.29072 0.0
C2045 C 0.68973 0.47443 0.30756 0.0
C2046 C 0.69287 0.45352 0.28219 0.0
C2047 C 0.74078 0.45321 0.28073 0.0
H2048 H 0.72219 0.40053 0.25791 0.0
C2049 C 0.78858 0.40621 0.26528 0.0
C2050 C 0.78426 0.39288 0.25023 0.0
C2051 C 0.77666 0.41729 0.26958 0.0
C2052 C 0.72749 0.41541 0.26389 0.0
H2053 H 0.71072 0.47788 0.32937 0.0
H2054 H 0.72771 0.45805 0.31451 0.0
H2055 H 0.70048 0.41601 0.27143 0.0
H2056 H 0.76468 0.38147 0.22731 0.0
H2057 H 0.74375 0.40099 0.23487 0.0
H2058 H 0.76771 0.45278 0.2734 0.0
C2059 C 0.71515 0.4597 0.3078 0.0
C2060 C 0.7151 0.42415 0.27169 0.0
C2061 C 0.70537 0.47095 0.31631 0.0
C2062 C 0.76823 0.39152 0.23909 0.0
C2063 C 0.75626 0.40261 0.24342 0.0
C2064 C 0.75308 0.44459 0.27283 0.0
C2065 C 0.70944 0.45163 0.29042 0.0
C2066 C 0.72181 0.44287 0.28061 0.0
C2067 C 0.76019 0.41529 0.25891 0.0
C2068 C 0.74667 0.42541 0.26478 0.0
H2069 H 0.67106 0.4674 0.28363 0.0
H2070 H 0.68823 0.4473 0.26878 0.0
H2071 H 0.74615 0.46787 0.28721 0.0
H2072 H 0.8006 0.4073 0.27434 0.0
H2073 H 0.77991 0.42668 0.28178 0.0
C2074 C 0.83789 0.44249 0.50674 0.0
C2075 C 0.83041 0.427 0.49377 0.0
C2076 C 0.85686 0.4523 0.50803 0.0
C2077 C 0.90196 0.44649 0.49632 0.0
H2078 H 0.91862 0.50254 0.50922 0.0
C2079 C 0.97664 0.48598 0.52391 0.0
C2080 C 0.98525 0.50459 0.51839 0.0
C2081 C 0.95782 0.47682 0.51922 0.0
C2082 C 0.9142 0.48695 0.50536 0.0
H2083 H 0.83649 0.40869 0.4726 0.0
H2084 H 0.86986 0.42625 0.4744 0.0
H2085 H 0.88547 0.48603 0.50365 0.0
H2086 H 0.981 0.52826 0.50366 0.0
H2087 H 0.94799 0.51211 0.49532 0.0
H2088 H 0.93078 0.44747 0.49807 0.0
C2089 C 0.86113 0.43085 0.48361 0.0
C2090 C 0.89519 0.47743 0.50233 0.0
C2091 C 0.84212 0.42087 0.48248 0.0
C2092 C 0.97468 0.51395 0.50817 0.0
C2093 C 0.95581 0.50473 0.50342 0.0
C2094 C 0.92098 0.45602 0.49931 0.0
C2095 C 0.86867 0.44672 0.49638 0.0
C2096 C 0.88886 0.45706 0.49806 0.0
C2097 C 0.94726 0.48604 0.50885 0.0
C2098 C 0.92725 0.47627 0.50416 0.0
H2099 H 0.82906 0.44695 0.51593 0.0
H2100 H 0.86229 0.46407 0.51832 0.0
H2101 H 0.89754 0.43075 0.49325 0.0
H2102 H 0.98441 0.47843 0.53188 0.0
H2103 H 0.9515 0.4626 0.52391 0.0
C2104 C 0.41852 0.09918 0.29795 0.0
C2105 C 0.41434 0.09093 0.31405 0.0
C2106 C 0.40786 0.11048 0.29086 0.0
C2107 C 0.36021 0.11238 0.29141 0.0
H2108 H 0.37657 0.16046 0.26812 0.0
C2109 C 0.31137 0.15773 0.27345 0.0
C2110 C 0.31351 0.16727 0.25779 0.0
C2111 C 0.32383 0.14763 0.27878 0.0
C2112 C 0.37184 0.14684 0.27432 0.0
H2113 H 0.39725 0.08973 0.33628 0.0
H2114 H 0.37889 0.10962 0.32399 0.0
H2115 H 0.39979 0.14646 0.28166 0.0
H2116 H 0.32974 0.17298 0.23499 0.0
H2117 H 0.35159 0.15513 0.24435 0.0
H2118 H 0.33235 0.11257 0.28411 0.0
C2119 C 0.39004 0.10696 0.31667 0.0
C2120 C 0.38509 0.13896 0.28214 0.0
C2121 C 0.40061 0.0957 0.32373 0.0
C2122 C 0.3279 0.16587 0.2472 0.0
C2123 C 0.34041 0.15575 0.25257 0.0
C2124 C 0.34701 0.12015 0.28354 0.0
C2125 C 0.393 0.11362 0.29984 0.0
C2126 C 0.37933 0.1219 0.29104 0.0
C2127 C 0.33865 0.14686 0.26857 0.0
C2128 C 0.35269 0.13762 0.2752 0.0
H2129 H 0.429 0.09567 0.29019 0.0
H2130 H 0.41038 0.11554 0.27785 0.0
H2131 H 0.35544 0.09889 0.29779 0.0
H2132 H 0.30068 0.15891 0.28208 0.0
H2133 H 0.32232 0.14118 0.29133 0.0
C2134 C 0.34947 0.1569 0.50037 0.0
C2135 C 0.34416 0.16753 0.51428 0.0
C2136 C 0.36395 0.14852 0.50308 0.0
C2137 C 0.4041 0.14703 0.53279 0.0
H2138 H 0.39055 0.09304 0.51284 0.0
C2139 C 0.44861 0.09398 0.54717 0.0
C2140 C 0.44939 0.08026 0.53335 0.0
C2141 C 0.43683 0.10597 0.54527 0.0
C2142 C 0.39475 0.10817 0.51829 0.0
H2143 H 0.3506 0.17868 0.54175 0.0
H2144 H 0.37622 0.16388 0.54656 0.0
H2145 H 0.36886 0.11225 0.50879 0.0
H2146 H 0.4391 0.06905 0.50642 0.0
H2147 H 0.41887 0.09007 0.50297 0.0
H2148 H 0.43013 0.14286 0.5422 0.0
C2149 C 0.3691 0.16217 0.53351 0.0
C2150 C 0.38225 0.1192 0.516 0.0
C2151 C 0.35451 0.17071 0.53075 0.0
C2152 C 0.43854 0.07919 0.51744 0.0
C2153 C 0.4269 0.09124 0.5155 0.0
C2154 C 0.41673 0.13597 0.53501 0.0
C2155 C 0.37347 0.15039 0.51983 0.0
C2156 C 0.38683 0.13881 0.52302 0.0
C2157 C 0.42564 0.10457 0.52947 0.0
C2158 C 0.41226 0.11644 0.52761 0.0
H2159 H 0.34187 0.15435 0.48747 0.0
H2160 H 0.36729 0.13996 0.49215 0.0
H2161 H 0.40801 0.16211 0.53834 0.0
H2162 H 0.45669 0.09504 0.55966 0.0
H2163 H 0.4361 0.11591 0.55637 0.0
C2164 C 0.67588 0.58354 0.3296 0.0
C2165 C 0.68087 0.56873 0.31987 0.0
C2166 C 0.68583 0.60322 0.32854 0.0
C2167 C 0.70244 0.64348 0.31445 0.0
H2168 H 0.7558 0.65539 0.31045 0.0
C2169 C 0.74625 0.71221 0.28422 0.0
C2170 C 0.76467 0.72084 0.29141 0.0
C2171 C 0.73534 0.69504 0.2905 0.0
C2172 C 0.74098 0.65245 0.31185 0.0
H2173 H 0.69884 0.56249 0.30043 0.0
H2174 H 0.71602 0.59657 0.29842 0.0
H2175 H 0.73821 0.62271 0.31648 0.0
H2176 H 0.7858 0.71885 0.31142 0.0
H2177 H 0.76673 0.68905 0.32242 0.0
H2178 H 0.70532 0.67338 0.30939 0.0
C2179 C 0.70506 0.59322 0.30739 0.0
C2180 C 0.73086 0.63363 0.31518 0.0
C2181 C 0.69522 0.57373 0.30851 0.0
C2182 C 0.77176 0.71238 0.30539 0.0
C2183 C 0.76083 0.69531 0.31171 0.0
C2184 C 0.71261 0.66241 0.31105 0.0
C2185 C 0.70064 0.60818 0.31753 0.0
C2186 C 0.71145 0.62881 0.31616 0.0
C2187 C 0.74264 0.68627 0.30413 0.0
C2188 C 0.73194 0.66695 0.30943 0.0
H2189 H 0.66457 0.57987 0.33819 0.0
H2190 H 0.68212 0.61449 0.33646 0.0
H2191 H 0.68747 0.64014 0.31502 0.0
H2192 H 0.74036 0.71847 0.27351 0.0
H2193 H 0.72143 0.68827 0.28426 0.0
C2194 C 0.91397 0.49238 0.79353 0.0
C2195 C 0.92955 0.49823 0.80584 0.0
C2196 C 0.90478 0.47259 0.78954 0.0
C2197 C 0.89355 0.42958 0.77707 0.0
H2198 H 0.8783 0.39858 0.8166 0.0
C2199 C 0.85056 0.3479 0.76888 0.0
C2200 C 0.83493 0.34304 0.77886 0.0
C2201 C 0.8637 0.36628 0.77183 0.0
C2202 C 0.88253 0.40708 0.80546 0.0
H2203 H 0.94862 0.48844 0.82287 0.0
H2204 H 0.93213 0.45335 0.81617 0.0
H2205 H 0.89976 0.43169 0.822 0.0
H2206 H 0.82075 0.35356 0.79972 0.0
H2207 H 0.84382 0.38569 0.8049 0.0
H2208 H 0.87613 0.40511 0.76054 0.0
C2209 C 0.92701 0.46415 0.80973 0.0
C2210 C 0.89491 0.4259 0.80853 0.0
C2211 C 0.93641 0.48407 0.81355 0.0
C2212 C 0.8326 0.35694 0.79175 0.0
C2213 C 0.84588 0.37523 0.79485 0.0
C2214 C 0.88141 0.41068 0.77398 0.0
C2215 C 0.91103 0.45829 0.79777 0.0
C2216 C 0.90016 0.43748 0.79439 0.0
C2217 C 0.86156 0.38001 0.78496 0.0
C2218 C 0.87549 0.39943 0.78818 0.0
H2219 H 0.90872 0.50317 0.78719 0.0
H2220 H 0.89238 0.46851 0.78044 0.0
H2221 H 0.89751 0.43819 0.76593 0.0
H2222 H 0.8527 0.33747 0.75885 0.0
H2223 H 0.8757 0.36965 0.76405 0.0
C2224 C 0.08244 0.8568 0.11486 0.0
C2225 C 0.07294 0.83945 0.10441 0.0
C2226 C 0.08108 0.87512 0.11002 0.0
C2227 C 0.04973 0.89627 0.08341 0.0
H2228 H 0.09197 0.94285 0.08504 0.0
C2229 C 0.04412 0.9637 0.0485 0.0
C2230 C 0.0533 0.98256 0.05648 0.0
C2231 C 0.0472 0.94705 0.05534 0.0
C2232 C 0.07996 0.93005 0.08473 0.0
H2233 H 0.05513 0.8281 0.08026 0.0
H2234 H 0.05289 0.85957 0.07203 0.0
H2235 H 0.09638 0.91254 0.09547 0.0
H2236 H 0.07323 0.99859 0.07787 0.0
H2237 H 0.0784 0.96944 0.08999 0.0
H2238 H 0.03325 0.91351 0.07278 0.0
C2239 C 0.06111 0.85913 0.0841 0.0
C2240 C 0.08252 0.91267 0.0907 0.0
C2241 C 0.06251 0.84099 0.08883 0.0
C2242 C 0.06583 0.9843 0.07142 0.0
C2243 C 0.0689 0.96757 0.07831 0.0
C2244 C 0.04717 0.91357 0.07754 0.0
C2245 C 0.0701 0.87642 0.09472 0.0
C2246 C 0.06747 0.89546 0.08979 0.0
C2247 C 0.05951 0.94868 0.07042 0.0
C2248 C 0.06228 0.93064 0.0778 0.0
H2249 H 0.09061 0.85622 0.12692 0.0
H2250 H 0.08818 0.88817 0.11851 0.0
H2251 H 0.03773 0.88344 0.0829 0.0
H2252 H 0.03449 0.96172 0.0369 0.0
H2253 H 0.04001 0.93284 0.04862 0.0
C2254 C 0.9572 0.24228 0.87884 0.0
C2255 C 0.96122 0.25219 0.89571 0.0
C2256 C 0.94067 0.24144 0.86887 0.0
C2257 C 0.90382 0.26796 0.86774 0.0
H2258 H 0.88585 0.23333 0.82527 0.0
C2259 C 0.8535 0.286 0.81629 0.0
C2260 C 0.84082 0.27089 0.80545 0.0
C2261 C 0.86736 0.28211 0.82727 0.0
C2262 C 0.89037 0.24299 0.83721 0.0
H2263 H 0.95006 0.26616 0.91666 0.0
H2264 H 0.92083 0.26402 0.89983 0.0
H2265 H 0.90918 0.22718 0.84552 0.0
H2266 H 0.83249 0.23981 0.79758 0.0
H2267 H 0.85592 0.23259 0.8176 0.0
H2268 H 0.88408 0.28287 0.8602 0.0
C2269 C 0.93085 0.25811 0.89351 0.0
C2270 C 0.90419 0.23967 0.8488 0.0
C2271 C 0.94753 0.25916 0.90334 0.0
C2272 C 0.84224 0.25173 0.80574 0.0
C2273 C 0.8558 0.24768 0.81719 0.0
C2274 C 0.88965 0.27089 0.85648 0.0
C2275 C 0.92754 0.25014 0.87575 0.0
C2276 C 0.91143 0.25232 0.86414 0.0
C2277 C 0.86854 0.26283 0.82825 0.0
C2278 C 0.88294 0.25875 0.8408 0.0
H2279 H 0.96726 0.23595 0.87302 0.0
H2280 H 0.93894 0.23503 0.85541 0.0
H2281 H 0.90906 0.27847 0.87904 0.0
H2282 H 0.85284 0.30098 0.81614 0.0
H2283 H 0.87719 0.2944 0.8349 0.0
C2284 C 0.56794 0.23009 0.62247 0.0
C2285 C 0.57798 0.24633 0.6141 0.0
C2286 C 0.56661 0.21105 0.61562 0.0
C2287 C 0.59003 0.18223 0.58857 0.0
H2288 H 0.54133 0.14383 0.58266 0.0
C2289 C 0.57864 0.10405 0.5545 0.0
C2290 C 0.5647 0.08854 0.56036 0.0
C2291 C 0.58081 0.12348 0.56094 0.0
C2292 C 0.55511 0.15421 0.58448 0.0
H2293 H 0.59588 0.25566 0.59306 0.0
H2294 H 0.59377 0.22228 0.58111 0.0
H2295 H 0.5442 0.17716 0.59435 0.0
H2296 H 0.54258 0.08127 0.57814 0.0
H2297 H 0.54681 0.11477 0.58984 0.0
H2298 H 0.60109 0.15923 0.57923 0.0
C2299 C 0.58652 0.22424 0.59269 0.0
C2300 C 0.55671 0.17339 0.59109 0.0
C2301 C 0.58758 0.24329 0.59939 0.0
C2302 C 0.55336 0.09286 0.57318 0.0
C2303 C 0.55568 0.11219 0.57979 0.0
C2304 C 0.58848 0.16294 0.58219 0.0
C2305 C 0.57582 0.2079 0.6006 0.0
C2306 C 0.57418 0.18761 0.59326 0.0
C2307 C 0.56923 0.12786 0.57358 0.0
C2308 C 0.571 0.14859 0.58012 0.0
H2309 H 0.56081 0.23215 0.6341 0.0
H2310 H 0.55853 0.19876 0.62218 0.0
H2311 H 0.60371 0.19284 0.59024 0.0
H2312 H 0.58751 0.10127 0.54451 0.0
H2313 H 0.59124 0.13508 0.55563 0.0
C2314 C 0.57179 0.79814 0.38306 0.0
C2315 C 0.56287 0.78218 0.39239 0.0
C2316 C 0.58813 0.7985 0.37511 0.0
C2317 C 0.62635 0.77513 0.37189 0.0
H2318 H 0.62694 0.79357 0.32497 0.0
C2319 C 0.68027 0.76725 0.32188 0.0
C2320 C 0.68736 0.78344 0.31204 0.0
C2321 C 0.66575 0.76688 0.33277 0.0
C2322 C 0.62712 0.78858 0.33812 0.0
H2323 H 0.56449 0.75448 0.40143 0.0
H2324 H 0.59314 0.75491 0.3872 0.0
H2325 H 0.60092 0.79352 0.34249 0.0
H2326 H 0.68521 0.81226 0.30658 0.0
H2327 H 0.65987 0.81148 0.32531 0.0
H2328 H 0.6526 0.76997 0.36723 0.0
C2329 C 0.58756 0.76729 0.38626 0.0
C2330 C 0.6122 0.78858 0.34821 0.0
C2331 C 0.57121 0.76704 0.39445 0.0
C2332 C 0.67981 0.79935 0.3136 0.0
C2333 C 0.6653 0.79893 0.3244 0.0
C2334 C 0.64133 0.77506 0.3617 0.0
C2335 C 0.59585 0.78275 0.37601 0.0
C2336 C 0.61171 0.78211 0.36532 0.0
C2337 C 0.65798 0.78264 0.33399 0.0
C2338 C 0.64195 0.78201 0.34478 0.0
H2339 H 0.56575 0.81011 0.38139 0.0
H2340 H 0.59444 0.81093 0.36779 0.0
H2341 H 0.62643 0.77011 0.38503 0.0
H2342 H 0.68564 0.75467 0.32089 0.0
H2343 H 0.66029 0.75404 0.33986 0.0
C2344 C 0.03946 0.20097 0.40951 0.0
C2345 C 0.04641 0.22036 0.41755 0.0
C2346 C 0.03896 0.18412 0.41904 0.0
C2347 C 0.04515 0.16811 0.4666 0.0
H2348 H 0.04281 0.11833 0.44197 0.0
C2349 C 0.038 0.09686 0.50631 0.0
C2350 C 0.04356 0.08069 0.49933 0.0
C2351 C 0.03807 0.11332 0.49644 0.0
C2352 C 0.04363 0.13201 0.44939 0.0
H2353 H 0.05843 0.23623 0.44262 0.0
H2354 H 0.05793 0.20773 0.45877 0.0
H2355 H 0.04386 0.14664 0.42539 0.0
H2356 H 0.05376 0.07025 0.47568 0.0
H2357 H 0.05409 0.09834 0.45887 0.0
H2358 H 0.04539 0.15368 0.4906 0.0
C2359 C 0.05242 0.20512 0.44511 0.0
C2360 C 0.044 0.1486 0.43961 0.0
C2361 C 0.05287 0.22186 0.43562 0.0
C2362 C 0.04918 0.08199 0.48185 0.0
C2363 C 0.04928 0.09843 0.47198 0.0
C2364 C 0.04481 0.15155 0.47637 0.0
C2365 C 0.04538 0.1856 0.43723 0.0
C2366 C 0.04481 0.1673 0.44785 0.0
C2367 C 0.04377 0.11474 0.47892 0.0
C2368 C 0.04405 0.13287 0.46815 0.0
H2369 H 0.03422 0.19872 0.39575 0.0
H2370 H 0.03318 0.16982 0.41202 0.0
H2371 H 0.04548 0.18164 0.47403 0.0
H2372 H 0.03356 0.0969 0.51959 0.0
H2373 H 0.03338 0.12489 0.50271 0.0
C2374 C 0.60449 0.29646 0.20162 0.0
C2375 C 0.59969 0.29309 0.18315 0.0
C2376 C 0.62208 0.29569 0.20946 0.0
C2377 C 0.67162 0.29358 0.19857 0.0
H2378 H 0.6759 0.28198 0.24735 0.0
C2379 C 0.74566 0.29591 0.23446 0.0
C2380 C 0.74689 0.28485 0.24911 0.0
C2381 C 0.7282 0.29698 0.22658 0.0
C2382 C 0.67527 0.28512 0.23364 0.0
H2383 H 0.61088 0.28608 0.15883 0.0
H2384 H 0.64098 0.28476 0.17213 0.0
H2385 H 0.64608 0.28337 0.23391 0.0
H2386 H 0.72937 0.26618 0.26654 0.0
H2387 H 0.69949 0.26784 0.25305 0.0
H2388 H 0.70074 0.295 0.19822 0.0
C2389 C 0.63127 0.28829 0.18082 0.0
C2390 C 0.65779 0.28619 0.2258 0.0
C2391 C 0.61364 0.289 0.17301 0.0
C2392 C 0.72954 0.27494 0.2554 0.0
C2393 C 0.71207 0.27605 0.24756 0.0
C2394 C 0.68912 0.29258 0.20643 0.0
C2395 C 0.63611 0.29151 0.19935 0.0
C2396 C 0.6553 0.29043 0.20797 0.0
C2397 C 0.71075 0.2871 0.23285 0.0
C2398 C 0.69159 0.28828 0.22425 0.0
H2399 H 0.59448 0.29957 0.21021 0.0
H2400 H 0.62466 0.2986 0.22363 0.0
H2401 H 0.67108 0.29711 0.18497 0.0
H2402 H 0.75833 0.3039 0.22895 0.0
H2403 H 0.72854 0.30596 0.21559 0.0
C2404 C 0.55513 0.85609 0.90219 0.0
C2405 C 0.55345 0.83791 0.9095 0.0
C2406 C 0.55459 0.87322 0.9125 0.0
C2407 C 0.54233 0.89158 0.95779 0.0
H2408 H 0.56552 0.94264 0.94179 0.0
C2409 C 0.54532 0.96493 1.0014 0.0
C2410 C 0.54628 0.98259 0.99344 0.0
C2411 C 0.5463 0.94763 0.99156 0.0
C2412 C 0.55865 0.92864 0.94657 0.0
H2413 H 0.54977 0.82453 0.93431 0.0
H2414 H 0.54922 0.85414 0.95224 0.0
H2415 H 0.56728 0.91324 0.92499 0.0
H2416 H 0.54898 0.99491 0.9681 0.0
H2417 H 0.55053 0.96524 0.95112 0.0
H2418 H 0.53379 0.90708 0.97945 0.0
C2419 C 0.55077 0.8552 0.93826 0.0
C2420 C 0.55967 0.91137 0.9367 0.0
C2421 C 0.55129 0.83795 0.92788 0.0
C2422 C 0.54826 0.98195 0.97504 0.0
C2423 C 0.54928 0.96465 0.96518 0.0
C2424 C 0.54134 0.90888 0.96768 0.0
C2425 C 0.55233 0.8734 0.93087 0.0
C2426 C 0.55149 0.89224 0.94193 0.0
C2427 C 0.54832 0.9469 0.97311 0.0
C2428 C 0.54943 0.92799 0.96237 0.0
H2429 H 0.55658 0.85713 0.88819 0.0
H2430 H 0.55552 0.8863 0.90572 0.0
H2431 H 0.53548 0.87758 0.96256 0.0
H2432 H 0.54382 0.96439 0.01544 0.0
H2433 H 0.54574 0.93483 0.99866 0.0
C2434 C 0.97802 0.78774 0.68086 0.0
C2435 C 0.99444 0.78924 0.69185 0.0
C2436 C 0.96044 0.78713 0.68795 0.0
C2437 C 0.93249 0.77504 0.72855 0.0
H2438 H 0.90249 0.80741 0.71177 0.0
C2439 C 0.85507 0.76823 0.75126 0.0
C2440 C 0.85006 0.78562 0.75567 0.0
C2441 C 0.87222 0.76846 0.74364 0.0
C2442 C 0.91051 0.79814 0.71675 0.0
H2443 H 1.00386 0.79117 0.71955 0.0
H2444 H 0.9738 0.78883 0.73145 0.0
H2445 H 0.93157 0.80753 0.69816 0.0
H2446 H 0.86028 0.81708 0.75451 0.0
H2447 H 0.88926 0.81738 0.74068 0.0
H2448 H 0.91117 0.76516 0.74674 0.0
C2449 C 0.9744 0.78841 0.71726 0.0
C2450 C 0.92742 0.79813 0.70874 0.0
C2451 C 0.99198 0.7897 0.71026 0.0
C2452 C 0.8632 0.80322 0.75166 0.0
C2453 C 0.88004 0.80339 0.74349 0.0
C2454 C 0.91529 0.77455 0.73616 0.0
C2455 C 0.95806 0.78736 0.70642 0.0
C2456 C 0.93909 0.78673 0.71449 0.0
C2457 C 0.88521 0.78602 0.73931 0.0
C2458 C 0.90379 0.78624 0.73066 0.0
H2459 H 0.97884 0.78769 0.6667 0.0
H2460 H 0.94858 0.78634 0.67882 0.0
H2461 H 0.9406 0.76592 0.73367 0.0
H2462 H 0.84575 0.75423 0.75389 0.0
H2463 H 0.87511 0.7546 0.74079 0.0
C2464 C 0.1557 0.01075 0.88703 0.0
C2465 C 0.14583 0.00635 0.87029 0.0
C2466 C 0.14614 0.00851 0.9023 0.0
C2467 C 0.1006 0.00874 0.91675 0.0
H2468 H 0.11843 0.99209 0.9603 0.0
C2469 C 0.06013 0.00601 0.97809 0.0
C2470 C 0.07069 0.0147 0.99387 0.0
C2471 C 0.06893 1.00184 0.96337 0.0
C2472 C 0.11336 0.99683 0.94823 0.0
H2473 H 0.1183 0.99497 0.85645 0.0
H2474 H 0.10169 0.99079 0.8831 0.0
H2475 H 0.13456 0.99 0.93354 0.0
H2476 H 0.09866 0.02511 0.00688 0.0
H2477 H 0.1141 0.01814 0.98095 0.0
H2478 H 0.07971 0.01597 0.93138 0.0
C2479 C 0.11677 0.9964 0.88439 0.0
C2480 C 0.12256 0.99563 0.93295 0.0
C2481 C 0.1263 0.99875 0.86914 0.0
C2482 C 0.09017 0.01845 0.99487 0.0
C2483 C 0.099 0.01435 0.98007 0.0
C2484 C 0.09144 0.00992 0.93197 0.0
C2485 C 0.12656 1.00173 0.9011 0.0
C2486 C 0.1163 1.00169 0.9171 0.0
C2487 C 0.08846 0.00639 0.96409 0.0
C2488 C 0.09778 1.00409 0.94787 0.0
H2489 H 0.17076 0.01663 0.88838 0.0
H2490 H 0.15404 0.0129 0.91499 0.0
H2491 H 0.09572 0.01395 0.90485 0.0
H2492 H 0.04505 1.0027 0.97697 0.0
H2493 H 0.06044 0.99535 0.9513 0.0
C2494 C 0.78454 0.38665 0.5571 0.0
C2495 C 0.77552 0.37632 0.54124 0.0
C2496 C 0.78586 0.37677 0.57211 0.0
C2497 C 0.78602 0.32823 0.58508 0.0
H2498 H 0.78491 0.35212 0.63204 0.0
C2499 C 0.79683 0.29201 0.64949 0.0
C2500 C 0.80867 0.30454 0.66302 0.0
C2501 C 0.79125 0.2996 0.63432 0.0
C2502 C 0.78534 0.34533 0.619 0.0
H2503 H 0.76012 0.34767 0.52879 0.0
H2504 H 0.7622 0.33036 0.55521 0.0
H2505 H 0.77643 0.36741 0.60635 0.0
H2506 H 0.82465 0.33466 0.67089 0.0
H2507 H 0.81478 0.34787 0.64453 0.0
H2508 H 0.79512 0.30624 0.59784 0.0
C2509 C 0.76849 0.34608 0.55592 0.0
C2510 C 0.78047 0.35406 0.6043 0.0
C2511 C 0.76719 0.356 0.54085 0.0
C2512 C 0.81522 0.32469 0.66086 0.0
C2513 C 0.80956 0.33226 0.64579 0.0
C2514 C 0.7908 0.31944 0.59982 0.0
C2515 C 0.77812 0.35635 0.57162 0.0
C2516 C 0.78113 0.34583 0.58718 0.0
C2517 C 0.79733 0.31983 0.63249 0.0
C2518 C 0.79088 0.32816 0.61689 0.0
H2519 H 0.79113 0.40232 0.55781 0.0
H2520 H 0.7936 0.38508 0.58392 0.0
H2521 H 0.78689 0.32167 0.57205 0.0
H2522 H 0.79139 0.27644 0.65086 0.0
H2523 H 0.78174 0.28973 0.62427 0.0
C2524 C 0.48173 0.06289 0.36781 0.0
C2525 C 0.46319 0.0636 0.36774 0.0
C2526 C 0.49338 0.06763 0.38338 0.0
C2527 C 0.48945 0.06871 0.43125 0.0
H2528 H 0.54344 0.08878 0.43328 0.0
C2529 C 0.53172 0.0713 0.49551 0.0
C2530 C 0.54493 0.06082 0.4942 0.0
C2531 C 0.52459 0.07769 0.4805 0.0
C2532 C 0.52837 0.08327 0.43286 0.0
H2533 H 0.44266 0.07118 0.38349 0.0
H2534 H 0.46319 0.0802 0.41053 0.0
H2535 H 0.52484 0.08908 0.40582 0.0
H2536 H 0.56238 0.05033 0.47657 0.0
H2537 H 0.54959 0.06127 0.45008 0.0
H2538 H 0.49289 0.06257 0.45807 0.0
C2539 C 0.46856 0.07529 0.39874 0.0
C2540 C 0.51772 0.08335 0.41718 0.0
C2541 C 0.45681 0.0702 0.38325 0.0
C2542 C 0.55216 0.05836 0.47789 0.0
C2543 C 0.54489 0.06467 0.46277 0.0
C2544 C 0.50003 0.06884 0.44689 0.0
C2545 C 0.48679 0.07347 0.39912 0.0
C2546 C 0.49815 0.07572 0.41613 0.0
C2547 C 0.53045 0.07359 0.46389 0.0
C2548 C 0.51958 0.07582 0.44778 0.0
H2549 H 0.48701 0.0578 0.35602 0.0
H2550 H 0.50723 0.06579 0.38321 0.0
H2551 H 0.47449 0.06225 0.43087 0.0
H2552 H 0.52619 0.07373 0.50803 0.0
H2553 H 0.51371 0.08487 0.48174 0.0
C2554 C 0.80631 0.7023 0.08429 0.0
C2555 C 0.80669 0.71549 0.07119 0.0
C2556 C 0.80617 0.70816 0.10223 0.0
C2557 C 0.79234 0.74341 0.13214 0.0
H2558 H 0.82322 0.72802 0.16782 0.0
C2559 C 0.79183 0.7674 0.20687 0.0
C2560 C 0.79591 0.75554 0.21974 0.0
C2561 C 0.79365 0.76319 0.18886 0.0
C2562 C 0.81416 0.7322 0.15819 0.0
H2563 H 0.8072 0.74535 0.06691 0.0
H2564 H 0.80657 0.75554 0.09831 0.0
H2565 H 0.82568 0.71976 0.13673 0.0
H2566 H 0.80487 0.72964 0.22344 0.0
H2567 H 0.80717 0.72173 0.19226 0.0
H2568 H 0.78022 0.75515 0.15341 0.0
C2569 C 0.80657 0.74063 0.09462 0.0
C2570 C 0.81573 0.72755 0.14021 0.0
C2571 C 0.8071 0.73485 0.07662 0.0
C2572 C 0.80164 0.73918 0.21399 0.0
C2573 C 0.80316 0.73476 0.19595 0.0
C2574 C 0.79051 0.74777 0.15013 0.0
C2575 C 0.80602 0.72732 0.1077 0.0
C2576 C 0.80485 0.73306 0.12689 0.0
C2577 C 0.79935 0.74677 0.18298 0.0
C2578 C 0.80136 0.74222 0.16357 0.0
H2579 H 0.8059 0.68725 0.08066 0.0
H2580 H 0.8056 0.69744 0.11182 0.0
H2581 H 0.78353 0.74768 0.1223 0.0
H2582 H 0.7876 0.78029 0.21074 0.0
H2583 H 0.79091 0.77317 0.17963 0.0
C2584 C 0.13425 0.016 0.75557 0.0
C2585 C 0.12528 0.00794 0.77019 0.0
C2586 C 0.124 0.01568 0.73964 0.0
C2587 C 0.07669 0.01322 0.72202 0.0
H2588 H 0.09863 0.01048 0.67735 0.0
C2589 C 0.04285 0.02385 0.65369 0.0
C2590 C 0.05494 0.0384 0.64486 0.0
C2591 C 0.04953 0.01693 0.66878 0.0
C2592 C 0.0923 0.01114 0.68974 0.0
H2593 H 0.09866 0.99253 0.77948 0.0
H2594 H 0.08071 0.99165 0.75144 0.0
H2595 H 0.11384 1.00282 0.70402 0.0
H2596 H 0.08341 0.05688 0.64455 0.0
H2597 H 0.09503 0.04475 0.67076 0.0
H2598 H 0.05524 0.02179 0.70756 0.0
C2599 C 0.09564 0.99852 0.75241 0.0
C2600 C 0.10102 0.00686 0.705 0.0
C2601 C 0.10592 0.99893 0.76842 0.0
C2602 C 0.07374 0.04588 0.65129 0.0
C2603 C 0.08043 0.03879 0.66613 0.0
C2604 C 0.06783 0.01729 0.70667 0.0
C2605 C 0.10455 0.00715 0.73793 0.0
C2606 C 0.09367 0.00851 0.72141 0.0
C2607 C 0.06844 0.0242 0.67493 0.0
C2608 C 0.07593 0.01689 0.69055 0.0
H2609 H 0.14914 0.0231 0.75654 0.0
H2610 H 0.13128 0.02279 0.72888 0.0
H2611 H 0.07074 0.01479 0.73447 0.0
H2612 H 0.02831 0.01784 0.64889 0.0
H2613 H 0.04008 0.00567 0.67543 0.0
C2614 C 0.76366 0.3723 0.43995 0.0
C2615 C 0.76675 0.39272 0.44197 0.0
C2616 C 0.76119 0.36255 0.42313 0.0
C2617 C 0.77553 0.37299 0.37903 0.0
H2618 H 0.7455 0.31935 0.36651 0.0
C2619 C 0.78193 0.33169 0.31364 0.0
C2620 C 0.78346 0.31267 0.31517 0.0
C2621 C 0.77626 0.34158 0.32764 0.0
C2622 C 0.75396 0.33434 0.36985 0.0
H2623 H 0.76811 0.41864 0.42794 0.0
H2624 H 0.76357 0.40155 0.39865 0.0
H2625 H 0.74106 0.33649 0.39397 0.0
H2626 H 0.77987 0.28894 0.33243 0.0
H2627 H 0.77037 0.30636 0.35692 0.0
H2628 H 0.78893 0.37068 0.35533 0.0
C2629 C 0.76347 0.39318 0.41007 0.0
C2630 C 0.7514 0.34413 0.38553 0.0
C2631 C 0.76601 0.40294 0.42686 0.0
C2632 C 0.77886 0.3036 0.33083 0.0
C2633 C 0.77323 0.3135 0.34481 0.0
C2634 C 0.7781 0.36321 0.3634 0.0
C2635 C 0.76169 0.37303 0.40804 0.0
C2636 C 0.76244 0.36341 0.39043 0.0
C2637 C 0.77204 0.33265 0.34342 0.0
C2638 C 0.76763 0.34366 0.35885 0.0
H2639 H 0.7641 0.36397 0.45131 0.0
H2640 H 0.75999 0.34703 0.42199 0.0
H2641 H 0.78449 0.38772 0.38258 0.0
H2642 H 0.78522 0.33901 0.30168 0.0
H2643 H 0.77528 0.35627 0.32615 0.0
C2644 C 0.452 0.04748 0.2516 0.0
C2645 C 0.4638 0.05567 0.26683 0.0
C2646 C 0.4594 0.04647 0.23531 0.0
C2647 C 0.50182 0.06462 0.21149 0.0
H2648 H 0.48239 0.01432 0.18429 0.0
C2649 C 0.52405 0.04884 0.14214 0.0
C2650 C 0.52638 0.03022 0.13814 0.0
C2651 C 0.5168 0.05302 0.15787 0.0
C2652 C 0.48807 0.02839 0.19181 0.0
H2653 H 0.49243 0.07008 0.27689 0.0
H2654 H 0.5054 0.06801 0.24848 0.0
H2655 H 0.46863 0.02049 0.21139 0.0
H2656 H 0.52333 1.0015 0.14762 0.0
H2657 H 0.51113 0.00897 0.17535 0.0
H2658 H 0.52169 0.07222 0.19214 0.0
C2659 C 0.49043 0.06258 0.24907 0.0
C2660 C 0.47999 0.03204 0.20718 0.0
C2661 C 0.483 0.06369 0.26535 0.0
C2662 C 0.5218 0.01602 0.1504 0.0
C2663 C 0.5146 0.02022 0.16616 0.0
C2664 C 0.50995 0.06093 0.19611 0.0
C2665 C 0.47874 0.05351 0.23398 0.0
C2666 C 0.48681 0.05017 0.21721 0.0
C2667 C 0.5118 0.03867 0.16994 0.0
C2668 C 0.50321 0.04273 0.18619 0.0
H2669 H 0.43711 0.04132 0.25233 0.0
H2670 H 0.45002 0.03976 0.22382 0.0
H2671 H 0.50727 0.07878 0.2189 0.0
H2672 H 0.52771 0.06016 0.13303 0.0
H2673 H 0.51468 0.06732 0.16037 0.0
C2674 C 0.8021 0.6967 0.94834 0.0
C2675 C 0.80237 0.70772 0.96449 0.0
C2676 C 0.80328 0.70523 0.93225 0.0
C2677 C 0.81706 0.75208 0.9108 0.0
H2678 H 0.78531 0.72027 0.87148 0.0
C2679 C 0.81107 0.7808 0.84068 0.0
C2680 C 0.80773 0.76729 0.82566 0.0
C2681 C 0.81117 0.77454 0.85787 0.0
C2682 C 0.79454 0.72933 0.88215 0.0
H2683 H 0.80473 0.73697 0.97593 0.0
H2684 H 0.80692 0.75209 0.94752 0.0
H2685 H 0.78389 0.70838 0.90069 0.0
H2686 H 0.80237 0.73647 0.81731 0.0
H2687 H 0.80301 0.72566 0.84702 0.0
H2688 H 0.8278 0.77301 0.8921 0.0
C2689 C 0.80573 0.73661 0.94756 0.0
C2690 C 0.79366 0.72249 0.89907 0.0
C2691 C 0.80447 0.72795 0.96389 0.0
C2692 C 0.80499 0.74738 0.82844 0.0
C2693 C 0.80515 0.74113 0.84561 0.0
C2694 C 0.818 0.75894 0.89377 0.0
C2695 C 0.80479 0.72523 0.93144 0.0
C2696 C 0.80505 0.73359 0.91368 0.0
C2697 C 0.80793 0.75454 0.86068 0.0
C2698 C 0.80689 0.74757 0.87908 0.0
H2699 H 0.80077 0.68116 0.94797 0.0
H2700 H 0.80302 0.696 0.92034 0.0
H2701 H 0.82615 0.76104 0.92161 0.0
H2702 H 0.81311 0.79625 0.83921 0.0
H2703 H 0.81319 0.7854 0.86895 0.0
C2704 C 0.84211 0.12094 0.04634 0.0
C2705 C 0.82624 0.11792 0.0346 0.0
C2706 C 0.85509 0.11074 0.04311 0.0
C2707 C 0.85911 0.06645 0.01792 0.0
H2708 H 0.91209 0.09082 0.02896 0.0
C2709 C 0.91303 0.0229 0.01788 0.0
C2710 C 0.93066 0.03234 0.0125 0.0
C2711 C 0.89979 0.03312 0.01943 0.0
C2712 C 0.89735 0.08388 0.02558 0.0
H2713 H 0.81185 0.1027 0.0099 0.0
H2714 H 0.83476 0.08551 0.004 0.0
H2715 H 0.89041 0.10993 0.03377 0.0
H2716 H 0.94817 0.05911 1.00344 0.0
H2717 H 0.92485 0.07678 0.00547 0.0
H2718 H 0.86611 0.04061 0.00911 0.0
C2719 C 0.83691 0.09516 0.01598 0.0
C2720 C 0.88493 0.09475 0.0286 0.0
C2721 C 0.82386 0.10512 0.01931 0.0
C2722 C 0.93463 0.05168 0.00777 0.0
C2723 C 0.92137 0.0618 0.00909 0.0
C2724 C 0.87155 0.05565 0.01469 0.0
C2725 C 0.85247 0.09759 0.02799 0.0
C2726 C 0.86569 0.08613 0.02481 0.0
C2727 C 0.90403 0.05281 0.0154 0.0
C2728 C 0.89079 0.06426 0.0185 0.0
H2729 H 0.84418 0.13066 0.05827 0.0
H2730 H 0.86689 0.11277 0.05268 0.0
H2731 H 0.84431 0.05931 0.01513 0.0
H2732 H 0.90986 0.008 0.02171 0.0
H2733 H 0.88659 0.02586 0.02446 0.0
C2734 C 0.36234 0.38508 0.02271 0.0
C2735 C 0.34821 0.39095 0.03071 0.0
C2736 C 0.3804 0.39798 0.02331 0.0
C2737 C 0.41302 0.43202 0.01588 0.0
H2738 H 0.43329 0.47081 0.05525 0.0
C2739 C 0.47988 0.49651 0.0116 0.0
C2740 C 0.49197 0.50259 0.027 0.0
C2741 C 0.46224 0.48301 0.01219 0.0
C2742 C 0.42802 0.45997 0.04417 0.0
H2743 H 0.34209 0.41359 0.04747 0.0
H2744 H 0.3732 0.43634 0.04814 0.0
H2745 H 0.40421 0.44576 0.05746 0.0
H2746 H 0.4951 0.49901 0.05504 0.0
H2747 H 0.46501 0.47526 0.05594 0.0
H2748 H 0.43738 0.44575 1.00295 0.0
C2749 C 0.37067 0.42199 0.04125 0.0
C2750 C 0.41107 0.44569 0.04534 0.0
C2751 C 0.3527 0.40908 0.04066 0.0
C2752 C 0.48607 0.4949 0.04294 0.0
C2753 C 0.46865 0.48127 0.04348 0.0
C2754 C 0.43014 0.44615 0.01481 0.0
C2755 C 0.38467 0.41688 0.03213 0.0
C2756 C 0.40325 0.43154 0.03119 0.0
C2757 C 0.45643 0.47511 0.02815 0.0
C2758 C 0.4379 0.46034 0.02896 0.0
H2759 H 0.35924 0.37087 0.01539 0.0
H2760 H 0.3909 0.39321 0.01661 0.0
H2761 H 0.40736 0.42165 0.00455 0.0
H2762 H 0.48404 0.50214 0.9991 0.0
H2763 H 0.45315 0.47886 1.00014 0.0
C2764 C 0.369 0.57006 0.7386 0.0
C2765 C 0.38734 0.57029 0.74368 0.0
C2766 C 0.36283 0.5862 0.74305 0.0
C2767 C 0.36785 0.62194 0.77849 0.0
H2768 H 0.33849 0.64448 0.747 0.0
C2769 C 0.32851 0.6761 0.80324 0.0
C2770 C 0.31122 0.6746 0.79414 0.0
C2771 C 0.33984 0.66508 0.79703 0.0
C2772 C 0.34651 0.63819 0.75598 0.0
H2773 H 0.41391 0.58749 0.75677 0.0
H2774 H 0.40279 0.61582 0.76517 0.0
H2775 H 0.35599 0.6234 0.73473 0.0
H2776 H 0.29187 0.65957 0.7719 0.0
H2777 H 0.31098 0.63944 0.76188 0.0
H2778 H 0.35747 0.63557 0.79981 0.0
C2779 C 0.39342 0.60323 0.75746 0.0
C2780 C 0.35668 0.62639 0.74893 0.0
C2781 C 0.39974 0.58718 0.75261 0.0
C2782 C 0.30499 0.66096 0.77938 0.0
C2783 C 0.31616 0.64973 0.77337 0.0
C2784 C 0.35744 0.63352 0.78558 0.0
C2785 C 0.37483 0.60262 0.75296 0.0
C2786 C 0.36707 0.61789 0.76015 0.0
C2787 C 0.33394 0.65214 0.78178 0.0
C2788 C 0.3463 0.64134 0.77439 0.0
H2789 H 0.35924 0.55712 0.73173 0.0
H2790 H 0.34837 0.5854 0.73964 0.0
H2791 H 0.37562 0.61524 0.78735 0.0
H2792 H 0.33357 0.68627 0.81481 0.0
H2793 H 0.35346 0.66724 0.80382 0.0
C2794 C 0.24182 0.62234 0.57042 0.0
C2795 C 0.2497 0.63878 0.56139 0.0
C2796 C 0.22252 0.61533 0.57066 0.0
C2797 C 0.18063 0.6169 0.54341 0.0
H2798 H 0.15598 0.58206 0.57733 0.0
C2799 C 0.10937 0.56009 0.52585 0.0
C2800 C 0.09679 0.55659 0.53905 0.0
C2801 C 0.12769 0.57181 0.52992 0.0
C2802 C 0.16257 0.59192 0.5678 0.0
H2803 H 0.24448 0.6627 0.54787 0.0
H2804 H 0.21062 0.65086 0.54858 0.0
H2805 H 0.18798 0.60193 0.58425 0.0
H2806 H 0.09337 0.56282 0.56678 0.0
H2807 H 0.125 0.58358 0.57369 0.0
H2808 H 0.15502 0.60722 0.52717 0.0
C2809 C 0.21909 0.64264 0.55468 0.0
C2810 C 0.18103 0.60316 0.57169 0.0
C2811 C 0.23842 0.64952 0.55433 0.0
C2812 C 0.1028 0.56504 0.55633 0.0
C2813 C 0.12098 0.57691 0.56033 0.0
C2814 C 0.16212 0.60581 0.53961 0.0
C2815 C 0.21086 0.62495 0.56213 0.0
C2816 C 0.19047 0.61539 0.55933 0.0
C2817 C 0.13364 0.58041 0.5472 0.0
C2818 C 0.15301 0.59291 0.5516 0.0
H2819 H 0.25053 0.6144 0.5766 0.0
H2820 H 0.21685 0.60166 0.57651 0.0
H2821 H 0.18738 0.62599 0.53345 0.0
H2822 H 0.10509 0.55374 0.51243 0.0
H2823 H 0.13722 0.57397 0.51956 0.0
C2824 C 0.66991 0.97881 0.80236 0.0
C2825 C 0.6648 0.98171 0.78493 0.0
C2826 C 0.67843 0.96432 0.80573 0.0
C2827 C 0.69145 0.92197 0.78551 0.0
H2828 H 0.73543 0.94253 0.81822 0.0
C2829 C 0.74294 0.87772 0.79991 0.0
C2830 C 0.76188 0.8881 0.79965 0.0
C2831 C 0.72945 0.88768 0.80016 0.0
C2832 C 0.72322 0.93661 0.80905 0.0
H2833 H 0.66334 0.97105 0.75743 0.0
H2834 H 0.67877 0.94596 0.76327 0.0
H2835 H 0.71352 0.96155 0.81428 0.0
H2836 H 0.78172 0.91691 0.7999 0.0
H2837 H 0.75812 0.9344 0.80026 0.0
H2838 H 0.70183 0.89752 0.77957 0.0
C2839 C 0.6759 0.95464 0.77436 0.0
C2840 C 0.71051 0.94735 0.80697 0.0
C2841 C 0.66711 0.96901 0.77099 0.0
C2842 C 0.76721 0.90863 0.80028 0.0
C2843 C 0.75371 0.9186 0.80049 0.0
C2844 C 0.70426 0.91126 0.78752 0.0
C2845 C 0.68225 0.95269 0.79172 0.0
C2846 C 0.69461 0.94025 0.79503 0.0
C2847 C 0.7347 0.90817 0.80018 0.0
C2848 C 0.72039 0.91866 0.79912 0.0
H2849 H 0.66802 0.98828 0.81335 0.0
H2850 H 0.68276 0.9628 0.81927 0.0
H2851 H 0.67926 0.91611 0.7763 0.0
H2852 H 0.73855 0.86186 0.79972 0.0
H2853 H 0.71492 0.87933 0.80022 0.0
C2854 C 0.74298 0.88409 0.53933 0.0
C2855 C 0.75181 0.88548 0.52348 0.0
C2856 C 0.72791 0.89185 0.54129 0.0
C2857 C 0.6927 0.90946 0.51622 0.0
H2858 H 0.69745 0.9457 0.55751 0.0
C2859 C 0.65435 0.96881 0.51805 0.0
C2860 C 0.64821 0.97439 0.53412 0.0
C2861 C 0.6651 0.9557 0.51744 0.0
C2862 C 0.69565 0.93538 0.54604 0.0
H2863 H 0.75131 0.89508 0.49703 0.0
H2864 H 0.72496 0.90816 0.5003 0.0
H2865 H 0.71874 0.92556 0.55534 0.0
H2866 H 0.6481 0.97012 0.56208 0.0
H2867 H 0.66665 0.94703 0.56101 0.0
H2868 H 0.66977 0.91932 0.50679 0.0
C2869 C 0.72956 0.90119 0.51123 0.0
C2870 C 0.70787 0.92381 0.54482 0.0
C2871 C 0.74469 0.89373 0.50937 0.0
C2872 C 0.65284 0.96632 0.54953 0.0
C2873 C 0.66351 0.9531 0.54891 0.0
C2874 C 0.6804 0.92089 0.51749 0.0
C2875 C 0.72128 0.90079 0.52734 0.0
C2876 C 0.70677 0.91103 0.52973 0.0
C2877 C 0.66989 0.94771 0.53287 0.0
C2878 C 0.68195 0.93431 0.53224 0.0
H2879 H 0.74838 0.87804 0.55047 0.0
H2880 H 0.72172 0.89127 0.55383 0.0
H2881 H 0.69137 0.89956 0.50452 0.0
H2882 H 0.65128 0.97499 0.50599 0.0
H2883 H 0.67007 0.95225 0.50491 0.0
C2884 C 0.38352 0.46636 0.71315 0.0
C2885 C 0.3986 0.47503 0.72556 0.0
C2886 C 0.37579 0.44603 0.71146 0.0
C2887 C 0.38195 0.39975 0.72908 0.0
H2888 H 0.3279 0.38357 0.72276 0.0
C2889 C 0.33859 0.32286 0.74362 0.0
C2890 C 0.32327 0.32226 0.75365 0.0
C2891 C 0.34773 0.33996 0.73617 0.0
C2892 C 0.343 0.38791 0.72463 0.0
H2893 H 0.41856 0.46983 0.74486 0.0
H2894 H 0.40435 0.43469 0.74321 0.0
H2895 H 0.3451 0.41581 0.71533 0.0
H2896 H 0.30532 0.33896 0.76348 0.0
H2897 H 0.32163 0.36908 0.75079 0.0
H2898 H 0.37966 0.37183 0.73886 0.0
C2899 C 0.39863 0.44304 0.73421 0.0
C2900 C 0.35297 0.40644 0.72026 0.0
C2901 C 0.40668 0.46326 0.73543 0.0
C2902 C 0.31709 0.33901 0.75584 0.0
C2903 C 0.32633 0.35618 0.74845 0.0
C2904 C 0.37198 0.38122 0.73345 0.0
C2905 C 0.38278 0.43412 0.72248 0.0
C2906 C 0.37255 0.41303 0.7233 0.0
C2907 C 0.34183 0.35685 0.73865 0.0
C2908 C 0.35238 0.3754 0.73187 0.0
H2909 H 0.37756 0.47533 0.70498 0.0
H2910 H 0.36405 0.43981 0.70185 0.0
H2911 H 0.39704 0.40383 0.73083 0.0
H2912 H 0.34358 0.31012 0.74149 0.0
H2913 H 0.35946 0.33995 0.72849 0.0
C2914 C 0.19598 0.57311 0.23825 0.0
C2915 C 0.17943 0.56572 0.24635 0.0
C2916 C 0.20429 0.59327 0.23886 0.0
C2917 C 0.21778 0.63692 0.23752 0.0
H2918 H 0.215 0.66565 0.28174 0.0
C2919 C 0.25565 0.71915 0.25087 0.0
C2920 C 0.26408 0.72581 0.26795 0.0
C2921 C 0.2438 0.70016 0.2474 0.0
C2922 C 0.21606 0.6578 0.26938 0.0
H2923 H 0.15716 0.57303 0.25946 0.0
H2924 H 0.17145 0.60847 0.26035 0.0
H2925 H 0.19652 0.63168 0.27612 0.0
H2926 H 0.2668 0.71787 0.29481 0.0
H2927 H 0.24658 0.68441 0.28864 0.0
H2928 H 0.23804 0.66279 0.23119 0.0
C2929 C 0.17855 0.59882 0.25421 0.0
C2930 C 0.20521 0.63836 0.26601 0.0
C2931 C 0.1703 0.57861 0.25364 0.0
C2932 C 0.26043 0.71313 0.28153 0.0
C2933 C 0.24874 0.69402 0.27801 0.0
C2934 C 0.22876 0.6563 0.24097 0.0
C2935 C 0.19597 0.60637 0.24734 0.0
C2936 C 0.20611 0.62759 0.25013 0.0
C2937 C 0.24031 0.68731 0.26089 0.0
C2938 C 0.22816 0.66692 0.25701 0.0
H2939 H 0.20282 0.56326 0.23198 0.0
H2940 H 0.21772 0.59843 0.23349 0.0
H2941 H 0.21861 0.62923 0.22502 0.0
H2942 H 0.25803 0.72867 0.24016 0.0
H2943 H 0.23727 0.69563 0.23416 0.0
C2944 C 0.5196 0.71835 0.45792 0.0
C2945 C 0.51848 0.71858 0.43945 0.0
C2946 C 0.52246 0.70222 0.46596 0.0
C2947 C 0.52201 0.64975 0.45627 0.0
H2948 H 0.54793 0.65861 0.50293 0.0
C2949 C 0.52844 0.58474 0.49555 0.0
C2950 C 0.54408 0.58732 0.50755 0.0
C2951 C 0.52531 0.60065 0.48729 0.0
C2952 C 0.54091 0.65576 0.48979 0.0
H2953 H 0.51965 0.70209 0.4149 0.0
H2954 H 0.52557 0.67433 0.42884 0.0
H2955 H 0.54342 0.68613 0.48819 0.0
H2956 H 0.56893 0.60862 0.52003 0.0
H2957 H 0.56411 0.63613 0.50505 0.0
H2958 H 0.52059 0.61954 0.45742 0.0
C2959 C 0.5236 0.68628 0.43723 0.0
C2960 C 0.53795 0.67165 0.48139 0.0
C2961 C 0.52033 0.70229 0.42917 0.0
C2962 C 0.55664 0.60616 0.51098 0.0
C2963 C 0.55375 0.62202 0.50243 0.0
C2964 C 0.52533 0.6339 0.46452 0.0
C2965 C 0.52473 0.68597 0.45579 0.0
C2966 C 0.52829 0.66893 0.46455 0.0
C2967 C 0.53797 0.61957 0.49049 0.0
C2968 C 0.53472 0.6366 0.48149 0.0
H2969 H 0.51804 0.73059 0.46622 0.0
H2970 H 0.52268 0.70251 0.4802 0.0
H2971 H 0.5143 0.64681 0.44345 0.0
H2972 H 0.5184 0.57044 0.49269 0.0
H2973 H 0.51277 0.59805 0.47858 0.0
C2974 C 0.6512 0.3122 0.64876 0.0
C2975 C 0.63587 0.3159 0.65663 0.0
C2976 C 0.66751 0.31287 0.65909 0.0
C2977 C 0.68225 0.3061 0.70453 0.0
H2978 H 0.73255 0.32756 0.69082 0.0
C2979 C 0.74554 0.30709 0.75129 0.0
C2980 C 0.76104 0.30326 0.74393 0.0
C2981 C 0.73118 0.31038 0.7405 0.0
C2982 C 0.71859 0.32128 0.69476 0.0
H2983 H 0.62604 0.32415 0.68139 0.0
H2984 H 0.65444 0.32542 0.69929 0.0
H2985 H 0.70605 0.3305 0.67204 0.0
H2986 H 0.77374 0.30017 0.71942 0.0
H2987 H 0.74844 0.30536 0.70053 0.0
H2988 H 0.69449 0.29634 0.7269 0.0
C2989 C 0.65378 0.32176 0.68519 0.0
C2990 C 0.70341 0.32304 0.68401 0.0
C2991 C 0.63755 0.32119 0.67489 0.0
C2992 C 0.76203 0.30318 0.72553 0.0
C2993 C 0.74753 0.30625 0.71469 0.0
C2994 C 0.69735 0.30418 0.71516 0.0
C2995 C 0.66877 0.31712 0.6775 0.0
C2996 C 0.68507 0.31555 0.68883 0.0
C2997 C 0.73178 0.30966 0.72202 0.0
C2998 C 0.71576 0.31182 0.71051 0.0
H2999 H 0.65033 0.308 0.63475 0.0
H3000 H 0.67879 0.30915 0.65277 0.0
H3001 H 0.66828 0.29978 0.70844 0.0
H3002 H 0.7444 0.30745 0.76542 0.0
H3003 H 0.71956 0.31343 0.74671 0.0
C3004 C 1.00962 0.31965 0.9508 0.0
C3005 C 0.01636 0.31949 0.93395 0.0
C3006 C 0.01074 0.33747 0.96039 0.0
C3007 C 0.01798 0.39064 0.95367 0.0
H3008 H 0.02519 0.39742 0.00478 0.0
C3009 C 0.04102 0.46648 0.99253 0.0
C3010 C 0.03136 0.46939 0.00729 0.0
C3011 C 0.03782 0.44782 0.98395 0.0
C3012 C 0.02298 0.39565 0.9905 0.0
H3013 H 0.03041 0.33793 0.91437 0.0
H3014 H 0.03318 0.3687 0.93124 0.0
H3015 H 0.02311 0.36561 0.98947 0.0
H3016 H 0.01074 0.45484 0.02462 0.0
H3017 H 1.00536 0.42197 0.00967 0.0
H3018 H 0.01857 0.42089 0.95472 0.0
C3019 C 0.02628 0.35522 0.93688 0.0
C3020 C 0.02174 0.3774 0.9817 0.0
C3021 C 0.02487 0.3375 0.92722 0.0
C3022 C 0.01831 0.45312 0.01322 0.0
C3023 C 0.01534 0.4343 0.00476 0.0
C3024 C 0.01951 0.40889 0.96244 0.0
C3025 C 0.01887 0.35554 0.95344 0.0
C3026 C 0.01944 0.37468 0.9631 0.0
C3027 C 0.02506 0.43149 0.99002 0.0
C3028 C 0.0222 0.41167 0.98093 0.0
H3029 H 1.00285 0.30602 0.9563 0.0
H3030 H 1.00474 0.33702 0.97301 0.0
H3031 H 0.01562 0.38911 0.93942 0.0
H3032 H 0.05115 0.47867 0.98758 0.0
H3033 H 0.04563 0.44611 0.97272 0.0
C3034 C 0.02885 0.78592 0.16407 0.0
C3035 C 0.02558 0.78002 0.14591 0.0
C3036 C 0.014 0.78372 0.17477 0.0
C3037 C 0.9631 0.77676 0.17321 0.0
H3038 H 0.96808 0.75894 0.21987 0.0
C3039 C 0.90107 0.75543 0.21686 0.0
C3040 C 0.90471 0.76124 0.23502 0.0
C3041 C 0.91571 0.75763 0.20587 0.0
C3042 C 0.96654 0.76414 0.20696 0.0
H3043 H 1.004 0.76722 0.12477 0.0
H3044 H 0.97812 0.76324 0.14349 0.0
H3045 H 0.99376 0.76309 0.20091 0.0
H3046 H 0.9266 0.77425 0.25579 0.0
H3047 H 0.95211 0.77807 0.23666 0.0
H3048 H 0.93586 0.77782 0.17928 0.0
C3049 C 0.99219 0.7698 0.14941 0.0
C3050 C 0.98127 0.76652 0.19608 0.0
C3051 C 1.00706 0.772 0.13869 0.0
C3052 C 0.92333 0.7693 0.24193 0.0
C3053 C 0.93796 0.7715 0.23095 0.0
C3054 C 0.94836 0.77439 0.1841 0.0
C3055 C 0.9955 0.77554 0.16759 0.0
C3056 C 0.97975 0.7729 0.17909 0.0
C3057 C 0.93433 0.76571 0.21278 0.0
C3058 C 0.94992 0.76809 0.20112 0.0
H3059 H 0.04292 0.79222 0.17011 0.0
H3060 H 0.01702 0.78859 0.18867 0.0
H3061 H 0.96157 0.78196 0.16029 0.0
H3062 H 0.88691 0.74892 0.21115 0.0
H3063 H 0.91245 0.75274 0.19199 0.0
C3064 C 0.55729 0.35578 0.13645 0.0
C3065 C 0.542 0.33882 0.13179 0.0
C3066 C 0.55915 0.37378 0.12811 0.0
C3067 C 0.53911 0.39409 0.08747 0.0
H3068 H 0.56587 0.44525 0.1099 0.0
C3069 C 0.54816 0.46496 0.04767 0.0
C3070 C 0.55098 0.48385 0.05633 0.0
C3071 C 0.54785 0.44816 0.05705 0.0
C3072 C 0.55814 0.43121 0.10325 0.0
H3073 H 0.51651 0.32907 0.11436 0.0
H3074 H 0.51952 0.35917 0.10073 0.0
H3075 H 0.56411 0.41584 0.12553 0.0
H3076 H 0.55563 0.49888 0.08254 0.0
H3077 H 0.55499 0.47006 0.09873 0.0
H3078 H 0.53276 0.40914 0.06541 0.0
C3079 C 0.53056 0.35888 0.11042 0.0
C3080 C 0.5573 0.41398 0.11234 0.0
C3081 C 0.52873 0.34118 0.11862 0.0
C3082 C 0.55353 0.48492 0.07503 0.0
C3083 C 0.55322 0.46807 0.08446 0.0
C3084 C 0.53997 0.4112 0.07843 0.0
C3085 C 0.54588 0.37579 0.11462 0.0
C3086 C 0.54761 0.39481 0.10479 0.0
C3087 C 0.55026 0.44905 0.0758 0.0
C3088 C 0.54948 0.43041 0.08594 0.0
H3089 H 0.56804 0.35513 0.14633 0.0
H3090 H 0.5713 0.38605 0.13207 0.0
H3091 H 0.53174 0.38009 0.08053 0.0
H3092 H 0.54611 0.463 0.0334 0.0
H3093 H 0.54587 0.43439 0.04933 0.0
C3094 C 0.98601 0.28059 0.37834 0.0
C3095 C 0.99898 0.27337 0.36919 0.0
C3096 C 0.96859 0.28124 0.37003 0.0
C3097 C 0.94252 0.28084 0.32519 0.0
H3098 H 0.89795 0.26961 0.3507 0.0
C3099 C 0.87125 0.29514 0.29691 0.0
C3100 C 0.85391 0.2814 0.2994 0.0
C3101 C 0.8886 0.29396 0.30502 0.0
C3102 C 0.91013 0.27283 0.34319 0.0
H3103 H 1.00179 0.25922 0.34396 0.0
H3104 H 0.97219 0.26107 0.32937 0.0
H3105 H 0.92758 0.26794 0.36509 0.0
H3106 H 0.84231 0.25555 0.31315 0.0
H3107 H 0.87195 0.25398 0.32761 0.0
H3108 H 0.92518 0.28624 0.30344 0.0
C3109 C 0.9757 0.26678 0.34304 0.0
C3110 C 0.92744 0.27198 0.35162 0.0
C3111 C 0.993 0.26585 0.35147 0.0
C3112 C 0.85499 0.26657 0.31067 0.0
C3113 C 0.87226 0.26569 0.31914 0.0
C3114 C 0.92533 0.28222 0.31692 0.0
C3115 C 0.96299 0.27465 0.35202 0.0
C3116 C 0.94417 0.27581 0.34286 0.0
C3117 C 0.88966 0.27927 0.31651 0.0
C3118 C 0.90853 0.27812 0.3256 0.0
H3119 H 0.98947 0.2861 0.39206 0.0
H3120 H 0.95959 0.28733 0.37778 0.0
H3121 H 0.95472 0.28407 0.3177 0.0
H3122 H 0.8715 0.30684 0.28843 0.0
H3123 H 0.90129 0.30491 0.30246 0.0
C3124 C 0.03292 0.72678 0.6194 0.0
C3125 C 0.03535 0.72979 0.63806 0.0
C3126 C 0.03294 0.70879 0.6102 0.0
C3127 C 0.02911 0.65469 0.61586 0.0
H3128 H 0.04876 0.65623 0.56992 0.0
C3129 C 0.03555 0.58171 0.57721 0.0
C3130 C 0.03702 0.58068 0.55874 0.0
C3131 C 0.03529 0.59937 0.58697 0.0
C3132 C 0.04284 0.65506 0.58256 0.0
H3133 H 0.03964 0.71511 0.6613 0.0
H3134 H 0.03941 0.68396 0.6455 0.0
H3135 H 0.04804 0.6864 0.58598 0.0
H3136 H 0.03914 0.59841 0.53644 0.0
H3137 H 0.03805 0.6283 0.55284 0.0
H3138 H 0.02365 0.62336 0.6124 0.0
C3139 C 0.03739 0.69557 0.63782 0.0
C3140 C 0.04248 0.67281 0.59199 0.0
C3141 C 0.03756 0.71368 0.64703 0.0
C3142 C 0.03807 0.5982 0.55056 0.0
C3143 C 0.03761 0.61575 0.56024 0.0
C3144 C 0.02928 0.63688 0.60633 0.0
C3145 C 0.03526 0.69264 0.61909 0.0
C3146 C 0.03561 0.6732 0.60893 0.0
C3147 C 0.03634 0.61703 0.57881 0.0
C3148 C 0.03615 0.63644 0.58933 0.0
H3149 H 0.03125 0.73855 0.61175 0.0
H3150 H 0.03095 0.70757 0.59593 0.0
H3151 H 0.02345 0.65381 0.62864 0.0
H3152 H 0.03485 0.56884 0.5843 0.0
H3153 H 0.03456 0.59907 0.6011 0.0
C3154 C 0.60734 0.79857 0.85032 0.0
C3155 C 0.59969 0.78652 0.86386 0.0
C3156 C 0.62435 0.79834 0.84286 0.0
C3157 C 0.66147 0.76969 0.83962 0.0
H3158 H 0.68819 0.81478 0.81633 0.0
C3159 C 0.72838 0.76809 0.79983 0.0
C3160 C 0.74205 0.78558 0.79642 0.0
C3161 C 0.71165 0.76813 0.8081 0.0
C3162 C 0.68127 0.80191 0.82278 0.0
H3163 H 0.60546 0.76433 0.87953 0.0
H3164 H 0.6349 0.76394 0.86682 0.0
H3165 H 0.66 0.81507 0.83041 0.0
H3166 H 0.74756 0.81711 0.79978 0.0
H3167 H 0.71908 0.81729 0.81388 0.0
H3168 H 0.68299 0.75668 0.83219 0.0
C3169 C 0.62755 0.77379 0.86181 0.0
C3170 C 0.66448 0.80197 0.8309 0.0
C3171 C 0.61041 0.7741 0.8694 0.0
C3172 C 0.73779 0.80314 0.80182 0.0
C3173 C 0.72101 0.8032 0.81003 0.0
C3174 C 0.67826 0.7696 0.8314 0.0
C3175 C 0.63518 0.78596 0.84823 0.0
C3176 C 0.65385 0.78585 0.83962 0.0
C3177 C 0.70727 0.78568 0.81355 0.0
C3178 C 0.68883 0.78571 0.82264 0.0
H3179 H 0.59999 0.80835 0.84514 0.0
H3180 H 0.62874 0.80784 0.83242 0.0
H3181 H 0.6543 0.75672 0.84582 0.0
H3182 H 0.73062 0.75407 0.79615 0.0
H3183 H 0.70198 0.75408 0.81 0.0
C3184 C 0.43473 0.54788 0.67484 0.0
C3185 C 0.44343 0.5528 0.69202 0.0
C3186 C 0.44497 0.553 0.66026 0.0
C3187 C 0.49267 0.56124 0.6484 0.0
H3188 H 0.47336 0.57453 0.60394 0.0
C3189 C 0.53458 0.56576 0.5878 0.0
C3190 C 0.52452 0.55615 0.57207 0.0
C3191 C 0.52521 0.56972 0.60221 0.0
C3192 C 0.4789 0.57077 0.61627 0.0
H3193 H 0.46928 0.56807 0.7075 0.0
H3194 H 0.48713 0.57716 0.682 0.0
H3195 H 0.45574 0.57424 0.63001 0.0
H3196 H 0.49685 0.54386 0.55878 0.0
H3197 H 0.48046 0.55026 0.58415 0.0
H3198 H 0.51539 0.55697 0.63468 0.0
C3199 C 0.47248 0.56908 0.67982 0.0
C3200 C 0.46885 0.57066 0.63117 0.0
C3201 C 0.46225 0.56394 0.6944 0.0
C3202 C 0.50496 0.55127 0.57076 0.0
C3203 C 0.49557 0.55506 0.58526 0.0
C3204 C 0.50265 0.56128 0.63354 0.0
C3205 C 0.46407 0.56315 0.66262 0.0
C3206 C 0.47554 0.56561 0.64731 0.0
C3207 C 0.50562 0.56396 0.60125 0.0
C3208 C 0.49575 0.56577 0.61726 0.0
H3209 H 0.42022 0.53933 0.67261 0.0
H3210 H 0.43815 0.54807 0.64716 0.0
H3211 H 0.498 0.55688 0.66055 0.0
H3212 H 0.54969 0.56997 0.58912 0.0
H3213 H 0.53334 0.57696 0.61424 0.0
C3214 C 0.79925 0.19565 0.00713 0.0
C3215 C 0.79071 0.17534 0.00411 0.0
C3216 C 0.79847 0.20806 0.99377 0.0
C3217 C 0.76962 0.20975 0.95367 0.0
H3218 H 0.81234 0.2509 0.94173 0.0
C3219 C 0.77121 0.24387 0.88779 0.0
C3220 C 0.77947 0.26411 0.88751 0.0
C3221 C 0.77222 0.23471 0.90327 0.0
C3222 C 0.80023 0.23967 0.94513 0.0
H3223 H 0.77543 0.15206 0.98441 0.0
H3224 H 0.77429 0.1736 0.96127 0.0
H3225 H 0.81562 0.23158 0.96655 0.0
H3226 H 0.79505 0.29076 0.90319 0.0
H3227 H 0.79666 0.27469 0.9305 0.0
H3228 H 0.75427 0.21752 0.9322 0.0
C3229 C 0.78124 0.17998 0.97403 0.0
C3230 C 0.80212 0.22862 0.95928 0.0
C3231 C 0.78203 0.16763 0.98729 0.0
C3232 C 0.78847 0.27514 0.90311 0.0
C3233 C 0.78954 0.26594 0.91865 0.0
C3234 C 0.76773 0.22076 0.9396 0.0
C3235 C 0.78909 0.20033 0.97724 0.0
C3236 C 0.78692 0.21327 0.96338 0.0
C3237 C 0.78149 0.24562 0.91883 0.0
C3238 C 0.7831 0.23553 0.93495 0.0
H3239 H 0.80604 0.20205 0.01994 0.0
H3240 H 0.80463 0.22372 0.99655 0.0
H3241 H 0.75756 0.19829 0.95683 0.0
H3242 H 0.76404 0.23506 0.87598 0.0
H3243 H 0.76609 0.21899 0.90296 0.0
C3244 C 0.14988 0.4943 0.18451 0.0
C3245 C 0.13988 0.48782 0.1991 0.0
C3246 C 0.1407 0.49154 0.16771 0.0
C3247 C 0.09813 0.46815 0.13956 0.0
H3248 H 0.10303 0.52102 0.12666 0.0
C3249 C 0.04735 0.4871 0.08801 0.0
C3250 C 0.05517 0.50249 0.07778 0.0
C3251 C 0.05841 0.4826 0.10162 0.0
C3252 C 0.10177 0.5061 0.12975 0.0
H3253 H 0.11304 0.47147 0.20738 0.0
H3254 H 0.097 0.46665 0.17785 0.0
H3255 H 0.12227 0.51596 0.15148 0.0
H3256 H 0.08014 0.5257 0.07384 0.0
H3257 H 0.09959 0.51706 0.09627 0.0
H3258 H 0.07766 0.45832 0.11759 0.0
C3259 C 0.11189 0.47386 0.1795 0.0
C3260 C 0.11278 0.50325 0.144 0.0
C3261 C 0.12104 0.47674 0.19636 0.0
C3262 C 0.07397 0.51329 0.08117 0.0
C3263 C 0.08503 0.5086 0.09433 0.0
C3264 C 0.08729 0.47098 0.12497 0.0
C3265 C 0.12149 0.4821 0.16528 0.0
C3266 C 0.11098 0.4843 0.14907 0.0
C3267 C 0.07734 0.49346 0.10495 0.0
C3268 C 0.08894 0.49002 0.12002 0.0
H3269 H 0.16445 0.50274 0.18619 0.0
H3270 H 0.14832 0.49794 0.15683 0.0
H3271 H 0.09649 0.45344 0.14344 0.0
H3272 H 0.03286 0.47858 0.08544 0.0
H3273 H 0.05207 0.47094 0.10973 0.0
C3274 C 0.78675 0.85281 0.45872 0.0
C3275 C 0.7925 0.84463 0.47366 0.0
C3276 C 0.78669 0.84438 0.44162 0.0
C3277 C 0.77964 0.82039 0.40653 0.0
H3278 H 0.81968 0.7989 0.39409 0.0
C3279 C 0.78064 0.78721 0.33544 0.0
C3280 C 0.79781 0.78949 0.32795 0.0
C3281 C 0.77991 0.79234 0.35341 0.0
C3282 C 0.80846 0.805 0.39724 0.0
H3283 H 0.80242 0.82065 0.48202 0.0
H3284 H 0.80196 0.8055 0.45193 0.0
H3285 H 0.81798 0.81014 0.42482 0.0
H3286 H 0.82779 0.79889 0.33394 0.0
H3287 H 0.82658 0.80839 0.36526 0.0
H3288 H 0.77048 0.81616 0.3791 0.0
C3289 C 0.79766 0.81873 0.45359 0.0
C3290 C 0.80732 0.81119 0.41501 0.0
C3291 C 0.79766 0.82723 0.4709 0.0
C3292 C 0.8143 0.79692 0.33916 0.0
C3293 C 0.81357 0.80226 0.35722 0.0
C3294 C 0.78082 0.81433 0.38886 0.0
C3295 C 0.79234 0.82733 0.43864 0.0
C3296 C 0.79297 0.81919 0.41994 0.0
C3297 C 0.79633 0.80019 0.36465 0.0
C3298 C 0.79525 0.80655 0.38381 0.0
H3299 H 0.78274 0.86624 0.46019 0.0
H3300 H 0.7828 0.85179 0.43067 0.0
H3301 H 0.76818 0.82614 0.40964 0.0
H3302 H 0.76758 0.78131 0.32742 0.0
H3303 H 0.76631 0.78996 0.35847 0.0
C3304 C 0.41725 0.51751 0.80164 0.0
C3305 C 0.42675 0.52585 0.78733 0.0
C3306 C 0.42707 0.51689 0.81761 0.0
C3307 C 0.4716 0.53835 0.84408 0.0
H3308 H 0.46013 0.48768 0.86353 0.0
C3309 C 0.51851 0.5218 0.9 0.0
C3310 C 0.50967 0.51023 0.91302 0.0
C3311 C 0.50822 0.52417 0.88487 0.0
C3312 C 0.46333 0.50201 0.85844 0.0
H3313 H 0.45396 0.54092 0.77889 0.0
H3314 H 0.47105 0.53987 0.80685 0.0
H3315 H 0.4421 0.49191 0.83722 0.0
H3316 H 0.48318 0.49232 0.92066 0.0
H3317 H 0.46512 0.4967 0.89439 0.0
H3318 H 0.49275 0.54853 0.86537 0.0
C3319 C 0.456 0.53381 0.80564 0.0
C3320 C 0.45301 0.50441 0.84337 0.0
C3321 C 0.4462 0.53431 0.78961 0.0
C3322 C 0.49037 0.50106 0.91066 0.0
C3323 C 0.48005 0.50357 0.89562 0.0
C3324 C 0.48185 0.536 0.85926 0.0
C3325 C 0.44656 0.52474 0.81965 0.0
C3326 C 0.4571 0.52257 0.83602 0.0
C3327 C 0.48886 0.51515 0.88255 0.0
C3328 C 0.47787 0.51777 0.86656 0.0
H3329 H 0.40226 0.51092 0.80039 0.0
H3330 H 0.41945 0.51004 0.82832 0.0
H3331 H 0.47491 0.55255 0.83873 0.0
H3332 H 0.53341 0.52888 0.90147 0.0
H3333 H 0.51548 0.53291 0.87491 0.0
C3334 C 0.81686 0.16576 0.11701 0.0
C3335 C 0.82379 0.17565 0.10233 0.0
C3336 C 0.82165 0.17497 0.13401 0.0
C3337 C 0.83496 0.22496 0.15508 0.0
H3338 H 0.83354 0.19799 0.19793 0.0
C3339 C 0.83264 0.26387 0.22272 0.0
C3340 C 0.81821 0.25375 0.2326 0.0
C3341 C 0.83779 0.25433 0.20818 0.0
C3342 C 0.83401 0.2057 0.18605 0.0
H3343 H 0.8426 0.20214 0.09402 0.0
H3344 H 0.85143 0.21805 0.12382 0.0
H3345 H 0.83618 0.18105 0.16973 0.0
H3346 H 0.79844 0.22549 0.23551 0.0
H3347 H 0.80736 0.20885 0.20997 0.0
H3348 H 0.83233 0.24941 0.17131 0.0
C3349 C 0.84183 0.2034 0.12214 0.0
C3350 C 0.83552 0.19603 0.16992 0.0
C3351 C 0.83688 0.19424 0.10508 0.0
C3352 C 0.80951 0.23371 0.22806 0.0
C3353 C 0.81474 0.22414 0.21355 0.0
C3354 C 0.83362 0.23465 0.17119 0.0
C3355 C 0.83362 0.19421 0.13672 0.0
C3356 C 0.83546 0.20536 0.15418 0.0
C3357 C 0.8287 0.23446 0.2033 0.0
C3358 C 0.83263 0.22494 0.18675 0.0
H3359 H 0.80678 0.15138 0.11532 0.0
H3360 H 0.81492 0.16747 0.14486 0.0
H3361 H 0.83451 0.23252 0.14323 0.0
H3362 H 0.83971 0.2793 0.22595 0.0
H3363 H 0.84871 0.26257 0.20059 0.0
C3364 C 0.15434 0.50815 0.31511 0.0
C3365 C 0.14672 0.51198 0.29893 0.0
C3366 C 0.14399 0.50633 0.32984 0.0
C3367 C 0.09642 0.50229 0.34417 0.0
H3368 H 0.12453 0.52863 0.38755 0.0
C3369 C 0.06585 0.53504 0.40227 0.0
C3370 C 0.07171 0.5316 0.41934 0.0
C3371 C 0.07353 0.52867 0.38761 0.0
C3372 C 0.11656 0.52097 0.37558 0.0
H3373 H 0.12227 0.51649 0.2852 0.0
H3374 H 0.10451 0.51428 0.31107 0.0
H3375 H 0.14099 0.5247 0.36169 0.0
H3376 H 0.08933 0.51781 0.43438 0.0
H3377 H 0.10321 0.50736 0.40874 0.0
H3378 H 0.07188 0.49975 0.35807 0.0
C3379 C 0.1182 0.51201 0.31236 0.0
C3380 C 0.12596 0.5186 0.36078 0.0
C3381 C 0.12842 0.51344 0.29755 0.0
C3382 C 0.08491 0.52113 0.42142 0.0
C3383 C 0.09272 0.51499 0.4068 0.0
C3384 C 0.08699 0.50495 0.35895 0.0
C3385 C 0.12599 0.50876 0.32873 0.0
C3386 C 0.116 0.50946 0.34483 0.0
C3387 C 0.08726 0.51895 0.38984 0.0
C3388 C 0.09702 0.51449 0.37467 0.0
H3389 H 0.16836 0.50669 0.31642 0.0
H3390 H 0.15023 0.50335 0.34216 0.0
H3391 H 0.08836 0.49487 0.33217 0.0
H3392 H 0.05581 0.54319 0.40026 0.0
H3393 H 0.06932 0.53207 0.37461 0.0
C3394 C 0.79617 0.85604 0.59389 0.0
C3395 C 0.78936 0.84242 0.57913 0.0
C3396 C 0.7944 0.85032 0.61117 0.0
C3397 C 0.78501 0.80627 0.6377 0.0
H3398 H 0.77902 0.84357 0.6745 0.0
C3399 C 0.77431 0.78625 0.7107 0.0
C3400 C 0.78388 0.80061 0.72419 0.0
C3401 C 0.77368 0.79073 0.69292 0.0
C3402 C 0.78087 0.83297 0.66447 0.0
H3403 H 0.77521 0.81188 0.57125 0.0
H3404 H 0.77176 0.80187 0.60142 0.0
H3405 H 0.78016 0.85219 0.64411 0.0
H3406 H 0.80005 0.83113 0.72929 0.0
H3407 H 0.79885 0.83888 0.69864 0.0
H3408 H 0.78559 0.78703 0.65822 0.0
C3409 C 0.77878 0.81705 0.59963 0.0
C3410 C 0.78157 0.83796 0.6469 0.0
C3411 C 0.78063 0.82281 0.58224 0.0
C3412 C 0.79245 0.81965 0.71938 0.0
C3413 C 0.7917 0.82414 0.70169 0.0
C3414 C 0.7842 0.80124 0.65532 0.0
C3415 C 0.78563 0.83073 0.61443 0.0
C3416 C 0.7839 0.82482 0.63317 0.0
C3417 C 0.78247 0.80974 0.68809 0.0
C3418 C 0.78234 0.8146 0.66906 0.0
H3419 H 0.80312 0.87126 0.59213 0.0
H3420 H 0.80027 0.86133 0.622 0.0
H3421 H 0.78703 0.79575 0.6277 0.0
H3422 H 0.76765 0.7714 0.71379 0.0
H3423 H 0.76626 0.77925 0.68294 0.0
C3424 C 0.73311 0.44721 0.49266 0.0
C3425 C 0.73902 0.43354 0.50217 0.0
C3426 C 0.71989 0.4555 0.49904 0.0
C3427 C 0.70435 0.46898 0.54084 0.0
H3428 H 0.67084 0.48695 0.50977 0.0
C3429 C 0.65942 0.52092 0.56046 0.0
C3430 C 0.66183 0.53675 0.54981 0.0
C3431 C 0.66768 0.50608 0.55657 0.0
C3432 C 0.68007 0.4819 0.51859 0.0
H3433 H 0.73502 0.41686 0.52524 0.0
H3434 H 0.71156 0.43142 0.53646 0.0
H3435 H 0.68461 0.46198 0.49844 0.0
H3436 H 0.67596 0.55035 0.52775 0.0
H3437 H 0.69004 0.52418 0.52075 0.0
H3438 H 0.69987 0.48929 0.56091 0.0
C3439 C 0.71735 0.43576 0.52412 0.0
C3440 C 0.68791 0.46765 0.51215 0.0
C3441 C 0.73062 0.42735 0.51765 0.0
C3442 C 0.67363 0.53816 0.53598 0.0
C3443 C 0.68164 0.52323 0.53196 0.0
C3444 C 0.69626 0.48309 0.54736 0.0
C3445 C 0.71227 0.45028 0.51508 0.0
C3446 C 0.70072 0.46167 0.523 0.0
C3447 C 0.67821 0.50685 0.54189 0.0
C3448 C 0.68468 0.49013 0.53604 0.0
H3449 H 0.73931 0.45215 0.48063 0.0
H3450 H 0.71647 0.46685 0.49189 0.0
H3451 H 0.71432 0.46475 0.54946 0.0
H3452 H 0.65021 0.51932 0.57108 0.0
H3453 H 0.66498 0.49351 0.56437 0.0
C3454 C 0.23326 0.16739 0.5087 0.0
C3455 C 0.24912 0.16327 0.51613 0.0
C3456 C 0.21552 0.15447 0.51004 0.0
C3457 C 0.19038 0.11246 0.53494 0.0
H3458 H 0.15248 0.10507 0.49618 0.0
C3459 C 0.11813 0.05276 0.52929 0.0
C3460 C 0.10331 0.06117 0.52857 0.0
C3461 C 0.13634 0.06422 0.5272 0.0
C3462 C 0.16302 0.10696 0.50703 0.0
H3463 H 0.25907 0.1437 0.53213 0.0
H3464 H 0.22847 0.12074 0.53383 0.0
H3465 H 0.18353 0.12738 0.49395 0.0
H3466 H 0.09569 0.08786 0.52447 0.0
H3467 H 0.12729 0.10756 0.52029 0.0
H3468 H 0.16981 0.0915 0.54769 0.0
C3469 C 0.22938 0.13379 0.52699 0.0
C3470 C 0.18074 0.11991 0.50589 0.0
C3471 C 0.247 0.14678 0.52578 0.0
C3472 C 0.10688 0.08102 0.52527 0.0
C3473 C 0.12491 0.09228 0.52275 0.0
C3474 C 0.17279 0.09919 0.53588 0.0
C3475 C 0.21337 0.13731 0.51898 0.0
C3476 C 0.1946 0.12308 0.51995 0.0
C3477 C 0.1398 0.08405 0.52384 0.0
C3478 C 0.15892 0.09653 0.52204 0.0
H3479 H 0.23462 0.18037 0.50161 0.0
H3480 H 0.20352 0.15802 0.50413 0.0
H3481 H 0.20048 0.11469 0.54619 0.0
H3482 H 0.11569 0.03749 0.53181 0.0
H3483 H 0.14769 0.05763 0.5281 0.0
C3484 C 0.18973 0.96018 0.8198 0.0
C3485 C 0.17632 0.96719 0.81088 0.0
C3486 C 0.195 0.94455 0.8122 0.0
C3487 C 0.20029 0.90741 0.79571 0.0
H3488 H 0.2156 0.91631 0.74835 0.0
C3489 C 0.24748 0.86637 0.76626 0.0
C3490 C 0.26324 0.87862 0.75947 0.0
C3491 C 0.232 0.87294 0.76893 0.0
C3492 C 0.21127 0.91356 0.76152 0.0
H3493 H 0.15705 0.96263 0.7875 0.0
H3494 H 0.1664 0.93516 0.77416 0.0
H3495 H 0.1964 0.93508 0.76146 0.0
H3496 H 0.27507 0.90663 0.74912 0.0
H3497 H 0.24818 0.91861 0.7544 0.0
H3498 H 0.21628 0.88708 0.79642 0.0
C3499 C 0.17282 0.94189 0.78701 0.0
C3500 C 0.20011 0.9241 0.76894 0.0
C3501 C 0.16742 0.95749 0.7947 0.0
C3502 C 0.26298 0.89705 0.75438 0.0
C3503 C 0.24755 0.90377 0.7573 0.0
C3504 C 0.21149 0.89696 0.78835 0.0
C3505 C 0.18701 0.93567 0.7955 0.0
C3506 C 0.19512 0.92161 0.78634 0.0
C3507 C 0.23217 0.89199 0.76513 0.0
C3508 C 0.21761 0.90041 0.77141 0.0
H3509 H 0.19675 0.96731 0.83232 0.0
H3510 H 0.20615 0.9402 0.81896 0.0
H3511 H 0.19647 0.90512 0.8091 0.0
H3512 H 0.24741 0.85197 0.77005 0.0
H3513 H 0.22021 0.86341 0.77466 0.0
C3514 C 0.33778 0.94189 0.01896 0.0
C3515 C 0.3319 0.92625 0.00588 0.0
C3516 C 0.35671 0.95108 0.023 0.0
C3517 C 0.40353 0.94495 0.01883 0.0
H3518 H 0.41905 1.00187 0.02247 0.0
C3519 C 0.47906 0.99567 0.0382 0.0
C3520 C 0.48594 0.00714 0.02438 0.0
C3521 C 0.46019 0.98519 0.03753 0.0
C3522 C 0.41483 0.98598 0.02159 0.0
H3523 H 0.34071 0.90691 0.98755 0.0
H3524 H 0.37412 0.92331 0.99427 0.0
H3525 H 0.38596 0.98418 0.01887 0.0
H3526 H 0.47871 0.01712 0.99931 0.0
H3527 H 0.44558 0.99932 0.99851 0.0
H3528 H 0.4327 0.94702 0.0219 0.0
C3529 C 0.36412 0.92849 1.00142 0.0
C3530 C 0.39594 0.97584 0.01948 0.0
C3531 C 0.34511 0.91922 0.99745 0.0
C3532 C 0.47371 0.00832 0.01009 0.0
C3533 C 0.45484 0.99822 0.00963 0.0
C3534 C 0.42249 0.95514 0.02133 0.0
C3535 C 0.37007 0.94465 0.01411 0.0
C3536 C 0.3901 0.95523 0.01766 0.0
C3537 C 0.44803 0.98649 0.02325 0.0
C3538 C 0.42818 0.97569 0.02239 0.0
H3539 H 0.32771 0.94703 0.02605 0.0
H3540 H 0.36088 0.96323 0.03308 0.0
H3541 H 0.3994 0.92907 0.01778 0.0
H3542 H 0.4883 0.99448 0.04929 0.0
H3543 H 0.45506 0.97622 0.04817 0.0
C3544 C 0.89776 0.59105 0.82197 0.0
C3545 C 0.91335 0.58972 0.81313 0.0
C3546 C 0.88689 0.60254 0.81592 0.0
C3547 C 0.88443 0.64072 0.78637 0.0
H3548 H 0.83156 0.6128 0.78234 0.0
C3549 C 0.83031 0.67043 0.75007 0.0
C3550 C 0.81479 0.67058 0.75953 0.0
C3551 C 0.84233 0.65982 0.75551 0.0
C3552 C 0.84627 0.62079 0.78347 0.0
H3553 H 0.93065 0.60056 0.79189 0.0
H3554 H 0.9115 0.62061 0.78128 0.0
H3555 H 0.85378 0.59765 0.79557 0.0
H3556 H 0.79933 0.65929 0.78174 0.0
H3557 H 0.82016 0.64058 0.79108 0.0
H3558 H 0.87683 0.66391 0.77429 0.0
C3559 C 0.90777 0.61279 0.7929 0.0
C3560 C 0.85896 0.6122 0.79112 0.0
C3561 C 0.91873 0.60133 0.799 0.0
C3562 C 0.81099 0.65918 0.77399 0.0
C3563 C 0.82295 0.64853 0.77939 0.0
C3564 C 0.8717 0.64934 0.7787 0.0
C3565 C 0.89137 0.61284 0.80091 0.0
C3566 C 0.87812 0.62218 0.79281 0.0
C3567 C 0.83894 0.64913 0.77044 0.0
C3568 C 0.85251 0.63948 0.77734 0.0
H3569 H 0.8934 0.58245 0.83302 0.0
H3570 H 0.87454 0.60275 0.82258 0.0
H3571 H 0.89914 0.6487 0.78757 0.0
H3572 H 0.83341 0.67894 0.73874 0.0
H3573 H 0.85443 0.66024 0.74825 0.0
C3574 C 0.85352 0.67091 0.03162 0.0
C3575 C 0.84388 0.66898 0.0149 0.0
C3576 C 0.86779 0.66191 0.03427 0.0
C3577 C 0.88047 0.61937 0.01519 0.0
H3578 H 0.92751 0.64022 0.04345 0.0
C3579 C 0.93485 0.57689 0.01649 0.0
C3580 C 0.94501 0.57684 0.03257 0.0
C3581 C 0.92376 0.58954 0.01474 0.0
C3582 C 0.91433 0.6341 0.03568 0.0
H3583 H 0.84256 0.65762 0.98761 0.0
H3584 H 0.86748 0.64245 0.99211 0.0
H3585 H 0.90636 0.6606 0.03992 0.0
H3586 H 0.95163 0.59021 0.05942 0.0
H3587 H 0.93199 0.61209 0.05648 0.0
H3588 H 0.88797 0.59284 0.01114 0.0
C3589 C 0.86383 0.65039 1.00328 0.0
C3590 C 0.90226 0.64581 0.03364 0.0
C3591 C 0.84966 0.65923 1.00068 0.0
C3592 C 0.94409 0.59001 0.0468 0.0
C3593 C 0.93285 0.60259 0.04509 0.0
C3594 C 0.89239 0.60769 0.0173 0.0
C3595 C 0.87254 0.65092 0.02021 0.0
C3596 C 0.88532 0.63864 0.02315 0.0
C3597 C 0.92238 0.60236 0.02909 0.0
C3598 C 0.9096 0.61493 0.02738 0.0
H3599 H 0.84919 0.67816 0.04284 0.0
H3600 H 0.87429 0.66258 0.04747 0.0
H3601 H 0.8673 0.61321 0.00739 0.0
H3602 H 0.93554 0.56719 0.00518 0.0
H3603 H 0.91629 0.58926 1.00207 0.0
C3604 C 0.17923 0.08291 0.83349 0.0
C3605 C 0.18233 0.06741 0.8231 0.0
C3606 C 0.19059 0.10205 0.83256 0.0
C3607 C 0.20823 0.14141 0.81811 0.0
H3608 H 0.26059 0.15053 0.81017 0.0
C3609 C 0.24984 0.20815 0.78486 0.0
C3610 C 0.26861 0.21699 0.79087 0.0
C3611 C 0.23973 0.19092 0.79156 0.0
C3612 C 0.24608 0.14834 0.81266 0.0
H3613 H 0.1985 0.05949 0.80273 0.0
H3614 H 0.21818 0.09276 0.8009 0.0
H3615 H 0.24244 0.11842 0.81763 0.0
H3616 H 0.29145 0.2149 0.80882 0.0
H3617 H 0.27371 0.1848 0.82058 0.0
H3618 H 0.21188 0.17135 0.81294 0.0
C3619 C 0.20762 0.09025 0.81032 0.0
C3620 C 0.23564 0.12989 0.81678 0.0
C3621 C 0.19635 0.07123 0.81132 0.0
C3622 C 0.27704 0.20834 0.80381 0.0
C3623 C 0.2669 0.19111 0.81054 0.0
C3624 C 0.2187 0.1599 0.81401 0.0
C3625 C 0.20493 0.10586 0.82096 0.0
C3626 C 0.2165 0.12609 0.8191 0.0
C3627 C 0.24816 0.18221 0.80445 0.0
C3628 C 0.23761 0.16339 0.81082 0.0
H3629 H 0.16819 0.08017 0.84242 0.0
H3630 H 0.18819 0.11382 0.84089 0.0
H3631 H 0.1935 0.13891 0.81972 0.0
H3632 H 0.24291 0.21446 0.77492 0.0
H3633 H 0.22541 0.18421 0.78637 0.0
C3634 C 0.40595 0.99069 0.30268 0.0
C3635 C 0.42164 0.996 0.31487 0.0
C3636 C 0.39539 0.97119 0.29962 0.0
C3637 C 0.38363 0.92799 0.28784 0.0
H3638 H 0.36566 0.89732 0.32693 0.0
C3639 C 0.34547 0.84573 0.27833 0.0
C3640 C 0.32884 0.8394 0.28672 0.0
C3641 C 0.35727 0.86467 0.28221 0.0
C3642 C 0.37057 0.90579 0.31593 0.0
H3643 H 0.43935 0.98547 0.33282 0.0
H3644 H 0.42049 0.95091 0.32769 0.0
H3645 H 0.38632 0.93089 0.33289 0.0
H3646 H 0.31154 0.84784 0.30582 0.0
H3647 H 0.33235 0.88112 0.31266 0.0
H3648 H 0.36791 0.90309 0.27086 0.0
C3649 C 0.41631 0.96194 0.3207 0.0
C3650 C 0.38248 0.92483 0.31933 0.0
C3651 C 0.42707 0.98155 0.32358 0.0
C3652 C 0.32423 0.85238 0.29909 0.0
C3653 C 0.33617 0.87131 0.30312 0.0
C3654 C 0.37194 0.90895 0.28445 0.0
C3655 C 0.40041 0.95667 0.30866 0.0
C3656 C 0.38893 0.93611 0.30529 0.0
C3657 C 0.35276 0.8776 0.29466 0.0
C3658 C 0.36522 0.89772 0.29845 0.0
H3659 H 0.4018 1.00167 0.29556 0.0
H3660 H 0.38312 0.96751 0.29039 0.0
H3661 H 0.3885 0.93642 0.2768 0.0
H3662 H 0.34939 0.83607 0.26871 0.0
H3663 H 0.37004 0.86914 0.2756 0.0
C3664 C 0.59039 0.36319 0.60931 0.0
C3665 C 0.57589 0.34609 0.60377 0.0
C3666 C 0.58995 0.38144 0.60353 0.0
C3667 C 0.56598 0.40252 0.56846 0.0
H3668 H 0.58444 0.45097 0.59847 0.0
C3669 C 0.54686 0.4725 0.55233 0.0
C3670 C 0.5613 0.49025 0.55373 0.0
C3671 C 0.54987 0.45559 0.55871 0.0
C3672 C 0.57937 0.43756 0.58989 0.0
H3673 H 0.54915 0.33506 0.58842 0.0
H3674 H 0.54809 0.3664 0.57901 0.0
H3675 H 0.58751 0.42031 0.60925 0.0
H3676 H 0.59018 0.50413 0.56329 0.0
H3677 H 0.59533 0.47454 0.57468 0.0
H3678 H 0.55738 0.41962 0.54933 0.0
C3679 C 0.56023 0.36589 0.5872 0.0
C3680 C 0.58118 0.41997 0.59604 0.0
C3681 C 0.56078 0.34779 0.59275 0.0
C3682 C 0.57876 0.4907 0.56196 0.0
C3683 C 0.5817 0.47379 0.56856 0.0
C3684 C 0.56398 0.41998 0.56244 0.0
C3685 C 0.5749 0.38299 0.59222 0.0
C3686 C 0.57424 0.40211 0.58549 0.0
C3687 C 0.56733 0.45598 0.56684 0.0
C3688 C 0.57044 0.43768 0.57313 0.0
H3689 H 0.60224 0.36243 0.61779 0.0
H3690 H 0.60157 0.39423 0.60764 0.0
H3691 H 0.56097 0.38929 0.55966 0.0
H3692 H 0.53324 0.47154 0.54607 0.0
H3693 H 0.53845 0.44216 0.55735 0.0
C3694 C 0.45951 0.74762 0.37848 0.0
C3695 C 0.4638 0.75833 0.39502 0.0
C3696 C 0.44262 0.74594 0.36876 0.0
C3697 C 0.40621 0.77215 0.3658 0.0
H3698 H 0.38215 0.72983 0.33022 0.0
C3699 C 0.33825 0.77077 0.32632 0.0
C3700 C 0.33694 0.76606 0.30796 0.0
C3701 C 0.35268 0.76786 0.33721 0.0
C3702 C 0.38883 0.74183 0.34001 0.0
H3703 H 0.45305 0.77345 0.4155 0.0
H3704 H 0.42338 0.77034 0.3988 0.0
H3705 H 0.40833 0.72725 0.34957 0.0
H3706 H 0.34954 0.75394 0.28679 0.0
H3707 H 0.37491 0.74886 0.30591 0.0
H3708 H 0.38673 0.7867 0.35625 0.0
C3709 C 0.43332 0.76399 0.39281 0.0
C3710 C 0.40387 0.74038 0.35114 0.0
C3711 C 0.45024 0.76567 0.40249 0.0
C3712 C 0.35013 0.75773 0.30085 0.0
C3713 C 0.36463 0.75477 0.31182 0.0
C3714 C 0.39117 0.77353 0.35477 0.0
C3715 C 0.42955 0.75475 0.37552 0.0
C3716 C 0.41284 0.75557 0.36418 0.0
C3717 C 0.36624 0.76013 0.33009 0.0
C3718 C 0.38228 0.75842 0.34173 0.0
H3719 H 0.46955 0.74118 0.37277 0.0
H3720 H 0.44037 0.73869 0.35556 0.0
H3721 H 0.41292 0.78441 0.37529 0.0
H3722 H 0.32824 0.77701 0.33235 0.0
H3723 H 0.35327 0.77177 0.35126 0.0
C3724 C 0.08407 0.73637 0.09997 0.0
C3725 C 0.0745 0.73948 0.11467 0.0
C3726 C 0.08297 0.7173 0.09329 0.0
C3727 C 0.06904 0.66519 0.10521 0.0
H3728 H 0.06915 0.65365 0.05477 0.0
C3729 C 0.04772 0.58618 0.07161 0.0
C3730 C 0.05895 0.58181 0.05865 0.0
C3731 C 0.05063 0.60545 0.07875 0.0
C3732 C 0.06927 0.65668 0.06891 0.0
H3733 H 0.05713 0.72537 0.13453 0.0
H3734 H 0.05435 0.69208 0.12251 0.0
H3735 H 0.07192 0.68703 0.06645 0.0
H3736 H 0.08212 0.59446 0.04314 0.0
H3737 H 0.08705 0.6282 0.05554 0.0
H3738 H 0.06583 0.63464 0.10751 0.0
C3739 C 0.06297 0.70419 0.11615 0.0
C3740 C 0.0709 0.67587 0.07565 0.0
C3741 C 0.06436 0.72327 0.12298 0.0
C3742 C 0.07328 0.59724 0.05315 0.0
C3743 C 0.07602 0.6166 0.06015 0.0
C3744 C 0.06715 0.64598 0.09843 0.0
C3745 C 0.07225 0.70088 0.10119 0.0
C3746 C 0.07076 0.68043 0.09393 0.0
C3747 C 0.06468 0.62092 0.07299 0.0
C3748 C 0.06722 0.64148 0.0802 0.0
H3749 H 0.09251 0.74872 0.09372 0.0
H3750 H 0.09071 0.71549 0.08204 0.0
H3751 H 0.06932 0.66806 0.11938 0.0
H3752 H 0.03654 0.57471 0.07618 0.0
H3753 H 0.04156 0.6083 0.08851 0.0
C3754 C 0.06925 0.28965 0.88404 0.0
C3755 C 0.06016 0.27387 0.8935 0.0
C3756 C 0.08554 0.28972 0.87614 0.0
C3757 C 0.12373 0.26649 0.87336 0.0
H3758 H 0.12365 0.28339 0.82588 0.0
C3759 C 0.1785 0.25932 0.82385 0.0
C3760 C 0.18485 0.27518 0.81346 0.0
C3761 C 0.1639 0.25868 0.83472 0.0
C3762 C 0.12403 0.27883 0.83918 0.0
H3763 H 0.06149 0.24621 0.90286 0.0
H3764 H 0.09016 0.24619 0.88877 0.0
H3765 H 0.09761 0.28333 0.84337 0.0
H3766 H 0.18142 0.30323 0.80705 0.0
H3767 H 0.15604 0.30207 0.8258 0.0
H3768 H 0.15028 0.26191 0.86895 0.0
C3769 C 0.08468 0.25861 0.88765 0.0
C3770 C 0.10908 0.27881 0.84924 0.0
C3771 C 0.06832 0.25863 0.89577 0.0
C3772 C 0.17657 0.29055 0.81451 0.0
C3773 C 0.16203 0.28991 0.8253 0.0
C3774 C 0.13878 0.26649 0.86322 0.0
C3775 C 0.09308 0.27387 0.87725 0.0
C3776 C 0.10885 0.27294 0.86655 0.0
C3777 C 0.15536 0.27388 0.83539 0.0
C3778 C 0.13919 0.27294 0.8461 0.0
H3779 H 0.06336 0.3017 0.88221 0.0
H3780 H 0.09195 0.30198 0.86868 0.0
H3781 H 0.12397 0.26191 0.88666 0.0
H3782 H 0.18449 0.24717 0.82328 0.0
H3783 H 0.15898 0.24606 0.84222 0.0
C3784 C 0.53796 0.70428 0.90846 0.0
C3785 C 0.54501 0.72368 0.91648 0.0
C3786 C 0.53754 0.68741 0.91795 0.0
C3787 C 0.54456 0.67129 0.96541 0.0
H3788 H 0.54088 0.62133 0.94042 0.0
C3789 C 0.53804 0.59982 0.00489 0.0
C3790 C 0.54284 0.58336 0.99744 0.0
C3791 C 0.53803 0.6164 0.99519 0.0
C3792 C 0.54209 0.63505 0.94795 0.0
H3793 H 0.55729 0.73951 0.94149 0.0
H3794 H 0.55694 0.71098 0.95756 0.0
H3795 H 0.54184 0.6497 0.92403 0.0
H3796 H 0.55156 0.57256 0.97313 0.0
H3797 H 0.55182 0.60082 0.95665 0.0
H3798 H 0.5453 0.6568 0.98933 0.0
C3799 C 0.55128 0.70837 0.94395 0.0
C3800 C 0.5424 0.65171 0.93827 0.0
C3801 C 0.55165 0.72515 0.9345 0.0
C3802 C 0.54762 0.58452 0.97968 0.0
C3803 C 0.54765 0.60108 0.97 0.0
C3804 C 0.5443 0.65466 0.97508 0.0
C3805 C 0.54415 0.68884 0.93608 0.0
C3806 C 0.54368 0.67048 0.94663 0.0
C3807 C 0.54288 0.61767 0.97737 0.0
C3808 C 0.54307 0.6359 0.96673 0.0
H3809 H 0.53258 0.70204 0.89474 0.0
H3810 H 0.53165 0.67314 0.91091 0.0
H3811 H 0.54527 0.68487 0.97295 0.0
H3812 H 0.53424 0.59997 0.0184 0.0
H3813 H 0.53394 0.62819 1.00183 0.0
C3814 C 0.09762 0.78939 0.70339 0.0
C3815 C 0.09564 0.79519 0.68605 0.0
C3816 C 0.1153 0.78923 0.71163 0.0
C3817 C 0.16266 0.78347 0.70197 0.0
H3818 H 0.18051 0.80688 0.74934 0.0
C3819 C 0.22955 0.77082 0.74168 0.0
C3820 C 0.2429 0.78721 0.75091 0.0
C3821 C 0.21208 0.77202 0.73388 0.0
C3822 C 0.1759 0.80017 0.73608 0.0
H3823 H 0.1117 0.80363 0.66362 0.0
H3824 H 0.14181 0.80243 0.67737 0.0
H3825 H 0.15004 0.80818 0.73628 0.0
H3826 H 0.24704 0.81785 0.75901 0.0
H3827 H 0.21661 0.81968 0.74639 0.0
H3828 H 0.18812 0.77478 0.70198 0.0
C3829 C 0.12977 0.79888 0.68508 0.0
C3830 C 0.15813 0.80085 0.72852 0.0
C3831 C 0.11226 0.79967 0.67711 0.0
C3832 C 0.23754 0.80478 0.75212 0.0
C3833 C 0.2198 0.80582 0.74482 0.0
C3834 C 0.1801 0.78221 0.70974 0.0
C3835 C 0.13191 0.79378 0.70264 0.0
C3836 C 0.15103 0.79268 0.71115 0.0
C3837 C 0.20657 0.78951 0.73532 0.0
C3838 C 0.18738 0.79067 0.72699 0.0
H3839 H 0.08533 0.78435 0.71054 0.0
H3840 H 0.11578 0.7848 0.72495 0.0
H3841 H 0.1581 0.77685 0.68868 0.0
H3842 H 0.2327 0.75693 0.74022 0.0
H3843 H 0.20266 0.75896 0.72689 0.0
C3844 C 0.05425 0.33425 0.43035 0.0
C3845 C 0.05503 0.33433 0.4118 0.0
C3846 C 0.05382 0.35125 0.44114 0.0
C3847 C 0.05948 0.40703 0.4397 0.0
H3848 H 0.03934 0.4021 0.48541 0.0
C3849 C 0.04644 0.47543 0.47987 0.0
C3850 C 0.04776 0.47697 0.49857 0.0
C3851 C 0.04763 0.45836 0.46981 0.0
C3852 C 0.04522 0.40403 0.47276 0.0
H3853 H 0.0557 0.35344 0.39062 0.0
H3854 H 0.05457 0.38208 0.40878 0.0
H3855 H 0.04083 0.37293 0.46778 0.0
H3856 H 0.05135 0.46066 0.52092 0.0
H3857 H 0.05337 0.43127 0.50366 0.0
H3858 H 0.06368 0.4381 0.44462 0.0
C3859 C 0.0548 0.36918 0.41542 0.0
C3860 C 0.04612 0.38696 0.46244 0.0
C3861 C 0.05536 0.35233 0.40473 0.0
C3862 C 0.05027 0.46044 0.50666 0.0
C3863 C 0.05131 0.44328 0.49658 0.0
C3864 C 0.05844 0.42403 0.44994 0.0
C3865 C 0.054 0.36928 0.434 0.0
C3866 C 0.05324 0.38787 0.44551 0.0
C3867 C 0.05005 0.44171 0.47783 0.0
C3868 C 0.05125 0.4231 0.46679 0.0
H3869 H 0.05384 0.32093 0.43662 0.0
H3870 H 0.05345 0.35012 0.45523 0.0
H3871 H 0.06555 0.40919 0.42717 0.0
H3872 H 0.04445 0.48751 0.47284 0.0
H3873 H 0.0463 0.45819 0.45556 0.0
C3874 C 0.48579 0.27784 0.19617 0.0
C3875 C 0.48748 0.28347 0.17862 0.0
C3876 C 0.46945 0.27733 0.20545 0.0
C3877 C 0.42637 0.29688 0.20575 0.0
H3878 H 0.40597 0.25556 0.2359 0.0
C3879 C 0.36271 0.29841 0.24989 0.0
C3880 C 0.34873 0.28073 0.25219 0.0
C3881 C 0.37936 0.29871 0.24137 0.0
C3882 C 0.41128 0.26732 0.22756 0.0
H3883 H 0.47216 0.29324 0.15779 0.0
H3884 H 0.44483 0.29317 0.1738 0.0
H3885 H 0.43459 0.25638 0.22129 0.0
H3886 H 0.34263 0.2493 0.24688 0.0
H3887 H 0.37149 0.24974 0.23287 0.0
H3888 H 0.40335 0.30806 0.21226 0.0
C3889 C 0.45599 0.28887 0.18054 0.0
C3890 C 0.42807 0.26788 0.21913 0.0
C3891 C 0.47198 0.28888 0.17117 0.0
C3892 C 0.35265 0.26335 0.24564 0.0
C3893 C 0.36953 0.26362 0.23751 0.0
C3894 C 0.40988 0.2966 0.21452 0.0
C3895 C 0.45402 0.28292 0.19793 0.0
C3896 C 0.43611 0.28259 0.20779 0.0
C3897 C 0.3834 0.28133 0.23493 0.0
C3898 C 0.40165 0.28173 0.22562 0.0
H3899 H 0.49694 0.2733 0.20267 0.0
H3900 H 0.46904 0.27269 0.21873 0.0
H3901 H 0.43165 0.30866 0.19742 0.0
H3902 H 0.36067 0.31228 0.25445 0.0
H3903 H 0.38927 0.3128 0.24004 0.0
C3904 C 0.63008 0.50403 0.36673 0.0
C3905 C 0.6488 0.50411 0.36632 0.0
C3906 C 0.62136 0.50166 0.38247 0.0
C3907 C 0.63392 0.50951 0.43032 0.0
H3908 H 0.5804 0.48863 0.4321 0.0
C3909 C 0.59548 0.53444 0.48561 0.0
C3910 C 0.57956 0.52118 0.4912 0.0
C3911 C 0.60435 0.52904 0.4714 0.0
C3912 C 0.59541 0.49421 0.43195 0.0
H3913 H 0.67267 0.50028 0.38165 0.0
H3914 H 0.65724 0.4954 0.40896 0.0
H3915 H 0.59463 0.48323 0.40506 0.0
H3916 H 0.5608 0.49162 0.48674 0.0
H3917 H 0.57659 0.48204 0.46213 0.0
H3918 H 0.63476 0.52019 0.45727 0.0
C3919 C 0.64947 0.49785 0.39731 0.0
C3920 C 0.60354 0.49134 0.41636 0.0
C3921 C 0.65828 0.50053 0.38164 0.0
C3922 C 0.57296 0.50223 0.48262 0.0
C3923 C 0.58195 0.49676 0.46848 0.0
C3924 C 0.62583 0.51213 0.44596 0.0
C3925 C 0.63112 0.49904 0.39805 0.0
C3926 C 0.62281 0.49946 0.41522 0.0
C3927 C 0.59762 0.51019 0.46259 0.0
C3928 C 0.60643 0.50505 0.44679 0.0
H3929 H 0.62244 0.50685 0.35515 0.0
H3930 H 0.6073 0.50292 0.38257 0.0
H3931 H 0.64878 0.51615 0.42992 0.0
H3932 H 0.60089 0.54917 0.49193 0.0
H3933 H 0.61617 0.53989 0.46701 0.0
C3934 C 0.27578 0.88599 0.06176 0.0
C3935 C 0.26894 0.87632 0.04506 0.0
C3936 C 0.27562 0.87535 0.07649 0.0
C3937 C 0.27753 0.82703 0.0878 0.0
H3938 H 0.2718 0.84755 0.13487 0.0
C3939 C 0.29141 0.79126 0.15181 0.0
C3940 C 0.30223 0.80459 0.16541 0.0
C3941 C 0.28462 0.79808 0.13674 0.0
C3942 C 0.27343 0.84165 0.12178 0.0
H3943 H 0.25561 0.84804 0.03079 0.0
H3944 H 0.25519 0.82938 0.0567 0.0
H3945 H 0.26305 0.86289 0.10929 0.0
H3946 H 0.31522 0.83541 0.1735 0.0
H3947 H 0.30326 0.84725 0.14736 0.0
H3948 H 0.28835 0.80607 0.10042 0.0
C3949 C 0.26087 0.84519 0.0583 0.0
C3950 C 0.26841 0.8504 0.10717 0.0
C3951 C 0.261 0.85588 0.04351 0.0
C3952 C 0.30657 0.82479 0.16343 0.0
C3953 C 0.2997 0.83158 0.14849 0.0
C3954 C 0.28248 0.81821 0.10245 0.0
C3955 C 0.26859 0.8548 0.07484 0.0
C3956 C 0.27093 0.84355 0.09006 0.0
C3957 C 0.28846 0.81831 0.13513 0.0
C3958 C 0.28099 0.82584 0.11957 0.0
H3959 H 0.28198 0.90174 0.06335 0.0
H3960 H 0.28189 0.88317 0.08901 0.0
H3961 H 0.27982 0.82155 0.07479 0.0
H3962 H 0.28773 0.77561 0.15305 0.0
H3963 H 0.27597 0.78758 0.12658 0.0
C3964 C 0.98461 0.56921 0.86269 0.0
C3965 C 0.96515 0.56273 0.86368 0.0
C3966 C 0.99657 0.57434 0.87801 0.0
C3967 C 0.99898 0.58683 0.92583 0.0
H3968 H 0.0344 0.55641 0.92839 0.0
C3969 C 0.02076 0.55946 0.98937 0.0
C3970 C 0.0381 0.55565 0.99157 0.0
C3971 C 0.0158 0.56695 0.97404 0.0
C3972 C 0.02505 0.56552 0.92782 0.0
H3973 H 0.94299 0.55745 0.88152 0.0
H3974 H 0.96397 0.56637 0.90833 0.0
H3975 H 0.01776 0.55738 0.90031 0.0
H3976 H 0.06448 0.55816 0.9801 0.0
H3977 H 0.05583 0.57158 0.95329 0.0
H3978 H 1.00584 0.59446 0.95349 0.0
C3979 C 0.96989 0.56757 0.89564 0.0
C3980 C 0.01545 0.56599 0.91173 0.0
C3981 C 0.9579 0.56229 0.88031 0.0
C3982 C 0.05092 0.56075 0.97869 0.0
C3983 C 0.04596 0.56837 0.96332 0.0
C3984 C 1.00875 0.58656 0.9419 0.0
C3985 C 0.98931 0.57327 0.8946 0.0
C3986 C 1.00183 0.57602 0.91077 0.0
C3987 C 0.02812 0.57095 0.96063 0.0
C3988 C 0.02128 0.57521 0.94319 0.0
H3989 H 0.99069 0.56981 0.85009 0.0
H3990 H 0.01152 0.57875 0.87692 0.0
H3991 H 0.9887 0.59487 0.9253 0.0
H3992 H 0.01062 0.55593 0.99914 0.0
H3993 H 1.00184 0.56848 0.97231 0.0
C3994 C 0.30715 0.20129 0.58406 0.0
C3995 C 0.30715 0.21431 0.57087 0.0
C3996 C 0.30684 0.20717 0.60197 0.0
C3997 C 0.29174 0.24157 0.63169 0.0
H3998 H 0.32382 0.22799 0.66745 0.0
C3999 C 0.2904 0.2652 0.70652 0.0
C4000 C 0.29536 0.25383 0.71939 0.0
C4001 C 0.29227 0.26113 0.68848 0.0
C4002 C 0.31441 0.23164 0.65781 0.0
H4003 H 0.30677 0.24388 0.56643 0.0
H4004 H 0.30583 0.25408 0.59778 0.0
H4005 H 0.32646 0.21979 0.6364 0.0
H4006 H 0.30584 0.22888 0.72307 0.0
H4007 H 0.30818 0.22115 0.6919 0.0
H4008 H 0.27908 0.25268 0.65293 0.0
C4009 C 0.30628 0.23931 0.59417 0.0
C4010 C 0.3161 0.22703 0.63985 0.0
C4011 C 0.30699 0.23352 0.5762 0.0
C4012 C 0.30194 0.23806 0.71361 0.0
C4013 C 0.30349 0.23375 0.69557 0.0
C4014 C 0.28978 0.24586 0.64969 0.0
C4015 C 0.30612 0.22617 0.60733 0.0
C4016 C 0.30479 0.23189 0.62649 0.0
C4017 C 0.29888 0.24532 0.68259 0.0
C4018 C 0.30105 0.24093 0.66316 0.0
H4019 H 0.30716 0.18635 0.5805 0.0
H4020 H 0.30659 0.19658 0.61162 0.0
H4021 H 0.28261 0.24534 0.62183 0.0
H4022 H 0.2855 0.27763 0.71041 0.0
H4023 H 0.28885 0.27075 0.67923 0.0
C4024 C 0.6405 0.51584 0.25166 0.0
C4025 C 0.63155 0.50626 0.26568 0.0
C4026 C 0.63045 0.51577 0.23567 0.0
C4027 C 0.58272 0.51095 0.2176 0.0
H4028 H 0.60594 0.51325 0.17324 0.0
C4029 C 0.54774 0.52293 0.15045 0.0
C4030 C 0.55912 0.5382 0.14181 0.0
C4031 C 0.55508 0.516 0.16519 0.0
C4032 C 0.59927 0.51255 0.18555 0.0
H4033 H 0.60526 0.48831 0.27373 0.0
H4034 H 0.58771 0.48786 0.24556 0.0
H4035 H 0.62164 0.50522 0.19944 0.0
H4036 H 0.58706 0.55794 0.1415 0.0
H4037 H 0.59981 0.54586 0.16713 0.0
H4038 H 0.56043 0.51854 0.20357 0.0
C4039 C 0.60244 0.49573 0.24707 0.0
C4040 C 0.60826 0.50802 0.20054 0.0
C4041 C 0.61251 0.49588 0.26315 0.0
C4042 C 0.5779 0.54637 0.14809 0.0
C4043 C 0.58526 0.5393 0.1626 0.0
C4044 C 0.57362 0.51529 0.20252 0.0
C4045 C 0.61124 0.50599 0.23327 0.0
C4046 C 0.60037 0.50777 0.21686 0.0
C4047 C 0.57397 0.524 0.17121 0.0
C4048 C 0.58212 0.5167 0.18652 0.0
H4049 H 0.65515 0.52403 0.25322 0.0
H4050 H 0.63763 0.5241 0.22544 0.0
H4051 H 0.57633 0.51107 0.23 0.0
H4052 H 0.53322 0.51638 0.1458 0.0
H4053 H 0.54615 0.50416 0.17167 0.0
C4054 C 0.26201 0.87562 0.94458 0.0
C4055 C 0.27294 0.8953 0.9467 0.0
C4056 C 0.2588 0.86527 0.92799 0.0
C4057 C 0.26436 0.8714 0.88008 0.0
H4058 H 0.27018 0.81906 0.87984 0.0
C4059 C 0.29087 0.83363 0.82258 0.0
C4060 C 0.28149 0.81385 0.81761 0.0
C4061 C 0.28604 0.84315 0.8373 0.0
C4062 C 0.26822 0.83353 0.87971 0.0
H4063 H 0.28853 0.91976 0.93296 0.0
H4064 H 0.28357 0.90159 0.9043 0.0
H4065 H 0.26818 0.83658 0.90775 0.0
H4066 H 0.25956 0.78853 0.824 0.0
H4067 H 0.25145 0.80516 0.85004 0.0
H4068 H 0.26556 0.86861 0.85201 0.0
C4069 C 0.27703 0.89421 0.91528 0.0
C4070 C 0.26699 0.84356 0.89568 0.0
C4071 C 0.28002 0.90462 0.9318 0.0
C4072 C 0.26704 0.80381 0.82751 0.0
C4073 C 0.2624 0.81326 0.8424 0.0
C4074 C 0.26586 0.86145 0.86413 0.0
C4075 C 0.26667 0.87432 0.91323 0.0
C4076 C 0.26545 0.86278 0.89609 0.0
C4077 C 0.27193 0.83297 0.84743 0.0
C4078 C 0.26815 0.8426 0.86389 0.0
H4079 H 0.25616 0.8681 0.95579 0.0
H4080 H 0.25045 0.85007 0.9268 0.0
H4081 H 0.26279 0.88602 0.87989 0.0
H4082 H 0.30212 0.84171 0.81527 0.0
H4083 H 0.29375 0.85831 0.8411 0.0
C4084 C 0.95863 0.55892 0.74818 0.0
C4085 C 0.96852 0.56781 0.76417 0.0
C4086 C 0.9673 0.56129 0.73244 0.0
C4087 C 0.01382 0.56917 0.71752 0.0
H4088 H 0.98735 0.56651 0.67169 0.0
C4089 C 0.04345 0.55161 0.65197 0.0
C4090 C 0.03082 0.53608 0.64145 0.0
C4091 C 0.0374 0.56064 0.66634 0.0
C4092 C 0.99495 0.56742 0.68442 0.0
H4093 H 0.99471 0.58733 0.77618 0.0
H4094 H 1.00981 0.5916 0.74858 0.0
H4095 H 0.97342 0.57451 0.69829 0.0
H4096 H 1.00198 0.51823 0.63718 0.0
H4097 H 0.99151 0.53376 0.66231 0.0
H4098 H 0.03499 0.56127 0.70364 0.0
C4099 C 0.99548 0.58256 0.74827 0.0
C4100 C 0.987 0.57196 0.6996 0.0
C4101 C 0.98681 0.58015 0.76403 0.0
C4102 C 0.01207 0.52993 0.6453 0.0
C4103 C 1.00602 0.53903 0.65949 0.0
C4104 C 0.02182 0.56472 0.70231 0.0
C4105 C 0.98599 0.57266 0.73241 0.0
C4106 C 0.99602 0.57211 0.71633 0.0
C4107 C 0.01861 0.55444 0.67013 0.0
C4108 C 0.01208 0.56304 0.68572 0.0
H4109 H 0.94449 0.54936 0.74789 0.0
H4110 H 0.95967 0.55325 0.72047 0.0
H4111 H 0.02104 0.56897 0.73023 0.0
H4112 H 0.05797 0.55663 0.64917 0.0
H4113 H 0.04734 0.57249 0.67442 0.0
C4114 C 0.3052 0.19586 0.44862 0.0
C4115 C 0.30278 0.20636 0.46422 0.0
C4116 C 0.30643 0.20409 0.43237 0.0
C4117 C 0.29508 0.24364 0.40802 0.0
H4118 H 0.32554 0.22804 0.37368 0.0
C4119 C 0.30297 0.27561 0.33917 0.0
C4120 C 0.30371 0.26308 0.3243 0.0
C4121 C 0.30358 0.26957 0.35636 0.0
C4122 C 0.31676 0.23241 0.38297 0.0
H4123 H 0.30008 0.2343 0.47456 0.0
H4124 H 0.30251 0.24897 0.44599 0.0
H4125 H 0.32611 0.2172 0.40332 0.0
H4126 H 0.30575 0.23416 0.31624 0.0
H4127 H 0.30684 0.22357 0.34619 0.0
H4128 H 0.28579 0.25891 0.38756 0.0
C4129 C 0.30325 0.23408 0.44647 0.0
C4130 C 0.31708 0.22617 0.40012 0.0
C4131 C 0.30205 0.22575 0.46295 0.0
C4132 C 0.30525 0.2443 0.32727 0.0
C4133 C 0.30594 0.23825 0.34454 0.0
C4134 C 0.29481 0.24995 0.39084 0.0
C4135 C 0.30538 0.22329 0.43086 0.0
C4136 C 0.30607 0.23144 0.41293 0.0
C4137 C 0.30501 0.25076 0.3594 0.0
C4138 C 0.30551 0.24429 0.37794 0.0
H4139 H 0.30588 0.1809 0.44883 0.0
H4140 H 0.30769 0.19502 0.42083 0.0
H4141 H 0.2862 0.24787 0.41728 0.0
H4142 H 0.30178 0.29021 0.33757 0.0
H4143 H 0.30313 0.27981 0.36732 0.0
C4144 C 0.32974 0.59417 0.54331 0.0
C4145 C 0.33302 0.61455 0.54337 0.0
C4146 C 0.34368 0.58568 0.53926 0.0
C4147 C 0.38249 0.592 0.51276 0.0
H4148 H 0.39518 0.55332 0.54077 0.0
C4149 C 0.44097 0.55749 0.49709 0.0
C4150 C 0.43916 0.53831 0.50169 0.0
C4151 C 0.42756 0.56677 0.50124 0.0
C4152 C 0.39154 0.56382 0.53263 0.0
H4153 H 0.35336 0.64214 0.53966 0.0
H4154 H 0.37789 0.62706 0.53217 0.0
H4155 H 0.37376 0.57066 0.55148 0.0
H4156 H 0.42116 0.51324 0.51298 0.0
H4157 H 0.39718 0.529 0.5192 0.0
H4158 H 0.39967 0.58475 0.49358 0.0
C4159 C 0.36452 0.61783 0.53543 0.0
C4160 C 0.37948 0.57388 0.53889 0.0
C4161 C 0.35063 0.62641 0.53982 0.0
C4162 C 0.42293 0.528 0.50919 0.0
C4163 C 0.40936 0.53717 0.51306 0.0
C4164 C 0.39436 0.58174 0.50636 0.0
C4165 C 0.361 0.59739 0.53493 0.0
C4166 C 0.37486 0.58798 0.52898 0.0
C4167 C 0.4119 0.55689 0.50976 0.0
C4168 C 0.39894 0.56748 0.5162 0.0
H4169 H 0.31625 0.58473 0.54602 0.0
H4170 H 0.34066 0.56987 0.53882 0.0
H4171 H 0.37881 0.60264 0.50481 0.0
H4172 H 0.45318 0.56567 0.491 0.0
H4173 H 0.42999 0.58197 0.49854 0.0
C4174 C 0.85292 0.90818 0.54046 0.0
C4175 C 0.84811 0.89025 0.53018 0.0
C4176 C 0.87092 0.92095 0.54095 0.0
C4177 C 0.91147 0.94385 0.54525 0.0
H4178 H 0.93773 0.94491 0.50275 0.0
C4179 C 0.98687 0.99219 0.54411 0.0
C4180 C 0.99304 1.00037 0.52844 0.0
C4181 C 0.96935 0.97865 0.54424 0.0
C4182 C 0.93051 0.94505 0.51466 0.0
H4183 H 0.85856 0.8704 0.51394 0.0
H4184 H 0.89034 0.89249 0.51499 0.0
H4185 H 0.90733 0.92128 0.50378 0.0
H4186 H 0.98555 1.00084 0.50058 0.0
H4187 H 0.95443 0.97778 0.50092 0.0
H4188 H 0.93403 0.96829 0.55579 0.0
C4189 C 0.88005 0.89721 0.52207 0.0
C4190 C 0.91316 0.93118 0.51538 0.0
C4191 C 0.86194 0.88446 0.52156 0.0
C4192 C 0.98116 0.99481 0.51287 0.0
C4193 C 0.96339 0.98144 0.51306 0.0
C4194 C 0.92862 0.9579 0.54442 0.0
C4195 C 0.88467 0.91588 0.5314 0.0
C4196 C 0.90341 0.93031 0.53073 0.0
C4197 C 0.95727 0.97311 0.52877 0.0
C4198 C 0.93851 0.95861 0.52919 0.0
H4199 H 0.84254 0.91262 0.54768 0.0
H4200 H 0.87372 0.93515 0.54819 0.0
H4201 H 0.90464 0.9436 0.55741 0.0
H4202 H 0.99577 0.99586 0.5563 0.0
H4203 H 0.9655 0.97225 0.5565 0.0
C4204 C 0.89729 0.07554 0.25762 0.0
C4205 C 0.88602 0.05601 0.25626 0.0
C4206 C 0.89021 0.0906 0.26383 0.0
C4207 C 0.85224 0.09889 0.2892 0.0
H4208 H 0.8616 0.14706 0.26575 0.0
C4209 C 0.80661 0.15119 0.29318 0.0
C4210 C 0.81561 0.17136 0.29375 0.0
C4211 C 0.8169 0.13779 0.29145 0.0
C4212 C 0.85914 0.13382 0.27262 0.0
H4213 H 0.85833 0.03696 0.25965 0.0
H4214 H 0.84597 0.06314 0.27002 0.0
H4215 H 0.87663 0.12239 0.25646 0.0
H4216 H 0.84241 0.19349 0.29443 0.0
H4217 H 0.86037 0.17002 0.29127 0.0
H4218 H 0.83423 0.1101 0.30494 0.0
C4219 C 0.8604 0.06683 0.26684 0.0
C4220 C 0.86773 0.11972 0.2673 0.0
C4221 C 0.86746 0.05184 0.26077 0.0
C4222 C 0.83513 0.17796 0.29363 0.0
C4223 C 0.84539 0.16459 0.29185 0.0
C4224 C 0.84357 0.11294 0.29444 0.0
C4225 C 0.87176 0.0863 0.26866 0.0
C4226 C 0.86408 0.10199 0.27533 0.0
C4227 C 0.83629 0.14442 0.29029 0.0
C4228 C 0.84675 0.13037 0.28601 0.0
H4229 H 0.91167 0.07915 0.2543 0.0
H4230 H 0.89927 0.10551 0.26517 0.0
H4231 H 0.84948 0.08549 0.29585 0.0
H4232 H 0.79156 0.14578 0.29315 0.0
H4233 H 0.80957 0.12226 0.29012 0.0
C4234 C 0.73612 0.15822 0.05537 0.0
C4235 C 0.74655 0.14562 0.06011 0.0
C4236 C 0.71683 0.15242 0.05626 0.0
C4237 C 0.67801 0.12912 0.04338 0.0
H4238 H 0.6517 0.09026 0.07343 0.0
C4239 C 0.60941 0.05812 0.03822 0.0
C4240 C 0.59614 0.06583 0.02992 0.0
C4241 C 0.62696 0.07042 0.04438 0.0
C4242 C 0.65893 0.10102 0.06488 0.0
H4243 H 0.74607 0.11876 0.07203 0.0
H4244 H 0.71236 0.10799 0.07281 0.0
H4245 H 0.68384 0.10921 0.08217 0.0
H4246 H 0.59084 0.09243 0.02145 0.0
H4247 H 0.62138 0.11384 0.03232 0.0
H4248 H 0.65339 0.12046 0.02578 0.0
C4249 C 0.7187 0.12232 0.06838 0.0
C4250 C 0.6773 0.11193 0.06991 0.0
C4251 C 0.73797 0.12822 0.06758 0.0
C4252 C 0.60082 0.086 0.02766 0.0
C4253 C 0.61832 0.09829 0.0339 0.0
C4254 C 0.65971 0.11819 0.03833 0.0
C4255 C 0.7078 0.13396 0.06196 0.0
C4256 C 0.68729 0.12557 0.05886 0.0
C4257 C 0.63151 0.09065 0.04242 0.0
C4258 C 0.65018 0.10363 0.04876 0.0
H4259 H 0.74277 0.17209 0.05018 0.0
H4260 H 0.70894 0.16204 0.05177 0.0
H4261 H 0.68522 0.13935 0.03441 0.0
H4262 H 0.60618 0.04264 0.04016 0.0
H4263 H 0.63701 0.06405 0.05056 0.0
C4264 C 0.20966 0.47214 0.25796 0.0
C4265 C 0.19149 0.47233 0.26103 0.0
C4266 C 0.21629 0.45702 0.26351 0.0
C4267 C 0.21337 0.42758 0.2995 0.0
H4268 H 0.24515 0.40419 0.27262 0.0
C4269 C 0.26264 0.38347 0.32696 0.0
C4270 C 0.28016 0.3883 0.31982 0.0
C4271 C 0.24882 0.39171 0.32093 0.0
C4272 C 0.23624 0.41056 0.28027 0.0
H4273 H 0.16562 0.45691 0.27159 0.0
H4274 H 0.17754 0.4304 0.28184 0.0
H4275 H 0.22446 0.41982 0.2573 0.0
H4276 H 0.29734 0.4074 0.30213 0.0
H4277 H 0.27379 0.42225 0.29262 0.0
H4278 H 0.22607 0.41928 0.32262 0.0
C4279 C 0.18643 0.44178 0.27485 0.0
C4280 C 0.22435 0.4193 0.2715 0.0
C4281 C 0.17963 0.45676 0.26891 0.0
C4282 C 0.2842 0.40324 0.30815 0.0
C4283 C 0.27053 0.41154 0.30233 0.0
C4284 C 0.22537 0.41884 0.30833 0.0
C4285 C 0.20493 0.44211 0.27251 0.0
C4286 C 0.21343 0.42856 0.28112 0.0
C4287 C 0.25247 0.405 0.30787 0.0
C4288 C 0.23746 0.41109 0.29879 0.0
H4289 H 0.21899 0.48416 0.25201 0.0
H4290 H 0.23071 0.45767 0.26177 0.0
H4291 H 0.20512 0.43483 0.30715 0.0
H4292 H 0.25919 0.37237 0.33628 0.0
H4293 H 0.235 0.38676 0.3256 0.0
C4294 C 0.24437 0.39142 0.00547 0.0
C4295 C 0.25123 0.3841 0.02032 0.0
C4296 C 0.22951 0.39946 0.0065 0.0
C4297 C 0.19186 0.40603 0.03389 0.0
H4298 H 0.20001 0.4539 0.01005 0.0
C4299 C 0.14802 0.46133 0.04306 0.0
C4300 C 0.14399 0.47036 0.02799 0.0
C4301 C 0.15979 0.44916 0.04241 0.0
C4302 C 0.19734 0.44044 0.0166 0.0
H4303 H 0.24738 0.37862 0.04771 0.0
H4304 H 0.22134 0.39299 0.04964 0.0
H4305 H 0.22232 0.43518 0.00836 0.0
H4306 H 0.14833 0.47265 1.00017 0.0
H4307 H 0.16873 0.45158 0.99905 0.0
H4308 H 0.16686 0.41165 0.04229 0.0
C4309 C 0.22734 0.39223 0.0371 0.0
C4310 C 0.21016 0.42963 0.01561 0.0
C4311 C 0.24218 0.38392 0.036 0.0
C4312 C 0.15147 0.46635 0.01214 0.0
C4313 C 0.16319 0.45424 0.0115 0.0
C4314 C 0.17897 0.41693 0.03491 0.0
C4315 C 0.22129 0.40073 0.0225 0.0
C4316 C 0.20751 0.41216 0.02404 0.0
C4317 C 0.16779 0.44577 0.02668 0.0
C4318 C 0.18148 0.43417 0.0261 0.0
H4319 H 0.25104 0.39167 0.99319 0.0
H4320 H 0.22489 0.40531 0.99484 0.0
H4321 H 0.18937 0.39263 0.04051 0.0
H4322 H 0.1426 0.4642 0.05552 0.0
H4323 H 0.16314 0.44298 0.05438 0.0
C4324 C 0.91865 0.95789 0.22623 0.0
C4325 C 0.90683 0.9694 0.22244 0.0
C4326 C 0.91206 0.93754 0.22319 0.0
C4327 C 0.8674 0.89683 0.20953 0.0
H4328 H 0.88518 0.87511 0.25015 0.0
C4329 C 0.82114 0.83725 0.24868 0.0
C4330 C 0.82859 0.8222 0.25362 0.0
C4331 C 0.83204 0.85302 0.24042 0.0
C4332 C 0.8802 0.88081 0.23857 0.0
H4333 H 0.88058 0.96965 0.20929 0.0
H4334 H 0.86828 0.93433 0.2053 0.0
H4335 H 0.90348 0.90604 0.2415 0.0
H4336 H 0.85322 0.81177 0.25369 0.0
H4337 H 0.87211 0.83932 0.23958 0.0
H4338 H 0.84319 0.87181 0.20792 0.0
C4339 C 0.88259 0.94039 0.21065 0.0
C4340 C 0.89086 0.89859 0.23334 0.0
C4341 C 0.8894 0.96074 0.21333 0.0
C4342 C 0.84704 0.82316 0.25011 0.0
C4343 C 0.8579 0.8389 0.242 0.0
C4344 C 0.85654 0.87916 0.21504 0.0
C4345 C 0.89338 0.92842 0.21669 0.0
C4346 C 0.8843 0.90735 0.21918 0.0
C4347 C 0.85053 0.85398 0.23714 0.0
C4348 C 0.86265 0.87136 0.22992 0.0
H4349 H 0.9326 0.96452 0.23243 0.0
H4350 H 0.92134 0.92903 0.22691 0.0
H4351 H 0.8621 0.90252 0.19814 0.0
H4352 H 0.80692 0.83681 0.25109 0.0
H4353 H 0.82618 0.86469 0.23697 0.0
C4354 C 0.65705 0.09163 0.76506 0.0
C4355 C 0.66504 0.07625 0.76244 0.0
C4356 C 0.66818 0.11107 0.76544 0.0
C4357 C 0.69805 0.14931 0.77783 0.0
H4358 H 0.73685 0.16403 0.74549 0.0
C4359 C 0.75849 0.22164 0.78837 0.0
C4360 C 0.76402 0.23132 0.7732 0.0
C4361 C 0.74553 0.20302 0.78683 0.0
C4362 C 0.72599 0.16024 0.75454 0.0
H4363 H 0.69012 0.06859 0.7565 0.0
H4364 H 0.70961 0.10235 0.75732 0.0
H4365 H 0.71502 0.13135 0.74185 0.0
H4366 H 0.75994 0.22928 0.74456 0.0
H4367 H 0.73728 0.19721 0.74196 0.0
H4368 H 0.70894 0.17841 0.79034 0.0
C4369 C 0.69492 0.09967 0.75926 0.0
C4370 C 0.71359 0.14143 0.75256 0.0
C4371 C 0.68385 0.08036 0.75899 0.0
C4372 C 0.75616 0.22217 0.75653 0.0
C4373 C 0.7432 0.2037 0.75501 0.0
C4374 C 0.71047 0.1682 0.77981 0.0
C4375 C 0.68731 0.11526 0.7628 0.0
C4376 C 0.69958 0.1357 0.76425 0.0
C4377 C 0.73785 0.19382 0.7701 0.0
C4378 C 0.7246 0.17383 0.76819 0.0
H4379 H 0.64241 0.08862 0.76738 0.0
H4380 H 0.66187 0.1228 0.7679 0.0
H4381 H 0.68751 0.14526 0.78716 0.0
H4382 H 0.76429 0.22834 0.8014 0.0
H4383 H 0.7418 0.19569 0.7987 0.0
loop_
_geom_bond_atom_site_label_1
_geom_bond_atom_site_label_2
_geom_bond_distance
_geom_bond_site_symmetry_2
_ccdc_geom_bond_type
Mn0 O5 2.095 . S
Mn0 O15 2.162 . S
Mn0 O16 2.297 . S
Mn0 O24 2.385 1_455 S
Mn0 O25 2.209 . S
Mn0 O26 2.094 . S
Mn1 O6 2.121 . S
Mn1 N8 2.257 . S
Mn1 N17 2.282 . S
Mn1 O25 2.215 . S
Mn1 O27 2.117 . S
C2 O24 1.236 . S
C2 O25 1.270 1_655 S
C3 O15 1.281 . S
C3 O16 1.236 . S
C4 O26 1.240 . S
C4 O27 1.264 . S
O5 Mn0 2.095 . S
O5 C14 1.250 . S
O6 Mn1 2.121 . S
O6 C14 1.258 . S
C7 N8 1.326 . S
C7 C11 1.460 . S
C7 H13 0.929 . S
N8 Mn1 2.257 . S
N8 C7 1.326 . S
N8 C12 1.362 . S
C9 C10 1.254 . S
C9 C12 1.429 . S
C9 C29 1.454 1_455 S
C10 C9 1.254 . S
C10 C11 1.477 . S
C10 H30 0.931 . S
C11 C7 1.460 . S
C11 C10 1.477 . S
C11 H31 0.930 . S
C12 N8 1.362 . S
C12 C9 1.429 . S
C12 C22 1.476 1_455 S
H13 C7 0.929 . S
C14 O5 1.250 . S
C14 O6 1.258 . S
O15 Mn0 2.162 . S
O15 C3 1.281 . S
O16 Mn0 2.297 . S
O16 C3 1.236 . S
N17 Mn1 2.282 . S
N17 C18 1.328 1_455 S
N17 C22 1.318 1_455 S
C18 N17 1.328 1_655 S
C18 C19 1.457 . S
C18 H23 0.929 1_655 S
C19 C18 1.457 . S
C19 C20 1.291 . S
C19 H32 0.931 . S
C20 C19 1.291 . S
C20 C21 1.373 . S
C20 H33 0.929 . S
C21 C20 1.373 . S
C21 C22 1.396 . S
C21 C28 1.403 . S
C22 C12 1.476 1_655 S
C22 N17 1.318 1_655 S
C22 C21 1.396 . S
H23 C18 0.929 1_455 S
O24 Mn0 2.385 1_655 S
O24 C2 1.236 . S
O25 Mn0 2.209 . S
O25 Mn1 2.215 . S
O25 C2 1.270 1_455 S
O26 Mn0 2.094 . S
O26 C4 1.240 . S
O27 Mn1 2.117 . S
O27 C4 1.264 . S
C28 C21 1.403 . S
C28 C29 1.399 . S
C28 H34 0.929 . S
C29 C9 1.454 1_655 S
C29 C28 1.399 . S
C29 H35 0.930 . S
H30 C10 0.931 . S
H31 C11 0.930 . S
H32 C19 0.931 . S
H33 C20 0.929 . S
H34 C28 0.929 . S
H35 C29 0.930 . S
Mn36 O41 2.095 . S
Mn36 O51 2.162 . S
Mn36 O52 2.297 . S
Mn36 O60 2.385 . S
Mn36 O61 2.209 . S
Mn36 O62 2.094 . S
Mn37 O42 2.121 . S
Mn37 N44 2.257 . S
Mn37 N53 2.282 . S
Mn37 O61 2.215 . S
Mn37 O63 2.117 . S
C38 O60 1.234 . S
C38 O61 1.283 . S
C39 O51 1.281 . S
C39 O52 1.236 . S
C40 O62 1.240 . S
C40 O63 1.264 . S
O41 Mn36 2.095 . S
O41 C50 1.250 . S
O42 Mn37 2.121 . S
O42 C50 1.258 . S
C43 N44 1.326 . S
C43 C47 1.460 . S
C43 H49 0.929 . S
N44 Mn37 2.257 . S
N44 C43 1.326 . S
N44 C48 1.362 . S
C45 C46 1.258 . S
C45 C48 1.431 . S
C45 C65 1.449 . S
C46 C45 1.258 . S
C46 C47 1.477 . S
C46 H66 0.931 . S
C47 C43 1.460 . S
C47 C46 1.477 . S
C47 H67 0.930 . S
C48 N44 1.362 . S
C48 C45 1.431 . S
C48 C58 1.476 . S
H49 C43 0.929 . S
C50 O41 1.250 . S
C50 O42 1.258 . S
O51 Mn36 2.162 . S
O51 C39 1.281 . S
O52 Mn36 2.297 . S
O52 C39 1.236 . S
N53 Mn37 2.282 . S
N53 C54 1.328 . S
N53 C58 1.318 . S
C54 N53 1.328 . S
C54 C55 1.457 . S
C54 H59 0.929 . S
C55 C54 1.457 . S
C55 C56 1.291 . S
C55 H68 0.931 . S
C56 C55 1.291 . S
C56 C57 1.373 . S
C56 H69 0.929 . S
C57 C56 1.373 . S
C57 C58 1.396 . S
C57 C64 1.403 . S
C58 C48 1.476 . S
C58 N53 1.318 . S
C58 C57 1.396 . S
H59 C54 0.929 . S
O60 Mn36 2.385 . S
O60 C38 1.234 . S
O61 Mn36 2.209 . S
O61 Mn37 2.215 . S
O61 C38 1.283 . S
O62 Mn36 2.094 . S
O62 C40 1.240 . S
O63 Mn37 2.117 . S
O63 C40 1.264 . S
C64 C57 1.403 . S
C64 C65 1.399 . S
C64 H70 0.929 . S
C65 C45 1.449 . S
C65 C64 1.399 . S
C65 H71 0.930 . S
H66 C46 0.931 . S
H67 C47 0.930 . S
H68 C55 0.931 . S
H69 C56 0.929 . S
H70 C64 0.929 . S
H71 C65 0.930 . S
Mn72 O77 2.095 . S
Mn72 O87 2.162 . S
Mn72 O88 2.297 . S
Mn72 O96 2.385 . S
Mn72 O97 2.209 . S
Mn72 O98 2.094 . S
Mn73 O78 2.121 . S
Mn73 N80 2.257 . S
Mn73 N89 2.282 . S
Mn73 O97 2.215 . S
Mn73 O99 2.117 . S
C74 O96 1.234 . S
C74 O97 1.283 . S
C75 O87 1.281 . S
C75 O88 1.236 . S
C76 O98 1.240 . S
C76 O99 1.264 . S
O77 Mn72 2.095 . S
O77 C86 1.250 . S
O78 Mn73 2.121 . S
O78 C86 1.258 . S
C79 N80 1.326 . S
C79 C83 1.460 . S
C79 H85 0.929 . S
N80 Mn73 2.257 . S
N80 C79 1.326 . S
N80 C84 1.362 . S
C81 C82 1.258 . S
C81 C84 1.431 . S
C81 C101 1.449 . S
C82 C81 1.258 . S
C82 C83 1.477 . S
C82 H102 0.931 . S
C83 C79 1.460 . S
C83 C82 1.477 . S
C83 H103 0.930 . S
C84 N80 1.362 . S
C84 C81 1.431 . S
C84 C94 1.476 . S
H85 C79 0.929 . S
C86 O77 1.250 . S
C86 O78 1.258 . S
O87 Mn72 2.162 . S
O87 C75 1.281 . S
O88 Mn72 2.297 . S
O88 C75 1.236 . S
N89 Mn73 2.282 . S
N89 C90 1.328 . S
N89 C94 1.318 . S
C90 N89 1.328 . S
C90 C91 1.457 . S
C90 H95 0.929 . S
C91 C90 1.457 . S
C91 C92 1.291 . S
C91 H104 0.931 . S
C92 C91 1.291 . S
C92 C93 1.373 . S
C92 H105 0.929 . S
C93 C92 1.373 . S
C93 C94 1.396 . S
C93 C100 1.403 . S
C94 C84 1.476 . S
C94 N89 1.318 . S
C94 C93 1.396 . S
H95 C90 0.929 . S
O96 Mn72 2.385 . S
O96 C74 1.234 . S
O97 Mn72 2.209 . S
O97 Mn73 2.215 . S
O97 C74 1.283 . S
O98 Mn72 2.094 . S
O98 C76 1.240 . S
O99 Mn73 2.117 . S
O99 C76 1.264 . S
C100 C93 1.403 . S
C100 C101 1.399 . S
C100 H106 0.929 . S
C101 C81 1.449 . S
C101 C100 1.399 . S
C101 H107 0.930 . S
H102 C82 0.931 . S
H103 C83 0.930 . S
H104 C91 0.931 . S
H105 C92 0.929 . S
H106 C100 0.929 . S
H107 C101 0.930 . S
Mn108 O113 2.095 . S
Mn108 O123 2.162 . S
Mn108 O124 2.297 . S
Mn108 O132 2.385 . S
Mn108 O133 2.209 . S
Mn108 O134 2.094 . S
Mn109 O114 2.121 . S
Mn109 N116 2.257 . S
Mn109 N125 2.282 . S
Mn109 O133 2.215 . S
Mn109 O135 2.117 . S
C110 O132 1.234 . S
C110 O133 1.283 . S
C111 O123 1.281 . S
C111 O124 1.236 . S
C112 O134 1.240 . S
C112 O135 1.264 . S
O113 Mn108 2.095 . S
O113 C122 1.250 . S
O114 Mn109 2.121 . S
O114 C122 1.258 . S
C115 N116 1.326 . S
C115 C119 1.460 . S
C115 H121 0.929 . S
N116 Mn109 2.257 . S
N116 C115 1.326 . S
N116 C120 1.362 . S
C117 C118 1.258 . S
C117 C120 1.431 . S
C117 C137 1.449 . S
C118 C117 1.258 . S
C118 C119 1.477 . S
C118 H138 0.931 . S
C119 C115 1.460 . S
C119 C118 1.477 . S
C119 H139 0.930 . S
C120 N116 1.362 . S
C120 C117 1.431 . S
C120 C130 1.476 . S
H121 C115 0.929 . S
C122 O113 1.250 . S
C122 O114 1.258 . S
O123 Mn108 2.162 . S
O123 C111 1.281 . S
O124 Mn108 2.297 . S
O124 C111 1.236 . S
N125 Mn109 2.282 . S
N125 C126 1.328 . S
N125 C130 1.318 . S
C126 N125 1.328 . S
C126 C127 1.457 . S
C126 H131 0.929 . S
C127 C126 1.457 . S
C127 C128 1.291 . S
C127 H140 0.931 . S
C128 C127 1.291 . S
C128 C129 1.373 . S
C128 H141 0.929 . S
C129 C128 1.373 . S
C129 C130 1.396 . S
C129 C136 1.403 . S
C130 C120 1.476 . S
C130 N125 1.318 . S
C130 C129 1.396 . S
H131 C126 0.929 . S
O132 Mn108 2.385 . S
O132 C110 1.234 . S
O133 Mn108 2.209 . S
O133 Mn109 2.215 . S
O133 C110 1.283 . S
O134 Mn108 2.094 . S
O134 C112 1.240 . S
O135 Mn109 2.117 . S
O135 C112 1.264 . S
C136 C129 1.403 . S
C136 C137 1.399 . S
C136 H142 0.929 . S
C137 C117 1.449 . S
C137 C136 1.399 . S
C137 H143 0.930 . S
H138 C118 0.931 . S
H139 C119 0.930 . S
H140 C127 0.931 . S
H141 C128 0.929 . S
H142 C136 0.929 . S
H143 C137 0.930 . S
Mn144 O149 2.095 . S
Mn144 O159 2.162 . S
Mn144 O160 2.297 . S
Mn144 O168 2.385 . S
Mn144 O169 2.209 . S
Mn144 O170 2.094 . S
Mn145 O150 2.121 . S
Mn145 N152 2.257 . S
Mn145 N161 2.282 . S
Mn145 O169 2.215 . S
Mn145 O171 2.117 . S
C146 O168 1.234 . S
C146 O169 1.283 . S
C147 O159 1.281 . S
C147 O160 1.236 . S
C148 O170 1.240 . S
C148 O171 1.264 . S
O149 Mn144 2.095 . S
O149 C158 1.250 . S
O150 Mn145 2.121 . S
O150 C158 1.258 . S
C151 N152 1.326 . S
C151 C155 1.460 . S
C151 H157 0.929 . S
N152 Mn145 2.257 . S
N152 C151 1.326 . S
N152 C156 1.362 . S
C153 C154 1.258 . S
C153 C156 1.431 . S
C153 C173 1.449 . S
C154 C153 1.258 . S
C154 C155 1.477 . S
C154 H174 0.931 . S
C155 C151 1.460 . S
C155 C154 1.477 . S
C155 H175 0.930 . S
C156 N152 1.362 . S
C156 C153 1.431 . S
C156 C166 1.476 . S
H157 C151 0.929 . S
C158 O149 1.250 . S
C158 O150 1.258 . S
O159 Mn144 2.162 . S
O159 C147 1.281 . S
O160 Mn144 2.297 . S
O160 C147 1.236 . S
N161 Mn145 2.282 . S
N161 C162 1.328 . S
N161 C166 1.318 . S
C162 N161 1.328 . S
C162 C163 1.457 . S
C162 H167 0.929 . S
C163 C162 1.457 . S
C163 C164 1.291 . S
C163 H176 0.922 1_455 S
C164 C163 1.291 . S
C164 C165 1.373 . S
C164 H177 0.929 1_455 S
C165 C164 1.373 . S
C165 C166 1.396 . S
C165 C172 1.403 . S
C166 C156 1.476 . S
C166 N161 1.318 . S
C166 C165 1.396 . S
H167 C162 0.929 . S
O168 Mn144 2.385 . S
O168 C146 1.234 . S
O169 Mn144 2.209 . S
O169 Mn145 2.215 . S
O169 C146 1.283 . S
O170 Mn144 2.094 . S
O170 C148 1.240 . S
O171 Mn145 2.117 . S
O171 C148 1.264 . S
C172 C165 1.403 . S
C172 C173 1.399 . S
C172 H178 0.929 . S
C173 C153 1.449 . S
C173 C172 1.399 . S
C173 H179 0.930 . S
H174 C154 0.931 . S
H175 C155 0.930 . S
H176 C163 0.922 1_655 S
H177 C164 0.929 1_655 S
H178 C172 0.929 . S
H179 C173 0.930 . S
Mn180 O185 2.095 . S
Mn180 O195 2.162 . S
Mn180 O196 2.297 . S
Mn180 O204 2.385 . S
Mn180 O205 2.209 . S
Mn180 O206 2.094 . S
Mn181 O186 2.121 . S
Mn181 N188 2.257 . S
Mn181 N197 2.282 . S
Mn181 O205 2.215 . S
Mn181 O207 2.117 . S
C182 O204 1.234 . S
C182 O205 1.283 . S
C183 O195 1.281 . S
C183 O196 1.236 . S
C184 O206 1.240 . S
C184 O207 1.264 . S
O185 Mn180 2.095 . S
O185 C194 1.250 . S
O186 Mn181 2.121 . S
O186 C194 1.258 . S
C187 N188 1.326 . S
C187 C191 1.460 . S
C187 H193 0.929 . S
N188 Mn181 2.257 . S
N188 C187 1.326 . S
N188 C192 1.362 . S
C189 C190 1.258 . S
C189 C192 1.431 . S
C189 C209 1.449 . S
C190 C189 1.258 . S
C190 C191 1.477 . S
C190 H210 0.931 . S
C191 C187 1.460 . S
C191 C190 1.477 . S
C191 H211 0.930 . S
C192 N188 1.362 . S
C192 C189 1.431 . S
C192 C202 1.476 . S
H193 C187 0.929 . S
C194 O185 1.250 . S
C194 O186 1.258 . S
O195 Mn180 2.162 . S
O195 C183 1.281 . S
O196 Mn180 2.297 . S
O196 C183 1.236 . S
N197 Mn181 2.282 . S
N197 C198 1.328 . S
N197 C202 1.318 . S
C198 N197 1.328 . S
C198 C199 1.457 . S
C198 H203 0.929 . S
C199 C198 1.457 . S
C199 C200 1.291 . S
C199 H212 0.931 . S
C200 C199 1.291 . S
C200 C201 1.373 . S
C200 H213 0.929 . S
C201 C200 1.373 . S
C201 C202 1.396 . S
C201 C208 1.403 . S
C202 C192 1.476 . S
C202 N197 1.318 . S
C202 C201 1.396 . S
H203 C198 0.929 . S
O204 Mn180 2.385 . S
O204 C182 1.234 . S
O205 Mn180 2.209 . S
O205 Mn181 2.215 . S
O205 C182 1.283 . S
O206 Mn180 2.094 . S
O206 C184 1.240 . S
O207 Mn181 2.117 . S
O207 C184 1.264 . S
C208 C201 1.403 . S
C208 C209 1.399 . S
C208 H214 0.929 . S
C209 C189 1.449 . S
C209 C208 1.399 . S
C209 H215 0.930 . S
H210 C190 0.931 . S
H211 C191 0.930 . S
H212 C199 0.931 . S
H213 C200 0.929 . S
H214 C208 0.929 . S
H215 C209 0.930 . S
Mn216 O221 2.095 . S
Mn216 O231 2.162 . S
Mn216 O232 2.297 . S
Mn216 O240 2.385 . S
Mn216 O241 2.209 . S
Mn216 O242 2.094 . S
Mn217 O222 2.121 . S
Mn217 N224 2.257 . S
Mn217 N233 2.282 . S
Mn217 O241 2.215 . S
Mn217 O243 2.117 . S
C218 O240 1.234 . S
C218 O241 1.283 . S
C219 O231 1.281 . S
C219 O232 1.236 . S
C220 O242 1.240 . S
C220 O243 1.264 . S
O221 Mn216 2.095 . S
O221 C230 1.250 . S
O222 Mn217 2.121 . S
O222 C230 1.258 . S
C223 N224 1.326 . S
C223 C227 1.460 . S
C223 H229 0.929 . S
N224 Mn217 2.257 . S
N224 C223 1.326 . S
N224 C228 1.362 . S
C225 C226 1.258 . S
C225 C228 1.431 . S
C225 C245 1.449 . S
C226 C225 1.258 . S
C226 C227 1.477 . S
C226 H246 0.931 . S
C227 C223 1.460 . S
C227 C226 1.477 . S
C227 H247 0.930 . S
C228 N224 1.362 . S
C228 C225 1.431 . S
C228 C238 1.476 . S
H229 C223 0.929 . S
C230 O221 1.250 . S
C230 O222 1.258 . S
O231 Mn216 2.162 . S
O231 C219 1.281 . S
O232 Mn216 2.297 . S
O232 C219 1.236 . S
N233 Mn217 2.282 . S
N233 C234 1.328 . S
N233 C238 1.318 . S
C234 N233 1.328 . S
C234 C235 1.457 . S
C234 H239 0.929 . S
C235 C234 1.457 . S
C235 C236 1.291 . S
C235 H248 0.931 . S
C236 C235 1.291 . S
C236 C237 1.373 . S
C236 H249 0.929 . S
C237 C236 1.373 . S
C237 C238 1.396 . S
C237 C244 1.403 . S
C238 C228 1.476 . S
C238 N233 1.318 . S
C238 C237 1.396 . S
H239 C234 0.929 . S
O240 Mn216 2.385 . S
O240 C218 1.234 . S
O241 Mn216 2.209 . S
O241 Mn217 2.215 . S
O241 C218 1.283 . S
O242 Mn216 2.094 . S
O242 C220 1.240 . S
O243 Mn217 2.117 . S
O243 C220 1.264 . S
C244 C237 1.403 . S
C244 C245 1.399 . S
C244 H250 0.929 . S
C245 C225 1.449 . S
C245 C244 1.399 . S
C245 H251 0.930 . S
H246 C226 0.931 . S
H247 C227 0.930 . S
H248 C235 0.931 . S
H249 C236 0.929 . S
H250 C244 0.929 . S
H251 C245 0.930 . S
Mn252 O257 2.042 1_655 S
Mn252 O267 2.154 . S
Mn252 O268 2.289 . S
Mn252 O276 2.444 . S
Mn252 O277 2.236 . S
Mn252 O278 2.103 1_655 S
Mn253 O258 2.121 . S
Mn253 N260 2.257 1_455 S
Mn253 N269 2.282 1_455 S
Mn253 O277 2.215 1_455 S
Mn253 O279 2.117 . S
C254 O276 1.234 . S
C254 O277 1.283 . S
C255 O267 1.281 . S
C255 O268 1.236 . S
C256 O278 1.240 . S
C256 O279 1.264 . S
O257 Mn252 2.042 1_455 S
O257 C266 1.250 . S
O258 Mn253 2.121 . S
O258 C266 1.258 . S
C259 N260 1.310 1_455 S
C259 C263 1.454 1_455 S
C259 H265 0.951 . S
N260 Mn253 2.257 1_655 S
N260 C259 1.310 1_655 S
N260 C264 1.362 . S
C261 C262 1.258 . S
C261 C264 1.431 . S
C261 C281 1.449 . S
C262 C261 1.258 . S
C262 C263 1.477 . S
C262 H282 0.931 . S
C263 C259 1.454 1_655 S
C263 C262 1.477 . S
C263 H283 0.942 . S
C264 N260 1.362 . S
C264 C261 1.431 . S
C264 C274 1.476 . S
H265 C259 0.951 . S
C266 O257 1.250 . S
C266 O258 1.258 . S
O267 Mn252 2.154 . S
O267 C255 1.281 . S
O268 Mn252 2.289 . S
O268 C255 1.236 . S
N269 Mn253 2.282 1_655 S
N269 C270 1.328 . S
N269 C274 1.318 . S
C270 N269 1.328 . S
C270 C271 1.457 . S
C270 H275 0.929 . S
C271 C270 1.457 . S
C271 C272 1.291 . S
C271 H284 0.931 . S
C272 C271 1.291 . S
C272 C273 1.373 . S
C272 H285 0.929 . S
C273 C272 1.373 . S
C273 C274 1.396 . S
C273 C280 1.403 . S
C274 C264 1.476 . S
C274 N269 1.318 . S
C274 C273 1.396 . S
H275 C270 0.929 . S
O276 Mn252 2.444 . S
O276 C254 1.234 . S
O277 Mn252 2.236 . S
O277 Mn253 2.215 1_655 S
O277 C254 1.283 . S
O278 Mn252 2.103 1_455 S
O278 C256 1.240 . S
O279 Mn253 2.117 . S
O279 C256 1.264 . S
C280 C273 1.403 . S
C280 C281 1.399 . S
C280 H286 0.929 . S
C281 C261 1.449 . S
C281 C280 1.399 . S
C281 H287 0.930 . S
H282 C262 0.931 . S
H283 C263 0.942 . S
H284 C271 0.931 . S
H285 C272 0.929 . S
H286 C280 0.929 . S
H287 C281 0.930 . S
Mn288 O293 2.095 . S
Mn288 O303 2.162 . S
Mn288 O304 2.297 . S
Mn288 O312 2.385 1_545 S
Mn288 O313 2.209 . S
Mn288 O314 2.094 . S
Mn289 O294 2.121 . S
Mn289 N296 2.257 . S
Mn289 N305 2.282 1_545 S
Mn289 O313 2.215 . S
Mn289 O315 2.117 . S
C290 O312 1.234 . S
C290 O313 1.283 1_565 S
C291 O303 1.281 . S
C291 O304 1.236 . S
C292 O314 1.240 . S
C292 O315 1.264 . S
O293 Mn288 2.095 . S
O293 C302 1.250 . S
O294 Mn289 2.121 . S
O294 C302 1.258 . S
C295 N296 1.326 . S
C295 C299 1.460 . S
C295 H301 0.929 . S
N296 Mn289 2.257 . S
N296 C295 1.326 . S
N296 C300 1.362 1_545 S
C297 C298 1.258 . S
C297 C300 1.431 . S
C297 C317 1.449 . S
C298 C297 1.258 . S
C298 C299 1.477 1_565 S
C298 H318 0.931 . S
C299 C295 1.460 . S
C299 C298 1.477 1_545 S
C299 H319 0.930 . S
C300 N296 1.362 1_565 S
C300 C297 1.431 . S
C300 C310 1.476 . S
H301 C295 0.929 . S
C302 O293 1.250 . S
C302 O294 1.258 . S
O303 Mn288 2.162 . S
O303 C291 1.281 . S
O304 Mn288 2.297 . S
O304 C291 1.236 . S
N305 Mn289 2.282 1_565 S
N305 C306 1.328 . S
N305 C310 1.318 . S
C306 N305 1.328 . S
C306 C307 1.457 . S
C306 H311 0.929 . S
C307 C306 1.457 . S
C307 C308 1.291 . S
C307 H320 0.931 . S
C308 C307 1.291 . S
C308 C309 1.373 . S
C308 H321 0.929 . S
C309 C308 1.373 . S
C309 C310 1.396 . S
C309 C316 1.403 . S
C310 C300 1.476 . S
C310 N305 1.318 . S
C310 C309 1.396 . S
H311 C306 0.929 . S
O312 Mn288 2.385 1_565 S
O312 C290 1.234 . S
O313 Mn288 2.209 . S
O313 Mn289 2.215 . S
O313 C290 1.283 1_545 S
O314 Mn288 2.094 . S
O314 C292 1.240 . S
O315 Mn289 2.117 . S
O315 C292 1.264 . S
C316 C309 1.403 . S
C316 C317 1.399 . S
C316 H322 0.929 . S
C317 C297 1.449 . S
C317 C316 1.399 . S
C317 H323 0.930 . S
H318 C298 0.931 . S
H319 C299 0.930 . S
H320 C307 0.931 . S
H321 C308 0.929 . S
H322 C316 0.929 . S
H323 C317 0.930 . S
Mn324 O329 2.095 . S
Mn324 O339 2.162 . S
Mn324 O340 2.297 . S
Mn324 O348 2.385 . S
Mn324 O349 2.209 . S
Mn324 O350 2.094 . S
Mn325 O330 2.121 . S
Mn325 N332 2.257 . S
Mn325 N341 2.282 . S
Mn325 O349 2.215 . S
Mn325 O351 2.117 . S
C326 O348 1.234 . S
C326 O349 1.283 . S
C327 O339 1.281 . S
C327 O340 1.236 . S
C328 O350 1.240 . S
C328 O351 1.264 . S
O329 Mn324 2.095 . S
O329 C338 1.250 . S
O330 Mn325 2.121 . S
O330 C338 1.258 . S
C331 N332 1.326 . S
C331 C335 1.460 . S
C331 H337 0.929 . S
N332 Mn325 2.257 . S
N332 C331 1.326 . S
N332 C336 1.362 . S
C333 C334 1.258 . S
C333 C336 1.431 . S
C333 C353 1.449 . S
C334 C333 1.258 . S
C334 C335 1.477 . S
C334 H354 0.931 . S
C335 C331 1.460 . S
C335 C334 1.477 . S
C335 H355 0.930 . S
C336 N332 1.362 . S
C336 C333 1.431 . S
C336 C346 1.476 . S
H337 C331 0.929 . S
C338 O329 1.250 . S
C338 O330 1.258 . S
O339 Mn324 2.162 . S
O339 C327 1.281 . S
O340 Mn324 2.297 . S
O340 C327 1.236 . S
N341 Mn325 2.282 . S
N341 C342 1.328 . S
N341 C346 1.318 . S
C342 N341 1.328 . S
C342 C343 1.457 . S
C342 H347 0.929 . S
C343 C342 1.457 . S
C343 C344 1.291 . S
C343 H356 0.931 . S
C344 C343 1.291 . S
C344 C345 1.373 . S
C344 H357 0.929 . S
C345 C344 1.373 . S
C345 C346 1.396 . S
C345 C352 1.403 . S
C346 C336 1.476 . S
C346 N341 1.318 . S
C346 C345 1.396 . S
H347 C342 0.929 . S
O348 Mn324 2.385 . S
O348 C326 1.234 . S
O349 Mn324 2.209 . S
O349 Mn325 2.215 . S
O349 C326 1.283 . S
O350 Mn324 2.094 . S
O350 C328 1.240 . S
O351 Mn325 2.117 . S
O351 C328 1.264 . S
C352 C345 1.403 . S
C352 C353 1.399 . S
C352 H358 0.929 . S
C353 C333 1.449 . S
C353 C352 1.399 . S
C353 H359 0.930 . S
H354 C334 0.931 . S
H355 C335 0.930 . S
H356 C343 0.931 . S
H357 C344 0.929 . S
H358 C352 0.929 . S
H359 C353 0.930 . S
Mn360 O365 2.095 . S
Mn360 O375 2.162 . S
Mn360 O376 2.297 . S
Mn360 O384 2.385 . S
Mn360 O385 2.209 . S
Mn360 O386 2.094 . S
Mn361 O366 2.121 . S
Mn361 N368 2.257 . S
Mn361 N377 2.282 . S
Mn361 O385 2.215 . S
Mn361 O387 2.117 . S
C362 O384 1.234 . S
C362 O385 1.283 . S
C363 O375 1.281 . S
C363 O376 1.236 . S
C364 O386 1.240 . S
C364 O387 1.264 . S
O365 Mn360 2.095 . S
O365 C374 1.250 . S
O366 Mn361 2.121 . S
O366 C374 1.258 . S
C367 N368 1.326 . S
C367 C371 1.460 . S
C367 H373 0.929 . S
N368 Mn361 2.257 . S
N368 C367 1.326 . S
N368 C372 1.362 . S
C369 C370 1.258 . S
C369 C372 1.431 . S
C369 C389 1.449 . S
C370 C369 1.258 . S
C370 C371 1.477 . S
C370 H390 0.931 . S
C371 C367 1.460 . S
C371 C370 1.477 . S
C371 H391 0.930 . S
C372 N368 1.362 . S
C372 C369 1.431 . S
C372 C382 1.476 . S
H373 C367 0.929 . S
C374 O365 1.250 . S
C374 O366 1.258 . S
O375 Mn360 2.162 . S
O375 C363 1.281 . S
O376 Mn360 2.297 . S
O376 C363 1.236 . S
N377 Mn361 2.282 . S
N377 C378 1.328 . S
N377 C382 1.318 . S
C378 N377 1.328 . S
C378 C379 1.457 . S
C378 H383 0.929 . S
C379 C378 1.457 . S
C379 C380 1.291 . S
C379 H392 0.931 . S
C380 C379 1.291 . S
C380 C381 1.373 . S
C380 H393 0.929 . S
C381 C380 1.373 . S
C381 C382 1.396 . S
C381 C388 1.403 . S
C382 C372 1.476 . S
C382 N377 1.318 . S
C382 C381 1.396 . S
H383 C378 0.929 . S
O384 Mn360 2.385 . S
O384 C362 1.234 . S
O385 Mn360 2.209 . S
O385 Mn361 2.215 . S
O385 C362 1.283 . S
O386 Mn360 2.094 . S
O386 C364 1.240 . S
O387 Mn361 2.117 . S
O387 C364 1.264 . S
C388 C381 1.403 . S
C388 C389 1.399 . S
C388 H394 0.929 . S
C389 C369 1.449 . S
C389 C388 1.399 . S
C389 H395 0.930 . S
H390 C370 0.931 . S
H391 C371 0.930 . S
H392 C379 0.931 . S
H393 C380 0.929 . S
H394 C388 0.929 . S
H395 C389 0.930 . S
Mn396 O401 2.095 1_554 S
Mn396 O411 2.162 . S
Mn396 O412 2.297 . S
Mn396 O420 2.385 . S
Mn396 O421 2.197 1_554 S
Mn396 O422 2.094 1_554 S
Mn397 O402 2.121 . S
Mn397 N404 2.257 . S
Mn397 N413 2.282 . S
Mn397 O421 2.266 . S
Mn397 O423 2.117 . S
C398 O420 1.234 . S
C398 O421 1.275 1_554 S
C399 O411 1.281 . S
C399 O412 1.236 . S
C400 O422 1.240 . S
C400 O423 1.264 . S
O401 Mn396 2.095 1_556 S
O401 C410 1.250 . S
O402 Mn397 2.121 . S
O402 C410 1.258 . S
C403 N404 1.326 . S
C403 C407 1.460 1_565 S
C403 H409 0.929 . S
N404 Mn397 2.257 . S
N404 C403 1.326 . S
N404 C408 1.362 . S
C405 C406 1.258 . S
C405 C408 1.431 1_545 S
C405 C425 1.449 . S
C406 C405 1.258 . S
C406 C407 1.477 . S
C406 H426 0.931 . S
C407 C403 1.460 1_545 S
C407 C406 1.477 . S
C407 H427 0.930 . S
C408 N404 1.362 . S
C408 C405 1.431 1_565 S
C408 C418 1.476 . S
H409 C403 0.929 . S
C410 O401 1.250 . S
C410 O402 1.258 . S
O411 Mn396 2.162 . S
O411 C399 1.281 . S
O412 Mn396 2.297 . S
O412 C399 1.236 . S
N413 Mn397 2.282 . S
N413 C414 1.328 . S
N413 C418 1.318 . S
C414 N413 1.328 . S
C414 C415 1.457 . S
C414 H419 0.929 . S
C415 C414 1.457 . S
C415 C416 1.291 . S
C415 H428 0.931 . S
C416 C415 1.291 . S
C416 C417 1.373 . S
C416 H429 0.929 . S
C417 C416 1.373 . S
C417 C418 1.396 . S
C417 C424 1.410 . S
C418 C408 1.476 . S
C418 N413 1.318 . S
C418 C417 1.396 . S
H419 C414 0.929 . S
O420 Mn396 2.385 . S
O420 C398 1.234 . S
O421 Mn396 2.197 1_556 S
O421 Mn397 2.266 . S
O421 C398 1.275 1_556 S
O422 Mn396 2.094 1_556 S
O422 C400 1.240 . S
O423 Mn397 2.117 . S
O423 C400 1.264 . S
C424 C417 1.410 . S
C424 C425 1.392 1_565 S
C424 H430 0.929 1_565 S
C425 C405 1.449 . S
C425 C424 1.392 1_545 S
C425 H431 0.930 . S
H426 C406 0.931 . S
H427 C407 0.930 . S
H428 C415 0.931 . S
H429 C416 0.929 . S
H430 C424 0.929 1_545 S
H431 C425 0.930 . S
Mn432 O437 2.095 . S
Mn432 O447 2.162 . S
Mn432 O448 2.297 . S
Mn432 O456 2.385 . S
Mn432 O457 2.209 . S
Mn432 O458 2.094 . S
Mn433 O438 2.121 1_556 S
Mn433 N440 2.257 1_556 S
Mn433 N449 2.282 . S
Mn433 O457 2.215 1_556 S
Mn433 O459 2.117 . S
C434 O456 1.234 . S
C434 O457 1.283 . S
C435 O447 1.281 . S
C435 O448 1.236 . S
C436 O458 1.240 1_556 S
C436 O459 1.264 . S
O437 Mn432 2.095 . S
O437 C446 1.250 . S
O438 Mn433 2.121 1_554 S
O438 C446 1.258 . S
C439 N440 1.326 . S
C439 C443 1.460 . S
C439 H445 0.929 . S
N440 Mn433 2.257 1_554 S
N440 C439 1.326 . S
N440 C444 1.362 1_554 S
C441 C442 1.258 1_556 S
C441 C444 1.431 . S
C441 C461 1.449 . S
C442 C441 1.258 1_554 S
C442 C443 1.477 . S
C442 H462 0.931 . S
C443 C439 1.460 . S
C443 C442 1.477 . S
C443 H463 0.930 . S
C444 N440 1.362 1_556 S
C444 C441 1.431 . S
C444 C454 1.476 . S
H445 C439 0.929 . S
C446 O437 1.250 . S
C446 O438 1.258 . S
O447 Mn432 2.162 . S
O447 C435 1.281 . S
O448 Mn432 2.297 . S
O448 C435 1.236 . S
N449 Mn433 2.282 . S
N449 C450 1.328 . S
N449 C454 1.318 . S
C450 N449 1.328 . S
C450 C451 1.457 . S
C450 H455 0.929 . S
C451 C450 1.457 . S
C451 C452 1.291 . S
C451 H464 0.931 . S
C452 C451 1.291 . S
C452 C453 1.373 . S
C452 H465 0.929 . S
C453 C452 1.373 . S
C453 C454 1.396 . S
C453 C460 1.403 . S
C454 C444 1.476 . S
C454 N449 1.318 . S
C454 C453 1.396 . S
H455 C450 0.929 . S
O456 Mn432 2.385 . S
O456 C434 1.234 . S
O457 Mn432 2.209 . S
O457 Mn433 2.215 1_554 S
O457 C434 1.283 . S
O458 Mn432 2.094 . S
O458 C436 1.240 1_554 S
O459 Mn433 2.117 . S
O459 C436 1.264 . S
C460 C453 1.403 . S
C460 C461 1.399 . S
C460 H466 0.929 . S
C461 C441 1.449 . S
C461 C460 1.399 . S
C461 H467 0.930 . S
H462 C442 0.931 . S
H463 C443 0.930 . S
H464 C451 0.931 . S
H465 C452 0.929 . S
H466 C460 0.929 . S
H467 C461 0.930 . S
Mn468 O473 2.095 . S
Mn468 O483 2.162 . S
Mn468 O484 2.297 . S
Mn468 O492 2.385 . S
Mn468 O493 2.209 . S
Mn468 O494 2.094 . S
Mn469 O474 2.121 . S
Mn469 N476 2.257 . S
Mn469 N485 2.282 . S
Mn469 O493 2.215 . S
Mn469 O495 2.117 . S
C470 O492 1.234 . S
C470 O493 1.283 . S
C471 O483 1.281 . S
C471 O484 1.236 . S
C472 O494 1.240 . S
C472 O495 1.264 . S
O473 Mn468 2.095 . S
O473 C482 1.250 . S
O474 Mn469 2.121 . S
O474 C482 1.258 . S
C475 N476 1.326 . S
C475 C479 1.460 . S
C475 H481 0.929 . S
N476 Mn469 2.257 . S
N476 C475 1.326 . S
N476 C480 1.362 . S
C477 C478 1.258 . S
C477 C480 1.431 . S
C477 C497 1.449 . S
C478 C477 1.258 . S
C478 C479 1.477 . S
C478 H498 0.931 . S
C479 C475 1.460 . S
C479 C478 1.477 . S
C479 H499 0.930 . S
C480 N476 1.362 . S
C480 C477 1.431 . S
C480 C490 1.476 . S
H481 C475 0.929 . S
C482 O473 1.250 . S
C482 O474 1.258 . S
O483 Mn468 2.162 . S
O483 C471 1.281 . S
O484 Mn468 2.297 . S
O484 C471 1.236 . S
N485 Mn469 2.282 . S
N485 C486 1.328 1_554 S
N485 C490 1.318 . S
C486 N485 1.328 1_556 S
C486 C487 1.457 . S
C486 H491 0.929 . S
C487 C486 1.457 . S
C487 C488 1.291 . S
C487 H500 0.931 . S
C488 C487 1.291 . S
C488 C489 1.373 . S
C488 H501 0.929 . S
C489 C488 1.373 . S
C489 C490 1.396 1_556 S
C489 C496 1.403 . S
C490 C480 1.476 . S
C490 N485 1.318 . S
C490 C489 1.396 1_554 S
H491 C486 0.929 . S
O492 Mn468 2.385 . S
O492 C470 1.234 . S
O493 Mn468 2.209 . S
O493 Mn469 2.215 . S
O493 C470 1.283 . S
O494 Mn468 2.094 . S
O494 C472 1.240 . S
O495 Mn469 2.117 . S
O495 C472 1.264 . S
C496 C489 1.403 . S
C496 C497 1.399 1_556 S
C496 H502 0.929 . S
C497 C477 1.449 . S
C497 C496 1.399 1_554 S
C497 H503 0.930 . S
H498 C478 0.931 . S
H499 C479 0.930 . S
H500 C487 0.931 . S
H501 C488 0.929 . S
H502 C496 0.929 . S
H503 C497 0.930 . S
Mn504 O509 2.095 . S
Mn504 O519 2.162 . S
Mn504 O520 2.297 . S
Mn504 O528 2.385 . S
Mn504 O529 2.209 . S
Mn504 O530 2.094 . S
Mn505 O510 2.121 . S
Mn505 N512 2.257 . S
Mn505 N521 2.282 . S
Mn505 O529 2.215 . S
Mn505 O531 2.117 . S
C506 O528 1.234 . S
C506 O529 1.283 . S
C507 O519 1.281 . S
C507 O520 1.236 . S
C508 O530 1.240 . S
C508 O531 1.264 . S
O509 Mn504 2.095 . S
O509 C518 1.250 . S
O510 Mn505 2.121 . S
O510 C518 1.258 . S
C511 N512 1.326 . S
C511 C515 1.460 . S
C511 H517 0.929 . S
N512 Mn505 2.257 . S
N512 C511 1.326 . S
N512 C516 1.362 . S
C513 C514 1.258 . S
C513 C516 1.431 . S
C513 C533 1.449 . S
C514 C513 1.258 . S
C514 C515 1.477 . S
C514 H534 0.931 . S
C515 C511 1.460 . S
C515 C514 1.477 . S
C515 H535 0.930 . S
C516 N512 1.362 . S
C516 C513 1.431 . S
C516 C526 1.476 . S
H517 C511 0.929 . S
C518 O509 1.250 . S
C518 O510 1.258 . S
O519 Mn504 2.162 . S
O519 C507 1.281 . S
O520 Mn504 2.297 . S
O520 C507 1.236 . S
N521 Mn505 2.282 . S
N521 C522 1.328 . S
N521 C526 1.318 . S
C522 N521 1.328 . S
C522 C523 1.457 . S
C522 H527 0.929 . S
C523 C522 1.457 . S
C523 C524 1.291 . S
C523 H536 0.931 . S
C524 C523 1.291 . S
C524 C525 1.373 . S
C524 H537 0.929 . S
C525 C524 1.373 . S
C525 C526 1.396 . S
C525 C532 1.403 . S
C526 C516 1.476 . S
C526 N521 1.318 . S
C526 C525 1.396 . S
H527 C522 0.929 . S
O528 Mn504 2.385 . S
O528 C506 1.234 . S
O529 Mn504 2.209 . S
O529 Mn505 2.215 . S
O529 C506 1.283 . S
O530 Mn504 2.094 . S
O530 C508 1.240 . S
O531 Mn505 2.117 . S
O531 C508 1.264 . S
C532 C525 1.403 . S
C532 C533 1.399 . S
C532 H538 0.929 . S
C533 C513 1.449 . S
C533 C532 1.399 . S
C533 H539 0.930 . S
H534 C514 0.931 . S
H535 C515 0.930 . S
H536 C523 0.931 . S
H537 C524 0.929 . S
H538 C532 0.929 . S
H539 C533 0.930 . S
Mn540 O545 2.095 . S
Mn540 O555 2.162 . S
Mn540 O556 2.297 . S
Mn540 O564 2.385 . S
Mn540 O565 2.209 . S
Mn540 O566 2.094 . S
Mn541 O546 2.121 . S
Mn541 N548 2.257 . S
Mn541 N557 2.282 . S
Mn541 O565 2.215 . S
Mn541 O567 2.117 . S
C542 O564 1.234 . S
C542 O565 1.283 . S
C543 O555 1.281 . S
C543 O556 1.236 . S
C544 O566 1.240 . S
C544 O567 1.264 . S
O545 Mn540 2.095 . S
O545 C554 1.250 . S
O546 Mn541 2.121 . S
O546 C554 1.258 . S
C547 N548 1.326 . S
C547 C551 1.460 . S
C547 H553 0.929 . S
N548 Mn541 2.257 . S
N548 C547 1.326 . S
N548 C552 1.362 . S
C549 C550 1.258 . S
C549 C552 1.431 . S
C549 C569 1.449 . S
C550 C549 1.258 . S
C550 C551 1.477 . S
C550 H570 0.931 . S
C551 C547 1.460 . S
C551 C550 1.477 . S
C551 H571 0.930 . S
C552 N548 1.362 . S
C552 C549 1.431 . S
C552 C562 1.476 . S
H553 C547 0.929 . S
C554 O545 1.250 . S
C554 O546 1.258 . S
O555 Mn540 2.162 . S
O555 C543 1.281 . S
O556 Mn540 2.297 . S
O556 C543 1.236 . S
N557 Mn541 2.282 . S
N557 C558 1.328 . S
N557 C562 1.318 . S
C558 N557 1.328 . S
C558 C559 1.457 . S
C558 H563 0.929 . S
C559 C558 1.457 . S
C559 C560 1.291 . S
C559 H572 0.931 . S
C560 C559 1.291 . S
C560 C561 1.373 . S
C560 H573 0.929 . S
C561 C560 1.373 . S
C561 C562 1.396 . S
C561 C568 1.403 . S
C562 C552 1.476 . S
C562 N557 1.318 . S
C562 C561 1.396 . S
H563 C558 0.929 . S
O564 Mn540 2.385 . S
O564 C542 1.234 . S
O565 Mn540 2.209 . S
O565 Mn541 2.215 . S
O565 C542 1.283 . S
O566 Mn540 2.094 . S
O566 C544 1.240 . S
O567 Mn541 2.117 . S
O567 C544 1.264 . S
C568 C561 1.403 . S
C568 C569 1.399 . S
C568 H574 0.929 . S
C569 C549 1.449 . S
C569 C568 1.399 . S
C569 H575 0.930 . S
H570 C550 0.931 . S
H571 C551 0.930 . S
H572 C559 0.931 . S
H573 C560 0.929 . S
H574 C568 0.929 . S
H575 C569 0.930 . S
Mn576 O581 2.095 . S
Mn576 O591 2.162 . S
Mn576 O592 2.297 . S
Mn576 O600 2.385 1_545 S
Mn576 O601 2.209 1_545 S
Mn576 O602 2.094 . S
Mn577 O582 2.121 . S
Mn577 N584 2.257 1_545 S
Mn577 N593 2.282 1_545 S
Mn577 O601 2.215 1_545 S
Mn577 O603 2.117 . S
C578 O600 1.234 . S
C578 O601 1.283 . S
C579 O591 1.281 . S
C579 O592 1.236 . S
C580 O602 1.240 . S
C580 O603 1.264 . S
O581 Mn576 2.095 . S
O581 C590 1.250 . S
O582 Mn577 2.121 . S
O582 C590 1.258 . S
C583 N584 1.326 . S
C583 C587 1.460 . S
C583 H589 0.929 1_565 S
N584 Mn577 2.257 1_565 S
N584 C583 1.326 . S
N584 C588 1.362 . S
C585 C586 1.258 . S
C585 C588 1.431 . S
C585 C605 1.449 . S
C586 C585 1.258 . S
C586 C587 1.477 . S
C586 H606 0.931 . S
C587 C583 1.460 . S
C587 C586 1.477 . S
C587 H607 0.930 . S
C588 N584 1.362 . S
C588 C585 1.431 . S
C588 C598 1.476 . S
H589 C583 0.929 1_545 S
C590 O581 1.250 . S
C590 O582 1.258 . S
O591 Mn576 2.162 . S
O591 C579 1.281 . S
O592 Mn576 2.297 . S
O592 C579 1.236 . S
N593 Mn577 2.282 1_565 S
N593 C594 1.328 . S
N593 C598 1.318 . S
C594 N593 1.328 . S
C594 C595 1.457 . S
C594 H599 0.929 . S
C595 C594 1.457 . S
C595 C596 1.291 . S
C595 H608 0.931 . S
C596 C595 1.291 . S
C596 C597 1.373 . S
C596 H609 0.929 . S
C597 C596 1.373 . S
C597 C598 1.396 . S
C597 C604 1.403 . S
C598 C588 1.476 . S
C598 N593 1.318 . S
C598 C597 1.396 . S
H599 C594 0.929 . S
O600 Mn576 2.385 1_565 S
O600 C578 1.234 . S
O601 Mn576 2.209 1_565 S
O601 Mn577 2.215 1_565 S
O601 C578 1.283 . S
O602 Mn576 2.094 . S
O602 C580 1.240 . S
O603 Mn577 2.117 . S
O603 C580 1.264 . S
C604 C597 1.403 . S
C604 C605 1.399 . S
C604 H610 0.929 . S
C605 C585 1.449 . S
C605 C604 1.399 . S
C605 H611 0.930 . S
H606 C586 0.931 . S
H607 C587 0.930 . S
H608 C595 0.931 . S
H609 C596 0.929 . S
H610 C604 0.929 . S
H611 C605 0.930 . S
Mn612 O617 2.095 . S
Mn612 O627 2.162 . S
Mn612 O628 2.297 . S
Mn612 O636 2.385 . S
Mn612 O637 2.209 . S
Mn612 O638 2.094 . S
Mn613 O618 2.121 . S
Mn613 N620 2.257 . S
Mn613 N629 2.282 . S
Mn613 O637 2.215 . S
Mn613 O639 2.117 . S
C614 O636 1.234 . S
C614 O637 1.283 . S
C615 O627 1.281 . S
C615 O628 1.236 . S
C616 O638 1.240 . S
C616 O639 1.264 . S
O617 Mn612 2.095 . S
O617 C626 1.250 . S
O618 Mn613 2.121 . S
O618 C626 1.258 . S
C619 N620 1.326 . S
C619 C623 1.460 . S
C619 H625 0.929 . S
N620 Mn613 2.257 . S
N620 C619 1.326 . S
N620 C624 1.362 . S
C621 C622 1.258 . S
C621 C624 1.431 . S
C621 C641 1.449 . S
C622 C621 1.258 . S
C622 C623 1.477 . S
C622 H642 0.931 . S
C623 C619 1.460 . S
C623 C622 1.477 . S
C623 H643 0.930 . S
C624 N620 1.362 . S
C624 C621 1.431 . S
C624 C634 1.476 . S
H625 C619 0.929 . S
C626 O617 1.250 . S
C626 O618 1.258 . S
O627 Mn612 2.162 . S
O627 C615 1.281 . S
O628 Mn612 2.297 . S
O628 C615 1.236 . S
N629 Mn613 2.282 . S
N629 C630 1.328 . S
N629 C634 1.318 . S
C630 N629 1.328 . S
C630 C631 1.457 . S
C630 H635 0.929 . S
C631 C630 1.457 . S
C631 C632 1.291 . S
C631 H644 0.931 . S
C632 C631 1.291 . S
C632 C633 1.373 . S
C632 H645 0.929 . S
C633 C632 1.373 . S
C633 C634 1.396 . S
C633 C640 1.403 . S
C634 C624 1.476 . S
C634 N629 1.318 . S
C634 C633 1.396 . S
H635 C630 0.929 . S
O636 Mn612 2.385 . S
O636 C614 1.234 . S
O637 Mn612 2.209 . S
O637 Mn613 2.215 . S
O637 C614 1.283 . S
O638 Mn612 2.094 . S
O638 C616 1.240 . S
O639 Mn613 2.117 . S
O639 C616 1.264 . S
C640 C633 1.403 . S
C640 C641 1.399 . S
C640 H646 0.929 . S
C641 C621 1.449 . S
C641 C640 1.399 . S
C641 H647 0.930 . S
H642 C622 0.931 . S
H643 C623 0.930 . S
H644 C631 0.931 . S
H645 C632 0.929 . S
H646 C640 0.929 . S
H647 C641 0.930 . S
Mn648 O653 2.095 . S
Mn648 O663 2.162 . S
Mn648 O664 2.297 . S
Mn648 O672 2.385 . S
Mn648 O673 2.209 . S
Mn648 O674 2.094 . S
Mn649 O654 2.121 . S
Mn649 N656 2.257 . S
Mn649 N665 2.282 . S
Mn649 O673 2.215 . S
Mn649 O675 2.117 . S
C650 O672 1.234 . S
C650 O673 1.283 . S
C651 O663 1.281 . S
C651 O664 1.236 . S
C652 O674 1.240 . S
C652 O675 1.264 . S
O653 Mn648 2.095 . S
O653 C662 1.250 . S
O654 Mn649 2.121 . S
O654 C662 1.258 . S
C655 N656 1.326 . S
C655 C659 1.460 . S
C655 H661 0.929 . S
N656 Mn649 2.257 . S
N656 C655 1.326 . S
N656 C660 1.362 . S
C657 C658 1.258 . S
C657 C660 1.431 . S
C657 C677 1.449 . S
C658 C657 1.258 . S
C658 C659 1.477 . S
C658 H678 0.931 . S
C659 C655 1.460 . S
C659 C658 1.477 . S
C659 H679 0.930 . S
C660 N656 1.362 . S
C660 C657 1.431 . S
C660 C670 1.476 . S
H661 C655 0.929 . S
C662 O653 1.250 . S
C662 O654 1.258 . S
O663 Mn648 2.162 . S
O663 C651 1.281 . S
O664 Mn648 2.297 . S
O664 C651 1.236 . S
N665 Mn649 2.282 . S
N665 C666 1.328 . S
N665 C670 1.318 . S
C666 N665 1.328 . S
C666 C667 1.457 . S
C666 H671 0.929 . S
C667 C666 1.457 . S
C667 C668 1.291 . S
C667 H680 0.931 . S
C668 C667 1.291 . S
C668 C669 1.373 . S
C668 H681 0.929 . S
C669 C668 1.373 . S
C669 C670 1.396 . S
C669 C676 1.403 . S
C670 C660 1.476 . S
C670 N665 1.318 . S
C670 C669 1.396 . S
H671 C666 0.929 . S
O672 Mn648 2.385 . S
O672 C650 1.234 . S
O673 Mn648 2.209 . S
O673 Mn649 2.215 . S
O673 C650 1.283 . S
O674 Mn648 2.094 . S
O674 C652 1.240 . S
O675 Mn649 2.117 . S
O675 C652 1.264 . S
C676 C669 1.403 . S
C676 C677 1.399 . S
C676 H682 0.929 . S
C677 C657 1.449 . S
C677 C676 1.399 . S
C677 H683 0.930 . S
H678 C658 0.931 . S
H679 C659 0.930 . S
H680 C667 0.931 . S
H681 C668 0.929 . S
H682 C676 0.929 . S
H683 C677 0.930 . S
Mn684 O689 2.095 1_545 S
Mn684 O699 2.162 . S
Mn684 O700 2.297 . S
Mn684 O708 2.385 . S
Mn684 O709 2.209 . S
Mn684 O710 2.094 . S
Mn685 O690 2.121 . S
Mn685 N692 2.257 . S
Mn685 N701 2.282 . S
Mn685 O709 2.215 . S
Mn685 O711 2.117 . S
C686 O708 1.234 . S
C686 O709 1.283 . S
C687 O699 1.281 . S
C687 O700 1.236 . S
C688 O710 1.240 . S
C688 O711 1.264 . S
O689 Mn684 2.095 1_565 S
O689 C698 1.250 . S
O690 Mn685 2.121 . S
O690 C698 1.258 1_545 S
C691 N692 1.326 . S
C691 C695 1.460 . S
C691 H697 0.929 . S
N692 Mn685 2.257 . S
N692 C691 1.326 . S
N692 C696 1.362 . S
C693 C694 1.258 . S
C693 C696 1.431 . S
C693 C713 1.449 . S
C694 C693 1.258 . S
C694 C695 1.477 . S
C694 H714 0.931 . S
C695 C691 1.460 . S
C695 C694 1.477 . S
C695 H715 0.930 . S
C696 N692 1.362 . S
C696 C693 1.431 . S
C696 C706 1.476 . S
H697 C691 0.929 . S
C698 O689 1.250 . S
C698 O690 1.258 1_565 S
O699 Mn684 2.162 . S
O699 C687 1.281 . S
O700 Mn684 2.297 . S
O700 C687 1.236 . S
N701 Mn685 2.282 . S
N701 C702 1.328 . S
N701 C706 1.318 . S
C702 N701 1.328 . S
C702 C703 1.457 . S
C702 H707 0.929 . S
C703 C702 1.457 . S
C703 C704 1.291 . S
C703 H716 0.931 . S
C704 C703 1.291 . S
C704 C705 1.373 . S
C704 H717 0.929 . S
C705 C704 1.373 . S
C705 C706 1.396 . S
C705 C712 1.403 . S
C706 C696 1.476 . S
C706 N701 1.318 . S
C706 C705 1.396 . S
H707 C702 0.929 . S
O708 Mn684 2.385 . S
O708 C686 1.234 . S
O709 Mn684 2.209 . S
O709 Mn685 2.215 . S
O709 C686 1.283 . S
O710 Mn684 2.094 . S
O710 C688 1.240 . S
O711 Mn685 2.117 . S
O711 C688 1.264 . S
C712 C705 1.403 . S
C712 C713 1.399 . S
C712 H718 0.929 . S
C713 C693 1.449 . S
C713 C712 1.399 . S
C713 H719 0.930 . S
H714 C694 0.931 . S
H715 C695 0.930 . S
H716 C703 0.931 . S
H717 C704 0.929 . S
H718 C712 0.929 . S
H719 C713 0.930 . S
Mn720 O725 2.095 . S
Mn720 O735 2.162 . S
Mn720 O736 2.297 . S
Mn720 O744 2.385 . S
Mn720 O745 2.209 . S
Mn720 O746 2.094 . S
Mn721 O726 2.121 1_556 S
Mn721 N728 2.257 . S
Mn721 N737 2.282 . S
Mn721 O745 2.215 1_556 S
Mn721 O747 2.117 . S
C722 O744 1.234 . S
C722 O745 1.283 . S
C723 O735 1.281 . S
C723 O736 1.236 . S
C724 O746 1.240 1_556 S
C724 O747 1.264 . S
O725 Mn720 2.095 . S
O725 C734 1.250 . S
O726 Mn721 2.121 1_554 S
O726 C734 1.258 . S
C727 N728 1.326 1_554 S
C727 C731 1.460 . S
C727 H733 0.929 . S
N728 Mn721 2.257 . S
N728 C727 1.326 1_556 S
N728 C732 1.362 . S
C729 C730 1.258 . S
C729 C732 1.431 . S
C729 C749 1.449 . S
C730 C729 1.258 . S
C730 C731 1.477 1_556 S
C730 H750 0.931 . S
C731 C727 1.460 . S
C731 C730 1.477 1_554 S
C731 H751 0.930 . S
C732 N728 1.362 . S
C732 C729 1.431 . S
C732 C742 1.476 . S
H733 C727 0.929 . S
C734 O725 1.250 . S
C734 O726 1.258 . S
O735 Mn720 2.162 . S
O735 C723 1.281 . S
O736 Mn720 2.297 . S
O736 C723 1.236 . S
N737 Mn721 2.282 . S
N737 C738 1.328 . S
N737 C742 1.318 . S
C738 N737 1.328 . S
C738 C739 1.457 . S
C738 H743 0.929 . S
C739 C738 1.457 . S
C739 C740 1.291 . S
C739 H752 0.931 . S
C740 C739 1.291 . S
C740 C741 1.373 . S
C740 H753 0.929 . S
C741 C740 1.373 . S
C741 C742 1.396 . S
C741 C748 1.403 . S
C742 C732 1.476 . S
C742 N737 1.318 . S
C742 C741 1.396 . S
H743 C738 0.929 . S
O744 Mn720 2.385 . S
O744 C722 1.234 . S
O745 Mn720 2.209 . S
O745 Mn721 2.215 1_554 S
O745 C722 1.283 . S
O746 Mn720 2.094 . S
O746 C724 1.240 1_554 S
O747 Mn721 2.117 . S
O747 C724 1.264 . S
C748 C741 1.403 . S
C748 C749 1.399 . S
C748 H754 0.929 . S
C749 C729 1.449 . S
C749 C748 1.399 . S
C749 H755 0.930 . S
H750 C730 0.931 . S
H751 C731 0.930 . S
H752 C739 0.931 . S
H753 C740 0.929 . S
H754 C748 0.929 . S
H755 C749 0.930 . S
Mn756 O761 2.095 . S
Mn756 O771 2.162 . S
Mn756 O772 2.297 . S
Mn756 O780 2.385 . S
Mn756 O781 2.209 . S
Mn756 O782 2.094 . S
Mn757 O762 2.121 . S
Mn757 N764 2.257 . S
Mn757 N773 2.282 . S
Mn757 O781 2.215 . S
Mn757 O783 2.117 . S
C758 O780 1.234 . S
C758 O781 1.283 . S
C759 O771 1.281 . S
C759 O772 1.236 . S
C760 O782 1.240 . S
C760 O783 1.264 . S
O761 Mn756 2.095 . S
O761 C770 1.250 . S
O762 Mn757 2.121 . S
O762 C770 1.258 . S
C763 N764 1.326 . S
C763 C767 1.460 . S
C763 H769 0.929 . S
N764 Mn757 2.257 . S
N764 C763 1.326 . S
N764 C768 1.362 . S
C765 C766 1.258 . S
C765 C768 1.431 . S
C765 C785 1.449 . S
C766 C765 1.258 . S
C766 C767 1.477 . S
C766 H786 0.931 . S
C767 C763 1.460 . S
C767 C766 1.477 . S
C767 H787 0.930 . S
C768 N764 1.362 . S
C768 C765 1.431 . S
C768 C778 1.476 . S
H769 C763 0.929 . S
C770 O761 1.250 . S
C770 O762 1.258 . S
O771 Mn756 2.162 . S
O771 C759 1.281 . S
O772 Mn756 2.297 . S
O772 C759 1.236 . S
N773 Mn757 2.282 . S
N773 C774 1.328 . S
N773 C778 1.318 . S
C774 N773 1.328 . S
C774 C775 1.457 . S
C774 H779 0.929 . S
C775 C774 1.457 . S
C775 C776 1.291 . S
C775 H788 0.931 . S
C776 C775 1.291 . S
C776 C777 1.373 . S
C776 H789 0.929 . S
C777 C776 1.373 . S
C777 C778 1.396 . S
C777 C784 1.403 . S
C778 C768 1.476 . S
C778 N773 1.318 . S
C778 C777 1.396 . S
H779 C774 0.929 . S
O780 Mn756 2.385 . S
O780 C758 1.234 . S
O781 Mn756 2.209 . S
O781 Mn757 2.215 . S
O781 C758 1.283 . S
O782 Mn756 2.094 . S
O782 C760 1.240 . S
O783 Mn757 2.117 . S
O783 C760 1.264 . S
C784 C777 1.403 . S
C784 C785 1.399 . S
C784 H790 0.929 . S
C785 C765 1.449 . S
C785 C784 1.399 . S
C785 H791 0.930 . S
H786 C766 0.931 . S
H787 C767 0.930 . S
H788 C775 0.931 . S
H789 C776 0.929 . S
H790 C784 0.929 . S
H791 C785 0.930 . S
Mn792 O797 2.095 . S
Mn792 O807 2.162 . S
Mn792 O808 2.297 . S
Mn792 O816 2.385 . S
Mn792 O817 2.209 . S
Mn792 O818 2.094 . S
Mn793 O798 2.121 . S
Mn793 N800 2.257 . S
Mn793 N809 2.282 . S
Mn793 O817 2.215 . S
Mn793 O819 2.117 . S
C794 O816 1.234 . S
C794 O817 1.283 . S
C795 O807 1.281 . S
C795 O808 1.236 . S
C796 O818 1.240 . S
C796 O819 1.264 . S
O797 Mn792 2.095 . S
O797 C806 1.250 . S
O798 Mn793 2.121 . S
O798 C806 1.258 . S
C799 N800 1.326 . S
C799 C803 1.460 . S
C799 H805 0.929 . S
N800 Mn793 2.257 . S
N800 C799 1.326 . S
N800 C804 1.362 . S
C801 C802 1.258 . S
C801 C804 1.431 . S
C801 C821 1.449 . S
C802 C801 1.258 . S
C802 C803 1.477 . S
C802 H822 0.931 . S
C803 C799 1.460 . S
C803 C802 1.477 . S
C803 H823 0.930 . S
C804 N800 1.362 . S
C804 C801 1.431 . S
C804 C814 1.476 . S
H805 C799 0.929 . S
C806 O797 1.250 . S
C806 O798 1.258 . S
O807 Mn792 2.162 . S
O807 C795 1.281 . S
O808 Mn792 2.297 . S
O808 C795 1.236 . S
N809 Mn793 2.282 . S
N809 C810 1.328 . S
N809 C814 1.318 . S
C810 N809 1.328 . S
C810 C811 1.457 . S
C810 H815 0.929 . S
C811 C810 1.457 . S
C811 C812 1.291 . S
C811 H824 0.931 . S
C812 C811 1.291 . S
C812 C813 1.373 . S
C812 H825 0.929 . S
C813 C812 1.373 . S
C813 C814 1.396 . S
C813 C820 1.403 . S
C814 C804 1.476 . S
C814 N809 1.318 . S
C814 C813 1.396 . S
H815 C810 0.929 . S
O816 Mn792 2.385 . S
O816 C794 1.234 . S
O817 Mn792 2.209 . S
O817 Mn793 2.215 . S
O817 C794 1.283 . S
O818 Mn792 2.094 . S
O818 C796 1.240 . S
O819 Mn793 2.117 . S
O819 C796 1.264 . S
C820 C813 1.403 . S
C820 C821 1.399 . S
C820 H826 0.929 . S
C821 C801 1.449 . S
C821 C820 1.399 . S
C821 H827 0.930 . S
H822 C802 0.931 . S
H823 C803 0.930 . S
H824 C811 0.931 . S
H825 C812 0.929 . S
H826 C820 0.929 . S
H827 C821 0.930 . S
Mn828 O833 2.095 . S
Mn828 O843 2.162 . S
Mn828 O844 2.297 . S
Mn828 O852 2.385 . S
Mn828 O853 2.209 . S
Mn828 O854 2.094 . S
Mn829 O834 2.121 . S
Mn829 N836 2.257 . S
Mn829 N845 2.282 . S
Mn829 O853 2.215 . S
Mn829 O855 2.117 . S
C830 O852 1.234 . S
C830 O853 1.283 . S
C831 O843 1.281 . S
C831 O844 1.236 . S
C832 O854 1.240 . S
C832 O855 1.264 . S
O833 Mn828 2.095 . S
O833 C842 1.250 . S
O834 Mn829 2.121 . S
O834 C842 1.258 . S
C835 N836 1.326 . S
C835 C839 1.460 . S
C835 H841 0.929 . S
N836 Mn829 2.257 . S
N836 C835 1.326 . S
N836 C840 1.362 . S
C837 C838 1.258 . S
C837 C840 1.431 . S
C837 C857 1.449 . S
C838 C837 1.258 . S
C838 C839 1.477 . S
C838 H858 0.931 . S
C839 C835 1.460 . S
C839 C838 1.477 . S
C839 H859 0.930 . S
C840 N836 1.362 . S
C840 C837 1.431 . S
C840 C850 1.476 . S
H841 C835 0.929 . S
C842 O833 1.250 . S
C842 O834 1.258 . S
O843 Mn828 2.162 . S
O843 C831 1.281 . S
O844 Mn828 2.297 . S
O844 C831 1.236 . S
N845 Mn829 2.282 . S
N845 C846 1.328 . S
N845 C850 1.318 . S
C846 N845 1.328 . S
C846 C847 1.457 . S
C846 H851 0.929 . S
C847 C846 1.457 . S
C847 C848 1.291 . S
C847 H860 0.931 . S
C848 C847 1.291 . S
C848 C849 1.373 . S
C848 H861 0.929 . S
C849 C848 1.373 . S
C849 C850 1.396 . S
C849 C856 1.403 . S
C850 C840 1.476 . S
C850 N845 1.318 . S
C850 C849 1.396 . S
H851 C846 0.929 . S
O852 Mn828 2.385 . S
O852 C830 1.234 . S
O853 Mn828 2.209 . S
O853 Mn829 2.215 . S
O853 C830 1.283 . S
O854 Mn828 2.094 . S
O854 C832 1.240 . S
O855 Mn829 2.117 . S
O855 C832 1.264 . S
C856 C849 1.403 . S
C856 C857 1.399 . S
C856 H862 0.929 . S
C857 C837 1.449 . S
C857 C856 1.399 . S
C857 H863 0.930 . S
H858 C838 0.931 . S
H859 C839 0.930 . S
H860 C847 0.931 . S
H861 C848 0.929 . S
H862 C856 0.929 . S
H863 C857 0.930 . S
Tb864 C873 2.764 . S
Tb864 O874 2.325 1_545 S
Tb864 O877 2.303 . S
Tb864 O881 2.322 . S
Tb864 O882 2.349 . S
Tb864 O885 2.415 . S
Tb864 O886 2.399 . S
Tb865 O875 2.322 1_545 S
Tb865 O876 2.349 1_554 S
Tb865 O878 2.415 1_455 S
Tb865 O879 2.399 1_454 S
Tb865 O880 2.325 . S
Tb865 O883 2.303 . S
Tb865 C894 2.764 1_455 S
C866 O882 1.261 . S
C866 O883 1.257 . S
C867 C870 1.358 . S
C867 C871 1.332 . S
C867 C873 1.504 . S
C868 C869 1.373 . S
C868 C872 1.308 1_545 S
C869 C868 1.373 . S
C869 C870 1.429 . S
C869 H896 0.932 . S
C870 C867 1.358 . S
C870 C869 1.429 . S
C870 H897 0.930 . S
C871 C867 1.332 . S
C871 C872 1.394 1_545 S
C871 H898 0.932 1_545 S
C872 C868 1.308 1_565 S
C872 C871 1.394 1_565 S
C872 H899 0.929 . S
C873 Tb864 2.764 . S
C873 C867 1.504 . S
C873 O885 1.239 . S
C873 O886 1.263 . S
O874 Tb864 2.325 1_565 S
O874 C884 1.236 . S
O875 Tb865 2.322 1_565 S
O875 C884 1.257 . S
O876 Tb865 2.349 1_556 S
O876 C887 1.261 . S
O877 Tb864 2.303 . S
O877 C887 1.257 1_554 S
O878 Tb865 2.415 1_655 S
O878 C894 1.239 . S
O879 Tb865 2.399 1_656 S
O879 C894 1.263 1_556 S
O880 Tb865 2.325 . S
O880 C895 1.236 . S
O881 Tb864 2.322 . S
O881 C895 1.257 . S
O882 Tb864 2.349 . S
O882 C866 1.261 . S
O883 Tb865 2.303 . S
O883 C866 1.257 . S
C884 O874 1.236 . S
C884 O875 1.257 . S
O885 Tb864 2.415 . S
O885 C873 1.239 . S
O886 Tb864 2.399 . S
O886 C873 1.263 . S
C887 O876 1.261 . S
C887 O877 1.257 1_556 S
C888 C891 1.358 1_554 S
C888 C892 1.332 . S
C888 C894 1.504 . S
C889 C890 1.373 . S
C889 C893 1.308 1_556 S
C890 C889 1.373 . S
C890 C891 1.429 . S
C890 H900 0.932 . S
C891 C888 1.358 1_556 S
C891 C890 1.429 . S
C891 H901 0.930 . S
C892 C888 1.332 . S
C892 C893 1.394 . S
C892 H902 0.932 . S
C893 C889 1.308 1_554 S
C893 C892 1.394 . S
C893 H903 0.929 . S
C894 Tb865 2.764 1_655 S
C894 O878 1.239 . S
C894 O879 1.263 1_554 S
C894 C888 1.504 . S
C895 O880 1.236 . S
C895 O881 1.257 . S
H896 C869 0.932 . S
H897 C870 0.930 . S
H898 C871 0.932 1_565 S
H899 C872 0.929 . S
H900 C890 0.932 . S
H901 C891 0.930 . S
H902 C892 0.932 . S
H903 C893 0.929 . S
Tb904 C913 2.764 . S
Tb904 O914 2.325 . S
Tb904 O917 2.303 . S
Tb904 O921 2.322 . S
Tb904 O922 2.349 . S
Tb904 O925 2.415 . S
Tb904 O926 2.399 . S
Tb905 O915 2.322 . S
Tb905 O916 2.349 . S
Tb905 O918 2.415 . S
Tb905 O919 2.399 . S
Tb905 O920 2.325 . S
Tb905 O923 2.303 . S
Tb905 C934 2.764 . S
C906 O922 1.261 . S
C906 O923 1.257 . S
C907 C910 1.358 . S
C907 C911 1.332 . S
C907 C913 1.504 . S
C908 C909 1.373 . S
C908 C912 1.308 . S
C909 C908 1.373 . S
C909 C910 1.429 . S
C909 H936 0.932 . S
C910 C907 1.358 . S
C910 C909 1.429 . S
C910 H937 0.930 . S
C911 C907 1.332 . S
C911 C912 1.394 . S
C911 H938 0.932 . S
C912 C908 1.308 . S
C912 C911 1.394 . S
C912 H939 0.929 . S
C913 Tb904 2.764 . S
C913 C907 1.504 . S
C913 O925 1.239 . S
C913 O926 1.263 . S
O914 Tb904 2.325 . S
O914 C924 1.236 . S
O915 Tb905 2.322 . S
O915 C924 1.257 . S
O916 Tb905 2.349 . S
O916 C927 1.261 . S
O917 Tb904 2.303 . S
O917 C927 1.257 . S
O918 Tb905 2.415 . S
O918 C934 1.239 . S
O919 Tb905 2.399 . S
O919 C934 1.263 . S
O920 Tb905 2.325 . S
O920 C935 1.236 . S
O921 Tb904 2.322 . S
O921 C935 1.257 . S
O922 Tb904 2.349 . S
O922 C906 1.261 . S
O923 Tb905 2.303 . S
O923 C906 1.257 . S
C924 O914 1.236 . S
C924 O915 1.257 . S
O925 Tb904 2.415 . S
O925 C913 1.239 . S
O926 Tb904 2.399 . S
O926 C913 1.263 . S
C927 O916 1.261 . S
C927 O917 1.257 . S
C928 C931 1.358 . S
C928 C932 1.332 . S
C928 C934 1.504 . S
C929 C930 1.373 . S
C929 C933 1.308 . S
C930 C929 1.373 . S
C930 C931 1.429 . S
C930 H940 0.932 . S
C931 C928 1.358 . S
C931 C930 1.429 . S
C931 H941 0.930 . S
C932 C928 1.332 . S
C932 C933 1.394 . S
C932 H942 0.932 . S
C933 C929 1.308 . S
C933 C932 1.394 . S
C933 H943 0.929 . S
C934 Tb905 2.764 . S
C934 O918 1.239 . S
C934 O919 1.263 . S
C934 C928 1.504 . S
C935 O920 1.236 . S
C935 O921 1.257 . S
H936 C909 0.932 . S
H937 C910 0.930 . S
H938 C911 0.932 . S
H939 C912 0.929 . S
H940 C930 0.932 . S
H941 C931 0.930 . S
H942 C932 0.932 . S
H943 C933 0.929 . S
Tb944 C953 2.764 . S
Tb944 O954 2.325 . S
Tb944 O957 2.303 . S
Tb944 O961 2.322 1_545 S
Tb944 O962 2.349 . S
Tb944 O965 2.415 . S
Tb944 O966 2.399 . S
Tb945 O955 2.322 . S
Tb945 O956 2.349 . S
Tb945 O958 2.415 . S
Tb945 O959 2.399 . S
Tb945 O960 2.325 . S
Tb945 O963 2.303 . S
Tb945 C974 2.764 . S
C946 O962 1.261 . S
C946 O963 1.257 . S
C947 C950 1.358 . S
C947 C951 1.332 . S
C947 C953 1.504 . S
C948 C949 1.373 . S
C948 C952 1.308 . S
C949 C948 1.373 . S
C949 C950 1.429 . S
C949 H976 0.932 . S
C950 C947 1.358 . S
C950 C949 1.429 . S
C950 H977 0.930 . S
C951 C947 1.332 . S
C951 C952 1.394 . S
C951 H978 0.932 . S
C952 C948 1.308 . S
C952 C951 1.394 . S
C952 H979 0.929 . S
C953 Tb944 2.764 . S
C953 C947 1.504 . S
C953 O965 1.239 . S
C953 O966 1.263 . S
O954 Tb944 2.325 . S
O954 C964 1.236 . S
O955 Tb945 2.322 . S
O955 C964 1.257 . S
O956 Tb945 2.349 . S
O956 C967 1.261 . S
O957 Tb944 2.303 . S
O957 C967 1.257 . S
O958 Tb945 2.415 . S
O958 C974 1.239 . S
O959 Tb945 2.399 . S
O959 C974 1.263 . S
O960 Tb945 2.325 . S
O960 C975 1.236 1_545 S
O961 Tb944 2.322 1_565 S
O961 C975 1.257 . S
O962 Tb944 2.349 . S
O962 C946 1.261 . S
O963 Tb945 2.303 . S
O963 C946 1.257 . S
C964 O954 1.236 . S
C964 O955 1.257 . S
O965 Tb944 2.415 . S
O965 C953 1.239 . S
O966 Tb944 2.399 . S
O966 C953 1.263 . S
C967 O956 1.261 . S
C967 O957 1.257 . S
C968 C971 1.358 . S
C968 C972 1.332 1_545 S
C968 C974 1.504 . S
C969 C970 1.373 . S
C969 C973 1.308 . S
C970 C969 1.373 . S
C970 C971 1.429 1_565 S
C970 H980 0.935 . S
C971 C968 1.358 . S
C971 C970 1.429 1_545 S
C971 H981 0.930 . S
C972 C968 1.332 1_565 S
C972 C973 1.394 . S
C972 H982 0.932 . S
C973 C969 1.308 . S
C973 C972 1.394 . S
C973 H983 0.929 . S
C974 Tb945 2.764 . S
C974 O958 1.239 . S
C974 O959 1.263 . S
C974 C968 1.504 . S
C975 O960 1.236 1_565 S
C975 O961 1.257 . S
H976 C949 0.932 . S
H977 C950 0.930 . S
H978 C951 0.932 . S
H979 C952 0.929 . S
H980 C970 0.935 . S
H981 C971 0.930 . S
H982 C972 0.932 . S
H983 C973 0.929 . S
Tb984 C993 2.764 . S
Tb984 O994 2.325 . S
Tb984 O997 2.303 . S
Tb984 O1001 2.322 . S
Tb984 O1002 2.349 . S
Tb984 O1005 2.415 . S
Tb984 O1006 2.399 . S
Tb985 O995 2.322 . S
Tb985 O996 2.349 . S
Tb985 O998 2.415 . S
Tb985 O999 2.399 . S
Tb985 O1000 2.325 . S
Tb985 O1003 2.303 . S
Tb985 C1014 2.764 . S
C986 O1002 1.261 . S
C986 O1003 1.257 . S
C987 C990 1.358 . S
C987 C991 1.332 . S
C987 C993 1.504 . S
C988 C989 1.373 . S
C988 C992 1.308 . S
C989 C988 1.373 . S
C989 C990 1.429 . S
C989 H1016 0.932 . S
C990 C987 1.358 . S
C990 C989 1.429 . S
C990 H1017 0.930 . S
C991 C987 1.332 . S
C991 C992 1.394 . S
C991 H1018 0.932 . S
C992 C988 1.308 . S
C992 C991 1.394 . S
C992 H1019 0.929 . S
C993 Tb984 2.764 . S
C993 C987 1.504 . S
C993 O1005 1.239 . S
C993 O1006 1.263 . S
O994 Tb984 2.325 . S
O994 C1004 1.236 . S
O995 Tb985 2.322 . S
O995 C1004 1.257 . S
O996 Tb985 2.349 . S
O996 C1007 1.261 . S
O997 Tb984 2.303 . S
O997 C1007 1.257 . S
O998 Tb985 2.415 . S
O998 C1014 1.239 . S
O999 Tb985 2.399 . S
O999 C1014 1.263 . S
O1000 Tb985 2.325 . S
O1000 C1015 1.236 . S
O1001 Tb984 2.322 . S
O1001 C1015 1.257 . S
O1002 Tb984 2.349 . S
O1002 C986 1.261 . S
O1003 Tb985 2.303 . S
O1003 C986 1.257 . S
C1004 O994 1.236 . S
C1004 O995 1.257 . S
O1005 Tb984 2.415 . S
O1005 C993 1.239 . S
O1006 Tb984 2.399 . S
O1006 C993 1.263 . S
C1007 O996 1.261 . S
C1007 O997 1.257 . S
C1008 C1011 1.358 . S
C1008 C1012 1.332 . S
C1008 C1014 1.504 . S
C1009 C1010 1.373 . S
C1009 C1013 1.308 . S
C1010 C1009 1.373 . S
C1010 C1011 1.429 . S
C1010 H1020 0.932 . S
C1011 C1008 1.358 . S
C1011 C1010 1.429 . S
C1011 H1021 0.930 . S
C1012 C1008 1.332 . S
C1012 C1013 1.394 . S
C1012 H1022 0.932 . S
C1013 C1009 1.308 . S
C1013 C1012 1.394 . S
C1013 H1023 0.929 . S
C1014 Tb985 2.764 . S
C1014 O998 1.239 . S
C1014 O999 1.263 . S
C1014 C1008 1.504 . S
C1015 O1000 1.236 . S
C1015 O1001 1.257 . S
H1016 C989 0.932 . S
H1017 C990 0.930 . S
H1018 C991 0.932 . S
H1019 C992 0.929 . S
H1020 C1010 0.932 . S
H1021 C1011 0.930 . S
H1022 C1012 0.932 . S
H1023 C1013 0.929 . S
Tb1024 C1033 2.764 . S
Tb1024 O1034 2.325 . S
Tb1024 O1037 2.303 . S
Tb1024 O1041 2.322 . S
Tb1024 O1042 2.349 . S
Tb1024 O1045 2.415 . S
Tb1024 O1046 2.399 . S
Tb1025 O1035 2.322 1_545 S
Tb1025 O1036 2.349 . S
Tb1025 O1038 2.415 . S
Tb1025 O1039 2.399 . S
Tb1025 O1040 2.325 . S
Tb1025 O1043 2.303 . S
Tb1025 C1054 2.764 . S
C1026 O1042 1.261 1_655 S
C1026 O1043 1.257 1_655 S
C1027 C1030 1.358 . S
C1027 C1031 1.332 . S
C1027 C1033 1.504 . S
C1028 C1029 1.373 . S
C1028 C1032 1.308 . S
C1029 C1028 1.373 . S
C1029 C1030 1.429 . S
C1029 H1056 0.932 . S
C1030 C1027 1.358 . S
C1030 C1029 1.429 . S
C1030 H1057 0.930 . S
C1031 C1027 1.332 . S
C1031 C1032 1.394 . S
C1031 H1058 0.932 . S
C1032 C1028 1.308 . S
C1032 C1031 1.394 . S
C1032 H1059 0.929 . S
C1033 Tb1024 2.764 . S
C1033 C1027 1.504 . S
C1033 O1045 1.239 . S
C1033 O1046 1.263 . S
O1034 Tb1024 2.325 . S
O1034 C1044 1.236 1_545 S
O1035 Tb1025 2.322 1_565 S
O1035 C1044 1.257 . S
O1036 Tb1025 2.349 . S
O1036 C1047 1.261 . S
O1037 Tb1024 2.303 . S
O1037 C1047 1.257 . S
O1038 Tb1025 2.415 . S
O1038 C1054 1.239 . S
O1039 Tb1025 2.399 . S
O1039 C1054 1.263 . S
O1040 Tb1025 2.325 . S
O1040 C1055 1.236 . S
O1041 Tb1024 2.322 . S
O1041 C1055 1.257 . S
O1042 Tb1024 2.349 . S
O1042 C1026 1.261 1_455 S
O1043 Tb1025 2.303 . S
O1043 C1026 1.257 1_455 S
C1044 O1034 1.236 1_565 S
C1044 O1035 1.257 . S
O1045 Tb1024 2.415 . S
O1045 C1033 1.239 . S
O1046 Tb1024 2.399 . S
O1046 C1033 1.263 . S
C1047 O1036 1.261 . S
C1047 O1037 1.257 . S
C1048 C1051 1.358 . S
C1048 C1052 1.332 1_455 S
C1048 C1054 1.504 . S
C1049 C1050 1.373 . S
C1049 C1053 1.308 1_455 S
C1050 C1049 1.373 . S
C1050 C1051 1.429 . S
C1050 H1060 0.932 . S
C1051 C1048 1.358 . S
C1051 C1050 1.429 . S
C1051 H1061 0.930 . S
C1052 C1048 1.332 1_655 S
C1052 C1053 1.394 . S
C1052 H1062 0.932 . S
C1053 C1049 1.308 1_655 S
C1053 C1052 1.394 . S
C1053 H1063 0.929 . S
C1054 Tb1025 2.764 . S
C1054 O1038 1.239 . S
C1054 O1039 1.263 . S
C1054 C1048 1.504 . S
C1055 O1040 1.236 . S
C1055 O1041 1.257 . S
H1056 C1029 0.932 . S
H1057 C1030 0.930 . S
H1058 C1031 0.932 . S
H1059 C1032 0.929 . S
H1060 C1050 0.932 . S
H1061 C1051 0.930 . S
H1062 C1052 0.932 . S
H1063 C1053 0.929 . S
Tb1064 C1073 2.764 . S
Tb1064 O1074 2.325 . S
Tb1064 O1077 2.303 . S
Tb1064 O1081 2.322 . S
Tb1064 O1082 2.349 . S
Tb1064 O1085 2.415 . S
Tb1064 O1086 2.399 . S
Tb1065 O1075 2.322 . S
Tb1065 O1076 2.349 . S
Tb1065 O1078 2.415 . S
Tb1065 O1079 2.399 . S
Tb1065 O1080 2.325 . S
Tb1065 O1083 2.303 . S
Tb1065 C1094 2.764 . S
C1066 O1082 1.261 . S
C1066 O1083 1.257 . S
C1067 C1070 1.358 . S
C1067 C1071 1.332 . S
C1067 C1073 1.504 . S
C1068 C1069 1.373 . S
C1068 C1072 1.308 . S
C1069 C1068 1.373 . S
C1069 C1070 1.429 . S
C1069 H1096 0.932 . S
C1070 C1067 1.358 . S
C1070 C1069 1.429 . S
C1070 H1097 0.930 . S
C1071 C1067 1.332 . S
C1071 C1072 1.394 . S
C1071 H1098 0.932 . S
C1072 C1068 1.308 . S
C1072 C1071 1.394 . S
C1072 H1099 0.929 . S
C1073 Tb1064 2.764 . S
C1073 C1067 1.504 . S
C1073 O1085 1.239 . S
C1073 O1086 1.263 . S
O1074 Tb1064 2.325 . S
O1074 C1084 1.236 . S
O1075 Tb1065 2.322 . S
O1075 C1084 1.257 . S
O1076 Tb1065 2.349 . S
O1076 C1087 1.261 . S
O1077 Tb1064 2.303 . S
O1077 C1087 1.257 . S
O1078 Tb1065 2.415 . S
O1078 C1094 1.239 . S
O1079 Tb1065 2.399 . S
O1079 C1094 1.263 . S
O1080 Tb1065 2.325 . S
O1080 C1095 1.236 . S
O1081 Tb1064 2.322 . S
O1081 C1095 1.257 . S
O1082 Tb1064 2.349 . S
O1082 C1066 1.261 . S
O1083 Tb1065 2.303 . S
O1083 C1066 1.257 . S
C1084 O1074 1.236 . S
C1084 O1075 1.257 . S
O1085 Tb1064 2.415 . S
O1085 C1073 1.239 . S
O1086 Tb1064 2.399 . S
O1086 C1073 1.263 . S
C1087 O1076 1.261 . S
C1087 O1077 1.257 . S
C1088 C1091 1.358 . S
C1088 C1092 1.332 . S
C1088 C1094 1.504 . S
C1089 C1090 1.373 . S
C1089 C1093 1.308 . S
C1090 C1089 1.373 . S
C1090 C1091 1.429 . S
C1090 H1100 0.932 . S
C1091 C1088 1.358 . S
C1091 C1090 1.429 . S
C1091 H1101 0.930 . S
C1092 C1088 1.332 . S
C1092 C1093 1.394 . S
C1092 H1102 0.932 . S
C1093 C1089 1.308 . S
C1093 C1092 1.394 . S
C1093 H1103 0.929 . S
C1094 Tb1065 2.764 . S
C1094 O1078 1.239 . S
C1094 O1079 1.263 . S
C1094 C1088 1.504 . S
C1095 O1080 1.236 . S
C1095 O1081 1.257 . S
H1096 C1069 0.932 . S
H1097 C1070 0.930 . S
H1098 C1071 0.932 . S
H1099 C1072 0.929 . S
H1100 C1090 0.932 . S
H1101 C1091 0.930 . S
H1102 C1092 0.932 . S
H1103 C1093 0.929 . S
Tb1104 C1113 2.764 . S
Tb1104 O1114 2.325 . S
Tb1104 O1117 2.303 . S
Tb1104 O1121 2.322 1_545 S
Tb1104 O1122 2.349 . S
Tb1104 O1125 2.415 . S
Tb1104 O1126 2.399 . S
Tb1105 O1115 2.362 . S
Tb1105 O1116 2.349 . S
Tb1105 O1118 2.377 1_554 S
Tb1105 O1119 2.347 1_554 S
Tb1105 O1120 2.325 1_554 S
Tb1105 O1123 2.339 . S
Tb1105 C1134 2.714 1_554 S
C1106 O1122 1.261 . S
C1106 O1123 1.257 . S
C1107 C1110 1.358 . S
C1107 C1111 1.332 . S
C1107 C1113 1.504 . S
C1108 C1109 1.373 . S
C1108 C1112 1.308 . S
C1109 C1108 1.373 . S
C1109 C1110 1.429 . S
C1109 H1136 0.932 . S
C1110 C1107 1.358 . S
C1110 C1109 1.429 . S
C1110 H1137 0.930 . S
C1111 C1107 1.332 . S
C1111 C1112 1.394 . S
C1111 H1138 0.932 . S
C1112 C1108 1.308 . S
C1112 C1111 1.394 . S
C1112 H1139 0.929 . S
C1113 Tb1104 2.764 . S
C1113 C1107 1.504 . S
C1113 O1125 1.239 . S
C1113 O1126 1.263 . S
O1114 Tb1104 2.325 . S
O1114 C1124 1.236 . S
O1115 Tb1105 2.362 . S
O1115 C1124 1.257 . S
O1116 Tb1105 2.349 . S
O1116 C1127 1.312 . S
O1117 Tb1104 2.303 . S
O1117 C1127 1.257 . S
O1118 Tb1105 2.377 1_556 S
O1118 C1134 1.239 . S
O1119 Tb1105 2.347 1_556 S
O1119 C1134 1.263 . S
O1120 Tb1105 2.325 1_556 S
O1120 C1135 1.236 1_546 S
O1121 Tb1104 2.322 1_565 S
O1121 C1135 1.257 . S
O1122 Tb1104 2.349 . S
O1122 C1106 1.261 . S
O1123 Tb1105 2.339 . S
O1123 C1106 1.257 . S
C1124 O1114 1.236 . S
C1124 O1115 1.257 . S
O1125 Tb1104 2.415 . S
O1125 C1113 1.239 . S
O1126 Tb1104 2.399 . S
O1126 C1113 1.263 . S
C1127 O1116 1.312 . S
C1127 O1117 1.257 . S
C1128 C1131 1.358 . S
C1128 C1132 1.332 . S
C1128 C1134 1.504 . S
C1129 C1130 1.373 . S
C1129 C1133 1.308 . S
C1130 C1129 1.373 . S
C1130 C1131 1.429 . S
C1130 H1140 0.932 . S
C1131 C1128 1.358 . S
C1131 C1130 1.429 . S
C1131 H1141 0.930 . S
C1132 C1128 1.332 . S
C1132 C1133 1.394 . S
C1132 H1142 0.932 . S
C1133 C1129 1.308 . S
C1133 C1132 1.394 . S
C1133 H1143 0.929 . S
C1134 Tb1105 2.714 1_556 S
C1134 O1118 1.239 . S
C1134 O1119 1.263 . S
C1134 C1128 1.504 . S
C1135 O1120 1.236 1_564 S
C1135 O1121 1.257 . S
H1136 C1109 0.932 . S
H1137 C1110 0.930 . S
H1138 C1111 0.932 . S
H1139 C1112 0.929 . S
H1140 C1130 0.932 . S
H1141 C1131 0.930 . S
H1142 C1132 0.932 . S
H1143 C1133 0.929 . S
Tb1144 C1153 2.764 . S
Tb1144 O1154 2.325 . S
Tb1144 O1157 2.303 . S
Tb1144 O1161 2.322 . S
Tb1144 O1162 2.349 . S
Tb1144 O1165 2.415 . S
Tb1144 O1166 2.399 . S
Tb1145 O1155 2.322 . S
Tb1145 O1156 2.349 . S
Tb1145 O1158 2.415 . S
Tb1145 O1159 2.399 . S
Tb1145 O1160 2.325 . S
Tb1145 O1163 2.303 . S
Tb1145 C1174 2.764 . S
C1146 O1162 1.261 . S
C1146 O1163 1.257 . S
C1147 C1150 1.358 . S
C1147 C1151 1.332 . S
C1147 C1153 1.504 . S
C1148 C1149 1.373 . S
C1148 C1152 1.308 . S
C1149 C1148 1.373 . S
C1149 C1150 1.429 . S
C1149 H1176 0.932 . S
C1150 C1147 1.358 . S
C1150 C1149 1.429 . S
C1150 H1177 0.930 . S
C1151 C1147 1.332 . S
C1151 C1152 1.394 . S
C1151 H1178 0.932 . S
C1152 C1148 1.308 . S
C1152 C1151 1.394 . S
C1152 H1179 0.929 . S
C1153 Tb1144 2.764 . S
C1153 C1147 1.504 . S
C1153 O1165 1.239 . S
C1153 O1166 1.263 . S
O1154 Tb1144 2.325 . S
O1154 C1164 1.236 . S
O1155 Tb1145 2.322 . S
O1155 C1164 1.257 . S
O1156 Tb1145 2.349 . S
O1156 C1167 1.261 . S
O1157 Tb1144 2.303 . S
O1157 C1167 1.257 . S
O1158 Tb1145 2.415 . S
O1158 C1174 1.239 . S
O1159 Tb1145 2.399 . S
O1159 C1174 1.263 . S
O1160 Tb1145 2.325 . S
O1160 C1175 1.236 . S
O1161 Tb1144 2.322 . S
O1161 C1175 1.257 . S
O1162 Tb1144 2.349 . S
O1162 C1146 1.261 . S
O1163 Tb1145 2.303 . S
O1163 C1146 1.257 . S
C1164 O1154 1.236 . S
C1164 O1155 1.257 . S
O1165 Tb1144 2.415 . S
O1165 C1153 1.239 . S
O1166 Tb1144 2.399 . S
O1166 C1153 1.263 . S
C1167 O1156 1.261 . S
C1167 O1157 1.257 . S
C1168 C1171 1.358 . S
C1168 C1172 1.332 . S
C1168 C1174 1.504 . S
C1169 C1170 1.373 . S
C1169 C1173 1.308 . S
C1170 C1169 1.373 . S
C1170 C1171 1.429 . S
C1170 H1180 0.932 . S
C1171 C1168 1.358 . S
C1171 C1170 1.429 . S
C1171 H1181 0.930 . S
C1172 C1168 1.332 . S
C1172 C1173 1.394 . S
C1172 H1182 0.932 . S
C1173 C1169 1.308 . S
C1173 C1172 1.394 . S
C1173 H1183 0.929 . S
C1174 Tb1145 2.764 . S
C1174 O1158 1.239 . S
C1174 O1159 1.263 . S
C1174 C1168 1.504 . S
C1175 O1160 1.236 . S
C1175 O1161 1.257 . S
H1176 C1149 0.932 . S
H1177 C1150 0.930 . S
H1178 C1151 0.932 . S
H1179 C1152 0.929 . S
H1180 C1170 0.932 . S
H1181 C1171 0.930 . S
H1182 C1172 0.932 . S
H1183 C1173 0.929 . S
Tb1184 C1193 2.764 . S
Tb1184 O1194 2.325 . S
Tb1184 O1197 2.303 . S
Tb1184 O1201 2.322 . S
Tb1184 O1202 2.349 . S
Tb1184 O1205 2.415 . S
Tb1184 O1206 2.399 . S
Tb1185 O1195 2.318 1_556 S
Tb1185 O1196 2.349 1_556 S
Tb1185 O1198 2.419 . S
Tb1185 O1199 2.404 . S
Tb1185 O1200 2.321 . S
Tb1185 O1203 2.300 1_556 S
Tb1185 C1214 2.769 . S
C1186 O1202 1.261 . S
C1186 O1203 1.257 . S
C1187 C1190 1.358 . S
C1187 C1191 1.332 . S
C1187 C1193 1.504 . S
C1188 C1189 1.373 . S
C1188 C1192 1.308 . S
C1189 C1188 1.373 . S
C1189 C1190 1.429 . S
C1189 H1216 0.932 . S
C1190 C1187 1.358 . S
C1190 C1189 1.429 . S
C1190 H1217 0.930 . S
C1191 C1187 1.332 . S
C1191 C1192 1.394 . S
C1191 H1218 0.932 . S
C1192 C1188 1.308 . S
C1192 C1191 1.394 . S
C1192 H1219 0.929 . S
C1193 Tb1184 2.764 . S
C1193 C1187 1.504 . S
C1193 O1205 1.239 . S
C1193 O1206 1.263 . S
O1194 Tb1184 2.325 . S
O1194 C1204 1.236 . S
O1195 Tb1185 2.318 1_554 S
O1195 C1204 1.257 . S
O1196 Tb1185 2.349 1_554 S
O1196 C1207 1.261 . S
O1197 Tb1184 2.303 . S
O1197 C1207 1.257 . S
O1198 Tb1185 2.419 . S
O1198 C1214 1.239 . S
O1199 Tb1185 2.404 . S
O1199 C1214 1.263 . S
O1200 Tb1185 2.321 . S
O1200 C1215 1.204 1_556 S
O1201 Tb1184 2.322 . S
O1201 C1215 1.257 . S
O1202 Tb1184 2.349 . S
O1202 C1186 1.261 . S
O1203 Tb1185 2.300 1_554 S
O1203 C1186 1.257 . S
C1204 O1194 1.236 . S
C1204 O1195 1.257 . S
O1205 Tb1184 2.415 . S
O1205 C1193 1.239 . S
O1206 Tb1184 2.399 . S
O1206 C1193 1.263 . S
C1207 O1196 1.261 . S
C1207 O1197 1.257 . S
C1208 C1211 1.358 . S
C1208 C1212 1.332 . S
C1208 C1214 1.504 . S
C1209 C1210 1.373 . S
C1209 C1213 1.308 . S
C1210 C1209 1.373 . S
C1210 C1211 1.429 . S
C1210 H1220 0.932 . S
C1211 C1208 1.358 . S
C1211 C1210 1.429 . S
C1211 H1221 0.930 . S
C1212 C1208 1.332 . S
C1212 C1213 1.394 . S
C1212 H1222 0.932 . S
C1213 C1209 1.308 . S
C1213 C1212 1.394 . S
C1213 H1223 0.929 . S
C1214 Tb1185 2.769 . S
C1214 O1198 1.239 . S
C1214 O1199 1.263 . S
C1214 C1208 1.504 . S
C1215 O1200 1.204 1_554 S
C1215 O1201 1.257 . S
H1216 C1189 0.932 . S
H1217 C1190 0.930 . S
H1218 C1191 0.932 . S
H1219 C1192 0.929 . S
H1220 C1210 0.932 . S
H1221 C1211 0.930 . S
H1222 C1212 0.932 . S
H1223 C1213 0.929 . S
Tb1224 C1233 2.764 . S
Tb1224 O1234 2.325 . S
Tb1224 O1237 2.303 . S
Tb1224 O1241 2.322 . S
Tb1224 O1242 2.349 . S
Tb1224 O1245 2.415 . S
Tb1224 O1246 2.399 . S
Tb1225 O1235 2.322 . S
Tb1225 O1236 2.349 . S
Tb1225 O1238 2.415 . S
Tb1225 O1239 2.399 . S
Tb1225 O1240 2.325 . S
Tb1225 O1243 2.303 . S
Tb1225 C1254 2.764 . S
C1226 O1242 1.261 . S
C1226 O1243 1.257 . S
C1227 C1230 1.358 . S
C1227 C1231 1.332 . S
C1227 C1233 1.504 . S
C1228 C1229 1.373 . S
C1228 C1232 1.308 . S
C1229 C1228 1.373 . S
C1229 C1230 1.429 . S
C1229 H1256 0.932 . S
C1230 C1227 1.358 . S
C1230 C1229 1.429 . S
C1230 H1257 0.930 . S
C1231 C1227 1.332 . S
C1231 C1232 1.394 . S
C1231 H1258 0.932 . S
C1232 C1228 1.308 . S
C1232 C1231 1.394 . S
C1232 H1259 0.929 . S
C1233 Tb1224 2.764 . S
C1233 C1227 1.504 . S
C1233 O1245 1.239 . S
C1233 O1246 1.263 . S
O1234 Tb1224 2.325 . S
O1234 C1244 1.236 . S
O1235 Tb1225 2.322 . S
O1235 C1244 1.257 . S
O1236 Tb1225 2.349 . S
O1236 C1247 1.261 . S
O1237 Tb1224 2.303 . S
O1237 C1247 1.257 . S
O1238 Tb1225 2.415 . S
O1238 C1254 1.239 . S
O1239 Tb1225 2.399 . S
O1239 C1254 1.263 . S
O1240 Tb1225 2.325 . S
O1240 C1255 1.236 . S
O1241 Tb1224 2.322 . S
O1241 C1255 1.257 . S
O1242 Tb1224 2.349 . S
O1242 C1226 1.261 . S
O1243 Tb1225 2.303 . S
O1243 C1226 1.257 . S
C1244 O1234 1.236 . S
C1244 O1235 1.257 . S
O1245 Tb1224 2.415 . S
O1245 C1233 1.239 . S
O1246 Tb1224 2.399 . S
O1246 C1233 1.263 . S
C1247 O1236 1.261 . S
C1247 O1237 1.257 . S
C1248 C1251 1.358 . S
C1248 C1252 1.332 . S
C1248 C1254 1.504 . S
C1249 C1250 1.373 . S
C1249 C1253 1.308 . S
C1250 C1249 1.373 . S
C1250 C1251 1.429 . S
C1250 H1260 0.932 . S
C1251 C1248 1.358 . S
C1251 C1250 1.429 . S
C1251 H1261 0.930 . S
C1252 C1248 1.332 . S
C1252 C1253 1.394 . S
C1252 H1262 0.932 . S
C1253 C1249 1.308 . S
C1253 C1252 1.394 . S
C1253 H1263 0.929 . S
C1254 Tb1225 2.764 . S
C1254 O1238 1.239 . S
C1254 O1239 1.263 . S
C1254 C1248 1.504 . S
C1255 O1240 1.236 . S
C1255 O1241 1.257 . S
H1256 C1229 0.932 . S
H1257 C1230 0.930 . S
H1258 C1231 0.932 . S
H1259 C1232 0.929 . S
H1260 C1250 0.932 . S
H1261 C1251 0.930 . S
H1262 C1252 0.932 . S
H1263 C1253 0.929 . S
Tb1264 C1273 2.764 . S
Tb1264 O1274 2.325 . S
Tb1264 O1277 2.303 . S
Tb1264 O1281 2.322 . S
Tb1264 O1282 2.349 . S
Tb1264 O1285 2.415 . S
Tb1264 O1286 2.399 . S
Tb1265 O1275 2.322 . S
Tb1265 O1276 2.349 . S
Tb1265 O1278 2.415 . S
Tb1265 O1279 2.399 . S
Tb1265 O1280 2.325 . S
Tb1265 O1283 2.303 . S
Tb1265 C1294 2.764 . S
C1266 O1282 1.261 . S
C1266 O1283 1.257 . S
C1267 C1270 1.358 . S
C1267 C1271 1.332 . S
C1267 C1273 1.504 . S
C1268 C1269 1.373 . S
C1268 C1272 1.271 1_455 S
C1269 C1268 1.373 . S
C1269 C1270 1.429 . S
C1269 H1296 0.932 . S
C1270 C1267 1.358 . S
C1270 C1269 1.429 . S
C1270 H1297 0.930 . S
C1271 C1267 1.332 . S
C1271 C1272 1.372 1_455 S
C1271 H1298 0.932 1_455 S
C1272 C1268 1.271 1_655 S
C1272 C1271 1.372 1_655 S
C1272 H1299 0.991 . S
C1273 Tb1264 2.764 . S
C1273 C1267 1.504 . S
C1273 O1285 1.239 . S
C1273 O1286 1.263 . S
O1274 Tb1264 2.325 . S
O1274 C1284 1.236 . S
O1275 Tb1265 2.322 . S
O1275 C1284 1.257 . S
O1276 Tb1265 2.349 . S
O1276 C1287 1.261 . S
O1277 Tb1264 2.303 . S
O1277 C1287 1.257 . S
O1278 Tb1265 2.415 . S
O1278 C1294 1.239 . S
O1279 Tb1265 2.399 . S
O1279 C1294 1.263 . S
O1280 Tb1265 2.325 . S
O1280 C1295 1.236 . S
O1281 Tb1264 2.322 . S
O1281 C1295 1.257 . S
O1282 Tb1264 2.349 . S
O1282 C1266 1.261 . S
O1283 Tb1265 2.303 . S
O1283 C1266 1.257 . S
C1284 O1274 1.236 . S
C1284 O1275 1.257 . S
O1285 Tb1264 2.415 . S
O1285 C1273 1.239 . S
O1286 Tb1264 2.399 . S
O1286 C1273 1.263 . S
C1287 O1276 1.261 . S
C1287 O1277 1.257 . S
C1288 C1291 1.358 . S
C1288 C1292 1.332 . S
C1288 C1294 1.504 . S
C1289 C1290 1.373 . S
C1289 C1293 1.308 . S
C1290 C1289 1.373 . S
C1290 C1291 1.429 . S
C1290 H1300 0.932 . S
C1291 C1288 1.358 . S
C1291 C1290 1.429 . S
C1291 H1301 0.930 . S
C1292 C1288 1.332 . S
C1292 C1293 1.394 . S
C1292 H1302 0.932 . S
C1293 C1289 1.308 . S
C1293 C1292 1.394 . S
C1293 H1303 0.929 . S
C1294 Tb1265 2.764 . S
C1294 O1278 1.239 . S
C1294 O1279 1.263 . S
C1294 C1288 1.504 . S
C1295 O1280 1.236 . S
C1295 O1281 1.257 . S
H1296 C1269 0.932 . S
H1297 C1270 0.930 . S
H1298 C1271 0.932 1_655 S
H1299 C1272 0.991 . S
H1300 C1290 0.932 . S
H1301 C1291 0.930 . S
H1302 C1292 0.932 . S
H1303 C1293 0.929 . S
Tb1304 C1313 2.764 . S
Tb1304 O1314 2.325 . S
Tb1304 O1317 2.303 . S
Tb1304 O1321 2.322 . S
Tb1304 O1322 2.349 . S
Tb1304 O1325 2.415 . S
Tb1304 O1326 2.399 . S
Tb1305 O1315 2.322 . S
Tb1305 O1316 2.349 . S
Tb1305 O1318 2.415 . S
Tb1305 O1319 2.399 . S
Tb1305 O1320 2.325 . S
Tb1305 O1323 2.303 . S
Tb1305 C1334 2.764 . S
C1306 O1322 1.261 . S
C1306 O1323 1.257 . S
C1307 C1310 1.358 . S
C1307 C1311 1.332 . S
C1307 C1313 1.504 . S
C1308 C1309 1.373 . S
C1308 C1312 1.308 . S
C1309 C1308 1.373 . S
C1309 C1310 1.429 . S
C1309 H1336 0.932 . S
C1310 C1307 1.358 . S
C1310 C1309 1.429 . S
C1310 H1337 0.930 . S
C1311 C1307 1.332 . S
C1311 C1312 1.394 . S
C1311 H1338 0.932 . S
C1312 C1308 1.308 . S
C1312 C1311 1.394 . S
C1312 H1339 0.929 . S
C1313 Tb1304 2.764 . S
C1313 C1307 1.504 . S
C1313 O1325 1.239 . S
C1313 O1326 1.263 . S
O1314 Tb1304 2.325 . S
O1314 C1324 1.236 . S
O1315 Tb1305 2.322 . S
O1315 C1324 1.257 . S
O1316 Tb1305 2.349 . S
O1316 C1327 1.261 . S
O1317 Tb1304 2.303 . S
O1317 C1327 1.257 . S
O1318 Tb1305 2.415 . S
O1318 C1334 1.239 . S
O1319 Tb1305 2.399 . S
O1319 C1334 1.263 . S
O1320 Tb1305 2.325 . S
O1320 C1335 1.236 . S
O1321 Tb1304 2.322 . S
O1321 C1335 1.257 . S
O1322 Tb1304 2.349 . S
O1322 C1306 1.261 . S
O1323 Tb1305 2.303 . S
O1323 C1306 1.257 . S
C1324 O1314 1.236 . S
C1324 O1315 1.257 . S
O1325 Tb1304 2.415 . S
O1325 C1313 1.239 . S
O1326 Tb1304 2.399 . S
O1326 C1313 1.263 . S
C1327 O1316 1.261 . S
C1327 O1317 1.257 . S
C1328 C1331 1.358 . S
C1328 C1332 1.332 . S
C1328 C1334 1.504 . S
C1329 C1330 1.373 . S
C1329 C1333 1.308 . S
C1330 C1329 1.373 . S
C1330 C1331 1.429 . S
C1330 H1340 0.932 . S
C1331 C1328 1.358 . S
C1331 C1330 1.429 . S
C1331 H1341 0.930 . S
C1332 C1328 1.332 . S
C1332 C1333 1.394 . S
C1332 H1342 0.932 . S
C1333 C1329 1.308 . S
C1333 C1332 1.394 . S
C1333 H1343 0.929 . S
C1334 Tb1305 2.764 . S
C1334 O1318 1.239 . S
C1334 O1319 1.263 . S
C1334 C1328 1.504 . S
C1335 O1320 1.236 . S
C1335 O1321 1.257 . S
H1336 C1309 0.932 . S
H1337 C1310 0.930 . S
H1338 C1311 0.932 . S
H1339 C1312 0.929 . S
H1340 C1330 0.932 . S
H1341 C1331 0.930 . S
H1342 C1332 0.932 . S
H1343 C1333 0.929 . S
Tb1344 C1353 2.764 . S
Tb1344 O1354 2.325 . S
Tb1344 O1357 2.303 . S
Tb1344 O1361 2.322 . S
Tb1344 O1362 2.349 . S
Tb1344 O1365 2.415 . S
Tb1344 O1366 2.399 . S
Tb1345 O1355 2.322 . S
Tb1345 O1356 2.349 . S
Tb1345 O1358 2.415 . S
Tb1345 O1359 2.399 . S
Tb1345 O1360 2.325 . S
Tb1345 O1363 2.303 . S
Tb1345 C1374 2.764 . S
C1346 O1362 1.261 . S
C1346 O1363 1.257 . S
C1347 C1350 1.358 . S
C1347 C1351 1.332 . S
C1347 C1353 1.504 . S
C1348 C1349 1.373 . S
C1348 C1352 1.308 . S
C1349 C1348 1.373 . S
C1349 C1350 1.429 . S
C1349 H1376 0.932 . S
C1350 C1347 1.358 . S
C1350 C1349 1.429 . S
C1350 H1377 0.930 . S
C1351 C1347 1.332 . S
C1351 C1352 1.394 . S
C1351 H1378 0.932 . S
C1352 C1348 1.308 . S
C1352 C1351 1.394 . S
C1352 H1379 0.929 . S
C1353 Tb1344 2.764 . S
C1353 C1347 1.504 . S
C1353 O1365 1.239 . S
C1353 O1366 1.263 . S
O1354 Tb1344 2.325 . S
O1354 C1364 1.236 . S
O1355 Tb1345 2.322 . S
O1355 C1364 1.257 . S
O1356 Tb1345 2.349 . S
O1356 C1367 1.261 . S
O1357 Tb1344 2.303 . S
O1357 C1367 1.257 . S
O1358 Tb1345 2.415 . S
O1358 C1374 1.239 . S
O1359 Tb1345 2.399 . S
O1359 C1374 1.263 . S
O1360 Tb1345 2.325 . S
O1360 C1375 1.236 . S
O1361 Tb1344 2.322 . S
O1361 C1375 1.257 . S
O1362 Tb1344 2.349 . S
O1362 C1346 1.261 . S
O1363 Tb1345 2.303 . S
O1363 C1346 1.257 . S
C1364 O1354 1.236 . S
C1364 O1355 1.257 . S
O1365 Tb1344 2.415 . S
O1365 C1353 1.239 . S
O1366 Tb1344 2.399 . S
O1366 C1353 1.263 . S
C1367 O1356 1.261 . S
C1367 O1357 1.257 . S
C1368 C1371 1.358 . S
C1368 C1372 1.332 . S
C1368 C1374 1.504 . S
C1369 C1370 1.373 . S
C1369 C1373 1.308 . S
C1370 C1369 1.373 . S
C1370 C1371 1.429 . S
C1370 H1380 0.932 . S
C1371 C1368 1.358 . S
C1371 C1370 1.429 . S
C1371 H1381 0.930 . S
C1372 C1368 1.332 . S
C1372 C1373 1.394 . S
C1372 H1382 0.932 . S
C1373 C1369 1.308 . S
C1373 C1372 1.394 . S
C1373 H1383 0.929 . S
C1374 Tb1345 2.764 . S
C1374 O1358 1.239 . S
C1374 O1359 1.263 . S
C1374 C1368 1.504 . S
C1375 O1360 1.236 . S
C1375 O1361 1.257 . S
H1376 C1349 0.932 . S
H1377 C1350 0.930 . S
H1378 C1351 0.932 . S
H1379 C1352 0.929 . S
H1380 C1370 0.932 . S
H1381 C1371 0.930 . S
H1382 C1372 0.932 . S
H1383 C1373 0.929 . S
Tb1384 C1393 2.764 . S
Tb1384 O1394 2.325 . S
Tb1384 O1397 2.303 . S
Tb1384 O1401 2.322 . S
Tb1384 O1402 2.349 . S
Tb1384 O1405 2.415 . S
Tb1384 O1406 2.399 . S
Tb1385 O1395 2.322 . S
Tb1385 O1396 2.349 . S
Tb1385 O1398 2.415 . S
Tb1385 O1399 2.399 . S
Tb1385 O1400 2.325 . S
Tb1385 O1403 2.303 . S
Tb1385 C1414 2.764 . S
C1386 O1402 1.261 . S
C1386 O1403 1.257 . S
C1387 C1390 1.358 . S
C1387 C1391 1.332 . S
C1387 C1393 1.504 . S
C1388 C1389 1.373 . S
C1388 C1392 1.308 . S
C1389 C1388 1.373 . S
C1389 C1390 1.429 . S
C1389 H1416 0.932 . S
C1390 C1387 1.358 . S
C1390 C1389 1.429 . S
C1390 H1417 0.930 . S
C1391 C1387 1.332 . S
C1391 C1392 1.394 . S
C1391 H1418 0.932 . S
C1392 C1388 1.308 . S
C1392 C1391 1.394 . S
C1392 H1419 0.929 . S
C1393 Tb1384 2.764 . S
C1393 C1387 1.504 . S
C1393 O1405 1.239 . S
C1393 O1406 1.263 . S
O1394 Tb1384 2.325 . S
O1394 C1404 1.236 . S
O1395 Tb1385 2.322 . S
O1395 C1404 1.257 . S
O1396 Tb1385 2.349 . S
O1396 C1407 1.261 . S
O1397 Tb1384 2.303 . S
O1397 C1407 1.257 . S
O1398 Tb1385 2.415 . S
O1398 C1414 1.239 . S
O1399 Tb1385 2.399 . S
O1399 C1414 1.263 . S
O1400 Tb1385 2.325 . S
O1400 C1415 1.236 . S
O1401 Tb1384 2.322 . S
O1401 C1415 1.257 . S
O1402 Tb1384 2.349 . S
O1402 C1386 1.261 . S
O1403 Tb1385 2.303 . S
O1403 C1386 1.257 . S
C1404 O1394 1.236 . S
C1404 O1395 1.257 . S
O1405 Tb1384 2.415 . S
O1405 C1393 1.239 . S
O1406 Tb1384 2.399 . S
O1406 C1393 1.263 . S
C1407 O1396 1.261 . S
C1407 O1397 1.257 . S
C1408 C1411 1.358 . S
C1408 C1412 1.332 . S
C1408 C1414 1.504 . S
C1409 C1410 1.373 . S
C1409 C1413 1.308 . S
C1410 C1409 1.373 . S
C1410 C1411 1.429 . S
C1410 H1420 0.932 . S
C1411 C1408 1.358 . S
C1411 C1410 1.429 . S
C1411 H1421 0.930 . S
C1412 C1408 1.332 . S
C1412 C1413 1.394 . S
C1412 H1422 0.932 . S
C1413 C1409 1.308 . S
C1413 C1412 1.394 . S
C1413 H1423 0.929 . S
C1414 Tb1385 2.764 . S
C1414 O1398 1.239 . S
C1414 O1399 1.263 . S
C1414 C1408 1.504 . S
C1415 O1400 1.236 . S
C1415 O1401 1.257 . S
H1416 C1389 0.932 . S
H1417 C1390 0.930 . S
H1418 C1391 0.932 . S
H1419 C1392 0.929 . S
H1420 C1410 0.932 . S
H1421 C1411 0.930 . S
H1422 C1412 0.932 . S
H1423 C1413 0.929 . S
Tb1424 C1433 2.764 . S
Tb1424 O1434 2.325 . S
Tb1424 O1437 2.303 . S
Tb1424 O1441 2.322 . S
Tb1424 O1442 2.349 . S
Tb1424 O1445 2.415 . S
Tb1424 O1446 2.399 . S
Tb1425 O1435 2.322 . S
Tb1425 O1436 2.349 . S
Tb1425 O1438 2.415 . S
Tb1425 O1439 2.399 . S
Tb1425 O1440 2.325 . S
Tb1425 O1443 2.303 . S
Tb1425 C1454 2.764 . S
C1426 O1442 1.261 . S
C1426 O1443 1.257 . S
C1427 C1430 1.358 . S
C1427 C1431 1.332 . S
C1427 C1433 1.504 . S
C1428 C1429 1.373 . S
C1428 C1432 1.308 . S
C1429 C1428 1.373 . S
C1429 C1430 1.429 . S
C1429 H1456 0.932 . S
C1430 C1427 1.358 . S
C1430 C1429 1.429 . S
C1430 H1457 0.930 . S
C1431 C1427 1.332 . S
C1431 C1432 1.394 . S
C1431 H1458 0.932 . S
C1432 C1428 1.308 . S
C1432 C1431 1.394 . S
C1432 H1459 0.929 . S
C1433 Tb1424 2.764 . S
C1433 C1427 1.504 . S
C1433 O1445 1.239 . S
C1433 O1446 1.263 . S
O1434 Tb1424 2.325 . S
O1434 C1444 1.236 . S
O1435 Tb1425 2.322 . S
O1435 C1444 1.257 . S
O1436 Tb1425 2.349 . S
O1436 C1447 1.261 . S
O1437 Tb1424 2.303 . S
O1437 C1447 1.257 . S
O1438 Tb1425 2.415 . S
O1438 C1454 1.239 . S
O1439 Tb1425 2.399 . S
O1439 C1454 1.263 . S
O1440 Tb1425 2.325 . S
O1440 C1455 1.236 . S
O1441 Tb1424 2.322 . S
O1441 C1455 1.257 . S
O1442 Tb1424 2.349 . S
O1442 C1426 1.261 . S
O1443 Tb1425 2.303 . S
O1443 C1426 1.257 . S
C1444 O1434 1.236 . S
C1444 O1435 1.257 . S
O1445 Tb1424 2.415 . S
O1445 C1433 1.239 . S
O1446 Tb1424 2.399 . S
O1446 C1433 1.263 . S
C1447 O1436 1.261 . S
C1447 O1437 1.257 . S
C1448 C1451 1.358 . S
C1448 C1452 1.332 . S
C1448 C1454 1.504 . S
C1449 C1450 1.373 . S
C1449 C1453 1.308 . S
C1450 C1449 1.373 . S
C1450 C1451 1.429 . S
C1450 H1460 0.932 . S
C1451 C1448 1.358 . S
C1451 C1450 1.429 . S
C1451 H1461 0.930 . S
C1452 C1448 1.332 . S
C1452 C1453 1.394 . S
C1452 H1462 0.932 . S
C1453 C1449 1.308 . S
C1453 C1452 1.394 . S
C1453 H1463 0.929 . S
C1454 Tb1425 2.764 . S
C1454 O1438 1.239 . S
C1454 O1439 1.263 . S
C1454 C1448 1.504 . S
C1455 O1440 1.236 . S
C1455 O1441 1.257 . S
H1456 C1429 0.932 . S
H1457 C1430 0.930 . S
H1458 C1431 0.932 . S
H1459 C1432 0.929 . S
H1460 C1450 0.932 . S
H1461 C1451 0.930 . S
H1462 C1452 0.932 . S
H1463 C1453 0.929 . S
Tb1464 C1473 2.764 1_455 S
Tb1464 O1474 2.325 . S
Tb1464 O1477 2.303 . S
Tb1464 O1481 2.322 . S
Tb1464 O1482 2.349 . S
Tb1464 O1485 2.415 1_455 S
Tb1464 O1486 2.399 1_455 S
Tb1465 O1475 2.322 . S
Tb1465 O1476 2.349 1_554 S
Tb1465 O1478 2.415 . S
Tb1465 O1479 2.399 1_554 S
Tb1465 O1480 2.325 . S
Tb1465 O1483 2.303 . S
Tb1465 C1494 2.764 . S
C1466 O1482 1.261 . S
C1466 O1483 1.257 . S
C1467 C1470 1.358 . S
C1467 C1471 1.332 . S
C1467 C1473 1.504 . S
C1468 C1469 1.373 . S
C1468 C1472 1.308 . S
C1469 C1468 1.373 . S
C1469 C1470 1.429 . S
C1469 H1496 0.932 . S
C1470 C1467 1.358 . S
C1470 C1469 1.429 . S
C1470 H1497 0.930 . S
C1471 C1467 1.332 . S
C1471 C1472 1.394 . S
C1471 H1498 0.932 . S
C1472 C1468 1.308 . S
C1472 C1471 1.394 . S
C1472 H1499 0.929 . S
C1473 Tb1464 2.764 1_655 S
C1473 C1467 1.504 . S
C1473 O1485 1.239 . S
C1473 O1486 1.263 . S
O1474 Tb1464 2.325 . S
O1474 C1484 1.236 . S
O1475 Tb1465 2.322 . S
O1475 C1484 1.257 . S
O1476 Tb1465 2.349 1_556 S
O1476 C1487 1.261 . S
O1477 Tb1464 2.303 . S
O1477 C1487 1.257 1_554 S
O1478 Tb1465 2.415 . S
O1478 C1494 1.239 . S
O1479 Tb1465 2.399 1_556 S
O1479 C1494 1.263 1_556 S
O1480 Tb1465 2.325 . S
O1480 C1495 1.236 . S
O1481 Tb1464 2.322 . S
O1481 C1495 1.257 . S
O1482 Tb1464 2.349 . S
O1482 C1466 1.261 . S
O1483 Tb1465 2.303 . S
O1483 C1466 1.257 . S
C1484 O1474 1.236 . S
C1484 O1475 1.257 . S
O1485 Tb1464 2.415 1_655 S
O1485 C1473 1.239 . S
O1486 Tb1464 2.399 1_655 S
O1486 C1473 1.263 . S
C1487 O1476 1.261 . S
C1487 O1477 1.257 1_556 S
C1488 C1491 1.358 1_554 S
C1488 C1492 1.332 . S
C1488 C1494 1.504 . S
C1489 C1490 1.373 1_554 S
C1489 C1493 1.308 . S
C1490 C1489 1.373 1_556 S
C1490 C1491 1.429 . S
C1490 H1500 0.932 . S
C1491 C1488 1.358 1_556 S
C1491 C1490 1.429 . S
C1491 H1501 0.930 . S
C1492 C1488 1.332 . S
C1492 C1493 1.394 . S
C1492 H1502 0.932 . S
C1493 C1489 1.308 . S
C1493 C1492 1.394 . S
C1493 H1503 0.929 . S
C1494 Tb1465 2.764 . S
C1494 O1478 1.239 . S
C1494 O1479 1.263 1_554 S
C1494 C1488 1.504 . S
C1495 O1480 1.236 . S
C1495 O1481 1.257 . S
H1496 C1469 0.932 . S
H1497 C1470 0.930 . S
H1498 C1471 0.932 . S
H1499 C1472 0.929 . S
H1500 C1490 0.932 . S
H1501 C1491 0.930 . S
H1502 C1492 0.932 . S
H1503 C1493 0.929 . S
C1504 C1505 1.349 1_455 S
C1504 C1506 1.327 . S
C1504 H1529 0.950 . S
C1505 C1504 1.349 1_655 S
C1505 C1521 1.349 . S
C1506 C1504 1.327 . S
C1506 C1525 1.429 . S
C1506 H1530 0.950 . S
C1507 C1524 1.569 1_655 S
C1507 C1526 1.364 1_655 S
C1507 H1531 0.958 . S
H1508 C1512 0.949 . S
C1509 C1510 1.349 . S
C1509 C1511 1.327 . S
C1509 H1532 0.950 . S
C1510 C1509 1.349 . S
C1510 C1522 1.349 1_554 S
C1511 C1509 1.327 . S
C1511 C1527 1.429 1_554 S
C1511 H1533 0.950 . S
C1512 H1508 0.949 . S
C1512 C1520 1.574 . S
C1512 C1528 1.368 . S
H1513 C1521 0.950 . S
H1514 C1519 0.950 . S
H1515 C1520 0.949 . S
H1516 C1522 0.950 . S
H1517 C1523 0.950 . S
H1518 C1524 0.944 1_654 S
C1519 H1514 0.950 . S
C1519 C1521 1.327 . S
C1519 C1525 1.429 1_655 S
C1520 C1512 1.574 . S
C1520 H1515 0.949 . S
C1520 C1526 1.368 . S
C1521 C1505 1.349 . S
C1521 H1513 0.950 . S
C1521 C1519 1.327 . S
C1522 C1510 1.349 1_556 S
C1522 H1516 0.950 . S
C1522 C1523 1.327 . S
C1523 H1517 0.950 . S
C1523 C1522 1.327 . S
C1523 C1527 1.429 . S
C1524 C1507 1.569 1_455 S
C1524 H1518 0.944 1_456 S
C1524 C1528 1.368 . S
C1525 C1506 1.429 . S
C1525 C1519 1.429 1_455 S
C1525 C1526 1.523 . S
C1526 C1507 1.364 1_455 S
C1526 C1520 1.368 . S
C1526 C1525 1.523 . S
C1527 C1511 1.429 1_556 S
C1527 C1523 1.429 . S
C1527 C1528 1.523 . S
C1528 C1512 1.368 . S
C1528 C1524 1.368 . S
C1528 C1527 1.523 . S
H1529 C1504 0.950 . S
H1530 C1506 0.950 . S
H1531 C1507 0.958 . S
H1532 C1509 0.950 . S
H1533 C1511 0.950 . S
C1534 C1535 1.349 . S
C1534 C1536 1.327 . S
C1534 H1559 0.950 . S
C1535 C1534 1.349 . S
C1535 C1551 1.349 . S
C1536 C1534 1.327 . S
C1536 C1555 1.429 . S
C1536 H1560 0.950 . S
C1537 C1554 1.574 . S
C1537 C1556 1.368 . S
C1537 H1561 0.949 . S
H1538 C1542 0.949 . S
C1539 C1540 1.349 . S
C1539 C1541 1.327 . S
C1539 H1562 0.950 . S
C1540 C1539 1.349 . S
C1540 C1552 1.349 . S
C1541 C1539 1.327 . S
C1541 C1557 1.429 . S
C1541 H1563 0.950 . S
C1542 H1538 0.949 . S
C1542 C1550 1.574 . S
C1542 C1558 1.368 . S
H1543 C1551 0.950 . S
H1544 C1549 0.950 . S
H1545 C1550 0.949 . S
H1546 C1552 0.950 . S
H1547 C1553 0.950 . S
H1548 C1554 0.949 . S
C1549 H1544 0.950 . S
C1549 C1551 1.327 . S
C1549 C1555 1.429 . S
C1550 C1542 1.574 . S
C1550 H1545 0.949 . S
C1550 C1556 1.368 . S
C1551 C1535 1.349 . S
C1551 H1543 0.950 . S
C1551 C1549 1.327 . S
C1552 C1540 1.349 . S
C1552 H1546 0.950 . S
C1552 C1553 1.327 . S
C1553 H1547 0.950 . S
C1553 C1552 1.327 . S
C1553 C1557 1.429 . S
C1554 C1537 1.574 . S
C1554 H1548 0.949 . S
C1554 C1558 1.368 . S
C1555 C1536 1.429 . S
C1555 C1549 1.429 . S
C1555 C1556 1.523 . S
C1556 C1537 1.368 . S
C1556 C1550 1.368 . S
C1556 C1555 1.523 . S
C1557 C1541 1.429 . S
C1557 C1553 1.429 . S
C1557 C1558 1.523 . S
C1558 C1542 1.368 . S
C1558 C1554 1.368 . S
C1558 C1557 1.523 . S
H1559 C1534 0.950 . S
H1560 C1536 0.950 . S
H1561 C1537 0.949 . S
H1562 C1539 0.950 . S
H1563 C1541 0.950 . S
C1564 C1565 1.349 . S
C1564 C1566 1.327 . S
C1564 H1589 0.950 . S
C1565 C1564 1.349 . S
C1565 C1581 1.349 . S
C1566 C1564 1.327 . S
C1566 C1585 1.429 . S
C1566 H1590 0.950 . S
C1567 C1584 1.574 . S
C1567 C1586 1.368 . S
C1567 H1591 0.949 . S
H1568 C1572 0.949 . S
C1569 C1570 1.349 . S
C1569 C1571 1.327 . S
C1569 H1592 0.950 . S
C1570 C1569 1.349 . S
C1570 C1582 1.349 . S
C1571 C1569 1.327 . S
C1571 C1587 1.429 . S
C1571 H1593 0.950 . S
C1572 H1568 0.949 . S
C1572 C1580 1.574 . S
C1572 C1588 1.368 . S
H1573 C1581 0.950 . S
H1574 C1579 0.950 . S
H1575 C1580 0.949 . S
H1576 C1582 0.950 . S
H1577 C1583 0.950 . S
H1578 C1584 0.949 . S
C1579 H1574 0.950 . S
C1579 C1581 1.327 . S
C1579 C1585 1.429 . S
C1580 C1572 1.574 . S
C1580 H1575 0.949 . S
C1580 C1586 1.368 . S
C1581 C1565 1.349 . S
C1581 H1573 0.950 . S
C1581 C1579 1.327 . S
C1582 C1570 1.349 . S
C1582 H1576 0.950 . S
C1582 C1583 1.327 . S
C1583 H1577 0.950 . S
C1583 C1582 1.327 . S
C1583 C1587 1.429 . S
C1584 C1567 1.574 . S
C1584 H1578 0.949 . S
C1584 C1588 1.368 . S
C1585 C1566 1.429 . S
C1585 C1579 1.429 . S
C1585 C1586 1.523 . S
C1586 C1567 1.368 . S
C1586 C1580 1.368 . S
C1586 C1585 1.523 . S
C1587 C1571 1.429 . S
C1587 C1583 1.429 . S
C1587 C1588 1.523 . S
C1588 C1572 1.368 . S
C1588 C1584 1.368 . S
C1588 C1587 1.523 . S
H1589 C1564 0.950 . S
H1590 C1566 0.950 . S
H1591 C1567 0.949 . S
H1592 C1569 0.950 . S
H1593 C1571 0.950 . S
C1594 C1595 1.349 . S
C1594 C1596 1.327 . S
C1594 H1619 0.950 . S
C1595 C1594 1.349 . S
C1595 C1611 1.349 . S
C1596 C1594 1.327 . S
C1596 C1615 1.429 . S
C1596 H1620 0.950 . S
C1597 C1614 1.574 . S
C1597 C1616 1.368 . S
C1597 H1621 0.949 . S
H1598 C1602 0.949 . S
C1599 C1600 1.349 . S
C1599 C1601 1.327 . S
C1599 H1622 0.950 . S
C1600 C1599 1.349 . S
C1600 C1612 1.349 . S
C1601 C1599 1.327 . S
C1601 C1617 1.429 . S
C1601 H1623 0.950 . S
C1602 H1598 0.949 . S
C1602 C1610 1.574 . S
C1602 C1618 1.368 . S
H1603 C1611 0.950 . S
H1604 C1609 0.950 . S
H1605 C1610 0.949 . S
H1606 C1612 0.950 . S
H1607 C1613 0.950 . S
H1608 C1614 0.949 . S
C1609 H1604 0.950 . S
C1609 C1611 1.327 . S
C1609 C1615 1.429 . S
C1610 C1602 1.574 . S
C1610 H1605 0.949 . S
C1610 C1616 1.368 . S
C1611 C1595 1.349 . S
C1611 H1603 0.950 . S
C1611 C1609 1.327 . S
C1612 C1600 1.349 . S
C1612 H1606 0.950 . S
C1612 C1613 1.327 . S
C1613 H1607 0.950 . S
C1613 C1612 1.327 . S
C1613 C1617 1.429 . S
C1614 C1597 1.574 . S
C1614 H1608 0.949 . S
C1614 C1618 1.368 . S
C1615 C1596 1.429 . S
C1615 C1609 1.429 . S
C1615 C1616 1.523 . S
C1616 C1597 1.368 . S
C1616 C1610 1.368 . S
C1616 C1615 1.523 . S
C1617 C1601 1.429 . S
C1617 C1613 1.429 . S
C1617 C1618 1.523 . S
C1618 C1602 1.368 . S
C1618 C1614 1.368 . S
C1618 C1617 1.523 . S
H1619 C1594 0.950 . S
H1620 C1596 0.950 . S
H1621 C1597 0.949 . S
H1622 C1599 0.950 . S
H1623 C1601 0.950 . S
C1624 C1625 1.349 . S
C1624 C1626 1.327 . S
C1624 H1649 0.950 . S
C1625 C1624 1.349 . S
C1625 C1641 1.349 . S
C1626 C1624 1.327 . S
C1626 C1645 1.429 . S
C1626 H1650 0.950 . S
C1627 C1644 1.574 . S
C1627 C1646 1.368 . S
C1627 H1651 0.949 . S
H1628 C1632 0.949 . S
C1629 C1630 1.349 . S
C1629 C1631 1.327 . S
C1629 H1652 0.950 . S
C1630 C1629 1.349 . S
C1630 C1642 1.349 . S
C1631 C1629 1.327 . S
C1631 C1647 1.429 . S
C1631 H1653 0.950 . S
C1632 H1628 0.949 . S
C1632 C1640 1.574 . S
C1632 C1648 1.368 . S
H1633 C1641 0.950 . S
H1634 C1639 0.950 . S
H1635 C1640 0.949 . S
H1636 C1642 0.950 . S
H1637 C1643 0.950 . S
H1638 C1644 0.949 . S
C1639 H1634 0.950 . S
C1639 C1641 1.327 . S
C1639 C1645 1.429 . S
C1640 C1632 1.574 . S
C1640 H1635 0.949 . S
C1640 C1646 1.368 . S
C1641 C1625 1.349 . S
C1641 H1633 0.950 . S
C1641 C1639 1.327 . S
C1642 C1630 1.349 . S
C1642 H1636 0.950 . S
C1642 C1643 1.327 . S
C1643 H1637 0.950 . S
C1643 C1642 1.327 . S
C1643 C1647 1.429 . S
C1644 C1627 1.574 . S
C1644 H1638 0.949 . S
C1644 C1648 1.368 . S
C1645 C1626 1.429 . S
C1645 C1639 1.429 . S
C1645 C1646 1.523 . S
C1646 C1627 1.368 . S
C1646 C1640 1.368 . S
C1646 C1645 1.523 . S
C1647 C1631 1.429 . S
C1647 C1643 1.429 . S
C1647 C1648 1.523 . S
C1648 C1632 1.368 . S
C1648 C1644 1.368 . S
C1648 C1647 1.523 . S
H1649 C1624 0.950 . S
H1650 C1626 0.950 . S
H1651 C1627 0.949 . S
H1652 C1629 0.950 . S
H1653 C1631 0.950 . S
C1654 C1655 1.349 . S
C1654 C1656 1.327 . S
C1654 H1679 0.950 . S
C1655 C1654 1.349 . S
C1655 C1671 1.349 . S
C1656 C1654 1.327 . S
C1656 C1675 1.429 . S
C1656 H1680 0.950 . S
C1657 C1674 1.574 . S
C1657 C1676 1.368 . S
C1657 H1681 0.949 . S
H1658 C1662 0.949 . S
C1659 C1660 1.349 . S
C1659 C1661 1.327 . S
C1659 H1682 0.950 . S
C1660 C1659 1.349 . S
C1660 C1672 1.349 . S
C1661 C1659 1.327 . S
C1661 C1677 1.429 . S
C1661 H1683 0.950 . S
C1662 H1658 0.949 . S
C1662 C1670 1.574 . S
C1662 C1678 1.368 . S
H1663 C1671 0.950 . S
H1664 C1669 0.950 . S
H1665 C1670 0.949 . S
H1666 C1672 0.950 . S
H1667 C1673 0.950 . S
H1668 C1674 0.949 . S
C1669 H1664 0.950 . S
C1669 C1671 1.327 . S
C1669 C1675 1.429 . S
C1670 C1662 1.574 . S
C1670 H1665 0.949 . S
C1670 C1676 1.368 . S
C1671 C1655 1.349 . S
C1671 H1663 0.950 . S
C1671 C1669 1.327 . S
C1672 C1660 1.349 . S
C1672 H1666 0.950 . S
C1672 C1673 1.327 . S
C1673 H1667 0.950 . S
C1673 C1672 1.327 . S
C1673 C1677 1.429 . S
C1674 C1657 1.574 . S
C1674 H1668 0.949 . S
C1674 C1678 1.368 . S
C1675 C1656 1.429 . S
C1675 C1669 1.429 . S
C1675 C1676 1.523 . S
C1676 C1657 1.368 . S
C1676 C1670 1.368 . S
C1676 C1675 1.523 . S
C1677 C1661 1.429 . S
C1677 C1673 1.429 . S
C1677 C1678 1.523 . S
C1678 C1662 1.368 . S
C1678 C1674 1.368 . S
C1678 C1677 1.523 . S
H1679 C1654 0.950 . S
H1680 C1656 0.950 . S
H1681 C1657 0.949 . S
H1682 C1659 0.950 . S
H1683 C1661 0.950 . S
C1684 C1685 1.349 . S
C1684 C1686 1.327 . S
C1684 H1709 0.950 . S
C1685 C1684 1.349 . S
C1685 C1701 1.349 . S
C1686 C1684 1.327 . S
C1686 C1705 1.429 . S
C1686 H1710 0.950 . S
C1687 C1704 1.574 . S
C1687 C1706 1.368 . S
C1687 H1711 0.949 . S
H1688 C1692 0.949 . S
C1689 C1690 1.349 . S
C1689 C1691 1.327 . S
C1689 H1712 0.950 . S
C1690 C1689 1.349 . S
C1690 C1702 1.349 . S
C1691 C1689 1.327 . S
C1691 C1707 1.429 . S
C1691 H1713 0.950 . S
C1692 H1688 0.949 . S
C1692 C1700 1.574 . S
C1692 C1708 1.368 . S
H1693 C1701 0.950 . S
H1694 C1699 0.950 . S
H1695 C1700 0.949 . S
H1696 C1702 0.950 . S
H1697 C1703 0.950 . S
H1698 C1704 0.949 . S
C1699 H1694 0.950 . S
C1699 C1701 1.327 . S
C1699 C1705 1.429 . S
C1700 C1692 1.574 . S
C1700 H1695 0.949 . S
C1700 C1706 1.368 . S
C1701 C1685 1.349 . S
C1701 H1693 0.950 . S
C1701 C1699 1.327 . S
C1702 C1690 1.349 . S
C1702 H1696 0.950 . S
C1702 C1703 1.327 . S
C1703 H1697 0.950 . S
C1703 C1702 1.327 . S
C1703 C1707 1.429 . S
C1704 C1687 1.574 . S
C1704 H1698 0.949 . S
C1704 C1708 1.368 . S
C1705 C1686 1.429 . S
C1705 C1699 1.429 . S
C1705 C1706 1.523 . S
C1706 C1687 1.368 . S
C1706 C1700 1.368 . S
C1706 C1705 1.523 . S
C1707 C1691 1.429 . S
C1707 C1703 1.429 . S
C1707 C1708 1.523 . S
C1708 C1692 1.368 . S
C1708 C1704 1.368 . S
C1708 C1707 1.523 . S
H1709 C1684 0.950 . S
H1710 C1686 0.950 . S
H1711 C1687 0.949 . S
H1712 C1689 0.950 . S
H1713 C1691 0.950 . S
C1714 C1715 1.349 . S
C1714 C1716 1.327 . S
C1714 H1739 0.950 . S
C1715 C1714 1.349 . S
C1715 C1731 1.349 . S
C1716 C1714 1.327 . S
C1716 C1735 1.429 . S
C1716 H1740 0.950 . S
C1717 C1734 1.574 . S
C1717 C1736 1.368 . S
C1717 H1741 0.949 . S
H1718 C1722 0.949 . S
C1719 C1720 1.349 . S
C1719 C1721 1.327 . S
C1719 H1742 0.950 . S
C1720 C1719 1.349 . S
C1720 C1732 1.349 . S
C1721 C1719 1.327 . S
C1721 C1737 1.429 . S
C1721 H1743 0.950 . S
C1722 H1718 0.949 . S
C1722 C1730 1.574 . S
C1722 C1738 1.368 . S
H1723 C1731 0.950 . S
H1724 C1729 0.950 . S
H1725 C1730 0.949 . S
H1726 C1732 0.950 . S
H1727 C1733 0.950 . S
H1728 C1734 0.949 . S
C1729 H1724 0.950 . S
C1729 C1731 1.327 . S
C1729 C1735 1.429 . S
C1730 C1722 1.574 . S
C1730 H1725 0.949 . S
C1730 C1736 1.368 . S
C1731 C1715 1.349 . S
C1731 H1723 0.950 . S
C1731 C1729 1.327 . S
C1732 C1720 1.349 . S
C1732 H1726 0.950 . S
C1732 C1733 1.327 . S
C1733 H1727 0.950 . S
C1733 C1732 1.327 . S
C1733 C1737 1.429 . S
C1734 C1717 1.574 . S
C1734 H1728 0.949 . S
C1734 C1738 1.368 . S
C1735 C1716 1.429 . S
C1735 C1729 1.429 . S
C1735 C1736 1.523 . S
C1736 C1717 1.368 . S
C1736 C1730 1.368 . S
C1736 C1735 1.523 . S
C1737 C1721 1.429 . S
C1737 C1733 1.429 . S
C1737 C1738 1.523 . S
C1738 C1722 1.368 . S
C1738 C1734 1.368 . S
C1738 C1737 1.523 . S
H1739 C1714 0.950 . S
H1740 C1716 0.950 . S
H1741 C1717 0.949 . S
H1742 C1719 0.950 . S
H1743 C1721 0.950 . S
C1744 C1745 1.349 . S
C1744 C1746 1.327 . S
C1744 H1769 0.950 . S
C1745 C1744 1.349 . S
C1745 C1761 1.349 1_545 S
C1746 C1744 1.327 . S
C1746 C1765 1.429 . S
C1746 H1770 0.950 . S
C1747 C1764 1.574 . S
C1747 C1766 1.368 . S
C1747 H1771 0.949 1_545 S
H1748 C1752 0.949 1_455 S
C1749 C1750 1.349 . S
C1749 C1751 1.327 1_455 S
C1749 H1772 0.949 1_455 S
C1750 C1749 1.349 . S
C1750 C1762 1.349 . S
C1751 C1749 1.327 1_655 S
C1751 C1767 1.429 . S
C1751 H1773 0.950 1_545 S
C1752 H1748 0.949 1_655 S
C1752 C1760 1.574 . S
C1752 C1768 1.368 . S
H1753 C1761 0.950 . S
H1754 C1759 0.961 . S
H1755 C1760 0.949 . S
H1756 C1762 0.950 . S
H1757 C1763 0.950 . S
H1758 C1764 0.949 1_565 S
C1759 H1754 0.961 . S
C1759 C1761 1.327 . S
C1759 C1765 1.419 1_565 S
C1760 C1752 1.574 . S
C1760 H1755 0.949 . S
C1760 C1766 1.368 . S
C1761 C1745 1.349 1_565 S
C1761 H1753 0.950 . S
C1761 C1759 1.327 . S
C1762 C1750 1.349 . S
C1762 H1756 0.950 . S
C1762 C1763 1.327 . S
C1763 H1757 0.950 . S
C1763 C1762 1.327 . S
C1763 C1767 1.429 1_455 S
C1764 C1747 1.574 . S
C1764 H1758 0.949 1_545 S
C1764 C1768 1.368 . S
C1765 C1746 1.429 . S
C1765 C1759 1.419 1_545 S
C1765 C1766 1.523 . S
C1766 C1747 1.368 . S
C1766 C1760 1.368 . S
C1766 C1765 1.523 . S
C1767 C1751 1.429 . S
C1767 C1763 1.429 1_655 S
C1767 C1768 1.523 . S
C1768 C1752 1.368 . S
C1768 C1764 1.368 . S
C1768 C1767 1.523 . S
H1769 C1744 0.950 . S
H1770 C1746 0.950 . S
H1771 C1747 0.949 1_565 S
H1772 C1749 0.949 1_655 S
H1773 C1751 0.950 1_565 S
C1774 C1775 1.349 . S
C1774 C1776 1.327 . S
C1774 H1799 0.950 . S
C1775 C1774 1.349 . S
C1775 C1791 1.349 . S
C1776 C1774 1.327 . S
C1776 C1795 1.429 . S
C1776 H1800 0.950 . S
C1777 C1794 1.574 . S
C1777 C1796 1.368 . S
C1777 H1801 0.949 . S
H1778 C1782 0.949 . S
C1779 C1780 1.349 . S
C1779 C1781 1.327 . S
C1779 H1802 0.950 . S
C1780 C1779 1.349 . S
C1780 C1792 1.349 . S
C1781 C1779 1.327 . S
C1781 C1797 1.429 . S
C1781 H1803 0.950 . S
C1782 H1778 0.949 . S
C1782 C1790 1.574 . S
C1782 C1798 1.368 . S
H1783 C1791 0.950 . S
H1784 C1789 0.950 . S
H1785 C1790 0.949 . S
H1786 C1792 0.950 . S
H1787 C1793 0.950 . S
H1788 C1794 0.949 . S
C1789 H1784 0.950 . S
C1789 C1791 1.327 . S
C1789 C1795 1.429 . S
C1790 C1782 1.574 . S
C1790 H1785 0.949 . S
C1790 C1796 1.368 . S
C1791 C1775 1.349 . S
C1791 H1783 0.950 . S
C1791 C1789 1.327 . S
C1792 C1780 1.349 . S
C1792 H1786 0.950 . S
C1792 C1793 1.327 . S
C1793 H1787 0.950 . S
C1793 C1792 1.327 . S
C1793 C1797 1.429 . S
C1794 C1777 1.574 . S
C1794 H1788 0.949 . S
C1794 C1798 1.368 . S
C1795 C1776 1.429 . S
C1795 C1789 1.429 . S
C1795 C1796 1.523 . S
C1796 C1777 1.368 . S
C1796 C1790 1.368 . S
C1796 C1795 1.523 . S
C1797 C1781 1.429 . S
C1797 C1793 1.429 . S
C1797 C1798 1.523 . S
C1798 C1782 1.368 . S
C1798 C1794 1.368 . S
C1798 C1797 1.523 . S
H1799 C1774 0.950 . S
H1800 C1776 0.950 . S
H1801 C1777 0.949 . S
H1802 C1779 0.950 . S
H1803 C1781 0.950 . S
C1804 C1805 1.349 . S
C1804 C1806 1.327 . S
C1804 H1829 0.950 . S
C1805 C1804 1.349 . S
C1805 C1821 1.349 . S
C1806 C1804 1.327 . S
C1806 C1825 1.429 . S
C1806 H1830 0.950 . S
C1807 C1824 1.574 . S
C1807 C1826 1.368 . S
C1807 H1831 0.949 1_545 S
H1808 C1812 0.949 . S
C1809 C1810 1.349 . S
C1809 C1811 1.327 . S
C1809 H1832 0.950 1_545 S
C1810 C1809 1.349 . S
C1810 C1822 1.349 . S
C1811 C1809 1.327 . S
C1811 C1827 1.429 . S
C1811 H1833 0.950 1_545 S
C1812 H1808 0.949 . S
C1812 C1820 1.574 . S
C1812 C1828 1.368 . S
H1813 C1821 0.950 1_565 S
H1814 C1819 0.950 1_565 S
H1815 C1820 0.949 . S
H1816 C1822 0.950 . S
H1817 C1823 0.950 . S
H1818 C1824 0.949 1_565 S
C1819 H1814 0.950 1_545 S
C1819 C1821 1.327 . S
C1819 C1825 1.429 . S
C1820 C1812 1.574 . S
C1820 H1815 0.949 . S
C1820 C1826 1.368 . S
C1821 C1805 1.349 . S
C1821 H1813 0.950 1_545 S
C1821 C1819 1.327 . S
C1822 C1810 1.349 . S
C1822 H1816 0.950 . S
C1822 C1823 1.327 . S
C1823 H1817 0.950 . S
C1823 C1822 1.327 . S
C1823 C1827 1.429 . S
C1824 C1807 1.574 . S
C1824 H1818 0.949 1_545 S
C1824 C1828 1.368 . S
C1825 C1806 1.429 . S
C1825 C1819 1.429 . S
C1825 C1826 1.523 . S
C1826 C1807 1.368 . S
C1826 C1820 1.368 . S
C1826 C1825 1.523 . S
C1827 C1811 1.429 . S
C1827 C1823 1.429 . S
C1827 C1828 1.523 . S
C1828 C1812 1.368 . S
C1828 C1824 1.368 . S
C1828 C1827 1.523 . S
H1829 C1804 0.950 . S
H1830 C1806 0.950 . S
H1831 C1807 0.949 1_565 S
H1832 C1809 0.950 1_565 S
H1833 C1811 0.950 1_565 S
C1834 C1835 1.349 . S
C1834 C1836 1.327 . S
C1834 H1859 0.950 . S
C1835 C1834 1.349 . S
C1835 C1851 1.349 . S
C1836 C1834 1.327 . S
C1836 C1855 1.429 . S
C1836 H1860 0.950 . S
C1837 C1854 1.574 . S
C1837 C1856 1.368 . S
C1837 H1861 0.949 . S
H1838 C1842 0.949 . S
C1839 C1840 1.349 . S
C1839 C1841 1.327 . S
C1839 H1862 0.950 . S
C1840 C1839 1.349 . S
C1840 C1852 1.349 . S
C1841 C1839 1.327 . S
C1841 C1857 1.429 . S
C1841 H1863 0.950 . S
C1842 H1838 0.949 . S
C1842 C1850 1.574 . S
C1842 C1858 1.368 . S
H1843 C1851 0.950 . S
H1844 C1849 0.950 . S
H1845 C1850 0.949 . S
H1846 C1852 0.950 . S
H1847 C1853 0.950 . S
H1848 C1854 0.949 . S
C1849 H1844 0.950 . S
C1849 C1851 1.327 . S
C1849 C1855 1.429 . S
C1850 C1842 1.574 . S
C1850 H1845 0.949 . S
C1850 C1856 1.368 . S
C1851 C1835 1.349 . S
C1851 H1843 0.950 . S
C1851 C1849 1.327 . S
C1852 C1840 1.349 . S
C1852 H1846 0.950 . S
C1852 C1853 1.327 . S
C1853 H1847 0.950 . S
C1853 C1852 1.327 . S
C1853 C1857 1.429 . S
C1854 C1837 1.574 . S
C1854 H1848 0.949 . S
C1854 C1858 1.368 . S
C1855 C1836 1.429 . S
C1855 C1849 1.429 . S
C1855 C1856 1.523 . S
C1856 C1837 1.368 . S
C1856 C1850 1.368 . S
C1856 C1855 1.523 . S
C1857 C1841 1.429 . S
C1857 C1853 1.429 . S
C1857 C1858 1.523 . S
C1858 C1842 1.368 . S
C1858 C1854 1.368 . S
C1858 C1857 1.523 . S
H1859 C1834 0.950 . S
H1860 C1836 0.950 . S
H1861 C1837 0.949 . S
H1862 C1839 0.950 . S
H1863 C1841 0.950 . S
C1864 C1865 1.349 . S
C1864 C1866 1.327 . S
C1864 H1889 0.950 . S
C1865 C1864 1.349 . S
C1865 C1881 1.349 . S
C1866 C1864 1.327 . S
C1866 C1885 1.429 . S
C1866 H1890 0.950 . S
C1867 C1884 1.574 . S
C1867 C1886 1.368 . S
C1867 H1891 0.949 1_545 S
H1868 C1872 0.949 . S
C1869 C1870 1.362 . S
C1869 C1871 1.320 1_455 S
C1869 H1892 0.932 1_545 S
C1870 C1869 1.362 . S
C1870 C1882 1.349 1_455 S
C1871 C1869 1.320 1_655 S
C1871 C1887 1.473 . S
C1871 H1893 0.918 1_645 S
C1872 H1868 0.949 . S
C1872 C1880 1.574 . S
C1872 C1888 1.368 . S
H1873 C1881 0.950 1_565 S
H1874 C1879 0.950 1_565 S
H1875 C1880 0.949 . S
H1876 C1882 0.950 . S
H1877 C1883 0.950 . S
H1878 C1884 0.949 1_565 S
C1879 H1874 0.950 1_545 S
C1879 C1881 1.327 . S
C1879 C1885 1.429 . S
C1880 C1872 1.574 . S
C1880 H1875 0.949 . S
C1880 C1886 1.368 . S
C1881 C1865 1.349 . S
C1881 H1873 0.950 1_545 S
C1881 C1879 1.327 . S
C1882 C1870 1.349 1_655 S
C1882 H1876 0.950 . S
C1882 C1883 1.327 . S
C1883 H1877 0.950 . S
C1883 C1882 1.327 . S
C1883 C1887 1.429 . S
C1884 C1867 1.574 . S
C1884 H1878 0.949 1_545 S
C1884 C1888 1.368 . S
C1885 C1866 1.429 . S
C1885 C1879 1.429 . S
C1885 C1886 1.523 . S
C1886 C1867 1.368 . S
C1886 C1880 1.368 . S
C1886 C1885 1.523 . S
C1887 C1871 1.473 . S
C1887 C1883 1.429 . S
C1887 C1888 1.523 . S
C1888 C1872 1.368 . S
C1888 C1884 1.368 . S
C1888 C1887 1.523 . S
H1889 C1864 0.950 . S
H1890 C1866 0.950 . S
H1891 C1867 0.949 1_565 S
H1892 C1869 0.932 1_565 S
H1893 C1871 0.918 1_465 S
C1894 C1895 1.349 . S
C1894 C1896 1.327 . S
C1894 H1919 0.950 . S
C1895 C1894 1.349 . S
C1895 C1911 1.349 . S
C1896 C1894 1.327 . S
C1896 C1915 1.429 . S
C1896 H1920 0.950 . S
C1897 C1914 1.574 . S
C1897 C1916 1.368 . S
C1897 H1921 0.949 . S
H1898 C1902 0.949 . S
C1899 C1900 1.349 . S
C1899 C1901 1.327 . S
C1899 H1922 0.950 . S
C1900 C1899 1.349 . S
C1900 C1912 1.349 . S
C1901 C1899 1.327 . S
C1901 C1917 1.429 . S
C1901 H1923 0.950 . S
C1902 H1898 0.949 . S
C1902 C1910 1.574 . S
C1902 C1918 1.368 . S
H1903 C1911 0.950 . S
H1904 C1909 0.950 . S
H1905 C1910 0.949 . S
H1906 C1912 0.950 . S
H1907 C1913 0.950 . S
H1908 C1914 0.949 . S
C1909 H1904 0.950 . S
C1909 C1911 1.327 . S
C1909 C1915 1.429 . S
C1910 C1902 1.574 . S
C1910 H1905 0.949 . S
C1910 C1916 1.368 . S
C1911 C1895 1.349 . S
C1911 H1903 0.950 . S
C1911 C1909 1.327 . S
C1912 C1900 1.349 . S
C1912 H1906 0.950 . S
C1912 C1913 1.327 . S
C1913 H1907 0.950 . S
C1913 C1912 1.327 . S
C1913 C1917 1.429 . S
C1914 C1897 1.574 . S
C1914 H1908 0.949 . S
C1914 C1918 1.368 . S
C1915 C1896 1.429 . S
C1915 C1909 1.429 . S
C1915 C1916 1.523 . S
C1916 C1897 1.368 . S
C1916 C1910 1.368 . S
C1916 C1915 1.523 . S
C1917 C1901 1.429 . S
C1917 C1913 1.429 . S
C1917 C1918 1.523 . S
C1918 C1902 1.368 . S
C1918 C1914 1.368 . S
C1918 C1917 1.523 . S
H1919 C1894 0.950 . S
H1920 C1896 0.950 . S
H1921 C1897 0.949 . S
H1922 C1899 0.950 . S
H1923 C1901 0.950 . S
C1924 C1925 1.349 . S
C1924 C1926 1.327 . S
C1924 H1949 0.950 . S
C1925 C1924 1.349 . S
C1925 C1941 1.349 . S
C1926 C1924 1.327 . S
C1926 C1945 1.429 . S
C1926 H1950 0.950 . S
C1927 C1944 1.574 . S
C1927 C1946 1.368 . S
C1927 H1951 0.949 . S
H1928 C1932 0.949 . S
C1929 C1930 1.349 . S
C1929 C1931 1.327 . S
C1929 H1952 0.950 . S
C1930 C1929 1.349 . S
C1930 C1942 1.349 . S
C1931 C1929 1.327 . S
C1931 C1947 1.429 . S
C1931 H1953 0.950 . S
C1932 H1928 0.949 . S
C1932 C1940 1.574 . S
C1932 C1948 1.368 . S
H1933 C1941 0.950 . S
H1934 C1939 0.950 . S
H1935 C1940 0.949 . S
H1936 C1942 0.950 . S
H1937 C1943 0.950 . S
H1938 C1944 0.949 . S
C1939 H1934 0.950 . S
C1939 C1941 1.327 . S
C1939 C1945 1.429 . S
C1940 C1932 1.574 . S
C1940 H1935 0.949 . S
C1940 C1946 1.368 . S
C1941 C1925 1.349 . S
C1941 H1933 0.950 . S
C1941 C1939 1.327 . S
C1942 C1930 1.349 . S
C1942 H1936 0.950 . S
C1942 C1943 1.327 . S
C1943 H1937 0.950 . S
C1943 C1942 1.327 . S
C1943 C1947 1.429 . S
C1944 C1927 1.574 . S
C1944 H1938 0.949 . S
C1944 C1948 1.368 . S
C1945 C1926 1.429 . S
C1945 C1939 1.429 . S
C1945 C1946 1.523 . S
C1946 C1927 1.368 . S
C1946 C1940 1.368 . S
C1946 C1945 1.523 . S
C1947 C1931 1.429 . S
C1947 C1943 1.429 . S
C1947 C1948 1.523 . S
C1948 C1932 1.368 . S
C1948 C1944 1.368 . S
C1948 C1947 1.523 . S
H1949 C1924 0.950 . S
H1950 C1926 0.950 . S
H1951 C1927 0.949 . S
H1952 C1929 0.950 . S
H1953 C1931 0.950 . S
C1954 C1955 1.349 . S
C1954 C1956 1.327 . S
C1954 H1979 0.950 . S
C1955 C1954 1.349 . S
C1955 C1971 1.349 . S
C1956 C1954 1.327 . S
C1956 C1975 1.429 . S
C1956 H1980 0.950 . S
C1957 C1974 1.574 . S
C1957 C1976 1.368 . S
C1957 H1981 0.949 . S
H1958 C1962 0.949 . S
C1959 C1960 1.349 . S
C1959 C1961 1.327 . S
C1959 H1982 0.950 . S
C1960 C1959 1.349 . S
C1960 C1972 1.349 . S
C1961 C1959 1.327 . S
C1961 C1977 1.429 . S
C1961 H1983 0.950 . S
C1962 H1958 0.949 . S
C1962 C1970 1.574 . S
C1962 C1978 1.368 . S
H1963 C1971 0.950 . S
H1964 C1969 0.950 . S
H1965 C1970 0.949 . S
H1966 C1972 0.950 . S
H1967 C1973 0.950 . S
H1968 C1974 0.949 . S
C1969 H1964 0.950 . S
C1969 C1971 1.327 . S
C1969 C1975 1.429 . S
C1970 C1962 1.574 . S
C1970 H1965 0.949 . S
C1970 C1976 1.368 . S
C1971 C1955 1.349 . S
C1971 H1963 0.950 . S
C1971 C1969 1.327 . S
C1972 C1960 1.349 . S
C1972 H1966 0.950 . S
C1972 C1973 1.327 . S
C1973 H1967 0.950 . S
C1973 C1972 1.327 . S
C1973 C1977 1.429 . S
C1974 C1957 1.574 . S
C1974 H1968 0.949 . S
C1974 C1978 1.368 . S
C1975 C1956 1.429 . S
C1975 C1969 1.429 . S
C1975 C1976 1.523 . S
C1976 C1957 1.368 . S
C1976 C1970 1.368 . S
C1976 C1975 1.523 . S
C1977 C1961 1.429 . S
C1977 C1973 1.429 . S
C1977 C1978 1.523 . S
C1978 C1962 1.368 . S
C1978 C1974 1.368 . S
C1978 C1977 1.523 . S
H1979 C1954 0.950 . S
H1980 C1956 0.950 . S
H1981 C1957 0.949 . S
H1982 C1959 0.950 . S
H1983 C1961 0.950 . S
C1984 C1985 1.349 1_556 S
C1984 C1986 1.327 . S
C1984 H2009 0.950 . S
C1985 C1984 1.349 1_554 S
C1985 C2001 1.349 . S
C1986 C1984 1.327 . S
C1986 C2005 1.429 1_556 S
C1986 H2010 0.950 . S
C1987 C2004 1.574 . S
C1987 C2006 1.368 . S
C1987 H2011 0.949 . S
H1988 C1992 0.949 . S
C1989 C1990 1.349 . S
C1989 C1991 1.327 . S
C1989 H2012 0.950 . S
C1990 C1989 1.349 . S
C1990 C2002 1.349 . S
C1991 C1989 1.327 . S
C1991 C2007 1.429 . S
C1991 H2013 0.950 . S
C1992 H1988 0.949 . S
C1992 C2000 1.574 . S
C1992 C2008 1.368 . S
H1993 C2001 0.950 . S
H1994 C1999 0.950 . S
H1995 C2000 0.949 1_556 S
H1996 C2002 0.920 1_545 S
H1997 C2003 0.950 . S
H1998 C2004 0.949 . S
C1999 H1994 0.950 . S
C1999 C2001 1.327 . S
C1999 C2005 1.429 . S
C2000 C1992 1.574 . S
C2000 H1995 0.949 1_554 S
C2000 C2006 1.368 . S
C2001 C1985 1.349 . S
C2001 H1993 0.950 . S
C2001 C1999 1.327 . S
C2002 C1990 1.349 . S
C2002 H1996 0.920 1_565 S
C2002 C2003 1.327 . S
C2003 H1997 0.950 . S
C2003 C2002 1.327 . S
C2003 C2007 1.429 . S
C2004 C1987 1.574 . S
C2004 H1998 0.949 . S
C2004 C2008 1.368 . S
C2005 C1986 1.429 1_554 S
C2005 C1999 1.429 . S
C2005 C2006 1.523 . S
C2006 C1987 1.368 . S
C2006 C2000 1.368 . S
C2006 C2005 1.523 . S
C2007 C1991 1.429 . S
C2007 C2003 1.429 . S
C2007 C2008 1.523 . S
C2008 C1992 1.368 . S
C2008 C2004 1.368 . S
C2008 C2007 1.523 . S
H2009 C1984 0.950 . S
H2010 C1986 0.950 . S
H2011 C1987 0.949 . S
H2012 C1989 0.950 . S
H2013 C1991 0.950 . S
C2014 C2015 1.349 . S
C2014 C2016 1.327 . S
C2014 H2039 0.950 . S
C2015 C2014 1.349 . S
C2015 C2031 1.349 . S
C2016 C2014 1.327 . S
C2016 C2035 1.429 . S
C2016 H2040 0.950 . S
C2017 C2034 1.574 . S
C2017 C2036 1.368 . S
C2017 H2041 0.949 . S
H2018 C2022 0.949 . S
C2019 C2020 1.349 . S
C2019 C2021 1.327 . S
C2019 H2042 0.950 . S
C2020 C2019 1.349 . S
C2020 C2032 1.349 . S
C2021 C2019 1.327 . S
C2021 C2037 1.429 . S
C2021 H2043 0.950 . S
C2022 H2018 0.949 . S
C2022 C2030 1.574 . S
C2022 C2038 1.368 . S
H2023 C2031 0.950 . S
H2024 C2029 0.950 . S
H2025 C2030 0.949 . S
H2026 C2032 0.950 . S
H2027 C2033 0.950 . S
H2028 C2034 0.949 . S
C2029 H2024 0.950 . S
C2029 C2031 1.327 . S
C2029 C2035 1.429 . S
C2030 C2022 1.574 . S
C2030 H2025 0.949 . S
C2030 C2036 1.368 . S
C2031 C2015 1.349 . S
C2031 H2023 0.950 . S
C2031 C2029 1.327 . S
C2032 C2020 1.349 . S
C2032 H2026 0.950 . S
C2032 C2033 1.327 . S
C2033 H2027 0.950 . S
C2033 C2032 1.327 . S
C2033 C2037 1.429 . S
C2034 C2017 1.574 . S
C2034 H2028 0.949 . S
C2034 C2038 1.368 . S
C2035 C2016 1.429 . S
C2035 C2029 1.429 . S
C2035 C2036 1.523 . S
C2036 C2017 1.368 . S
C2036 C2030 1.368 . S
C2036 C2035 1.523 . S
C2037 C2021 1.429 . S
C2037 C2033 1.429 . S
C2037 C2038 1.523 . S
C2038 C2022 1.368 . S
C2038 C2034 1.368 . S
C2038 C2037 1.523 . S
H2039 C2014 0.950 . S
H2040 C2016 0.950 . S
H2041 C2017 0.949 . S
H2042 C2019 0.950 . S
H2043 C2021 0.950 . S
C2044 C2045 1.349 . S
C2044 C2046 1.327 . S
C2044 H2069 0.950 . S
C2045 C2044 1.349 . S
C2045 C2061 1.349 . S
C2046 C2044 1.327 . S
C2046 C2065 1.429 . S
C2046 H2070 0.950 . S
C2047 C2064 1.574 . S
C2047 C2066 1.368 . S
C2047 H2071 0.949 . S
H2048 C2052 0.949 . S
C2049 C2050 1.349 . S
C2049 C2051 1.327 . S
C2049 H2072 0.950 . S
C2050 C2049 1.349 . S
C2050 C2062 1.349 . S
C2051 C2049 1.327 . S
C2051 C2067 1.429 . S
C2051 H2073 0.950 . S
C2052 H2048 0.949 . S
C2052 C2060 1.574 . S
C2052 C2068 1.368 . S
H2053 C2061 0.950 . S
H2054 C2059 0.950 . S
H2055 C2060 0.949 . S
H2056 C2062 0.950 . S
H2057 C2063 0.950 . S
H2058 C2064 0.949 . S
C2059 H2054 0.950 . S
C2059 C2061 1.327 . S
C2059 C2065 1.429 . S
C2060 C2052 1.574 . S
C2060 H2055 0.949 . S
C2060 C2066 1.368 . S
C2061 C2045 1.349 . S
C2061 H2053 0.950 . S
C2061 C2059 1.327 . S
C2062 C2050 1.349 . S
C2062 H2056 0.950 . S
C2062 C2063 1.327 . S
C2063 H2057 0.950 . S
C2063 C2062 1.327 . S
C2063 C2067 1.429 . S
C2064 C2047 1.574 . S
C2064 H2058 0.949 . S
C2064 C2068 1.368 . S
C2065 C2046 1.429 . S
C2065 C2059 1.429 . S
C2065 C2066 1.523 . S
C2066 C2047 1.368 . S
C2066 C2060 1.368 . S
C2066 C2065 1.523 . S
C2067 C2051 1.429 . S
C2067 C2063 1.429 . S
C2067 C2068 1.523 . S
C2068 C2052 1.368 . S
C2068 C2064 1.368 . S
C2068 C2067 1.523 . S
H2069 C2044 0.950 . S
H2070 C2046 0.950 . S
H2071 C2047 0.949 . S
H2072 C2049 0.950 . S
H2073 C2051 0.950 . S
C2074 C2075 1.349 . S
C2074 C2076 1.327 . S
C2074 H2099 0.950 . S
C2075 C2074 1.349 . S
C2075 C2091 1.349 . S
C2076 C2074 1.327 . S
C2076 C2095 1.429 . S
C2076 H2100 0.950 . S
C2077 C2094 1.574 . S
C2077 C2096 1.368 . S
C2077 H2101 0.949 . S
H2078 C2082 0.949 . S
C2079 C2080 1.365 . S
C2079 C2081 1.327 . S
C2079 H2102 0.985 . S
C2080 C2079 1.365 . S
C2080 C2092 1.395 . S
C2081 C2079 1.327 . S
C2081 C2097 1.429 . S
C2081 H2103 0.950 . S
C2082 H2078 0.949 . S
C2082 C2090 1.574 . S
C2082 C2098 1.368 . S
H2083 C2091 0.950 . S
H2084 C2089 0.950 . S
H2085 C2090 0.949 . S
H2086 C2092 0.950 . S
H2087 C2093 0.950 . S
H2088 C2094 0.949 . S
C2089 H2084 0.950 . S
C2089 C2091 1.327 . S
C2089 C2095 1.429 . S
C2090 C2082 1.574 . S
C2090 H2085 0.949 . S
C2090 C2096 1.368 . S
C2091 C2075 1.349 . S
C2091 H2083 0.950 . S
C2091 C2089 1.327 . S
C2092 C2080 1.395 . S
C2092 H2086 0.950 . S
C2092 C2093 1.327 . S
C2093 H2087 0.950 . S
C2093 C2092 1.327 . S
C2093 C2097 1.429 . S
C2094 C2077 1.574 . S
C2094 H2088 0.949 . S
C2094 C2098 1.368 . S
C2095 C2076 1.429 . S
C2095 C2089 1.429 . S
C2095 C2096 1.523 . S
C2096 C2077 1.368 . S
C2096 C2090 1.368 . S
C2096 C2095 1.523 . S
C2097 C2081 1.429 . S
C2097 C2093 1.429 . S
C2097 C2098 1.523 . S
C2098 C2082 1.368 . S
C2098 C2094 1.368 . S
C2098 C2097 1.523 . S
H2099 C2074 0.950 . S
H2100 C2076 0.950 . S
H2101 C2077 0.949 . S
H2102 C2079 0.985 . S
H2103 C2081 0.950 . S
C2104 C2105 1.349 . S
C2104 C2106 1.327 . S
C2104 H2129 0.950 . S
C2105 C2104 1.349 . S
C2105 C2121 1.349 . S
C2106 C2104 1.327 . S
C2106 C2125 1.429 . S
C2106 H2130 0.950 . S
C2107 C2124 1.574 . S
C2107 C2126 1.368 . S
C2107 H2131 0.949 . S
H2108 C2112 0.949 . S
C2109 C2110 1.349 . S
C2109 C2111 1.327 . S
C2109 H2132 0.950 . S
C2110 C2109 1.349 . S
C2110 C2122 1.349 . S
C2111 C2109 1.327 . S
C2111 C2127 1.429 . S
C2111 H2133 0.950 . S
C2112 H2108 0.949 . S
C2112 C2120 1.574 . S
C2112 C2128 1.368 . S
H2113 C2121 0.950 . S
H2114 C2119 0.950 . S
H2115 C2120 0.949 . S
H2116 C2122 0.950 . S
H2117 C2123 0.950 . S
H2118 C2124 0.949 . S
C2119 H2114 0.950 . S
C2119 C2121 1.327 . S
C2119 C2125 1.429 . S
C2120 C2112 1.574 . S
C2120 H2115 0.949 . S
C2120 C2126 1.368 . S
C2121 C2105 1.349 . S
C2121 H2113 0.950 . S
C2121 C2119 1.327 . S
C2122 C2110 1.349 . S
C2122 H2116 0.950 . S
C2122 C2123 1.327 . S
C2123 H2117 0.950 . S
C2123 C2122 1.327 . S
C2123 C2127 1.429 . S
C2124 C2107 1.574 . S
C2124 H2118 0.949 . S
C2124 C2128 1.368 . S
C2125 C2106 1.429 . S
C2125 C2119 1.429 . S
C2125 C2126 1.523 . S
C2126 C2107 1.368 . S
C2126 C2120 1.368 . S
C2126 C2125 1.523 . S
C2127 C2111 1.429 . S
C2127 C2123 1.429 . S
C2127 C2128 1.523 . S
C2128 C2112 1.368 . S
C2128 C2124 1.368 . S
C2128 C2127 1.523 . S
H2129 C2104 0.950 . S
H2130 C2106 0.950 . S
H2131 C2107 0.949 . S
H2132 C2109 0.950 . S
H2133 C2111 0.950 . S
C2134 C2135 1.349 . S
C2134 C2136 1.327 . S
C2134 H2159 0.950 . S
C2135 C2134 1.349 . S
C2135 C2151 1.349 . S
C2136 C2134 1.327 . S
C2136 C2155 1.429 . S
C2136 H2160 0.950 . S
C2137 C2154 1.574 . S
C2137 C2156 1.368 . S
C2137 H2161 0.949 . S
H2138 C2142 0.949 . S
C2139 C2140 1.349 . S
C2139 C2141 1.327 . S
C2139 H2162 0.950 . S
C2140 C2139 1.349 . S
C2140 C2152 1.349 . S
C2141 C2139 1.327 . S
C2141 C2157 1.429 . S
C2141 H2163 0.950 . S
C2142 H2138 0.949 . S
C2142 C2150 1.574 . S
C2142 C2158 1.368 . S
H2143 C2151 0.950 . S
H2144 C2149 0.950 . S
H2145 C2150 0.949 . S
H2146 C2152 0.950 . S
H2147 C2153 0.950 . S
H2148 C2154 0.949 . S
C2149 H2144 0.950 . S
C2149 C2151 1.327 . S
C2149 C2155 1.429 . S
C2150 C2142 1.574 . S
C2150 H2145 0.949 . S
C2150 C2156 1.368 . S
C2151 C2135 1.349 . S
C2151 H2143 0.950 . S
C2151 C2149 1.327 . S
C2152 C2140 1.349 . S
C2152 H2146 0.950 . S
C2152 C2153 1.327 . S
C2153 H2147 0.950 . S
C2153 C2152 1.327 . S
C2153 C2157 1.429 . S
C2154 C2137 1.574 . S
C2154 H2148 0.949 . S
C2154 C2158 1.368 . S
C2155 C2136 1.429 . S
C2155 C2149 1.429 . S
C2155 C2156 1.523 . S
C2156 C2137 1.368 . S
C2156 C2150 1.368 . S
C2156 C2155 1.523 . S
C2157 C2141 1.429 . S
C2157 C2153 1.429 . S
C2157 C2158 1.523 . S
C2158 C2142 1.368 . S
C2158 C2154 1.368 . S
C2158 C2157 1.523 . S
H2159 C2134 0.950 . S
H2160 C2136 0.950 . S
H2161 C2137 0.949 . S
H2162 C2139 0.950 . S
H2163 C2141 0.950 . S
C2164 C2165 1.349 . S
C2164 C2166 1.327 . S
C2164 H2189 0.950 . S
C2165 C2164 1.349 . S
C2165 C2181 1.349 . S
C2166 C2164 1.327 . S
C2166 C2185 1.429 . S
C2166 H2190 0.950 . S
C2167 C2184 1.574 . S
C2167 C2186 1.368 . S
C2167 H2191 0.949 . S
H2168 C2172 0.949 . S
C2169 C2170 1.349 . S
C2169 C2171 1.327 . S
C2169 H2192 0.950 . S
C2170 C2169 1.349 . S
C2170 C2182 1.349 . S
C2171 C2169 1.327 . S
C2171 C2187 1.429 . S
C2171 H2193 0.950 . S
C2172 H2168 0.949 . S
C2172 C2180 1.574 . S
C2172 C2188 1.368 . S
H2173 C2181 0.950 . S
H2174 C2179 0.950 . S
H2175 C2180 0.949 . S
H2176 C2182 0.950 . S
H2177 C2183 0.950 . S
H2178 C2184 0.949 . S
C2179 H2174 0.950 . S
C2179 C2181 1.327 . S
C2179 C2185 1.429 . S
C2180 C2172 1.574 . S
C2180 H2175 0.949 . S
C2180 C2186 1.368 . S
C2181 C2165 1.349 . S
C2181 H2173 0.950 . S
C2181 C2179 1.327 . S
C2182 C2170 1.349 . S
C2182 H2176 0.950 . S
C2182 C2183 1.327 . S
C2183 H2177 0.950 . S
C2183 C2182 1.327 . S
C2183 C2187 1.429 . S
C2184 C2167 1.574 . S
C2184 H2178 0.949 . S
C2184 C2188 1.368 . S
C2185 C2166 1.429 . S
C2185 C2179 1.429 . S
C2185 C2186 1.523 . S
C2186 C2167 1.368 . S
C2186 C2180 1.368 . S
C2186 C2185 1.523 . S
C2187 C2171 1.429 . S
C2187 C2183 1.429 . S
C2187 C2188 1.523 . S
C2188 C2172 1.368 . S
C2188 C2184 1.368 . S
C2188 C2187 1.523 . S
H2189 C2164 0.950 . S
H2190 C2166 0.950 . S
H2191 C2167 0.949 . S
H2192 C2169 0.950 . S
H2193 C2171 0.950 . S
C2194 C2195 1.349 . S
C2194 C2196 1.327 . S
C2194 H2219 0.950 . S
C2195 C2194 1.349 . S
C2195 C2211 1.349 . S
C2196 C2194 1.327 . S
C2196 C2215 1.429 . S
C2196 H2220 0.950 . S
C2197 C2214 1.574 . S
C2197 C2216 1.368 . S
C2197 H2221 0.949 . S
H2198 C2202 0.949 . S
C2199 C2200 1.349 . S
C2199 C2201 1.327 . S
C2199 H2222 0.950 . S
C2200 C2199 1.349 . S
C2200 C2212 1.349 . S
C2201 C2199 1.327 . S
C2201 C2217 1.429 . S
C2201 H2223 0.950 . S
C2202 H2198 0.949 . S
C2202 C2210 1.574 . S
C2202 C2218 1.368 . S
H2203 C2211 0.950 . S
H2204 C2209 0.950 . S
H2205 C2210 0.949 . S
H2206 C2212 0.950 . S
H2207 C2213 0.950 . S
H2208 C2214 0.949 . S
C2209 H2204 0.950 . S
C2209 C2211 1.327 . S
C2209 C2215 1.429 . S
C2210 C2202 1.574 . S
C2210 H2205 0.949 . S
C2210 C2216 1.368 . S
C2211 C2195 1.349 . S
C2211 H2203 0.950 . S
C2211 C2209 1.327 . S
C2212 C2200 1.349 . S
C2212 H2206 0.950 . S
C2212 C2213 1.327 . S
C2213 H2207 0.950 . S
C2213 C2212 1.327 . S
C2213 C2217 1.429 . S
C2214 C2197 1.574 . S
C2214 H2208 0.949 . S
C2214 C2218 1.368 . S
C2215 C2196 1.429 . S
C2215 C2209 1.429 . S
C2215 C2216 1.523 . S
C2216 C2197 1.368 . S
C2216 C2210 1.368 . S
C2216 C2215 1.523 . S
C2217 C2201 1.429 . S
C2217 C2213 1.429 . S
C2217 C2218 1.523 . S
C2218 C2202 1.368 . S
C2218 C2214 1.368 . S
C2218 C2217 1.523 . S
H2219 C2194 0.950 . S
H2220 C2196 0.950 . S
H2221 C2197 0.949 . S
H2222 C2199 0.950 . S
H2223 C2201 0.950 . S
C2224 C2225 1.349 . S
C2224 C2226 1.327 . S
C2224 H2249 0.950 . S
C2225 C2224 1.349 . S
C2225 C2241 1.349 . S
C2226 C2224 1.327 . S
C2226 C2245 1.429 . S
C2226 H2250 0.950 . S
C2227 C2244 1.574 . S
C2227 C2246 1.368 . S
C2227 H2251 0.949 . S
H2228 C2232 0.949 . S
C2229 C2230 1.349 . S
C2229 C2231 1.327 . S
C2229 H2252 0.950 . S
C2230 C2229 1.349 . S
C2230 C2242 1.349 . S
C2231 C2229 1.327 . S
C2231 C2247 1.429 . S
C2231 H2253 0.950 . S
C2232 H2228 0.949 . S
C2232 C2240 1.574 . S
C2232 C2248 1.368 . S
H2233 C2241 0.950 . S
H2234 C2239 0.950 . S
H2235 C2240 0.949 . S
H2236 C2242 0.950 . S
H2237 C2243 0.950 . S
H2238 C2244 0.949 . S
C2239 H2234 0.950 . S
C2239 C2241 1.327 . S
C2239 C2245 1.429 . S
C2240 C2232 1.574 . S
C2240 H2235 0.949 . S
C2240 C2246 1.368 . S
C2241 C2225 1.349 . S
C2241 H2233 0.950 . S
C2241 C2239 1.327 . S
C2242 C2230 1.349 . S
C2242 H2236 0.950 . S
C2242 C2243 1.327 . S
C2243 H2237 0.950 . S
C2243 C2242 1.327 . S
C2243 C2247 1.429 . S
C2244 C2227 1.574 . S
C2244 H2238 0.949 . S
C2244 C2248 1.368 . S
C2245 C2226 1.429 . S
C2245 C2239 1.429 . S
C2245 C2246 1.523 . S
C2246 C2227 1.368 . S
C2246 C2240 1.368 . S
C2246 C2245 1.523 . S
C2247 C2231 1.429 . S
C2247 C2243 1.429 . S
C2247 C2248 1.523 . S
C2248 C2232 1.368 . S
C2248 C2244 1.368 . S
C2248 C2247 1.523 . S
H2249 C2224 0.950 . S
H2250 C2226 0.950 . S
H2251 C2227 0.949 . S
H2252 C2229 0.950 . S
H2253 C2231 0.950 . S
C2254 C2255 1.349 . S
C2254 C2256 1.327 . S
C2254 H2279 0.950 . S
C2255 C2254 1.349 . S
C2255 C2271 1.349 . S
C2256 C2254 1.327 . S
C2256 C2275 1.429 . S
C2256 H2280 0.950 . S
C2257 C2274 1.574 . S
C2257 C2276 1.368 . S
C2257 H2281 0.949 . S
H2258 C2262 0.949 . S
C2259 C2260 1.349 . S
C2259 C2261 1.327 . S
C2259 H2282 0.950 . S
C2260 C2259 1.349 . S
C2260 C2272 1.349 . S
C2261 C2259 1.327 . S
C2261 C2277 1.429 . S
C2261 H2283 0.950 . S
C2262 H2258 0.949 . S
C2262 C2270 1.574 . S
C2262 C2278 1.368 . S
H2263 C2271 0.950 . S
H2264 C2269 0.950 . S
H2265 C2270 0.949 . S
H2266 C2272 0.950 . S
H2267 C2273 0.950 . S
H2268 C2274 0.949 . S
C2269 H2264 0.950 . S
C2269 C2271 1.327 . S
C2269 C2275 1.429 . S
C2270 C2262 1.574 . S
C2270 H2265 0.949 . S
C2270 C2276 1.368 . S
C2271 C2255 1.349 . S
C2271 H2263 0.950 . S
C2271 C2269 1.327 . S
C2272 C2260 1.349 . S
C2272 H2266 0.950 . S
C2272 C2273 1.327 . S
C2273 H2267 0.950 . S
C2273 C2272 1.327 . S
C2273 C2277 1.429 . S
C2274 C2257 1.574 . S
C2274 H2268 0.949 . S
C2274 C2278 1.368 . S
C2275 C2256 1.429 . S
C2275 C2269 1.429 . S
C2275 C2276 1.523 . S
C2276 C2257 1.368 . S
C2276 C2270 1.368 . S
C2276 C2275 1.523 . S
C2277 C2261 1.429 . S
C2277 C2273 1.429 . S
C2277 C2278 1.523 . S
C2278 C2262 1.368 . S
C2278 C2274 1.368 . S
C2278 C2277 1.523 . S
H2279 C2254 0.950 . S
H2280 C2256 0.950 . S
H2281 C2257 0.949 . S
H2282 C2259 0.950 . S
H2283 C2261 0.950 . S
C2284 C2285 1.349 . S
C2284 C2286 1.327 . S
C2284 H2309 0.950 . S
C2285 C2284 1.349 . S
C2285 C2301 1.349 . S
C2286 C2284 1.327 . S
C2286 C2305 1.429 . S
C2286 H2310 0.950 . S
C2287 C2304 1.574 . S
C2287 C2306 1.368 . S
C2287 H2311 0.949 . S
H2288 C2292 0.949 . S
C2289 C2290 1.349 . S
C2289 C2291 1.327 . S
C2289 H2312 0.950 . S
C2290 C2289 1.349 . S
C2290 C2302 1.349 . S
C2291 C2289 1.327 . S
C2291 C2307 1.429 . S
C2291 H2313 0.950 . S
C2292 H2288 0.949 . S
C2292 C2300 1.574 . S
C2292 C2308 1.368 . S
H2293 C2301 0.950 . S
H2294 C2299 0.950 . S
H2295 C2300 0.949 . S
H2296 C2302 0.950 . S
H2297 C2303 0.950 . S
H2298 C2304 0.949 . S
C2299 H2294 0.950 . S
C2299 C2301 1.327 . S
C2299 C2305 1.429 . S
C2300 C2292 1.574 . S
C2300 H2295 0.949 . S
C2300 C2306 1.368 . S
C2301 C2285 1.349 . S
C2301 H2293 0.950 . S
C2301 C2299 1.327 . S
C2302 C2290 1.349 . S
C2302 H2296 0.950 . S
C2302 C2303 1.327 . S
C2303 H2297 0.950 . S
C2303 C2302 1.327 . S
C2303 C2307 1.429 . S
C2304 C2287 1.574 . S
C2304 H2298 0.949 . S
C2304 C2308 1.368 . S
C2305 C2286 1.429 . S
C2305 C2299 1.429 . S
C2305 C2306 1.523 . S
C2306 C2287 1.368 . S
C2306 C2300 1.368 . S
C2306 C2305 1.523 . S
C2307 C2291 1.429 . S
C2307 C2303 1.429 . S
C2307 C2308 1.523 . S
C2308 C2292 1.368 . S
C2308 C2304 1.368 . S
C2308 C2307 1.523 . S
H2309 C2284 0.950 . S
H2310 C2286 0.950 . S
H2311 C2287 0.949 . S
H2312 C2289 0.950 . S
H2313 C2291 0.950 . S
C2314 C2315 1.349 . S
C2314 C2316 1.327 . S
C2314 H2339 0.950 . S
C2315 C2314 1.349 . S
C2315 C2331 1.349 . S
C2316 C2314 1.327 . S
C2316 C2335 1.429 . S
C2316 H2340 0.950 . S
C2317 C2334 1.574 . S
C2317 C2336 1.368 . S
C2317 H2341 0.949 . S
H2318 C2322 0.949 . S
C2319 C2320 1.349 . S
C2319 C2321 1.327 . S
C2319 H2342 0.950 . S
C2320 C2319 1.349 . S
C2320 C2332 1.349 . S
C2321 C2319 1.327 . S
C2321 C2337 1.429 . S
C2321 H2343 0.950 . S
C2322 H2318 0.949 . S
C2322 C2330 1.574 . S
C2322 C2338 1.368 . S
H2323 C2331 0.950 . S
H2324 C2329 0.950 . S
H2325 C2330 0.949 . S
H2326 C2332 0.950 . S
H2327 C2333 0.950 . S
H2328 C2334 0.949 . S
C2329 H2324 0.950 . S
C2329 C2331 1.327 . S
C2329 C2335 1.429 . S
C2330 C2322 1.574 . S
C2330 H2325 0.949 . S
C2330 C2336 1.368 . S
C2331 C2315 1.349 . S
C2331 H2323 0.950 . S
C2331 C2329 1.327 . S
C2332 C2320 1.349 . S
C2332 H2326 0.950 . S
C2332 C2333 1.327 . S
C2333 H2327 0.950 . S
C2333 C2332 1.327 . S
C2333 C2337 1.429 . S
C2334 C2317 1.574 . S
C2334 H2328 0.949 . S
C2334 C2338 1.368 . S
C2335 C2316 1.429 . S
C2335 C2329 1.429 . S
C2335 C2336 1.523 . S
C2336 C2317 1.368 . S
C2336 C2330 1.368 . S
C2336 C2335 1.523 . S
C2337 C2321 1.429 . S
C2337 C2333 1.429 . S
C2337 C2338 1.523 . S
C2338 C2322 1.368 . S
C2338 C2334 1.368 . S
C2338 C2337 1.523 . S
H2339 C2314 0.950 . S
H2340 C2316 0.950 . S
H2341 C2317 0.949 . S
H2342 C2319 0.950 . S
H2343 C2321 0.950 . S
C2344 C2345 1.349 . S
C2344 C2346 1.327 . S
C2344 H2369 0.950 . S
C2345 C2344 1.349 . S
C2345 C2361 1.349 . S
C2346 C2344 1.327 . S
C2346 C2365 1.429 . S
C2346 H2370 0.950 . S
C2347 C2364 1.574 . S
C2347 C2366 1.368 . S
C2347 H2371 0.943 . S
H2348 C2352 0.949 . S
C2349 C2350 1.349 . S
C2349 C2351 1.327 . S
C2349 H2372 0.951 1_455 S
C2350 C2349 1.349 . S
C2350 C2362 1.349 . S
C2351 C2349 1.327 . S
C2351 C2367 1.429 . S
C2351 H2373 0.929 1_455 S
C2352 H2348 0.949 . S
C2352 C2360 1.574 . S
C2352 C2368 1.368 . S
H2353 C2361 0.950 . S
H2354 C2359 0.966 . S
H2355 C2360 0.949 . S
H2356 C2362 0.950 . S
H2357 C2363 0.950 . S
H2358 C2364 0.938 1_655 S
C2359 H2354 0.966 . S
C2359 C2361 1.327 . S
C2359 C2365 1.429 . S
C2360 C2352 1.574 . S
C2360 H2355 0.949 . S
C2360 C2366 1.368 . S
C2361 C2345 1.349 . S
C2361 H2353 0.950 . S
C2361 C2359 1.327 . S
C2362 C2350 1.349 . S
C2362 H2356 0.950 . S
C2362 C2363 1.327 . S
C2363 H2357 0.950 . S
C2363 C2362 1.327 . S
C2363 C2367 1.429 . S
C2364 C2347 1.574 . S
C2364 H2358 0.938 1_455 S
C2364 C2368 1.368 . S
C2365 C2346 1.429 . S
C2365 C2359 1.429 . S
C2365 C2366 1.523 . S
C2366 C2347 1.368 . S
C2366 C2360 1.368 . S
C2366 C2365 1.523 . S
C2367 C2351 1.429 . S
C2367 C2363 1.429 . S
C2367 C2368 1.523 . S
C2368 C2352 1.368 . S
C2368 C2364 1.368 . S
C2368 C2367 1.523 . S
H2369 C2344 0.950 . S
H2370 C2346 0.950 . S
H2371 C2347 0.943 . S
H2372 C2349 0.951 1_655 S
H2373 C2351 0.929 1_655 S
C2374 C2375 1.349 . S
C2374 C2376 1.327 . S
C2374 H2399 0.950 . S
C2375 C2374 1.349 . S
C2375 C2391 1.349 . S
C2376 C2374 1.327 . S
C2376 C2395 1.429 . S
C2376 H2400 0.950 . S
C2377 C2394 1.574 . S
C2377 C2396 1.368 . S
C2377 H2401 0.949 . S
H2378 C2382 0.949 . S
C2379 C2380 1.349 . S
C2379 C2381 1.327 . S
C2379 H2402 0.950 . S
C2380 C2379 1.349 . S
C2380 C2392 1.349 . S
C2381 C2379 1.327 . S
C2381 C2397 1.429 . S
C2381 H2403 0.950 . S
C2382 H2378 0.949 . S
C2382 C2390 1.574 . S
C2382 C2398 1.368 . S
H2383 C2391 0.950 . S
H2384 C2389 0.950 . S
H2385 C2390 0.949 . S
H2386 C2392 0.950 . S
H2387 C2393 0.950 . S
H2388 C2394 0.949 . S
C2389 H2384 0.950 . S
C2389 C2391 1.327 . S
C2389 C2395 1.429 . S
C2390 C2382 1.574 . S
C2390 H2385 0.949 . S
C2390 C2396 1.368 . S
C2391 C2375 1.349 . S
C2391 H2383 0.950 . S
C2391 C2389 1.327 . S
C2392 C2380 1.349 . S
C2392 H2386 0.950 . S
C2392 C2393 1.327 . S
C2393 H2387 0.950 . S
C2393 C2392 1.327 . S
C2393 C2397 1.429 . S
C2394 C2377 1.574 . S
C2394 H2388 0.949 . S
C2394 C2398 1.368 . S
C2395 C2376 1.429 . S
C2395 C2389 1.429 . S
C2395 C2396 1.523 . S
C2396 C2377 1.368 . S
C2396 C2390 1.368 . S
C2396 C2395 1.523 . S
C2397 C2381 1.429 . S
C2397 C2393 1.429 . S
C2397 C2398 1.523 . S
C2398 C2382 1.368 . S
C2398 C2394 1.368 . S
C2398 C2397 1.523 . S
H2399 C2374 0.950 . S
H2400 C2376 0.950 . S
H2401 C2377 0.949 . S
H2402 C2379 0.950 . S
H2403 C2381 0.950 . S
C2404 C2405 1.349 . S
C2404 C2406 1.327 . S
C2404 H2429 0.950 . S
C2405 C2404 1.349 . S
C2405 C2421 1.349 . S
C2406 C2404 1.327 . S
C2406 C2425 1.429 . S
C2406 H2430 0.950 . S
C2407 C2424 1.574 . S
C2407 C2426 1.368 . S
C2407 H2431 0.949 . S
H2408 C2412 0.949 . S
C2409 C2410 1.349 . S
C2409 C2411 1.327 . S
C2409 H2432 0.950 1_556 S
C2410 C2409 1.349 . S
C2410 C2422 1.349 . S
C2411 C2409 1.327 . S
C2411 C2427 1.429 . S
C2411 H2433 0.950 . S
C2412 H2408 0.949 . S
C2412 C2420 1.574 . S
C2412 C2428 1.368 . S
H2413 C2421 0.950 . S
H2414 C2419 0.950 . S
H2415 C2420 0.949 . S
H2416 C2422 0.950 . S
H2417 C2423 0.950 . S
H2418 C2424 0.949 . S
C2419 H2414 0.950 . S
C2419 C2421 1.327 . S
C2419 C2425 1.429 . S
C2420 C2412 1.574 . S
C2420 H2415 0.949 . S
C2420 C2426 1.368 . S
C2421 C2405 1.349 . S
C2421 H2413 0.950 . S
C2421 C2419 1.327 . S
C2422 C2410 1.349 . S
C2422 H2416 0.950 . S
C2422 C2423 1.327 . S
C2423 H2417 0.950 . S
C2423 C2422 1.327 . S
C2423 C2427 1.429 . S
C2424 C2407 1.574 . S
C2424 H2418 0.949 . S
C2424 C2428 1.368 . S
C2425 C2406 1.429 . S
C2425 C2419 1.429 . S
C2425 C2426 1.523 . S
C2426 C2407 1.368 . S
C2426 C2420 1.368 . S
C2426 C2425 1.523 . S
C2427 C2411 1.429 . S
C2427 C2423 1.429 . S
C2427 C2428 1.523 . S
C2428 C2412 1.368 . S
C2428 C2424 1.368 . S
C2428 C2427 1.523 . S
H2429 C2404 0.950 . S
H2430 C2406 0.950 . S
H2431 C2407 0.949 . S
H2432 C2409 0.950 1_554 S
H2433 C2411 0.950 . S
C2434 C2435 1.349 . S
C2434 C2436 1.327 . S
C2434 H2459 0.950 . S
C2435 C2434 1.349 . S
C2435 C2451 1.349 . S
C2436 C2434 1.327 . S
C2436 C2455 1.429 . S
C2436 H2460 0.950 . S
C2437 C2454 1.574 . S
C2437 C2456 1.368 . S
C2437 H2461 0.949 . S
H2438 C2442 0.949 . S
C2439 C2440 1.349 . S
C2439 C2441 1.327 . S
C2439 H2462 0.950 . S
C2440 C2439 1.349 . S
C2440 C2452 1.349 . S
C2441 C2439 1.327 . S
C2441 C2457 1.429 . S
C2441 H2463 0.950 . S
C2442 H2438 0.949 . S
C2442 C2450 1.574 . S
C2442 C2458 1.368 . S
H2443 C2451 0.950 . S
H2444 C2449 0.950 . S
H2445 C2450 0.949 . S
H2446 C2452 0.950 . S
H2447 C2453 0.950 . S
H2448 C2454 0.949 . S
C2449 H2444 0.950 . S
C2449 C2451 1.327 . S
C2449 C2455 1.429 . S
C2450 C2442 1.574 . S
C2450 H2445 0.949 . S
C2450 C2456 1.368 . S
C2451 C2435 1.349 . S
C2451 H2443 0.950 . S
C2451 C2449 1.327 . S
C2452 C2440 1.349 . S
C2452 H2446 0.950 . S
C2452 C2453 1.327 . S
C2453 H2447 0.950 . S
C2453 C2452 1.327 . S
C2453 C2457 1.429 . S
C2454 C2437 1.574 . S
C2454 H2448 0.949 . S
C2454 C2458 1.368 . S
C2455 C2436 1.429 . S
C2455 C2449 1.429 . S
C2455 C2456 1.523 . S
C2456 C2437 1.368 . S
C2456 C2450 1.368 . S
C2456 C2455 1.523 . S
C2457 C2441 1.429 . S
C2457 C2453 1.429 . S
C2457 C2458 1.523 . S
C2458 C2442 1.368 . S
C2458 C2454 1.368 . S
C2458 C2457 1.523 . S
H2459 C2434 0.950 . S
H2460 C2436 0.950 . S
H2461 C2437 0.949 . S
H2462 C2439 0.950 . S
H2463 C2441 0.950 . S
C2464 C2465 1.349 . S
C2464 C2466 1.327 . S
C2464 H2489 0.950 . S
C2465 C2464 1.349 . S
C2465 C2481 1.349 . S
C2466 C2464 1.327 . S
C2466 C2485 1.429 . S
C2466 H2490 0.950 . S
C2467 C2484 1.574 . S
C2467 C2486 1.368 . S
C2467 H2491 0.949 . S
H2468 C2472 0.949 1_565 S
C2469 C2470 1.349 . S
C2469 C2471 1.327 . S
C2469 H2492 0.950 . S
C2470 C2469 1.349 . S
C2470 C2482 1.349 1_545 S
C2471 C2469 1.327 . S
C2471 C2487 1.429 . S
C2471 H2493 0.950 . S
C2472 H2468 0.949 1_545 S
C2472 C2480 1.574 . S
C2472 C2488 1.368 . S
H2473 C2481 0.950 . S
H2474 C2479 0.950 . S
H2475 C2480 0.949 1_565 S
H2476 C2482 0.950 . S
H2477 C2483 0.950 . S
H2478 C2484 0.949 . S
C2479 H2474 0.950 . S
C2479 C2481 1.327 . S
C2479 C2485 1.429 . S
C2480 C2472 1.574 . S
C2480 H2475 0.949 1_545 S
C2480 C2486 1.368 . S
C2481 C2465 1.349 . S
C2481 H2473 0.950 . S
C2481 C2479 1.327 . S
C2482 C2470 1.349 1_565 S
C2482 H2476 0.950 . S
C2482 C2483 1.327 . S
C2483 H2477 0.950 . S
C2483 C2482 1.327 . S
C2483 C2487 1.429 1_565 S
C2484 C2467 1.574 . S
C2484 H2478 0.949 . S
C2484 C2488 1.368 . S
C2485 C2466 1.429 . S
C2485 C2479 1.429 . S
C2485 C2486 1.523 . S
C2486 C2467 1.368 . S
C2486 C2480 1.368 . S
C2486 C2485 1.523 . S
C2487 C2471 1.429 . S
C2487 C2483 1.429 1_545 S
C2487 C2488 1.523 . S
C2488 C2472 1.368 . S
C2488 C2484 1.368 . S
C2488 C2487 1.523 . S
H2489 C2464 0.950 . S
H2490 C2466 0.950 . S
H2491 C2467 0.949 . S
H2492 C2469 0.950 . S
H2493 C2471 0.950 . S
C2494 C2495 1.349 . S
C2494 C2496 1.327 . S
C2494 H2519 0.950 . S
C2495 C2494 1.349 . S
C2495 C2511 1.349 . S
C2496 C2494 1.327 . S
C2496 C2515 1.429 . S
C2496 H2520 0.950 . S
C2497 C2514 1.574 . S
C2497 C2516 1.368 . S
C2497 H2521 0.949 . S
H2498 C2502 0.949 . S
C2499 C2500 1.349 . S
C2499 C2501 1.327 . S
C2499 H2522 0.950 . S
C2500 C2499 1.349 . S
C2500 C2512 1.349 . S
C2501 C2499 1.327 . S
C2501 C2517 1.429 . S
C2501 H2523 0.950 . S
C2502 H2498 0.949 . S
C2502 C2510 1.574 . S
C2502 C2518 1.368 . S
H2503 C2511 0.950 . S
H2504 C2509 0.950 . S
H2505 C2510 0.949 . S
H2506 C2512 0.950 . S
H2507 C2513 0.950 . S
H2508 C2514 0.949 . S
C2509 H2504 0.950 . S
C2509 C2511 1.327 . S
C2509 C2515 1.429 . S
C2510 C2502 1.574 . S
C2510 H2505 0.949 . S
C2510 C2516 1.368 . S
C2511 C2495 1.349 . S
C2511 H2503 0.950 . S
C2511 C2509 1.327 . S
C2512 C2500 1.349 . S
C2512 H2506 0.950 . S
C2512 C2513 1.327 . S
C2513 H2507 0.950 . S
C2513 C2512 1.327 . S
C2513 C2517 1.429 . S
C2514 C2497 1.574 . S
C2514 H2508 0.949 . S
C2514 C2518 1.368 . S
C2515 C2496 1.429 . S
C2515 C2509 1.429 . S
C2515 C2516 1.523 . S
C2516 C2497 1.368 . S
C2516 C2510 1.368 . S
C2516 C2515 1.523 . S
C2517 C2501 1.429 . S
C2517 C2513 1.429 . S
C2517 C2518 1.523 . S
C2518 C2502 1.368 . S
C2518 C2514 1.368 . S
C2518 C2517 1.523 . S
H2519 C2494 0.950 . S
H2520 C2496 0.950 . S
H2521 C2497 0.949 . S
H2522 C2499 0.950 . S
H2523 C2501 0.950 . S
C2524 C2525 1.349 . S
C2524 C2526 1.327 . S
C2524 H2549 0.950 . S
C2525 C2524 1.349 . S
C2525 C2541 1.349 . S
C2526 C2524 1.327 . S
C2526 C2545 1.429 . S
C2526 H2550 0.950 . S
C2527 C2544 1.574 . S
C2527 C2546 1.368 . S
C2527 H2551 0.949 . S
H2528 C2532 0.949 . S
C2529 C2530 1.349 . S
C2529 C2531 1.327 . S
C2529 H2552 0.950 . S
C2530 C2529 1.349 . S
C2530 C2542 1.349 . S
C2531 C2529 1.327 . S
C2531 C2547 1.429 . S
C2531 H2553 0.950 . S
C2532 H2528 0.949 . S
C2532 C2540 1.574 . S
C2532 C2548 1.368 . S
H2533 C2541 0.950 . S
H2534 C2539 0.950 . S
H2535 C2540 0.949 . S
H2536 C2542 0.950 . S
H2537 C2543 0.950 . S
H2538 C2544 0.949 . S
C2539 H2534 0.950 . S
C2539 C2541 1.327 . S
C2539 C2545 1.429 . S
C2540 C2532 1.574 . S
C2540 H2535 0.949 . S
C2540 C2546 1.368 . S
C2541 C2525 1.349 . S
C2541 H2533 0.950 . S
C2541 C2539 1.327 . S
C2542 C2530 1.349 . S
C2542 H2536 0.950 . S
C2542 C2543 1.327 . S
C2543 H2537 0.950 . S
C2543 C2542 1.327 . S
C2543 C2547 1.429 . S
C2544 C2527 1.574 . S
C2544 H2538 0.949 . S
C2544 C2548 1.368 . S
C2545 C2526 1.429 . S
C2545 C2539 1.429 . S
C2545 C2546 1.523 . S
C2546 C2527 1.368 . S
C2546 C2540 1.368 . S
C2546 C2545 1.523 . S
C2547 C2531 1.429 . S
C2547 C2543 1.429 . S
C2547 C2548 1.523 . S
C2548 C2532 1.368 . S
C2548 C2544 1.368 . S
C2548 C2547 1.523 . S
H2549 C2524 0.950 . S
H2550 C2526 0.950 . S
H2551 C2527 0.949 . S
H2552 C2529 0.950 . S
H2553 C2531 0.950 . S
C2554 C2555 1.349 . S
C2554 C2556 1.327 . S
C2554 H2579 0.950 . S
C2555 C2554 1.349 . S
C2555 C2571 1.349 . S
C2556 C2554 1.327 . S
C2556 C2575 1.429 . S
C2556 H2580 0.950 . S
C2557 C2574 1.574 . S
C2557 C2576 1.368 . S
C2557 H2581 0.949 . S
H2558 C2562 0.949 . S
C2559 C2560 1.349 . S
C2559 C2561 1.327 . S
C2559 H2582 0.950 . S
C2560 C2559 1.349 . S
C2560 C2572 1.349 . S
C2561 C2559 1.327 . S
C2561 C2577 1.429 . S
C2561 H2583 0.950 . S
C2562 H2558 0.949 . S
C2562 C2570 1.574 . S
C2562 C2578 1.368 . S
H2563 C2571 0.950 . S
H2564 C2569 0.950 . S
H2565 C2570 0.949 . S
H2566 C2572 0.950 . S
H2567 C2573 0.950 . S
H2568 C2574 0.949 . S
C2569 H2564 0.950 . S
C2569 C2571 1.327 . S
C2569 C2575 1.429 . S
C2570 C2562 1.574 . S
C2570 H2565 0.949 . S
C2570 C2576 1.368 . S
C2571 C2555 1.349 . S
C2571 H2563 0.950 . S
C2571 C2569 1.327 . S
C2572 C2560 1.349 . S
C2572 H2566 0.950 . S
C2572 C2573 1.327 . S
C2573 H2567 0.950 . S
C2573 C2572 1.327 . S
C2573 C2577 1.429 . S
C2574 C2557 1.574 . S
C2574 H2568 0.949 . S
C2574 C2578 1.368 . S
C2575 C2556 1.429 . S
C2575 C2569 1.429 . S
C2575 C2576 1.523 . S
C2576 C2557 1.368 . S
C2576 C2570 1.368 . S
C2576 C2575 1.523 . S
C2577 C2561 1.429 . S
C2577 C2573 1.429 . S
C2577 C2578 1.523 . S
C2578 C2562 1.368 . S
C2578 C2574 1.368 . S
C2578 C2577 1.523 . S
H2579 C2554 0.950 . S
H2580 C2556 0.950 . S
H2581 C2557 0.949 . S
H2582 C2559 0.950 . S
H2583 C2561 0.950 . S
C2584 C2585 1.349 . S
C2584 C2586 1.327 . S
C2584 H2609 0.950 . S
C2585 C2584 1.349 . S
C2585 C2601 1.349 . S
C2586 C2584 1.327 . S
C2586 C2605 1.429 . S
C2586 H2610 0.950 . S
C2587 C2604 1.574 . S
C2587 C2606 1.368 . S
C2587 H2611 0.949 . S
H2588 C2592 0.949 . S
C2589 C2590 1.349 . S
C2589 C2591 1.327 . S
C2589 H2612 0.950 . S
C2590 C2589 1.349 . S
C2590 C2602 1.349 . S
C2591 C2589 1.327 . S
C2591 C2607 1.429 . S
C2591 H2613 0.950 . S
C2592 H2588 0.949 . S
C2592 C2600 1.574 . S
C2592 C2608 1.368 . S
H2593 C2601 0.950 . S
H2594 C2599 0.950 . S
H2595 C2600 0.949 . S
H2596 C2602 0.950 . S
H2597 C2603 0.950 . S
H2598 C2604 0.949 . S
C2599 H2594 0.950 . S
C2599 C2601 1.327 . S
C2599 C2605 1.429 . S
C2600 C2592 1.574 . S
C2600 H2595 0.949 . S
C2600 C2606 1.368 . S
C2601 C2585 1.349 . S
C2601 H2593 0.950 . S
C2601 C2599 1.327 . S
C2602 C2590 1.349 . S
C2602 H2596 0.950 . S
C2602 C2603 1.327 . S
C2603 H2597 0.950 . S
C2603 C2602 1.327 . S
C2603 C2607 1.429 . S
C2604 C2587 1.574 . S
C2604 H2598 0.949 . S
C2604 C2608 1.368 . S
C2605 C2586 1.429 . S
C2605 C2599 1.429 . S
C2605 C2606 1.523 . S
C2606 C2587 1.368 . S
C2606 C2600 1.368 . S
C2606 C2605 1.523 . S
C2607 C2591 1.429 . S
C2607 C2603 1.429 . S
C2607 C2608 1.523 . S
C2608 C2592 1.368 . S
C2608 C2604 1.368 . S
C2608 C2607 1.523 . S
H2609 C2584 0.950 . S
H2610 C2586 0.950 . S
H2611 C2587 0.949 . S
H2612 C2589 0.950 . S
H2613 C2591 0.950 . S
C2614 C2615 1.349 . S
C2614 C2616 1.327 . S
C2614 H2639 0.950 . S
C2615 C2614 1.349 . S
C2615 C2631 1.349 . S
C2616 C2614 1.327 . S
C2616 C2635 1.429 . S
C2616 H2640 0.950 . S
C2617 C2634 1.574 . S
C2617 C2636 1.368 . S
C2617 H2641 0.949 . S
H2618 C2622 0.949 . S
C2619 C2620 1.349 . S
C2619 C2621 1.327 . S
C2619 H2642 0.950 . S
C2620 C2619 1.349 . S
C2620 C2632 1.349 . S
C2621 C2619 1.327 . S
C2621 C2637 1.429 . S
C2621 H2643 0.950 . S
C2622 H2618 0.949 . S
C2622 C2630 1.574 . S
C2622 C2638 1.368 . S
H2623 C2631 0.950 . S
H2624 C2629 0.950 . S
H2625 C2630 0.949 . S
H2626 C2632 0.950 . S
H2627 C2633 0.950 . S
H2628 C2634 0.949 . S
C2629 H2624 0.950 . S
C2629 C2631 1.327 . S
C2629 C2635 1.429 . S
C2630 C2622 1.574 . S
C2630 H2625 0.949 . S
C2630 C2636 1.368 . S
C2631 C2615 1.349 . S
C2631 H2623 0.950 . S
C2631 C2629 1.327 . S
C2632 C2620 1.349 . S
C2632 H2626 0.950 . S
C2632 C2633 1.327 . S
C2633 H2627 0.950 . S
C2633 C2632 1.327 . S
C2633 C2637 1.429 . S
C2634 C2617 1.574 . S
C2634 H2628 0.949 . S
C2634 C2638 1.368 . S
C2635 C2616 1.429 . S
C2635 C2629 1.429 . S
C2635 C2636 1.523 . S
C2636 C2617 1.368 . S
C2636 C2630 1.368 . S
C2636 C2635 1.523 . S
C2637 C2621 1.429 . S
C2637 C2633 1.429 . S
C2637 C2638 1.523 . S
C2638 C2622 1.368 . S
C2638 C2634 1.368 . S
C2638 C2637 1.523 . S
H2639 C2614 0.950 . S
H2640 C2616 0.950 . S
H2641 C2617 0.949 . S
H2642 C2619 0.950 . S
H2643 C2621 0.950 . S
C2644 C2645 1.349 . S
C2644 C2646 1.327 . S
C2644 H2669 0.950 . S
C2645 C2644 1.349 . S
C2645 C2661 1.349 . S
C2646 C2644 1.327 . S
C2646 C2665 1.429 . S
C2646 H2670 0.950 . S
C2647 C2664 1.574 . S
C2647 C2666 1.368 . S
C2647 H2671 0.949 . S
H2648 C2652 0.986 . S
C2649 C2650 1.349 . S
C2649 C2651 1.327 . S
C2649 H2672 0.950 . S
C2650 C2649 1.349 . S
C2650 C2662 1.349 . S
C2651 C2649 1.327 . S
C2651 C2667 1.429 . S
C2651 H2673 0.950 . S
C2652 H2648 0.986 . S
C2652 C2660 1.574 . S
C2652 C2668 1.368 . S
H2653 C2661 0.950 . S
H2654 C2659 0.950 . S
H2655 C2660 0.949 . S
H2656 C2662 0.953 1_565 S
H2657 C2663 0.956 . S
H2658 C2664 0.949 . S
C2659 H2654 0.950 . S
C2659 C2661 1.327 . S
C2659 C2665 1.429 . S
C2660 C2652 1.574 . S
C2660 H2655 0.949 . S
C2660 C2666 1.368 . S
C2661 C2645 1.349 . S
C2661 H2653 0.950 . S
C2661 C2659 1.327 . S
C2662 C2650 1.349 . S
C2662 H2656 0.953 1_545 S
C2662 C2663 1.327 . S
C2663 H2657 0.956 . S
C2663 C2662 1.327 . S
C2663 C2667 1.429 . S
C2664 C2647 1.574 . S
C2664 H2658 0.949 . S
C2664 C2668 1.368 . S
C2665 C2646 1.429 . S
C2665 C2659 1.429 . S
C2665 C2666 1.523 . S
C2666 C2647 1.368 . S
C2666 C2660 1.368 . S
C2666 C2665 1.523 . S
C2667 C2651 1.429 . S
C2667 C2663 1.429 . S
C2667 C2668 1.523 . S
C2668 C2652 1.368 . S
C2668 C2664 1.368 . S
C2668 C2667 1.523 . S
H2669 C2644 0.950 . S
H2670 C2646 0.950 . S
H2671 C2647 0.949 . S
H2672 C2649 0.950 . S
H2673 C2651 0.950 . S
C2674 C2675 1.349 . S
C2674 C2676 1.327 . S
C2674 H2699 0.950 . S
C2675 C2674 1.349 . S
C2675 C2691 1.349 . S
C2676 C2674 1.327 . S
C2676 C2695 1.429 . S
C2676 H2700 0.950 . S
C2677 C2694 1.574 . S
C2677 C2696 1.368 . S
C2677 H2701 0.949 . S
H2678 C2682 0.949 . S
C2679 C2680 1.349 . S
C2679 C2681 1.327 . S
C2679 H2702 0.950 . S
C2680 C2679 1.349 . S
C2680 C2692 1.349 . S
C2681 C2679 1.327 . S
C2681 C2697 1.429 . S
C2681 H2703 0.950 . S
C2682 H2678 0.949 . S
C2682 C2690 1.574 . S
C2682 C2698 1.368 . S
H2683 C2691 0.950 . S
H2684 C2689 0.950 . S
H2685 C2690 0.949 . S
H2686 C2692 0.950 . S
H2687 C2693 0.950 . S
H2688 C2694 0.949 . S
C2689 H2684 0.950 . S
C2689 C2691 1.327 . S
C2689 C2695 1.429 . S
C2690 C2682 1.574 . S
C2690 H2685 0.949 . S
C2690 C2696 1.368 . S
C2691 C2675 1.349 . S
C2691 H2683 0.950 . S
C2691 C2689 1.327 . S
C2692 C2680 1.349 . S
C2692 H2686 0.950 . S
C2692 C2693 1.327 . S
C2693 H2687 0.950 . S
C2693 C2692 1.327 . S
C2693 C2697 1.429 . S
C2694 C2677 1.574 . S
C2694 H2688 0.949 . S
C2694 C2698 1.368 . S
C2695 C2676 1.429 . S
C2695 C2689 1.429 . S
C2695 C2696 1.523 . S
C2696 C2677 1.368 . S
C2696 C2690 1.368 . S
C2696 C2695 1.523 . S
C2697 C2681 1.429 . S
C2697 C2693 1.429 . S
C2697 C2698 1.523 . S
C2698 C2682 1.368 . S
C2698 C2694 1.368 . S
C2698 C2697 1.523 . S
H2699 C2674 0.950 . S
H2700 C2676 0.950 . S
H2701 C2677 0.949 . S
H2702 C2679 0.950 . S
H2703 C2681 0.950 . S
C2704 C2705 1.349 . S
C2704 C2706 1.327 . S
C2704 H2729 0.950 . S
C2705 C2704 1.349 . S
C2705 C2721 1.349 . S
C2706 C2704 1.327 . S
C2706 C2725 1.429 . S
C2706 H2730 0.950 . S
C2707 C2724 1.574 . S
C2707 C2726 1.368 . S
C2707 H2731 0.949 . S
H2708 C2712 0.949 . S
C2709 C2710 1.349 . S
C2709 C2711 1.327 . S
C2709 H2732 0.950 . S
C2710 C2709 1.349 . S
C2710 C2722 1.349 1_556 S
C2711 C2709 1.327 . S
C2711 C2727 1.429 1_556 S
C2711 H2733 0.950 . S
C2712 H2708 0.949 . S
C2712 C2720 1.574 . S
C2712 C2728 1.368 . S
H2713 C2721 0.950 . S
H2714 C2719 0.950 . S
H2715 C2720 0.949 . S
H2716 C2722 0.950 . S
H2717 C2723 0.950 . S
H2718 C2724 0.949 1_556 S
C2719 H2714 0.950 . S
C2719 C2721 1.327 . S
C2719 C2725 1.429 . S
C2720 C2712 1.574 . S
C2720 H2715 0.949 . S
C2720 C2726 1.368 . S
C2721 C2705 1.349 . S
C2721 H2713 0.950 . S
C2721 C2719 1.327 . S
C2722 C2710 1.349 1_554 S
C2722 H2716 0.950 . S
C2722 C2723 1.327 . S
C2723 H2717 0.950 . S
C2723 C2722 1.327 . S
C2723 C2727 1.429 . S
C2724 C2707 1.574 . S
C2724 H2718 0.949 1_554 S
C2724 C2728 1.368 . S
C2725 C2706 1.429 . S
C2725 C2719 1.429 . S
C2725 C2726 1.523 . S
C2726 C2707 1.368 . S
C2726 C2720 1.368 . S
C2726 C2725 1.523 . S
C2727 C2711 1.429 1_554 S
C2727 C2723 1.429 . S
C2727 C2728 1.523 . S
C2728 C2712 1.368 . S
C2728 C2724 1.368 . S
C2728 C2727 1.523 . S
H2729 C2704 0.950 . S
H2730 C2706 0.950 . S
H2731 C2707 0.949 . S
H2732 C2709 0.950 . S
H2733 C2711 0.950 . S
C2734 C2735 1.349 . S
C2734 C2736 1.327 . S
C2734 H2759 0.950 . S
C2735 C2734 1.349 . S
C2735 C2751 1.349 . S
C2736 C2734 1.327 . S
C2736 C2755 1.429 . S
C2736 H2760 0.950 . S
C2737 C2754 1.574 . S
C2737 C2756 1.368 . S
C2737 H2761 0.949 . S
H2738 C2742 0.949 . S
C2739 C2740 1.349 . S
C2739 C2741 1.327 . S
C2739 H2762 0.950 . S
C2740 C2739 1.349 . S
C2740 C2752 1.349 . S
C2741 C2739 1.327 . S
C2741 C2757 1.429 . S
C2741 H2763 0.950 . S
C2742 H2738 0.949 . S
C2742 C2750 1.574 . S
C2742 C2758 1.368 . S
H2743 C2751 0.950 . S
H2744 C2749 0.950 . S
H2745 C2750 0.949 . S
H2746 C2752 0.950 . S
H2747 C2753 0.950 . S
H2748 C2754 0.949 . S
C2749 H2744 0.950 . S
C2749 C2751 1.327 . S
C2749 C2755 1.429 . S
C2750 C2742 1.574 . S
C2750 H2745 0.949 . S
C2750 C2756 1.368 . S
C2751 C2735 1.349 . S
C2751 H2743 0.950 . S
C2751 C2749 1.327 . S
C2752 C2740 1.349 . S
C2752 H2746 0.950 . S
C2752 C2753 1.327 . S
C2753 H2747 0.950 . S
C2753 C2752 1.327 . S
C2753 C2757 1.429 . S
C2754 C2737 1.574 . S
C2754 H2748 0.949 . S
C2754 C2758 1.368 . S
C2755 C2736 1.429 . S
C2755 C2749 1.429 . S
C2755 C2756 1.523 . S
C2756 C2737 1.368 . S
C2756 C2750 1.368 . S
C2756 C2755 1.523 . S
C2757 C2741 1.429 . S
C2757 C2753 1.429 . S
C2757 C2758 1.523 . S
C2758 C2742 1.368 . S
C2758 C2754 1.368 . S
C2758 C2757 1.523 . S
H2759 C2734 0.950 . S
H2760 C2736 0.950 . S
H2761 C2737 0.949 . S
H2762 C2739 0.950 . S
H2763 C2741 0.950 . S
C2764 C2765 1.349 . S
C2764 C2766 1.327 . S
C2764 H2789 0.950 . S
C2765 C2764 1.349 . S
C2765 C2781 1.349 . S
C2766 C2764 1.327 . S
C2766 C2785 1.429 . S
C2766 H2790 0.950 . S
C2767 C2784 1.574 . S
C2767 C2786 1.368 . S
C2767 H2791 0.949 . S
H2768 C2772 0.949 . S
C2769 C2770 1.349 . S
C2769 C2771 1.327 . S
C2769 H2792 0.950 . S
C2770 C2769 1.349 . S
C2770 C2782 1.349 . S
C2771 C2769 1.327 . S
C2771 C2787 1.429 . S
C2771 H2793 0.950 . S
C2772 H2768 0.949 . S
C2772 C2780 1.574 . S
C2772 C2788 1.368 . S
H2773 C2781 0.950 . S
H2774 C2779 0.950 . S
H2775 C2780 0.949 . S
H2776 C2782 0.950 . S
H2777 C2783 0.950 . S
H2778 C2784 0.949 . S
C2779 H2774 0.950 . S
C2779 C2781 1.327 . S
C2779 C2785 1.429 . S
C2780 C2772 1.574 . S
C2780 H2775 0.949 . S
C2780 C2786 1.368 . S
C2781 C2765 1.349 . S
C2781 H2773 0.950 . S
C2781 C2779 1.327 . S
C2782 C2770 1.349 . S
C2782 H2776 0.950 . S
C2782 C2783 1.327 . S
C2783 H2777 0.950 . S
C2783 C2782 1.327 . S
C2783 C2787 1.429 . S
C2784 C2767 1.574 . S
C2784 H2778 0.949 . S
C2784 C2788 1.368 . S
C2785 C2766 1.429 . S
C2785 C2779 1.429 . S
C2785 C2786 1.523 . S
C2786 C2767 1.368 . S
C2786 C2780 1.368 . S
C2786 C2785 1.523 . S
C2787 C2771 1.429 . S
C2787 C2783 1.429 . S
C2787 C2788 1.523 . S
C2788 C2772 1.368 . S
C2788 C2784 1.368 . S
C2788 C2787 1.523 . S
H2789 C2764 0.950 . S
H2790 C2766 0.950 . S
H2791 C2767 0.949 . S
H2792 C2769 0.950 . S
H2793 C2771 0.950 . S
C2794 C2795 1.349 . S
C2794 C2796 1.327 . S
C2794 H2819 0.950 . S
C2795 C2794 1.349 . S
C2795 C2811 1.349 . S
C2796 C2794 1.327 . S
C2796 C2815 1.429 . S
C2796 H2820 0.950 . S
C2797 C2814 1.574 . S
C2797 C2816 1.368 . S
C2797 H2821 0.949 . S
H2798 C2802 0.949 . S
C2799 C2800 1.349 . S
C2799 C2801 1.327 . S
C2799 H2822 0.950 . S
C2800 C2799 1.349 . S
C2800 C2812 1.349 . S
C2801 C2799 1.327 . S
C2801 C2817 1.429 . S
C2801 H2823 0.950 . S
C2802 H2798 0.949 . S
C2802 C2810 1.574 . S
C2802 C2818 1.368 . S
H2803 C2811 0.950 . S
H2804 C2809 0.950 . S
H2805 C2810 0.949 . S
H2806 C2812 0.950 . S
H2807 C2813 0.950 . S
H2808 C2814 0.949 . S
C2809 H2804 0.950 . S
C2809 C2811 1.327 . S
C2809 C2815 1.429 . S
C2810 C2802 1.574 . S
C2810 H2805 0.949 . S
C2810 C2816 1.368 . S
C2811 C2795 1.349 . S
C2811 H2803 0.950 . S
C2811 C2809 1.327 . S
C2812 C2800 1.349 . S
C2812 H2806 0.950 . S
C2812 C2813 1.327 . S
C2813 H2807 0.950 . S
C2813 C2812 1.327 . S
C2813 C2817 1.429 . S
C2814 C2797 1.574 . S
C2814 H2808 0.949 . S
C2814 C2818 1.368 . S
C2815 C2796 1.429 . S
C2815 C2809 1.429 . S
C2815 C2816 1.523 . S
C2816 C2797 1.368 . S
C2816 C2810 1.368 . S
C2816 C2815 1.523 . S
C2817 C2801 1.429 . S
C2817 C2813 1.429 . S
C2817 C2818 1.523 . S
C2818 C2802 1.368 . S
C2818 C2814 1.368 . S
C2818 C2817 1.523 . S
H2819 C2794 0.950 . S
H2820 C2796 0.950 . S
H2821 C2797 0.949 . S
H2822 C2799 0.950 . S
H2823 C2801 0.950 . S
C2824 C2825 1.349 . S
C2824 C2826 1.327 . S
C2824 H2849 0.950 1_565 S
C2825 C2824 1.349 . S
C2825 C2841 1.349 . S
C2826 C2824 1.327 . S
C2826 C2845 1.429 . S
C2826 H2850 0.950 . S
C2827 C2844 1.574 . S
C2827 C2846 1.368 . S
C2827 H2851 0.949 . S
H2828 C2832 0.949 . S
C2829 C2830 1.349 . S
C2829 C2831 1.327 . S
C2829 H2852 0.950 . S
C2830 C2829 1.349 . S
C2830 C2842 1.349 . S
C2831 C2829 1.327 . S
C2831 C2847 1.429 . S
C2831 H2853 0.950 . S
C2832 H2828 0.949 . S
C2832 C2840 1.574 . S
C2832 C2848 1.368 . S
H2833 C2841 0.950 . S
H2834 C2839 0.950 . S
H2835 C2840 0.949 . S
H2836 C2842 0.950 . S
H2837 C2843 0.950 . S
H2838 C2844 0.949 . S
C2839 H2834 0.950 . S
C2839 C2841 1.327 . S
C2839 C2845 1.429 . S
C2840 C2832 1.574 . S
C2840 H2835 0.949 . S
C2840 C2846 1.368 . S
C2841 C2825 1.349 . S
C2841 H2833 0.950 . S
C2841 C2839 1.327 . S
C2842 C2830 1.349 . S
C2842 H2836 0.950 . S
C2842 C2843 1.327 . S
C2843 H2837 0.950 . S
C2843 C2842 1.327 . S
C2843 C2847 1.429 . S
C2844 C2827 1.574 . S
C2844 H2838 0.949 . S
C2844 C2848 1.368 . S
C2845 C2826 1.429 . S
C2845 C2839 1.429 . S
C2845 C2846 1.523 . S
C2846 C2827 1.368 . S
C2846 C2840 1.368 . S
C2846 C2845 1.523 . S
C2847 C2831 1.429 . S
C2847 C2843 1.429 . S
C2847 C2848 1.523 . S
C2848 C2832 1.368 . S
C2848 C2844 1.368 . S
C2848 C2847 1.523 . S
H2849 C2824 0.950 1_545 S
H2850 C2826 0.950 . S
H2851 C2827 0.949 . S
H2852 C2829 0.950 . S
H2853 C2831 0.950 . S
C2854 C2855 1.349 . S
C2854 C2856 1.327 . S
C2854 H2879 0.950 . S
C2855 C2854 1.349 . S
C2855 C2871 1.349 . S
C2856 C2854 1.327 . S
C2856 C2875 1.429 . S
C2856 H2880 0.950 . S
C2857 C2874 1.574 . S
C2857 C2876 1.368 . S
C2857 H2881 0.949 . S
H2858 C2862 0.949 . S
C2859 C2860 1.349 . S
C2859 C2861 1.327 . S
C2859 H2882 0.950 . S
C2860 C2859 1.349 . S
C2860 C2872 1.349 . S
C2861 C2859 1.327 . S
C2861 C2877 1.429 . S
C2861 H2883 0.950 . S
C2862 H2858 0.949 . S
C2862 C2870 1.574 . S
C2862 C2878 1.368 . S
H2863 C2871 0.950 . S
H2864 C2869 0.950 . S
H2865 C2870 0.949 . S
H2866 C2872 0.923 1_545 S
H2867 C2873 0.950 . S
H2868 C2874 0.949 . S
C2869 H2864 0.950 . S
C2869 C2871 1.327 . S
C2869 C2875 1.429 . S
C2870 C2862 1.574 . S
C2870 H2865 0.949 . S
C2870 C2876 1.368 . S
C2871 C2855 1.349 . S
C2871 H2863 0.950 . S
C2871 C2869 1.327 . S
C2872 C2860 1.349 . S
C2872 H2866 0.923 1_565 S
C2872 C2873 1.327 . S
C2873 H2867 0.950 . S
C2873 C2872 1.327 . S
C2873 C2877 1.429 . S
C2874 C2857 1.574 . S
C2874 H2868 0.949 . S
C2874 C2878 1.368 . S
C2875 C2856 1.429 . S
C2875 C2869 1.429 . S
C2875 C2876 1.523 . S
C2876 C2857 1.368 . S
C2876 C2870 1.368 . S
C2876 C2875 1.523 . S
C2877 C2861 1.429 . S
C2877 C2873 1.429 . S
C2877 C2878 1.523 . S
C2878 C2862 1.368 . S
C2878 C2874 1.368 . S
C2878 C2877 1.523 . S
H2879 C2854 0.950 . S
H2880 C2856 0.950 . S
H2881 C2857 0.949 . S
H2882 C2859 0.950 . S
H2883 C2861 0.950 . S
C2884 C2885 1.349 . S
C2884 C2886 1.327 . S
C2884 H2909 0.950 . S
C2885 C2884 1.349 . S
C2885 C2901 1.349 . S
C2886 C2884 1.327 . S
C2886 C2905 1.429 . S
C2886 H2910 0.950 . S
C2887 C2904 1.574 . S
C2887 C2906 1.368 . S
C2887 H2911 0.949 . S
H2888 C2892 0.949 . S
C2889 C2890 1.349 . S
C2889 C2891 1.327 . S
C2889 H2912 0.950 . S
C2890 C2889 1.349 . S
C2890 C2902 1.349 . S
C2891 C2889 1.327 . S
C2891 C2907 1.429 . S
C2891 H2913 0.950 . S
C2892 H2888 0.949 . S
C2892 C2900 1.574 . S
C2892 C2908 1.368 . S
H2893 C2901 0.950 . S
H2894 C2899 0.950 . S
H2895 C2900 0.949 . S
H2896 C2902 0.950 . S
H2897 C2903 0.950 . S
H2898 C2904 0.949 . S
C2899 H2894 0.950 . S
C2899 C2901 1.327 . S
C2899 C2905 1.429 . S
C2900 C2892 1.574 . S
C2900 H2895 0.949 . S
C2900 C2906 1.368 . S
C2901 C2885 1.349 . S
C2901 H2893 0.950 . S
C2901 C2899 1.327 . S
C2902 C2890 1.349 . S
C2902 H2896 0.950 . S
C2902 C2903 1.327 . S
C2903 H2897 0.950 . S
C2903 C2902 1.327 . S
C2903 C2907 1.429 . S
C2904 C2887 1.574 . S
C2904 H2898 0.949 . S
C2904 C2908 1.368 . S
C2905 C2886 1.429 . S
C2905 C2899 1.429 . S
C2905 C2906 1.523 . S
C2906 C2887 1.368 . S
C2906 C2900 1.368 . S
C2906 C2905 1.523 . S
C2907 C2891 1.429 . S
C2907 C2903 1.429 . S
C2907 C2908 1.523 . S
C2908 C2892 1.368 . S
C2908 C2904 1.368 . S
C2908 C2907 1.523 . S
H2909 C2884 0.950 . S
H2910 C2886 0.950 . S
H2911 C2887 0.949 . S
H2912 C2889 0.950 . S
H2913 C2891 0.950 . S
C2914 C2915 1.349 . S
C2914 C2916 1.327 . S
C2914 H2939 0.950 . S
C2915 C2914 1.349 . S
C2915 C2931 1.349 . S
C2916 C2914 1.327 . S
C2916 C2935 1.429 . S
C2916 H2940 0.950 . S
C2917 C2934 1.574 . S
C2917 C2936 1.368 . S
C2917 H2941 0.949 . S
H2918 C2922 0.949 . S
C2919 C2920 1.349 . S
C2919 C2921 1.327 . S
C2919 H2942 0.950 . S
C2920 C2919 1.349 . S
C2920 C2932 1.349 . S
C2921 C2919 1.327 . S
C2921 C2937 1.429 . S
C2921 H2943 0.950 . S
C2922 H2918 0.949 . S
C2922 C2930 1.574 . S
C2922 C2938 1.368 . S
H2923 C2931 0.950 . S
H2924 C2929 0.950 . S
H2925 C2930 0.949 . S
H2926 C2932 0.950 . S
H2927 C2933 0.950 . S
H2928 C2934 0.949 . S
C2929 H2924 0.950 . S
C2929 C2931 1.327 . S
C2929 C2935 1.429 . S
C2930 C2922 1.574 . S
C2930 H2925 0.949 . S
C2930 C2936 1.368 . S
C2931 C2915 1.349 . S
C2931 H2923 0.950 . S
C2931 C2929 1.327 . S
C2932 C2920 1.349 . S
C2932 H2926 0.950 . S
C2932 C2933 1.327 . S
C2933 H2927 0.950 . S
C2933 C2932 1.327 . S
C2933 C2937 1.429 . S
C2934 C2917 1.574 . S
C2934 H2928 0.949 . S
C2934 C2938 1.368 . S
C2935 C2916 1.429 . S
C2935 C2929 1.429 . S
C2935 C2936 1.523 . S
C2936 C2917 1.368 . S
C2936 C2930 1.368 . S
C2936 C2935 1.523 . S
C2937 C2921 1.429 . S
C2937 C2933 1.429 . S
C2937 C2938 1.523 . S
C2938 C2922 1.368 . S
C2938 C2934 1.368 . S
C2938 C2937 1.523 . S
H2939 C2914 0.950 . S
H2940 C2916 0.950 . S
H2941 C2917 0.949 . S
H2942 C2919 0.950 . S
H2943 C2921 0.950 . S
C2944 C2945 1.349 . S
C2944 C2946 1.327 . S
C2944 H2969 0.950 . S
C2945 C2944 1.349 . S
C2945 C2961 1.349 . S
C2946 C2944 1.327 . S
C2946 C2965 1.429 . S
C2946 H2970 0.950 . S
C2947 C2964 1.574 . S
C2947 C2966 1.368 . S
C2947 H2971 0.949 . S
H2948 C2952 0.949 . S
C2949 C2950 1.349 . S
C2949 C2951 1.327 . S
C2949 H2972 0.950 . S
C2950 C2949 1.349 . S
C2950 C2962 1.349 . S
C2951 C2949 1.327 . S
C2951 C2967 1.429 . S
C2951 H2973 0.950 . S
C2952 H2948 0.949 . S
C2952 C2960 1.574 . S
C2952 C2968 1.368 . S
H2953 C2961 0.950 . S
H2954 C2959 0.950 . S
H2955 C2960 0.949 . S
H2956 C2962 0.950 . S
H2957 C2963 0.950 . S
H2958 C2964 0.949 . S
C2959 H2954 0.950 . S
C2959 C2961 1.327 . S
C2959 C2965 1.429 . S
C2960 C2952 1.574 . S
C2960 H2955 0.949 . S
C2960 C2966 1.368 . S
C2961 C2945 1.349 . S
C2961 H2953 0.950 . S
C2961 C2959 1.327 . S
C2962 C2950 1.349 . S
C2962 H2956 0.950 . S
C2962 C2963 1.327 . S
C2963 H2957 0.950 . S
C2963 C2962 1.327 . S
C2963 C2967 1.429 . S
C2964 C2947 1.574 . S
C2964 H2958 0.949 . S
C2964 C2968 1.368 . S
C2965 C2946 1.429 . S
C2965 C2959 1.429 . S
C2965 C2966 1.523 . S
C2966 C2947 1.368 . S
C2966 C2960 1.368 . S
C2966 C2965 1.523 . S
C2967 C2951 1.429 . S
C2967 C2963 1.429 . S
C2967 C2968 1.523 . S
C2968 C2952 1.368 . S
C2968 C2964 1.368 . S
C2968 C2967 1.523 . S
H2969 C2944 0.950 . S
H2970 C2946 0.950 . S
H2971 C2947 0.949 . S
H2972 C2949 0.950 . S
H2973 C2951 0.950 . S
C2974 C2975 1.349 . S
C2974 C2976 1.327 . S
C2974 H2999 0.950 . S
C2975 C2974 1.349 . S
C2975 C2991 1.349 . S
C2976 C2974 1.327 . S
C2976 C2995 1.429 . S
C2976 H3000 0.950 . S
C2977 C2994 1.574 . S
C2977 C2996 1.368 . S
C2977 H3001 0.949 . S
H2978 C2982 0.949 . S
C2979 C2980 1.349 . S
C2979 C2981 1.327 . S
C2979 H3002 0.950 . S
C2980 C2979 1.349 . S
C2980 C2992 1.349 . S
C2981 C2979 1.327 . S
C2981 C2997 1.429 . S
C2981 H3003 0.950 . S
C2982 H2978 0.949 . S
C2982 C2990 1.574 . S
C2982 C2998 1.368 . S
H2983 C2991 0.950 . S
H2984 C2989 0.950 . S
H2985 C2990 0.949 . S
H2986 C2992 0.950 . S
H2987 C2993 0.950 . S
H2988 C2994 0.949 . S
C2989 H2984 0.950 . S
C2989 C2991 1.327 . S
C2989 C2995 1.429 . S
C2990 C2982 1.574 . S
C2990 H2985 0.949 . S
C2990 C2996 1.368 . S
C2991 C2975 1.349 . S
C2991 H2983 0.950 . S
C2991 C2989 1.327 . S
C2992 C2980 1.349 . S
C2992 H2986 0.950 . S
C2992 C2993 1.327 . S
C2993 H2987 0.950 . S
C2993 C2992 1.327 . S
C2993 C2997 1.429 . S
C2994 C2977 1.574 . S
C2994 H2988 0.949 . S
C2994 C2998 1.368 . S
C2995 C2976 1.429 . S
C2995 C2989 1.429 . S
C2995 C2996 1.523 . S
C2996 C2977 1.368 . S
C2996 C2990 1.368 . S
C2996 C2995 1.523 . S
C2997 C2981 1.429 . S
C2997 C2993 1.429 . S
C2997 C2998 1.523 . S
C2998 C2982 1.368 . S
C2998 C2994 1.368 . S
C2998 C2997 1.523 . S
H2999 C2974 0.950 . S
H3000 C2976 0.950 . S
H3001 C2977 0.949 . S
H3002 C2979 0.950 . S
H3003 C2981 0.950 . S
C3004 C3005 1.349 . S
C3004 C3006 1.327 . S
C3004 H3029 0.950 . S
C3005 C3004 1.349 . S
C3005 C3021 1.349 . S
C3006 C3004 1.327 . S
C3006 C3025 1.429 . S
C3006 H3030 0.950 . S
C3007 C3024 1.574 . S
C3007 C3026 1.368 . S
C3007 H3031 0.949 . S
H3008 C3012 0.949 1_554 S
C3009 C3010 1.349 1_556 S
C3009 C3011 1.327 . S
C3009 H3032 0.950 . S
C3010 C3009 1.349 1_554 S
C3010 C3022 1.349 . S
C3011 C3009 1.327 . S
C3011 C3027 1.429 . S
C3011 H3033 0.950 . S
C3012 H3008 0.949 1_556 S
C3012 C3020 1.574 . S
C3012 C3028 1.368 . S
H3013 C3021 0.950 . S
H3014 C3019 0.950 . S
H3015 C3020 0.949 . S
H3016 C3022 0.950 . S
H3017 C3023 0.950 . S
H3018 C3024 0.949 . S
C3019 H3014 0.950 . S
C3019 C3021 1.327 . S
C3019 C3025 1.429 . S
C3020 C3012 1.574 . S
C3020 H3015 0.949 . S
C3020 C3026 1.368 . S
C3021 C3005 1.349 . S
C3021 H3013 0.950 . S
C3021 C3019 1.327 . S
C3022 C3010 1.349 . S
C3022 H3016 0.950 . S
C3022 C3023 1.327 . S
C3023 H3017 0.950 . S
C3023 C3022 1.327 . S
C3023 C3027 1.429 1_554 S
C3024 C3007 1.574 . S
C3024 H3018 0.949 . S
C3024 C3028 1.368 . S
C3025 C3006 1.429 . S
C3025 C3019 1.429 . S
C3025 C3026 1.523 . S
C3026 C3007 1.368 . S
C3026 C3020 1.368 . S
C3026 C3025 1.523 . S
C3027 C3011 1.429 . S
C3027 C3023 1.429 1_556 S
C3027 C3028 1.523 . S
C3028 C3012 1.368 . S
C3028 C3024 1.368 . S
C3028 C3027 1.523 . S
H3029 C3004 0.950 . S
H3030 C3006 0.950 . S
H3031 C3007 0.949 . S
H3032 C3009 0.950 . S
H3033 C3011 0.950 . S
C3034 C3035 1.349 . S
C3034 C3036 1.327 . S
C3034 H3059 0.950 . S
C3035 C3034 1.349 . S
C3035 C3051 1.349 . S
C3036 C3034 1.327 . S
C3036 C3055 1.429 1_455 S
C3036 H3060 0.950 1_455 S
C3037 C3054 1.574 . S
C3037 C3056 1.368 . S
C3037 H3061 0.949 . S
H3038 C3042 0.949 . S
C3039 C3040 1.349 . S
C3039 C3041 1.327 . S
C3039 H3062 0.950 . S
C3040 C3039 1.349 . S
C3040 C3052 1.349 . S
C3041 C3039 1.327 . S
C3041 C3057 1.429 . S
C3041 H3063 0.950 . S
C3042 H3038 0.949 . S
C3042 C3050 1.574 . S
C3042 C3058 1.368 . S
H3043 C3051 0.950 . S
H3044 C3049 0.950 . S
H3045 C3050 0.949 . S
H3046 C3052 0.950 . S
H3047 C3053 0.950 . S
H3048 C3054 0.949 . S
C3049 H3044 0.950 . S
C3049 C3051 1.327 1_655 S
C3049 C3055 1.429 . S
C3050 C3042 1.574 . S
C3050 H3045 0.949 . S
C3050 C3056 1.368 . S
C3051 C3035 1.349 . S
C3051 H3043 0.950 . S
C3051 C3049 1.327 1_455 S
C3052 C3040 1.349 . S
C3052 H3046 0.950 . S
C3052 C3053 1.327 . S
C3053 H3047 0.950 . S
C3053 C3052 1.327 . S
C3053 C3057 1.429 . S
C3054 C3037 1.574 . S
C3054 H3048 0.949 . S
C3054 C3058 1.368 . S
C3055 C3036 1.429 1_655 S
C3055 C3049 1.429 . S
C3055 C3056 1.523 . S
C3056 C3037 1.368 . S
C3056 C3050 1.368 . S
C3056 C3055 1.523 . S
C3057 C3041 1.429 . S
C3057 C3053 1.429 . S
C3057 C3058 1.523 . S
C3058 C3042 1.368 . S
C3058 C3054 1.368 . S
C3058 C3057 1.523 . S
H3059 C3034 0.950 . S
H3060 C3036 0.950 1_655 S
H3061 C3037 0.949 . S
H3062 C3039 0.950 . S
H3063 C3041 0.950 . S
C3064 C3065 1.349 . S
C3064 C3066 1.327 . S
C3064 H3089 0.950 . S
C3065 C3064 1.349 . S
C3065 C3081 1.349 . S
C3066 C3064 1.327 . S
C3066 C3085 1.429 . S
C3066 H3090 0.950 . S
C3067 C3084 1.574 . S
C3067 C3086 1.368 . S
C3067 H3091 0.949 . S
H3068 C3072 0.949 . S
C3069 C3070 1.349 . S
C3069 C3071 1.327 . S
C3069 H3092 0.950 . S
C3070 C3069 1.349 . S
C3070 C3082 1.349 . S
C3071 C3069 1.327 . S
C3071 C3087 1.429 . S
C3071 H3093 0.950 . S
C3072 H3068 0.949 . S
C3072 C3080 1.574 . S
C3072 C3088 1.368 . S
H3073 C3081 0.950 . S
H3074 C3079 0.950 . S
H3075 C3080 0.949 . S
H3076 C3082 0.950 . S
H3077 C3083 0.950 . S
H3078 C3084 0.949 . S
C3079 H3074 0.950 . S
C3079 C3081 1.327 . S
C3079 C3085 1.429 . S
C3080 C3072 1.574 . S
C3080 H3075 0.949 . S
C3080 C3086 1.368 . S
C3081 C3065 1.349 . S
C3081 H3073 0.950 . S
C3081 C3079 1.327 . S
C3082 C3070 1.349 . S
C3082 H3076 0.950 . S
C3082 C3083 1.327 . S
C3083 H3077 0.950 . S
C3083 C3082 1.327 . S
C3083 C3087 1.429 . S
C3084 C3067 1.574 . S
C3084 H3078 0.949 . S
C3084 C3088 1.368 . S
C3085 C3066 1.429 . S
C3085 C3079 1.429 . S
C3085 C3086 1.523 . S
C3086 C3067 1.368 . S
C3086 C3080 1.368 . S
C3086 C3085 1.523 . S
C3087 C3071 1.429 . S
C3087 C3083 1.429 . S
C3087 C3088 1.523 . S
C3088 C3072 1.368 . S
C3088 C3084 1.368 . S
C3088 C3087 1.523 . S
H3089 C3064 0.950 . S
H3090 C3066 0.950 . S
H3091 C3067 0.949 . S
H3092 C3069 0.950 . S
H3093 C3071 0.950 . S
C3094 C3095 1.349 . S
C3094 C3096 1.327 . S
C3094 H3119 0.950 . S
C3095 C3094 1.349 . S
C3095 C3111 1.349 . S
C3096 C3094 1.327 . S
C3096 C3115 1.429 . S
C3096 H3120 0.950 . S
C3097 C3114 1.574 . S
C3097 C3116 1.368 . S
C3097 H3121 0.949 . S
H3098 C3102 0.949 . S
C3099 C3100 1.349 . S
C3099 C3101 1.327 . S
C3099 H3122 0.950 . S
C3100 C3099 1.349 . S
C3100 C3112 1.349 . S
C3101 C3099 1.327 . S
C3101 C3117 1.429 . S
C3101 H3123 0.950 . S
C3102 H3098 0.949 . S
C3102 C3110 1.574 . S
C3102 C3118 1.368 . S
H3103 C3111 0.950 . S
H3104 C3109 0.950 . S
H3105 C3110 0.949 . S
H3106 C3112 0.950 . S
H3107 C3113 0.950 . S
H3108 C3114 0.949 . S
C3109 H3104 0.950 . S
C3109 C3111 1.327 . S
C3109 C3115 1.429 . S
C3110 C3102 1.574 . S
C3110 H3105 0.949 . S
C3110 C3116 1.368 . S
C3111 C3095 1.349 . S
C3111 H3103 0.950 . S
C3111 C3109 1.327 . S
C3112 C3100 1.349 . S
C3112 H3106 0.950 . S
C3112 C3113 1.327 . S
C3113 H3107 0.950 . S
C3113 C3112 1.327 . S
C3113 C3117 1.429 . S
C3114 C3097 1.574 . S
C3114 H3108 0.949 . S
C3114 C3118 1.368 . S
C3115 C3096 1.429 . S
C3115 C3109 1.429 . S
C3115 C3116 1.523 . S
C3116 C3097 1.368 . S
C3116 C3110 1.368 . S
C3116 C3115 1.523 . S
C3117 C3101 1.429 . S
C3117 C3113 1.429 . S
C3117 C3118 1.523 . S
C3118 C3102 1.368 . S
C3118 C3114 1.368 . S
C3118 C3117 1.523 . S
H3119 C3094 0.950 . S
H3120 C3096 0.950 . S
H3121 C3097 0.949 . S
H3122 C3099 0.950 . S
H3123 C3101 0.950 . S
C3124 C3125 1.349 . S
C3124 C3126 1.327 . S
C3124 H3149 0.950 . S
C3125 C3124 1.349 . S
C3125 C3141 1.349 . S
C3126 C3124 1.327 . S
C3126 C3145 1.429 . S
C3126 H3150 0.950 . S
C3127 C3144 1.574 . S
C3127 C3146 1.368 . S
C3127 H3151 0.949 . S
H3128 C3132 0.949 . S
C3129 C3130 1.349 . S
C3129 C3131 1.327 . S
C3129 H3152 0.950 . S
C3130 C3129 1.349 . S
C3130 C3142 1.349 . S
C3131 C3129 1.327 . S
C3131 C3147 1.429 . S
C3131 H3153 0.950 . S
C3132 H3128 0.949 . S
C3132 C3140 1.574 . S
C3132 C3148 1.368 . S
H3133 C3141 0.950 . S
H3134 C3139 0.950 . S
H3135 C3140 0.949 . S
H3136 C3142 0.950 . S
H3137 C3143 0.950 . S
H3138 C3144 0.949 . S
C3139 H3134 0.950 . S
C3139 C3141 1.327 . S
C3139 C3145 1.429 . S
C3140 C3132 1.574 . S
C3140 H3135 0.949 . S
C3140 C3146 1.368 . S
C3141 C3125 1.349 . S
C3141 H3133 0.950 . S
C3141 C3139 1.327 . S
C3142 C3130 1.349 . S
C3142 H3136 0.950 . S
C3142 C3143 1.327 . S
C3143 H3137 0.950 . S
C3143 C3142 1.327 . S
C3143 C3147 1.429 . S
C3144 C3127 1.574 . S
C3144 H3138 0.949 . S
C3144 C3148 1.368 . S
C3145 C3126 1.429 . S
C3145 C3139 1.429 . S
C3145 C3146 1.523 . S
C3146 C3127 1.368 . S
C3146 C3140 1.368 . S
C3146 C3145 1.523 . S
C3147 C3131 1.429 . S
C3147 C3143 1.429 . S
C3147 C3148 1.523 . S
C3148 C3132 1.368 . S
C3148 C3144 1.368 . S
C3148 C3147 1.523 . S
H3149 C3124 0.950 . S
H3150 C3126 0.950 . S
H3151 C3127 0.949 . S
H3152 C3129 0.950 . S
H3153 C3131 0.950 . S
C3154 C3155 1.349 . S
C3154 C3156 1.327 . S
C3154 H3179 0.950 . S
C3155 C3154 1.349 . S
C3155 C3171 1.349 . S
C3156 C3154 1.327 . S
C3156 C3175 1.429 . S
C3156 H3180 0.950 . S
C3157 C3174 1.574 . S
C3157 C3176 1.368 . S
C3157 H3181 0.949 . S
H3158 C3162 0.949 . S
C3159 C3160 1.349 . S
C3159 C3161 1.327 . S
C3159 H3182 0.950 . S
C3160 C3159 1.349 . S
C3160 C3172 1.349 . S
C3161 C3159 1.327 . S
C3161 C3177 1.429 . S
C3161 H3183 0.950 . S
C3162 H3158 0.949 . S
C3162 C3170 1.574 . S
C3162 C3178 1.368 . S
H3163 C3171 0.950 . S
H3164 C3169 0.950 . S
H3165 C3170 0.949 . S
H3166 C3172 0.950 . S
H3167 C3173 0.950 . S
H3168 C3174 0.949 . S
C3169 H3164 0.950 . S
C3169 C3171 1.327 . S
C3169 C3175 1.429 . S
C3170 C3162 1.574 . S
C3170 H3165 0.949 . S
C3170 C3176 1.368 . S
C3171 C3155 1.349 . S
C3171 H3163 0.950 . S
C3171 C3169 1.327 . S
C3172 C3160 1.349 . S
C3172 H3166 0.950 . S
C3172 C3173 1.327 . S
C3173 H3167 0.950 . S
C3173 C3172 1.327 . S
C3173 C3177 1.429 . S
C3174 C3157 1.574 . S
C3174 H3168 0.949 . S
C3174 C3178 1.368 . S
C3175 C3156 1.429 . S
C3175 C3169 1.429 . S
C3175 C3176 1.523 . S
C3176 C3157 1.368 . S
C3176 C3170 1.368 . S
C3176 C3175 1.523 . S
C3177 C3161 1.429 . S
C3177 C3173 1.429 . S
C3177 C3178 1.523 . S
C3178 C3162 1.368 . S
C3178 C3174 1.368 . S
C3178 C3177 1.523 . S
H3179 C3154 0.950 . S
H3180 C3156 0.950 . S
H3181 C3157 0.949 . S
H3182 C3159 0.950 . S
H3183 C3161 0.950 . S
C3184 C3185 1.349 . S
C3184 C3186 1.327 . S
C3184 H3209 0.950 . S
C3185 C3184 1.349 . S
C3185 C3201 1.349 . S
C3186 C3184 1.327 . S
C3186 C3205 1.429 . S
C3186 H3210 0.950 . S
C3187 C3204 1.574 . S
C3187 C3206 1.368 . S
C3187 H3211 0.949 . S
H3188 C3192 0.949 . S
C3189 C3190 1.349 . S
C3189 C3191 1.327 . S
C3189 H3212 0.950 . S
C3190 C3189 1.349 . S
C3190 C3202 1.349 . S
C3191 C3189 1.327 . S
C3191 C3207 1.429 . S
C3191 H3213 0.950 . S
C3192 H3188 0.949 . S
C3192 C3200 1.574 . S
C3192 C3208 1.368 . S
H3193 C3201 0.950 . S
H3194 C3199 0.950 . S
H3195 C3200 0.949 . S
H3196 C3202 0.950 . S
H3197 C3203 0.950 . S
H3198 C3204 0.949 . S
C3199 H3194 0.950 . S
C3199 C3201 1.327 . S
C3199 C3205 1.429 . S
C3200 C3192 1.574 . S
C3200 H3195 0.949 . S
C3200 C3206 1.368 . S
C3201 C3185 1.349 . S
C3201 H3193 0.950 . S
C3201 C3199 1.327 . S
C3202 C3190 1.349 . S
C3202 H3196 0.950 . S
C3202 C3203 1.327 . S
C3203 H3197 0.950 . S
C3203 C3202 1.327 . S
C3203 C3207 1.429 . S
C3204 C3187 1.574 . S
C3204 H3198 0.949 . S
C3204 C3208 1.368 . S
C3205 C3186 1.429 . S
C3205 C3199 1.429 . S
C3205 C3206 1.523 . S
C3206 C3187 1.368 . S
C3206 C3200 1.368 . S
C3206 C3205 1.523 . S
C3207 C3191 1.429 . S
C3207 C3203 1.429 . S
C3207 C3208 1.523 . S
C3208 C3192 1.368 . S
C3208 C3204 1.368 . S
C3208 C3207 1.523 . S
H3209 C3184 0.950 . S
H3210 C3186 0.950 . S
H3211 C3187 0.949 . S
H3212 C3189 0.950 . S
H3213 C3191 0.950 . S
C3214 C3215 1.349 . S
C3214 C3216 1.327 1_554 S
C3214 H3239 0.950 . S
C3215 C3214 1.349 . S
C3215 C3231 1.349 1_554 S
C3216 C3214 1.327 1_556 S
C3216 C3235 1.429 . S
C3216 H3240 0.950 . S
C3217 C3234 1.574 . S
C3217 C3236 1.368 . S
C3217 H3241 0.949 . S
H3218 C3222 0.949 . S
C3219 C3220 1.349 . S
C3219 C3221 1.327 . S
C3219 H3242 0.950 . S
C3220 C3219 1.349 . S
C3220 C3232 1.349 . S
C3221 C3219 1.327 . S
C3221 C3237 1.429 . S
C3221 H3243 0.950 . S
C3222 H3218 0.949 . S
C3222 C3230 1.574 . S
C3222 C3238 1.368 . S
H3223 C3231 0.950 . S
H3224 C3229 0.950 . S
H3225 C3230 0.949 . S
H3226 C3232 0.950 . S
H3227 C3233 0.950 . S
H3228 C3234 0.949 . S
C3229 H3224 0.950 . S
C3229 C3231 1.327 . S
C3229 C3235 1.429 . S
C3230 C3222 1.574 . S
C3230 H3225 0.949 . S
C3230 C3236 1.368 . S
C3231 C3215 1.349 1_556 S
C3231 H3223 0.950 . S
C3231 C3229 1.327 . S
C3232 C3220 1.349 . S
C3232 H3226 0.950 . S
C3232 C3233 1.327 . S
C3233 H3227 0.950 . S
C3233 C3232 1.327 . S
C3233 C3237 1.429 . S
C3234 C3217 1.574 . S
C3234 H3228 0.949 . S
C3234 C3238 1.368 . S
C3235 C3216 1.429 . S
C3235 C3229 1.429 . S
C3235 C3236 1.523 . S
C3236 C3217 1.368 . S
C3236 C3230 1.368 . S
C3236 C3235 1.523 . S
C3237 C3221 1.429 . S
C3237 C3233 1.429 . S
C3237 C3238 1.523 . S
C3238 C3222 1.368 . S
C3238 C3234 1.368 . S
C3238 C3237 1.523 . S
H3239 C3214 0.950 . S
H3240 C3216 0.950 . S
H3241 C3217 0.949 . S
H3242 C3219 0.950 . S
H3243 C3221 0.950 . S
C3244 C3245 1.349 . S
C3244 C3246 1.327 . S
C3244 H3269 0.950 . S
C3245 C3244 1.349 . S
C3245 C3261 1.349 . S
C3246 C3244 1.327 . S
C3246 C3265 1.429 . S
C3246 H3270 0.950 . S
C3247 C3264 1.574 . S
C3247 C3266 1.368 . S
C3247 H3271 0.949 . S
H3248 C3252 0.949 . S
C3249 C3250 1.349 . S
C3249 C3251 1.327 . S
C3249 H3272 0.950 . S
C3250 C3249 1.349 . S
C3250 C3262 1.349 . S
C3251 C3249 1.327 . S
C3251 C3267 1.429 . S
C3251 H3273 0.950 . S
C3252 H3248 0.949 . S
C3252 C3260 1.574 . S
C3252 C3268 1.368 . S
H3253 C3261 0.950 . S
H3254 C3259 0.950 . S
H3255 C3260 0.949 . S
H3256 C3262 0.950 . S
H3257 C3263 0.950 . S
H3258 C3264 0.949 . S
C3259 H3254 0.950 . S
C3259 C3261 1.327 . S
C3259 C3265 1.429 . S
C3260 C3252 1.574 . S
C3260 H3255 0.949 . S
C3260 C3266 1.368 . S
C3261 C3245 1.349 . S
C3261 H3253 0.950 . S
C3261 C3259 1.327 . S
C3262 C3250 1.349 . S
C3262 H3256 0.950 . S
C3262 C3263 1.327 . S
C3263 H3257 0.950 . S
C3263 C3262 1.327 . S
C3263 C3267 1.429 . S
C3264 C3247 1.574 . S
C3264 H3258 0.949 . S
C3264 C3268 1.368 . S
C3265 C3246 1.429 . S
C3265 C3259 1.429 . S
C3265 C3266 1.523 . S
C3266 C3247 1.368 . S
C3266 C3260 1.368 . S
C3266 C3265 1.523 . S
C3267 C3251 1.429 . S
C3267 C3263 1.429 . S
C3267 C3268 1.523 . S
C3268 C3252 1.368 . S
C3268 C3264 1.368 . S
C3268 C3267 1.523 . S
H3269 C3244 0.950 . S
H3270 C3246 0.950 . S
H3271 C3247 0.949 . S
H3272 C3249 0.950 . S
H3273 C3251 0.950 . S
C3274 C3275 1.349 . S
C3274 C3276 1.327 . S
C3274 H3299 0.950 . S
C3275 C3274 1.349 . S
C3275 C3291 1.349 . S
C3276 C3274 1.327 . S
C3276 C3295 1.429 . S
C3276 H3300 0.950 . S
C3277 C3294 1.574 . S
C3277 C3296 1.368 . S
C3277 H3301 0.949 . S
H3278 C3282 0.949 . S
C3279 C3280 1.349 . S
C3279 C3281 1.327 . S
C3279 H3302 0.950 . S
C3280 C3279 1.349 . S
C3280 C3292 1.349 . S
C3281 C3279 1.327 . S
C3281 C3297 1.429 . S
C3281 H3303 0.950 . S
C3282 H3278 0.949 . S
C3282 C3290 1.574 . S
C3282 C3298 1.368 . S
H3283 C3291 0.950 . S
H3284 C3289 0.950 . S
H3285 C3290 0.949 . S
H3286 C3292 0.950 . S
H3287 C3293 0.950 . S
H3288 C3294 0.949 . S
C3289 H3284 0.950 . S
C3289 C3291 1.327 . S
C3289 C3295 1.429 . S
C3290 C3282 1.574 . S
C3290 H3285 0.949 . S
C3290 C3296 1.368 . S
C3291 C3275 1.349 . S
C3291 H3283 0.950 . S
C3291 C3289 1.327 . S
C3292 C3280 1.349 . S
C3292 H3286 0.950 . S
C3292 C3293 1.327 . S
C3293 H3287 0.950 . S
C3293 C3292 1.327 . S
C3293 C3297 1.429 . S
C3294 C3277 1.574 . S
C3294 H3288 0.949 . S
C3294 C3298 1.368 . S
C3295 C3276 1.429 . S
C3295 C3289 1.429 . S
C3295 C3296 1.523 . S
C3296 C3277 1.368 . S
C3296 C3290 1.368 . S
C3296 C3295 1.523 . S
C3297 C3281 1.429 . S
C3297 C3293 1.429 . S
C3297 C3298 1.523 . S
C3298 C3282 1.368 . S
C3298 C3294 1.368 . S
C3298 C3297 1.523 . S
H3299 C3274 0.950 . S
H3300 C3276 0.950 . S
H3301 C3277 0.949 . S
H3302 C3279 0.950 . S
H3303 C3281 0.950 . S
C3304 C3305 1.349 . S
C3304 C3306 1.327 . S
C3304 H3329 0.950 . S
C3305 C3304 1.349 . S
C3305 C3321 1.349 . S
C3306 C3304 1.327 . S
C3306 C3325 1.429 . S
C3306 H3330 0.950 . S
C3307 C3324 1.574 . S
C3307 C3326 1.368 . S
C3307 H3331 0.949 . S
H3308 C3312 0.949 . S
C3309 C3310 1.349 . S
C3309 C3311 1.327 . S
C3309 H3332 0.950 . S
C3310 C3309 1.349 . S
C3310 C3322 1.349 . S
C3311 C3309 1.327 . S
C3311 C3327 1.429 . S
C3311 H3333 0.950 . S
C3312 H3308 0.949 . S
C3312 C3320 1.574 . S
C3312 C3328 1.368 . S
H3313 C3321 0.950 . S
H3314 C3319 0.950 . S
H3315 C3320 0.949 . S
H3316 C3322 0.950 . S
H3317 C3323 0.950 . S
H3318 C3324 0.949 . S
C3319 H3314 0.950 . S
C3319 C3321 1.327 . S
C3319 C3325 1.429 . S
C3320 C3312 1.574 . S
C3320 H3315 0.949 . S
C3320 C3326 1.368 . S
C3321 C3305 1.349 . S
C3321 H3313 0.950 . S
C3321 C3319 1.327 . S
C3322 C3310 1.349 . S
C3322 H3316 0.950 . S
C3322 C3323 1.327 . S
C3323 H3317 0.950 . S
C3323 C3322 1.327 . S
C3323 C3327 1.429 . S
C3324 C3307 1.574 . S
C3324 H3318 0.949 . S
C3324 C3328 1.368 . S
C3325 C3306 1.429 . S
C3325 C3319 1.429 . S
C3325 C3326 1.523 . S
C3326 C3307 1.368 . S
C3326 C3320 1.368 . S
C3326 C3325 1.523 . S
C3327 C3311 1.429 . S
C3327 C3323 1.429 . S
C3327 C3328 1.523 . S
C3328 C3312 1.368 . S
C3328 C3324 1.368 . S
C3328 C3327 1.523 . S
H3329 C3304 0.950 . S
H3330 C3306 0.950 . S
H3331 C3307 0.949 . S
H3332 C3309 0.950 . S
H3333 C3311 0.950 . S
C3334 C3335 1.349 . S
C3334 C3336 1.327 . S
C3334 H3359 0.950 . S
C3335 C3334 1.349 . S
C3335 C3351 1.349 . S
C3336 C3334 1.327 . S
C3336 C3355 1.429 . S
C3336 H3360 0.950 . S
C3337 C3354 1.574 . S
C3337 C3356 1.368 . S
C3337 H3361 0.949 . S
H3338 C3342 0.949 . S
C3339 C3340 1.349 . S
C3339 C3341 1.327 . S
C3339 H3362 0.950 . S
C3340 C3339 1.349 . S
C3340 C3352 1.349 . S
C3341 C3339 1.327 . S
C3341 C3357 1.429 . S
C3341 H3363 0.950 . S
C3342 H3338 0.949 . S
C3342 C3350 1.574 . S
C3342 C3358 1.368 . S
H3343 C3351 0.950 . S
H3344 C3349 0.950 . S
H3345 C3350 0.949 . S
H3346 C3352 0.950 . S
H3347 C3353 0.950 . S
H3348 C3354 0.949 . S
C3349 H3344 0.950 . S
C3349 C3351 1.327 . S
C3349 C3355 1.429 . S
C3350 C3342 1.574 . S
C3350 H3345 0.949 . S
C3350 C3356 1.368 . S
C3351 C3335 1.349 . S
C3351 H3343 0.950 . S
C3351 C3349 1.327 . S
C3352 C3340 1.349 . S
C3352 H3346 0.950 . S
C3352 C3353 1.327 . S
C3353 H3347 0.950 . S
C3353 C3352 1.327 . S
C3353 C3357 1.429 . S
C3354 C3337 1.574 . S
C3354 H3348 0.949 . S
C3354 C3358 1.368 . S
C3355 C3336 1.429 . S
C3355 C3349 1.429 . S
C3355 C3356 1.523 . S
C3356 C3337 1.368 . S
C3356 C3350 1.368 . S
C3356 C3355 1.523 . S
C3357 C3341 1.429 . S
C3357 C3353 1.429 . S
C3357 C3358 1.523 . S
C3358 C3342 1.368 . S
C3358 C3354 1.368 . S
C3358 C3357 1.523 . S
H3359 C3334 0.950 . S
H3360 C3336 0.950 . S
H3361 C3337 0.949 . S
H3362 C3339 0.950 . S
H3363 C3341 0.950 . S
C3364 C3365 1.349 . S
C3364 C3366 1.327 . S
C3364 H3389 0.950 . S
C3365 C3364 1.349 . S
C3365 C3381 1.349 . S
C3366 C3364 1.327 . S
C3366 C3385 1.429 . S
C3366 H3390 0.950 . S
C3367 C3384 1.574 . S
C3367 C3386 1.368 . S
C3367 H3391 0.949 . S
H3368 C3372 0.949 . S
C3369 C3370 1.349 . S
C3369 C3371 1.327 . S
C3369 H3392 0.950 . S
C3370 C3369 1.349 . S
C3370 C3382 1.349 . S
C3371 C3369 1.327 . S
C3371 C3387 1.429 . S
C3371 H3393 0.950 . S
C3372 H3368 0.949 . S
C3372 C3380 1.574 . S
C3372 C3388 1.368 . S
H3373 C3381 0.950 . S
H3374 C3379 0.950 . S
H3375 C3380 0.949 . S
H3376 C3382 0.950 . S
H3377 C3383 0.950 . S
H3378 C3384 0.949 . S
C3379 H3374 0.950 . S
C3379 C3381 1.327 . S
C3379 C3385 1.429 . S
C3380 C3372 1.574 . S
C3380 H3375 0.949 . S
C3380 C3386 1.368 . S
C3381 C3365 1.349 . S
C3381 H3373 0.950 . S
C3381 C3379 1.327 . S
C3382 C3370 1.349 . S
C3382 H3376 0.950 . S
C3382 C3383 1.327 . S
C3383 H3377 0.950 . S
C3383 C3382 1.327 . S
C3383 C3387 1.429 . S
C3384 C3367 1.574 . S
C3384 H3378 0.949 . S
C3384 C3388 1.368 . S
C3385 C3366 1.429 . S
C3385 C3379 1.429 . S
C3385 C3386 1.523 . S
C3386 C3367 1.368 . S
C3386 C3380 1.368 . S
C3386 C3385 1.523 . S
C3387 C3371 1.429 . S
C3387 C3383 1.429 . S
C3387 C3388 1.523 . S
C3388 C3372 1.368 . S
C3388 C3384 1.368 . S
C3388 C3387 1.523 . S
H3389 C3364 0.950 . S
H3390 C3366 0.950 . S
H3391 C3367 0.949 . S
H3392 C3369 0.950 . S
H3393 C3371 0.950 . S
C3394 C3395 1.349 . S
C3394 C3396 1.327 . S
C3394 H3419 0.950 . S
C3395 C3394 1.349 . S
C3395 C3411 1.349 . S
C3396 C3394 1.327 . S
C3396 C3415 1.429 . S
C3396 H3420 0.950 . S
C3397 C3414 1.574 . S
C3397 C3416 1.368 . S
C3397 H3421 0.949 . S
H3398 C3402 0.949 . S
C3399 C3400 1.349 . S
C3399 C3401 1.327 . S
C3399 H3422 0.950 . S
C3400 C3399 1.349 . S
C3400 C3412 1.349 . S
C3401 C3399 1.327 . S
C3401 C3417 1.429 . S
C3401 H3423 0.950 . S
C3402 H3398 0.949 . S
C3402 C3410 1.574 . S
C3402 C3418 1.368 . S
H3403 C3411 0.950 . S
H3404 C3409 0.950 . S
H3405 C3410 0.949 . S
H3406 C3412 0.950 . S
H3407 C3413 0.950 . S
H3408 C3414 0.949 . S
C3409 H3404 0.950 . S
C3409 C3411 1.327 . S
C3409 C3415 1.429 . S
C3410 C3402 1.574 . S
C3410 H3405 0.949 . S
C3410 C3416 1.368 . S
C3411 C3395 1.349 . S
C3411 H3403 0.950 . S
C3411 C3409 1.327 . S
C3412 C3400 1.349 . S
C3412 H3406 0.950 . S
C3412 C3413 1.327 . S
C3413 H3407 0.950 . S
C3413 C3412 1.327 . S
C3413 C3417 1.429 . S
C3414 C3397 1.574 . S
C3414 H3408 0.949 . S
C3414 C3418 1.368 . S
C3415 C3396 1.429 . S
C3415 C3409 1.429 . S
C3415 C3416 1.523 . S
C3416 C3397 1.368 . S
C3416 C3410 1.368 . S
C3416 C3415 1.523 . S
C3417 C3401 1.429 . S
C3417 C3413 1.429 . S
C3417 C3418 1.523 . S
C3418 C3402 1.368 . S
C3418 C3414 1.368 . S
C3418 C3417 1.523 . S
H3419 C3394 0.950 . S
H3420 C3396 0.950 . S
H3421 C3397 0.949 . S
H3422 C3399 0.950 . S
H3423 C3401 0.950 . S
C3424 C3425 1.349 . S
C3424 C3426 1.327 . S
C3424 H3449 0.950 . S
C3425 C3424 1.349 . S
C3425 C3441 1.349 . S
C3426 C3424 1.327 . S
C3426 C3445 1.429 . S
C3426 H3450 0.950 . S
C3427 C3444 1.574 . S
C3427 C3446 1.368 . S
C3427 H3451 0.949 . S
H3428 C3432 0.949 . S
C3429 C3430 1.349 . S
C3429 C3431 1.327 . S
C3429 H3452 0.950 . S
C3430 C3429 1.349 . S
C3430 C3442 1.349 . S
C3431 C3429 1.327 . S
C3431 C3447 1.429 . S
C3431 H3453 0.950 . S
C3432 H3428 0.949 . S
C3432 C3440 1.574 . S
C3432 C3448 1.368 . S
H3433 C3441 0.950 . S
H3434 C3439 0.950 . S
H3435 C3440 0.949 . S
H3436 C3442 0.950 . S
H3437 C3443 0.950 . S
H3438 C3444 0.949 . S
C3439 H3434 0.950 . S
C3439 C3441 1.327 . S
C3439 C3445 1.429 . S
C3440 C3432 1.574 . S
C3440 H3435 0.949 . S
C3440 C3446 1.368 . S
C3441 C3425 1.349 . S
C3441 H3433 0.950 . S
C3441 C3439 1.327 . S
C3442 C3430 1.349 . S
C3442 H3436 0.950 . S
C3442 C3443 1.327 . S
C3443 H3437 0.950 . S
C3443 C3442 1.327 . S
C3443 C3447 1.429 . S
C3444 C3427 1.574 . S
C3444 H3438 0.949 . S
C3444 C3448 1.368 . S
C3445 C3426 1.429 . S
C3445 C3439 1.429 . S
C3445 C3446 1.523 . S
C3446 C3427 1.368 . S
C3446 C3440 1.368 . S
C3446 C3445 1.523 . S
C3447 C3431 1.429 . S
C3447 C3443 1.429 . S
C3447 C3448 1.523 . S
C3448 C3432 1.368 . S
C3448 C3444 1.368 . S
C3448 C3447 1.523 . S
H3449 C3424 0.950 . S
H3450 C3426 0.950 . S
H3451 C3427 0.949 . S
H3452 C3429 0.950 . S
H3453 C3431 0.950 . S
C3454 C3455 1.349 . S
C3454 C3456 1.327 . S
C3454 H3479 0.950 . S
C3455 C3454 1.349 . S
C3455 C3471 1.349 . S
C3456 C3454 1.327 . S
C3456 C3475 1.429 . S
C3456 H3480 0.950 . S
C3457 C3474 1.574 . S
C3457 C3476 1.368 . S
C3457 H3481 0.949 . S
H3458 C3462 0.949 . S
C3459 C3460 1.349 . S
C3459 C3461 1.327 . S
C3459 H3482 0.950 . S
C3460 C3459 1.349 . S
C3460 C3472 1.349 . S
C3461 C3459 1.327 . S
C3461 C3477 1.429 . S
C3461 H3483 0.950 . S
C3462 H3458 0.949 . S
C3462 C3470 1.574 . S
C3462 C3478 1.368 . S
H3463 C3471 0.950 . S
H3464 C3469 0.950 . S
H3465 C3470 0.949 . S
H3466 C3472 0.950 . S
H3467 C3473 0.950 . S
H3468 C3474 0.949 . S
C3469 H3464 0.950 . S
C3469 C3471 1.327 . S
C3469 C3475 1.429 . S
C3470 C3462 1.574 . S
C3470 H3465 0.949 . S
C3470 C3476 1.368 . S
C3471 C3455 1.349 . S
C3471 H3463 0.950 . S
C3471 C3469 1.327 . S
C3472 C3460 1.349 . S
C3472 H3466 0.950 . S
C3472 C3473 1.327 . S
C3473 H3467 0.950 . S
C3473 C3472 1.327 . S
C3473 C3477 1.429 . S
C3474 C3457 1.574 . S
C3474 H3468 0.949 . S
C3474 C3478 1.368 . S
C3475 C3456 1.429 . S
C3475 C3469 1.429 . S
C3475 C3476 1.523 . S
C3476 C3457 1.368 . S
C3476 C3470 1.368 . S
C3476 C3475 1.523 . S
C3477 C3461 1.429 . S
C3477 C3473 1.429 . S
C3477 C3478 1.523 . S
C3478 C3462 1.368 . S
C3478 C3474 1.368 . S
C3478 C3477 1.523 . S
H3479 C3454 0.950 . S
H3480 C3456 0.950 . S
H3481 C3457 0.949 . S
H3482 C3459 0.950 . S
H3483 C3461 0.950 . S
C3484 C3485 1.355 . S
C3484 C3486 1.356 . S
C3484 H3509 0.915 1_565 S
C3485 C3484 1.355 . S
C3485 C3501 1.349 . S
C3486 C3484 1.356 . S
C3486 C3505 1.429 . S
C3486 H3510 0.950 . S
C3487 C3504 1.574 . S
C3487 C3506 1.368 . S
C3487 H3511 0.949 . S
H3488 C3492 0.949 . S
C3489 C3490 1.349 . S
C3489 C3491 1.327 . S
C3489 H3512 0.950 . S
C3490 C3489 1.349 . S
C3490 C3502 1.349 . S
C3491 C3489 1.327 . S
C3491 C3507 1.429 . S
C3491 H3513 0.950 . S
C3492 H3488 0.949 . S
C3492 C3500 1.574 . S
C3492 C3508 1.368 . S
H3493 C3501 0.950 . S
H3494 C3499 0.950 . S
H3495 C3500 0.949 . S
H3496 C3502 0.950 . S
H3497 C3503 0.950 . S
H3498 C3504 0.949 . S
C3499 H3494 0.950 . S
C3499 C3501 1.327 . S
C3499 C3505 1.429 . S
C3500 C3492 1.574 . S
C3500 H3495 0.949 . S
C3500 C3506 1.368 . S
C3501 C3485 1.349 . S
C3501 H3493 0.950 . S
C3501 C3499 1.327 . S
C3502 C3490 1.349 . S
C3502 H3496 0.950 . S
C3502 C3503 1.327 . S
C3503 H3497 0.950 . S
C3503 C3502 1.327 . S
C3503 C3507 1.429 . S
C3504 C3487 1.574 . S
C3504 H3498 0.949 . S
C3504 C3508 1.368 . S
C3505 C3486 1.429 . S
C3505 C3499 1.429 . S
C3505 C3506 1.523 . S
C3506 C3487 1.368 . S
C3506 C3500 1.368 . S
C3506 C3505 1.523 . S
C3507 C3491 1.429 . S
C3507 C3503 1.429 . S
C3507 C3508 1.523 . S
C3508 C3492 1.368 . S
C3508 C3504 1.368 . S
C3508 C3507 1.523 . S
H3509 C3484 0.915 1_545 S
H3510 C3486 0.950 . S
H3511 C3487 0.949 . S
H3512 C3489 0.950 . S
H3513 C3491 0.950 . S
C3514 C3515 1.349 1_556 S
C3514 C3516 1.327 . S
C3514 H3539 0.950 . S
C3515 C3514 1.349 1_554 S
C3515 C3531 1.349 . S
C3516 C3514 1.327 . S
C3516 C3535 1.429 1_556 S
C3516 H3540 0.950 . S
C3517 C3534 1.574 . S
C3517 C3536 1.368 . S
C3517 H3541 0.949 . S
H3518 C3522 0.949 1_546 S
C3519 C3520 1.349 . S
C3519 C3521 1.327 1_545 S
C3519 H3542 0.950 1_545 S
C3520 C3519 1.349 . S
C3520 C3532 1.349 . S
C3521 C3519 1.327 1_565 S
C3521 C3537 1.429 . S
C3521 H3543 0.950 . S
C3522 H3518 0.949 1_564 S
C3522 C3530 1.574 1_554 S
C3522 C3538 1.368 . S
H3523 C3531 0.950 . S
H3524 C3529 0.950 . S
H3525 C3530 0.981 . S
H3526 C3532 0.950 . S
H3527 C3533 0.950 1_556 S
H3528 C3534 0.949 . S
C3529 H3524 0.950 . S
C3529 C3531 1.327 . S
C3529 C3535 1.429 . S
C3530 C3522 1.574 1_556 S
C3530 H3525 0.981 . S
C3530 C3536 1.336 1_556 S
C3531 C3515 1.349 . S
C3531 H3523 0.950 . S
C3531 C3529 1.327 . S
C3532 C3520 1.349 . S
C3532 H3526 0.950 . S
C3532 C3533 1.327 . S
C3533 H3527 0.950 1_554 S
C3533 C3532 1.327 . S
C3533 C3537 1.429 1_545 S
C3534 C3517 1.574 . S
C3534 H3528 0.949 . S
C3534 C3538 1.368 . S
C3535 C3516 1.429 1_554 S
C3535 C3529 1.429 . S
C3535 C3536 1.523 . S
C3536 C3517 1.368 . S
C3536 C3530 1.336 1_554 S
C3536 C3535 1.523 . S
C3537 C3521 1.429 . S
C3537 C3533 1.429 1_565 S
C3537 C3538 1.523 . S
C3538 C3522 1.368 . S
C3538 C3534 1.368 . S
C3538 C3537 1.523 . S
H3539 C3514 0.950 . S
H3540 C3516 0.950 . S
H3541 C3517 0.949 . S
H3542 C3519 0.950 1_565 S
H3543 C3521 0.950 . S
C3544 C3545 1.349 . S
C3544 C3546 1.327 . S
C3544 H3569 0.950 . S
C3545 C3544 1.349 . S
C3545 C3561 1.349 . S
C3546 C3544 1.327 . S
C3546 C3565 1.429 . S
C3546 H3570 0.950 . S
C3547 C3564 1.574 . S
C3547 C3566 1.368 . S
C3547 H3571 0.949 . S
H3548 C3552 0.949 . S
C3549 C3550 1.349 . S
C3549 C3551 1.327 . S
C3549 H3572 0.950 . S
C3550 C3549 1.349 . S
C3550 C3562 1.349 . S
C3551 C3549 1.327 . S
C3551 C3567 1.429 . S
C3551 H3573 0.950 . S
C3552 H3548 0.949 . S
C3552 C3560 1.574 . S
C3552 C3568 1.368 . S
H3553 C3561 0.950 . S
H3554 C3559 0.950 . S
H3555 C3560 0.949 . S
H3556 C3562 0.950 . S
H3557 C3563 0.950 . S
H3558 C3564 0.949 . S
C3559 H3554 0.950 . S
C3559 C3561 1.327 . S
C3559 C3565 1.429 . S
C3560 C3552 1.574 . S
C3560 H3555 0.949 . S
C3560 C3566 1.368 . S
C3561 C3545 1.349 . S
C3561 H3553 0.950 . S
C3561 C3559 1.327 . S
C3562 C3550 1.349 . S
C3562 H3556 0.950 . S
C3562 C3563 1.327 . S
C3563 H3557 0.950 . S
C3563 C3562 1.327 . S
C3563 C3567 1.429 . S
C3564 C3547 1.574 . S
C3564 H3558 0.949 . S
C3564 C3568 1.368 . S
C3565 C3546 1.429 . S
C3565 C3559 1.429 . S
C3565 C3566 1.523 . S
C3566 C3547 1.368 . S
C3566 C3560 1.368 . S
C3566 C3565 1.523 . S
C3567 C3551 1.429 . S
C3567 C3563 1.429 . S
C3567 C3568 1.523 . S
C3568 C3552 1.368 . S
C3568 C3564 1.368 . S
C3568 C3567 1.523 . S
H3569 C3544 0.950 . S
H3570 C3546 0.950 . S
H3571 C3547 0.949 . S
H3572 C3549 0.950 . S
H3573 C3551 0.950 . S
C3574 C3575 1.349 . S
C3574 C3576 1.327 . S
C3574 H3599 0.950 . S
C3575 C3574 1.349 . S
C3575 C3591 1.349 . S
C3576 C3574 1.327 . S
C3576 C3595 1.429 . S
C3576 H3600 0.950 . S
C3577 C3594 1.574 . S
C3577 C3596 1.368 . S
C3577 H3601 0.949 . S
H3578 C3582 0.949 . S
C3579 C3580 1.349 . S
C3579 C3581 1.327 . S
C3579 H3602 0.950 . S
C3580 C3579 1.349 . S
C3580 C3592 1.349 . S
C3581 C3579 1.327 . S
C3581 C3597 1.429 . S
C3581 H3603 0.950 . S
C3582 H3578 0.949 . S
C3582 C3590 1.574 . S
C3582 C3598 1.368 . S
H3583 C3591 0.950 . S
H3584 C3589 0.950 . S
H3585 C3590 0.949 . S
H3586 C3592 0.950 . S
H3587 C3593 0.950 . S
H3588 C3594 0.949 . S
C3589 H3584 0.950 . S
C3589 C3591 1.327 . S
C3589 C3595 1.429 . S
C3590 C3582 1.574 . S
C3590 H3585 0.949 . S
C3590 C3596 1.368 . S
C3591 C3575 1.349 . S
C3591 H3583 0.950 . S
C3591 C3589 1.327 . S
C3592 C3580 1.349 . S
C3592 H3586 0.950 . S
C3592 C3593 1.327 . S
C3593 H3587 0.950 . S
C3593 C3592 1.327 . S
C3593 C3597 1.429 . S
C3594 C3577 1.574 . S
C3594 H3588 0.949 . S
C3594 C3598 1.368 . S
C3595 C3576 1.429 . S
C3595 C3589 1.429 . S
C3595 C3596 1.523 . S
C3596 C3577 1.368 . S
C3596 C3590 1.368 . S
C3596 C3595 1.523 . S
C3597 C3581 1.429 . S
C3597 C3593 1.429 . S
C3597 C3598 1.523 . S
C3598 C3582 1.368 . S
C3598 C3594 1.368 . S
C3598 C3597 1.523 . S
H3599 C3574 0.950 . S
H3600 C3576 0.950 . S
H3601 C3577 0.949 . S
H3602 C3579 0.950 . S
H3603 C3581 0.950 . S
C3604 C3605 1.349 . S
C3604 C3606 1.327 . S
C3604 H3629 0.950 . S
C3605 C3604 1.349 . S
C3605 C3621 1.349 . S
C3606 C3604 1.327 . S
C3606 C3625 1.429 . S
C3606 H3630 0.950 . S
C3607 C3624 1.574 . S
C3607 C3626 1.368 . S
C3607 H3631 0.949 . S
H3608 C3612 0.949 . S
C3609 C3610 1.349 . S
C3609 C3611 1.327 . S
C3609 H3632 0.950 . S
C3610 C3609 1.349 . S
C3610 C3622 1.349 . S
C3611 C3609 1.327 . S
C3611 C3627 1.429 . S
C3611 H3633 0.950 . S
C3612 H3608 0.949 . S
C3612 C3620 1.574 . S
C3612 C3628 1.368 . S
H3613 C3621 0.950 . S
H3614 C3619 0.950 . S
H3615 C3620 0.949 . S
H3616 C3622 0.950 . S
H3617 C3623 0.950 . S
H3618 C3624 0.949 . S
C3619 H3614 0.950 . S
C3619 C3621 1.327 . S
C3619 C3625 1.429 . S
C3620 C3612 1.574 . S
C3620 H3615 0.949 . S
C3620 C3626 1.368 . S
C3621 C3605 1.349 . S
C3621 H3613 0.950 . S
C3621 C3619 1.327 . S
C3622 C3610 1.349 . S
C3622 H3616 0.950 . S
C3622 C3623 1.327 . S
C3623 H3617 0.950 . S
C3623 C3622 1.327 . S
C3623 C3627 1.429 . S
C3624 C3607 1.574 . S
C3624 H3618 0.949 . S
C3624 C3628 1.368 . S
C3625 C3606 1.429 . S
C3625 C3619 1.429 . S
C3625 C3626 1.523 . S
C3626 C3607 1.368 . S
C3626 C3620 1.368 . S
C3626 C3625 1.523 . S
C3627 C3611 1.429 . S
C3627 C3623 1.429 . S
C3627 C3628 1.523 . S
C3628 C3612 1.368 . S
C3628 C3624 1.368 . S
C3628 C3627 1.523 . S
H3629 C3604 0.950 . S
H3630 C3606 0.950 . S
H3631 C3607 0.949 . S
H3632 C3609 0.950 . S
H3633 C3611 0.950 . S
C3634 C3635 1.349 . S
C3634 C3636 1.327 . S
C3634 H3659 0.950 . S
C3635 C3634 1.349 . S
C3635 C3651 1.349 . S
C3636 C3634 1.327 . S
C3636 C3655 1.429 . S
C3636 H3660 0.950 . S
C3637 C3654 1.574 . S
C3637 C3656 1.368 . S
C3637 H3661 0.949 . S
H3638 C3642 0.949 . S
C3639 C3640 1.349 . S
C3639 C3641 1.327 . S
C3639 H3662 0.950 . S
C3640 C3639 1.349 . S
C3640 C3652 1.349 . S
C3641 C3639 1.327 . S
C3641 C3657 1.429 . S
C3641 H3663 0.950 . S
C3642 H3638 0.949 . S
C3642 C3650 1.574 . S
C3642 C3658 1.368 . S
H3643 C3651 0.950 . S
H3644 C3649 0.950 . S
H3645 C3650 0.949 . S
H3646 C3652 0.950 . S
H3647 C3653 0.950 . S
H3648 C3654 0.949 . S
C3649 H3644 0.950 . S
C3649 C3651 1.327 . S
C3649 C3655 1.429 . S
C3650 C3642 1.574 . S
C3650 H3645 0.949 . S
C3650 C3656 1.368 . S
C3651 C3635 1.349 . S
C3651 H3643 0.950 . S
C3651 C3649 1.327 . S
C3652 C3640 1.349 . S
C3652 H3646 0.950 . S
C3652 C3653 1.327 . S
C3653 H3647 0.950 . S
C3653 C3652 1.327 . S
C3653 C3657 1.429 . S
C3654 C3637 1.574 . S
C3654 H3648 0.949 . S
C3654 C3658 1.368 . S
C3655 C3636 1.429 . S
C3655 C3649 1.429 . S
C3655 C3656 1.523 . S
C3656 C3637 1.368 . S
C3656 C3650 1.368 . S
C3656 C3655 1.523 . S
C3657 C3641 1.429 . S
C3657 C3653 1.429 . S
C3657 C3658 1.523 . S
C3658 C3642 1.368 . S
C3658 C3654 1.368 . S
C3658 C3657 1.523 . S
H3659 C3634 0.950 . S
H3660 C3636 0.950 . S
H3661 C3637 0.949 . S
H3662 C3639 0.950 . S
H3663 C3641 0.950 . S
C3664 C3665 1.349 . S
C3664 C3666 1.327 . S
C3664 H3689 0.950 . S
C3665 C3664 1.349 . S
C3665 C3681 1.349 . S
C3666 C3664 1.327 . S
C3666 C3685 1.429 . S
C3666 H3690 0.950 . S
C3667 C3684 1.574 . S
C3667 C3686 1.368 . S
C3667 H3691 0.949 . S
H3668 C3672 0.949 . S
C3669 C3670 1.349 . S
C3669 C3671 1.327 . S
C3669 H3692 0.950 . S
C3670 C3669 1.349 . S
C3670 C3682 1.349 . S
C3671 C3669 1.327 . S
C3671 C3687 1.429 . S
C3671 H3693 0.950 . S
C3672 H3668 0.949 . S
C3672 C3680 1.574 . S
C3672 C3688 1.368 . S
H3673 C3681 0.950 . S
H3674 C3679 0.950 . S
H3675 C3680 0.949 . S
H3676 C3682 0.950 . S
H3677 C3683 0.950 . S
H3678 C3684 0.949 . S
C3679 H3674 0.950 . S
C3679 C3681 1.327 . S
C3679 C3685 1.429 . S
C3680 C3672 1.574 . S
C3680 H3675 0.949 . S
C3680 C3686 1.368 . S
C3681 C3665 1.349 . S
C3681 H3673 0.950 . S
C3681 C3679 1.327 . S
C3682 C3670 1.349 . S
C3682 H3676 0.950 . S
C3682 C3683 1.327 . S
C3683 H3677 0.950 . S
C3683 C3682 1.327 . S
C3683 C3687 1.429 . S
C3684 C3667 1.574 . S
C3684 H3678 0.949 . S
C3684 C3688 1.368 . S
C3685 C3666 1.429 . S
C3685 C3679 1.429 . S
C3685 C3686 1.523 . S
C3686 C3667 1.368 . S
C3686 C3680 1.368 . S
C3686 C3685 1.523 . S
C3687 C3671 1.429 . S
C3687 C3683 1.429 . S
C3687 C3688 1.523 . S
C3688 C3672 1.368 . S
C3688 C3684 1.368 . S
C3688 C3687 1.523 . S
H3689 C3664 0.950 . S
H3690 C3666 0.950 . S
H3691 C3667 0.949 . S
H3692 C3669 0.950 . S
H3693 C3671 0.950 . S
C3694 C3695 1.349 . S
C3694 C3696 1.327 . S
C3694 H3719 0.950 . S
C3695 C3694 1.349 . S
C3695 C3711 1.349 . S
C3696 C3694 1.327 . S
C3696 C3715 1.429 . S
C3696 H3720 0.950 . S
C3697 C3714 1.574 . S
C3697 C3716 1.368 . S
C3697 H3721 0.949 . S
H3698 C3702 0.949 . S
C3699 C3700 1.349 . S
C3699 C3701 1.327 . S
C3699 H3722 0.950 . S
C3700 C3699 1.349 . S
C3700 C3712 1.349 . S
C3701 C3699 1.327 . S
C3701 C3717 1.429 . S
C3701 H3723 0.950 . S
C3702 H3698 0.949 . S
C3702 C3710 1.574 . S
C3702 C3718 1.368 . S
H3703 C3711 0.950 . S
H3704 C3709 0.950 . S
H3705 C3710 0.949 . S
H3706 C3712 0.950 . S
H3707 C3713 0.950 . S
H3708 C3714 0.949 . S
C3709 H3704 0.950 . S
C3709 C3711 1.327 . S
C3709 C3715 1.429 . S
C3710 C3702 1.574 . S
C3710 H3705 0.949 . S
C3710 C3716 1.368 . S
C3711 C3695 1.349 . S
C3711 H3703 0.950 . S
C3711 C3709 1.327 . S
C3712 C3700 1.349 . S
C3712 H3706 0.950 . S
C3712 C3713 1.327 . S
C3713 H3707 0.950 . S
C3713 C3712 1.327 . S
C3713 C3717 1.429 . S
C3714 C3697 1.574 . S
C3714 H3708 0.949 . S
C3714 C3718 1.368 . S
C3715 C3696 1.429 . S
C3715 C3709 1.429 . S
C3715 C3716 1.523 . S
C3716 C3697 1.368 . S
C3716 C3710 1.368 . S
C3716 C3715 1.523 . S
C3717 C3701 1.429 . S
C3717 C3713 1.429 . S
C3717 C3718 1.523 . S
C3718 C3702 1.368 . S
C3718 C3714 1.368 . S
C3718 C3717 1.523 . S
H3719 C3694 0.950 . S
H3720 C3696 0.950 . S
H3721 C3697 0.949 . S
H3722 C3699 0.950 . S
H3723 C3701 0.950 . S
C3724 C3725 1.349 . S
C3724 C3726 1.327 . S
C3724 H3749 0.950 . S
C3725 C3724 1.349 . S
C3725 C3741 1.349 . S
C3726 C3724 1.327 . S
C3726 C3745 1.429 . S
C3726 H3750 0.950 . S
C3727 C3744 1.574 . S
C3727 C3746 1.368 . S
C3727 H3751 0.949 . S
H3728 C3732 0.949 . S
C3729 C3730 1.349 . S
C3729 C3731 1.327 . S
C3729 H3752 0.950 . S
C3730 C3729 1.349 . S
C3730 C3742 1.349 . S
C3731 C3729 1.327 . S
C3731 C3747 1.429 . S
C3731 H3753 0.950 . S
C3732 H3728 0.949 . S
C3732 C3740 1.574 . S
C3732 C3748 1.368 . S
H3733 C3741 0.950 . S
H3734 C3739 0.950 . S
H3735 C3740 0.949 . S
H3736 C3742 0.950 . S
H3737 C3743 0.950 . S
H3738 C3744 0.949 . S
C3739 H3734 0.950 . S
C3739 C3741 1.327 . S
C3739 C3745 1.429 . S
C3740 C3732 1.574 . S
C3740 H3735 0.949 . S
C3740 C3746 1.368 . S
C3741 C3725 1.349 . S
C3741 H3733 0.950 . S
C3741 C3739 1.327 . S
C3742 C3730 1.349 . S
C3742 H3736 0.950 . S
C3742 C3743 1.327 . S
C3743 H3737 0.950 . S
C3743 C3742 1.327 . S
C3743 C3747 1.429 . S
C3744 C3727 1.574 . S
C3744 H3738 0.949 . S
C3744 C3748 1.368 . S
C3745 C3726 1.429 . S
C3745 C3739 1.429 . S
C3745 C3746 1.523 . S
C3746 C3727 1.368 . S
C3746 C3740 1.368 . S
C3746 C3745 1.523 . S
C3747 C3731 1.429 . S
C3747 C3743 1.429 . S
C3747 C3748 1.523 . S
C3748 C3732 1.368 . S
C3748 C3744 1.368 . S
C3748 C3747 1.523 . S
H3749 C3724 0.950 . S
H3750 C3726 0.950 . S
H3751 C3727 0.949 . S
H3752 C3729 0.950 . S
H3753 C3731 0.950 . S
C3754 C3755 1.349 . S
C3754 C3756 1.327 . S
C3754 H3779 0.950 . S
C3755 C3754 1.349 . S
C3755 C3771 1.349 . S
C3756 C3754 1.327 . S
C3756 C3775 1.429 . S
C3756 H3780 0.950 . S
C3757 C3774 1.574 . S
C3757 C3776 1.368 . S
C3757 H3781 0.949 . S
H3758 C3762 0.949 . S
C3759 C3760 1.349 . S
C3759 C3761 1.327 . S
C3759 H3782 0.950 . S
C3760 C3759 1.349 . S
C3760 C3772 1.349 . S
C3761 C3759 1.327 . S
C3761 C3777 1.429 . S
C3761 H3783 0.950 . S
C3762 H3758 0.949 . S
C3762 C3770 1.574 . S
C3762 C3778 1.368 . S
H3763 C3771 0.950 . S
H3764 C3769 0.950 . S
H3765 C3770 0.949 . S
H3766 C3772 0.950 . S
H3767 C3773 0.950 . S
H3768 C3774 0.949 . S
C3769 H3764 0.950 . S
C3769 C3771 1.327 . S
C3769 C3775 1.429 . S
C3770 C3762 1.574 . S
C3770 H3765 0.949 . S
C3770 C3776 1.368 . S
C3771 C3755 1.349 . S
C3771 H3763 0.950 . S
C3771 C3769 1.327 . S
C3772 C3760 1.349 . S
C3772 H3766 0.950 . S
C3772 C3773 1.327 . S
C3773 H3767 0.950 . S
C3773 C3772 1.327 . S
C3773 C3777 1.429 . S
C3774 C3757 1.574 . S
C3774 H3768 0.949 . S
C3774 C3778 1.368 . S
C3775 C3756 1.429 . S
C3775 C3769 1.429 . S
C3775 C3776 1.523 . S
C3776 C3757 1.368 . S
C3776 C3770 1.368 . S
C3776 C3775 1.523 . S
C3777 C3761 1.429 . S
C3777 C3773 1.429 . S
C3777 C3778 1.523 . S
C3778 C3762 1.368 . S
C3778 C3774 1.368 . S
C3778 C3777 1.523 . S
H3779 C3754 0.950 . S
H3780 C3756 0.950 . S
H3781 C3757 0.949 . S
H3782 C3759 0.950 . S
H3783 C3761 0.950 . S
C3784 C3785 1.349 . S
C3784 C3786 1.327 . S
C3784 H3809 0.950 . S
C3785 C3784 1.349 . S
C3785 C3801 1.349 . S
C3786 C3784 1.327 . S
C3786 C3805 1.429 . S
C3786 H3810 0.950 . S
C3787 C3804 1.574 . S
C3787 C3806 1.368 . S
C3787 H3811 0.949 . S
H3788 C3792 0.949 . S
C3789 C3790 1.349 . S
C3789 C3791 1.327 . S
C3789 H3812 0.950 1_556 S
C3790 C3789 1.349 . S
C3790 C3802 1.349 . S
C3791 C3789 1.327 . S
C3791 C3807 1.429 . S
C3791 H3813 0.950 . S
C3792 H3788 0.949 . S
C3792 C3800 1.574 . S
C3792 C3808 1.368 . S
H3793 C3801 0.950 . S
H3794 C3799 0.950 . S
H3795 C3800 0.949 . S
H3796 C3802 0.950 . S
H3797 C3803 0.950 . S
H3798 C3804 0.949 . S
C3799 H3794 0.950 . S
C3799 C3801 1.327 . S
C3799 C3805 1.429 . S
C3800 C3792 1.574 . S
C3800 H3795 0.949 . S
C3800 C3806 1.368 . S
C3801 C3785 1.349 . S
C3801 H3793 0.950 . S
C3801 C3799 1.327 . S
C3802 C3790 1.349 . S
C3802 H3796 0.950 . S
C3802 C3803 1.327 . S
C3803 H3797 0.950 . S
C3803 C3802 1.327 . S
C3803 C3807 1.429 . S
C3804 C3787 1.574 . S
C3804 H3798 0.949 . S
C3804 C3808 1.368 . S
C3805 C3786 1.429 . S
C3805 C3799 1.429 . S
C3805 C3806 1.523 . S
C3806 C3787 1.368 . S
C3806 C3800 1.368 . S
C3806 C3805 1.523 . S
C3807 C3791 1.429 . S
C3807 C3803 1.429 . S
C3807 C3808 1.523 . S
C3808 C3792 1.368 . S
C3808 C3804 1.368 . S
C3808 C3807 1.523 . S
H3809 C3784 0.950 . S
H3810 C3786 0.950 . S
H3811 C3787 0.949 . S
H3812 C3789 0.950 1_554 S
H3813 C3791 0.950 . S
C3814 C3815 1.349 . S
C3814 C3816 1.327 . S
C3814 H3839 0.950 . S
C3815 C3814 1.349 . S
C3815 C3831 1.349 . S
C3816 C3814 1.327 . S
C3816 C3835 1.429 . S
C3816 H3840 0.950 . S
C3817 C3834 1.574 . S
C3817 C3836 1.368 . S
C3817 H3841 0.949 . S
H3818 C3822 0.949 . S
C3819 C3820 1.349 . S
C3819 C3821 1.327 . S
C3819 H3842 0.950 . S
C3820 C3819 1.349 . S
C3820 C3832 1.349 . S
C3821 C3819 1.327 . S
C3821 C3837 1.429 . S
C3821 H3843 0.950 . S
C3822 H3818 0.949 . S
C3822 C3830 1.574 . S
C3822 C3838 1.368 . S
H3823 C3831 0.950 . S
H3824 C3829 0.950 . S
H3825 C3830 0.949 . S
H3826 C3832 0.950 . S
H3827 C3833 0.950 . S
H3828 C3834 0.949 . S
C3829 H3824 0.950 . S
C3829 C3831 1.327 . S
C3829 C3835 1.429 . S
C3830 C3822 1.574 . S
C3830 H3825 0.949 . S
C3830 C3836 1.368 . S
C3831 C3815 1.349 . S
C3831 H3823 0.950 . S
C3831 C3829 1.327 . S
C3832 C3820 1.349 . S
C3832 H3826 0.950 . S
C3832 C3833 1.327 . S
C3833 H3827 0.950 . S
C3833 C3832 1.327 . S
C3833 C3837 1.429 . S
C3834 C3817 1.574 . S
C3834 H3828 0.949 . S
C3834 C3838 1.368 . S
C3835 C3816 1.429 . S
C3835 C3829 1.429 . S
C3835 C3836 1.523 . S
C3836 C3817 1.368 . S
C3836 C3830 1.368 . S
C3836 C3835 1.523 . S
C3837 C3821 1.429 . S
C3837 C3833 1.429 . S
C3837 C3838 1.523 . S
C3838 C3822 1.368 . S
C3838 C3834 1.368 . S
C3838 C3837 1.523 . S
H3839 C3814 0.950 . S
H3840 C3816 0.950 . S
H3841 C3817 0.949 . S
H3842 C3819 0.950 . S
H3843 C3821 0.950 . S
C3844 C3845 1.349 . S
C3844 C3846 1.327 . S
C3844 H3869 0.950 . S
C3845 C3844 1.349 . S
C3845 C3861 1.349 . S
C3846 C3844 1.327 . S
C3846 C3865 1.429 . S
C3846 H3870 0.950 . S
C3847 C3864 1.574 . S
C3847 C3866 1.368 . S
C3847 H3871 0.949 . S
H3848 C3852 0.949 . S
C3849 C3850 1.349 . S
C3849 C3851 1.327 . S
C3849 H3872 0.950 . S
C3850 C3849 1.349 . S
C3850 C3862 1.349 . S
C3851 C3849 1.327 . S
C3851 C3867 1.429 . S
C3851 H3873 0.950 . S
C3852 H3848 0.949 . S
C3852 C3860 1.574 . S
C3852 C3868 1.368 . S
H3853 C3861 0.950 . S
H3854 C3859 0.950 . S
H3855 C3860 0.949 . S
H3856 C3862 0.950 . S
H3857 C3863 0.950 . S
H3858 C3864 0.949 . S
C3859 H3854 0.950 . S
C3859 C3861 1.327 . S
C3859 C3865 1.429 . S
C3860 C3852 1.574 . S
C3860 H3855 0.949 . S
C3860 C3866 1.368 . S
C3861 C3845 1.349 . S
C3861 H3853 0.950 . S
C3861 C3859 1.327 . S
C3862 C3850 1.349 . S
C3862 H3856 0.950 . S
C3862 C3863 1.327 . S
C3863 H3857 0.950 . S
C3863 C3862 1.327 . S
C3863 C3867 1.429 . S
C3864 C3847 1.574 . S
C3864 H3858 0.949 . S
C3864 C3868 1.368 . S
C3865 C3846 1.429 . S
C3865 C3859 1.429 . S
C3865 C3866 1.523 . S
C3866 C3847 1.368 . S
C3866 C3860 1.368 . S
C3866 C3865 1.523 . S
C3867 C3851 1.429 . S
C3867 C3863 1.429 . S
C3867 C3868 1.523 . S
C3868 C3852 1.368 . S
C3868 C3864 1.368 . S
C3868 C3867 1.523 . S
H3869 C3844 0.950 . S
H3870 C3846 0.950 . S
H3871 C3847 0.949 . S
H3872 C3849 0.950 . S
H3873 C3851 0.950 . S
C3874 C3875 1.349 . S
C3874 C3876 1.327 . S
C3874 H3899 0.950 . S
C3875 C3874 1.349 . S
C3875 C3891 1.349 . S
C3876 C3874 1.327 . S
C3876 C3895 1.429 . S
C3876 H3900 0.950 . S
C3877 C3894 1.574 . S
C3877 C3896 1.368 . S
C3877 H3901 0.949 . S
H3878 C3882 0.949 . S
C3879 C3880 1.349 . S
C3879 C3881 1.327 . S
C3879 H3902 0.950 . S
C3880 C3879 1.349 . S
C3880 C3892 1.349 . S
C3881 C3879 1.327 . S
C3881 C3897 1.429 . S
C3881 H3903 0.950 . S
C3882 H3878 0.949 . S
C3882 C3890 1.574 . S
C3882 C3898 1.368 . S
H3883 C3891 0.950 . S
H3884 C3889 0.950 . S
H3885 C3890 0.949 . S
H3886 C3892 0.950 . S
H3887 C3893 0.950 . S
H3888 C3894 0.949 . S
C3889 H3884 0.950 . S
C3889 C3891 1.327 . S
C3889 C3895 1.429 . S
C3890 C3882 1.574 . S
C3890 H3885 0.949 . S
C3890 C3896 1.368 . S
C3891 C3875 1.349 . S
C3891 H3883 0.950 . S
C3891 C3889 1.327 . S
C3892 C3880 1.349 . S
C3892 H3886 0.950 . S
C3892 C3893 1.327 . S
C3893 H3887 0.950 . S
C3893 C3892 1.327 . S
C3893 C3897 1.429 . S
C3894 C3877 1.574 . S
C3894 H3888 0.949 . S
C3894 C3898 1.368 . S
C3895 C3876 1.429 . S
C3895 C3889 1.429 . S
C3895 C3896 1.523 . S
C3896 C3877 1.368 . S
C3896 C3890 1.368 . S
C3896 C3895 1.523 . S
C3897 C3881 1.429 . S
C3897 C3893 1.429 . S
C3897 C3898 1.523 . S
C3898 C3882 1.368 . S
C3898 C3894 1.368 . S
C3898 C3897 1.523 . S
H3899 C3874 0.950 . S
H3900 C3876 0.950 . S
H3901 C3877 0.949 . S
H3902 C3879 0.950 . S
H3903 C3881 0.950 . S
C3904 C3905 1.349 . S
C3904 C3906 1.327 . S
C3904 H3929 0.950 . S
C3905 C3904 1.349 . S
C3905 C3921 1.349 . S
C3906 C3904 1.327 . S
C3906 C3925 1.429 . S
C3906 H3930 0.950 . S
C3907 C3924 1.574 . S
C3907 C3926 1.368 . S
C3907 H3931 0.949 . S
H3908 C3912 0.949 . S
C3909 C3910 1.349 . S
C3909 C3911 1.327 . S
C3909 H3932 0.950 . S
C3910 C3909 1.349 . S
C3910 C3922 1.349 . S
C3911 C3909 1.327 . S
C3911 C3927 1.429 . S
C3911 H3933 0.950 . S
C3912 H3908 0.949 . S
C3912 C3920 1.574 . S
C3912 C3928 1.368 . S
H3913 C3921 0.950 . S
H3914 C3919 0.950 . S
H3915 C3920 0.949 . S
H3916 C3922 0.950 . S
H3917 C3923 0.950 . S
H3918 C3924 0.949 . S
C3919 H3914 0.950 . S
C3919 C3921 1.327 . S
C3919 C3925 1.429 . S
C3920 C3912 1.574 . S
C3920 H3915 0.949 . S
C3920 C3926 1.368 . S
C3921 C3905 1.349 . S
C3921 H3913 0.950 . S
C3921 C3919 1.327 . S
C3922 C3910 1.349 . S
C3922 H3916 0.950 . S
C3922 C3923 1.327 . S
C3923 H3917 0.950 . S
C3923 C3922 1.327 . S
C3923 C3927 1.429 . S
C3924 C3907 1.574 . S
C3924 H3918 0.949 . S
C3924 C3928 1.368 . S
C3925 C3906 1.429 . S
C3925 C3919 1.429 . S
C3925 C3926 1.523 . S
C3926 C3907 1.368 . S
C3926 C3920 1.368 . S
C3926 C3925 1.523 . S
C3927 C3911 1.429 . S
C3927 C3923 1.429 . S
C3927 C3928 1.523 . S
C3928 C3912 1.368 . S
C3928 C3924 1.368 . S
C3928 C3927 1.523 . S
H3929 C3904 0.950 . S
H3930 C3906 0.950 . S
H3931 C3907 0.949 . S
H3932 C3909 0.950 . S
H3933 C3911 0.950 . S
C3934 C3935 1.349 . S
C3934 C3936 1.327 . S
C3934 H3959 0.950 . S
C3935 C3934 1.349 . S
C3935 C3951 1.349 . S
C3936 C3934 1.327 . S
C3936 C3955 1.429 . S
C3936 H3960 0.950 . S
C3937 C3954 1.574 . S
C3937 C3956 1.368 . S
C3937 H3961 0.949 . S
H3938 C3942 0.949 . S
C3939 C3940 1.349 . S
C3939 C3941 1.327 . S
C3939 H3962 0.950 . S
C3940 C3939 1.349 . S
C3940 C3952 1.349 . S
C3941 C3939 1.327 . S
C3941 C3957 1.429 . S
C3941 H3963 0.950 . S
C3942 H3938 0.949 . S
C3942 C3950 1.574 . S
C3942 C3958 1.368 . S
H3943 C3951 0.950 . S
H3944 C3949 0.950 . S
H3945 C3950 0.949 . S
H3946 C3952 0.950 . S
H3947 C3953 0.950 . S
H3948 C3954 0.949 . S
C3949 H3944 0.950 . S
C3949 C3951 1.327 . S
C3949 C3955 1.429 . S
C3950 C3942 1.574 . S
C3950 H3945 0.949 . S
C3950 C3956 1.368 . S
C3951 C3935 1.349 . S
C3951 H3943 0.950 . S
C3951 C3949 1.327 . S
C3952 C3940 1.349 . S
C3952 H3946 0.950 . S
C3952 C3953 1.327 . S
C3953 H3947 0.950 . S
C3953 C3952 1.327 . S
C3953 C3957 1.429 . S
C3954 C3937 1.574 . S
C3954 H3948 0.949 . S
C3954 C3958 1.368 . S
C3955 C3936 1.429 . S
C3955 C3949 1.429 . S
C3955 C3956 1.523 . S
C3956 C3937 1.368 . S
C3956 C3950 1.368 . S
C3956 C3955 1.523 . S
C3957 C3941 1.429 . S
C3957 C3953 1.429 . S
C3957 C3958 1.523 . S
C3958 C3942 1.368 . S
C3958 C3954 1.368 . S
C3958 C3957 1.523 . S
H3959 C3934 0.950 . S
H3960 C3936 0.950 . S
H3961 C3937 0.949 . S
H3962 C3939 0.950 . S
H3963 C3941 0.950 . S
C3964 C3965 1.349 . S
C3964 C3966 1.327 . S
C3964 H3989 0.950 . S
C3965 C3964 1.349 . S
C3965 C3981 1.349 . S
C3966 C3964 1.327 . S
C3966 C3985 1.429 . S
C3966 H3990 0.950 . S
C3967 C3984 1.574 . S
C3967 C3986 1.368 . S
C3967 H3991 0.949 . S
H3968 C3972 0.949 1_455 S
C3969 C3970 1.349 . S
C3969 C3971 1.327 . S
C3969 H3992 0.950 . S
C3970 C3969 1.349 . S
C3970 C3982 1.349 . S
C3971 C3969 1.327 . S
C3971 C3987 1.429 . S
C3971 H3993 0.950 1_455 S
C3972 H3968 0.949 1_655 S
C3972 C3980 1.574 . S
C3972 C3988 1.368 . S
H3973 C3981 0.950 . S
H3974 C3979 0.950 . S
H3975 C3980 0.949 . S
H3976 C3982 0.950 . S
H3977 C3983 0.950 . S
H3978 C3984 0.949 . S
C3979 H3974 0.950 . S
C3979 C3981 1.327 . S
C3979 C3985 1.429 . S
C3980 C3972 1.574 . S
C3980 H3975 0.949 . S
C3980 C3986 1.368 . S
C3981 C3965 1.349 . S
C3981 H3973 0.950 . S
C3981 C3979 1.327 . S
C3982 C3970 1.349 . S
C3982 H3976 0.950 . S
C3982 C3983 1.327 . S
C3983 H3977 0.950 . S
C3983 C3982 1.327 . S
C3983 C3987 1.429 . S
C3984 C3967 1.574 . S
C3984 H3978 0.949 . S
C3984 C3988 1.368 . S
C3985 C3966 1.429 . S
C3985 C3979 1.429 . S
C3985 C3986 1.523 . S
C3986 C3967 1.368 . S
C3986 C3980 1.368 . S
C3986 C3985 1.523 . S
C3987 C3971 1.429 . S
C3987 C3983 1.429 . S
C3987 C3988 1.523 1_455 S
C3988 C3972 1.368 . S
C3988 C3984 1.368 . S
C3988 C3987 1.523 1_655 S
H3989 C3964 0.950 . S
H3990 C3966 0.950 . S
H3991 C3967 0.949 . S
H3992 C3969 0.950 . S
H3993 C3971 0.950 1_655 S
C3994 C3995 1.349 . S
C3994 C3996 1.327 . S
C3994 H4019 0.950 . S
C3995 C3994 1.349 . S
C3995 C4011 1.349 . S
C3996 C3994 1.327 . S
C3996 C4015 1.429 . S
C3996 H4020 0.950 . S
C3997 C4014 1.574 . S
C3997 C4016 1.368 . S
C3997 H4021 0.949 . S
H3998 C4002 0.949 . S
C3999 C4000 1.349 . S
C3999 C4001 1.327 . S
C3999 H4022 0.950 . S
C4000 C3999 1.349 . S
C4000 C4012 1.349 . S
C4001 C3999 1.327 . S
C4001 C4017 1.429 . S
C4001 H4023 0.950 . S
C4002 H3998 0.949 . S
C4002 C4010 1.574 . S
C4002 C4018 1.368 . S
H4003 C4011 0.950 . S
H4004 C4009 0.950 . S
H4005 C4010 0.949 . S
H4006 C4012 0.950 . S
H4007 C4013 0.950 . S
H4008 C4014 0.949 . S
C4009 H4004 0.950 . S
C4009 C4011 1.327 . S
C4009 C4015 1.429 . S
C4010 C4002 1.574 . S
C4010 H4005 0.949 . S
C4010 C4016 1.368 . S
C4011 C3995 1.349 . S
C4011 H4003 0.950 . S
C4011 C4009 1.327 . S
C4012 C4000 1.349 . S
C4012 H4006 0.950 . S
C4012 C4013 1.327 . S
C4013 H4007 0.950 . S
C4013 C4012 1.327 . S
C4013 C4017 1.429 . S
C4014 C3997 1.574 . S
C4014 H4008 0.949 . S
C4014 C4018 1.368 . S
C4015 C3996 1.429 . S
C4015 C4009 1.429 . S
C4015 C4016 1.523 . S
C4016 C3997 1.368 . S
C4016 C4010 1.368 . S
C4016 C4015 1.523 . S
C4017 C4001 1.429 . S
C4017 C4013 1.429 . S
C4017 C4018 1.523 . S
C4018 C4002 1.368 . S
C4018 C4014 1.368 . S
C4018 C4017 1.523 . S
H4019 C3994 0.950 . S
H4020 C3996 0.950 . S
H4021 C3997 0.949 . S
H4022 C3999 0.950 . S
H4023 C4001 0.950 . S
C4024 C4025 1.349 . S
C4024 C4026 1.327 . S
C4024 H4049 0.950 . S
C4025 C4024 1.349 . S
C4025 C4041 1.349 . S
C4026 C4024 1.327 . S
C4026 C4045 1.429 . S
C4026 H4050 0.950 . S
C4027 C4044 1.574 . S
C4027 C4046 1.368 . S
C4027 H4051 0.949 . S
H4028 C4032 0.949 . S
C4029 C4030 1.349 . S
C4029 C4031 1.327 . S
C4029 H4052 0.950 . S
C4030 C4029 1.349 . S
C4030 C4042 1.349 . S
C4031 C4029 1.327 . S
C4031 C4047 1.429 . S
C4031 H4053 0.950 . S
C4032 H4028 0.949 . S
C4032 C4040 1.574 . S
C4032 C4048 1.368 . S
H4033 C4041 0.950 . S
H4034 C4039 0.950 . S
H4035 C4040 0.949 . S
H4036 C4042 0.950 . S
H4037 C4043 0.950 . S
H4038 C4044 0.949 . S
C4039 H4034 0.950 . S
C4039 C4041 1.327 . S
C4039 C4045 1.429 . S
C4040 C4032 1.574 . S
C4040 H4035 0.949 . S
C4040 C4046 1.368 . S
C4041 C4025 1.349 . S
C4041 H4033 0.950 . S
C4041 C4039 1.327 . S
C4042 C4030 1.349 . S
C4042 H4036 0.950 . S
C4042 C4043 1.327 . S
C4043 H4037 0.950 . S
C4043 C4042 1.327 . S
C4043 C4047 1.429 . S
C4044 C4027 1.574 . S
C4044 H4038 0.949 . S
C4044 C4048 1.368 . S
C4045 C4026 1.429 . S
C4045 C4039 1.429 . S
C4045 C4046 1.523 . S
C4046 C4027 1.368 . S
C4046 C4040 1.368 . S
C4046 C4045 1.523 . S
C4047 C4031 1.429 . S
C4047 C4043 1.429 . S
C4047 C4048 1.523 . S
C4048 C4032 1.368 . S
C4048 C4044 1.368 . S
C4048 C4047 1.523 . S
H4049 C4024 0.950 . S
H4050 C4026 0.950 . S
H4051 C4027 0.949 . S
H4052 C4029 0.950 . S
H4053 C4031 0.950 . S
C4054 C4055 1.349 . S
C4054 C4056 1.327 . S
C4054 H4079 0.950 . S
C4055 C4054 1.349 . S
C4055 C4071 1.349 . S
C4056 C4054 1.327 . S
C4056 C4075 1.429 . S
C4056 H4080 0.950 . S
C4057 C4074 1.574 . S
C4057 C4076 1.368 . S
C4057 H4081 0.949 . S
H4058 C4062 0.949 . S
C4059 C4060 1.349 . S
C4059 C4061 1.327 . S
C4059 H4082 0.950 . S
C4060 C4059 1.349 . S
C4060 C4072 1.349 . S
C4061 C4059 1.327 . S
C4061 C4077 1.429 . S
C4061 H4083 0.950 . S
C4062 H4058 0.949 . S
C4062 C4070 1.574 . S
C4062 C4078 1.368 . S
H4063 C4071 0.950 . S
H4064 C4069 0.950 . S
H4065 C4070 0.949 . S
H4066 C4072 0.950 . S
H4067 C4073 0.950 . S
H4068 C4074 0.949 . S
C4069 H4064 0.950 . S
C4069 C4071 1.327 . S
C4069 C4075 1.429 . S
C4070 C4062 1.574 . S
C4070 H4065 0.949 . S
C4070 C4076 1.368 . S
C4071 C4055 1.349 . S
C4071 H4063 0.950 . S
C4071 C4069 1.327 . S
C4072 C4060 1.349 . S
C4072 H4066 0.950 . S
C4072 C4073 1.327 . S
C4073 H4067 0.950 . S
C4073 C4072 1.327 . S
C4073 C4077 1.429 . S
C4074 C4057 1.574 . S
C4074 H4068 0.949 . S
C4074 C4078 1.368 . S
C4075 C4056 1.429 . S
C4075 C4069 1.429 . S
C4075 C4076 1.523 . S
C4076 C4057 1.368 . S
C4076 C4070 1.368 . S
C4076 C4075 1.523 . S
C4077 C4061 1.429 . S
C4077 C4073 1.429 . S
C4077 C4078 1.523 . S
C4078 C4062 1.368 . S
C4078 C4074 1.368 . S
C4078 C4077 1.523 . S
H4079 C4054 0.950 . S
H4080 C4056 0.950 . S
H4081 C4057 0.949 . S
H4082 C4059 0.950 . S
H4083 C4061 0.950 . S
C4084 C4085 1.349 . S
C4084 C4086 1.327 . S
C4084 H4109 0.950 . S
C4085 C4084 1.349 . S
C4085 C4101 1.349 . S
C4086 C4084 1.327 . S
C4086 C4105 1.429 . S
C4086 H4110 0.950 . S
C4087 C4104 1.574 . S
C4087 C4106 1.368 . S
C4087 H4111 0.949 . S
H4088 C4092 0.949 . S
C4089 C4090 1.349 . S
C4089 C4091 1.327 . S
C4089 H4112 0.950 . S
C4090 C4089 1.349 . S
C4090 C4102 1.349 1_455 S
C4091 C4089 1.327 . S
C4091 C4107 1.429 1_455 S
C4091 H4113 0.950 . S
C4092 H4088 0.949 . S
C4092 C4100 1.574 . S
C4092 C4108 1.368 . S
H4093 C4101 0.950 . S
H4094 C4099 0.950 . S
H4095 C4100 0.949 . S
H4096 C4102 0.950 . S
H4097 C4103 0.950 . S
H4098 C4104 0.949 1_455 S
C4099 H4094 0.950 . S
C4099 C4101 1.327 . S
C4099 C4105 1.429 . S
C4100 C4092 1.574 . S
C4100 H4095 0.949 . S
C4100 C4106 1.368 . S
C4101 C4085 1.349 . S
C4101 H4093 0.950 . S
C4101 C4099 1.327 . S
C4102 C4090 1.349 1_655 S
C4102 H4096 0.950 . S
C4102 C4103 1.327 . S
C4103 H4097 0.950 . S
C4103 C4102 1.327 . S
C4103 C4107 1.429 . S
C4104 C4087 1.574 . S
C4104 H4098 0.949 1_655 S
C4104 C4108 1.368 . S
C4105 C4086 1.429 . S
C4105 C4099 1.429 . S
C4105 C4106 1.523 . S
C4106 C4087 1.368 . S
C4106 C4100 1.368 . S
C4106 C4105 1.523 . S
C4107 C4091 1.429 1_655 S
C4107 C4103 1.429 . S
C4107 C4108 1.523 . S
C4108 C4092 1.368 . S
C4108 C4104 1.368 . S
C4108 C4107 1.523 . S
H4109 C4084 0.950 . S
H4110 C4086 0.950 . S
H4111 C4087 0.949 . S
H4112 C4089 0.950 . S
H4113 C4091 0.950 . S
C4114 C4115 1.349 . S
C4114 C4116 1.327 . S
C4114 H4139 0.950 . S
C4115 C4114 1.349 . S
C4115 C4131 1.349 . S
C4116 C4114 1.327 . S
C4116 C4135 1.429 . S
C4116 H4140 0.950 . S
C4117 C4134 1.574 . S
C4117 C4136 1.368 . S
C4117 H4141 0.949 . S
H4118 C4122 0.949 . S
C4119 C4120 1.349 . S
C4119 C4121 1.327 . S
C4119 H4142 0.950 . S
C4120 C4119 1.349 . S
C4120 C4132 1.349 . S
C4121 C4119 1.327 . S
C4121 C4137 1.429 . S
C4121 H4143 0.950 . S
C4122 H4118 0.949 . S
C4122 C4130 1.574 . S
C4122 C4138 1.368 . S
H4123 C4131 0.950 . S
H4124 C4129 0.950 . S
H4125 C4130 0.949 . S
H4126 C4132 0.950 . S
H4127 C4133 0.950 . S
H4128 C4134 0.949 . S
C4129 H4124 0.950 . S
C4129 C4131 1.327 . S
C4129 C4135 1.429 . S
C4130 C4122 1.574 . S
C4130 H4125 0.949 . S
C4130 C4136 1.368 . S
C4131 C4115 1.349 . S
C4131 H4123 0.950 . S
C4131 C4129 1.327 . S
C4132 C4120 1.349 . S
C4132 H4126 0.950 . S
C4132 C4133 1.327 . S
C4133 H4127 0.950 . S
C4133 C4132 1.327 . S
C4133 C4137 1.429 . S
C4134 C4117 1.574 . S
C4134 H4128 0.949 . S
C4134 C4138 1.368 . S
C4135 C4116 1.429 . S
C4135 C4129 1.429 . S
C4135 C4136 1.523 . S
C4136 C4117 1.368 . S
C4136 C4130 1.368 . S
C4136 C4135 1.523 . S
C4137 C4121 1.429 . S
C4137 C4133 1.429 . S
C4137 C4138 1.523 . S
C4138 C4122 1.368 . S
C4138 C4134 1.368 . S
C4138 C4137 1.523 . S
H4139 C4114 0.950 . S
H4140 C4116 0.950 . S
H4141 C4117 0.949 . S
H4142 C4119 0.950 . S
H4143 C4121 0.950 . S
C4144 C4145 1.349 . S
C4144 C4146 1.327 . S
C4144 H4169 0.950 . S
C4145 C4144 1.349 . S
C4145 C4161 1.349 . S
C4146 C4144 1.327 . S
C4146 C4165 1.429 . S
C4146 H4170 0.950 . S
C4147 C4164 1.574 . S
C4147 C4166 1.368 . S
C4147 H4171 0.949 . S
H4148 C4152 0.949 . S
C4149 C4150 1.349 . S
C4149 C4151 1.327 . S
C4149 H4172 0.950 . S
C4150 C4149 1.349 . S
C4150 C4162 1.349 . S
C4151 C4149 1.327 . S
C4151 C4167 1.429 . S
C4151 H4173 0.950 . S
C4152 H4148 0.949 . S
C4152 C4160 1.574 . S
C4152 C4168 1.368 . S
H4153 C4161 0.950 . S
H4154 C4159 0.950 . S
H4155 C4160 0.949 . S
H4156 C4162 0.950 . S
H4157 C4163 0.950 . S
H4158 C4164 0.949 . S
C4159 H4154 0.950 . S
C4159 C4161 1.327 . S
C4159 C4165 1.429 . S
C4160 C4152 1.574 . S
C4160 H4155 0.949 . S
C4160 C4166 1.368 . S
C4161 C4145 1.349 . S
C4161 H4153 0.950 . S
C4161 C4159 1.327 . S
C4162 C4150 1.349 . S
C4162 H4156 0.950 . S
C4162 C4163 1.327 . S
C4163 H4157 0.950 . S
C4163 C4162 1.327 . S
C4163 C4167 1.429 . S
C4164 C4147 1.574 . S
C4164 H4158 0.949 . S
C4164 C4168 1.368 . S
C4165 C4146 1.429 . S
C4165 C4159 1.429 . S
C4165 C4166 1.523 . S
C4166 C4147 1.368 . S
C4166 C4160 1.368 . S
C4166 C4165 1.523 . S
C4167 C4151 1.429 . S
C4167 C4163 1.429 . S
C4167 C4168 1.523 . S
C4168 C4152 1.368 . S
C4168 C4164 1.368 . S
C4168 C4167 1.523 . S
H4169 C4144 0.950 . S
H4170 C4146 0.950 . S
H4171 C4147 0.949 . S
H4172 C4149 0.950 . S
H4173 C4151 0.950 . S
C4174 C4175 1.349 . S
C4174 C4176 1.327 . S
C4174 H4199 0.950 . S
C4175 C4174 1.349 . S
C4175 C4191 1.349 . S
C4176 C4174 1.327 . S
C4176 C4195 1.429 . S
C4176 H4200 0.950 . S
C4177 C4194 1.574 . S
C4177 C4196 1.368 . S
C4177 H4201 0.949 . S
H4178 C4182 0.949 . S
C4179 C4180 1.380 . S
C4179 C4181 1.327 . S
C4179 H4202 0.950 . S
C4180 C4179 1.380 . S
C4180 C4192 1.338 . S
C4181 C4179 1.327 . S
C4181 C4197 1.429 . S
C4181 H4203 0.950 . S
C4182 H4178 0.949 . S
C4182 C4190 1.574 . S
C4182 C4198 1.368 . S
H4183 C4191 0.950 . S
H4184 C4189 0.950 . S
H4185 C4190 0.949 . S
H4186 C4192 0.950 1_545 S
H4187 C4193 0.950 . S
H4188 C4194 0.949 . S
C4189 H4184 0.950 . S
C4189 C4191 1.327 . S
C4189 C4195 1.429 . S
C4190 C4182 1.574 . S
C4190 H4185 0.949 . S
C4190 C4196 1.368 . S
C4191 C4175 1.349 . S
C4191 H4183 0.950 . S
C4191 C4189 1.327 . S
C4192 C4180 1.338 . S
C4192 H4186 0.950 1_565 S
C4192 C4193 1.327 . S
C4193 H4187 0.950 . S
C4193 C4192 1.327 . S
C4193 C4197 1.429 . S
C4194 C4177 1.574 . S
C4194 H4188 0.949 . S
C4194 C4198 1.368 . S
C4195 C4176 1.429 . S
C4195 C4189 1.429 . S
C4195 C4196 1.523 . S
C4196 C4177 1.368 . S
C4196 C4190 1.368 . S
C4196 C4195 1.523 . S
C4197 C4181 1.429 . S
C4197 C4193 1.429 . S
C4197 C4198 1.523 . S
C4198 C4182 1.368 . S
C4198 C4194 1.368 . S
C4198 C4197 1.523 . S
H4199 C4174 0.950 . S
H4200 C4176 0.950 . S
H4201 C4177 0.949 . S
H4202 C4179 0.950 . S
H4203 C4181 0.950 . S
C4204 C4205 1.349 . S
C4204 C4206 1.327 . S
C4204 H4229 0.950 . S
C4205 C4204 1.349 . S
C4205 C4221 1.349 . S
C4206 C4204 1.327 . S
C4206 C4225 1.429 . S
C4206 H4230 0.950 . S
C4207 C4224 1.574 . S
C4207 C4226 1.368 . S
C4207 H4231 0.949 . S
H4208 C4212 0.949 . S
C4209 C4210 1.349 . S
C4209 C4211 1.327 . S
C4209 H4232 0.950 . S
C4210 C4209 1.349 . S
C4210 C4222 1.349 . S
C4211 C4209 1.327 . S
C4211 C4227 1.429 . S
C4211 H4233 0.950 . S
C4212 H4208 0.949 . S
C4212 C4220 1.574 . S
C4212 C4228 1.368 . S
H4213 C4221 0.950 . S
H4214 C4219 0.950 . S
H4215 C4220 0.949 . S
H4216 C4222 0.950 . S
H4217 C4223 0.950 . S
H4218 C4224 0.949 . S
C4219 H4214 0.950 . S
C4219 C4221 1.327 . S
C4219 C4225 1.429 . S
C4220 C4212 1.574 . S
C4220 H4215 0.949 . S
C4220 C4226 1.368 . S
C4221 C4205 1.349 . S
C4221 H4213 0.950 . S
C4221 C4219 1.327 . S
C4222 C4210 1.349 . S
C4222 H4216 0.950 . S
C4222 C4223 1.327 . S
C4223 H4217 0.950 . S
C4223 C4222 1.327 . S
C4223 C4227 1.429 . S
C4224 C4207 1.574 . S
C4224 H4218 0.949 . S
C4224 C4228 1.368 . S
C4225 C4206 1.429 . S
C4225 C4219 1.429 . S
C4225 C4226 1.523 . S
C4226 C4207 1.368 . S
C4226 C4220 1.368 . S
C4226 C4225 1.523 . S
C4227 C4211 1.429 . S
C4227 C4223 1.429 . S
C4227 C4228 1.523 . S
C4228 C4212 1.368 . S
C4228 C4224 1.368 . S
C4228 C4227 1.523 . S
H4229 C4204 0.950 . S
H4230 C4206 0.950 . S
H4231 C4207 0.949 . S
H4232 C4209 0.950 . S
H4233 C4211 0.950 . S
C4234 C4235 1.349 . S
C4234 C4236 1.327 . S
C4234 H4259 0.950 . S
C4235 C4234 1.349 . S
C4235 C4251 1.349 . S
C4236 C4234 1.327 . S
C4236 C4255 1.429 . S
C4236 H4260 0.950 . S
C4237 C4254 1.574 . S
C4237 C4256 1.368 . S
C4237 H4261 0.949 . S
H4238 C4242 0.949 . S
C4239 C4240 1.349 . S
C4239 C4241 1.327 . S
C4239 H4262 0.950 . S
C4240 C4239 1.349 . S
C4240 C4252 1.349 . S
C4241 C4239 1.327 . S
C4241 C4257 1.429 . S
C4241 H4263 0.950 . S
C4242 H4238 0.949 . S
C4242 C4250 1.574 . S
C4242 C4258 1.368 . S
H4243 C4251 0.950 . S
H4244 C4249 0.950 . S
H4245 C4250 0.949 . S
H4246 C4252 0.950 . S
H4247 C4253 0.950 . S
H4248 C4254 0.949 . S
C4249 H4244 0.950 . S
C4249 C4251 1.327 . S
C4249 C4255 1.429 . S
C4250 C4242 1.574 . S
C4250 H4245 0.949 . S
C4250 C4256 1.368 . S
C4251 C4235 1.349 . S
C4251 H4243 0.950 . S
C4251 C4249 1.327 . S
C4252 C4240 1.349 . S
C4252 H4246 0.950 . S
C4252 C4253 1.327 . S
C4253 H4247 0.950 . S
C4253 C4252 1.327 . S
C4253 C4257 1.429 . S
C4254 C4237 1.574 . S
C4254 H4248 0.949 . S
C4254 C4258 1.368 . S
C4255 C4236 1.429 . S
C4255 C4249 1.429 . S
C4255 C4256 1.523 . S
C4256 C4237 1.368 . S
C4256 C4250 1.368 . S
C4256 C4255 1.523 . S
C4257 C4241 1.429 . S
C4257 C4253 1.429 . S
C4257 C4258 1.523 . S
C4258 C4242 1.368 . S
C4258 C4254 1.368 . S
C4258 C4257 1.523 . S
H4259 C4234 0.950 . S
H4260 C4236 0.950 . S
H4261 C4237 0.949 . S
H4262 C4239 0.950 . S
H4263 C4241 0.950 . S
C4264 C4265 1.349 . S
C4264 C4266 1.327 . S
C4264 H4289 0.950 . S
C4265 C4264 1.349 . S
C4265 C4281 1.349 . S
C4266 C4264 1.327 . S
C4266 C4285 1.429 . S
C4266 H4290 0.950 . S
C4267 C4284 1.574 . S
C4267 C4286 1.368 . S
C4267 H4291 0.949 . S
H4268 C4272 0.949 . S
C4269 C4270 1.349 . S
C4269 C4271 1.327 . S
C4269 H4292 0.950 . S
C4270 C4269 1.349 . S
C4270 C4282 1.349 . S
C4271 C4269 1.327 . S
C4271 C4287 1.429 . S
C4271 H4293 0.950 . S
C4272 H4268 0.949 . S
C4272 C4280 1.574 . S
C4272 C4288 1.368 . S
H4273 C4281 0.950 . S
H4274 C4279 0.950 . S
H4275 C4280 0.949 . S
H4276 C4282 0.950 . S
H4277 C4283 0.950 . S
H4278 C4284 0.949 . S
C4279 H4274 0.950 . S
C4279 C4281 1.327 . S
C4279 C4285 1.429 . S
C4280 C4272 1.574 . S
C4280 H4275 0.949 . S
C4280 C4286 1.368 . S
C4281 C4265 1.349 . S
C4281 H4273 0.950 . S
C4281 C4279 1.327 . S
C4282 C4270 1.349 . S
C4282 H4276 0.950 . S
C4282 C4283 1.327 . S
C4283 H4277 0.950 . S
C4283 C4282 1.327 . S
C4283 C4287 1.429 . S
C4284 C4267 1.574 . S
C4284 H4278 0.949 . S
C4284 C4288 1.368 . S
C4285 C4266 1.429 . S
C4285 C4279 1.429 . S
C4285 C4286 1.523 . S
C4286 C4267 1.368 . S
C4286 C4280 1.368 . S
C4286 C4285 1.523 . S
C4287 C4271 1.429 . S
C4287 C4283 1.429 . S
C4287 C4288 1.523 . S
C4288 C4272 1.368 . S
C4288 C4284 1.368 . S
C4288 C4287 1.523 . S
H4289 C4264 0.950 . S
H4290 C4266 0.950 . S
H4291 C4267 0.949 . S
H4292 C4269 0.950 . S
H4293 C4271 0.950 . S
C4294 C4295 1.349 . S
C4294 C4296 1.327 . S
C4294 H4319 0.950 1_554 S
C4295 C4294 1.349 . S
C4295 C4311 1.349 . S
C4296 C4294 1.327 . S
C4296 C4315 1.429 . S
C4296 H4320 0.950 1_554 S
C4297 C4314 1.574 . S
C4297 C4316 1.368 . S
C4297 H4321 0.949 . S
H4298 C4302 0.949 . S
C4299 C4300 1.349 . S
C4299 C4301 1.327 . S
C4299 H4322 0.950 . S
C4300 C4299 1.349 . S
C4300 C4312 1.349 1_554 S
C4301 C4299 1.327 . S
C4301 C4317 1.429 . S
C4301 H4323 0.950 . S
C4302 H4298 0.949 . S
C4302 C4310 1.574 . S
C4302 C4318 1.368 1_556 S
H4303 C4311 0.950 . S
H4304 C4309 0.950 . S
H4305 C4310 0.949 . S
H4306 C4312 0.950 . S
H4307 C4313 0.950 . S
H4308 C4314 0.949 . S
C4309 H4304 0.950 . S
C4309 C4311 1.327 . S
C4309 C4315 1.429 . S
C4310 C4302 1.574 . S
C4310 H4305 0.949 . S
C4310 C4316 1.368 1_556 S
C4311 C4295 1.349 . S
C4311 H4303 0.950 . S
C4311 C4309 1.327 . S
C4312 C4300 1.349 1_556 S
C4312 H4306 0.950 . S
C4312 C4313 1.327 . S
C4313 H4307 0.950 . S
C4313 C4312 1.327 . S
C4313 C4317 1.429 1_556 S
C4314 C4297 1.574 . S
C4314 H4308 0.949 . S
C4314 C4318 1.368 . S
C4315 C4296 1.429 . S
C4315 C4309 1.429 . S
C4315 C4316 1.523 . S
C4316 C4297 1.368 . S
C4316 C4310 1.368 1_554 S
C4316 C4315 1.523 . S
C4317 C4301 1.429 . S
C4317 C4313 1.429 1_554 S
C4317 C4318 1.523 . S
C4318 C4302 1.368 1_554 S
C4318 C4314 1.368 . S
C4318 C4317 1.523 . S
H4319 C4294 0.950 1_556 S
H4320 C4296 0.950 1_556 S
H4321 C4297 0.949 . S
H4322 C4299 0.950 . S
H4323 C4301 0.950 . S
C4324 C4325 1.349 . S
C4324 C4326 1.327 . S
C4324 H4349 0.950 . S
C4325 C4324 1.349 . S
C4325 C4341 1.349 . S
C4326 C4324 1.327 . S
C4326 C4345 1.429 . S
C4326 H4350 0.950 . S
C4327 C4344 1.574 . S
C4327 C4346 1.368 . S
C4327 H4351 0.949 . S
H4328 C4332 0.949 . S
C4329 C4330 1.349 . S
C4329 C4331 1.327 . S
C4329 H4352 0.950 . S
C4330 C4329 1.349 . S
C4330 C4342 1.349 . S
C4331 C4329 1.327 . S
C4331 C4347 1.429 . S
C4331 H4353 0.950 . S
C4332 H4328 0.949 . S
C4332 C4340 1.574 . S
C4332 C4348 1.368 . S
H4333 C4341 0.950 . S
H4334 C4339 0.950 . S
H4335 C4340 0.949 . S
H4336 C4342 0.950 . S
H4337 C4343 0.950 . S
H4338 C4344 0.949 . S
C4339 H4334 0.950 . S
C4339 C4341 1.327 . S
C4339 C4345 1.429 . S
C4340 C4332 1.574 . S
C4340 H4335 0.949 . S
C4340 C4346 1.368 . S
C4341 C4325 1.349 . S
C4341 H4333 0.950 . S
C4341 C4339 1.327 . S
C4342 C4330 1.349 . S
C4342 H4336 0.950 . S
C4342 C4343 1.327 . S
C4343 H4337 0.950 . S
C4343 C4342 1.327 . S
C4343 C4347 1.429 . S
C4344 C4327 1.574 . S
C4344 H4338 0.949 . S
C4344 C4348 1.368 . S
C4345 C4326 1.429 . S
C4345 C4339 1.429 . S
C4345 C4346 1.523 . S
C4346 C4327 1.368 . S
C4346 C4340 1.368 . S
C4346 C4345 1.523 . S
C4347 C4331 1.429 . S
C4347 C4343 1.429 . S
C4347 C4348 1.523 . S
C4348 C4332 1.368 . S
C4348 C4344 1.368 . S
C4348 C4347 1.523 . S
H4349 C4324 0.950 . S
H4350 C4326 0.950 . S
H4351 C4327 0.949 . S
H4352 C4329 0.950 . S
H4353 C4331 0.950 . S
C4354 C4355 1.349 . S
C4354 C4356 1.327 . S
C4354 H4379 0.950 . S
C4355 C4354 1.349 . S
C4355 C4371 1.349 . S
C4356 C4354 1.327 . S
C4356 C4375 1.429 . S
C4356 H4380 0.950 . S
C4357 C4374 1.574 . S
C4357 C4376 1.368 . S
C4357 H4381 0.949 . S
H4358 C4362 0.949 . S
C4359 C4360 1.349 . S
C4359 C4361 1.327 . S
C4359 H4382 0.950 . S
C4360 C4359 1.349 . S
C4360 C4372 1.349 . S
C4361 C4359 1.327 . S
C4361 C4377 1.429 . S
C4361 H4383 0.950 . S
C4362 H4358 0.949 . S
C4362 C4370 1.574 . S
C4362 C4378 1.368 . S
H4363 C4371 0.950 . S
H4364 C4369 0.950 . S
H4365 C4370 0.949 . S
H4366 C4372 0.950 . S
H4367 C4373 0.950 . S
H4368 C4374 0.949 . S
C4369 H4364 0.950 . S
C4369 C4371 1.327 . S
C4369 C4375 1.429 . S
C4370 C4362 1.574 . S
C4370 H4365 0.949 . S
C4370 C4376 1.368 . S
C4371 C4355 1.349 . S
C4371 H4363 0.950 . S
C4371 C4369 1.327 . S
C4372 C4360 1.349 . S
C4372 H4366 0.950 . S
C4372 C4373 1.327 . S
C4373 H4367 0.950 . S
C4373 C4372 1.327 . S
C4373 C4377 1.429 . S
C4374 C4357 1.574 . S
C4374 H4368 0.949 . S
C4374 C4378 1.368 . S
C4375 C4356 1.429 . S
C4375 C4369 1.429 . S
C4375 C4376 1.523 . S
C4376 C4357 1.368 . S
C4376 C4370 1.368 . S
C4376 C4375 1.523 . S
C4377 C4361 1.429 . S
C4377 C4373 1.429 . S
C4377 C4378 1.523 . S
C4378 C4362 1.368 . S
C4378 C4374 1.368 . S
C4378 C4377 1.523 . S
H4379 C4354 0.950 . S
H4380 C4356 0.950 . S
H4381 C4357 0.949 . S
H4382 C4359 0.950 . S
H4383 C4361 0.950 . S
C1505 C255 1.952 . S
C1510 C895 1.939 . S
C1535 C147 1.707 . S
C1540 C906 1.716 . S
C1565 C184 1.477 . S
C1570 C975 1.461 . S
C1600 C988 1.223 . S
C1595 C220 1.236 . S
C1625 C40 2.498 . S
C1630 C1044 2.456 . S
C1660 C1095 1.965 . S
C1655 C74 1.970 . S
C1690 C1124 2.453 . S
C1685 C110 2.469 . S
C1715 C14 2.285 . S
C1720 C1175 2.266 . S
C1750 C866 1.141 . S
C1745 C579 1.146 . S
C1775 C616 0.823 . S
C1780 C908 0.818 . S
C1810 C946 1.098 . S
C1805 C687 1.109 . S
C1840 C1015 1.614 . S
C1835 C436 1.592 . S
C1865 C580 0.499 . S
C1870 C1049 0.505 . S
C1900 C1066 1.440 . S
C1895 C615 1.446 . S
C1930 C1129 0.320 . S
C1925 C688 0.293 . S
C1960 C1146 2.076 . S
C1955 C435 2.111 . S
C1990 C868 1.425 1_565 S
C1985 C410 1.478 1_554 S
C2015 C722 1.656 . S
C2020 C1207 1.616 . S
C2050 C1228 1.264 . S
C2045 C842 1.313 . S
C2080 C1287 0.286 1_655 S
C2075 C794 0.299 . S
C2105 C302 0.873 . S
C2110 C1148 0.867 . S
C2135 C338 1.316 . S
C2140 C948 1.324 . S
C2165 C830 0.925 . S
C2170 C1306 0.927 . S
C2200 C1375 1.011 . S
C2195 C758 1.024 . S
C2230 C884 1.894 . S
C2225 C158 1.801 . S
C2260 C1367 1.692 . S
C2255 C254 1.696 . S
C2285 C218 1.482 . S
C2290 C964 1.463 . S
C2315 C194 1.164 . S
C2320 C1329 1.190 . S
C2350 C1055 2.419 . S
C2345 C3 2.438 . S
C2375 C111 1.860 . S
C2380 C1244 1.821 . S
C2410 C1135 2.372 1_556 S
C2405 C76 2.387 . S
C2440 C1404 2.335 . S
C2435 C50 2.298 1_655 S
C2470 C887 1.093 . S
C2465 C364 1.104 . S
C2500 C1369 0.810 . S
C2495 C795 0.818 . S
C2525 C292 1.033 . S
C2530 C967 1.027 . S
C2555 C723 1.520 . S
C2560 C1324 1.514 . S
C2585 C363 0.462 . S
C2590 C1028 0.489 . S
C2620 C1247 1.417 . S
C2615 C796 1.428 . S
C2645 C291 0.224 . S
C2650 C1108 0.287 . S
C2675 C724 2.068 . S
C2680 C1407 2.049 . S
C2705 C482 1.400 . S
C2710 C889 1.443 . S
C2735 C434 1.635 . S
C2740 C1186 1.597 . S
C2765 C662 1.183 . S
C2770 C1089 1.244 . S
C2795 C614 0.276 . S
C2800 C1266 0.305 . S
C2830 C1409 0.852 . S
C2825 C698 0.831 . S
C2855 C554 1.288 . S
C2860 C969 1.338 . S
C2890 C1007 0.845 . S
C2885 C650 0.842 . S
C2920 C924 0.961 . S
C2915 C506 0.978 . S
C2945 C183 1.951 . S
C2950 C1455 1.941 . S
C2980 C1346 1.716 . S
C2975 C219 1.707 . S
C3005 C256 1.475 . S
C3010 C1495 1.460 . S
C3035 C148 1.235 . S
C3040 C1308 1.221 . S
C3065 C122 2.444 . S
C3070 C1204 2.510 . S
C3100 C1255 1.894 . S
C3095 C2 1.913 . S
C3130 C1284 2.336 . S
C3125 C39 2.349 . S
C3160 C1415 2.335 . S
C3155 C86 2.352 . S
C3190 C1426 1.157 . S
C3185 C651 1.161 . S
C3215 C472 0.828 . S
C3220 C1348 0.822 . S
C3250 C1466 1.083 . S
C3245 C507 1.095 . S
C3280 C1335 1.620 . S
C3275 C544 1.598 . S
C3310 C1209 0.510 . S
C3305 C652 0.504 . S
C3335 C471 1.431 . S
C3340 C1226 1.425 . S
C3370 C1289 0.308 . S
C3365 C508 0.285 . S
C3395 C543 2.130 . S
C3400 C1386 2.096 . S
C3430 C1428 1.443 . S
C3425 C806 1.497 . S
C3455 C326 1.635 . S
C3460 C1047 1.596 . S
C3490 C1068 1.235 . S
C3485 C374 1.282 1_565 S
C3520 C1127 0.323 . S
C3515 C398 0.299 . S
C3550 C1388 0.856 . S
C3545 C770 0.860 . S
C3575 C734 1.307 . S
C3580 C1468 1.316 . S
C3610 C986 0.913 . S
C3605 C362 0.911 . S
C3640 C935 1.026 . S
C3635 C290 1.039 . S
C3665 C230 1.800 . S
C3670 C1444 1.893 . S
C3700 C927 1.697 . S
C3695 C182 1.695 . S
C3725 C146 1.481 . S
C3730 C1484 1.463 . S
C3755 C266 1.165 . S
C3760 C1009 1.185 . S
C3785 C75 2.496 . S
C3790 C1215 2.476 1_556 S
C3820 C1084 1.957 . S
C3815 C38 1.969 . S
C3845 C4 2.326 . S
C3850 C1295 2.310 . S
C3875 C112 2.290 . S
C3880 C1164 2.246 . S
C3910 C1447 1.097 . S
C3905 C832 1.108 . S
C3935 C399 0.828 . S
C3940 C929 0.819 . S
C3970 C1487 1.021 . S
C3965 C760 1.027 . S
C3995 C327 1.516 . S
C4000 C1004 1.510 . S
C4025 C831 0.471 . S
C4030 C1188 0.496 . S
C4060 C1087 1.418 . S
C4055 C400 1.430 . S
C4085 C759 0.236 . S
C4090 C1268 0.301 . S
C4120 C1167 2.061 . S
C4115 C328 2.078 . S
C4150 C1449 1.450 . S
C4145 C626 1.406 . S
C4180 C1026 1.582 1_565 S
C4175 C542 1.634 . S
C4205 C590 1.156 . S
C4210 C1249 1.215 . S
C4240 C1106 0.312 . S
C4235 C470 0.291 . S
C4265 C518 0.811 . S
C4270 C1169 0.828 . S
C4295 C446 1.280 . S
C4300 C1489 1.329 . S
C4330 C1327 0.852 . S
C4325 C578 0.849 . S
C4360 C1364 0.936 . S
C4355 C686 0.951 . S
