# Generated by pormake.
# Topology eea, (3,6)-cn, num edge types: 1
# Building blocks:
#     Node 0, Type 0, BuildingBlock: WUSLED_clean_sbu_0, # of connection points: 3
#     Node 1, Type 0, BuildingBlock: WUSLED_clean_sbu_0, # of connection points: 3
#     Node 2, Type 0, BuildingBlock: WUSLED_clean_sbu_0, # of connection points: 3
#     Node 3, Type 0, BuildingBlock: WUSLED_clean_sbu_0, # of connection points: 3
#     Node 4, Type 0, BuildingBlock: WUSLED_clean_sbu_0, # of connection points: 3
#     Node 5, Type 0, BuildingBlock: WUSLED_clean_sbu_0, # of connection points: 3
#     Node 6, Type 0, BuildingBlock: WUSLED_clean_sbu_0, # of connection points: 3
#     Node 7, Type 0, BuildingBlock: WUSLED_clean_sbu_0, # of connection points: 3
#     Node 8, Type 0, BuildingBlock: WUSLED_clean_sbu_0, # of connection points: 3
#     Node 9, Type 0, BuildingBlock: WUSLED_clean_sbu_0, # of connection points: 3
#     Node 10, Type 0, BuildingBlock: WUSLED_clean_sbu_0, # of connection points: 3
#     Node 11, Type 0, BuildingBlock: WUSLED_clean_sbu_0, # of connection points: 3
#     Node 12, Type 0, BuildingBlock: WUSLED_clean_sbu_0, # of connection points: 3
#     Node 13, Type 0, BuildingBlock: WUSLED_clean_sbu_0, # of connection points: 3
#     Node 14, Type 0, BuildingBlock: WUSLED_clean_sbu_0, # of connection points: 3
#     Node 15, Type 0, BuildingBlock: WUSLED_clean_sbu_0, # of connection points: 3
#     Node 16, Type 0, BuildingBlock: WUSLED_clean_sbu_0, # of connection points: 3
#     Node 17, Type 0, BuildingBlock: WUSLED_clean_sbu_0, # of connection points: 3
#     Node 18, Type 1, BuildingBlock: CUWYAW_clean_sbu_0, # of connection points: 6
#     Node 19, Type 1, BuildingBlock: CUWYAW_clean_sbu_0, # of connection points: 6
#     Node 20, Type 1, BuildingBlock: CUWYAW_clean_sbu_0, # of connection points: 6
#     Node 21, Type 1, BuildingBlock: CUWYAW_clean_sbu_0, # of connection points: 6
#     Node 22, Type 1, BuildingBlock: CUWYAW_clean_sbu_0, # of connection points: 6
#     Node 23, Type 1, BuildingBlock: CUWYAW_clean_sbu_0, # of connection points: 6
#     Node 24, Type 1, BuildingBlock: CUWYAW_clean_sbu_0, # of connection points: 6
#     Node 25, Type 1, BuildingBlock: CUWYAW_clean_sbu_0, # of connection points: 6
#     Node 26, Type 1, BuildingBlock: CUWYAW_clean_sbu_0, # of connection points: 6
#     Edge 27, Type (0, 1), BuildingBlock: ZUJKAS_clean_linker_0, # of connection points: 2
#     Edge 28, Type (0, 1), BuildingBlock: ZUJKAS_clean_linker_0, # of connection points: 2
#     Edge 29, Type (0, 1), BuildingBlock: ZUJKAS_clean_linker_0, # of connection points: 2
#     Edge 30, Type (0, 1), BuildingBlock: ZUJKAS_clean_linker_0, # of connection points: 2
#     Edge 31, Type (0, 1), BuildingBlock: ZUJKAS_clean_linker_0, # of connection points: 2
#     Edge 32, Type (0, 1), BuildingBlock: ZUJKAS_clean_linker_0, # of connection points: 2
#     Edge 33, Type (0, 1), BuildingBlock: ZUJKAS_clean_linker_0, # of connection points: 2
#     Edge 34, Type (0, 1), BuildingBlock: ZUJKAS_clean_linker_0, # of connection points: 2
#     Edge 35, Type (0, 1), BuildingBlock: ZUJKAS_clean_linker_0, # of connection points: 2
#     Edge 36, Type (0, 1), BuildingBlock: ZUJKAS_clean_linker_0, # of connection points: 2
#     Edge 37, Type (0, 1), BuildingBlock: ZUJKAS_clean_linker_0, # of connection points: 2
#     Edge 38, Type (0, 1), BuildingBlock: ZUJKAS_clean_linker_0, # of connection points: 2
#     Edge 39, Type (0, 1), BuildingBlock: ZUJKAS_clean_linker_0, # of connection points: 2
#     Edge 40, Type (0, 1), BuildingBlock: ZUJKAS_clean_linker_0, # of connection points: 2
#     Edge 41, Type (0, 1), BuildingBlock: ZUJKAS_clean_linker_0, # of connection points: 2
#     Edge 42, Type (0, 1), BuildingBlock: ZUJKAS_clean_linker_0, # of connection points: 2
#     Edge 43, Type (0, 1), BuildingBlock: ZUJKAS_clean_linker_0, # of connection points: 2
#     Edge 44, Type (0, 1), BuildingBlock: ZUJKAS_clean_linker_0, # of connection points: 2
#     Edge 45, Type (0, 1), BuildingBlock: ZUJKAS_clean_linker_0, # of connection points: 2
#     Edge 46, Type (0, 1), BuildingBlock: ZUJKAS_clean_linker_0, # of connection points: 2
#     Edge 47, Type (0, 1), BuildingBlock: ZUJKAS_clean_linker_0, # of connection points: 2
#     Edge 48, Type (0, 1), BuildingBlock: ZUJKAS_clean_linker_0, # of connection points: 2
#     Edge 49, Type (0, 1), BuildingBlock: ZUJKAS_clean_linker_0, # of connection points: 2
#     Edge 50, Type (0, 1), BuildingBlock: ZUJKAS_clean_linker_0, # of connection points: 2
#     Edge 51, Type (0, 1), BuildingBlock: ZUJKAS_clean_linker_0, # of connection points: 2
#     Edge 52, Type (0, 1), BuildingBlock: ZUJKAS_clean_linker_0, # of connection points: 2
#     Edge 53, Type (0, 1), BuildingBlock: ZUJKAS_clean_linker_0, # of connection points: 2
#     Edge 54, Type (0, 1), BuildingBlock: ZUJKAS_clean_linker_0, # of connection points: 2
#     Edge 55, Type (0, 1), BuildingBlock: ZUJKAS_clean_linker_0, # of connection points: 2
#     Edge 56, Type (0, 1), BuildingBlock: ZUJKAS_clean_linker_0, # of connection points: 2
#     Edge 57, Type (0, 1), BuildingBlock: ZUJKAS_clean_linker_0, # of connection points: 2
#     Edge 58, Type (0, 1), BuildingBlock: ZUJKAS_clean_linker_0, # of connection points: 2
#     Edge 59, Type (0, 1), BuildingBlock: ZUJKAS_clean_linker_0, # of connection points: 2
#     Edge 60, Type (0, 1), BuildingBlock: ZUJKAS_clean_linker_0, # of connection points: 2
#     Edge 61, Type (0, 1), BuildingBlock: ZUJKAS_clean_linker_0, # of connection points: 2
#     Edge 62, Type (0, 1), BuildingBlock: ZUJKAS_clean_linker_0, # of connection points: 2
#     Edge 63, Type (0, 1), BuildingBlock: ZUJKAS_clean_linker_0, # of connection points: 2
#     Edge 64, Type (0, 1), BuildingBlock: ZUJKAS_clean_linker_0, # of connection points: 2
#     Edge 65, Type (0, 1), BuildingBlock: ZUJKAS_clean_linker_0, # of connection points: 2
#     Edge 66, Type (0, 1), BuildingBlock: ZUJKAS_clean_linker_0, # of connection points: 2
#     Edge 67, Type (0, 1), BuildingBlock: ZUJKAS_clean_linker_0, # of connection points: 2
#     Edge 68, Type (0, 1), BuildingBlock: ZUJKAS_clean_linker_0, # of connection points: 2
#     Edge 69, Type (0, 1), BuildingBlock: ZUJKAS_clean_linker_0, # of connection points: 2
#     Edge 70, Type (0, 1), BuildingBlock: ZUJKAS_clean_linker_0, # of connection points: 2
#     Edge 71, Type (0, 1), BuildingBlock: ZUJKAS_clean_linker_0, # of connection points: 2
#     Edge 72, Type (0, 1), BuildingBlock: ZUJKAS_clean_linker_0, # of connection points: 2
#     Edge 73, Type (0, 1), BuildingBlock: ZUJKAS_clean_linker_0, # of connection points: 2
#     Edge 74, Type (0, 1), BuildingBlock: ZUJKAS_clean_linker_0, # of connection points: 2
#     Edge 75, Type (0, 1), BuildingBlock: ZUJKAS_clean_linker_0, # of connection points: 2
#     Edge 76, Type (0, 1), BuildingBlock: ZUJKAS_clean_linker_0, # of connection points: 2
#     Edge 77, Type (0, 1), BuildingBlock: ZUJKAS_clean_linker_0, # of connection points: 2
#     Edge 78, Type (0, 1), BuildingBlock: ZUJKAS_clean_linker_0, # of connection points: 2
#     Edge 79, Type (0, 1), BuildingBlock: ZUJKAS_clean_linker_0, # of connection points: 2
#     Edge 80, Type (0, 1), BuildingBlock: ZUJKAS_clean_linker_0, # of connection points: 2
# Relax obj value: 0.035
# Max RMSD: 0.130
# Mean RMSD: 0.068
data_MOF--net-eea--node1-WUSLED_clean_sbu_0--node2-CUWYAW_clean_sbu_0--edge1-ZUJKAS_clean_linker_0
_symmetry_space_group_name_H-M    P1
_symmetry_Int_Tables_number       1
_symmetry_cell_setting            triclinic
loop_
_symmetry_equiv_pos_as_xyz
'x, y, z'
_cell_length_a     82.702392
_cell_length_b     82.083161
_cell_length_c     110.09278
_cell_angle_alpha  93.074195
_cell_angle_beta   93.43877
_cell_angle_gamma 119.85571
loop_
_atom_site_label
_atom_site_type_symbol
_atom_site_fract_x
_atom_site_fract_y
_atom_site_fract_z
_atom_type_partial_charge
C0 C 0.24276 0.16138 0.40335 0.0
C1 C 0.24121 0.17399 0.41166 0.0
C2 C 0.23543 0.18906 0.39482 0.0
C3 C 0.23749 0.18766 0.40743 0.0
C4 C 0.23735 0.17661 0.38654 0.0
C5 C 0.24095 0.16284 0.39079 0.0
U6 U 0.25835 0.14175 0.42898 0.0
O7 O 0.24602 0.11299 0.43456 0.0
O8 O 0.27461 0.12715 0.42906 0.0
C9 C 0.26057 0.11142 0.43211 0.0
C10 C 0.24611 0.14661 0.40773 0.0
C11 C 0.25615 0.09414 0.42457 0.0
C12 C 0.24256 0.07332 0.40576 0.0
C13 C 0.24745 0.09028 0.4126 0.0
C14 C 0.25529 0.06412 0.42273 0.0
C15 C 0.24631 0.05998 0.41078 0.0
C16 C 0.26014 0.08105 0.42955 0.0
C17 C 0.27468 0.16899 0.46042 0.0
C18 C 0.2839 0.15661 0.47734 0.0
C19 C 0.2833 0.18572 0.4807 0.0
C20 C 0.27742 0.18429 0.46832 0.0
C21 C 0.28653 0.17185 0.48537 0.0
C22 C 0.278 0.15518 0.46497 0.0
C23 C 0.26792 0.1673 0.44752 0.0
O24 O 0.26377 0.15184 0.41071 0.0
O25 O 0.23495 0.13653 0.41574 0.0
O26 O 0.25059 0.15368 0.44441 0.0
O27 O 0.27955 0.16815 0.43961 0.0
H28 H 0.24275 0.17317 0.42142 0.0
H29 H 0.23632 0.1972 0.41403 0.0
H30 H 0.23567 0.17723 0.37678 0.0
H31 H 0.24214 0.15324 0.38426 0.0
H32 H 0.23586 0.07066 0.39654 0.0
H33 H 0.24429 0.10029 0.40862 0.0
H34 H 0.25816 0.05408 0.42693 0.0
H35 H 0.26679 0.0838 0.4388 0.0
H36 H 0.28603 0.14557 0.48067 0.0
H37 H 0.28541 0.19774 0.48661 0.0
H38 H 0.27492 0.19508 0.46492 0.0
H39 H 0.27584 0.14321 0.45897 0.0
C40 C 0.93543 0.16304 0.41264 0.0
C41 C 0.95278 0.16859 0.41918 0.0
C42 C 0.96917 0.19119 0.40455 0.0
C43 C 0.96946 0.18246 0.41516 0.0
C44 C 0.95173 0.18582 0.39816 0.0
C45 C 0.93508 0.17186 0.40213 0.0
U46 U 0.89927 0.14015 0.43576 0.0
O47 O 0.86841 0.12434 0.43281 0.0
O48 O 0.88354 0.11068 0.43998 0.0
C49 C 0.86732 0.10851 0.43571 0.0
C50 C 0.91765 0.1477 0.41628 0.0
C51 C 0.85505 0.09147 0.42722 0.0
C52 C 0.84886 0.06241 0.41575 0.0
C53 C 0.86115 0.07913 0.42304 0.0
C54 C 0.82429 0.07023 0.41641 0.0
C55 C 0.83021 0.05764 0.41242 0.0
C56 C 0.83655 0.08689 0.42377 0.0
C57 C 0.90684 0.16432 0.46772 0.0
C58 C 0.88496 0.14905 0.48274 0.0
C59 C 0.91208 0.18016 0.48804 0.0
C60 C 0.91756 0.17997 0.47628 0.0
C61 C 0.89574 0.16468 0.49143 0.0
C62 C 0.89047 0.14888 0.47098 0.0
C63 C 0.91295 0.16412 0.45548 0.0
O64 O 0.919 0.13734 0.42455 0.0
O65 O 0.9045 0.15193 0.41794 0.0
O66 O 0.90242 0.16516 0.44648 0.0
O67 O 0.91772 0.15133 0.45298 0.0
H68 H 0.95355 0.16206 0.42732 0.0
H69 H 0.9826 0.18601 0.42024 0.0
H70 H 0.95091 0.19243 0.39007 0.0
H71 H 0.92188 0.16784 0.39693 0.0
H72 H 0.85387 0.05297 0.41301 0.0
H73 H 0.8753 0.08217 0.42556 0.0
H74 H 0.81014 0.0672 0.41388 0.0
H75 H 0.83148 0.09613 0.42689 0.0
H76 H 0.87244 0.1368 0.48508 0.0
H77 H 0.92055 0.19253 0.49443 0.0
H78 H 0.93021 0.19202 0.47388 0.0
H79 H 0.88204 0.13665 0.46447 0.0
C80 C 0.87695 0.79295 0.41663 0.0
C81 C 0.86279 0.78957 0.42424 0.0
C82 C 0.84707 0.7985 0.40877 0.0
C83 C 0.84798 0.79234 0.42035 0.0
C84 C 0.86131 0.80179 0.40119 0.0
C85 C 0.87612 0.79905 0.4051 0.0
U86 U 0.9013 0.77835 0.44036 0.0
O87 O 0.91585 0.76222 0.43822 0.0
O88 O 0.93111 0.79122 0.44702 0.0
C89 C 0.93216 0.77656 0.44272 0.0
C90 C 0.89262 0.7902 0.42068 0.0
C91 C 0.94788 0.78085 0.43542 0.0
C92 C 0.96372 0.79161 0.41711 0.0
C93 C 0.94846 0.78737 0.42383 0.0
C94 C 0.97787 0.78279 0.43347 0.0
C95 C 0.97866 0.78945 0.42188 0.0
C96 C 0.96263 0.77854 0.44016 0.0
C97 C 0.87767 0.76138 0.4698 0.0
C98 C 0.89084 0.75243 0.48676 0.0
C99 C 0.86068 0.75039 0.4876 0.0
C100 C 0.86199 0.75701 0.47607 0.0
C101 C 0.87506 0.74798 0.4931 0.0
C102 C 0.89212 0.75906 0.47518 0.0
C103 C 0.87864 0.76843 0.45772 0.0
O104 O 0.90371 0.80162 0.43013 0.0
O105 O 0.88825 0.77257 0.42144 0.0
O106 O 0.87673 0.75676 0.44837 0.0
O107 O 0.89205 0.78587 0.45699 0.0
H108 H 0.86319 0.78478 0.43318 0.0
H109 H 0.83714 0.78944 0.42635 0.0
H110 H 0.86118 0.80677 0.39229 0.0
H111 H 0.88697 0.80176 0.39913 0.0
H112 H 0.96396 0.79687 0.40827 0.0
H113 H 0.93719 0.78927 0.42004 0.0
H114 H 0.98896 0.78067 0.43735 0.0
H115 H 0.96237 0.77346 0.44907 0.0
H116 H 0.90208 0.75058 0.49067 0.0
H117 H 0.84849 0.74742 0.49229 0.0
H118 H 0.85075 0.75881 0.47206 0.0
H119 H 0.90434 0.76236 0.47043 0.0
C120 C 0.08388 0.23007 0.61521 0.0
C121 C 0.07536 0.24009 0.61094 0.0
C122 C 0.04979 0.22375 0.62362 0.0
C123 C 0.0585 0.23702 0.61515 0.0
C124 C 0.05837 0.2137 0.6278 0.0
C125 C 0.07525 0.21686 0.62364 0.0
U126 U 0.11979 0.24512 0.59165 0.0
O127 O 0.15061 0.26085 0.59436 0.0
O128 O 0.13576 0.23194 0.58541 0.0
C129 C 0.15198 0.24649 0.58982 0.0
C130 C 0.10165 0.23308 0.61099 0.0
C131 C 0.16457 0.24206 0.59706 0.0
C132 C 0.17259 0.23071 0.61511 0.0
C133 C 0.16044 0.23509 0.60851 0.0
C134 C 0.19305 0.24032 0.59886 0.0
C135 C 0.189 0.23319 0.61032 0.0
C136 C 0.18094 0.2447 0.59231 0.0
C137 C 0.11186 0.26248 0.56177 0.0
C138 C 0.13444 0.27144 0.54672 0.0
C139 C 0.10579 0.27227 0.5424 0.0
C140 C 0.10035 0.26608 0.55385 0.0
C141 C 0.12289 0.27498 0.53867 0.0
C142 C 0.12895 0.26522 0.55816 0.0
C143 C 0.10578 0.25557 0.57366 0.0
O144 O 0.10004 0.22174 0.60153 0.0
O145 O 0.11467 0.25073 0.61037 0.0
O146 O 0.11619 0.26703 0.58329 0.0
O147 O 0.10127 0.23795 0.57464 0.0
H148 H 0.08174 0.25026 0.60434 0.0
H149 H 0.05215 0.24484 0.61166 0.0
H150 H 0.05217 0.20357 0.63443 0.0
H151 H 0.08162 0.209 0.62705 0.0
H152 H 0.16897 0.2251 0.62385 0.0
H153 H 0.1478 0.23294 0.6123 0.0
H154 H 0.2057 0.2427 0.59499 0.0
H155 H 0.18437 0.25013 0.5835 0.0
H156 H 0.14756 0.27314 0.54409 0.0
H157 H 0.09668 0.27509 0.53651 0.0
H158 H 0.08711 0.26406 0.55651 0.0
H159 H 0.13798 0.26242 0.56415 0.0
C160 C 0.77776 0.86127 0.63247 0.0
C161 C 0.77336 0.84505 0.62487 0.0
C162 C 0.7859 0.83415 0.64109 0.0
C163 C 0.77737 0.83158 0.62915 0.0
C164 C 0.79009 0.85039 0.64869 0.0
C165 C 0.78605 0.86383 0.64441 0.0
U166 U 0.76107 0.88013 0.60682 0.0
O167 O 0.74487 0.89482 0.60707 0.0
O168 O 0.77313 0.90872 0.60102 0.0
C169 C 0.75876 0.91043 0.60378 0.0
C170 C 0.77418 0.8758 0.62794 0.0
C171 C 0.76344 0.92792 0.61119 0.0
C172 C 0.7819 0.95213 0.62787 0.0
C173 C 0.77685 0.93487 0.6214 0.0
C174 C 0.75975 0.95535 0.61424 0.0
C175 C 0.77355 0.9627 0.62429 0.0
C176 C 0.75479 0.93815 0.60775 0.0
C177 C 0.74375 0.85305 0.57549 0.0
C178 C 0.73436 0.86608 0.55904 0.0
C179 C 0.73582 0.83756 0.55485 0.0
C180 C 0.7415 0.83835 0.5672 0.0
C181 C 0.73235 0.85152 0.55061 0.0
C182 C 0.74003 0.86684 0.57137 0.0
C183 C 0.75078 0.85444 0.58828 0.0
O184 O 0.78496 0.88545 0.61965 0.0
O185 O 0.75645 0.87051 0.62523 0.0
O186 O 0.73947 0.85367 0.59642 0.0
O187 O 0.76822 0.86789 0.59124 0.0
H188 H 0.76701 0.84292 0.61559 0.0
H189 H 0.77415 0.81935 0.62302 0.0
H190 H 0.79641 0.85267 0.65798 0.0
H191 H 0.7895 0.87627 0.65039 0.0
H192 H 0.7927 0.95743 0.63548 0.0
H193 H 0.78366 0.92712 0.62421 0.0
H194 H 0.75279 0.96292 0.61137 0.0
H195 H 0.74433 0.93293 0.59994 0.0
H196 H 0.73156 0.87689 0.5561 0.0
H197 H 0.73462 0.82631 0.54858 0.0
H198 H 0.74443 0.82766 0.57024 0.0
H199 H 0.74174 0.87831 0.57767 0.0
C200 C 0.08591 0.86244 0.62165 0.0
C201 C 0.07143 0.84876 0.61325 0.0
C202 C 0.05201 0.83499 0.62983 0.0
C203 C 0.05461 0.83515 0.6173 0.0
C204 C 0.06674 0.84862 0.6382 0.0
C205 C 0.0835 0.86221 0.63414 0.0
U206 U 0.12049 0.88307 0.59753 0.0
O207 O 0.13653 0.91225 0.59279 0.0
O208 O 0.15136 0.89814 0.59969 0.0
C209 C 0.15276 0.91394 0.59647 0.0
C210 C 0.1035 0.87719 0.61759 0.0
C211 C 0.16572 0.93111 0.6045 0.0
C212 C 0.17202 0.95449 0.62136 0.0
C213 C 0.15958 0.93757 0.61427 0.0
C214 C 0.19692 0.95833 0.60919 0.0
C215 C 0.19081 0.96519 0.61882 0.0
C216 C 0.18448 0.94148 0.60209 0.0
C217 C 0.11134 0.85777 0.56591 0.0
C218 C 0.1329 0.8726 0.55065 0.0
C219 C 0.10605 0.84119 0.54584 0.0
C220 C 0.10066 0.84178 0.55759 0.0
C221 C 0.12223 0.85661 0.54221 0.0
C222 C 0.12751 0.87316 0.5624 0.0
C223 C 0.10553 0.85838 0.57821 0.0
O224 O 0.11609 0.87229 0.61565 0.0
O225 O 0.10167 0.88696 0.60908 0.0
O226 O 0.10121 0.87152 0.58068 0.0
O227 O 0.11612 0.85729 0.58714 0.0
H228 H 0.07307 0.84871 0.60355 0.0
H229 H 0.04352 0.82501 0.61059 0.0
H230 H 0.06539 0.84872 0.64792 0.0
H231 H 0.09459 0.8726 0.64076 0.0
H232 H 0.16678 0.95942 0.62863 0.0
H233 H 0.14513 0.92971 0.61628 0.0
H234 H 0.21135 0.96599 0.60711 0.0
H235 H 0.18949 0.93664 0.59463 0.0
H236 H 0.14528 0.88482 0.54813 0.0
H237 H 0.09765 0.82856 0.53964 0.0
H238 H 0.08817 0.82975 0.56018 0.0
H239 H 0.1359 0.88565 0.56872 0.0
C240 C 0.90964 0.49644 0.73675 0.0
C241 C 0.90799 0.50892 0.74512 0.0
C242 C 0.90255 0.52436 0.72836 0.0
C243 C 0.90439 0.52271 0.74096 0.0
C244 C 0.90453 0.51201 0.72003 0.0
C245 C 0.90801 0.49813 0.72421 0.0
U246 U 0.92558 0.47644 0.76204 0.0
O247 O 0.91333 0.44765 0.7675 0.0
O248 O 0.94167 0.46163 0.76156 0.0
C249 C 0.92761 0.44589 0.76458 0.0
C250 C 0.913 0.48162 0.74102 0.0
C251 C 0.92284 0.42861 0.75682 0.0
C252 C 0.90248 0.40339 0.74111 0.0
C253 C 0.90745 0.42043 0.74786 0.0
C254 C 0.92863 0.40288 0.75188 0.0
C255 C 0.91292 0.39435 0.74313 0.0
C256 C 0.93349 0.41984 0.75869 0.0
C257 C 0.94252 0.50333 0.79362 0.0
C258 C 0.95137 0.49048 0.81045 0.0
C259 C 0.95133 0.51986 0.81398 0.0
C260 C 0.94554 0.51866 0.8016 0.0
C261 C 0.9542 0.50572 0.81856 0.0
C262 C 0.94555 0.48928 0.79808 0.0
C263 C 0.93565 0.5018 0.78078 0.0
O264 O 0.93067 0.48676 0.74381 0.0
O265 O 0.90199 0.47155 0.74909 0.0
O266 O 0.91824 0.48831 0.77772 0.0
O267 O 0.94711 0.50263 0.77274 0.0
H268 H 0.90939 0.50793 0.75486 0.0
H269 H 0.90317 0.53217 0.74759 0.0
H270 H 0.90303 0.51282 0.71028 0.0
H271 H 0.90929 0.48863 0.71763 0.0
H272 H 0.89045 0.39726 0.73433 0.0
H273 H 0.89912 0.42706 0.74618 0.0
H274 H 0.93686 0.39618 0.7537 0.0
H275 H 0.94542 0.42595 0.76556 0.0
H276 H 0.95323 0.47924 0.8137 0.0
H277 H 0.95361 0.53189 0.81995 0.0
H278 H 0.94326 0.52962 0.79829 0.0
H279 H 0.94318 0.47729 0.79202 0.0
C280 C 0.60134 0.49251 0.74586 0.0
C281 C 0.61015 0.51121 0.7512 0.0
C282 C 0.63566 0.52011 0.73826 0.0
C283 C 0.62713 0.52492 0.74739 0.0
C284 C 0.62677 0.50132 0.733 0.0
C285 C 0.60976 0.48767 0.73676 0.0
U286 U 0.56565 0.47223 0.76936 0.0
O287 O 0.53482 0.45713 0.76682 0.0
O288 O 0.54942 0.44309 0.77421 0.0
C289 C 0.53327 0.44138 0.77029 0.0
C290 C 0.58349 0.4778 0.74969 0.0
C291 C 0.52053 0.42416 0.76227 0.0
C292 C 0.51314 0.40364 0.74356 0.0
C293 C 0.52538 0.42037 0.7509 0.0
C294 C 0.49109 0.39448 0.75887 0.0
C295 C 0.49585 0.39046 0.74749 0.0
C296 C 0.50332 0.41117 0.76618 0.0
C297 C 0.57401 0.49805 0.80075 0.0
C298 C 0.55271 0.48322 0.81614 0.0
C299 C 0.57879 0.51517 0.82054 0.0
C300 C 0.58424 0.51441 0.80883 0.0
C301 C 0.56299 0.49956 0.82437 0.0
C302 C 0.55816 0.48249 0.80443 0.0
C303 C 0.58007 0.49719 0.78856 0.0
O304 O 0.585 0.46816 0.7584 0.0
O305 O 0.57069 0.48259 0.75118 0.0
O306 O 0.56968 0.49812 0.77941 0.0
O307 O 0.58445 0.48403 0.7864 0.0
H308 H 0.60393 0.51519 0.75832 0.0
H309 H 0.63373 0.53922 0.75171 0.0
H310 H 0.63284 0.49719 0.72586 0.0
H311 H 0.60316 0.47331 0.73254 0.0
H312 H 0.51715 0.40107 0.7348 0.0
H313 H 0.53863 0.43031 0.74773 0.0
H314 H 0.47804 0.38455 0.76227 0.0
H315 H 0.4994 0.41386 0.77497 0.0
H316 H 0.54064 0.47085 0.81882 0.0
H317 H 0.58687 0.52806 0.82657 0.0
H318 H 0.59648 0.52657 0.80611 0.0
H319 H 0.55011 0.46972 0.79829 0.0
C320 C 0.54302 0.1266 0.74934 0.0
C321 C 0.52921 0.12354 0.75718 0.0
C322 C 0.51262 0.13147 0.74169 0.0
C323 C 0.51416 0.12597 0.7534 0.0
C324 C 0.52651 0.13444 0.73386 0.0
C325 C 0.54157 0.13203 0.73767 0.0
U326 U 0.56885 0.1143 0.77344 0.0
O327 O 0.58369 0.09837 0.7718 0.0
O328 O 0.59887 0.1279 0.77967 0.0
C329 C 0.60002 0.11309 0.77586 0.0
C330 C 0.55901 0.12432 0.75332 0.0
C331 C 0.61554 0.11695 0.76844 0.0
C332 C 0.63108 0.12705 0.74996 0.0
C333 C 0.61592 0.12302 0.75673 0.0
C334 C 0.64551 0.11885 0.76652 0.0
C335 C 0.64613 0.12513 0.75482 0.0
C336 C 0.63036 0.11482 0.77326 0.0
C337 C 0.54678 0.10011 0.80371 0.0
C338 C 0.55728 0.08735 0.81982 0.0
C339 C 0.53413 0.0965 0.82335 0.0
C340 C 0.53487 0.10191 0.8115 0.0
C341 C 0.54531 0.08916 0.82767 0.0
C342 C 0.55806 0.09286 0.80793 0.0
C343 C 0.54711 0.10589 0.79128 0.0
O344 O 0.57051 0.1365 0.76235 0.0
O345 O 0.5549 0.1069 0.75468 0.0
O346 O 0.54495 0.09348 0.78234 0.0
O347 O 0.56022 0.12318 0.78987 0.0
H348 H 0.5301 0.11929 0.76624 0.0
H349 H 0.50361 0.12334 0.7596 0.0
H350 H 0.5259 0.13892 0.72485 0.0
H351 H 0.55215 0.1345 0.73151 0.0
H352 H 0.63119 0.13201 0.74103 0.0
H353 H 0.60457 0.12478 0.75289 0.0
H354 H 0.65668 0.11691 0.77046 0.0
H355 H 0.63026 0.11009 0.78227 0.0
H356 H 0.56618 0.08189 0.8229 0.0
H357 H 0.52455 0.09781 0.82908 0.0
H358 H 0.52604 0.10745 0.80838 0.0
H359 H 0.56742 0.09145 0.80204 0.0
C360 C 0.7502 0.56269 0.94902 0.0
C361 C 0.74142 0.57222 0.94433 0.0
C362 C 0.7163 0.55681 0.95747 0.0
C363 C 0.72464 0.56937 0.94856 0.0
C364 C 0.72514 0.54723 0.96206 0.0
C365 C 0.74194 0.55017 0.95788 0.0
U366 U 0.78588 0.57717 0.92535 0.0
O367 O 0.8167 0.59279 0.92796 0.0
O368 O 0.80168 0.56377 0.91917 0.0
C369 C 0.81795 0.57831 0.92352 0.0
C370 C 0.7679 0.5655 0.94479 0.0
C371 C 0.83046 0.57388 0.93085 0.0
C372 C 0.83852 0.56309 0.94917 0.0
C373 C 0.82645 0.56745 0.94246 0.0
C374 C 0.85866 0.57163 0.93274 0.0
C375 C 0.85473 0.56505 0.94435 0.0
C376 C 0.84663 0.57599 0.92607 0.0
C377 C 0.77791 0.59421 0.89537 0.0
C378 C 0.79948 0.6011 0.8798 0.0
C379 C 0.77283 0.60565 0.87644 0.0
C380 C 0.76739 0.59959 0.88791 0.0
C381 C 0.78892 0.60642 0.87222 0.0
C382 C 0.79403 0.59505 0.89127 0.0
C383 C 0.77186 0.58751 0.9073 0.0
O384 O 0.76615 0.55401 0.93538 0.0
O385 O 0.78096 0.5831 0.94406 0.0
O386 O 0.78237 0.59906 0.91687 0.0
O387 O 0.76724 0.56988 0.9084 0.0
H388 H 0.74753 0.58185 0.93741 0.0
H389 H 0.71808 0.5768 0.94475 0.0
H390 H 0.71922 0.53765 0.96903 0.0
H391 H 0.74852 0.54269 0.96161 0.0
H392 H 0.83499 0.5579 0.95803 0.0
H393 H 0.81396 0.5657 0.94627 0.0
H394 H 0.87115 0.5736 0.92884 0.0
H395 H 0.84996 0.58101 0.91714 0.0
H396 H 0.8118 0.60129 0.87679 0.0
H397 H 0.76452 0.60989 0.87093 0.0
H398 H 0.75494 0.59906 0.89096 0.0
H399 H 0.8023 0.5909 0.89692 0.0
C400 C 0.44492 0.19396 0.96436 0.0
C401 C 0.43614 0.17591 0.958 0.0
C402 C 0.4524 0.16609 0.97243 0.0
C403 C 0.43979 0.16208 0.96202 0.0
C404 C 0.46112 0.18424 0.97876 0.0
C405 C 0.45739 0.19802 0.97476 0.0
U406 U 0.42847 0.21346 0.93903 0.0
O407 O 0.41271 0.22858 0.93946 0.0
O408 O 0.44087 0.24211 0.93327 0.0
C409 C 0.4267 0.24408 0.93613 0.0
C410 C 0.44169 0.2088 0.95999 0.0
C411 C 0.4317 0.26162 0.94361 0.0
C412 C 0.45 0.28525 0.9606 0.0
C413 C 0.44474 0.26802 0.95398 0.0
C414 C 0.42883 0.28953 0.94673 0.0
C415 C 0.44224 0.29631 0.95698 0.0
C416 C 0.42364 0.27236 0.94011 0.0
C417 C 0.41031 0.18625 0.90773 0.0
C418 C 0.4044 0.20074 0.89067 0.0
C419 C 0.39773 0.16842 0.88783 0.0
C420 C 0.40382 0.16953 0.90014 0.0
C421 C 0.39809 0.18407 0.88292 0.0
C422 C 0.41042 0.2018 0.90296 0.0
C423 C 0.41746 0.18762 0.92049 0.0
O424 O 0.45243 0.21832 0.95165 0.0
O425 O 0.42404 0.20399 0.95747 0.0
O426 O 0.40637 0.18716 0.92871 0.0
O427 O 0.43503 0.20084 0.92336 0.0
H428 H 0.42653 0.17256 0.9499 0.0
H429 H 0.43265 0.14822 0.95701 0.0
H430 H 0.47114 0.18793 0.98668 0.0
H431 H 0.46441 0.21194 0.97971 0.0
H432 H 0.4605 0.29011 0.96836 0.0
H433 H 0.45107 0.25986 0.95684 0.0
H434 H 0.42231 0.29749 0.94381 0.0
H435 H 0.41346 0.26755 0.93216 0.0
H436 H 0.40512 0.21314 0.88717 0.0
H437 H 0.39272 0.1553 0.88218 0.0
H438 H 0.40361 0.15738 0.90371 0.0
H439 H 0.41544 0.21485 0.90872 0.0
C440 C 0.75344 0.19558 0.95493 0.0
C441 C 0.74101 0.17951 0.94706 0.0
C442 C 0.7198 0.16746 0.96297 0.0
C443 C 0.72432 0.16556 0.95104 0.0
C444 C 0.73239 0.18362 0.9708 0.0
C445 C 0.74904 0.19753 0.96681 0.0
U446 U 0.78778 0.21629 0.93077 0.0
O447 O 0.80356 0.24549 0.92596 0.0
O448 O 0.81862 0.23156 0.93275 0.0
C449 C 0.81988 0.2473 0.92951 0.0
C450 C 0.77092 0.21048 0.95089 0.0
C451 C 0.83275 0.26444 0.93754 0.0
C452 C 0.84064 0.28455 0.95651 0.0
C453 C 0.82829 0.26789 0.94914 0.0
C454 C 0.86203 0.29429 0.94078 0.0
C455 C 0.85765 0.29797 0.9524 0.0
C456 C 0.84968 0.27768 0.93344 0.0
C457 C 0.77862 0.19074 0.89926 0.0
C458 C 0.80017 0.2055 0.88398 0.0
C459 C 0.77332 0.17407 0.87921 0.0
C460 C 0.76795 0.17472 0.89096 0.0
C461 C 0.7895 0.18947 0.87557 0.0
C462 C 0.79478 0.20612 0.89572 0.0
C463 C 0.77284 0.19141 0.91155 0.0
O464 O 0.78368 0.20579 0.94896 0.0
O465 O 0.76886 0.22004 0.94232 0.0
O466 O 0.76841 0.20447 0.91397 0.0
O467 O 0.78354 0.19049 0.9205 0.0
H468 H 0.74423 0.17777 0.93784 0.0
H469 H 0.71505 0.15321 0.94482 0.0
H470 H 0.72924 0.18569 0.97997 0.0
H471 H 0.75845 0.2099 0.97298 0.0
H472 H 0.83694 0.28685 0.96545 0.0
H473 H 0.81526 0.25775 0.95245 0.0
H474 H 0.87485 0.30442 0.93725 0.0
H475 H 0.8533 0.27525 0.92448 0.0
H476 H 0.81255 0.21771 0.88144 0.0
H477 H 0.76492 0.16143 0.87303 0.0
H478 H 0.75546 0.1627 0.89357 0.0
H479 H 0.80318 0.21863 0.90202 0.0
C480 C 0.57541 0.82774 0.07007 0.0
C481 C 0.58044 0.84413 0.0777 0.0
C482 C 0.56762 0.85527 0.06181 0.0
C483 C 0.57661 0.85781 0.0736 0.0
C484 C 0.56279 0.83887 0.05418 0.0
C485 C 0.56666 0.82522 0.05828 0.0
U486 U 0.5914 0.80831 0.09564 0.0
O487 O 0.57906 0.77954 0.10121 0.0
O488 O 0.60754 0.79359 0.09554 0.0
C489 C 0.59352 0.77789 0.09864 0.0
C490 C 0.57875 0.81301 0.07447 0.0
C491 C 0.58894 0.7606 0.09106 0.0
C492 C 0.57511 0.73982 0.07225 0.0
C493 C 0.58004 0.75674 0.07915 0.0
C494 C 0.58819 0.73065 0.08905 0.0
C495 C 0.57904 0.72652 0.07715 0.0
C496 C 0.59308 0.74754 0.09593 0.0
C497 C 0.60828 0.83518 0.12706 0.0
C498 C 0.61793 0.82235 0.1435 0.0
C499 C 0.61601 0.8506 0.14771 0.0
C500 C 0.6103 0.84976 0.13536 0.0
C501 C 0.61975 0.83681 0.15194 0.0
C502 C 0.61222 0.82153 0.13118 0.0
C503 C 0.60141 0.83383 0.11424 0.0
O504 O 0.59643 0.81814 0.0773 0.0
O505 O 0.56777 0.80322 0.08263 0.0
O506 O 0.584 0.82037 0.11118 0.0
O507 O 0.61285 0.83468 0.10618 0.0
H508 H 0.58712 0.84623 0.08687 0.0
H509 H 0.58031 0.87016 0.07975 0.0
H510 H 0.55608 0.8366 0.045 0.0
H511 H 0.56271 0.81264 0.05228 0.0
H512 H 0.56828 0.73717 0.06308 0.0
H513 H 0.57679 0.76674 0.07526 0.0
H514 H 0.59119 0.72062 0.09316 0.0
H515 H 0.59988 0.75029 0.10513 0.0
H516 H 0.62096 0.81168 0.14642 0.0
H517 H 0.61706 0.86178 0.15398 0.0
H518 H 0.60721 0.86035 0.13232 0.0
H519 H 0.6107 0.81015 0.12486 0.0
C520 C 0.2686 0.82922 0.07949 0.0
C521 C 0.28479 0.83907 0.08776 0.0
C522 C 0.30246 0.85729 0.07163 0.0
C523 C 0.3016 0.85292 0.08385 0.0
C524 C 0.2861 0.84765 0.06346 0.0
C525 C 0.26935 0.83372 0.06735 0.0
U526 U 0.23284 0.80655 0.1028 0.0
O527 O 0.20198 0.79061 0.09998 0.0
O528 O 0.21728 0.77708 0.10707 0.0
C529 C 0.20099 0.77481 0.10287 0.0
C530 C 0.25094 0.81394 0.08319 0.0
C531 C 0.18865 0.75769 0.09443 0.0
C532 C 0.18151 0.72749 0.08415 0.0
C533 C 0.19391 0.74422 0.09139 0.0
C534 C 0.15846 0.73744 0.08263 0.0
C535 C 0.16356 0.7238 0.07974 0.0
C536 C 0.17083 0.75413 0.08993 0.0
C537 C 0.24047 0.83084 0.13472 0.0
C538 C 0.21896 0.81539 0.14989 0.0
C539 C 0.24539 0.84701 0.15489 0.0
C540 C 0.25086 0.84676 0.14313 0.0
C541 C 0.22939 0.8313 0.15843 0.0
C542 C 0.22445 0.81517 0.13814 0.0
C543 C 0.24655 0.83062 0.12246 0.0
O544 O 0.25258 0.80383 0.09154 0.0
O545 O 0.23785 0.81821 0.08493 0.0
O546 O 0.23593 0.83157 0.11347 0.0
O547 O 0.2514 0.8179 0.11996 0.0
H548 H 0.28451 0.83595 0.09721 0.0
H549 H 0.31391 0.86025 0.09039 0.0
H550 H 0.28634 0.85055 0.05397 0.0
H551 H 0.25702 0.82628 0.06083 0.0
H552 H 0.18584 0.71722 0.08229 0.0
H553 H 0.20747 0.74639 0.09478 0.0
H554 H 0.14486 0.73522 0.07927 0.0
H555 H 0.16634 0.76418 0.09219 0.0
H556 H 0.20672 0.80296 0.15235 0.0
H557 H 0.25359 0.85959 0.16116 0.0
H558 H 0.26324 0.85901 0.14061 0.0
H559 H 0.21628 0.80273 0.13174 0.0
C560 C 0.20963 0.45872 0.08215 0.0
C561 C 0.19568 0.45554 0.08989 0.0
C562 C 0.17969 0.46429 0.07451 0.0
C563 C 0.18084 0.45831 0.08611 0.0
C564 C 0.1937 0.46736 0.06677 0.0
C565 C 0.20855 0.46461 0.07057 0.0
U566 U 0.23468 0.44555 0.10622 0.0
O567 O 0.24927 0.42939 0.10457 0.0
O568 O 0.2646 0.45879 0.11266 0.0
C569 C 0.26564 0.44396 0.10874 0.0
C570 C 0.22542 0.45614 0.08615 0.0
C571 C 0.28118 0.44786 0.10134 0.0
C572 C 0.29664 0.45788 0.08282 0.0
C573 C 0.28148 0.45382 0.0896 0.0
C574 C 0.31123 0.44995 0.09944 0.0
C575 C 0.31177 0.4561 0.0877 0.0
C576 C 0.29609 0.44589 0.10618 0.0
C577 C 0.21185 0.43104 0.13624 0.0
C578 C 0.22285 0.41935 0.15276 0.0
C579 C 0.19782 0.4261 0.15542 0.0
C580 C 0.19884 0.43158 0.14357 0.0
C581 C 0.20983 0.41997 0.16019 0.0
C582 C 0.22389 0.42492 0.14088 0.0
C583 C 0.21257 0.43704 0.12385 0.0
O584 O 0.23687 0.46809 0.09529 0.0
O585 O 0.22106 0.43862 0.08739 0.0
O586 O 0.21048 0.4247 0.11488 0.0
O587 O 0.22588 0.45431 0.1226 0.0
H588 H 0.19629 0.45094 0.09887 0.0
H589 H 0.17018 0.45558 0.09223 0.0
H590 H 0.19338 0.4722 0.05785 0.0
H591 H 0.21924 0.46719 0.0645 0.0
H592 H 0.29668 0.46274 0.07387 0.0
H593 H 0.27007 0.45547 0.08574 0.0
H594 H 0.32248 0.44814 0.10339 0.0
H595 H 0.29605 0.44125 0.11522 0.0
H596 H 0.23238 0.41483 0.15619 0.0
H597 H 0.18745 0.42646 0.16081 0.0
H598 H 0.1894 0.43622 0.14012 0.0
H599 H 0.23409 0.42449 0.13533 0.0
C600 C 0.41755 0.8988 0.28239 0.0
C601 C 0.40014 0.88695 0.2756 0.0
C602 C 0.38402 0.89369 0.29124 0.0
C603 C 0.38357 0.88439 0.27999 0.0
C604 C 0.40152 0.90578 0.2979 0.0
C605 C 0.41806 0.90823 0.29354 0.0
U606 U 0.45333 0.91151 0.25875 0.0
O607 O 0.48415 0.9268 0.26137 0.0
O608 O 0.46881 0.89754 0.253 0.0
C609 C 0.48517 0.91207 0.25719 0.0
C610 C 0.43522 0.90109 0.27825 0.0
C611 C 0.49761 0.90769 0.26466 0.0
C612 C 0.50559 0.89718 0.28313 0.0
C613 C 0.49364 0.9016 0.27634 0.0
C614 C 0.52555 0.90499 0.26662 0.0
C615 C 0.52164 0.89871 0.27831 0.0
C616 C 0.51364 0.90941 0.25988 0.0
C617 C 0.44552 0.92774 0.22832 0.0
C618 C 0.4658 0.93237 0.21218 0.0
C619 C 0.44189 0.94116 0.20993 0.0
C620 C 0.43638 0.93515 0.2214 0.0
C621 C 0.45664 0.9398 0.20517 0.0
C622 C 0.46032 0.92644 0.22367 0.0
C623 C 0.43955 0.92146 0.24035 0.0
O624 O 0.43364 0.8891 0.2692 0.0
O625 O 0.44851 0.91852 0.2773 0.0
O626 O 0.45019 0.93326 0.24979 0.0
O627 O 0.43473 0.90385 0.24174 0.0
H628 H 0.39924 0.87945 0.26695 0.0
H629 H 0.37038 0.87478 0.27467 0.0
H630 H 0.40249 0.91344 0.30649 0.0
H631 H 0.4313 0.91745 0.29895 0.0
H632 H 0.50209 0.89225 0.29206 0.0
H633 H 0.48126 0.90015 0.28015 0.0
H634 H 0.53793 0.90664 0.26271 0.0
H635 H 0.51694 0.91416 0.25088 0.0
H636 H 0.47736 0.93136 0.20885 0.0
H637 H 0.43441 0.9466 0.20471 0.0
H638 H 0.42492 0.93624 0.22485 0.0
H639 H 0.46762 0.92085 0.22894 0.0
C640 C 0.11401 0.52823 0.2981 0.0
C641 C 0.10548 0.51002 0.29199 0.0
C642 C 0.12193 0.50099 0.30686 0.0
C643 C 0.10936 0.4965 0.29635 0.0
C644 C 0.1304 0.5193 0.31293 0.0
C645 C 0.12645 0.53277 0.30859 0.0
U646 U 0.09727 0.54695 0.27232 0.0
O647 O 0.08122 0.56176 0.27249 0.0
O648 O 0.10949 0.57557 0.26648 0.0
C649 C 0.09513 0.57733 0.26916 0.0
C650 C 0.11052 0.54276 0.29343 0.0
C651 C 0.09987 0.5948 0.27659 0.0
C652 C 0.11426 0.61614 0.29513 0.0
C653 C 0.10928 0.59909 0.28837 0.0
C654 C 0.10022 0.62457 0.27846 0.0
C655 C 0.10987 0.62913 0.29022 0.0
C656 C 0.09529 0.60756 0.27172 0.0
C657 C 0.0794 0.51938 0.24111 0.0
C658 C 0.07157 0.53292 0.22425 0.0
C659 C 0.06844 0.50199 0.22101 0.0
C660 C 0.07463 0.50327 0.23332 0.0
C661 C 0.06695 0.51686 0.21631 0.0
C662 C 0.07773 0.53416 0.23654 0.0
C663 C 0.08662 0.52099 0.25389 0.0
O664 O 0.12125 0.55218 0.28506 0.0
O665 O 0.09281 0.53767 0.2908 0.0
O666 O 0.07546 0.52043 0.26208 0.0
O667 O 0.10411 0.53442 0.25673 0.0
H668 H 0.09589 0.5063 0.28383 0.0
H669 H 0.10241 0.48251 0.29153 0.0
H670 H 0.14039 0.52337 0.32091 0.0
H671 H 0.13327 0.54681 0.31336 0.0
H672 H 0.12149 0.61912 0.30421 0.0
H673 H 0.11287 0.58933 0.29228 0.0
H674 H 0.09686 0.63434 0.27434 0.0
H675 H 0.08808 0.60446 0.26262 0.0
H676 H 0.07085 0.54473 0.22091 0.0
H677 H 0.06476 0.48934 0.21519 0.0
H678 H 0.07582 0.49173 0.23673 0.0
H679 H 0.08145 0.54675 0.24245 0.0
C680 C 0.42161 0.52824 0.28855 0.0
C681 C 0.4086 0.51277 0.28045 0.0
C682 C 0.38787 0.5003 0.29658 0.0
C683 C 0.39184 0.49892 0.28443 0.0
C684 C 0.40108 0.51582 0.30464 0.0
C685 C 0.41778 0.52965 0.30066 0.0
U686 U 0.45618 0.54907 0.26449 0.0
O687 O 0.47185 0.57825 0.25966 0.0
O688 O 0.48705 0.56457 0.26667 0.0
C689 C 0.48819 0.58024 0.26339 0.0
C690 C 0.43912 0.54312 0.28452 0.0
C691 C 0.50086 0.59745 0.27145 0.0
C692 C 0.50677 0.61993 0.28881 0.0
C693 C 0.49466 0.60303 0.28161 0.0
C694 C 0.53148 0.62557 0.27595 0.0
C695 C 0.52529 0.63151 0.286 0.0
C696 C 0.51936 0.60872 0.26875 0.0
C697 C 0.44735 0.52378 0.23291 0.0
C698 C 0.46771 0.53946 0.21723 0.0
C699 C 0.44299 0.5068 0.21312 0.0
C700 C 0.4377 0.50724 0.22492 0.0
C701 C 0.45799 0.52294 0.20912 0.0
C702 C 0.46246 0.53985 0.22903 0.0
C703 C 0.44152 0.52427 0.24522 0.0
O704 O 0.4519 0.53845 0.28264 0.0
O705 O 0.43711 0.5527 0.27595 0.0
O706 O 0.43688 0.53717 0.24767 0.0
O707 O 0.45229 0.52344 0.25415 0.0
H708 H 0.41139 0.51145 0.27107 0.0
H709 H 0.38208 0.48706 0.27802 0.0
H710 H 0.39836 0.51748 0.314 0.0
H711 H 0.42766 0.54154 0.30701 0.0
H712 H 0.50148 0.62414 0.2964 0.0
H713 H 0.4804 0.59445 0.28384 0.0
H714 H 0.54572 0.63393 0.27365 0.0
H715 H 0.5244 0.60457 0.26098 0.0
H716 H 0.47949 0.55204 0.21449 0.0
H717 H 0.43511 0.49393 0.20706 0.0
H718 H 0.42599 0.49471 0.22778 0.0
H719 H 0.47015 0.55272 0.23512 0.0
C720 C 0.53292 0.02151 0.05252 0.0
Eu721 Eu 0.52055 0.01817 0.02965 0.0
C722 C 0.52542 0.01417 0.06408 0.0
C723 C 0.53298 0.02612 0.07497 0.0
C724 C 0.52625 0.01953 0.08608 0.0
C725 C 0.51183 1.00079 0.08654 0.0
C726 C 0.5042 0.98884 0.07558 0.0
C727 C 0.51089 0.99548 0.06444 0.0
C728 C 0.50933 0.04027 0.01901 0.0
C729 C 0.4756 0.98675 0.02503 0.0
C730 C 0.48898 0.99996 0.98066 0.0
Eu731 Eu 0.50141 1.00386 1.00358 0.0
C732 C 0.49602 1.00799 0.96917 0.0
C733 C 0.48808 0.99661 0.95809 0.0
C734 C 0.49434 1.00388 0.94703 0.0
C735 C 0.5087 0.02272 0.94684 0.0
C736 C 0.51675 0.03407 0.958 0.0
C737 C 0.51048 0.02675 0.96908 0.0
C738 C 0.51252 0.98178 0.01438 0.0
C739 C 0.5462 0.03551 1.00824 0.0
O740 O 0.53283 1.0095 0.04416 0.0
O741 O 0.52804 0.033 0.04796 0.0
O742 O 0.52467 0.04687 0.02625 0.0
O743 O 0.50023 0.02249 0.01822 0.0
O744 O 0.49132 0.99452 0.03246 0.0
O745 O 0.4755 0.99004 1.01342 0.0
O746 O 0.48771 0.01106 0.98906 0.0
O747 O 0.49548 0.9897 0.98516 0.0
O748 O 0.4971 0.97515 1.00723 0.0
O749 O 0.52169 0.99954 0.01501 0.0
O750 O 0.5304 0.02813 1.00092 0.0
O751 O 0.54637 0.03166 0.01973 0.0
H752 H 0.5442 0.04057 0.07488 0.0
H753 H 0.53258 0.02902 0.09437 0.0
H754 H 0.49294 0.9744 0.0756 0.0
H755 H 0.50473 0.98603 0.05612 0.0
H756 H 0.4769 0.9821 0.95799 0.0
H757 H 0.48765 0.99484 0.93861 0.0
H758 H 0.52797 0.04856 0.95819 0.0
H759 H 0.51687 0.03575 0.97755 0.0
C760 C 1.0047 0.52664 0.05187 0.0
Eu761 Eu 1.00474 0.51446 0.02953 0.0
C762 C 1.0096 0.52437 0.06453 0.0
C763 C 0.99659 0.52053 0.0731 0.0
C764 C 1.00099 0.51888 0.08525 0.0
C765 C 0.01858 0.52116 0.08912 0.0
C766 C 0.03153 0.52475 0.08045 0.0
C767 C 0.02707 0.5263 0.06826 0.0
C768 C 0.98157 0.47907 0.01876 0.0
C769 C 0.03469 0.49944 0.02795 0.0
C770 C 0.01421 0.49292 0.98248 0.0
Eu771 Eu 0.01464 0.50586 1.00472 0.0
C772 C 1.00959 0.49546 0.96991 0.0
C773 C 1.00618 0.5101 0.96737 0.0
C774 C 1.00213 0.51245 0.95528 0.0
C775 C 1.00142 0.50015 0.94556 0.0
C776 C 1.00462 0.48536 0.94824 0.0
C777 C 1.00869 0.48307 0.96031 0.0
C778 C 0.03787 0.54129 0.01545 0.0
C779 C 0.9849 0.52116 1.00623 0.0
O780 O 0.01848 0.53559 0.04514 0.0
O781 O 0.9902 0.512 0.04582 0.0
O782 O 0.97589 0.48862 0.02516 0.0
O783 O 0.99914 0.48808 0.01892 0.0
O784 O 0.02873 0.50902 0.03454 0.0
O785 O 0.02868 0.49385 0.01627 0.0
O786 O 1.00014 0.4848 0.9891 0.0
O787 O 0.02899 0.50728 0.98853 0.0
O788 O 0.04348 0.53181 1.00889 0.0
O789 O 0.02031 0.53225 0.01533 0.0
O790 O 0.99105 0.51175 0.99965 0.0
O791 O 0.99051 0.5264 0.01799 0.0
H792 H 0.98301 0.51891 0.0704 0.0
H793 H 0.99054 0.51576 0.09161 0.0
H794 H 0.04527 0.52677 0.08312 0.0
H795 H 0.03737 0.52923 0.06181 0.0
H796 H 1.00679 0.51978 0.97472 0.0
H797 H 0.99988 0.52406 0.95353 0.0
H798 H 1.00382 0.47542 0.94102 0.0
H799 H 0.01116 0.47161 0.96214 0.0
C800 C 0.48687 0.49571 0.98144 0.0
Eu801 Eu 0.50068 0.5076 1.00418 0.0
C802 C 0.4937 0.49649 0.9693 0.0
C803 C 0.48435 0.49923 0.95929 0.0
C804 C 0.49041 0.49987 0.94765 0.0
C805 C 0.50597 0.49774 0.94578 0.0
C806 C 0.51542 0.49514 0.95589 0.0
C807 C 0.50934 0.49452 0.96754 0.0
C808 C 0.51354 0.54276 0.015 0.0
C809 C 0.54576 0.52202 1.00728 0.0
C810 C 0.53499 0.52764 0.05237 0.0
Eu811 Eu 0.52147 0.51587 0.02961 0.0
C812 C 0.52776 0.52663 0.06441 0.0
C813 C 0.53565 0.52192 0.07427 0.0
C814 C 0.52912 0.52091 0.08578 0.0
C815 C 0.51458 0.52468 0.08767 0.0
C816 C 0.50664 0.52935 0.07776 0.0
C817 C 0.51313 0.53027 0.06622 0.0
C818 C 0.50865 0.48072 0.01873 0.0
C819 C 0.47644 0.50146 0.02659 0.0
O820 O 0.48984 0.48553 0.98905 0.0
O821 O 0.48967 0.51164 0.98678 0.0
O822 O 0.49769 0.53326 1.00824 0.0
O823 O 0.52221 0.53378 0.01523 0.0
O824 O 0.52959 0.51271 1.0003 0.0
O825 O 0.54657 0.52737 0.01894 0.0
O826 O 0.53225 0.53792 0.04474 0.0
O827 O 0.5324 0.51179 0.04702 0.0
O828 O 0.5245 0.49024 0.02549 0.0
O829 O 0.49996 0.48969 0.01856 0.0
O830 O 0.49263 0.51071 0.03352 0.0
O831 O 0.47555 0.49622 0.01489 0.0
H832 H 0.47231 0.50088 0.96047 0.0
H833 H 0.48298 0.5022 0.94012 0.0
H834 H 0.52733 0.49325 0.95477 0.0
H835 H 0.51677 0.49235 0.97514 0.0
H836 H 0.54696 0.51908 0.07307 0.0
H837 H 0.53567 0.51749 0.09326 0.0
H838 H 0.49528 0.53212 0.07889 0.0
H839 H 0.50671 0.53384 0.05875 0.0
C840 C 0.20168 0.35207 0.38549 0.0
Eu841 Eu 0.18862 0.35082 0.36308 0.0
C842 C 0.19449 0.34561 0.39725 0.0
C843 C 0.17665 0.34201 0.39983 0.0
C844 C 0.17024 0.3361 0.41116 0.0
C845 C 0.18158 0.33368 0.42012 0.0
C846 C 0.19934 0.33707 0.41737 0.0
C847 C 0.20571 0.34298 0.40606 0.0
C848 C 0.17741 0.37386 0.35387 0.0
C849 C 0.14326 0.3206 0.35872 0.0
C850 C 0.15596 0.33567 0.31446 0.0
Eu851 Eu 0.1687 0.33814 0.33713 0.0
C852 C 0.16319 0.34322 0.30288 0.0
C853 C 0.15572 0.33127 0.29198 0.0
C854 C 0.16204 0.33807 0.28083 0.0
C855 C 0.17593 0.35701 0.28034 0.0
C856 C 0.18355 0.36893 0.29131 0.0
C857 C 0.17728 0.36209 0.30249 0.0
C858 C 0.17987 0.31526 0.34664 0.0
C859 C 0.21375 0.36881 0.3415 0.0
O860 O 0.19854 0.3389 0.37691 0.0
O861 O 0.19923 0.36543 0.38136 0.0
O862 O 0.19279 0.3799 0.36098 0.0
O863 O 0.16819 0.35607 0.35256 0.0
O864 O 0.15908 0.32791 0.36601 0.0
O865 O 0.14302 0.32432 0.3472 0.0
O866 O 0.15642 0.34755 0.32309 0.0
O867 O 0.16071 0.32387 0.31865 0.0
O868 O 0.1642 0.30906 0.33985 0.0
O869 O 0.18915 0.33301 0.34763 0.0
O870 O 0.19781 0.36213 0.33443 0.0
O871 O 0.21409 0.36423 0.35279 0.0
H872 H 0.16774 0.34391 0.39311 0.0
H873 H 0.15656 0.33377 0.41299 0.0
H874 H 0.20829 0.33501 0.42393 0.0
H875 H 0.21946 0.34553 0.40418 0.0
H876 H 0.14484 0.31667 0.29209 0.0
H877 H 0.15572 0.32858 0.27254 0.0
H878 H 0.19441 0.38354 0.29125 0.0
H879 H 0.18337 0.37155 0.31081 0.0
C880 C 0.67284 0.86072 0.38563 0.0
Eu881 Eu 0.672 0.84811 0.36323 0.0
C882 C 0.67794 0.85832 0.39827 0.0
C883 C 0.6638 0.84734 0.40561 0.0
C884 C 0.66832 0.84561 0.41772 0.0
C885 C 0.68708 0.855 0.42282 0.0
C886 C 0.70125 0.86592 0.41547 0.0
C887 C 0.69674 0.86757 0.40332 0.0
C888 C 0.6487 0.81252 0.35285 0.0
C889 C 0.70203 0.83319 0.36137 0.0
C890 C 0.68028 0.82585 0.31604 0.0
Eu891 Eu 0.68126 0.8391 0.3383 0.0
C892 C 0.67485 0.82782 0.30353 0.0
C893 C 0.67066 0.84197 0.301 0.0
C894 C 0.66567 0.84366 0.28896 0.0
C895 C 0.66471 0.83117 0.2793 0.0
C896 C 0.66884 0.81698 0.28194 0.0
C897 C 0.67386 0.81534 0.29395 0.0
C898 C 0.70458 0.87471 0.3487 0.0
C899 C 0.65145 0.85426 0.34007 0.0
O900 O 0.68646 0.86936 0.37872 0.0
O901 O 0.65797 0.84638 0.37964 0.0
O902 O 0.64318 0.82213 0.35936 0.0
O903 O 0.66623 0.82159 0.35274 0.0
O904 O 0.69607 0.84272 0.36802 0.0
O905 O 0.69589 0.82753 0.34972 0.0
O906 O 0.66664 0.81755 0.32296 0.0
O907 O 0.69501 0.84062 0.32181 0.0
O908 O 0.7101 0.86516 0.34213 0.0
O909 O 0.68705 0.86562 0.34878 0.0
O910 O 0.65739 0.84468 0.33347 0.0
O911 O 0.65744 0.85983 0.35177 0.0
H912 H 0.64918 0.84025 0.40203 0.0
H913 H 0.65708 0.83731 0.4232 0.0
H914 H 0.71585 0.87318 0.4191 0.0
H915 H 0.70799 0.87623 0.39795 0.0
H916 H 0.67127 0.85167 0.30833 0.0
H917 H 0.66239 0.85461 0.28722 0.0
H918 H 0.66848 0.8073 0.2747 0.0
H919 H 0.67708 0.80436 0.29577 0.0
C920 C 0.15354 0.82945 0.31547 0.0
Eu921 Eu 0.16731 0.84064 0.33825 0.0
C922 C 0.16047 0.83013 0.30337 0.0
C923 C 0.15126 0.83291 0.29329 0.0
C924 C 0.1574 0.83344 0.28169 0.0
C925 C 0.1729 0.83116 0.27992 0.0
C926 C 0.18222 0.82853 0.2901 0.0
C927 C 0.17608 0.82804 0.30172 0.0
C928 C 0.18012 0.87537 0.34975 0.0
C929 C 0.21234 0.85458 0.34117 0.0
C930 C 0.2018 0.85878 0.38642 0.0
Eu931 Eu 0.18807 0.84781 0.36361 0.0
C932 C 0.1948 0.85875 0.39842 0.0
C933 C 0.2032 0.85531 0.40863 0.0
C934 C 0.19675 0.85505 0.42011 0.0
C935 C 0.18174 0.85824 0.4216 0.0
C936 C 0.17329 0.86163 0.41131 0.0
C937 C 0.17977 0.8619 0.39982 0.0
C938 C 0.17535 0.81316 0.35198 0.0
C939 C 0.14315 0.83393 0.36074 0.0
O940 O 0.15585 0.81877 0.32298 0.0
O941 O 0.15693 0.84554 0.32092 0.0
O942 O 0.1643 0.86613 0.34293 0.0
O943 O 0.18881 0.86638 0.34969 0.0
O944 O 0.19623 0.84614 0.33411 0.0
O945 O 0.2132 0.85901 0.353 0.0
O946 O 0.20053 0.86988 0.37878 0.0
O947 O 0.19741 0.84229 0.38108 0.0
O948 O 0.19121 0.82244 0.35877 0.0
O949 O 0.16662 0.8221 0.35217 0.0
O950 O 0.15935 0.84284 0.36768 0.0
O951 O 0.1422 0.82909 0.34897 0.0
H952 H 0.13926 0.83466 0.2944 0.0
H953 H 0.15009 0.83582 0.27412 0.0
H954 H 0.19408 0.82654 0.28906 0.0
H955 H 0.18344 0.8259 0.30938 0.0
H956 H 0.21474 0.85275 0.40772 0.0
H957 H 0.20339 0.8521 0.42778 0.0
H958 H 0.16184 0.86433 0.41215 0.0
H959 H 0.17308 0.86462 0.39206 0.0
C960 C 0.86662 0.68702 0.71943 0.0
Eu961 Eu 0.85342 0.68471 0.69689 0.0
C962 C 0.85962 0.67982 0.73112 0.0
C963 C 0.86831 0.69154 0.74201 0.0
C964 C 0.86208 0.68508 0.75325 0.0
C965 C 0.84701 0.6667 0.75384 0.0
C966 C 0.83821 0.65503 0.74287 0.0
C967 C 0.84445 0.66153 0.73161 0.0
C968 C 0.84178 0.70734 0.68757 0.0
C969 C 0.80836 0.6538 0.69267 0.0
C970 C 0.82028 0.66922 0.64847 0.0
Eu971 Eu 0.83339 0.67171 0.67105 0.0
C972 C 0.82729 0.67576 0.63664 0.0
C973 C 0.81884 0.66335 0.626 0.0
C974 C 0.82478 0.66926 0.61461 0.0
C975 C 0.83926 0.68779 0.61359 0.0
C976 C 0.84794 0.70013 0.62433 0.0
C977 C 0.84202 0.69416 0.63575 0.0
C978 C 0.84521 0.64925 0.68047 0.0
C979 C 0.87846 0.70275 0.67524 0.0
O980 O 0.86538 0.67476 0.71078 0.0
O981 O 0.86234 0.69919 0.71532 0.0
O982 O 0.85738 0.71361 0.69446 0.0
O983 O 0.83266 0.68955 0.68642 0.0
O984 O 0.82434 0.66073 0.69974 0.0
O985 O 0.80792 0.65819 0.68133 0.0
O986 O 0.82215 0.68201 0.65695 0.0
O987 O 0.82382 0.65667 0.65278 0.0
O988 O 0.8295 0.64282 0.67367 0.0
O989 O 0.85422 0.66701 0.68147 0.0
O990 O 0.86251 0.69547 0.66809 0.0
O991 O 0.87891 0.6987 0.68666 0.0
H992 H 0.87996 0.70574 0.74182 0.0
H993 H 0.86898 0.69457 0.76148 0.0
H994 H 0.82669 0.64075 0.74298 0.0
H995 H 0.83753 0.65223 0.72331 0.0
H996 H 0.80754 0.64905 0.6265 0.0
H997 H 0.81802 0.65925 0.60659 0.0
H998 H 0.85902 0.71453 0.62389 0.0
H999 H 0.84882 0.704 0.64385 0.0
C1000 C 0.33762 0.19434 0.71833 0.0
Eu1001 Eu 0.33791 0.18186 0.69611 0.0
C1002 C 0.34267 0.1925 0.73103 0.0
C1003 C 0.33056 0.19076 0.73987 0.0
C1004 C 0.33509 0.18936 0.75205 0.0
C1005 C 0.3519 0.18975 0.75564 0.0
C1006 C 0.36394 0.19127 0.7467 0.0
C1007 C 0.35936 0.19262 0.73449 0.0
C1008 C 0.31464 0.14652 0.68531 0.0
C1009 C 0.36774 0.16662 0.69483 0.0
C1010 C 0.34791 0.16022 0.64925 0.0
Eu1011 Eu 0.34805 0.17311 0.67144 0.0
C1012 C 0.34294 0.16245 0.63668 0.0
C1013 C 0.33967 0.17716 0.63408 0.0
C1014 C 0.33524 0.1792 0.62199 0.0
C1015 C 0.33398 0.16651 0.61234 0.0
C1016 C 0.33704 0.15165 0.61509 0.0
C1017 C 0.3415 0.14967 0.62715 0.0
C1018 C 0.37139 0.20842 0.68227 0.0
C1019 C 0.31836 0.18851 0.67264 0.0
O1020 O 0.35136 0.20333 0.71156 0.0
O1021 O 0.32333 0.17938 0.71238 0.0
O1022 O 0.30898 0.15619 0.69161 0.0
O1023 O 0.33223 0.15541 0.68557 0.0
O1024 O 0.36171 0.17622 0.70134 0.0
O1025 O 0.36192 0.16108 0.68312 0.0
O1026 O 0.33398 0.15175 0.65593 0.0
O1027 O 0.36247 0.17489 0.65523 0.0
O1028 O 0.37701 0.19877 0.67589 0.0
O1029 O 0.3538 0.19957 0.68198 0.0
O1030 O 0.32457 0.17908 0.66615 0.0
O1031 O 0.32382 0.19376 0.68441 0.0
H1032 H 0.31758 0.19054 0.73736 0.0
H1033 H 0.32534 0.18787 0.75864 0.0
H1034 H 0.37707 0.19179 0.74916 0.0
H1035 H 0.36892 0.19392 0.72781 0.0
H1036 H 0.34067 0.18713 0.64137 0.0
H1037 H 0.33311 0.19087 0.62019 0.0
H1038 H 0.33583 0.14142 0.60793 0.0
H1039 H 0.34385 0.13815 0.62904 0.0
C1040 C 0.82094 0.16335 0.64871 0.0
Eu1041 Eu 0.83484 0.17506 0.67143 0.0
C1042 C 0.82771 0.16385 0.63657 0.0
C1043 C 0.81906 0.16758 0.62663 0.0
C1044 C 0.82506 0.16798 0.615 0.0
C1045 C 0.83985 0.16461 0.61305 0.0
C1046 C 0.8486 0.161 0.62308 0.0
C1047 C 0.84259 0.16063 0.63473 0.0
C1048 C 0.84833 0.21029 0.68235 0.0
C1049 C 0.87969 0.18849 0.67445 0.0
C1050 C 0.86931 0.19428 0.71962 0.0
Eu1051 Eu 0.85559 0.1828 0.69686 0.0
C1052 C 0.86217 0.19357 0.73166 0.0
C1053 C 0.87066 0.18989 0.74172 0.0
C1054 C 0.86416 0.18913 0.75322 0.0
C1055 C 0.84901 0.19204 0.7549 0.0
C1056 C 0.84047 0.19563 0.74476 0.0
C1057 C 0.84699 0.1964 0.73325 0.0
C1058 C 0.8421 0.14763 0.68582 0.0
C1059 C 0.81073 0.16925 0.69389 0.0
O1060 O 0.82345 0.15292 0.65633 0.0
O1061 O 0.8242 0.17947 0.65403 0.0
O1062 O 0.8325 0.20108 0.67554 0.0
O1063 O 0.85671 0.201 0.68257 0.0
O1064 O 0.8635 0.17956 0.66749 0.0
O1065 O 0.88065 0.19378 0.68614 0.0
O1066 O 0.86698 0.20484 0.71202 0.0
O1067 O 0.86611 0.17821 0.71425 0.0
O1068 O 0.858 0.15682 0.69256 0.0
O1069 O 0.83375 0.15693 0.68575 0.0
O1070 O 0.82693 0.17816 0.70083 0.0
O1071 O 0.80975 0.16412 0.68216 0.0
H1072 H 0.80761 0.17019 0.62788 0.0
H1073 H 0.81821 0.17112 0.60754 0.0
H1074 H 0.85989 0.15814 0.62189 0.0
H1075 H 0.84949 0.1577 0.64226 0.0
H1076 H 0.88233 0.18758 0.74067 0.0
H1077 H 0.87088 0.18604 0.76078 0.0
H1078 H 0.82892 0.19814 0.74574 0.0
H1079 H 0.84024 0.19931 0.72562 0.0
H1080 H 0.30835 0.88512 0.05681 0.0
H1081 H 0.33777 0.90754 0.049 0.0
H1082 H 0.36659 0.88408 0.0689 0.0
H1083 H 0.33722 0.86149 0.07665 0.0
H1084 H 0.37369 0.93482 0.0631 0.0
H1085 H 0.37766 0.88122 0.0323 0.0
H1086 H 0.35616 0.87701 0.03825 0.0
H1087 H 0.37382 0.8759 0.04786 0.0
C1088 C 0.32094 0.8847 0.05949 0.0
C1089 C 0.32044 0.87147 0.06731 0.0
C1090 C 0.33774 0.89757 0.05507 0.0
C1091 C 0.35428 0.89732 0.05828 0.0
C1092 C 0.35392 0.88436 0.06622 0.0
H1093 H 0.46966 0.9792 0.04882 0.0
H1094 H 0.44012 0.95794 0.05685 0.0
C1095 C 0.33716 0.87158 0.07072 0.0
C1096 C 0.3719 0.91053 0.05324 0.0
H1097 H 0.40372 0.91225 0.03418 0.0
C1098 C 0.38028 0.92993 0.05677 0.0
C1099 C 0.38031 0.90407 0.04489 0.0
C1100 C 0.37151 0.88343 0.04049 0.0
C1101 C 0.39706 0.94304 0.05232 0.0
C1102 C 0.40568 0.93653 0.04418 0.0
C1103 C 0.39713 0.91716 0.04049 0.0
C1104 C 0.42354 0.94962 0.03933 0.0
C1105 C 0.40534 0.96377 0.05623 0.0
C1106 C 0.42406 0.95177 0.02678 0.0
C1107 C 0.44092 0.96393 0.02213 0.0
C1108 C 0.45765 0.97402 0.02995 0.0
C1109 C 0.45707 0.9717 0.04253 0.0
C1110 C 0.44018 0.95962 0.04716 0.0
H1111 H 0.39505 0.96677 0.06035 0.0
H1112 H 0.41749 0.96843 0.06316 0.0
H1113 H 0.41042 0.97225 0.04834 0.0
H1114 H 0.41137 0.94409 0.02058 0.0
H1115 H 0.44085 0.9653 1.0124 0.0
H1116 H 0.15976 0.45472 0.05195 0.0
H1117 H 0.13447 0.46054 0.04529 0.0
H1118 H 0.13835 0.48614 0.08138 0.0
H1119 H 0.16401 0.48088 0.08804 0.0
H1120 H 0.09953 0.44787 0.05472 0.0
H1121 H 0.14223 0.52621 0.05901 0.0
H1122 H 0.15263 0.51139 0.05896 0.0
H1123 H 0.14342 0.51529 0.07249 0.0
C1124 C 0.15538 0.46178 0.05844 0.0
C1125 C 0.16401 0.46744 0.07051 0.0
C1126 C 0.14084 0.46497 0.05464 0.0
C1127 C 0.1347 0.474 0.06279 0.0
C1128 C 0.14307 0.47943 0.07489 0.0
H1129 H 0.05084 0.50861 0.05168 0.0
H1130 H 0.07416 0.50161 0.06086 0.0
C1131 C 0.15761 0.47622 0.07871 0.0
C1132 C 0.11942 0.47754 0.05862 0.0
H1133 H 0.10969 0.51266 0.05375 0.0
C1134 C 0.10173 0.46203 0.05451 0.0
C1135 C 0.12232 0.49602 0.05843 0.0
C1136 C 0.1412 0.51322 0.06236 0.0
C1137 C 0.08684 0.46451 0.05021 0.0
C1138 C 0.08982 0.483 0.04979 0.0
C1139 C 0.10742 0.4985 0.0541 0.0
C1140 C 0.07515 0.48661 0.0444 0.0
C1141 C 0.06798 0.44728 0.04626 0.0
C1142 C 0.06807 0.48063 0.03209 0.0
C1143 C 0.05476 0.48458 0.02683 0.0
C1144 C 0.04832 0.49472 0.03374 0.0
C1145 C 0.05543 0.50071 0.04609 0.0
C1146 C 0.06878 0.49674 0.05136 0.0
H1147 H 0.06649 0.43465 0.05047 0.0
H1148 H 0.0564 0.44959 0.04873 0.0
H1149 H 0.0665 0.44424 0.03619 0.0
H1150 H 0.07309 0.47317 0.02647 0.0
H1151 H 0.04971 0.47985 0.01728 0.0
H1152 H 0.546 0.70348 0.06299 0.0
H1153 H 0.53589 0.67267 0.05208 0.0
H1154 H 0.58858 0.67719 0.06439 0.0
H1155 H 0.59886 0.70806 0.07526 0.0
H1156 H 0.55231 0.66246 0.03363 0.0
H1157 H 0.54961 0.62639 0.07539 0.0
H1158 H 0.55106 0.64911 0.07589 0.0
H1159 H 0.57163 0.64734 0.07418 0.0
C1160 C 0.55552 0.69802 0.06328 0.0
C1161 C 0.5732 0.70819 0.07006 0.0
C1162 C 0.54968 0.68037 0.05709 0.0
C1163 C 0.56136 0.67251 0.05761 0.0
C1164 C 0.57919 0.68281 0.06411 0.0
H1165 H 0.54775 0.56555 0.02775 0.0
H1166 H 0.55977 0.59738 0.03781 0.0
C1167 C 0.58504 0.70045 0.07031 0.0
C1168 C 0.55485 0.65355 0.05133 0.0
H1169 H 0.54459 0.60885 0.05638 0.0
C1170 C 0.55057 0.65072 0.03859 0.0
C1171 C 0.55263 0.63828 0.05785 0.0
C1172 C 0.5563 0.6403 0.07159 0.0
C1173 C 0.54434 0.63305 0.03216 0.0
C1174 C 0.54203 0.61776 0.03868 0.0
C1175 C 0.54641 0.62062 0.05141 0.0
C1176 C 0.53479 0.59859 0.0325 0.0
C1177 C 0.54059 0.63099 0.01842 0.0
C1178 C 0.51669 0.58866 0.02633 0.0
C1179 C 0.5098 0.57049 0.02062 0.0
C1180 C 0.52086 0.56193 0.02105 0.0
C1181 C 0.53892 0.57182 0.02731 0.0
C1182 C 0.5458 0.58998 0.03303 0.0
H1183 H 0.54765 0.64487 0.0146 0.0
H1184 H 0.54538 0.62179 0.01412 0.0
H1185 H 0.52529 0.6244 0.01588 0.0
H1186 H 0.50783 0.59489 0.02603 0.0
H1187 H 0.49578 0.56313 0.01593 0.0
H1188 H 0.84886 0.32077 0.96619 0.0
H1189 H 0.87046 0.35102 0.97795 0.0
H1190 H 0.91743 0.34612 0.96761 0.0
H1191 H 0.89597 0.31581 0.95592 0.0
H1192 H 0.89838 0.36002 0.99747 0.0
H1193 H 0.92894 0.39781 0.95703 0.0
H1194 H 0.90751 0.37529 0.95574 0.0
H1195 H 0.92978 0.3765 0.95822 0.0
C1196 C 0.86377 0.32602 0.96652 0.0
C1197 C 0.87068 0.31592 0.96003 0.0
C1198 C 0.8761 0.34335 0.9732 0.0
C1199 C 0.89554 0.35096 0.97347 0.0
C1200 C 0.90248 0.34071 0.96729 0.0
H1201 H 0.9917 0.45645 1.00626 0.0
H1202 H 0.97093 0.42494 0.99565 0.0
C1203 C 0.89019 0.32339 0.96061 0.0
C1204 C 0.90856 0.36964 0.98022 0.0
H1205 H 0.94296 0.41442 0.97647 0.0
C1206 C 0.9081 0.37194 0.99289 0.0
C1207 C 0.92125 0.38514 0.9742 0.0
C1208 C 0.92186 0.38369 0.96053 0.0
C1209 C 0.92018 0.38928 0.99975 0.0
C1210 C 0.93279 0.40482 0.99373 0.0
C1211 C 0.93331 0.40248 0.98106 0.0
C1212 C 0.94534 0.42372 1.00035 0.0
C1213 C 0.91956 0.39073 1.01342 0.0
C1214 C 0.93783 0.43356 1.00638 0.0
C1215 C 0.94965 0.45153 1.01243 0.0
C1216 C 0.96918 0.46002 1.01247 0.0
C1217 C 0.97669 0.45022 1.00637 0.0
C1218 C 0.96486 0.43224 1.00032 0.0
H1219 H 0.91305 0.37662 0.01696 0.0
H1220 H 0.93385 0.39967 0.01822 0.0
H1221 H 0.91105 0.39728 0.01569 0.0
H1222 H 0.9228 0.42744 1.0063 0.0
H1223 H 0.94348 0.45883 0.01699 0.0
H1224 H 0.70641 0.5833 0.96354 0.0
H1225 H 0.6776 0.57824 0.97184 0.0
H1226 H 0.65712 0.51842 0.96996 0.0
H1227 H 0.68587 0.52336 0.96172 0.0
H1228 H 0.64061 0.55721 0.96256 0.0
H1229 H 0.65246 0.53048 1.00541 0.0
H1230 H 0.67053 0.54192 0.99535 0.0
H1231 H 0.65283 0.5175 0.99189 0.0
C1232 C 0.69572 0.56905 0.96481 0.0
C1233 C 0.69851 0.55375 0.96207 0.0
C1234 C 0.67929 0.5662 0.9696 0.0
C1235 C 0.66536 0.548 0.97175 0.0
C1236 C 0.66788 0.53264 0.96869 0.0
H1237 H 0.54975 0.51079 0.98429 0.0
H1238 H 0.57876 0.51777 0.97561 0.0
C1239 C 0.68432 0.53549 0.96397 0.0
C1240 C 0.64815 0.54505 0.97715 0.0
H1241 H 0.62234 0.52708 1.00113 0.0
C1242 C 0.63664 0.5507 0.97102 0.0
C1243 C 0.64314 0.53682 0.98829 0.0
C1244 C 0.65547 0.5315 0.9957 0.0
C1245 C 0.62005 0.54798 0.97561 0.0
C1246 C 0.61465 0.53904 0.98649 0.0
C1247 C 0.62637 0.53375 0.99273 0.0
C1248 C 0.59698 0.53512 0.99163 0.0
C1249 C 0.60865 0.55499 0.96885 0.0
C1250 C 0.59748 0.54215 1.00364 0.0
C1251 C 0.58087 0.53801 1.00869 0.0
C1252 C 0.56339 0.52669 1.00184 0.0
C1253 C 0.56294 0.51967 0.9898 0.0
C1254 C 0.57955 0.52375 0.98478 0.0
H1255 H 0.61723 0.56612 0.96294 0.0
H1256 H 0.59702 0.54308 0.96288 0.0
H1257 H 0.60251 0.56076 0.9753 0.0
H1258 H 0.61075 0.55088 1.00913 0.0
H1259 H 0.58178 0.54366 0.01799 0.0
H1260 H 0.45704 0.14045 0.95828 0.0
H1261 H 0.46451 0.1169 0.9651 0.0
H1262 H 0.46606 0.13593 1.00266 0.0
H1263 H 0.45772 0.15889 0.99593 0.0
H1264 H 0.49539 0.12233 0.97856 0.0
H1265 H 0.43295 0.07953 1.00267 0.0
H1266 H 0.43409 0.09663 0.99259 0.0
H1267 H 0.44472 0.10409 1.00812 0.0
C1268 C 0.45859 0.13939 0.96799 0.0
C1269 C 0.45668 0.15154 0.97655 0.0
C1270 C 0.46301 0.126 0.97187 0.0
C1271 C 0.46557 0.12444 0.98439 0.0
C1272 C 0.46375 0.13658 0.99295 0.0
H1273 H 0.52778 0.07855 0.01976 0.0
H1274 H 0.51679 0.09823 1.01059 0.0
C1275 C 0.45924 0.1499 0.98909 0.0
C1276 C 0.47097 0.11073 0.98849 0.0
H1277 H 0.45907 0.07491 1.00678 0.0
C1278 C 0.48736 0.11185 0.98464 0.0
C1279 C 0.46032 0.09683 0.99626 0.0
C1280 C 0.44194 0.09403 1.00005 0.0
C1281 C 0.4937 0.09988 0.98867 0.0
C1282 C 0.48363 0.08673 0.997 0.0
C1283 C 0.46691 0.08516 1.00052 0.0
C1284 C 0.49039 0.07474 1.00237 0.0
C1285 C 0.51106 0.10135 0.98389 0.0
C1286 C 0.47899 0.055 1.0011 0.0
C1287 C 0.48515 0.04374 1.00647 0.0
C1288 C 0.50281 0.05204 1.01322 0.0
C1289 C 0.51416 0.07178 0.01454 0.0
C1290 C 0.50796 0.08303 1.00922 0.0
H1291 H 0.51364 0.10761 0.97501 0.0
H1292 H 0.52339 0.11064 0.99053 0.0
H1293 H 0.50997 0.08731 0.98267 0.0
H1294 H 0.46532 0.04832 0.99594 0.0
H1295 H 0.47604 0.02856 1.00543 0.0
H1296 H 0.71429 0.15356 0.98538 0.0
H1297 H 0.68479 0.1304 0.99263 0.0
H1298 H 0.65547 0.12501 0.95758 0.0
H1299 H 0.68488 0.14828 0.95027 0.0
H1300 H 0.65248 0.13293 0.99418 0.0
H1301 H 0.63768 0.07002 0.96363 0.0
H1302 H 0.66045 0.09113 0.96582 0.0
H1303 H 0.64197 0.09028 0.95586 0.0
C1304 C 0.70157 0.14749 0.97921 0.0
C1305 C 0.70197 0.1528 0.96723 0.0
C1306 C 0.68474 0.13418 0.98335 0.0
C1307 C 0.66797 0.1258 0.9756 0.0
C1308 C 0.6683 0.13098 0.96364 0.0
H1309 H 0.55157 0.04712 0.98519 0.0
H1310 H 0.58107 0.06913 0.97742 0.0
C1311 C 0.68514 0.1443 0.95947 0.0
C1312 C 0.65006 0.11223 0.98023 0.0
H1313 H 0.61355 0.06682 0.97564 0.0
C1314 C 0.644 0.11845 0.99017 0.0
C1315 C 0.63899 0.09336 0.97494 0.0
C1316 C 0.64513 0.0857 0.96454 0.0
C1317 C 0.62704 0.10641 0.99487 0.0
C1318 C 0.61601 0.08752 0.98962 0.0
C1319 C 0.62203 0.0813 0.97965 0.0
C1320 C 0.59818 0.074 0.99436 0.0
C1321 C 0.62089 0.11415 1.00523 0.0
C1322 C 0.59803 0.06921 1.00641 0.0
C1323 C 0.58118 0.05666 1.01091 0.0
C1324 C 0.56413 0.04854 1.0034 0.0
C1325 C 0.56439 0.05314 0.99125 0.0
C1326 C 0.58126 0.06571 0.98677 0.0
H1327 H 0.62823 0.12982 1.00603 0.0
H1328 H 0.60555 0.1086 1.00399 0.0
H1329 H 0.62421 0.10978 1.01396 0.0
H1330 H 0.61097 0.07514 1.01235 0.0
H1331 H 0.58154 0.05336 0.02028 0.0
H1332 H 0.87188 0.54632 0.93555 0.0
H1333 H 0.89376 0.53933 0.94677 0.0
H1334 H 0.88852 0.56574 0.98005 0.0
H1335 H 0.86665 0.57289 0.96887 0.0
H1336 H 0.92809 0.56485 0.95974 0.0
H1337 H 0.87944 0.51475 0.99008 0.0
H1338 H 0.8713 0.52148 0.97673 0.0
H1339 H 0.88047 0.53716 0.99056 0.0
C1340 C 0.8754 0.5507 0.94525 0.0
C1341 C 0.86751 0.5602 0.95131 0.0
C1342 C 0.88785 0.54661 0.95166 0.0
C1343 C 0.89261 0.55181 0.96427 0.0
C1344 C 0.88475 0.56124 0.97037 0.0
H1345 H 0.96855 0.53975 0.01662 0.0
H1346 H 0.9467 0.54791 1.00654 0.0
C1347 C 0.87225 0.56533 0.96397 0.0
C1348 C 0.90631 0.5479 0.97088 0.0
H1349 H 0.91145 0.52375 0.99371 0.0
C1350 C 0.92445 0.55584 0.96716 0.0
C1351 C 0.90155 0.5362 0.98058 0.0
C1352 C 0.8821 0.52675 0.98469 0.0
C1353 C 0.93799 0.55249 0.97292 0.0
C1354 C 0.93317 0.54061 0.98252 0.0
C1355 C 0.91511 0.53285 0.98634 0.0
C1356 C 0.94658 0.53581 0.98857 0.0
C1357 C 0.95743 0.56193 0.96879 0.0
C1358 C 0.95362 0.52613 0.98183 0.0
C1359 C 0.96612 0.52146 0.98754 0.0
C1360 C 0.97177 0.52629 1.00015 0.0
C1361 C 0.96458 0.53587 1.0069 0.0
C1362 C 0.95205 0.54052 1.00116 0.0
H1363 H 0.96029 0.57436 0.96379 0.0
H1364 H 0.96825 0.56658 0.97668 0.0
H1365 H 0.95878 0.55174 0.96251 0.0
H1366 H 0.9493 0.52202 0.97215 0.0
H1367 H 0.97128 0.51399 0.98207 0.0
H1368 H 0.44874 0.32882 0.94727 0.0
H1369 H 0.45932 0.3597 0.95811 0.0
H1370 H 0.46123 0.33757 0.99248 0.0
H1371 H 0.44988 0.30635 0.98174 0.0
H1372 H 0.44506 0.35998 0.99337 0.0
H1373 H 0.51263 0.39606 0.97302 0.0
H1374 H 0.49261 0.38433 0.96185 0.0
H1375 H 0.49808 0.3707 0.97183 0.0
C1376 C 0.45118 0.33042 0.95715 0.0
C1377 C 0.44849 0.31508 0.96363 0.0
C1378 C 0.45747 0.34817 0.96331 0.0
C1379 C 0.4614 0.35102 0.97607 0.0
C1380 C 0.45843 0.33571 0.98261 0.0
H1381 H 0.52613 0.46011 0.01837 0.0
H1382 H 0.51416 0.42828 1.00843 0.0
C1383 C 0.45208 0.31791 0.97645 0.0
C1384 C 0.46851 0.36997 0.98259 0.0
H1385 H 0.50418 0.41569 0.98435 0.0
C1386 C 0.45802 0.37216 0.99144 0.0
C1387 C 0.48555 0.38579 0.98018 0.0
C1388 C 0.49798 0.38413 0.97129 0.0
C1389 C 0.46396 0.38982 0.9978 0.0
C1390 C 0.48066 0.40577 0.99506 0.0
C1391 C 0.49129 0.4035 0.98635 0.0
C1392 C 0.4876 0.42489 1.00126 0.0
C1393 C 0.45249 0.39116 1.00754 0.0
C1394 C 0.47671 0.43362 1.00045 0.0
C1395 C 0.48348 0.45176 1.0062 0.0
C1396 C 0.50135 0.46154 1.01271 0.0
C1397 C 0.51229 0.45287 1.01343 0.0
C1398 C 0.50548 0.43471 1.00774 0.0
H1399 H 0.44328 0.37719 1.01084 0.0
H1400 H 0.46163 0.40113 0.01548 0.0
H1401 H 0.44341 0.3964 1.00369 0.0
H1402 H 0.46304 0.42649 0.99527 0.0
H1403 H 0.47475 0.45813 1.00551 0.0
H1404 H 0.17085 0.70388 0.0622 0.0
H1405 H 0.14885 0.67318 0.05112 0.0
H1406 H 0.10373 0.67176 0.06958 0.0
H1407 H 0.12564 0.70219 0.08096 0.0
H1408 H 0.12503 0.63856 0.06258 0.0
H1409 H 0.08457 0.66059 0.03225 0.0
H1410 H 0.10773 0.6771 0.03955 0.0
H1411 H 0.08787 0.6684 0.04825 0.0
C1412 C 0.15627 0.69703 0.06397 0.0
C1413 C 0.15006 0.70557 0.0725 0.0
C1414 C 0.14371 0.67954 0.05756 0.0
C1415 C 0.12466 0.67032 0.05945 0.0
C1416 C 0.11834 0.67881 0.06785 0.0
H1417 H 0.02805 0.56338 0.02893 0.0
H1418 H 0.04906 0.59449 0.03998 0.0
C1419 C 0.1309 0.69625 0.07432 0.0
C1420 C 0.11156 0.65146 0.053 0.0
H1421 H 0.07372 0.62791 0.03166 0.0
C1422 C 0.11384 0.63621 0.05579 0.0
C1423 C 0.09689 0.64846 0.04425 0.0
C1424 C 0.0941 0.66448 0.04078 0.0
C1425 C 0.1017 0.61793 0.05014 0.0
C1426 C 0.0872 0.61494 0.0412 0.0
C1427 C 0.08485 0.63021 0.03848 0.0
C1428 C 0.07448 0.59613 0.03447 0.0
C1429 C 0.10428 0.60194 0.05401 0.0
C1430 C 0.08175 0.58685 0.02754 0.0
C1431 C 0.06981 0.56903 0.02135 0.0
C1432 C 0.05035 0.56027 0.02183 0.0
C1433 C 0.04302 0.56974 0.0285 0.0
C1434 C 0.05499 0.58752 0.03478 0.0
H1435 H 0.11201 0.60543 0.06325 0.0
H1436 H 0.09058 0.58878 0.05407 0.0
H1437 H 0.11256 0.59921 0.04748 0.0
H1438 H 0.09668 0.59341 0.0269 0.0
H1439 H 0.07583 0.56212 0.01618 0.0
H1440 H 0.34893 0.47511 0.0963 0.0
H1441 H 0.37581 0.48216 0.08494 0.0
H1442 H 0.33879 0.45487 0.05189 0.0
H1443 H 0.31175 0.44766 0.06321 0.0
H1444 H 0.38311 0.45677 0.07208 0.0
H1445 H 0.37778 0.50581 0.04136 0.0
H1446 H 0.36533 0.49918 0.05481 0.0
H1447 H 0.35684 0.48323 0.04111 0.0
C1448 C 0.34646 0.47053 0.08662 0.0
C1449 C 0.32815 0.4608 0.08067 0.0
C1450 C 0.36186 0.47466 0.08013 0.0
C1451 C 0.35934 0.46925 0.06754 0.0
C1452 C 0.34111 0.45954 0.06155 0.0
H1453 H 0.44029 0.48263 0.01563 0.0
H1454 H 0.4115 0.47406 0.02527 0.0
C1455 C 0.32566 0.45542 0.06804 0.0
C1456 C 0.37582 0.47329 0.06084 0.0
H1457 H 0.40085 0.49751 0.0379 0.0
C1458 C 0.387 0.46569 0.06461 0.0
C1459 C 0.38081 0.48484 0.05106 0.0
C1460 C 0.36968 0.49389 0.04688 0.0
C1461 C 0.40301 0.46931 0.05886 0.0
C1462 C 0.40819 0.48113 0.04922 0.0
C1463 C 0.39685 0.48847 0.0453 0.0
C1464 C 0.42563 0.48645 0.04334 0.0
C1465 C 0.41414 0.46027 0.06308 0.0
C1466 C 0.44314 0.49651 0.05026 0.0
C1467 C 0.45959 0.50141 0.04481 0.0
C1468 C 0.45891 0.49645 0.03227 0.0
C1469 C 0.44135 0.48661 0.02531 0.0
C1470 C 0.42487 0.48172 0.03079 0.0
H1471 H 0.40565 0.44774 0.06803 0.0
H1472 H 0.4194 0.45588 0.05524 0.0
H1473 H 0.42638 0.47063 0.06944 0.0
H1474 H 0.44409 0.50065 0.05991 0.0
H1475 H 0.47283 0.50906 0.05046 0.0
H1476 H 0.5352 0.84883 0.04915 0.0
H1477 H 0.5275 0.87216 0.04214 0.0
H1478 H 0.58137 0.91711 0.05824 0.0
H1479 H 0.58941 0.89385 0.06503 0.0
H1480 H 0.52637 0.90134 0.05673 0.0
H1481 H 0.57842 0.92977 0.02261 0.0
H1482 H 0.57176 0.9076 0.0288 0.0
H1483 H 0.58755 0.92946 0.03778 0.0
C1484 C 0.54552 0.86368 0.05106 0.0
C1485 C 0.56297 0.86948 0.05757 0.0
C1486 C 0.54104 0.87698 0.04713 0.0
C1487 C 0.55394 0.89634 0.04956 0.0
C1488 C 0.57132 0.90223 0.05613 0.0
H1489 H 0.54632 0.9933 0.02726 0.0
H1490 H 0.55679 0.97341 0.03691 0.0
C1491 C 0.57581 0.88892 0.0601 0.0
C1492 C 0.54901 0.91028 0.04532 0.0
H1493 H 0.56017 0.94415 0.02554 0.0
C1494 C 0.53377 0.91074 0.04993 0.0
C1495 C 0.55879 0.92259 0.03651 0.0
C1496 C 0.57496 0.92232 0.03103 0.0
C1497 C 0.52797 0.92314 0.04592 0.0
C1498 C 0.53744 0.9351 0.03687 0.0
C1499 C 0.55294 0.93494 0.03246 0.0
C1500 C 0.53093 0.94723 0.03145 0.0
C1501 C 0.51184 0.92341 0.05146 0.0
C1502 C 0.51301 0.93908 0.02511 0.0
C1503 C 0.50702 0.95037 0.01964 0.0
C1504 C 0.51888 0.97002 0.02036 0.0
C1505 C 0.53685 0.97819 0.02666 0.0
C1506 C 0.54285 0.96687 0.03214 0.0
H1507 H 0.50982 0.91777 0.06054 0.0
H1508 H 0.51407 0.93794 0.05251 0.0
H1509 H 0.49876 0.91441 0.04536 0.0
H1510 H 0.50375 0.92392 0.02423 0.0
H1511 H 0.49313 0.9437 0.01478 0.0
H1512 H 1.00134 0.21875 0.418 0.0
H1513 H 0.03084 0.2414 0.41045 0.0
H1514 H 1.00688 0.21903 0.37337 0.0
H1515 H 0.97753 0.19595 0.38078 0.0
H1516 H 0.05298 0.23167 0.39439 0.0
H1517 H 0.02912 0.27778 0.37428 0.0
H1518 H 0.01713 0.26236 0.3858 0.0
H1519 H 0.0143 0.2528 0.37026 0.0
C1520 C 1.00234 0.21852 0.40824 0.0
C1521 C 0.98698 0.20548 0.40001 0.0
C1522 C 0.01918 0.23157 0.40395 0.0
C1523 C 0.02094 0.232 0.39136 0.0
C1524 C 1.00568 0.21911 0.38312 0.0
H1525 H 0.10858 0.29873 0.34612 0.0
H1526 H 0.07925 0.27726 0.3543 0.0
C1527 C 0.98888 0.20598 0.38739 0.0
C1528 C 0.03893 0.24549 0.38684 0.0
H1529 H 0.05935 0.28375 0.37048 0.0
C1530 C 0.05445 0.24314 0.38922 0.0
C1531 C 0.04069 0.26031 0.38004 0.0
C1532 C 0.0245 0.26365 0.37748 0.0
C1533 C 0.07166 0.255 0.38473 0.0
C1534 C 0.07351 0.26995 0.37798 0.0
C1535 C 0.05794 0.27232 0.37566 0.0
C1536 C 0.09138 0.28316 0.3731 0.0
C1537 C 0.08749 0.25101 0.38696 0.0
C1538 C 0.10792 0.29385 0.38096 0.0
C1539 C 0.12475 0.30601 0.3763 0.0
C1540 C 0.12534 0.30796 0.36368 0.0
C1541 C 0.10865 0.29757 0.35587 0.0
C1542 C 0.09186 0.28529 0.36054 0.0
H1543 H 0.08226 0.2362 0.38903 0.0
H1544 H 0.09564 0.25362 0.37891 0.0
H1545 H 0.09708 0.26042 0.39493 0.0
H1546 H 0.10782 0.29285 0.39073 0.0
H1547 H 0.13728 0.31392 0.3826 0.0
H1548 H 0.82766 0.78912 0.38604 0.0
H1549 H 0.80242 0.79485 0.37912 0.0
H1550 H 0.80524 0.81988 0.41519 0.0
H1551 H 0.83086 0.81469 0.42212 0.0
H1552 H 0.76713 0.78188 0.38813 0.0
H1553 H 0.8096 0.86023 0.3929 0.0
H1554 H 0.82008 0.84548 0.39296 0.0
H1555 H 0.8105 0.84915 0.40636 0.0
C1556 C 0.82306 0.79603 0.39248 0.0
C1557 C 0.83139 0.80156 0.40462 0.0
C1558 C 0.80854 0.79917 0.38852 0.0
C1559 C 0.80213 0.80801 0.39659 0.0
C1560 C 0.81018 0.81331 0.40876 0.0
H1561 H 0.71817 0.8423 0.3851 0.0
H1562 H 0.74154 0.83537 0.39425 0.0
C1563 C 0.82469 0.81015 0.41273 0.0
C1564 C 0.78689 0.81153 0.39226 0.0
H1565 H 0.77712 0.84661 0.38735 0.0
C1566 C 0.7693 0.79602 0.38796 0.0
C1567 C 0.78974 0.83 0.3921 0.0
C1568 C 0.80853 0.84721 0.39622 0.0
C1569 C 0.75444 0.79848 0.38353 0.0
C1570 C 0.75738 0.81696 0.38317 0.0
C1571 C 0.77489 0.83246 0.38764 0.0
C1572 C 0.74271 0.82057 0.37776 0.0
C1573 C 0.73567 0.78124 0.37941 0.0
C1574 C 0.73571 0.8147 0.36542 0.0
C1575 C 0.72235 0.8186 0.36017 0.0
C1576 C 0.71579 0.8286 0.36712 0.0
C1577 C 0.72285 0.83451 0.37949 0.0
C1578 C 0.73623 0.83058 0.38474 0.0
H1579 H 0.73415 0.76856 0.38354 0.0
H1580 H 0.724 0.78344 0.38181 0.0
H1581 H 0.73438 0.77837 0.36933 0.0
H1582 H 0.74082 0.80735 0.35979 0.0
H1583 H 0.71735 0.81394 0.35061 0.0
H1584 H 0.26587 0.04117 0.40928 0.0
H1585 H 0.25551 1.01023 0.39846 0.0
H1586 H 0.20319 1.00617 0.38571 0.0
H1587 H 0.21336 0.03701 0.39654 0.0
H1588 H 0.22413 0.97585 0.40191 0.0
H1589 H 0.22057 0.99378 0.35431 0.0
H1590 H 0.23276 0.01155 0.36706 0.0
H1591 H 0.20768 1.00008 0.36422 0.0
C1592 C 0.25215 0.0337 0.40417 0.0
C1593 C 0.24046 0.0416 0.40375 0.0
C1594 C 0.2463 0.01605 0.39796 0.0
C1595 C 0.2287 1.00602 0.39115 0.0
C1596 C 0.21701 0.01386 0.39068 0.0
H1597 H 0.16241 0.89572 0.35121 0.0
H1598 H 0.17464 0.9274 0.36154 0.0
C1599 C 0.22285 0.03151 0.39687 0.0
C1600 C 0.22224 0.987 0.38496 0.0
H1601 H 0.20695 0.96116 0.35711 0.0
C1602 C 0.2205 0.97265 0.39211 0.0
C1603 C 0.2175 0.98288 0.37217 0.0
C1604 C 0.21987 0.99791 0.36396 0.0
C1605 C 0.21371 0.95416 0.38685 0.0
C1606 C 0.2088 0.95002 0.37407 0.0
C1607 C 0.21068 0.96439 0.36691 0.0
C1608 C 0.20148 0.93078 0.36797 0.0
C1609 C 0.21135 0.93911 0.39503 0.0
C1610 C 0.2126 0.92228 0.36807 0.0
C1611 C 0.20565 0.90421 0.36217 0.0
C1612 C 0.18749 0.89439 0.35605 0.0
C1613 C 0.17644 0.90297 0.35589 0.0
C1614 C 0.1834 0.92104 0.36177 0.0
H1615 H 0.21147 0.94351 0.40477 0.0
H1616 H 0.19803 0.92572 0.39222 0.0
H1617 H 0.22307 0.93629 0.3943 0.0
H1618 H 0.22671 0.92971 0.37261 0.0
H1619 H 0.21453 0.89799 0.36233 0.0
H1620 H 0.52924 0.63974 0.31089 0.0
H1621 H 0.54973 0.67025 0.32272 0.0
H1622 H 0.57109 0.69515 0.28957 0.0
H1623 H 0.5502 0.66499 0.27765 0.0
H1624 H 0.58843 0.69251 0.32493 0.0
H1625 H 0.55541 0.73076 0.30489 0.0
H1626 H 0.54447 0.70538 0.30293 0.0
H1627 H 0.56266 0.7197 0.29367 0.0
C1628 C 0.53813 0.65176 0.3061 0.0
C1629 C 0.53799 0.6499 0.2933 0.0
C1630 C 0.54993 0.66915 0.31288 0.0
C1631 C 0.56174 0.68504 0.30701 0.0
C1632 C 0.56185 0.68317 0.29427 0.0
H1633 H 0.65836 0.79006 0.33966 0.0
H1634 H 0.63726 0.75884 0.32883 0.0
C1635 C 0.55005 0.66583 0.28749 0.0
C1636 C 0.57411 0.70353 0.31418 0.0
H1637 H 0.58452 0.74945 0.31706 0.0
C1638 C 0.58753 0.70495 0.32326 0.0
C1639 C 0.57275 0.71968 0.3121 0.0
C1640 C 0.55793 0.71883 0.30296 0.0
C1641 C 0.59989 0.72219 0.33015 0.0
C1642 C 0.59899 0.73851 0.32774 0.0
C1643 C 0.58533 0.73698 0.31882 0.0
C1644 C 0.61191 0.75727 0.33445 0.0
C1645 C 0.61358 0.72271 0.34008 0.0
C1646 C 0.60467 0.76696 0.34098 0.0
C1647 C 0.61668 0.78487 0.34703 0.0
C1648 C 0.63615 0.79345 0.34663 0.0
C1649 C 0.64341 0.78376 0.34012 0.0
C1650 C 0.63138 0.76586 0.33402 0.0
H1651 H 0.60906 0.70844 0.34301 0.0
H1652 H 0.62746 0.72804 0.33656 0.0
H1653 H 0.61525 0.73225 0.34819 0.0
H1654 H 0.5897 0.76065 0.34139 0.0
H1655 H 0.6107 0.79204 0.35196 0.0
H1656 H 0.3522 0.88924 0.27849 0.0
H1657 H 0.32295 0.88322 0.28653 0.0
H1658 H 0.34644 0.88527 0.32298 0.0
H1659 H 0.37552 0.89073 0.31504 0.0
H1660 H 0.29975 0.85203 0.30112 0.0
H1661 H 0.32635 0.92323 0.32529 0.0
H1662 H 0.33801 0.91893 0.31321 0.0
H1663 H 0.3403 0.9124 0.32825 0.0
C1664 C 0.35114 0.88828 0.28821 0.0
C1665 C 0.36631 0.89053 0.29611 0.0
C1666 C 0.33444 0.88495 0.29279 0.0
C1667 C 0.33263 0.88402 0.30535 0.0
C1668 C 0.34768 0.88626 0.31327 0.0
H1669 H 0.24705 0.86662 0.35294 0.0
H1670 H 0.27573 0.87344 0.34383 0.0
C1671 C 0.36433 0.88946 0.3087 0.0
C1672 C 0.31483 0.88019 0.31018 0.0
H1673 H 0.29584 0.8995 0.32871 0.0
C1674 C 0.29881 0.86241 0.30709 0.0
C1675 C 0.31374 0.89375 0.31801 0.0
C1676 C 0.33045 0.91322 0.32135 0.0
C1677 C 0.28179 0.85765 0.31188 0.0
C1678 C 0.28066 0.87124 0.31972 0.0
C1679 C 0.29669 0.88909 0.32271 0.0
C1680 C 0.26311 0.86713 0.32513 0.0
C1681 C 0.26539 0.83791 0.30882 0.0
C1682 C 0.2465 0.86156 0.31766 0.0
C1683 C 0.23001 0.8575 0.32285 0.0
C1684 C 0.22987 0.85919 0.33563 0.0
C1685 C 0.24663 0.86516 0.34308 0.0
C1686 C 0.26306 0.86907 0.33788 0.0
H1687 H 0.26998 0.82789 0.30568 0.0
H1688 H 0.25735 0.83262 0.31683 0.0
H1689 H 0.25586 0.83798 0.30131 0.0
H1690 H 0.24628 0.86045 0.3078 0.0
H1691 H 0.21741 0.85315 0.31684 0.0
H1692 H 0.12714 0.49469 0.33061 0.0
H1693 H 0.13608 0.47246 0.338 0.0
H1694 H 0.13499 0.45222 0.30083 0.0
H1695 H 0.12691 0.47501 0.29334 0.0
H1696 H 0.11823 0.43404 0.33469 0.0
H1697 H 0.18669 0.46504 0.31527 0.0
H1698 H 0.1733 0.4769 0.31602 0.0
H1699 H 0.16714 0.4583 0.30413 0.0
C1700 C 0.12903 0.48569 0.32399 0.0
C1701 C 0.12648 0.48681 0.31137 0.0
C1702 C 0.13399 0.47287 0.32824 0.0
C1703 C 0.13652 0.4609 0.31998 0.0
C1704 C 0.1335 0.46159 0.30738 0.0
H1705 H 0.14436 0.36325 0.3403 0.0
H1706 H 0.13405 0.38386 0.33167 0.0
C1707 C 0.12863 0.47448 0.30312 0.0
C1708 C 0.1423 0.44771 0.32459 0.0
H1709 H 0.17669 0.43622 0.32409 0.0
C1710 C 0.13102 0.43451 0.33238 0.0
C1711 C 0.15911 0.44851 0.32169 0.0
C1712 C 0.17237 0.46306 0.31391 0.0
C1713 C 0.13603 0.42203 0.33732 0.0
C1714 C 0.1526 0.42251 0.33417 0.0
C1715 C 0.16391 0.43576 0.32641 0.0
C1716 C 0.15883 0.40987 0.33916 0.0
C1717 C 0.1238 0.40882 0.34613 0.0
C1718 C 0.17642 0.41761 0.34591 0.0
C1719 C 0.18245 0.40586 0.35067 0.0
C1720 C 0.17101 0.38616 0.34873 0.0
C1721 C 0.15347 0.3784 0.3419 0.0
C1722 C 0.14749 0.39016 0.33707 0.0
H1723 H 0.11467 0.41365 0.35007 0.0
H1724 H 0.11461 0.39461 0.34121 0.0
H1725 H 0.1324 0.40749 0.35373 0.0
H1726 H 0.18543 0.43277 0.34759 0.0
H1727 H 0.19606 0.41223 0.35588 0.0
H1728 H 0.35261 0.48299 0.28437 0.0
H1729 H 0.32307 0.46009 0.29178 0.0
H1730 H 0.35297 0.46195 0.32576 0.0
H1731 H 0.38255 0.48472 0.31842 0.0
H1732 H 0.31177 0.42426 0.29986 0.0
H1733 H 0.31314 0.4738 0.33683 0.0
H1734 H 0.32814 0.48168 0.32461 0.0
H1735 H 0.33386 0.47188 0.33726 0.0
C1736 C 0.35293 0.4784 0.29338 0.0
C1737 C 0.36995 0.48581 0.30084 0.0
C1738 C 0.33602 0.46537 0.29762 0.0
C1739 C 0.33579 0.45958 0.3094 0.0
C1740 C 0.35278 0.46657 0.31675 0.0
H1741 H 0.24935 0.3852 0.35301 0.0
H1742 H 0.27875 0.40659 0.34487 0.0
C1743 C 0.36967 0.47959 0.31253 0.0
C1744 C 0.31778 0.4462 0.31401 0.0
H1745 H 0.28959 0.44167 0.33656 0.0
C1746 C 0.30686 0.42807 0.30784 0.0
C1747 C 0.31142 0.45122 0.32444 0.0
C1748 C 0.32214 0.47075 0.33113 0.0
C1749 C 0.28991 0.41468 0.31198 0.0
C1750 C 0.28359 0.41969 0.32244 0.0
C1751 C 0.29449 0.43784 0.32857 0.0
C1752 C 0.26569 0.40634 0.32719 0.0
C1753 C 0.27916 0.39516 0.30529 0.0
C1754 C 0.24855 0.39923 0.31998 0.0
C1755 C 0.2317 0.38696 0.3246 0.0
C1756 C 0.23164 0.38167 0.33656 0.0
C1757 C 0.24884 0.38892 0.34377 0.0
C1758 C 0.26568 0.40117 0.33913 0.0
H1759 H 0.28814 0.3921 0.29958 0.0
H1760 H 0.27315 0.38423 0.3118 0.0
H1761 H 0.26743 0.39406 0.29916 0.0
H1762 H 0.24818 0.40334 0.31083 0.0
H1763 H 0.21873 0.38175 0.3188 0.0
H1764 H 0.53812 0.87922 0.26967 0.0
H1765 H 0.55984 0.87208 0.28095 0.0
H1766 H 0.55558 0.8997 0.31403 0.0
H1767 H 0.53386 0.907 0.30279 0.0
H1768 H 0.59445 0.8976 0.29357 0.0
H1769 H 0.54615 0.84888 0.32466 0.0
H1770 H 0.53789 0.85536 0.31123 0.0
H1771 H 0.54748 0.87141 0.32489 0.0
C1772 C 0.54182 0.88383 0.27935 0.0
C1773 C 0.53427 0.89372 0.28532 0.0
C1774 C 0.55418 0.87966 0.28578 0.0
C1775 C 0.55918 0.88517 0.29835 0.0
C1776 C 0.55162 0.89496 0.30439 0.0
H1777 H 0.63562 0.87337 0.35049 0.0
H1778 H 0.61372 0.88155 0.3405 0.0
C1779 C 0.53921 0.89913 0.29795 0.0
C1780 C 0.57285 0.88121 0.30497 0.0
H1781 H 0.57807 0.85747 0.32805 0.0
C1782 C 0.59087 0.8888 0.30109 0.0
C1783 C 0.56816 0.8698 0.31482 0.0
C1784 C 0.54883 0.86074 0.31911 0.0
C1785 C 0.60436 0.88537 0.30683 0.0
C1786 C 0.59961 0.87376 0.31658 0.0
C1787 C 0.58167 0.86636 0.32056 0.0
C1788 C 0.61295 0.86884 0.32259 0.0
C1789 C 0.62368 0.89443 0.30251 0.0
C1790 C 0.61962 0.85879 0.31587 0.0
C1791 C 0.63214 0.8541 0.32153 0.0
C1792 C 0.63819 0.85929 0.33408 0.0
C1793 C 0.63133 0.86921 0.34082 0.0
C1794 C 0.61878 0.87388 0.33513 0.0
H1795 H 0.62659 0.90675 0.29739 0.0
H1796 H 0.63464 0.89913 0.31033 0.0
H1797 H 0.62474 0.88397 0.2963 0.0
H1798 H 0.61502 0.85443 0.30623 0.0
H1799 H 0.63703 0.84637 0.31606 0.0
H1800 H 0.14336 0.65286 0.3037 0.0
H1801 H 0.15342 0.68374 0.31449 0.0
H1802 H 0.10015 0.67841 0.30282 0.0
H1803 H 0.08977 0.64729 0.2923 0.0
H1804 H 0.15618 0.71545 0.30399 0.0
H1805 H 0.10665 0.69337 0.33975 0.0
H1806 H 0.11096 0.67696 0.33093 0.0
H1807 H 0.09587 0.68476 0.32436 0.0
C1808 C 0.13365 0.6581 0.30361 0.0
C1809 C 0.11573 0.64757 0.29717 0.0
C1810 C 0.13947 0.67581 0.30971 0.0
C1811 C 0.12746 0.68327 0.30956 0.0
C1812 C 0.10953 0.67278 0.30321 0.0
H1813 H 0.14089 0.79034 0.33949 0.0
H1814 H 0.12919 0.759 0.32869 0.0
C1815 C 0.1037 0.65509 0.29709 0.0
C1816 C 0.134 0.70237 0.31565 0.0
H1817 H 0.12532 0.72624 0.3383 0.0
C1818 C 0.14949 0.71782 0.31152 0.0
C1819 C 0.12514 0.7054 0.32541 0.0
C1820 C 0.10883 0.68925 0.33047 0.0
C1821 C 0.15628 0.73627 0.31683 0.0
C1822 C 0.14756 0.73929 0.32668 0.0
C1823 C 0.13197 0.72387 0.33074 0.0
C1824 C 0.15469 0.75832 0.33307 0.0
C1825 C 0.17255 0.75241 0.31171 0.0
C1826 C 0.17281 0.7682 0.33921 0.0
C1827 C 0.17952 0.78606 0.34533 0.0
C1828 C 0.16817 0.79431 0.34548 0.0
C1829 C 0.14997 0.78435 0.33943 0.0
C1830 C 0.14326 0.76645 0.33331 0.0
H1831 H 0.17428 0.74841 0.30228 0.0
H1832 H 0.1707 0.76491 0.3116 0.0
H1833 H 0.18565 0.75652 0.31756 0.0
H1834 H 0.18173 0.76201 0.33935 0.0
H1835 H 0.19357 0.7934 0.34997 0.0
H1836 H 0.793 0.03401 0.41504 0.0
H1837 H 0.77145 1.00355 0.40356 0.0
H1838 H 0.81557 1.00893 0.38222 0.0
H1839 H 0.83715 0.03971 0.39336 0.0
H1840 H 0.76271 0.99497 0.37602 0.0
H1841 H 0.79473 0.95709 0.39839 0.0
H1842 H 0.79767 0.97905 0.40518 0.0
H1843 H 0.81041 0.97905 0.39256 0.0
C1844 C 0.7981 0.02892 0.40777 0.0
C1845 C 0.81688 0.03937 0.40516 0.0
C1846 C 0.78577 0.01143 0.40128 0.0
C1847 C 0.792 1.00396 0.39215 0.0
C1848 C 0.81059 0.0144 0.38936 0.0
H1849 H 0.74239 0.89608 0.34858 0.0
H1850 H 0.76322 0.92783 0.35871 0.0
C1851 C 0.82291 0.03194 0.39578 0.0
C1852 C 0.7791 0.98511 0.38564 0.0
H1853 H 0.77041 0.93979 0.38261 0.0
C1854 C 0.76432 0.98286 0.37745 0.0
C1855 C 0.78135 0.96944 0.38752 0.0
C1856 C 0.7968 0.97111 0.39644 0.0
C1857 C 0.75186 0.96534 0.37089 0.0
C1858 C 0.75397 0.94955 0.37287 0.0
C1859 C 0.76878 0.95187 0.3811 0.0
C1860 C 0.74111 0.93051 0.36645 0.0
C1861 C 0.73689 0.96405 0.3617 0.0
C1862 C 0.72175 0.92138 0.36749 0.0
C1863 C 0.7098 0.90332 0.36159 0.0
C1864 C 0.71705 0.89394 0.35473 0.0
C1865 C 0.73642 0.903 0.35379 0.0
C1866 C 0.74833 0.92112 0.35959 0.0
H1867 H 0.74057 0.9781 0.3587 0.0
H1868 H 0.73456 0.95435 0.35351 0.0
H1869 H 0.72354 0.95855 0.36595 0.0
H1870 H 0.71589 0.92813 0.37297 0.0
H1871 H 0.69492 0.89665 0.36247 0.0
H1872 H 0.01575 0.80772 0.43064 0.0
H1873 H 0.04266 0.81473 0.41932 0.0
H1874 H 1.00588 0.78903 0.38602 0.0
H1875 H 0.97881 0.78186 0.39729 0.0
H1876 H 0.04945 0.78927 0.40602 0.0
H1877 H 0.04579 0.84014 0.37625 0.0
H1878 H 0.03316 0.83325 0.38961 0.0
H1879 H 0.02454 0.81776 0.3757 0.0
C1880 C 0.01334 0.80349 0.42091 0.0
C1881 C 0.99509 0.7942 0.41488 0.0
C1882 C 0.02877 0.80759 0.41445 0.0
C1883 C 0.02632 0.80261 0.4018 0.0
C1884 C 1.00815 0.79337 0.39573 0.0
H1885 H 0.10706 0.81612 0.34974 0.0
H1886 H 0.07835 0.80777 0.35942 0.0
C1887 C 0.99268 0.78927 0.40219 0.0
C1888 C 0.0428 0.80656 0.39513 0.0
H1889 H 0.06838 0.83127 0.37253 0.0
C1890 C 0.0536 0.79847 0.3987 0.0
C1891 C 0.04813 0.81848 0.38554 0.0
C1892 C 0.03742 0.82806 0.38158 0.0
C1893 C 0.06956 0.80193 0.39294 0.0
C1894 C 0.07508 0.81409 0.38349 0.0
C1895 C 0.06412 0.82196 0.37978 0.0
C1896 C 0.09248 0.81923 0.3776 0.0
C1897 C 0.08025 0.79234 0.39693 0.0
C1898 C 0.10997 0.82868 0.38457 0.0
C1899 C 0.12637 0.83344 0.37909 0.0
C1900 C 0.12567 0.82897 0.36648 0.0
C1901 C 0.10813 0.81972 0.35947 0.0
C1902 C 0.0917 0.81496 0.36498 0.0
H1903 H 0.07147 0.77965 0.40167 0.0
H1904 H 0.08545 0.78804 0.38901 0.0
H1905 H 0.09251 0.8023 0.40341 0.0
H1906 H 0.11095 0.83247 0.39428 0.0
H1907 H 0.13958 0.84062 0.38478 0.0
H1908 H 0.20975 0.19782 0.40276 0.0
H1909 H 0.20137 0.22022 0.39485 0.0
H1910 H 0.24248 0.23474 0.36894 0.0
H1911 H 0.25078 0.21219 0.37673 0.0
H1912 H 0.22188 0.25828 0.39354 0.0
H1913 H 0.19538 0.22069 0.34701 0.0
H1914 H 0.20049 0.21026 0.35961 0.0
H1915 H 0.21914 0.227 0.35157 0.0
C1916 C 0.21709 0.20588 0.39543 0.0
C1917 C 0.23084 0.20316 0.3903 0.0
C1918 C 0.21226 0.21863 0.3909 0.0
C1919 C 0.22107 0.22892 0.38117 0.0
C1920 C 0.23516 0.22661 0.37625 0.0
H1921 H 0.21431 0.32582 0.35814 0.0
H1922 H 0.22473 0.30532 0.36683 0.0
C1923 C 0.23991 0.21375 0.38072 0.0
C1924 C 0.21537 0.24193 0.37615 0.0
H1925 H 0.1977 0.25061 0.35004 0.0
C1926 C 0.21658 0.25661 0.38403 0.0
C1927 C 0.20821 0.23956 0.36378 0.0
C1928 C 0.20553 0.22343 0.35502 0.0
C1929 C 0.21094 0.26907 0.37986 0.0
C1930 C 0.20427 0.26701 0.36742 0.0
C1931 C 0.20297 0.25227 0.35956 0.0
C1932 C 0.19804 0.27961 0.36238 0.0
C1933 C 0.21173 0.284 0.3889 0.0
C1934 C 0.17972 0.27193 0.35674 0.0
C1935 C 0.17383 0.28356 0.35166 0.0
C1936 C 0.18615 0.3031 0.35213 0.0
C1937 C 0.20449 0.31081 0.35775 0.0
C1938 C 0.21042 0.29914 0.36278 0.0
H1939 H 0.21226 0.2805 0.39847 0.0
H1940 H 0.22456 0.29767 0.38805 0.0
H1941 H 0.1994 0.28584 0.38709 0.0
H1942 H 0.16996 0.25689 0.35629 0.0
H1943 H 0.15962 0.27726 0.34738 0.0
H1944 H 0.66603 0.51658 0.73385 0.0
H1945 H 0.69545 0.54002 0.72667 0.0
H1946 H 0.67559 0.57963 0.72611 0.0
H1947 H 0.64615 0.55628 0.73339 0.0
H1948 H 0.70119 0.55668 0.70553 0.0
H1949 H 0.72684 0.61121 0.74498 0.0
H1950 H 0.70766 0.58751 0.74553 0.0
H1951 H 0.70383 0.60458 0.73826 0.0
C1952 C 0.66792 0.53028 0.7322 0.0
C1953 C 0.65375 0.53457 0.73421 0.0
C1954 C 0.68477 0.54369 0.72813 0.0
C1955 C 0.68786 0.56168 0.72601 0.0
C1956 C 0.67373 0.56601 0.72797 0.0
H1957 H 0.77256 0.63835 0.68162 0.0
H1958 H 0.74334 0.61635 0.68969 0.0
C1959 C 0.65689 0.55263 0.73211 0.0
C1960 C 0.70559 0.57561 0.72131 0.0
H1961 H 0.74354 0.62001 0.72739 0.0
C1962 C 0.71047 0.57051 0.71033 0.0
C1963 C 0.71782 0.59357 0.72765 0.0
C1964 C 0.71391 0.59952 0.73982 0.0
C1965 C 0.72711 0.58292 0.70544 0.0
C1966 C 0.73904 0.60111 0.71157 0.0
C1967 C 0.73429 0.60614 0.72263 0.0
C1968 C 0.75673 0.61495 0.7068 0.0
C1969 C 0.73195 0.57625 0.6939 0.0
C1970 C 0.77395 0.62199 0.71388 0.0
C1971 C 0.79069 0.63472 0.70935 0.0
C1972 C 0.79055 0.64072 0.69762 0.0
C1973 C 0.77323 0.63391 0.69064 0.0
C1974 C 0.75649 0.62124 0.69521 0.0
H1975 H 0.72419 0.5606 0.69226 0.0
H1976 H 0.72807 0.58185 0.68598 0.0
H1977 H 0.7472 0.58137 0.6943 0.0
H1978 H 0.77447 0.61741 0.72288 0.0
H1979 H 0.80373 0.63969 0.715 0.0
H1980 H 0.49697 0.14827 0.75501 0.0
H1981 H 0.47093 0.15297 0.74831 0.0
H1982 H 0.46668 0.1263 0.71251 0.0
H1983 H 0.4923 0.12105 0.71923 0.0
H1984 H 0.46903 0.17329 0.72928 0.0
H1985 H 0.4126 0.09834 0.72127 0.0
H1986 H 0.43475 0.1057 0.72995 0.0
H1987 H 0.4329 0.1036 0.71352 0.0
C1988 C 0.49031 0.14314 0.74577 0.0
C1989 C 0.49669 0.13421 0.73767 0.0
C1990 C 0.47551 0.14595 0.74193 0.0
C1991 C 0.46668 0.13974 0.72997 0.0
C1992 C 0.47304 0.13089 0.72185 0.0
H1993 H 0.38334 0.14752 0.68424 0.0
H1994 H 0.4069 0.14117 0.69358 0.0
C1995 C 0.48785 0.1281 0.72567 0.0
C1996 C 0.45131 0.14317 0.72581 0.0
H1997 H 0.40572 0.12097 0.71345 0.0
C1998 C 0.45512 0.16186 0.72593 0.0
C1999 C 0.43319 0.12822 0.72145 0.0
C2000 C 0.42801 0.10783 0.72163 0.0
C2001 C 0.44149 0.16606 0.72141 0.0
C2002 C 0.42346 0.15112 0.71685 0.0
C2003 C 0.41956 0.13241 0.71693 0.0
C2004 C 0.40871 0.15462 0.71145 0.0
C2005 C 0.44672 0.18646 0.72114 0.0
C2006 C 0.40164 0.16402 0.71846 0.0
C2007 C 0.38814 0.16773 0.71313 0.0
C2008 C 0.38139 0.162 0.70071 0.0
C2009 C 0.38822 0.1522 0.69382 0.0
C2010 C 0.4017 0.14852 0.69914 0.0
H2011 H 0.46215 0.19609 0.72233 0.0
H2012 H 0.44104 0.18871 0.71239 0.0
H2013 H 0.44066 0.1904 0.7287 0.0
H2014 H 0.40658 0.16852 0.72804 0.0
H2015 H 0.38313 0.17521 0.71873 0.0
H2016 H 0.87764 0.36374 0.73899 0.0
H2017 H 0.8681 0.33276 0.72849 0.0
H2018 H 0.92535 0.35186 0.72177 0.0
H2019 H 0.93505 0.38298 0.73224 0.0
H2020 H 0.89424 0.33135 0.70053 0.0
H2021 H 0.8837 0.29425 0.74275 0.0
H2022 H 0.87386 0.30941 0.74143 0.0
H2023 H 0.89882 0.31947 0.74286 0.0
C2024 C 0.88818 0.3614 0.73518 0.0
C2025 C 0.9071 0.37578 0.73644 0.0
C2026 C 0.88272 0.34368 0.72928 0.0
C2027 C 0.89606 0.34006 0.72447 0.0
C2028 C 0.9149 0.35442 0.7255 0.0
H2029 H 0.882 0.23202 0.69602 0.0
H2030 H 0.8944 0.26389 0.70618 0.0
C2031 C 0.9204 0.37212 0.73151 0.0
C2032 C 0.89026 0.32122 0.71835 0.0
H2033 H 0.87417 0.27535 0.72383 0.0
C2034 C 0.88993 0.3191 0.7056 0.0
C2035 C 0.88479 0.30537 0.72505 0.0
C2036 C 0.88537 0.30712 0.7388 0.0
C2037 C 0.8838 0.30135 0.69931 0.0
C2038 C 0.87788 0.28542 0.70599 0.0
C2039 C 0.87865 0.28763 0.71877 0.0
C2040 C 0.87047 0.26627 0.69981 0.0
C2041 C 0.88365 0.29969 0.68559 0.0
C2042 C 0.85287 0.25708 0.69299 0.0
C2043 C 0.84568 0.23884 0.68732 0.0
C2044 C 0.85602 0.22954 0.68835 0.0
C2045 C 0.87368 0.23881 0.69515 0.0
C2046 C 0.88079 0.25699 0.70092 0.0
H2047 H 0.89174 0.31368 0.68204 0.0
H2048 H 0.88958 0.29073 0.68271 0.0
H2049 H 0.86898 0.29282 0.68135 0.0
H2050 H 0.84464 0.26398 0.69214 0.0
H2051 H 0.83202 0.23202 0.68215 0.0
H2052 H 0.21721 0.9977 0.61024 0.0
H2053 H 0.23881 0.02793 0.62187 0.0
H2054 H 0.21513 1.00521 0.65503 0.0
H2055 H 0.19393 0.97462 0.64353 0.0
H2056 H 0.2308 0.05146 0.63532 0.0
H2057 H 0.27105 0.02842 0.66475 0.0
H2058 H 0.2557 0.01402 0.65142 0.0
H2059 H 0.24618 0.01505 0.66552 0.0
C2060 C 0.21678 0.99899 0.62004 0.0
C2061 C 0.20391 0.98364 0.62596 0.0
C2062 C 0.22906 0.01635 0.62666 0.0
C2063 C 0.22879 0.01877 0.63934 0.0
C2064 C 0.21585 1.00357 0.64528 0.0
H2065 H 0.27652 0.12665 0.68319 0.0
H2066 H 0.25574 0.0956 0.67209 0.0
C2067 C 0.20357 0.98615 0.63867 0.0
C2068 C 0.24168 0.03739 0.64623 0.0
H2069 H 0.27664 0.05947 0.66965 0.0
C2070 C 0.24085 0.05322 0.64281 0.0
C2071 C 0.25496 0.03972 0.65589 0.0
C2072 C 0.25721 0.02345 0.65956 0.0
C2073 C 0.25276 0.07125 0.64888 0.0
C2074 C 0.26561 0.07346 0.65881 0.0
C2075 C 0.26664 0.0577 0.66212 0.0
C2076 C 0.2782 0.09207 0.66579 0.0
C2077 C 0.25171 0.08782 0.64447 0.0
C2078 C 0.29773 0.10015 0.66623 0.0
C2079 C 0.30963 0.11781 0.67266 0.0
C2080 C 0.30217 0.12766 0.67877 0.0
C2081 C 0.28264 0.11942 0.6785 0.0
C2082 C 0.27075 0.10174 0.6721 0.0
H2083 H 0.24493 0.08466 0.63495 0.0
H2084 H 0.24325 0.09124 0.65044 0.0
H2085 H 0.26588 0.10049 0.64484 0.0
H2086 H 0.30376 0.09287 0.66149 0.0
H2087 H 0.32464 0.12379 0.6728 0.0
H2088 H 0.01903 0.18991 0.62684 0.0
H2089 H 0.98995 0.1844 0.63486 0.0
H2090 H 0.01097 0.24437 0.63886 0.0
H2091 H 0.04006 0.24998 0.63076 0.0
H2092 H 0.98492 0.19602 0.65707 0.0
H2093 H 0.95955 0.22468 0.62086 0.0
H2094 H 0.97836 0.21984 0.6191 0.0
H2095 H 0.98278 0.24113 0.62774 0.0
C2096 C 0.01747 0.20194 0.62942 0.0
C2097 C 0.03186 0.22039 0.62814 0.0
C2098 C 1.00081 0.19876 0.63397 0.0
C2099 C 0.99814 0.21394 0.63731 0.0
C2100 C 0.01249 0.23239 0.63606 0.0
H2101 H 0.91582 0.20863 0.68524 0.0
H2102 H 0.94448 0.21504 0.67623 0.0
C2103 C 0.02914 0.23558 0.63145 0.0
C2104 C 0.98063 0.21043 0.64254 0.0
H2105 H 0.94332 0.21747 0.6387 0.0
C2106 C 0.9758 0.20067 0.65303 0.0
C2107 C 0.9686 0.21628 0.63718 0.0
C2108 C 0.97245 0.2259 0.62553 0.0
C2109 C 0.95941 0.19679 0.6584 0.0
C2110 C 0.94771 0.2032 0.65328 0.0
C2111 C 0.9524 0.21274 0.6427 0.0
C2112 C 0.93035 0.19982 0.65866 0.0
C2113 C 0.9546 0.18551 0.66934 0.0
C2114 C 0.91291 0.18966 0.65166 0.0
C2115 C 0.89649 0.18611 0.65675 0.0
C2116 C 0.89717 0.1927 0.66894 0.0
C2117 C 0.91472 0.20319 0.67586 0.0
C2118 C 0.93114 0.20678 0.67074 0.0
H2119 H 0.962 0.17735 0.67001 0.0
H2120 H 0.95895 0.19527 0.67779 0.0
H2121 H 0.93929 0.17553 0.66894 0.0
H2122 H 0.91196 0.18423 0.6423 0.0
H2123 H 0.88325 0.17805 0.65113 0.0
H2124 H 0.8179 0.84111 0.65462 0.0
H2125 H 0.82581 0.81815 0.66203 0.0
H2126 H 0.77286 0.77262 0.64511 0.0
H2127 H 0.76478 0.79552 0.63768 0.0
H2128 H 0.8066 0.79011 0.67739 0.0
H2129 H 0.81065 0.75912 0.63232 0.0
H2130 H 0.81055 0.78106 0.63415 0.0
H2131 H 0.78909 0.75895 0.63396 0.0
C2132 C 0.80788 0.82621 0.65252 0.0
C2133 C 0.7907 0.82015 0.64555 0.0
C2134 C 0.81247 0.81311 0.65672 0.0
C2135 C 0.80004 0.79369 0.65398 0.0
C2136 C 0.78283 0.78755 0.6471 0.0
H2137 H 0.80811 0.69637 0.67468 0.0
H2138 H 0.79714 0.71681 0.6665 0.0
C2139 C 0.77823 0.80066 0.64287 0.0
C2140 C 0.80498 0.77996 0.65866 0.0
H2141 H 0.81396 0.74496 0.64975 0.0
C2142 C 0.80821 0.78024 0.67135 0.0
C2143 C 0.80699 0.76704 0.65075 0.0
C2144 C 0.8043 0.76655 0.63703 0.0
C2145 C 0.81341 0.76795 0.67636 0.0
C2146 C 0.81572 0.75526 0.66846 0.0
C2147 C 0.81217 0.75473 0.65577 0.0
C2148 C 0.8224 0.74287 0.6732 0.0
C2149 C 0.81623 0.76855 0.69008 0.0
C2150 C 0.84033 0.75078 0.67949 0.0
C2151 C 0.84662 0.73917 0.68411 0.0
C2152 C 0.83512 0.71946 0.68248 0.0
C2153 C 0.81727 0.71153 0.67604 0.0
C2154 C 0.81099 0.72317 0.67138 0.0
H2155 H 0.80925 0.77532 0.69478 0.0
H2156 H 0.81073 0.75412 0.69299 0.0
H2157 H 0.83144 0.77688 0.69314 0.0
H2158 H 0.84948 0.76595 0.68079 0.0
H2159 H 0.86049 0.74565 0.68897 0.0
H2160 H 0.03318 0.84063 0.64772 0.0
H2161 H 1.00394 0.81743 0.65516 0.0
H2162 H 1.00015 0.77442 0.62894 0.0
H2163 H 0.02982 0.79739 0.62174 0.0
H2164 H 0.96888 0.79635 0.64286 0.0
H2165 H 0.9935 0.74969 0.66079 0.0
H2166 H 1.00938 0.773 0.65665 0.0
H2167 H 0.99689 0.75357 0.64502 0.0
C2168 C 0.0263 0.82618 0.64364 0.0
C2169 C 0.03398 0.82087 0.63419 0.0
C2170 C 1.00949 0.81296 0.64784 0.0
C2171 C 0.99998 0.79413 0.64273 0.0
C2172 C 1.00742 0.78879 0.63318 0.0
H2173 H 0.88354 0.71256 0.65177 0.0
H2174 H 0.91279 0.73436 0.64367 0.0
C2175 C 0.02428 0.80201 0.62898 0.0
C2176 C 0.98212 0.78023 0.64729 0.0
H2177 H 0.96099 0.73881 0.66056 0.0
C2178 C 0.96715 0.78377 0.64673 0.0
C2179 C 0.97996 0.76394 0.65248 0.0
C2180 C 0.99582 0.75985 0.6539 0.0
C2181 C 0.95004 0.77141 0.65115 0.0
C2182 C 0.94772 0.75487 0.65605 0.0
C2183 C 0.96273 0.7514 0.6567 0.0
C2184 C 0.92998 0.74124 0.66086 0.0
C2185 C 0.93478 0.77643 0.65079 0.0
C2186 C 0.92998 0.73741 0.67314 0.0
C2187 C 0.91329 0.72482 0.67779 0.0
C2188 C 0.89624 0.71576 0.67024 0.0
C2189 C 0.89636 0.7194 0.65789 0.0
C2190 C 0.91307 0.73194 0.65324 0.0
H2191 H 0.94041 0.79167 0.64979 0.0
H2192 H 0.92436 0.76826 0.64283 0.0
H2193 H 0.92743 0.77291 0.6592 0.0
H2194 H 0.94288 0.74436 0.67917 0.0
H2195 H 0.91375 0.72234 0.68733 0.0
H2196 H 0.20035 0.2399 0.63494 0.0
H2197 H 0.22238 0.23271 0.6459 0.0
H2198 H 0.22874 0.20826 0.61216 0.0
H2199 H 0.20672 0.21527 0.60116 0.0
H2200 H 0.22088 0.19805 0.64793 0.0
H2201 H 0.28288 0.24675 0.62515 0.0
H2202 H 0.26159 0.24786 0.62437 0.0
H2203 H 0.2631 0.23038 0.61471 0.0
C2204 C 0.20633 0.23287 0.62986 0.0
C2205 C 0.20189 0.22833 0.61714 0.0
C2206 C 0.21899 0.22885 0.63613 0.0
C2207 C 0.22749 0.22029 0.62981 0.0
C2208 C 0.22273 0.21532 0.61718 0.0
H2209 H 0.3053 0.18178 0.64837 0.0
H2210 H 0.2831 0.18952 0.63838 0.0
C2211 C 0.21013 0.21934 0.61091 0.0
C2212 C 0.24117 0.21633 0.63639 0.0
H2213 H 0.28625 0.22528 0.63725 0.0
C2214 C 0.23522 0.2041 0.64567 0.0
C2215 C 0.25987 0.22425 0.63342 0.0
C2216 C 0.26734 0.23818 0.62395 0.0
C2217 C 0.24732 0.19918 0.65182 0.0
C2218 C 0.26595 0.20694 0.64875 0.0
C2219 C 0.27195 0.21929 0.63955 0.0
C2220 C 0.27943 0.20231 0.6549 0.0
C2221 C 0.23993 0.18532 0.66134 0.0
C2222 C 0.28496 0.20719 0.66748 0.0
C2223 C 0.29767 0.2028 0.67323 0.0
C2224 C 0.30517 0.19351 0.6665 0.0
C2225 C 0.29977 0.18887 0.65386 0.0
C2226 C 0.28709 0.1933 0.64812 0.0
H2227 H 0.22436 0.17727 0.66052 0.0
H2228 H 0.24509 0.17517 0.66057 0.0
H2229 H 0.24494 0.19311 0.67057 0.0
H2230 H 0.27951 0.21448 0.67285 0.0
H2231 H 0.30156 0.20666 0.68297 0.0
H2232 H 0.78228 0.97363 0.64894 0.0
H2233 H 0.79325 1.00497 0.65932 0.0
H2234 H 0.789 0.02559 0.62475 0.0
H2235 H 0.77882 0.99458 0.61424 0.0
H2236 H 0.822 0.04926 0.63834 0.0
H2237 H 0.76285 0.03022 0.66656 0.0
H2238 H 0.77393 0.01636 0.66856 0.0
H2239 H 0.76188 0.01462 0.65397 0.0
C2240 C 0.78375 0.98485 0.64353 0.0
C2241 C 0.77958 0.98153 0.63075 0.0
C2242 C 0.7898 1.0027 0.6495 0.0
C2243 C 0.79163 0.01754 0.64283 0.0
C2244 C 0.78753 0.0143 0.63009 0.0
H2245 H 0.80782 0.12553 0.67298 0.0
H2246 H 0.79564 0.09413 0.66218 0.0
C2247 C 0.78155 0.9965 0.62411 0.0
C2248 C 0.79852 0.03665 0.64905 0.0
H2249 H 0.78949 0.06094 0.67121 0.0
C2250 C 0.81485 0.05183 0.64549 0.0
C2251 C 0.78903 0.04002 0.65826 0.0
C2252 C 0.77085 0.02448 0.662 0.0
C2253 C 0.82215 0.07024 0.65104 0.0
C2254 C 0.81307 0.07348 0.66058 0.0
C2255 C 0.79654 0.05838 0.66398 0.0
C2256 C 0.82048 0.09248 0.66711 0.0
C2257 C 0.83934 0.08609 0.64649 0.0
C2258 C 0.83838 0.10184 0.67357 0.0
C2259 C 0.8454 0.11979 0.67966 0.0
C2260 C 0.83457 0.12861 0.67947 0.0
C2261 C 0.81653 0.11911 0.67317 0.0
C2262 C 0.80954 0.10117 0.66705 0.0
H2263 H 0.84145 0.08223 0.63713 0.0
H2264 H 0.83838 0.0991 0.64641 0.0
H2265 H 0.85188 0.08927 0.65267 0.0
H2266 H 0.8469 0.09523 0.67396 0.0
H2267 H 0.8593 0.12676 0.68451 0.0
H2268 H 0.50484 0.3671 0.73454 0.0
H2269 H 0.48344 0.3368 0.72277 0.0
H2270 H 0.43628 0.34224 0.73194 0.0
H2271 H 0.45757 0.37279 0.74339 0.0
H2272 H 0.45525 0.30469 0.73164 0.0
H2273 H 0.42557 0.3289 0.69496 0.0
H2274 H 0.44662 0.34487 0.70474 0.0
H2275 H 0.42401 0.3367 0.71017 0.0
C2276 C 0.48994 0.36203 0.73387 0.0
C2277 C 0.48294 0.37241 0.7399 0.0
C2278 C 0.47772 0.34465 0.72721 0.0
C2279 C 0.45828 0.33736 0.72636 0.0
C2280 C 0.45124 0.34773 0.73229 0.0
H2281 H 0.36157 0.23165 0.69438 0.0
H2282 H 0.38263 0.26286 0.70534 0.0
C2283 C 0.46344 0.3651 0.73896 0.0
C2284 C 0.44534 0.31853 0.71975 0.0
H2285 H 0.41083 0.29579 0.69613 0.0
C2286 C 0.44561 0.30275 0.72383 0.0
C2287 C 0.4327 0.31603 0.70961 0.0
C2288 C 0.43226 0.33253 0.70452 0.0
C2289 C 0.43341 0.2845 0.71816 0.0
C2290 C 0.42082 0.282 0.708 0.0
C2291 C 0.42048 0.29776 0.70393 0.0
C2292 C 0.40808 0.26316 0.70136 0.0
C2293 C 0.43384 0.26799 0.72325 0.0
C2294 C 0.41542 0.25313 0.69536 0.0
C2295 C 0.40345 0.23535 0.68913 0.0
C2296 C 0.38392 0.22732 0.68873 0.0
C2297 C 0.37657 0.23747 0.6946 0.0
C2298 C 0.38857 0.25529 0.70083 0.0
H2299 H 0.44065 0.27164 0.73277 0.0
H2300 H 0.41946 0.2557 0.7231 0.0
H2301 H 0.44195 0.26371 0.71753 0.0
H2302 H 0.43043 0.25909 0.69546 0.0
H2303 H 0.40949 0.22786 0.68464 0.0
H2304 H 0.68326 0.14384 0.76349 0.0
H2305 H 0.71016 0.15076 0.75219 0.0
H2306 H 0.67326 0.12401 0.71903 0.0
H2307 H 0.6462 0.11692 0.7303 0.0
H2308 H 0.71718 0.1252 0.73923 0.0
H2309 H 0.71276 0.17495 0.70875 0.0
H2310 H 0.70022 0.16832 0.72216 0.0
H2311 H 0.69166 0.15248 0.70841 0.0
C2312 C 0.68082 0.13935 0.7538 0.0
C2313 C 0.66254 0.12979 0.74781 0.0
C2314 C 0.69624 0.14341 0.74734 0.0
C2315 C 0.69376 0.13811 0.73474 0.0
C2316 C 0.67555 0.12859 0.7287 0.0
H2317 H 0.77463 0.15119 0.68288 0.0
H2318 H 0.74591 0.14292 0.69251 0.0
C2319 C 0.66009 0.12453 0.73516 0.0
C2320 C 0.71024 0.14204 0.72808 0.0
H2321 H 0.73561 0.16635 0.70528 0.0
C2322 C 0.72122 0.13421 0.73181 0.0
C2323 C 0.71543 0.15371 0.71836 0.0
C2324 C 0.70452 0.16301 0.71422 0.0
C2325 C 0.73722 0.1377 0.72609 0.0
C2326 C 0.7426 0.14963 0.71651 0.0
C2327 C 0.73147 0.15723 0.71264 0.0
C2328 C 0.76002 0.15479 0.71065 0.0
C2329 C 0.74809 0.12838 0.73026 0.0
C2330 C 0.77752 0.16448 0.71761 0.0
C2331 C 0.79394 0.1692 0.71215 0.0
C2332 C 0.79325 0.16446 0.69958 0.0
C2333 C 0.7757 0.15501 0.69258 0.0
C2334 C 0.75926 0.15029 0.69806 0.0
H2335 H 0.73941 0.11578 0.7351 0.0
H2336 H 0.75337 0.12402 0.72242 0.0
H2337 H 0.76031 0.13854 0.73671 0.0
H2338 H 0.77849 0.16846 0.72728 0.0
H2339 H 0.80716 0.17653 0.71783 0.0
H2340 H 0.91833 0.54768 0.71042 0.0
H2341 H 0.91058 0.57069 0.70279 0.0
H2342 H 0.86904 0.55606 0.72839 0.0
H2343 H 0.87686 0.53322 0.73615 0.0
H2344 H 0.87784 0.56476 0.69193 0.0
H2345 H 0.89741 0.61295 0.73419 0.0
H2346 H 0.9042 0.59524 0.73253 0.0
H2347 H 0.88108 0.5889 0.73642 0.0
C2348 C 0.90758 0.54941 0.71444 0.0
C2349 C 0.89826 0.5387 0.72392 0.0
C2350 C 0.90321 0.56261 0.71011 0.0
C2351 C 0.88945 0.56534 0.71516 0.0
C2352 C 0.88007 0.55459 0.72459 0.0
H2353 H 0.82598 0.6111 0.68073 0.0
H2354 H 0.83733 0.59121 0.68915 0.0
C2355 C 0.88451 0.54149 0.72898 0.0
C2356 C 0.88424 0.57872 0.71015 0.0
H2357 H 0.87886 0.61641 0.71814 0.0
C2358 C 0.8782 0.57614 0.69765 0.0
C2359 C 0.88497 0.59375 0.71757 0.0
C2360 C 0.89245 0.59802 0.73089 0.0
C2361 C 0.87241 0.58785 0.69242 0.0
C2362 C 0.87223 0.60226 0.69996 0.0
C2363 C 0.87876 0.60519 0.7124 0.0
C2364 C 0.86523 0.61438 0.69512 0.0
C2365 C 0.86674 0.58479 0.67883 0.0
C2366 C 0.87694 0.63407 0.69606 0.0
C2367 C 0.87041 0.64547 0.69136 0.0
C2368 C 0.85205 0.63735 0.68568 0.0
C2369 C 0.84025 0.61769 0.68495 0.0
C2370 C 0.84675 0.60632 0.68969 0.0
H2371 H 0.87283 0.57725 0.67394 0.0
H2372 H 0.85126 0.57604 0.67715 0.0
H2373 H 0.87122 0.5984 0.67489 0.0
H2374 H 0.8912 0.64059 0.70028 0.0
H2375 H 0.87978 0.6606 0.69205 0.0
H2376 H 0.46548 0.92216 0.18709 0.0
H2377 H 0.47485 0.93249 0.16693 0.0
H2378 H 0.46968 0.98153 0.17522 0.0
H2379 H 0.46068 0.97153 0.19549 0.0
H2380 H 0.45405 0.93961 0.14821 0.0
H2381 H 0.52279 1.00326 0.16387 0.0
H2382 H 0.51036 0.98469 0.17355 0.0
H2383 H 0.50321 1.00173 0.17106 0.0
C2384 C 0.46655 0.93526 0.18468 0.0
C2385 C 0.4624 0.94606 0.19292 0.0
C2386 C 0.47178 0.94107 0.17313 0.0
C2387 C 0.47316 0.95787 0.16964 0.0
C2388 C 0.46896 0.96865 0.1778 0.0
H2389 H 0.50434 0.01876 0.10514 0.0
H2390 H 0.49426 1.00774 0.12502 0.0
C2391 C 0.46364 0.96282 0.18933 0.0
C2392 C 0.47863 0.96394 0.15737 0.0
H2393 H 0.5123 0.99905 0.14284 0.0
C2394 C 0.46682 0.95256 0.14701 0.0
C2395 C 0.49526 0.98086 0.15586 0.0
C2396 C 0.50875 0.99331 0.16665 0.0
C2397 C 0.47102 0.95785 0.13516 0.0
C2398 C 0.4877 0.97476 0.13364 0.0
C2399 C 0.49951 0.9861 0.14402 0.0
C2400 C 0.49319 0.98103 0.12138 0.0
C2401 C 0.45731 0.94551 0.12442 0.0
C2402 C 0.49603 0.96973 0.11273 0.0
C2403 C 0.50175 0.97598 0.10134 0.0
C2404 C 0.50499 0.99378 0.09843 0.0
C2405 C 0.50214 1.00507 0.10713 0.0
C2406 C 0.49632 0.99876 0.11848 0.0
H2407 H 0.44311 0.93625 0.12725 0.0
H2408 H 0.45625 0.95414 0.11733 0.0
H2409 H 0.46219 0.93632 0.12026 0.0
H2410 H 0.49416 0.95621 0.11486 0.0
H2411 H 0.50412 0.96709 0.09492 0.0
H2412 H 0.04364 0.52833 0.20615 0.0
H2413 H 0.03513 0.52801 0.18443 0.0
H2414 H 0.06822 0.50285 0.17493 0.0
H2415 H 0.07704 0.50336 0.19661 0.0
H2416 H 0.06058 0.5461 0.1667 0.0
H2417 H 0.01706 0.4686 0.15472 0.0
H2418 H 0.0227 0.47924 0.17031 0.0
H2419 H 0.03985 0.47663 0.16251 0.0
C2420 C 0.04915 0.52276 0.19945 0.0
C2421 C 0.06102 0.51586 0.20313 0.0
C2422 C 0.04419 0.5225 0.18705 0.0
C2423 C 0.05087 0.5152 0.17809 0.0
C2424 C 0.06261 0.50819 0.18171 0.0
H2425 H 0.03821 0.50502 0.09851 0.0
H2426 H 0.04668 0.50408 0.12005 0.0
C2427 C 0.06761 0.50847 0.19411 0.0
C2428 C 0.04623 0.51574 0.16497 0.0
H2429 H 0.0239 0.48787 0.13835 0.0
C2430 C 0.0525 0.53338 0.1605 0.0
C2431 C 0.03582 0.49911 0.15691 0.0
C2432 C 0.02831 0.47979 0.16133 0.0
C2433 C 0.04882 0.53487 0.14812 0.0
C2434 C 0.0382 0.51824 0.14007 0.0
C2435 C 0.03203 0.50059 0.14454 0.0
C2436 C 0.03312 0.51888 0.12703 0.0
C2437 C 0.05668 0.55427 0.14375 0.0
C2438 C 0.02251 0.5273 0.12381 0.0
C2439 C 0.01785 0.52807 0.11153 0.0
C2440 C 0.0235 0.52019 0.10219 0.0
C2441 C 0.03389 0.51148 0.10545 0.0
C2442 C 0.03861 0.5108 0.11776 0.0
H2443 H 0.06875 0.56511 0.15004 0.0
H2444 H 0.06128 0.55455 0.13446 0.0
H2445 H 0.04565 0.55824 0.14338 0.0
H2446 H 0.01779 0.53329 0.13081 0.0
H2447 H 1.01 0.53505 0.10938 0.0
H2448 H 0.46723 0.55015 0.19328 0.0
H2449 H 0.47612 0.5497 0.17253 0.0
H2450 H 0.47005 0.49482 0.17565 0.0
H2451 H 0.46106 0.49513 0.19641 0.0
H2452 H 0.50573 0.54734 0.16465 0.0
H2453 H 0.43871 0.48621 0.1436 0.0
H2454 H 0.44086 0.49795 0.15844 0.0
H2455 H 0.44875 0.48118 0.15677 0.0
C2456 C 0.46784 0.53801 0.18957 0.0
C2457 C 0.46337 0.52264 0.19649 0.0
C2458 C 0.47285 0.53774 0.17769 0.0
C2459 C 0.47345 0.5221 0.17245 0.0
C2460 C 0.46921 0.50683 0.17938 0.0
H2461 H 0.50753 0.49811 0.10374 0.0
H2462 H 0.49767 0.49763 0.12433 0.0
C2463 C 0.46411 0.50704 0.19125 0.0
C2464 C 0.47904 0.52206 0.15989 0.0
H2465 H 0.46435 0.49788 0.13147 0.0
C2466 C 0.49664 0.53658 0.15738 0.0
C2467 C 0.46716 0.50799 0.15041 0.0
C2468 C 0.44774 0.49254 0.15237 0.0
C2469 C 0.5028 0.53727 0.14571 0.0
C2470 C 0.49095 0.52319 0.13626 0.0
C2471 C 0.47339 0.50863 0.13875 0.0
C2472 C 0.49659 0.52337 0.12372 0.0
C2473 C 0.52206 0.55288 0.1436 0.0
C2474 C 0.49897 0.53785 0.11651 0.0
C2475 C 0.50458 0.53816 0.10475 0.0
C2476 C 0.50796 0.52399 0.1 0.0
C2477 C 0.50529 0.50935 0.1072 0.0
C2478 C 0.49956 0.509 0.11893 0.0
H2479 H 0.53091 0.56013 0.15234 0.0
H2480 H 0.52932 0.54727 0.13805 0.0
H2481 H 0.52072 0.5635 0.13849 0.0
H2482 H 0.49651 0.54894 0.12 0.0
H2483 H 0.50664 0.54969 0.09948 0.0
H2484 H 0.97999 0.4977 0.82907 0.0
H2485 H 0.98816 0.49817 0.85089 0.0
H2486 H 0.94945 0.51672 0.85977 0.0
H2487 H 0.94084 0.51582 0.83799 0.0
H2488 H 1.0026 0.52909 0.86958 0.0
H2489 H 0.93346 0.46943 0.87839 0.0
H2490 H 0.94057 0.47404 0.86317 0.0
H2491 H 0.93269 0.48812 0.87107 0.0
C2492 C 0.97311 0.50173 0.83566 0.0
C2493 C 0.95969 0.50663 0.83179 0.0
C2494 C 0.97788 0.50211 0.84812 0.0
C2495 C 0.96923 0.50725 0.85692 0.0
C2496 C 0.95608 0.51245 0.85311 0.0
H2497 H 0.97586 0.5095 0.93633 0.0
H2498 H 0.96888 0.51287 0.91499 0.0
C2499 C 0.95133 0.51212 0.84066 0.0
C2500 C 0.97397 0.50715 0.87009 0.0
H2501 H 0.95564 0.48558 0.89553 0.0
C2502 C 0.99236 0.51958 0.87527 0.0
C2503 C 0.96054 0.49477 0.87747 0.0
C2504 C 0.94074 0.48071 0.87226 0.0
C2505 C 0.99766 0.52007 0.8877 0.0
C2506 C 0.98429 0.50752 0.89506 0.0
C2507 C 0.96585 0.49522 0.88988 0.0
C2508 C 0.98923 0.50646 0.90805 0.0
C2509 C 0.01745 0.53423 0.89288 0.0
C2510 C 1.00292 0.50168 0.91122 0.0
C2511 C 1.00705 0.49991 0.92339 0.0
C2512 C 0.99741 0.50269 0.93266 0.0
C2513 C 0.98371 0.50752 0.92946 0.0
C2514 C 0.97962 0.50933 0.91726 0.0
H2515 H 0.02408 0.54624 0.88718 0.0
H2516 H 0.01784 0.53986 0.90236 0.0
H2517 H 0.02599 0.52723 0.89308 0.0
H2518 H 1.01023 0.49903 0.90424 0.0
H2519 H 0.01781 0.49638 0.92554 0.0
H2520 H 0.5275 0.48537 0.83136 0.0
H2521 H 0.51838 0.48568 0.85207 0.0
H2522 H 0.57652 0.51543 0.86649 0.0
H2523 H 0.58579 0.51498 0.84586 0.0
H2524 H 0.52673 0.47023 0.87232 0.0
H2525 H 0.55576 0.54748 0.88159 0.0
H2526 H 0.55203 0.53611 0.86636 0.0
H2527 H 0.57202 0.54073 0.87649 0.0
C2528 C 0.53837 0.49192 0.83894 0.0
C2529 C 0.5574 0.50018 0.83692 0.0
C2530 C 0.53312 0.49216 0.85076 0.0
C2531 C 0.54678 0.50079 0.86079 0.0
C2532 C 0.56577 0.50905 0.85885 0.0
H2533 H 0.54191 0.51447 0.93923 0.0
H2534 H 0.55187 0.51465 0.91871 0.0
C2535 C 0.57104 0.50879 0.84703 0.0
C2536 C 0.5411 0.50056 0.87334 0.0
H2537 H 0.54422 0.52907 0.89822 0.0
C2538 C 0.53048 0.48308 0.87798 0.0
C2539 C 0.54611 0.51736 0.88071 0.0
C2540 C 0.55698 0.5365 0.87604 0.0
C2541 C 0.52492 0.48193 0.88986 0.0
C2542 C 0.5298 0.49872 0.8972 0.0
C2543 C 0.5405 0.51622 0.89258 0.0
C2544 C 0.52372 0.49841 0.90964 0.0
C2545 C 0.5142 0.46276 0.89452 0.0
C2546 C 0.5046 0.4894 0.91134 0.0
C2547 C 0.49886 0.48913 0.92305 0.0
C2548 C 0.51214 0.49803 0.93332 0.0
C2549 C 0.53131 0.50723 0.93156 0.0
C2550 C 0.53703 0.50747 0.91983 0.0
H2551 H 0.51614 0.45205 0.88923 0.0
H2552 H 0.51863 0.46328 0.90432 0.0
H2553 H 0.49903 0.45804 0.89357 0.0
H2554 H 0.49408 0.48262 0.90359 0.0
H2555 H 0.484 0.48177 0.92406 0.0
H2556 H 0.54373 0.10752 0.84865 0.0
H2557 H 0.53981 0.09686 0.86913 0.0
H2558 H 0.54031 0.04677 0.85579 0.0
H2559 H 0.54421 0.05734 0.83523 0.0
H2560 H 0.51021 0.06412 0.87569 0.0
H2561 H 0.57724 0.0653 0.88652 0.0
H2562 H 0.57371 0.07709 0.87412 0.0
H2563 H 0.56439 0.052 0.87233 0.0
C2564 C 0.54306 0.09425 0.85007 0.0
C2565 C 0.54423 0.08326 0.84029 0.0
C2566 C 0.5409 0.08822 0.8618 0.0
C2567 C 0.53997 0.07112 0.86403 0.0
C2568 C 0.5414 0.06021 0.85434 0.0
H2569 H 0.51456 1.00571 0.92681 0.0
H2570 H 0.52251 0.01773 0.90684 0.0
C2571 C 0.54361 0.06626 0.84259 0.0
C2572 C 0.53635 0.06425 0.87634 0.0
H2573 H 0.55404 0.0511 0.9003 0.0
C2574 C 0.51985 0.06138 0.8811 0.0
C2575 C 0.54889 0.06058 0.88335 0.0
C2576 C 0.56714 0.06404 0.87889 0.0
C2577 C 0.51543 0.05473 0.89262 0.0
C2578 C 0.52801 0.05115 0.89966 0.0
C2579 C 0.54446 0.05391 0.89489 0.0
C2580 C 0.52415 0.04436 0.91196 0.0
C2581 C 0.49713 0.0512 0.89704 0.0
C2582 C 0.52283 0.05552 0.92153 0.0
C2583 C 0.5182 0.04867 0.93292 0.0
C2584 C 0.51484 0.03052 0.93498 0.0
C2585 C 0.51675 0.01962 0.92547 0.0
C2586 C 0.52142 0.02651 0.91408 0.0
H2587 H 0.48714 0.05024 0.88944 0.0
H2588 H 0.49043 0.03797 0.90161 0.0
H2589 H 0.49985 0.06305 0.90378 0.0
H2590 H 0.52518 0.06947 0.92013 0.0
H2591 H 0.51675 0.05739 0.94001 0.0
H2592 H 0.15779 0.3007 0.53273 0.0
H2593 H 0.16707 0.31074 0.51252 0.0
H2594 H 0.11027 0.27362 0.49668 0.0
H2595 H 0.10088 0.26344 0.51682 0.0
H2596 H 0.16466 0.28901 0.49155 0.0
H2597 H 0.12252 0.32371 0.48364 0.0
H2598 H 0.12674 0.31751 0.4985 0.0
H2599 H 0.10918 0.29977 0.48732 0.0
C2600 C 0.14727 0.29462 0.52494 0.0
C2601 C 0.12856 0.28131 0.52642 0.0
C2602 C 0.15259 0.30044 0.51341 0.0
C2603 C 0.13931 0.29317 0.50312 0.0
C2604 C 0.12066 0.27978 0.50453 0.0
H2605 H 0.14631 0.30748 0.42538 0.0
H2606 H 0.13598 0.29759 0.44545 0.0
C2607 C 0.11532 0.27397 0.51606 0.0
C2608 C 0.14513 0.29914 0.49086 0.0
H2609 H 0.13738 0.31987 0.46681 0.0
C2610 C 0.15876 0.29584 0.48616 0.0
C2611 C 0.13737 0.30799 0.48383 0.0
C2612 C 0.12326 0.31263 0.4886 0.0
C2613 C 0.16466 0.30091 0.47456 0.0
C2614 C 0.15693 0.30979 0.46754 0.0
C2615 C 0.14325 0.31302 0.4722 0.0
C2616 C 0.16312 0.31608 0.45542 0.0
C2617 C 0.17889 0.29643 0.46982 0.0
C2618 C 0.1817 0.33001 0.4544 0.0
C2619 C 0.18762 0.33578 0.44297 0.0
C2620 C 0.17506 0.32778 0.4323 0.0
C2621 C 0.15633 0.31405 0.4334 0.0
C2622 C 0.15041 0.30831 0.44485 0.0
H2623 H 0.17987 0.28553 0.47485 0.0
H2624 H 0.17536 0.2914 0.45993 0.0
H2625 H 0.19289 0.30941 0.47098 0.0
H2626 H 0.19163 0.33649 0.46247 0.0
H2627 H 0.20203 0.34667 0.44252 0.0
H2628 H 0.70803 0.82101 0.53456 0.0
H2629 H 0.70039 0.82064 0.51265 0.0
H2630 H 0.73697 0.88096 0.51497 0.0
H2631 H 0.74508 0.88142 0.53674 0.0
H2632 H 0.68463 0.84027 0.50099 0.0
H2633 H 0.75521 0.8612 0.4869 0.0
H2634 H 0.7482 0.85277 0.50158 0.0
H2635 H 0.75508 0.8767 0.49899 0.0
C2636 C 0.71458 0.83417 0.53037 0.0
C2637 C 0.72722 0.85124 0.53739 0.0
C2638 C 0.71012 0.83394 0.51789 0.0
C2639 C 0.71833 0.85073 0.51217 0.0
C2640 C 0.73073 0.86781 0.51917 0.0
H2641 H 0.7121 0.88364 0.43965 0.0
H2642 H 0.71919 0.88184 0.46127 0.0
C2643 C 0.73517 0.86806 0.53164 0.0
C2644 C 0.71375 0.85048 0.49893 0.0
H2645 H 0.73325 0.86109 0.47192 0.0
C2646 C 0.6952 0.84468 0.4946 0.0
C2647 C 0.72761 0.85628 0.49064 0.0
C2648 C 0.74762 0.86193 0.49471 0.0
C2649 C 0.69022 0.84503 0.48223 0.0
C2650 C 0.70412 0.85097 0.47396 0.0
C2651 C 0.72263 0.85658 0.47828 0.0
C2652 C 0.69985 0.85183 0.46082 0.0
C2653 C 0.67025 0.83957 0.47821 0.0
C2654 C 0.68685 0.8355 0.45335 0.0
C2655 C 0.68277 0.83648 0.441 0.0
C2656 C 0.69178 0.8538 0.43585 0.0
C2657 C 0.70506 0.87006 0.44331 0.0
C2658 C 0.70907 0.86907 0.45567 0.0
H2659 H 0.66264 0.84009 0.48607 0.0
H2660 H 0.66975 0.849 0.47152 0.0
H2661 H 0.66273 0.82491 0.47374 0.0
H2662 H 0.67993 0.82196 0.45707 0.0
H2663 H 0.67269 0.82366 0.43544 0.0
H2664 H 0.0997 0.84257 0.52054 0.0
H2665 H 0.10916 0.84178 0.49998 0.0
H2666 H 0.16704 0.86935 0.51485 0.0
H2667 H 0.15768 0.86959 0.53547 0.0
H2668 H 0.13258 0.87181 0.48738 0.0
H2669 H 0.16136 0.82421 0.49366 0.0
H2670 H 0.14685 0.82689 0.50428 0.0
H2671 H 0.17131 0.84429 0.50485 0.0
C2672 C 0.11443 0.8482 0.51947 0.0
C2673 C 0.12792 0.85606 0.52968 0.0
C2674 C 0.11981 0.84786 0.5077 0.0
C2675 C 0.13877 0.85525 0.50589 0.0
C2676 C 0.15229 0.86323 0.51604 0.0
H2677 H 0.20278 0.87304 0.44373 0.0
H2678 H 0.19172 0.8721 0.46392 0.0
C2679 C 0.14693 0.86357 0.52782 0.0
C2680 C 0.14447 0.85513 0.49337 0.0
H2681 H 0.16766 0.83994 0.47551 0.0
C2682 C 0.14013 0.86473 0.48475 0.0
C2683 C 0.15431 0.84588 0.48996 0.0
C2684 C 0.15859 0.83458 0.49863 0.0
C2685 C 0.14579 0.86574 0.4729 0.0
C2686 C 0.15582 0.85667 0.46954 0.0
C2687 C 0.16002 0.84693 0.47813 0.0
C2688 C 0.16233 0.85731 0.45722 0.0
C2689 C 0.14144 0.87692 0.46417 0.0
C2690 C 0.14945 0.84916 0.44675 0.0
C2691 C 0.15572 0.84957 0.43518 0.0
C2692 C 0.175 0.85806 0.43387 0.0
C2693 C 0.18784 0.86617 0.44441 0.0
C2694 C 0.18156 0.86574 0.45595 0.0
H2695 H 0.13763 0.88658 0.469 0.0
H2696 H 0.15359 0.88537 0.45899 0.0
H2697 H 0.12941 0.86705 0.4575 0.0
H2698 H 0.13454 0.84225 0.44755 0.0
H2699 H 0.14545 0.84291 0.4273 0.0
H2700 H 0.64369 0.86756 0.16798 0.0
H2701 H 0.65214 0.868 0.18976 0.0
H2702 H 0.61634 0.80757 0.18751 0.0
H2703 H 0.60766 0.807 0.16583 0.0
H2704 H 0.62815 0.8549 0.20877 0.0
H2705 H 0.66697 0.81644 0.203 0.0
H2706 H 0.66134 0.8269 0.19061 0.0
H2707 H 0.64382 0.80461 0.19509 0.0
C2708 C 0.63755 0.85437 0.17213 0.0
C2709 C 0.6251 0.83722 0.16514 0.0
C2710 C 0.64245 0.85465 0.18456 0.0
C2711 C 0.63509 0.83779 0.19018 0.0
C2712 C 0.62251 0.82069 0.18328 0.0
H2713 H 0.6412 0.80287 0.26179 0.0
H2714 H 0.63418 0.80558 0.24035 0.0
C2715 C 0.61759 0.82039 0.17088 0.0
C2716 C 0.64021 0.83802 0.20333 0.0
H2717 H 0.65982 0.82059 0.22313 0.0
C2718 C 0.63522 0.84755 0.21194 0.0
C2719 C 0.64944 0.82842 0.2074 0.0
C2720 C 0.65588 0.81865 0.19855 0.0
C2721 C 0.63866 0.84721 0.22455 0.0
C2722 C 0.6476 0.83732 0.22861 0.0
C2723 C 0.65288 0.82807 0.21999 0.0
C2724 C 0.65131 0.83602 0.24175 0.0
C2725 C 0.63216 0.8569 0.2334 0.0
C2726 C 0.66327 0.85225 0.24965 0.0
C2727 C 0.66733 0.85074 0.26192 0.0
C2728 C 0.65963 0.83295 0.26646 0.0
C2729 C 0.64753 0.81675 0.25853 0.0
C2730 C 0.64344 0.81828 0.2463 0.0
H2731 H 0.62165 0.85984 0.22886 0.0
H2732 H 0.62595 0.84819 0.24104 0.0
H2733 H 0.64435 0.87056 0.23733 0.0
H2734 H 0.6698 0.86604 0.24627 0.0
H2735 H 0.67692 0.86345 0.26776 0.0
H2736 H 0.25203 0.84543 0.18005 0.0
H2737 H 0.24263 0.84547 0.2007 0.0
H2738 H 0.18466 0.81749 0.18602 0.0
H2739 H 0.19391 0.81758 0.16532 0.0
H2740 H 0.22195 0.86148 0.21024 0.0
H2741 H 0.18537 0.78385 0.21227 0.0
H2742 H 0.20121 0.79543 0.20094 0.0
H2743 H 0.17772 0.79139 0.19921 0.0
C2744 C 0.23728 0.83941 0.18119 0.0
C2745 C 0.22372 0.83143 0.17101 0.0
C2746 C 0.23194 0.83937 0.19301 0.0
C2747 C 0.21294 0.83124 0.19491 0.0
C2748 C 0.19937 0.82347 0.18478 0.0
H2749 H 0.15106 0.81538 0.25813 0.0
H2750 H 0.16126 0.81622 0.23769 0.0
C2751 C 0.20469 0.82352 0.17296 0.0
C2752 C 0.20735 0.83114 0.20747 0.0
H2753 H 0.18231 0.80191 0.22855 0.0
C2754 C 0.21336 0.84847 0.21429 0.0
C2755 C 0.19612 0.81414 0.2127 0.0
C2756 C 0.18983 0.79513 0.20597 0.0
C2757 C 0.2081 0.84926 0.22611 0.0
C2758 C 0.19686 0.83225 0.23134 0.0
C2759 C 0.19092 0.81493 0.22453 0.0
C2760 C 0.19087 0.83207 0.24381 0.0
C2761 C 0.21422 0.8683 0.23275 0.0
C2762 C 0.20413 0.84053 0.25408 0.0
C2763 C 0.19834 0.84025 0.26579 0.0
C2764 C 0.17916 0.83137 0.26748 0.0
C2765 C 0.16593 0.82266 0.25717 0.0
C2766 C 0.17173 0.82299 0.24547 0.0
H2767 H 0.21835 0.87944 0.22636 0.0
H2768 H 0.20289 0.8679 0.23788 0.0
H2769 H 0.22654 0.87233 0.23939 0.0
H2770 H 0.21897 0.84728 0.25304 0.0
H2771 H 0.20891 0.84719 0.2735 0.0
H2772 H 0.21105 0.38951 0.16831 0.0
H2773 H 0.20696 0.37909 0.18894 0.0
H2774 H 0.2018 0.42692 0.20123 0.0
H2775 H 0.2059 0.43742 0.18072 0.0
H2776 H 0.22705 0.39714 0.21182 0.0
H2777 H 0.15366 0.38202 0.21046 0.0
H2778 H 0.16594 0.38585 0.19695 0.0
H2779 H 0.17 0.40559 0.20724 0.0
C2780 C 0.20923 0.39791 0.17544 0.0
C2781 C 0.20858 0.41417 0.17283 0.0
C2782 C 0.20683 0.3919 0.18721 0.0
C2783 C 0.20369 0.40202 0.19655 0.0
C2784 C 0.20373 0.41863 0.19408 0.0
H2785 H 0.1817 0.39035 0.27242 0.0
H2786 H 0.18978 0.40151 0.25226 0.0
C2787 C 0.20607 0.42461 0.18235 0.0
C2788 C 0.20014 0.39517 0.20886 0.0
H2789 H 0.16787 0.38138 0.22969 0.0
C2790 C 0.21408 0.39358 0.21571 0.0
C2791 C 0.18316 0.39046 0.21389 0.0
C2792 C 0.16725 0.39087 0.20672 0.0
C2793 C 0.21169 0.38789 0.22761 0.0
C2794 C 0.19484 0.3835 0.2327 0.0
C2795 C 0.18084 0.38491 0.2258 0.0
C2796 C 0.1913 0.37728 0.24514 0.0
C2797 C 0.22733 0.38702 0.23476 0.0
C2798 C 0.18952 0.35997 0.24782 0.0
C2799 C 0.18491 0.35356 0.25933 0.0
C2800 C 0.18198 0.36434 0.26837 0.0
C2801 C 0.18409 0.38182 0.26571 0.0
C2802 C 0.1886 0.38817 0.25418 0.0
H2803 H 0.2408 0.39476 0.23066 0.0
H2804 H 0.22932 0.39301 0.24438 0.0
H2805 H 0.22368 0.37207 0.23485 0.0
H2806 H 0.19128 0.35122 0.24092 0.0
H2807 H 0.18351 0.34009 0.26112 0.0
H2808 H 0.82437 0.62898 0.86569 0.0
H2809 H 0.83355 0.63873 0.84542 0.0
H2810 H 0.77557 0.60774 0.83064 0.0
H2811 H 0.76626 0.59772 0.85083 0.0
H2812 H 0.82656 0.61555 0.82353 0.0
H2813 H 0.79431 0.66058 0.81918 0.0
H2814 H 0.79823 0.65305 0.83363 0.0
H2815 H 0.77874 0.63703 0.82285 0.0
C2816 C 0.81356 0.62414 0.85813 0.0
C2817 C 0.79456 0.61261 0.85992 0.0
C2818 C 0.81883 0.62981 0.84656 0.0
C2819 C 0.80523 0.62418 0.83657 0.0
C2820 C 0.78627 0.61259 0.83828 0.0
H2821 H 0.81095 0.64509 0.75972 0.0
H2822 H 0.80071 0.63394 0.77957 0.0
C2823 C 0.78098 0.60689 0.84984 0.0
C2824 C 0.81093 0.63006 0.82429 0.0
H2825 H 0.80682 0.65505 0.80166 0.0
C2826 C 0.8223 0.62423 0.81875 0.0
C2827 C 0.80527 0.64131 0.81806 0.0
C2828 C 0.7936 0.64852 0.82375 0.0
C2829 C 0.828 0.62916 0.80709 0.0
C2830 C 0.82248 0.64056 0.8009 0.0
C2831 C 0.81101 0.6463 0.80641 0.0
C2832 C 0.82874 0.64698 0.7888 0.0
C2833 C 0.83958 0.62182 0.80141 0.0
C2834 C 0.84788 0.65814 0.78742 0.0
C2835 C 0.85378 0.6644 0.77607 0.0
C2836 C 0.84065 0.65978 0.76588 0.0
C2837 C 0.82146 0.64869 0.76732 0.0
C2838 C 0.81557 0.64241 0.77868 0.0
H2839 H 0.83807 0.60921 0.80564 0.0
H2840 H 0.83553 0.61806 0.79142 0.0
H2841 H 0.85458 0.63294 0.80284 0.0
H2842 H 0.85829 0.66215 0.79515 0.0
H2843 H 0.86867 0.67276 0.77529 0.0
H2844 H 0.37791 0.19891 0.87254 0.0
H2845 H 0.36996 0.1989 0.85077 0.0
H2846 H 0.39716 0.16731 0.84167 0.0
H2847 H 0.4055 0.16754 0.86339 0.0
H2848 H 0.39641 0.21381 0.8328 0.0
H2849 H 0.34469 0.13743 0.82186 0.0
H2850 H 0.35131 0.1487 0.83731 0.0
H2851 H 0.36673 0.14295 0.82978 0.0
C2852 C 0.38226 0.192 0.86592 0.0
C2853 C 0.39236 0.18323 0.86973 0.0
C2854 C 0.37761 0.19192 0.85349 0.0
C2855 C 0.3828 0.18293 0.84464 0.0
C2856 C 0.39272 0.17402 0.84838 0.0
H2857 H 0.3681 0.17033 0.76501 0.0
H2858 H 0.37645 0.16916 0.78654 0.0
C2859 C 0.39744 0.17414 0.8608 0.0
C2860 C 0.37856 0.18363 0.83149 0.0
H2861 H 0.35345 0.15621 0.80525 0.0
C2862 C 0.38698 0.20124 0.82676 0.0
C2863 C 0.36637 0.16717 0.82367 0.0
C2864 C 0.3566 0.14798 0.82838 0.0
C2865 C 0.38367 0.20284 0.81436 0.0
C2866 C 0.37126 0.18642 0.80654 0.0
C2867 C 0.36295 0.16877 0.81126 0.0
C2868 C 0.36641 0.18731 0.79351 0.0
C2869 C 0.39378 0.22207 0.80969 0.0
C2870 C 0.35784 0.19774 0.7903 0.0
C2871 C 0.35324 0.1986 0.77803 0.0
C2872 C 0.35692 0.18885 0.7687 0.0
C2873 C 0.36533 0.17823 0.77195 0.0
C2874 C 0.36998 0.17743 0.78425 0.0
H2875 H 0.40657 0.23199 0.81581 0.0
H2876 H 0.39784 0.22117 0.80035 0.0
H2877 H 0.38436 0.22807 0.80931 0.0
H2878 H 0.35462 0.20518 0.7973 0.0
H2879 H 0.34695 0.20706 0.77586 0.0
H2880 H 0.76697 0.1754 0.85391 0.0
H2881 H 0.77642 0.17459 0.83334 0.0
H2882 H 0.83429 0.20212 0.84822 0.0
H2883 H 0.82494 0.20239 0.86883 0.0
H2884 H 0.79986 0.20468 0.8208 0.0
H2885 H 0.82862 0.15704 0.82695 0.0
H2886 H 0.8141 0.15967 0.83759 0.0
H2887 H 0.83856 0.17708 0.83817 0.0
C2888 C 0.78168 0.18101 0.85283 0.0
C2889 C 0.79518 0.18888 0.86304 0.0
C2890 C 0.78707 0.18066 0.84106 0.0
C2891 C 0.80603 0.18804 0.83926 0.0
C2892 C 0.81955 0.19601 0.84941 0.0
H2893 H 0.87006 0.20641 0.77705 0.0
H2894 H 0.859 0.20513 0.79728 0.0
C2895 C 0.81419 0.19636 0.86118 0.0
C2896 C 0.81173 0.18796 0.82674 0.0
H2897 H 0.83493 0.17284 0.80883 0.0
C2898 C 0.8074 0.1976 0.81814 0.0
C2899 C 0.82157 0.17872 0.8233 0.0
C2900 C 0.82585 0.16738 0.83194 0.0
C2901 C 0.81307 0.19866 0.8063 0.0
C2902 C 0.82309 0.1896 0.80291 0.0
C2903 C 0.82729 0.17982 0.81147 0.0
C2904 C 0.82961 0.1903 0.79059 0.0
C2905 C 0.80874 0.2099 0.7976 0.0
C2906 C 0.81672 0.18221 0.78012 0.0
C2907 C 0.82299 0.18282 0.76854 0.0
C2908 C 0.84228 0.19145 0.76721 0.0
C2909 C 0.85511 0.19944 0.77775 0.0
C2910 C 0.84883 0.19881 0.78931 0.0
H2911 H 0.80492 0.21954 0.80246 0.0
H2912 H 0.8209 0.21837 0.79244 0.0
H2913 H 0.79672 0.20006 0.79092 0.0
H2914 H 0.80181 0.17524 0.78093 0.0
H2915 H 0.81271 0.17624 0.76065 0.0
H2916 H 0.27301 0.18169 0.50482 0.0
H2917 H 0.28199 0.18301 0.52659 0.0
H2918 H 0.32138 0.16541 0.51762 0.0
H2919 H 0.31285 0.16453 0.49583 0.0
H2920 H 0.27919 0.15281 0.53915 0.0
H2921 H 0.35266 0.21202 0.54235 0.0
H2922 H 0.33568 0.20746 0.52961 0.0
H2923 H 0.34689 0.19354 0.53049 0.0
C2924 C 0.28381 0.1784 0.50747 0.0
C2925 C 0.29227 0.17307 0.49859 0.0
C2926 C 0.28883 0.17905 0.51991 0.0
C2927 C 0.30251 0.17455 0.5237 0.0
C2928 C 0.31102 0.16926 0.51488 0.0
H2929 H 0.34943 0.16181 0.5921 0.0
H2930 H 0.34126 0.16405 0.57081 0.0
C2931 C 0.30598 0.16856 0.50244 0.0
C2932 C 0.30727 0.17456 0.53689 0.0
H2933 H 0.34343 0.19433 0.55958 0.0
C2934 C 0.29319 0.16198 0.54367 0.0
C2935 C 0.32556 0.18652 0.5427 0.0
C2936 C 0.34105 0.20078 0.53596 0.0
C2937 C 0.29702 0.16066 0.55605 0.0
C2938 C 0.31535 0.17254 0.56186 0.0
C2939 C 0.32939 0.18526 0.5551 0.0
C2940 C 0.32039 0.17157 0.57484 0.0
C2941 C 0.28156 0.14614 0.56269 0.0
C2942 C 0.31156 0.17533 0.5842 0.0
C2943 C 0.31604 0.17384 0.59639 0.0
C2944 C 0.32955 0.1687 0.59945 0.0
C2945 C 0.3387 0.16542 0.59005 0.0
C2946 C 0.33416 0.16685 0.57788 0.0
H2947 H 0.26987 0.13512 0.55625 0.0
H2948 H 0.28694 0.13916 0.56878 0.0
H2949 H 0.27582 0.15321 0.56842 0.0
H2950 H 0.30115 0.17935 0.58207 0.0
H2951 H 0.30867 0.17638 0.60338 0.0
H2952 H 0.91826 0.17756 0.5131 0.0
H2953 H 0.90887 0.17752 0.53376 0.0
H2954 H 0.85112 0.15191 0.51896 0.0
H2955 H 0.86038 0.15206 0.49826 0.0
H2956 H 0.88951 0.19467 0.54359 0.0
H2957 H 0.84978 0.11686 0.54472 0.0
H2958 H 0.86586 0.12817 0.53346 0.0
H2959 H 0.8428 0.12528 0.53184 0.0
C2960 C 0.90357 0.17204 0.51422 0.0
C2961 C 0.89006 0.16475 0.50401 0.0
C2962 C 0.89823 0.17195 0.52604 0.0
C2963 C 0.87929 0.16446 0.5279 0.0
C2964 C 0.86578 0.15738 0.51775 0.0
H2965 H 0.81785 0.15023 0.59123 0.0
H2966 H 0.82789 0.15097 0.57074 0.0
C2967 C 0.8711 0.15747 0.50592 0.0
C2968 C 0.8737 0.16436 0.54047 0.0
H2969 H 0.8476 0.13518 0.56124 0.0
C2970 C 0.88042 0.18167 0.54749 0.0
C2971 C 0.86182 0.14738 0.5455 0.0
C2972 C 0.85475 0.12834 0.53855 0.0
C2973 C 0.87527 0.18249 0.55934 0.0
C2974 C 0.86338 0.1655 0.56438 0.0
C2975 C 0.85671 0.14818 0.55736 0.0
C2976 C 0.85748 0.16534 0.57687 0.0
C2977 C 0.8822 0.20155 0.56622 0.0
C2978 C 0.87078 0.173 0.58715 0.0
C2979 C 0.8651 0.17276 0.59889 0.0
C2980 C 0.84598 0.16474 0.60059 0.0
C2981 C 0.8327 0.15684 0.59026 0.0
C2982 C 0.8384 0.15711 0.57854 0.0
H2983 H 0.88691 0.21293 0.55998 0.0
H2984 H 0.87112 0.20163 0.57139 0.0
H2985 H 0.89433 0.20484 0.57284 0.0
H2986 H 0.88556 0.17908 0.5861 0.0
H2987 H 0.87571 0.17908 0.60661 0.0
H2988 H 0.90257 0.76026 0.51223 0.0
H2989 H 0.89945 0.74954 0.53276 0.0
H2990 H 0.84087 0.70983 0.52251 0.0
H2991 H 0.844 0.71996 0.50192 0.0
H2992 H 0.87683 0.75118 0.54953 0.0
H2993 H 0.85829 0.67699 0.53831 0.0
H2994 H 0.86801 0.69457 0.5276 0.0
H2995 H 0.84341 0.68311 0.52957 0.0
C2996 C 0.88911 0.74899 0.51428 0.0
C2997 C 0.87353 0.74097 0.50542 0.0
C2998 C 0.88733 0.74297 0.52604 0.0
C2999 C 0.86999 0.7287 0.52913 0.0
C3000 C 0.85448 0.72059 0.52028 0.0
H3001 H 0.81662 0.67942 0.59228 0.0
H3002 H 0.8258 0.68973 0.57216 0.0
C3003 C 0.85624 0.72658 0.50854 0.0
C3004 C 0.86776 0.72297 0.54177 0.0
H3005 H 0.85172 0.68452 0.55809 0.0
C3006 C 0.8716 0.73666 0.55144 0.0
C3007 C 0.86097 0.70402 0.54425 0.0
C3008 C 0.85761 0.68886 0.5344 0.0
C3009 C 0.86805 0.73176 0.56343 0.0
C3010 C 0.86065 0.71271 0.56581 0.0
C3011 C 0.85731 0.69911 0.55622 0.0
C3012 C 0.85543 0.70644 0.57808 0.0
C3013 C 0.87153 0.74685 0.57337 0.0
C3014 C 0.86908 0.71229 0.58807 0.0
C3015 C 0.8639 0.70627 0.5996 0.0
C3016 C 0.84495 0.69425 0.60135 0.0
C3017 C 0.83136 0.68841 0.59126 0.0
C3018 C 0.83656 0.69437 0.57976 0.0
H3019 H 0.87405 0.76013 0.56962 0.0
H3020 H 0.85943 0.74187 0.57891 0.0
H3021 H 0.88405 0.75005 0.57956 0.0
H3022 H 0.88376 0.72139 0.58692 0.0
H3023 H 0.87476 0.71083 0.6071 0.0
loop_
_geom_bond_atom_site_label_1
_geom_bond_atom_site_label_2
_geom_bond_distance
_geom_bond_site_symmetry_2
_ccdc_geom_bond_type
C0 C1 1.264 . S
C0 C5 1.479 . S
C0 C10 1.465 . S
C1 C0 1.264 . S
C1 C3 1.339 . S
C1 H28 0.931 . S
C2 C3 1.395 . S
C2 C4 1.320 . S
C3 C1 1.339 . S
C3 C2 1.395 . S
C3 H29 0.929 . S
C4 C2 1.320 . S
C4 C5 1.405 . S
C4 H30 0.930 . S
C5 C0 1.479 . S
C5 C4 1.405 . S
C5 H31 0.931 . S
U6 O7 2.454 . S
U6 O8 2.458 . S
U6 C9 2.984 . S
U6 C10 2.847 . S
U6 C23 2.882 . S
U6 O24 2.441 . S
U6 O25 2.420 . S
U6 O26 2.455 . S
U6 O27 2.449 . S
O7 U6 2.454 . S
O7 C9 1.353 . S
O8 U6 2.458 . S
O8 C9 1.286 . S
C9 U6 2.984 . S
C9 O7 1.353 . S
C9 O8 1.286 . S
C9 C11 1.363 . S
C10 C0 1.465 . S
C10 U6 2.847 . S
C10 O24 1.249 . S
C10 O25 1.202 . S
C11 C9 1.363 . S
C11 C13 1.408 . S
C11 C16 1.342 . S
C12 C13 1.310 . S
C12 C15 1.461 . S
C12 H32 0.932 . S
C13 C11 1.408 . S
C13 C12 1.310 . S
C13 H33 0.930 . S
C14 C15 1.474 . S
C14 C16 1.285 . S
C14 H34 0.929 . S
C15 C12 1.461 . S
C15 C14 1.474 . S
C16 C11 1.342 . S
C16 C14 1.285 . S
C16 H35 0.930 . S
C17 C20 1.424 . S
C17 C22 1.245 . S
C17 C23 1.428 . S
C18 C21 1.260 . S
C18 C22 1.477 . S
C18 H36 0.932 . S
C19 C20 1.384 . S
C19 C21 1.479 . S
C19 H37 0.929 . S
C20 C17 1.424 . S
C20 C19 1.384 . S
C20 H38 0.928 . S
C21 C18 1.260 . S
C21 C19 1.479 . S
C22 C17 1.245 . S
C22 C18 1.477 . S
C22 H39 0.932 . S
C23 U6 2.882 . S
C23 C17 1.428 . S
C23 O26 1.301 . S
C23 O27 1.282 . S
O24 U6 2.441 . S
O24 C10 1.249 . S
O25 U6 2.420 . S
O25 C10 1.202 . S
O26 U6 2.455 . S
O26 C23 1.301 . S
O27 U6 2.449 . S
O27 C23 1.282 . S
H28 C1 0.931 . S
H29 C3 0.929 . S
H30 C4 0.930 . S
H31 C5 0.931 . S
H32 C12 0.932 . S
H33 C13 0.930 . S
H34 C14 0.929 . S
H35 C16 0.930 . S
H36 C18 0.932 . S
H37 C19 0.929 . S
H38 C20 0.928 . S
H39 C22 0.932 . S
C40 C41 1.264 . S
C40 C45 1.479 . S
C40 C50 1.465 . S
C41 C40 1.264 . S
C41 C43 1.339 . S
C41 H68 0.931 . S
C42 C43 1.395 . S
C42 C44 1.320 . S
C43 C41 1.339 . S
C43 C42 1.395 . S
C43 H69 0.929 . S
C44 C42 1.320 . S
C44 C45 1.405 . S
C44 H70 0.930 . S
C45 C40 1.479 . S
C45 C44 1.405 . S
C45 H71 0.931 . S
U46 O47 2.454 . S
U46 O48 2.458 . S
U46 C49 2.984 . S
U46 C50 2.847 . S
U46 C63 2.882 . S
U46 O64 2.441 . S
U46 O65 2.420 . S
U46 O66 2.455 . S
U46 O67 2.449 . S
O47 U46 2.454 . S
O47 C49 1.353 . S
O48 U46 2.458 . S
O48 C49 1.286 . S
C49 U46 2.984 . S
C49 O47 1.353 . S
C49 O48 1.286 . S
C49 C51 1.363 . S
C50 C40 1.465 . S
C50 U46 2.847 . S
C50 O64 1.249 . S
C50 O65 1.202 . S
C51 C49 1.363 . S
C51 C53 1.408 . S
C51 C56 1.342 . S
C52 C53 1.310 . S
C52 C55 1.461 . S
C52 H72 0.932 . S
C53 C51 1.408 . S
C53 C52 1.310 . S
C53 H73 0.930 . S
C54 C55 1.474 . S
C54 C56 1.285 . S
C54 H74 0.929 . S
C55 C52 1.461 . S
C55 C54 1.474 . S
C56 C51 1.342 . S
C56 C54 1.285 . S
C56 H75 0.930 . S
C57 C60 1.424 . S
C57 C62 1.245 . S
C57 C63 1.428 . S
C58 C61 1.260 . S
C58 C62 1.477 . S
C58 H76 0.932 . S
C59 C60 1.384 . S
C59 C61 1.479 . S
C59 H77 0.929 . S
C60 C57 1.424 . S
C60 C59 1.384 . S
C60 H78 0.928 . S
C61 C58 1.260 . S
C61 C59 1.479 . S
C62 C57 1.245 . S
C62 C58 1.477 . S
C62 H79 0.932 . S
C63 U46 2.882 . S
C63 C57 1.428 . S
C63 O66 1.301 . S
C63 O67 1.282 . S
O64 U46 2.441 . S
O64 C50 1.249 . S
O65 U46 2.420 . S
O65 C50 1.202 . S
O66 U46 2.455 . S
O66 C63 1.301 . S
O67 U46 2.449 . S
O67 C63 1.282 . S
H68 C41 0.931 . S
H69 C43 0.929 . S
H70 C44 0.930 . S
H71 C45 0.931 . S
H72 C52 0.932 . S
H73 C53 0.930 . S
H74 C54 0.929 . S
H75 C56 0.930 . S
H76 C58 0.932 . S
H77 C59 0.929 . S
H78 C60 0.928 . S
H79 C62 0.932 . S
C80 C81 1.264 . S
C80 C85 1.479 . S
C80 C90 1.465 . S
C81 C80 1.264 . S
C81 C83 1.339 . S
C81 H108 0.931 . S
C82 C83 1.395 . S
C82 C84 1.320 . S
C83 C81 1.339 . S
C83 C82 1.395 . S
C83 H109 0.929 . S
C84 C82 1.320 . S
C84 C85 1.405 . S
C84 H110 0.930 . S
C85 C80 1.479 . S
C85 C84 1.405 . S
C85 H111 0.931 . S
U86 O87 2.454 . S
U86 O88 2.458 . S
U86 C89 2.984 . S
U86 C90 2.847 . S
U86 C103 2.882 . S
U86 O104 2.441 . S
U86 O105 2.420 . S
U86 O106 2.455 . S
U86 O107 2.449 . S
O87 U86 2.454 . S
O87 C89 1.353 . S
O88 U86 2.458 . S
O88 C89 1.286 . S
C89 U86 2.984 . S
C89 O87 1.353 . S
C89 O88 1.286 . S
C89 C91 1.363 . S
C90 C80 1.465 . S
C90 U86 2.847 . S
C90 O104 1.249 . S
C90 O105 1.202 . S
C91 C89 1.363 . S
C91 C93 1.408 . S
C91 C96 1.342 . S
C92 C93 1.310 . S
C92 C95 1.461 . S
C92 H112 0.932 . S
C93 C91 1.408 . S
C93 C92 1.310 . S
C93 H113 0.930 . S
C94 C95 1.474 . S
C94 C96 1.285 . S
C94 H114 0.929 . S
C95 C92 1.461 . S
C95 C94 1.474 . S
C96 C91 1.342 . S
C96 C94 1.285 . S
C96 H115 0.930 . S
C97 C100 1.424 . S
C97 C102 1.245 . S
C97 C103 1.428 . S
C98 C101 1.260 . S
C98 C102 1.477 . S
C98 H116 0.932 . S
C99 C100 1.384 . S
C99 C101 1.479 . S
C99 H117 0.929 . S
C100 C97 1.424 . S
C100 C99 1.384 . S
C100 H118 0.928 . S
C101 C98 1.260 . S
C101 C99 1.479 . S
C102 C97 1.245 . S
C102 C98 1.477 . S
C102 H119 0.932 . S
C103 U86 2.882 . S
C103 C97 1.428 . S
C103 O106 1.301 . S
C103 O107 1.282 . S
O104 U86 2.441 . S
O104 C90 1.249 . S
O105 U86 2.420 . S
O105 C90 1.202 . S
O106 U86 2.455 . S
O106 C103 1.301 . S
O107 U86 2.449 . S
O107 C103 1.282 . S
H108 C81 0.931 . S
H109 C83 0.929 . S
H110 C84 0.930 . S
H111 C85 0.931 . S
H112 C92 0.932 . S
H113 C93 0.930 . S
H114 C94 0.929 . S
H115 C96 0.930 . S
H116 C98 0.932 . S
H117 C99 0.929 . S
H118 C100 0.928 . S
H119 C102 0.932 . S
C120 C121 1.264 . S
C120 C125 1.479 . S
C120 C130 1.465 . S
C121 C120 1.264 . S
C121 C123 1.339 . S
C121 H148 0.931 . S
C122 C123 1.395 . S
C122 C124 1.320 . S
C123 C121 1.339 . S
C123 C122 1.395 . S
C123 H149 0.929 . S
C124 C122 1.320 . S
C124 C125 1.405 . S
C124 H150 0.930 . S
C125 C120 1.479 . S
C125 C124 1.405 . S
C125 H151 0.931 . S
U126 O127 2.454 . S
U126 O128 2.458 . S
U126 C129 2.984 . S
U126 C130 2.847 . S
U126 C143 2.882 . S
U126 O144 2.441 . S
U126 O145 2.420 . S
U126 O146 2.455 . S
U126 O147 2.449 . S
O127 U126 2.454 . S
O127 C129 1.353 . S
O128 U126 2.458 . S
O128 C129 1.286 . S
C129 U126 2.984 . S
C129 O127 1.353 . S
C129 O128 1.286 . S
C129 C131 1.363 . S
C130 C120 1.465 . S
C130 U126 2.847 . S
C130 O144 1.249 . S
C130 O145 1.202 . S
C131 C129 1.363 . S
C131 C133 1.408 . S
C131 C136 1.342 . S
C132 C133 1.310 . S
C132 C135 1.461 . S
C132 H152 0.932 . S
C133 C131 1.408 . S
C133 C132 1.310 . S
C133 H153 0.930 . S
C134 C135 1.474 . S
C134 C136 1.285 . S
C134 H154 0.929 . S
C135 C132 1.461 . S
C135 C134 1.474 . S
C136 C131 1.342 . S
C136 C134 1.285 . S
C136 H155 0.930 . S
C137 C140 1.424 . S
C137 C142 1.245 . S
C137 C143 1.428 . S
C138 C141 1.260 . S
C138 C142 1.477 . S
C138 H156 0.932 . S
C139 C140 1.384 . S
C139 C141 1.479 . S
C139 H157 0.929 . S
C140 C137 1.424 . S
C140 C139 1.384 . S
C140 H158 0.928 . S
C141 C138 1.260 . S
C141 C139 1.479 . S
C142 C137 1.245 . S
C142 C138 1.477 . S
C142 H159 0.932 . S
C143 U126 2.882 . S
C143 C137 1.428 . S
C143 O146 1.301 . S
C143 O147 1.282 . S
O144 U126 2.441 . S
O144 C130 1.249 . S
O145 U126 2.420 . S
O145 C130 1.202 . S
O146 U126 2.455 . S
O146 C143 1.301 . S
O147 U126 2.449 . S
O147 C143 1.282 . S
H148 C121 0.931 . S
H149 C123 0.929 . S
H150 C124 0.930 . S
H151 C125 0.931 . S
H152 C132 0.932 . S
H153 C133 0.930 . S
H154 C134 0.929 . S
H155 C136 0.930 . S
H156 C138 0.932 . S
H157 C139 0.929 . S
H158 C140 0.928 . S
H159 C142 0.932 . S
C160 C161 1.264 . S
C160 C165 1.479 . S
C160 C170 1.465 . S
C161 C160 1.264 . S
C161 C163 1.339 . S
C161 H188 0.931 . S
C162 C163 1.395 . S
C162 C164 1.320 . S
C163 C161 1.339 . S
C163 C162 1.395 . S
C163 H189 0.929 . S
C164 C162 1.320 . S
C164 C165 1.405 . S
C164 H190 0.930 . S
C165 C160 1.479 . S
C165 C164 1.405 . S
C165 H191 0.931 . S
U166 O167 2.454 . S
U166 O168 2.458 . S
U166 C169 2.984 . S
U166 C170 2.847 . S
U166 C183 2.882 . S
U166 O184 2.441 . S
U166 O185 2.420 . S
U166 O186 2.455 . S
U166 O187 2.449 . S
O167 U166 2.454 . S
O167 C169 1.353 . S
O168 U166 2.458 . S
O168 C169 1.286 . S
C169 U166 2.984 . S
C169 O167 1.353 . S
C169 O168 1.286 . S
C169 C171 1.363 . S
C170 C160 1.465 . S
C170 U166 2.847 . S
C170 O184 1.249 . S
C170 O185 1.202 . S
C171 C169 1.363 . S
C171 C173 1.408 . S
C171 C176 1.342 . S
C172 C173 1.310 . S
C172 C175 1.461 . S
C172 H192 0.932 . S
C173 C171 1.408 . S
C173 C172 1.310 . S
C173 H193 0.930 . S
C174 C175 1.474 . S
C174 C176 1.285 . S
C174 H194 0.929 . S
C175 C172 1.461 . S
C175 C174 1.474 . S
C176 C171 1.342 . S
C176 C174 1.285 . S
C176 H195 0.930 . S
C177 C180 1.424 . S
C177 C182 1.245 . S
C177 C183 1.428 . S
C178 C181 1.260 . S
C178 C182 1.477 . S
C178 H196 0.932 . S
C179 C180 1.384 . S
C179 C181 1.479 . S
C179 H197 0.929 . S
C180 C177 1.424 . S
C180 C179 1.384 . S
C180 H198 0.928 . S
C181 C178 1.260 . S
C181 C179 1.479 . S
C182 C177 1.245 . S
C182 C178 1.477 . S
C182 H199 0.932 . S
C183 U166 2.882 . S
C183 C177 1.428 . S
C183 O186 1.301 . S
C183 O187 1.282 . S
O184 U166 2.441 . S
O184 C170 1.249 . S
O185 U166 2.420 . S
O185 C170 1.202 . S
O186 U166 2.455 . S
O186 C183 1.301 . S
O187 U166 2.449 . S
O187 C183 1.282 . S
H188 C161 0.931 . S
H189 C163 0.929 . S
H190 C164 0.930 . S
H191 C165 0.931 . S
H192 C172 0.932 . S
H193 C173 0.930 . S
H194 C174 0.929 . S
H195 C176 0.930 . S
H196 C178 0.932 . S
H197 C179 0.929 . S
H198 C180 0.928 . S
H199 C182 0.932 . S
C200 C201 1.264 . S
C200 C205 1.479 . S
C200 C210 1.465 . S
C201 C200 1.264 . S
C201 C203 1.339 . S
C201 H228 0.931 . S
C202 C203 1.395 . S
C202 C204 1.320 . S
C203 C201 1.339 . S
C203 C202 1.395 . S
C203 H229 0.929 . S
C204 C202 1.320 . S
C204 C205 1.405 . S
C204 H230 0.930 . S
C205 C200 1.479 . S
C205 C204 1.405 . S
C205 H231 0.931 . S
U206 O207 2.454 . S
U206 O208 2.458 . S
U206 C209 2.984 . S
U206 C210 2.847 . S
U206 C223 2.882 . S
U206 O224 2.441 . S
U206 O225 2.420 . S
U206 O226 2.455 . S
U206 O227 2.449 . S
O207 U206 2.454 . S
O207 C209 1.353 . S
O208 U206 2.458 . S
O208 C209 1.286 . S
C209 U206 2.984 . S
C209 O207 1.353 . S
C209 O208 1.286 . S
C209 C211 1.363 . S
C210 C200 1.465 . S
C210 U206 2.847 . S
C210 O224 1.249 . S
C210 O225 1.202 . S
C211 C209 1.363 . S
C211 C213 1.408 . S
C211 C216 1.342 . S
C212 C213 1.310 . S
C212 C215 1.461 . S
C212 H232 0.932 . S
C213 C211 1.408 . S
C213 C212 1.310 . S
C213 H233 0.930 . S
C214 C215 1.474 . S
C214 C216 1.285 . S
C214 H234 0.929 . S
C215 C212 1.461 . S
C215 C214 1.474 . S
C216 C211 1.342 . S
C216 C214 1.285 . S
C216 H235 0.930 . S
C217 C220 1.424 . S
C217 C222 1.245 . S
C217 C223 1.428 . S
C218 C221 1.260 . S
C218 C222 1.477 . S
C218 H236 0.932 . S
C219 C220 1.384 . S
C219 C221 1.479 . S
C219 H237 0.929 . S
C220 C217 1.424 . S
C220 C219 1.384 . S
C220 H238 0.928 . S
C221 C218 1.260 . S
C221 C219 1.479 . S
C222 C217 1.245 . S
C222 C218 1.477 . S
C222 H239 0.932 . S
C223 U206 2.882 . S
C223 C217 1.428 . S
C223 O226 1.301 . S
C223 O227 1.282 . S
O224 U206 2.441 . S
O224 C210 1.249 . S
O225 U206 2.420 . S
O225 C210 1.202 . S
O226 U206 2.455 . S
O226 C223 1.301 . S
O227 U206 2.449 . S
O227 C223 1.282 . S
H228 C201 0.931 . S
H229 C203 0.929 . S
H230 C204 0.930 . S
H231 C205 0.931 . S
H232 C212 0.932 . S
H233 C213 0.930 . S
H234 C214 0.929 . S
H235 C216 0.930 . S
H236 C218 0.932 . S
H237 C219 0.929 . S
H238 C220 0.928 . S
H239 C222 0.932 . S
C240 C241 1.264 . S
C240 C245 1.479 . S
C240 C250 1.465 . S
C241 C240 1.264 . S
C241 C243 1.339 . S
C241 H268 0.931 . S
C242 C243 1.395 . S
C242 C244 1.320 . S
C243 C241 1.339 . S
C243 C242 1.395 . S
C243 H269 0.929 . S
C244 C242 1.320 . S
C244 C245 1.405 . S
C244 H270 0.930 . S
C245 C240 1.479 . S
C245 C244 1.405 . S
C245 H271 0.931 . S
U246 O247 2.454 . S
U246 O248 2.458 . S
U246 C249 2.984 . S
U246 C250 2.847 . S
U246 C263 2.882 . S
U246 O264 2.441 . S
U246 O265 2.420 . S
U246 O266 2.455 . S
U246 O267 2.449 . S
O247 U246 2.454 . S
O247 C249 1.353 . S
O248 U246 2.458 . S
O248 C249 1.286 . S
C249 U246 2.984 . S
C249 O247 1.353 . S
C249 O248 1.286 . S
C249 C251 1.363 . S
C250 C240 1.465 . S
C250 U246 2.847 . S
C250 O264 1.249 . S
C250 O265 1.202 . S
C251 C249 1.363 . S
C251 C253 1.408 . S
C251 C256 1.342 . S
C252 C253 1.310 . S
C252 C255 1.461 . S
C252 H272 0.932 . S
C253 C251 1.408 . S
C253 C252 1.310 . S
C253 H273 0.930 . S
C254 C255 1.474 . S
C254 C256 1.285 . S
C254 H274 0.929 . S
C255 C252 1.461 . S
C255 C254 1.474 . S
C256 C251 1.342 . S
C256 C254 1.285 . S
C256 H275 0.930 . S
C257 C260 1.424 . S
C257 C262 1.245 . S
C257 C263 1.428 . S
C258 C261 1.260 . S
C258 C262 1.477 . S
C258 H276 0.932 . S
C259 C260 1.384 . S
C259 C261 1.479 . S
C259 H277 0.929 . S
C260 C257 1.424 . S
C260 C259 1.384 . S
C260 H278 0.928 . S
C261 C258 1.260 . S
C261 C259 1.479 . S
C262 C257 1.245 . S
C262 C258 1.477 . S
C262 H279 0.932 . S
C263 U246 2.882 . S
C263 C257 1.428 . S
C263 O266 1.301 . S
C263 O267 1.282 . S
O264 U246 2.441 . S
O264 C250 1.249 . S
O265 U246 2.420 . S
O265 C250 1.202 . S
O266 U246 2.455 . S
O266 C263 1.301 . S
O267 U246 2.449 . S
O267 C263 1.282 . S
H268 C241 0.931 . S
H269 C243 0.929 . S
H270 C244 0.930 . S
H271 C245 0.931 . S
H272 C252 0.932 . S
H273 C253 0.930 . S
H274 C254 0.929 . S
H275 C256 0.930 . S
H276 C258 0.932 . S
H277 C259 0.929 . S
H278 C260 0.928 . S
H279 C262 0.932 . S
C280 C281 1.264 . S
C280 C285 1.479 . S
C280 C290 1.465 . S
C281 C280 1.264 . S
C281 C283 1.339 . S
C281 H308 0.931 . S
C282 C283 1.395 . S
C282 C284 1.320 . S
C283 C281 1.339 . S
C283 C282 1.395 . S
C283 H309 0.929 . S
C284 C282 1.320 . S
C284 C285 1.405 . S
C284 H310 0.930 . S
C285 C280 1.479 . S
C285 C284 1.405 . S
C285 H311 0.931 . S
U286 O287 2.454 . S
U286 O288 2.458 . S
U286 C289 2.984 . S
U286 C290 2.847 . S
U286 C303 2.882 . S
U286 O304 2.441 . S
U286 O305 2.420 . S
U286 O306 2.455 . S
U286 O307 2.449 . S
O287 U286 2.454 . S
O287 C289 1.353 . S
O288 U286 2.458 . S
O288 C289 1.286 . S
C289 U286 2.984 . S
C289 O287 1.353 . S
C289 O288 1.286 . S
C289 C291 1.363 . S
C290 C280 1.465 . S
C290 U286 2.847 . S
C290 O304 1.249 . S
C290 O305 1.202 . S
C291 C289 1.363 . S
C291 C293 1.408 . S
C291 C296 1.342 . S
C292 C293 1.310 . S
C292 C295 1.461 . S
C292 H312 0.932 . S
C293 C291 1.408 . S
C293 C292 1.310 . S
C293 H313 0.930 . S
C294 C295 1.474 . S
C294 C296 1.285 . S
C294 H314 0.929 . S
C295 C292 1.461 . S
C295 C294 1.474 . S
C296 C291 1.342 . S
C296 C294 1.285 . S
C296 H315 0.930 . S
C297 C300 1.424 . S
C297 C302 1.245 . S
C297 C303 1.428 . S
C298 C301 1.260 . S
C298 C302 1.477 . S
C298 H316 0.932 . S
C299 C300 1.384 . S
C299 C301 1.479 . S
C299 H317 0.929 . S
C300 C297 1.424 . S
C300 C299 1.384 . S
C300 H318 0.928 . S
C301 C298 1.260 . S
C301 C299 1.479 . S
C302 C297 1.245 . S
C302 C298 1.477 . S
C302 H319 0.932 . S
C303 U286 2.882 . S
C303 C297 1.428 . S
C303 O306 1.301 . S
C303 O307 1.282 . S
O304 U286 2.441 . S
O304 C290 1.249 . S
O305 U286 2.420 . S
O305 C290 1.202 . S
O306 U286 2.455 . S
O306 C303 1.301 . S
O307 U286 2.449 . S
O307 C303 1.282 . S
H308 C281 0.931 . S
H309 C283 0.929 . S
H310 C284 0.930 . S
H311 C285 0.931 . S
H312 C292 0.932 . S
H313 C293 0.930 . S
H314 C294 0.929 . S
H315 C296 0.930 . S
H316 C298 0.932 . S
H317 C299 0.929 . S
H318 C300 0.928 . S
H319 C302 0.932 . S
C320 C321 1.264 . S
C320 C325 1.479 . S
C320 C330 1.465 . S
C321 C320 1.264 . S
C321 C323 1.339 . S
C321 H348 0.931 . S
C322 C323 1.395 . S
C322 C324 1.320 . S
C323 C321 1.339 . S
C323 C322 1.395 . S
C323 H349 0.929 . S
C324 C322 1.320 . S
C324 C325 1.405 . S
C324 H350 0.930 . S
C325 C320 1.479 . S
C325 C324 1.405 . S
C325 H351 0.931 . S
U326 O327 2.454 . S
U326 O328 2.458 . S
U326 C329 2.984 . S
U326 C330 2.847 . S
U326 C343 2.882 . S
U326 O344 2.441 . S
U326 O345 2.420 . S
U326 O346 2.455 . S
U326 O347 2.449 . S
O327 U326 2.454 . S
O327 C329 1.353 . S
O328 U326 2.458 . S
O328 C329 1.286 . S
C329 U326 2.984 . S
C329 O327 1.353 . S
C329 O328 1.286 . S
C329 C331 1.363 . S
C330 C320 1.465 . S
C330 U326 2.847 . S
C330 O344 1.249 . S
C330 O345 1.202 . S
C331 C329 1.363 . S
C331 C333 1.408 . S
C331 C336 1.342 . S
C332 C333 1.310 . S
C332 C335 1.461 . S
C332 H352 0.932 . S
C333 C331 1.408 . S
C333 C332 1.310 . S
C333 H353 0.930 . S
C334 C335 1.474 . S
C334 C336 1.285 . S
C334 H354 0.929 . S
C335 C332 1.461 . S
C335 C334 1.474 . S
C336 C331 1.342 . S
C336 C334 1.285 . S
C336 H355 0.930 . S
C337 C340 1.424 . S
C337 C342 1.245 . S
C337 C343 1.428 . S
C338 C341 1.260 . S
C338 C342 1.477 . S
C338 H356 0.932 . S
C339 C340 1.384 . S
C339 C341 1.479 . S
C339 H357 0.929 . S
C340 C337 1.424 . S
C340 C339 1.384 . S
C340 H358 0.928 . S
C341 C338 1.260 . S
C341 C339 1.479 . S
C342 C337 1.245 . S
C342 C338 1.477 . S
C342 H359 0.932 . S
C343 U326 2.882 . S
C343 C337 1.428 . S
C343 O346 1.301 . S
C343 O347 1.282 . S
O344 U326 2.441 . S
O344 C330 1.249 . S
O345 U326 2.420 . S
O345 C330 1.202 . S
O346 U326 2.455 . S
O346 C343 1.301 . S
O347 U326 2.449 . S
O347 C343 1.282 . S
H348 C321 0.931 . S
H349 C323 0.929 . S
H350 C324 0.930 . S
H351 C325 0.931 . S
H352 C332 0.932 . S
H353 C333 0.930 . S
H354 C334 0.929 . S
H355 C336 0.930 . S
H356 C338 0.932 . S
H357 C339 0.929 . S
H358 C340 0.928 . S
H359 C342 0.932 . S
C360 C361 1.264 . S
C360 C365 1.479 . S
C360 C370 1.465 . S
C361 C360 1.264 . S
C361 C363 1.339 . S
C361 H388 0.931 . S
C362 C363 1.395 . S
C362 C364 1.320 . S
C363 C361 1.339 . S
C363 C362 1.395 . S
C363 H389 0.929 . S
C364 C362 1.320 . S
C364 C365 1.405 . S
C364 H390 0.930 . S
C365 C360 1.479 . S
C365 C364 1.405 . S
C365 H391 0.931 . S
U366 O367 2.454 . S
U366 O368 2.458 . S
U366 C369 2.984 . S
U366 C370 2.847 . S
U366 C383 2.882 . S
U366 O384 2.441 . S
U366 O385 2.420 . S
U366 O386 2.455 . S
U366 O387 2.449 . S
O367 U366 2.454 . S
O367 C369 1.353 . S
O368 U366 2.458 . S
O368 C369 1.286 . S
C369 U366 2.984 . S
C369 O367 1.353 . S
C369 O368 1.286 . S
C369 C371 1.363 . S
C370 C360 1.465 . S
C370 U366 2.847 . S
C370 O384 1.249 . S
C370 O385 1.202 . S
C371 C369 1.363 . S
C371 C373 1.408 . S
C371 C376 1.342 . S
C372 C373 1.310 . S
C372 C375 1.461 . S
C372 H392 0.932 . S
C373 C371 1.408 . S
C373 C372 1.310 . S
C373 H393 0.930 . S
C374 C375 1.474 . S
C374 C376 1.285 . S
C374 H394 0.929 . S
C375 C372 1.461 . S
C375 C374 1.474 . S
C376 C371 1.342 . S
C376 C374 1.285 . S
C376 H395 0.930 . S
C377 C380 1.424 . S
C377 C382 1.245 . S
C377 C383 1.428 . S
C378 C381 1.260 . S
C378 C382 1.477 . S
C378 H396 0.932 . S
C379 C380 1.384 . S
C379 C381 1.479 . S
C379 H397 0.929 . S
C380 C377 1.424 . S
C380 C379 1.384 . S
C380 H398 0.928 . S
C381 C378 1.260 . S
C381 C379 1.479 . S
C382 C377 1.245 . S
C382 C378 1.477 . S
C382 H399 0.932 . S
C383 U366 2.882 . S
C383 C377 1.428 . S
C383 O386 1.301 . S
C383 O387 1.282 . S
O384 U366 2.441 . S
O384 C370 1.249 . S
O385 U366 2.420 . S
O385 C370 1.202 . S
O386 U366 2.455 . S
O386 C383 1.301 . S
O387 U366 2.449 . S
O387 C383 1.282 . S
H388 C361 0.931 . S
H389 C363 0.929 . S
H390 C364 0.930 . S
H391 C365 0.931 . S
H392 C372 0.932 . S
H393 C373 0.930 . S
H394 C374 0.929 . S
H395 C376 0.930 . S
H396 C378 0.932 . S
H397 C379 0.929 . S
H398 C380 0.928 . S
H399 C382 0.932 . S
C400 C401 1.264 . S
C400 C405 1.479 . S
C400 C410 1.465 . S
C401 C400 1.264 . S
C401 C403 1.339 . S
C401 H428 0.931 . S
C402 C403 1.395 . S
C402 C404 1.320 . S
C403 C401 1.339 . S
C403 C402 1.395 . S
C403 H429 0.929 . S
C404 C402 1.320 . S
C404 C405 1.405 . S
C404 H430 0.930 . S
C405 C400 1.479 . S
C405 C404 1.405 . S
C405 H431 0.931 . S
U406 O407 2.454 . S
U406 O408 2.458 . S
U406 C409 2.984 . S
U406 C410 2.847 . S
U406 C423 2.882 . S
U406 O424 2.441 . S
U406 O425 2.420 . S
U406 O426 2.455 . S
U406 O427 2.449 . S
O407 U406 2.454 . S
O407 C409 1.353 . S
O408 U406 2.458 . S
O408 C409 1.286 . S
C409 U406 2.984 . S
C409 O407 1.353 . S
C409 O408 1.286 . S
C409 C411 1.363 . S
C410 C400 1.465 . S
C410 U406 2.847 . S
C410 O424 1.249 . S
C410 O425 1.202 . S
C411 C409 1.363 . S
C411 C413 1.408 . S
C411 C416 1.342 . S
C412 C413 1.310 . S
C412 C415 1.461 . S
C412 H432 0.932 . S
C413 C411 1.408 . S
C413 C412 1.310 . S
C413 H433 0.930 . S
C414 C415 1.474 . S
C414 C416 1.285 . S
C414 H434 0.929 . S
C415 C412 1.461 . S
C415 C414 1.474 . S
C416 C411 1.342 . S
C416 C414 1.285 . S
C416 H435 0.930 . S
C417 C420 1.424 . S
C417 C422 1.245 . S
C417 C423 1.428 . S
C418 C421 1.260 . S
C418 C422 1.477 . S
C418 H436 0.932 . S
C419 C420 1.384 . S
C419 C421 1.479 . S
C419 H437 0.929 . S
C420 C417 1.424 . S
C420 C419 1.384 . S
C420 H438 0.928 . S
C421 C418 1.260 . S
C421 C419 1.479 . S
C422 C417 1.245 . S
C422 C418 1.477 . S
C422 H439 0.932 . S
C423 U406 2.882 . S
C423 C417 1.428 . S
C423 O426 1.301 . S
C423 O427 1.282 . S
O424 U406 2.441 . S
O424 C410 1.249 . S
O425 U406 2.420 . S
O425 C410 1.202 . S
O426 U406 2.455 . S
O426 C423 1.301 . S
O427 U406 2.449 . S
O427 C423 1.282 . S
H428 C401 0.931 . S
H429 C403 0.929 . S
H430 C404 0.930 . S
H431 C405 0.931 . S
H432 C412 0.932 . S
H433 C413 0.930 . S
H434 C414 0.929 . S
H435 C416 0.930 . S
H436 C418 0.932 . S
H437 C419 0.929 . S
H438 C420 0.928 . S
H439 C422 0.932 . S
C440 C441 1.264 . S
C440 C445 1.479 . S
C440 C450 1.465 . S
C441 C440 1.264 . S
C441 C443 1.339 . S
C441 H468 0.931 . S
C442 C443 1.395 . S
C442 C444 1.320 . S
C443 C441 1.339 . S
C443 C442 1.395 . S
C443 H469 0.929 . S
C444 C442 1.320 . S
C444 C445 1.405 . S
C444 H470 0.930 . S
C445 C440 1.479 . S
C445 C444 1.405 . S
C445 H471 0.931 . S
U446 O447 2.454 . S
U446 O448 2.458 . S
U446 C449 2.984 . S
U446 C450 2.847 . S
U446 C463 2.882 . S
U446 O464 2.441 . S
U446 O465 2.420 . S
U446 O466 2.455 . S
U446 O467 2.449 . S
O447 U446 2.454 . S
O447 C449 1.353 . S
O448 U446 2.458 . S
O448 C449 1.286 . S
C449 U446 2.984 . S
C449 O447 1.353 . S
C449 O448 1.286 . S
C449 C451 1.363 . S
C450 C440 1.465 . S
C450 U446 2.847 . S
C450 O464 1.249 . S
C450 O465 1.202 . S
C451 C449 1.363 . S
C451 C453 1.408 . S
C451 C456 1.342 . S
C452 C453 1.310 . S
C452 C455 1.461 . S
C452 H472 0.932 . S
C453 C451 1.408 . S
C453 C452 1.310 . S
C453 H473 0.930 . S
C454 C455 1.474 . S
C454 C456 1.285 . S
C454 H474 0.929 . S
C455 C452 1.461 . S
C455 C454 1.474 . S
C456 C451 1.342 . S
C456 C454 1.285 . S
C456 H475 0.930 . S
C457 C460 1.424 . S
C457 C462 1.245 . S
C457 C463 1.428 . S
C458 C461 1.260 . S
C458 C462 1.477 . S
C458 H476 0.932 . S
C459 C460 1.384 . S
C459 C461 1.479 . S
C459 H477 0.929 . S
C460 C457 1.424 . S
C460 C459 1.384 . S
C460 H478 0.928 . S
C461 C458 1.260 . S
C461 C459 1.479 . S
C462 C457 1.245 . S
C462 C458 1.477 . S
C462 H479 0.932 . S
C463 U446 2.882 . S
C463 C457 1.428 . S
C463 O466 1.301 . S
C463 O467 1.282 . S
O464 U446 2.441 . S
O464 C450 1.249 . S
O465 U446 2.420 . S
O465 C450 1.202 . S
O466 U446 2.455 . S
O466 C463 1.301 . S
O467 U446 2.449 . S
O467 C463 1.282 . S
H468 C441 0.931 . S
H469 C443 0.929 . S
H470 C444 0.930 . S
H471 C445 0.931 . S
H472 C452 0.932 . S
H473 C453 0.930 . S
H474 C454 0.929 . S
H475 C456 0.930 . S
H476 C458 0.932 . S
H477 C459 0.929 . S
H478 C460 0.928 . S
H479 C462 0.932 . S
C480 C481 1.264 . S
C480 C485 1.479 . S
C480 C490 1.465 . S
C481 C480 1.264 . S
C481 C483 1.339 . S
C481 H508 0.931 . S
C482 C483 1.395 . S
C482 C484 1.320 . S
C483 C481 1.339 . S
C483 C482 1.395 . S
C483 H509 0.929 . S
C484 C482 1.320 . S
C484 C485 1.405 . S
C484 H510 0.930 . S
C485 C480 1.479 . S
C485 C484 1.405 . S
C485 H511 0.931 . S
U486 O487 2.454 . S
U486 O488 2.458 . S
U486 C489 2.984 . S
U486 C490 2.847 . S
U486 C503 2.882 . S
U486 O504 2.441 . S
U486 O505 2.420 . S
U486 O506 2.455 . S
U486 O507 2.449 . S
O487 U486 2.454 . S
O487 C489 1.353 . S
O488 U486 2.458 . S
O488 C489 1.286 . S
C489 U486 2.984 . S
C489 O487 1.353 . S
C489 O488 1.286 . S
C489 C491 1.363 . S
C490 C480 1.465 . S
C490 U486 2.847 . S
C490 O504 1.249 . S
C490 O505 1.202 . S
C491 C489 1.363 . S
C491 C493 1.408 . S
C491 C496 1.342 . S
C492 C493 1.310 . S
C492 C495 1.461 . S
C492 H512 0.932 . S
C493 C491 1.408 . S
C493 C492 1.310 . S
C493 H513 0.930 . S
C494 C495 1.474 . S
C494 C496 1.285 . S
C494 H514 0.929 . S
C495 C492 1.461 . S
C495 C494 1.474 . S
C496 C491 1.342 . S
C496 C494 1.285 . S
C496 H515 0.930 . S
C497 C500 1.424 . S
C497 C502 1.245 . S
C497 C503 1.428 . S
C498 C501 1.260 . S
C498 C502 1.477 . S
C498 H516 0.932 . S
C499 C500 1.384 . S
C499 C501 1.479 . S
C499 H517 0.929 . S
C500 C497 1.424 . S
C500 C499 1.384 . S
C500 H518 0.928 . S
C501 C498 1.260 . S
C501 C499 1.479 . S
C502 C497 1.245 . S
C502 C498 1.477 . S
C502 H519 0.932 . S
C503 U486 2.882 . S
C503 C497 1.428 . S
C503 O506 1.301 . S
C503 O507 1.282 . S
O504 U486 2.441 . S
O504 C490 1.249 . S
O505 U486 2.420 . S
O505 C490 1.202 . S
O506 U486 2.455 . S
O506 C503 1.301 . S
O507 U486 2.449 . S
O507 C503 1.282 . S
H508 C481 0.931 . S
H509 C483 0.929 . S
H510 C484 0.930 . S
H511 C485 0.931 . S
H512 C492 0.932 . S
H513 C493 0.930 . S
H514 C494 0.929 . S
H515 C496 0.930 . S
H516 C498 0.932 . S
H517 C499 0.929 . S
H518 C500 0.928 . S
H519 C502 0.932 . S
C520 C521 1.264 . S
C520 C525 1.479 . S
C520 C530 1.465 . S
C521 C520 1.264 . S
C521 C523 1.339 . S
C521 H548 0.931 . S
C522 C523 1.395 . S
C522 C524 1.320 . S
C523 C521 1.339 . S
C523 C522 1.395 . S
C523 H549 0.929 . S
C524 C522 1.320 . S
C524 C525 1.405 . S
C524 H550 0.930 . S
C525 C520 1.479 . S
C525 C524 1.405 . S
C525 H551 0.931 . S
U526 O527 2.454 . S
U526 O528 2.458 . S
U526 C529 2.984 . S
U526 C530 2.847 . S
U526 C543 2.882 . S
U526 O544 2.441 . S
U526 O545 2.420 . S
U526 O546 2.455 . S
U526 O547 2.449 . S
O527 U526 2.454 . S
O527 C529 1.353 . S
O528 U526 2.458 . S
O528 C529 1.286 . S
C529 U526 2.984 . S
C529 O527 1.353 . S
C529 O528 1.286 . S
C529 C531 1.363 . S
C530 C520 1.465 . S
C530 U526 2.847 . S
C530 O544 1.249 . S
C530 O545 1.202 . S
C531 C529 1.363 . S
C531 C533 1.408 . S
C531 C536 1.342 . S
C532 C533 1.310 . S
C532 C535 1.461 . S
C532 H552 0.932 . S
C533 C531 1.408 . S
C533 C532 1.310 . S
C533 H553 0.930 . S
C534 C535 1.474 . S
C534 C536 1.285 . S
C534 H554 0.929 . S
C535 C532 1.461 . S
C535 C534 1.474 . S
C536 C531 1.342 . S
C536 C534 1.285 . S
C536 H555 0.930 . S
C537 C540 1.424 . S
C537 C542 1.245 . S
C537 C543 1.428 . S
C538 C541 1.260 . S
C538 C542 1.477 . S
C538 H556 0.932 . S
C539 C540 1.384 . S
C539 C541 1.479 . S
C539 H557 0.929 . S
C540 C537 1.424 . S
C540 C539 1.384 . S
C540 H558 0.928 . S
C541 C538 1.260 . S
C541 C539 1.479 . S
C542 C537 1.245 . S
C542 C538 1.477 . S
C542 H559 0.932 . S
C543 U526 2.882 . S
C543 C537 1.428 . S
C543 O546 1.301 . S
C543 O547 1.282 . S
O544 U526 2.441 . S
O544 C530 1.249 . S
O545 U526 2.420 . S
O545 C530 1.202 . S
O546 U526 2.455 . S
O546 C543 1.301 . S
O547 U526 2.449 . S
O547 C543 1.282 . S
H548 C521 0.931 . S
H549 C523 0.929 . S
H550 C524 0.930 . S
H551 C525 0.931 . S
H552 C532 0.932 . S
H553 C533 0.930 . S
H554 C534 0.929 . S
H555 C536 0.930 . S
H556 C538 0.932 . S
H557 C539 0.929 . S
H558 C540 0.928 . S
H559 C542 0.932 . S
C560 C561 1.264 . S
C560 C565 1.479 . S
C560 C570 1.465 . S
C561 C560 1.264 . S
C561 C563 1.339 . S
C561 H588 0.931 . S
C562 C563 1.395 . S
C562 C564 1.320 . S
C563 C561 1.339 . S
C563 C562 1.395 . S
C563 H589 0.929 . S
C564 C562 1.320 . S
C564 C565 1.405 . S
C564 H590 0.930 . S
C565 C560 1.479 . S
C565 C564 1.405 . S
C565 H591 0.931 . S
U566 O567 2.454 . S
U566 O568 2.458 . S
U566 C569 2.984 . S
U566 C570 2.847 . S
U566 C583 2.882 . S
U566 O584 2.441 . S
U566 O585 2.420 . S
U566 O586 2.455 . S
U566 O587 2.449 . S
O567 U566 2.454 . S
O567 C569 1.353 . S
O568 U566 2.458 . S
O568 C569 1.286 . S
C569 U566 2.984 . S
C569 O567 1.353 . S
C569 O568 1.286 . S
C569 C571 1.363 . S
C570 C560 1.465 . S
C570 U566 2.847 . S
C570 O584 1.249 . S
C570 O585 1.202 . S
C571 C569 1.363 . S
C571 C573 1.408 . S
C571 C576 1.342 . S
C572 C573 1.310 . S
C572 C575 1.461 . S
C572 H592 0.932 . S
C573 C571 1.408 . S
C573 C572 1.310 . S
C573 H593 0.930 . S
C574 C575 1.474 . S
C574 C576 1.285 . S
C574 H594 0.929 . S
C575 C572 1.461 . S
C575 C574 1.474 . S
C576 C571 1.342 . S
C576 C574 1.285 . S
C576 H595 0.930 . S
C577 C580 1.424 . S
C577 C582 1.245 . S
C577 C583 1.428 . S
C578 C581 1.260 . S
C578 C582 1.477 . S
C578 H596 0.932 . S
C579 C580 1.384 . S
C579 C581 1.479 . S
C579 H597 0.929 . S
C580 C577 1.424 . S
C580 C579 1.384 . S
C580 H598 0.928 . S
C581 C578 1.260 . S
C581 C579 1.479 . S
C582 C577 1.245 . S
C582 C578 1.477 . S
C582 H599 0.932 . S
C583 U566 2.882 . S
C583 C577 1.428 . S
C583 O586 1.301 . S
C583 O587 1.282 . S
O584 U566 2.441 . S
O584 C570 1.249 . S
O585 U566 2.420 . S
O585 C570 1.202 . S
O586 U566 2.455 . S
O586 C583 1.301 . S
O587 U566 2.449 . S
O587 C583 1.282 . S
H588 C561 0.931 . S
H589 C563 0.929 . S
H590 C564 0.930 . S
H591 C565 0.931 . S
H592 C572 0.932 . S
H593 C573 0.930 . S
H594 C574 0.929 . S
H595 C576 0.930 . S
H596 C578 0.932 . S
H597 C579 0.929 . S
H598 C580 0.928 . S
H599 C582 0.932 . S
C600 C601 1.264 . S
C600 C605 1.479 . S
C600 C610 1.465 . S
C601 C600 1.264 . S
C601 C603 1.339 . S
C601 H628 0.931 . S
C602 C603 1.395 . S
C602 C604 1.320 . S
C603 C601 1.339 . S
C603 C602 1.395 . S
C603 H629 0.929 . S
C604 C602 1.320 . S
C604 C605 1.405 . S
C604 H630 0.930 . S
C605 C600 1.479 . S
C605 C604 1.405 . S
C605 H631 0.931 . S
U606 O607 2.454 . S
U606 O608 2.458 . S
U606 C609 2.984 . S
U606 C610 2.847 . S
U606 C623 2.882 . S
U606 O624 2.441 . S
U606 O625 2.420 . S
U606 O626 2.455 . S
U606 O627 2.449 . S
O607 U606 2.454 . S
O607 C609 1.353 . S
O608 U606 2.458 . S
O608 C609 1.286 . S
C609 U606 2.984 . S
C609 O607 1.353 . S
C609 O608 1.286 . S
C609 C611 1.363 . S
C610 C600 1.465 . S
C610 U606 2.847 . S
C610 O624 1.249 . S
C610 O625 1.202 . S
C611 C609 1.363 . S
C611 C613 1.408 . S
C611 C616 1.342 . S
C612 C613 1.310 . S
C612 C615 1.461 . S
C612 H632 0.932 . S
C613 C611 1.408 . S
C613 C612 1.310 . S
C613 H633 0.930 . S
C614 C615 1.474 . S
C614 C616 1.285 . S
C614 H634 0.929 . S
C615 C612 1.461 . S
C615 C614 1.474 . S
C616 C611 1.342 . S
C616 C614 1.285 . S
C616 H635 0.930 . S
C617 C620 1.424 . S
C617 C622 1.245 . S
C617 C623 1.428 . S
C618 C621 1.260 . S
C618 C622 1.477 . S
C618 H636 0.932 . S
C619 C620 1.384 . S
C619 C621 1.479 . S
C619 H637 0.929 . S
C620 C617 1.424 . S
C620 C619 1.384 . S
C620 H638 0.928 . S
C621 C618 1.260 . S
C621 C619 1.479 . S
C622 C617 1.245 . S
C622 C618 1.477 . S
C622 H639 0.932 . S
C623 U606 2.882 . S
C623 C617 1.428 . S
C623 O626 1.301 . S
C623 O627 1.282 . S
O624 U606 2.441 . S
O624 C610 1.249 . S
O625 U606 2.420 . S
O625 C610 1.202 . S
O626 U606 2.455 . S
O626 C623 1.301 . S
O627 U606 2.449 . S
O627 C623 1.282 . S
H628 C601 0.931 . S
H629 C603 0.929 . S
H630 C604 0.930 . S
H631 C605 0.931 . S
H632 C612 0.932 . S
H633 C613 0.930 . S
H634 C614 0.929 . S
H635 C616 0.930 . S
H636 C618 0.932 . S
H637 C619 0.929 . S
H638 C620 0.928 . S
H639 C622 0.932 . S
C640 C641 1.264 . S
C640 C645 1.479 . S
C640 C650 1.465 . S
C641 C640 1.264 . S
C641 C643 1.339 . S
C641 H668 0.931 . S
C642 C643 1.395 . S
C642 C644 1.320 . S
C643 C641 1.339 . S
C643 C642 1.395 . S
C643 H669 0.929 . S
C644 C642 1.320 . S
C644 C645 1.405 . S
C644 H670 0.930 . S
C645 C640 1.479 . S
C645 C644 1.405 . S
C645 H671 0.931 . S
U646 O647 2.454 . S
U646 O648 2.458 . S
U646 C649 2.984 . S
U646 C650 2.847 . S
U646 C663 2.882 . S
U646 O664 2.441 . S
U646 O665 2.420 . S
U646 O666 2.455 . S
U646 O667 2.449 . S
O647 U646 2.454 . S
O647 C649 1.353 . S
O648 U646 2.458 . S
O648 C649 1.286 . S
C649 U646 2.984 . S
C649 O647 1.353 . S
C649 O648 1.286 . S
C649 C651 1.363 . S
C650 C640 1.465 . S
C650 U646 2.847 . S
C650 O664 1.249 . S
C650 O665 1.202 . S
C651 C649 1.363 . S
C651 C653 1.408 . S
C651 C656 1.342 . S
C652 C653 1.310 . S
C652 C655 1.461 . S
C652 H672 0.932 . S
C653 C651 1.408 . S
C653 C652 1.310 . S
C653 H673 0.930 . S
C654 C655 1.474 . S
C654 C656 1.285 . S
C654 H674 0.929 . S
C655 C652 1.461 . S
C655 C654 1.474 . S
C656 C651 1.342 . S
C656 C654 1.285 . S
C656 H675 0.930 . S
C657 C660 1.424 . S
C657 C662 1.245 . S
C657 C663 1.428 . S
C658 C661 1.260 . S
C658 C662 1.477 . S
C658 H676 0.932 . S
C659 C660 1.384 . S
C659 C661 1.479 . S
C659 H677 0.929 . S
C660 C657 1.424 . S
C660 C659 1.384 . S
C660 H678 0.928 . S
C661 C658 1.260 . S
C661 C659 1.479 . S
C662 C657 1.245 . S
C662 C658 1.477 . S
C662 H679 0.932 . S
C663 U646 2.882 . S
C663 C657 1.428 . S
C663 O666 1.301 . S
C663 O667 1.282 . S
O664 U646 2.441 . S
O664 C650 1.249 . S
O665 U646 2.420 . S
O665 C650 1.202 . S
O666 U646 2.455 . S
O666 C663 1.301 . S
O667 U646 2.449 . S
O667 C663 1.282 . S
H668 C641 0.931 . S
H669 C643 0.929 . S
H670 C644 0.930 . S
H671 C645 0.931 . S
H672 C652 0.932 . S
H673 C653 0.930 . S
H674 C654 0.929 . S
H675 C656 0.930 . S
H676 C658 0.932 . S
H677 C659 0.929 . S
H678 C660 0.928 . S
H679 C662 0.932 . S
C680 C681 1.264 . S
C680 C685 1.479 . S
C680 C690 1.465 . S
C681 C680 1.264 . S
C681 C683 1.339 . S
C681 H708 0.931 . S
C682 C683 1.395 . S
C682 C684 1.320 . S
C683 C681 1.339 . S
C683 C682 1.395 . S
C683 H709 0.929 . S
C684 C682 1.320 . S
C684 C685 1.405 . S
C684 H710 0.930 . S
C685 C680 1.479 . S
C685 C684 1.405 . S
C685 H711 0.931 . S
U686 O687 2.454 . S
U686 O688 2.458 . S
U686 C689 2.984 . S
U686 C690 2.847 . S
U686 C703 2.882 . S
U686 O704 2.441 . S
U686 O705 2.420 . S
U686 O706 2.455 . S
U686 O707 2.449 . S
O687 U686 2.454 . S
O687 C689 1.353 . S
O688 U686 2.458 . S
O688 C689 1.286 . S
C689 U686 2.984 . S
C689 O687 1.353 . S
C689 O688 1.286 . S
C689 C691 1.363 . S
C690 C680 1.465 . S
C690 U686 2.847 . S
C690 O704 1.249 . S
C690 O705 1.202 . S
C691 C689 1.363 . S
C691 C693 1.408 . S
C691 C696 1.342 . S
C692 C693 1.310 . S
C692 C695 1.461 . S
C692 H712 0.932 . S
C693 C691 1.408 . S
C693 C692 1.310 . S
C693 H713 0.930 . S
C694 C695 1.474 . S
C694 C696 1.285 . S
C694 H714 0.929 . S
C695 C692 1.461 . S
C695 C694 1.474 . S
C696 C691 1.342 . S
C696 C694 1.285 . S
C696 H715 0.930 . S
C697 C700 1.424 . S
C697 C702 1.245 . S
C697 C703 1.428 . S
C698 C701 1.260 . S
C698 C702 1.477 . S
C698 H716 0.932 . S
C699 C700 1.384 . S
C699 C701 1.479 . S
C699 H717 0.929 . S
C700 C697 1.424 . S
C700 C699 1.384 . S
C700 H718 0.928 . S
C701 C698 1.260 . S
C701 C699 1.479 . S
C702 C697 1.245 . S
C702 C698 1.477 . S
C702 H719 0.932 . S
C703 U686 2.882 . S
C703 C697 1.428 . S
C703 O706 1.301 . S
C703 O707 1.282 . S
O704 U686 2.441 . S
O704 C690 1.249 . S
O705 U686 2.420 . S
O705 C690 1.202 . S
O706 U686 2.455 . S
O706 C703 1.301 . S
O707 U686 2.449 . S
O707 C703 1.282 . S
H708 C681 0.931 . S
H709 C683 0.929 . S
H710 C684 0.930 . S
H711 C685 0.931 . S
H712 C692 0.932 . S
H713 C693 0.930 . S
H714 C694 0.929 . S
H715 C696 0.930 . S
H716 C698 0.932 . S
H717 C699 0.929 . S
H718 C700 0.928 . S
H719 C702 0.932 . S
C720 Eu721 2.835 . S
C720 C722 1.501 . S
C720 O740 1.257 1_545 S
C720 O741 1.260 . S
Eu721 C720 2.835 . S
Eu721 O740 2.473 1_545 S
Eu721 O741 2.480 . S
Eu721 O742 2.430 . S
Eu721 O743 2.670 1_554 S
Eu721 O744 2.394 1_545 S
Eu721 O749 2.355 1_545 S
Eu721 O751 2.374 . S
C722 C720 1.501 . S
C722 C723 1.381 . S
C722 C727 1.372 1_545 S
C723 C722 1.381 . S
C723 C724 1.395 . S
C723 H752 0.931 . S
C724 C723 1.395 . S
C724 C725 1.383 1_545 S
C724 H753 0.931 . S
C725 C724 1.383 1_565 S
C725 C726 1.394 . S
C726 C725 1.394 . S
C726 C727 1.378 . S
C726 H754 0.931 . S
C727 C722 1.372 1_565 S
C727 C726 1.378 . S
C727 H755 0.931 . S
C728 O742 1.259 . S
C728 O743 1.270 1_554 S
C729 O744 1.251 . S
C729 O745 1.199 1_554 S
C730 Eu731 2.835 . S
C730 C732 1.494 1_565 S
C730 O746 1.257 1_565 S
C730 O747 1.260 . S
Eu731 C730 2.835 . S
Eu731 O743 2.355 1_565 S
Eu731 O745 2.412 . S
Eu731 O746 2.473 1_565 S
Eu731 O747 2.480 . S
Eu731 O748 2.430 . S
Eu731 O749 2.670 1_556 S
Eu731 O750 2.394 1_565 S
C732 C730 1.494 1_545 S
C732 C733 1.333 1_545 S
C732 C737 1.428 . S
C733 C732 1.333 1_565 S
C733 C734 1.395 . S
C733 H756 0.931 . S
C734 C733 1.395 . S
C734 C735 1.383 1_565 S
C734 H757 0.931 . S
C735 C734 1.383 1_545 S
C735 C736 1.394 . S
C736 C735 1.394 . S
C736 C737 1.378 . S
C736 H758 0.931 . S
C737 C732 1.428 . S
C737 C736 1.378 . S
C737 H759 0.931 . S
C738 O748 1.259 1_554 S
C738 O749 1.270 . S
C739 O750 1.251 . S
C739 O751 1.251 1_556 S
O740 C720 1.257 1_565 S
O740 Eu721 2.473 1_565 S
O741 C720 1.260 . S
O741 Eu721 2.480 . S
O742 Eu721 2.430 . S
O742 C728 1.259 . S
O743 Eu721 2.670 1_556 S
O743 C728 1.270 1_556 S
O743 Eu731 2.355 1_545 S
O744 Eu721 2.394 1_565 S
O744 C729 1.251 . S
O745 C729 1.199 1_556 S
O745 Eu731 2.412 . S
O746 C730 1.257 1_545 S
O746 Eu731 2.473 1_545 S
O747 C730 1.260 . S
O747 Eu731 2.480 . S
O748 Eu731 2.430 . S
O748 C738 1.259 1_556 S
O749 Eu721 2.355 1_565 S
O749 Eu731 2.670 1_554 S
O749 C738 1.270 . S
O750 Eu731 2.394 1_545 S
O750 C739 1.251 . S
O751 Eu721 2.374 . S
O751 C739 1.251 1_554 S
H752 C723 0.931 . S
H753 C724 0.931 . S
H754 C726 0.931 . S
H755 C727 0.931 . S
H756 C733 0.931 . S
H757 C734 0.931 . S
H758 C736 0.931 . S
H759 C737 0.931 . S
C760 Eu761 2.835 . S
C760 C762 1.500 1_655 S
C760 O780 1.257 1_655 S
C760 O781 1.260 . S
Eu761 C760 2.835 . S
Eu761 O780 2.473 1_655 S
Eu761 O781 2.480 . S
Eu761 O782 2.430 . S
Eu761 O783 2.670 1_554 S
Eu761 O784 2.394 1_655 S
Eu761 O789 2.355 1_655 S
Eu761 O791 2.374 . S
C762 C760 1.500 1_455 S
C762 C763 1.377 1_455 S
C762 C767 1.377 . S
C763 C762 1.377 1_655 S
C763 C764 1.395 . S
C763 H792 0.931 . S
C764 C763 1.395 . S
C764 C765 1.383 1_655 S
C764 H793 0.931 . S
C765 C764 1.383 1_455 S
C765 C766 1.394 . S
C766 C765 1.394 . S
C766 C767 1.378 . S
C766 H794 0.931 . S
C767 C762 1.377 . S
C767 C766 1.378 . S
C767 H795 0.931 . S
C768 O782 1.188 1_556 S
C768 O783 1.301 . S
C769 O784 1.251 . S
C769 O785 1.251 . S
C770 Eu771 2.835 . S
C770 C772 1.500 1_455 S
C770 O786 1.257 1_455 S
C770 O787 1.260 . S
Eu771 C770 2.835 . S
Eu771 O783 2.355 1_455 S
Eu771 O785 2.374 1_556 S
Eu771 O786 2.473 1_455 S
Eu771 O787 2.480 . S
Eu771 O788 2.430 . S
Eu771 O789 2.670 1_556 S
Eu771 O790 2.394 1_455 S
C772 C770 1.500 1_655 S
C772 C773 1.377 1_655 S
C772 C777 1.377 . S
C773 C772 1.377 1_455 S
C773 C774 1.395 . S
C773 H796 0.931 . S
C774 C773 1.395 . S
C774 C775 1.383 1_455 S
C774 H797 0.931 . S
C775 C774 1.383 1_655 S
C775 C776 1.394 . S
C776 C775 1.394 . S
C776 C777 1.378 . S
C776 H798 0.931 . S
C777 C772 1.377 . S
C777 C776 1.378 . S
C777 H799 0.931 . S
C778 O788 1.259 1_554 S
C778 O789 1.270 . S
C779 O790 1.251 . S
C779 O791 1.251 1_556 S
O780 C760 1.257 1_455 S
O780 Eu761 2.473 1_455 S
O781 C760 1.260 . S
O781 Eu761 2.480 . S
O782 Eu761 2.430 . S
O782 C768 1.188 1_554 S
O783 Eu761 2.670 1_556 S
O783 C768 1.301 . S
O783 Eu771 2.355 1_655 S
O784 Eu761 2.394 1_455 S
O784 C769 1.251 . S
O785 C769 1.251 . S
O785 Eu771 2.374 1_554 S
O786 C770 1.257 1_655 S
O786 Eu771 2.473 1_655 S
O787 C770 1.260 . S
O787 Eu771 2.480 . S
O788 Eu771 2.430 . S
O788 C778 1.259 1_556 S
O789 Eu761 2.355 1_455 S
O789 Eu771 2.670 1_554 S
O789 C778 1.270 . S
O790 Eu771 2.394 1_655 S
O790 C779 1.251 . S
O791 Eu761 2.374 . S
O791 C779 1.251 1_554 S
H792 C763 0.931 . S
H793 C764 0.931 . S
H794 C766 0.931 . S
H795 C767 0.931 . S
H796 C773 0.931 . S
H797 C774 0.931 . S
H798 C776 0.931 . S
H799 C777 0.931 . S
C800 Eu801 2.835 . S
C800 C802 1.500 . S
C800 O820 1.257 . S
C800 O821 1.260 . S
Eu801 C800 2.835 . S
Eu801 O820 2.473 . S
Eu801 O821 2.480 . S
Eu801 O822 2.430 . S
Eu801 O823 2.670 1_556 S
Eu801 O824 2.394 . S
Eu801 O829 2.355 . S
Eu801 O831 2.374 1_556 S
C802 C800 1.500 . S
C802 C803 1.377 . S
C802 C807 1.377 . S
C803 C802 1.377 . S
C803 C804 1.395 . S
C803 H832 0.931 . S
C804 C803 1.395 . S
C804 C805 1.383 . S
C804 H833 0.931 . S
C805 C804 1.383 . S
C805 C806 1.394 . S
C806 C805 1.394 . S
C806 C807 1.378 . S
C806 H834 0.931 . S
C807 C802 1.377 . S
C807 C806 1.378 . S
C807 H835 0.931 . S
C808 O822 1.259 1_554 S
C808 O823 1.270 . S
C809 O824 1.251 . S
C809 O825 1.251 1_556 S
C810 Eu811 2.835 . S
C810 C812 1.500 . S
C810 O826 1.257 . S
C810 O827 1.260 . S
Eu811 C810 2.835 . S
Eu811 O823 2.355 . S
Eu811 O825 2.374 . S
Eu811 O826 2.473 . S
Eu811 O827 2.480 . S
Eu811 O828 2.430 . S
Eu811 O829 2.670 1_554 S
Eu811 O830 2.394 . S
C812 C810 1.500 . S
C812 C813 1.377 . S
C812 C817 1.377 . S
C813 C812 1.377 . S
C813 C814 1.395 . S
C813 H836 0.931 . S
C814 C813 1.395 . S
C814 C815 1.383 . S
C814 H837 0.931 . S
C815 C814 1.383 . S
C815 C816 1.394 . S
C816 C815 1.394 . S
C816 C817 1.378 . S
C816 H838 0.931 . S
C817 C812 1.377 . S
C817 C816 1.378 . S
C817 H839 0.931 . S
C818 O828 1.247 1_556 S
C818 O829 1.275 . S
C819 O830 1.251 . S
C819 O831 1.251 . S
O820 C800 1.257 . S
O820 Eu801 2.473 . S
O821 C800 1.260 . S
O821 Eu801 2.480 . S
O822 Eu801 2.430 . S
O822 C808 1.259 1_556 S
O823 Eu801 2.670 1_554 S
O823 C808 1.270 . S
O823 Eu811 2.355 . S
O824 Eu801 2.394 . S
O824 C809 1.251 . S
O825 C809 1.251 1_554 S
O825 Eu811 2.374 . S
O826 C810 1.257 . S
O826 Eu811 2.473 . S
O827 C810 1.260 . S
O827 Eu811 2.480 . S
O828 Eu811 2.430 . S
O828 C818 1.247 1_554 S
O829 Eu801 2.355 . S
O829 Eu811 2.670 1_556 S
O829 C818 1.275 . S
O830 Eu811 2.394 . S
O830 C819 1.251 . S
O831 Eu801 2.374 1_554 S
O831 C819 1.251 . S
H832 C803 0.931 . S
H833 C804 0.931 . S
H834 C806 0.931 . S
H835 C807 0.931 . S
H836 C813 0.931 . S
H837 C814 0.931 . S
H838 C816 0.931 . S
H839 C817 0.931 . S
C840 Eu841 2.835 . S
C840 C842 1.500 . S
C840 O860 1.257 . S
C840 O861 1.260 . S
Eu841 C840 2.835 . S
Eu841 O860 2.473 . S
Eu841 O861 2.480 . S
Eu841 O862 2.430 . S
Eu841 O863 2.670 . S
Eu841 O864 2.394 . S
Eu841 O869 2.355 . S
Eu841 O871 2.374 . S
C842 C840 1.500 . S
C842 C843 1.377 . S
C842 C847 1.377 . S
C843 C842 1.377 . S
C843 C844 1.395 . S
C843 H872 0.931 . S
C844 C843 1.395 . S
C844 C845 1.383 . S
C844 H873 0.931 . S
C845 C844 1.383 . S
C845 C846 1.394 . S
C846 C845 1.394 . S
C846 C847 1.378 . S
C846 H874 0.931 . S
C847 C842 1.377 . S
C847 C846 1.378 . S
C847 H875 0.931 . S
C848 O862 1.259 . S
C848 O863 1.270 . S
C849 O864 1.251 . S
C849 O865 1.251 . S
C850 Eu851 2.835 . S
C850 C852 1.500 . S
C850 O866 1.257 . S
C850 O867 1.260 . S
Eu851 C850 2.835 . S
Eu851 O863 2.355 . S
Eu851 O865 2.374 . S
Eu851 O866 2.473 . S
Eu851 O867 2.480 . S
Eu851 O868 2.430 . S
Eu851 O869 2.670 . S
Eu851 O870 2.394 . S
C852 C850 1.500 . S
C852 C853 1.377 . S
C852 C857 1.377 . S
C853 C852 1.377 . S
C853 C854 1.395 . S
C853 H876 0.931 . S
C854 C853 1.395 . S
C854 C855 1.383 . S
C854 H877 0.931 . S
C855 C854 1.383 . S
C855 C856 1.394 . S
C856 C855 1.394 . S
C856 C857 1.378 . S
C856 H878 0.931 . S
C857 C852 1.377 . S
C857 C856 1.378 . S
C857 H879 0.931 . S
C858 O868 1.259 . S
C858 O869 1.270 . S
C859 O870 1.251 . S
C859 O871 1.251 . S
O860 C840 1.257 . S
O860 Eu841 2.473 . S
O861 C840 1.260 . S
O861 Eu841 2.480 . S
O862 Eu841 2.430 . S
O862 C848 1.259 . S
O863 Eu841 2.670 . S
O863 C848 1.270 . S
O863 Eu851 2.355 . S
O864 Eu841 2.394 . S
O864 C849 1.251 . S
O865 C849 1.251 . S
O865 Eu851 2.374 . S
O866 C850 1.257 . S
O866 Eu851 2.473 . S
O867 C850 1.260 . S
O867 Eu851 2.480 . S
O868 Eu851 2.430 . S
O868 C858 1.259 . S
O869 Eu841 2.355 . S
O869 Eu851 2.670 . S
O869 C858 1.270 . S
O870 Eu851 2.394 . S
O870 C859 1.251 . S
O871 Eu841 2.374 . S
O871 C859 1.251 . S
H872 C843 0.931 . S
H873 C844 0.931 . S
H874 C846 0.931 . S
H875 C847 0.931 . S
H876 C853 0.931 . S
H877 C854 0.931 . S
H878 C856 0.931 . S
H879 C857 0.931 . S
C880 Eu881 2.835 . S
C880 C882 1.500 . S
C880 O900 1.257 . S
C880 O901 1.260 . S
Eu881 C880 2.835 . S
Eu881 O900 2.473 . S
Eu881 O901 2.480 . S
Eu881 O902 2.430 . S
Eu881 O903 2.670 . S
Eu881 O904 2.394 . S
Eu881 O909 2.355 . S
Eu881 O911 2.374 . S
C882 C880 1.500 . S
C882 C883 1.377 . S
C882 C887 1.377 . S
C883 C882 1.377 . S
C883 C884 1.395 . S
C883 H912 0.931 . S
C884 C883 1.395 . S
C884 C885 1.383 . S
C884 H913 0.931 . S
C885 C884 1.383 . S
C885 C886 1.394 . S
C886 C885 1.394 . S
C886 C887 1.378 . S
C886 H914 0.931 . S
C887 C882 1.377 . S
C887 C886 1.378 . S
C887 H915 0.931 . S
C888 O902 1.259 . S
C888 O903 1.270 . S
C889 O904 1.251 . S
C889 O905 1.251 . S
C890 Eu891 2.835 . S
C890 C892 1.500 . S
C890 O906 1.257 . S
C890 O907 1.260 . S
Eu891 C890 2.835 . S
Eu891 O903 2.355 . S
Eu891 O905 2.374 . S
Eu891 O906 2.473 . S
Eu891 O907 2.480 . S
Eu891 O908 2.430 . S
Eu891 O909 2.670 . S
Eu891 O910 2.394 . S
C892 C890 1.500 . S
C892 C893 1.377 . S
C892 C897 1.377 . S
C893 C892 1.377 . S
C893 C894 1.395 . S
C893 H916 0.931 . S
C894 C893 1.395 . S
C894 C895 1.383 . S
C894 H917 0.931 . S
C895 C894 1.383 . S
C895 C896 1.394 . S
C896 C895 1.394 . S
C896 C897 1.378 . S
C896 H918 0.931 . S
C897 C892 1.377 . S
C897 C896 1.378 . S
C897 H919 0.931 . S
C898 O908 1.259 . S
C898 O909 1.270 . S
C899 O910 1.251 . S
C899 O911 1.251 . S
O900 C880 1.257 . S
O900 Eu881 2.473 . S
O901 C880 1.260 . S
O901 Eu881 2.480 . S
O902 Eu881 2.430 . S
O902 C888 1.259 . S
O903 Eu881 2.670 . S
O903 C888 1.270 . S
O903 Eu891 2.355 . S
O904 Eu881 2.394 . S
O904 C889 1.251 . S
O905 C889 1.251 . S
O905 Eu891 2.374 . S
O906 C890 1.257 . S
O906 Eu891 2.473 . S
O907 C890 1.260 . S
O907 Eu891 2.480 . S
O908 Eu891 2.430 . S
O908 C898 1.259 . S
O909 Eu881 2.355 . S
O909 Eu891 2.670 . S
O909 C898 1.270 . S
O910 Eu891 2.394 . S
O910 C899 1.251 . S
O911 Eu881 2.374 . S
O911 C899 1.251 . S
H912 C883 0.931 . S
H913 C884 0.931 . S
H914 C886 0.931 . S
H915 C887 0.931 . S
H916 C893 0.931 . S
H917 C894 0.931 . S
H918 C896 0.931 . S
H919 C897 0.931 . S
C920 Eu921 2.835 . S
C920 C922 1.500 . S
C920 O940 1.257 . S
C920 O941 1.260 . S
Eu921 C920 2.835 . S
Eu921 O940 2.473 . S
Eu921 O941 2.480 . S
Eu921 O942 2.430 . S
Eu921 O943 2.670 . S
Eu921 O944 2.394 . S
Eu921 O949 2.355 . S
Eu921 O951 2.374 . S
C922 C920 1.500 . S
C922 C923 1.377 . S
C922 C927 1.377 . S
C923 C922 1.377 . S
C923 C924 1.395 . S
C923 H952 0.931 . S
C924 C923 1.395 . S
C924 C925 1.383 . S
C924 H953 0.931 . S
C925 C924 1.383 . S
C925 C926 1.394 . S
C926 C925 1.394 . S
C926 C927 1.378 . S
C926 H954 0.931 . S
C927 C922 1.377 . S
C927 C926 1.378 . S
C927 H955 0.931 . S
C928 O942 1.259 . S
C928 O943 1.270 . S
C929 O944 1.251 . S
C929 O945 1.251 . S
C930 Eu931 2.835 . S
C930 C932 1.500 . S
C930 O946 1.257 . S
C930 O947 1.260 . S
Eu931 C930 2.835 . S
Eu931 O943 2.355 . S
Eu931 O945 2.374 . S
Eu931 O946 2.473 . S
Eu931 O947 2.480 . S
Eu931 O948 2.430 . S
Eu931 O949 2.670 . S
Eu931 O950 2.394 . S
C932 C930 1.500 . S
C932 C933 1.377 . S
C932 C937 1.377 . S
C933 C932 1.377 . S
C933 C934 1.395 . S
C933 H956 0.931 . S
C934 C933 1.395 . S
C934 C935 1.383 . S
C934 H957 0.931 . S
C935 C934 1.383 . S
C935 C936 1.394 . S
C936 C935 1.394 . S
C936 C937 1.378 . S
C936 H958 0.931 . S
C937 C932 1.377 . S
C937 C936 1.378 . S
C937 H959 0.931 . S
C938 O948 1.259 . S
C938 O949 1.270 . S
C939 O950 1.251 . S
C939 O951 1.251 . S
O940 C920 1.257 . S
O940 Eu921 2.473 . S
O941 C920 1.260 . S
O941 Eu921 2.480 . S
O942 Eu921 2.430 . S
O942 C928 1.259 . S
O943 Eu921 2.670 . S
O943 C928 1.270 . S
O943 Eu931 2.355 . S
O944 Eu921 2.394 . S
O944 C929 1.251 . S
O945 C929 1.251 . S
O945 Eu931 2.374 . S
O946 C930 1.257 . S
O946 Eu931 2.473 . S
O947 C930 1.260 . S
O947 Eu931 2.480 . S
O948 Eu931 2.430 . S
O948 C938 1.259 . S
O949 Eu921 2.355 . S
O949 Eu931 2.670 . S
O949 C938 1.270 . S
O950 Eu931 2.394 . S
O950 C939 1.251 . S
O951 Eu921 2.374 . S
O951 C939 1.251 . S
H952 C923 0.931 . S
H953 C924 0.931 . S
H954 C926 0.931 . S
H955 C927 0.931 . S
H956 C933 0.931 . S
H957 C934 0.931 . S
H958 C936 0.931 . S
H959 C937 0.931 . S
C960 Eu961 2.835 . S
C960 C962 1.500 . S
C960 O980 1.257 . S
C960 O981 1.260 . S
Eu961 C960 2.835 . S
Eu961 O980 2.473 . S
Eu961 O981 2.480 . S
Eu961 O982 2.430 . S
Eu961 O983 2.670 . S
Eu961 O984 2.394 . S
Eu961 O989 2.355 . S
Eu961 O991 2.374 . S
C962 C960 1.500 . S
C962 C963 1.377 . S
C962 C967 1.377 . S
C963 C962 1.377 . S
C963 C964 1.395 . S
C963 H992 0.931 . S
C964 C963 1.395 . S
C964 C965 1.383 . S
C964 H993 0.931 . S
C965 C964 1.383 . S
C965 C966 1.394 . S
C966 C965 1.394 . S
C966 C967 1.378 . S
C966 H994 0.931 . S
C967 C962 1.377 . S
C967 C966 1.378 . S
C967 H995 0.931 . S
C968 O982 1.259 . S
C968 O983 1.270 . S
C969 O984 1.251 . S
C969 O985 1.251 . S
C970 Eu971 2.835 . S
C970 C972 1.500 . S
C970 O986 1.257 . S
C970 O987 1.260 . S
Eu971 C970 2.835 . S
Eu971 O983 2.355 . S
Eu971 O985 2.374 . S
Eu971 O986 2.473 . S
Eu971 O987 2.480 . S
Eu971 O988 2.430 . S
Eu971 O989 2.670 . S
Eu971 O990 2.394 . S
C972 C970 1.500 . S
C972 C973 1.377 . S
C972 C977 1.377 . S
C973 C972 1.377 . S
C973 C974 1.395 . S
C973 H996 0.931 . S
C974 C973 1.395 . S
C974 C975 1.383 . S
C974 H997 0.931 . S
C975 C974 1.383 . S
C975 C976 1.394 . S
C976 C975 1.394 . S
C976 C977 1.378 . S
C976 H998 0.931 . S
C977 C972 1.377 . S
C977 C976 1.378 . S
C977 H999 0.931 . S
C978 O988 1.259 . S
C978 O989 1.270 . S
C979 O990 1.251 . S
C979 O991 1.251 . S
O980 C960 1.257 . S
O980 Eu961 2.473 . S
O981 C960 1.260 . S
O981 Eu961 2.480 . S
O982 Eu961 2.430 . S
O982 C968 1.259 . S
O983 Eu961 2.670 . S
O983 C968 1.270 . S
O983 Eu971 2.355 . S
O984 Eu961 2.394 . S
O984 C969 1.251 . S
O985 C969 1.251 . S
O985 Eu971 2.374 . S
O986 C970 1.257 . S
O986 Eu971 2.473 . S
O987 C970 1.260 . S
O987 Eu971 2.480 . S
O988 Eu971 2.430 . S
O988 C978 1.259 . S
O989 Eu961 2.355 . S
O989 Eu971 2.670 . S
O989 C978 1.270 . S
O990 Eu971 2.394 . S
O990 C979 1.251 . S
O991 Eu961 2.374 . S
O991 C979 1.251 . S
H992 C963 0.931 . S
H993 C964 0.931 . S
H994 C966 0.931 . S
H995 C967 0.931 . S
H996 C973 0.931 . S
H997 C974 0.931 . S
H998 C976 0.931 . S
H999 C977 0.931 . S
C1000 Eu1001 2.835 . S
C1000 C1002 1.500 . S
C1000 O1020 1.257 . S
C1000 O1021 1.260 . S
Eu1001 C1000 2.835 . S
Eu1001 O1020 2.473 . S
Eu1001 O1021 2.480 . S
Eu1001 O1022 2.430 . S
Eu1001 O1023 2.670 . S
Eu1001 O1024 2.394 . S
Eu1001 O1029 2.355 . S
Eu1001 O1031 2.374 . S
C1002 C1000 1.500 . S
C1002 C1003 1.377 . S
C1002 C1007 1.377 . S
C1003 C1002 1.377 . S
C1003 C1004 1.395 . S
C1003 H1032 0.931 . S
C1004 C1003 1.395 . S
C1004 C1005 1.383 . S
C1004 H1033 0.931 . S
C1005 C1004 1.383 . S
C1005 C1006 1.394 . S
C1006 C1005 1.394 . S
C1006 C1007 1.378 . S
C1006 H1034 0.931 . S
C1007 C1002 1.377 . S
C1007 C1006 1.378 . S
C1007 H1035 0.931 . S
C1008 O1022 1.259 . S
C1008 O1023 1.270 . S
C1009 O1024 1.251 . S
C1009 O1025 1.251 . S
C1010 Eu1011 2.835 . S
C1010 C1012 1.500 . S
C1010 O1026 1.257 . S
C1010 O1027 1.260 . S
Eu1011 C1010 2.835 . S
Eu1011 O1023 2.355 . S
Eu1011 O1025 2.374 . S
Eu1011 O1026 2.473 . S
Eu1011 O1027 2.480 . S
Eu1011 O1028 2.430 . S
Eu1011 O1029 2.670 . S
Eu1011 O1030 2.394 . S
C1012 C1010 1.500 . S
C1012 C1013 1.377 . S
C1012 C1017 1.377 . S
C1013 C1012 1.377 . S
C1013 C1014 1.395 . S
C1013 H1036 0.931 . S
C1014 C1013 1.395 . S
C1014 C1015 1.383 . S
C1014 H1037 0.931 . S
C1015 C1014 1.383 . S
C1015 C1016 1.394 . S
C1016 C1015 1.394 . S
C1016 C1017 1.378 . S
C1016 H1038 0.931 . S
C1017 C1012 1.377 . S
C1017 C1016 1.378 . S
C1017 H1039 0.931 . S
C1018 O1028 1.259 . S
C1018 O1029 1.270 . S
C1019 O1030 1.251 . S
C1019 O1031 1.251 . S
O1020 C1000 1.257 . S
O1020 Eu1001 2.473 . S
O1021 C1000 1.260 . S
O1021 Eu1001 2.480 . S
O1022 Eu1001 2.430 . S
O1022 C1008 1.259 . S
O1023 Eu1001 2.670 . S
O1023 C1008 1.270 . S
O1023 Eu1011 2.355 . S
O1024 Eu1001 2.394 . S
O1024 C1009 1.251 . S
O1025 C1009 1.251 . S
O1025 Eu1011 2.374 . S
O1026 C1010 1.257 . S
O1026 Eu1011 2.473 . S
O1027 C1010 1.260 . S
O1027 Eu1011 2.480 . S
O1028 Eu1011 2.430 . S
O1028 C1018 1.259 . S
O1029 Eu1001 2.355 . S
O1029 Eu1011 2.670 . S
O1029 C1018 1.270 . S
O1030 Eu1011 2.394 . S
O1030 C1019 1.251 . S
O1031 Eu1001 2.374 . S
O1031 C1019 1.251 . S
H1032 C1003 0.931 . S
H1033 C1004 0.931 . S
H1034 C1006 0.931 . S
H1035 C1007 0.931 . S
H1036 C1013 0.931 . S
H1037 C1014 0.931 . S
H1038 C1016 0.931 . S
H1039 C1017 0.931 . S
C1040 Eu1041 2.835 . S
C1040 C1042 1.500 . S
C1040 O1060 1.257 . S
C1040 O1061 1.260 . S
Eu1041 C1040 2.835 . S
Eu1041 O1060 2.473 . S
Eu1041 O1061 2.480 . S
Eu1041 O1062 2.430 . S
Eu1041 O1063 2.670 . S
Eu1041 O1064 2.394 . S
Eu1041 O1069 2.355 . S
Eu1041 O1071 2.374 . S
C1042 C1040 1.500 . S
C1042 C1043 1.377 . S
C1042 C1047 1.377 . S
C1043 C1042 1.377 . S
C1043 C1044 1.395 . S
C1043 H1072 0.931 . S
C1044 C1043 1.395 . S
C1044 C1045 1.383 . S
C1044 H1073 0.931 . S
C1045 C1044 1.383 . S
C1045 C1046 1.394 . S
C1046 C1045 1.394 . S
C1046 C1047 1.378 . S
C1046 H1074 0.931 . S
C1047 C1042 1.377 . S
C1047 C1046 1.378 . S
C1047 H1075 0.931 . S
C1048 O1062 1.259 . S
C1048 O1063 1.270 . S
C1049 O1064 1.251 . S
C1049 O1065 1.251 . S
C1050 Eu1051 2.835 . S
C1050 C1052 1.500 . S
C1050 O1066 1.257 . S
C1050 O1067 1.260 . S
Eu1051 C1050 2.835 . S
Eu1051 O1063 2.355 . S
Eu1051 O1065 2.374 . S
Eu1051 O1066 2.473 . S
Eu1051 O1067 2.480 . S
Eu1051 O1068 2.430 . S
Eu1051 O1069 2.670 . S
Eu1051 O1070 2.394 . S
C1052 C1050 1.500 . S
C1052 C1053 1.377 . S
C1052 C1057 1.377 . S
C1053 C1052 1.377 . S
C1053 C1054 1.395 . S
C1053 H1076 0.931 . S
C1054 C1053 1.395 . S
C1054 C1055 1.383 . S
C1054 H1077 0.931 . S
C1055 C1054 1.383 . S
C1055 C1056 1.394 . S
C1056 C1055 1.394 . S
C1056 C1057 1.378 . S
C1056 H1078 0.931 . S
C1057 C1052 1.377 . S
C1057 C1056 1.378 . S
C1057 H1079 0.931 . S
C1058 O1068 1.259 . S
C1058 O1069 1.270 . S
C1059 O1070 1.251 . S
C1059 O1071 1.251 . S
O1060 C1040 1.257 . S
O1060 Eu1041 2.473 . S
O1061 C1040 1.260 . S
O1061 Eu1041 2.480 . S
O1062 Eu1041 2.430 . S
O1062 C1048 1.259 . S
O1063 Eu1041 2.670 . S
O1063 C1048 1.270 . S
O1063 Eu1051 2.355 . S
O1064 Eu1041 2.394 . S
O1064 C1049 1.251 . S
O1065 C1049 1.251 . S
O1065 Eu1051 2.374 . S
O1066 C1050 1.257 . S
O1066 Eu1051 2.473 . S
O1067 C1050 1.260 . S
O1067 Eu1051 2.480 . S
O1068 Eu1051 2.430 . S
O1068 C1058 1.259 . S
O1069 Eu1041 2.355 . S
O1069 Eu1051 2.670 . S
O1069 C1058 1.270 . S
O1070 Eu1051 2.394 . S
O1070 C1059 1.251 . S
O1071 Eu1041 2.374 . S
O1071 C1059 1.251 . S
H1072 C1043 0.931 . S
H1073 C1044 0.931 . S
H1074 C1046 0.931 . S
H1075 C1047 0.931 . S
H1076 C1053 0.931 . S
H1077 C1054 0.931 . S
H1078 C1056 0.931 . S
H1079 C1057 0.931 . S
H1080 C1088 0.929 . S
H1081 C1090 0.930 . S
H1082 C1092 0.930 . S
H1083 C1095 0.929 . S
H1084 C1098 0.930 . S
H1085 C1100 0.960 . S
H1086 C1100 0.960 . S
H1087 C1100 0.960 . S
C1088 H1080 0.929 . S
C1088 C1089 1.377 . S
C1088 C1090 1.384 . S
C1089 C1088 1.377 . S
C1089 C1095 1.390 . S
C1090 H1081 0.930 . S
C1090 C1088 1.384 . S
C1090 C1091 1.372 . S
C1091 C1090 1.372 . S
C1091 C1092 1.400 . S
C1091 C1096 1.490 . S
C1092 H1082 0.930 . S
C1092 C1091 1.400 . S
C1092 C1095 1.386 . S
H1093 C1109 0.930 . S
H1094 C1110 0.931 . S
C1095 H1083 0.929 . S
C1095 C1089 1.390 . S
C1095 C1092 1.386 . S
C1096 C1091 1.490 . S
C1096 C1098 1.395 . S
C1096 C1099 1.403 . S
H1097 C1103 0.930 . S
C1098 H1084 0.930 . S
C1098 C1096 1.395 . S
C1098 C1101 1.403 . S
C1099 C1096 1.403 . S
C1099 C1100 1.524 . S
C1099 C1103 1.400 . S
C1100 H1085 0.960 . S
C1100 H1086 0.960 . S
C1100 H1087 0.960 . S
C1100 C1099 1.524 . S
C1101 C1098 1.403 . S
C1101 C1102 1.392 . S
C1101 C1105 1.495 . S
C1102 C1101 1.392 . S
C1102 C1103 1.385 . S
C1102 C1104 1.478 . S
C1103 H1097 0.930 . S
C1103 C1099 1.400 . S
C1103 C1102 1.385 . S
C1104 C1102 1.478 . S
C1104 C1106 1.381 . S
C1104 C1110 1.383 . S
C1105 C1101 1.495 . S
C1105 H1111 0.959 . S
C1105 H1112 0.961 . S
C1105 H1113 0.960 . S
C1106 C1104 1.381 . S
C1106 C1107 1.394 . S
C1106 H1114 0.930 . S
C1107 C1106 1.394 . S
C1107 C1108 1.383 . S
C1107 H1115 0.929 . S
C1108 C1107 1.383 . S
C1108 C1109 1.377 . S
C1109 H1093 0.930 . S
C1109 C1108 1.377 . S
C1109 C1110 1.379 . S
C1110 H1094 0.931 . S
C1110 C1104 1.383 . S
C1110 C1109 1.379 . S
H1111 C1105 0.959 . S
H1112 C1105 0.961 . S
H1113 C1105 0.960 . S
H1114 C1106 0.930 . S
H1115 C1107 0.929 . S
H1116 C1124 0.929 . S
H1117 C1126 0.930 . S
H1118 C1128 0.930 . S
H1119 C1131 0.929 . S
H1120 C1134 0.930 . S
H1121 C1136 0.960 . S
H1122 C1136 0.960 . S
H1123 C1136 0.960 . S
C1124 H1116 0.929 . S
C1124 C1125 1.377 . S
C1124 C1126 1.384 . S
C1125 C1124 1.377 . S
C1125 C1131 1.390 . S
C1126 H1117 0.930 . S
C1126 C1124 1.384 . S
C1126 C1127 1.372 . S
C1127 C1126 1.372 . S
C1127 C1128 1.400 . S
C1127 C1132 1.490 . S
C1128 H1118 0.930 . S
C1128 C1127 1.400 . S
C1128 C1131 1.386 . S
H1129 C1145 0.930 . S
H1130 C1146 0.931 . S
C1131 H1119 0.929 . S
C1131 C1125 1.390 . S
C1131 C1128 1.386 . S
C1132 C1127 1.490 . S
C1132 C1134 1.395 . S
C1132 C1135 1.403 . S
H1133 C1139 0.930 . S
C1134 H1120 0.930 . S
C1134 C1132 1.395 . S
C1134 C1137 1.403 . S
C1135 C1132 1.403 . S
C1135 C1136 1.524 . S
C1135 C1139 1.400 . S
C1136 H1121 0.960 . S
C1136 H1122 0.960 . S
C1136 H1123 0.960 . S
C1136 C1135 1.524 . S
C1137 C1134 1.403 . S
C1137 C1138 1.392 . S
C1137 C1141 1.495 . S
C1138 C1137 1.392 . S
C1138 C1139 1.385 . S
C1138 C1140 1.478 . S
C1139 H1133 0.930 . S
C1139 C1135 1.400 . S
C1139 C1138 1.385 . S
C1140 C1138 1.478 . S
C1140 C1142 1.381 . S
C1140 C1146 1.383 . S
C1141 C1137 1.495 . S
C1141 H1147 0.959 . S
C1141 H1148 0.961 . S
C1141 H1149 0.960 . S
C1142 C1140 1.381 . S
C1142 C1143 1.394 . S
C1142 H1150 0.930 . S
C1143 C1142 1.394 . S
C1143 C1144 1.383 . S
C1143 H1151 0.929 . S
C1144 C1143 1.383 . S
C1144 C1145 1.377 . S
C1145 H1129 0.930 . S
C1145 C1144 1.377 . S
C1145 C1146 1.379 . S
C1146 H1130 0.931 . S
C1146 C1140 1.383 . S
C1146 C1145 1.379 . S
H1147 C1141 0.959 . S
H1148 C1141 0.961 . S
H1149 C1141 0.960 . S
H1150 C1142 0.930 . S
H1151 C1143 0.929 . S
H1152 C1160 0.929 . S
H1153 C1162 0.930 . S
H1154 C1164 0.930 . S
H1155 C1167 0.929 . S
H1156 C1170 0.930 . S
H1157 C1172 0.960 . S
H1158 C1172 0.960 . S
H1159 C1172 0.960 . S
C1160 H1152 0.929 . S
C1160 C1161 1.377 . S
C1160 C1162 1.384 . S
C1161 C1160 1.377 . S
C1161 C1167 1.390 . S
C1162 H1153 0.930 . S
C1162 C1160 1.384 . S
C1162 C1163 1.372 . S
C1163 C1162 1.372 . S
C1163 C1164 1.400 . S
C1163 C1168 1.490 . S
C1164 H1154 0.930 . S
C1164 C1163 1.400 . S
C1164 C1167 1.386 . S
H1165 C1181 0.970 . S
H1166 C1182 0.931 . S
C1167 H1155 0.929 . S
C1167 C1161 1.390 . S
C1167 C1164 1.386 . S
C1168 C1163 1.490 . S
C1168 C1170 1.395 . S
C1168 C1171 1.403 . S
H1169 C1175 0.930 . S
C1170 H1156 0.930 . S
C1170 C1168 1.395 . S
C1170 C1173 1.403 . S
C1171 C1168 1.403 . S
C1171 C1172 1.524 . S
C1171 C1175 1.400 . S
C1172 H1157 0.960 . S
C1172 H1158 0.960 . S
C1172 H1159 0.960 . S
C1172 C1171 1.524 . S
C1173 C1170 1.403 . S
C1173 C1174 1.392 . S
C1173 C1177 1.495 . S
C1174 C1173 1.392 . S
C1174 C1175 1.385 . S
C1174 C1176 1.478 . S
C1175 H1169 0.930 . S
C1175 C1171 1.400 . S
C1175 C1174 1.385 . S
C1176 C1174 1.478 . S
C1176 C1178 1.381 . S
C1176 C1182 1.383 . S
C1177 C1173 1.495 . S
C1177 H1183 0.959 . S
C1177 H1184 0.961 1_554 S
C1177 H1185 0.960 . S
C1178 C1176 1.381 . S
C1178 C1179 1.394 . S
C1178 H1186 0.930 . S
C1179 C1178 1.394 . S
C1179 C1180 1.383 . S
C1179 H1187 0.929 . S
C1180 C1179 1.383 . S
C1180 C1181 1.377 . S
C1181 H1165 0.970 . S
C1181 C1180 1.377 . S
C1181 C1182 1.379 . S
C1182 H1166 0.931 . S
C1182 C1176 1.383 . S
C1182 C1181 1.379 . S
H1183 C1177 0.959 . S
H1184 C1177 0.961 1_556 S
H1185 C1177 0.960 . S
H1186 C1178 0.930 . S
H1187 C1179 0.929 . S
H1188 C1196 0.929 . S
H1189 C1198 0.930 . S
H1190 C1200 0.930 . S
H1191 C1203 0.929 . S
H1192 C1206 0.930 . S
H1193 C1208 0.960 . S
H1194 C1208 0.960 . S
H1195 C1208 0.960 . S
C1196 H1188 0.929 . S
C1196 C1197 1.377 . S
C1196 C1198 1.384 . S
C1197 C1196 1.377 . S
C1197 C1203 1.390 . S
C1198 H1189 0.930 . S
C1198 C1196 1.384 . S
C1198 C1199 1.372 . S
C1199 C1198 1.372 . S
C1199 C1200 1.400 . S
C1199 C1204 1.490 . S
C1200 H1190 0.930 . S
C1200 C1199 1.400 . S
C1200 C1203 1.386 . S
H1201 C1217 0.930 . S
H1202 C1218 0.931 . S
C1203 H1191 0.929 . S
C1203 C1197 1.390 . S
C1203 C1200 1.386 . S
C1204 C1199 1.490 . S
C1204 C1206 1.395 . S
C1204 C1207 1.403 . S
H1205 C1211 0.930 . S
C1206 H1192 0.930 . S
C1206 C1204 1.395 . S
C1206 C1209 1.403 . S
C1207 C1204 1.403 . S
C1207 C1208 1.524 . S
C1207 C1211 1.400 . S
C1208 H1193 0.960 . S
C1208 H1194 0.960 . S
C1208 H1195 0.960 . S
C1208 C1207 1.524 . S
C1209 C1206 1.403 . S
C1209 C1210 1.392 . S
C1209 C1213 1.495 1_556 S
C1210 C1209 1.392 . S
C1210 C1211 1.385 . S
C1210 C1212 1.478 . S
C1211 H1205 0.930 . S
C1211 C1207 1.400 . S
C1211 C1210 1.385 . S
C1212 C1210 1.478 . S
C1212 C1214 1.381 . S
C1212 C1218 1.383 . S
C1213 C1209 1.495 1_554 S
C1213 H1219 0.959 . S
C1213 H1220 0.961 . S
C1213 H1221 0.960 . S
C1214 C1212 1.381 . S
C1214 C1215 1.394 . S
C1214 H1222 0.930 . S
C1215 C1214 1.394 . S
C1215 C1216 1.383 . S
C1215 H1223 0.907 1_556 S
C1216 C1215 1.383 . S
C1216 C1217 1.377 . S
C1217 H1201 0.930 . S
C1217 C1216 1.377 . S
C1217 C1218 1.379 . S
C1218 H1202 0.931 . S
C1218 C1212 1.383 . S
C1218 C1217 1.379 . S
H1219 C1213 0.959 . S
H1220 C1213 0.961 . S
H1221 C1213 0.960 . S
H1222 C1214 0.930 . S
H1223 C1215 0.907 1_554 S
H1224 C1232 0.929 . S
H1225 C1234 0.930 . S
H1226 C1236 0.930 . S
H1227 C1239 0.929 . S
H1228 C1242 0.930 . S
H1229 C1244 0.960 . S
H1230 C1244 0.960 . S
H1231 C1244 0.960 . S
C1232 H1224 0.929 . S
C1232 C1233 1.377 . S
C1232 C1234 1.384 . S
C1233 C1232 1.377 . S
C1233 C1239 1.390 . S
C1234 H1225 0.930 . S
C1234 C1232 1.384 . S
C1234 C1235 1.372 . S
C1235 C1234 1.372 . S
C1235 C1236 1.400 . S
C1235 C1240 1.490 . S
C1236 H1226 0.930 . S
C1236 C1235 1.400 . S
C1236 C1239 1.386 . S
H1237 C1253 0.930 . S
H1238 C1254 0.931 . S
C1239 H1227 0.929 . S
C1239 C1233 1.390 . S
C1239 C1236 1.386 . S
C1240 C1235 1.490 . S
C1240 C1242 1.395 . S
C1240 C1243 1.403 . S
H1241 C1247 0.930 . S
C1242 H1228 0.930 . S
C1242 C1240 1.395 . S
C1242 C1245 1.403 . S
C1243 C1240 1.403 . S
C1243 C1244 1.524 . S
C1243 C1247 1.400 . S
C1244 H1229 0.960 . S
C1244 H1230 0.960 . S
C1244 H1231 0.960 . S
C1244 C1243 1.524 . S
C1245 C1242 1.403 . S
C1245 C1246 1.392 . S
C1245 C1249 1.495 . S
C1246 C1245 1.392 . S
C1246 C1247 1.385 . S
C1246 C1248 1.478 . S
C1247 H1241 0.930 . S
C1247 C1243 1.400 . S
C1247 C1246 1.385 . S
C1248 C1246 1.478 . S
C1248 C1250 1.381 . S
C1248 C1254 1.383 . S
C1249 C1245 1.495 . S
C1249 H1255 0.959 . S
C1249 H1256 0.961 . S
C1249 H1257 0.960 . S
C1250 C1248 1.381 . S
C1250 C1251 1.394 . S
C1250 H1258 0.930 . S
C1251 C1250 1.394 . S
C1251 C1252 1.383 . S
C1251 H1259 0.929 . S
C1252 C1251 1.383 . S
C1252 C1253 1.377 . S
C1253 H1237 0.930 . S
C1253 C1252 1.377 . S
C1253 C1254 1.379 . S
C1254 H1238 0.931 . S
C1254 C1248 1.383 . S
C1254 C1253 1.379 . S
H1255 C1249 0.959 . S
H1256 C1249 0.961 . S
H1257 C1249 0.960 . S
H1258 C1250 0.930 . S
H1259 C1251 0.929 . S
H1260 C1268 0.929 . S
H1261 C1270 0.930 . S
H1262 C1272 0.930 . S
H1263 C1275 0.929 . S
H1264 C1278 0.930 . S
H1265 C1280 0.960 . S
H1266 C1280 0.960 . S
H1267 C1280 0.960 . S
C1268 H1260 0.929 . S
C1268 C1269 1.377 . S
C1268 C1270 1.384 . S
C1269 C1268 1.377 . S
C1269 C1275 1.390 . S
C1270 H1261 0.930 . S
C1270 C1268 1.384 . S
C1270 C1271 1.372 . S
C1271 C1270 1.372 . S
C1271 C1272 1.400 . S
C1271 C1276 1.490 . S
C1272 H1262 0.930 . S
C1272 C1271 1.400 . S
C1272 C1275 1.386 . S
H1273 C1289 0.930 . S
H1274 C1290 1.002 . S
C1275 H1263 0.929 . S
C1275 C1269 1.390 . S
C1275 C1272 1.386 . S
C1276 C1271 1.490 . S
C1276 C1278 1.395 . S
C1276 C1279 1.403 . S
H1277 C1283 0.930 . S
C1278 H1264 0.930 . S
C1278 C1276 1.395 . S
C1278 C1281 1.403 . S
C1279 C1276 1.403 . S
C1279 C1280 1.524 . S
C1279 C1283 1.400 . S
C1280 H1265 0.960 . S
C1280 H1266 0.960 . S
C1280 H1267 0.960 . S
C1280 C1279 1.524 . S
C1281 C1278 1.403 . S
C1281 C1282 1.392 . S
C1281 C1285 1.495 . S
C1282 C1281 1.392 . S
C1282 C1283 1.385 . S
C1282 C1284 1.478 . S
C1283 H1277 0.930 . S
C1283 C1279 1.400 . S
C1283 C1282 1.385 . S
C1284 C1282 1.478 . S
C1284 C1286 1.381 . S
C1284 C1290 1.290 1_556 S
C1285 C1281 1.495 . S
C1285 H1291 0.959 . S
C1285 H1292 0.961 . S
C1285 H1293 0.960 . S
C1286 C1284 1.381 . S
C1286 C1287 1.394 . S
C1286 H1294 0.930 . S
C1287 C1286 1.394 . S
C1287 C1288 1.383 . S
C1287 H1295 0.929 . S
C1288 C1287 1.383 . S
C1288 C1289 1.377 1_556 S
C1289 H1273 0.930 . S
C1289 C1288 1.377 1_554 S
C1289 C1290 1.408 . S
C1290 H1274 1.002 . S
C1290 C1284 1.290 1_554 S
C1290 C1289 1.408 . S
H1291 C1285 0.959 . S
H1292 C1285 0.961 . S
H1293 C1285 0.960 . S
H1294 C1286 0.930 . S
H1295 C1287 0.929 . S
H1296 C1304 0.929 . S
H1297 C1306 0.930 . S
H1298 C1308 0.930 . S
H1299 C1311 0.929 . S
H1300 C1314 0.930 . S
H1301 C1316 0.960 . S
H1302 C1316 0.960 . S
H1303 C1316 0.960 . S
C1304 H1296 0.929 . S
C1304 C1305 1.377 . S
C1304 C1306 1.384 . S
C1305 C1304 1.377 . S
C1305 C1311 1.390 . S
C1306 H1297 0.930 . S
C1306 C1304 1.384 . S
C1306 C1307 1.372 . S
C1307 C1306 1.372 . S
C1307 C1308 1.400 . S
C1307 C1312 1.490 . S
C1308 H1298 0.930 . S
C1308 C1307 1.400 . S
C1308 C1311 1.386 . S
H1309 C1325 0.930 . S
H1310 C1326 0.931 . S
C1311 H1299 0.929 . S
C1311 C1305 1.390 . S
C1311 C1308 1.386 . S
C1312 C1307 1.490 . S
C1312 C1314 1.395 . S
C1312 C1315 1.403 . S
H1313 C1319 0.930 . S
C1314 H1300 0.930 . S
C1314 C1312 1.395 . S
C1314 C1317 1.403 . S
C1315 C1312 1.403 . S
C1315 C1316 1.524 . S
C1315 C1319 1.400 . S
C1316 H1301 0.960 . S
C1316 H1302 0.960 . S
C1316 H1303 0.960 . S
C1316 C1315 1.524 . S
C1317 C1314 1.403 . S
C1317 C1318 1.392 . S
C1317 C1321 1.495 1_556 S
C1318 C1317 1.392 . S
C1318 C1319 1.385 . S
C1318 C1320 1.478 . S
C1319 H1313 0.930 . S
C1319 C1315 1.400 . S
C1319 C1318 1.385 . S
C1320 C1318 1.478 . S
C1320 C1322 1.381 . S
C1320 C1326 1.383 . S
C1321 C1317 1.495 1_554 S
C1321 H1327 0.959 . S
C1321 H1328 0.961 . S
C1321 H1329 0.960 . S
C1322 C1320 1.381 . S
C1322 C1323 1.394 . S
C1322 H1330 0.930 . S
C1323 C1322 1.394 . S
C1323 C1324 1.383 . S
C1323 H1331 0.929 . S
C1324 C1323 1.383 . S
C1324 C1325 1.377 . S
C1325 H1309 0.930 . S
C1325 C1324 1.377 . S
C1325 C1326 1.379 . S
C1326 H1310 0.931 . S
C1326 C1320 1.383 . S
C1326 C1325 1.379 . S
H1327 C1321 0.959 . S
H1328 C1321 0.961 . S
H1329 C1321 0.960 . S
H1330 C1322 0.930 . S
H1331 C1323 0.929 . S
H1332 C1340 0.929 . S
H1333 C1342 0.930 . S
H1334 C1344 0.930 . S
H1335 C1347 0.929 . S
H1336 C1350 0.930 . S
H1337 C1352 0.960 . S
H1338 C1352 0.960 . S
H1339 C1352 0.960 . S
C1340 H1332 0.929 . S
C1340 C1341 1.377 . S
C1340 C1342 1.384 . S
C1341 C1340 1.377 . S
C1341 C1347 1.390 . S
C1342 H1333 0.930 . S
C1342 C1340 1.384 . S
C1342 C1343 1.372 . S
C1343 C1342 1.372 . S
C1343 C1344 1.400 . S
C1343 C1348 1.490 . S
C1344 H1334 0.930 . S
C1344 C1343 1.400 . S
C1344 C1347 1.386 . S
H1345 C1361 0.930 1_554 S
H1346 C1362 0.931 . S
C1347 H1335 0.929 . S
C1347 C1341 1.390 . S
C1347 C1344 1.386 . S
C1348 C1343 1.490 . S
C1348 C1350 1.395 . S
C1348 C1351 1.403 . S
H1349 C1355 0.930 . S
C1350 H1336 0.930 . S
C1350 C1348 1.395 . S
C1350 C1353 1.403 . S
C1351 C1348 1.403 . S
C1351 C1352 1.524 . S
C1351 C1355 1.400 . S
C1352 H1337 0.960 . S
C1352 H1338 0.960 . S
C1352 H1339 0.960 . S
C1352 C1351 1.524 . S
C1353 C1350 1.403 . S
C1353 C1354 1.392 . S
C1353 C1357 1.495 . S
C1354 C1353 1.392 . S
C1354 C1355 1.385 . S
C1354 C1356 1.478 . S
C1355 H1349 0.930 . S
C1355 C1351 1.400 . S
C1355 C1354 1.385 . S
C1356 C1354 1.478 . S
C1356 C1358 1.381 . S
C1356 C1362 1.383 . S
C1357 C1353 1.495 . S
C1357 H1363 0.959 . S
C1357 H1364 0.961 . S
C1357 H1365 0.960 . S
C1358 C1356 1.381 . S
C1358 C1359 1.394 . S
C1358 H1366 0.930 . S
C1359 C1358 1.394 . S
C1359 C1360 1.383 . S
C1359 H1367 0.929 . S
C1360 C1359 1.383 . S
C1360 C1361 1.377 . S
C1361 H1345 0.930 1_556 S
C1361 C1360 1.377 . S
C1361 C1362 1.379 . S
C1362 H1346 0.931 . S
C1362 C1356 1.383 . S
C1362 C1361 1.379 . S
H1363 C1357 0.959 . S
H1364 C1357 0.961 . S
H1365 C1357 0.960 . S
H1366 C1358 0.930 . S
H1367 C1359 0.929 . S
H1368 C1376 0.929 . S
H1369 C1378 0.930 . S
H1370 C1380 0.930 . S
H1371 C1383 0.929 . S
H1372 C1386 0.930 . S
H1373 C1388 0.960 . S
H1374 C1388 0.960 . S
H1375 C1388 0.992 . S
C1376 H1368 0.929 . S
C1376 C1377 1.377 . S
C1376 C1378 1.384 . S
C1377 C1376 1.377 . S
C1377 C1383 1.390 . S
C1378 H1369 0.930 . S
C1378 C1376 1.384 . S
C1378 C1379 1.372 . S
C1379 C1378 1.372 . S
C1379 C1380 1.400 . S
C1379 C1384 1.490 . S
C1380 H1370 0.930 . S
C1380 C1379 1.400 . S
C1380 C1383 1.386 . S
H1381 C1397 0.930 . S
H1382 C1398 0.926 1_554 S
C1383 H1371 0.929 . S
C1383 C1377 1.390 . S
C1383 C1380 1.386 . S
C1384 C1379 1.490 . S
C1384 C1386 1.395 . S
C1384 C1387 1.403 . S
H1385 C1391 0.930 . S
C1386 H1372 0.930 . S
C1386 C1384 1.395 . S
C1386 C1389 1.403 . S
C1387 C1384 1.403 . S
C1387 C1388 1.524 . S
C1387 C1391 1.400 . S
C1388 H1373 0.960 . S
C1388 H1374 0.960 . S
C1388 H1375 0.992 . S
C1388 C1387 1.524 . S
C1389 C1386 1.403 . S
C1389 C1390 1.392 . S
C1389 C1393 1.495 . S
C1390 C1389 1.392 . S
C1390 C1391 1.385 . S
C1390 C1392 1.478 . S
C1391 H1385 0.930 . S
C1391 C1387 1.400 . S
C1391 C1390 1.385 . S
C1392 C1390 1.478 . S
C1392 C1394 1.381 . S
C1392 C1398 1.388 . S
C1393 C1389 1.495 . S
C1393 H1399 0.959 . S
C1393 H1400 0.961 . S
C1393 H1401 0.960 . S
C1394 C1392 1.381 . S
C1394 C1395 1.394 . S
C1394 H1402 0.930 . S
C1395 C1394 1.394 . S
C1395 C1396 1.383 . S
C1395 H1403 0.929 . S
C1396 C1395 1.383 . S
C1396 C1397 1.377 1_556 S
C1397 H1381 0.930 . S
C1397 C1396 1.377 1_554 S
C1397 C1398 1.379 1_554 S
C1398 H1382 0.926 1_556 S
C1398 C1392 1.388 . S
C1398 C1397 1.379 1_556 S
H1399 C1393 0.959 . S
H1400 C1393 0.961 . S
H1401 C1393 0.960 . S
H1402 C1394 0.930 . S
H1403 C1395 0.929 . S
H1404 C1412 0.929 . S
H1405 C1414 0.930 . S
H1406 C1416 0.930 . S
H1407 C1419 0.929 . S
H1408 C1422 0.930 . S
H1409 C1424 0.960 . S
H1410 C1424 0.960 . S
H1411 C1424 0.960 . S
C1412 H1404 0.929 . S
C1412 C1413 1.377 . S
C1412 C1414 1.384 . S
C1413 C1412 1.377 . S
C1413 C1419 1.390 . S
C1414 H1405 0.930 . S
C1414 C1412 1.384 . S
C1414 C1415 1.372 . S
C1415 C1414 1.372 . S
C1415 C1416 1.400 . S
C1415 C1420 1.490 . S
C1416 H1406 0.930 . S
C1416 C1415 1.400 . S
C1416 C1419 1.386 . S
H1417 C1433 0.930 . S
H1418 C1434 0.931 . S
C1419 H1407 0.929 . S
C1419 C1413 1.390 . S
C1419 C1416 1.386 . S
C1420 C1415 1.490 . S
C1420 C1422 1.395 . S
C1420 C1423 1.403 . S
H1421 C1427 0.930 . S
C1422 H1408 0.930 . S
C1422 C1420 1.395 . S
C1422 C1425 1.403 . S
C1423 C1420 1.403 . S
C1423 C1424 1.524 . S
C1423 C1427 1.400 . S
C1424 H1409 0.960 . S
C1424 H1410 0.960 . S
C1424 H1411 0.960 . S
C1424 C1423 1.524 . S
C1425 C1422 1.403 . S
C1425 C1426 1.392 . S
C1425 C1429 1.495 . S
C1426 C1425 1.392 . S
C1426 C1427 1.385 . S
C1426 C1428 1.478 . S
C1427 H1421 0.930 . S
C1427 C1423 1.400 . S
C1427 C1426 1.385 . S
C1428 C1426 1.478 . S
C1428 C1430 1.381 . S
C1428 C1434 1.383 . S
C1429 C1425 1.495 . S
C1429 H1435 0.962 . S
C1429 H1436 0.961 . S
C1429 H1437 0.960 1_554 S
C1430 C1428 1.381 . S
C1430 C1431 1.394 . S
C1430 H1438 0.930 . S
C1431 C1430 1.394 . S
C1431 C1432 1.383 . S
C1431 H1439 0.929 1_554 S
C1432 C1431 1.383 . S
C1432 C1433 1.377 . S
C1433 H1417 0.930 . S
C1433 C1432 1.377 . S
C1433 C1434 1.379 . S
C1434 H1418 0.931 . S
C1434 C1428 1.383 . S
C1434 C1433 1.379 . S
H1435 C1429 0.962 . S
H1436 C1429 0.961 . S
H1437 C1429 0.960 1_556 S
H1438 C1430 0.930 . S
H1439 C1431 0.929 1_556 S
H1440 C1448 0.929 . S
H1441 C1450 0.930 . S
H1442 C1452 0.930 . S
H1443 C1455 0.929 . S
H1444 C1458 0.930 . S
H1445 C1460 0.960 . S
H1446 C1460 0.960 . S
H1447 C1460 0.960 . S
C1448 H1440 0.929 . S
C1448 C1449 1.377 . S
C1448 C1450 1.384 . S
C1449 C1448 1.377 . S
C1449 C1455 1.390 . S
C1450 H1441 0.930 . S
C1450 C1448 1.384 . S
C1450 C1451 1.372 . S
C1451 C1450 1.372 . S
C1451 C1452 1.400 . S
C1451 C1456 1.490 . S
C1452 H1442 0.930 . S
C1452 C1451 1.400 . S
C1452 C1455 1.386 . S
H1453 C1469 0.930 . S
H1454 C1470 0.931 . S
C1455 H1443 0.929 . S
C1455 C1449 1.390 . S
C1455 C1452 1.386 . S
C1456 C1451 1.490 . S
C1456 C1458 1.395 . S
C1456 C1459 1.403 . S
H1457 C1463 0.930 . S
C1458 H1444 0.930 . S
C1458 C1456 1.395 . S
C1458 C1461 1.403 . S
C1459 C1456 1.403 . S
C1459 C1460 1.524 . S
C1459 C1463 1.400 . S
C1460 H1445 0.960 . S
C1460 H1446 0.960 . S
C1460 H1447 0.960 . S
C1460 C1459 1.524 . S
C1461 C1458 1.403 . S
C1461 C1462 1.392 . S
C1461 C1465 1.495 . S
C1462 C1461 1.392 . S
C1462 C1463 1.385 . S
C1462 C1464 1.478 . S
C1463 H1457 0.930 . S
C1463 C1459 1.400 . S
C1463 C1462 1.385 . S
C1464 C1462 1.478 . S
C1464 C1466 1.381 . S
C1464 C1470 1.383 . S
C1465 C1461 1.495 . S
C1465 H1471 0.959 . S
C1465 H1472 0.961 . S
C1465 H1473 0.960 . S
C1466 C1464 1.381 . S
C1466 C1467 1.394 . S
C1466 H1474 0.930 . S
C1467 C1466 1.394 . S
C1467 C1468 1.383 . S
C1467 H1475 0.929 . S
C1468 C1467 1.383 . S
C1468 C1469 1.377 . S
C1469 H1453 0.930 . S
C1469 C1468 1.377 . S
C1469 C1470 1.379 . S
C1470 H1454 0.931 . S
C1470 C1464 1.383 . S
C1470 C1469 1.379 . S
H1471 C1465 0.959 . S
H1472 C1465 0.961 . S
H1473 C1465 0.960 . S
H1474 C1466 0.930 . S
H1475 C1467 0.929 . S
H1476 C1484 0.929 . S
H1477 C1486 0.930 . S
H1478 C1488 0.930 . S
H1479 C1491 0.929 . S
H1480 C1494 0.930 . S
H1481 C1496 0.960 . S
H1482 C1496 0.960 . S
H1483 C1496 0.960 . S
C1484 H1476 0.929 . S
C1484 C1485 1.377 . S
C1484 C1486 1.384 . S
C1485 C1484 1.377 . S
C1485 C1491 1.390 . S
C1486 H1477 0.930 . S
C1486 C1484 1.384 . S
C1486 C1487 1.372 . S
C1487 C1486 1.372 . S
C1487 C1488 1.400 . S
C1487 C1492 1.490 . S
C1488 H1478 0.930 . S
C1488 C1487 1.400 . S
C1488 C1491 1.386 . S
H1489 C1505 0.930 . S
H1490 C1506 0.931 . S
C1491 H1479 0.929 . S
C1491 C1485 1.390 . S
C1491 C1488 1.386 . S
C1492 C1487 1.490 . S
C1492 C1494 1.395 . S
C1492 C1495 1.403 . S
H1493 C1499 0.930 . S
C1494 H1480 0.930 . S
C1494 C1492 1.395 . S
C1494 C1497 1.403 . S
C1495 C1492 1.403 . S
C1495 C1496 1.524 . S
C1495 C1499 1.400 . S
C1496 H1481 0.960 . S
C1496 H1482 0.960 . S
C1496 H1483 0.960 . S
C1496 C1495 1.524 . S
C1497 C1494 1.403 . S
C1497 C1498 1.392 . S
C1497 C1501 1.495 . S
C1498 C1497 1.392 . S
C1498 C1499 1.385 . S
C1498 C1500 1.478 . S
C1499 H1493 0.930 . S
C1499 C1495 1.400 . S
C1499 C1498 1.385 . S
C1500 C1498 1.478 . S
C1500 C1502 1.381 . S
C1500 C1506 1.383 . S
C1501 C1497 1.495 . S
C1501 H1507 0.959 . S
C1501 H1508 0.961 . S
C1501 H1509 0.960 . S
C1502 C1500 1.381 . S
C1502 C1503 1.394 . S
C1502 H1510 0.930 . S
C1503 C1502 1.394 . S
C1503 C1504 1.383 . S
C1503 H1511 0.929 . S
C1504 C1503 1.383 . S
C1504 C1505 1.377 . S
C1505 H1489 0.930 . S
C1505 C1504 1.377 . S
C1505 C1506 1.379 . S
C1506 H1490 0.931 . S
C1506 C1500 1.383 . S
C1506 C1505 1.379 . S
H1507 C1501 0.959 . S
H1508 C1501 0.961 . S
H1509 C1501 0.960 . S
H1510 C1502 0.930 . S
H1511 C1503 0.929 . S
H1512 C1520 0.929 . S
H1513 C1522 0.930 1_455 S
H1514 C1524 0.930 . S
H1515 C1527 0.929 . S
H1516 C1530 0.930 . S
H1517 C1532 0.960 . S
H1518 C1532 0.960 . S
H1519 C1532 0.960 . S
C1520 H1512 0.929 . S
C1520 C1521 1.377 . S
C1520 C1522 1.384 . S
C1521 C1520 1.377 . S
C1521 C1527 1.390 . S
C1522 H1513 0.930 1_655 S
C1522 C1520 1.384 . S
C1522 C1523 1.372 1_655 S
C1523 C1522 1.372 1_455 S
C1523 C1524 1.400 1_455 S
C1523 C1528 1.490 . S
C1524 H1514 0.930 . S
C1524 C1523 1.400 1_655 S
C1524 C1527 1.386 . S
H1525 C1541 0.930 . S
H1526 C1542 0.931 . S
C1527 H1515 0.929 . S
C1527 C1521 1.390 . S
C1527 C1524 1.386 . S
C1528 C1523 1.490 . S
C1528 C1530 1.395 . S
C1528 C1531 1.403 . S
H1529 C1535 0.930 . S
C1530 H1516 0.930 . S
C1530 C1528 1.395 . S
C1530 C1533 1.403 . S
C1531 C1528 1.403 . S
C1531 C1532 1.524 . S
C1531 C1535 1.400 . S
C1532 H1517 0.960 . S
C1532 H1518 0.960 . S
C1532 H1519 0.960 . S
C1532 C1531 1.524 . S
C1533 C1530 1.403 . S
C1533 C1534 1.392 . S
C1533 C1537 1.495 . S
C1534 C1533 1.392 . S
C1534 C1535 1.385 . S
C1534 C1536 1.478 . S
C1535 H1529 0.930 . S
C1535 C1531 1.400 . S
C1535 C1534 1.385 . S
C1536 C1534 1.478 . S
C1536 C1538 1.381 . S
C1536 C1542 1.383 . S
C1537 C1533 1.495 . S
C1537 H1543 0.959 . S
C1537 H1544 0.961 . S
C1537 H1545 0.960 . S
C1538 C1536 1.381 . S
C1538 C1539 1.394 . S
C1538 H1546 0.930 . S
C1539 C1538 1.394 . S
C1539 C1540 1.383 . S
C1539 H1547 0.929 . S
C1540 C1539 1.383 . S
C1540 C1541 1.377 . S
C1541 H1525 0.930 . S
C1541 C1540 1.377 . S
C1541 C1542 1.379 . S
C1542 H1526 0.931 . S
C1542 C1536 1.383 . S
C1542 C1541 1.379 . S
H1543 C1537 0.959 . S
H1544 C1537 0.961 . S
H1545 C1537 0.960 . S
H1546 C1538 0.930 . S
H1547 C1539 0.929 . S
H1548 C1556 0.929 . S
H1549 C1558 0.930 . S
H1550 C1560 0.930 . S
H1551 C1563 0.929 . S
H1552 C1566 0.930 . S
H1553 C1568 0.960 . S
H1554 C1568 0.960 . S
H1555 C1568 0.960 . S
C1556 H1548 0.929 . S
C1556 C1557 1.377 . S
C1556 C1558 1.384 . S
C1557 C1556 1.377 . S
C1557 C1563 1.390 . S
C1558 H1549 0.930 . S
C1558 C1556 1.384 . S
C1558 C1559 1.372 . S
C1559 C1558 1.372 . S
C1559 C1560 1.400 . S
C1559 C1564 1.490 . S
C1560 H1550 0.930 . S
C1560 C1559 1.400 . S
C1560 C1563 1.386 . S
H1561 C1577 0.930 . S
H1562 C1578 0.931 . S
C1563 H1551 0.929 . S
C1563 C1557 1.390 . S
C1563 C1560 1.386 . S
C1564 C1559 1.490 . S
C1564 C1566 1.395 . S
C1564 C1567 1.403 . S
H1565 C1571 0.930 . S
C1566 H1552 0.930 . S
C1566 C1564 1.395 . S
C1566 C1569 1.403 . S
C1567 C1564 1.403 . S
C1567 C1568 1.524 . S
C1567 C1571 1.400 . S
C1568 H1553 0.960 . S
C1568 H1554 0.960 . S
C1568 H1555 0.960 . S
C1568 C1567 1.524 . S
C1569 C1566 1.403 . S
C1569 C1570 1.392 . S
C1569 C1573 1.495 . S
C1570 C1569 1.392 . S
C1570 C1571 1.385 . S
C1570 C1572 1.478 . S
C1571 H1565 0.930 . S
C1571 C1567 1.400 . S
C1571 C1570 1.385 . S
C1572 C1570 1.478 . S
C1572 C1574 1.381 . S
C1572 C1578 1.383 . S
C1573 C1569 1.495 . S
C1573 H1579 0.959 . S
C1573 H1580 0.961 . S
C1573 H1581 0.960 . S
C1574 C1572 1.381 . S
C1574 C1575 1.394 . S
C1574 H1582 0.930 . S
C1575 C1574 1.394 . S
C1575 C1576 1.383 . S
C1575 H1583 0.929 . S
C1576 C1575 1.383 . S
C1576 C1577 1.377 . S
C1577 H1561 0.930 . S
C1577 C1576 1.377 . S
C1577 C1578 1.379 . S
C1578 H1562 0.931 . S
C1578 C1572 1.383 . S
C1578 C1577 1.379 . S
H1579 C1573 0.959 . S
H1580 C1573 0.961 . S
H1581 C1573 0.960 . S
H1582 C1574 0.930 . S
H1583 C1575 0.929 . S
H1584 C1592 0.929 . S
H1585 C1594 0.930 . S
H1586 C1596 0.930 . S
H1587 C1599 0.929 . S
H1588 C1602 0.930 . S
H1589 C1604 0.960 . S
H1590 C1604 0.960 . S
H1591 C1604 0.960 . S
C1592 H1584 0.929 . S
C1592 C1593 1.377 . S
C1592 C1594 1.384 . S
C1593 C1592 1.377 . S
C1593 C1599 1.390 . S
C1594 H1585 0.930 . S
C1594 C1592 1.384 . S
C1594 C1595 1.372 . S
C1595 C1594 1.372 . S
C1595 C1596 1.400 . S
C1595 C1600 1.490 1_545 S
C1596 H1586 0.930 . S
C1596 C1595 1.400 . S
C1596 C1599 1.386 . S
H1597 C1613 0.930 . S
H1598 C1614 0.931 . S
C1599 H1587 0.929 . S
C1599 C1593 1.390 . S
C1599 C1596 1.386 . S
C1600 C1595 1.490 1_565 S
C1600 C1602 1.395 . S
C1600 C1603 1.403 . S
H1601 C1607 0.930 . S
C1602 H1588 0.930 . S
C1602 C1600 1.395 . S
C1602 C1605 1.403 . S
C1603 C1600 1.403 . S
C1603 C1604 1.524 . S
C1603 C1607 1.400 . S
C1604 H1589 0.960 . S
C1604 H1590 0.960 . S
C1604 H1591 0.960 . S
C1604 C1603 1.524 . S
C1605 C1602 1.403 . S
C1605 C1606 1.392 . S
C1605 C1609 1.495 . S
C1606 C1605 1.392 . S
C1606 C1607 1.385 . S
C1606 C1608 1.478 . S
C1607 H1601 0.930 . S
C1607 C1603 1.400 . S
C1607 C1606 1.385 . S
C1608 C1606 1.478 . S
C1608 C1610 1.381 . S
C1608 C1614 1.383 . S
C1609 C1605 1.495 . S
C1609 H1615 0.959 . S
C1609 H1616 0.961 . S
C1609 H1617 0.960 . S
C1610 C1608 1.381 . S
C1610 C1611 1.394 . S
C1610 H1618 0.930 . S
C1611 C1610 1.394 . S
C1611 C1612 1.383 . S
C1611 H1619 0.929 . S
C1612 C1611 1.383 . S
C1612 C1613 1.377 . S
C1613 H1597 0.930 . S
C1613 C1612 1.377 . S
C1613 C1614 1.379 . S
C1614 H1598 0.931 . S
C1614 C1608 1.383 . S
C1614 C1613 1.379 . S
H1615 C1609 0.959 . S
H1616 C1609 0.961 . S
H1617 C1609 0.960 . S
H1618 C1610 0.930 . S
H1619 C1611 0.929 . S
H1620 C1628 0.929 . S
H1621 C1630 0.930 . S
H1622 C1632 0.930 . S
H1623 C1635 0.929 . S
H1624 C1638 0.930 . S
H1625 C1640 0.960 . S
H1626 C1640 0.960 . S
H1627 C1640 0.960 . S
C1628 H1620 0.929 . S
C1628 C1629 1.377 . S
C1628 C1630 1.384 . S
C1629 C1628 1.377 . S
C1629 C1635 1.390 . S
C1630 H1621 0.930 . S
C1630 C1628 1.384 . S
C1630 C1631 1.372 . S
C1631 C1630 1.372 . S
C1631 C1632 1.400 . S
C1631 C1636 1.490 . S
C1632 H1622 0.930 . S
C1632 C1631 1.400 . S
C1632 C1635 1.386 . S
H1633 C1649 0.930 . S
H1634 C1650 0.931 . S
C1635 H1623 0.929 . S
C1635 C1629 1.390 . S
C1635 C1632 1.386 . S
C1636 C1631 1.490 . S
C1636 C1638 1.395 . S
C1636 C1639 1.403 . S
H1637 C1643 0.930 . S
C1638 H1624 0.930 . S
C1638 C1636 1.395 . S
C1638 C1641 1.403 . S
C1639 C1636 1.403 . S
C1639 C1640 1.524 . S
C1639 C1643 1.400 . S
C1640 H1625 0.960 . S
C1640 H1626 0.960 . S
C1640 H1627 0.960 . S
C1640 C1639 1.524 . S
C1641 C1638 1.403 . S
C1641 C1642 1.392 . S
C1641 C1645 1.495 . S
C1642 C1641 1.392 . S
C1642 C1643 1.385 . S
C1642 C1644 1.478 . S
C1643 H1637 0.930 . S
C1643 C1639 1.400 . S
C1643 C1642 1.385 . S
C1644 C1642 1.478 . S
C1644 C1646 1.381 . S
C1644 C1650 1.383 . S
C1645 C1641 1.495 . S
C1645 H1651 0.959 . S
C1645 H1652 0.961 . S
C1645 H1653 0.960 . S
C1646 C1644 1.381 . S
C1646 C1647 1.394 . S
C1646 H1654 0.930 . S
C1647 C1646 1.394 . S
C1647 C1648 1.383 . S
C1647 H1655 0.929 . S
C1648 C1647 1.383 . S
C1648 C1649 1.377 . S
C1649 H1633 0.930 . S
C1649 C1648 1.377 . S
C1649 C1650 1.379 . S
C1650 H1634 0.931 . S
C1650 C1644 1.383 . S
C1650 C1649 1.379 . S
H1651 C1645 0.959 . S
H1652 C1645 0.961 . S
H1653 C1645 0.960 . S
H1654 C1646 0.930 . S
H1655 C1647 0.929 . S
H1656 C1664 0.929 . S
H1657 C1666 0.930 . S
H1658 C1668 0.930 . S
H1659 C1671 0.929 . S
H1660 C1674 0.930 . S
H1661 C1676 0.960 . S
H1662 C1676 0.960 . S
H1663 C1676 0.960 . S
C1664 H1656 0.929 . S
C1664 C1665 1.377 . S
C1664 C1666 1.384 . S
C1665 C1664 1.377 . S
C1665 C1671 1.390 . S
C1666 H1657 0.930 . S
C1666 C1664 1.384 . S
C1666 C1667 1.372 . S
C1667 C1666 1.372 . S
C1667 C1668 1.400 . S
C1667 C1672 1.490 . S
C1668 H1658 0.930 . S
C1668 C1667 1.400 . S
C1668 C1671 1.386 . S
H1669 C1685 0.930 . S
H1670 C1686 0.931 . S
C1671 H1659 0.929 . S
C1671 C1665 1.390 . S
C1671 C1668 1.386 . S
C1672 C1667 1.490 . S
C1672 C1674 1.395 . S
C1672 C1675 1.403 . S
H1673 C1679 0.930 . S
C1674 H1660 0.930 . S
C1674 C1672 1.395 . S
C1674 C1677 1.403 . S
C1675 C1672 1.403 . S
C1675 C1676 1.524 . S
C1675 C1679 1.400 . S
C1676 H1661 0.960 . S
C1676 H1662 0.960 . S
C1676 H1663 0.960 . S
C1676 C1675 1.524 . S
C1677 C1674 1.403 . S
C1677 C1678 1.392 . S
C1677 C1681 1.495 . S
C1678 C1677 1.392 . S
C1678 C1679 1.385 . S
C1678 C1680 1.478 . S
C1679 H1673 0.930 . S
C1679 C1675 1.400 . S
C1679 C1678 1.385 . S
C1680 C1678 1.478 . S
C1680 C1682 1.381 . S
C1680 C1686 1.383 . S
C1681 C1677 1.495 . S
C1681 H1687 0.959 . S
C1681 H1688 0.961 . S
C1681 H1689 0.960 . S
C1682 C1680 1.381 . S
C1682 C1683 1.394 . S
C1682 H1690 0.930 . S
C1683 C1682 1.394 . S
C1683 C1684 1.383 . S
C1683 H1691 0.929 . S
C1684 C1683 1.383 . S
C1684 C1685 1.377 . S
C1685 H1669 0.930 . S
C1685 C1684 1.377 . S
C1685 C1686 1.379 . S
C1686 H1670 0.931 . S
C1686 C1680 1.383 . S
C1686 C1685 1.379 . S
H1687 C1681 0.959 . S
H1688 C1681 0.961 . S
H1689 C1681 0.960 . S
H1690 C1682 0.930 . S
H1691 C1683 0.929 . S
H1692 C1700 0.929 . S
H1693 C1702 0.930 . S
H1694 C1704 0.930 . S
H1695 C1707 0.929 . S
H1696 C1710 0.930 . S
H1697 C1712 0.960 . S
H1698 C1712 0.960 . S
H1699 C1712 0.960 . S
C1700 H1692 0.929 . S
C1700 C1701 1.377 . S
C1700 C1702 1.384 . S
C1701 C1700 1.377 . S
C1701 C1707 1.390 . S
C1702 H1693 0.930 . S
C1702 C1700 1.384 . S
C1702 C1703 1.372 . S
C1703 C1702 1.372 . S
C1703 C1704 1.400 . S
C1703 C1708 1.490 . S
C1704 H1694 0.930 . S
C1704 C1703 1.400 . S
C1704 C1707 1.386 . S
H1705 C1721 0.930 . S
H1706 C1722 0.931 . S
C1707 H1695 0.929 . S
C1707 C1701 1.390 . S
C1707 C1704 1.386 . S
C1708 C1703 1.490 . S
C1708 C1710 1.395 . S
C1708 C1711 1.403 . S
H1709 C1715 0.930 . S
C1710 H1696 0.930 . S
C1710 C1708 1.395 . S
C1710 C1713 1.403 . S
C1711 C1708 1.403 . S
C1711 C1712 1.524 . S
C1711 C1715 1.400 . S
C1712 H1697 0.960 . S
C1712 H1698 0.960 . S
C1712 H1699 0.960 . S
C1712 C1711 1.524 . S
C1713 C1710 1.403 . S
C1713 C1714 1.392 . S
C1713 C1717 1.495 . S
C1714 C1713 1.392 . S
C1714 C1715 1.385 . S
C1714 C1716 1.478 . S
C1715 H1709 0.930 . S
C1715 C1711 1.400 . S
C1715 C1714 1.385 . S
C1716 C1714 1.478 . S
C1716 C1718 1.381 . S
C1716 C1722 1.383 . S
C1717 C1713 1.495 . S
C1717 H1723 0.959 . S
C1717 H1724 0.961 . S
C1717 H1725 0.960 . S
C1718 C1716 1.381 . S
C1718 C1719 1.394 . S
C1718 H1726 0.930 . S
C1719 C1718 1.394 . S
C1719 C1720 1.383 . S
C1719 H1727 0.929 . S
C1720 C1719 1.383 . S
C1720 C1721 1.377 . S
C1721 H1705 0.930 . S
C1721 C1720 1.377 . S
C1721 C1722 1.379 . S
C1722 H1706 0.931 . S
C1722 C1716 1.383 . S
C1722 C1721 1.379 . S
H1723 C1717 0.959 . S
H1724 C1717 0.961 . S
H1725 C1717 0.960 . S
H1726 C1718 0.930 . S
H1727 C1719 0.929 . S
H1728 C1736 0.929 . S
H1729 C1738 0.930 . S
H1730 C1740 0.930 . S
H1731 C1743 0.929 . S
H1732 C1746 0.930 . S
H1733 C1748 0.960 . S
H1734 C1748 0.960 . S
H1735 C1748 0.960 . S
C1736 H1728 0.929 . S
C1736 C1737 1.377 . S
C1736 C1738 1.384 . S
C1737 C1736 1.377 . S
C1737 C1743 1.390 . S
C1738 H1729 0.930 . S
C1738 C1736 1.384 . S
C1738 C1739 1.372 . S
C1739 C1738 1.372 . S
C1739 C1740 1.400 . S
C1739 C1744 1.490 . S
C1740 H1730 0.930 . S
C1740 C1739 1.400 . S
C1740 C1743 1.386 . S
H1741 C1757 0.930 . S
H1742 C1758 0.931 . S
C1743 H1731 0.929 . S
C1743 C1737 1.390 . S
C1743 C1740 1.386 . S
C1744 C1739 1.490 . S
C1744 C1746 1.395 . S
C1744 C1747 1.403 . S
H1745 C1751 0.930 . S
C1746 H1732 0.930 . S
C1746 C1744 1.395 . S
C1746 C1749 1.403 . S
C1747 C1744 1.403 . S
C1747 C1748 1.524 . S
C1747 C1751 1.400 . S
C1748 H1733 0.960 . S
C1748 H1734 0.960 . S
C1748 H1735 0.960 . S
C1748 C1747 1.524 . S
C1749 C1746 1.403 . S
C1749 C1750 1.392 . S
C1749 C1753 1.495 . S
C1750 C1749 1.392 . S
C1750 C1751 1.385 . S
C1750 C1752 1.478 . S
C1751 H1745 0.930 . S
C1751 C1747 1.400 . S
C1751 C1750 1.385 . S
C1752 C1750 1.478 . S
C1752 C1754 1.381 . S
C1752 C1758 1.383 . S
C1753 C1749 1.495 . S
C1753 H1759 0.959 . S
C1753 H1760 0.961 . S
C1753 H1761 0.960 . S
C1754 C1752 1.381 . S
C1754 C1755 1.394 . S
C1754 H1762 0.930 . S
C1755 C1754 1.394 . S
C1755 C1756 1.383 . S
C1755 H1763 0.929 . S
C1756 C1755 1.383 . S
C1756 C1757 1.377 . S
C1757 H1741 0.930 . S
C1757 C1756 1.377 . S
C1757 C1758 1.379 . S
C1758 H1742 0.931 . S
C1758 C1752 1.383 . S
C1758 C1757 1.379 . S
H1759 C1753 0.959 . S
H1760 C1753 0.961 . S
H1761 C1753 0.960 . S
H1762 C1754 0.930 . S
H1763 C1755 0.929 . S
H1764 C1772 0.929 . S
H1765 C1774 0.930 . S
H1766 C1776 0.930 . S
H1767 C1779 0.929 . S
H1768 C1782 0.930 . S
H1769 C1784 0.960 . S
H1770 C1784 0.960 . S
H1771 C1784 0.960 . S
C1772 H1764 0.929 . S
C1772 C1773 1.377 . S
C1772 C1774 1.384 . S
C1773 C1772 1.377 . S
C1773 C1779 1.390 . S
C1774 H1765 0.930 . S
C1774 C1772 1.384 . S
C1774 C1775 1.372 . S
C1775 C1774 1.372 . S
C1775 C1776 1.400 . S
C1775 C1780 1.490 . S
C1776 H1766 0.930 . S
C1776 C1775 1.400 . S
C1776 C1779 1.386 . S
H1777 C1793 0.930 . S
H1778 C1794 0.931 . S
C1779 H1767 0.929 . S
C1779 C1773 1.390 . S
C1779 C1776 1.386 . S
C1780 C1775 1.490 . S
C1780 C1782 1.395 . S
C1780 C1783 1.403 . S
H1781 C1787 0.930 . S
C1782 H1768 0.930 . S
C1782 C1780 1.395 . S
C1782 C1785 1.403 . S
C1783 C1780 1.403 . S
C1783 C1784 1.524 . S
C1783 C1787 1.400 . S
C1784 H1769 0.960 . S
C1784 H1770 0.960 . S
C1784 H1771 0.960 . S
C1784 C1783 1.524 . S
C1785 C1782 1.403 . S
C1785 C1786 1.392 . S
C1785 C1789 1.495 . S
C1786 C1785 1.392 . S
C1786 C1787 1.385 . S
C1786 C1788 1.478 . S
C1787 H1781 0.930 . S
C1787 C1783 1.400 . S
C1787 C1786 1.385 . S
C1788 C1786 1.478 . S
C1788 C1790 1.381 . S
C1788 C1794 1.383 . S
C1789 C1785 1.495 . S
C1789 H1795 0.959 . S
C1789 H1796 0.961 . S
C1789 H1797 0.960 . S
C1790 C1788 1.381 . S
C1790 C1791 1.394 . S
C1790 H1798 0.930 . S
C1791 C1790 1.394 . S
C1791 C1792 1.383 . S
C1791 H1799 0.929 . S
C1792 C1791 1.383 . S
C1792 C1793 1.377 . S
C1793 H1777 0.930 . S
C1793 C1792 1.377 . S
C1793 C1794 1.379 . S
C1794 H1778 0.931 . S
C1794 C1788 1.383 . S
C1794 C1793 1.379 . S
H1795 C1789 0.959 . S
H1796 C1789 0.961 . S
H1797 C1789 0.960 . S
H1798 C1790 0.930 . S
H1799 C1791 0.929 . S
H1800 C1808 0.929 . S
H1801 C1810 0.930 . S
H1802 C1812 0.930 . S
H1803 C1815 0.929 . S
H1804 C1818 0.930 . S
H1805 C1820 0.960 . S
H1806 C1820 0.960 . S
H1807 C1820 0.960 . S
C1808 H1800 0.929 . S
C1808 C1809 1.377 . S
C1808 C1810 1.384 . S
C1809 C1808 1.377 . S
C1809 C1815 1.390 . S
C1810 H1801 0.930 . S
C1810 C1808 1.384 . S
C1810 C1811 1.372 . S
C1811 C1810 1.372 . S
C1811 C1812 1.400 . S
C1811 C1816 1.490 . S
C1812 H1802 0.930 . S
C1812 C1811 1.400 . S
C1812 C1815 1.386 . S
H1813 C1829 0.930 . S
H1814 C1830 0.931 . S
C1815 H1803 0.929 . S
C1815 C1809 1.390 . S
C1815 C1812 1.386 . S
C1816 C1811 1.490 . S
C1816 C1818 1.395 . S
C1816 C1819 1.403 . S
H1817 C1823 0.930 . S
C1818 H1804 0.930 . S
C1818 C1816 1.395 . S
C1818 C1821 1.403 . S
C1819 C1816 1.403 . S
C1819 C1820 1.524 . S
C1819 C1823 1.400 . S
C1820 H1805 0.960 . S
C1820 H1806 0.960 . S
C1820 H1807 0.960 . S
C1820 C1819 1.524 . S
C1821 C1818 1.403 . S
C1821 C1822 1.392 . S
C1821 C1825 1.495 . S
C1822 C1821 1.392 . S
C1822 C1823 1.385 . S
C1822 C1824 1.478 . S
C1823 H1817 0.930 . S
C1823 C1819 1.400 . S
C1823 C1822 1.385 . S
C1824 C1822 1.478 . S
C1824 C1826 1.381 . S
C1824 C1830 1.383 . S
C1825 C1821 1.495 . S
C1825 H1831 0.959 . S
C1825 H1832 0.961 . S
C1825 H1833 0.960 . S
C1826 C1824 1.381 . S
C1826 C1827 1.394 . S
C1826 H1834 0.930 . S
C1827 C1826 1.394 . S
C1827 C1828 1.383 . S
C1827 H1835 0.929 . S
C1828 C1827 1.383 . S
C1828 C1829 1.377 . S
C1829 H1813 0.930 . S
C1829 C1828 1.377 . S
C1829 C1830 1.379 . S
C1830 H1814 0.931 . S
C1830 C1824 1.383 . S
C1830 C1829 1.379 . S
H1831 C1825 0.959 . S
H1832 C1825 0.961 . S
H1833 C1825 0.960 . S
H1834 C1826 0.930 . S
H1835 C1827 0.929 . S
H1836 C1844 0.929 . S
H1837 C1846 0.930 . S
H1838 C1848 0.930 . S
H1839 C1851 0.929 . S
H1840 C1854 0.930 . S
H1841 C1856 0.960 . S
H1842 C1856 0.960 . S
H1843 C1856 0.960 . S
C1844 H1836 0.929 . S
C1844 C1845 1.377 . S
C1844 C1846 1.384 . S
C1845 C1844 1.377 . S
C1845 C1851 1.390 . S
C1846 H1837 0.930 . S
C1846 C1844 1.384 . S
C1846 C1847 1.372 . S
C1847 C1846 1.372 . S
C1847 C1848 1.400 . S
C1847 C1852 1.490 1_545 S
C1848 H1838 0.930 . S
C1848 C1847 1.400 . S
C1848 C1851 1.386 . S
H1849 C1865 0.930 . S
H1850 C1866 0.931 . S
C1851 H1839 0.929 . S
C1851 C1845 1.390 . S
C1851 C1848 1.386 . S
C1852 C1847 1.490 1_565 S
C1852 C1854 1.395 . S
C1852 C1855 1.403 . S
H1853 C1859 0.930 . S
C1854 H1840 0.930 . S
C1854 C1852 1.395 . S
C1854 C1857 1.403 . S
C1855 C1852 1.403 . S
C1855 C1856 1.524 . S
C1855 C1859 1.400 . S
C1856 H1841 0.960 . S
C1856 H1842 0.960 . S
C1856 H1843 0.960 . S
C1856 C1855 1.524 . S
C1857 C1854 1.403 . S
C1857 C1858 1.392 . S
C1857 C1861 1.495 . S
C1858 C1857 1.392 . S
C1858 C1859 1.385 . S
C1858 C1860 1.478 . S
C1859 H1853 0.930 . S
C1859 C1855 1.400 . S
C1859 C1858 1.385 . S
C1860 C1858 1.478 . S
C1860 C1862 1.381 . S
C1860 C1866 1.383 . S
C1861 C1857 1.495 . S
C1861 H1867 0.959 . S
C1861 H1868 0.961 . S
C1861 H1869 0.960 . S
C1862 C1860 1.381 . S
C1862 C1863 1.394 . S
C1862 H1870 0.930 . S
C1863 C1862 1.394 . S
C1863 C1864 1.383 . S
C1863 H1871 0.929 . S
C1864 C1863 1.383 . S
C1864 C1865 1.377 . S
C1865 H1849 0.930 . S
C1865 C1864 1.377 . S
C1865 C1866 1.379 . S
C1866 H1850 0.931 . S
C1866 C1860 1.383 . S
C1866 C1865 1.379 . S
H1867 C1861 0.959 . S
H1868 C1861 0.961 . S
H1869 C1861 0.960 . S
H1870 C1862 0.930 . S
H1871 C1863 0.929 . S
H1872 C1880 0.929 . S
H1873 C1882 0.930 . S
H1874 C1884 0.946 . S
H1875 C1887 0.929 . S
H1876 C1890 0.930 . S
H1877 C1892 0.960 . S
H1878 C1892 0.960 . S
H1879 C1892 0.960 . S
C1880 H1872 0.929 . S
C1880 C1881 1.377 . S
C1880 C1882 1.384 1_655 S
C1881 C1880 1.377 . S
C1881 C1887 1.390 . S
C1882 H1873 0.930 . S
C1882 C1880 1.384 1_455 S
C1882 C1883 1.372 . S
C1883 C1882 1.372 . S
C1883 C1884 1.400 1_455 S
C1883 C1888 1.490 . S
C1884 H1874 0.946 . S
C1884 C1883 1.400 1_655 S
C1884 C1887 1.386 . S
H1885 C1901 0.930 . S
H1886 C1902 0.931 . S
C1887 H1875 0.929 . S
C1887 C1881 1.390 . S
C1887 C1884 1.386 . S
C1888 C1883 1.490 . S
C1888 C1890 1.395 . S
C1888 C1891 1.403 . S
H1889 C1895 0.930 . S
C1890 H1876 0.930 . S
C1890 C1888 1.395 . S
C1890 C1893 1.403 . S
C1891 C1888 1.403 . S
C1891 C1892 1.524 . S
C1891 C1895 1.400 . S
C1892 H1877 0.960 . S
C1892 H1878 0.960 . S
C1892 H1879 0.960 . S
C1892 C1891 1.524 . S
C1893 C1890 1.403 . S
C1893 C1894 1.392 . S
C1893 C1897 1.495 . S
C1894 C1893 1.392 . S
C1894 C1895 1.385 . S
C1894 C1896 1.478 . S
C1895 H1889 0.930 . S
C1895 C1891 1.400 . S
C1895 C1894 1.385 . S
C1896 C1894 1.478 . S
C1896 C1898 1.381 . S
C1896 C1902 1.383 . S
C1897 C1893 1.495 . S
C1897 H1903 0.959 . S
C1897 H1904 0.961 . S
C1897 H1905 0.960 . S
C1898 C1896 1.381 . S
C1898 C1899 1.394 . S
C1898 H1906 0.930 . S
C1899 C1898 1.394 . S
C1899 C1900 1.383 . S
C1899 H1907 0.929 . S
C1900 C1899 1.383 . S
C1900 C1901 1.377 . S
C1901 H1885 0.930 . S
C1901 C1900 1.377 . S
C1901 C1902 1.379 . S
C1902 H1886 0.931 . S
C1902 C1896 1.383 . S
C1902 C1901 1.379 . S
H1903 C1897 0.959 . S
H1904 C1897 0.961 . S
H1905 C1897 0.960 . S
H1906 C1898 0.930 . S
H1907 C1899 0.929 . S
H1908 C1916 0.929 . S
H1909 C1918 0.930 . S
H1910 C1920 0.930 . S
H1911 C1923 0.929 . S
H1912 C1926 0.930 . S
H1913 C1928 0.960 . S
H1914 C1928 0.960 . S
H1915 C1928 0.960 . S
C1916 H1908 0.929 . S
C1916 C1917 1.377 . S
C1916 C1918 1.384 . S
C1917 C1916 1.377 . S
C1917 C1923 1.390 . S
C1918 H1909 0.930 . S
C1918 C1916 1.384 . S
C1918 C1919 1.372 . S
C1919 C1918 1.372 . S
C1919 C1920 1.400 . S
C1919 C1924 1.490 . S
C1920 H1910 0.930 . S
C1920 C1919 1.400 . S
C1920 C1923 1.386 . S
H1921 C1937 0.930 . S
H1922 C1938 0.931 . S
C1923 H1911 0.929 . S
C1923 C1917 1.390 . S
C1923 C1920 1.386 . S
C1924 C1919 1.490 . S
C1924 C1926 1.395 . S
C1924 C1927 1.403 . S
H1925 C1931 0.930 . S
C1926 H1912 0.930 . S
C1926 C1924 1.395 . S
C1926 C1929 1.403 . S
C1927 C1924 1.403 . S
C1927 C1928 1.524 . S
C1927 C1931 1.400 . S
C1928 H1913 0.960 . S
C1928 H1914 0.960 . S
C1928 H1915 0.960 . S
C1928 C1927 1.524 . S
C1929 C1926 1.403 . S
C1929 C1930 1.392 . S
C1929 C1933 1.495 . S
C1930 C1929 1.392 . S
C1930 C1931 1.385 . S
C1930 C1932 1.478 . S
C1931 H1925 0.930 . S
C1931 C1927 1.400 . S
C1931 C1930 1.385 . S
C1932 C1930 1.478 . S
C1932 C1934 1.381 . S
C1932 C1938 1.383 . S
C1933 C1929 1.495 . S
C1933 H1939 0.959 . S
C1933 H1940 0.961 . S
C1933 H1941 0.960 . S
C1934 C1932 1.381 . S
C1934 C1935 1.394 . S
C1934 H1942 0.930 . S
C1935 C1934 1.394 . S
C1935 C1936 1.383 . S
C1935 H1943 0.929 . S
C1936 C1935 1.383 . S
C1936 C1937 1.377 . S
C1937 H1921 0.930 . S
C1937 C1936 1.377 . S
C1937 C1938 1.379 . S
C1938 H1922 0.931 . S
C1938 C1932 1.383 . S
C1938 C1937 1.379 . S
H1939 C1933 0.959 . S
H1940 C1933 0.961 . S
H1941 C1933 0.960 . S
H1942 C1934 0.930 . S
H1943 C1935 0.929 . S
H1944 C1952 0.929 . S
H1945 C1954 0.930 . S
H1946 C1956 0.930 . S
H1947 C1959 0.929 . S
H1948 C1962 0.930 . S
H1949 C1964 0.960 . S
H1950 C1964 0.960 . S
H1951 C1964 0.960 . S
C1952 H1944 0.929 . S
C1952 C1953 1.377 . S
C1952 C1954 1.384 . S
C1953 C1952 1.377 . S
C1953 C1959 1.390 . S
C1954 H1945 0.930 . S
C1954 C1952 1.384 . S
C1954 C1955 1.372 . S
C1955 C1954 1.372 . S
C1955 C1956 1.400 . S
C1955 C1960 1.490 . S
C1956 H1946 0.930 . S
C1956 C1955 1.400 . S
C1956 C1959 1.386 . S
H1957 C1973 0.930 . S
H1958 C1974 0.931 . S
C1959 H1947 0.929 . S
C1959 C1953 1.390 . S
C1959 C1956 1.386 . S
C1960 C1955 1.490 . S
C1960 C1962 1.395 . S
C1960 C1963 1.403 . S
H1961 C1967 0.930 . S
C1962 H1948 0.930 . S
C1962 C1960 1.395 . S
C1962 C1965 1.403 . S
C1963 C1960 1.403 . S
C1963 C1964 1.524 . S
C1963 C1967 1.400 . S
C1964 H1949 0.960 . S
C1964 H1950 0.960 . S
C1964 H1951 0.960 . S
C1964 C1963 1.524 . S
C1965 C1962 1.403 . S
C1965 C1966 1.392 . S
C1965 C1969 1.495 . S
C1966 C1965 1.392 . S
C1966 C1967 1.385 . S
C1966 C1968 1.478 . S
C1967 H1961 0.930 . S
C1967 C1963 1.400 . S
C1967 C1966 1.385 . S
C1968 C1966 1.478 . S
C1968 C1970 1.381 . S
C1968 C1974 1.383 . S
C1969 C1965 1.495 . S
C1969 H1975 0.959 . S
C1969 H1976 0.961 . S
C1969 H1977 0.960 . S
C1970 C1968 1.381 . S
C1970 C1971 1.394 . S
C1970 H1978 0.930 . S
C1971 C1970 1.394 . S
C1971 C1972 1.383 . S
C1971 H1979 0.929 . S
C1972 C1971 1.383 . S
C1972 C1973 1.377 . S
C1973 H1957 0.930 . S
C1973 C1972 1.377 . S
C1973 C1974 1.379 . S
C1974 H1958 0.931 . S
C1974 C1968 1.383 . S
C1974 C1973 1.379 . S
H1975 C1969 0.959 . S
H1976 C1969 0.961 . S
H1977 C1969 0.960 . S
H1978 C1970 0.930 . S
H1979 C1971 0.929 . S
H1980 C1988 0.929 . S
H1981 C1990 0.930 . S
H1982 C1992 0.930 . S
H1983 C1995 0.929 . S
H1984 C1998 0.930 . S
H1985 C2000 0.960 . S
H1986 C2000 0.960 . S
H1987 C2000 0.960 . S
C1988 H1980 0.929 . S
C1988 C1989 1.377 . S
C1988 C1990 1.384 . S
C1989 C1988 1.377 . S
C1989 C1995 1.390 . S
C1990 H1981 0.930 . S
C1990 C1988 1.384 . S
C1990 C1991 1.372 . S
C1991 C1990 1.372 . S
C1991 C1992 1.400 . S
C1991 C1996 1.490 . S
C1992 H1982 0.930 . S
C1992 C1991 1.400 . S
C1992 C1995 1.386 . S
H1993 C2009 0.930 . S
H1994 C2010 0.931 . S
C1995 H1983 0.929 . S
C1995 C1989 1.390 . S
C1995 C1992 1.386 . S
C1996 C1991 1.490 . S
C1996 C1998 1.395 . S
C1996 C1999 1.403 . S
H1997 C2003 0.930 . S
C1998 H1984 0.930 . S
C1998 C1996 1.395 . S
C1998 C2001 1.403 . S
C1999 C1996 1.403 . S
C1999 C2000 1.524 . S
C1999 C2003 1.400 . S
C2000 H1985 0.960 . S
C2000 H1986 0.960 . S
C2000 H1987 0.960 . S
C2000 C1999 1.524 . S
C2001 C1998 1.403 . S
C2001 C2002 1.392 . S
C2001 C2005 1.495 . S
C2002 C2001 1.392 . S
C2002 C2003 1.385 . S
C2002 C2004 1.478 . S
C2003 H1997 0.930 . S
C2003 C1999 1.400 . S
C2003 C2002 1.385 . S
C2004 C2002 1.478 . S
C2004 C2006 1.381 . S
C2004 C2010 1.383 . S
C2005 C2001 1.495 . S
C2005 H2011 0.959 . S
C2005 H2012 0.961 . S
C2005 H2013 0.960 . S
C2006 C2004 1.381 . S
C2006 C2007 1.394 . S
C2006 H2014 0.930 . S
C2007 C2006 1.394 . S
C2007 C2008 1.383 . S
C2007 H2015 0.929 . S
C2008 C2007 1.383 . S
C2008 C2009 1.377 . S
C2009 H1993 0.930 . S
C2009 C2008 1.377 . S
C2009 C2010 1.379 . S
C2010 H1994 0.931 . S
C2010 C2004 1.383 . S
C2010 C2009 1.379 . S
H2011 C2005 0.959 . S
H2012 C2005 0.961 . S
H2013 C2005 0.960 . S
H2014 C2006 0.930 . S
H2015 C2007 0.929 . S
H2016 C2024 0.929 . S
H2017 C2026 0.930 . S
H2018 C2028 0.930 . S
H2019 C2031 0.929 . S
H2020 C2034 0.930 . S
H2021 C2036 0.960 . S
H2022 C2036 0.960 . S
H2023 C2036 0.960 . S
C2024 H2016 0.929 . S
C2024 C2025 1.377 . S
C2024 C2026 1.384 . S
C2025 C2024 1.377 . S
C2025 C2031 1.390 . S
C2026 H2017 0.930 . S
C2026 C2024 1.384 . S
C2026 C2027 1.372 . S
C2027 C2026 1.372 . S
C2027 C2028 1.400 . S
C2027 C2032 1.490 . S
C2028 H2018 0.930 . S
C2028 C2027 1.400 . S
C2028 C2031 1.386 . S
H2029 C2045 0.930 . S
H2030 C2046 0.931 . S
C2031 H2019 0.929 . S
C2031 C2025 1.390 . S
C2031 C2028 1.386 . S
C2032 C2027 1.490 . S
C2032 C2034 1.395 . S
C2032 C2035 1.403 . S
H2033 C2039 0.930 . S
C2034 H2020 0.930 . S
C2034 C2032 1.395 . S
C2034 C2037 1.403 . S
C2035 C2032 1.403 . S
C2035 C2036 1.524 . S
C2035 C2039 1.400 . S
C2036 H2021 0.960 . S
C2036 H2022 0.960 . S
C2036 H2023 0.960 . S
C2036 C2035 1.524 . S
C2037 C2034 1.403 . S
C2037 C2038 1.392 . S
C2037 C2041 1.495 . S
C2038 C2037 1.392 . S
C2038 C2039 1.385 . S
C2038 C2040 1.478 . S
C2039 H2033 0.930 . S
C2039 C2035 1.400 . S
C2039 C2038 1.385 . S
C2040 C2038 1.478 . S
C2040 C2042 1.381 . S
C2040 C2046 1.383 . S
C2041 C2037 1.495 . S
C2041 H2047 0.959 . S
C2041 H2048 0.961 . S
C2041 H2049 0.960 . S
C2042 C2040 1.381 . S
C2042 C2043 1.394 . S
C2042 H2050 0.930 . S
C2043 C2042 1.394 . S
C2043 C2044 1.383 . S
C2043 H2051 0.929 . S
C2044 C2043 1.383 . S
C2044 C2045 1.377 . S
C2045 H2029 0.930 . S
C2045 C2044 1.377 . S
C2045 C2046 1.379 . S
C2046 H2030 0.931 . S
C2046 C2040 1.383 . S
C2046 C2045 1.379 . S
H2047 C2041 0.959 . S
H2048 C2041 0.961 . S
H2049 C2041 0.960 . S
H2050 C2042 0.930 . S
H2051 C2043 0.929 . S
H2052 C2060 0.929 . S
H2053 C2062 0.930 . S
H2054 C2064 0.930 . S
H2055 C2067 0.929 . S
H2056 C2070 0.930 . S
H2057 C2072 0.960 . S
H2058 C2072 0.960 . S
H2059 C2072 0.960 . S
C2060 H2052 0.929 . S
C2060 C2061 1.377 . S
C2060 C2062 1.384 . S
C2061 C2060 1.377 . S
C2061 C2067 1.390 . S
C2062 H2053 0.930 . S
C2062 C2060 1.384 . S
C2062 C2063 1.372 . S
C2063 C2062 1.372 . S
C2063 C2064 1.400 . S
C2063 C2068 1.490 1_565 S
C2064 H2054 0.930 . S
C2064 C2063 1.400 . S
C2064 C2067 1.386 . S
H2065 C2081 0.930 . S
H2066 C2082 0.931 . S
C2067 H2055 0.929 . S
C2067 C2061 1.390 . S
C2067 C2064 1.386 . S
C2068 C2063 1.490 1_545 S
C2068 C2070 1.395 . S
C2068 C2071 1.403 . S
H2069 C2075 0.930 . S
C2070 H2056 0.930 . S
C2070 C2068 1.395 . S
C2070 C2073 1.403 . S
C2071 C2068 1.403 . S
C2071 C2072 1.524 . S
C2071 C2075 1.400 . S
C2072 H2057 0.960 . S
C2072 H2058 0.960 . S
C2072 H2059 0.960 . S
C2072 C2071 1.524 . S
C2073 C2070 1.403 . S
C2073 C2074 1.392 . S
C2073 C2077 1.495 . S
C2074 C2073 1.392 . S
C2074 C2075 1.385 . S
C2074 C2076 1.478 . S
C2075 H2069 0.930 . S
C2075 C2071 1.400 . S
C2075 C2074 1.385 . S
C2076 C2074 1.478 . S
C2076 C2078 1.381 . S
C2076 C2082 1.383 . S
C2077 C2073 1.495 . S
C2077 H2083 0.959 . S
C2077 H2084 0.961 . S
C2077 H2085 0.960 . S
C2078 C2076 1.381 . S
C2078 C2079 1.394 . S
C2078 H2086 0.930 . S
C2079 C2078 1.394 . S
C2079 C2080 1.383 . S
C2079 H2087 0.929 . S
C2080 C2079 1.383 . S
C2080 C2081 1.377 . S
C2081 H2065 0.930 . S
C2081 C2080 1.377 . S
C2081 C2082 1.379 . S
C2082 H2066 0.931 . S
C2082 C2076 1.383 . S
C2082 C2081 1.379 . S
H2083 C2077 0.959 . S
H2084 C2077 0.961 . S
H2085 C2077 0.960 . S
H2086 C2078 0.930 . S
H2087 C2079 0.929 . S
H2088 C2096 0.929 . S
H2089 C2098 0.930 . S
H2090 C2100 0.930 . S
H2091 C2103 0.929 . S
H2092 C2106 0.930 . S
H2093 C2108 0.960 . S
H2094 C2108 0.960 . S
H2095 C2108 0.960 . S
C2096 H2088 0.929 . S
C2096 C2097 1.377 . S
C2096 C2098 1.384 1_455 S
C2097 C2096 1.377 . S
C2097 C2103 1.390 . S
C2098 H2089 0.930 . S
C2098 C2096 1.384 1_655 S
C2098 C2099 1.372 . S
C2099 C2098 1.372 . S
C2099 C2100 1.400 . S
C2099 C2104 1.490 . S
C2100 H2090 0.930 . S
C2100 C2099 1.400 . S
C2100 C2103 1.386 1_655 S
H2101 C2117 0.930 . S
H2102 C2118 0.931 . S
C2103 H2091 0.929 . S
C2103 C2097 1.390 . S
C2103 C2100 1.386 1_455 S
C2104 C2099 1.490 . S
C2104 C2106 1.395 . S
C2104 C2107 1.403 . S
H2105 C2111 0.930 . S
C2106 H2092 0.930 . S
C2106 C2104 1.395 . S
C2106 C2109 1.403 . S
C2107 C2104 1.403 . S
C2107 C2108 1.524 . S
C2107 C2111 1.400 . S
C2108 H2093 0.960 . S
C2108 H2094 0.960 . S
C2108 H2095 0.960 . S
C2108 C2107 1.524 . S
C2109 C2106 1.403 . S
C2109 C2110 1.392 . S
C2109 C2113 1.495 . S
C2110 C2109 1.392 . S
C2110 C2111 1.385 . S
C2110 C2112 1.478 . S
C2111 H2105 0.930 . S
C2111 C2107 1.400 . S
C2111 C2110 1.385 . S
C2112 C2110 1.478 . S
C2112 C2114 1.381 . S
C2112 C2118 1.383 . S
C2113 C2109 1.495 . S
C2113 H2119 0.959 . S
C2113 H2120 0.961 . S
C2113 H2121 0.960 . S
C2114 C2112 1.381 . S
C2114 C2115 1.394 . S
C2114 H2122 0.930 . S
C2115 C2114 1.394 . S
C2115 C2116 1.383 . S
C2115 H2123 0.929 . S
C2116 C2115 1.383 . S
C2116 C2117 1.377 . S
C2117 H2101 0.930 . S
C2117 C2116 1.377 . S
C2117 C2118 1.379 . S
C2118 H2102 0.931 . S
C2118 C2112 1.383 . S
C2118 C2117 1.379 . S
H2119 C2113 0.959 . S
H2120 C2113 0.961 . S
H2121 C2113 0.960 . S
H2122 C2114 0.930 . S
H2123 C2115 0.929 . S
H2124 C2132 0.929 . S
H2125 C2134 0.930 . S
H2126 C2136 0.930 . S
H2127 C2139 0.929 . S
H2128 C2142 0.930 . S
H2129 C2144 0.960 . S
H2130 C2144 0.960 . S
H2131 C2144 0.960 . S
C2132 H2124 0.929 . S
C2132 C2133 1.377 . S
C2132 C2134 1.384 . S
C2133 C2132 1.377 . S
C2133 C2139 1.390 . S
C2134 H2125 0.930 . S
C2134 C2132 1.384 . S
C2134 C2135 1.372 . S
C2135 C2134 1.372 . S
C2135 C2136 1.400 . S
C2135 C2140 1.490 . S
C2136 H2126 0.930 . S
C2136 C2135 1.400 . S
C2136 C2139 1.386 . S
H2137 C2153 0.930 . S
H2138 C2154 0.931 . S
C2139 H2127 0.929 . S
C2139 C2133 1.390 . S
C2139 C2136 1.386 . S
C2140 C2135 1.490 . S
C2140 C2142 1.395 . S
C2140 C2143 1.403 . S
H2141 C2147 0.930 . S
C2142 H2128 0.930 . S
C2142 C2140 1.395 . S
C2142 C2145 1.403 . S
C2143 C2140 1.403 . S
C2143 C2144 1.524 . S
C2143 C2147 1.400 . S
C2144 H2129 0.960 . S
C2144 H2130 0.960 . S
C2144 H2131 0.960 . S
C2144 C2143 1.524 . S
C2145 C2142 1.403 . S
C2145 C2146 1.392 . S
C2145 C2149 1.495 . S
C2146 C2145 1.392 . S
C2146 C2147 1.385 . S
C2146 C2148 1.478 . S
C2147 H2141 0.930 . S
C2147 C2143 1.400 . S
C2147 C2146 1.385 . S
C2148 C2146 1.478 . S
C2148 C2150 1.381 . S
C2148 C2154 1.383 . S
C2149 C2145 1.495 . S
C2149 H2155 0.959 . S
C2149 H2156 0.961 . S
C2149 H2157 0.960 . S
C2150 C2148 1.381 . S
C2150 C2151 1.394 . S
C2150 H2158 0.930 . S
C2151 C2150 1.394 . S
C2151 C2152 1.383 . S
C2151 H2159 0.929 . S
C2152 C2151 1.383 . S
C2152 C2153 1.377 . S
C2153 H2137 0.930 . S
C2153 C2152 1.377 . S
C2153 C2154 1.379 . S
C2154 H2138 0.931 . S
C2154 C2148 1.383 . S
C2154 C2153 1.379 . S
H2155 C2149 0.959 . S
H2156 C2149 0.961 . S
H2157 C2149 0.960 . S
H2158 C2150 0.930 . S
H2159 C2151 0.929 . S
H2160 C2168 0.929 . S
H2161 C2170 0.930 . S
H2162 C2172 0.930 1_655 S
H2163 C2175 0.929 . S
H2164 C2178 0.930 . S
H2165 C2180 0.960 . S
H2166 C2180 0.960 . S
H2167 C2180 0.960 . S
C2168 H2160 0.929 . S
C2168 C2169 1.377 . S
C2168 C2170 1.384 . S
C2169 C2168 1.377 . S
C2169 C2175 1.390 . S
C2170 H2161 0.930 . S
C2170 C2168 1.384 . S
C2170 C2171 1.372 1_455 S
C2171 C2170 1.372 1_655 S
C2171 C2172 1.400 1_655 S
C2171 C2176 1.490 . S
C2172 H2162 0.930 1_455 S
C2172 C2171 1.400 1_455 S
C2172 C2175 1.386 . S
H2173 C2189 0.930 . S
H2174 C2190 0.931 . S
C2175 H2163 0.929 . S
C2175 C2169 1.390 . S
C2175 C2172 1.386 . S
C2176 C2171 1.490 . S
C2176 C2178 1.395 . S
C2176 C2179 1.403 . S
H2177 C2183 0.930 . S
C2178 H2164 0.930 . S
C2178 C2176 1.395 . S
C2178 C2181 1.403 . S
C2179 C2176 1.403 . S
C2179 C2180 1.524 . S
C2179 C2183 1.400 . S
C2180 H2165 0.960 . S
C2180 H2166 0.960 . S
C2180 H2167 0.960 . S
C2180 C2179 1.524 . S
C2181 C2178 1.403 . S
C2181 C2182 1.392 . S
C2181 C2185 1.495 . S
C2182 C2181 1.392 . S
C2182 C2183 1.385 . S
C2182 C2184 1.478 . S
C2183 H2177 0.930 . S
C2183 C2179 1.400 . S
C2183 C2182 1.385 . S
C2184 C2182 1.478 . S
C2184 C2186 1.381 . S
C2184 C2190 1.383 . S
C2185 C2181 1.495 . S
C2185 H2191 0.959 . S
C2185 H2192 0.961 . S
C2185 H2193 0.960 . S
C2186 C2184 1.381 . S
C2186 C2187 1.394 . S
C2186 H2194 0.930 . S
C2187 C2186 1.394 . S
C2187 C2188 1.383 . S
C2187 H2195 0.929 . S
C2188 C2187 1.383 . S
C2188 C2189 1.377 . S
C2189 H2173 0.930 . S
C2189 C2188 1.377 . S
C2189 C2190 1.379 . S
C2190 H2174 0.931 . S
C2190 C2184 1.383 . S
C2190 C2189 1.379 . S
H2191 C2185 0.959 . S
H2192 C2185 0.961 . S
H2193 C2185 0.960 . S
H2194 C2186 0.930 . S
H2195 C2187 0.929 . S
H2196 C2204 0.929 . S
H2197 C2206 0.930 . S
H2198 C2208 0.930 . S
H2199 C2211 0.929 . S
H2200 C2214 0.930 . S
H2201 C2216 0.960 . S
H2202 C2216 0.960 . S
H2203 C2216 0.960 . S
C2204 H2196 0.929 . S
C2204 C2205 1.377 . S
C2204 C2206 1.384 . S
C2205 C2204 1.377 . S
C2205 C2211 1.390 . S
C2206 H2197 0.930 . S
C2206 C2204 1.384 . S
C2206 C2207 1.372 . S
C2207 C2206 1.372 . S
C2207 C2208 1.400 . S
C2207 C2212 1.490 . S
C2208 H2198 0.930 . S
C2208 C2207 1.400 . S
C2208 C2211 1.386 . S
H2209 C2225 0.930 . S
H2210 C2226 0.931 . S
C2211 H2199 0.929 . S
C2211 C2205 1.390 . S
C2211 C2208 1.386 . S
C2212 C2207 1.490 . S
C2212 C2214 1.395 . S
C2212 C2215 1.403 . S
H2213 C2219 0.930 . S
C2214 H2200 0.930 . S
C2214 C2212 1.395 . S
C2214 C2217 1.403 . S
C2215 C2212 1.403 . S
C2215 C2216 1.524 . S
C2215 C2219 1.400 . S
C2216 H2201 0.960 . S
C2216 H2202 0.960 . S
C2216 H2203 0.960 . S
C2216 C2215 1.524 . S
C2217 C2214 1.403 . S
C2217 C2218 1.392 . S
C2217 C2221 1.495 . S
C2218 C2217 1.392 . S
C2218 C2219 1.385 . S
C2218 C2220 1.478 . S
C2219 H2213 0.930 . S
C2219 C2215 1.400 . S
C2219 C2218 1.385 . S
C2220 C2218 1.478 . S
C2220 C2222 1.381 . S
C2220 C2226 1.383 . S
C2221 C2217 1.495 . S
C2221 H2227 0.959 . S
C2221 H2228 0.961 . S
C2221 H2229 0.960 . S
C2222 C2220 1.381 . S
C2222 C2223 1.394 . S
C2222 H2230 0.930 . S
C2223 C2222 1.394 . S
C2223 C2224 1.383 . S
C2223 H2231 0.929 . S
C2224 C2223 1.383 . S
C2224 C2225 1.377 . S
C2225 H2209 0.930 . S
C2225 C2224 1.377 . S
C2225 C2226 1.379 . S
C2226 H2210 0.931 . S
C2226 C2220 1.383 . S
C2226 C2225 1.379 . S
H2227 C2221 0.959 . S
H2228 C2221 0.961 . S
H2229 C2221 0.960 . S
H2230 C2222 0.930 . S
H2231 C2223 0.929 . S
H2232 C2240 0.929 . S
H2233 C2242 0.930 . S
H2234 C2244 0.930 . S
H2235 C2247 0.929 . S
H2236 C2250 0.930 . S
H2237 C2252 0.960 . S
H2238 C2252 0.960 . S
H2239 C2252 0.960 . S
C2240 H2232 0.929 . S
C2240 C2241 1.377 . S
C2240 C2242 1.384 . S
C2241 C2240 1.377 . S
C2241 C2247 1.390 . S
C2242 H2233 0.930 . S
C2242 C2240 1.384 . S
C2242 C2243 1.372 . S
C2243 C2242 1.372 . S
C2243 C2244 1.400 . S
C2243 C2248 1.490 1_565 S
C2244 H2234 0.930 . S
C2244 C2243 1.400 . S
C2244 C2247 1.386 . S
H2245 C2261 0.930 . S
H2246 C2262 0.931 . S
C2247 H2235 0.929 . S
C2247 C2241 1.390 . S
C2247 C2244 1.386 . S
C2248 C2243 1.490 1_545 S
C2248 C2250 1.395 . S
C2248 C2251 1.403 . S
H2249 C2255 0.930 . S
C2250 H2236 0.930 . S
C2250 C2248 1.395 . S
C2250 C2253 1.403 . S
C2251 C2248 1.403 . S
C2251 C2252 1.524 . S
C2251 C2255 1.400 . S
C2252 H2237 0.960 . S
C2252 H2238 0.960 . S
C2252 H2239 0.960 . S
C2252 C2251 1.524 . S
C2253 C2250 1.403 . S
C2253 C2254 1.392 . S
C2253 C2257 1.495 . S
C2254 C2253 1.392 . S
C2254 C2255 1.385 . S
C2254 C2256 1.478 . S
C2255 H2249 0.930 . S
C2255 C2251 1.400 . S
C2255 C2254 1.385 . S
C2256 C2254 1.478 . S
C2256 C2258 1.381 . S
C2256 C2262 1.383 . S
C2257 C2253 1.495 . S
C2257 H2263 0.959 . S
C2257 H2264 0.961 . S
C2257 H2265 0.960 . S
C2258 C2256 1.381 . S
C2258 C2259 1.394 . S
C2258 H2266 0.930 . S
C2259 C2258 1.394 . S
C2259 C2260 1.383 . S
C2259 H2267 0.929 . S
C2260 C2259 1.383 . S
C2260 C2261 1.377 . S
C2261 H2245 0.930 . S
C2261 C2260 1.377 . S
C2261 C2262 1.379 . S
C2262 H2246 0.931 . S
C2262 C2256 1.383 . S
C2262 C2261 1.379 . S
H2263 C2257 0.959 . S
H2264 C2257 0.961 . S
H2265 C2257 0.960 . S
H2266 C2258 0.930 . S
H2267 C2259 0.929 . S
H2268 C2276 0.929 . S
H2269 C2278 0.930 . S
H2270 C2280 0.930 . S
H2271 C2283 0.929 . S
H2272 C2286 0.930 . S
H2273 C2288 0.960 . S
H2274 C2288 0.960 . S
H2275 C2288 0.960 . S
C2276 H2268 0.929 . S
C2276 C2277 1.377 . S
C2276 C2278 1.384 . S
C2277 C2276 1.377 . S
C2277 C2283 1.390 . S
C2278 H2269 0.930 . S
C2278 C2276 1.384 . S
C2278 C2279 1.372 . S
C2279 C2278 1.372 . S
C2279 C2280 1.400 . S
C2279 C2284 1.490 . S
C2280 H2270 0.930 . S
C2280 C2279 1.400 . S
C2280 C2283 1.386 . S
H2281 C2297 0.930 . S
H2282 C2298 0.931 . S
C2283 H2271 0.929 . S
C2283 C2277 1.390 . S
C2283 C2280 1.386 . S
C2284 C2279 1.490 . S
C2284 C2286 1.395 . S
C2284 C2287 1.403 . S
H2285 C2291 0.930 . S
C2286 H2272 0.930 . S
C2286 C2284 1.395 . S
C2286 C2289 1.403 . S
C2287 C2284 1.403 . S
C2287 C2288 1.524 . S
C2287 C2291 1.400 . S
C2288 H2273 0.960 . S
C2288 H2274 0.960 . S
C2288 H2275 0.960 . S
C2288 C2287 1.524 . S
C2289 C2286 1.403 . S
C2289 C2290 1.392 . S
C2289 C2293 1.495 . S
C2290 C2289 1.392 . S
C2290 C2291 1.385 . S
C2290 C2292 1.478 . S
C2291 H2285 0.930 . S
C2291 C2287 1.400 . S
C2291 C2290 1.385 . S
C2292 C2290 1.478 . S
C2292 C2294 1.381 . S
C2292 C2298 1.383 . S
C2293 C2289 1.495 . S
C2293 H2299 0.959 . S
C2293 H2300 0.961 . S
C2293 H2301 0.960 . S
C2294 C2292 1.381 . S
C2294 C2295 1.394 . S
C2294 H2302 0.930 . S
C2295 C2294 1.394 . S
C2295 C2296 1.383 . S
C2295 H2303 0.929 . S
C2296 C2295 1.383 . S
C2296 C2297 1.377 . S
C2297 H2281 0.930 . S
C2297 C2296 1.377 . S
C2297 C2298 1.379 . S
C2298 H2282 0.931 . S
C2298 C2292 1.383 . S
C2298 C2297 1.379 . S
H2299 C2293 0.959 . S
H2300 C2293 0.961 . S
H2301 C2293 0.960 . S
H2302 C2294 0.930 . S
H2303 C2295 0.929 . S
H2304 C2312 0.929 . S
H2305 C2314 0.930 . S
H2306 C2316 0.930 . S
H2307 C2319 0.929 . S
H2308 C2322 0.930 . S
H2309 C2324 0.960 . S
H2310 C2324 0.960 . S
H2311 C2324 0.960 . S
C2312 H2304 0.929 . S
C2312 C2313 1.377 . S
C2312 C2314 1.384 . S
C2313 C2312 1.377 . S
C2313 C2319 1.390 . S
C2314 H2305 0.930 . S
C2314 C2312 1.384 . S
C2314 C2315 1.372 . S
C2315 C2314 1.372 . S
C2315 C2316 1.400 . S
C2315 C2320 1.490 . S
C2316 H2306 0.930 . S
C2316 C2315 1.400 . S
C2316 C2319 1.386 . S
H2317 C2333 0.930 . S
H2318 C2334 0.931 . S
C2319 H2307 0.929 . S
C2319 C2313 1.390 . S
C2319 C2316 1.386 . S
C2320 C2315 1.490 . S
C2320 C2322 1.395 . S
C2320 C2323 1.403 . S
H2321 C2327 0.930 . S
C2322 H2308 0.930 . S
C2322 C2320 1.395 . S
C2322 C2325 1.403 . S
C2323 C2320 1.403 . S
C2323 C2324 1.524 . S
C2323 C2327 1.400 . S
C2324 H2309 0.960 . S
C2324 H2310 0.960 . S
C2324 H2311 0.960 . S
C2324 C2323 1.524 . S
C2325 C2322 1.403 . S
C2325 C2326 1.392 . S
C2325 C2329 1.495 . S
C2326 C2325 1.392 . S
C2326 C2327 1.385 . S
C2326 C2328 1.478 . S
C2327 H2321 0.930 . S
C2327 C2323 1.400 . S
C2327 C2326 1.385 . S
C2328 C2326 1.478 . S
C2328 C2330 1.381 . S
C2328 C2334 1.383 . S
C2329 C2325 1.495 . S
C2329 H2335 0.959 . S
C2329 H2336 0.961 . S
C2329 H2337 0.960 . S
C2330 C2328 1.381 . S
C2330 C2331 1.394 . S
C2330 H2338 0.930 . S
C2331 C2330 1.394 . S
C2331 C2332 1.383 . S
C2331 H2339 0.929 . S
C2332 C2331 1.383 . S
C2332 C2333 1.377 . S
C2333 H2317 0.930 . S
C2333 C2332 1.377 . S
C2333 C2334 1.379 . S
C2334 H2318 0.931 . S
C2334 C2328 1.383 . S
C2334 C2333 1.379 . S
H2335 C2329 0.959 . S
H2336 C2329 0.961 . S
H2337 C2329 0.960 . S
H2338 C2330 0.930 . S
H2339 C2331 0.929 . S
H2340 C2348 0.929 . S
H2341 C2350 0.930 . S
H2342 C2352 0.930 . S
H2343 C2355 0.929 . S
H2344 C2358 0.930 . S
H2345 C2360 0.960 . S
H2346 C2360 0.960 . S
H2347 C2360 0.960 . S
C2348 H2340 0.929 . S
C2348 C2349 1.377 . S
C2348 C2350 1.384 . S
C2349 C2348 1.377 . S
C2349 C2355 1.390 . S
C2350 H2341 0.930 . S
C2350 C2348 1.384 . S
C2350 C2351 1.372 . S
C2351 C2350 1.372 . S
C2351 C2352 1.400 . S
C2351 C2356 1.490 . S
C2352 H2342 0.930 . S
C2352 C2351 1.400 . S
C2352 C2355 1.386 . S
H2353 C2369 0.930 . S
H2354 C2370 0.931 . S
C2355 H2343 0.929 . S
C2355 C2349 1.390 . S
C2355 C2352 1.386 . S
C2356 C2351 1.490 . S
C2356 C2358 1.395 . S
C2356 C2359 1.403 . S
H2357 C2363 0.930 . S
C2358 H2344 0.930 . S
C2358 C2356 1.395 . S
C2358 C2361 1.403 . S
C2359 C2356 1.403 . S
C2359 C2360 1.524 . S
C2359 C2363 1.400 . S
C2360 H2345 0.960 . S
C2360 H2346 0.960 . S
C2360 H2347 0.960 . S
C2360 C2359 1.524 . S
C2361 C2358 1.403 . S
C2361 C2362 1.392 . S
C2361 C2365 1.495 . S
C2362 C2361 1.392 . S
C2362 C2363 1.385 . S
C2362 C2364 1.478 . S
C2363 H2357 0.930 . S
C2363 C2359 1.400 . S
C2363 C2362 1.385 . S
C2364 C2362 1.478 . S
C2364 C2366 1.381 . S
C2364 C2370 1.383 . S
C2365 C2361 1.495 . S
C2365 H2371 0.959 . S
C2365 H2372 0.961 . S
C2365 H2373 0.960 . S
C2366 C2364 1.381 . S
C2366 C2367 1.394 . S
C2366 H2374 0.930 . S
C2367 C2366 1.394 . S
C2367 C2368 1.383 . S
C2367 H2375 0.929 . S
C2368 C2367 1.383 . S
C2368 C2369 1.377 . S
C2369 H2353 0.930 . S
C2369 C2368 1.377 . S
C2369 C2370 1.379 . S
C2370 H2354 0.931 . S
C2370 C2364 1.383 . S
C2370 C2369 1.379 . S
H2371 C2365 0.959 . S
H2372 C2365 0.961 . S
H2373 C2365 0.960 . S
H2374 C2366 0.930 . S
H2375 C2367 0.929 . S
H2376 C2384 0.929 . S
H2377 C2386 0.930 . S
H2378 C2388 0.930 . S
H2379 C2391 0.929 . S
H2380 C2394 0.930 . S
H2381 C2396 0.960 . S
H2382 C2396 0.960 . S
H2383 C2396 0.964 1_565 S
C2384 H2376 0.929 . S
C2384 C2385 1.377 . S
C2384 C2386 1.384 . S
C2385 C2384 1.377 . S
C2385 C2391 1.390 . S
C2386 H2377 0.930 . S
C2386 C2384 1.384 . S
C2386 C2387 1.372 . S
C2387 C2386 1.372 . S
C2387 C2388 1.400 . S
C2387 C2392 1.490 . S
C2388 H2378 0.930 . S
C2388 C2387 1.400 . S
C2388 C2391 1.386 . S
H2389 C2405 0.930 . S
H2390 C2406 0.931 . S
C2391 H2379 0.929 . S
C2391 C2385 1.390 . S
C2391 C2388 1.386 . S
C2392 C2387 1.490 . S
C2392 C2394 1.395 . S
C2392 C2395 1.403 . S
H2393 C2399 0.885 1_545 S
C2394 H2380 0.930 . S
C2394 C2392 1.395 . S
C2394 C2397 1.403 . S
C2395 C2392 1.403 . S
C2395 C2396 1.524 1_565 S
C2395 C2399 1.400 . S
C2396 H2381 0.960 . S
C2396 H2382 0.960 . S
C2396 H2383 0.964 1_545 S
C2396 C2395 1.524 1_545 S
C2397 C2394 1.403 . S
C2397 C2398 1.392 . S
C2397 C2401 1.495 . S
C2398 C2397 1.392 . S
C2398 C2399 1.385 . S
C2398 C2400 1.478 . S
C2399 H2393 0.885 1_565 S
C2399 C2395 1.400 . S
C2399 C2398 1.385 . S
C2400 C2398 1.478 . S
C2400 C2402 1.381 . S
C2400 C2406 1.383 . S
C2401 C2397 1.495 . S
C2401 H2407 0.959 . S
C2401 H2408 0.961 . S
C2401 H2409 0.960 . S
C2402 C2400 1.381 . S
C2402 C2403 1.394 . S
C2402 H2410 0.930 . S
C2403 C2402 1.394 . S
C2403 C2404 1.383 . S
C2403 H2411 0.929 . S
C2404 C2403 1.383 . S
C2404 C2405 1.377 . S
C2405 H2389 0.930 . S
C2405 C2404 1.377 . S
C2405 C2406 1.379 . S
C2406 H2390 0.931 . S
C2406 C2400 1.383 . S
C2406 C2405 1.379 . S
H2407 C2401 0.959 . S
H2408 C2401 0.961 . S
H2409 C2401 0.960 . S
H2410 C2402 0.930 . S
H2411 C2403 0.929 . S
H2412 C2420 0.929 . S
H2413 C2422 0.930 . S
H2414 C2424 0.930 . S
H2415 C2427 0.929 . S
H2416 C2430 0.930 1_655 S
H2417 C2432 0.960 . S
H2418 C2432 0.960 . S
H2419 C2432 0.960 . S
C2420 H2412 0.929 . S
C2420 C2421 1.377 1_655 S
C2420 C2422 1.384 . S
C2421 C2420 1.377 1_455 S
C2421 C2427 1.390 . S
C2422 H2413 0.930 . S
C2422 C2420 1.384 . S
C2422 C2423 1.372 1_655 S
C2423 C2422 1.372 1_455 S
C2423 C2424 1.400 . S
C2423 C2428 1.490 . S
C2424 H2414 0.930 . S
C2424 C2423 1.400 . S
C2424 C2427 1.386 . S
H2425 C2441 0.930 . S
H2426 C2442 0.931 . S
C2427 H2415 0.929 . S
C2427 C2421 1.390 . S
C2427 C2424 1.386 . S
C2428 C2423 1.490 . S
C2428 C2430 1.395 . S
C2428 C2431 1.403 . S
H2429 C2435 0.930 . S
C2430 H2416 0.930 1_455 S
C2430 C2428 1.395 . S
C2430 C2433 1.403 . S
C2431 C2428 1.403 . S
C2431 C2432 1.524 . S
C2431 C2435 1.400 . S
C2432 H2417 0.960 . S
C2432 H2418 0.960 . S
C2432 H2419 0.960 . S
C2432 C2431 1.524 . S
C2433 C2430 1.403 . S
C2433 C2434 1.392 . S
C2433 C2437 1.495 1_455 S
C2434 C2433 1.392 . S
C2434 C2435 1.385 . S
C2434 C2436 1.478 . S
C2435 H2429 0.930 . S
C2435 C2431 1.400 . S
C2435 C2434 1.385 . S
C2436 C2434 1.478 . S
C2436 C2438 1.381 1_455 S
C2436 C2442 1.383 . S
C2437 C2433 1.495 1_655 S
C2437 H2443 0.959 . S
C2437 H2444 0.961 1_655 S
C2437 H2445 0.960 . S
C2438 C2436 1.381 1_655 S
C2438 C2439 1.394 . S
C2438 H2446 0.930 . S
C2439 C2438 1.394 . S
C2439 C2440 1.383 1_655 S
C2439 H2447 0.929 . S
C2440 C2439 1.383 1_455 S
C2440 C2441 1.377 . S
C2441 H2425 0.930 . S
C2441 C2440 1.377 . S
C2441 C2442 1.379 . S
C2442 H2426 0.931 . S
C2442 C2436 1.383 . S
C2442 C2441 1.379 . S
H2443 C2437 0.959 . S
H2444 C2437 0.961 1_455 S
H2445 C2437 0.960 . S
H2446 C2438 0.930 . S
H2447 C2439 0.929 . S
H2448 C2456 0.929 . S
H2449 C2458 0.930 . S
H2450 C2460 0.930 . S
H2451 C2463 0.929 . S
H2452 C2466 0.930 . S
H2453 C2468 0.960 . S
H2454 C2468 0.960 . S
H2455 C2468 0.960 . S
C2456 H2448 0.929 . S
C2456 C2457 1.377 . S
C2456 C2458 1.384 . S
C2457 C2456 1.377 . S
C2457 C2463 1.390 . S
C2458 H2449 0.930 . S
C2458 C2456 1.384 . S
C2458 C2459 1.372 . S
C2459 C2458 1.372 . S
C2459 C2460 1.400 . S
C2459 C2464 1.490 . S
C2460 H2450 0.930 . S
C2460 C2459 1.400 . S
C2460 C2463 1.386 . S
H2461 C2477 0.930 . S
H2462 C2478 0.931 . S
C2463 H2451 0.929 . S
C2463 C2457 1.390 . S
C2463 C2460 1.386 . S
C2464 C2459 1.490 . S
C2464 C2466 1.395 . S
C2464 C2467 1.403 . S
H2465 C2471 0.930 . S
C2466 H2452 0.930 . S
C2466 C2464 1.395 . S
C2466 C2469 1.403 . S
C2467 C2464 1.403 . S
C2467 C2468 1.524 . S
C2467 C2471 1.400 . S
C2468 H2453 0.960 . S
C2468 H2454 0.960 . S
C2468 H2455 0.960 . S
C2468 C2467 1.524 . S
C2469 C2466 1.403 . S
C2469 C2470 1.392 . S
C2469 C2473 1.495 . S
C2470 C2469 1.392 . S
C2470 C2471 1.385 . S
C2470 C2472 1.478 . S
C2471 H2465 0.930 . S
C2471 C2467 1.400 . S
C2471 C2470 1.385 . S
C2472 C2470 1.478 . S
C2472 C2474 1.381 . S
C2472 C2478 1.383 . S
C2473 C2469 1.495 . S
C2473 H2479 0.959 . S
C2473 H2480 0.961 . S
C2473 H2481 0.960 . S
C2474 C2472 1.381 . S
C2474 C2475 1.394 . S
C2474 H2482 0.930 . S
C2475 C2474 1.394 . S
C2475 C2476 1.383 . S
C2475 H2483 0.929 . S
C2476 C2475 1.383 . S
C2476 C2477 1.377 . S
C2477 H2461 0.930 . S
C2477 C2476 1.377 . S
C2477 C2478 1.379 . S
C2478 H2462 0.931 . S
C2478 C2472 1.383 . S
C2478 C2477 1.379 . S
H2479 C2473 0.959 . S
H2480 C2473 0.961 . S
H2481 C2473 0.960 . S
H2482 C2474 0.930 . S
H2483 C2475 0.929 . S
H2484 C2492 0.978 . S
H2485 C2494 0.968 . S
H2486 C2496 0.930 . S
H2487 C2499 0.929 . S
H2488 C2502 0.930 . S
H2489 C2504 0.960 . S
H2490 C2504 0.960 . S
H2491 C2504 0.960 . S
C2492 H2484 0.978 . S
C2492 C2493 1.377 . S
C2492 C2494 1.384 . S
C2493 C2492 1.377 . S
C2493 C2499 1.390 . S
C2494 H2485 0.968 . S
C2494 C2492 1.384 . S
C2494 C2495 1.372 . S
C2495 C2494 1.372 . S
C2495 C2496 1.400 . S
C2495 C2500 1.490 . S
C2496 H2486 0.930 . S
C2496 C2495 1.400 . S
C2496 C2499 1.386 . S
H2497 C2513 0.930 . S
H2498 C2514 0.931 . S
C2499 H2487 0.929 . S
C2499 C2493 1.390 . S
C2499 C2496 1.386 . S
C2500 C2495 1.490 . S
C2500 C2502 1.395 1_655 S
C2500 C2503 1.403 . S
H2501 C2507 0.930 . S
C2502 H2488 0.930 . S
C2502 C2500 1.395 1_455 S
C2502 C2505 1.403 . S
C2503 C2500 1.403 . S
C2503 C2504 1.524 . S
C2503 C2507 1.400 . S
C2504 H2489 0.960 . S
C2504 H2490 0.960 . S
C2504 H2491 0.960 . S
C2504 C2503 1.524 . S
C2505 C2502 1.403 . S
C2505 C2506 1.392 1_455 S
C2505 C2509 1.495 . S
C2506 C2505 1.392 1_655 S
C2506 C2507 1.385 . S
C2506 C2508 1.478 . S
C2507 H2501 0.930 . S
C2507 C2503 1.400 . S
C2507 C2506 1.385 . S
C2508 C2506 1.478 . S
C2508 C2510 1.381 . S
C2508 C2514 1.383 . S
C2509 C2505 1.495 . S
C2509 H2515 0.959 . S
C2509 H2516 0.961 . S
C2509 H2517 0.960 . S
C2510 C2508 1.381 . S
C2510 C2511 1.394 . S
C2510 H2518 0.930 . S
C2511 C2510 1.394 . S
C2511 C2512 1.383 . S
C2511 H2519 0.929 . S
C2512 C2511 1.383 . S
C2512 C2513 1.377 . S
C2513 H2497 0.930 . S
C2513 C2512 1.377 . S
C2513 C2514 1.379 . S
C2514 H2498 0.931 . S
C2514 C2508 1.383 . S
C2514 C2513 1.379 . S
H2515 C2509 0.959 . S
H2516 C2509 0.961 . S
H2517 C2509 0.960 . S
H2518 C2510 0.930 . S
H2519 C2511 0.929 . S
H2520 C2528 0.929 . S
H2521 C2530 0.930 . S
H2522 C2532 0.930 . S
H2523 C2535 0.929 . S
H2524 C2538 0.930 . S
H2525 C2540 0.960 . S
H2526 C2540 0.960 . S
H2527 C2540 0.960 . S
C2528 H2520 0.929 . S
C2528 C2529 1.377 . S
C2528 C2530 1.384 . S
C2529 C2528 1.377 . S
C2529 C2535 1.390 . S
C2530 H2521 0.930 . S
C2530 C2528 1.384 . S
C2530 C2531 1.372 . S
C2531 C2530 1.372 . S
C2531 C2532 1.400 . S
C2531 C2536 1.490 . S
C2532 H2522 0.930 . S
C2532 C2531 1.400 . S
C2532 C2535 1.386 . S
H2533 C2549 0.930 . S
H2534 C2550 0.931 . S
C2535 H2523 0.929 . S
C2535 C2529 1.390 . S
C2535 C2532 1.386 . S
C2536 C2531 1.490 . S
C2536 C2538 1.395 . S
C2536 C2539 1.403 . S
H2537 C2543 0.930 . S
C2538 H2524 0.930 . S
C2538 C2536 1.395 . S
C2538 C2541 1.403 . S
C2539 C2536 1.403 . S
C2539 C2540 1.524 . S
C2539 C2543 1.400 . S
C2540 H2525 0.960 . S
C2540 H2526 0.960 . S
C2540 H2527 0.960 . S
C2540 C2539 1.524 . S
C2541 C2538 1.403 . S
C2541 C2542 1.392 . S
C2541 C2545 1.495 . S
C2542 C2541 1.392 . S
C2542 C2543 1.385 . S
C2542 C2544 1.478 . S
C2543 H2537 0.930 . S
C2543 C2539 1.400 . S
C2543 C2542 1.385 . S
C2544 C2542 1.478 . S
C2544 C2546 1.381 . S
C2544 C2550 1.383 . S
C2545 C2541 1.495 . S
C2545 H2551 0.959 . S
C2545 H2552 0.961 . S
C2545 H2553 0.960 . S
C2546 C2544 1.381 . S
C2546 C2547 1.394 . S
C2546 H2554 0.930 . S
C2547 C2546 1.394 . S
C2547 C2548 1.383 . S
C2547 H2555 0.929 . S
C2548 C2547 1.383 . S
C2548 C2549 1.377 . S
C2549 H2533 0.930 . S
C2549 C2548 1.377 . S
C2549 C2550 1.379 . S
C2550 H2534 0.931 . S
C2550 C2544 1.383 . S
C2550 C2549 1.379 . S
H2551 C2545 0.959 . S
H2552 C2545 0.961 . S
H2553 C2545 0.960 . S
H2554 C2546 0.930 . S
H2555 C2547 0.929 . S
H2556 C2564 0.929 . S
H2557 C2566 0.930 . S
H2558 C2568 0.930 . S
H2559 C2571 0.929 . S
H2560 C2574 0.930 . S
H2561 C2576 0.960 . S
H2562 C2576 0.960 . S
H2563 C2576 0.960 . S
C2564 H2556 0.929 . S
C2564 C2565 1.377 . S
C2564 C2566 1.384 . S
C2565 C2564 1.377 . S
C2565 C2571 1.390 . S
C2566 H2557 0.930 . S
C2566 C2564 1.384 . S
C2566 C2567 1.372 . S
C2567 C2566 1.372 . S
C2567 C2568 1.400 . S
C2567 C2572 1.490 . S
C2568 H2558 0.930 . S
C2568 C2567 1.400 . S
C2568 C2571 1.386 . S
H2569 C2585 0.907 1_565 S
H2570 C2586 0.931 1_565 S
C2571 H2559 0.929 . S
C2571 C2565 1.390 . S
C2571 C2568 1.386 . S
C2572 C2567 1.490 . S
C2572 C2574 1.395 . S
C2572 C2575 1.403 . S
H2573 C2579 0.930 . S
C2574 H2560 0.930 . S
C2574 C2572 1.395 . S
C2574 C2577 1.403 . S
C2575 C2572 1.403 . S
C2575 C2576 1.524 . S
C2575 C2579 1.400 . S
C2576 H2561 0.960 . S
C2576 H2562 0.960 . S
C2576 H2563 0.960 . S
C2576 C2575 1.524 . S
C2577 C2574 1.403 . S
C2577 C2578 1.392 . S
C2577 C2581 1.495 . S
C2578 C2577 1.392 . S
C2578 C2579 1.385 . S
C2578 C2580 1.478 . S
C2579 H2573 0.930 . S
C2579 C2575 1.400 . S
C2579 C2578 1.385 . S
C2580 C2578 1.478 . S
C2580 C2582 1.381 . S
C2580 C2586 1.383 . S
C2581 C2577 1.495 . S
C2581 H2587 0.959 . S
C2581 H2588 0.961 1_545 S
C2581 H2589 0.960 . S
C2582 C2580 1.381 . S
C2582 C2583 1.394 . S
C2582 H2590 0.930 . S
C2583 C2582 1.394 . S
C2583 C2584 1.383 . S
C2583 H2591 0.929 . S
C2584 C2583 1.383 . S
C2584 C2585 1.394 . S
C2585 H2569 0.907 1_545 S
C2585 C2584 1.394 . S
C2585 C2586 1.385 . S
C2586 H2570 0.931 1_545 S
C2586 C2580 1.383 . S
C2586 C2585 1.385 . S
H2587 C2581 0.959 . S
H2588 C2581 0.961 1_565 S
H2589 C2581 0.960 . S
H2590 C2582 0.930 . S
H2591 C2583 0.929 . S
H2592 C2600 0.929 . S
H2593 C2602 0.930 . S
H2594 C2604 0.930 . S
H2595 C2607 0.929 . S
H2596 C2610 0.930 . S
H2597 C2612 0.960 . S
H2598 C2612 0.960 . S
H2599 C2612 0.960 . S
C2600 H2592 0.929 . S
C2600 C2601 1.377 . S
C2600 C2602 1.384 . S
C2601 C2600 1.377 . S
C2601 C2607 1.390 . S
C2602 H2593 0.930 . S
C2602 C2600 1.384 . S
C2602 C2603 1.372 . S
C2603 C2602 1.372 . S
C2603 C2604 1.400 . S
C2603 C2608 1.490 . S
C2604 H2594 0.930 . S
C2604 C2603 1.400 . S
C2604 C2607 1.386 . S
H2605 C2621 0.930 . S
H2606 C2622 0.931 . S
C2607 H2595 0.929 . S
C2607 C2601 1.390 . S
C2607 C2604 1.386 . S
C2608 C2603 1.490 . S
C2608 C2610 1.395 . S
C2608 C2611 1.403 . S
H2609 C2615 0.930 . S
C2610 H2596 0.930 . S
C2610 C2608 1.395 . S
C2610 C2613 1.403 . S
C2611 C2608 1.403 . S
C2611 C2612 1.524 . S
C2611 C2615 1.400 . S
C2612 H2597 0.960 . S
C2612 H2598 0.960 . S
C2612 H2599 0.960 . S
C2612 C2611 1.524 . S
C2613 C2610 1.403 . S
C2613 C2614 1.392 . S
C2613 C2617 1.495 . S
C2614 C2613 1.392 . S
C2614 C2615 1.385 . S
C2614 C2616 1.478 . S
C2615 H2609 0.930 . S
C2615 C2611 1.400 . S
C2615 C2614 1.385 . S
C2616 C2614 1.478 . S
C2616 C2618 1.381 . S
C2616 C2622 1.383 . S
C2617 C2613 1.495 . S
C2617 H2623 0.959 . S
C2617 H2624 0.961 . S
C2617 H2625 0.960 . S
C2618 C2616 1.381 . S
C2618 C2619 1.394 . S
C2618 H2626 0.930 . S
C2619 C2618 1.394 . S
C2619 C2620 1.383 . S
C2619 H2627 0.929 . S
C2620 C2619 1.383 . S
C2620 C2621 1.377 . S
C2621 H2605 0.930 . S
C2621 C2620 1.377 . S
C2621 C2622 1.379 . S
C2622 H2606 0.931 . S
C2622 C2616 1.383 . S
C2622 C2621 1.379 . S
H2623 C2617 0.959 . S
H2624 C2617 0.961 . S
H2625 C2617 0.960 . S
H2626 C2618 0.930 . S
H2627 C2619 0.929 . S
H2628 C2636 0.929 . S
H2629 C2638 0.930 . S
H2630 C2640 0.930 . S
H2631 C2643 0.929 . S
H2632 C2646 0.930 . S
H2633 C2648 0.960 . S
H2634 C2648 0.960 . S
H2635 C2648 0.960 . S
C2636 H2628 0.929 . S
C2636 C2637 1.377 . S
C2636 C2638 1.384 . S
C2637 C2636 1.377 . S
C2637 C2643 1.390 . S
C2638 H2629 0.930 . S
C2638 C2636 1.384 . S
C2638 C2639 1.372 . S
C2639 C2638 1.372 . S
C2639 C2640 1.400 . S
C2639 C2644 1.490 . S
C2640 H2630 0.930 . S
C2640 C2639 1.400 . S
C2640 C2643 1.386 . S
H2641 C2657 0.930 . S
H2642 C2658 0.931 . S
C2643 H2631 0.929 . S
C2643 C2637 1.390 . S
C2643 C2640 1.386 . S
C2644 C2639 1.490 . S
C2644 C2646 1.395 . S
C2644 C2647 1.403 . S
H2645 C2651 0.930 . S
C2646 H2632 0.930 . S
C2646 C2644 1.395 . S
C2646 C2649 1.403 . S
C2647 C2644 1.403 . S
C2647 C2648 1.524 . S
C2647 C2651 1.400 . S
C2648 H2633 0.960 . S
C2648 H2634 0.960 . S
C2648 H2635 0.960 . S
C2648 C2647 1.524 . S
C2649 C2646 1.403 . S
C2649 C2650 1.392 . S
C2649 C2653 1.495 . S
C2650 C2649 1.392 . S
C2650 C2651 1.385 . S
C2650 C2652 1.478 . S
C2651 H2645 0.930 . S
C2651 C2647 1.400 . S
C2651 C2650 1.385 . S
C2652 C2650 1.478 . S
C2652 C2654 1.381 . S
C2652 C2658 1.383 . S
C2653 C2649 1.495 . S
C2653 H2659 0.959 . S
C2653 H2660 0.961 . S
C2653 H2661 0.960 . S
C2654 C2652 1.381 . S
C2654 C2655 1.394 . S
C2654 H2662 0.930 . S
C2655 C2654 1.394 . S
C2655 C2656 1.383 . S
C2655 H2663 0.929 . S
C2656 C2655 1.383 . S
C2656 C2657 1.377 . S
C2657 H2641 0.930 . S
C2657 C2656 1.377 . S
C2657 C2658 1.379 . S
C2658 H2642 0.931 . S
C2658 C2652 1.383 . S
C2658 C2657 1.379 . S
H2659 C2653 0.959 . S
H2660 C2653 0.961 . S
H2661 C2653 0.960 . S
H2662 C2654 0.930 . S
H2663 C2655 0.929 . S
H2664 C2672 0.929 . S
H2665 C2674 0.930 . S
H2666 C2676 0.930 . S
H2667 C2679 0.929 . S
H2668 C2682 0.930 . S
H2669 C2684 0.960 . S
H2670 C2684 0.960 . S
H2671 C2684 0.960 . S
C2672 H2664 0.929 . S
C2672 C2673 1.377 . S
C2672 C2674 1.384 . S
C2673 C2672 1.377 . S
C2673 C2679 1.390 . S
C2674 H2665 0.930 . S
C2674 C2672 1.384 . S
C2674 C2675 1.372 . S
C2675 C2674 1.372 . S
C2675 C2676 1.400 . S
C2675 C2680 1.490 . S
C2676 H2666 0.930 . S
C2676 C2675 1.400 . S
C2676 C2679 1.386 . S
H2677 C2693 0.930 . S
H2678 C2694 0.931 . S
C2679 H2667 0.929 . S
C2679 C2673 1.390 . S
C2679 C2676 1.386 . S
C2680 C2675 1.490 . S
C2680 C2682 1.395 . S
C2680 C2683 1.403 . S
H2681 C2687 0.930 . S
C2682 H2668 0.930 . S
C2682 C2680 1.395 . S
C2682 C2685 1.403 . S
C2683 C2680 1.403 . S
C2683 C2684 1.524 . S
C2683 C2687 1.400 . S
C2684 H2669 0.960 . S
C2684 H2670 0.960 . S
C2684 H2671 0.960 . S
C2684 C2683 1.524 . S
C2685 C2682 1.403 . S
C2685 C2686 1.392 . S
C2685 C2689 1.495 . S
C2686 C2685 1.392 . S
C2686 C2687 1.385 . S
C2686 C2688 1.478 . S
C2687 H2681 0.930 . S
C2687 C2683 1.400 . S
C2687 C2686 1.385 . S
C2688 C2686 1.478 . S
C2688 C2690 1.381 . S
C2688 C2694 1.383 . S
C2689 C2685 1.495 . S
C2689 H2695 0.959 . S
C2689 H2696 0.961 . S
C2689 H2697 0.960 . S
C2690 C2688 1.381 . S
C2690 C2691 1.394 . S
C2690 H2698 0.930 . S
C2691 C2690 1.394 . S
C2691 C2692 1.383 . S
C2691 H2699 0.929 . S
C2692 C2691 1.383 . S
C2692 C2693 1.377 . S
C2693 H2677 0.930 . S
C2693 C2692 1.377 . S
C2693 C2694 1.379 . S
C2694 H2678 0.931 . S
C2694 C2688 1.383 . S
C2694 C2693 1.379 . S
H2695 C2689 0.959 . S
H2696 C2689 0.961 . S
H2697 C2689 0.960 . S
H2698 C2690 0.930 . S
H2699 C2691 0.929 . S
H2700 C2708 0.929 . S
H2701 C2710 0.930 . S
H2702 C2712 0.930 . S
H2703 C2715 0.929 . S
H2704 C2718 0.930 . S
H2705 C2720 0.960 . S
H2706 C2720 0.960 . S
H2707 C2720 0.960 . S
C2708 H2700 0.929 . S
C2708 C2709 1.377 . S
C2708 C2710 1.384 . S
C2709 C2708 1.377 . S
C2709 C2715 1.390 . S
C2710 H2701 0.930 . S
C2710 C2708 1.384 . S
C2710 C2711 1.372 . S
C2711 C2710 1.372 . S
C2711 C2712 1.400 . S
C2711 C2716 1.490 . S
C2712 H2702 0.930 . S
C2712 C2711 1.400 . S
C2712 C2715 1.386 . S
H2713 C2729 0.930 . S
H2714 C2730 0.931 . S
C2715 H2703 0.929 . S
C2715 C2709 1.390 . S
C2715 C2712 1.386 . S
C2716 C2711 1.490 . S
C2716 C2718 1.395 . S
C2716 C2719 1.403 . S
H2717 C2723 0.930 . S
C2718 H2704 0.930 . S
C2718 C2716 1.395 . S
C2718 C2721 1.403 . S
C2719 C2716 1.403 . S
C2719 C2720 1.524 . S
C2719 C2723 1.400 . S
C2720 H2705 0.960 . S
C2720 H2706 0.960 . S
C2720 H2707 0.960 . S
C2720 C2719 1.524 . S
C2721 C2718 1.403 . S
C2721 C2722 1.392 . S
C2721 C2725 1.495 . S
C2722 C2721 1.392 . S
C2722 C2723 1.385 . S
C2722 C2724 1.478 . S
C2723 H2717 0.930 . S
C2723 C2719 1.400 . S
C2723 C2722 1.385 . S
C2724 C2722 1.478 . S
C2724 C2726 1.381 . S
C2724 C2730 1.383 . S
C2725 C2721 1.495 . S
C2725 H2731 0.959 . S
C2725 H2732 0.961 . S
C2725 H2733 0.960 . S
C2726 C2724 1.381 . S
C2726 C2727 1.394 . S
C2726 H2734 0.930 . S
C2727 C2726 1.394 . S
C2727 C2728 1.383 . S
C2727 H2735 0.929 . S
C2728 C2727 1.383 . S
C2728 C2729 1.377 . S
C2729 H2713 0.930 . S
C2729 C2728 1.377 . S
C2729 C2730 1.379 . S
C2730 H2714 0.931 . S
C2730 C2724 1.383 . S
C2730 C2729 1.379 . S
H2731 C2725 0.959 . S
H2732 C2725 0.961 . S
H2733 C2725 0.960 . S
H2734 C2726 0.930 . S
H2735 C2727 0.929 . S
H2736 C2744 0.929 . S
H2737 C2746 0.930 . S
H2738 C2748 0.930 . S
H2739 C2751 0.929 . S
H2740 C2754 0.930 . S
H2741 C2756 0.960 . S
H2742 C2756 0.960 . S
H2743 C2756 0.960 . S
C2744 H2736 0.929 . S
C2744 C2745 1.377 . S
C2744 C2746 1.384 . S
C2745 C2744 1.377 . S
C2745 C2751 1.390 . S
C2746 H2737 0.930 . S
C2746 C2744 1.384 . S
C2746 C2747 1.372 . S
C2747 C2746 1.372 . S
C2747 C2748 1.400 . S
C2747 C2752 1.490 . S
C2748 H2738 0.930 . S
C2748 C2747 1.400 . S
C2748 C2751 1.386 . S
H2749 C2765 0.930 . S
H2750 C2766 0.931 . S
C2751 H2739 0.929 . S
C2751 C2745 1.390 . S
C2751 C2748 1.386 . S
C2752 C2747 1.490 . S
C2752 C2754 1.395 . S
C2752 C2755 1.403 . S
H2753 C2759 0.930 . S
C2754 H2740 0.930 . S
C2754 C2752 1.395 . S
C2754 C2757 1.403 . S
C2755 C2752 1.403 . S
C2755 C2756 1.524 . S
C2755 C2759 1.400 . S
C2756 H2741 0.960 . S
C2756 H2742 0.960 . S
C2756 H2743 0.960 . S
C2756 C2755 1.524 . S
C2757 C2754 1.403 . S
C2757 C2758 1.392 . S
C2757 C2761 1.495 . S
C2758 C2757 1.392 . S
C2758 C2759 1.385 . S
C2758 C2760 1.478 . S
C2759 H2753 0.930 . S
C2759 C2755 1.400 . S
C2759 C2758 1.385 . S
C2760 C2758 1.478 . S
C2760 C2762 1.381 . S
C2760 C2766 1.383 . S
C2761 C2757 1.495 . S
C2761 H2767 0.959 . S
C2761 H2768 0.961 . S
C2761 H2769 0.960 . S
C2762 C2760 1.381 . S
C2762 C2763 1.394 . S
C2762 H2770 0.930 . S
C2763 C2762 1.394 . S
C2763 C2764 1.383 . S
C2763 H2771 0.929 . S
C2764 C2763 1.383 . S
C2764 C2765 1.377 . S
C2765 H2749 0.930 . S
C2765 C2764 1.377 . S
C2765 C2766 1.379 . S
C2766 H2750 0.931 . S
C2766 C2760 1.383 . S
C2766 C2765 1.379 . S
H2767 C2761 0.959 . S
H2768 C2761 0.961 . S
H2769 C2761 0.960 . S
H2770 C2762 0.930 . S
H2771 C2763 0.929 . S
H2772 C2780 0.929 . S
H2773 C2782 0.930 . S
H2774 C2784 0.930 . S
H2775 C2787 0.929 . S
H2776 C2790 0.930 . S
H2777 C2792 0.960 . S
H2778 C2792 0.960 . S
H2779 C2792 0.960 . S
C2780 H2772 0.929 . S
C2780 C2781 1.377 . S
C2780 C2782 1.384 . S
C2781 C2780 1.377 . S
C2781 C2787 1.390 . S
C2782 H2773 0.930 . S
C2782 C2780 1.384 . S
C2782 C2783 1.372 . S
C2783 C2782 1.372 . S
C2783 C2784 1.400 . S
C2783 C2788 1.490 . S
C2784 H2774 0.930 . S
C2784 C2783 1.400 . S
C2784 C2787 1.386 . S
H2785 C2801 0.930 . S
H2786 C2802 0.931 . S
C2787 H2775 0.929 . S
C2787 C2781 1.390 . S
C2787 C2784 1.386 . S
C2788 C2783 1.490 . S
C2788 C2790 1.395 . S
C2788 C2791 1.403 . S
H2789 C2795 0.930 . S
C2790 H2776 0.930 . S
C2790 C2788 1.395 . S
C2790 C2793 1.403 . S
C2791 C2788 1.403 . S
C2791 C2792 1.524 . S
C2791 C2795 1.400 . S
C2792 H2777 0.960 . S
C2792 H2778 0.960 . S
C2792 H2779 0.960 . S
C2792 C2791 1.524 . S
C2793 C2790 1.403 . S
C2793 C2794 1.392 . S
C2793 C2797 1.495 . S
C2794 C2793 1.392 . S
C2794 C2795 1.385 . S
C2794 C2796 1.478 . S
C2795 H2789 0.930 . S
C2795 C2791 1.400 . S
C2795 C2794 1.385 . S
C2796 C2794 1.478 . S
C2796 C2798 1.381 . S
C2796 C2802 1.383 . S
C2797 C2793 1.495 . S
C2797 H2803 0.959 . S
C2797 H2804 0.961 . S
C2797 H2805 0.960 . S
C2798 C2796 1.381 . S
C2798 C2799 1.394 . S
C2798 H2806 0.930 . S
C2799 C2798 1.394 . S
C2799 C2800 1.383 . S
C2799 H2807 0.929 . S
C2800 C2799 1.383 . S
C2800 C2801 1.377 . S
C2801 H2785 0.930 . S
C2801 C2800 1.377 . S
C2801 C2802 1.379 . S
C2802 H2786 0.931 . S
C2802 C2796 1.383 . S
C2802 C2801 1.379 . S
H2803 C2797 0.959 . S
H2804 C2797 0.961 . S
H2805 C2797 0.960 . S
H2806 C2798 0.930 . S
H2807 C2799 0.929 . S
H2808 C2816 0.929 . S
H2809 C2818 0.930 . S
H2810 C2820 0.930 . S
H2811 C2823 0.929 . S
H2812 C2826 0.930 . S
H2813 C2828 0.960 . S
H2814 C2828 0.960 . S
H2815 C2828 0.960 . S
C2816 H2808 0.929 . S
C2816 C2817 1.377 . S
C2816 C2818 1.384 . S
C2817 C2816 1.377 . S
C2817 C2823 1.390 . S
C2818 H2809 0.930 . S
C2818 C2816 1.384 . S
C2818 C2819 1.372 . S
C2819 C2818 1.372 . S
C2819 C2820 1.400 . S
C2819 C2824 1.490 . S
C2820 H2810 0.930 . S
C2820 C2819 1.400 . S
C2820 C2823 1.386 . S
H2821 C2837 0.930 . S
H2822 C2838 0.931 . S
C2823 H2811 0.929 . S
C2823 C2817 1.390 . S
C2823 C2820 1.386 . S
C2824 C2819 1.490 . S
C2824 C2826 1.395 . S
C2824 C2827 1.403 . S
H2825 C2831 0.930 . S
C2826 H2812 0.930 . S
C2826 C2824 1.395 . S
C2826 C2829 1.403 . S
C2827 C2824 1.403 . S
C2827 C2828 1.524 . S
C2827 C2831 1.400 . S
C2828 H2813 0.960 . S
C2828 H2814 0.960 . S
C2828 H2815 0.960 . S
C2828 C2827 1.524 . S
C2829 C2826 1.403 . S
C2829 C2830 1.392 . S
C2829 C2833 1.495 . S
C2830 C2829 1.392 . S
C2830 C2831 1.385 . S
C2830 C2832 1.478 . S
C2831 H2825 0.930 . S
C2831 C2827 1.400 . S
C2831 C2830 1.385 . S
C2832 C2830 1.478 . S
C2832 C2834 1.381 . S
C2832 C2838 1.383 . S
C2833 C2829 1.495 . S
C2833 H2839 0.959 . S
C2833 H2840 0.961 . S
C2833 H2841 0.960 . S
C2834 C2832 1.381 . S
C2834 C2835 1.394 . S
C2834 H2842 0.930 . S
C2835 C2834 1.394 . S
C2835 C2836 1.383 . S
C2835 H2843 0.929 . S
C2836 C2835 1.383 . S
C2836 C2837 1.377 . S
C2837 H2821 0.930 . S
C2837 C2836 1.377 . S
C2837 C2838 1.379 . S
C2838 H2822 0.931 . S
C2838 C2832 1.383 . S
C2838 C2837 1.379 . S
H2839 C2833 0.959 . S
H2840 C2833 0.961 . S
H2841 C2833 0.960 . S
H2842 C2834 0.930 . S
H2843 C2835 0.929 . S
H2844 C2852 0.929 . S
H2845 C2854 0.930 . S
H2846 C2856 0.930 . S
H2847 C2859 0.929 . S
H2848 C2862 0.930 . S
H2849 C2864 0.960 . S
H2850 C2864 0.960 . S
H2851 C2864 0.960 . S
C2852 H2844 0.929 . S
C2852 C2853 1.377 . S
C2852 C2854 1.384 . S
C2853 C2852 1.377 . S
C2853 C2859 1.390 . S
C2854 H2845 0.930 . S
C2854 C2852 1.384 . S
C2854 C2855 1.372 . S
C2855 C2854 1.372 . S
C2855 C2856 1.400 . S
C2855 C2860 1.490 . S
C2856 H2846 0.930 . S
C2856 C2855 1.400 . S
C2856 C2859 1.386 . S
H2857 C2873 0.930 . S
H2858 C2874 0.931 . S
C2859 H2847 0.929 . S
C2859 C2853 1.390 . S
C2859 C2856 1.386 . S
C2860 C2855 1.490 . S
C2860 C2862 1.395 . S
C2860 C2863 1.403 . S
H2861 C2867 0.930 . S
C2862 H2848 0.930 . S
C2862 C2860 1.395 . S
C2862 C2865 1.403 . S
C2863 C2860 1.403 . S
C2863 C2864 1.524 . S
C2863 C2867 1.400 . S
C2864 H2849 0.960 . S
C2864 H2850 0.960 . S
C2864 H2851 0.960 . S
C2864 C2863 1.524 . S
C2865 C2862 1.403 . S
C2865 C2866 1.392 . S
C2865 C2869 1.495 . S
C2866 C2865 1.392 . S
C2866 C2867 1.385 . S
C2866 C2868 1.478 . S
C2867 H2861 0.930 . S
C2867 C2863 1.400 . S
C2867 C2866 1.385 . S
C2868 C2866 1.478 . S
C2868 C2870 1.381 . S
C2868 C2874 1.383 . S
C2869 C2865 1.495 . S
C2869 H2875 0.959 . S
C2869 H2876 0.961 . S
C2869 H2877 0.960 . S
C2870 C2868 1.381 . S
C2870 C2871 1.394 . S
C2870 H2878 0.930 . S
C2871 C2870 1.394 . S
C2871 C2872 1.383 . S
C2871 H2879 0.929 . S
C2872 C2871 1.383 . S
C2872 C2873 1.377 . S
C2873 H2857 0.930 . S
C2873 C2872 1.377 . S
C2873 C2874 1.379 . S
C2874 H2858 0.931 . S
C2874 C2868 1.383 . S
C2874 C2873 1.379 . S
H2875 C2869 0.959 . S
H2876 C2869 0.961 . S
H2877 C2869 0.960 . S
H2878 C2870 0.930 . S
H2879 C2871 0.929 . S
H2880 C2888 0.929 . S
H2881 C2890 0.930 . S
H2882 C2892 0.930 . S
H2883 C2895 0.929 . S
H2884 C2898 0.930 . S
H2885 C2900 0.960 . S
H2886 C2900 0.960 . S
H2887 C2900 0.960 . S
C2888 H2880 0.929 . S
C2888 C2889 1.377 . S
C2888 C2890 1.384 . S
C2889 C2888 1.377 . S
C2889 C2895 1.390 . S
C2890 H2881 0.930 . S
C2890 C2888 1.384 . S
C2890 C2891 1.372 . S
C2891 C2890 1.372 . S
C2891 C2892 1.400 . S
C2891 C2896 1.490 . S
C2892 H2882 0.930 . S
C2892 C2891 1.400 . S
C2892 C2895 1.386 . S
H2893 C2909 0.930 . S
H2894 C2910 0.931 . S
C2895 H2883 0.929 . S
C2895 C2889 1.390 . S
C2895 C2892 1.386 . S
C2896 C2891 1.490 . S
C2896 C2898 1.395 . S
C2896 C2899 1.403 . S
H2897 C2903 0.930 . S
C2898 H2884 0.930 . S
C2898 C2896 1.395 . S
C2898 C2901 1.403 . S
C2899 C2896 1.403 . S
C2899 C2900 1.524 . S
C2899 C2903 1.400 . S
C2900 H2885 0.960 . S
C2900 H2886 0.960 . S
C2900 H2887 0.960 . S
C2900 C2899 1.524 . S
C2901 C2898 1.403 . S
C2901 C2902 1.392 . S
C2901 C2905 1.495 . S
C2902 C2901 1.392 . S
C2902 C2903 1.385 . S
C2902 C2904 1.478 . S
C2903 H2897 0.930 . S
C2903 C2899 1.400 . S
C2903 C2902 1.385 . S
C2904 C2902 1.478 . S
C2904 C2906 1.381 . S
C2904 C2910 1.383 . S
C2905 C2901 1.495 . S
C2905 H2911 0.959 . S
C2905 H2912 0.961 . S
C2905 H2913 0.960 . S
C2906 C2904 1.381 . S
C2906 C2907 1.394 . S
C2906 H2914 0.930 . S
C2907 C2906 1.394 . S
C2907 C2908 1.383 . S
C2907 H2915 0.929 . S
C2908 C2907 1.383 . S
C2908 C2909 1.377 . S
C2909 H2893 0.930 . S
C2909 C2908 1.377 . S
C2909 C2910 1.379 . S
C2910 H2894 0.931 . S
C2910 C2904 1.383 . S
C2910 C2909 1.379 . S
H2911 C2905 0.959 . S
H2912 C2905 0.961 . S
H2913 C2905 0.960 . S
H2914 C2906 0.930 . S
H2915 C2907 0.929 . S
H2916 C2924 0.929 . S
H2917 C2926 0.930 . S
H2918 C2928 0.930 . S
H2919 C2931 0.929 . S
H2920 C2934 0.930 . S
H2921 C2936 0.960 . S
H2922 C2936 0.960 . S
H2923 C2936 0.960 . S
C2924 H2916 0.929 . S
C2924 C2925 1.377 . S
C2924 C2926 1.384 . S
C2925 C2924 1.377 . S
C2925 C2931 1.390 . S
C2926 H2917 0.930 . S
C2926 C2924 1.384 . S
C2926 C2927 1.372 . S
C2927 C2926 1.372 . S
C2927 C2928 1.400 . S
C2927 C2932 1.490 . S
C2928 H2918 0.930 . S
C2928 C2927 1.400 . S
C2928 C2931 1.386 . S
H2929 C2945 0.930 . S
H2930 C2946 0.931 . S
C2931 H2919 0.929 . S
C2931 C2925 1.390 . S
C2931 C2928 1.386 . S
C2932 C2927 1.490 . S
C2932 C2934 1.395 . S
C2932 C2935 1.403 . S
H2933 C2939 0.930 . S
C2934 H2920 0.930 . S
C2934 C2932 1.395 . S
C2934 C2937 1.403 . S
C2935 C2932 1.403 . S
C2935 C2936 1.524 . S
C2935 C2939 1.400 . S
C2936 H2921 0.960 . S
C2936 H2922 0.960 . S
C2936 H2923 0.960 . S
C2936 C2935 1.524 . S
C2937 C2934 1.403 . S
C2937 C2938 1.392 . S
C2937 C2941 1.495 . S
C2938 C2937 1.392 . S
C2938 C2939 1.385 . S
C2938 C2940 1.478 . S
C2939 H2933 0.930 . S
C2939 C2935 1.400 . S
C2939 C2938 1.385 . S
C2940 C2938 1.478 . S
C2940 C2942 1.381 . S
C2940 C2946 1.383 . S
C2941 C2937 1.495 . S
C2941 H2947 0.959 . S
C2941 H2948 0.961 . S
C2941 H2949 0.960 . S
C2942 C2940 1.381 . S
C2942 C2943 1.394 . S
C2942 H2950 0.930 . S
C2943 C2942 1.394 . S
C2943 C2944 1.383 . S
C2943 H2951 0.929 . S
C2944 C2943 1.383 . S
C2944 C2945 1.377 . S
C2945 H2929 0.930 . S
C2945 C2944 1.377 . S
C2945 C2946 1.379 . S
C2946 H2930 0.931 . S
C2946 C2940 1.383 . S
C2946 C2945 1.379 . S
H2947 C2941 0.959 . S
H2948 C2941 0.961 . S
H2949 C2941 0.960 . S
H2950 C2942 0.930 . S
H2951 C2943 0.929 . S
H2952 C2960 0.929 . S
H2953 C2962 0.930 . S
H2954 C2964 0.930 . S
H2955 C2967 0.929 . S
H2956 C2970 0.930 . S
H2957 C2972 0.960 . S
H2958 C2972 0.960 . S
H2959 C2972 0.960 . S
C2960 H2952 0.929 . S
C2960 C2961 1.377 . S
C2960 C2962 1.384 . S
C2961 C2960 1.377 . S
C2961 C2967 1.390 . S
C2962 H2953 0.930 . S
C2962 C2960 1.384 . S
C2962 C2963 1.372 . S
C2963 C2962 1.372 . S
C2963 C2964 1.400 . S
C2963 C2968 1.490 . S
C2964 H2954 0.930 . S
C2964 C2963 1.400 . S
C2964 C2967 1.386 . S
H2965 C2981 0.930 . S
H2966 C2982 0.931 . S
C2967 H2955 0.929 . S
C2967 C2961 1.390 . S
C2967 C2964 1.386 . S
C2968 C2963 1.490 . S
C2968 C2970 1.395 . S
C2968 C2971 1.403 . S
H2969 C2975 0.930 . S
C2970 H2956 0.930 . S
C2970 C2968 1.395 . S
C2970 C2973 1.403 . S
C2971 C2968 1.403 . S
C2971 C2972 1.524 . S
C2971 C2975 1.400 . S
C2972 H2957 0.960 . S
C2972 H2958 0.960 . S
C2972 H2959 0.960 . S
C2972 C2971 1.524 . S
C2973 C2970 1.403 . S
C2973 C2974 1.392 . S
C2973 C2977 1.495 . S
C2974 C2973 1.392 . S
C2974 C2975 1.385 . S
C2974 C2976 1.478 . S
C2975 H2969 0.930 . S
C2975 C2971 1.400 . S
C2975 C2974 1.385 . S
C2976 C2974 1.478 . S
C2976 C2978 1.381 . S
C2976 C2982 1.383 . S
C2977 C2973 1.495 . S
C2977 H2983 0.959 . S
C2977 H2984 0.961 . S
C2977 H2985 0.960 . S
C2978 C2976 1.381 . S
C2978 C2979 1.394 . S
C2978 H2986 0.930 . S
C2979 C2978 1.394 . S
C2979 C2980 1.383 . S
C2979 H2987 0.929 . S
C2980 C2979 1.383 . S
C2980 C2981 1.377 . S
C2981 H2965 0.930 . S
C2981 C2980 1.377 . S
C2981 C2982 1.379 . S
C2982 H2966 0.931 . S
C2982 C2976 1.383 . S
C2982 C2981 1.379 . S
H2983 C2977 0.959 . S
H2984 C2977 0.961 . S
H2985 C2977 0.960 . S
H2986 C2978 0.930 . S
H2987 C2979 0.929 . S
H2988 C2996 0.929 . S
H2989 C2998 0.930 . S
H2990 C3000 0.930 . S
H2991 C3003 0.929 . S
H2992 C3006 0.930 . S
H2993 C3008 0.960 . S
H2994 C3008 0.960 . S
H2995 C3008 0.960 . S
C2996 H2988 0.929 . S
C2996 C2997 1.377 . S
C2996 C2998 1.384 . S
C2997 C2996 1.377 . S
C2997 C3003 1.390 . S
C2998 H2989 0.930 . S
C2998 C2996 1.384 . S
C2998 C2999 1.372 . S
C2999 C2998 1.372 . S
C2999 C3000 1.400 . S
C2999 C3004 1.490 . S
C3000 H2990 0.930 . S
C3000 C2999 1.400 . S
C3000 C3003 1.386 . S
H3001 C3017 0.930 . S
H3002 C3018 0.931 . S
C3003 H2991 0.929 . S
C3003 C2997 1.390 . S
C3003 C3000 1.386 . S
C3004 C2999 1.490 . S
C3004 C3006 1.395 . S
C3004 C3007 1.403 . S
H3005 C3011 0.930 . S
C3006 H2992 0.930 . S
C3006 C3004 1.395 . S
C3006 C3009 1.403 . S
C3007 C3004 1.403 . S
C3007 C3008 1.524 . S
C3007 C3011 1.400 . S
C3008 H2993 0.960 . S
C3008 H2994 0.960 . S
C3008 H2995 0.960 . S
C3008 C3007 1.524 . S
C3009 C3006 1.403 . S
C3009 C3010 1.392 . S
C3009 C3013 1.495 . S
C3010 C3009 1.392 . S
C3010 C3011 1.385 . S
C3010 C3012 1.478 . S
C3011 H3005 0.930 . S
C3011 C3007 1.400 . S
C3011 C3010 1.385 . S
C3012 C3010 1.478 . S
C3012 C3014 1.381 . S
C3012 C3018 1.383 . S
C3013 C3009 1.495 . S
C3013 H3019 0.959 . S
C3013 H3020 0.961 . S
C3013 H3021 0.960 . S
C3014 C3012 1.381 . S
C3014 C3015 1.394 . S
C3014 H3022 0.930 . S
C3015 C3014 1.394 . S
C3015 C3016 1.383 . S
C3015 H3023 0.929 . S
C3016 C3015 1.383 . S
C3016 C3017 1.377 . S
C3017 H3001 0.930 . S
C3017 C3016 1.377 . S
C3017 C3018 1.379 . S
C3018 H3002 0.931 . S
C3018 C3012 1.383 . S
C3018 C3017 1.379 . S
H3019 C3013 0.959 . S
H3020 C3013 0.961 . S
H3021 C3013 0.960 . S
H3022 C3014 0.930 . S
H3023 C3015 0.929 . S
C1089 C522 1.705 . S
C1108 C729 1.651 . S
C1125 C562 1.841 . S
C1144 C769 1.795 . S
C1161 C495 1.770 . S
C1180 C808 1.758 . S
C1197 C455 1.567 . S
C1216 C768 1.562 . S
C1252 C809 1.421 . S
C1233 C362 1.441 . S
C1269 C402 1.414 . S
C1288 C728 1.396 1_556 S
C1324 C739 1.686 . S
C1305 C442 1.667 . S
C1360 C779 1.768 . S
C1341 C375 1.801 . S
C1377 C415 1.780 . S
C1396 C818 1.795 . S
C1413 C535 1.580 . S
C1432 C778 1.535 . S
C1449 C575 1.407 . S
C1468 C819 1.371 . S
C1504 C738 1.439 . S
C1485 C482 1.366 . S
C1540 C849 1.676 . S
C1521 C42 1.707 . S
C1557 C82 1.842 . S
C1576 C889 1.797 . S
C1593 C15 1.777 . S
C1612 C928 1.789 . S
C1629 C695 1.570 . S
C1648 C888 1.558 . S
C1665 C602 1.443 . S
C1684 C929 1.432 . S
C1701 C642 1.411 . S
C1720 C848 1.395 . S
C1737 C682 1.659 . S
C1756 C859 1.704 . S
C1773 C615 1.801 . S
C1792 C899 1.775 . S
C1828 C938 1.784 . S
C1809 C655 1.787 . S
C1845 C55 1.573 . S
C1864 C898 1.574 . S
C1900 C939 1.382 . S
C1881 C95 1.407 . S
C1917 C2 1.361 . S
C1936 C858 1.444 . S
C1972 C969 1.664 . S
C1953 C282 1.705 . S
C1989 C322 1.843 . S
C2008 C1009 1.821 . S
C2044 C1048 1.764 . S
C2025 C255 1.771 . S
C2080 C1008 1.561 . S
C2061 C215 1.571 . S
C2116 C1049 1.419 . S
C2097 C122 1.443 . S
C2133 C162 1.410 . S
C2152 C968 1.380 . S
C2169 C202 1.662 . S
C2188 C979 1.712 . S
C2205 C135 1.805 . S
C2224 C1019 1.785 . S
C2260 C1058 1.762 . S
C2241 C175 1.788 . S
C2277 C295 1.576 . S
C2296 C1018 1.575 . S
C2313 C335 1.407 . S
C2332 C1059 1.385 . S
C2349 C242 1.374 . S
C2368 C978 1.406 . S
C2385 C621 1.222 . S
C2404 C725 1.213 . S
C2440 C765 1.942 . S
C2421 C661 1.957 . S
C2457 C701 1.576 . S
C2476 C815 1.625 . S
C2493 C261 1.902 . S
C2512 C775 1.965 . S
C2529 C301 1.603 . S
C2548 C805 1.601 . S
C2584 C735 1.212 . S
C2565 C341 1.219 . S
C2601 C141 1.221 . S
C2620 C845 1.212 . S
C2637 C181 1.957 . S
C2656 C885 1.944 . S
C2673 C221 1.579 . S
C2692 C935 1.627 . S
C2709 C501 1.908 . S
C2728 C895 1.974 . S
C2764 C925 1.601 . S
C2745 C541 1.603 . S
C2781 C581 1.217 . S
C2800 C855 1.216 . S
C2817 C381 1.221 . S
C2836 C965 1.215 . S
C2853 C421 1.958 . S
C2872 C1005 1.948 . S
C2908 C1055 1.627 . S
C2889 C461 1.579 . S
C2925 C21 1.907 . S
C2944 C1015 1.977 . S
C2961 C61 1.603 . S
C2980 C1045 1.601 . S
C2997 C101 1.219 . S
C3016 C975 1.207 . S
