# Generated by pormake.
# Topology gar, (4,6)-cn, num edge types: 1
# Building blocks:
#     Node 0, Type 0, BuildingBlock: GALJAG_clean_sbu_0, # of connection points: 4
#     Node 1, Type 0, BuildingBlock: GALJAG_clean_sbu_0, # of connection points: 4
#     Node 2, Type 0, BuildingBlock: GALJAG_clean_sbu_0, # of connection points: 4
#     Node 3, Type 0, BuildingBlock: GALJAG_clean_sbu_0, # of connection points: 4
#     Node 4, Type 0, BuildingBlock: GALJAG_clean_sbu_0, # of connection points: 4
#     Node 5, Type 0, BuildingBlock: GALJAG_clean_sbu_0, # of connection points: 4
#     Node 6, Type 0, BuildingBlock: GALJAG_clean_sbu_0, # of connection points: 4
#     Node 7, Type 0, BuildingBlock: GALJAG_clean_sbu_0, # of connection points: 4
#     Node 8, Type 0, BuildingBlock: GALJAG_clean_sbu_0, # of connection points: 4
#     Node 9, Type 0, BuildingBlock: GALJAG_clean_sbu_0, # of connection points: 4
#     Node 10, Type 0, BuildingBlock: GALJAG_clean_sbu_0, # of connection points: 4
#     Node 11, Type 0, BuildingBlock: GALJAG_clean_sbu_0, # of connection points: 4
#     Node 12, Type 0, BuildingBlock: GALJAG_clean_sbu_0, # of connection points: 4
#     Node 13, Type 0, BuildingBlock: GALJAG_clean_sbu_0, # of connection points: 4
#     Node 14, Type 0, BuildingBlock: GALJAG_clean_sbu_0, # of connection points: 4
#     Node 15, Type 0, BuildingBlock: GALJAG_clean_sbu_0, # of connection points: 4
#     Node 16, Type 0, BuildingBlock: GALJAG_clean_sbu_0, # of connection points: 4
#     Node 17, Type 0, BuildingBlock: GALJAG_clean_sbu_0, # of connection points: 4
#     Node 18, Type 0, BuildingBlock: GALJAG_clean_sbu_0, # of connection points: 4
#     Node 19, Type 0, BuildingBlock: GALJAG_clean_sbu_0, # of connection points: 4
#     Node 20, Type 0, BuildingBlock: GALJAG_clean_sbu_0, # of connection points: 4
#     Node 21, Type 0, BuildingBlock: GALJAG_clean_sbu_0, # of connection points: 4
#     Node 22, Type 0, BuildingBlock: GALJAG_clean_sbu_0, # of connection points: 4
#     Node 23, Type 0, BuildingBlock: GALJAG_clean_sbu_0, # of connection points: 4
#     Node 24, Type 1, BuildingBlock: MIFKUJ_clean_sbu_0, # of connection points: 6
#     Node 25, Type 1, BuildingBlock: MIFKUJ_clean_sbu_0, # of connection points: 6
#     Node 26, Type 1, BuildingBlock: MIFKUJ_clean_sbu_0, # of connection points: 6
#     Node 27, Type 1, BuildingBlock: MIFKUJ_clean_sbu_0, # of connection points: 6
#     Node 28, Type 1, BuildingBlock: MIFKUJ_clean_sbu_0, # of connection points: 6
#     Node 29, Type 1, BuildingBlock: MIFKUJ_clean_sbu_0, # of connection points: 6
#     Node 30, Type 1, BuildingBlock: MIFKUJ_clean_sbu_0, # of connection points: 6
#     Node 31, Type 1, BuildingBlock: MIFKUJ_clean_sbu_0, # of connection points: 6
#     Node 32, Type 1, BuildingBlock: MIFKUJ_clean_sbu_0, # of connection points: 6
#     Node 33, Type 1, BuildingBlock: MIFKUJ_clean_sbu_0, # of connection points: 6
#     Node 34, Type 1, BuildingBlock: MIFKUJ_clean_sbu_0, # of connection points: 6
#     Node 35, Type 1, BuildingBlock: MIFKUJ_clean_sbu_0, # of connection points: 6
#     Node 36, Type 1, BuildingBlock: MIFKUJ_clean_sbu_0, # of connection points: 6
#     Node 37, Type 1, BuildingBlock: MIFKUJ_clean_sbu_0, # of connection points: 6
#     Node 38, Type 1, BuildingBlock: MIFKUJ_clean_sbu_0, # of connection points: 6
#     Node 39, Type 1, BuildingBlock: MIFKUJ_clean_sbu_0, # of connection points: 6
#     Edge 40, Type (0, 1), BuildingBlock: XIVTED_clean_linker_0, # of connection points: 2
#     Edge 41, Type (0, 1), BuildingBlock: XIVTED_clean_linker_0, # of connection points: 2
#     Edge 42, Type (0, 1), BuildingBlock: XIVTED_clean_linker_0, # of connection points: 2
#     Edge 43, Type (0, 1), BuildingBlock: XIVTED_clean_linker_0, # of connection points: 2
#     Edge 44, Type (0, 1), BuildingBlock: XIVTED_clean_linker_0, # of connection points: 2
#     Edge 45, Type (0, 1), BuildingBlock: XIVTED_clean_linker_0, # of connection points: 2
#     Edge 46, Type (0, 1), BuildingBlock: XIVTED_clean_linker_0, # of connection points: 2
#     Edge 47, Type (0, 1), BuildingBlock: XIVTED_clean_linker_0, # of connection points: 2
#     Edge 48, Type (0, 1), BuildingBlock: XIVTED_clean_linker_0, # of connection points: 2
#     Edge 49, Type (0, 1), BuildingBlock: XIVTED_clean_linker_0, # of connection points: 2
#     Edge 50, Type (0, 1), BuildingBlock: XIVTED_clean_linker_0, # of connection points: 2
#     Edge 51, Type (0, 1), BuildingBlock: XIVTED_clean_linker_0, # of connection points: 2
#     Edge 52, Type (0, 1), BuildingBlock: XIVTED_clean_linker_0, # of connection points: 2
#     Edge 53, Type (0, 1), BuildingBlock: XIVTED_clean_linker_0, # of connection points: 2
#     Edge 54, Type (0, 1), BuildingBlock: XIVTED_clean_linker_0, # of connection points: 2
#     Edge 55, Type (0, 1), BuildingBlock: XIVTED_clean_linker_0, # of connection points: 2
#     Edge 56, Type (0, 1), BuildingBlock: XIVTED_clean_linker_0, # of connection points: 2
#     Edge 57, Type (0, 1), BuildingBlock: XIVTED_clean_linker_0, # of connection points: 2
#     Edge 58, Type (0, 1), BuildingBlock: XIVTED_clean_linker_0, # of connection points: 2
#     Edge 59, Type (0, 1), BuildingBlock: XIVTED_clean_linker_0, # of connection points: 2
#     Edge 60, Type (0, 1), BuildingBlock: XIVTED_clean_linker_0, # of connection points: 2
#     Edge 61, Type (0, 1), BuildingBlock: XIVTED_clean_linker_0, # of connection points: 2
#     Edge 62, Type (0, 1), BuildingBlock: XIVTED_clean_linker_0, # of connection points: 2
#     Edge 63, Type (0, 1), BuildingBlock: XIVTED_clean_linker_0, # of connection points: 2
#     Edge 64, Type (0, 1), BuildingBlock: XIVTED_clean_linker_0, # of connection points: 2
#     Edge 65, Type (0, 1), BuildingBlock: XIVTED_clean_linker_0, # of connection points: 2
#     Edge 66, Type (0, 1), BuildingBlock: XIVTED_clean_linker_0, # of connection points: 2
#     Edge 67, Type (0, 1), BuildingBlock: XIVTED_clean_linker_0, # of connection points: 2
#     Edge 68, Type (0, 1), BuildingBlock: XIVTED_clean_linker_0, # of connection points: 2
#     Edge 69, Type (0, 1), BuildingBlock: XIVTED_clean_linker_0, # of connection points: 2
#     Edge 70, Type (0, 1), BuildingBlock: XIVTED_clean_linker_0, # of connection points: 2
#     Edge 71, Type (0, 1), BuildingBlock: XIVTED_clean_linker_0, # of connection points: 2
#     Edge 72, Type (0, 1), BuildingBlock: XIVTED_clean_linker_0, # of connection points: 2
#     Edge 73, Type (0, 1), BuildingBlock: XIVTED_clean_linker_0, # of connection points: 2
#     Edge 74, Type (0, 1), BuildingBlock: XIVTED_clean_linker_0, # of connection points: 2
#     Edge 75, Type (0, 1), BuildingBlock: XIVTED_clean_linker_0, # of connection points: 2
#     Edge 76, Type (0, 1), BuildingBlock: XIVTED_clean_linker_0, # of connection points: 2
#     Edge 77, Type (0, 1), BuildingBlock: XIVTED_clean_linker_0, # of connection points: 2
#     Edge 78, Type (0, 1), BuildingBlock: XIVTED_clean_linker_0, # of connection points: 2
#     Edge 79, Type (0, 1), BuildingBlock: XIVTED_clean_linker_0, # of connection points: 2
#     Edge 80, Type (0, 1), BuildingBlock: XIVTED_clean_linker_0, # of connection points: 2
#     Edge 81, Type (0, 1), BuildingBlock: XIVTED_clean_linker_0, # of connection points: 2
#     Edge 82, Type (0, 1), BuildingBlock: XIVTED_clean_linker_0, # of connection points: 2
#     Edge 83, Type (0, 1), BuildingBlock: XIVTED_clean_linker_0, # of connection points: 2
#     Edge 84, Type (0, 1), BuildingBlock: XIVTED_clean_linker_0, # of connection points: 2
#     Edge 85, Type (0, 1), BuildingBlock: XIVTED_clean_linker_0, # of connection points: 2
#     Edge 86, Type (0, 1), BuildingBlock: XIVTED_clean_linker_0, # of connection points: 2
#     Edge 87, Type (0, 1), BuildingBlock: XIVTED_clean_linker_0, # of connection points: 2
#     Edge 88, Type (0, 1), BuildingBlock: XIVTED_clean_linker_0, # of connection points: 2
#     Edge 89, Type (0, 1), BuildingBlock: XIVTED_clean_linker_0, # of connection points: 2
#     Edge 90, Type (0, 1), BuildingBlock: XIVTED_clean_linker_0, # of connection points: 2
#     Edge 91, Type (0, 1), BuildingBlock: XIVTED_clean_linker_0, # of connection points: 2
#     Edge 92, Type (0, 1), BuildingBlock: XIVTED_clean_linker_0, # of connection points: 2
#     Edge 93, Type (0, 1), BuildingBlock: XIVTED_clean_linker_0, # of connection points: 2
#     Edge 94, Type (0, 1), BuildingBlock: XIVTED_clean_linker_0, # of connection points: 2
#     Edge 95, Type (0, 1), BuildingBlock: XIVTED_clean_linker_0, # of connection points: 2
#     Edge 96, Type (0, 1), BuildingBlock: XIVTED_clean_linker_0, # of connection points: 2
#     Edge 97, Type (0, 1), BuildingBlock: XIVTED_clean_linker_0, # of connection points: 2
#     Edge 98, Type (0, 1), BuildingBlock: XIVTED_clean_linker_0, # of connection points: 2
#     Edge 99, Type (0, 1), BuildingBlock: XIVTED_clean_linker_0, # of connection points: 2
#     Edge 100, Type (0, 1), BuildingBlock: XIVTED_clean_linker_0, # of connection points: 2
#     Edge 101, Type (0, 1), BuildingBlock: XIVTED_clean_linker_0, # of connection points: 2
#     Edge 102, Type (0, 1), BuildingBlock: XIVTED_clean_linker_0, # of connection points: 2
#     Edge 103, Type (0, 1), BuildingBlock: XIVTED_clean_linker_0, # of connection points: 2
#     Edge 104, Type (0, 1), BuildingBlock: XIVTED_clean_linker_0, # of connection points: 2
#     Edge 105, Type (0, 1), BuildingBlock: XIVTED_clean_linker_0, # of connection points: 2
#     Edge 106, Type (0, 1), BuildingBlock: XIVTED_clean_linker_0, # of connection points: 2
#     Edge 107, Type (0, 1), BuildingBlock: XIVTED_clean_linker_0, # of connection points: 2
#     Edge 108, Type (0, 1), BuildingBlock: XIVTED_clean_linker_0, # of connection points: 2
#     Edge 109, Type (0, 1), BuildingBlock: XIVTED_clean_linker_0, # of connection points: 2
#     Edge 110, Type (0, 1), BuildingBlock: XIVTED_clean_linker_0, # of connection points: 2
#     Edge 111, Type (0, 1), BuildingBlock: XIVTED_clean_linker_0, # of connection points: 2
#     Edge 112, Type (0, 1), BuildingBlock: XIVTED_clean_linker_0, # of connection points: 2
#     Edge 113, Type (0, 1), BuildingBlock: XIVTED_clean_linker_0, # of connection points: 2
#     Edge 114, Type (0, 1), BuildingBlock: XIVTED_clean_linker_0, # of connection points: 2
#     Edge 115, Type (0, 1), BuildingBlock: XIVTED_clean_linker_0, # of connection points: 2
#     Edge 116, Type (0, 1), BuildingBlock: XIVTED_clean_linker_0, # of connection points: 2
#     Edge 117, Type (0, 1), BuildingBlock: XIVTED_clean_linker_0, # of connection points: 2
#     Edge 118, Type (0, 1), BuildingBlock: XIVTED_clean_linker_0, # of connection points: 2
#     Edge 119, Type (0, 1), BuildingBlock: XIVTED_clean_linker_0, # of connection points: 2
#     Edge 120, Type (0, 1), BuildingBlock: XIVTED_clean_linker_0, # of connection points: 2
#     Edge 121, Type (0, 1), BuildingBlock: XIVTED_clean_linker_0, # of connection points: 2
#     Edge 122, Type (0, 1), BuildingBlock: XIVTED_clean_linker_0, # of connection points: 2
#     Edge 123, Type (0, 1), BuildingBlock: XIVTED_clean_linker_0, # of connection points: 2
#     Edge 124, Type (0, 1), BuildingBlock: XIVTED_clean_linker_0, # of connection points: 2
#     Edge 125, Type (0, 1), BuildingBlock: XIVTED_clean_linker_0, # of connection points: 2
#     Edge 126, Type (0, 1), BuildingBlock: XIVTED_clean_linker_0, # of connection points: 2
#     Edge 127, Type (0, 1), BuildingBlock: XIVTED_clean_linker_0, # of connection points: 2
#     Edge 128, Type (0, 1), BuildingBlock: XIVTED_clean_linker_0, # of connection points: 2
#     Edge 129, Type (0, 1), BuildingBlock: XIVTED_clean_linker_0, # of connection points: 2
#     Edge 130, Type (0, 1), BuildingBlock: XIVTED_clean_linker_0, # of connection points: 2
#     Edge 131, Type (0, 1), BuildingBlock: XIVTED_clean_linker_0, # of connection points: 2
#     Edge 132, Type (0, 1), BuildingBlock: XIVTED_clean_linker_0, # of connection points: 2
#     Edge 133, Type (0, 1), BuildingBlock: XIVTED_clean_linker_0, # of connection points: 2
#     Edge 134, Type (0, 1), BuildingBlock: XIVTED_clean_linker_0, # of connection points: 2
#     Edge 135, Type (0, 1), BuildingBlock: XIVTED_clean_linker_0, # of connection points: 2
# Relax obj value: 0.119
# Max RMSD: 0.277
# Mean RMSD: 0.153
data_MOF--net-gar--node1-GALJAG_clean_sbu_0--node2-MIFKUJ_clean_sbu_0--edge1-XIVTED_clean_linker_0
_symmetry_space_group_name_H-M    P1
_symmetry_Int_Tables_number       1
_symmetry_cell_setting            triclinic
loop_
_symmetry_equiv_pos_as_xyz
'x, y, z'
_cell_length_a     56.78964
_cell_length_b     56.757044
_cell_length_c     54.403331
_cell_angle_alpha  94.473709
_cell_angle_beta   94.495188
_cell_angle_gamma 98.679098
loop_
_atom_site_label
_atom_site_type_symbol
_atom_site_fract_x
_atom_site_fract_y
_atom_site_fract_z
_atom_type_partial_charge
In0 In 0.02295 0.26975 0.388 0.0
O1 O 0.04768 0.27378 0.35682 0.0
O2 O 0.06179 0.26413 0.39124 0.0
C3 C 0.98787 0.273 0.35266 0.0
C4 C 0.01275 0.22837 0.40901 0.0
C5 C 0.0238 0.30774 0.42116 0.0
O6 O 0.00331 0.29076 0.361 0.0
O7 O 0.99035 0.25376 0.36192 0.0
O8 O 0.00503 0.2931 0.41415 0.0
O9 O 0.04232 0.3031 0.41162 0.0
C10 C 0.06539 0.26833 0.36932 0.0
O11 O 0.01463 0.24848 0.42125 0.0
O12 O 0.01592 0.22927 0.38642 0.0
In13 In 0.01298 0.75125 0.64236 0.0
O14 O 0.01749 0.77382 0.60958 0.0
O15 O 0.02329 0.79165 0.64589 0.0
C16 C 0.00176 0.70736 0.61801 0.0
C17 C 0.05618 0.74831 0.66506 0.0
C18 C 0.97199 0.75585 0.66269 0.0
O19 O 0.00536 0.72608 0.60686 0.0
O20 O 0.00346 0.71088 0.64131 0.0
O21 O 0.99073 0.75311 0.67551 0.0
O22 O 0.97399 0.75615 0.63979 0.0
C23 C 0.02287 0.79342 0.6229 0.0
O24 O 0.03881 0.75223 0.67706 0.0
O25 O 0.05167 0.74595 0.64186 0.0
In26 In 0.53332 0.77014 0.90202 0.0
O27 O 0.55259 0.76503 0.86707 0.0
O28 O 0.5718 0.76359 0.9019 0.0
C29 C 0.48978 0.77494 0.88154 0.0
C30 C 0.52283 0.7292 0.92367 0.0
C31 C 0.54665 0.81451 0.92495 0.0
O32 O 0.49503 0.77619 0.9046 0.0
O33 O 0.50647 0.7709 0.86857 0.0
O34 O 0.54398 0.79611 0.93666 0.0
O35 O 0.54336 0.81041 0.90172 0.0
C36 C 0.57192 0.76215 0.87866 0.0
O37 O 0.52991 0.7491 0.93603 0.0
O38 O 0.52101 0.73002 0.9005 0.0
In39 In 0.50698 0.25096 0.1446 0.0
O40 O 0.49296 0.22385 0.11133 0.0
O41 O 0.50262 0.21058 0.14543 0.0
C42 C 0.507 0.28269 0.11034 0.0
C43 C 0.47552 0.2615 0.17703 0.0
C44 C 0.55221 0.25478 0.1654 0.0
O45 O 0.48841 0.26854 0.11393 0.0
O46 O 0.52552 0.28072 0.12395 0.0
O47 O 0.53583 0.26177 0.17708 0.0
O48 O 0.54575 0.24619 0.14343 0.0
C49 C 0.4952 0.20581 0.1229 0.0
O50 O 0.48074 0.2408 0.17326 0.0
O51 O 0.48628 0.2769 0.16467 0.0
In52 In 0.02827 0.77847 0.1506 0.0
O53 O 0.02256 0.73836 0.15146 0.0
O54 O 0.02796 0.75183 0.11656 0.0
C55 C 0.0314 0.82025 0.12982 0.0
C56 C 0.98583 0.77539 0.16985 0.0
C57 C 0.07149 0.78164 0.17568 0.0
O58 O 0.02718 0.80033 0.11695 0.0
O59 O 0.0342 0.81894 0.15286 0.0
O60 O 0.05346 0.78633 0.18614 0.0
O61 O 0.06777 0.77605 0.15266 0.0
C62 C 0.02442 0.73372 0.12872 0.0
O63 O 0.00515 0.7754 0.183 0.0
O64 O 0.98802 0.77718 0.14715 0.0
In65 In 0.50544 0.76075 0.39821 0.0
O66 O 0.52782 0.76388 0.36522 0.0
O67 O 0.54532 0.77559 0.40089 0.0
C68 C 0.46878 0.75622 0.36291 0.0
C69 C 0.50668 0.71878 0.41814 0.0
C70 C 0.49894 0.79805 0.42967 0.0
O71 O 0.48568 0.77369 0.36548 0.0
O72 O 0.47031 0.74076 0.37825 0.0
O73 O 0.51704 0.78775 0.43214 0.0
O74 O 0.48392 0.78911 0.41191 0.0
C75 C 0.54704 0.77272 0.37794 0.0
O76 O 0.49715 0.73528 0.42824 0.0
O77 O 0.51504 0.72333 0.39796 0.0
In78 In 0.53333 0.27809 0.65517 0.0
O79 O 0.53324 0.25143 0.62129 0.0
O80 O 0.53442 0.23855 0.65697 0.0
C81 C 0.53009 0.31837 0.63272 0.0
C82 C 0.49104 0.27064 0.67486 0.0
C83 C 0.57731 0.28648 0.67968 0.0
O84 O 0.53091 0.29863 0.62071 0.0
O85 O 0.53135 0.31781 0.65591 0.0
O86 O 0.55857 0.28667 0.69068 0.0
O87 O 0.57381 0.28294 0.65641 0.0
C88 C 0.53414 0.23378 0.63391 0.0
O89 O 0.5107 0.27551 0.68811 0.0
O90 O 0.4928 0.26958 0.65185 0.0
In91 In 0.00826 0.25423 0.90075 0.0
O92 O 0.99139 0.22952 0.92808 0.0
O93 O 0.02742 0.228 0.9213 0.0
C94 C 0.00228 0.29408 0.9286 0.0
C95 C 0.04702 0.25897 0.87494 0.0
C96 C 0.97303 0.24558 0.86344 0.0
O97 O 0.02098 0.2847 0.93141 0.0
O98 O 0.98671 0.28315 0.91226 0.0
O99 O 0.98866 0.26408 0.86616 0.0
O100 O 0.97539 0.23083 0.87934 0.0
C101 C 0.00984 0.22017 0.93272 0.0
O102 O 0.03276 0.23956 0.87437 0.0
O103 O 0.04191 0.27602 0.88878 0.0
In104 In 0.40141 0.01983 0.27323 0.0
O105 O 0.43336 0.03619 0.25364 0.0
O106 O 0.41693 0.00064 0.24157 0.0
C107 C 0.43176 0.02333 0.3145 0.0
C108 C 0.37304 0.05388 0.26986 0.0
C109 C 0.36941 0.97939 0.27201 0.0
O110 O 0.42464 0.00405 0.30112 0.0
O111 O 0.4236 0.04132 0.30709 0.0
O112 O 0.37155 0.99138 0.25351 0.0
O113 O 0.38276 0.98821 0.29112 0.0
C114 C 0.4334 0.01764 0.2393 0.0
O115 O 0.37664 0.04386 0.2894 0.0
O116 O 0.38392 0.0469 0.25201 0.0
In117 In 0.26645 0.13418 0.50436 0.0
O118 O 0.26459 0.16646 0.53168 0.0
O119 O 0.26482 0.13276 0.54595 0.0
C120 C 0.27309 0.1588 0.46427 0.0
C121 C 0.30637 0.11365 0.50935 0.0
C122 C 0.22147 0.11024 0.49402 0.0
O123 O 0.27613 0.16877 0.48607 0.0
O124 O 0.26683 0.13638 0.46268 0.0
O125 O 0.23958 0.09985 0.49365 0.0
O126 O 0.22611 0.1326 0.49913 0.0
C127 C 0.26394 0.15471 0.5504 0.0
O128 O 0.28565 0.10179 0.50867 0.0
O129 O 0.30691 0.13571 0.50742 0.0
In130 In 0.14923 0.02027 0.7872 0.0
O131 O 0.11675 0.01885 0.75897 0.0
O132 O 0.15152 0.0271 0.74685 0.0
C133 C 0.12411 0.01263 0.82704 0.0
C134 C 0.17273 0.98227 0.78265 0.0
C135 C 0.17304 0.06544 0.79518 0.0
O136 O 0.14628 0.01993 0.82864 0.0
O137 O 0.11432 0.00886 0.80517 0.0
O138 O 0.18346 0.04757 0.79146 0.0
O139 O 0.15061 0.06053 0.79514 0.0
C140 C 0.12921 0.02403 0.7413 0.0
O141 O 0.18033 0.00063 0.79725 0.0
O142 O 0.15294 0.98272 0.77063 0.0
In143 In 0.25632 0.90119 0.02168 0.0
O144 O 0.27172 0.87171 0.04024 0.0
O145 O 0.23511 0.8742 0.04389 0.0
C146 C 0.25156 0.87724 0.97619 0.0
C147 C 0.22675 0.93395 0.02938 0.0
C148 C 0.30087 0.92602 0.03233 0.0
O149 O 0.23705 0.87196 0.99206 0.0
O150 O 0.26774 0.89475 0.98308 0.0
O151 O 0.28874 0.92657 0.01202 0.0
O152 O 0.2902 0.91368 0.0476 0.0
C153 C 0.25258 0.86346 0.04901 0.0
O154 O 0.23765 0.92549 0.04683 0.0
O155 O 0.23042 0.92568 0.00812 0.0
In156 In 0.264 0.39109 0.04281 0.0
O157 O 0.25643 0.35588 0.06069 0.0
O158 O 0.2619 0.3883 0.08417 0.0
C159 C 0.26761 0.37347 0.99594 0.0
C160 C 0.2242 0.41153 0.03673 0.0
C161 C 0.30917 0.41409 0.05365 0.0
O162 O 0.26376 0.36007 0.01312 0.0
O163 O 0.2693 0.39551 0.00238 0.0
O164 O 0.29133 0.42489 0.05435 0.0
O165 O 0.3041 0.3918 0.04812 0.0
C166 C 0.25778 0.36572 0.08247 0.0
O167 O 0.24481 0.42365 0.04124 0.0
O168 O 0.22363 0.38918 0.03579 0.0
In169 In 0.78677 0.1367 0.02632 0.0
O170 O 0.8086 0.1164 0.00081 0.0
O171 O 0.81025 0.10949 0.03855 0.0
C172 C 0.74025 0.11692 0.02423 0.0
C173 C 0.79652 0.16133 0.0714 0.0
C174 C 0.7881 0.16811 0.99174 0.0
O175 O 0.75622 0.10484 0.01833 0.0
O176 O 0.7478 0.13866 0.031 0.0
O177 O 0.80562 0.16793 0.00751 0.0
O178 O 0.77037 0.15209 0.99304 0.0
C179 C 0.81698 0.10492 0.01741 0.0
O180 O 0.80367 0.16978 0.05207 0.0
O181 O 0.78555 0.14015 0.06811 0.0
In182 In 0.13976 0.50353 0.26876 0.0
O183 O 0.16379 0.47787 0.2546 0.0
O184 O 0.16066 0.48101 0.29324 0.0
C185 C 0.16365 0.54866 0.27239 0.0
C186 C 0.11562 0.49511 0.22333 0.0
C187 C 0.10777 0.50335 0.30279 0.0
O188 O 0.17346 0.53139 0.27909 0.0
O189 O 0.14204 0.5431 0.26398 0.0
O190 O 0.12287 0.52144 0.30008 0.0
O191 O 0.10919 0.4849 0.28877 0.0
C192 C 0.16998 0.4715 0.27549 0.0
O193 O 0.10632 0.48869 0.24251 0.0
O194 O 0.13709 0.50517 0.22704 0.0
In195 In 0.76988 0.89114 0.54275 0.0
O196 O 0.75702 0.85597 0.55964 0.0
O197 O 0.77116 0.88668 0.584 0.0
C198 C 0.77296 0.87225 0.49625 0.0
C199 C 0.73224 0.91533 0.54042 0.0
C200 C 0.81526 0.91463 0.54988 0.0
O201 O 0.76971 0.85934 0.51397 0.0
O202 O 0.77429 0.89439 0.50202 0.0
O203 O 0.79741 0.92521 0.54681 0.0
O204 O 0.81023 0.8922 0.5498 0.0
C205 C 0.76233 0.86481 0.58174 0.0
O206 O 0.75131 0.9227 0.55404 0.0
O207 O 0.73181 0.89539 0.52828 0.0
In208 In 0.88663 0.01684 0.24787 0.0
O209 O 0.92053 0.03359 0.23071 0.0
O210 O 0.89444 0.0089 0.20808 0.0
C211 C 0.9069 0.0124 0.29357 0.0
C212 C 0.86273 0.05477 0.24906 0.0
C213 C 0.86048 0.97263 0.24115 0.0
O214 O 0.88464 0.01066 0.28837 0.0
O215 O 0.9193 0.0168 0.27568 0.0
O216 O 0.851 0.9913 0.24372 0.0
O217 O 0.883 0.97634 0.24167 0.0
C218 C 0.91433 0.02242 0.20964 0.0
O219 O 0.85856 0.03796 0.23201 0.0
O220 O 0.87926 0.05278 0.26522 0.0
In221 In 0.27605 0.64512 0.52426 0.0
O222 O 0.2961 0.62183 0.49944 0.0
O223 O 0.30166 0.62099 0.53834 0.0
C224 C 0.23022 0.62301 0.52116 0.0
C225 C 0.28582 0.66896 0.56975 0.0
C226 C 0.27965 0.67705 0.4901 0.0
O227 O 0.24685 0.61253 0.51394 0.0
O228 O 0.23672 0.64448 0.52971 0.0
O229 O 0.29757 0.67329 0.50362 0.0
O230 O 0.26014 0.66439 0.49352 0.0
C231 C 0.30647 0.61332 0.51726 0.0
O232 O 0.29026 0.67883 0.5503 0.0
O233 O 0.27691 0.64712 0.56625 0.0
In234 In 0.39167 0.51795 0.75598 0.0
O235 O 0.35984 0.53823 0.75769 0.0
O236 O 0.39471 0.55823 0.76531 0.0
C237 C 0.36674 0.47351 0.74492 0.0
C238 C 0.41607 0.52517 0.71573 0.0
C239 C 0.41067 0.51261 0.80193 0.0
O240 O 0.35673 0.4919 0.74632 0.0
O241 O 0.38925 0.47762 0.74854 0.0
O242 O 0.42331 0.5153 0.78398 0.0
O243 O 0.3887 0.51282 0.79669 0.0
C244 C 0.37247 0.5584 0.76368 0.0
O245 O 0.42632 0.52665 0.73734 0.0
O246 O 0.39355 0.52032 0.71447 0.0
In247 In 0.64209 0.00054 0.77556 0.0
O248 O 0.66264 0.97252 0.7593 0.0
O249 O 0.66172 0.97572 0.79827 0.0
C250 C 0.67214 0.04261 0.7812 0.0
C251 C 0.61748 0.99477 0.73048 0.0
C252 C 0.60839 0.00397 0.80737 0.0
O253 O 0.67513 0.02573 0.79433 0.0
O254 O 0.65401 0.03829 0.7657 0.0
O255 O 0.62226 0.02189 0.80184 0.0
O256 O 0.61178 0.98415 0.79723 0.0
C257 C 0.66915 0.96539 0.77972 0.0
O258 O 0.60839 0.98685 0.74922 0.0
O259 O 0.639 0.00471 0.73443 0.0
In260 In 0.76055 0.63198 0.00173 0.0
O261 O 0.78101 0.60188 0.99009 0.0
O262 O 0.79675 0.62652 0.02028 0.0
C263 C 0.71566 0.60735 0.99441 0.0
C264 C 0.75597 0.65326 0.0468 0.0
C265 C 0.76944 0.65751 0.96242 0.0
O266 O 0.73383 0.59731 0.99795 0.0
O267 O 0.72016 0.62978 0.99408 0.0
O268 O 0.77536 0.66636 0.98443 0.0
O269 O 0.75916 0.63609 0.96041 0.0
C270 C 0.7982 0.60799 0.00652 0.0
O271 O 0.76023 0.66518 0.02852 0.0
O272 O 0.75428 0.63089 0.04228 0.0
In273 In 0.89232 0.52111 0.76999 0.0
O274 O 0.85905 0.53748 0.77786 0.0
O275 O 0.87778 0.54953 0.74791 0.0
C276 C 0.87252 0.47478 0.77013 0.0
C277 C 0.92219 0.52034 0.73408 0.0
C278 C 0.91712 0.53487 0.81465 0.0
O279 O 0.86242 0.48948 0.75856 0.0
O280 O 0.89254 0.48342 0.78148 0.0
O281 O 0.92714 0.53217 0.79504 0.0
O282 O 0.89461 0.53129 0.81169 0.0
C283 C 0.86022 0.55085 0.76046 0.0
O284 O 0.92307 0.53831 0.74958 0.0
O285 O 0.90567 0.50323 0.73614 0.0
In286 In 0.75578 0.38736 0.51852 0.0
O287 O 0.7371 0.35822 0.54012 0.0
O288 O 0.77513 0.36499 0.54379 0.0
C289 C 0.74874 0.36476 0.47249 0.0
C290 C 0.72227 0.41603 0.52468 0.0
C291 C 0.7992 0.41501 0.52417 0.0
O292 O 0.74381 0.35399 0.49132 0.0
O293 O 0.75633 0.38686 0.4769 0.0
O294 O 0.78264 0.41914 0.53723 0.0
O295 O 0.79389 0.39696 0.50866 0.0
C296 C 0.75632 0.35286 0.54978 0.0
O297 O 0.73337 0.40858 0.54272 0.0
O298 O 0.72772 0.40866 0.50376 0.0
In299 In 0.64553 0.51804 0.29188 0.0
O300 O 0.67252 0.49915 0.27216 0.0
O301 O 0.66509 0.48968 0.3081 0.0
C302 C 0.67007 0.56316 0.29619 0.0
C303 C 0.61767 0.5105 0.24853 0.0
C304 C 0.61933 0.51175 0.33113 0.0
O305 O 0.68015 0.54495 0.29327 0.0
O306 O 0.64776 0.55861 0.29711 0.0
O307 O 0.61074 0.50504 0.30919 0.0
O308 O 0.64098 0.52136 0.33319 0.0
C309 C 0.67653 0.48634 0.28948 0.0
O310 O 0.62443 0.49371 0.25971 0.0
O311 O 0.62447 0.53109 0.25947 0.0
Zn312 Zn 0.04916 0.02014 0.03768 0.0
Zn313 Zn 0.00033 0.02047 0.00729 0.0
C314 C 0.04302 0.98186 0.06561 0.0
O315 O 0.05042 0.00051 0.08171 0.0
C316 C 0.00185 0.07069 0.01697 0.0
O317 O 0.98213 0.06314 0.02705 0.0
O318 O 0.0836 0.02612 0.05244 0.0
O319 O 0.05143 0.02398 0.00111 0.0
O320 O 0.01791 0.00289 0.98309 0.0
C321 C 0.10041 0.03597 0.04077 0.0
O322 O 0.09507 0.04798 0.02198 0.0
O323 O 0.04004 0.98519 0.04279 0.0
C324 C 0.94852 0.00916 0.00318 0.0
O325 O 0.95243 0.99402 0.01952 0.0
O326 O 0.96619 0.02018 0.99355 0.0
O327 O -0.00143 0.00993 0.04153 0.0
O328 O 0.02767 0.03751 0.0587 0.0
O329 O 0.01421 0.05541 0.00876 0.0
C330 C 0.0397 0.01181 0.98223 0.0
C331 C 0.00755 0.0245 0.05996 0.0
Zn332 Zn 0.26847 0.76424 0.29327 0.0
Zn333 Zn 0.27338 0.76139 0.23833 0.0
C334 C 0.23975 0.72065 0.29574 0.0
O335 O 0.22798 0.73607 0.30672 0.0
C336 C 0.30081 0.80728 0.24259 0.0
O337 O 0.31527 0.79445 0.232 0.0
O338 O 0.2685 0.76997 0.33033 0.0
O339 O 0.3022 0.77403 0.28465 0.0
O340 O 0.30048 0.74638 0.25359 0.0
C341 C 0.28762 0.7698 0.3441 0.0
O342 O 0.30781 0.76971 0.33388 0.0
O343 O 0.25959 0.72833 0.2876 0.0
C344 C 0.25409 0.7664 0.1907 0.0
O345 O 0.23745 0.77184 0.20456 0.0
O346 O 0.27249 0.75954 0.20095 0.0
O347 O 0.24051 0.74865 0.24687 0.0
O348 O 0.24121 0.7778 0.27599 0.0
O349 O 0.28057 0.79703 0.24777 0.0
C350 C 0.31223 0.75935 0.27192 0.0
C351 C 0.22969 0.76338 0.25854 0.0
Zn352 Zn 0.49679 0.02215 0.53242 0.0
Zn353 Zn 0.54605 0.01136 0.5192 0.0
C354 C 0.50992 0.06455 0.5616 0.0
O355 O 0.49739 0.05033 0.57542 0.0
C356 C 0.52762 0.96684 0.49341 0.0
O357 O 0.53767 0.97829 0.47591 0.0
O358 O 0.462 0.02595 0.53459 0.0
O359 O 0.49811 0.01012 0.49684 0.0
O360 O 0.53368 0.02943 0.49155 0.0
C361 C 0.45674 0.04103 0.51971 0.0
O362 O 0.47301 0.04974 0.50552 0.0
O363 O 0.5134 0.05645 0.53995 0.0
C364 C 0.59516 0.00739 0.53446 0.0
O365 O 0.58917 0.0153 0.55603 0.0
O366 O 0.58023 0.00595 0.51547 0.0
O367 O 0.54443 0.0252 0.55389 0.0
O368 O 0.51006 0.00369 0.55955 0.0
O369 O 0.52822 0.97758 0.51489 0.0
C370 C 0.5124 0.0208 0.483 0.0
C371 C 0.53116 0.01338 0.56788 0.0
Zn372 Zn 0.29032 0.26129 0.76378 0.0
Zn373 Zn 0.24348 0.27966 0.77744 0.0
C374 C 0.27381 0.22733 0.7243 0.0
O375 O 0.28361 0.215 0.74064 0.0
C376 C 0.26089 0.31118 0.81893 0.0
O377 O 0.25231 0.3253 0.80367 0.0
O378 O 0.3242 0.25628 0.75907 0.0
O379 O 0.29323 0.297 0.77012 0.0
O380 O 0.25791 0.30242 0.75398 0.0
C381 C 0.33091 0.26589 0.73989 0.0
O382 O 0.31622 0.27751 0.72758 0.0
O383 O 0.27304 0.24932 0.73015 0.0
C384 C 0.20145 0.26976 0.79839 0.0
O385 O 0.21574 0.25656 0.80889 0.0
O386 O 0.20938 0.28356 0.78254 0.0
O387 O 0.24132 0.24432 0.76869 0.0
O388 O 0.27546 0.23993 0.78827 0.0
O389 O 0.26054 0.28935 0.81142 0.0
C390 C 0.28023 0.30966 0.75857 0.0
C391 C 0.25353 0.23205 0.78171 0.0
Zn392 Zn 0.02818 0.98957 0.52575 0.0
Zn393 Zn 0.00738 0.03359 0.50839 0.0
C394 C 0.06066 0.01072 0.56574 0.0
O395 O 0.07479 0.00198 0.55061 0.0
C396 C 0.97481 0.01342 0.4683 0.0
O397 O 0.96087 0.02181 0.48388 0.0
O398 O 0.03525 0.95689 0.53271 0.0
O399 O 0.9924 0.9843 0.51901 0.0
O400 O 0.98653 0.01987 0.53379 0.0
C401 C 0.02639 0.95045 0.55235 0.0
O402 O 0.01408 0.96473 0.56429 0.0
O403 O 0.03857 0.00917 0.5586 0.0
C404 C 0.00998 0.07255 0.48199 0.0
O405 O 0.02275 0.05819 0.47086 0.0
O406 O 0.0005 0.06637 0.50141 0.0
O407 O 0.0431 0.03871 0.51529 0.0
O408 O 0.04912 0.00326 0.50034 0.0
O409 O 0.99686 0.01441 0.47532 0.0
C410 C 0.97959 0.99742 0.53014 0.0
C411 C 0.05605 0.02569 0.50424 0.0
Zn412 Zn 0.26679 0.79408 0.76405 0.0
Zn413 Zn 0.27961 0.74798 0.7862 0.0
C414 C 0.2257 0.7749 0.73441 0.0
O415 O 0.24005 0.78457 0.71885 0.0
C416 C 0.32052 0.76693 0.81678 0.0
O417 O 0.30599 0.7571 0.83209 0.0
O418 O 0.26244 0.82796 0.75785 0.0
O419 O 0.27835 0.79622 0.80001 0.0
O420 O 0.2586 0.76251 0.80989 0.0
C421 C 0.25024 0.83651 0.77403 0.0
O422 O 0.24239 0.82313 0.7912 0.0
O423 O 0.23329 0.77588 0.75714 0.0
C424 C 0.30231 0.70928 0.78066 0.0
O425 O 0.3123 0.72503 0.76663 0.0
O426 O 0.28499 0.71431 0.79259 0.0
O427 O 0.26973 0.74499 0.74969 0.0
O428 O 0.28723 0.77983 0.73996 0.0
O429 O 0.31295 0.76671 0.79413 0.0
C430 C 0.26632 0.78471 0.81519 0.0
C431 C 0.28104 0.75742 0.73468 0.0
Zn432 Zn 0.52211 0.01854 0.99865 0.0
Zn433 Zn 0.52409 0.00289 0.04976 0.0
C434 C 0.56542 0.05107 0.00617 0.0
O435 O 0.55065 0.06528 0.99859 0.0
C436 C 0.4784 0.97422 0.04816 0.0
O437 O 0.49119 0.96138 0.06125 0.0
O438 O 0.51873 0.0255 0.96308 0.0
O439 O 0.51588 0.98272 0.99834 0.0
O440 O 0.54238 0.98186 0.02977 0.0
C441 C 0.50771 0.01027 0.94609 0.0
O442 O 0.49464 0.99086 0.95221 0.0
O443 O 0.5572 0.02935 0.0085 0.0
C444 C 0.53771 0.01151 0.10274 0.0
O445 O 0.55106 0.03096 0.09709 0.0
O446 O 0.52723 0.99631 0.08546 0.0
O447 O 0.53086 0.03856 0.04986 0.0
O448 O 0.50356 0.03914 0.01913 0.0
O449 O 0.48885 0.9929 0.03975 0.0
C450 C 0.53158 0.97244 0.00922 0.0
C451 C 0.51461 0.04856 0.03958 0.0
Zn452 Zn 0.27861 0.24098 0.26122 0.0
Zn453 Zn 0.26841 0.28904 0.28919 0.0
C454 C 0.32082 0.26042 0.24227 0.0
O455 O 0.30648 0.25348 0.22204 0.0
C456 C 0.22837 0.27595 0.31268 0.0
O457 O 0.24494 0.28547 0.33037 0.0
O458 O 0.28183 0.20661 0.25079 0.0
O459 O 0.26648 0.23933 0.29487 0.0
O460 O 0.28755 0.27239 0.31365 0.0
C461 C 0.29493 0.19899 0.26753 0.0
O462 O 0.30396 0.21362 0.28701 0.0
O463 O 0.31284 0.25773 0.26323 0.0
C464 C 0.25375 0.33167 0.28407 0.0
O465 O 0.24308 0.3169 0.26535 0.0
O466 O 0.26755 0.32392 0.30008 0.0
O467 O 0.27798 0.29025 0.25426 0.0
O468 O 0.25915 0.25603 0.23575 0.0
O469 O 0.23389 0.27435 0.29046 0.0
C470 C 0.27845 0.25052 0.3141 0.0
C471 C 0.26624 0.27833 0.23528 0.0
Zn472 Zn 0.52039 0.48241 0.02755 0.0
Zn473 Zn 0.5061 0.53187 0.02003 0.0
C474 C 0.54982 0.48522 0.07159 0.0
O475 O 0.56061 0.47237 0.05623 0.0
C476 C 0.47444 0.517 0.97817 0.0
O477 O 0.46132 0.52695 0.99357 0.0
O478 O 0.5222 0.44703 0.0247 0.0
O479 O 0.48515 0.48357 0.02103 0.0
O480 O 0.4829 0.51723 0.04291 0.0
C481 C 0.50747 0.43556 0.03763 0.0
O482 O 0.49365 0.44735 0.05049 0.0
O483 O 0.53123 0.49317 0.06344 0.0
C484 C 0.51388 0.57258 0.99663 0.0
O485 O 0.52604 0.55757 0.98559 0.0
O486 O 0.50278 0.56619 0.01506 0.0
O487 O 0.54109 0.53299 0.02936 0.0
O488 O 0.54424 0.49993 0.00693 0.0
O489 O 0.49592 0.51542 0.98556 0.0
C490 C 0.47384 0.49583 0.03515 0.0
C491 C 0.55304 0.52115 0.0156 0.0
Zn492 Zn 0.76737 0.29873 0.25834 0.0
Zn493 Zn 0.77761 0.2472 0.27181 0.0
C494 C 0.7237 0.28732 0.2315 0.0
O495 O 0.73765 0.29844 0.21645 0.0
C496 C 0.82754 0.27851 0.27196 0.0
O497 O 0.81948 0.29835 0.26735 0.0
O498 O 0.76611 0.33412 0.25649 0.0
O499 O 0.78084 0.29676 0.29352 0.0
O500 O 0.76309 0.26127 0.30109 0.0
C501 C 0.75459 0.34135 0.27402 0.0
O502 O 0.74606 0.32592 0.28913 0.0
O503 O 0.73251 0.28427 0.25301 0.0
C504 C 0.78729 0.20228 0.25596 0.0
O505 O 0.79427 0.2155 0.23833 0.0
O506 O 0.77789 0.21178 0.27395 0.0
O507 O 0.76156 0.25032 0.23834 0.0
O508 O 0.7834 0.28358 0.23023 0.0
O509 O 0.81314 0.25942 0.27392 0.0
C510 C 0.77079 0.28308 0.3083 0.0
C511 C 0.77369 0.26212 0.22346 0.0
Zn512 Zn 0.01565 0.51466 0.49416 0.0
Zn513 Zn 0.01801 0.50138 0.5458 0.0
C514 C 0.05849 0.5464 0.49987 0.0
O515 O 0.04316 0.55954 0.49113 0.0
C516 C 0.9676 0.49967 0.54863 0.0
O517 O 0.97495 0.51437 0.56853 0.0
O518 O 0.01265 0.51959 0.45791 0.0
O519 O 0.00682 0.47934 0.49667 0.0
O520 O 0.03526 0.47872 0.5262 0.0
C521 C 0.00485 0.50271 0.44116 0.0
O522 O 0.99448 0.48209 0.44754 0.0
O523 O 0.05096 0.52481 0.50351 0.0
C524 C 0.02887 0.51044 0.59891 0.0
O525 O 0.04209 0.53008 0.59354 0.0
O526 O 0.01975 0.49472 0.5815 0.0
O527 O 0.02546 0.53694 0.54499 0.0
O528 O -0.00118 0.53776 0.51354 0.0
O529 O 0.98293 0.49215 0.53548 0.0
C530 C 0.02175 0.46823 0.50759 0.0
C531 C 0.01007 0.54743 0.53384 0.0
Zn532 Zn 0.78542 0.75908 0.25998 0.0
Zn533 Zn 0.74155 0.77937 0.27863 0.0
C534 C 0.76548 0.72636 0.22023 0.0
O535 O 0.7748 0.71287 0.2357 0.0
C536 C 0.76341 0.81143 0.31859 0.0
O537 O 0.75441 0.82575 0.30386 0.0
O538 O 0.81865 0.75399 0.25286 0.0
O539 O 0.78975 0.79469 0.26773 0.0
O540 O 0.75427 0.80073 0.25312 0.0
C541 C 0.82456 0.76463 0.23399 0.0
O542 O 0.80919 0.77633 0.22284 0.0
O543 O 0.76618 0.74844 0.22698 0.0
C544 C 0.70344 0.77769 0.30681 0.0
O545 O 0.71803 0.76546 0.31841 0.0
O546 O 0.70917 0.78626 0.28679 0.0
O547 O 0.73638 0.74362 0.27139 0.0
O548 O 0.7722 0.73725 0.28486 0.0
O549 O 0.76187 0.78941 0.3111 0.0
C550 C 0.77669 0.80762 0.25672 0.0
C551 C 0.74973 0.73036 0.28147 0.0
Zn552 Zn 0.77041 0.25757 0.79747 0.0
Zn553 Zn 0.77715 0.25565 0.74415 0.0
C554 C 0.76834 0.20652 0.80138 0.0
O555 O 0.78388 0.2134 0.82073 0.0
C556 C 0.80684 0.30042 0.74879 0.0
O557 O 0.82037 0.28674 0.73786 0.0
O558 O 0.76841 0.26085 0.83427 0.0
O559 O 0.80496 0.26646 0.79112 0.0
O560 O 0.80273 0.23896 0.75983 0.0
C561 C 0.78678 0.26654 0.84971 0.0
O562 O 0.80755 0.27406 0.84163 0.0
O563 O 0.761 0.22216 0.78853 0.0
C564 C 0.76102 0.26462 0.69753 0.0
O565 O 0.74719 0.27433 0.71222 0.0
O566 O 0.77721 0.25394 0.70693 0.0
O567 O 0.74312 0.24474 0.75081 0.0
O568 O 0.74468 0.27339 0.78053 0.0
O569 O 0.78629 0.2911 0.7541 0.0
C570 C 0.81465 0.2515 0.77835 0.0
C571 C 0.73297 0.26014 0.76235 0.0
Zn572 Zn 0.77294 0.73181 0.75218 0.0
Zn573 Zn 0.76557 0.77942 0.7838 0.0
C574 C 0.81067 0.74543 0.72441 0.0
O575 O 0.79286 0.73724 0.70753 0.0
C576 C 0.72738 0.76296 0.8086 0.0
O577 O 0.74431 0.77275 0.8258 0.0
O578 O 0.77124 0.69786 0.7374 0.0
O579 O 0.76995 0.72901 0.78868 0.0
O580 O 0.78683 0.76417 0.80724 0.0
C581 C 0.76178 0.68001 0.74789 0.0
O582 O 0.74875 0.68364 0.76632 0.0
O583 O 0.80679 0.7458 0.74713 0.0
C584 C 0.74813 0.82088 0.77967 0.0
O585 O 0.73718 0.80568 0.76142 0.0
O586 O 0.76309 0.81384 0.79503 0.0
O587 O 0.77473 0.78175 0.74898 0.0
O588 O 0.75137 0.7496 0.73147 0.0
O589 O 0.73188 0.76255 0.78603 0.0
C590 C 0.78069 0.7417 0.80776 0.0
C591 C 0.76097 0.77121 0.73061 0.0
Zn592 Zn 0.53976 0.51367 0.53625 0.0
Zn593 Zn 0.49005 0.51865 0.5074 0.0
C594 C 0.52949 0.475 0.5622 0.0
O595 O 0.53917 0.49283 0.57848 0.0
C596 C 0.50042 0.55856 0.48248 0.0
O597 O 0.49165 0.54133 0.46517 0.0
O598 O 0.57507 0.51439 0.5463 0.0
O599 O 0.5395 0.52284 0.50117 0.0
O600 O 0.50726 0.4998 0.48317 0.0
C601 C 0.58297 0.50074 0.53028 0.0
O602 O 0.56816 0.48941 0.51193 0.0
O603 O 0.52654 0.47894 0.53953 0.0
C604 C 0.44603 0.53026 0.51263 0.0
O605 O 0.46019 0.54191 0.53131 0.0
O606 O 0.45475 0.5171 0.49682 0.0
O607 O 0.49044 0.51016 0.54287 0.0
O608 O 0.5231 0.53317 0.56016 0.0
O609 O 0.50265 0.55357 0.50486 0.0
C610 C 0.52879 0.50974 0.48241 0.0
C611 C 0.50153 0.52355 0.56131 0.0
Zn612 Zn 0.98987 0.52118 0.03026 0.0
Zn613 Zn 0.03663 0.50762 0.0104 0.0
C614 C 0.00374 0.56235 0.06122 0.0
O615 O 0.9937 0.54683 0.07548 0.0
C616 C 0.01266 0.46468 0.98406 0.0
O617 O 0.02046 0.47643 0.96568 0.0
O618 O 0.95527 0.52289 0.03569 0.0
O619 O 0.98876 0.51184 0.99358 0.0
O620 O 0.02451 0.52783 0.98483 0.0
C621 C 0.94699 0.53631 0.02059 0.0
O622 O 0.96112 0.54659 0.00522 0.0
O623 O 0.00556 0.55543 0.03875 0.0
C624 C 0.07374 0.48277 0.01869 0.0
O625 O 0.05746 0.47431 0.03295 0.0
O626 O 0.06969 0.49961 0.00554 0.0
O627 O 0.03921 0.52129 0.04559 0.0
O628 O 0.00529 0.50134 0.05455 0.0
O629 O 0.01598 0.47501 0.0059 0.0
C630 C 0.00211 0.52264 0.97894 0.0
C631 C 0.02737 0.50916 0.06042 0.0
H632 H 0.97529 0.20211 0.9615 0.0
H633 H 0.04036 0.09241 0.99521 0.0
H634 H 0.04604 0.19442 0.94178 0.0
H635 H 0.97431 0.10587 0.02368 0.0
H636 H 0.04445 0.13137 0.97842 0.0
H637 H 0.97585 0.16837 0.98676 0.0
C638 C 0.991 0.1934 0.96263 0.0
C639 C 0.01056 0.20092 0.94938 0.0
C640 C 0.02922 0.12594 0.98862 0.0
C641 C 0.01132 0.16225 0.97814 0.0
C642 C 0.0269 0.1037 0.99827 0.0
C643 C 0.00681 0.09572 0.01061 0.0
C644 C 0.0112 0.14019 0.99113 0.0
C645 C 0.99001 0.11118 0.01414 0.0
C646 C 0.99135 0.17418 0.9771 0.0
C647 C 0.03052 0.18911 0.9516 0.0
N648 N 0.99242 0.13252 0.00415 0.0
N649 N 0.0303 0.17021 0.96551 0.0
H650 H 0.08721 0.79919 0.22363 0.0
H651 H 0.2008 0.73317 0.22377 0.0
H652 H 0.1082 0.76144 0.15898 0.0
H653 H 0.20176 0.7969 0.273 0.0
H654 H 0.16187 0.73821 0.20501 0.0
H655 H 0.12524 0.79454 0.2464 0.0
C656 C 0.09985 0.79006 0.21424 0.0
C657 C 0.09465 0.78069 0.18942 0.0
C658 C 0.17055 0.75106 0.21998 0.0
C659 C 0.13747 0.77493 0.2153 0.0
C660 C 0.19274 0.74817 0.23081 0.0
C661 C 0.20476 0.76491 0.24972 0.0
C662 C 0.16002 0.77066 0.22824 0.0
C663 C 0.19319 0.78373 0.2583 0.0
C664 C 0.12143 0.78744 0.2272 0.0
C665 C 0.11153 0.76901 0.17806 0.0
N666 N 0.17138 0.7862 0.24738 0.0
N667 N 0.13208 0.76628 0.19115 0.0
H668 H 0.46797 0.829 0.41966 0.0
H669 H 0.52852 0.9312 0.52435 0.0
H670 H 0.52589 0.81879 0.472 0.0
H671 H 0.50395 0.94491 0.45057 0.0
H672 H 0.51654 0.88798 0.51273 0.0
H673 H 0.46978 0.86967 0.43906 0.0
C674 C 0.48072 0.83513 0.43558 0.0
C675 C 0.49705 0.82068 0.44406 0.0
C676 C 0.51342 0.90057 0.49932 0.0
C677 C 0.49903 0.86696 0.4663 0.0
C678 C 0.52011 0.92511 0.50592 0.0
C679 C 0.51733 0.94143 0.48826 0.0
C680 C 0.50341 0.89259 0.47515 0.0
C681 C 0.50655 0.93278 0.4646 0.0
C682 C 0.48177 0.85832 0.44654 0.0
C683 C 0.51317 0.8295 0.46476 0.0
N684 N 0.49998 0.9089 0.4587 0.0
N685 N 0.5139 0.85222 0.47512 0.0
H686 H 0.48202 0.26959 0.72365 0.0
H687 H 0.34315 0.27147 0.6934 0.0
H688 H 0.44694 0.26381 0.64964 0.0
H689 H 0.37173 0.25564 0.76505 0.0
H690 H 0.38191 0.27024 0.67789 0.0
H691 H 0.44269 0.26579 0.74012 0.0
C692 C 0.46605 0.2674 0.71089 0.0
C693 C 0.46769 0.26717 0.68526 0.0
C694 C 0.37978 0.26688 0.69698 0.0
C695 C 0.42293 0.26295 0.7039 0.0
C696 C 0.35764 0.26769 0.70591 0.0
C697 C 0.35428 0.26379 0.7306 0.0
C698 C 0.39894 0.26245 0.71291 0.0
C699 C 0.37363 0.25874 0.74587 0.0
C700 C 0.44367 0.26516 0.72029 0.0
C701 C 0.44651 0.2642 0.66953 0.0
N702 N 0.39531 0.25844 0.73683 0.0
N703 N 0.42505 0.26239 0.67911 0.0
H704 H 0.03129 0.83759 0.64816 0.0
H705 H 0.03804 0.91008 0.52784 0.0
H706 H 0.02449 0.8023 0.57417 0.0
H707 H 0.0222 0.93895 0.59936 0.0
H708 H 0.0405 0.87155 0.54496 0.0
H709 H 0.03575 0.8762 0.63088 0.0
C710 C 0.03089 0.83798 0.62826 0.0
C711 C 0.02728 0.81675 0.61254 0.0
C712 C 0.03662 0.88643 0.55685 0.0
C713 C 0.03235 0.86088 0.59262 0.0
C714 C 0.03531 0.90836 0.54714 0.0
C715 C 0.02969 0.92759 0.56217 0.0
C716 C 0.03265 0.884 0.58177 0.0
C717 C 0.02629 0.9245 0.58704 0.0
C718 C 0.03339 0.86002 0.6184 0.0
C719 C 0.02706 0.8183 0.5869 0.0
N720 N 0.02782 0.90314 0.59603 0.0
N721 N 0.02945 0.84005 0.57768 0.0
H722 H 0.47301 0.77164 0.8325 0.0
H723 H 0.33956 0.78004 0.86404 0.0
H724 H 0.4522 0.78504 0.90629 0.0
H725 H 0.35916 0.77091 0.78925 0.0
H726 H 0.38171 0.78622 0.87926 0.0
H727 H 0.43238 0.77482 0.81567 0.0
C728 C 0.45993 0.77537 0.84513 0.0
C729 C 0.46585 0.77783 0.87082 0.0
C730 C 0.3769 0.78314 0.85948 0.0
C731 C 0.41956 0.78157 0.85179 0.0
C732 C 0.35282 0.77965 0.85079 0.0
C733 C 0.34592 0.77474 0.8254 0.0
C734 C 0.39424 0.78136 0.84268 0.0
C735 C 0.36379 0.77465 0.80901 0.0
C736 C 0.43679 0.77725 0.83553 0.0
C737 C 0.44833 0.7828 0.88636 0.0
N738 N 0.38719 0.77754 0.81797 0.0
N739 N 0.42596 0.78435 0.87661 0.0
H740 H 0.48257 0.19098 0.0738 0.0
H741 H 0.52477 0.06516 0.08804 0.0
H742 H 0.5017 0.16509 0.14399 0.0
H743 H 0.49027 0.08194 0.01949 0.0
H744 H 0.51583 0.10189 0.10851 0.0
H745 H 0.48384 0.15123 0.05323 0.0
C746 C 0.48667 0.17684 0.08491 0.0
C747 C 0.49228 0.18134 0.11059 0.0
C748 C 0.51006 0.09757 0.08902 0.0
C749 C 0.49404 0.13613 0.08725 0.0
C750 C 0.51533 0.07663 0.07725 0.0
C751 C 0.50848 0.07061 0.05195 0.0
C752 C 0.49807 0.11288 0.07538 0.0
C753 C 0.49593 0.086 0.03902 0.0
C754 C 0.48743 0.1542 0.07316 0.0
C755 C 0.49744 0.16244 0.12413 0.0
N756 N 0.49132 0.10662 0.05085 0.0
N757 N 0.49846 0.14076 0.11225 0.0
H758 H 0.0776 0.27548 0.32238 0.0
H759 H 0.21413 0.26378 0.3569 0.0
H760 H 0.10555 0.25713 0.39323 0.0
H761 H 0.18655 0.27373 0.2829 0.0
H762 H 0.17364 0.25879 0.36945 0.0
H763 H 0.11655 0.2732 0.30658 0.0
C764 C 0.09191 0.27093 0.33457 0.0
C765 C 0.08846 0.26669 0.3592 0.0
C766 C 0.1763 0.26182 0.35038 0.0
C767 C 0.13284 0.26394 0.3413 0.0
C768 C 0.19944 0.26466 0.34321 0.0
C769 C 0.20364 0.26938 0.31891 0.0
C770 C 0.15716 0.26405 0.33321 0.0
C771 C 0.18399 0.27011 0.30184 0.0
C772 C 0.11407 0.26953 0.32553 0.0
C773 C 0.10749 0.2607 0.37417 0.0
N774 N 0.16154 0.26781 0.30941 0.0
N775 N 0.12887 0.25963 0.36502 0.0
H776 H 0.95812 0.05043 0.20678 0.0
H777 H 0.96671 0.99577 0.06819 0.0
H778 H 0.90401 -0.00149 0.164 0.0
H779 H 0.01923 0.0538 0.10385 0.0
H780 H 0.9449 0.99622 0.10455 0.0
H781 H 0.98191 0.05186 0.17077 0.0
C782 C 0.95124 0.0394 0.18985 0.0
C783 C 0.92906 0.02431 0.18839 0.0
C784 C 0.96114 0.00896 0.10458 0.0
C785 C 0.95608 0.02577 0.14738 0.0
C786 C 0.97368 0.00875 0.08366 0.0
C787 C 0.99482 0.02493 0.08276 0.0
C788 C 0.96967 0.02542 0.12509 0.0
C789 C 0.00298 0.04106 0.1037 0.0
C790 C 0.9648 0.04023 0.16935 0.0
C791 C 0.92098 0.0104 0.16604 0.0
N792 N 0.99036 0.04092 0.12407 0.0
N793 N 0.93447 0.01145 0.14655 0.0
H794 H 0.31974 0.70481 0.47726 0.0
H795 H 0.24756 0.7586 0.36856 0.0
H796 H 0.24302 0.69003 0.46142 0.0
H797 H 0.32463 0.76634 0.37825 0.0
H798 H 0.2456 0.74006 0.40751 0.0
H799 H 0.32181 0.73308 0.44544 0.0
C800 C 0.30334 0.70761 0.46716 0.0
C801 C 0.28121 0.69487 0.47173 0.0
C802 C 0.26296 0.74612 0.40128 0.0
C803 C 0.2834 0.72722 0.4355 0.0
C804 C 0.2641 0.75686 0.37911 0.0
C805 C 0.28629 0.76367 0.36992 0.0
C806 C 0.28413 0.74213 0.41432 0.0
C807 C 0.30712 0.76106 0.38447 0.0
C808 C 0.30451 0.72377 0.44906 0.0
C809 C 0.26048 0.6993 0.45828 0.0
N810 N 0.30552 0.7502 0.40578 0.0
N811 N 0.26209 0.715 0.44067 0.0
H812 H 0.57067 0.97469 0.71632 0.0
H813 H 0.56903 0.04193 0.59348 0.0
H814 H 0.63267 0.01542 0.69004 0.0
H815 H 0.51579 0.98053 0.60052 0.0
H816 H 0.58901 0.03614 0.63306 0.0
H817 H 0.54743 0.97901 0.6772 0.0
C818 C 0.57942 0.98432 0.70226 0.0
C819 C 0.6036 0.99479 0.7064 0.0
C820 C 0.57296 0.02388 0.62603 0.0
C821 C 0.57718 0.00013 0.66223 0.0
C822 C 0.56147 0.02721 0.60342 0.0
C823 C 0.54096 0.01138 0.59344 0.0
C824 C 0.56389 0.00468 0.63906 0.0
C825 C 0.53167 0.99302 0.60752 0.0
C826 C 0.56617 0.98679 0.68005 0.0
C827 C 0.61409 0.0071 0.68767 0.0
N828 N 0.54333 0.99004 0.62968 0.0
N829 N 0.60077 0.00958 0.66654 0.0
H830 H 0.27615 0.3994 0.95665 0.0
H831 H 0.26685 0.2849 0.85863 0.0
H832 H 0.26467 0.3268 0.97688 0.0
H833 H 0.26917 0.35742 0.83908 0.0
H834 H 0.27177 0.29994 0.9025 0.0
H835 H 0.27888 0.38428 0.91396 0.0
C836 C 0.27425 0.38025 0.9521 0.0
C837 C 0.26996 0.36431 0.97026 0.0
C838 C 0.27143 0.31255 0.88858 0.0
C839 C 0.2731 0.34682 0.92137 0.0
C840 C 0.26878 0.304 0.86355 0.0
C841 C 0.26737 0.31993 0.84521 0.0
C842 C 0.27279 0.33718 0.89521 0.0
C843 C 0.26991 0.34447 0.85262 0.0
C844 C 0.27585 0.37161 0.92771 0.0
C845 C 0.26783 0.33968 0.96337 0.0
N846 N 0.27233 0.35231 0.87702 0.0
N847 N 0.2693 0.33166 0.9394 0.0
H848 H 0.88289 0.00138 0.33353 0.0
H849 H 0.00044 0.01121 0.42756 0.0
H850 H 0.95434 0.01632 0.31081 0.0
H851 H 0.92835 0.00282 0.44917 0.0
H852 H 0.98432 0.008 0.38403 0.0
H853 H 0.89966 0.99729 0.37526 0.0
C854 C 0.90216 0.00378 0.33733 0.0
C855 C 0.91725 0.00939 0.31871 0.0
C856 C 0.97205 0.00658 0.39831 0.0
C857 C 0.93667 0.00471 0.36665 0.0
C858 C 0.98123 0.00822 0.42314 0.0
C859 C 0.96569 0.00742 0.44201 0.0
C860 C 0.9472 0.00403 0.39241 0.0
C861 C 0.94099 0.00372 0.43524 0.0
C862 C 0.91174 0.0014 0.3612 0.0
C863 C 0.94208 0.01211 0.32468 0.0
N864 N 0.93254 0.00233 0.41105 0.0
N865 N 0.95104 0.00987 0.3482 0.0
H866 H 0.28057 0.65051 0.614 0.0
H867 H 0.29567 0.77792 0.69287 0.0
H868 H 0.2985 0.71731 0.58184 0.0
H869 H 0.27614 0.70967 0.72183 0.0
H870 H 0.30024 0.7567 0.65279 0.0
H871 H 0.28261 0.67249 0.65455 0.0
C872 C 0.28511 0.66984 0.61553 0.0
C873 C 0.28921 0.68213 0.59455 0.0
C874 C 0.29508 0.74645 0.66802 0.0
C875 C 0.29136 0.70755 0.64096 0.0
C876 C 0.2925 0.75854 0.69086 0.0
C877 C 0.28528 0.74556 0.71064 0.0
C878 C 0.2905 0.72129 0.66511 0.0
C879 C 0.28145 0.72046 0.70705 0.0
C880 C 0.28625 0.68242 0.6387 0.0
C881 C 0.29515 0.70718 0.5976 0.0
N882 N 0.28403 0.70922 0.68477 0.0
N883 N 0.29586 0.71912 0.6204 0.0
H884 H 0.59864 0.04469 0.83183 0.0
H885 H 0.50054 0.9744 0.90829 0.0
H886 H 0.57535 0.96833 0.8212 0.0
H887 H 0.53242 0.04835 0.92638 0.0
H888 H 0.52126 0.97384 0.8706 0.0
H889 H 0.5687 0.04789 0.86127 0.0
C890 C 0.58714 0.0286 0.83562 0.0
C891 C 0.58967 0.00616 0.82434 0.0
C892 C 0.5234 0.99029 0.88262 0.0
C893 C 0.5553 0.00971 0.8579 0.0
C894 C 0.51142 0.9907 0.90405 0.0
C895 C 0.51508 0.01136 0.92072 0.0
C896 C 0.53907 0.01069 0.87784 0.0
C897 C 0.52936 0.03193 0.91422 0.0
C898 C 0.57001 0.03045 0.85237 0.0
C899 C 0.57415 0.98594 0.82972 0.0
N900 N 0.54108 0.03099 0.89346 0.0
N901 N 0.55772 0.98817 0.84627 0.0
H902 H 0.24893 0.31694 0.08391 0.0
H903 H 0.27639 0.32602 0.23065 0.0
H904 H 0.26291 0.38322 0.131 0.0
H905 H 0.24893 0.25881 0.18787 0.0
H906 H 0.27198 0.34667 0.19367 0.0
H907 H 0.24897 0.29481 0.12093 0.0
C908 C 0.25184 0.32682 0.10203 0.0
C909 C 0.25604 0.35196 0.10441 0.0
C910 C 0.26678 0.32742 0.19226 0.0
C911 C 0.25626 0.32682 0.14667 0.0
C912 C 0.26933 0.31553 0.21345 0.0
C913 C 0.26299 0.29056 0.21245 0.0
C914 C 0.25808 0.31435 0.16959 0.0
C915 C 0.25401 0.27806 0.18951 0.0
C916 C 0.25184 0.31418 0.12311 0.0
C917 C 0.25967 0.36386 0.12828 0.0
N918 N 0.25195 0.29009 0.1689 0.0
N919 N 0.25984 0.3512 0.14843 0.0
H920 H 0.20931 0.94846 0.07263 0.0
H921 H 0.13583 0.04102 0.00934 0.0
H922 H 0.20868 0.96099 0.9954 0.0
H923 H 0.11812 0.01095 0.07731 0.0
H924 H 0.16968 0.01916 0.0085 0.0
H925 H 0.18218 0.97785 0.07841 0.0
C926 C 0.20357 0.9575 0.05694 0.0
C927 C 0.21104 0.95215 0.03344 0.0
C928 C 0.15858 0.01764 0.02379 0.0
C929 C 0.18039 0.98592 0.04 0.0
C930 C 0.13935 0.03029 0.02443 0.0
C931 C 0.12389 0.0276 0.04328 0.0
C932 C 0.16252 0.00232 0.04222 0.0
C933 C 0.12943 0.01338 0.06229 0.0
C934 C 0.18812 0.97424 0.06025 0.0
C935 C 0.20315 0.96442 0.01376 0.0
N936 N 0.14816 0.00108 0.06115 0.0
N937 N 0.18825 0.98072 0.01748 0.0
H938 H 0.67403 0.62586 0.99308 0.0
H939 H 0.58927 0.50014 0.99671 0.0
H940 H 0.70136 0.5589 0.99268 0.0
H941 H 0.57038 0.56874 0.02017 0.0
H942 H 0.62865 0.52062 0.98791 0.0
H943 H 0.63376 0.60421 0.99509 0.0
C944 C 0.67151 0.60656 0.99315 0.0
C945 C 0.69105 0.59416 0.99293 0.0
C946 C 0.61578 0.5311 0.9949 0.0
C947 C 0.64506 0.56929 0.99532 0.0
C948 C 0.59335 0.51946 -0.00012 0.0
C949 C 0.57663 0.53274 0.00937 0.0
C950 C 0.62124 0.55616 -0.00088 0.0
C951 C 0.58279 0.55774 0.01312 0.0
C952 C 0.64855 0.59423 0.9944 0.0
C953 C 0.68676 0.56914 0.99299 0.0
N954 N 0.60455 0.5686 0.00796 0.0
N955 N 0.6642 0.55749 0.9943 0.0
H956 H 0.69931 0.4723 0.24949 0.0
H957 H 0.74445 0.36461 0.31621 0.0
H958 H 0.68977 0.45865 0.32528 0.0
H959 H 0.75189 0.37387 0.23909 0.0
H960 H 0.72947 0.40247 0.32081 0.0
H961 H 0.72299 0.43963 0.24617 0.0
C962 C 0.70239 0.46257 0.26549 0.0
C963 C 0.69241 0.46804 0.28765 0.0
C964 C 0.73453 0.39643 0.30288 0.0
C965 C 0.71943 0.43076 0.28398 0.0
C966 C 0.74313 0.37478 0.30024 0.0
C967 C 0.74914 0.36597 0.27715 0.0
C968 C 0.73161 0.40938 0.28221 0.0
C969 C 0.74739 0.38005 0.2572 0.0
C970 C 0.71589 0.44394 0.26357 0.0
C971 C 0.69698 0.45493 0.3078 0.0
N972 N 0.73845 0.40097 0.2601 0.0
N973 N 0.71002 0.43686 0.30543 0.0
H974 H 0.81657 0.45307 0.55821 0.0
H975 H 0.94667 0.46923 0.50893 0.0
H976 H 0.83602 0.41057 0.49595 0.0
H977 H 0.93018 0.50824 0.57511 0.0
H978 H 0.90487 0.45071 0.50157 0.0
H979 H 0.85695 0.47633 0.56266 0.0
C980 C 0.82931 0.44871 0.54544 0.0
C981 C 0.82306 0.4298 0.5268 0.0
C982 C 0.91033 0.46341 0.51764 0.0
C983 C 0.86906 0.45626 0.53168 0.0
C984 C 0.93421 0.47404 0.52183 0.0
C985 C 0.94196 0.49014 0.5428 0.0
C986 C 0.89405 0.46885 0.53455 0.0
C987 C 0.92499 0.49581 0.55879 0.0
C988 C 0.85232 0.46197 0.54797 0.0
C989 C 0.84016 0.42492 0.51068 0.0
N990 N 0.90182 0.48504 0.55442 0.0
N991 N 0.86239 0.43802 0.51355 0.0
H992 H 0.34928 0.07254 0.30643 0.0
H993 H 0.29952 0.16984 0.22576 0.0
H994 H 0.36177 0.07776 0.22967 0.0
H995 H 0.30421 0.17289 0.30549 0.0
H996 H 0.31531 0.13167 0.22489 0.0
H997 H 0.32576 0.10502 0.30437 0.0
C998 C 0.34697 0.08046 0.28909 0.0
C999 C 0.35771 0.07264 0.26827 0.0
C1000 C 0.31259 0.14063 0.24251 0.0
C1001 C 0.33076 0.10988 0.26575 0.0
C1002 C 0.30346 0.16225 0.24299 0.0
C1003 C 0.30083 0.17454 0.26573 0.0
C1004 C 0.31874 0.13128 0.26493 0.0
C1005 C 0.30627 0.1641 0.28757 0.0
C1006 C 0.33354 0.09901 0.28791 0.0
C1007 C 0.35396 0.08343 0.24622 0.0
N1008 N 0.31504 0.14317 0.28662 0.0
N1009 N 0.34088 0.10163 0.24555 0.0
H1010 H 0.35184 0.13438 0.50396 0.0
H1011 H 0.41524 0.02394 0.54047 0.0
H1012 H 0.31085 0.06814 0.52079 0.0
H1013 H 0.44608 0.07976 0.49767 0.0
H1014 H 0.37788 0.04123 0.53885 0.0
H1015 H 0.38805 0.11618 0.50752 0.0
C1016 C 0.35048 0.11599 0.50847 0.0
C1017 C 0.32832 0.1027 0.51195 0.0
C1018 C 0.3929 0.04954 0.52981 0.0
C1019 C 0.36976 0.08173 0.51618 0.0
C1020 C 0.41417 0.03975 0.53077 0.0
C1021 C 0.43378 0.05038 0.51914 0.0
C1022 C 0.39154 0.07026 0.51751 0.0
C1023 C 0.43145 0.07085 0.50682 0.0
C1024 C 0.37115 0.10558 0.51043 0.0
C1025 C 0.32761 0.07894 0.51782 0.0
N1026 N 0.41083 0.08014 0.50645 0.0
N1027 N 0.34809 0.06917 0.51981 0.0
H1028 H 0.71813 0.57781 0.29427 0.0
H1029 H 0.70285 0.71465 0.28626 0.0
H1030 H 0.65152 0.6047 0.30048 0.0
H1031 H 0.77181 0.69125 0.28954 0.0
H1032 H 0.68424 0.67438 0.2926 0.0
H1033 H 0.73864 0.61898 0.29361 0.0
C1034 C 0.70786 0.59239 0.29566 0.0
C1035 C 0.68307 0.58786 0.29729 0.0
C1036 C 0.70346 0.67799 0.29209 0.0
C1037 C 0.70633 0.63486 0.29646 0.0
C1038 C 0.71412 0.70101 0.28841 0.0
C1039 C 0.73892 0.70628 0.28719 0.0
C1040 C 0.71761 0.65988 0.29435 0.0
C1041 C 0.75263 0.68794 0.29035 0.0
C1042 C 0.71957 0.61586 0.2953 0.0
C1043 C 0.67063 0.60737 0.29909 0.0
N1044 N 0.74175 0.66545 0.29357 0.0
N1045 N 0.68236 0.62997 0.29848 0.0
H1046 H 0.89502 0.43842 0.78479 0.0
H1047 H 0.78058 0.33667 0.75615 0.0
H1048 H 0.82685 0.45321 0.75436 0.0
H1049 H 0.85308 0.32261 0.75484 0.0
H1050 H 0.796 0.37969 0.76354 0.0
H1051 H 0.87843 0.39584 0.78201 0.0
C1052 C 0.87651 0.43271 0.77768 0.0
C1053 C 0.8623 0.44928 0.76963 0.0
C1054 C 0.80846 0.36711 0.76172 0.0
C1055 C 0.84323 0.40075 0.7666 0.0
C1056 C 0.79972 0.34264 0.75763 0.0
C1057 C 0.81561 0.32617 0.7547 0.0
C1058 C 0.83324 0.375 0.76335 0.0
C1059 C 0.84023 0.33477 0.75672 0.0
C1060 C 0.8671 0.40844 0.77603 0.0
C1061 C 0.83843 0.44094 0.76059 0.0
N1062 N 0.8483 0.3586 0.76098 0.0
N1063 N 0.82959 0.4172 0.75934 0.0
H1064 H 0.02541 0.82874 0.08081 0.0
H1065 H 0.04446 0.97071 0.11325 0.0
H1066 H 0.03982 0.86454 0.1546 0.0
H1067 H 0.03339 0.93804 0.03802 0.0
H1068 H 0.04094 0.93129 0.12815 0.0
H1069 H 0.02689 0.86792 0.06417 0.0
C1070 C 0.02891 0.84482 0.09347 0.0
C1071 C 0.03252 0.84344 0.11911 0.0
C1072 C 0.03922 0.93262 0.10836 0.0
C1073 C 0.03413 0.88806 0.10032 0.0
C1074 C 0.04121 0.9552 0.0998 0.0
C1075 C 0.03936 0.9577 0.07432 0.0
C1076 C 0.03536 0.9122 0.09138 0.0
C1077 C 0.03497 0.93689 0.05783 0.0
C1078 C 0.02972 0.86713 0.08399 0.0
C1079 C 0.03694 0.86476 0.13472 0.0
N1080 N 0.03321 0.91494 0.06666 0.0
N1081 N 0.03761 0.88613 0.12508 0.0
H1082 H 0.93618 0.20783 0.85321 0.0
H1083 H 0.85074 0.28765 0.79363 0.0
H1084 H 0.96216 0.27814 0.83207 0.0
H1085 H 0.83521 0.2109 0.77872 0.0
H1086 H 0.89148 0.28428 0.80929 0.0
H1087 H 0.89881 0.20757 0.82706 0.0
C1088 C 0.93418 0.223 0.84276 0.0
C1089 C 0.95213 0.24315 0.84501 0.0
C1090 C 0.87931 0.26817 0.80227 0.0
C1091 C 0.9096 0.2431 0.81558 0.0
C1092 C 0.85608 0.2701 0.79345 0.0
C1093 C 0.83978 0.24951 0.78496 0.0
C1094 C 0.88605 0.24545 0.80326 0.0
C1095 C 0.84745 0.22716 0.78502 0.0
C1096 C 0.91293 0.22282 0.82785 0.0
C1097 C 0.9487 0.26232 0.83105 0.0
N1098 N 0.87002 0.22564 0.79451 0.0
N1099 N 0.92769 0.26199 0.81727 0.0
H1100 H 0.5379 0.19423 0.65809 0.0
H1101 H 0.52199 0.10354 0.53544 0.0
H1102 H 0.53125 0.21766 0.58463 0.0
H1103 H 0.51707 0.08251 0.60963 0.0
H1104 H 0.53151 0.14564 0.55258 0.0
H1105 H 0.53636 0.15338 0.64004 0.0
C1106 C 0.53618 0.19076 0.63811 0.0
C1107 C 0.53443 0.20929 0.62282 0.0
C1108 C 0.52855 0.13174 0.56505 0.0
C1109 C 0.53259 0.16243 0.60195 0.0
C1110 C 0.52326 0.10777 0.55531 0.0
C1111 C 0.51851 0.08963 0.57117 0.0
C1112 C 0.52928 0.13738 0.59076 0.0
C1113 C 0.5203 0.09598 0.59673 0.0
C1114 C 0.53531 0.16741 0.6278 0.0
C1115 C 0.53247 0.2038 0.59706 0.0
N1116 N 0.52543 0.1193 0.6057 0.0
N1117 N 0.53143 0.18078 0.58738 0.0
H1118 H 0.55452 0.77201 0.32887 0.0
H1119 H 0.69411 0.7759 0.35475 0.0
H1120 H 0.59162 0.7851 0.40213 0.0
H1121 H 0.66193 0.78744 0.28305 0.0
H1122 H 0.65632 0.77868 0.37214 0.0
H1123 H 0.59315 0.77725 0.3112 0.0
C1124 C 0.5708 0.77619 0.34121 0.0
C1125 C 0.56995 0.77792 0.36698 0.0
C1126 C 0.65751 0.78084 0.35265 0.0
C1127 C 0.614 0.78372 0.34698 0.0
C1128 C 0.67905 0.77912 0.34267 0.0
C1129 C 0.68103 0.78124 0.31739 0.0
C1130 C 0.63762 0.78428 0.33716 0.0
C1131 C 0.66107 0.78568 0.30265 0.0
C1132 C 0.59279 0.77925 0.33113 0.0
C1133 C 0.5915 0.78349 0.38215 0.0
N1134 N 0.64001 0.78674 0.3127 0.0
N1135 N 0.61267 0.78592 0.37192 0.0
H1136 H 0.00703 0.22102 0.45767 0.0
H1137 H 0.01466 0.08236 0.43465 0.0
H1138 H 0.00842 0.18364 0.38572 0.0
H1139 H 0.99761 0.11354 0.50467 0.0
H1140 H 0.01187 0.11982 0.41685 0.0
H1141 H 0.00282 0.18245 0.47579 0.0
C1142 C 0.00625 0.2047 0.44569 0.0
C1143 C 0.0083 0.20548 0.42021 0.0
C1144 C 0.00857 0.11856 0.43608 0.0
C1145 C 0.0036 0.16159 0.44071 0.0
C1146 C 0.01027 0.09716 0.4463 0.0
C1147 C 0.00658 0.09495 0.47123 0.0
C1148 C 0.00345 0.13815 0.45093 0.0
C1149 C 0.00062 0.11459 0.48536 0.0
C1150 C 0.00381 0.18275 0.45602 0.0
C1151 C 0.00709 0.18388 0.40548 0.0
N1152 N -0.0005 0.13557 0.47506 0.0
N1153 N 0.00501 0.16288 0.41598 0.0
H1154 H 0.59045 0.24503 0.14171 0.0
H1155 H 0.68598 0.27818 0.25991 0.0
H1156 H 0.57065 0.26908 0.21333 0.0
H1157 H 0.70373 0.27805 0.18421 0.0
H1158 H 0.64339 0.26779 0.24475 0.0
H1159 H 0.63202 0.2499 0.15882 0.0
C1160 C 0.59486 0.25126 0.16109 0.0
C1161 C 0.57716 0.25687 0.1761 0.0
C1162 C 0.6567 0.26993 0.23155 0.0
C1163 C 0.62471 0.26241 0.19582 0.0
C1164 C 0.68092 0.2757 0.24015 0.0
C1165 C 0.69828 0.27912 0.22324 0.0
C1166 C 0.65005 0.26722 0.20594 0.0
C1167 C 0.69088 0.27581 0.19786 0.0
C1168 C 0.61859 0.25406 0.17084 0.0
C1169 C 0.58384 0.26475 0.20112 0.0
N1170 N 0.66734 0.27005 0.19 0.0
N1171 N 0.60718 0.26735 0.21025 0.0
H1172 H 0.54718 0.85631 0.90341 0.0
H1173 H 0.55344 0.9383 0.03092 0.0
H1174 H 0.55399 0.8283 0.9747 0.0
H1175 H 0.52331 0.95578 0.96058 0.0
H1176 H 0.56167 0.90061 0.01052 0.0
H1177 H 0.54722 0.896 0.92422 0.0
C1178 C 0.54904 0.85859 0.92347 0.0
C1179 C 0.55033 0.83897 0.93738 0.0
C1180 C 0.55335 0.91281 -0.00038 0.0
C1181 C 0.55022 0.88427 0.96127 0.0
C1182 C 0.54869 0.93427 0.01121 0.0
C1183 C 0.53743 0.95001 0.99745 0.0
C1184 C 0.54706 0.90737 0.9741 0.0
C1185 C 0.53169 0.944 0.97196 0.0
C1186 C 0.54893 0.88121 0.93532 0.0
C1187 C 0.55278 0.84295 0.96331 0.0
N1188 N 0.53657 0.92317 0.96113 0.0
N1189 N 0.55247 0.86518 0.97447 0.0
H1190 H 0.9622 0.75415 0.71116 0.0
H1191 H 0.82278 0.75483 0.67844 0.0
H1192 H 0.93005 0.76243 0.63843 0.0
H1193 H 0.85372 0.75068 0.75271 0.0
H1194 H 0.86271 0.76089 0.66443 0.0
H1195 H 0.92345 0.75565 0.72768 0.0
C1196 C 0.94702 0.75642 0.69872 0.0
C1197 C 0.94925 0.75797 0.67337 0.0
C1198 C 0.86087 0.75885 0.68385 0.0
C1199 C 0.90503 0.75971 0.69206 0.0
C1200 C 0.83804 0.75537 0.69186 0.0
C1201 C 0.83494 0.75199 0.71672 0.0
C1202 C 0.88083 0.7587 0.70074 0.0
C1203 C 0.85535 0.75315 0.73335 0.0
C1204 C 0.92495 0.75731 0.70815 0.0
C1205 C 0.92909 0.76099 0.65807 0.0
N1206 N 0.87748 0.75613 0.725 0.0
N1207 N 0.90783 0.76163 0.66763 0.0
H1208 H 0.07568 -0.00048 0.82943 0.0
H1209 H 0.08749 0.0202 0.97744 0.0
H1210 H 0.14238 0.01926 0.87524 0.0
H1211 H 0.01953 0.99734 0.93452 0.0
H1212 H 0.10751 0.01831 0.93971 0.0
H1213 H 0.05444 0.99699 0.86705 0.0
C1214 C 0.08585 0.00318 0.84738 0.0
C1215 C 0.11082 0.00971 0.84923 0.0
C1216 C 0.08822 0.01362 0.93841 0.0
C1217 C 0.08672 0.00692 0.89218 0.0
C1218 C 0.07672 0.01478 0.96003 0.0
C1219 C 0.05172 0.00916 0.95917 0.0
C1220 C 0.07473 0.00691 0.91553 0.0
C1221 C 0.03883 0.00187 0.93603 0.0
C1222 C 0.07373 0.00175 0.86881 0.0
C1223 C 0.12312 0.01425 0.87291 0.0
N1224 N 0.05048 0.00112 0.91506 0.0
N1225 N 0.11096 0.01286 0.89337 0.0
H1226 H 0.79547 0.33702 0.57117 0.0
H1227 H 0.72117 0.27022 0.66947 0.0
H1228 H 0.71841 0.32673 0.56831 0.0
H1229 H 0.79683 0.27032 0.66643 0.0
H1230 H 0.7193 0.2864 0.62931 0.0
H1231 H 0.79615 0.30901 0.60306 0.0
C1232 C 0.77868 0.32869 0.57712 0.0
C1233 C 0.75685 0.33443 0.56738 0.0
C1234 C 0.73628 0.28253 0.63713 0.0
C1235 C 0.75751 0.30243 0.60382 0.0
C1236 C 0.73733 0.27326 0.66004 0.0
C1237 C 0.75923 0.2692 0.67128 0.0
C1238 C 0.7574 0.28828 0.62559 0.0
C1239 C 0.77961 0.27324 0.6583 0.0
C1240 C 0.77908 0.31263 0.59524 0.0
C1241 C 0.73564 0.32298 0.57553 0.0
N1242 N 0.7783 0.28303 0.63629 0.0
N1243 N 0.73651 0.30774 0.59349 0.0
H1244 H 0.45332 0.06265 0.34547 0.0
H1245 H 0.48383 0.98523 0.45417 0.0
H1246 H 0.44557 0.98556 0.33617 0.0
H1247 H 0.52262 0.0564 0.45223 0.0
H1248 H 0.4673 0.98618 0.41161 0.0
H1249 H 0.47679 0.0623 0.38542 0.0
C1250 C 0.4567 0.04572 0.35173 0.0
C1251 C 0.44735 0.02409 0.33764 0.0
C1252 C 0.47962 0.00152 0.42034 0.0
C1253 C 0.4738 0.02358 0.38304 0.0
C1254 C 0.48899 0.00101 0.44463 0.0
C1255 C 0.50456 0.02078 0.45659 0.0
C1256 C 0.48537 0.02219 0.40807 0.0
C1257 C 0.51075 0.04077 0.44346 0.0
C1258 C 0.47015 0.04555 0.3744 0.0
C1259 C 0.45232 0.00265 0.34649 0.0
N1260 N 0.50082 0.04115 0.4199 0.0
N1261 N 0.46495 0.00293 0.36874 0.0
H1262 H 0.74547 0.63057 0.08776 0.0
H1263 H 0.76082 0.75076 0.17884 0.0
H1264 H 0.76063 0.70108 0.06263 0.0
H1265 H 0.75396 0.67952 0.20275 0.0
H1266 H 0.75495 0.73335 0.13564 0.0
H1267 H 0.7431 0.64867 0.12939 0.0
C1268 C 0.74823 0.64991 0.091 0.0
C1269 C 0.75348 0.66435 0.07176 0.0
C1270 C 0.75445 0.72156 0.15037 0.0
C1271 C 0.7508 0.68528 0.11953 0.0
C1272 C 0.75762 0.73148 0.17501 0.0
C1273 C 0.75806 0.71654 0.19437 0.0
C1274 C 0.75158 0.69659 0.14519 0.0
C1275 C 0.75399 0.6917 0.18839 0.0
C1276 C 0.74685 0.66025 0.1148 0.0
C1277 C 0.7567 0.6893 0.077 0.0
N1278 N 0.75108 0.68253 0.16436 0.0
N1279 N 0.75546 0.69901 0.10047 0.0
H1280 H 0.15298 0.03507 0.70112 0.0
H1281 H 0.03511 0.0154 0.60623 0.0
H1282 H 0.08176 0.01739 0.72371 0.0
H1283 H 0.10715 0.02296 0.58451 0.0
H1284 H 0.05136 0.0221 0.64977 0.0
H1285 H 0.13594 0.03633 0.6588 0.0
C1286 C 0.13372 0.03153 0.69718 0.0
C1287 C 0.11877 0.0259 0.71592 0.0
C1288 C 0.06358 0.02255 0.63544 0.0
C1289 C 0.09908 0.02731 0.66738 0.0
C1290 C 0.05433 0.0189 0.6106 0.0
C1291 C 0.06982 0.01845 0.59174 0.0
C1292 C 0.08846 0.0259 0.64138 0.0
C1293 C 0.09455 0.02294 0.59845 0.0
C1294 C 0.12399 0.03227 0.67299 0.0
C1295 C 0.09393 0.02165 0.70976 0.0
N1296 N 0.10308 0.02633 0.62268 0.0
N1297 N 0.08484 0.02231 0.68596 0.0
H1298 H 0.75892 0.38475 0.43003 0.0
H1299 H 0.74759 0.26118 0.34527 0.0
H1300 H 0.73791 0.31651 0.4584 0.0
H1301 H 0.78515 0.32903 0.32796 0.0
H1302 H 0.73964 0.28055 0.38515 0.0
H1303 H 0.763 0.36409 0.39007 0.0
C1304 C 0.75494 0.36538 0.42777 0.0
C1305 C 0.74824 0.35231 0.44758 0.0
C1306 C 0.74965 0.29107 0.37255 0.0
C1307 C 0.75317 0.32845 0.40188 0.0
C1308 C 0.75426 0.28004 0.34987 0.0
C1309 C 0.76701 0.29349 0.3332 0.0
C1310 C 0.75768 0.31568 0.37835 0.0
C1311 C 0.77519 0.31788 0.3401 0.0
C1312 C 0.7574 0.35357 0.40497 0.0
C1313 C 0.74319 0.32724 0.44356 0.0
N1314 N 0.77027 0.32815 0.36201 0.0
N1315 N 0.7459 0.31605 0.42113 0.0
H1316 H 0.4384 0.9784 0.20921 0.0
H1317 H 0.54378 0.04716 0.14079 0.0
H1318 H 0.47011 0.05198 0.22982 0.0
H1319 H 0.51145 0.97357 0.12108 0.0
H1320 H 0.5213 0.0477 0.17729 0.0
H1321 H 0.46841 0.97509 0.17998 0.0
C1322 C 0.45171 0.99388 0.20757 0.0
C1323 C 0.45164 0.01558 0.22174 0.0
C1324 C 0.51943 0.03132 0.16519 0.0
C1325 C 0.48616 0.01192 0.18836 0.0
C1326 C 0.53242 0.03093 0.14444 0.0
C1327 C 0.52922 0.01038 0.12766 0.0
C1328 C 0.50314 0.01104 0.1691 0.0
C1329 C 0.51424 0.9899 0.13335 0.0
C1330 C 0.46893 0.99195 0.19096 0.0
C1331 C 0.46944 0.03498 0.21906 0.0
N1332 N 0.50152 0.99086 0.15339 0.0
N1333 N 0.48591 0.03275 0.20254 0.0
H1334 H 0.7862 0.70549 0.9609 0.0
H1335 H 0.77727 0.69411 0.81267 0.0
H1336 H 0.76273 0.63992 0.91405 0.0
H1337 H 0.78978 0.76258 0.85598 0.0
H1338 H 0.77694 0.67424 0.85056 0.0
H1339 H 0.79199 0.72692 0.92368 0.0
C1340 C 0.78238 0.69561 0.94282 0.0
C1341 C 0.77387 0.67091 0.94054 0.0
C1342 C 0.77985 0.69362 0.85191 0.0
C1343 C 0.78056 0.69518 0.89809 0.0
C1344 C 0.78006 0.70503 0.8302 0.0
C1345 C 0.78328 0.7301 0.83109 0.0
C1346 C 0.78281 0.70725 0.8749 0.0
C1347 C 0.78718 0.74322 0.85443 0.0
C1348 C 0.78565 0.70784 0.92163 0.0
C1349 C 0.7692 0.65897 0.91671 0.0
N1350 N 0.78665 0.73163 0.87548 0.0
N1351 N 0.77259 0.67119 0.8965 0.0
H1352 H 0.83972 0.09766 0.97564 0.0
H1353 H 0.9107 -0.00077 0.03095 0.0
H1354 H 0.83201 0.07323 0.04816 0.0
H1355 H 0.93355 0.03952 0.97058 0.0
H1356 H 0.87592 0.01976 0.03215 0.0
H1357 H 0.86876 0.07051 0.96885 0.0
C1358 C 0.84402 0.08646 0.99006 0.0
C1359 C 0.83363 0.08782 0.01259 0.0
C1360 C 0.8884 0.02387 0.01844 0.0
C1361 C 0.86658 0.05663 0.00484 0.0
C1362 C 0.90817 0.01202 0.01759 0.0
C1363 C 0.92522 0.01782 0.00078 0.0
C1364 C 0.88552 0.04152 0.00225 0.0
C1365 C 0.92097 0.03461 0.98397 0.0
C1366 C 0.86058 0.071 0.98617 0.0
C1367 C 0.83977 0.07288 0.03061 0.0
N1368 N 0.90164 0.04602 0.98526 0.0
N1369 N 0.85588 0.05793 0.02636 0.0
H1370 H 0.34962 0.39409 0.05189 0.0
H1371 H 0.44048 0.51719 0.05955 0.0
H1372 H 0.3254 0.46245 0.06161 0.0
H1373 H 0.45229 0.44975 0.02402 0.0
H1374 H 0.40056 0.49781 0.06831 0.0
H1375 H 0.39032 0.41472 0.05097 0.0
C1376 C 0.35292 0.41347 0.05411 0.0
C1377 C 0.33409 0.42659 0.05652 0.0
C1378 C 0.41209 0.48737 0.05874 0.0
C1379 C 0.38067 0.45036 0.05526 0.0
C1380 C 0.4348 0.49837 0.05375 0.0
C1381 C 0.44981 0.48508 0.04112 0.0
C1382 C 0.40467 0.46292 0.05135 0.0
C1383 C 0.44151 0.46076 0.03393 0.0
C1384 C 0.37615 0.42525 0.05348 0.0
C1385 C 0.33944 0.4517 0.05953 0.0
N1386 N 0.41961 0.45051 0.03922 0.0
N1387 N 0.3623 0.46284 0.05861 0.0
H1388 H 0.39623 0.60403 0.77297 0.0
H1389 H 0.27942 0.66494 0.7905 0.0
H1390 H 0.32525 0.56292 0.76611 0.0
H1391 H 0.34757 0.70256 0.77455 0.0
H1392 H 0.29641 0.62738 0.78876 0.0
H1393 H 0.37906 0.6405 0.78066 0.0
C1394 C 0.37701 0.60268 0.77312 0.0
C1395 C 0.36212 0.58046 0.76867 0.0
C1396 C 0.30759 0.64395 0.78582 0.0
C1397 C 0.3423 0.62217 0.77761 0.0
C1398 C 0.29797 0.66532 0.78696 0.0
C1399 C 0.31208 0.68677 0.78245 0.0
C1400 C 0.3315 0.6443 0.78054 0.0
C1401 C 0.33598 0.68636 0.77784 0.0
C1402 C 0.3672 0.62351 0.77751 0.0
C1403 C 0.33733 0.57976 0.76925 0.0
N1404 N 0.34489 0.66552 0.77699 0.0
N1405 N 0.32815 0.60035 0.77359 0.0
H1406 H 0.19127 0.64397 0.52982 0.0
H1407 H 0.09707 0.52296 0.50707 0.0
H1408 H 0.21201 0.57562 0.50895 0.0
H1409 H 0.07787 0.59352 0.50429 0.0
H1410 H 0.1394 0.54115 0.51359 0.0
H1411 H 0.14954 0.62483 0.52639 0.0
C1412 C 0.18703 0.6249 0.52457 0.0
C1413 C 0.20507 0.61135 0.51953 0.0
C1414 C 0.12586 0.55258 0.51158 0.0
C1415 C 0.15737 0.58932 0.51569 0.0
C1416 C 0.10175 0.54225 0.50798 0.0
C1417 C 0.08399 0.55677 0.50501 0.0
C1418 C 0.1321 0.57756 0.51255 0.0
C1419 C 0.09099 0.58164 0.5063 0.0
C1420 C 0.16321 0.614 0.52257 0.0
C1421 C 0.19858 0.5867 0.51285 0.0
N1422 N 0.11449 0.59124 0.51001 0.0
N1423 N 0.1752 0.57642 0.51115 0.0
H1424 H 0.68448 0.9452 0.82123 0.0
H1425 H 0.73948 0.84657 0.74145 0.0
H1426 H 0.68837 0.94268 0.7422 0.0
H1427 H 0.74366 0.8505 0.82116 0.0
H1428 H 0.72386 0.88413 0.74248 0.0
H1429 H 0.70839 0.91259 0.82279 0.0
C1430 C 0.69046 0.93787 0.80426 0.0
C1431 C 0.68424 0.94646 0.7815 0.0
C1432 C 0.72838 0.87706 0.75985 0.0
C1433 C 0.71158 0.90942 0.78316 0.0
C1434 C 0.73736 0.85561 0.75925 0.0
C1435 C 0.74269 0.84545 0.78125 0.0
C1436 C 0.7242 0.88834 0.78263 0.0
C1437 C 0.73979 0.8579 0.80382 0.0
C1438 C 0.70415 0.91935 0.80517 0.0
C1439 C 0.69254 0.93647 0.7601 0.0
N1440 N 0.73033 0.87861 0.80394 0.0
N1441 N 0.70564 0.91845 0.76146 0.0
H1442 H 0.6927 0.90747 0.5068 0.0
H1443 H 0.63273 0.01233 0.56984 0.0
H1444 H 0.72691 0.95537 0.56919 0.0
H1445 H 0.60782 0.97777 0.49697 0.0
H1446 H 0.66679 0.9908 0.57036 0.0
H1447 H 0.6605 0.93172 0.50352 0.0
C1448 C 0.69338 0.92304 0.51984 0.0
C1449 C 0.71242 0.92938 0.53837 0.0
C1450 C 0.65403 0.9881 0.55412 0.0
C1451 C 0.67576 0.95714 0.53472 0.0
C1452 C 0.63458 0.00042 0.55379 0.0
C1453 C 0.61738 0.99684 0.53333 0.0
C1454 C 0.65622 0.9718 0.53398 0.0
C1455 C 0.62071 0.98114 0.51309 0.0
C1456 C 0.67511 0.93694 0.51787 0.0
C1457 C 0.71253 0.94981 0.55466 0.0
N1458 N 0.63963 0.969 0.51402 0.0
N1459 N 0.69444 0.96288 0.55255 0.0
H1460 H 0.3847 0.43169 0.74049 0.0
H1461 H 0.25862 0.34812 0.74635 0.0
H1462 H 0.31812 0.4595 0.74184 0.0
H1463 H 0.3275 0.32496 0.75586 0.0
H1464 H 0.27889 0.38794 0.73861 0.0
H1465 H 0.36272 0.39125 0.73955 0.0
C1466 C 0.3654 0.42925 0.74035 0.0
C1467 C 0.35323 0.44897 0.74148 0.0
C1468 C 0.28947 0.37403 0.74222 0.0
C1469 C 0.32788 0.40267 0.74067 0.0
C1470 C 0.27793 0.35133 0.74658 0.0
C1471 C 0.29141 0.3333 0.75201 0.0
C1472 C 0.31458 0.37851 0.74311 0.0
C1473 C 0.31638 0.33839 0.75206 0.0
C1474 C 0.35283 0.40615 0.73988 0.0
C1475 C 0.32818 0.44475 0.74111 0.0
N1476 N 0.32711 0.36048 0.74778 0.0
N1477 N 0.31631 0.42204 0.74096 0.0
H1478 H 0.21162 0.56525 0.28308 0.0
H1479 H 0.19335 0.70154 0.29848 0.0
H1480 H 0.14364 0.58878 0.26748 0.0
H1481 H 0.26181 0.68182 0.2841 0.0
H1482 H 0.17545 0.65952 0.29213 0.0
H1483 H 0.2311 0.60729 0.28806 0.0
C1484 C 0.20084 0.57925 0.28067 0.0
C1485 C 0.17601 0.57361 0.27491 0.0
C1486 C 0.19438 0.66435 0.2903 0.0
C1487 C 0.198 0.62137 0.28079 0.0
C1488 C 0.20465 0.68833 0.29405 0.0
C1489 C 0.22911 0.69514 0.29183 0.0
C1490 C 0.2087 0.64694 0.28462 0.0
C1491 C 0.24286 0.67727 0.28589 0.0
C1492 C 0.21196 0.60315 0.28343 0.0
C1493 C 0.16283 0.59234 0.27191 0.0
N1494 N 0.23247 0.65386 0.28264 0.0
N1495 N 0.17397 0.61539 0.27507 0.0
H1496 H 0.52352 0.68012 0.39761 0.0
H1497 H 0.50101 0.60068 0.51135 0.0
H1498 H 0.49364 0.70564 0.46328 0.0
H1499 H 0.51153 0.57243 0.43776 0.0
H1500 H 0.50492 0.64105 0.49707 0.0
H1501 H 0.52559 0.64217 0.4151 0.0
C1502 C 0.51741 0.67773 0.41575 0.0
C1503 C 0.50819 0.69595 0.42893 0.0
C1504 C 0.50656 0.62599 0.48417 0.0
C1505 C 0.51063 0.65254 0.44915 0.0
C1506 C 0.50452 0.60305 0.49234 0.0
C1507 C 0.50578 0.58326 0.47563 0.0
C1508 C 0.51019 0.62903 0.45927 0.0
C1509 C 0.51019 0.5872 0.45117 0.0
C1510 C 0.51861 0.65606 0.42574 0.0
C1511 C 0.50068 0.69194 0.45244 0.0
N1512 N 0.51218 0.60959 0.44373 0.0
N1513 N 0.50202 0.67059 0.46183 0.0
H1514 H 0.59077 0.29668 0.72948 0.0
H1515 H 0.70721 0.23816 0.72037 0.0
H1516 H 0.61776 0.27709 0.66002 0.0
H1517 H 0.70468 0.29184 0.78054 0.0
H1518 H 0.67023 0.24752 0.70094 0.0
H1519 H 0.6292 0.29182 0.7512 0.0
C1520 C 0.60487 0.29169 0.71881 0.0
C1521 C 0.60109 0.28713 0.69294 0.0
C1522 C 0.67775 0.25727 0.7184 0.0
C1523 C 0.64445 0.28109 0.71755 0.0
C1524 C 0.69881 0.25184 0.72965 0.0
C1525 C 0.70926 0.26443 0.75205 0.0
C1526 C 0.66661 0.27506 0.72979 0.0
C1527 C 0.69732 0.28183 0.7632 0.0
C1528 C 0.62669 0.28894 0.73119 0.0
C1529 C 0.61987 0.28072 0.67996 0.0
N1530 N 0.67648 0.28663 0.75195 0.0
N1531 N 0.6406 0.27755 0.69244 0.0
H1532 H 0.03025 0.31923 0.96831 0.0
H1533 H 0.98764 0.4402 0.94295 0.0
H1534 H 0.96834 0.3217 0.9178 0.0
H1535 H 0.02028 0.43036 0.01493 0.0
H1536 H 0.98076 0.39679 0.93294 0.0
H1537 H 0.02788 0.35994 0.98574 0.0
C1538 C 0.01601 0.32822 0.96113 0.0
C1539 C -0.0004 0.31723 0.94147 0.0
C1540 C 0.989 0.40409 0.95111 0.0
C1541 C 0.997 0.36362 0.96097 0.0
C1542 C 0.99292 0.42881 0.95679 0.0
C1543 C 0.0045 0.43874 0.97975 0.0
C1544 C 0.99738 0.38932 0.96824 0.0
C1545 C 0.01113 0.4233 0.99707 0.0
C1546 C 0.01461 0.35135 0.97112 0.0
C1547 C 0.98143 0.32958 0.93288 0.0
N1548 N 0.00792 0.3993 0.99077 0.0
N1549 N 0.98086 0.35229 0.94239 0.0
H1550 H 0.97549 0.76641 0.21693 0.0
H1551 H 0.83796 0.77862 0.18997 0.0
H1552 H 0.94289 0.77897 0.14578 0.0
H1553 H 0.86491 0.75076 0.25637 0.0
H1554 H 0.87713 0.78056 0.17466 0.0
H1555 H 0.936 0.76239 0.23296 0.0
C1556 C 0.96003 0.76834 0.20472 0.0
C1557 C 0.9624 0.77308 0.18002 0.0
C1558 C 0.87455 0.7739 0.19254 0.0
C1559 C 0.91743 0.76853 0.19815 0.0
C1560 C 0.85215 0.77284 0.20135 0.0
C1561 C 0.84818 0.76456 0.22453 0.0
C1562 C 0.89331 0.76683 0.20704 0.0
C1563 C 0.86723 0.75721 0.23837 0.0
C1564 C 0.93754 0.76596 0.21384 0.0
C1565 C 0.94186 0.77534 0.16494 0.0
N1566 N 0.8891 0.75865 0.22946 0.0
N1567 N 0.92027 0.77312 0.17427 0.0
H1568 H 0.46823 0.2956 0.08498 0.0
H1569 H 0.54416 0.40938 0.03454 0.0
H1570 H 0.54521 0.31226 0.09631 0.0
H1571 H 0.46964 0.40374 0.04753 0.0
H1572 H 0.54392 0.36844 0.04646 0.0
H1573 H 0.46789 0.32991 0.06046 0.0
C1574 C 0.48507 0.30628 0.08201 0.0
C1575 C 0.50675 0.30135 0.09297 0.0
C1576 C 0.52756 0.37609 0.04628 0.0
C1577 C 0.50649 0.34048 0.06498 0.0
C1578 C 0.52766 0.39932 0.03936 0.0
C1579 C 0.50696 0.40992 0.04038 0.0
C1580 C 0.50653 0.36345 0.05387 0.0
C1581 C 0.48605 0.39626 0.04684 0.0
C1582 C 0.48486 0.32586 0.06807 0.0
C1583 C 0.52808 0.31566 0.08842 0.0
N1584 N 0.4864 0.37377 0.05349 0.0
N1585 N 0.52741 0.33475 0.07492 0.0
H1586 H 0.9733 0.31346 0.33639 0.0
H1587 H 0.85033 0.23968 0.27194 0.0
H1588 H 0.9558 0.23642 0.32874 0.0
H1589 H 0.86354 0.31681 0.28394 0.0
H1590 H 0.89186 0.23882 0.28604 0.0
H1591 H 0.93619 0.31561 0.31097 0.0
C1592 C 0.96182 0.29701 0.32906 0.0
C1593 C 0.9674 0.27473 0.3349 0.0
C1594 C 0.88581 0.25599 0.28541 0.0
C1595 C 0.92512 0.27704 0.30598 0.0
C1596 C 0.86206 0.25649 0.27737 0.0
C1597 C 0.85338 0.27835 0.2772 0.0
C1598 C 0.90103 0.27747 0.29362 0.0
C1599 C 0.86948 0.29957 0.284 0.0
C1600 C 0.94065 0.29825 0.31462 0.0
C1601 C 0.95201 0.25397 0.32492 0.0
N1602 N 0.89252 0.2986 0.29231 0.0
N1603 N 0.93149 0.25564 0.31113 0.0
H1604 H 0.99695 0.66492 0.63862 0.0
H1605 H 0.99331 0.58384 0.51086 0.0
H1606 H 0.99792 0.69467 0.56801 0.0
H1607 H 0.01505 0.56288 0.58265 0.0
H1608 H 0.9871 0.62259 0.53081 0.0
H1609 H 0.9951 0.62511 0.61745 0.0
C1610 C 0.99652 0.66304 0.61862 0.0
C1611 C 0.99787 0.68311 0.60505 0.0
C1612 C 0.99314 0.6094 0.54211 0.0
C1613 C 0.99586 0.63763 0.58071 0.0
C1614 C 0.99662 0.58735 0.53078 0.0
C1615 C 0.00504 0.57036 0.54514 0.0
C1616 C 0.99773 0.61413 0.56792 0.0
C1617 C 0.00901 0.57567 0.57086 0.0
C1618 C 0.99555 0.64032 0.60655 0.0
C1619 C 0.99711 0.67963 0.57915 0.0
N1620 N 0.00533 0.59706 0.58141 0.0
N1621 N 0.99632 0.65728 0.56777 0.0
H1622 H 0.5785 0.76231 0.82923 0.0
H1623 H 0.71586 0.74752 0.85252 0.0
H1624 H 0.61366 0.75167 0.89981 0.0
H1625 H 0.68407 0.76189 0.78172 0.0
H1626 H 0.67653 0.74257 0.868 0.0
H1627 H 0.61505 0.75684 0.8097 0.0
C1628 C 0.59385 0.75868 0.84056 0.0
C1629 C 0.59319 0.7577 0.86621 0.0
C1630 C 0.678 0.74654 0.84898 0.0
C1631 C 0.63483 0.7513 0.84406 0.0
C1632 C 0.70046 0.74929 0.84011 0.0
C1633 C 0.70318 0.7554 0.81593 0.0
C1634 C 0.65807 0.75025 0.83367 0.0
C1635 C 0.68266 0.75722 0.80052 0.0
C1636 C 0.61466 0.75551 0.82942 0.0
C1637 C 0.61348 0.75281 0.88003 0.0
N1638 N 0.66092 0.75504 0.80979 0.0
N1639 N 0.63347 0.74992 0.8688 0.0
H1640 H 0.46452 0.53689 0.71349 0.0
H1641 H 0.45449 0.5094 0.5668 0.0
H1642 H 0.39781 0.51912 0.6674 0.0
H1643 H 0.52065 0.54273 0.6083 0.0
H1644 H 0.43414 0.51206 0.60417 0.0
H1645 H 0.48601 0.5386 0.67606 0.0
C1646 C 0.4544 0.5335 0.69551 0.0
C1647 C 0.42934 0.52775 0.69353 0.0
C1648 C 0.45307 0.51894 0.6052 0.0
C1649 C 0.45377 0.52952 0.65079 0.0
C1650 C 0.4648 0.51741 0.58379 0.0
C1651 C 0.48939 0.52593 0.58432 0.0
C1652 C 0.46596 0.52877 0.62763 0.0
C1653 C 0.50167 0.53601 0.60702 0.0
C1654 C 0.46667 0.53451 0.67419 0.0
C1655 C 0.41712 0.52355 0.66982 0.0
N1656 N 0.48985 0.53701 0.62786 0.0
N1657 N 0.42945 0.52437 0.64943 0.0
H1658 H 0.8249 0.20247 0.98244 0.0
H1659 H 0.74737 0.24731 0.87147 0.0
H1660 H 0.7507 0.17468 0.95996 0.0
H1661 H 0.82397 0.26754 0.8853 0.0
H1662 H 0.74717 0.22673 0.90914 0.0
H1663 H 0.82391 0.2315 0.95142 0.0
C1664 C 0.80841 0.20253 0.97102 0.0
C1665 C 0.78793 0.18601 0.97353 0.0
C1666 C 0.764 0.23592 0.90411 0.0
C1667 C 0.78658 0.21921 0.93835 0.0
C1668 C 0.76411 0.24781 0.88266 0.0
C1669 C 0.78578 0.25883 0.87498 0.0
C1670 C 0.78571 0.23496 0.91796 0.0
C1671 C 0.80688 0.25906 0.89037 0.0
C1672 C 0.80783 0.21912 0.9534 0.0
C1673 C 0.76697 0.18695 0.95844 0.0
N1674 N 0.80636 0.24697 0.91097 0.0
N1675 N 0.76687 0.2032 0.94145 0.0
H1676 H 0.06756 0.47999 0.21126 0.0
H1677 H 0.07526 0.51641 0.07286 0.0
H1678 H 0.13295 0.50548 0.1796 0.0
H1679 H 0.00818 0.49048 0.10124 0.0
H1680 H 0.09636 0.50964 0.11144 0.0
H1681 H 0.04529 0.48059 0.17081 0.0
C1682 C 0.07724 0.48544 0.19574 0.0
C1683 C 0.1021 0.49285 0.19877 0.0
C1684 C 0.07703 0.50534 0.10935 0.0
C1685 C 0.07684 0.4937 0.15272 0.0
C1686 C 0.0649 0.5093 0.08728 0.0
C1687 C 0.03984 0.50423 0.08388 0.0
C1688 C 0.06413 0.49639 0.12848 0.0
C1689 C 0.0275 0.49473 0.10315 0.0
C1690 C 0.06453 0.48584 0.17272 0.0
C1691 C 0.11379 0.49976 0.17813 0.0
N1692 N 0.03978 0.49126 0.12477 0.0
N1693 N 0.10105 0.50014 0.15607 0.0
H1694 H 0.76965 0.82519 0.47813 0.0
H1695 H 0.77574 0.85764 0.33819 0.0
H1696 H 0.78109 0.89716 0.45617 0.0
H1697 H 0.76751 0.78508 0.35855 0.0
H1698 H 0.78154 0.87222 0.38189 0.0
H1699 H 0.77183 0.80984 0.43507 0.0
C1700 C 0.77271 0.83774 0.46427 0.0
C1701 C 0.77499 0.86247 0.47067 0.0
C1702 C 0.77873 0.8531 0.37688 0.0
C1703 C 0.77759 0.84512 0.42153 0.0
C1704 C 0.77548 0.84477 0.35189 0.0
C1705 C 0.77097 0.82012 0.34473 0.0
C1706 C 0.77718 0.83668 0.39495 0.0
C1707 C 0.77096 0.80425 0.36328 0.0
C1708 C 0.77401 0.82899 0.43974 0.0
C1709 C 0.77906 0.87796 0.45205 0.0
N1710 N 0.7737 0.8128 0.38758 0.0
N1711 N 0.7801 0.86903 0.42835 0.0
H1712 H 0.45755 0.5127 0.81873 0.0
H1713 H 0.42788 0.50886 0.9596 0.0
H1714 H 0.38633 0.50582 0.84259 0.0
H1715 H 0.49945 0.51141 0.93742 0.0
H1716 H 0.41236 0.50431 0.91622 0.0
H1717 H 0.47339 0.50947 0.8614 0.0
C1718 C 0.44526 0.51039 0.83292 0.0
C1719 C 0.42063 0.50972 0.8272 0.0
C1720 C 0.43145 0.50563 0.92074 0.0
C1721 C 0.43853 0.50597 0.87586 0.0
C1722 C 0.44032 0.5082 0.94554 0.0
C1723 C 0.46499 0.5107 0.95208 0.0
C1724 C 0.44738 0.50584 0.90224 0.0
C1725 C 0.48029 0.50952 0.93312 0.0
C1726 C 0.45429 0.5085 0.85723 0.0
C1727 C 0.40547 0.5066 0.84622 0.0
N1728 N 0.47125 0.50748 0.90899 0.0
N1729 N 0.41467 0.50497 0.86968 0.0
H1730 H 0.77953 0.14736 0.11419 0.0
H1731 H 0.80658 0.27599 0.19037 0.0
H1732 H 0.81537 0.20882 0.08247 0.0
H1733 H 0.74993 0.21939 0.20253 0.0
H1734 H 0.81513 0.25154 0.15362 0.0
H1735 H 0.77535 0.17299 0.15111 0.0
C1736 C 0.78682 0.16622 0.11514 0.0
C1737 C 0.79761 0.17603 0.09517 0.0
C1738 C 0.80079 0.24466 0.16439 0.0
C1739 C 0.79257 0.20557 0.13726 0.0
C1740 C 0.79581 0.25862 0.18519 0.0
C1741 C 0.77765 0.24964 0.19964 0.0
C1742 C 0.78765 0.22161 0.15835 0.0
C1743 C 0.76427 0.22699 0.19214 0.0
C1744 C 0.78426 0.18089 0.13614 0.0
C1745 C 0.80682 0.20059 0.09746 0.0
N1746 N 0.76969 0.21373 0.17223 0.0
N1747 N 0.80395 0.21464 0.11812 0.0
H1748 H 0.09996 0.54197 0.33215 0.0
H1749 H 0.00075 0.467 0.40338 0.0
H1750 H 0.07381 0.46677 0.31348 0.0
H1751 H 0.02863 0.54186 0.42228 0.0
H1752 H 0.02267 0.46786 0.36649 0.0
H1753 H 0.07016 0.54324 0.3619 0.0
C1754 C 0.08791 0.5257 0.33432 0.0
C1755 C 0.08952 0.50416 0.32056 0.0
C1756 C 0.0237 0.48418 0.37852 0.0
C1757 C 0.05524 0.5055 0.35456 0.0
C1758 C 0.01106 0.48375 0.39953 0.0
C1759 C 0.01319 0.5043 0.41619 0.0
C1760 C 0.03857 0.50528 0.37422 0.0
C1761 C 0.02672 0.5255 0.41015 0.0
C1762 C 0.07081 0.52646 0.35124 0.0
C1763 C 0.07329 0.4837 0.32391 0.0
N1764 N 0.03915 0.52535 0.38984 0.0
N1765 N 0.05691 0.48483 0.34073 0.0
H1766 H 0.771 0.88133 0.63034 0.0
H1767 H 0.74214 0.75305 0.6832 0.0
H1768 H 0.7469 0.81646 0.58255 0.0
H1769 H 0.77333 0.81877 0.72679 0.0
H1770 H 0.74011 0.77552 0.64633 0.0
H1771 H 0.76813 0.85832 0.66615 0.0
C1772 C 0.76501 0.8622 0.62738 0.0
C1773 C 0.75932 0.85079 0.60341 0.0
C1774 C 0.74727 0.78494 0.66404 0.0
C1775 C 0.75607 0.8241 0.64453 0.0
C1776 C 0.74837 0.77216 0.68507 0.0
C1777 C 0.75802 0.784 0.7081 0.0
C1778 C 0.75573 0.80969 0.66622 0.0
C1779 C 0.76589 0.80878 0.70944 0.0
C1780 C 0.76339 0.84901 0.64788 0.0
C1781 C 0.75153 0.82594 0.60074 0.0
N1782 N 0.76459 0.8207 0.68888 0.0
N1783 N 0.75024 0.81336 0.62108 0.0
H1784 H 0.70451 0.43216 0.56737 0.0
H1785 H 0.61041 0.49732 0.49251 0.0
H1786 H 0.69989 0.43725 0.48847 0.0
H1787 H 0.61119 0.49259 0.57124 0.0
H1788 H 0.64748 0.48076 0.49251 0.0
H1789 H 0.67397 0.45836 0.57082 0.0
C1790 C 0.69715 0.43888 0.55082 0.0
C1791 C 0.70452 0.43233 0.52755 0.0
C1792 C 0.63986 0.4836 0.50993 0.0
C1793 C 0.66992 0.46236 0.53138 0.0
C1794 C 0.61876 0.4932 0.50993 0.0
C1795 C 0.60781 0.49619 0.53189 0.0
C1796 C 0.6499 0.47641 0.53199 0.0
C1797 C 0.61926 0.49062 0.55397 0.0
C1798 C 0.67981 0.45387 0.55281 0.0
C1799 C 0.69457 0.44162 0.50674 0.0
N1800 N 0.63957 0.48055 0.55342 0.0
N1801 N 0.67775 0.45604 0.50915 0.0
H1802 H 0.18028 0.12937 0.4918 0.0
H1803 H 0.09448 0.00381 0.49275 0.0
H1804 H 0.20634 0.0617 0.48859 0.0
H1805 H 0.07182 0.07299 0.5018 0.0
H1806 H 0.13467 0.02378 0.48614 0.0
H1807 H 0.13951 0.1081 0.49016 0.0
C1808 C 0.17739 0.10998 0.49055 0.0
C1809 C 0.19671 0.09728 0.49054 0.0
C1810 C 0.12081 0.03451 0.4894 0.0
C1811 C 0.15 0.07272 0.48889 0.0
C1812 C 0.09788 0.02313 0.4931 0.0
C1813 C 0.07986 0.03677 0.49809 0.0
C1814 C 0.12559 0.05964 0.49056 0.0
C1815 C 0.08523 0.06175 0.49833 0.0
C1816 C 0.15409 0.09782 0.48965 0.0
C1817 C 0.19191 0.07217 0.48875 0.0
N1818 N 0.10758 0.07234 0.49475 0.0
N1819 N 0.16901 0.06068 0.48821 0.0
H1820 H 0.16628 0.94594 0.74539 0.0
H1821 H 0.24958 0.86798 0.81365 0.0
H1822 H 0.20995 0.97294 0.81312 0.0
H1823 H 0.23556 0.85919 0.73417 0.0
H1824 H 0.23313 0.90537 0.81451 0.0
H1825 H 0.18888 0.91241 0.74139 0.0
C1826 C 0.18061 0.94479 0.7594 0.0
C1827 C 0.18618 0.96209 0.77972 0.0
C1828 C 0.23396 0.8955 0.79683 0.0
C1829 C 0.21189 0.92396 0.77529 0.0
C1830 C 0.24334 0.8742 0.79633 0.0
C1831 C 0.24394 0.86067 0.77379 0.0
C1832 C 0.22448 0.90295 0.77469 0.0
C1833 C 0.23556 0.86933 0.75186 0.0
C1834 C 0.19359 0.92582 0.75698 0.0
C1835 C 0.20503 0.95993 0.79722 0.0
N1836 N 0.22574 0.88981 0.75287 0.0
N1837 N 0.21704 0.94105 0.79476 0.0
H1838 H 0.33224 0.92111 0.07147 0.0
H1839 H 0.44637 0.99314 0.01806 0.0
H1840 H 0.32762 0.95428 0.00288 0.0
H1841 H 0.45043 0.94198 0.07235 0.0
H1842 H 0.40258 0.98379 0.01538 0.0
H1843 H 0.37547 0.93424 0.07586 0.0
C1844 C 0.3403 0.93143 0.05749 0.0
C1845 C 0.32639 0.93651 0.03671 0.0
C1846 C 0.41312 0.97462 0.02783 0.0
C1847 C 0.37582 0.95141 0.04151 0.0
C1848 C 0.43806 0.97991 0.02935 0.0
C1849 C 0.45205 0.96822 0.04537 0.0
C1850 C 0.40216 0.95778 0.04267 0.0
C1851 C 0.44038 0.9513 0.05963 0.0
C1852 C 0.36498 0.93877 0.05992 0.0
C1853 C 0.33775 0.94991 0.01914 0.0
N1854 N 0.41613 0.94666 0.05801 0.0
N1855 N 0.36186 0.95684 0.02188 0.0
H1856 H 0.82046 0.55548 0.78441 0.0
H1857 H 0.79159 0.66724 0.71364 0.0
H1858 H 0.85964 0.58256 0.72504 0.0
H1859 H 0.75291 0.6404 0.77352 0.0
H1860 H 0.81278 0.63288 0.71345 0.0
H1861 H 0.79237 0.58337 0.77723 0.0
C1862 C 0.82309 0.56724 0.76978 0.0
C1863 C 0.84255 0.56689 0.75546 0.0
C1864 C 0.79942 0.63432 0.72641 0.0
C1865 C 0.81043 0.59888 0.74709 0.0
C1866 C 0.7872 0.6539 0.72645 0.0
C1867 C 0.77067 0.65692 0.74388 0.0
C1868 C 0.79517 0.6177 0.74399 0.0
C1869 C 0.76564 0.63895 0.7599 0.0
C1870 C 0.807 0.58313 0.76564 0.0
C1871 C 0.84498 0.58239 0.73663 0.0
N1872 N 0.77809 0.62029 0.7598 0.0
N1873 N 0.82921 0.59788 0.73311 0.0
H1874 H 0.81026 0.57414 0.97356 0.0
H1875 H 0.92087 0.54493 0.05977 0.0
H1876 H 0.83145 0.61062 0.04629 0.0
H1877 H 0.91763 0.53975 0.98005 0.0
H1878 H 0.88224 0.5599 0.05753 0.0
H1879 H 0.84423 0.55243 0.97823 0.0
C1880 C 0.822 0.57747 0.99056 0.0
C1881 C 0.81826 0.59437 0.00946 0.0
C1882 C 0.88991 0.55512 0.04059 0.0
C1883 C 0.85679 0.56936 0.01506 0.0
C1884 C 0.91173 0.54641 0.04185 0.0
C1885 C 0.92229 0.54123 0.02005 0.0
C1886 C 0.87857 0.55808 0.01736 0.0
C1887 C 0.91003 0.5437 0.99726 0.0
C1888 C 0.84133 0.56509 0.9932 0.0
C1889 C 0.83392 0.59793 0.03117 0.0
N1890 N 0.88881 0.55196 0.9965 0.0
N1891 N 0.85256 0.5855 0.03341 0.0
H1892 H 0.22137 0.08055 0.79762 0.0
H1893 H 0.20602 0.21466 0.77809 0.0
H1894 H 0.15387 0.1067 0.79809 0.0
H1895 H 0.27506 0.19491 0.79787 0.0
H1896 H 0.18699 0.17486 0.78519 0.0
H1897 H 0.24184 0.12182 0.79784 0.0
C1898 C 0.21089 0.095 0.798 0.0
C1899 C 0.18588 0.09023 0.79765 0.0
C1900 C 0.20629 0.1792 0.7882 0.0
C1901 C 0.20909 0.13728 0.7977 0.0
C1902 C 0.21722 0.20197 0.7841 0.0
C1903 C 0.24221 0.20814 0.78738 0.0
C1904 C 0.2204 0.16217 0.79525 0.0
C1905 C 0.25574 0.19089 0.79517 0.0
C1906 C 0.22258 0.11851 0.79817 0.0
C1907 C 0.17317 0.10957 0.79824 0.0
N1908 N 0.24466 0.16853 0.7986 0.0
N1909 N 0.1849 0.13221 0.79799 0.0
H1910 H 0.33215 0.95947 0.23792 0.0
H1911 H 0.34553 0.82889 0.25958 0.0
H1912 H 0.37453 0.94456 0.30255 0.0
H1913 H 0.27431 0.84373 0.24109 0.0
H1914 H 0.35935 0.87178 0.26976 0.0
H1915 H 0.31242 0.91743 0.23325 0.0
C1916 C 0.33703 0.94745 0.25127 0.0
C1917 C 0.355 0.95538 0.2706 0.0
C1918 C 0.34067 0.86559 0.26364 0.0
C1919 C 0.33314 0.90766 0.26499 0.0
C1920 C 0.33283 0.84123 0.25773 0.0
C1921 C 0.30879 0.83294 0.24956 0.0
C1922 C 0.32453 0.88176 0.26058 0.0
C1923 C 0.29297 0.84957 0.24748 0.0
C1924 C 0.32577 0.9236 0.24864 0.0
C1925 C 0.36074 0.93915 0.28742 0.0
N1926 N 0.30121 0.87339 0.25257 0.0
N1927 N 0.35018 0.91591 0.28394 0.0
H1928 H 0.52892 0.32519 0.58322 0.0
H1929 H 0.52007 0.46415 0.60827 0.0
H1930 H 0.52484 0.36159 0.65506 0.0
H1931 H 0.52707 0.43119 0.53559 0.0
H1932 H 0.51725 0.42521 0.62441 0.0
H1933 H 0.52474 0.36242 0.56432 0.0
C1934 C 0.5271 0.34099 0.59499 0.0
C1935 C 0.5274 0.34039 0.62076 0.0
C1936 C 0.51923 0.42633 0.60488 0.0
C1937 C 0.52244 0.38279 0.59933 0.0
C1938 C 0.52079 0.44859 0.59564 0.0
C1939 C 0.52406 0.45088 0.57062 0.0
C1940 C 0.52121 0.4061 0.58909 0.0
C1941 C 0.52457 0.43012 0.55502 0.0
C1942 C 0.52466 0.36218 0.58419 0.0
C1943 C 0.52487 0.36128 0.63514 0.0
N1944 N 0.52348 0.40854 0.56458 0.0
N1945 N 0.52256 0.38159 0.62424 0.0
H1946 H 0.45826 0.79122 0.33446 0.0
H1947 H 0.33393 0.71937 0.27079 0.0
H1948 H 0.43228 0.71878 0.34951 0.0
H1949 H 0.3473 0.7957 0.28979 0.0
H1950 H 0.37455 0.71704 0.28902 0.0
H1951 H 0.42202 0.79086 0.30705 0.0
C1952 C 0.44506 0.77512 0.33175 0.0
C1953 C 0.44809 0.75509 0.34449 0.0
C1954 C 0.36861 0.73428 0.28878 0.0
C1955 C 0.40677 0.75456 0.31304 0.0
C1956 C 0.34563 0.73564 0.27827 0.0
C1957 C 0.33741 0.75775 0.27896 0.0
C1958 C 0.38342 0.75525 0.29941 0.0
C1959 C 0.35301 0.77832 0.28906 0.0
C1960 C 0.4244 0.77497 0.31615 0.0
C1961 C 0.43046 0.73468 0.34021 0.0
N1962 N 0.37529 0.77658 0.29891 0.0
N1963 N 0.4104 0.73496 0.32488 0.0
H1964 H 0.02762 0.7178 0.08017 0.0
H1965 H 0.00805 0.58048 0.10928 0.0
H1966 H 0.01833 0.69324 0.15242 0.0
H1967 H 0.01459 0.60181 0.03535 0.0
H1968 H 0.01496 0.62232 0.12529 0.0
H1969 H 0.02533 0.67602 0.06311 0.0
C1970 C 0.02511 0.70364 0.0924 0.0
C1971 C 0.02306 0.70893 0.1177 0.0
C1972 C 0.01502 0.61796 0.10556 0.0
C1973 C 0.02059 0.6614 0.09848 0.0
C1974 C 0.0111 0.59401 0.0964 0.0
C1975 C 0.01056 0.58766 0.07092 0.0
C1976 C 0.0183 0.63584 0.08916 0.0
C1977 C 0.01485 0.60597 0.05514 0.0
C1978 C 0.02386 0.67986 0.0827 0.0
C1979 C 0.01991 0.68998 0.13278 0.0
N1980 N 0.01835 0.62932 0.0645 0.0
N1981 N 0.01875 0.66713 0.12294 0.0
H1982 H 0.07676 0.29997 0.86733 0.0
H1983 H 0.17432 0.23068 0.81237 0.0
H1984 H 0.06542 0.22334 0.85027 0.0
H1985 H 0.17281 0.30475 0.80062 0.0
H1986 H 0.13512 0.2282 0.82815 0.0
H1987 H 0.11283 0.30295 0.84495 0.0
C1988 C 0.08182 0.28381 0.85881 0.0
C1989 C 0.06823 0.26134 0.86078 0.0
C1990 C 0.14318 0.24495 0.82189 0.0
C1991 C 0.10931 0.26464 0.83538 0.0
C1992 C 0.16558 0.2464 0.81296 0.0
C1993 C 0.17675 0.26798 0.8053 0.0
C1994 C 0.13205 0.26538 0.82371 0.0
C1995 C 0.16465 0.28777 0.80629 0.0
C1996 C 0.10228 0.28555 0.84594 0.0
C1997 C 0.07544 0.24099 0.84928 0.0
N1998 N 0.143 0.28611 0.81573 0.0
N1999 N 0.09563 0.2431 0.83729 0.0
H2000 H 0.52245 0.72262 0.97309 0.0
H2001 H 0.52043 0.58279 0.94975 0.0
H2002 H 0.51264 0.68416 0.90047 0.0
H2003 H 0.50373 0.61449 0.01969 0.0
H2004 H 0.51975 0.62079 0.9323 0.0
H2005 H 0.51733 0.68424 0.99155 0.0
C2006 C 0.51906 0.70612 0.96106 0.0
C2007 C 0.51814 0.70651 0.93523 0.0
C2008 C 0.51607 0.6195 0.95142 0.0
C2009 C 0.51248 0.66283 0.95613 0.0
C2010 C 0.5166 0.59782 0.96147 0.0
C2011 C 0.51228 0.59557 0.98626 0.0
C2012 C 0.51157 0.63932 0.96632 0.0
C2013 C 0.50715 0.61556 0.00048 0.0
C2014 C 0.51607 0.68428 0.97159 0.0
C2015 C 0.5136 0.68468 0.92046 0.0
N2016 N 0.5072 0.63679 0.99036 0.0
N2017 N 0.51117 0.66375 0.93113 0.0
H2018 H 0.07192 0.75589 0.71448 0.0
H2019 H 0.20811 0.75916 0.68727 0.0
H2020 H 0.09523 0.73894 0.6425 0.0
H2021 H 0.18652 0.76874 0.76121 0.0
H2022 H 0.16631 0.74822 0.67138 0.0
H2023 H 0.11307 0.75758 0.73285 0.0
C2024 C 0.08565 0.75232 0.7026 0.0
C2025 C 0.08027 0.74753 0.67691 0.0
C2026 C 0.17062 0.75246 0.69113 0.0
C2027 C 0.12717 0.74944 0.69769 0.0
C2028 C 0.19451 0.75873 0.7002 0.0
C2029 C 0.20071 0.76511 0.72553 0.0
C2030 C 0.15268 0.7529 0.70744 0.0
C2031 C 0.18242 0.76399 0.74152 0.0
C2032 C 0.10909 0.75325 0.71308 0.0
C2033 C 0.09864 0.74293 0.66236 0.0
N2034 N 0.15913 0.75834 0.73215 0.0
N2035 N 0.12127 0.74418 0.67292 0.0
H2036 H 0.98509 0.32453 0.43814 0.0
H2037 H 0.05906 0.44277 0.51331 0.0
H2038 H 0.06215 0.34015 0.44226 0.0
H2039 H 0.986 0.43675 0.48183 0.0
H2040 H 0.05994 0.40172 0.49544 0.0
H2041 H 0.98471 0.36226 0.46283 0.0
C2042 C 0.00195 0.3358 0.44446 0.0
C2043 C 0.02367 0.32937 0.43796 0.0
C2044 C 0.04372 0.40944 0.49266 0.0
C2045 C 0.02335 0.37249 0.46622 0.0
C2046 C 0.04318 0.43273 0.50289 0.0
C2047 C 0.0225 0.44315 0.49883 0.0
C2048 C 0.0233 0.39652 0.47877 0.0
C2049 C 0.0024 0.42947 0.48517 0.0
C2050 C 0.00171 0.35735 0.45848 0.0
C2051 C 0.045 0.3446 0.44672 0.0
N2052 N 0.0033 0.40687 0.47566 0.0
N2053 N 0.04432 0.36557 0.46037 0.0
H2054 H 0.45249 0.30033 0.17798 0.0
H2055 H 0.35877 0.24884 0.27022 0.0
H2056 H 0.45576 0.23454 0.21193 0.0
H2057 H 0.34064 0.28794 0.20845 0.0
H2058 H 0.40047 0.25387 0.25969 0.0
H2059 H 0.41745 0.30588 0.20004 0.0
C2060 C 0.44611 0.2873 0.19044 0.0
C2061 C 0.45674 0.26676 0.1929 0.0
C2062 C 0.38742 0.26181 0.24886 0.0
C2063 C 0.41704 0.27316 0.21826 0.0
C2064 C 0.36376 0.25912 0.25495 0.0
C2065 C 0.3464 0.26788 0.24001 0.0
C2066 C 0.39361 0.27371 0.22805 0.0
C2067 C 0.35358 0.28079 0.22025 0.0
C2068 C 0.42614 0.29047 0.20295 0.0
C2069 C 0.44783 0.25045 0.2093 0.0
N2070 N 0.37666 0.28323 0.21473 0.0
N2071 N 0.42833 0.25392 0.22128 0.0
H2072 H 0.57169 0.49337 0.33201 0.0
H2073 H 0.57573 0.52528 0.47824 0.0
H2074 H 0.6349 0.52444 0.37958 0.0
H2075 H 0.51119 0.49039 0.43484 0.0
H2076 H 0.59716 0.52396 0.44166 0.0
H2077 H 0.54884 0.49102 0.36857 0.0
C2078 C 0.58076 0.49959 0.35013 0.0
C2079 C 0.60522 0.5092 0.35277 0.0
C2080 C 0.57833 0.51651 0.43996 0.0
C2081 C 0.57927 0.5066 0.39448 0.0
C2082 C 0.56597 0.51725 0.46096 0.0
C2083 C 0.54151 0.50795 0.4597 0.0
C2084 C 0.56627 0.50656 0.41717 0.0
C2085 C 0.53004 0.49775 0.43667 0.0
C2086 C 0.56772 0.49824 0.37095 0.0
C2087 C 0.61609 0.51698 0.37662 0.0
N2088 N 0.54251 0.49743 0.41622 0.0
N2089 N 0.60306 0.51556 0.39646 0.0
H2090 H 0.21337 0.84153 0.06919 0.0
H2091 H 0.29073 0.77366 0.16059 0.0
H2092 H 0.28887 0.84055 0.0657 0.0
H2093 H 0.21493 0.774 0.16227 0.0
H2094 H 0.28936 0.79242 0.12153 0.0
H2095 H 0.21253 0.81166 0.09923 0.0
C2096 C 0.22972 0.83485 0.07459 0.0
C2097 C 0.25126 0.84373 0.06521 0.0
C2098 C 0.27295 0.78801 0.13025 0.0
C2099 C 0.25054 0.80966 0.09969 0.0
C2100 C 0.27372 0.77716 0.15245 0.0
C2101 C 0.25299 0.77264 0.16485 0.0
C2102 C 0.25133 0.79436 0.12053 0.0
C2103 C 0.23143 0.77756 0.15352 0.0
C2104 C 0.22926 0.81777 0.09171 0.0
C2105 C 0.2719 0.83432 0.07267 0.0
N2106 N 0.23122 0.78843 0.1322 0.0
N2107 N 0.2711 0.818 0.08969 0.0
H2108 H 0.89905 0.53809 0.8595 0.0
H2109 H 0.0242 0.54058 0.93926 0.0
H2110 H 0.96565 0.54055 0.8259 0.0
H2111 H 0.95474 0.51612 0.96344 0.0
H2112 H 0.00437 0.54811 0.89938 0.0
H2113 H 0.92085 0.53884 0.90008 0.0
C2114 C 0.91832 0.53911 0.8607 0.0
C2115 C 0.93054 0.53896 0.83933 0.0
C2116 C 0.9936 0.54124 0.91359 0.0
C2117 C 0.95558 0.53957 0.88567 0.0
C2118 C 0.00487 0.53693 0.93628 0.0
C2119 C 0.99114 0.52771 0.95474 0.0
C2120 C 0.9685 0.53658 0.90962 0.0
C2121 C 0.96613 0.52329 0.94988 0.0
C2122 C 0.93074 0.53942 0.88385 0.0
C2123 C 0.95554 0.54044 0.84197 0.0
N2124 N 0.95569 0.5278 0.92789 0.0
N2125 N 0.96728 0.54046 0.86475 0.0
H2126 H 0.26236 0.20172 0.56497 0.0
H2127 H 0.26638 0.17995 0.7085 0.0
H2128 H 0.26155 0.13259 0.59304 0.0
H2129 H 0.26617 0.24964 0.682 0.0
H2130 H 0.26082 0.16206 0.66589 0.0
H2131 H 0.26066 0.21946 0.60719 0.0
C2132 C 0.26175 0.19028 0.58001 0.0
C2133 C 0.26227 0.16569 0.57557 0.0
C2134 C 0.26177 0.18125 0.66932 0.0
C2135 C 0.26025 0.18579 0.62378 0.0
C2136 C 0.26491 0.19148 0.69368 0.0
C2137 C 0.26695 0.21634 0.69877 0.0
C2138 C 0.26087 0.19598 0.64981 0.0
C2139 C 0.26471 0.23038 0.67886 0.0
C2140 C 0.26072 0.2004 0.60408 0.0
C2141 C 0.26133 0.15165 0.59566 0.0
N2142 N 0.26206 0.22002 0.65519 0.0
N2143 N 0.26047 0.16192 0.61888 0.0
H2144 H 0.59647 0.54256 0.22283 0.0
H2145 H 0.57939 0.45986 0.09635 0.0
H2146 H 0.60948 0.46944 0.21757 0.0
H2147 H 0.53987 0.51854 0.1072 0.0
H2148 H 0.59367 0.46542 0.14015 0.0
H2149 H 0.57804 0.53621 0.18 0.0
C2150 C 0.59525 0.52513 0.21273 0.0
C2151 C 0.60456 0.5065 0.22368 0.0
C2152 C 0.5818 0.47704 0.133 0.0
C2153 C 0.58393 0.4993 0.17482 0.0
C2154 C 0.57376 0.474 0.10795 0.0
C2155 C 0.55848 0.48883 0.09812 0.0
C2156 C 0.57485 0.49531 0.14833 0.0
C2157 C 0.55163 0.50671 0.11408 0.0
C2158 C 0.58473 0.52153 0.18836 0.0
C2159 C 0.60253 0.48428 0.20983 0.0
N2160 N 0.56004 0.50961 0.13844 0.0
N2161 N 0.59267 0.48138 0.18603 0.0
H2162 H 0.22459 0.8336 0.95949 0.0
H2163 H 0.28439 0.83073 0.83131 0.0
H2164 H 0.27739 0.8893 0.93799 0.0
H2165 H 0.24029 0.76844 0.85333 0.0
H2166 H 0.27876 0.85288 0.86948 0.0
H2167 H 0.22678 0.81007 0.91997 0.0
C2168 C 0.23644 0.84094 0.94638 0.0
C2169 C 0.25086 0.8634 0.95198 0.0
C2170 C 0.2703 0.83436 0.86616 0.0
C2171 C 0.2535 0.83672 0.90711 0.0
C2172 C 0.27351 0.82158 0.84424 0.0
C2173 C 0.26286 0.79755 0.83905 0.0
C2174 C 0.25633 0.82319 0.88337 0.0
C2175 C 0.24891 0.78689 0.85664 0.0
C2176 C 0.23776 0.82748 0.92395 0.0
C2177 C 0.266 0.87206 0.93449 0.0
N2178 N 0.24603 0.79982 0.87812 0.0
N2179 N 0.26692 0.85872 0.91294 0.0
H2180 H 0.95954 0.55451 0.72586 0.0
H2181 H 0.00128 0.47271 0.61627 0.0
H2182 H 0.92556 0.48237 0.70136 0.0
H2183 H 0.03268 0.54653 0.63626 0.0
H2184 H 0.97735 0.47437 0.65145 0.0
H2185 H 0.98943 0.55081 0.69627 0.0
C2186 C 0.95835 0.53792 0.71421 0.0
C2187 C 0.93995 0.51878 0.71589 0.0
C2188 C 0.98969 0.49014 0.64835 0.0
C2189 C 0.97417 0.51432 0.6823 0.0
C2190 C 0.0035 0.48915 0.62834 0.0
C2191 C 0.01881 0.5096 0.62312 0.0
C2192 C 0.99108 0.51176 0.66321 0.0
C2193 C 0.02103 0.53035 0.63951 0.0
C2194 C 0.97546 0.53578 0.69743 0.0
C2195 C 0.93934 0.49764 0.70053 0.0
N2196 N 0.00705 0.53101 0.65864 0.0
N2197 N 0.95616 0.49599 0.68436 0.0
H2198 H 0.26646 0.14125 0.41572 0.0
H2199 H 0.29463 0.26923 0.362 0.0
H2200 H 0.28632 0.20716 0.46285 0.0
H2201 H 0.2657 0.20301 0.3181 0.0
H2202 H 0.29518 0.24711 0.39914 0.0
H2203 H 0.26976 0.16388 0.37954 0.0
C2204 C 0.2716 0.16051 0.41845 0.0
C2205 C 0.27601 0.17235 0.44231 0.0
C2206 C 0.2888 0.23751 0.38131 0.0
C2207 C 0.27978 0.19851 0.4009 0.0
C2208 C 0.28854 0.2501 0.36014 0.0
C2209 C 0.28003 0.238 0.33691 0.0
C2210 C 0.28067 0.21269 0.37909 0.0
C2211 C 0.2723 0.21319 0.33558 0.0
C2212 C 0.27346 0.17346 0.39777 0.0
C2213 C 0.28268 0.19735 0.44474 0.0
N2214 N 0.27281 0.20144 0.3563 0.0
N2215 N 0.2843 0.20964 0.42427 0.0
H2216 H 0.32483 0.59811 0.47457 0.0
H2217 H 0.4172 0.53138 0.54944 0.0
H2218 H 0.32627 0.58925 0.5527 0.0
H2219 H 0.41854 0.53863 0.47128 0.0
H2220 H 0.37936 0.54658 0.54875 0.0
H2221 H 0.3551 0.57163 0.47095 0.0
C2222 C 0.33135 0.59042 0.49089 0.0
C2223 C 0.3233 0.59611 0.51404 0.0
C2224 C 0.38761 0.54456 0.53159 0.0
C2225 C 0.35764 0.56582 0.51002 0.0
C2226 C 0.40916 0.53574 0.53198 0.0
C2227 C 0.42091 0.53388 0.51041 0.0
C2228 C 0.37797 0.55217 0.50956 0.0
C2229 C 0.40985 0.53973 0.48826 0.0
C2230 C 0.34856 0.5753 0.4888 0.0
C2231 C 0.33219 0.5856 0.53455 0.0
N2232 N 0.38911 0.54909 0.48846 0.0
N2233 N 0.34895 0.57112 0.53207 0.0
H2234 H 0.85651 0.89534 0.5532 0.0
H2235 H 0.94177 0.01958 0.54272 0.0
H2236 H 0.83047 0.96276 0.55014 0.0
H2237 H 0.96381 0.95014 0.53327 0.0
H2238 H 0.90207 4e-05 0.55133 0.0
H2239 H 0.89724 0.9162 0.55202 0.0
C2240 C 0.8594 0.91458 0.55251 0.0
C2241 C 0.84009 0.92732 0.55157 0.0
C2242 C 0.91568 0.98914 0.5475 0.0
C2243 C 0.88664 0.95133 0.55007 0.0
C2244 C 0.93833 0.00028 0.54266 0.0
C2245 C 0.95603 0.98645 0.53704 0.0
C2246 C 0.91084 0.96405 0.54689 0.0
C2247 C 0.95062 0.9615 0.53721 0.0
C2248 C 0.88265 0.92648 0.55176 0.0
C2249 C 0.84487 0.95224 0.55075 0.0
N2250 N 0.92852 0.95113 0.54197 0.0
N2251 N 0.86767 0.96343 0.54987 0.0
H2252 H 0.83255 0.06756 0.21261 0.0
H2253 H 0.79611 0.17678 0.29562 0.0
H2254 H 0.86152 0.08756 0.28834 0.0
H2255 H 0.79272 0.17265 0.21587 0.0
H2256 H 0.81223 0.13891 0.29453 0.0
H2257 H 0.81041 0.1014 0.21485 0.0
C2258 C 0.83418 0.07903 0.22972 0.0
C2259 C 0.84904 0.07492 0.25025 0.0
C2260 C 0.80767 0.14621 0.2773 0.0
C2261 C 0.82353 0.11335 0.25304 0.0
C2262 C 0.7983 0.16766 0.2779 0.0
C2263 C 0.79323 0.17785 0.25581 0.0
C2264 C 0.81158 0.13482 0.25444 0.0
C2265 C 0.79658 0.16545 0.23334 0.0
C2266 C 0.82155 0.0983 0.23098 0.0
C2267 C 0.85043 0.09027 0.27202 0.0
N2268 N 0.80559 0.14461 0.23323 0.0
N2269 N 0.8378 0.10882 0.27287 0.0
H2270 H 0.70313 0.14116 0.03098 0.0
H2271 H 0.60215 0.0252 0.01296 0.0
H2272 H 0.71908 0.06994 0.01457 0.0
H2273 H 0.5876 0.09744 0.00972 0.0
H2274 H 0.64509 0.04076 0.01847 0.0
H2275 H 0.66068 0.12485 0.02814 0.0
C2276 C 0.69768 0.12205 0.02683 0.0
C2277 C 0.71462 0.10687 0.02291 0.0
C2278 C 0.63245 0.05316 0.0166 0.0
C2279 C 0.666 0.08805 0.0197 0.0
C2280 C 0.60797 0.04432 0.01356 0.0
C2281 C 0.5913 0.06006 0.0108 0.0
C2282 C 0.64023 0.07789 0.01712 0.0
C2283 C 0.59982 0.08465 0.01165 0.0
C2284 C 0.67343 0.11275 0.02516 0.0
C2285 C 0.70656 0.08225 0.01761 0.0
N2286 N 0.62368 0.0928 0.01476 0.0
N2287 N 0.68276 0.07356 0.01618 0.0
H2288 H 0.19523 0.45301 0.2404 0.0
H2289 H 0.2467 0.36009 0.32544 0.0
H2290 H 0.18297 0.45077 0.31752 0.0
H2291 H 0.24841 0.35876 0.24627 0.0
H2292 H 0.23001 0.39776 0.32527 0.0
H2293 H 0.22114 0.42285 0.24454 0.0
C2294 C 0.19806 0.44619 0.25826 0.0
C2295 C 0.18669 0.45415 0.27856 0.0
C2296 C 0.23445 0.38939 0.30804 0.0
C2297 C 0.21636 0.41941 0.28348 0.0
C2298 C 0.24415 0.36808 0.30819 0.0
C2299 C 0.24872 0.35638 0.28581 0.0
C2300 C 0.22961 0.39891 0.28538 0.0
C2301 C 0.2449 0.36718 0.26388 0.0
C2302 C 0.21291 0.42897 0.26066 0.0
C2303 C 0.19126 0.44491 0.30136 0.0
N2304 N 0.23544 0.3877 0.2642 0.0
N2305 N 0.20559 0.4278 0.30317 0.0
H2306 H 0.22109 0.4587 0.03173 0.0
H2307 H 0.07926 0.43822 0.02967 0.0
H2308 H 0.17786 0.38931 0.03172 0.0
H2309 H 0.11836 0.50289 0.00692 0.0
H2310 H 0.11589 0.42093 0.03234 0.0
H2311 H 0.18447 0.47627 0.02465 0.0
C2312 C 0.2039 0.44718 0.03025 0.0
C2313 C 0.20246 0.42253 0.03245 0.0
C2314 C 0.11654 0.43884 0.02659 0.0
C2315 C 0.1607 0.44246 0.02439 0.0
C2316 C 0.09562 0.44878 0.02513 0.0
C2317 C 0.09583 0.47208 0.01818 0.0
C2318 C 0.13805 0.45238 0.02142 0.0
C2319 C 0.11748 0.48484 0.0123 0.0
C2320 C 0.18307 0.4572 0.02608 0.0
C2321 C 0.1798 0.4084 0.03023 0.0
N2322 N 0.13788 0.4749 0.01431 0.0
N2323 N 0.15983 0.41859 0.02648 0.0
H2324 H 0.812 0.95945 0.24191 0.0
H2325 H 0.82363 0.82216 0.25164 0.0
H2326 H 0.87751 0.93035 0.23615 0.0
H2327 H 0.75535 0.84697 0.24726 0.0
H2328 H 0.843 0.86177 0.24424 0.0
H2329 H 0.79024 0.91869 0.24214 0.0
C2330 C 0.82176 0.94448 0.24047 0.0
C2331 C 0.84662 0.94826 0.2392 0.0
C2332 C 0.82376 0.85863 0.24471 0.0
C2333 C 0.82195 0.90177 0.23956 0.0
C2334 C 0.81266 0.83597 0.24899 0.0
C2335 C 0.78784 0.83129 0.25024 0.0
C2336 C 0.81005 0.87702 0.24193 0.0
C2337 C 0.77455 0.84984 0.24644 0.0
C2338 C 0.80934 0.92125 0.24059 0.0
C2339 C 0.85838 0.92828 0.23731 0.0
N2340 N 0.78587 0.87203 0.24271 0.0
N2341 N 0.84597 0.90595 0.23773 0.0
H2342 H 0.71098 0.0581 0.81497 0.0
H2343 H 0.73664 0.18649 0.76235 0.0
H2344 H 0.6703 0.07955 0.75253 0.0
H2345 H 0.77443 0.16886 0.82874 0.0
H2346 H 0.71511 0.14571 0.7563 0.0
H2347 H 0.73697 0.09712 0.81852 0.0
C2348 C 0.70758 0.07099 0.80199 0.0
C2349 C 0.6884 0.06568 0.78353 0.0
C2350 C 0.7282 0.15067 0.77213 0.0
C2351 C 0.71799 0.11013 0.78736 0.0
C2352 C 0.74056 0.17398 0.77557 0.0
C2353 C 0.75722 0.18117 0.79621 0.0
C2354 C 0.73242 0.13436 0.78948 0.0
C2355 C 0.76166 0.1641 0.81262 0.0
C2356 C 0.72239 0.09321 0.804 0.0
C2357 C 0.68479 0.08295 0.76713 0.0
N2358 N 0.74918 0.14151 0.80901 0.0
N2359 N 0.69941 0.10438 0.76947 0.0
loop_
_geom_bond_atom_site_label_1
_geom_bond_atom_site_label_2
_geom_bond_distance
_geom_bond_site_symmetry_2
_ccdc_geom_bond_type
In0 O1 2.294 . S
In0 O2 2.326 . S
In0 O6 2.262 1_455 S
In0 O7 2.326 1_455 S
In0 O8 2.266 . S
In0 O9 2.326 . S
In0 O11 2.294 . S
In0 O12 2.326 . S
O1 In0 2.294 . S
O1 C10 1.240 . S
O2 In0 2.326 . S
O2 C10 1.252 . S
C3 O6 1.257 . S
C3 O7 1.260 . S
C4 O11 1.240 . S
C4 O12 1.252 . S
C5 O8 1.252 . S
C5 O9 1.260 . S
O6 In0 2.262 1_655 S
O6 C3 1.257 . S
O7 In0 2.326 1_655 S
O7 C3 1.260 . S
O8 In0 2.266 . S
O8 C5 1.252 . S
O9 In0 2.326 . S
O9 C5 1.260 . S
C10 O1 1.240 . S
C10 O2 1.252 . S
O11 In0 2.294 . S
O11 C4 1.240 . S
O12 In0 2.326 . S
O12 C4 1.252 . S
In13 O14 2.294 . S
In13 O15 2.326 . S
In13 O19 2.266 . S
In13 O20 2.326 . S
In13 O21 2.266 1_455 S
In13 O22 2.326 1_455 S
In13 O24 2.294 . S
In13 O25 2.326 . S
O14 In13 2.294 . S
O14 C23 1.240 . S
O15 In13 2.326 . S
O15 C23 1.252 . S
C16 O19 1.252 . S
C16 O20 1.260 . S
C17 O24 1.240 . S
C17 O25 1.252 . S
C18 O21 1.252 . S
C18 O22 1.260 . S
O19 In13 2.266 . S
O19 C16 1.252 . S
O20 In13 2.326 . S
O20 C16 1.260 . S
O21 In13 2.266 1_655 S
O21 C18 1.252 . S
O22 In13 2.326 1_655 S
O22 C18 1.260 . S
C23 O14 1.240 . S
C23 O15 1.252 . S
O24 In13 2.294 . S
O24 C17 1.240 . S
O25 In13 2.326 . S
O25 C17 1.252 . S
In26 O27 2.294 . S
In26 O28 2.326 . S
In26 O32 2.266 . S
In26 O33 2.326 . S
In26 O34 2.266 . S
In26 O35 2.326 . S
In26 O37 2.294 . S
In26 O38 2.326 . S
O27 In26 2.294 . S
O27 C36 1.240 . S
O28 In26 2.326 . S
O28 C36 1.252 . S
C29 O32 1.252 . S
C29 O33 1.260 . S
C30 O37 1.240 . S
C30 O38 1.252 . S
C31 O34 1.252 . S
C31 O35 1.260 . S
O32 In26 2.266 . S
O32 C29 1.252 . S
O33 In26 2.326 . S
O33 C29 1.260 . S
O34 In26 2.266 . S
O34 C31 1.252 . S
O35 In26 2.326 . S
O35 C31 1.260 . S
C36 O27 1.240 . S
C36 O28 1.252 . S
O37 In26 2.294 . S
O37 C30 1.240 . S
O38 In26 2.326 . S
O38 C30 1.252 . S
In39 O40 2.294 . S
In39 O41 2.326 . S
In39 O45 2.266 . S
In39 O46 2.326 . S
In39 O47 2.266 . S
In39 O48 2.326 . S
In39 O50 2.294 . S
In39 O51 2.326 . S
O40 In39 2.294 . S
O40 C49 1.240 . S
O41 In39 2.326 . S
O41 C49 1.252 . S
C42 O45 1.252 . S
C42 O46 1.260 . S
C43 O50 1.240 . S
C43 O51 1.252 . S
C44 O47 1.252 . S
C44 O48 1.260 . S
O45 In39 2.266 . S
O45 C42 1.252 . S
O46 In39 2.326 . S
O46 C42 1.260 . S
O47 In39 2.266 . S
O47 C44 1.252 . S
O48 In39 2.326 . S
O48 C44 1.260 . S
C49 O40 1.240 . S
C49 O41 1.252 . S
O50 In39 2.294 . S
O50 C43 1.240 . S
O51 In39 2.326 . S
O51 C43 1.252 . S
In52 O53 2.294 . S
In52 O54 2.326 . S
In52 O58 2.266 . S
In52 O59 2.326 . S
In52 O60 2.266 . S
In52 O61 2.326 . S
In52 O63 2.294 . S
In52 O64 2.326 1_455 S
O53 In52 2.294 . S
O53 C62 1.240 . S
O54 In52 2.326 . S
O54 C62 1.252 . S
C55 O58 1.252 . S
C55 O59 1.260 . S
C56 O63 1.240 1_655 S
C56 O64 1.252 . S
C57 O60 1.252 . S
C57 O61 1.260 . S
O58 In52 2.266 . S
O58 C55 1.252 . S
O59 In52 2.326 . S
O59 C55 1.260 . S
O60 In52 2.266 . S
O60 C57 1.252 . S
O61 In52 2.326 . S
O61 C57 1.260 . S
C62 O53 1.240 . S
C62 O54 1.252 . S
O63 In52 2.294 . S
O63 C56 1.240 1_455 S
O64 In52 2.326 1_655 S
O64 C56 1.252 . S
In65 O66 2.294 . S
In65 O67 2.326 . S
In65 O71 2.266 . S
In65 O72 2.326 . S
In65 O73 2.266 . S
In65 O74 2.326 . S
In65 O76 2.294 . S
In65 O77 2.326 . S
O66 In65 2.294 . S
O66 C75 1.240 . S
O67 In65 2.326 . S
O67 C75 1.252 . S
C68 O71 1.252 . S
C68 O72 1.260 . S
C69 O76 1.240 . S
C69 O77 1.252 . S
C70 O73 1.252 . S
C70 O74 1.260 . S
O71 In65 2.266 . S
O71 C68 1.252 . S
O72 In65 2.326 . S
O72 C68 1.260 . S
O73 In65 2.266 . S
O73 C70 1.252 . S
O74 In65 2.326 . S
O74 C70 1.260 . S
C75 O66 1.240 . S
C75 O67 1.252 . S
O76 In65 2.294 . S
O76 C69 1.240 . S
O77 In65 2.326 . S
O77 C69 1.252 . S
In78 O79 2.294 . S
In78 O80 2.326 . S
In78 O84 2.266 . S
In78 O85 2.326 . S
In78 O86 2.266 . S
In78 O87 2.326 . S
In78 O89 2.294 . S
In78 O90 2.326 . S
O79 In78 2.294 . S
O79 C88 1.240 . S
O80 In78 2.326 . S
O80 C88 1.252 . S
C81 O84 1.252 . S
C81 O85 1.260 . S
C82 O89 1.240 . S
C82 O90 1.252 . S
C83 O86 1.252 . S
C83 O87 1.260 . S
O84 In78 2.266 . S
O84 C81 1.252 . S
O85 In78 2.326 . S
O85 C81 1.260 . S
O86 In78 2.266 . S
O86 C83 1.252 . S
O87 In78 2.326 . S
O87 C83 1.260 . S
C88 O79 1.240 . S
C88 O80 1.252 . S
O89 In78 2.294 . S
O89 C82 1.240 . S
O90 In78 2.326 . S
O90 C82 1.252 . S
In91 O92 2.294 . S
In91 O93 2.326 . S
In91 O97 2.266 . S
In91 O98 2.326 . S
In91 O99 2.266 1_455 S
In91 O100 2.326 1_455 S
In91 O102 2.294 . S
In91 O103 2.326 . S
O92 In91 2.294 . S
O92 C101 1.240 . S
O93 In91 2.326 . S
O93 C101 1.252 . S
C94 O97 1.252 . S
C94 O98 1.260 . S
C95 O102 1.240 . S
C95 O103 1.252 . S
C96 O99 1.252 . S
C96 O100 1.260 . S
O97 In91 2.266 . S
O97 C94 1.252 . S
O98 In91 2.326 . S
O98 C94 1.260 . S
O99 In91 2.266 1_655 S
O99 C96 1.252 . S
O100 In91 2.326 1_655 S
O100 C96 1.260 . S
C101 O92 1.240 . S
C101 O93 1.252 . S
O102 In91 2.294 . S
O102 C95 1.240 . S
O103 In91 2.326 . S
O103 C95 1.252 . S
In104 O105 2.294 . S
In104 O106 2.326 . S
In104 O110 2.266 . S
In104 O111 2.326 . S
In104 O112 2.266 1_545 S
In104 O113 2.326 1_545 S
In104 O115 2.294 . S
In104 O116 2.326 . S
O105 In104 2.294 . S
O105 C114 1.240 . S
O106 In104 2.326 . S
O106 C114 1.252 . S
C107 O110 1.252 . S
C107 O111 1.260 . S
C108 O115 1.240 . S
C108 O116 1.252 . S
C109 O112 1.252 . S
C109 O113 1.260 . S
O110 In104 2.266 . S
O110 C107 1.252 . S
O111 In104 2.326 . S
O111 C107 1.260 . S
O112 In104 2.266 1_565 S
O112 C109 1.252 . S
O113 In104 2.326 1_565 S
O113 C109 1.260 . S
C114 O105 1.240 . S
C114 O106 1.252 . S
O115 In104 2.294 . S
O115 C108 1.240 . S
O116 In104 2.326 . S
O116 C108 1.252 . S
In117 O118 2.294 . S
In117 O119 2.326 . S
In117 O123 2.266 . S
In117 O124 2.326 . S
In117 O125 2.266 . S
In117 O126 2.326 . S
In117 O128 2.294 . S
In117 O129 2.326 . S
O118 In117 2.294 . S
O118 C127 1.240 . S
O119 In117 2.326 . S
O119 C127 1.252 . S
C120 O123 1.252 . S
C120 O124 1.260 . S
C121 O128 1.240 . S
C121 O129 1.252 . S
C122 O125 1.252 . S
C122 O126 1.260 . S
O123 In117 2.266 . S
O123 C120 1.252 . S
O124 In117 2.326 . S
O124 C120 1.260 . S
O125 In117 2.266 . S
O125 C122 1.252 . S
O126 In117 2.326 . S
O126 C122 1.260 . S
C127 O118 1.240 . S
C127 O119 1.252 . S
O128 In117 2.294 . S
O128 C121 1.240 . S
O129 In117 2.326 . S
O129 C121 1.252 . S
In130 O131 2.294 . S
In130 O132 2.326 . S
In130 O136 2.266 . S
In130 O137 2.326 . S
In130 O138 2.266 . S
In130 O139 2.326 . S
In130 O141 2.294 1_545 S
In130 O142 2.326 1_545 S
O131 In130 2.294 . S
O131 C140 1.240 . S
O132 In130 2.326 . S
O132 C140 1.252 . S
C133 O136 1.252 . S
C133 O137 1.260 . S
C134 O141 1.240 . S
C134 O142 1.252 . S
C135 O138 1.252 . S
C135 O139 1.260 . S
O136 In130 2.266 . S
O136 C133 1.252 . S
O137 In130 2.326 . S
O137 C133 1.260 . S
O138 In130 2.266 . S
O138 C135 1.252 . S
O139 In130 2.326 . S
O139 C135 1.260 . S
C140 O131 1.240 . S
C140 O132 1.252 . S
O141 In130 2.294 1_565 S
O141 C134 1.240 . S
O142 In130 2.326 1_565 S
O142 C134 1.252 . S
In143 O144 2.294 . S
In143 O145 2.326 . S
In143 O149 2.266 1_554 S
In143 O150 2.326 1_554 S
In143 O151 2.266 . S
In143 O152 2.326 . S
In143 O154 2.294 . S
In143 O155 2.326 . S
O144 In143 2.294 . S
O144 C153 1.240 . S
O145 In143 2.326 . S
O145 C153 1.252 . S
C146 O149 1.252 . S
C146 O150 1.260 . S
C147 O154 1.240 . S
C147 O155 1.252 . S
C148 O151 1.252 . S
C148 O152 1.260 . S
O149 In143 2.266 1_556 S
O149 C146 1.252 . S
O150 In143 2.326 1_556 S
O150 C146 1.260 . S
O151 In143 2.266 . S
O151 C148 1.252 . S
O152 In143 2.326 . S
O152 C148 1.260 . S
C153 O144 1.240 . S
C153 O145 1.252 . S
O154 In143 2.294 . S
O154 C147 1.240 . S
O155 In143 2.326 . S
O155 C147 1.252 . S
In156 O157 2.294 . S
In156 O158 2.326 . S
In156 O162 2.266 . S
In156 O163 2.326 . S
In156 O164 2.266 . S
In156 O165 2.326 . S
In156 O167 2.294 . S
In156 O168 2.326 . S
O157 In156 2.294 . S
O157 C166 1.240 . S
O158 In156 2.326 . S
O158 C166 1.252 . S
C159 O162 1.252 1_556 S
C159 O163 1.260 1_556 S
C160 O167 1.240 . S
C160 O168 1.252 . S
C161 O164 1.252 . S
C161 O165 1.260 . S
O162 In156 2.266 . S
O162 C159 1.252 1_554 S
O163 In156 2.326 . S
O163 C159 1.260 1_554 S
O164 In156 2.266 . S
O164 C161 1.252 . S
O165 In156 2.326 . S
O165 C161 1.260 . S
C166 O157 1.240 . S
C166 O158 1.252 . S
O167 In156 2.294 . S
O167 C160 1.240 . S
O168 In156 2.326 . S
O168 C160 1.252 . S
In169 O170 2.294 . S
In169 O171 2.326 . S
In169 O175 2.266 . S
In169 O176 2.326 . S
In169 O177 2.266 . S
In169 O178 2.326 1_554 S
In169 O180 2.294 . S
In169 O181 2.326 . S
O170 In169 2.294 . S
O170 C179 1.240 . S
O171 In169 2.326 . S
O171 C179 1.252 . S
C172 O175 1.252 . S
C172 O176 1.260 . S
C173 O180 1.240 . S
C173 O181 1.252 . S
C174 O177 1.252 1_556 S
C174 O178 1.260 . S
O175 In169 2.266 . S
O175 C172 1.252 . S
O176 In169 2.326 . S
O176 C172 1.260 . S
O177 In169 2.266 . S
O177 C174 1.252 1_554 S
O178 In169 2.326 1_556 S
O178 C174 1.260 . S
C179 O170 1.240 . S
C179 O171 1.252 . S
O180 In169 2.294 . S
O180 C173 1.240 . S
O181 In169 2.326 . S
O181 C173 1.252 . S
In182 O183 2.294 . S
In182 O184 2.326 . S
In182 O188 2.266 . S
In182 O189 2.326 . S
In182 O190 2.266 . S
In182 O191 2.326 . S
In182 O193 2.294 . S
In182 O194 2.326 . S
O183 In182 2.294 . S
O183 C192 1.240 . S
O184 In182 2.326 . S
O184 C192 1.252 . S
C185 O188 1.252 . S
C185 O189 1.260 . S
C186 O193 1.240 . S
C186 O194 1.252 . S
C187 O190 1.252 . S
C187 O191 1.260 . S
O188 In182 2.266 . S
O188 C185 1.252 . S
O189 In182 2.326 . S
O189 C185 1.260 . S
O190 In182 2.266 . S
O190 C187 1.252 . S
O191 In182 2.326 . S
O191 C187 1.260 . S
C192 O183 1.240 . S
C192 O184 1.252 . S
O193 In182 2.294 . S
O193 C186 1.240 . S
O194 In182 2.326 . S
O194 C186 1.252 . S
In195 O196 2.294 . S
In195 O197 2.326 . S
In195 O201 2.266 . S
In195 O202 2.326 . S
In195 O203 2.266 . S
In195 O204 2.326 . S
In195 O206 2.294 . S
In195 O207 2.326 . S
O196 In195 2.294 . S
O196 C205 1.240 . S
O197 In195 2.326 . S
O197 C205 1.252 . S
C198 O201 1.252 . S
C198 O202 1.260 . S
C199 O206 1.240 . S
C199 O207 1.252 . S
C200 O203 1.252 . S
C200 O204 1.260 . S
O201 In195 2.266 . S
O201 C198 1.252 . S
O202 In195 2.326 . S
O202 C198 1.260 . S
O203 In195 2.266 . S
O203 C200 1.252 . S
O204 In195 2.326 . S
O204 C200 1.260 . S
C205 O196 1.240 . S
C205 O197 1.252 . S
O206 In195 2.294 . S
O206 C199 1.240 . S
O207 In195 2.326 . S
O207 C199 1.252 . S
In208 O209 2.294 . S
In208 O210 2.326 . S
In208 O214 2.266 . S
In208 O215 2.326 . S
In208 O216 2.266 1_545 S
In208 O217 2.326 1_545 S
In208 O219 2.294 . S
In208 O220 2.326 . S
O209 In208 2.294 . S
O209 C218 1.240 . S
O210 In208 2.326 . S
O210 C218 1.252 . S
C211 O214 1.252 . S
C211 O215 1.260 . S
C212 O219 1.240 . S
C212 O220 1.252 . S
C213 O216 1.252 . S
C213 O217 1.260 . S
O214 In208 2.266 . S
O214 C211 1.252 . S
O215 In208 2.326 . S
O215 C211 1.260 . S
O216 In208 2.266 1_565 S
O216 C213 1.252 . S
O217 In208 2.326 1_565 S
O217 C213 1.260 . S
C218 O209 1.240 . S
C218 O210 1.252 . S
O219 In208 2.294 . S
O219 C212 1.240 . S
O220 In208 2.326 . S
O220 C212 1.252 . S
In221 O222 2.294 . S
In221 O223 2.326 . S
In221 O227 2.266 . S
In221 O228 2.326 . S
In221 O229 2.266 . S
In221 O230 2.326 . S
In221 O232 2.294 . S
In221 O233 2.326 . S
O222 In221 2.294 . S
O222 C231 1.240 . S
O223 In221 2.326 . S
O223 C231 1.252 . S
C224 O227 1.252 . S
C224 O228 1.260 . S
C225 O232 1.240 . S
C225 O233 1.252 . S
C226 O229 1.252 . S
C226 O230 1.260 . S
O227 In221 2.266 . S
O227 C224 1.252 . S
O228 In221 2.326 . S
O228 C224 1.260 . S
O229 In221 2.266 . S
O229 C226 1.252 . S
O230 In221 2.326 . S
O230 C226 1.260 . S
C231 O222 1.240 . S
C231 O223 1.252 . S
O232 In221 2.294 . S
O232 C225 1.240 . S
O233 In221 2.326 . S
O233 C225 1.252 . S
In234 O235 2.294 . S
In234 O236 2.326 . S
In234 O240 2.266 . S
In234 O241 2.326 . S
In234 O242 2.266 . S
In234 O243 2.326 . S
In234 O245 2.294 . S
In234 O246 2.326 . S
O235 In234 2.294 . S
O235 C244 1.240 . S
O236 In234 2.326 . S
O236 C244 1.252 . S
C237 O240 1.252 . S
C237 O241 1.260 . S
C238 O245 1.240 . S
C238 O246 1.252 . S
C239 O242 1.252 . S
C239 O243 1.260 . S
O240 In234 2.266 . S
O240 C237 1.252 . S
O241 In234 2.326 . S
O241 C237 1.260 . S
O242 In234 2.266 . S
O242 C239 1.252 . S
O243 In234 2.326 . S
O243 C239 1.260 . S
C244 O235 1.240 . S
C244 O236 1.252 . S
O245 In234 2.294 . S
O245 C238 1.240 . S
O246 In234 2.326 . S
O246 C238 1.252 . S
In247 O248 2.294 1_545 S
In247 O249 2.326 1_545 S
In247 O253 2.266 . S
In247 O254 2.326 . S
In247 O255 2.266 . S
In247 O256 2.326 . S
In247 O258 2.294 1_545 S
In247 O259 2.327 . S
O248 In247 2.294 1_565 S
O248 C257 1.240 . S
O249 In247 2.326 1_565 S
O249 C257 1.252 . S
C250 O253 1.252 . S
C250 O254 1.260 . S
C251 O258 1.240 . S
C251 O259 1.252 1_565 S
C252 O255 1.252 . S
C252 O256 1.260 . S
O253 In247 2.266 . S
O253 C250 1.252 . S
O254 In247 2.326 . S
O254 C250 1.260 . S
O255 In247 2.266 . S
O255 C252 1.252 . S
O256 In247 2.326 . S
O256 C252 1.260 . S
C257 O248 1.240 . S
C257 O249 1.252 . S
O258 In247 2.294 1_565 S
O258 C251 1.240 . S
O259 In247 2.327 . S
O259 C251 1.252 1_545 S
In260 O261 2.294 . S
In260 O262 2.326 . S
In260 O266 2.266 1_554 S
In260 O267 2.325 1_554 S
In260 O268 2.264 1_554 S
In260 O269 2.322 1_554 S
In260 O271 2.296 . S
In260 O272 2.330 . S
O261 In260 2.294 . S
O261 C270 1.240 . S
O262 In260 2.326 . S
O262 C270 1.252 . S
C263 O266 1.252 . S
C263 O267 1.260 . S
C264 O271 1.240 . S
C264 O272 1.252 . S
C265 O268 1.252 . S
C265 O269 1.260 . S
O266 In260 2.266 1_556 S
O266 C263 1.252 . S
O267 In260 2.325 1_556 S
O267 C263 1.260 . S
O268 In260 2.264 1_556 S
O268 C265 1.252 . S
O269 In260 2.322 1_556 S
O269 C265 1.260 . S
C270 O261 1.240 . S
C270 O262 1.252 . S
O271 In260 2.296 . S
O271 C264 1.240 . S
O272 In260 2.330 . S
O272 C264 1.252 . S
In273 O274 2.294 . S
In273 O275 2.326 . S
In273 O279 2.266 . S
In273 O280 2.326 . S
In273 O281 2.266 . S
In273 O282 2.326 . S
In273 O284 2.294 . S
In273 O285 2.326 . S
O274 In273 2.294 . S
O274 C283 1.240 . S
O275 In273 2.326 . S
O275 C283 1.252 . S
C276 O279 1.252 . S
C276 O280 1.260 . S
C277 O284 1.240 . S
C277 O285 1.252 . S
C278 O281 1.252 . S
C278 O282 1.260 . S
O279 In273 2.266 . S
O279 C276 1.252 . S
O280 In273 2.326 . S
O280 C276 1.260 . S
O281 In273 2.266 . S
O281 C278 1.252 . S
O282 In273 2.326 . S
O282 C278 1.260 . S
C283 O274 1.240 . S
C283 O275 1.252 . S
O284 In273 2.294 . S
O284 C277 1.240 . S
O285 In273 2.326 . S
O285 C277 1.252 . S
In286 O287 2.294 . S
In286 O288 2.326 . S
In286 O292 2.266 . S
In286 O293 2.326 . S
In286 O294 2.266 . S
In286 O295 2.326 . S
In286 O297 2.294 . S
In286 O298 2.326 . S
O287 In286 2.294 . S
O287 C296 1.240 . S
O288 In286 2.326 . S
O288 C296 1.252 . S
C289 O292 1.252 . S
C289 O293 1.260 . S
C290 O297 1.240 . S
C290 O298 1.252 . S
C291 O294 1.252 . S
C291 O295 1.260 . S
O292 In286 2.266 . S
O292 C289 1.252 . S
O293 In286 2.326 . S
O293 C289 1.260 . S
O294 In286 2.266 . S
O294 C291 1.252 . S
O295 In286 2.326 . S
O295 C291 1.260 . S
C296 O287 1.240 . S
C296 O288 1.252 . S
O297 In286 2.294 . S
O297 C290 1.240 . S
O298 In286 2.326 . S
O298 C290 1.252 . S
In299 O300 2.294 . S
In299 O301 2.326 . S
In299 O305 2.266 . S
In299 O306 2.326 . S
In299 O307 2.266 . S
In299 O308 2.326 . S
In299 O310 2.294 . S
In299 O311 2.326 . S
O300 In299 2.294 . S
O300 C309 1.240 . S
O301 In299 2.326 . S
O301 C309 1.252 . S
C302 O305 1.252 . S
C302 O306 1.260 . S
C303 O310 1.240 . S
C303 O311 1.252 . S
C304 O307 1.252 . S
C304 O308 1.260 . S
O305 In299 2.266 . S
O305 C302 1.252 . S
O306 In299 2.326 . S
O306 C302 1.260 . S
O307 In299 2.266 . S
O307 C304 1.252 . S
O308 In299 2.326 . S
O308 C304 1.260 . S
C309 O300 1.240 . S
C309 O301 1.252 . S
O310 In299 2.294 . S
O310 C303 1.240 . S
O311 In299 2.326 . S
O311 C303 1.252 . S
Zn312 O318 1.969 . S
Zn312 O319 1.965 . S
Zn312 O323 2.024 1_545 S
Zn312 O328 1.969 . S
Zn313 O320 1.980 . S
Zn313 O326 1.969 1_455 S
Zn313 O327 1.965 . S
Zn313 O329 2.024 . S
C314 O315 1.229 . S
C314 O323 1.058 . S
O315 C314 1.229 . S
C316 O317 1.229 . S
C316 O329 1.058 . S
O317 C316 1.229 . S
O318 Zn312 1.969 . S
O318 C321 1.267 . S
O319 Zn312 1.965 . S
O319 C330 1.260 . S
O320 Zn313 1.980 . S
O320 C330 1.259 . S
C321 O318 1.267 . S
C321 O322 1.228 1_545 S
O322 C321 1.228 1_565 S
O323 Zn312 2.024 1_565 S
O323 C314 1.058 . S
C324 O325 1.228 . S
C324 O326 1.267 . S
O325 C324 1.228 . S
O326 Zn313 1.969 1_655 S
O326 C324 1.267 . S
O327 Zn313 1.965 . S
O327 C331 1.260 . S
O328 Zn312 1.969 . S
O328 C331 1.258 . S
O329 Zn313 2.024 . S
O329 C316 1.058 . S
C330 O319 1.260 . S
C330 O320 1.259 . S
C331 O327 1.260 . S
C331 O328 1.258 . S
Zn332 O338 1.969 . S
Zn332 O339 1.965 . S
Zn332 O343 2.024 . S
Zn332 O348 1.969 . S
Zn333 O340 1.969 . S
Zn333 O346 1.969 . S
Zn333 O347 1.965 . S
Zn333 O349 2.024 . S
C334 O335 1.229 . S
C334 O343 1.058 . S
O335 C334 1.229 . S
C336 O337 1.229 . S
C336 O349 1.058 . S
O337 C336 1.229 . S
O338 Zn332 1.969 . S
O338 C341 1.267 . S
O339 Zn332 1.965 . S
O339 C350 1.260 . S
O340 Zn333 1.969 . S
O340 C350 1.258 . S
C341 O338 1.267 . S
C341 O342 1.228 . S
O342 C341 1.228 . S
O343 Zn332 2.024 . S
O343 C334 1.058 . S
C344 O345 1.228 . S
C344 O346 1.267 . S
O345 C344 1.228 . S
O346 Zn333 1.969 . S
O346 C344 1.267 . S
O347 Zn333 1.965 . S
O347 C351 1.260 . S
O348 Zn332 1.969 . S
O348 C351 1.258 . S
O349 Zn333 2.024 . S
O349 C336 1.058 . S
C350 O339 1.260 . S
C350 O340 1.258 . S
C351 O347 1.260 . S
C351 O348 1.258 . S
Zn352 O358 1.969 . S
Zn352 O359 1.965 . S
Zn352 O363 2.024 . S
Zn352 O368 1.969 . S
Zn353 O360 1.969 . S
Zn353 O366 1.969 . S
Zn353 O367 1.960 1_565 S
Zn353 O369 2.024 . S
C354 O355 1.229 . S
C354 O363 1.058 . S
O355 C354 1.229 . S
C356 O357 1.229 . S
C356 O369 1.058 . S
O357 C356 1.229 . S
O358 Zn352 1.969 . S
O358 C361 1.267 . S
O359 Zn352 1.965 . S
O359 C370 1.260 . S
O360 Zn353 1.969 . S
O360 C370 1.258 1_565 S
C361 O358 1.267 . S
C361 O362 1.228 . S
O362 C361 1.228 . S
O363 Zn352 2.024 . S
O363 C354 1.058 . S
C364 O365 1.228 . S
C364 O366 1.267 . S
O365 C364 1.228 . S
O366 Zn353 1.969 . S
O366 C364 1.267 . S
O367 Zn353 1.960 1_545 S
O367 C371 1.261 . S
O368 Zn352 1.969 . S
O368 C371 1.258 . S
O369 Zn353 2.024 . S
O369 C356 1.058 . S
C370 O359 1.260 . S
C370 O360 1.258 1_545 S
C371 O367 1.261 . S
C371 O368 1.258 . S
Zn372 O378 1.969 . S
Zn372 O379 1.965 . S
Zn372 O383 2.024 . S
Zn372 O388 1.969 . S
Zn373 O380 1.969 . S
Zn373 O386 1.969 . S
Zn373 O387 1.965 . S
Zn373 O389 2.024 . S
C374 O375 1.229 . S
C374 O383 1.058 . S
O375 C374 1.229 . S
C376 O377 1.229 . S
C376 O389 1.058 . S
O377 C376 1.229 . S
O378 Zn372 1.969 . S
O378 C381 1.267 . S
O379 Zn372 1.965 . S
O379 C390 1.260 . S
O380 Zn373 1.969 . S
O380 C390 1.258 . S
C381 O378 1.267 . S
C381 O382 1.228 . S
O382 C381 1.228 . S
O383 Zn372 2.024 . S
O383 C374 1.058 . S
C384 O385 1.228 . S
C384 O386 1.267 . S
O385 C384 1.228 . S
O386 Zn373 1.969 . S
O386 C384 1.267 . S
O387 Zn373 1.965 . S
O387 C391 1.260 . S
O388 Zn372 1.969 . S
O388 C391 1.258 . S
O389 Zn373 2.024 . S
O389 C376 1.058 . S
C390 O379 1.260 . S
C390 O380 1.258 . S
C391 O387 1.260 . S
C391 O388 1.258 . S
Zn392 O398 1.969 . S
Zn392 O399 1.965 . S
Zn392 O403 2.024 1_565 S
Zn392 O408 1.969 1_565 S
Zn393 O400 1.969 1_455 S
Zn393 O406 1.969 . S
Zn393 O407 1.965 . S
Zn393 O409 2.024 . S
C394 O395 1.229 1_545 S
C394 O403 1.058 . S
O395 C394 1.229 1_565 S
C396 O397 1.229 1_455 S
C396 O409 1.058 . S
O397 C396 1.229 1_655 S
O398 Zn392 1.969 . S
O398 C401 1.267 . S
O399 Zn392 1.965 . S
O399 C410 1.260 1_455 S
O400 Zn393 1.969 1_655 S
O400 C410 1.258 1_545 S
C401 O398 1.267 . S
C401 O402 1.228 . S
O402 C401 1.228 . S
O403 Zn392 2.024 1_545 S
O403 C394 1.058 . S
C404 O405 1.228 . S
C404 O406 1.267 . S
O405 C404 1.228 . S
O406 Zn393 1.969 . S
O406 C404 1.267 . S
O407 Zn393 1.965 . S
O407 C411 1.260 . S
O408 Zn392 1.969 1_545 S
O408 C411 1.258 . S
O409 Zn393 2.024 . S
O409 C396 1.058 . S
C410 O399 1.260 1_655 S
C410 O400 1.258 1_565 S
C411 O407 1.260 . S
C411 O408 1.258 . S
Zn412 O418 1.969 . S
Zn412 O419 1.965 . S
Zn412 O423 2.024 . S
Zn412 O428 1.969 . S
Zn413 O420 1.969 . S
Zn413 O426 1.969 . S
Zn413 O427 1.965 . S
Zn413 O429 2.024 . S
C414 O415 1.229 . S
C414 O423 1.058 . S
O415 C414 1.229 . S
C416 O417 1.229 . S
C416 O429 1.058 . S
O417 C416 1.229 . S
O418 Zn412 1.969 . S
O418 C421 1.267 . S
O419 Zn412 1.965 . S
O419 C430 1.260 . S
O420 Zn413 1.969 . S
O420 C430 1.258 . S
C421 O418 1.267 . S
C421 O422 1.228 . S
O422 C421 1.228 . S
O423 Zn412 2.024 . S
O423 C414 1.058 . S
C424 O425 1.228 . S
C424 O426 1.267 . S
O425 C424 1.228 . S
O426 Zn413 1.969 . S
O426 C424 1.267 . S
O427 Zn413 1.965 . S
O427 C431 1.260 . S
O428 Zn412 1.969 . S
O428 C431 1.258 . S
O429 Zn413 2.024 . S
O429 C416 1.058 . S
C430 O419 1.260 . S
C430 O420 1.258 . S
C431 O427 1.260 . S
C431 O428 1.258 . S
Zn432 O438 1.969 . S
Zn432 O439 1.965 . S
Zn432 O443 2.024 1_556 S
Zn432 O448 1.969 1_556 S
Zn433 O440 1.969 1_545 S
Zn433 O446 1.969 . S
Zn433 O447 1.965 . S
Zn433 O449 2.024 . S
C434 O435 1.229 1_554 S
C434 O443 1.058 . S
O435 C434 1.229 1_556 S
C436 O437 1.255 . S
C436 O449 1.035 1_565 S
O437 C436 1.255 . S
O438 Zn432 1.969 . S
O438 C441 1.267 . S
O439 Zn432 1.965 . S
O439 C450 1.260 1_545 S
O440 Zn433 1.969 1_565 S
O440 C450 1.258 1_554 S
C441 O438 1.267 . S
C441 O442 1.228 . S
O442 C441 1.228 . S
O443 Zn432 2.024 1_554 S
O443 C434 1.058 . S
C444 O445 1.228 . S
C444 O446 1.267 . S
O445 C444 1.228 . S
O446 Zn433 1.969 . S
O446 C444 1.267 . S
O447 Zn433 1.965 . S
O447 C451 1.260 . S
O448 Zn432 1.969 1_554 S
O448 C451 1.258 . S
O449 Zn433 2.024 . S
O449 C436 1.035 1_545 S
C450 O439 1.260 1_565 S
C450 O440 1.258 1_556 S
C451 O447 1.260 . S
C451 O448 1.258 . S
Zn452 O458 1.969 . S
Zn452 O459 1.965 . S
Zn452 O463 2.024 . S
Zn452 O468 1.969 . S
Zn453 O460 1.969 . S
Zn453 O466 1.969 . S
Zn453 O467 1.965 . S
Zn453 O469 2.024 . S
C454 O455 1.229 . S
C454 O463 1.058 . S
O455 C454 1.229 . S
C456 O457 1.229 . S
C456 O469 1.058 . S
O457 C456 1.229 . S
O458 Zn452 1.969 . S
O458 C461 1.267 . S
O459 Zn452 1.965 . S
O459 C470 1.260 . S
O460 Zn453 1.969 . S
O460 C470 1.258 . S
C461 O458 1.267 . S
C461 O462 1.228 . S
O462 C461 1.228 . S
O463 Zn452 2.024 . S
O463 C454 1.058 . S
C464 O465 1.228 . S
C464 O466 1.267 . S
O465 C464 1.228 . S
O466 Zn453 1.969 . S
O466 C464 1.267 . S
O467 Zn453 1.965 . S
O467 C471 1.260 . S
O468 Zn452 1.969 . S
O468 C471 1.258 . S
O469 Zn453 2.024 . S
O469 C456 1.058 . S
C470 O459 1.260 . S
C470 O460 1.258 . S
C471 O467 1.260 . S
C471 O468 1.258 . S
Zn472 O478 1.969 . S
Zn472 O479 1.965 . S
Zn472 O483 2.024 . S
Zn472 O488 1.969 . S
Zn473 O480 1.969 1_556 S
Zn473 O486 1.969 . S
Zn473 O487 1.965 1_556 S
Zn473 O489 2.024 . S
C474 O475 1.229 . S
C474 O483 1.058 . S
O475 C474 1.229 . S
C476 O477 1.229 . S
C476 O489 1.058 . S
O477 C476 1.229 . S
O478 Zn472 1.969 . S
O478 C481 1.267 . S
O479 Zn472 1.965 . S
O479 C490 1.260 . S
O480 Zn473 1.969 1_554 S
O480 C490 1.258 . S
C481 O478 1.267 . S
C481 O482 1.228 . S
O482 C481 1.228 . S
O483 Zn472 2.024 . S
O483 C474 1.058 . S
C484 O485 1.228 . S
C484 O486 1.267 . S
O485 C484 1.228 . S
O486 Zn473 1.969 . S
O486 C484 1.267 . S
O487 Zn473 1.965 1_554 S
O487 C491 1.260 . S
O488 Zn472 1.969 . S
O488 C491 1.258 . S
O489 Zn473 2.024 . S
O489 C476 1.058 . S
C490 O479 1.260 . S
C490 O480 1.258 . S
C491 O487 1.260 . S
C491 O488 1.258 . S
Zn492 O498 1.969 . S
Zn492 O499 1.965 . S
Zn492 O503 2.024 . S
Zn492 O508 1.969 . S
Zn493 O500 1.969 . S
Zn493 O506 1.969 . S
Zn493 O507 1.965 . S
Zn493 O509 2.024 . S
C494 O495 1.229 . S
C494 O503 1.058 . S
O495 C494 1.229 . S
C496 O497 1.229 . S
C496 O509 1.058 . S
O497 C496 1.229 . S
O498 Zn492 1.969 . S
O498 C501 1.267 . S
O499 Zn492 1.965 . S
O499 C510 1.260 . S
O500 Zn493 1.969 . S
O500 C510 1.258 . S
C501 O498 1.267 . S
C501 O502 1.228 . S
O502 C501 1.228 . S
O503 Zn492 2.024 . S
O503 C494 1.058 . S
C504 O505 1.228 . S
C504 O506 1.267 . S
O505 C504 1.228 . S
O506 Zn493 1.969 . S
O506 C504 1.267 . S
O507 Zn493 1.965 . S
O507 C511 1.260 . S
O508 Zn492 1.969 . S
O508 C511 1.258 . S
O509 Zn493 2.024 . S
O509 C496 1.058 . S
C510 O499 1.260 . S
C510 O500 1.258 . S
C511 O507 1.260 . S
C511 O508 1.258 . S
Zn512 O518 1.969 . S
Zn512 O519 1.965 . S
Zn512 O523 2.024 . S
Zn512 O528 1.969 . S
Zn513 O520 1.969 . S
Zn513 O526 1.969 . S
Zn513 O527 1.965 1_655 S
Zn513 O529 2.024 . S
C514 O515 1.229 . S
C514 O523 1.058 . S
O515 C514 1.229 . S
C516 O517 1.229 . S
C516 O529 1.058 . S
O517 C516 1.229 . S
O518 Zn512 1.969 . S
O518 C521 1.267 . S
O519 Zn512 1.965 . S
O519 C530 1.260 . S
O520 Zn513 1.969 . S
O520 C530 1.258 1_655 S
C521 O518 1.267 . S
C521 O522 1.228 . S
O522 C521 1.228 . S
O523 Zn512 2.024 . S
O523 C514 1.058 . S
C524 O525 1.228 . S
C524 O526 1.267 . S
O525 C524 1.228 . S
O526 Zn513 1.969 . S
O526 C524 1.267 . S
O527 Zn513 1.965 1_455 S
O527 C531 1.260 . S
O528 Zn512 1.969 . S
O528 C531 1.258 . S
O529 Zn513 2.024 . S
O529 C516 1.058 . S
C530 O519 1.260 . S
C530 O520 1.258 1_455 S
C531 O527 1.260 . S
C531 O528 1.258 . S
Zn532 O538 1.969 . S
Zn532 O539 1.965 . S
Zn532 O543 2.024 . S
Zn532 O548 1.969 . S
Zn533 O540 1.969 . S
Zn533 O546 1.969 . S
Zn533 O547 1.965 . S
Zn533 O549 2.024 . S
C534 O535 1.229 . S
C534 O543 1.058 . S
O535 C534 1.229 . S
C536 O537 1.229 . S
C536 O549 1.058 . S
O537 C536 1.229 . S
O538 Zn532 1.969 . S
O538 C541 1.267 . S
O539 Zn532 1.965 . S
O539 C550 1.260 . S
O540 Zn533 1.969 . S
O540 C550 1.258 . S
C541 O538 1.267 . S
C541 O542 1.228 . S
O542 C541 1.228 . S
O543 Zn532 2.024 . S
O543 C534 1.058 . S
C544 O545 1.228 . S
C544 O546 1.267 . S
O545 C544 1.228 . S
O546 Zn533 1.969 . S
O546 C544 1.267 . S
O547 Zn533 1.965 . S
O547 C551 1.260 . S
O548 Zn532 1.969 . S
O548 C551 1.258 . S
O549 Zn533 2.024 . S
O549 C536 1.058 . S
C550 O539 1.260 . S
C550 O540 1.258 . S
C551 O547 1.260 . S
C551 O548 1.258 . S
Zn552 O558 1.969 . S
Zn552 O559 1.965 . S
Zn552 O563 2.024 . S
Zn552 O568 1.969 . S
Zn553 O560 1.969 . S
Zn553 O566 1.969 . S
Zn553 O567 1.965 . S
Zn553 O569 2.024 . S
C554 O555 1.229 . S
C554 O563 1.058 . S
O555 C554 1.229 . S
C556 O557 1.229 . S
C556 O569 1.058 . S
O557 C556 1.229 . S
O558 Zn552 1.969 . S
O558 C561 1.267 . S
O559 Zn552 1.965 . S
O559 C570 1.260 . S
O560 Zn553 1.969 . S
O560 C570 1.258 . S
C561 O558 1.267 . S
C561 O562 1.228 . S
O562 C561 1.228 . S
O563 Zn552 2.024 . S
O563 C554 1.058 . S
C564 O565 1.228 . S
C564 O566 1.267 . S
O565 C564 1.228 . S
O566 Zn553 1.969 . S
O566 C564 1.267 . S
O567 Zn553 1.965 . S
O567 C571 1.260 . S
O568 Zn552 1.969 . S
O568 C571 1.258 . S
O569 Zn553 2.024 . S
O569 C556 1.058 . S
C570 O559 1.260 . S
C570 O560 1.258 . S
C571 O567 1.260 . S
C571 O568 1.258 . S
Zn572 O578 1.969 . S
Zn572 O579 1.965 . S
Zn572 O583 2.024 . S
Zn572 O588 1.969 . S
Zn573 O580 1.969 . S
Zn573 O586 1.969 . S
Zn573 O587 1.965 . S
Zn573 O589 2.024 . S
C574 O575 1.229 . S
C574 O583 1.058 . S
O575 C574 1.229 . S
C576 O577 1.229 . S
C576 O589 1.058 . S
O577 C576 1.229 . S
O578 Zn572 1.969 . S
O578 C581 1.267 . S
O579 Zn572 1.965 . S
O579 C590 1.260 . S
O580 Zn573 1.969 . S
O580 C590 1.258 . S
C581 O578 1.267 . S
C581 O582 1.228 . S
O582 C581 1.228 . S
O583 Zn572 2.024 . S
O583 C574 1.058 . S
C584 O585 1.228 . S
C584 O586 1.267 . S
O585 C584 1.228 . S
O586 Zn573 1.969 . S
O586 C584 1.267 . S
O587 Zn573 1.965 . S
O587 C591 1.260 . S
O588 Zn572 1.969 . S
O588 C591 1.258 . S
O589 Zn573 2.024 . S
O589 C576 1.058 . S
C590 O579 1.260 . S
C590 O580 1.258 . S
C591 O587 1.260 . S
C591 O588 1.258 . S
Zn592 O598 1.969 . S
Zn592 O599 1.965 . S
Zn592 O603 2.024 . S
Zn592 O608 1.969 . S
Zn593 O600 1.969 . S
Zn593 O606 1.969 . S
Zn593 O607 1.965 . S
Zn593 O609 2.024 . S
C594 O595 1.229 . S
C594 O603 1.058 . S
O595 C594 1.229 . S
C596 O597 1.229 . S
C596 O609 1.058 . S
O597 C596 1.229 . S
O598 Zn592 1.969 . S
O598 C601 1.267 . S
O599 Zn592 1.965 . S
O599 C610 1.260 . S
O600 Zn593 1.969 . S
O600 C610 1.258 . S
C601 O598 1.267 . S
C601 O602 1.228 . S
O602 C601 1.228 . S
O603 Zn592 2.024 . S
O603 C594 1.058 . S
C604 O605 1.228 . S
C604 O606 1.267 . S
O605 C604 1.228 . S
O606 Zn593 1.969 . S
O606 C604 1.267 . S
O607 Zn593 1.965 . S
O607 C611 1.260 . S
O608 Zn592 1.969 . S
O608 C611 1.258 . S
O609 Zn593 2.024 . S
O609 C596 1.058 . S
C610 O599 1.260 . S
C610 O600 1.258 . S
C611 O607 1.260 . S
C611 O608 1.258 . S
Zn612 O618 1.969 . S
Zn612 O619 1.965 . S
Zn612 O623 2.024 1_655 S
Zn612 O628 1.969 1_655 S
Zn613 O620 1.969 1_554 S
Zn613 O626 1.969 . S
Zn613 O627 1.965 . S
Zn613 O629 2.024 . S
C614 O615 1.229 1_455 S
C614 O623 1.058 . S
O615 C614 1.229 1_655 S
C616 O617 1.229 1_554 S
C616 O629 1.058 . S
O617 C616 1.229 1_556 S
O618 Zn612 1.969 . S
O618 C621 1.267 . S
O619 Zn612 1.965 . S
O619 C630 1.260 1_554 S
O620 Zn613 1.969 1_556 S
O620 C630 1.258 1_455 S
C621 O618 1.267 . S
C621 O622 1.228 . S
O622 C621 1.228 . S
O623 Zn612 2.024 1_455 S
O623 C614 1.058 . S
C624 O625 1.228 . S
C624 O626 1.267 . S
O625 C624 1.228 . S
O626 Zn613 1.969 . S
O626 C624 1.267 . S
O627 Zn613 1.965 . S
O627 C631 1.260 . S
O628 Zn612 1.969 1_455 S
O628 C631 1.258 . S
O629 Zn613 2.024 . S
O629 C616 1.058 . S
C630 O619 1.260 1_556 S
C630 O620 1.258 1_655 S
C631 O627 1.260 . S
C631 O628 1.258 . S
H632 C638 0.930 . S
H633 C642 0.930 . S
H634 C647 0.929 . S
H635 C645 0.929 . S
H636 C640 0.929 . S
H637 C646 0.929 . S
C638 H632 0.930 . S
C638 C639 1.367 . S
C638 C646 1.378 . S
C639 C638 1.367 . S
C639 C647 1.433 . S
C640 H636 0.929 . S
C640 C642 1.378 . S
C640 C644 1.350 . S
C641 C644 1.463 . S
C641 C646 1.350 . S
C641 N649 1.427 . S
C642 H633 0.930 . S
C642 C640 1.378 . S
C642 C643 1.367 1_556 S
C643 C642 1.367 1_554 S
C643 C645 1.433 . S
C644 C640 1.350 . S
C644 C641 1.463 . S
C644 N648 1.427 1_556 S
C645 H635 0.929 . S
C645 C643 1.433 . S
C645 N648 1.384 . S
C646 H637 0.929 . S
C646 C638 1.378 . S
C646 C641 1.350 . S
C647 H634 0.929 . S
C647 C639 1.433 . S
C647 N649 1.384 . S
N648 C644 1.427 1_554 S
N648 C645 1.384 . S
N649 C641 1.427 . S
N649 C647 1.384 . S
H650 C656 0.930 . S
H651 C660 0.930 . S
H652 C665 0.929 . S
H653 C663 0.929 . S
H654 C658 0.929 . S
H655 C664 0.929 . S
C656 H650 0.930 . S
C656 C657 1.367 . S
C656 C664 1.378 . S
C657 C656 1.367 . S
C657 C665 1.433 . S
C658 H654 0.929 . S
C658 C660 1.378 . S
C658 C662 1.350 . S
C659 C662 1.463 . S
C659 C664 1.350 . S
C659 N667 1.427 . S
C660 H651 0.930 . S
C660 C658 1.378 . S
C660 C661 1.367 . S
C661 C660 1.367 . S
C661 C663 1.433 . S
C662 C658 1.350 . S
C662 C659 1.463 . S
C662 N666 1.427 . S
C663 H653 0.929 . S
C663 C661 1.433 . S
C663 N666 1.384 . S
C664 H655 0.929 . S
C664 C656 1.378 . S
C664 C659 1.350 . S
C665 H652 0.929 . S
C665 C657 1.433 . S
C665 N667 1.384 . S
N666 C662 1.427 . S
N666 C663 1.384 . S
N667 C659 1.427 . S
N667 C665 1.384 . S
H668 C674 0.930 . S
H669 C678 0.930 . S
H670 C683 0.929 . S
H671 C681 0.929 . S
H672 C676 0.929 . S
H673 C682 0.929 . S
C674 H668 0.930 . S
C674 C675 1.367 . S
C674 C682 1.378 . S
C675 C674 1.367 . S
C675 C683 1.433 . S
C676 H672 0.929 . S
C676 C678 1.378 . S
C676 C680 1.350 . S
C677 C680 1.463 . S
C677 C682 1.350 . S
C677 N685 1.427 . S
C678 H669 0.930 . S
C678 C676 1.378 . S
C678 C679 1.367 . S
C679 C678 1.367 . S
C679 C681 1.433 . S
C680 C676 1.350 . S
C680 C677 1.463 . S
C680 N684 1.427 . S
C681 H671 0.929 . S
C681 C679 1.433 . S
C681 N684 1.384 . S
C682 H673 0.929 . S
C682 C674 1.378 . S
C682 C677 1.350 . S
C683 H670 0.929 . S
C683 C675 1.433 . S
C683 N685 1.384 . S
N684 C680 1.427 . S
N684 C681 1.384 . S
N685 C677 1.427 . S
N685 C683 1.384 . S
H686 C692 0.930 . S
H687 C696 0.930 . S
H688 C701 0.929 . S
H689 C699 0.929 . S
H690 C694 0.929 . S
H691 C700 0.929 . S
C692 H686 0.930 . S
C692 C693 1.367 . S
C692 C700 1.378 . S
C693 C692 1.367 . S
C693 C701 1.433 . S
C694 H690 0.929 . S
C694 C696 1.378 . S
C694 C698 1.350 . S
C695 C698 1.463 . S
C695 C700 1.350 . S
C695 N703 1.427 . S
C696 H687 0.930 . S
C696 C694 1.378 . S
C696 C697 1.367 . S
C697 C696 1.367 . S
C697 C699 1.433 . S
C698 C694 1.350 . S
C698 C695 1.463 . S
C698 N702 1.427 . S
C699 H689 0.929 . S
C699 C697 1.433 . S
C699 N702 1.384 . S
C700 H691 0.929 . S
C700 C692 1.378 . S
C700 C695 1.350 . S
C701 H688 0.929 . S
C701 C693 1.433 . S
C701 N703 1.384 . S
N702 C698 1.427 . S
N702 C699 1.384 . S
N703 C695 1.427 . S
N703 C701 1.384 . S
H704 C710 0.930 1_655 S
H705 C714 0.930 . S
H706 C719 0.929 . S
H707 C717 0.948 . S
H708 C712 0.929 . S
H709 C718 0.929 1_655 S
C710 H704 0.930 1_455 S
C710 C711 1.367 . S
C710 C718 1.378 . S
C711 C710 1.367 . S
C711 C719 1.433 . S
C712 H708 0.929 . S
C712 C714 1.378 . S
C712 C716 1.350 . S
C713 C716 1.463 . S
C713 C718 1.350 . S
C713 N721 1.427 . S
C714 H705 0.930 . S
C714 C712 1.378 . S
C714 C715 1.367 . S
C715 C714 1.367 . S
C715 C717 1.433 . S
C716 C712 1.350 . S
C716 C713 1.463 . S
C716 N720 1.427 . S
C717 H707 0.948 . S
C717 C715 1.433 . S
C717 N720 1.384 . S
C718 H709 0.929 1_455 S
C718 C710 1.378 . S
C718 C713 1.350 . S
C719 H706 0.929 . S
C719 C711 1.433 . S
C719 N721 1.384 . S
N720 C716 1.427 . S
N720 C717 1.384 . S
N721 C713 1.427 . S
N721 C719 1.384 . S
H722 C728 0.930 . S
H723 C732 0.930 . S
H724 C737 0.929 . S
H725 C735 0.929 . S
H726 C730 0.929 . S
H727 C736 0.929 . S
C728 H722 0.930 . S
C728 C729 1.367 . S
C728 C736 1.378 . S
C729 C728 1.367 . S
C729 C737 1.433 . S
C730 H726 0.929 . S
C730 C732 1.378 . S
C730 C734 1.350 . S
C731 C734 1.463 . S
C731 C736 1.350 . S
C731 N739 1.427 . S
C732 H723 0.930 . S
C732 C730 1.378 . S
C732 C733 1.367 . S
C733 C732 1.367 . S
C733 C735 1.433 . S
C734 C730 1.350 . S
C734 C731 1.463 . S
C734 N738 1.427 . S
C735 H725 0.929 . S
C735 C733 1.433 . S
C735 N738 1.384 . S
C736 H727 0.929 . S
C736 C728 1.378 . S
C736 C731 1.350 . S
C737 H724 0.929 . S
C737 C729 1.433 . S
C737 N739 1.384 . S
N738 C734 1.427 . S
N738 C735 1.384 . S
N739 C731 1.427 . S
N739 C737 1.384 . S
H740 C746 0.930 . S
H741 C750 0.930 . S
H742 C755 0.929 . S
H743 C753 0.929 . S
H744 C748 0.929 . S
H745 C754 0.929 . S
C746 H740 0.930 . S
C746 C747 1.367 . S
C746 C754 1.378 . S
C747 C746 1.367 . S
C747 C755 1.433 . S
C748 H744 0.929 . S
C748 C750 1.378 . S
C748 C752 1.350 . S
C749 C752 1.463 . S
C749 C754 1.350 . S
C749 N757 1.427 . S
C750 H741 0.930 . S
C750 C748 1.378 . S
C750 C751 1.367 . S
C751 C750 1.367 . S
C751 C753 1.433 . S
C752 C748 1.350 . S
C752 C749 1.463 . S
C752 N756 1.427 . S
C753 H743 0.929 . S
C753 C751 1.433 . S
C753 N756 1.384 . S
C754 H745 0.929 . S
C754 C746 1.378 . S
C754 C749 1.350 . S
C755 H742 0.929 . S
C755 C747 1.433 . S
C755 N757 1.384 . S
N756 C752 1.427 . S
N756 C753 1.384 . S
N757 C749 1.427 . S
N757 C755 1.384 . S
H758 C764 0.930 . S
H759 C768 0.930 . S
H760 C773 0.929 . S
H761 C771 0.929 . S
H762 C766 0.929 . S
H763 C772 0.929 . S
C764 H758 0.930 . S
C764 C765 1.367 . S
C764 C772 1.378 . S
C765 C764 1.367 . S
C765 C773 1.433 . S
C766 H762 0.929 . S
C766 C768 1.378 . S
C766 C770 1.350 . S
C767 C770 1.463 . S
C767 C772 1.350 . S
C767 N775 1.427 . S
C768 H759 0.930 . S
C768 C766 1.378 . S
C768 C769 1.367 . S
C769 C768 1.367 . S
C769 C771 1.433 . S
C770 C766 1.350 . S
C770 C767 1.463 . S
C770 N774 1.427 . S
C771 H761 0.929 . S
C771 C769 1.433 . S
C771 N774 1.384 . S
C772 H763 0.929 . S
C772 C764 1.378 . S
C772 C767 1.350 . S
C773 H760 0.929 . S
C773 C765 1.433 . S
C773 N775 1.384 . S
N774 C770 1.427 . S
N774 C771 1.384 . S
N775 C767 1.427 . S
N775 C773 1.384 . S
H776 C782 0.930 . S
H777 C786 0.930 . S
H778 C791 0.929 1_565 S
H779 C789 0.929 . S
H780 C784 0.929 . S
H781 C790 0.929 . S
C782 H776 0.930 . S
C782 C783 1.367 . S
C782 C790 1.378 . S
C783 C782 1.367 . S
C783 C791 1.433 . S
C784 H780 0.929 . S
C784 C786 1.378 . S
C784 C788 1.350 . S
C785 C788 1.463 . S
C785 C790 1.350 . S
C785 N793 1.427 . S
C786 H777 0.930 . S
C786 C784 1.378 . S
C786 C787 1.367 1_655 S
C787 C786 1.367 1_455 S
C787 C789 1.433 . S
C788 C784 1.350 . S
C788 C785 1.463 . S
C788 N792 1.455 . S
C789 H779 0.929 . S
C789 C787 1.433 . S
C789 N792 1.348 1_455 S
C790 H781 0.929 . S
C790 C782 1.378 . S
C790 C785 1.350 . S
C791 H778 0.929 1_545 S
C791 C783 1.433 . S
C791 N793 1.384 . S
N792 C788 1.455 . S
N792 C789 1.348 1_655 S
N793 C785 1.427 . S
N793 C791 1.384 . S
H794 C800 0.930 . S
H795 C804 0.930 . S
H796 C809 0.929 . S
H797 C807 0.929 . S
H798 C802 0.929 . S
H799 C808 0.929 . S
C800 H794 0.930 . S
C800 C801 1.367 . S
C800 C808 1.378 . S
C801 C800 1.367 . S
C801 C809 1.433 . S
C802 H798 0.929 . S
C802 C804 1.378 . S
C802 C806 1.350 . S
C803 C806 1.463 . S
C803 C808 1.350 . S
C803 N811 1.427 . S
C804 H795 0.930 . S
C804 C802 1.378 . S
C804 C805 1.367 . S
C805 C804 1.367 . S
C805 C807 1.433 . S
C806 C802 1.350 . S
C806 C803 1.463 . S
C806 N810 1.427 . S
C807 H797 0.929 . S
C807 C805 1.433 . S
C807 N810 1.384 . S
C808 H799 0.929 . S
C808 C800 1.378 . S
C808 C803 1.350 . S
C809 H796 0.929 . S
C809 C801 1.433 . S
C809 N811 1.384 . S
N810 C806 1.427 . S
N810 C807 1.384 . S
N811 C803 1.427 . S
N811 C809 1.384 . S
H812 C818 0.930 . S
H813 C822 0.930 . S
H814 C827 0.929 . S
H815 C825 0.929 . S
H816 C820 0.929 . S
H817 C826 0.929 . S
C818 H812 0.930 . S
C818 C819 1.367 . S
C818 C826 1.378 . S
C819 C818 1.367 . S
C819 C827 1.433 1_565 S
C820 H816 0.929 . S
C820 C822 1.378 . S
C820 C824 1.350 1_545 S
C821 C824 1.463 . S
C821 C826 1.350 . S
C821 N829 1.427 1_565 S
C822 H813 0.930 . S
C822 C820 1.378 . S
C822 C823 1.367 1_545 S
C823 C822 1.367 1_565 S
C823 C825 1.433 . S
C824 C820 1.350 1_565 S
C824 C821 1.463 . S
C824 N828 1.427 . S
C825 H815 0.929 . S
C825 C823 1.433 . S
C825 N828 1.384 . S
C826 H817 0.929 . S
C826 C818 1.378 . S
C826 C821 1.350 . S
C827 H814 0.929 . S
C827 C819 1.433 1_545 S
C827 N829 1.384 . S
N828 C824 1.427 . S
N828 C825 1.384 . S
N829 C821 1.427 1_545 S
N829 C827 1.384 . S
H830 C836 0.930 . S
H831 C840 0.930 . S
H832 C845 0.929 . S
H833 C843 0.929 . S
H834 C838 0.929 . S
H835 C844 0.929 . S
C836 H830 0.930 . S
C836 C837 1.367 . S
C836 C844 1.378 . S
C837 C836 1.367 . S
C837 C845 1.433 . S
C838 H834 0.929 . S
C838 C840 1.378 . S
C838 C842 1.350 . S
C839 C842 1.463 . S
C839 C844 1.350 . S
C839 N847 1.427 . S
C840 H831 0.930 . S
C840 C838 1.378 . S
C840 C841 1.367 . S
C841 C840 1.367 . S
C841 C843 1.433 . S
C842 C838 1.350 . S
C842 C839 1.463 . S
C842 N846 1.427 . S
C843 H833 0.929 . S
C843 C841 1.433 . S
C843 N846 1.384 . S
C844 H835 0.929 . S
C844 C836 1.378 . S
C844 C839 1.350 . S
C845 H832 0.929 . S
C845 C837 1.433 . S
C845 N847 1.384 . S
N846 C842 1.427 . S
N846 C843 1.384 . S
N847 C839 1.427 . S
N847 C845 1.384 . S
H848 C854 0.930 . S
H849 C858 0.930 . S
H850 C863 0.929 . S
H851 C861 0.929 . S
H852 C856 0.929 . S
H853 C862 0.929 . S
C854 H848 0.930 . S
C854 C855 1.367 1_565 S
C854 C862 1.378 . S
C855 C854 1.367 1_545 S
C855 C863 1.433 . S
C856 H852 0.929 . S
C856 C858 1.378 . S
C856 C860 1.350 . S
C857 C860 1.463 . S
C857 C862 1.350 1_545 S
C857 N865 1.427 . S
C858 H849 0.930 . S
C858 C856 1.378 . S
C858 C859 1.367 . S
C859 C858 1.367 . S
C859 C861 1.433 1_545 S
C860 C856 1.350 . S
C860 C857 1.463 . S
C860 N864 1.427 1_545 S
C861 H851 0.929 . S
C861 C859 1.433 1_565 S
C861 N864 1.384 . S
C862 H853 0.929 . S
C862 C854 1.378 . S
C862 C857 1.350 1_565 S
C863 H850 0.929 . S
C863 C855 1.433 . S
C863 N865 1.384 . S
N864 C860 1.427 1_565 S
N864 C861 1.384 . S
N865 C857 1.427 . S
N865 C863 1.384 . S
H866 C872 0.930 . S
H867 C876 0.930 . S
H868 C881 0.929 . S
H869 C879 0.929 . S
H870 C874 0.929 . S
H871 C880 0.929 . S
C872 H866 0.930 . S
C872 C873 1.367 . S
C872 C880 1.378 . S
C873 C872 1.367 . S
C873 C881 1.433 . S
C874 H870 0.929 . S
C874 C876 1.378 . S
C874 C878 1.350 . S
C875 C878 1.463 . S
C875 C880 1.350 . S
C875 N883 1.427 . S
C876 H867 0.930 . S
C876 C874 1.378 . S
C876 C877 1.367 . S
C877 C876 1.367 . S
C877 C879 1.433 . S
C878 C874 1.350 . S
C878 C875 1.463 . S
C878 N882 1.427 . S
C879 H869 0.929 . S
C879 C877 1.433 . S
C879 N882 1.384 . S
C880 H871 0.929 . S
C880 C872 1.378 . S
C880 C875 1.350 . S
C881 H868 0.929 . S
C881 C873 1.433 . S
C881 N883 1.384 . S
N882 C878 1.427 . S
N882 C879 1.384 . S
N883 C875 1.427 . S
N883 C881 1.384 . S
H884 C890 0.930 . S
H885 C894 0.930 . S
H886 C899 0.929 . S
H887 C897 0.929 . S
H888 C892 0.929 . S
H889 C898 0.929 . S
C890 H884 0.930 . S
C890 C891 1.367 . S
C890 C898 1.378 . S
C891 C890 1.367 . S
C891 C899 1.433 1_545 S
C892 H888 0.929 . S
C892 C894 1.378 . S
C892 C896 1.350 . S
C893 C896 1.463 . S
C893 C898 1.350 . S
C893 N901 1.427 . S
C894 H885 0.930 . S
C894 C892 1.378 . S
C894 C895 1.367 . S
C895 C894 1.367 . S
C895 C897 1.433 . S
C896 C892 1.350 . S
C896 C893 1.463 . S
C896 N900 1.427 . S
C897 H887 0.929 . S
C897 C895 1.433 . S
C897 N900 1.384 . S
C898 H889 0.929 . S
C898 C890 1.378 . S
C898 C893 1.350 . S
C899 H886 0.929 . S
C899 C891 1.433 1_565 S
C899 N901 1.384 1_565 S
N900 C896 1.427 . S
N900 C897 1.384 . S
N901 C893 1.427 . S
N901 C899 1.384 1_545 S
H902 C908 0.930 . S
H903 C912 0.930 . S
H904 C917 0.929 . S
H905 C915 0.929 . S
H906 C910 0.929 . S
H907 C916 0.929 . S
C908 H902 0.930 . S
C908 C909 1.367 . S
C908 C916 1.378 . S
C909 C908 1.367 . S
C909 C917 1.433 . S
C910 H906 0.929 . S
C910 C912 1.378 . S
C910 C914 1.350 . S
C911 C914 1.463 . S
C911 C916 1.350 . S
C911 N919 1.427 . S
C912 H903 0.930 . S
C912 C910 1.378 . S
C912 C913 1.367 . S
C913 C912 1.367 . S
C913 C915 1.433 . S
C914 C910 1.350 . S
C914 C911 1.463 . S
C914 N918 1.427 . S
C915 H905 0.929 . S
C915 C913 1.433 . S
C915 N918 1.384 . S
C916 H907 0.929 . S
C916 C908 1.378 . S
C916 C911 1.350 . S
C917 H904 0.929 . S
C917 C909 1.433 . S
C917 N919 1.384 . S
N918 C914 1.427 . S
N918 C915 1.384 . S
N919 C911 1.427 . S
N919 C917 1.384 . S
H920 C926 0.930 . S
H921 C930 0.930 . S
H922 C935 0.929 1_556 S
H923 C933 0.929 . S
H924 C928 0.929 . S
H925 C934 0.929 . S
C926 H920 0.930 . S
C926 C927 1.367 . S
C926 C934 1.378 . S
C927 C926 1.367 . S
C927 C935 1.433 . S
C928 H924 0.929 . S
C928 C930 1.378 . S
C928 C932 1.350 . S
C929 C932 1.463 . S
C929 C934 1.350 . S
C929 N937 1.427 . S
C930 H921 0.930 . S
C930 C928 1.378 . S
C930 C931 1.367 . S
C931 C930 1.367 . S
C931 C933 1.433 . S
C932 C928 1.350 . S
C932 C929 1.463 . S
C932 N936 1.427 . S
C933 H923 0.929 . S
C933 C931 1.433 . S
C933 N936 1.384 . S
C934 H925 0.929 . S
C934 C926 1.378 . S
C934 C929 1.350 . S
C935 H922 0.929 1_554 S
C935 C927 1.433 . S
C935 N937 1.384 . S
N936 C932 1.427 . S
N936 C933 1.384 . S
N937 C929 1.427 . S
N937 C935 1.384 . S
H938 C944 0.930 . S
H939 C948 0.930 . S
H940 C953 0.929 . S
H941 C951 0.929 . S
H942 C946 0.929 . S
H943 C952 0.929 . S
C944 H938 0.930 . S
C944 C945 1.367 . S
C944 C952 1.378 . S
C945 C944 1.367 . S
C945 C953 1.433 1_556 S
C946 H942 0.929 . S
C946 C948 1.378 . S
C946 C950 1.335 1_554 S
C947 C950 1.468 . S
C947 C952 1.350 . S
C947 N955 1.427 1_556 S
C948 H939 0.930 . S
C948 C946 1.378 . S
C948 C949 1.367 . S
C949 C948 1.367 . S
C949 C951 1.433 1_554 S
C950 C946 1.335 1_556 S
C950 C947 1.468 . S
C950 N954 1.438 . S
C951 H941 0.929 . S
C951 C949 1.433 1_556 S
C951 N954 1.384 . S
C952 H943 0.929 . S
C952 C944 1.378 . S
C952 C947 1.350 . S
C953 H940 0.929 . S
C953 C945 1.433 1_554 S
C953 N955 1.384 . S
N954 C950 1.438 . S
N954 C951 1.384 . S
N955 C947 1.427 1_554 S
N955 C953 1.384 . S
H956 C962 0.930 . S
H957 C966 0.930 . S
H958 C971 0.929 . S
H959 C969 0.929 . S
H960 C964 0.929 . S
H961 C970 0.929 . S
C962 H956 0.930 . S
C962 C963 1.367 . S
C962 C970 1.378 . S
C963 C962 1.367 . S
C963 C971 1.433 . S
C964 H960 0.929 . S
C964 C966 1.378 . S
C964 C968 1.350 . S
C965 C968 1.463 . S
C965 C970 1.350 . S
C965 N973 1.427 . S
C966 H957 0.930 . S
C966 C964 1.378 . S
C966 C967 1.367 . S
C967 C966 1.367 . S
C967 C969 1.433 . S
C968 C964 1.350 . S
C968 C965 1.463 . S
C968 N972 1.427 . S
C969 H959 0.929 . S
C969 C967 1.433 . S
C969 N972 1.384 . S
C970 H961 0.929 . S
C970 C962 1.378 . S
C970 C965 1.350 . S
C971 H958 0.929 . S
C971 C963 1.433 . S
C971 N973 1.384 . S
N972 C968 1.427 . S
N972 C969 1.384 . S
N973 C965 1.427 . S
N973 C971 1.384 . S
H974 C980 0.930 . S
H975 C984 0.930 . S
H976 C989 0.929 . S
H977 C987 0.929 . S
H978 C982 0.929 . S
H979 C988 0.929 . S
C980 H974 0.930 . S
C980 C981 1.367 . S
C980 C988 1.378 . S
C981 C980 1.367 . S
C981 C989 1.433 . S
C982 H978 0.929 . S
C982 C984 1.378 . S
C982 C986 1.350 . S
C983 C986 1.463 . S
C983 C988 1.350 . S
C983 N991 1.427 . S
C984 H975 0.930 . S
C984 C982 1.378 . S
C984 C985 1.367 . S
C985 C984 1.367 . S
C985 C987 1.433 . S
C986 C982 1.350 . S
C986 C983 1.463 . S
C986 N990 1.427 . S
C987 H977 0.929 . S
C987 C985 1.433 . S
C987 N990 1.384 . S
C988 H979 0.929 . S
C988 C980 1.378 . S
C988 C983 1.350 . S
C989 H976 0.929 . S
C989 C981 1.433 . S
C989 N991 1.384 . S
N990 C986 1.427 . S
N990 C987 1.384 . S
N991 C983 1.427 . S
N991 C989 1.384 . S
H992 C998 0.930 . S
H993 C1002 0.930 . S
H994 C1007 0.929 . S
H995 C1005 0.929 . S
H996 C1000 0.929 . S
H997 C1006 0.929 . S
C998 H992 0.930 . S
C998 C999 1.367 . S
C998 C1006 1.378 . S
C999 C998 1.367 . S
C999 C1007 1.433 . S
C1000 H996 0.929 . S
C1000 C1002 1.378 . S
C1000 C1004 1.350 . S
C1001 C1004 1.463 . S
C1001 C1006 1.350 . S
C1001 N1009 1.427 . S
C1002 H993 0.930 . S
C1002 C1000 1.378 . S
C1002 C1003 1.367 . S
C1003 C1002 1.367 . S
C1003 C1005 1.433 . S
C1004 C1000 1.350 . S
C1004 C1001 1.463 . S
C1004 N1008 1.427 . S
C1005 H995 0.929 . S
C1005 C1003 1.433 . S
C1005 N1008 1.384 . S
C1006 H997 0.929 . S
C1006 C998 1.378 . S
C1006 C1001 1.350 . S
C1007 H994 0.929 . S
C1007 C999 1.433 . S
C1007 N1009 1.384 . S
N1008 C1004 1.427 . S
N1008 C1005 1.384 . S
N1009 C1001 1.427 . S
N1009 C1007 1.384 . S
H1010 C1016 0.930 . S
H1011 C1020 0.930 . S
H1012 C1025 0.929 . S
H1013 C1023 0.929 . S
H1014 C1018 0.929 . S
H1015 C1024 0.929 . S
C1016 H1010 0.930 . S
C1016 C1017 1.367 . S
C1016 C1024 1.378 . S
C1017 C1016 1.367 . S
C1017 C1025 1.433 . S
C1018 H1014 0.929 . S
C1018 C1020 1.378 . S
C1018 C1022 1.350 . S
C1019 C1022 1.463 . S
C1019 C1024 1.350 . S
C1019 N1027 1.427 . S
C1020 H1011 0.930 . S
C1020 C1018 1.378 . S
C1020 C1021 1.367 . S
C1021 C1020 1.367 . S
C1021 C1023 1.433 . S
C1022 C1018 1.350 . S
C1022 C1019 1.463 . S
C1022 N1026 1.427 . S
C1023 H1013 0.929 . S
C1023 C1021 1.433 . S
C1023 N1026 1.384 . S
C1024 H1015 0.929 . S
C1024 C1016 1.378 . S
C1024 C1019 1.350 . S
C1025 H1012 0.929 . S
C1025 C1017 1.433 . S
C1025 N1027 1.384 . S
N1026 C1022 1.427 . S
N1026 C1023 1.384 . S
N1027 C1019 1.427 . S
N1027 C1025 1.384 . S
H1028 C1034 0.930 . S
H1029 C1038 0.930 . S
H1030 C1043 0.929 . S
H1031 C1041 0.929 . S
H1032 C1036 0.929 . S
H1033 C1042 0.929 . S
C1034 H1028 0.930 . S
C1034 C1035 1.367 . S
C1034 C1042 1.378 . S
C1035 C1034 1.367 . S
C1035 C1043 1.433 . S
C1036 H1032 0.929 . S
C1036 C1038 1.378 . S
C1036 C1040 1.350 . S
C1037 C1040 1.463 . S
C1037 C1042 1.350 . S
C1037 N1045 1.427 . S
C1038 H1029 0.930 . S
C1038 C1036 1.378 . S
C1038 C1039 1.367 . S
C1039 C1038 1.367 . S
C1039 C1041 1.433 . S
C1040 C1036 1.350 . S
C1040 C1037 1.463 . S
C1040 N1044 1.427 . S
C1041 H1031 0.929 . S
C1041 C1039 1.433 . S
C1041 N1044 1.384 . S
C1042 H1033 0.929 . S
C1042 C1034 1.378 . S
C1042 C1037 1.350 . S
C1043 H1030 0.929 . S
C1043 C1035 1.433 . S
C1043 N1045 1.384 . S
N1044 C1040 1.427 . S
N1044 C1041 1.384 . S
N1045 C1037 1.427 . S
N1045 C1043 1.384 . S
H1046 C1052 0.930 . S
H1047 C1056 0.930 . S
H1048 C1061 0.929 . S
H1049 C1059 0.929 . S
H1050 C1054 0.929 . S
H1051 C1060 0.929 . S
C1052 H1046 0.930 . S
C1052 C1053 1.367 . S
C1052 C1060 1.378 . S
C1053 C1052 1.367 . S
C1053 C1061 1.433 . S
C1054 H1050 0.929 . S
C1054 C1056 1.378 . S
C1054 C1058 1.350 . S
C1055 C1058 1.463 . S
C1055 C1060 1.350 . S
C1055 N1063 1.427 . S
C1056 H1047 0.930 . S
C1056 C1054 1.378 . S
C1056 C1057 1.367 . S
C1057 C1056 1.367 . S
C1057 C1059 1.433 . S
C1058 C1054 1.350 . S
C1058 C1055 1.463 . S
C1058 N1062 1.427 . S
C1059 H1049 0.929 . S
C1059 C1057 1.433 . S
C1059 N1062 1.384 . S
C1060 H1051 0.929 . S
C1060 C1052 1.378 . S
C1060 C1055 1.350 . S
C1061 H1048 0.929 . S
C1061 C1053 1.433 . S
C1061 N1063 1.384 . S
N1062 C1058 1.427 . S
N1062 C1059 1.384 . S
N1063 C1055 1.427 . S
N1063 C1061 1.384 . S
H1064 C1070 0.930 . S
H1065 C1074 0.930 . S
H1066 C1079 0.929 . S
H1067 C1077 0.929 . S
H1068 C1072 0.929 . S
H1069 C1078 0.929 . S
C1070 H1064 0.930 . S
C1070 C1071 1.367 . S
C1070 C1078 1.378 . S
C1071 C1070 1.367 . S
C1071 C1079 1.433 . S
C1072 H1068 0.929 . S
C1072 C1074 1.378 . S
C1072 C1076 1.350 . S
C1073 C1076 1.463 . S
C1073 C1078 1.350 . S
C1073 N1081 1.427 . S
C1074 H1065 0.930 . S
C1074 C1072 1.378 . S
C1074 C1075 1.367 . S
C1075 C1074 1.367 . S
C1075 C1077 1.433 . S
C1076 C1072 1.350 . S
C1076 C1073 1.463 . S
C1076 N1080 1.427 . S
C1077 H1067 0.929 . S
C1077 C1075 1.433 . S
C1077 N1080 1.384 . S
C1078 H1069 0.929 . S
C1078 C1070 1.378 . S
C1078 C1073 1.350 . S
C1079 H1066 0.929 . S
C1079 C1071 1.433 . S
C1079 N1081 1.384 . S
N1080 C1076 1.427 . S
N1080 C1077 1.384 . S
N1081 C1073 1.427 . S
N1081 C1079 1.384 . S
H1082 C1088 0.930 . S
H1083 C1092 0.930 . S
H1084 C1097 0.929 . S
H1085 C1095 0.929 . S
H1086 C1090 0.929 . S
H1087 C1096 0.929 . S
C1088 H1082 0.930 . S
C1088 C1089 1.367 . S
C1088 C1096 1.378 . S
C1089 C1088 1.367 . S
C1089 C1097 1.433 . S
C1090 H1086 0.929 . S
C1090 C1092 1.378 . S
C1090 C1094 1.350 . S
C1091 C1094 1.463 . S
C1091 C1096 1.350 . S
C1091 N1099 1.427 . S
C1092 H1083 0.930 . S
C1092 C1090 1.378 . S
C1092 C1093 1.367 . S
C1093 C1092 1.367 . S
C1093 C1095 1.433 . S
C1094 C1090 1.350 . S
C1094 C1091 1.463 . S
C1094 N1098 1.427 . S
C1095 H1085 0.929 . S
C1095 C1093 1.433 . S
C1095 N1098 1.384 . S
C1096 H1087 0.929 . S
C1096 C1088 1.378 . S
C1096 C1091 1.350 . S
C1097 H1084 0.929 . S
C1097 C1089 1.433 . S
C1097 N1099 1.384 . S
N1098 C1094 1.427 . S
N1098 C1095 1.384 . S
N1099 C1091 1.427 . S
N1099 C1097 1.384 . S
H1100 C1106 0.930 . S
H1101 C1110 0.930 . S
H1102 C1115 0.929 . S
H1103 C1113 0.929 . S
H1104 C1108 0.929 . S
H1105 C1114 0.929 . S
C1106 H1100 0.930 . S
C1106 C1107 1.367 . S
C1106 C1114 1.378 . S
C1107 C1106 1.367 . S
C1107 C1115 1.433 . S
C1108 H1104 0.929 . S
C1108 C1110 1.378 . S
C1108 C1112 1.350 . S
C1109 C1112 1.463 . S
C1109 C1114 1.350 . S
C1109 N1117 1.427 . S
C1110 H1101 0.930 . S
C1110 C1108 1.378 . S
C1110 C1111 1.367 . S
C1111 C1110 1.367 . S
C1111 C1113 1.433 . S
C1112 C1108 1.350 . S
C1112 C1109 1.463 . S
C1112 N1116 1.427 . S
C1113 H1103 0.929 . S
C1113 C1111 1.433 . S
C1113 N1116 1.384 . S
C1114 H1105 0.929 . S
C1114 C1106 1.378 . S
C1114 C1109 1.350 . S
C1115 H1102 0.929 . S
C1115 C1107 1.433 . S
C1115 N1117 1.384 . S
N1116 C1112 1.427 . S
N1116 C1113 1.384 . S
N1117 C1109 1.427 . S
N1117 C1115 1.384 . S
H1118 C1124 0.930 . S
H1119 C1128 0.930 . S
H1120 C1133 0.929 . S
H1121 C1131 0.929 . S
H1122 C1126 0.929 . S
H1123 C1132 0.929 . S
C1124 H1118 0.930 . S
C1124 C1125 1.367 . S
C1124 C1132 1.378 . S
C1125 C1124 1.367 . S
C1125 C1133 1.433 . S
C1126 H1122 0.929 . S
C1126 C1128 1.378 . S
C1126 C1130 1.350 . S
C1127 C1130 1.463 . S
C1127 C1132 1.350 . S
C1127 N1135 1.427 . S
C1128 H1119 0.930 . S
C1128 C1126 1.378 . S
C1128 C1129 1.367 . S
C1129 C1128 1.367 . S
C1129 C1131 1.433 . S
C1130 C1126 1.350 . S
C1130 C1127 1.463 . S
C1130 N1134 1.427 . S
C1131 H1121 0.929 . S
C1131 C1129 1.433 . S
C1131 N1134 1.384 . S
C1132 H1123 0.929 . S
C1132 C1124 1.378 . S
C1132 C1127 1.350 . S
C1133 H1120 0.929 . S
C1133 C1125 1.433 . S
C1133 N1135 1.384 . S
N1134 C1130 1.427 . S
N1134 C1131 1.384 . S
N1135 C1127 1.427 . S
N1135 C1133 1.384 . S
H1136 C1142 0.930 . S
H1137 C1146 0.930 . S
H1138 C1151 0.929 . S
H1139 C1149 0.929 . S
H1140 C1144 0.929 . S
H1141 C1150 0.929 . S
C1142 H1136 0.930 . S
C1142 C1143 1.367 . S
C1142 C1150 1.378 . S
C1143 C1142 1.367 . S
C1143 C1151 1.433 . S
C1144 H1140 0.929 . S
C1144 C1146 1.378 . S
C1144 C1148 1.350 . S
C1145 C1148 1.463 . S
C1145 C1150 1.350 . S
C1145 N1153 1.427 . S
C1146 H1137 0.930 . S
C1146 C1144 1.378 . S
C1146 C1147 1.367 . S
C1147 C1146 1.367 . S
C1147 C1149 1.433 . S
C1148 C1144 1.350 . S
C1148 C1145 1.463 . S
C1148 N1152 1.427 . S
C1149 H1139 0.929 . S
C1149 C1147 1.433 . S
C1149 N1152 1.384 . S
C1150 H1141 0.929 . S
C1150 C1142 1.378 . S
C1150 C1145 1.350 . S
C1151 H1138 0.929 . S
C1151 C1143 1.433 . S
C1151 N1153 1.384 . S
N1152 C1148 1.427 . S
N1152 C1149 1.384 . S
N1153 C1145 1.427 . S
N1153 C1151 1.384 . S
H1154 C1160 0.930 . S
H1155 C1164 0.930 . S
H1156 C1169 0.929 . S
H1157 C1167 0.929 . S
H1158 C1162 0.929 . S
H1159 C1168 0.929 . S
C1160 H1154 0.930 . S
C1160 C1161 1.367 . S
C1160 C1168 1.378 . S
C1161 C1160 1.367 . S
C1161 C1169 1.433 . S
C1162 H1158 0.929 . S
C1162 C1164 1.378 . S
C1162 C1166 1.350 . S
C1163 C1166 1.463 . S
C1163 C1168 1.350 . S
C1163 N1171 1.427 . S
C1164 H1155 0.930 . S
C1164 C1162 1.378 . S
C1164 C1165 1.367 . S
C1165 C1164 1.367 . S
C1165 C1167 1.433 . S
C1166 C1162 1.350 . S
C1166 C1163 1.463 . S
C1166 N1170 1.427 . S
C1167 H1157 0.929 . S
C1167 C1165 1.433 . S
C1167 N1170 1.384 . S
C1168 H1159 0.929 . S
C1168 C1160 1.378 . S
C1168 C1163 1.350 . S
C1169 H1156 0.929 . S
C1169 C1161 1.433 . S
C1169 N1171 1.384 . S
N1170 C1166 1.427 . S
N1170 C1167 1.384 . S
N1171 C1163 1.427 . S
N1171 C1169 1.384 . S
H1172 C1178 0.930 . S
H1173 C1182 0.930 . S
H1174 C1187 0.929 . S
H1175 C1185 0.929 . S
H1176 C1180 0.944 . S
H1177 C1186 0.929 . S
C1178 H1172 0.930 . S
C1178 C1179 1.367 . S
C1178 C1186 1.378 . S
C1179 C1178 1.367 . S
C1179 C1187 1.433 . S
C1180 H1176 0.944 . S
C1180 C1182 1.378 1_556 S
C1180 C1184 1.350 . S
C1181 C1184 1.463 . S
C1181 C1186 1.350 . S
C1181 N1189 1.427 . S
C1182 H1173 0.930 . S
C1182 C1180 1.378 1_554 S
C1182 C1183 1.367 1_554 S
C1183 C1182 1.367 1_556 S
C1183 C1185 1.433 . S
C1184 C1180 1.350 . S
C1184 C1181 1.463 . S
C1184 N1188 1.427 . S
C1185 H1175 0.929 . S
C1185 C1183 1.433 . S
C1185 N1188 1.384 . S
C1186 H1177 0.929 . S
C1186 C1178 1.378 . S
C1186 C1181 1.350 . S
C1187 H1174 0.929 . S
C1187 C1179 1.433 . S
C1187 N1189 1.384 . S
N1188 C1184 1.427 . S
N1188 C1185 1.384 . S
N1189 C1181 1.427 . S
N1189 C1187 1.384 . S
H1190 C1196 0.930 . S
H1191 C1200 0.930 . S
H1192 C1205 0.929 . S
H1193 C1203 0.929 . S
H1194 C1198 0.929 . S
H1195 C1204 0.929 . S
C1196 H1190 0.930 . S
C1196 C1197 1.367 . S
C1196 C1204 1.378 . S
C1197 C1196 1.367 . S
C1197 C1205 1.433 . S
C1198 H1194 0.929 . S
C1198 C1200 1.378 . S
C1198 C1202 1.350 . S
C1199 C1202 1.463 . S
C1199 C1204 1.350 . S
C1199 N1207 1.427 . S
C1200 H1191 0.930 . S
C1200 C1198 1.378 . S
C1200 C1201 1.367 . S
C1201 C1200 1.367 . S
C1201 C1203 1.433 . S
C1202 C1198 1.350 . S
C1202 C1199 1.463 . S
C1202 N1206 1.427 . S
C1203 H1193 0.929 . S
C1203 C1201 1.433 . S
C1203 N1206 1.384 . S
C1204 H1195 0.929 . S
C1204 C1196 1.378 . S
C1204 C1199 1.350 . S
C1205 H1192 0.929 . S
C1205 C1197 1.433 . S
C1205 N1207 1.384 . S
N1206 C1202 1.427 . S
N1206 C1203 1.384 . S
N1207 C1199 1.427 . S
N1207 C1205 1.384 . S
H1208 C1214 0.930 1_565 S
H1209 C1218 0.930 . S
H1210 C1223 0.929 . S
H1211 C1221 0.930 1_565 S
H1212 C1216 0.929 . S
H1213 C1222 0.929 1_565 S
C1214 H1208 0.930 1_545 S
C1214 C1215 1.367 . S
C1214 C1222 1.378 . S
C1215 C1214 1.367 . S
C1215 C1223 1.433 . S
C1216 H1212 0.929 . S
C1216 C1218 1.378 . S
C1216 C1220 1.350 . S
C1217 C1220 1.463 . S
C1217 C1222 1.350 . S
C1217 N1225 1.427 . S
C1218 H1209 0.930 . S
C1218 C1216 1.378 . S
C1218 C1219 1.367 . S
C1219 C1218 1.367 . S
C1219 C1221 1.432 . S
C1220 C1216 1.350 . S
C1220 C1217 1.463 . S
C1220 N1224 1.457 . S
C1221 H1211 0.930 1_545 S
C1221 C1219 1.432 . S
C1221 N1224 1.383 . S
C1222 H1213 0.929 1_545 S
C1222 C1214 1.378 . S
C1222 C1217 1.350 . S
C1223 H1210 0.929 . S
C1223 C1215 1.433 . S
C1223 N1225 1.384 . S
N1224 C1220 1.457 . S
N1224 C1221 1.383 . S
N1225 C1217 1.427 . S
N1225 C1223 1.384 . S
H1226 C1232 0.930 . S
H1227 C1236 0.930 . S
H1228 C1241 0.929 . S
H1229 C1239 0.929 . S
H1230 C1234 0.929 . S
H1231 C1240 0.929 . S
C1232 H1226 0.930 . S
C1232 C1233 1.367 . S
C1232 C1240 1.378 . S
C1233 C1232 1.367 . S
C1233 C1241 1.433 . S
C1234 H1230 0.929 . S
C1234 C1236 1.378 . S
C1234 C1238 1.350 . S
C1235 C1238 1.463 . S
C1235 C1240 1.350 . S
C1235 N1243 1.427 . S
C1236 H1227 0.930 . S
C1236 C1234 1.378 . S
C1236 C1237 1.367 . S
C1237 C1236 1.367 . S
C1237 C1239 1.433 . S
C1238 C1234 1.350 . S
C1238 C1235 1.463 . S
C1238 N1242 1.427 . S
C1239 H1229 0.929 . S
C1239 C1237 1.433 . S
C1239 N1242 1.384 . S
C1240 H1231 0.929 . S
C1240 C1232 1.378 . S
C1240 C1235 1.350 . S
C1241 H1228 0.929 . S
C1241 C1233 1.433 . S
C1241 N1243 1.384 . S
N1242 C1238 1.427 . S
N1242 C1239 1.384 . S
N1243 C1235 1.427 . S
N1243 C1241 1.384 . S
H1244 C1250 0.930 . S
H1245 C1254 0.930 . S
H1246 C1259 0.929 1_565 S
H1247 C1257 0.929 . S
H1248 C1252 0.916 1_565 S
H1249 C1258 0.929 . S
C1250 H1244 0.930 . S
C1250 C1251 1.367 . S
C1250 C1258 1.378 . S
C1251 C1250 1.367 . S
C1251 C1259 1.433 . S
C1252 H1248 0.916 1_545 S
C1252 C1254 1.373 1_545 S
C1252 C1256 1.367 . S
C1253 C1256 1.463 . S
C1253 C1258 1.350 . S
C1253 N1261 1.427 . S
C1254 H1245 0.930 . S
C1254 C1252 1.373 1_565 S
C1254 C1255 1.367 1_565 S
C1255 C1254 1.367 1_545 S
C1255 C1257 1.433 . S
C1256 C1252 1.367 . S
C1256 C1253 1.463 . S
C1256 N1260 1.427 . S
C1257 H1247 0.929 . S
C1257 C1255 1.433 . S
C1257 N1260 1.384 . S
C1258 H1249 0.929 . S
C1258 C1250 1.378 . S
C1258 C1253 1.350 . S
C1259 H1246 0.929 1_545 S
C1259 C1251 1.433 . S
C1259 N1261 1.384 . S
N1260 C1256 1.427 . S
N1260 C1257 1.384 . S
N1261 C1253 1.427 . S
N1261 C1259 1.384 . S
H1262 C1268 0.930 . S
H1263 C1272 0.930 . S
H1264 C1277 0.929 . S
H1265 C1275 0.929 . S
H1266 C1270 0.929 . S
H1267 C1276 0.929 . S
C1268 H1262 0.930 . S
C1268 C1269 1.367 . S
C1268 C1276 1.378 . S
C1269 C1268 1.367 . S
C1269 C1277 1.433 . S
C1270 H1266 0.929 . S
C1270 C1272 1.378 . S
C1270 C1274 1.350 . S
C1271 C1274 1.463 . S
C1271 C1276 1.350 . S
C1271 N1279 1.427 . S
C1272 H1263 0.930 . S
C1272 C1270 1.378 . S
C1272 C1273 1.367 . S
C1273 C1272 1.367 . S
C1273 C1275 1.433 . S
C1274 C1270 1.350 . S
C1274 C1271 1.463 . S
C1274 N1278 1.427 . S
C1275 H1265 0.929 . S
C1275 C1273 1.433 . S
C1275 N1278 1.384 . S
C1276 H1267 0.929 . S
C1276 C1268 1.378 . S
C1276 C1271 1.350 . S
C1277 H1264 0.929 . S
C1277 C1269 1.433 . S
C1277 N1279 1.384 . S
N1278 C1274 1.427 . S
N1278 C1275 1.384 . S
N1279 C1271 1.427 . S
N1279 C1277 1.384 . S
H1280 C1286 0.930 . S
H1281 C1290 0.930 . S
H1282 C1295 0.929 . S
H1283 C1293 0.929 . S
H1284 C1288 0.929 . S
H1285 C1294 0.929 . S
C1286 H1280 0.930 . S
C1286 C1287 1.367 . S
C1286 C1294 1.378 . S
C1287 C1286 1.367 . S
C1287 C1295 1.433 1_545 S
C1288 H1284 0.929 . S
C1288 C1290 1.378 . S
C1288 C1292 1.350 1_565 S
C1289 C1292 1.463 . S
C1289 C1294 1.350 . S
C1289 N1297 1.427 1_545 S
C1290 H1281 0.930 . S
C1290 C1288 1.378 . S
C1290 C1291 1.367 1_565 S
C1291 C1290 1.367 1_545 S
C1291 C1293 1.433 . S
C1292 C1288 1.350 1_545 S
C1292 C1289 1.463 . S
C1292 N1296 1.427 . S
C1293 H1283 0.929 . S
C1293 C1291 1.433 . S
C1293 N1296 1.384 . S
C1294 H1285 0.929 . S
C1294 C1286 1.378 . S
C1294 C1289 1.350 . S
C1295 H1282 0.929 . S
C1295 C1287 1.433 1_565 S
C1295 N1297 1.384 . S
N1296 C1292 1.427 . S
N1296 C1293 1.384 . S
N1297 C1289 1.427 1_565 S
N1297 C1295 1.384 . S
H1298 C1304 0.930 . S
H1299 C1308 0.930 . S
H1300 C1313 0.929 . S
H1301 C1311 0.929 . S
H1302 C1306 0.929 . S
H1303 C1312 0.929 . S
C1304 H1298 0.930 . S
C1304 C1305 1.367 . S
C1304 C1312 1.378 . S
C1305 C1304 1.367 . S
C1305 C1313 1.433 . S
C1306 H1302 0.929 . S
C1306 C1308 1.378 . S
C1306 C1310 1.350 . S
C1307 C1310 1.463 . S
C1307 C1312 1.350 . S
C1307 N1315 1.427 . S
C1308 H1299 0.930 . S
C1308 C1306 1.378 . S
C1308 C1309 1.367 . S
C1309 C1308 1.367 . S
C1309 C1311 1.433 . S
C1310 C1306 1.350 . S
C1310 C1307 1.463 . S
C1310 N1314 1.427 . S
C1311 H1301 0.929 . S
C1311 C1309 1.433 . S
C1311 N1314 1.384 . S
C1312 H1303 0.929 . S
C1312 C1304 1.378 . S
C1312 C1307 1.350 . S
C1313 H1300 0.929 . S
C1313 C1305 1.433 . S
C1313 N1315 1.384 . S
N1314 C1310 1.427 . S
N1314 C1311 1.384 . S
N1315 C1307 1.427 . S
N1315 C1313 1.384 . S
H1316 C1322 0.930 1_565 S
H1317 C1326 0.930 . S
H1318 C1331 0.929 . S
H1319 C1329 0.929 . S
H1320 C1324 0.929 . S
H1321 C1330 0.929 1_565 S
C1322 H1316 0.930 1_545 S
C1322 C1323 1.367 . S
C1322 C1330 1.378 . S
C1323 C1322 1.367 . S
C1323 C1331 1.433 . S
C1324 H1320 0.929 . S
C1324 C1326 1.378 . S
C1324 C1328 1.350 . S
C1325 C1328 1.463 . S
C1325 C1330 1.350 . S
C1325 N1333 1.427 . S
C1326 H1317 0.930 . S
C1326 C1324 1.378 . S
C1326 C1327 1.367 . S
C1327 C1326 1.367 . S
C1327 C1329 1.433 1_545 S
C1328 C1324 1.350 . S
C1328 C1325 1.463 . S
C1328 N1332 1.427 1_545 S
C1329 H1319 0.929 . S
C1329 C1327 1.433 1_565 S
C1329 N1332 1.384 . S
C1330 H1321 0.929 1_545 S
C1330 C1322 1.378 . S
C1330 C1325 1.350 . S
C1331 H1318 0.929 . S
C1331 C1323 1.433 . S
C1331 N1333 1.384 . S
N1332 C1328 1.427 1_565 S
N1332 C1329 1.384 . S
N1333 C1325 1.427 . S
N1333 C1331 1.384 . S
H1334 C1340 0.930 . S
H1335 C1344 0.930 . S
H1336 C1349 0.929 . S
H1337 C1347 0.929 . S
H1338 C1342 0.929 . S
H1339 C1348 0.929 . S
C1340 H1334 0.930 . S
C1340 C1341 1.367 . S
C1340 C1348 1.378 . S
C1341 C1340 1.367 . S
C1341 C1349 1.433 . S
C1342 H1338 0.929 . S
C1342 C1344 1.378 . S
C1342 C1346 1.350 . S
C1343 C1346 1.463 . S
C1343 C1348 1.350 . S
C1343 N1351 1.427 . S
C1344 H1335 0.930 . S
C1344 C1342 1.378 . S
C1344 C1345 1.367 . S
C1345 C1344 1.367 . S
C1345 C1347 1.433 . S
C1346 C1342 1.350 . S
C1346 C1343 1.463 . S
C1346 N1350 1.427 . S
C1347 H1337 0.929 . S
C1347 C1345 1.433 . S
C1347 N1350 1.384 . S
C1348 H1339 0.929 . S
C1348 C1340 1.378 . S
C1348 C1343 1.350 . S
C1349 H1336 0.929 . S
C1349 C1341 1.433 . S
C1349 N1351 1.384 . S
N1350 C1346 1.427 . S
N1350 C1347 1.384 . S
N1351 C1343 1.427 . S
N1351 C1349 1.384 . S
H1352 C1358 0.930 . S
H1353 C1362 0.930 . S
H1354 C1367 0.929 . S
H1355 C1365 0.929 1_556 S
H1356 C1360 0.929 . S
H1357 C1366 0.929 . S
C1358 H1352 0.930 . S
C1358 C1359 1.367 . S
C1358 C1366 1.378 . S
C1359 C1358 1.367 . S
C1359 C1367 1.433 . S
C1360 H1356 0.929 . S
C1360 C1362 1.378 . S
C1360 C1364 1.350 . S
C1361 C1364 1.463 . S
C1361 C1366 1.350 . S
C1361 N1369 1.427 . S
C1362 H1353 0.930 . S
C1362 C1360 1.378 . S
C1362 C1363 1.367 . S
C1363 C1362 1.367 . S
C1363 C1365 1.433 . S
C1364 C1360 1.350 . S
C1364 C1361 1.463 . S
C1364 N1368 1.427 . S
C1365 H1355 0.929 1_554 S
C1365 C1363 1.433 . S
C1365 N1368 1.384 . S
C1366 H1357 0.929 . S
C1366 C1358 1.378 . S
C1366 C1361 1.350 . S
C1367 H1354 0.929 . S
C1367 C1359 1.433 . S
C1367 N1369 1.384 . S
N1368 C1364 1.427 . S
N1368 C1365 1.384 . S
N1369 C1361 1.427 . S
N1369 C1367 1.384 . S
H1370 C1376 0.930 . S
H1371 C1380 0.930 . S
H1372 C1385 0.929 . S
H1373 C1383 0.929 1_556 S
H1374 C1378 0.929 . S
H1375 C1384 0.907 1_556 S
C1376 H1370 0.930 . S
C1376 C1377 1.367 . S
C1376 C1384 1.378 . S
C1377 C1376 1.367 . S
C1377 C1385 1.433 . S
C1378 H1374 0.929 . S
C1378 C1380 1.378 . S
C1378 C1382 1.350 . S
C1379 C1382 1.463 . S
C1379 C1384 1.350 . S
C1379 N1387 1.427 . S
C1380 H1371 0.930 . S
C1380 C1378 1.378 . S
C1380 C1381 1.367 . S
C1381 C1380 1.367 . S
C1381 C1383 1.433 . S
C1382 C1378 1.350 . S
C1382 C1379 1.463 . S
C1382 N1386 1.427 . S
C1383 H1373 0.929 1_554 S
C1383 C1381 1.433 . S
C1383 N1386 1.384 . S
C1384 H1375 0.907 1_554 S
C1384 C1376 1.378 . S
C1384 C1379 1.350 . S
C1385 H1372 0.929 . S
C1385 C1377 1.433 . S
C1385 N1387 1.384 . S
N1386 C1382 1.427 . S
N1386 C1383 1.384 . S
N1387 C1379 1.427 . S
N1387 C1385 1.384 . S
H1388 C1394 0.930 . S
H1389 C1398 0.930 . S
H1390 C1403 0.929 . S
H1391 C1401 0.929 . S
H1392 C1396 0.929 . S
H1393 C1402 0.929 . S
C1394 H1388 0.930 . S
C1394 C1395 1.367 . S
C1394 C1402 1.378 . S
C1395 C1394 1.367 . S
C1395 C1403 1.433 . S
C1396 H1392 0.929 . S
C1396 C1398 1.378 . S
C1396 C1400 1.350 . S
C1397 C1400 1.463 . S
C1397 C1402 1.350 . S
C1397 N1405 1.427 . S
C1398 H1389 0.930 . S
C1398 C1396 1.378 . S
C1398 C1399 1.367 . S
C1399 C1398 1.367 . S
C1399 C1401 1.433 . S
C1400 C1396 1.350 . S
C1400 C1397 1.463 . S
C1400 N1404 1.427 . S
C1401 H1391 0.929 . S
C1401 C1399 1.433 . S
C1401 N1404 1.384 . S
C1402 H1393 0.929 . S
C1402 C1394 1.378 . S
C1402 C1397 1.350 . S
C1403 H1390 0.929 . S
C1403 C1395 1.433 . S
C1403 N1405 1.384 . S
N1404 C1400 1.427 . S
N1404 C1401 1.384 . S
N1405 C1397 1.427 . S
N1405 C1403 1.384 . S
H1406 C1412 0.930 . S
H1407 C1416 0.930 . S
H1408 C1421 0.929 . S
H1409 C1419 0.929 . S
H1410 C1414 0.929 . S
H1411 C1420 0.929 . S
C1412 H1406 0.930 . S
C1412 C1413 1.367 . S
C1412 C1420 1.378 . S
C1413 C1412 1.367 . S
C1413 C1421 1.433 . S
C1414 H1410 0.929 . S
C1414 C1416 1.378 . S
C1414 C1418 1.350 . S
C1415 C1418 1.463 . S
C1415 C1420 1.350 . S
C1415 N1423 1.427 . S
C1416 H1407 0.930 . S
C1416 C1414 1.378 . S
C1416 C1417 1.367 . S
C1417 C1416 1.367 . S
C1417 C1419 1.433 . S
C1418 C1414 1.350 . S
C1418 C1415 1.463 . S
C1418 N1422 1.427 . S
C1419 H1409 0.929 . S
C1419 C1417 1.433 . S
C1419 N1422 1.384 . S
C1420 H1411 0.929 . S
C1420 C1412 1.378 . S
C1420 C1415 1.350 . S
C1421 H1408 0.929 . S
C1421 C1413 1.433 . S
C1421 N1423 1.384 . S
N1422 C1418 1.427 . S
N1422 C1419 1.384 . S
N1423 C1415 1.427 . S
N1423 C1421 1.384 . S
H1424 C1430 0.930 . S
H1425 C1434 0.930 . S
H1426 C1439 0.929 . S
H1427 C1437 0.929 . S
H1428 C1432 0.929 . S
H1429 C1438 0.929 . S
C1430 H1424 0.930 . S
C1430 C1431 1.367 . S
C1430 C1438 1.378 . S
C1431 C1430 1.367 . S
C1431 C1439 1.433 . S
C1432 H1428 0.929 . S
C1432 C1434 1.378 . S
C1432 C1436 1.350 . S
C1433 C1436 1.463 . S
C1433 C1438 1.350 . S
C1433 N1441 1.427 . S
C1434 H1425 0.930 . S
C1434 C1432 1.378 . S
C1434 C1435 1.367 . S
C1435 C1434 1.367 . S
C1435 C1437 1.433 . S
C1436 C1432 1.350 . S
C1436 C1433 1.463 . S
C1436 N1440 1.427 . S
C1437 H1427 0.929 . S
C1437 C1435 1.433 . S
C1437 N1440 1.384 . S
C1438 H1429 0.929 . S
C1438 C1430 1.378 . S
C1438 C1433 1.350 . S
C1439 H1426 0.929 . S
C1439 C1431 1.433 . S
C1439 N1441 1.384 . S
N1440 C1436 1.427 . S
N1440 C1437 1.384 . S
N1441 C1433 1.427 . S
N1441 C1439 1.384 . S
H1442 C1448 0.930 . S
H1443 C1452 0.930 . S
H1444 C1457 0.929 . S
H1445 C1455 0.929 . S
H1446 C1450 0.929 . S
H1447 C1456 0.929 . S
C1448 H1442 0.930 . S
C1448 C1449 1.367 . S
C1448 C1456 1.378 . S
C1449 C1448 1.367 . S
C1449 C1457 1.433 . S
C1450 H1446 0.929 . S
C1450 C1452 1.378 . S
C1450 C1454 1.350 . S
C1451 C1454 1.463 . S
C1451 C1456 1.350 . S
C1451 N1459 1.427 . S
C1452 H1443 0.930 . S
C1452 C1450 1.378 . S
C1452 C1453 1.367 . S
C1453 C1452 1.367 . S
C1453 C1455 1.433 . S
C1454 C1450 1.350 . S
C1454 C1451 1.463 . S
C1454 N1458 1.427 . S
C1455 H1445 0.929 . S
C1455 C1453 1.433 . S
C1455 N1458 1.384 . S
C1456 H1447 0.929 . S
C1456 C1448 1.378 . S
C1456 C1451 1.350 . S
C1457 H1444 0.929 . S
C1457 C1449 1.433 . S
C1457 N1459 1.384 . S
N1458 C1454 1.427 . S
N1458 C1455 1.384 . S
N1459 C1451 1.427 . S
N1459 C1457 1.384 . S
H1460 C1466 0.930 . S
H1461 C1470 0.930 . S
H1462 C1475 0.929 . S
H1463 C1473 0.929 . S
H1464 C1468 0.929 . S
H1465 C1474 0.929 . S
C1466 H1460 0.930 . S
C1466 C1467 1.367 . S
C1466 C1474 1.378 . S
C1467 C1466 1.367 . S
C1467 C1475 1.433 . S
C1468 H1464 0.929 . S
C1468 C1470 1.378 . S
C1468 C1472 1.350 . S
C1469 C1472 1.463 . S
C1469 C1474 1.350 . S
C1469 N1477 1.427 . S
C1470 H1461 0.930 . S
C1470 C1468 1.378 . S
C1470 C1471 1.367 . S
C1471 C1470 1.367 . S
C1471 C1473 1.433 . S
C1472 C1468 1.350 . S
C1472 C1469 1.463 . S
C1472 N1476 1.427 . S
C1473 H1463 0.929 . S
C1473 C1471 1.433 . S
C1473 N1476 1.384 . S
C1474 H1465 0.929 . S
C1474 C1466 1.378 . S
C1474 C1469 1.350 . S
C1475 H1462 0.929 . S
C1475 C1467 1.433 . S
C1475 N1477 1.384 . S
N1476 C1472 1.427 . S
N1476 C1473 1.384 . S
N1477 C1469 1.427 . S
N1477 C1475 1.384 . S
H1478 C1484 0.930 . S
H1479 C1488 0.930 . S
H1480 C1493 0.929 . S
H1481 C1491 0.929 . S
H1482 C1486 0.929 . S
H1483 C1492 0.929 . S
C1484 H1478 0.930 . S
C1484 C1485 1.367 . S
C1484 C1492 1.378 . S
C1485 C1484 1.367 . S
C1485 C1493 1.433 . S
C1486 H1482 0.929 . S
C1486 C1488 1.378 . S
C1486 C1490 1.350 . S
C1487 C1490 1.463 . S
C1487 C1492 1.350 . S
C1487 N1495 1.427 . S
C1488 H1479 0.930 . S
C1488 C1486 1.378 . S
C1488 C1489 1.367 . S
C1489 C1488 1.367 . S
C1489 C1491 1.433 . S
C1490 C1486 1.350 . S
C1490 C1487 1.463 . S
C1490 N1494 1.427 . S
C1491 H1481 0.929 . S
C1491 C1489 1.433 . S
C1491 N1494 1.384 . S
C1492 H1483 0.929 . S
C1492 C1484 1.378 . S
C1492 C1487 1.350 . S
C1493 H1480 0.929 . S
C1493 C1485 1.433 . S
C1493 N1495 1.384 . S
N1494 C1490 1.427 . S
N1494 C1491 1.384 . S
N1495 C1487 1.427 . S
N1495 C1493 1.384 . S
H1496 C1502 0.930 . S
H1497 C1506 0.930 . S
H1498 C1511 0.929 . S
H1499 C1509 0.929 . S
H1500 C1504 0.929 . S
H1501 C1510 0.929 . S
C1502 H1496 0.930 . S
C1502 C1503 1.367 . S
C1502 C1510 1.378 . S
C1503 C1502 1.367 . S
C1503 C1511 1.433 . S
C1504 H1500 0.929 . S
C1504 C1506 1.378 . S
C1504 C1508 1.350 . S
C1505 C1508 1.463 . S
C1505 C1510 1.350 . S
C1505 N1513 1.427 . S
C1506 H1497 0.930 . S
C1506 C1504 1.378 . S
C1506 C1507 1.367 . S
C1507 C1506 1.367 . S
C1507 C1509 1.433 . S
C1508 C1504 1.350 . S
C1508 C1505 1.463 . S
C1508 N1512 1.427 . S
C1509 H1499 0.929 . S
C1509 C1507 1.433 . S
C1509 N1512 1.384 . S
C1510 H1501 0.929 . S
C1510 C1502 1.378 . S
C1510 C1505 1.350 . S
C1511 H1498 0.929 . S
C1511 C1503 1.433 . S
C1511 N1513 1.384 . S
N1512 C1508 1.427 . S
N1512 C1509 1.384 . S
N1513 C1505 1.427 . S
N1513 C1511 1.384 . S
H1514 C1520 0.930 . S
H1515 C1524 0.930 . S
H1516 C1529 0.929 . S
H1517 C1527 0.929 . S
H1518 C1522 0.929 . S
H1519 C1528 0.929 . S
C1520 H1514 0.930 . S
C1520 C1521 1.367 . S
C1520 C1528 1.378 . S
C1521 C1520 1.367 . S
C1521 C1529 1.433 . S
C1522 H1518 0.929 . S
C1522 C1524 1.378 . S
C1522 C1526 1.350 . S
C1523 C1526 1.463 . S
C1523 C1528 1.350 . S
C1523 N1531 1.427 . S
C1524 H1515 0.930 . S
C1524 C1522 1.378 . S
C1524 C1525 1.367 . S
C1525 C1524 1.367 . S
C1525 C1527 1.433 . S
C1526 C1522 1.350 . S
C1526 C1523 1.463 . S
C1526 N1530 1.427 . S
C1527 H1517 0.929 . S
C1527 C1525 1.433 . S
C1527 N1530 1.384 . S
C1528 H1519 0.929 . S
C1528 C1520 1.378 . S
C1528 C1523 1.350 . S
C1529 H1516 0.929 . S
C1529 C1521 1.433 . S
C1529 N1531 1.384 . S
N1530 C1526 1.427 . S
N1530 C1527 1.384 . S
N1531 C1523 1.427 . S
N1531 C1529 1.384 . S
H1532 C1538 0.930 . S
H1533 C1542 0.930 . S
H1534 C1547 0.929 . S
H1535 C1545 0.929 . S
H1536 C1540 0.929 . S
H1537 C1546 0.929 . S
C1538 H1532 0.930 . S
C1538 C1539 1.367 1_655 S
C1538 C1546 1.378 . S
C1539 C1538 1.367 1_455 S
C1539 C1547 1.433 . S
C1540 H1536 0.929 . S
C1540 C1542 1.378 . S
C1540 C1544 1.350 . S
C1541 C1544 1.463 . S
C1541 C1546 1.350 1_455 S
C1541 N1549 1.427 . S
C1542 H1533 0.930 . S
C1542 C1540 1.378 . S
C1542 C1543 1.367 1_556 S
C1543 C1542 1.367 1_554 S
C1543 C1545 1.433 1_455 S
C1544 C1540 1.350 . S
C1544 C1541 1.463 . S
C1544 N1548 1.427 1_455 S
C1545 H1535 0.929 . S
C1545 C1543 1.433 1_655 S
C1545 N1548 1.384 1_554 S
C1546 H1537 0.929 . S
C1546 C1538 1.378 . S
C1546 C1541 1.350 1_655 S
C1547 H1534 0.929 . S
C1547 C1539 1.433 . S
C1547 N1549 1.384 . S
N1548 C1544 1.427 1_655 S
N1548 C1545 1.384 1_556 S
N1549 C1541 1.427 . S
N1549 C1547 1.384 . S
H1550 C1556 0.930 . S
H1551 C1560 0.930 . S
H1552 C1565 0.929 . S
H1553 C1563 0.929 . S
H1554 C1558 0.929 . S
H1555 C1564 0.929 . S
C1556 H1550 0.930 . S
C1556 C1557 1.367 . S
C1556 C1564 1.378 . S
C1557 C1556 1.367 . S
C1557 C1565 1.433 . S
C1558 H1554 0.929 . S
C1558 C1560 1.378 . S
C1558 C1562 1.350 . S
C1559 C1562 1.463 . S
C1559 C1564 1.350 . S
C1559 N1567 1.427 . S
C1560 H1551 0.930 . S
C1560 C1558 1.378 . S
C1560 C1561 1.367 . S
C1561 C1560 1.367 . S
C1561 C1563 1.433 . S
C1562 C1558 1.350 . S
C1562 C1559 1.463 . S
C1562 N1566 1.427 . S
C1563 H1553 0.929 . S
C1563 C1561 1.433 . S
C1563 N1566 1.384 . S
C1564 H1555 0.929 . S
C1564 C1556 1.378 . S
C1564 C1559 1.350 . S
C1565 H1552 0.929 . S
C1565 C1557 1.433 . S
C1565 N1567 1.384 . S
N1566 C1562 1.427 . S
N1566 C1563 1.384 . S
N1567 C1559 1.427 . S
N1567 C1565 1.384 . S
H1568 C1574 0.930 . S
H1569 C1578 0.930 . S
H1570 C1583 0.929 . S
H1571 C1581 0.929 . S
H1572 C1576 0.929 . S
H1573 C1582 0.929 . S
C1574 H1568 0.930 . S
C1574 C1575 1.367 . S
C1574 C1582 1.378 . S
C1575 C1574 1.367 . S
C1575 C1583 1.433 . S
C1576 H1572 0.929 . S
C1576 C1578 1.378 . S
C1576 C1580 1.350 . S
C1577 C1580 1.463 . S
C1577 C1582 1.350 . S
C1577 N1585 1.427 . S
C1578 H1569 0.930 . S
C1578 C1576 1.378 . S
C1578 C1579 1.367 . S
C1579 C1578 1.367 . S
C1579 C1581 1.433 . S
C1580 C1576 1.350 . S
C1580 C1577 1.463 . S
C1580 N1584 1.427 . S
C1581 H1571 0.929 . S
C1581 C1579 1.433 . S
C1581 N1584 1.384 . S
C1582 H1573 0.929 . S
C1582 C1574 1.378 . S
C1582 C1577 1.350 . S
C1583 H1570 0.929 . S
C1583 C1575 1.433 . S
C1583 N1585 1.384 . S
N1584 C1580 1.427 . S
N1584 C1581 1.384 . S
N1585 C1577 1.427 . S
N1585 C1583 1.384 . S
H1586 C1592 0.930 . S
H1587 C1596 0.930 . S
H1588 C1601 0.929 . S
H1589 C1599 0.929 . S
H1590 C1594 0.929 . S
H1591 C1600 0.929 . S
C1592 H1586 0.930 . S
C1592 C1593 1.367 . S
C1592 C1600 1.378 . S
C1593 C1592 1.367 . S
C1593 C1601 1.433 . S
C1594 H1590 0.929 . S
C1594 C1596 1.378 . S
C1594 C1598 1.350 . S
C1595 C1598 1.463 . S
C1595 C1600 1.350 . S
C1595 N1603 1.427 . S
C1596 H1587 0.930 . S
C1596 C1594 1.378 . S
C1596 C1597 1.367 . S
C1597 C1596 1.367 . S
C1597 C1599 1.433 . S
C1598 C1594 1.350 . S
C1598 C1595 1.463 . S
C1598 N1602 1.427 . S
C1599 H1589 0.929 . S
C1599 C1597 1.433 . S
C1599 N1602 1.384 . S
C1600 H1591 0.929 . S
C1600 C1592 1.378 . S
C1600 C1595 1.350 . S
C1601 H1588 0.929 . S
C1601 C1593 1.433 . S
C1601 N1603 1.384 . S
N1602 C1598 1.427 . S
N1602 C1599 1.384 . S
N1603 C1595 1.427 . S
N1603 C1601 1.384 . S
H1604 C1610 0.930 . S
H1605 C1614 0.930 . S
H1606 C1619 0.929 . S
H1607 C1617 0.929 . S
H1608 C1612 0.929 . S
H1609 C1618 0.929 . S
C1610 H1604 0.930 . S
C1610 C1611 1.367 1_655 S
C1610 C1618 1.378 . S
C1611 C1610 1.367 1_455 S
C1611 C1619 1.433 . S
C1612 H1608 0.929 . S
C1612 C1614 1.378 . S
C1612 C1616 1.350 . S
C1613 C1616 1.463 . S
C1613 C1618 1.350 1_455 S
C1613 N1621 1.427 . S
C1614 H1605 0.930 . S
C1614 C1612 1.378 . S
C1614 C1615 1.367 . S
C1615 C1614 1.367 . S
C1615 C1617 1.433 1_455 S
C1616 C1612 1.350 . S
C1616 C1613 1.463 . S
C1616 N1620 1.427 1_455 S
C1617 H1607 0.929 . S
C1617 C1615 1.433 1_655 S
C1617 N1620 1.384 . S
C1618 H1609 0.929 . S
C1618 C1610 1.378 . S
C1618 C1613 1.350 1_655 S
C1619 H1606 0.929 . S
C1619 C1611 1.433 . S
C1619 N1621 1.384 . S
N1620 C1616 1.427 1_655 S
N1620 C1617 1.384 . S
N1621 C1613 1.427 . S
N1621 C1619 1.384 . S
H1622 C1628 0.930 . S
H1623 C1632 0.930 . S
H1624 C1637 0.929 . S
H1625 C1635 0.929 . S
H1626 C1630 0.929 . S
H1627 C1636 0.929 . S
C1628 H1622 0.930 . S
C1628 C1629 1.367 . S
C1628 C1636 1.378 . S
C1629 C1628 1.367 . S
C1629 C1637 1.433 . S
C1630 H1626 0.929 . S
C1630 C1632 1.378 . S
C1630 C1634 1.350 . S
C1631 C1634 1.463 . S
C1631 C1636 1.350 . S
C1631 N1639 1.427 . S
C1632 H1623 0.930 . S
C1632 C1630 1.378 . S
C1632 C1633 1.367 . S
C1633 C1632 1.367 . S
C1633 C1635 1.433 . S
C1634 C1630 1.350 . S
C1634 C1631 1.463 . S
C1634 N1638 1.427 . S
C1635 H1625 0.929 . S
C1635 C1633 1.433 . S
C1635 N1638 1.384 . S
C1636 H1627 0.929 . S
C1636 C1628 1.378 . S
C1636 C1631 1.350 . S
C1637 H1624 0.929 . S
C1637 C1629 1.433 . S
C1637 N1639 1.384 . S
N1638 C1634 1.427 . S
N1638 C1635 1.384 . S
N1639 C1631 1.427 . S
N1639 C1637 1.384 . S
H1640 C1646 0.930 . S
H1641 C1650 0.930 . S
H1642 C1655 0.929 . S
H1643 C1653 0.929 . S
H1644 C1648 0.929 . S
H1645 C1654 0.929 . S
C1646 H1640 0.930 . S
C1646 C1647 1.367 . S
C1646 C1654 1.378 . S
C1647 C1646 1.367 . S
C1647 C1655 1.433 . S
C1648 H1644 0.929 . S
C1648 C1650 1.378 . S
C1648 C1652 1.350 . S
C1649 C1652 1.463 . S
C1649 C1654 1.350 . S
C1649 N1657 1.427 . S
C1650 H1641 0.930 . S
C1650 C1648 1.378 . S
C1650 C1651 1.367 . S
C1651 C1650 1.367 . S
C1651 C1653 1.433 . S
C1652 C1648 1.350 . S
C1652 C1649 1.463 . S
C1652 N1656 1.427 . S
C1653 H1643 0.929 . S
C1653 C1651 1.433 . S
C1653 N1656 1.384 . S
C1654 H1645 0.929 . S
C1654 C1646 1.378 . S
C1654 C1649 1.350 . S
C1655 H1642 0.929 . S
C1655 C1647 1.433 . S
C1655 N1657 1.384 . S
N1656 C1652 1.427 . S
N1656 C1653 1.384 . S
N1657 C1649 1.427 . S
N1657 C1655 1.384 . S
H1658 C1664 0.930 . S
H1659 C1668 0.930 . S
H1660 C1673 0.929 . S
H1661 C1671 0.929 . S
H1662 C1666 0.929 . S
H1663 C1672 0.929 . S
C1664 H1658 0.930 . S
C1664 C1665 1.367 . S
C1664 C1672 1.378 . S
C1665 C1664 1.367 . S
C1665 C1673 1.433 . S
C1666 H1662 0.929 . S
C1666 C1668 1.378 . S
C1666 C1670 1.350 . S
C1667 C1670 1.463 . S
C1667 C1672 1.350 . S
C1667 N1675 1.427 . S
C1668 H1659 0.930 . S
C1668 C1666 1.378 . S
C1668 C1669 1.367 . S
C1669 C1668 1.367 . S
C1669 C1671 1.433 . S
C1670 C1666 1.350 . S
C1670 C1667 1.463 . S
C1670 N1674 1.427 . S
C1671 H1661 0.929 . S
C1671 C1669 1.433 . S
C1671 N1674 1.384 . S
C1672 H1663 0.929 . S
C1672 C1664 1.378 . S
C1672 C1667 1.350 . S
C1673 H1660 0.929 . S
C1673 C1665 1.433 . S
C1673 N1675 1.384 . S
N1674 C1670 1.427 . S
N1674 C1671 1.384 . S
N1675 C1667 1.427 . S
N1675 C1673 1.384 . S
H1676 C1682 0.930 . S
H1677 C1686 0.930 . S
H1678 C1691 0.929 . S
H1679 C1689 0.929 . S
H1680 C1684 0.929 . S
H1681 C1690 0.929 . S
C1682 H1676 0.930 . S
C1682 C1683 1.367 . S
C1682 C1690 1.378 . S
C1683 C1682 1.367 . S
C1683 C1691 1.433 . S
C1684 H1680 0.929 . S
C1684 C1686 1.378 . S
C1684 C1688 1.350 . S
C1685 C1688 1.463 . S
C1685 C1690 1.350 . S
C1685 N1693 1.427 . S
C1686 H1677 0.930 . S
C1686 C1684 1.378 . S
C1686 C1687 1.367 . S
C1687 C1686 1.367 . S
C1687 C1689 1.433 . S
C1688 C1684 1.350 . S
C1688 C1685 1.463 . S
C1688 N1692 1.427 . S
C1689 H1679 0.929 . S
C1689 C1687 1.433 . S
C1689 N1692 1.384 . S
C1690 H1681 0.929 . S
C1690 C1682 1.378 . S
C1690 C1685 1.350 . S
C1691 H1678 0.929 . S
C1691 C1683 1.433 . S
C1691 N1693 1.384 . S
N1692 C1688 1.427 . S
N1692 C1689 1.384 . S
N1693 C1685 1.427 . S
N1693 C1691 1.384 . S
H1694 C1700 0.930 . S
H1695 C1704 0.930 . S
H1696 C1709 0.929 . S
H1697 C1707 0.929 . S
H1698 C1702 0.929 . S
H1699 C1708 0.929 . S
C1700 H1694 0.930 . S
C1700 C1701 1.367 . S
C1700 C1708 1.378 . S
C1701 C1700 1.367 . S
C1701 C1709 1.433 . S
C1702 H1698 0.929 . S
C1702 C1704 1.378 . S
C1702 C1706 1.350 . S
C1703 C1706 1.463 . S
C1703 C1708 1.350 . S
C1703 N1711 1.427 . S
C1704 H1695 0.930 . S
C1704 C1702 1.378 . S
C1704 C1705 1.367 . S
C1705 C1704 1.367 . S
C1705 C1707 1.433 . S
C1706 C1702 1.350 . S
C1706 C1703 1.463 . S
C1706 N1710 1.427 . S
C1707 H1697 0.929 . S
C1707 C1705 1.433 . S
C1707 N1710 1.384 . S
C1708 H1699 0.929 . S
C1708 C1700 1.378 . S
C1708 C1703 1.350 . S
C1709 H1696 0.929 . S
C1709 C1701 1.433 . S
C1709 N1711 1.384 . S
N1710 C1706 1.427 . S
N1710 C1707 1.384 . S
N1711 C1703 1.427 . S
N1711 C1709 1.384 . S
H1712 C1718 0.930 . S
H1713 C1722 0.930 . S
H1714 C1727 0.929 . S
H1715 C1725 0.929 . S
H1716 C1720 0.929 . S
H1717 C1726 0.929 . S
C1718 H1712 0.930 . S
C1718 C1719 1.367 . S
C1718 C1726 1.378 . S
C1719 C1718 1.367 . S
C1719 C1727 1.433 . S
C1720 H1716 0.929 . S
C1720 C1722 1.378 . S
C1720 C1724 1.350 . S
C1721 C1724 1.463 . S
C1721 C1726 1.350 . S
C1721 N1729 1.427 . S
C1722 H1713 0.930 . S
C1722 C1720 1.378 . S
C1722 C1723 1.367 . S
C1723 C1722 1.367 . S
C1723 C1725 1.433 . S
C1724 C1720 1.350 . S
C1724 C1721 1.463 . S
C1724 N1728 1.427 . S
C1725 H1715 0.929 . S
C1725 C1723 1.433 . S
C1725 N1728 1.384 . S
C1726 H1717 0.929 . S
C1726 C1718 1.378 . S
C1726 C1721 1.350 . S
C1727 H1714 0.929 . S
C1727 C1719 1.433 . S
C1727 N1729 1.384 . S
N1728 C1724 1.427 . S
N1728 C1725 1.384 . S
N1729 C1721 1.427 . S
N1729 C1727 1.384 . S
H1730 C1736 0.930 . S
H1731 C1740 0.930 . S
H1732 C1745 0.929 . S
H1733 C1743 0.929 . S
H1734 C1738 0.929 . S
H1735 C1744 0.929 . S
C1736 H1730 0.930 . S
C1736 C1737 1.367 . S
C1736 C1744 1.378 . S
C1737 C1736 1.367 . S
C1737 C1745 1.433 . S
C1738 H1734 0.929 . S
C1738 C1740 1.378 . S
C1738 C1742 1.350 . S
C1739 C1742 1.463 . S
C1739 C1744 1.350 . S
C1739 N1747 1.427 . S
C1740 H1731 0.930 . S
C1740 C1738 1.378 . S
C1740 C1741 1.367 . S
C1741 C1740 1.367 . S
C1741 C1743 1.433 . S
C1742 C1738 1.350 . S
C1742 C1739 1.463 . S
C1742 N1746 1.427 . S
C1743 H1733 0.929 . S
C1743 C1741 1.433 . S
C1743 N1746 1.384 . S
C1744 H1735 0.929 . S
C1744 C1736 1.378 . S
C1744 C1739 1.350 . S
C1745 H1732 0.929 . S
C1745 C1737 1.433 . S
C1745 N1747 1.384 . S
N1746 C1742 1.427 . S
N1746 C1743 1.384 . S
N1747 C1739 1.427 . S
N1747 C1745 1.384 . S
H1748 C1754 0.930 . S
H1749 C1758 0.930 . S
H1750 C1763 0.929 . S
H1751 C1761 0.929 . S
H1752 C1756 0.929 . S
H1753 C1762 0.929 . S
C1754 H1748 0.930 . S
C1754 C1755 1.367 . S
C1754 C1762 1.378 . S
C1755 C1754 1.367 . S
C1755 C1763 1.433 . S
C1756 H1752 0.929 . S
C1756 C1758 1.378 . S
C1756 C1760 1.350 . S
C1757 C1760 1.463 . S
C1757 C1762 1.350 . S
C1757 N1765 1.427 . S
C1758 H1749 0.930 . S
C1758 C1756 1.378 . S
C1758 C1759 1.367 . S
C1759 C1758 1.367 . S
C1759 C1761 1.433 . S
C1760 C1756 1.350 . S
C1760 C1757 1.463 . S
C1760 N1764 1.427 . S
C1761 H1751 0.929 . S
C1761 C1759 1.433 . S
C1761 N1764 1.384 . S
C1762 H1753 0.929 . S
C1762 C1754 1.378 . S
C1762 C1757 1.350 . S
C1763 H1750 0.929 . S
C1763 C1755 1.433 . S
C1763 N1765 1.384 . S
N1764 C1760 1.427 . S
N1764 C1761 1.384 . S
N1765 C1757 1.427 . S
N1765 C1763 1.384 . S
H1766 C1772 0.930 . S
H1767 C1776 0.930 . S
H1768 C1781 0.929 . S
H1769 C1779 0.929 . S
H1770 C1774 0.929 . S
H1771 C1780 0.929 . S
C1772 H1766 0.930 . S
C1772 C1773 1.367 . S
C1772 C1780 1.378 . S
C1773 C1772 1.367 . S
C1773 C1781 1.433 . S
C1774 H1770 0.929 . S
C1774 C1776 1.378 . S
C1774 C1778 1.350 . S
C1775 C1778 1.463 . S
C1775 C1780 1.350 . S
C1775 N1783 1.427 . S
C1776 H1767 0.930 . S
C1776 C1774 1.378 . S
C1776 C1777 1.367 . S
C1777 C1776 1.367 . S
C1777 C1779 1.433 . S
C1778 C1774 1.350 . S
C1778 C1775 1.463 . S
C1778 N1782 1.427 . S
C1779 H1769 0.929 . S
C1779 C1777 1.433 . S
C1779 N1782 1.384 . S
C1780 H1771 0.929 . S
C1780 C1772 1.378 . S
C1780 C1775 1.350 . S
C1781 H1768 0.929 . S
C1781 C1773 1.433 . S
C1781 N1783 1.384 . S
N1782 C1778 1.427 . S
N1782 C1779 1.384 . S
N1783 C1775 1.427 . S
N1783 C1781 1.384 . S
H1784 C1790 0.930 . S
H1785 C1794 0.930 . S
H1786 C1799 0.929 . S
H1787 C1797 0.929 . S
H1788 C1792 0.929 . S
H1789 C1798 0.929 . S
C1790 H1784 0.930 . S
C1790 C1791 1.367 . S
C1790 C1798 1.378 . S
C1791 C1790 1.367 . S
C1791 C1799 1.433 . S
C1792 H1788 0.929 . S
C1792 C1794 1.378 . S
C1792 C1796 1.350 . S
C1793 C1796 1.463 . S
C1793 C1798 1.350 . S
C1793 N1801 1.427 . S
C1794 H1785 0.930 . S
C1794 C1792 1.378 . S
C1794 C1795 1.367 . S
C1795 C1794 1.367 . S
C1795 C1797 1.433 . S
C1796 C1792 1.350 . S
C1796 C1793 1.463 . S
C1796 N1800 1.427 . S
C1797 H1787 0.929 . S
C1797 C1795 1.433 . S
C1797 N1800 1.384 . S
C1798 H1789 0.929 . S
C1798 C1790 1.378 . S
C1798 C1793 1.350 . S
C1799 H1786 0.929 . S
C1799 C1791 1.433 . S
C1799 N1801 1.384 . S
N1800 C1796 1.427 . S
N1800 C1797 1.384 . S
N1801 C1793 1.427 . S
N1801 C1799 1.384 . S
H1802 C1808 0.930 . S
H1803 C1812 0.930 . S
H1804 C1817 0.929 . S
H1805 C1815 0.929 . S
H1806 C1810 0.929 . S
H1807 C1816 0.929 . S
C1808 H1802 0.930 . S
C1808 C1809 1.367 . S
C1808 C1816 1.378 . S
C1809 C1808 1.367 . S
C1809 C1817 1.433 . S
C1810 H1806 0.929 . S
C1810 C1812 1.378 . S
C1810 C1814 1.350 . S
C1811 C1814 1.463 . S
C1811 C1816 1.350 . S
C1811 N1819 1.427 . S
C1812 H1803 0.930 . S
C1812 C1810 1.378 . S
C1812 C1813 1.367 . S
C1813 C1812 1.367 . S
C1813 C1815 1.433 . S
C1814 C1810 1.350 . S
C1814 C1811 1.463 . S
C1814 N1818 1.427 . S
C1815 H1805 0.929 . S
C1815 C1813 1.433 . S
C1815 N1818 1.384 . S
C1816 H1807 0.929 . S
C1816 C1808 1.378 . S
C1816 C1811 1.350 . S
C1817 H1804 0.929 . S
C1817 C1809 1.433 . S
C1817 N1819 1.384 . S
N1818 C1814 1.427 . S
N1818 C1815 1.384 . S
N1819 C1811 1.427 . S
N1819 C1817 1.384 . S
H1820 C1826 0.930 . S
H1821 C1830 0.930 . S
H1822 C1835 0.929 . S
H1823 C1833 0.929 . S
H1824 C1828 0.929 . S
H1825 C1834 0.929 . S
C1826 H1820 0.930 . S
C1826 C1827 1.367 . S
C1826 C1834 1.378 . S
C1827 C1826 1.367 . S
C1827 C1835 1.433 . S
C1828 H1824 0.929 . S
C1828 C1830 1.378 . S
C1828 C1832 1.350 . S
C1829 C1832 1.463 . S
C1829 C1834 1.350 . S
C1829 N1837 1.427 . S
C1830 H1821 0.930 . S
C1830 C1828 1.378 . S
C1830 C1831 1.367 . S
C1831 C1830 1.367 . S
C1831 C1833 1.433 . S
C1832 C1828 1.350 . S
C1832 C1829 1.463 . S
C1832 N1836 1.427 . S
C1833 H1823 0.929 . S
C1833 C1831 1.433 . S
C1833 N1836 1.384 . S
C1834 H1825 0.929 . S
C1834 C1826 1.378 . S
C1834 C1829 1.350 . S
C1835 H1822 0.929 . S
C1835 C1827 1.433 . S
C1835 N1837 1.384 . S
N1836 C1832 1.427 . S
N1836 C1833 1.384 . S
N1837 C1829 1.427 . S
N1837 C1835 1.384 . S
H1838 C1844 0.930 . S
H1839 C1848 0.930 1_545 S
H1840 C1853 0.929 . S
H1841 C1851 0.929 . S
H1842 C1846 0.929 . S
H1843 C1852 0.929 . S
C1844 H1838 0.930 . S
C1844 C1845 1.367 . S
C1844 C1852 1.378 . S
C1845 C1844 1.367 . S
C1845 C1853 1.433 1_554 S
C1846 H1842 0.929 . S
C1846 C1848 1.378 . S
C1846 C1850 1.350 1_556 S
C1847 C1850 1.463 . S
C1847 C1852 1.350 . S
C1847 N1855 1.427 1_554 S
C1848 H1839 0.930 1_565 S
C1848 C1846 1.378 . S
C1848 C1849 1.367 1_556 S
C1849 C1848 1.367 1_554 S
C1849 C1851 1.433 . S
C1850 C1846 1.350 1_554 S
C1850 C1847 1.463 . S
C1850 N1854 1.427 . S
C1851 H1841 0.929 . S
C1851 C1849 1.433 . S
C1851 N1854 1.384 . S
C1852 H1843 0.929 . S
C1852 C1844 1.378 . S
C1852 C1847 1.350 . S
C1853 H1840 0.929 . S
C1853 C1845 1.433 1_556 S
C1853 N1855 1.384 . S
N1854 C1850 1.427 . S
N1854 C1851 1.384 . S
N1855 C1847 1.427 1_556 S
N1855 C1853 1.384 . S
H1856 C1862 0.930 . S
H1857 C1866 0.930 . S
H1858 C1871 0.929 . S
H1859 C1869 0.929 . S
H1860 C1864 0.929 . S
H1861 C1870 0.929 . S
C1862 H1856 0.930 . S
C1862 C1863 1.367 . S
C1862 C1870 1.378 . S
C1863 C1862 1.367 . S
C1863 C1871 1.433 . S
C1864 H1860 0.929 . S
C1864 C1866 1.378 . S
C1864 C1868 1.350 . S
C1865 C1868 1.463 . S
C1865 C1870 1.350 . S
C1865 N1873 1.427 . S
C1866 H1857 0.930 . S
C1866 C1864 1.378 . S
C1866 C1867 1.367 . S
C1867 C1866 1.367 . S
C1867 C1869 1.433 . S
C1868 C1864 1.350 . S
C1868 C1865 1.463 . S
C1868 N1872 1.427 . S
C1869 H1859 0.929 . S
C1869 C1867 1.433 . S
C1869 N1872 1.384 . S
C1870 H1861 0.929 . S
C1870 C1862 1.378 . S
C1870 C1865 1.350 . S
C1871 H1858 0.929 . S
C1871 C1863 1.433 . S
C1871 N1873 1.384 . S
N1872 C1868 1.427 . S
N1872 C1869 1.384 . S
N1873 C1865 1.427 . S
N1873 C1871 1.384 . S
H1874 C1880 0.930 . S
H1875 C1884 0.930 . S
H1876 C1889 0.929 . S
H1877 C1887 0.929 . S
H1878 C1882 0.929 . S
H1879 C1888 0.953 . S
C1880 H1874 0.930 . S
C1880 C1881 1.367 1_556 S
C1880 C1888 1.387 . S
C1881 C1880 1.367 1_554 S
C1881 C1889 1.433 . S
C1882 H1878 0.929 . S
C1882 C1884 1.378 . S
C1882 C1886 1.350 . S
C1883 C1886 1.463 . S
C1883 C1888 1.318 1_554 S
C1883 N1891 1.427 . S
C1884 H1875 0.930 . S
C1884 C1882 1.378 . S
C1884 C1885 1.367 . S
C1885 C1884 1.367 . S
C1885 C1887 1.433 . S
C1886 C1882 1.350 . S
C1886 C1883 1.463 . S
C1886 N1890 1.427 . S
C1887 H1877 0.929 . S
C1887 C1885 1.433 . S
C1887 N1890 1.384 . S
C1888 H1879 0.953 . S
C1888 C1880 1.387 . S
C1888 C1883 1.318 1_556 S
C1889 H1876 0.929 . S
C1889 C1881 1.433 . S
C1889 N1891 1.384 . S
N1890 C1886 1.427 . S
N1890 C1887 1.384 . S
N1891 C1883 1.427 . S
N1891 C1889 1.384 . S
H1892 C1898 0.930 . S
H1893 C1902 0.930 . S
H1894 C1907 0.929 . S
H1895 C1905 0.929 . S
H1896 C1900 0.929 . S
H1897 C1906 0.929 . S
C1898 H1892 0.930 . S
C1898 C1899 1.367 . S
C1898 C1906 1.378 . S
C1899 C1898 1.367 . S
C1899 C1907 1.433 . S
C1900 H1896 0.929 . S
C1900 C1902 1.378 . S
C1900 C1904 1.350 . S
C1901 C1904 1.463 . S
C1901 C1906 1.350 . S
C1901 N1909 1.427 . S
C1902 H1893 0.930 . S
C1902 C1900 1.378 . S
C1902 C1903 1.367 . S
C1903 C1902 1.367 . S
C1903 C1905 1.433 . S
C1904 C1900 1.350 . S
C1904 C1901 1.463 . S
C1904 N1908 1.427 . S
C1905 H1895 0.929 . S
C1905 C1903 1.433 . S
C1905 N1908 1.384 . S
C1906 H1897 0.929 . S
C1906 C1898 1.378 . S
C1906 C1901 1.350 . S
C1907 H1894 0.929 . S
C1907 C1899 1.433 . S
C1907 N1909 1.384 . S
N1908 C1904 1.427 . S
N1908 C1905 1.384 . S
N1909 C1901 1.427 . S
N1909 C1907 1.384 . S
H1910 C1916 0.930 . S
H1911 C1920 0.930 . S
H1912 C1925 0.929 . S
H1913 C1923 0.929 . S
H1914 C1918 0.929 . S
H1915 C1924 0.929 . S
C1916 H1910 0.930 . S
C1916 C1917 1.367 . S
C1916 C1924 1.378 . S
C1917 C1916 1.367 . S
C1917 C1925 1.433 . S
C1918 H1914 0.929 . S
C1918 C1920 1.378 . S
C1918 C1922 1.350 . S
C1919 C1922 1.463 . S
C1919 C1924 1.350 . S
C1919 N1927 1.427 . S
C1920 H1911 0.930 . S
C1920 C1918 1.378 . S
C1920 C1921 1.367 . S
C1921 C1920 1.367 . S
C1921 C1923 1.433 . S
C1922 C1918 1.350 . S
C1922 C1919 1.463 . S
C1922 N1926 1.427 . S
C1923 H1913 0.929 . S
C1923 C1921 1.433 . S
C1923 N1926 1.384 . S
C1924 H1915 0.929 . S
C1924 C1916 1.378 . S
C1924 C1919 1.350 . S
C1925 H1912 0.929 . S
C1925 C1917 1.433 . S
C1925 N1927 1.384 . S
N1926 C1922 1.427 . S
N1926 C1923 1.384 . S
N1927 C1919 1.427 . S
N1927 C1925 1.384 . S
H1928 C1934 0.930 . S
H1929 C1938 0.930 . S
H1930 C1943 0.929 . S
H1931 C1941 0.929 . S
H1932 C1936 0.929 . S
H1933 C1942 0.929 . S
C1934 H1928 0.930 . S
C1934 C1935 1.367 . S
C1934 C1942 1.378 . S
C1935 C1934 1.367 . S
C1935 C1943 1.433 . S
C1936 H1932 0.929 . S
C1936 C1938 1.378 . S
C1936 C1940 1.350 . S
C1937 C1940 1.463 . S
C1937 C1942 1.350 . S
C1937 N1945 1.427 . S
C1938 H1929 0.930 . S
C1938 C1936 1.378 . S
C1938 C1939 1.367 . S
C1939 C1938 1.367 . S
C1939 C1941 1.433 . S
C1940 C1936 1.350 . S
C1940 C1937 1.463 . S
C1940 N1944 1.427 . S
C1941 H1931 0.929 . S
C1941 C1939 1.433 . S
C1941 N1944 1.384 . S
C1942 H1933 0.929 . S
C1942 C1934 1.378 . S
C1942 C1937 1.350 . S
C1943 H1930 0.929 . S
C1943 C1935 1.433 . S
C1943 N1945 1.384 . S
N1944 C1940 1.427 . S
N1944 C1941 1.384 . S
N1945 C1937 1.427 . S
N1945 C1943 1.384 . S
H1946 C1952 0.930 . S
H1947 C1956 0.930 . S
H1948 C1961 0.929 . S
H1949 C1959 0.929 . S
H1950 C1954 0.929 . S
H1951 C1960 0.929 . S
C1952 H1946 0.930 . S
C1952 C1953 1.367 . S
C1952 C1960 1.378 . S
C1953 C1952 1.367 . S
C1953 C1961 1.433 . S
C1954 H1950 0.929 . S
C1954 C1956 1.378 . S
C1954 C1958 1.350 . S
C1955 C1958 1.463 . S
C1955 C1960 1.350 . S
C1955 N1963 1.427 . S
C1956 H1947 0.930 . S
C1956 C1954 1.378 . S
C1956 C1957 1.367 . S
C1957 C1956 1.367 . S
C1957 C1959 1.433 . S
C1958 C1954 1.350 . S
C1958 C1955 1.463 . S
C1958 N1962 1.427 . S
C1959 H1949 0.929 . S
C1959 C1957 1.433 . S
C1959 N1962 1.384 . S
C1960 H1951 0.929 . S
C1960 C1952 1.378 . S
C1960 C1955 1.350 . S
C1961 H1948 0.929 . S
C1961 C1953 1.433 . S
C1961 N1963 1.384 . S
N1962 C1958 1.427 . S
N1962 C1959 1.384 . S
N1963 C1955 1.427 . S
N1963 C1961 1.384 . S
H1964 C1970 0.930 . S
H1965 C1974 0.930 . S
H1966 C1979 0.914 1_655 S
H1967 C1977 0.929 . S
H1968 C1972 0.929 . S
H1969 C1978 0.929 . S
C1970 H1964 0.930 . S
C1970 C1971 1.367 . S
C1970 C1978 1.378 . S
C1971 C1970 1.367 . S
C1971 C1979 1.446 . S
C1972 H1968 0.929 . S
C1972 C1974 1.378 . S
C1972 C1976 1.350 1_655 S
C1973 C1976 1.463 . S
C1973 C1978 1.350 . S
C1973 N1981 1.402 1_455 S
C1974 H1965 0.930 . S
C1974 C1972 1.378 . S
C1974 C1975 1.367 1_655 S
C1975 C1974 1.367 1_455 S
C1975 C1977 1.433 . S
C1976 C1972 1.350 1_455 S
C1976 C1973 1.463 . S
C1976 N1980 1.427 . S
C1977 H1967 0.929 . S
C1977 C1975 1.433 . S
C1977 N1980 1.384 . S
C1978 H1969 0.929 . S
C1978 C1970 1.378 . S
C1978 C1973 1.350 . S
C1979 H1966 0.914 1_455 S
C1979 C1971 1.446 . S
C1979 N1981 1.390 1_455 S
N1980 C1976 1.427 . S
N1980 C1977 1.384 . S
N1981 C1973 1.402 1_655 S
N1981 C1979 1.390 1_655 S
H1982 C1988 0.930 . S
H1983 C1992 0.930 . S
H1984 C1997 0.929 . S
H1985 C1995 0.929 . S
H1986 C1990 0.929 . S
H1987 C1996 0.929 . S
C1988 H1982 0.930 . S
C1988 C1989 1.367 . S
C1988 C1996 1.378 . S
C1989 C1988 1.367 . S
C1989 C1997 1.433 . S
C1990 H1986 0.929 . S
C1990 C1992 1.378 . S
C1990 C1994 1.350 . S
C1991 C1994 1.463 . S
C1991 C1996 1.350 . S
C1991 N1999 1.427 . S
C1992 H1983 0.930 . S
C1992 C1990 1.378 . S
C1992 C1993 1.367 . S
C1993 C1992 1.367 . S
C1993 C1995 1.433 . S
C1994 C1990 1.350 . S
C1994 C1991 1.463 . S
C1994 N1998 1.427 . S
C1995 H1985 0.929 . S
C1995 C1993 1.433 . S
C1995 N1998 1.384 . S
C1996 H1987 0.929 . S
C1996 C1988 1.378 . S
C1996 C1991 1.350 . S
C1997 H1984 0.929 . S
C1997 C1989 1.433 . S
C1997 N1999 1.384 . S
N1998 C1994 1.427 . S
N1998 C1995 1.384 . S
N1999 C1991 1.427 . S
N1999 C1997 1.384 . S
H2000 C2006 0.930 . S
H2001 C2010 0.930 . S
H2002 C2015 0.929 . S
H2003 C2013 0.929 1_554 S
H2004 C2008 0.929 . S
H2005 C2014 0.929 . S
C2006 H2000 0.930 . S
C2006 C2007 1.367 . S
C2006 C2014 1.378 . S
C2007 C2006 1.367 . S
C2007 C2015 1.433 . S
C2008 H2004 0.929 . S
C2008 C2010 1.378 . S
C2008 C2012 1.350 . S
C2009 C2012 1.463 . S
C2009 C2014 1.350 . S
C2009 N2017 1.427 . S
C2010 H2001 0.930 . S
C2010 C2008 1.378 . S
C2010 C2011 1.367 . S
C2011 C2010 1.367 . S
C2011 C2013 1.433 . S
C2012 C2008 1.350 . S
C2012 C2009 1.463 . S
C2012 N2016 1.427 . S
C2013 H2003 0.929 1_556 S
C2013 C2011 1.433 . S
C2013 N2016 1.384 . S
C2014 H2005 0.929 . S
C2014 C2006 1.378 . S
C2014 C2009 1.350 . S
C2015 H2002 0.929 . S
C2015 C2007 1.433 . S
C2015 N2017 1.384 . S
N2016 C2012 1.427 . S
N2016 C2013 1.384 . S
N2017 C2009 1.427 . S
N2017 C2015 1.384 . S
H2018 C2024 0.930 . S
H2019 C2028 0.930 . S
H2020 C2033 0.929 . S
H2021 C2031 0.929 . S
H2022 C2026 0.929 . S
H2023 C2032 0.929 . S
C2024 H2018 0.930 . S
C2024 C2025 1.367 . S
C2024 C2032 1.378 . S
C2025 C2024 1.367 . S
C2025 C2033 1.433 . S
C2026 H2022 0.929 . S
C2026 C2028 1.378 . S
C2026 C2030 1.350 . S
C2027 C2030 1.463 . S
C2027 C2032 1.350 . S
C2027 N2035 1.427 . S
C2028 H2019 0.930 . S
C2028 C2026 1.378 . S
C2028 C2029 1.367 . S
C2029 C2028 1.367 . S
C2029 C2031 1.433 . S
C2030 C2026 1.350 . S
C2030 C2027 1.463 . S
C2030 N2034 1.427 . S
C2031 H2021 0.929 . S
C2031 C2029 1.433 . S
C2031 N2034 1.384 . S
C2032 H2023 0.929 . S
C2032 C2024 1.378 . S
C2032 C2027 1.350 . S
C2033 H2020 0.929 . S
C2033 C2025 1.433 . S
C2033 N2035 1.384 . S
N2034 C2030 1.427 . S
N2034 C2031 1.384 . S
N2035 C2027 1.427 . S
N2035 C2033 1.384 . S
H2036 C2042 0.930 1_655 S
H2037 C2046 0.930 . S
H2038 C2051 0.929 . S
H2039 C2049 0.929 . S
H2040 C2044 0.929 . S
H2041 C2050 0.929 1_655 S
C2042 H2036 0.930 1_455 S
C2042 C2043 1.367 . S
C2042 C2050 1.378 . S
C2043 C2042 1.367 . S
C2043 C2051 1.433 . S
C2044 H2040 0.929 . S
C2044 C2046 1.378 . S
C2044 C2048 1.350 . S
C2045 C2048 1.463 . S
C2045 C2050 1.350 . S
C2045 N2053 1.427 . S
C2046 H2037 0.930 . S
C2046 C2044 1.378 . S
C2046 C2047 1.367 . S
C2047 C2046 1.367 . S
C2047 C2049 1.433 1_455 S
C2048 C2044 1.350 . S
C2048 C2045 1.463 . S
C2048 N2052 1.430 1_455 S
C2049 H2039 0.929 . S
C2049 C2047 1.433 1_655 S
C2049 N2052 1.383 . S
C2050 H2041 0.929 1_455 S
C2050 C2042 1.378 . S
C2050 C2045 1.350 . S
C2051 H2038 0.929 . S
C2051 C2043 1.433 . S
C2051 N2053 1.384 . S
N2052 C2048 1.430 1_655 S
N2052 C2049 1.383 . S
N2053 C2045 1.427 . S
N2053 C2051 1.384 . S
H2054 C2060 0.930 . S
H2055 C2064 0.930 . S
H2056 C2069 0.929 . S
H2057 C2067 0.929 . S
H2058 C2062 0.929 . S
H2059 C2068 0.929 . S
C2060 H2054 0.930 . S
C2060 C2061 1.367 . S
C2060 C2068 1.378 . S
C2061 C2060 1.367 . S
C2061 C2069 1.433 . S
C2062 H2058 0.929 . S
C2062 C2064 1.378 . S
C2062 C2066 1.350 . S
C2063 C2066 1.463 . S
C2063 C2068 1.350 . S
C2063 N2071 1.427 . S
C2064 H2055 0.930 . S
C2064 C2062 1.378 . S
C2064 C2065 1.367 . S
C2065 C2064 1.367 . S
C2065 C2067 1.433 . S
C2066 C2062 1.350 . S
C2066 C2063 1.463 . S
C2066 N2070 1.427 . S
C2067 H2057 0.929 . S
C2067 C2065 1.433 . S
C2067 N2070 1.384 . S
C2068 H2059 0.929 . S
C2068 C2060 1.378 . S
C2068 C2063 1.350 . S
C2069 H2056 0.929 . S
C2069 C2061 1.433 . S
C2069 N2071 1.384 . S
N2070 C2066 1.427 . S
N2070 C2067 1.384 . S
N2071 C2063 1.427 . S
N2071 C2069 1.384 . S
H2072 C2078 0.930 . S
H2073 C2082 0.930 . S
H2074 C2087 0.929 . S
H2075 C2085 0.929 . S
H2076 C2080 0.929 . S
H2077 C2086 0.929 . S
C2078 H2072 0.930 . S
C2078 C2079 1.367 . S
C2078 C2086 1.378 . S
C2079 C2078 1.367 . S
C2079 C2087 1.433 . S
C2080 H2076 0.929 . S
C2080 C2082 1.378 . S
C2080 C2084 1.350 . S
C2081 C2084 1.463 . S
C2081 C2086 1.350 . S
C2081 N2089 1.427 . S
C2082 H2073 0.930 . S
C2082 C2080 1.378 . S
C2082 C2083 1.367 . S
C2083 C2082 1.367 . S
C2083 C2085 1.433 . S
C2084 C2080 1.350 . S
C2084 C2081 1.463 . S
C2084 N2088 1.427 . S
C2085 H2075 0.929 . S
C2085 C2083 1.433 . S
C2085 N2088 1.384 . S
C2086 H2077 0.929 . S
C2086 C2078 1.378 . S
C2086 C2081 1.350 . S
C2087 H2074 0.929 . S
C2087 C2079 1.433 . S
C2087 N2089 1.384 . S
N2088 C2084 1.427 . S
N2088 C2085 1.384 . S
N2089 C2081 1.427 . S
N2089 C2087 1.384 . S
H2090 C2096 0.930 . S
H2091 C2100 0.930 . S
H2092 C2105 0.929 . S
H2093 C2103 0.929 . S
H2094 C2098 0.929 . S
H2095 C2104 0.929 . S
C2096 H2090 0.930 . S
C2096 C2097 1.367 . S
C2096 C2104 1.378 . S
C2097 C2096 1.367 . S
C2097 C2105 1.433 . S
C2098 H2094 0.929 . S
C2098 C2100 1.378 . S
C2098 C2102 1.350 . S
C2099 C2102 1.463 . S
C2099 C2104 1.350 . S
C2099 N2107 1.427 . S
C2100 H2091 0.930 . S
C2100 C2098 1.378 . S
C2100 C2101 1.367 . S
C2101 C2100 1.367 . S
C2101 C2103 1.433 . S
C2102 C2098 1.350 . S
C2102 C2099 1.463 . S
C2102 N2106 1.427 . S
C2103 H2093 0.929 . S
C2103 C2101 1.433 . S
C2103 N2106 1.384 . S
C2104 H2095 0.929 . S
C2104 C2096 1.378 . S
C2104 C2099 1.350 . S
C2105 H2092 0.929 . S
C2105 C2097 1.433 . S
C2105 N2107 1.384 . S
N2106 C2102 1.427 . S
N2106 C2103 1.384 . S
N2107 C2099 1.427 . S
N2107 C2105 1.384 . S
H2108 C2114 0.930 . S
H2109 C2118 0.930 1_455 S
H2110 C2123 0.929 . S
H2111 C2121 0.929 . S
H2112 C2116 0.929 . S
H2113 C2122 0.929 . S
C2114 H2108 0.930 . S
C2114 C2115 1.367 . S
C2114 C2122 1.378 . S
C2115 C2114 1.367 . S
C2115 C2123 1.433 . S
C2116 H2112 0.929 . S
C2116 C2118 1.378 . S
C2116 C2120 1.350 . S
C2117 C2120 1.463 . S
C2117 C2122 1.350 . S
C2117 N2125 1.427 . S
C2118 H2109 0.930 1_655 S
C2118 C2116 1.378 . S
C2118 C2119 1.367 . S
C2119 C2118 1.367 . S
C2119 C2121 1.433 . S
C2120 C2116 1.350 . S
C2120 C2117 1.463 . S
C2120 N2124 1.427 . S
C2121 H2111 0.929 . S
C2121 C2119 1.433 . S
C2121 N2124 1.384 . S
C2122 H2113 0.929 . S
C2122 C2114 1.378 . S
C2122 C2117 1.350 . S
C2123 H2110 0.929 . S
C2123 C2115 1.433 . S
C2123 N2125 1.384 . S
N2124 C2120 1.427 . S
N2124 C2121 1.384 . S
N2125 C2117 1.427 . S
N2125 C2123 1.384 . S
H2126 C2132 0.930 . S
H2127 C2136 0.930 . S
H2128 C2141 0.929 . S
H2129 C2139 0.929 . S
H2130 C2134 0.929 . S
H2131 C2140 0.929 . S
C2132 H2126 0.930 . S
C2132 C2133 1.367 . S
C2132 C2140 1.378 . S
C2133 C2132 1.367 . S
C2133 C2141 1.433 . S
C2134 H2130 0.929 . S
C2134 C2136 1.378 . S
C2134 C2138 1.350 . S
C2135 C2138 1.463 . S
C2135 C2140 1.350 . S
C2135 N2143 1.427 . S
C2136 H2127 0.930 . S
C2136 C2134 1.378 . S
C2136 C2137 1.367 . S
C2137 C2136 1.367 . S
C2137 C2139 1.433 . S
C2138 C2134 1.350 . S
C2138 C2135 1.463 . S
C2138 N2142 1.427 . S
C2139 H2129 0.929 . S
C2139 C2137 1.433 . S
C2139 N2142 1.384 . S
C2140 H2131 0.929 . S
C2140 C2132 1.378 . S
C2140 C2135 1.350 . S
C2141 H2128 0.929 . S
C2141 C2133 1.433 . S
C2141 N2143 1.384 . S
N2142 C2138 1.427 . S
N2142 C2139 1.384 . S
N2143 C2135 1.427 . S
N2143 C2141 1.384 . S
H2144 C2150 0.930 . S
H2145 C2154 0.930 . S
H2146 C2159 0.929 . S
H2147 C2157 0.929 . S
H2148 C2152 0.929 . S
H2149 C2158 0.929 . S
C2150 H2144 0.930 . S
C2150 C2151 1.367 . S
C2150 C2158 1.378 . S
C2151 C2150 1.367 . S
C2151 C2159 1.433 . S
C2152 H2148 0.929 . S
C2152 C2154 1.378 . S
C2152 C2156 1.350 . S
C2153 C2156 1.463 . S
C2153 C2158 1.350 . S
C2153 N2161 1.427 . S
C2154 H2145 0.930 . S
C2154 C2152 1.378 . S
C2154 C2155 1.367 . S
C2155 C2154 1.367 . S
C2155 C2157 1.433 . S
C2156 C2152 1.350 . S
C2156 C2153 1.463 . S
C2156 N2160 1.427 . S
C2157 H2147 0.929 . S
C2157 C2155 1.433 . S
C2157 N2160 1.384 . S
C2158 H2149 0.929 . S
C2158 C2150 1.378 . S
C2158 C2153 1.350 . S
C2159 H2146 0.929 . S
C2159 C2151 1.433 . S
C2159 N2161 1.384 . S
N2160 C2156 1.427 . S
N2160 C2157 1.384 . S
N2161 C2153 1.427 . S
N2161 C2159 1.384 . S
H2162 C2168 0.930 . S
H2163 C2172 0.930 . S
H2164 C2177 0.929 . S
H2165 C2175 0.929 . S
H2166 C2170 0.929 . S
H2167 C2176 0.929 . S
C2168 H2162 0.930 . S
C2168 C2169 1.367 . S
C2168 C2176 1.378 . S
C2169 C2168 1.367 . S
C2169 C2177 1.433 . S
C2170 H2166 0.929 . S
C2170 C2172 1.378 . S
C2170 C2174 1.350 . S
C2171 C2174 1.463 . S
C2171 C2176 1.350 . S
C2171 N2179 1.427 . S
C2172 H2163 0.930 . S
C2172 C2170 1.378 . S
C2172 C2173 1.367 . S
C2173 C2172 1.367 . S
C2173 C2175 1.433 . S
C2174 C2170 1.350 . S
C2174 C2171 1.463 . S
C2174 N2178 1.427 . S
C2175 H2165 0.929 . S
C2175 C2173 1.433 . S
C2175 N2178 1.384 . S
C2176 H2167 0.929 . S
C2176 C2168 1.378 . S
C2176 C2171 1.350 . S
C2177 H2164 0.929 . S
C2177 C2169 1.433 . S
C2177 N2179 1.384 . S
N2178 C2174 1.427 . S
N2178 C2175 1.384 . S
N2179 C2171 1.427 . S
N2179 C2177 1.384 . S
H2180 C2186 0.930 . S
H2181 C2190 0.930 . S
H2182 C2195 0.929 . S
H2183 C2193 0.929 . S
H2184 C2188 0.929 . S
H2185 C2194 0.929 . S
C2186 H2180 0.930 . S
C2186 C2187 1.367 . S
C2186 C2194 1.378 . S
C2187 C2186 1.367 . S
C2187 C2195 1.433 . S
C2188 H2184 0.929 . S
C2188 C2190 1.378 . S
C2188 C2192 1.350 . S
C2189 C2192 1.463 . S
C2189 C2194 1.350 . S
C2189 N2197 1.427 . S
C2190 H2181 0.930 . S
C2190 C2188 1.378 . S
C2190 C2191 1.367 . S
C2191 C2190 1.367 . S
C2191 C2193 1.433 . S
C2192 C2188 1.350 . S
C2192 C2189 1.463 . S
C2192 N2196 1.427 . S
C2193 H2183 0.929 . S
C2193 C2191 1.433 . S
C2193 N2196 1.384 . S
C2194 H2185 0.929 . S
C2194 C2186 1.378 . S
C2194 C2189 1.350 . S
C2195 H2182 0.929 . S
C2195 C2187 1.433 . S
C2195 N2197 1.384 . S
N2196 C2192 1.427 . S
N2196 C2193 1.384 . S
N2197 C2189 1.427 . S
N2197 C2195 1.384 . S
H2198 C2204 0.930 . S
H2199 C2208 0.930 . S
H2200 C2213 0.929 . S
H2201 C2211 0.929 . S
H2202 C2206 0.929 . S
H2203 C2212 0.929 . S
C2204 H2198 0.930 . S
C2204 C2205 1.367 . S
C2204 C2212 1.378 . S
C2205 C2204 1.367 . S
C2205 C2213 1.433 . S
C2206 H2202 0.929 . S
C2206 C2208 1.378 . S
C2206 C2210 1.350 . S
C2207 C2210 1.463 . S
C2207 C2212 1.350 . S
C2207 N2215 1.427 . S
C2208 H2199 0.930 . S
C2208 C2206 1.378 . S
C2208 C2209 1.367 . S
C2209 C2208 1.367 . S
C2209 C2211 1.433 . S
C2210 C2206 1.350 . S
C2210 C2207 1.463 . S
C2210 N2214 1.427 . S
C2211 H2201 0.929 . S
C2211 C2209 1.433 . S
C2211 N2214 1.384 . S
C2212 H2203 0.929 . S
C2212 C2204 1.378 . S
C2212 C2207 1.350 . S
C2213 H2200 0.929 . S
C2213 C2205 1.433 . S
C2213 N2215 1.384 . S
N2214 C2210 1.427 . S
N2214 C2211 1.384 . S
N2215 C2207 1.427 . S
N2215 C2213 1.384 . S
H2216 C2222 0.930 . S
H2217 C2226 0.930 . S
H2218 C2231 0.929 . S
H2219 C2229 0.929 . S
H2220 C2224 0.929 . S
H2221 C2230 0.929 . S
C2222 H2216 0.930 . S
C2222 C2223 1.367 . S
C2222 C2230 1.378 . S
C2223 C2222 1.367 . S
C2223 C2231 1.433 . S
C2224 H2220 0.929 . S
C2224 C2226 1.378 . S
C2224 C2228 1.350 . S
C2225 C2228 1.463 . S
C2225 C2230 1.350 . S
C2225 N2233 1.427 . S
C2226 H2217 0.930 . S
C2226 C2224 1.378 . S
C2226 C2227 1.367 . S
C2227 C2226 1.367 . S
C2227 C2229 1.433 . S
C2228 C2224 1.350 . S
C2228 C2225 1.463 . S
C2228 N2232 1.427 . S
C2229 H2219 0.929 . S
C2229 C2227 1.433 . S
C2229 N2232 1.384 . S
C2230 H2221 0.929 . S
C2230 C2222 1.378 . S
C2230 C2225 1.350 . S
C2231 H2218 0.929 . S
C2231 C2223 1.433 . S
C2231 N2233 1.384 . S
N2232 C2228 1.427 . S
N2232 C2229 1.384 . S
N2233 C2225 1.427 . S
N2233 C2231 1.384 . S
H2234 C2240 0.930 . S
H2235 C2244 0.930 1_545 S
H2236 C2249 0.929 . S
H2237 C2247 0.929 . S
H2238 C2242 0.929 . S
H2239 C2248 0.929 . S
C2240 H2234 0.930 . S
C2240 C2241 1.367 . S
C2240 C2248 1.378 . S
C2241 C2240 1.367 . S
C2241 C2249 1.433 . S
C2242 H2238 0.929 . S
C2242 C2244 1.378 . S
C2242 C2246 1.350 . S
C2243 C2246 1.463 . S
C2243 C2248 1.350 . S
C2243 N2251 1.427 . S
C2244 H2235 0.930 1_565 S
C2244 C2242 1.378 . S
C2244 C2245 1.367 . S
C2245 C2244 1.367 . S
C2245 C2247 1.433 . S
C2246 C2242 1.350 . S
C2246 C2243 1.463 . S
C2246 N2250 1.427 . S
C2247 H2237 0.929 . S
C2247 C2245 1.433 . S
C2247 N2250 1.384 . S
C2248 H2239 0.929 . S
C2248 C2240 1.378 . S
C2248 C2243 1.350 . S
C2249 H2236 0.929 . S
C2249 C2241 1.433 . S
C2249 N2251 1.384 . S
N2250 C2246 1.427 . S
N2250 C2247 1.384 . S
N2251 C2243 1.427 . S
N2251 C2249 1.384 . S
H2252 C2258 0.930 . S
H2253 C2262 0.930 . S
H2254 C2267 0.929 . S
H2255 C2265 0.929 . S
H2256 C2260 0.929 . S
H2257 C2266 0.929 . S
C2258 H2252 0.930 . S
C2258 C2259 1.367 . S
C2258 C2266 1.378 . S
C2259 C2258 1.367 . S
C2259 C2267 1.433 . S
C2260 H2256 0.929 . S
C2260 C2262 1.378 . S
C2260 C2264 1.350 . S
C2261 C2264 1.463 . S
C2261 C2266 1.350 . S
C2261 N2269 1.427 . S
C2262 H2253 0.930 . S
C2262 C2260 1.378 . S
C2262 C2263 1.367 . S
C2263 C2262 1.367 . S
C2263 C2265 1.433 . S
C2264 C2260 1.350 . S
C2264 C2261 1.463 . S
C2264 N2268 1.427 . S
C2265 H2255 0.929 . S
C2265 C2263 1.433 . S
C2265 N2268 1.384 . S
C2266 H2257 0.929 . S
C2266 C2258 1.378 . S
C2266 C2261 1.350 . S
C2267 H2254 0.929 . S
C2267 C2259 1.433 . S
C2267 N2269 1.384 . S
N2268 C2264 1.427 . S
N2268 C2265 1.384 . S
N2269 C2261 1.427 . S
N2269 C2267 1.384 . S
H2270 C2276 0.930 1_556 S
H2271 C2280 0.930 . S
H2272 C2285 0.929 . S
H2273 C2283 0.929 . S
H2274 C2278 0.929 . S
H2275 C2284 0.929 1_556 S
C2276 H2270 0.930 1_554 S
C2276 C2277 1.367 . S
C2276 C2284 1.378 . S
C2277 C2276 1.367 . S
C2277 C2285 1.433 . S
C2278 H2274 0.929 . S
C2278 C2280 1.378 . S
C2278 C2282 1.350 . S
C2279 C2282 1.463 . S
C2279 C2284 1.350 . S
C2279 N2287 1.427 . S
C2280 H2271 0.930 . S
C2280 C2278 1.378 . S
C2280 C2281 1.367 . S
C2281 C2280 1.367 . S
C2281 C2283 1.433 1_554 S
C2282 C2278 1.350 . S
C2282 C2279 1.463 . S
C2282 N2286 1.424 1_554 S
C2283 H2273 0.929 . S
C2283 C2281 1.433 1_556 S
C2283 N2286 1.383 . S
C2284 H2275 0.929 1_554 S
C2284 C2276 1.378 . S
C2284 C2279 1.350 . S
C2285 H2272 0.929 . S
C2285 C2277 1.433 . S
C2285 N2287 1.384 . S
N2286 C2282 1.424 1_556 S
N2286 C2283 1.383 . S
N2287 C2279 1.427 . S
N2287 C2285 1.384 . S
H2288 C2294 0.930 . S
H2289 C2298 0.930 . S
H2290 C2303 0.929 . S
H2291 C2301 0.929 . S
H2292 C2296 0.929 . S
H2293 C2302 0.929 . S
C2294 H2288 0.930 . S
C2294 C2295 1.367 . S
C2294 C2302 1.378 . S
C2295 C2294 1.367 . S
C2295 C2303 1.433 . S
C2296 H2292 0.929 . S
C2296 C2298 1.378 . S
C2296 C2300 1.350 . S
C2297 C2300 1.463 . S
C2297 C2302 1.350 . S
C2297 N2305 1.427 . S
C2298 H2289 0.930 . S
C2298 C2296 1.378 . S
C2298 C2299 1.367 . S
C2299 C2298 1.367 . S
C2299 C2301 1.433 . S
C2300 C2296 1.350 . S
C2300 C2297 1.463 . S
C2300 N2304 1.427 . S
C2301 H2291 0.929 . S
C2301 C2299 1.433 . S
C2301 N2304 1.384 . S
C2302 H2293 0.929 . S
C2302 C2294 1.378 . S
C2302 C2297 1.350 . S
C2303 H2290 0.929 . S
C2303 C2295 1.433 . S
C2303 N2305 1.384 . S
N2304 C2300 1.427 . S
N2304 C2301 1.384 . S
N2305 C2297 1.427 . S
N2305 C2303 1.384 . S
H2306 C2312 0.930 . S
H2307 C2316 0.930 . S
H2308 C2321 0.929 . S
H2309 C2319 0.929 . S
H2310 C2314 0.929 . S
H2311 C2320 0.929 . S
C2312 H2306 0.930 . S
C2312 C2313 1.367 . S
C2312 C2320 1.378 . S
C2313 C2312 1.367 . S
C2313 C2321 1.433 . S
C2314 H2310 0.929 . S
C2314 C2316 1.378 . S
C2314 C2318 1.350 . S
C2315 C2318 1.463 . S
C2315 C2320 1.350 . S
C2315 N2323 1.427 . S
C2316 H2307 0.930 . S
C2316 C2314 1.378 . S
C2316 C2317 1.367 . S
C2317 C2316 1.367 . S
C2317 C2319 1.433 . S
C2318 C2314 1.350 . S
C2318 C2315 1.463 . S
C2318 N2322 1.427 . S
C2319 H2309 0.929 . S
C2319 C2317 1.433 . S
C2319 N2322 1.384 . S
C2320 H2311 0.929 . S
C2320 C2312 1.378 . S
C2320 C2315 1.350 . S
C2321 H2308 0.929 . S
C2321 C2313 1.433 . S
C2321 N2323 1.384 . S
N2322 C2318 1.427 . S
N2322 C2319 1.384 . S
N2323 C2315 1.427 . S
N2323 C2321 1.384 . S
H2324 C2330 0.930 . S
H2325 C2334 0.930 . S
H2326 C2339 0.929 . S
H2327 C2337 0.929 . S
H2328 C2332 0.929 . S
H2329 C2338 0.929 . S
C2330 H2324 0.930 . S
C2330 C2331 1.367 . S
C2330 C2338 1.378 . S
C2331 C2330 1.367 . S
C2331 C2339 1.433 . S
C2332 H2328 0.929 . S
C2332 C2334 1.378 . S
C2332 C2336 1.350 . S
C2333 C2336 1.463 . S
C2333 C2338 1.350 . S
C2333 N2341 1.427 . S
C2334 H2325 0.930 . S
C2334 C2332 1.378 . S
C2334 C2335 1.367 . S
C2335 C2334 1.367 . S
C2335 C2337 1.433 . S
C2336 C2332 1.350 . S
C2336 C2333 1.463 . S
C2336 N2340 1.427 . S
C2337 H2327 0.929 . S
C2337 C2335 1.433 . S
C2337 N2340 1.384 . S
C2338 H2329 0.929 . S
C2338 C2330 1.378 . S
C2338 C2333 1.350 . S
C2339 H2326 0.929 . S
C2339 C2331 1.433 . S
C2339 N2341 1.384 . S
N2340 C2336 1.427 . S
N2340 C2337 1.384 . S
N2341 C2333 1.427 . S
N2341 C2339 1.384 . S
H2342 C2348 0.930 . S
H2343 C2352 0.930 . S
H2344 C2357 0.929 . S
H2345 C2355 0.929 . S
H2346 C2350 0.929 . S
H2347 C2356 0.929 . S
C2348 H2342 0.930 . S
C2348 C2349 1.367 . S
C2348 C2356 1.378 . S
C2349 C2348 1.367 . S
C2349 C2357 1.433 . S
C2350 H2346 0.929 . S
C2350 C2352 1.378 . S
C2350 C2354 1.350 . S
C2351 C2354 1.463 . S
C2351 C2356 1.350 . S
C2351 N2359 1.427 . S
C2352 H2343 0.930 . S
C2352 C2350 1.378 . S
C2352 C2353 1.367 . S
C2353 C2352 1.367 . S
C2353 C2355 1.433 . S
C2354 C2350 1.350 . S
C2354 C2351 1.463 . S
C2354 N2358 1.427 . S
C2355 H2345 0.929 . S
C2355 C2353 1.433 . S
C2355 N2358 1.384 . S
C2356 H2347 0.929 . S
C2356 C2348 1.378 . S
C2356 C2351 1.350 . S
C2357 H2344 0.929 . S
C2357 C2349 1.433 . S
C2357 N2359 1.384 . S
N2358 C2354 1.427 . S
N2358 C2355 1.384 . S
N2359 C2351 1.427 . S
N2359 C2357 1.384 . S
C639 C101 1.430 . S
C643 C316 1.211 . S
C657 C57 1.460 . S
C661 C351 1.413 . S
C675 C70 1.021 . S
C679 C356 0.919 . S
C697 C381 1.321 . S
C693 C82 1.428 . S
C711 C23 1.431 . S
C715 C401 1.335 . S
C733 C416 0.950 . S
C729 C29 1.024 . S
C751 C451 1.403 . S
C747 C49 1.452 . S
C765 C10 1.432 . S
C769 C456 1.219 . S
C787 C331 1.484 . S
C783 C218 1.575 . S
C801 C226 0.997 . S
C805 C341 0.931 . S
C823 C371 1.379 1_565 S
C819 C251 1.429 . S
C841 C376 1.032 . S
C837 C159 1.149 . S
C855 C211 1.146 . S
C859 C396 1.027 1_655 S
C877 C431 1.388 . S
C873 C225 1.435 . S
C895 C441 0.914 . S
C891 C252 0.989 . S
C913 C471 1.494 . S
C909 C166 1.574 . S
C931 C321 1.304 1_565 S
C927 C147 1.480 . S
C945 C263 1.694 . S
C949 C491 1.657 . S
C967 C501 1.400 . S
C963 C309 1.534 . S
C985 C516 0.914 . S
C981 C291 1.011 . S
C999 C108 1.479 . S
C1003 C461 1.303 . S
C1017 C121 1.544 . S
C1021 C361 1.421 . S
C1035 C302 1.689 . S
C1039 C551 1.662 . S
C1057 C556 0.936 . S
C1053 C276 1.021 . S
C1075 C314 1.358 . S
C1071 C55 1.519 . S
C1093 C570 1.656 . S
C1089 C96 1.696 . S
C1107 C88 1.256 . S
C1111 C354 1.169 . S
C1125 C75 1.643 . S
C1129 C544 1.557 . S
C1147 C404 1.557 . S
C1143 C4 1.643 . S
C1161 C44 1.262 . S
C1165 C494 1.164 . S
C1183 C450 1.660 . S
C1179 C31 1.694 . S
C1201 C574 1.373 . S
C1197 C18 1.523 . S
C1219 C330 1.684 1_556 S
C1215 C133 1.751 . S
C1237 C564 1.175 . S
C1233 C296 1.226 . S
C1251 C107 1.636 . S
C1255 C370 1.595 . S
C1269 C264 1.401 . S
C1273 C534 1.298 . S
C1287 C140 1.397 . S
C1291 C394 1.287 . S
C1309 C510 1.603 . S
C1305 C289 1.635 . S
C1323 C114 1.223 . S
C1327 C444 1.165 . S
C1341 C265 1.752 . S
C1345 C590 1.689 . S
C1359 C179 1.546 . S
C1363 C324 1.428 . S
C1377 C161 1.932 . S
C1381 C490 1.903 . S
C1395 C244 1.712 . S
C1399 C424 1.620 . S
C1413 C224 1.246 . S
C1417 C514 1.159 . S
C1435 C584 1.437 . S
C1431 C257 1.547 . S
C1449 C199 1.710 . S
C1453 C364 1.612 . S
C1471 C390 1.901 . S
C1467 C237 1.931 . S
C1489 C334 1.163 . S
C1485 C185 1.246 . S
C1503 C69 1.437 . S
C1507 C596 1.220 . S
C1525 C571 1.411 . S
C1521 C83 1.461 . S
C1539 C94 1.018 . S
C1543 C616 0.916 . S
C1557 C56 1.429 . S
C1561 C541 1.323 . S
C1575 C42 1.439 . S
C1579 C481 1.337 . S
C1597 C496 0.914 . S
C1593 C3 1.020 . S
C1615 C531 1.420 . S
C1611 C16 1.466 . S
C1633 C576 1.206 . S
C1629 C36 1.431 . S
C1651 C611 1.488 . S
C1647 C238 1.573 . S
C1665 C174 0.995 . S
C1669 C561 0.929 . S
C1687 C631 1.383 . S
C1683 C186 1.427 . S
C1705 C536 1.054 . S
C1701 C198 1.149 . S
C1723 C476 1.027 . S
C1719 C239 1.147 . S
C1737 C173 1.429 . S
C1741 C511 1.393 . S
C1759 C521 0.918 . S
C1755 C187 0.992 . S
C1773 C205 1.581 . S
C1777 C591 1.496 . S
C1795 C601 1.302 . S
C1791 C290 1.478 . S
C1809 C122 1.689 . S
C1813 C411 1.667 . S
C1831 C421 1.410 . S
C1827 C134 1.540 . S
C1849 C436 0.953 . S
C1845 C148 1.020 . S
C1867 C581 1.308 . S
C1863 C283 1.479 . S
C1881 C270 1.538 . S
C1885 C621 1.408 . S
C1903 C391 1.656 . S
C1899 C135 1.692 . S
C1921 C336 0.941 . S
C1917 C109 1.014 . S
C1935 C81 1.519 . S
C1939 C594 1.357 . S
C1957 C350 1.664 . S
C1953 C68 1.693 . S
C1971 C62 1.254 . S
C1975 C614 1.150 . S
C1989 C95 1.642 . S
C1993 C384 1.559 . S
C2007 C30 1.643 . S
C2011 C484 1.558 . S
C2029 C414 1.156 . S
C2025 C17 1.255 . S
C2043 C5 1.693 . S
C2047 C530 1.664 . S
C2061 C43 1.515 . S
C2065 C454 1.358 . S
C2083 C610 1.692 . S
C2079 C304 1.752 . S
C2097 C153 1.224 . S
C2101 C344 1.175 . S
C2119 C630 1.595 . S
C2115 C278 1.636 . S
C2133 C127 1.396 . S
C2137 C374 1.279 . S
C2151 C303 1.392 . S
C2155 C474 1.277 . S
C2173 C430 1.594 . S
C2169 C146 1.634 . S
C2187 C277 1.225 . S
C2191 C524 1.168 . S
C2209 C470 1.686 . S
C2205 C120 1.751 . S
C2227 C604 1.430 . S
C2223 C231 1.546 . S
C2245 C410 1.898 . S
C2241 C200 1.933 . S
C2259 C212 1.717 . S
C2263 C504 1.625 . S
C2281 C434 1.171 . S
C2277 C172 1.247 . S
C2295 C192 1.547 . S
C2299 C464 1.434 . S
C2313 C160 1.713 . S
C2317 C624 1.614 . S
C2335 C550 1.902 . S
C2331 C213 1.932 . S
C2353 C554 1.169 . S
C2349 C250 1.248 . S
