# Generated by pormake.
# Topology pto, (3,4)-cn, num edge types: 1
# Building blocks:
#     Node 0, Type 0, BuildingBlock: OLANEW_clean_sbu_2, # of connection points: 3
#     Node 1, Type 0, BuildingBlock: OLANEW_clean_sbu_2, # of connection points: 3
#     Node 2, Type 0, BuildingBlock: OLANEW_clean_sbu_2, # of connection points: 3
#     Node 3, Type 0, BuildingBlock: OLANEW_clean_sbu_2, # of connection points: 3
#     Node 4, Type 0, BuildingBlock: OLANEW_clean_sbu_2, # of connection points: 3
#     Node 5, Type 0, BuildingBlock: OLANEW_clean_sbu_2, # of connection points: 3
#     Node 6, Type 0, BuildingBlock: OLANEW_clean_sbu_2, # of connection points: 3
#     Node 7, Type 0, BuildingBlock: OLANEW_clean_sbu_2, # of connection points: 3
#     Node 8, Type 1, BuildingBlock: NAWXER_clean_sbu_0, # of connection points: 4
#     Node 9, Type 1, BuildingBlock: NAWXER_clean_sbu_0, # of connection points: 4
#     Node 10, Type 1, BuildingBlock: NAWXER_clean_sbu_0, # of connection points: 4
#     Node 11, Type 1, BuildingBlock: NAWXER_clean_sbu_0, # of connection points: 4
#     Node 12, Type 1, BuildingBlock: NAWXER_clean_sbu_0, # of connection points: 4
#     Node 13, Type 1, BuildingBlock: NAWXER_clean_sbu_0, # of connection points: 4
#     Edge 14, Type (0, 1), BuildingBlock: MIFKUJ_clean_linker_0, # of connection points: 2
#     Edge 15, Type (0, 1), BuildingBlock: MIFKUJ_clean_linker_0, # of connection points: 2
#     Edge 16, Type (0, 1), BuildingBlock: MIFKUJ_clean_linker_0, # of connection points: 2
#     Edge 17, Type (0, 1), BuildingBlock: MIFKUJ_clean_linker_0, # of connection points: 2
#     Edge 18, Type (0, 1), BuildingBlock: MIFKUJ_clean_linker_0, # of connection points: 2
#     Edge 19, Type (0, 1), BuildingBlock: MIFKUJ_clean_linker_0, # of connection points: 2
#     Edge 20, Type (0, 1), BuildingBlock: MIFKUJ_clean_linker_0, # of connection points: 2
#     Edge 21, Type (0, 1), BuildingBlock: MIFKUJ_clean_linker_0, # of connection points: 2
#     Edge 22, Type (0, 1), BuildingBlock: MIFKUJ_clean_linker_0, # of connection points: 2
#     Edge 23, Type (0, 1), BuildingBlock: MIFKUJ_clean_linker_0, # of connection points: 2
#     Edge 24, Type (0, 1), BuildingBlock: MIFKUJ_clean_linker_0, # of connection points: 2
#     Edge 25, Type (0, 1), BuildingBlock: MIFKUJ_clean_linker_0, # of connection points: 2
#     Edge 26, Type (0, 1), BuildingBlock: MIFKUJ_clean_linker_0, # of connection points: 2
#     Edge 27, Type (0, 1), BuildingBlock: MIFKUJ_clean_linker_0, # of connection points: 2
#     Edge 28, Type (0, 1), BuildingBlock: MIFKUJ_clean_linker_0, # of connection points: 2
#     Edge 29, Type (0, 1), BuildingBlock: MIFKUJ_clean_linker_0, # of connection points: 2
#     Edge 30, Type (0, 1), BuildingBlock: MIFKUJ_clean_linker_0, # of connection points: 2
#     Edge 31, Type (0, 1), BuildingBlock: MIFKUJ_clean_linker_0, # of connection points: 2
#     Edge 32, Type (0, 1), BuildingBlock: MIFKUJ_clean_linker_0, # of connection points: 2
#     Edge 33, Type (0, 1), BuildingBlock: MIFKUJ_clean_linker_0, # of connection points: 2
#     Edge 34, Type (0, 1), BuildingBlock: MIFKUJ_clean_linker_0, # of connection points: 2
#     Edge 35, Type (0, 1), BuildingBlock: MIFKUJ_clean_linker_0, # of connection points: 2
#     Edge 36, Type (0, 1), BuildingBlock: MIFKUJ_clean_linker_0, # of connection points: 2
#     Edge 37, Type (0, 1), BuildingBlock: MIFKUJ_clean_linker_0, # of connection points: 2
# Relax obj value: 0.011
# Max RMSD: 0.131
# Mean RMSD: 0.057
data_MOF--net-pto--node1-OLANEW_clean_sbu_2--node2-NAWXER_clean_sbu_0--edge1-MIFKUJ_clean_linker_0
_symmetry_space_group_name_H-M    P1
_symmetry_Int_Tables_number       1
_symmetry_cell_setting            triclinic
loop_
_symmetry_equiv_pos_as_xyz
'x, y, z'
_cell_length_a     57.947491
_cell_length_b     56.849406
_cell_length_c     52.19277
_cell_angle_alpha  92.995454
_cell_angle_beta   90.34762
_cell_angle_gamma 102.85889
loop_
_atom_site_label
_atom_site_type_symbol
_atom_site_fract_x
_atom_site_fract_y
_atom_site_fract_z
_atom_type_partial_charge
O0 O 0.36479 0.42506 0.27789 0.0
Cd1 Cd 0.33669 0.42307 0.31279 0.0
O2 O 0.36268 0.46132 0.26681 0.0
Cd3 Cd 0.33271 0.4625 0.2916 0.0
O4 O 0.29614 0.46417 0.29964 0.0
C5 C 0.28034 0.45156 0.28451 0.0
O6 O 0.2868 0.43772 0.26622 0.0
C7 C 0.37175 0.44296 0.26406 0.0
C8 C 0.33889 0.3838 0.34186 0.0
O9 O 0.3238 0.38175 0.32336 0.0
O10 O 0.35269 0.40453 0.34687 0.0
O11 O 0.33629 0.92142 0.82559 0.0
Cd12 Cd 0.31073 0.94732 0.81158 0.0
O13 O 0.30614 0.89193 0.81457 0.0
Cd14 Cd 0.2871 0.85439 0.80768 0.0
O15 O 0.26211 0.82026 0.79815 0.0
C16 C 0.24739 0.81118 0.81485 0.0
O17 O 0.24819 0.82227 0.83768 0.0
C18 C 0.327 0.89893 0.82393 0.0
C19 C 0.32758 0.97499 0.77034 0.0
O20 O 0.33105 0.98395 0.79346 0.0
O21 O 0.31656 0.95285 0.76678 0.0
O22 O 0.79241 0.76778 0.28683 0.0
Cd23 Cd 0.78842 0.73789 0.25072 0.0
O24 O 0.75758 0.7759 0.27961 0.0
Cd25 Cd 0.7454 0.75088 0.24656 0.0
O26 O 0.71821 0.74272 0.21609 0.0
C27 C 0.7088 0.7604 0.21205 0.0
O28 O 0.71657 0.78087 0.22551 0.0
C29 C 0.77683 0.77967 0.29258 0.0
C30 C 0.8238 0.7117 0.25251 0.0
O31 O 0.82764 0.73239 0.24272 0.0
O32 O 0.80319 0.70331 0.26136 0.0
O33 O 0.80762 0.31006 0.74171 0.0
Cd34 Cd 0.77735 0.27627 0.7556 0.0
O35 O 0.78462 0.33609 0.74126 0.0
Cd36 Cd 0.75343 0.31328 0.75757 0.0
O37 O 0.72268 0.31265 0.78178 0.0
C38 C 0.71922 0.33347 0.78817 0.0
O39 O 0.73369 0.35253 0.77962 0.0
C40 C 0.80463 0.33097 0.73738 0.0
C41 C 0.77898 0.23502 0.72493 0.0
O42 O 0.76451 0.24826 0.71974 0.0
O43 O 0.7924 0.24105 0.74489 0.0
O44 O 0.74568 0.74678 0.66089 0.0
Cd45 Cd 0.74238 0.70902 0.68257 0.0
O46 O 0.73847 0.76447 0.69729 0.0
Cd47 Cd 0.72805 0.79263 0.72176 0.0
O48 O 0.70901 0.80843 0.75165 0.0
C49 C 0.68997 0.79463 0.75863 0.0
O50 O 0.68337 0.77296 0.74727 0.0
C51 C 0.74225 0.76546 0.67336 0.0
C52 C 0.78475 0.69877 0.69924 0.0
O53 O 0.77704 0.69329 0.67614 0.0
O54 O 0.77272 0.70971 0.71437 0.0
O55 O 0.7973 0.28039 0.24635 0.0
Cd56 Cd 0.76029 0.24955 0.24663 0.0
O57 O 0.79088 0.28761 0.20623 0.0
Cd58 Cd 0.75429 0.26708 0.20353 0.0
O59 O 0.71853 0.26873 0.19175 0.0
C60 C 0.70361 0.25155 0.18032 0.0
O61 O 0.70906 0.23047 0.1761 0.0
C62 C 0.80419 0.29131 0.22616 0.0
C63 C 0.76007 0.21525 0.28308 0.0
O64 O 0.76942 0.21328 0.26111 0.0
O65 O 0.751 0.23356 0.28795 0.0
O66 O 0.25729 0.3699 0.82832 0.0
Cd67 Cd 0.22466 0.36528 0.79725 0.0
O68 O 0.28041 0.39845 0.80755 0.0
Cd69 Cd 0.25796 0.39029 0.77309 0.0
O70 O 0.25408 0.36779 0.73742 0.0
C71 C 0.27294 0.36109 0.73133 0.0
O72 O 0.29188 0.36873 0.74606 0.0
C73 C 0.27659 0.38564 0.827 0.0
C74 C 0.19541 0.39708 0.80933 0.0
O75 O 0.19088 0.37565 0.8174 0.0
O76 O 0.21377 0.40345 0.79559 0.0
O77 O 0.34056 0.85556 0.2658 0.0
Cd78 Cd 0.31704 0.85109 0.30471 0.0
O79 O 0.30846 0.83767 0.24417 0.0
Cd80 Cd 0.28718 0.81779 0.21187 0.0
O81 O 0.2591 0.78814 0.19608 0.0
C82 C 0.25324 0.7709 0.21098 0.0
O83 O 0.26455 0.77242 0.23313 0.0
C84 C 0.33053 0.84709 0.24453 0.0
C85 C 0.31594 0.8945 0.33154 0.0
O86 O 0.33277 0.88368 0.3352 0.0
O87 O 0.29977 0.88496 0.31487 0.0
C88 C 0.99636 0.49954 0.22359 0.0
C89 C 0.05793 0.57168 0.21123 0.0
O90 O 0.00393 0.51109 0.24487 0.0
Zn91 Zn 0.0289 0.54377 0.2572 0.0
O92 O 0.00448 0.50795 0.20258 0.0
Zn93 Zn 0.02637 0.53621 0.21701 0.0
O94 O 0.05191 0.52102 0.23727 0.0
O95 O 0.05061 0.53197 0.27839 0.0
O96 O 0.04621 0.55725 0.19395 0.0
O97 O 0.05307 0.56851 0.23491 0.0
O98 O 0.00978 0.56382 0.27348 0.0
O99 O 0.00347 0.55848 0.23168 0.0
C100 C 0.05941 0.52093 0.26047 0.0
C101 C 0.99895 0.56777 0.25349 0.0
C102 C 0.9912 0.53716 0.74064 0.0
C103 C 0.05056 0.61144 0.75957 0.0
O104 O 0.98982 0.54602 0.7635 0.0
Zn105 Zn 0.00851 0.57572 0.78783 0.0
O106 O 0.00727 0.54739 0.72589 0.0
Zn107 Zn 0.021 0.57435 0.74955 0.0
O108 O 0.03881 0.55761 0.77679 0.0
O109 O 0.02174 0.55948 0.81434 0.0
O110 O 0.04656 0.59925 0.73826 0.0
O111 O 0.03773 0.60459 0.77894 0.0
O112 O 0.98382 0.5926 0.79632 0.0
O113 O 0.99277 0.59299 0.75526 0.0
C114 C 0.03748 0.553 0.80055 0.0
C115 C 0.98024 0.59869 0.77378 0.0
C116 C 0.34233 0.127 0.5594 0.0
C117 C 0.34543 0.1791 0.48778 0.0
O118 O 0.32176 0.12631 0.5497 0.0
Zn119 Zn 0.30692 0.14198 0.51861 0.0
O120 O 0.36053 0.1401 0.54979 0.0
Zn121 Zn 0.34423 0.15267 0.52322 0.0
O122 O 0.32437 0.17474 0.54449 0.0
O123 O 0.28641 0.15991 0.53594 0.0
O124 O 0.36266 0.17577 0.50121 0.0
O125 O 0.32434 0.16754 0.49228 0.0
O126 O 0.2927 0.11429 0.49645 0.0
O127 O 0.33169 0.12115 0.49809 0.0
C128 C 0.30263 0.17574 0.54748 0.0
C129 C 0.31173 0.1084 0.4896 0.0
C130 C 0.52787 0.77885 0.03305 0.0
C131 C 0.47664 0.79099 0.96277 0.0
O132 O 0.51337 0.76279 0.01962 0.0
Zn133 Zn 0.50106 0.78443 0.9986 0.0
O134 O 0.52958 0.80123 0.02899 0.0
Zn135 Zn 0.51442 0.82245 0.00368 0.0
O136 O 0.4984 0.84141 0.02628 0.0
O137 O 0.48169 0.80253 0.02503 0.0
O138 O 0.48932 0.81077 0.97276 0.0
O139 O 0.47724 0.77102 0.97234 0.0
O140 O 0.53107 0.79939 0.97574 0.0
O141 O 0.54169 0.83867 0.98524 0.0
C142 C 0.48231 0.8242 0.0337 0.0
C143 C 0.54473 0.82005 0.97229 0.0
C144 C 0.74662 0.97483 0.532 0.0
C145 C 0.75591 0.03442 0.46687 0.0
O146 O 0.73039 0.98062 0.5189 0.0
Zn147 Zn 0.75088 0.00473 0.4996 0.0
O148 O 0.76833 0.98517 0.52864 0.0
Zn149 Zn 0.78826 0.01175 0.50482 0.0
O150 O 0.80406 0.03647 0.5299 0.0
O151 O 0.76534 0.03269 0.52811 0.0
O152 O 0.77588 0.03216 0.476 0.0
O153 O 0.73679 0.02195 0.47535 0.0
O154 O 0.76857 0.98279 0.47565 0.0
O155 O 0.80676 0.99275 0.48539 0.0
C156 C 0.78567 0.04308 0.53782 0.0
C157 C 0.78962 0.97971 0.47226 0.0
C158 C 0.52984 0.33246 0.03572 0.0
C159 C 0.4731 0.35874 0.98129 0.0
O160 O 0.51068 0.31996 0.0257 0.0
Zn161 Zn 0.50204 0.34553 0.00806 0.0
O162 O 0.53645 0.35495 0.03121 0.0
Zn163 Zn 0.52331 0.38079 0.00918 0.0
O164 O 0.51962 0.40492 0.03518 0.0
O165 O 0.49574 0.36928 0.0396 0.0
O166 O 0.49103 0.376 0.98705 0.0
O167 O 0.47236 0.33795 0.98944 0.0
O168 O 0.52858 0.35179 0.97893 0.0
O169 O 0.54756 0.38992 0.98431 0.0
C170 C 0.5036 0.39138 0.04757 0.0
C171 C 0.5448 0.36954 0.97213 0.0
H172 H 0.24367 0.43046 0.25196 0.0
H173 H 0.20392 0.43826 0.25087 0.0
H174 H 0.22089 0.48653 0.31818 0.0
H175 H 0.26082 0.47884 0.31949 0.0
H176 H 0.17435 0.45669 0.31798 0.0
H177 H 0.22525 0.51036 0.26268 0.0
H178 H 0.25362 0.52009 0.22768 0.0
H179 H 0.20328 0.47654 0.17404 0.0
H180 H 0.17473 0.46627 0.20882 0.0
H181 H 0.08745 0.52666 0.30376 0.0
H182 H 0.12271 0.51065 0.3104 0.0
H183 H 0.11106 0.47243 0.23615 0.0
H184 H 0.07628 0.48899 0.22908 0.0
H185 H 0.15459 0.49568 0.24042 0.0
H186 H 0.1027 0.44307 0.29411 0.0
H187 H 0.07395 0.43217 0.32852 0.0
H188 H 0.12471 0.47161 0.38431 0.0
H189 H 0.15368 0.48303 0.35017 0.0
C190 C 0.23891 0.44252 0.26675 0.0
C191 C 0.25552 0.45425 0.28566 0.0
C192 C 0.21618 0.44695 0.26607 0.0
C193 C 0.2096 0.46318 0.28426 0.0
C194 C 0.22567 0.47397 0.30395 0.0
C195 C 0.2485 0.46962 0.3046 0.0
C196 C 0.1866 0.47019 0.28157 0.0
C197 C 0.17003 0.46543 0.30117 0.0
C198 C 0.18086 0.48106 0.25935 0.0
C199 C 0.19796 0.48735 0.23839 0.0
C200 C 0.22031 0.50271 0.24346 0.0
C201 C 0.23641 0.50834 0.22366 0.0
C202 C 0.23028 0.49889 0.19867 0.0
C203 C 0.20802 0.48382 0.19341 0.0
C204 C 0.19186 0.4781 0.21316 0.0
C205 C 0.09222 0.51458 0.28901 0.0
C206 C 0.07915 0.50919 0.26584 0.0
C207 C 0.11234 0.50534 0.29288 0.0
C208 C 0.11949 0.49018 0.27385 0.0
C209 C 0.10595 0.48414 0.25108 0.0
C210 C 0.08604 0.4936 0.24708 0.0
C211 C 0.142 0.48207 0.27677 0.0
C212 C 0.15865 0.48676 0.25721 0.0
C213 C 0.14765 0.47096 0.29894 0.0
C214 C 0.13029 0.46409 0.31953 0.0
C215 C 0.10767 0.44958 0.31369 0.0
C216 C 0.09135 0.44328 0.33315 0.0
C217 C 0.09748 0.45124 0.35858 0.0
C218 C 0.11998 0.46548 0.3646 0.0
C219 C 0.13637 0.47185 0.3452 0.0
H220 H 0.08481 0.44634 0.37362 0.0
H221 H 0.24277 0.50328 0.18336 0.0
H222 H 0.23965 0.78503 0.76884 0.0
H223 H 0.20753 0.7501 0.75742 0.0
H224 H 0.18067 0.75307 0.83414 0.0
H225 H 0.21286 0.78779 0.84583 0.0
H226 H 0.18003 0.70715 0.81727 0.0
H227 H 0.15546 0.77591 0.78513 0.0
H228 H 0.15948 0.8121 0.75999 0.0
H229 H 0.16377 0.76937 0.6906 0.0
H230 H 0.16009 0.73296 0.7154 0.0
H231 H 0.06301 0.64107 0.8025 0.0
H232 H 0.0977 0.67409 0.80926 0.0
H233 H 0.11868 0.66287 0.73124 0.0
H234 H 0.08371 0.62973 0.72413 0.0
H235 H 0.12419 0.71121 0.74599 0.0
H236 H 0.14565 0.6417 0.7781 0.0
H237 H 0.1405 0.60554 0.80343 0.0
H238 H 0.14175 0.64959 0.87302 0.0
H239 H 0.14648 0.68599 0.84808 0.0
C240 C 0.22699 0.77818 0.78334 0.0
C241 C 0.22874 0.78928 0.80822 0.0
C242 C 0.2086 0.75827 0.77674 0.0
C243 C 0.19156 0.74919 0.79484 0.0
C244 C 0.19362 0.75983 0.81987 0.0
C245 C 0.212 0.77972 0.82649 0.0
C246 C 0.1713 0.72889 0.78768 0.0
C247 C 0.16771 0.70811 0.80184 0.0
C248 C 0.15559 0.72992 0.76708 0.0
C249 C 0.15777 0.75177 0.75215 0.0
C250 C 0.15746 0.77427 0.76454 0.0
C251 C 0.15964 0.79481 0.75035 0.0
C252 C 0.16195 0.79305 0.72373 0.0
C253 C 0.16203 0.77072 0.71123 0.0
C254 C 0.15988 0.75012 0.72534 0.0
C255 C 0.07487 0.64566 0.78666 0.0
C256 C 0.07067 0.63263 0.7628 0.0
C257 C 0.09476 0.66449 0.79062 0.0
C258 C 0.11095 0.67062 0.77089 0.0
C259 C 0.10643 0.6583 0.74675 0.0
C260 C 0.08647 0.63937 0.74274 0.0
C261 C 0.13276 0.68966 0.77584 0.0
C262 C 0.13665 0.71016 0.76126 0.0
C263 C 0.14875 0.68839 0.79607 0.0
C264 C 0.14624 0.66657 0.81118 0.0
C265 C 0.14466 0.64367 0.79879 0.0
C266 C 0.14183 0.62312 0.81308 0.0
C267 C 0.14075 0.62526 0.83981 0.0
C268 C 0.14257 0.64796 0.85231 0.0
C269 C 0.14534 0.66856 0.83811 0.0
H270 H 0.13855 0.60933 0.85084 0.0
H271 H 0.16363 0.80897 0.71277 0.0
H272 H 0.81871 0.6635 0.2591 0.0
H273 H 0.84985 0.64084 0.26069 0.0
H274 H 0.90266 0.70642 0.25126 0.0
H275 H 0.87144 0.72892 0.24838 0.0
H276 H 0.91456 0.67324 0.22407 0.0
H277 H 0.89162 0.67896 0.31104 0.0
H278 H 0.86446 0.67568 0.34753 0.0
H279 H 0.84323 0.59893 0.33196 0.0
H280 H 0.87005 0.60179 0.29516 0.0
H281 H 0.98991 0.59624 0.29456 0.0
H282 H 0.96209 0.62298 0.29614 0.0
H283 H 0.94042 0.60053 0.21776 0.0
H284 H 0.96854 0.57437 0.21581 0.0
H285 H 0.91638 0.61593 0.29216 0.0
H286 H 0.92662 0.64579 0.18678 0.0
H287 H 0.9577 0.65352 0.15422 0.0
H288 H 0.01136 0.66741 0.21361 0.0
H289 H 0.98062 0.66009 0.24652 0.0
C290 C 0.83697 0.67308 0.25739 0.0
C291 C 0.84265 0.69799 0.2537 0.0
C292 C 0.85479 0.66013 0.25846 0.0
C293 C 0.87872 0.67195 0.25659 0.0
C294 C 0.88438 0.69685 0.25277 0.0
C295 C 0.86652 0.70971 0.25119 0.0
C296 C 0.89778 0.65827 0.25818 0.0
C297 C 0.91495 0.66077 0.23902 0.0
C298 C 0.89882 0.64246 0.27806 0.0
C299 C 0.88271 0.64063 0.30021 0.0
C300 C 0.88104 0.6614 0.3153 0.0
C301 C 0.86572 0.65962 0.33605 0.0
C302 C 0.85209 0.63712 0.34202 0.0
C303 C 0.85379 0.61635 0.32729 0.0
C304 C 0.86906 0.61804 0.3065 0.0
C305 C 0.97921 0.59702 0.27766 0.0
C306 C 0.98155 0.58329 0.25501 0.0
C307 C 0.9633 0.61228 0.2786 0.0
C308 C 0.94941 0.61407 0.25695 0.0
C309 C 0.95132 0.59991 0.23453 0.0
C310 C 0.96734 0.58485 0.2335 0.0
C311 C 0.93272 0.6305 0.25774 0.0
C312 C 0.91601 0.62851 0.27732 0.0
C313 C 0.93266 0.64746 0.23881 0.0
C314 C 0.95128 0.65216 0.21911 0.0
C315 C 0.94504 0.65059 0.1929 0.0
C316 C 0.96261 0.65489 0.17438 0.0
C317 C 0.9865 0.66088 0.18184 0.0
C318 C 0.99286 0.66267 0.20785 0.0
C319 C 0.97537 0.65842 0.22644 0.0
H320 H 7e-05 0.66417 0.16748 0.0
H321 H 0.84024 0.63577 0.35809 0.0
H322 H 0.80529 0.37847 0.73087 0.0
H323 H 0.83932 0.4106 0.72222 0.0
H324 H 0.88367 0.35887 0.71675 0.0
H325 H 0.84968 0.32654 0.72605 0.0
H326 H 0.90332 0.39571 0.74751 0.0
H327 H 0.87024 0.38776 0.66326 0.0
H328 H 0.83915 0.38413 0.62992 0.0
H329 H 0.82862 0.45434 0.65385 0.0
H330 H 0.85942 0.45827 0.68759 0.0
H331 H 0.99923 0.49547 0.71778 0.0
H332 H 0.96966 0.45734 0.70893 0.0
H333 H 0.9144 0.49214 0.73498 0.0
H334 H 0.94387 0.52974 0.74479 0.0
H335 H 0.90438 0.46042 0.68705 0.0
H336 H 0.93368 0.46499 0.77476 0.0
H337 H 0.96341 0.46744 0.80929 0.0
H338 H 0.97978 0.40148 0.77905 0.0
H339 H 0.9509 0.39923 0.74365 0.0
C340 C 0.82219 0.3738 0.72747 0.0
C341 C 0.82477 0.34993 0.72931 0.0
C342 C 0.84164 0.39222 0.72232 0.0
C343 C 0.86404 0.38714 0.71853 0.0
C344 C 0.86654 0.3632 0.71954 0.0
C345 C 0.84708 0.34474 0.72485 0.0
C346 C 0.88508 0.40721 0.71602 0.0
C347 C 0.90384 0.4095 0.73378 0.0
C348 C 0.88558 0.42545 0.69843 0.0
C349 C 0.86708 0.42324 0.67807 0.0
C350 C 0.86119 0.40236 0.66154 0.0
C351 C 0.84363 0.40026 0.64254 0.0
C352 C 0.83189 0.41897 0.63979 0.0
C353 C 0.83773 0.43986 0.656 0.0
C354 C 0.85527 0.44205 0.67504 0.0
C355 C 0.9807 0.49495 0.72114 0.0
C356 C 0.97365 0.51535 0.73188 0.0
C357 C 0.96392 0.47327 0.71618 0.0
C358 C 0.93992 0.47205 0.72132 0.0
C359 C 0.93282 0.49281 0.7308 0.0
C360 C 0.94961 0.51418 0.73644 0.0
C361 C 0.92223 0.44889 0.71873 0.0
C362 C 0.90409 0.44617 0.70017 0.0
C363 C 0.92231 0.43019 0.73553 0.0
C364 C 0.9405 0.43225 0.75617 0.0
C365 C 0.94404 0.45134 0.77506 0.0
C366 C 0.9607 0.45265 0.79487 0.0
C367 C 0.9736 0.43472 0.79629 0.0
C368 C 0.96991 0.41547 0.77786 0.0
C369 C 0.95351 0.41424 0.75782 0.0
H370 H 0.98637 0.43568 0.81175 0.0
H371 H 0.8183 0.41731 0.62507 0.0
H372 H 0.37264 0.38085 0.37769 0.0
H373 H 0.37597 0.34563 0.4013 0.0
H374 H 0.31262 0.30397 0.36312 0.0
H375 H 0.30915 0.33906 0.33942 0.0
H376 H 0.31291 0.29845 0.41544 0.0
H377 H 0.36503 0.29584 0.34423 0.0
H378 H 0.3982 0.31216 0.31619 0.0
H379 H 0.44659 0.32249 0.38054 0.0
H380 H 0.41363 0.30653 0.40906 0.0
H381 H 0.31611 0.18222 0.4479 0.0
H382 H 0.31791 0.21654 0.42121 0.0
H383 H 0.3836 0.25324 0.45867 0.0
H384 H 0.38224 0.21852 0.48504 0.0
H385 H 0.38334 0.26245 0.40813 0.0
H386 H 0.33168 0.26314 0.47918 0.0
H387 H 0.29874 0.24556 0.50699 0.0
H388 H 0.24954 0.23982 0.44395 0.0
H389 H 0.28225 0.25652 0.41548 0.0
C390 C 0.35938 0.36421 0.37436 0.0
C391 C 0.34064 0.36273 0.35665 0.0
C392 C 0.36138 0.34409 0.38778 0.0
C393 C 0.34465 0.32216 0.38379 0.0
C394 C 0.32573 0.32073 0.36644 0.0
C395 C 0.32381 0.34078 0.35288 0.0
C396 C 0.34675 0.30069 0.39777 0.0
C397 C 0.32818 0.2904 0.41364 0.0
C398 C 0.367 0.29066 0.39594 0.0
C399 C 0.38683 0.30025 0.37883 0.0
C400 C 0.38271 0.3018 0.35245 0.0
C401 C 0.40148 0.31094 0.33646 0.0
C402 C 0.42448 0.31842 0.34659 0.0
C403 C 0.42876 0.31672 0.37273 0.0
C404 C 0.41005 0.30762 0.38881 0.0
C405 C 0.33118 0.1974 0.45013 0.0
C406 C 0.34889 0.19785 0.46877 0.0
C407 C 0.33214 0.21702 0.43492 0.0
C408 C 0.35055 0.23769 0.43845 0.0
C409 C 0.36914 0.23753 0.45579 0.0
C410 C 0.36835 0.21769 0.47082 0.0
C411 C 0.34933 0.25999 0.42549 0.0
C412 C 0.3681 0.27052 0.40998 0.0
C413 C 0.3293 0.27037 0.42778 0.0
C414 C 0.30949 0.26091 0.4451 0.0
C415 C 0.31387 0.25798 0.47117 0.0
C416 C 0.29524 0.24815 0.48706 0.0
C417 C 0.27208 0.24163 0.47726 0.0
C418 C 0.2675 0.24488 0.45152 0.0
C419 C 0.28608 0.25448 0.43548 0.0
H420 H 0.25769 0.23407 0.48961 0.0
H421 H 0.43899 0.32549 0.33418 0.0
H422 H 0.37446 0.90212 0.82194 0.0
H423 H 0.39682 0.87453 0.83929 0.0
H424 H 0.33192 0.8294 0.8647 0.0
H425 H 0.30951 0.85708 0.8476 0.0
H426 H 0.36702 0.84134 0.90273 0.0
H427 H 0.35917 0.80857 0.81613 0.0
H428 H 0.36101 0.80974 0.76903 0.0
H429 H 0.436 0.83885 0.7744 0.0
H430 H 0.43457 0.8382 0.82158 0.0
H431 H 0.43259 0.76298 0.95125 0.0
H432 H 0.40419 0.77138 0.91974 0.0
H433 H 0.45761 0.83016 0.8932 0.0
H434 H 0.4858 0.82214 0.92478 0.0
H435 H 0.42362 0.80362 0.85326 0.0
H436 H 0.4285 0.84907 0.93626 0.0
H437 H 0.43151 0.84838 0.98339 0.0
H438 H 0.36529 0.79628 0.98394 0.0
H439 H 0.36201 0.79664 0.93674 0.0
C440 C 0.36496 0.88616 0.83096 0.0
C441 C 0.34023 0.88148 0.833 0.0
C442 C 0.37771 0.87036 0.84073 0.0
C443 C 0.36597 0.84974 0.85295 0.0
C444 C 0.34126 0.84504 0.85505 0.0
C445 C 0.32847 0.86073 0.84503 0.0
C446 C 0.37979 0.83413 0.86502 0.0
C447 C 0.37886 0.83253 0.89176 0.0
C448 C 0.39573 0.82314 0.85083 0.0
C449 C 0.39672 0.82348 0.82243 0.0
C450 C 0.37603 0.81539 0.80729 0.0
C451 C 0.377 0.81593 0.78057 0.0
C452 C 0.3986 0.8244 0.76873 0.0
C453 C 0.41928 0.8323 0.7836 0.0
C454 C 0.4184 0.83182 0.81034 0.0
C455 C 0.43841 0.77717 0.93812 0.0
C456 C 0.46116 0.79219 0.94063 0.0
C457 C 0.42225 0.7819 0.92013 0.0
C458 C 0.42885 0.80144 0.90427 0.0
C459 C 0.45225 0.81493 0.90516 0.0
C460 C 0.46823 0.81049 0.92337 0.0
C461 C 0.41068 0.81094 0.8907 0.0
C462 C 0.41108 0.81172 0.86392 0.0
C463 C 0.39441 0.82144 0.90473 0.0
C464 C 0.39501 0.82288 0.93312 0.0
C465 C 0.41449 0.83765 0.94652 0.0
C466 C 0.41629 0.83727 0.97319 0.0
C467 C 0.39864 0.82229 0.98665 0.0
C468 C 0.37894 0.80792 0.97349 0.0
C469 C 0.37706 0.80825 0.94679 0.0
H470 H 0.40033 0.82178 0.00725 0.0
H471 H 0.39932 0.8248 0.74804 0.0
H472 H 0.7488 0.8107 0.30642 0.0
H473 H 0.75725 0.84443 0.33831 0.0
H474 H 0.82334 0.82648 0.35817 0.0
H475 H 0.81509 0.79243 0.32597 0.0
H476 H 0.79599 0.83916 0.40155 0.0
H477 H 0.82791 0.87075 0.32285 0.0
H478 H 0.82746 0.87699 0.27648 0.0
H479 H 0.76888 0.91129 0.28591 0.0
H480 H 0.76873 0.90492 0.3323 0.0
H481 H 0.82659 0.95666 0.47028 0.0
H482 H 0.83024 0.92229 0.44113 0.0
H483 H 0.76442 0.92494 0.4036 0.0
H484 H 0.76055 0.95883 0.43256 0.0
H485 H 0.79997 0.92062 0.3695 0.0
H486 H 0.76428 0.88466 0.44574 0.0
H487 H 0.76196 0.87673 0.49177 0.0
H488 H 0.82558 0.84997 0.48704 0.0
H489 H 0.82848 0.8581 0.44102 0.0
C490 C 0.76508 0.8137 0.31763 0.0
C491 C 0.78136 0.79892 0.31347 0.0
C492 C 0.76989 0.83305 0.33584 0.0
C493 C 0.79103 0.83808 0.35035 0.0
C494 C 0.80696 0.82289 0.34707 0.0
C495 C 0.80223 0.80351 0.32864 0.0
C496 C 0.79653 0.85986 0.36808 0.0
C497 C 0.79746 0.85708 0.3946 0.0
C498 C 0.79807 0.88312 0.35892 0.0
C499 C 0.79823 0.88722 0.33104 0.0
C500 C 0.81482 0.87947 0.31501 0.0
C501 C 0.81469 0.88306 0.28872 0.0
C502 C 0.79813 0.8945 0.27825 0.0
C503 C 0.7817 0.90243 0.29405 0.0
C504 C 0.78174 0.89887 0.32035 0.0
C505 C 0.81306 0.95001 0.45563 0.0
C506 C 0.79327 0.96039 0.45371 0.0
C507 C 0.81509 0.93034 0.43914 0.0
C508 C 0.79752 0.92104 0.42034 0.0
C509 C 0.77816 0.93185 0.41799 0.0
C510 C 0.77596 0.95118 0.4346 0.0
C511 C 0.79883 0.89991 0.40303 0.0
C512 C 0.79914 0.90282 0.37651 0.0
C513 C 0.79829 0.87681 0.41226 0.0
C514 C 0.79681 0.87235 0.44003 0.0
C515 C 0.77796 0.87739 0.45458 0.0
C516 C 0.77649 0.87278 0.48065 0.0
C517 C 0.79366 0.86293 0.49235 0.0
C518 C 0.81233 0.85766 0.47798 0.0
C519 C 0.8139 0.86228 0.4519 0.0
H520 H 0.79244 0.8593 0.51251 0.0
H521 H 0.79805 0.89726 0.25788 0.0
H522 H 0.68589 0.29823 0.8097 0.0
H523 H 0.65478 0.30395 0.83945 0.0
H524 H 0.67763 0.38122 0.83544 0.0
H525 H 0.70876 0.37573 0.80599 0.0
H526 H 0.67147 0.36828 0.88438 0.0
H527 H 0.62749 0.35041 0.80444 0.0
H528 H 0.61286 0.32626 0.76464 0.0
H529 H 0.57963 0.2667 0.80875 0.0
H530 H 0.59434 0.2904 0.84883 0.0
H531 H 0.5769 0.40391 0.94826 0.0
H532 H 0.60497 0.39741 0.91531 0.0
H533 H 0.57775 0.32037 0.91619 0.0
H534 H 0.54916 0.32676 0.94853 0.0
H535 H 0.58602 0.33253 0.86874 0.0
H536 H 0.62992 0.34924 0.94834 0.0
H537 H 0.6448 0.37242 0.98862 0.0
H538 H 0.67868 0.43274 0.94593 0.0
H539 H 0.66374 0.41003 0.90539 0.0
C540 C 0.68421 0.31643 0.81507 0.0
C541 C 0.69982 0.33652 0.80549 0.0
C542 C 0.66638 0.31966 0.83199 0.0
C543 C 0.66381 0.34302 0.83953 0.0
C544 C 0.67931 0.36305 0.82989 0.0
C545 C 0.69707 0.35985 0.813 0.0
C546 C 0.64546 0.34676 0.85804 0.0
C547 C 0.65275 0.36073 0.88081 0.0
C548 C 0.62112 0.33633 0.85369 0.0
C549 C 0.61222 0.3221 0.82962 0.0
C550 C 0.61722 0.3321 0.80565 0.0
C551 C 0.60889 0.3185 0.78304 0.0
C552 C 0.59538 0.29494 0.78416 0.0
C553 C 0.59012 0.28495 0.80791 0.0
C554 C 0.59844 0.29845 0.83057 0.0
C555 C 0.57679 0.38559 0.94132 0.0
C556 C 0.5609 0.36585 0.95113 0.0
C557 C 0.59293 0.38189 0.92257 0.0
C558 C 0.59379 0.35836 0.91361 0.0
C559 C 0.57747 0.33867 0.92284 0.0
C560 C 0.56116 0.34237 0.94138 0.0
C561 C 0.61201 0.35421 0.89505 0.0
C562 C 0.60473 0.34011 0.87231 0.0
C563 C 0.63642 0.36436 0.8995 0.0
C564 C 0.64552 0.37802 0.92385 0.0
C565 C 0.64041 0.36751 0.94755 0.0
C566 C 0.64887 0.38055 0.97043 0.0
C567 C 0.66263 0.40406 0.96984 0.0
C568 C 0.668 0.41455 0.94636 0.0
C569 C 0.65955 0.40159 0.92342 0.0
H570 H 0.66916 0.41413 0.98757 0.0
H571 H 0.58894 0.28445 0.76664 0.0
H572 H 0.3335 0.95981 0.72082 0.0
H573 H 0.34273 0.9847 0.68383 0.0
H574 H 0.34588 0.0489 0.73295 0.0
H575 H 0.33787 0.02418 0.77007 0.0
H576 H 0.3188 0.00978 0.66246 0.0
H577 H 0.37852 0.09846 0.70921 0.0
H578 H 0.41021 0.11039 0.7422 0.0
H579 H 0.42757 0.04096 0.7317 0.0
H580 H 0.39621 0.02873 0.6984 0.0
H581 H 0.30759 0.10662 0.59145 0.0
H582 H 0.31042 0.08031 0.62617 0.0
H583 H 0.38463 0.08652 0.61114 0.0
H584 H 0.38208 0.1137 0.57679 0.0
H585 H 0.37855 0.08713 0.66048 0.0
H586 H 0.34278 0.03555 0.59035 0.0
H587 H 0.31478 0.02088 0.55422 0.0
H588 H 0.25663 0.01062 0.60612 0.0
H589 H 0.28424 0.02557 0.64255 0.0
C590 C 0.33656 0.97927 0.72375 0.0
C591 C 0.33498 0.99006 0.74832 0.0
C592 C 0.34179 0.99349 0.70259 0.0
C593 C 0.34521 0.01876 0.70551 0.0
C594 C 0.34394 0.02954 0.73017 0.0
C595 C 0.33918 0.01536 0.7514 0.0
C596 C 0.34821 0.03364 0.68262 0.0
C597 C 0.33201 0.02658 0.66202 0.0
C598 C 0.36581 0.05531 0.68156 0.0
C599 C 0.38487 0.06262 0.70143 0.0
C600 C 0.38917 0.08578 0.71384 0.0
C601 C 0.40706 0.09259 0.73262 0.0
C602 C 0.42085 0.07642 0.73909 0.0
C603 C 0.41682 0.05344 0.72674 0.0
C604 C 0.39897 0.04654 0.70793 0.0
C605 C 0.32455 0.10247 0.59557 0.0
C606 C 0.34457 0.11206 0.58124 0.0
C607 C 0.32612 0.08732 0.61536 0.0
C608 C 0.34761 0.08096 0.6209 0.0
C609 C 0.36783 0.09107 0.60713 0.0
C610 C 0.36634 0.10656 0.58749 0.0
C611 C 0.34868 0.06356 0.64091 0.0
C612 C 0.36558 0.07015 0.6609 0.0
C613 C 0.33231 0.04099 0.64099 0.0
C614 C 0.31559 0.03184 0.61917 0.0
C615 C 0.324 0.03031 0.59405 0.0
C616 C 0.30821 0.02193 0.57351 0.0
C617 C 0.28394 0.01486 0.57787 0.0
C618 C 0.27543 0.01611 0.60278 0.0
C619 C 0.29115 0.02451 0.62338 0.0
H620 H 0.27174 0.00838 0.56194 0.0
H621 H 0.43468 0.08172 0.75364 0.0
H622 H 0.68595 0.72011 0.18287 0.0
H623 H 0.6522 0.71681 0.15322 0.0
H624 H 0.65329 0.79225 0.16946 0.0
H625 H 0.68655 0.7956 0.19915 0.0
H626 H 0.6092 0.76556 0.17095 0.0
H627 H 0.67586 0.7717 0.11382 0.0
H628 H 0.71027 0.75879 0.09497 0.0
H629 H 0.66598 0.68995 0.07103 0.0
H630 H 0.63134 0.70238 0.09004 0.0
H631 H 0.55521 0.80883 0.06919 0.0
H632 H 0.58235 0.79879 0.10044 0.0
H633 H 0.56324 0.72397 0.07314 0.0
H634 H 0.53583 0.73392 0.04147 0.0
H635 H 0.612 0.74161 0.07844 0.0
H636 H 0.5441 0.73862 0.12986 0.0
H637 H 0.5099 0.75261 0.14775 0.0
H638 H 0.55649 0.81598 0.18217 0.0
H639 H 0.59097 0.80257 0.16417 0.0
C640 C 0.67902 0.73598 0.18004 0.0
C641 C 0.68895 0.75812 0.19339 0.0
C642 C 0.65976 0.73408 0.16307 0.0
C643 C 0.65025 0.75431 0.15908 0.0
C644 C 0.66023 0.77637 0.17233 0.0
C645 C 0.67935 0.77827 0.18925 0.0
C646 C 0.62983 0.75288 0.14126 0.0
C647 C 0.60985 0.76039 0.15071 0.0
C648 C 0.63029 0.74531 0.11502 0.0
C649 C 0.6511 0.73785 0.10364 0.0
C650 C 0.67351 0.75374 0.10474 0.0
C651 C 0.69304 0.74652 0.09398 0.0
C652 C 0.69033 0.72353 0.08189 0.0
C653 C 0.66806 0.70773 0.08046 0.0
C654 C 0.64848 0.71485 0.09121 0.0
C655 C 0.5566 0.79018 0.06985 0.0
C656 C 0.54332 0.77216 0.05283 0.0
C657 C 0.57208 0.78446 0.08784 0.0
C658 C 0.57464 0.7606 0.08928 0.0
C659 C 0.56142 0.74248 0.07238 0.0
C660 C 0.54573 0.74818 0.0544 0.0
C661 C 0.59182 0.75514 0.10801 0.0
C662 C 0.61114 0.74629 0.09878 0.0
C663 C 0.59081 0.76154 0.13447 0.0
C664 C 0.57013 0.76963 0.14553 0.0
C665 C 0.54705 0.75562 0.1411 0.0
C666 C 0.52761 0.76344 0.15128 0.0
C667 C 0.53102 0.78518 0.16606 0.0
C668 C 0.55388 0.79914 0.17073 0.0
C669 C 0.57339 0.79142 0.16057 0.0
H670 H 0.51594 0.79121 0.17392 0.0
H671 H 0.70547 0.71798 0.07356 0.0
H672 H 0.81372 0.20939 0.72448 0.0
H673 H 0.8171 0.17535 0.69504 0.0
H674 H 0.75131 0.17857 0.65787 0.0
H675 H 0.7479 0.21274 0.68698 0.0
H676 H 0.75543 0.13108 0.6693 0.0
H677 H 0.80016 0.20233 0.63 0.0
H678 H 0.83141 0.23965 0.6293 0.0
H679 H 0.88432 0.19944 0.64346 0.0
H680 H 0.85331 0.16191 0.6446 0.0
H681 H 0.75143 0.06685 0.55154 0.0
H682 H 0.75292 0.09788 0.58578 0.0
H683 H 0.82447 0.09414 0.6051 0.0
H684 H 0.82333 0.06328 0.57012 0.0
H685 H 0.82059 0.13971 0.60678 0.0
H686 H 0.77788 0.06813 0.64232 0.0
H687 H 0.74768 0.03013 0.64411 0.0
H688 H 0.69252 0.06927 0.63959 0.0
H689 H 0.72239 0.10749 0.63739 0.0
C690 C 0.79991 0.20276 0.71012 0.0
C691 C 0.78056 0.21378 0.70799 0.0
C692 C 0.80192 0.18338 0.6933 0.0
C693 C 0.78451 0.17457 0.67425 0.0
C694 C 0.76491 0.18514 0.67247 0.0
C695 C 0.76304 0.20469 0.68905 0.0
C696 C 0.78682 0.1546 0.65577 0.0
C697 C 0.76955 0.13297 0.65549 0.0
C698 C 0.80578 0.15684 0.63846 0.0
C699 C 0.8244 0.17938 0.63769 0.0
C700 C 0.81843 0.20148 0.6332 0.0
C701 C 0.8361 0.22267 0.63267 0.0
C702 C 0.85983 0.22193 0.63641 0.0
C703 C 0.86593 0.19999 0.64061 0.0
C704 C 0.84832 0.17876 0.64119 0.0
C705 C 0.76752 0.07256 0.56304 0.0
C706 C 0.78721 0.06244 0.55824 0.0
C707 C 0.76829 0.09026 0.58273 0.0
C708 C 0.7886 0.09796 0.59841 0.0
C709 C 0.80854 0.08833 0.59335 0.0
C710 C 0.80787 0.07071 0.57338 0.0
C711 C 0.78883 0.11626 0.61984 0.0
C712 C 0.80659 0.13759 0.62076 0.0
C713 C 0.77049 0.11361 0.63801 0.0
C714 C 0.75241 0.09068 0.63951 0.0
C715 C 0.75931 0.06863 0.64154 0.0
C716 C 0.74225 0.04704 0.64264 0.0
C717 C 0.7182 0.04728 0.64192 0.0
C718 C 0.71116 0.06912 0.64014 0.0
C719 C 0.72816 0.09075 0.639 0.0
H720 H 0.70502 0.03055 0.64277 0.0
H721 H 0.87348 0.23835 0.63599 0.0
H722 H 0.39163 0.47825 0.2319 0.0
H723 H 0.41881 0.47517 0.19684 0.0
H724 H 0.41868 0.40205 0.21533 0.0
H725 H 0.39199 0.40513 0.25067 0.0
H726 H 0.46198 0.42507 0.20373 0.0
H727 H 0.38363 0.41466 0.16653 0.0
H728 H 0.346 0.42629 0.15738 0.0
H729 H 0.38383 0.48981 0.12216 0.0
H730 H 0.42173 0.47868 0.13142 0.0
H731 H 0.48198 0.36537 0.08639 0.0
H732 H 0.46498 0.38032 0.12499 0.0
H733 H 0.48592 0.45321 0.1006 0.0
H734 H 0.5035 0.4384 0.06197 0.0
H735 H 0.43653 0.43715 0.11535 0.0
H736 H 0.51487 0.44198 0.14687 0.0
H737 H 0.55123 0.42772 0.15518 0.0
H738 H 0.51221 0.37207 0.20071 0.0
H739 H 0.47548 0.38555 0.19209 0.0
C740 C 0.39755 0.46159 0.22865 0.0
C741 C 0.38949 0.44187 0.24398 0.0
C742 C 0.41303 0.45983 0.20854 0.0
C743 C 0.42052 0.43826 0.20324 0.0
C744 C 0.41313 0.41887 0.21906 0.0
C745 C 0.39779 0.42064 0.23922 0.0
C746 C 0.43528 0.43535 0.18066 0.0
C747 C 0.45637 0.42761 0.1844 0.0
C748 C 0.42826 0.43927 0.15548 0.0
C749 C 0.40551 0.44601 0.14997 0.0
C750 C 0.38393 0.43121 0.15704 0.0
C751 C 0.36256 0.43769 0.15179 0.0
C752 C 0.36253 0.45882 0.13928 0.0
C753 C 0.38388 0.47348 0.13192 0.0
C754 C 0.40531 0.4671 0.13715 0.0
C755 C 0.48308 0.3846 0.08927 0.0
C756 C 0.49401 0.40073 0.07117 0.0
C757 C 0.47347 0.39311 0.11138 0.0
C758 C 0.47434 0.41785 0.11564 0.0
C759 C 0.4852 0.43406 0.09763 0.0
C760 C 0.49525 0.42559 0.07567 0.0
C761 C 0.46286 0.42634 0.13845 0.0
C762 C 0.44237 0.43508 0.13473 0.0
C763 C 0.47027 0.42302 0.1636 0.0
C764 C 0.49233 0.41467 0.16862 0.0
C765 C 0.51396 0.4265 0.15838 0.0
C766 C 0.53466 0.41856 0.16316 0.0
C767 C 0.53403 0.39893 0.17837 0.0
C768 C 0.51268 0.38721 0.18884 0.0
C769 C 0.4919 0.39499 0.184 0.0
H770 H 0.55009 0.39286 0.18212 0.0
H771 H 0.34596 0.4638 0.13522 0.0
H772 H 0.81731 0.68171 0.67051 0.0
H773 H 0.85105 0.66687 0.68581 0.0
H774 H 0.83421 0.68385 0.76405 0.0
H775 H 0.80077 0.69945 0.7488 0.0
H776 H 0.88065 0.69445 0.75858 0.0
H777 H 0.81846 0.62559 0.73748 0.0
H778 H 0.78702 0.59902 0.71067 0.0
H779 H 0.83825 0.58873 0.65453 0.0
H780 H 0.86996 0.61551 0.68085 0.0
H781 H 0.95119 0.61595 0.808 0.0
H782 H 0.91844 0.63508 0.79798 0.0
H783 H 0.93336 0.62894 0.71737 0.0
H784 H 0.9659 0.60994 0.72708 0.0
H785 H 0.88634 0.61194 0.72769 0.0
H786 H 0.9484 0.68259 0.74985 0.0
H787 H 0.97905 0.70832 0.77828 0.0
H788 H 0.92672 0.71361 0.83491 0.0
H789 H 0.8958 0.68762 0.80693 0.0
C790 C 0.82088 0.68247 0.69097 0.0
C791 C 0.80625 0.69156 0.70845 0.0
C792 C 0.84012 0.67387 0.69971 0.0
C793 C 0.84487 0.67373 0.72612 0.0
C794 C 0.83083 0.68364 0.7436 0.0
C795 C 0.8117 0.69252 0.73485 0.0
C796 C 0.86408 0.66261 0.73538 0.0
C797 C 0.8817 0.67628 0.75211 0.0
C798 C 0.86556 0.63893 0.7269 0.0
C799 C 0.84655 0.62273 0.71104 0.0
C800 C 0.82299 0.6178 0.71933 0.0
C801 C 0.80513 0.60268 0.70423 0.0
C802 C 0.81063 0.59224 0.68089 0.0
C803 C 0.83401 0.59685 0.67261 0.0
C804 C 0.85194 0.61198 0.68762 0.0
C805 C 0.94758 0.61883 0.78817 0.0
C806 C 0.96115 0.61138 0.76835 0.0
C807 C 0.92892 0.62982 0.78249 0.0
C808 C 0.92352 0.63346 0.75693 0.0
C809 C 0.93719 0.62626 0.73721 0.0
C810 C 0.95586 0.61545 0.74284 0.0
C811 C 0.90314 0.64396 0.75034 0.0
C812 C 0.88521 0.63008 0.73422 0.0
C813 C 0.90127 0.66728 0.75965 0.0
C814 C 0.91984 0.68294 0.77642 0.0
C815 C 0.94346 0.68907 0.76846 0.0
C816 C 0.96088 0.70373 0.78447 0.0
C817 C 0.95485 0.71254 0.80842 0.0
C818 C 0.93138 0.70675 0.81637 0.0
C819 C 0.9139 0.69206 0.80044 0.0
H820 H 0.96836 0.72389 0.82079 0.0
H821 H 0.79677 0.58054 0.66923 0.0
H822 H 0.83576 0.30736 0.26616 0.0
H823 H 0.87119 0.34025 0.26635 0.0
H824 H 0.85907 0.34958 0.18627 0.0
H825 H 0.824 0.31665 0.18576 0.0
H826 H 0.90552 0.354 0.19648 0.0
H827 H 0.84126 0.38554 0.2328 0.0
H828 H 0.80922 0.38703 0.26332 0.0
H829 H 0.85922 0.39803 0.32626 0.0
H830 H 0.89152 0.3963 0.29611 0.0
H831 H 0.97005 0.47438 0.18309 0.0
H832 H 0.93979 0.43683 0.18411 0.0
H833 H 0.95242 0.43476 0.26545 0.0
H834 H 0.98208 0.47262 0.26471 0.0
H835 H 0.90723 0.4252 0.2562 0.0
H836 H 0.97221 0.39647 0.21967 0.0
H837 H 0.00423 0.39516 0.18909 0.0
H838 H 0.9535 0.37884 0.12677 0.0
H839 H 0.92119 0.38037 0.15694 0.0
C840 C 0.8408 0.31622 0.24851 0.0
C841 C 0.82691 0.3095 0.22601 0.0
C842 C 0.861 0.33507 0.24868 0.0
C843 C 0.86756 0.3476 0.2264 0.0
C844 C 0.85432 0.34021 0.20368 0.0
C845 C 0.83419 0.32141 0.20348 0.0
C846 C 0.88747 0.36916 0.2269 0.0
C847 C 0.90586 0.36965 0.20941 0.0
C848 C 0.88812 0.38938 0.24411 0.0
C849 C 0.86874 0.39052 0.26223 0.0
C850 C 0.84538 0.3881 0.25316 0.0
C851 C 0.82718 0.38902 0.27039 0.0
C852 C 0.83217 0.39255 0.29672 0.0
C853 C 0.85538 0.39525 0.30587 0.0
C854 C 0.87363 0.39431 0.28872 0.0
C855 C 0.96643 0.46587 0.20116 0.0
C856 C 0.97844 0.4765 0.22382 0.0
C857 C 0.94922 0.44431 0.2017 0.0
C858 C 0.94402 0.43275 0.22481 0.0
C859 C 0.9561 0.44332 0.2474 0.0
C860 C 0.97308 0.46497 0.24693 0.0
C861 C 0.92538 0.41016 0.22571 0.0
C862 C 0.90713 0.40949 0.24342 0.0
C863 C 0.92491 0.38979 0.20872 0.0
C864 C 0.9443 0.38874 0.19055 0.0
C865 C 0.9679 0.39277 0.19942 0.0
C866 C 0.9861 0.39196 0.18217 0.0
C867 C 0.98091 0.38697 0.156 0.0
C868 C 0.9575 0.38272 0.14704 0.0
C869 C 0.93923 0.38353 0.16421 0.0
H870 H 0.99503 0.38636 0.14267 0.0
H871 H 0.81806 0.39326 0.31003 0.0
H872 H 0.20238 0.44466 0.79857 0.0
H873 H 0.17541 0.47165 0.80622 0.0
H874 H 0.12579 0.41452 0.84085 0.0
H875 H 0.15268 0.38732 0.83321 0.0
H876 H 0.10495 0.436 0.80457 0.0
H877 H 0.15565 0.4618 0.87788 0.0
H878 H 0.19364 0.47588 0.90142 0.0
H879 H 0.20885 0.53989 0.8587 0.0
H880 H 0.1711 0.52603 0.83461 0.0
H881 H 0.02845 0.51585 0.83293 0.0
H882 H 0.05539 0.48965 0.84339 0.0
H883 H 0.11108 0.53464 0.80201 0.0
H884 H 0.08416 0.5603 0.79099 0.0
H885 H 0.12685 0.5177 0.84829 0.0
H886 H 0.08044 0.49004 0.7714 0.0
H887 H 0.04395 0.47613 0.74521 0.0
H888 H 0.02253 0.41546 0.79212 0.0
H889 H 0.05849 0.42951 0.81914 0.0
C890 C 0.18582 0.43787 0.80801 0.0
C891 C 0.17964 0.41381 0.81521 0.0
C892 C 0.17049 0.45338 0.81252 0.0
C893 C 0.14869 0.44516 0.82433 0.0
C894 C 0.14258 0.42125 0.83181 0.0
C895 C 0.15797 0.40574 0.82744 0.0
C896 C 0.13165 0.46108 0.82717 0.0
C897 C 0.10951 0.45361 0.81471 0.0
C898 C 0.13787 0.48432 0.83982 0.0
C899 C 0.1606 0.49277 0.8543 0.0
C900 C 0.16717 0.47878 0.87335 0.0
C901 C 0.18865 0.48675 0.88682 0.0
C902 C 0.20367 0.50875 0.88153 0.0
C903 C 0.19721 0.52285 0.86277 0.0
C904 C 0.17575 0.51496 0.84922 0.0
C905 C 0.04661 0.52039 0.82666 0.0
C906 C 0.05429 0.53991 0.81108 0.0
C907 C 0.06192 0.50544 0.83256 0.0
C908 C 0.08515 0.5102 0.82334 0.0
C909 C 0.09325 0.53072 0.80935 0.0
C910 C 0.07786 0.54527 0.80298 0.0
C911 C 0.1003 0.49257 0.82563 0.0
C912 C 0.12211 0.49981 0.8388 0.0
C913 C 0.09392 0.46918 0.81341 0.0
C914 C 0.07195 0.46108 0.7976 0.0
C915 C 0.06773 0.47399 0.77644 0.0
C916 C 0.04715 0.46606 0.76139 0.0
C917 C 0.03085 0.445 0.76705 0.0
C918 C 0.03507 0.43187 0.78782 0.0
C919 C 0.0555 0.43986 0.80307 0.0
H920 H 0.01505 0.43879 0.75522 0.0
H921 H 0.22029 0.51488 0.89198 0.0
H922 H 0.2375 0.73186 0.23923 0.0
H923 H 0.20484 0.69748 0.22936 0.0
H924 H 0.19177 0.72718 0.15769 0.0
H925 H 0.22455 0.7622 0.16769 0.0
H926 H 0.15077 0.71054 0.18261 0.0
H927 H 0.21607 0.67856 0.15659 0.0
H928 H 0.25585 0.66996 0.15918 0.0
H929 H 0.23602 0.62951 0.22587 0.0
H930 H 0.19623 0.63816 0.22394 0.0
H931 H 0.06665 0.59332 0.16522 0.0
H932 H 0.10005 0.62663 0.15552 0.0
H933 H 0.12754 0.62729 0.23257 0.0
H934 H 0.09435 0.59467 0.24251 0.0
H935 H 0.16153 0.62717 0.19184 0.0
H936 H 0.09914 0.66736 0.22128 0.0
H937 H 0.0592 0.67547 0.21779 0.0
H938 H 0.07392 0.69954 0.14175 0.0
H939 H 0.11387 0.69121 0.14468 0.0
C940 C 0.22783 0.73113 0.22128 0.0
C941 C 0.23372 0.74977 0.20421 0.0
C942 C 0.20918 0.71134 0.21559 0.0
C943 C 0.19609 0.70954 0.19258 0.0
C944 C 0.20175 0.72815 0.17548 0.0
C945 C 0.22051 0.74809 0.18119 0.0
C946 C 0.17612 0.68839 0.18723 0.0
C947 C 0.1532 0.69226 0.18394 0.0
C948 C 0.17924 0.6645 0.18892 0.0
C949 C 0.20315 0.65911 0.19016 0.0
C950 C 0.22023 0.66796 0.17191 0.0
C951 C 0.24278 0.66306 0.17325 0.0
C952 C 0.24847 0.64922 0.19269 0.0
C953 C 0.23159 0.64022 0.21081 0.0
C954 C 0.20901 0.64508 0.20958 0.0
C955 C 0.07986 0.60061 0.18002 0.0
C956 C 0.07785 0.59149 0.20465 0.0
C957 C 0.09886 0.61958 0.17447 0.0
C958 C 0.11621 0.6293 0.19335 0.0
C959 C 0.11435 0.61995 0.21774 0.0
C960 C 0.09528 0.6014 0.22341 0.0
C961 C 0.13633 0.64952 0.18837 0.0
C962 C 0.15926 0.64541 0.18972 0.0
C963 C 0.13321 0.67307 0.18465 0.0
C964 C 0.10935 0.67836 0.18306 0.0
C965 C 0.09378 0.67417 0.20373 0.0
C966 C 0.07116 0.67885 0.20187 0.0
C967 C 0.06398 0.68792 0.17952 0.0
C968 C 0.07947 0.69245 0.15902 0.0
C969 C 0.10211 0.68776 0.16077 0.0
H970 H 0.04646 0.69152 0.17811 0.0
H971 H 0.26594 0.64544 0.19369 0.0
H972 H 0.72468 0.76737 0.62538 0.0
H973 H 0.72225 0.80325 0.60264 0.0
H974 H 0.75602 0.84869 0.6673 0.0
H975 H 0.75758 0.81269 0.69045 0.0
H976 H 0.7232 0.86718 0.65086 0.0
H977 H 0.78505 0.838 0.60956 0.0
H978 H 0.80543 0.80978 0.5865 0.0
H979 H 0.75624 0.80257 0.52319 0.0
H980 H 0.73526 0.83039 0.54608 0.0
H981 H 0.77075 0.97042 0.57557 0.0
H982 H 0.76549 0.93507 0.60164 0.0
H983 H 0.70611 0.89872 0.55362 0.0
H984 H 0.7108 0.93441 0.52786 0.0
H985 H 0.75 0.87608 0.56109 0.0
H986 H 0.68998 0.9089 0.60538 0.0
H987 H 0.6754 0.94137 0.62874 0.0
H988 H 0.72883 0.94597 0.68731 0.0
H989 H 0.74396 0.91376 0.66407 0.0
C990 C 0.73158 0.78504 0.6347 0.0
C991 C 0.74117 0.7873 0.65972 0.0
C992 C 0.7303 0.80556 0.62165 0.0
C993 C 0.73927 0.82878 0.63304 0.0
C994 C 0.74888 0.83101 0.65809 0.0
C995 C 0.74973 0.81046 0.67135 0.0
C996 C 0.73846 0.85069 0.61893 0.0
C997 C 0.72929 0.86912 0.63131 0.0
C998 C 0.74618 0.85332 0.59327 0.0
C999 C 0.75836 0.83603 0.57973 0.0
C1000 C 0.77838 0.83015 0.59088 0.0
C1001 C 0.79007 0.81427 0.5778 0.0
C1002 C 0.78207 0.80431 0.55344 0.0
C1003 C 0.76236 0.81022 0.5421 0.0
C1004 C 0.75055 0.82603 0.55513 0.0
C1005 C 0.75625 0.95509 0.57093 0.0
C1006 C 0.74116 0.95508 0.54975 0.0
C1007 C 0.75327 0.93498 0.58582 0.0
C1008 C 0.73544 0.91441 0.57948 0.0
C1009 C 0.71989 0.91456 0.5588 0.0
C1010 C 0.72251 0.93493 0.54423 0.0
C1011 C 0.73462 0.89209 0.593 0.0
C1012 C 0.74368 0.87377 0.58054 0.0
C1013 C 0.72747 0.88989 0.61873 0.0
C1014 C 0.71824 0.90908 0.63285 0.0
C1015 C 0.69876 0.91699 0.62311 0.0
C1016 C 0.69037 0.93531 0.63636 0.0
C1017 C 0.70122 0.94578 0.65946 0.0
C1018 C 0.72045 0.93787 0.6694 0.0
C1019 C 0.72892 0.91956 0.65621 0.0
H1020 H 0.69471 0.95997 0.66969 0.0
H1021 H 0.7912 0.79207 0.54332 0.0
H1022 H 0.66745 0.21953 0.15448 0.0
H1023 H 0.63306 0.22873 0.13302 0.0
H1024 H 0.65597 0.30358 0.15942 0.0
H1025 H 0.68984 0.29446 0.18142 0.0
H1026 H 0.60963 0.29034 0.16168 0.0
H1027 H 0.6685 0.28256 0.09842 0.0
H1028 H 0.69532 0.26157 0.07455 0.0
H1029 H 0.63609 0.20527 0.04875 0.0
H1030 H 0.60895 0.22581 0.07274 0.0
H1031 H 0.56608 0.3554 0.06787 0.0
H1032 H 0.59073 0.33705 0.09527 0.0
H1033 H 0.5518 0.26606 0.06894 0.0
H1034 H 0.52683 0.28428 0.04152 0.0
H1035 H 0.60148 0.27208 0.0676 0.0
H1036 H 0.54222 0.28412 0.12685 0.0
H1037 H 0.51635 0.30699 0.14961 0.0
H1038 H 0.5773 0.35729 0.18197 0.0
H1039 H 0.60359 0.3349 0.1591 0.0
C1040 C 0.66499 0.23788 0.15598 0.0
C1041 C 0.68153 0.2563 0.16944 0.0
C1042 C 0.64538 0.24313 0.14361 0.0
C1043 C 0.64216 0.26694 0.14423 0.0
C1044 C 0.65808 0.28509 0.15862 0.0
C1045 C 0.67753 0.27984 0.17113 0.0
C1046 C 0.62308 0.27343 0.12885 0.0
C1047 C 0.60792 0.28642 0.1411 0.0
C1048 C 0.62047 0.26788 0.10206 0.0
C1049 C 0.63675 0.25555 0.08762 0.0
C1050 C 0.66123 0.26561 0.08781 0.0
C1051 C 0.67648 0.25382 0.07423 0.0
C1052 C 0.66743 0.23206 0.06021 0.0
C1053 C 0.64309 0.22209 0.05967 0.0
C1054 C 0.62776 0.2338 0.07324 0.0
C1055 C 0.56269 0.33588 0.06793 0.0
C1056 C 0.54451 0.32128 0.05253 0.0
C1057 C 0.57672 0.32544 0.08369 0.0
C1058 C 0.57293 0.30022 0.08425 0.0
C1059 C 0.5549 0.28556 0.06881 0.0
C1060 C 0.54065 0.296 0.05324 0.0
C1061 C 0.58843 0.28935 0.10038 0.0
C1062 C 0.60293 0.2756 0.08825 0.0
C1063 C 0.59059 0.29442 0.12721 0.0
C1064 C 0.57488 0.3079 0.14112 0.0
C1065 C 0.55012 0.30016 0.13866 0.0
C1066 C 0.53538 0.31301 0.15161 0.0
C1067 C 0.54518 0.33357 0.1672 0.0
C1068 C 0.56975 0.34134 0.16988 0.0
C1069 C 0.58458 0.32855 0.15696 0.0
H1070 H 0.53373 0.34342 0.17726 0.0
H1071 H 0.67926 0.22296 0.04971 0.0
H1072 H 0.23659 0.33945 0.69794 0.0
H1073 H 0.2379 0.30991 0.6623 0.0
H1074 H 0.31184 0.31462 0.67904 0.0
H1075 H 0.31079 0.34422 0.71419 0.0
H1076 H 0.30411 0.31442 0.62853 0.0
H1077 H 0.26822 0.26809 0.69926 0.0
H1078 H 0.23807 0.25657 0.73221 0.0
H1079 H 0.18361 0.23907 0.67371 0.0
H1080 H 0.21344 0.25077 0.64043 0.0
H1081 H 0.33255 0.20807 0.57954 0.0
H1082 H 0.32372 0.24133 0.60606 0.0
H1083 H 0.25118 0.22246 0.57873 0.0
H1084 H 0.2598 0.18854 0.5524 0.0
H1085 H 0.25311 0.23185 0.62916 0.0
H1086 H 0.29022 0.27405 0.55781 0.0
H1087 H 0.32078 0.28604 0.52534 0.0
H1088 H 0.37323 0.31077 0.58491 0.0
H1089 H 0.34301 0.29918 0.61777 0.0
C1090 C 0.25314 0.33429 0.69389 0.0
C1091 C 0.27356 0.34411 0.70898 0.0
C1092 C 0.25385 0.31735 0.67359 0.0
C1093 C 0.27493 0.30989 0.66816 0.0
C1094 C 0.29539 0.32012 0.68284 0.0
C1095 C 0.29472 0.337 0.70303 0.0
C1096 C 0.27588 0.29103 0.64768 0.0
C1097 C 0.29301 0.29634 0.62869 0.0
C1098 C 0.2609 0.26765 0.64743 0.0
C1099 C 0.24301 0.26058 0.66741 0.0
C1100 C 0.24979 0.26197 0.69345 0.0
C1101 C 0.23277 0.25537 0.71218 0.0
C1102 C 0.20893 0.24717 0.70507 0.0
C1103 C 0.20207 0.24548 0.6792 0.0
C1104 C 0.21903 0.25208 0.6604 0.0
C1105 C 0.3147 0.21097 0.57907 0.0
C1106 C 0.29688 0.19566 0.56381 0.0
C1107 C 0.30972 0.23015 0.59412 0.0
C1108 C 0.28691 0.23475 0.59399 0.0
C1109 C 0.26896 0.21936 0.57899 0.0
C1110 C 0.2739 0.19997 0.564 0.0
C1111 C 0.28183 0.25506 0.61042 0.0
C1112 C 0.26391 0.25004 0.62863 0.0
C1113 C 0.29611 0.27874 0.60999 0.0
C1114 C 0.31436 0.28562 0.59025 0.0
C1115 C 0.30829 0.28192 0.56399 0.0
C1116 C 0.32555 0.28867 0.54551 0.0
C1117 C 0.34894 0.29898 0.55305 0.0
C1118 C 0.35511 0.30275 0.5791 0.0
C1119 C 0.33791 0.29621 0.59766 0.0
H1120 H 0.36226 0.30413 0.5387 0.0
H1121 H 0.19577 0.24207 0.71959 0.0
H1122 H 0.37605 0.84246 0.24161 0.0
H1123 H 0.39984 0.84169 0.20327 0.0
H1124 H 0.34145 0.85194 0.15661 0.0
H1125 H 0.31729 0.85177 0.19498 0.0
H1126 H 0.35966 0.8206 0.13329 0.0
H1127 H 0.39257 0.89851 0.17172 0.0
H1128 H 0.40988 0.92885 0.20606 0.0
H1129 H 0.46933 0.89587 0.21286 0.0
H1130 H 0.45222 0.86512 0.17879 0.0
H1131 H 0.47363 0.86782 0.05087 0.0
H1132 H 0.44474 0.87501 0.0827 0.0
H1133 H 0.42249 0.79821 0.09125 0.0
H1134 H 0.45059 0.79092 0.05897 0.0
H1135 H 0.44246 0.868 0.13032 0.0
H1136 H 0.37171 0.78028 0.10874 0.0
H1137 H 0.35028 0.75553 0.07205 0.0
H1138 H 0.36091 0.81823 0.02737 0.0
H1139 H 0.38329 0.84307 0.06338 0.0
C1140 C 0.36832 0.84459 0.22316 0.0
C1141 C 0.34478 0.84697 0.2212 0.0
C1142 C 0.38199 0.84431 0.20125 0.0
C1143 C 0.37264 0.84717 0.177 0.0
C1144 C 0.34909 0.84966 0.17506 0.0
C1145 C 0.33525 0.84946 0.19696 0.0
C1146 C 0.38721 0.84676 0.15366 0.0
C1147 C 0.37772 0.8311 0.13266 0.0
C1148 C 0.4106 0.86089 0.15235 0.0
C1149 C 0.42101 0.8794 0.17282 0.0
C1150 C 0.40926 0.89763 0.18065 0.0
C1151 C 0.41905 0.91492 0.20006 0.0
C1152 C 0.44067 0.91426 0.21167 0.0
C1153 C 0.45257 0.89635 0.20386 0.0
C1154 C 0.44285 0.879 0.18448 0.0
C1155 C 0.4624 0.85247 0.05936 0.0
C1156 C 0.46446 0.82881 0.0524 0.0
C1157 C 0.44587 0.85659 0.07755 0.0
C1158 C 0.43112 0.83715 0.0892 0.0
C1159 C 0.4331 0.81352 0.0821 0.0
C1160 C 0.44941 0.80938 0.06377 0.0
C1161 C 0.41504 0.8415 0.1102 0.0
C1162 C 0.4243 0.85776 0.13085 0.0
C1163 C 0.39117 0.82863 0.11084 0.0
C1164 C 0.37933 0.81342 0.0886 0.0
C1165 C 0.36972 0.78867 0.09094 0.0
C1166 C 0.35754 0.77461 0.07022 0.0
C1167 C 0.35449 0.78524 0.04726 0.0
C1168 C 0.36371 0.80991 0.04495 0.0
C1169 C 0.37634 0.82394 0.06541 0.0
H1170 H 0.34484 0.7744 0.03132 0.0
H1171 H 0.44821 0.92766 0.22669 0.0
H1172 H 0.78686 0.18141 0.28415 0.0
H1173 H 0.78551 0.15048 0.3152 0.0
H1174 H 0.72984 0.17552 0.35534 0.0
H1175 H 0.73194 0.20723 0.32498 0.0
H1176 H 0.75813 0.16589 0.38874 0.0
H1177 H 0.71968 0.12232 0.314 0.0
H1178 H 0.7147 0.10853 0.26831 0.0
H1179 H 0.77538 0.07722 0.27365 0.0
H1180 H 0.78092 0.09111 0.31931 0.0
H1181 H 0.72003 0.05656 0.45567 0.0
H1182 H 0.72017 0.08707 0.42406 0.0
H1183 H 0.7903 0.08177 0.4013 0.0
H1184 H 0.79059 0.05176 0.43328 0.0
H1185 H 0.75322 0.08042 0.35947 0.0
H1186 H 0.79062 0.12615 0.43571 0.0
H1187 H 0.79225 0.13857 0.48179 0.0
H1188 H 0.72843 0.16421 0.47329 0.0
H1189 H 0.72623 0.15156 0.4272 0.0
C1190 C 0.77436 0.18033 0.29961 0.0
C1191 C 0.75944 0.19669 0.30207 0.0
C1192 C 0.77348 0.16252 0.31728 0.0
C1193 C 0.75722 0.16026 0.33738 0.0
C1194 C 0.7425 0.1768 0.34001 0.0
C1195 C 0.74369 0.19491 0.32261 0.0
C1196 C 0.75575 0.14085 0.35578 0.0
C1197 C 0.75671 0.14718 0.38223 0.0
C1198 C 0.75412 0.11636 0.34748 0.0
C1199 C 0.75085 0.10796 0.32002 0.0
C1200 C 0.73207 0.11265 0.30539 0.0
C1201 C 0.72913 0.10479 0.2795 0.0
C1202 C 0.74475 0.09206 0.26807 0.0
C1203 C 0.76332 0.08711 0.28252 0.0
C1204 C 0.76635 0.09495 0.30841 0.0
C1205 C 0.73542 0.0618 0.44382 0.0
C1206 C 0.75533 0.05185 0.44696 0.0
C1207 C 0.73548 0.07924 0.42586 0.0
C1208 C 0.75526 0.08662 0.41046 0.0
C1209 C 0.77488 0.07624 0.41304 0.0
C1210 C 0.77504 0.0592 0.43136 0.0
C1211 C 0.75574 0.10564 0.39207 0.0
C1212 C 0.75456 0.09918 0.36575 0.0
C1213 C 0.75669 0.12987 0.40045 0.0
C1214 C 0.75811 0.13765 0.42809 0.0
C1215 C 0.77681 0.13421 0.44372 0.0
C1216 C 0.77786 0.14134 0.46982 0.0
C1217 C 0.76041 0.1521 0.48048 0.0
C1218 C 0.74191 0.15583 0.46502 0.0
C1219 C 0.74076 0.1487 0.43891 0.0
H1220 H 0.76126 0.15761 0.50069 0.0
H1221 H 0.74244 0.08599 0.24802 0.0
H1222 H 0.31881 0.41883 0.83175 0.0
H1223 H 0.35212 0.41812 0.86041 0.0
H1224 H 0.31103 0.35508 0.89457 0.0
H1225 H 0.27745 0.35602 0.86646 0.0
H1226 H 0.33745 0.3841 0.93023 0.0
H1227 H 0.35033 0.35037 0.84638 0.0
H1228 H 0.35427 0.35016 0.79935 0.0
H1229 H 0.41283 0.4116 0.80722 0.0
H1230 H 0.40901 0.41238 0.85432 0.0
H1231 H 0.42858 0.33016 0.97495 0.0
H1232 H 0.39526 0.33858 0.95082 0.0
H1233 H 0.43911 0.40592 0.92884 0.0
H1234 H 0.47251 0.39779 0.95314 0.0
H1235 H 0.41249 0.37784 0.88789 0.0
H1236 H 0.40093 0.40897 0.97275 0.0
H1237 H 0.39692 0.40761 0.01968 0.0
H1238 H 0.33575 0.34913 0.00975 0.0
H1239 H 0.33961 0.3499 0.96273 0.0
C1240 C 0.31672 0.40503 0.84562 0.0
C1241 C 0.29555 0.38732 0.84662 0.0
C1242 C 0.33583 0.40459 0.86191 0.0
C1243 C 0.33424 0.38623 0.87924 0.0
C1244 C 0.3127 0.36935 0.88126 0.0
C1245 C 0.29351 0.36989 0.86513 0.0
C1246 C 0.35534 0.38371 0.89419 0.0
C1247 C 0.35379 0.38254 0.92095 0.0
C1248 C 0.37683 0.38209 0.88214 0.0
C1249 C 0.37921 0.3816 0.85384 0.0
C1250 C 0.36393 0.36395 0.83807 0.0
C1251 C 0.36616 0.36371 0.8114 0.0
C1252 C 0.38374 0.3809 0.8003 0.0
C1253 C 0.39918 0.39832 0.81585 0.0
C1254 C 0.397 0.39867 0.84253 0.0
C1255 C 0.43117 0.34673 0.96493 0.0
C1256 C 0.45317 0.36333 0.96597 0.0
C1257 C 0.41209 0.35156 0.95128 0.0
C1258 C 0.41472 0.37296 0.93827 0.0
C1259 C 0.43675 0.38935 0.93885 0.0
C1260 C 0.45577 0.38468 0.95276 0.0
C1261 C 0.39448 0.37804 0.92382 0.0
C1262 C 0.39621 0.37963 0.89717 0.0
C1263 C 0.37312 0.37982 0.93594 0.0
C1264 C 0.3707 0.37934 0.96421 0.0
C1265 C 0.38675 0.39568 0.98057 0.0
C1266 C 0.38448 0.39504 0.00719 0.0
C1267 C 0.36613 0.37825 0.01769 0.0
C1268 C 0.34997 0.36211 0.00159 0.0
C1269 C 0.35218 0.36265 0.97495 0.0
H1270 H 0.36439 0.3778 0.0383 0.0
H1271 H 0.38544 0.38068 0.77966 0.0
H1272 H 0.35045 0.92253 0.36271 0.0
H1273 H 0.34828 0.95889 0.38875 0.0
H1274 H 0.27679 0.95335 0.36125 0.0
H1275 H 0.27912 0.91735 0.33447 0.0
H1276 H 0.29971 0.99859 0.36278 0.0
H1277 H 0.28889 0.93585 0.42186 0.0
H1278 H 0.29809 0.90154 0.44373 0.0
H1279 H 0.36394 0.94641 0.47189 0.0
H1280 H 0.35529 0.98093 0.44988 0.0
H1281 H 0.27375 0.08047 0.46254 0.0
H1282 H 0.27312 0.04413 0.43485 0.0
H1283 H 0.34752 0.05081 0.45052 0.0
H1284 H 0.34837 0.08705 0.47806 0.0
H1285 H 0.32062 0.00432 0.45557 0.0
H1286 H 0.33074 0.06685 0.39472 0.0
H1287 H 0.32001 0.10076 0.37347 0.0
H1288 H 0.253 0.05527 0.34974 0.0
H1289 H 0.2632 0.02116 0.37118 0.0
C1290 C 0.33428 0.92908 0.36213 0.0
C1291 C 0.31491 0.917 0.34663 0.0
C1292 C 0.33301 0.94981 0.37715 0.0
C1293 C 0.3122 0.95861 0.37736 0.0
C1294 C 0.293 0.94685 0.36148 0.0
C1295 C 0.29435 0.92626 0.34622 0.0
C1296 C 0.31051 0.98005 0.39417 0.0
C1297 C 0.30393 0.99967 0.38314 0.0
C1298 C 0.31627 0.98163 0.42072 0.0
C1299 C 0.32153 0.96092 0.43402 0.0
C1300 C 0.30542 0.93836 0.43255 0.0
C1301 C 0.31052 0.91888 0.445 0.0
C1302 C 0.33161 0.92178 0.45914 0.0
C1303 C 0.34762 0.94419 0.4609 0.0
C1304 C 0.34262 0.96372 0.44847 0.0
C1305 C 0.28998 0.07423 0.46003 0.0
C1306 C 0.31112 0.08668 0.47246 0.0
C1307 C 0.2896 0.05352 0.44416 0.0
C1308 C 0.31031 0.04489 0.44058 0.0
C1309 C 0.33136 0.0572 0.45306 0.0
C1310 C 0.33182 0.07797 0.46871 0.0
C1311 C 0.31012 0.02283 0.42409 0.0
C1312 C 0.3163 0.00311 0.43522 0.0
C1313 C 0.30374 0.02107 0.39775 0.0
C1314 C 0.29763 0.04154 0.38479 0.0
C1315 C 0.31363 0.06414 0.38517 0.0
C1316 C 0.30766 0.08338 0.37305 0.0
C1317 C 0.28581 0.08019 0.36033 0.0
C1318 C 0.2699 0.05772 0.35964 0.0
C1319 C 0.27578 0.03843 0.37175 0.0
H1320 H 0.28122 0.09511 0.35096 0.0
H1321 H 0.33553 0.90668 0.46877 0.0
H1322 H 0.69831 0.83804 0.78674 0.0
H1323 H 0.67528 0.84945 0.8227 0.0
H1324 H 0.62713 0.7796 0.81447 0.0
H1325 H 0.64964 0.76828 0.77845 0.0
H1326 H 0.60328 0.81394 0.82222 0.0
H1327 H 0.67207 0.79309 0.86054 0.0
H1328 H 0.71485 0.79707 0.86818 0.0
H1329 H 0.72184 0.87098 0.89532 0.0
H1330 H 0.67912 0.86751 0.88753 0.0
H1331 H 0.55204 0.7841 0.93905 0.0
H1332 H 0.5787 0.78735 0.90297 0.0
H1333 H 0.60477 0.86327 0.92273 0.0
H1334 H 0.57777 0.86028 0.95919 0.0
H1335 H 0.64076 0.83536 0.90857 0.0
H1336 H 0.56926 0.85263 0.87654 0.0
H1337 H 0.52595 0.84593 0.87112 0.0
H1338 H 0.52366 0.77662 0.83307 0.0
H1339 H 0.56692 0.7827 0.83868 0.0
C1340 C 0.68274 0.82518 0.79253 0.0
C1341 C 0.67586 0.80221 0.7798 0.0
C1342 C 0.66965 0.8317 0.81313 0.0
C1343 C 0.64959 0.8153 0.82142 0.0
C1344 C 0.6425 0.79258 0.80838 0.0
C1345 C 0.65547 0.7861 0.78782 0.0
C1346 C 0.63606 0.82125 0.84399 0.0
C1347 C 0.6115 0.81864 0.84108 0.0
C1348 C 0.64685 0.82805 0.8685 0.0
C1349 C 0.6725 0.83014 0.87314 0.0
C1350 C 0.68278 0.81025 0.86793 0.0
C1351 C 0.707 0.8124 0.87232 0.0
C1352 C 0.72107 0.83429 0.88214 0.0
C1353 C 0.71093 0.85406 0.88765 0.0
C1354 C 0.68672 0.85201 0.88326 0.0
C1355 C 0.56353 0.80151 0.93599 0.0
C1356 C 0.56264 0.82199 0.95195 0.0
C1357 C 0.57874 0.80332 0.91528 0.0
C1358 C 0.59344 0.82559 0.91007 0.0
C1359 C 0.59344 0.84594 0.92647 0.0
C1360 C 0.578 0.8442 0.94722 0.0
C1361 C 0.60803 0.82728 0.8868 0.0
C1362 C 0.63269 0.8313 0.88957 0.0
C1363 C 0.59734 0.82159 0.86216 0.0
C1364 C 0.57136 0.81808 0.85817 0.0
C1365 C 0.55952 0.83589 0.86715 0.0
C1366 C 0.53497 0.83221 0.86404 0.0
C1367 C 0.52206 0.81085 0.85179 0.0
C1368 C 0.53369 0.79316 0.84255 0.0
C1369 C 0.55823 0.79673 0.84567 0.0
H1370 H 0.50305 0.80802 0.84944 0.0
H1371 H 0.73982 0.83591 0.88554 0.0
loop_
_geom_bond_atom_site_label_1
_geom_bond_atom_site_label_2
_geom_bond_distance
_geom_bond_site_symmetry_2
_ccdc_geom_bond_type
O0 Cd1 2.300 . S
O0 C7 1.275 . S
Cd1 O0 2.300 . S
Cd1 O9 2.381 . S
Cd1 O10 2.378 . S
O2 Cd3 2.385 . S
O2 C7 1.255 . S
Cd3 O2 2.385 . S
Cd3 O4 2.317 . S
O4 Cd3 2.317 . S
O4 C5 1.232 . S
C5 O4 1.232 . S
C5 O6 1.218 . S
O6 C5 1.218 . S
C7 O0 1.275 . S
C7 O2 1.255 . S
C8 O9 1.258 . S
C8 O10 1.256 . S
O9 Cd1 2.381 . S
O9 C8 1.258 . S
O10 Cd1 2.378 . S
O10 C8 1.256 . S
O11 Cd12 2.300 . S
O11 C18 1.275 . S
Cd12 O11 2.300 . S
Cd12 O20 2.381 . S
Cd12 O21 2.378 . S
O13 Cd14 2.385 . S
O13 C18 1.255 . S
Cd14 O13 2.385 . S
Cd14 O15 2.317 . S
O15 Cd14 2.317 . S
O15 C16 1.232 . S
C16 O15 1.232 . S
C16 O17 1.218 . S
O17 C16 1.218 . S
C18 O11 1.275 . S
C18 O13 1.255 . S
C19 O20 1.258 . S
C19 O21 1.256 . S
O20 Cd12 2.381 . S
O20 C19 1.258 . S
O21 Cd12 2.378 . S
O21 C19 1.256 . S
O22 Cd23 2.300 . S
O22 C29 1.275 . S
Cd23 O22 2.300 . S
Cd23 O31 2.381 . S
Cd23 O32 2.378 . S
O24 Cd25 2.385 . S
O24 C29 1.255 . S
Cd25 O24 2.385 . S
Cd25 O26 2.317 . S
O26 Cd25 2.317 . S
O26 C27 1.232 . S
C27 O26 1.232 . S
C27 O28 1.218 . S
O28 C27 1.218 . S
C29 O22 1.275 . S
C29 O24 1.255 . S
C30 O31 1.258 . S
C30 O32 1.256 . S
O31 Cd23 2.381 . S
O31 C30 1.258 . S
O32 Cd23 2.378 . S
O32 C30 1.256 . S
O33 Cd34 2.300 . S
O33 C40 1.275 . S
Cd34 O33 2.300 . S
Cd34 O42 2.381 . S
Cd34 O43 2.378 . S
O35 Cd36 2.385 . S
O35 C40 1.255 . S
Cd36 O35 2.385 . S
Cd36 O37 2.317 . S
O37 Cd36 2.317 . S
O37 C38 1.232 . S
C38 O37 1.232 . S
C38 O39 1.218 . S
O39 C38 1.218 . S
C40 O33 1.275 . S
C40 O35 1.255 . S
C41 O42 1.258 . S
C41 O43 1.256 . S
O42 Cd34 2.381 . S
O42 C41 1.258 . S
O43 Cd34 2.378 . S
O43 C41 1.256 . S
O44 Cd45 2.300 . S
O44 C51 1.275 . S
Cd45 O44 2.300 . S
Cd45 O53 2.381 . S
Cd45 O54 2.378 . S
O46 Cd47 2.385 . S
O46 C51 1.255 . S
Cd47 O46 2.385 . S
Cd47 O48 2.317 . S
O48 Cd47 2.317 . S
O48 C49 1.232 . S
C49 O48 1.232 . S
C49 O50 1.218 . S
O50 C49 1.218 . S
C51 O44 1.275 . S
C51 O46 1.255 . S
C52 O53 1.258 . S
C52 O54 1.256 . S
O53 Cd45 2.381 . S
O53 C52 1.258 . S
O54 Cd45 2.378 . S
O54 C52 1.256 . S
O55 Cd56 2.300 . S
O55 C62 1.275 . S
Cd56 O55 2.300 . S
Cd56 O64 2.381 . S
Cd56 O65 2.378 . S
O57 Cd58 2.385 . S
O57 C62 1.255 . S
Cd58 O57 2.385 . S
Cd58 O59 2.317 . S
O59 Cd58 2.317 . S
O59 C60 1.232 . S
C60 O59 1.232 . S
C60 O61 1.218 . S
O61 C60 1.218 . S
C62 O55 1.275 . S
C62 O57 1.255 . S
C63 O64 1.258 . S
C63 O65 1.256 . S
O64 Cd56 2.381 . S
O64 C63 1.258 . S
O65 Cd56 2.378 . S
O65 C63 1.256 . S
O66 Cd67 2.300 . S
O66 C73 1.275 . S
Cd67 O66 2.300 . S
Cd67 O75 2.381 . S
Cd67 O76 2.378 . S
O68 Cd69 2.385 . S
O68 C73 1.255 . S
Cd69 O68 2.385 . S
Cd69 O70 2.317 . S
O70 Cd69 2.317 . S
O70 C71 1.232 . S
C71 O70 1.232 . S
C71 O72 1.218 . S
O72 C71 1.218 . S
C73 O66 1.275 . S
C73 O68 1.255 . S
C74 O75 1.258 . S
C74 O76 1.256 . S
O75 Cd67 2.381 . S
O75 C74 1.258 . S
O76 Cd67 2.378 . S
O76 C74 1.256 . S
O77 Cd78 2.300 . S
O77 C84 1.275 . S
Cd78 O77 2.300 . S
Cd78 O86 2.381 . S
Cd78 O87 2.378 . S
O79 Cd80 2.385 . S
O79 C84 1.255 . S
Cd80 O79 2.385 . S
Cd80 O81 2.317 . S
O81 Cd80 2.317 . S
O81 C82 1.232 . S
C82 O81 1.232 . S
C82 O83 1.218 . S
O83 C82 1.218 . S
C84 O77 1.275 . S
C84 O79 1.255 . S
C85 O86 1.258 . S
C85 O87 1.256 . S
O86 Cd78 2.381 . S
O86 C85 1.258 . S
O87 Cd78 2.378 . S
O87 C85 1.256 . S
C88 O90 1.247 . S
C88 O92 1.259 . S
C89 O96 1.247 . S
C89 O97 1.258 . S
O90 C88 1.247 . S
O90 Zn91 2.028 . S
Zn91 O90 2.028 . S
Zn91 O95 2.035 . S
Zn91 O97 2.035 . S
Zn91 O98 2.028 . S
O92 C88 1.259 . S
O92 Zn93 2.035 . S
Zn93 O92 2.035 . S
Zn93 O94 2.028 . S
Zn93 O96 2.028 . S
Zn93 O99 2.035 . S
O94 Zn93 2.028 . S
O94 C100 1.247 . S
O95 Zn91 2.035 . S
O95 C100 1.258 . S
O96 C89 1.247 . S
O96 Zn93 2.028 . S
O97 C89 1.258 . S
O97 Zn91 2.035 . S
O98 Zn91 2.028 . S
O98 C101 1.247 . S
O99 Zn93 2.035 . S
O99 C101 1.258 . S
C100 O94 1.247 . S
C100 O95 1.258 . S
C101 O98 1.247 . S
C101 O99 1.258 . S
C102 O104 1.247 . S
C102 O106 1.258 . S
C103 O110 1.247 . S
C103 O111 1.258 . S
O104 C102 1.247 . S
O104 Zn105 2.028 1_655 S
Zn105 O104 2.028 1_455 S
Zn105 O109 2.035 . S
Zn105 O111 2.035 . S
Zn105 O112 2.028 1_455 S
O106 C102 1.258 . S
O106 Zn107 2.035 1_655 S
Zn107 O106 2.035 1_455 S
Zn107 O108 2.028 . S
Zn107 O110 2.028 . S
Zn107 O113 2.035 1_455 S
O108 Zn107 2.028 . S
O108 C114 1.247 . S
O109 Zn105 2.035 . S
O109 C114 1.258 . S
O110 C103 1.247 . S
O110 Zn107 2.028 . S
O111 C103 1.258 . S
O111 Zn105 2.035 . S
O112 Zn105 2.028 1_655 S
O112 C115 1.247 . S
O113 Zn107 2.035 1_655 S
O113 C115 1.258 . S
C114 O108 1.247 . S
C114 O109 1.258 . S
C115 O112 1.247 . S
C115 O113 1.258 . S
C116 O118 1.247 . S
C116 O120 1.258 . S
C117 O124 1.247 . S
C117 O125 1.258 . S
O118 C116 1.247 . S
O118 Zn119 2.028 . S
Zn119 O118 2.028 . S
Zn119 O123 2.035 . S
Zn119 O125 2.035 . S
Zn119 O126 2.028 . S
O120 C116 1.258 . S
O120 Zn121 2.035 . S
Zn121 O120 2.035 . S
Zn121 O122 2.028 . S
Zn121 O124 2.028 . S
Zn121 O127 2.035 . S
O122 Zn121 2.028 . S
O122 C128 1.247 . S
O123 Zn119 2.035 . S
O123 C128 1.258 . S
O124 C117 1.247 . S
O124 Zn121 2.028 . S
O125 C117 1.258 . S
O125 Zn119 2.035 . S
O126 Zn119 2.028 . S
O126 C129 1.247 . S
O127 Zn121 2.035 . S
O127 C129 1.258 . S
C128 O122 1.247 . S
C128 O123 1.258 . S
C129 O126 1.247 . S
C129 O127 1.258 . S
C130 O132 1.247 . S
C130 O134 1.258 . S
C131 O138 1.247 . S
C131 O139 1.258 . S
O132 C130 1.247 . S
O132 Zn133 2.028 . S
Zn133 O132 2.028 . S
Zn133 O137 2.035 . S
Zn133 O139 2.035 1_554 S
Zn133 O140 2.028 1_554 S
O134 C130 1.258 . S
O134 Zn135 2.035 . S
Zn135 O134 2.035 . S
Zn135 O136 2.028 . S
Zn135 O138 2.028 1_554 S
Zn135 O141 2.035 1_554 S
O136 Zn135 2.028 . S
O136 C142 1.247 . S
O137 Zn133 2.035 . S
O137 C142 1.258 . S
O138 C131 1.247 . S
O138 Zn135 2.028 1_556 S
O139 C131 1.258 . S
O139 Zn133 2.035 1_556 S
O140 Zn133 2.028 1_556 S
O140 C143 1.247 . S
O141 Zn135 2.035 1_556 S
O141 C143 1.258 . S
C142 O136 1.247 . S
C142 O137 1.258 . S
C143 O140 1.247 . S
C143 O141 1.258 . S
C144 O146 1.247 . S
C144 O148 1.258 . S
C145 O152 1.247 . S
C145 O153 1.258 . S
O146 C144 1.247 . S
O146 Zn147 2.028 . S
Zn147 O146 2.028 . S
Zn147 O151 2.035 1_565 S
Zn147 O153 2.035 1_565 S
Zn147 O154 2.028 . S
O148 C144 1.258 . S
O148 Zn149 2.035 1_565 S
Zn149 O148 2.035 1_545 S
Zn149 O150 2.028 . S
Zn149 O152 2.028 . S
Zn149 O155 2.035 1_545 S
O150 Zn149 2.028 . S
O150 C156 1.247 . S
O151 Zn147 2.035 1_545 S
O151 C156 1.258 . S
O152 C145 1.247 . S
O152 Zn149 2.028 . S
O153 C145 1.258 . S
O153 Zn147 2.035 1_545 S
O154 Zn147 2.028 . S
O154 C157 1.247 . S
O155 Zn149 2.035 1_565 S
O155 C157 1.258 . S
C156 O150 1.247 . S
C156 O151 1.258 . S
C157 O154 1.247 . S
C157 O155 1.258 . S
C158 O160 1.247 . S
C158 O162 1.258 . S
C159 O166 1.247 . S
C159 O167 1.258 . S
O160 C158 1.247 . S
O160 Zn161 2.028 . S
Zn161 O160 2.028 . S
Zn161 O165 2.035 . S
Zn161 O167 2.035 1_554 S
Zn161 O168 2.028 1_554 S
O162 C158 1.258 . S
O162 Zn163 2.035 . S
Zn163 O162 2.035 . S
Zn163 O164 2.028 . S
Zn163 O166 2.028 1_554 S
Zn163 O169 2.035 1_554 S
O164 Zn163 2.028 . S
O164 C170 1.247 . S
O165 Zn161 2.035 . S
O165 C170 1.258 . S
O166 C159 1.247 . S
O166 Zn163 2.028 1_556 S
O167 C159 1.258 . S
O167 Zn161 2.035 1_556 S
O168 Zn161 2.028 1_556 S
O168 C171 1.247 . S
O169 Zn163 2.035 1_556 S
O169 C171 1.258 . S
C170 O164 1.247 . S
C170 O165 1.258 . S
C171 O168 1.247 . S
C171 O169 1.258 . S
H172 C190 0.951 . S
H173 C192 0.951 . S
H174 C194 0.950 . S
H175 C195 0.950 . S
H176 C197 0.950 . S
H177 C200 0.950 . S
H178 C201 0.950 . S
H179 C203 0.950 . S
H180 C204 0.950 . S
H181 C205 0.951 . S
H182 C207 0.951 . S
H183 C209 0.950 . S
H184 C210 0.950 . S
H185 C212 0.950 . S
H186 C215 0.950 . S
H187 C216 0.950 . S
H188 C218 0.950 . S
H189 C219 0.950 . S
C190 H172 0.951 . S
C190 C191 1.366 . S
C190 C192 1.388 . S
C191 C190 1.366 . S
C191 C195 1.385 . S
C192 H173 0.951 . S
C192 C190 1.388 . S
C192 C193 1.366 . S
C193 C192 1.366 . S
C193 C194 1.414 . S
C193 C196 1.499 . S
C194 H174 0.950 . S
C194 C193 1.414 . S
C194 C195 1.374 . S
C195 H175 0.950 . S
C195 C191 1.385 . S
C195 C194 1.374 . S
C196 C193 1.499 . S
C196 C197 1.373 . S
C196 C198 1.389 . S
C197 H176 0.950 . S
C197 C196 1.373 . S
C197 C213 1.377 . S
C198 C196 1.389 . S
C198 C199 1.524 . S
C198 C212 1.377 . S
C199 C198 1.524 . S
C199 C200 1.397 . S
C199 C204 1.363 . S
C200 H177 0.950 . S
C200 C199 1.397 . S
C200 C201 1.334 . S
C201 H178 0.950 . S
C201 C200 1.334 . S
C201 C202 1.287 . S
C202 C201 1.287 . S
C202 C203 1.524 . S
C202 H221 0.913 . S
C203 H179 0.950 . S
C203 C202 1.524 . S
C203 C204 1.415 . S
C204 H180 0.950 . S
C204 C199 1.363 . S
C204 C203 1.415 . S
C205 H181 0.951 . S
C205 C206 1.366 . S
C205 C207 1.388 . S
C206 C205 1.366 . S
C206 C210 1.385 . S
C207 H182 0.951 . S
C207 C205 1.388 . S
C207 C208 1.366 . S
C208 C207 1.366 . S
C208 C209 1.414 . S
C208 C211 1.499 . S
C209 H183 0.950 . S
C209 C208 1.414 . S
C209 C210 1.374 . S
C210 H184 0.950 . S
C210 C206 1.385 . S
C210 C209 1.374 . S
C211 C208 1.499 . S
C211 C212 1.373 . S
C211 C213 1.389 . S
C212 H185 0.950 . S
C212 C198 1.377 . S
C212 C211 1.373 . S
C213 C197 1.377 . S
C213 C211 1.389 . S
C213 C214 1.524 . S
C214 C213 1.524 . S
C214 C215 1.397 . S
C214 C219 1.363 . S
C215 H186 0.950 . S
C215 C214 1.397 . S
C215 C216 1.334 . S
C216 H187 0.950 . S
C216 C215 1.334 . S
C216 C217 1.287 . S
C217 C216 1.287 . S
C217 C218 1.524 . S
C217 H220 0.999 . S
C218 H188 0.950 . S
C218 C217 1.524 . S
C218 C219 1.415 . S
C219 H189 0.950 . S
C219 C214 1.363 . S
C219 C218 1.415 . S
H220 C217 0.999 . S
H221 C202 0.913 . S
H222 C240 0.951 . S
H223 C242 0.951 . S
H224 C244 0.950 . S
H225 C245 0.950 . S
H226 C247 0.950 . S
H227 C250 0.950 . S
H228 C251 0.950 . S
H229 C253 0.950 . S
H230 C254 0.950 . S
H231 C255 0.951 . S
H232 C257 0.951 . S
H233 C259 0.950 . S
H234 C260 0.950 . S
H235 C262 0.950 . S
H236 C265 0.950 . S
H237 C266 0.950 . S
H238 C268 0.950 . S
H239 C269 0.950 . S
C240 H222 0.951 . S
C240 C241 1.366 . S
C240 C242 1.388 . S
C241 C240 1.366 . S
C241 C245 1.385 . S
C242 H223 0.951 . S
C242 C240 1.388 . S
C242 C243 1.366 . S
C243 C242 1.366 . S
C243 C244 1.414 . S
C243 C246 1.499 . S
C244 H224 0.950 . S
C244 C243 1.414 . S
C244 C245 1.374 . S
C245 H225 0.950 . S
C245 C241 1.385 . S
C245 C244 1.374 . S
C246 C243 1.499 . S
C246 C247 1.373 . S
C246 C248 1.389 . S
C247 H226 0.950 . S
C247 C246 1.373 . S
C247 C263 1.377 . S
C248 C246 1.389 . S
C248 C249 1.524 . S
C248 C262 1.377 . S
C249 C248 1.524 . S
C249 C250 1.397 . S
C249 C254 1.363 . S
C250 H227 0.950 . S
C250 C249 1.397 . S
C250 C251 1.334 . S
C251 H228 0.950 . S
C251 C250 1.334 . S
C251 C252 1.287 . S
C252 C251 1.287 . S
C252 C253 1.524 . S
C252 H271 0.913 . S
C253 H229 0.950 . S
C253 C252 1.524 . S
C253 C254 1.415 . S
C254 H230 0.950 . S
C254 C249 1.363 . S
C254 C253 1.415 . S
C255 H231 0.951 . S
C255 C256 1.366 . S
C255 C257 1.388 . S
C256 C255 1.366 . S
C256 C260 1.385 . S
C257 H232 0.951 . S
C257 C255 1.388 . S
C257 C258 1.366 . S
C258 C257 1.366 . S
C258 C259 1.414 . S
C258 C261 1.499 . S
C259 H233 0.950 . S
C259 C258 1.414 . S
C259 C260 1.374 . S
C260 H234 0.950 . S
C260 C256 1.385 . S
C260 C259 1.374 . S
C261 C258 1.499 . S
C261 C262 1.373 . S
C261 C263 1.389 . S
C262 H235 0.950 . S
C262 C248 1.377 . S
C262 C261 1.373 . S
C263 C247 1.377 . S
C263 C261 1.389 . S
C263 C264 1.524 . S
C264 C263 1.524 . S
C264 C265 1.397 . S
C264 C269 1.363 . S
C265 H236 0.950 . S
C265 C264 1.397 . S
C265 C266 1.334 . S
C266 H237 0.950 . S
C266 C265 1.334 . S
C266 C267 1.287 . S
C267 C266 1.287 . S
C267 C268 1.524 . S
C267 H270 0.999 . S
C268 H238 0.950 . S
C268 C267 1.524 . S
C268 C269 1.415 . S
C269 H239 0.950 . S
C269 C264 1.363 . S
C269 C268 1.415 . S
H270 C267 0.999 . S
H271 C252 0.913 . S
H272 C290 0.951 . S
H273 C292 0.951 . S
H274 C294 0.950 . S
H275 C295 0.950 . S
H276 C297 0.950 . S
H277 C300 0.950 . S
H278 C301 0.950 . S
H279 C303 0.950 . S
H280 C304 0.950 . S
H281 C305 0.951 . S
H282 C307 0.951 . S
H283 C309 0.950 . S
H284 C310 0.950 . S
H285 C312 0.950 . S
H286 C315 0.950 . S
H287 C316 0.950 . S
H288 C318 0.950 . S
H289 C319 0.950 . S
C290 H272 0.951 . S
C290 C291 1.366 . S
C290 C292 1.388 . S
C291 C290 1.366 . S
C291 C295 1.385 . S
C292 H273 0.951 . S
C292 C290 1.388 . S
C292 C293 1.366 . S
C293 C292 1.366 . S
C293 C294 1.414 . S
C293 C296 1.499 . S
C294 H274 0.950 . S
C294 C293 1.414 . S
C294 C295 1.374 . S
C295 H275 0.950 . S
C295 C291 1.385 . S
C295 C294 1.374 . S
C296 C293 1.499 . S
C296 C297 1.373 . S
C296 C298 1.389 . S
C297 H276 0.950 . S
C297 C296 1.373 . S
C297 C313 1.377 . S
C298 C296 1.389 . S
C298 C299 1.524 . S
C298 C312 1.377 . S
C299 C298 1.524 . S
C299 C300 1.397 . S
C299 C304 1.363 . S
C300 H277 0.950 . S
C300 C299 1.397 . S
C300 C301 1.334 . S
C301 H278 0.950 . S
C301 C300 1.334 . S
C301 C302 1.287 . S
C302 C301 1.287 . S
C302 C303 1.524 . S
C302 H321 0.913 . S
C303 H279 0.950 . S
C303 C302 1.524 . S
C303 C304 1.415 . S
C304 H280 0.950 . S
C304 C299 1.363 . S
C304 C303 1.415 . S
C305 H281 0.951 . S
C305 C306 1.366 . S
C305 C307 1.388 . S
C306 C305 1.366 . S
C306 C310 1.385 . S
C307 H282 0.951 . S
C307 C305 1.388 . S
C307 C308 1.366 . S
C308 C307 1.366 . S
C308 C309 1.414 . S
C308 C311 1.499 . S
C309 H283 0.950 . S
C309 C308 1.414 . S
C309 C310 1.374 . S
C310 H284 0.950 . S
C310 C306 1.385 . S
C310 C309 1.374 . S
C311 C308 1.499 . S
C311 C312 1.373 . S
C311 C313 1.389 . S
C312 H285 0.950 . S
C312 C298 1.377 . S
C312 C311 1.373 . S
C313 C297 1.377 . S
C313 C311 1.389 . S
C313 C314 1.524 . S
C314 C313 1.524 . S
C314 C315 1.397 . S
C314 C319 1.363 . S
C315 H286 0.950 . S
C315 C314 1.397 . S
C315 C316 1.334 . S
C316 H287 0.950 . S
C316 C315 1.334 . S
C316 C317 1.287 . S
C317 C316 1.287 . S
C317 C318 1.524 . S
C317 H320 0.999 . S
C318 H288 0.950 . S
C318 C317 1.524 . S
C318 C319 1.415 . S
C319 H289 0.950 . S
C319 C314 1.363 . S
C319 C318 1.415 . S
H320 C317 0.999 . S
H321 C302 0.913 . S
H322 C340 0.951 . S
H323 C342 0.951 . S
H324 C344 0.950 . S
H325 C345 0.950 . S
H326 C347 0.950 . S
H327 C350 0.950 . S
H328 C351 0.950 . S
H329 C353 0.950 . S
H330 C354 0.950 . S
H331 C355 0.951 . S
H332 C357 0.951 . S
H333 C359 0.950 . S
H334 C360 0.950 . S
H335 C362 0.950 . S
H336 C365 0.950 . S
H337 C366 0.950 . S
H338 C368 0.950 . S
H339 C369 0.950 . S
C340 H322 0.951 . S
C340 C341 1.366 . S
C340 C342 1.388 . S
C341 C340 1.366 . S
C341 C345 1.385 . S
C342 H323 0.951 . S
C342 C340 1.388 . S
C342 C343 1.366 . S
C343 C342 1.366 . S
C343 C344 1.414 . S
C343 C346 1.499 . S
C344 H324 0.950 . S
C344 C343 1.414 . S
C344 C345 1.374 . S
C345 H325 0.950 . S
C345 C341 1.385 . S
C345 C344 1.374 . S
C346 C343 1.499 . S
C346 C347 1.373 . S
C346 C348 1.389 . S
C347 H326 0.950 . S
C347 C346 1.373 . S
C347 C363 1.377 . S
C348 C346 1.389 . S
C348 C349 1.524 . S
C348 C362 1.377 . S
C349 C348 1.524 . S
C349 C350 1.397 . S
C349 C354 1.363 . S
C350 H327 0.950 . S
C350 C349 1.397 . S
C350 C351 1.334 . S
C351 H328 0.950 . S
C351 C350 1.334 . S
C351 C352 1.287 . S
C352 C351 1.287 . S
C352 C353 1.524 . S
C352 H371 0.913 . S
C353 H329 0.950 . S
C353 C352 1.524 . S
C353 C354 1.415 . S
C354 H330 0.950 . S
C354 C349 1.363 . S
C354 C353 1.415 . S
C355 H331 0.951 . S
C355 C356 1.366 . S
C355 C357 1.388 . S
C356 C355 1.366 . S
C356 C360 1.385 . S
C357 H332 0.951 . S
C357 C355 1.388 . S
C357 C358 1.366 . S
C358 C357 1.366 . S
C358 C359 1.414 . S
C358 C361 1.499 . S
C359 H333 0.950 . S
C359 C358 1.414 . S
C359 C360 1.374 . S
C360 H334 0.950 . S
C360 C356 1.385 . S
C360 C359 1.374 . S
C361 C358 1.499 . S
C361 C362 1.373 . S
C361 C363 1.389 . S
C362 H335 0.950 . S
C362 C348 1.377 . S
C362 C361 1.373 . S
C363 C347 1.377 . S
C363 C361 1.389 . S
C363 C364 1.524 . S
C364 C363 1.524 . S
C364 C365 1.397 . S
C364 C369 1.363 . S
C365 H336 0.950 . S
C365 C364 1.397 . S
C365 C366 1.334 . S
C366 H337 0.950 . S
C366 C365 1.334 . S
C366 C367 1.287 . S
C367 C366 1.287 . S
C367 C368 1.524 . S
C367 H370 0.999 . S
C368 H338 0.950 . S
C368 C367 1.524 . S
C368 C369 1.415 . S
C369 H339 0.950 . S
C369 C364 1.363 . S
C369 C368 1.415 . S
H370 C367 0.999 . S
H371 C352 0.913 . S
H372 C390 0.951 . S
H373 C392 0.951 . S
H374 C394 0.950 . S
H375 C395 0.950 . S
H376 C397 0.950 . S
H377 C400 0.950 . S
H378 C401 0.950 . S
H379 C403 0.950 . S
H380 C404 0.950 . S
H381 C405 0.951 . S
H382 C407 0.951 . S
H383 C409 0.950 . S
H384 C410 0.950 . S
H385 C412 0.950 . S
H386 C415 0.950 . S
H387 C416 0.950 . S
H388 C418 0.950 . S
H389 C419 0.950 . S
C390 H372 0.951 . S
C390 C391 1.366 . S
C390 C392 1.388 . S
C391 C390 1.366 . S
C391 C395 1.385 . S
C392 H373 0.951 . S
C392 C390 1.388 . S
C392 C393 1.366 . S
C393 C392 1.366 . S
C393 C394 1.414 . S
C393 C396 1.499 . S
C394 H374 0.950 . S
C394 C393 1.414 . S
C394 C395 1.374 . S
C395 H375 0.950 . S
C395 C391 1.385 . S
C395 C394 1.374 . S
C396 C393 1.499 . S
C396 C397 1.373 . S
C396 C398 1.389 . S
C397 H376 0.950 . S
C397 C396 1.373 . S
C397 C413 1.377 . S
C398 C396 1.389 . S
C398 C399 1.524 . S
C398 C412 1.377 . S
C399 C398 1.524 . S
C399 C400 1.397 . S
C399 C404 1.363 . S
C400 H377 0.950 . S
C400 C399 1.397 . S
C400 C401 1.334 . S
C401 H378 0.950 . S
C401 C400 1.334 . S
C401 C402 1.287 . S
C402 C401 1.287 . S
C402 C403 1.524 . S
C402 H421 0.913 . S
C403 H379 0.950 . S
C403 C402 1.524 . S
C403 C404 1.415 . S
C404 H380 0.950 . S
C404 C399 1.363 . S
C404 C403 1.415 . S
C405 H381 0.951 . S
C405 C406 1.366 . S
C405 C407 1.388 . S
C406 C405 1.366 . S
C406 C410 1.385 . S
C407 H382 0.951 . S
C407 C405 1.388 . S
C407 C408 1.366 . S
C408 C407 1.366 . S
C408 C409 1.414 . S
C408 C411 1.499 . S
C409 H383 0.950 . S
C409 C408 1.414 . S
C409 C410 1.374 . S
C410 H384 0.950 . S
C410 C406 1.385 . S
C410 C409 1.374 . S
C411 C408 1.499 . S
C411 C412 1.373 . S
C411 C413 1.389 . S
C412 H385 0.950 . S
C412 C398 1.377 . S
C412 C411 1.373 . S
C413 C397 1.377 . S
C413 C411 1.389 . S
C413 C414 1.524 . S
C414 C413 1.524 . S
C414 C415 1.397 . S
C414 C419 1.363 . S
C415 H386 0.950 . S
C415 C414 1.397 . S
C415 C416 1.334 . S
C416 H387 0.950 . S
C416 C415 1.334 . S
C416 C417 1.287 . S
C417 C416 1.287 . S
C417 C418 1.524 . S
C417 H420 0.999 . S
C418 H388 0.950 . S
C418 C417 1.524 . S
C418 C419 1.415 . S
C419 H389 0.950 . S
C419 C414 1.363 . S
C419 C418 1.415 . S
H420 C417 0.999 . S
H421 C402 0.913 . S
H422 C440 0.951 . S
H423 C442 0.951 . S
H424 C444 0.950 . S
H425 C445 0.950 . S
H426 C447 0.950 . S
H427 C450 0.950 . S
H428 C451 0.950 . S
H429 C453 0.950 . S
H430 C454 0.950 . S
H431 C455 0.951 . S
H432 C457 0.951 . S
H433 C459 0.950 . S
H434 C460 0.950 . S
H435 C462 0.950 . S
H436 C465 0.950 . S
H437 C466 0.950 . S
H438 C468 0.950 . S
H439 C469 0.950 . S
C440 H422 0.951 . S
C440 C441 1.366 . S
C440 C442 1.388 . S
C441 C440 1.366 . S
C441 C445 1.385 . S
C442 H423 0.951 . S
C442 C440 1.388 . S
C442 C443 1.366 . S
C443 C442 1.366 . S
C443 C444 1.414 . S
C443 C446 1.499 . S
C444 H424 0.950 . S
C444 C443 1.414 . S
C444 C445 1.374 . S
C445 H425 0.950 . S
C445 C441 1.385 . S
C445 C444 1.374 . S
C446 C443 1.499 . S
C446 C447 1.373 . S
C446 C448 1.389 . S
C447 H426 0.950 . S
C447 C446 1.373 . S
C447 C463 1.377 . S
C448 C446 1.389 . S
C448 C449 1.524 . S
C448 C462 1.377 . S
C449 C448 1.524 . S
C449 C450 1.397 . S
C449 C454 1.363 . S
C450 H427 0.950 . S
C450 C449 1.397 . S
C450 C451 1.334 . S
C451 H428 0.950 . S
C451 C450 1.334 . S
C451 C452 1.287 . S
C452 C451 1.287 . S
C452 C453 1.524 . S
C452 H471 0.913 . S
C453 H429 0.950 . S
C453 C452 1.524 . S
C453 C454 1.415 . S
C454 H430 0.950 . S
C454 C449 1.363 . S
C454 C453 1.415 . S
C455 H431 0.951 . S
C455 C456 1.366 . S
C455 C457 1.388 . S
C456 C455 1.366 . S
C456 C460 1.385 . S
C457 H432 0.951 . S
C457 C455 1.388 . S
C457 C458 1.366 . S
C458 C457 1.366 . S
C458 C459 1.414 . S
C458 C461 1.499 . S
C459 H433 0.950 . S
C459 C458 1.414 . S
C459 C460 1.374 . S
C460 H434 0.950 . S
C460 C456 1.385 . S
C460 C459 1.374 . S
C461 C458 1.499 . S
C461 C462 1.373 . S
C461 C463 1.389 . S
C462 H435 0.950 . S
C462 C448 1.377 . S
C462 C461 1.373 . S
C463 C447 1.377 . S
C463 C461 1.389 . S
C463 C464 1.524 . S
C464 C463 1.524 . S
C464 C465 1.397 . S
C464 C469 1.363 . S
C465 H436 0.950 . S
C465 C464 1.397 . S
C465 C466 1.334 . S
C466 H437 0.950 . S
C466 C465 1.334 . S
C466 C467 1.287 . S
C467 C466 1.287 . S
C467 C468 1.524 . S
C467 H470 0.999 1_556 S
C468 H438 0.950 . S
C468 C467 1.524 . S
C468 C469 1.415 . S
C469 H439 0.950 . S
C469 C464 1.363 . S
C469 C468 1.415 . S
H470 C467 0.999 1_554 S
H471 C452 0.913 . S
H472 C490 0.951 . S
H473 C492 0.951 . S
H474 C494 0.950 . S
H475 C495 0.950 . S
H476 C497 0.950 . S
H477 C500 0.950 . S
H478 C501 0.950 . S
H479 C503 0.950 . S
H480 C504 0.950 . S
H481 C505 0.951 . S
H482 C507 0.951 . S
H483 C509 0.950 . S
H484 C510 0.950 . S
H485 C512 0.950 . S
H486 C515 0.950 . S
H487 C516 0.950 . S
H488 C518 0.950 . S
H489 C519 0.950 . S
C490 H472 0.951 . S
C490 C491 1.366 . S
C490 C492 1.388 . S
C491 C490 1.366 . S
C491 C495 1.385 . S
C492 H473 0.951 . S
C492 C490 1.388 . S
C492 C493 1.366 . S
C493 C492 1.366 . S
C493 C494 1.414 . S
C493 C496 1.499 . S
C494 H474 0.950 . S
C494 C493 1.414 . S
C494 C495 1.374 . S
C495 H475 0.950 . S
C495 C491 1.385 . S
C495 C494 1.374 . S
C496 C493 1.499 . S
C496 C497 1.373 . S
C496 C498 1.389 . S
C497 H476 0.950 . S
C497 C496 1.373 . S
C497 C513 1.377 . S
C498 C496 1.389 . S
C498 C499 1.524 . S
C498 C512 1.377 . S
C499 C498 1.524 . S
C499 C500 1.397 . S
C499 C504 1.363 . S
C500 H477 0.950 . S
C500 C499 1.397 . S
C500 C501 1.334 . S
C501 H478 0.950 . S
C501 C500 1.334 . S
C501 C502 1.287 . S
C502 C501 1.287 . S
C502 C503 1.524 . S
C502 H521 0.913 . S
C503 H479 0.950 . S
C503 C502 1.524 . S
C503 C504 1.415 . S
C504 H480 0.950 . S
C504 C499 1.363 . S
C504 C503 1.415 . S
C505 H481 0.951 . S
C505 C506 1.366 . S
C505 C507 1.388 . S
C506 C505 1.366 . S
C506 C510 1.385 . S
C507 H482 0.951 . S
C507 C505 1.388 . S
C507 C508 1.366 . S
C508 C507 1.366 . S
C508 C509 1.414 . S
C508 C511 1.499 . S
C509 H483 0.950 . S
C509 C508 1.414 . S
C509 C510 1.374 . S
C510 H484 0.950 . S
C510 C506 1.385 . S
C510 C509 1.374 . S
C511 C508 1.499 . S
C511 C512 1.373 . S
C511 C513 1.389 . S
C512 H485 0.950 . S
C512 C498 1.377 . S
C512 C511 1.373 . S
C513 C497 1.377 . S
C513 C511 1.389 . S
C513 C514 1.524 . S
C514 C513 1.524 . S
C514 C515 1.397 . S
C514 C519 1.363 . S
C515 H486 0.950 . S
C515 C514 1.397 . S
C515 C516 1.334 . S
C516 H487 0.950 . S
C516 C515 1.334 . S
C516 C517 1.287 . S
C517 C516 1.287 . S
C517 C518 1.524 . S
C517 H520 0.999 . S
C518 H488 0.950 . S
C518 C517 1.524 . S
C518 C519 1.415 . S
C519 H489 0.950 . S
C519 C514 1.363 . S
C519 C518 1.415 . S
H520 C517 0.999 . S
H521 C502 0.913 . S
H522 C540 0.951 . S
H523 C542 0.951 . S
H524 C544 0.950 . S
H525 C545 0.950 . S
H526 C547 0.950 . S
H527 C550 0.950 . S
H528 C551 0.950 . S
H529 C553 0.950 . S
H530 C554 0.950 . S
H531 C555 0.951 . S
H532 C557 0.951 . S
H533 C559 0.950 . S
H534 C560 0.950 . S
H535 C562 0.950 . S
H536 C565 0.950 . S
H537 C566 0.950 . S
H538 C568 0.950 . S
H539 C569 0.950 . S
C540 H522 0.951 . S
C540 C541 1.366 . S
C540 C542 1.388 . S
C541 C540 1.366 . S
C541 C545 1.385 . S
C542 H523 0.951 . S
C542 C540 1.388 . S
C542 C543 1.366 . S
C543 C542 1.366 . S
C543 C544 1.414 . S
C543 C546 1.499 . S
C544 H524 0.950 . S
C544 C543 1.414 . S
C544 C545 1.374 . S
C545 H525 0.950 . S
C545 C541 1.385 . S
C545 C544 1.374 . S
C546 C543 1.499 . S
C546 C547 1.373 . S
C546 C548 1.389 . S
C547 H526 0.950 . S
C547 C546 1.373 . S
C547 C563 1.377 . S
C548 C546 1.389 . S
C548 C549 1.524 . S
C548 C562 1.377 . S
C549 C548 1.524 . S
C549 C550 1.397 . S
C549 C554 1.363 . S
C550 H527 0.950 . S
C550 C549 1.397 . S
C550 C551 1.334 . S
C551 H528 0.950 . S
C551 C550 1.334 . S
C551 C552 1.287 . S
C552 C551 1.287 . S
C552 C553 1.524 . S
C552 H571 0.913 . S
C553 H529 0.950 . S
C553 C552 1.524 . S
C553 C554 1.415 . S
C554 H530 0.950 . S
C554 C549 1.363 . S
C554 C553 1.415 . S
C555 H531 0.951 . S
C555 C556 1.366 . S
C555 C557 1.388 . S
C556 C555 1.366 . S
C556 C560 1.385 . S
C557 H532 0.951 . S
C557 C555 1.388 . S
C557 C558 1.366 . S
C558 C557 1.366 . S
C558 C559 1.414 . S
C558 C561 1.499 . S
C559 H533 0.950 . S
C559 C558 1.414 . S
C559 C560 1.374 . S
C560 H534 0.950 . S
C560 C556 1.385 . S
C560 C559 1.374 . S
C561 C558 1.499 . S
C561 C562 1.373 . S
C561 C563 1.389 . S
C562 H535 0.950 . S
C562 C548 1.377 . S
C562 C561 1.373 . S
C563 C547 1.377 . S
C563 C561 1.389 . S
C563 C564 1.524 . S
C564 C563 1.524 . S
C564 C565 1.397 . S
C564 C569 1.363 . S
C565 H536 0.950 . S
C565 C564 1.397 . S
C565 C566 1.334 . S
C566 H537 0.950 . S
C566 C565 1.334 . S
C566 C567 1.287 . S
C567 C566 1.287 . S
C567 C568 1.524 . S
C567 H570 0.999 . S
C568 H538 0.950 . S
C568 C567 1.524 . S
C568 C569 1.415 . S
C569 H539 0.950 . S
C569 C564 1.363 . S
C569 C568 1.415 . S
H570 C567 0.999 . S
H571 C552 0.913 . S
H572 C590 0.951 . S
H573 C592 0.951 . S
H574 C594 0.950 . S
H575 C595 0.950 . S
H576 C597 0.950 . S
H577 C600 0.950 . S
H578 C601 0.950 . S
H579 C603 0.950 . S
H580 C604 0.950 . S
H581 C605 0.951 . S
H582 C607 0.951 . S
H583 C609 0.950 . S
H584 C610 0.950 . S
H585 C612 0.950 . S
H586 C615 0.950 . S
H587 C616 0.950 . S
H588 C618 0.950 . S
H589 C619 0.950 . S
C590 H572 0.951 . S
C590 C591 1.366 . S
C590 C592 1.388 . S
C591 C590 1.366 . S
C591 C595 1.385 . S
C592 H573 0.951 . S
C592 C590 1.388 . S
C592 C593 1.366 . S
C593 C592 1.366 . S
C593 C594 1.414 . S
C593 C596 1.499 . S
C594 H574 0.950 . S
C594 C593 1.414 . S
C594 C595 1.374 . S
C595 H575 0.950 . S
C595 C591 1.385 . S
C595 C594 1.374 . S
C596 C593 1.499 . S
C596 C597 1.373 . S
C596 C598 1.389 1_565 S
C597 H576 0.950 . S
C597 C596 1.373 . S
C597 C613 1.377 1_565 S
C598 C596 1.389 1_545 S
C598 C599 1.524 . S
C598 C612 1.377 . S
C599 C598 1.524 . S
C599 C600 1.397 . S
C599 C604 1.363 . S
C600 H577 0.950 . S
C600 C599 1.397 . S
C600 C601 1.334 . S
C601 H578 0.950 . S
C601 C600 1.334 . S
C601 C602 1.287 . S
C602 C601 1.287 . S
C602 C603 1.524 . S
C602 H621 0.913 . S
C603 H579 0.950 . S
C603 C602 1.524 . S
C603 C604 1.415 . S
C604 H580 0.950 . S
C604 C599 1.363 . S
C604 C603 1.415 . S
C605 H581 0.951 . S
C605 C606 1.366 . S
C605 C607 1.388 . S
C606 C605 1.366 . S
C606 C610 1.385 . S
C607 H582 0.951 . S
C607 C605 1.388 . S
C607 C608 1.366 . S
C608 C607 1.366 . S
C608 C609 1.414 . S
C608 C611 1.499 . S
C609 H583 0.950 . S
C609 C608 1.414 . S
C609 C610 1.374 . S
C610 H584 0.950 . S
C610 C606 1.385 . S
C610 C609 1.374 . S
C611 C608 1.499 . S
C611 C612 1.373 . S
C611 C613 1.389 . S
C612 H585 0.950 . S
C612 C598 1.377 . S
C612 C611 1.373 . S
C613 C597 1.377 1_545 S
C613 C611 1.389 . S
C613 C614 1.524 . S
C614 C613 1.524 . S
C614 C615 1.397 . S
C614 C619 1.363 . S
C615 H586 0.950 . S
C615 C614 1.397 . S
C615 C616 1.334 . S
C616 H587 0.950 . S
C616 C615 1.334 . S
C616 C617 1.286 . S
C617 C616 1.286 . S
C617 C618 1.526 . S
C617 H620 1.000 1_545 S
C618 H588 0.950 . S
C618 C617 1.526 . S
C618 C619 1.415 . S
C619 H589 0.950 . S
C619 C614 1.363 . S
C619 C618 1.415 . S
H620 C617 1.000 1_565 S
H621 C602 0.913 . S
H622 C640 0.951 . S
H623 C642 0.951 . S
H624 C644 0.950 . S
H625 C645 0.950 . S
H626 C647 0.950 . S
H627 C650 0.950 . S
H628 C651 0.950 . S
H629 C653 0.950 . S
H630 C654 0.950 . S
H631 C655 0.951 . S
H632 C657 0.951 . S
H633 C659 0.950 . S
H634 C660 0.950 . S
H635 C662 0.950 . S
H636 C665 0.950 . S
H637 C666 0.950 . S
H638 C668 0.950 . S
H639 C669 0.950 . S
C640 H622 0.951 . S
C640 C641 1.366 . S
C640 C642 1.388 . S
C641 C640 1.366 . S
C641 C645 1.385 . S
C642 H623 0.951 . S
C642 C640 1.388 . S
C642 C643 1.366 . S
C643 C642 1.366 . S
C643 C644 1.414 . S
C643 C646 1.499 . S
C644 H624 0.950 . S
C644 C643 1.414 . S
C644 C645 1.374 . S
C645 H625 0.950 . S
C645 C641 1.385 . S
C645 C644 1.374 . S
C646 C643 1.499 . S
C646 C647 1.373 . S
C646 C648 1.389 . S
C647 H626 0.950 . S
C647 C646 1.373 . S
C647 C663 1.377 . S
C648 C646 1.389 . S
C648 C649 1.524 . S
C648 C662 1.377 . S
C649 C648 1.524 . S
C649 C650 1.397 . S
C649 C654 1.363 . S
C650 H627 0.950 . S
C650 C649 1.397 . S
C650 C651 1.334 . S
C651 H628 0.950 . S
C651 C650 1.334 . S
C651 C652 1.287 . S
C652 C651 1.287 . S
C652 C653 1.524 . S
C652 H671 0.913 . S
C653 H629 0.950 . S
C653 C652 1.524 . S
C653 C654 1.415 . S
C654 H630 0.950 . S
C654 C649 1.363 . S
C654 C653 1.415 . S
C655 H631 0.951 . S
C655 C656 1.366 . S
C655 C657 1.388 . S
C656 C655 1.366 . S
C656 C660 1.385 . S
C657 H632 0.951 . S
C657 C655 1.388 . S
C657 C658 1.366 . S
C658 C657 1.366 . S
C658 C659 1.414 . S
C658 C661 1.499 . S
C659 H633 0.950 . S
C659 C658 1.414 . S
C659 C660 1.374 . S
C660 H634 0.950 . S
C660 C656 1.385 . S
C660 C659 1.374 . S
C661 C658 1.499 . S
C661 C662 1.373 . S
C661 C663 1.389 . S
C662 H635 0.950 . S
C662 C648 1.377 . S
C662 C661 1.373 . S
C663 C647 1.377 . S
C663 C661 1.389 . S
C663 C664 1.524 . S
C664 C663 1.524 . S
C664 C665 1.397 . S
C664 C669 1.363 . S
C665 H636 0.950 . S
C665 C664 1.397 . S
C665 C666 1.334 . S
C666 H637 0.950 . S
C666 C665 1.334 . S
C666 C667 1.287 . S
C667 C666 1.287 . S
C667 C668 1.524 . S
C667 H670 0.999 . S
C668 H638 0.950 . S
C668 C667 1.524 . S
C668 C669 1.415 . S
C669 H639 0.950 . S
C669 C664 1.363 . S
C669 C668 1.415 . S
H670 C667 0.999 . S
H671 C652 0.913 . S
H672 C690 0.951 . S
H673 C692 0.951 . S
H674 C694 0.950 . S
H675 C695 0.950 . S
H676 C697 0.950 . S
H677 C700 0.950 . S
H678 C701 0.950 . S
H679 C703 0.950 . S
H680 C704 0.950 . S
H681 C705 0.951 . S
H682 C707 0.951 . S
H683 C709 0.950 . S
H684 C710 0.950 . S
H685 C712 0.950 . S
H686 C715 0.950 . S
H687 C716 0.950 . S
H688 C718 0.950 . S
H689 C719 0.950 . S
C690 H672 0.951 . S
C690 C691 1.366 . S
C690 C692 1.388 . S
C691 C690 1.366 . S
C691 C695 1.385 . S
C692 H673 0.951 . S
C692 C690 1.388 . S
C692 C693 1.366 . S
C693 C692 1.366 . S
C693 C694 1.414 . S
C693 C696 1.499 . S
C694 H674 0.950 . S
C694 C693 1.414 . S
C694 C695 1.374 . S
C695 H675 0.950 . S
C695 C691 1.385 . S
C695 C694 1.374 . S
C696 C693 1.499 . S
C696 C697 1.373 . S
C696 C698 1.389 . S
C697 H676 0.950 . S
C697 C696 1.373 . S
C697 C713 1.377 . S
C698 C696 1.389 . S
C698 C699 1.524 . S
C698 C712 1.377 . S
C699 C698 1.524 . S
C699 C700 1.397 . S
C699 C704 1.363 . S
C700 H677 0.950 . S
C700 C699 1.397 . S
C700 C701 1.334 . S
C701 H678 0.950 . S
C701 C700 1.334 . S
C701 C702 1.287 . S
C702 C701 1.287 . S
C702 C703 1.524 . S
C702 H721 0.913 . S
C703 H679 0.950 . S
C703 C702 1.524 . S
C703 C704 1.415 . S
C704 H680 0.950 . S
C704 C699 1.363 . S
C704 C703 1.415 . S
C705 H681 0.951 . S
C705 C706 1.366 . S
C705 C707 1.388 . S
C706 C705 1.366 . S
C706 C710 1.385 . S
C707 H682 0.951 . S
C707 C705 1.388 . S
C707 C708 1.366 . S
C708 C707 1.366 . S
C708 C709 1.414 . S
C708 C711 1.499 . S
C709 H683 0.950 . S
C709 C708 1.414 . S
C709 C710 1.374 . S
C710 H684 0.950 . S
C710 C706 1.385 . S
C710 C709 1.374 . S
C711 C708 1.499 . S
C711 C712 1.373 . S
C711 C713 1.389 . S
C712 H685 0.950 . S
C712 C698 1.377 . S
C712 C711 1.373 . S
C713 C697 1.377 . S
C713 C711 1.389 . S
C713 C714 1.524 . S
C714 C713 1.524 . S
C714 C715 1.397 . S
C714 C719 1.363 . S
C715 H686 0.950 . S
C715 C714 1.397 . S
C715 C716 1.334 . S
C716 H687 0.950 . S
C716 C715 1.334 . S
C716 C717 1.287 . S
C717 C716 1.287 . S
C717 C718 1.524 . S
C717 H720 0.999 . S
C718 H688 0.950 . S
C718 C717 1.524 . S
C718 C719 1.415 . S
C719 H689 0.950 . S
C719 C714 1.363 . S
C719 C718 1.415 . S
H720 C717 0.999 . S
H721 C702 0.913 . S
H722 C740 0.951 . S
H723 C742 0.951 . S
H724 C744 0.950 . S
H725 C745 0.950 . S
H726 C747 0.950 . S
H727 C750 0.950 . S
H728 C751 0.950 . S
H729 C753 0.950 . S
H730 C754 0.950 . S
H731 C755 0.951 . S
H732 C757 0.951 . S
H733 C759 0.950 . S
H734 C760 0.950 . S
H735 C762 0.950 . S
H736 C765 0.950 . S
H737 C766 0.950 . S
H738 C768 0.950 . S
H739 C769 0.950 . S
C740 H722 0.951 . S
C740 C741 1.366 . S
C740 C742 1.388 . S
C741 C740 1.366 . S
C741 C745 1.385 . S
C742 H723 0.951 . S
C742 C740 1.388 . S
C742 C743 1.366 . S
C743 C742 1.366 . S
C743 C744 1.414 . S
C743 C746 1.499 . S
C744 H724 0.950 . S
C744 C743 1.414 . S
C744 C745 1.374 . S
C745 H725 0.950 . S
C745 C741 1.385 . S
C745 C744 1.374 . S
C746 C743 1.499 . S
C746 C747 1.373 . S
C746 C748 1.389 . S
C747 H726 0.950 . S
C747 C746 1.373 . S
C747 C763 1.377 . S
C748 C746 1.389 . S
C748 C749 1.524 . S
C748 C762 1.377 . S
C749 C748 1.524 . S
C749 C750 1.397 . S
C749 C754 1.363 . S
C750 H727 0.950 . S
C750 C749 1.397 . S
C750 C751 1.334 . S
C751 H728 0.950 . S
C751 C750 1.334 . S
C751 C752 1.287 . S
C752 C751 1.287 . S
C752 C753 1.524 . S
C752 H771 0.913 . S
C753 H729 0.950 . S
C753 C752 1.524 . S
C753 C754 1.415 . S
C754 H730 0.950 . S
C754 C749 1.363 . S
C754 C753 1.415 . S
C755 H731 0.951 . S
C755 C756 1.366 . S
C755 C757 1.388 . S
C756 C755 1.366 . S
C756 C760 1.385 . S
C757 H732 0.951 . S
C757 C755 1.388 . S
C757 C758 1.366 . S
C758 C757 1.366 . S
C758 C759 1.414 . S
C758 C761 1.499 . S
C759 H733 0.950 . S
C759 C758 1.414 . S
C759 C760 1.374 . S
C760 H734 0.950 . S
C760 C756 1.385 . S
C760 C759 1.374 . S
C761 C758 1.499 . S
C761 C762 1.373 . S
C761 C763 1.389 . S
C762 H735 0.950 . S
C762 C748 1.377 . S
C762 C761 1.373 . S
C763 C747 1.377 . S
C763 C761 1.389 . S
C763 C764 1.524 . S
C764 C763 1.524 . S
C764 C765 1.397 . S
C764 C769 1.363 . S
C765 H736 0.950 . S
C765 C764 1.397 . S
C765 C766 1.334 . S
C766 H737 0.950 . S
C766 C765 1.334 . S
C766 C767 1.287 . S
C767 C766 1.287 . S
C767 C768 1.524 . S
C767 H770 0.999 . S
C768 H738 0.950 . S
C768 C767 1.524 . S
C768 C769 1.415 . S
C769 H739 0.950 . S
C769 C764 1.363 . S
C769 C768 1.415 . S
H770 C767 0.999 . S
H771 C752 0.913 . S
H772 C790 0.951 . S
H773 C792 0.951 . S
H774 C794 0.950 . S
H775 C795 0.950 . S
H776 C797 0.950 . S
H777 C800 0.950 . S
H778 C801 0.950 . S
H779 C803 0.950 . S
H780 C804 0.950 . S
H781 C805 0.951 . S
H782 C807 0.951 . S
H783 C809 0.950 . S
H784 C810 0.950 . S
H785 C812 0.950 . S
H786 C815 0.950 . S
H787 C816 0.950 . S
H788 C818 0.950 . S
H789 C819 0.950 . S
C790 H772 0.951 . S
C790 C791 1.366 . S
C790 C792 1.388 . S
C791 C790 1.366 . S
C791 C795 1.385 . S
C792 H773 0.951 . S
C792 C790 1.388 . S
C792 C793 1.366 . S
C793 C792 1.366 . S
C793 C794 1.414 . S
C793 C796 1.499 . S
C794 H774 0.950 . S
C794 C793 1.414 . S
C794 C795 1.374 . S
C795 H775 0.950 . S
C795 C791 1.385 . S
C795 C794 1.374 . S
C796 C793 1.499 . S
C796 C797 1.373 . S
C796 C798 1.389 . S
C797 H776 0.950 . S
C797 C796 1.373 . S
C797 C813 1.377 . S
C798 C796 1.389 . S
C798 C799 1.524 . S
C798 C812 1.377 . S
C799 C798 1.524 . S
C799 C800 1.397 . S
C799 C804 1.363 . S
C800 H777 0.950 . S
C800 C799 1.397 . S
C800 C801 1.334 . S
C801 H778 0.950 . S
C801 C800 1.334 . S
C801 C802 1.287 . S
C802 C801 1.287 . S
C802 C803 1.524 . S
C802 H821 0.913 . S
C803 H779 0.950 . S
C803 C802 1.524 . S
C803 C804 1.415 . S
C804 H780 0.950 . S
C804 C799 1.363 . S
C804 C803 1.415 . S
C805 H781 0.951 . S
C805 C806 1.366 . S
C805 C807 1.388 . S
C806 C805 1.366 . S
C806 C810 1.385 . S
C807 H782 0.951 . S
C807 C805 1.388 . S
C807 C808 1.366 . S
C808 C807 1.366 . S
C808 C809 1.414 . S
C808 C811 1.499 . S
C809 H783 0.950 . S
C809 C808 1.414 . S
C809 C810 1.374 . S
C810 H784 0.950 . S
C810 C806 1.385 . S
C810 C809 1.374 . S
C811 C808 1.499 . S
C811 C812 1.373 . S
C811 C813 1.389 . S
C812 H785 0.950 . S
C812 C798 1.377 . S
C812 C811 1.373 . S
C813 C797 1.377 . S
C813 C811 1.389 . S
C813 C814 1.524 . S
C814 C813 1.524 . S
C814 C815 1.397 . S
C814 C819 1.363 . S
C815 H786 0.950 . S
C815 C814 1.397 . S
C815 C816 1.334 . S
C816 H787 0.950 . S
C816 C815 1.334 . S
C816 C817 1.287 . S
C817 C816 1.287 . S
C817 C818 1.524 . S
C817 H820 0.999 . S
C818 H788 0.950 . S
C818 C817 1.524 . S
C818 C819 1.415 . S
C819 H789 0.950 . S
C819 C814 1.363 . S
C819 C818 1.415 . S
H820 C817 0.999 . S
H821 C802 0.913 . S
H822 C840 0.951 . S
H823 C842 0.951 . S
H824 C844 0.950 . S
H825 C845 0.950 . S
H826 C847 0.950 . S
H827 C850 0.950 . S
H828 C851 0.950 . S
H829 C853 0.950 . S
H830 C854 0.950 . S
H831 C855 0.951 . S
H832 C857 0.951 . S
H833 C859 0.950 . S
H834 C860 0.950 . S
H835 C862 0.950 . S
H836 C865 0.950 . S
H837 C866 0.950 . S
H838 C868 0.950 . S
H839 C869 0.950 . S
C840 H822 0.951 . S
C840 C841 1.366 . S
C840 C842 1.388 . S
C841 C840 1.366 . S
C841 C845 1.385 . S
C842 H823 0.951 . S
C842 C840 1.388 . S
C842 C843 1.366 . S
C843 C842 1.366 . S
C843 C844 1.414 . S
C843 C846 1.499 . S
C844 H824 0.950 . S
C844 C843 1.414 . S
C844 C845 1.374 . S
C845 H825 0.950 . S
C845 C841 1.385 . S
C845 C844 1.374 . S
C846 C843 1.499 . S
C846 C847 1.373 . S
C846 C848 1.389 . S
C847 H826 0.950 . S
C847 C846 1.373 . S
C847 C863 1.377 . S
C848 C846 1.389 . S
C848 C849 1.524 . S
C848 C862 1.377 . S
C849 C848 1.524 . S
C849 C850 1.397 . S
C849 C854 1.363 . S
C850 H827 0.950 . S
C850 C849 1.397 . S
C850 C851 1.334 . S
C851 H828 0.950 . S
C851 C850 1.334 . S
C851 C852 1.287 . S
C852 C851 1.287 . S
C852 C853 1.524 . S
C852 H871 0.913 . S
C853 H829 0.950 . S
C853 C852 1.524 . S
C853 C854 1.415 . S
C854 H830 0.950 . S
C854 C849 1.363 . S
C854 C853 1.415 . S
C855 H831 0.951 . S
C855 C856 1.366 . S
C855 C857 1.388 . S
C856 C855 1.366 . S
C856 C860 1.385 . S
C857 H832 0.951 . S
C857 C855 1.388 . S
C857 C858 1.366 . S
C858 C857 1.366 . S
C858 C859 1.414 . S
C858 C861 1.499 . S
C859 H833 0.950 . S
C859 C858 1.414 . S
C859 C860 1.374 . S
C860 H834 0.950 . S
C860 C856 1.385 . S
C860 C859 1.374 . S
C861 C858 1.499 . S
C861 C862 1.373 . S
C861 C863 1.389 . S
C862 H835 0.950 . S
C862 C848 1.377 . S
C862 C861 1.373 . S
C863 C847 1.377 . S
C863 C861 1.389 . S
C863 C864 1.524 . S
C864 C863 1.524 . S
C864 C865 1.397 . S
C864 C869 1.363 . S
C865 H836 0.950 . S
C865 C864 1.397 . S
C865 C866 1.334 . S
C866 H837 0.950 . S
C866 C865 1.334 . S
C866 C867 1.287 . S
C867 C866 1.287 . S
C867 C868 1.524 . S
C867 H870 0.999 . S
C868 H838 0.950 . S
C868 C867 1.524 . S
C868 C869 1.415 . S
C869 H839 0.950 . S
C869 C864 1.363 . S
C869 C868 1.415 . S
H870 C867 0.999 . S
H871 C852 0.913 . S
H872 C890 0.951 . S
H873 C892 0.951 . S
H874 C894 0.950 . S
H875 C895 0.950 . S
H876 C897 0.950 . S
H877 C900 0.950 . S
H878 C901 0.950 . S
H879 C903 0.950 . S
H880 C904 0.950 . S
H881 C905 0.951 . S
H882 C907 0.951 . S
H883 C909 0.950 . S
H884 C910 0.950 . S
H885 C912 0.950 . S
H886 C915 0.950 . S
H887 C916 0.950 . S
H888 C918 0.950 . S
H889 C919 0.950 . S
C890 H872 0.951 . S
C890 C891 1.366 . S
C890 C892 1.388 . S
C891 C890 1.366 . S
C891 C895 1.385 . S
C892 H873 0.951 . S
C892 C890 1.388 . S
C892 C893 1.366 . S
C893 C892 1.366 . S
C893 C894 1.414 . S
C893 C896 1.499 . S
C894 H874 0.950 . S
C894 C893 1.414 . S
C894 C895 1.374 . S
C895 H875 0.950 . S
C895 C891 1.385 . S
C895 C894 1.374 . S
C896 C893 1.499 . S
C896 C897 1.373 . S
C896 C898 1.389 . S
C897 H876 0.950 . S
C897 C896 1.373 . S
C897 C913 1.377 . S
C898 C896 1.389 . S
C898 C899 1.524 . S
C898 C912 1.377 . S
C899 C898 1.524 . S
C899 C900 1.397 . S
C899 C904 1.363 . S
C900 H877 0.950 . S
C900 C899 1.397 . S
C900 C901 1.334 . S
C901 H878 0.950 . S
C901 C900 1.334 . S
C901 C902 1.287 . S
C902 C901 1.287 . S
C902 C903 1.524 . S
C902 H921 0.913 . S
C903 H879 0.950 . S
C903 C902 1.524 . S
C903 C904 1.415 . S
C904 H880 0.950 . S
C904 C899 1.363 . S
C904 C903 1.415 . S
C905 H881 0.951 . S
C905 C906 1.366 . S
C905 C907 1.388 . S
C906 C905 1.366 . S
C906 C910 1.385 . S
C907 H882 0.951 . S
C907 C905 1.388 . S
C907 C908 1.366 . S
C908 C907 1.366 . S
C908 C909 1.414 . S
C908 C911 1.499 . S
C909 H883 0.950 . S
C909 C908 1.414 . S
C909 C910 1.374 . S
C910 H884 0.950 . S
C910 C906 1.385 . S
C910 C909 1.374 . S
C911 C908 1.499 . S
C911 C912 1.373 . S
C911 C913 1.389 . S
C912 H885 0.950 . S
C912 C898 1.377 . S
C912 C911 1.373 . S
C913 C897 1.377 . S
C913 C911 1.389 . S
C913 C914 1.524 . S
C914 C913 1.524 . S
C914 C915 1.397 . S
C914 C919 1.363 . S
C915 H886 0.950 . S
C915 C914 1.397 . S
C915 C916 1.334 . S
C916 H887 0.950 . S
C916 C915 1.334 . S
C916 C917 1.287 . S
C917 C916 1.287 . S
C917 C918 1.524 . S
C917 H920 0.999 . S
C918 H888 0.950 . S
C918 C917 1.524 . S
C918 C919 1.415 . S
C919 H889 0.950 . S
C919 C914 1.363 . S
C919 C918 1.415 . S
H920 C917 0.999 . S
H921 C902 0.913 . S
H922 C940 0.951 . S
H923 C942 0.951 . S
H924 C944 0.950 . S
H925 C945 0.950 . S
H926 C947 0.950 . S
H927 C950 0.950 . S
H928 C951 0.950 . S
H929 C953 0.950 . S
H930 C954 0.950 . S
H931 C955 0.951 . S
H932 C957 0.951 . S
H933 C959 0.950 . S
H934 C960 0.950 . S
H935 C962 0.950 . S
H936 C965 0.950 . S
H937 C966 0.950 . S
H938 C968 0.950 . S
H939 C969 0.950 . S
C940 H922 0.951 . S
C940 C941 1.366 . S
C940 C942 1.388 . S
C941 C940 1.366 . S
C941 C945 1.385 . S
C942 H923 0.951 . S
C942 C940 1.388 . S
C942 C943 1.366 . S
C943 C942 1.366 . S
C943 C944 1.414 . S
C943 C946 1.499 . S
C944 H924 0.950 . S
C944 C943 1.414 . S
C944 C945 1.374 . S
C945 H925 0.950 . S
C945 C941 1.385 . S
C945 C944 1.374 . S
C946 C943 1.499 . S
C946 C947 1.373 . S
C946 C948 1.389 . S
C947 H926 0.950 . S
C947 C946 1.373 . S
C947 C963 1.377 . S
C948 C946 1.389 . S
C948 C949 1.524 . S
C948 C962 1.377 . S
C949 C948 1.524 . S
C949 C950 1.397 . S
C949 C954 1.363 . S
C950 H927 0.950 . S
C950 C949 1.397 . S
C950 C951 1.334 . S
C951 H928 0.950 . S
C951 C950 1.334 . S
C951 C952 1.287 . S
C952 C951 1.287 . S
C952 C953 1.524 . S
C952 H971 0.913 . S
C953 H929 0.950 . S
C953 C952 1.524 . S
C953 C954 1.415 . S
C954 H930 0.950 . S
C954 C949 1.363 . S
C954 C953 1.415 . S
C955 H931 0.951 . S
C955 C956 1.366 . S
C955 C957 1.388 . S
C956 C955 1.366 . S
C956 C960 1.385 . S
C957 H932 0.951 . S
C957 C955 1.388 . S
C957 C958 1.366 . S
C958 C957 1.366 . S
C958 C959 1.414 . S
C958 C961 1.499 . S
C959 H933 0.950 . S
C959 C958 1.414 . S
C959 C960 1.374 . S
C960 H934 0.950 . S
C960 C956 1.385 . S
C960 C959 1.374 . S
C961 C958 1.499 . S
C961 C962 1.373 . S
C961 C963 1.389 . S
C962 H935 0.950 . S
C962 C948 1.377 . S
C962 C961 1.373 . S
C963 C947 1.377 . S
C963 C961 1.389 . S
C963 C964 1.524 . S
C964 C963 1.524 . S
C964 C965 1.397 . S
C964 C969 1.363 . S
C965 H936 0.950 . S
C965 C964 1.397 . S
C965 C966 1.334 . S
C966 H937 0.950 . S
C966 C965 1.334 . S
C966 C967 1.287 . S
C967 C966 1.287 . S
C967 C968 1.524 . S
C967 H970 0.999 . S
C968 H938 0.950 . S
C968 C967 1.524 . S
C968 C969 1.415 . S
C969 H939 0.950 . S
C969 C964 1.363 . S
C969 C968 1.415 . S
H970 C967 0.999 . S
H971 C952 0.913 . S
H972 C990 0.951 . S
H973 C992 0.951 . S
H974 C994 0.950 . S
H975 C995 0.950 . S
H976 C997 0.950 . S
H977 C1000 0.950 . S
H978 C1001 0.950 . S
H979 C1003 0.950 . S
H980 C1004 0.950 . S
H981 C1005 0.951 . S
H982 C1007 0.951 . S
H983 C1009 0.950 . S
H984 C1010 0.950 . S
H985 C1012 0.950 . S
H986 C1015 0.950 . S
H987 C1016 0.950 . S
H988 C1018 0.950 . S
H989 C1019 0.950 . S
C990 H972 0.951 . S
C990 C991 1.366 . S
C990 C992 1.388 . S
C991 C990 1.366 . S
C991 C995 1.385 . S
C992 H973 0.951 . S
C992 C990 1.388 . S
C992 C993 1.366 . S
C993 C992 1.366 . S
C993 C994 1.414 . S
C993 C996 1.499 . S
C994 H974 0.950 . S
C994 C993 1.414 . S
C994 C995 1.374 . S
C995 H975 0.950 . S
C995 C991 1.385 . S
C995 C994 1.374 . S
C996 C993 1.499 . S
C996 C997 1.373 . S
C996 C998 1.389 . S
C997 H976 0.950 . S
C997 C996 1.373 . S
C997 C1013 1.377 . S
C998 C996 1.389 . S
C998 C999 1.524 . S
C998 C1012 1.377 . S
C999 C998 1.524 . S
C999 C1000 1.397 . S
C999 C1004 1.363 . S
C1000 H977 0.950 . S
C1000 C999 1.397 . S
C1000 C1001 1.334 . S
C1001 H978 0.950 . S
C1001 C1000 1.334 . S
C1001 C1002 1.287 . S
C1002 C1001 1.287 . S
C1002 C1003 1.524 . S
C1002 H1021 0.913 . S
C1003 H979 0.950 . S
C1003 C1002 1.524 . S
C1003 C1004 1.415 . S
C1004 H980 0.950 . S
C1004 C999 1.363 . S
C1004 C1003 1.415 . S
C1005 H981 0.951 . S
C1005 C1006 1.366 . S
C1005 C1007 1.388 . S
C1006 C1005 1.366 . S
C1006 C1010 1.385 . S
C1007 H982 0.951 . S
C1007 C1005 1.388 . S
C1007 C1008 1.366 . S
C1008 C1007 1.366 . S
C1008 C1009 1.414 . S
C1008 C1011 1.499 . S
C1009 H983 0.950 . S
C1009 C1008 1.414 . S
C1009 C1010 1.374 . S
C1010 H984 0.950 . S
C1010 C1006 1.385 . S
C1010 C1009 1.374 . S
C1011 C1008 1.499 . S
C1011 C1012 1.373 . S
C1011 C1013 1.389 . S
C1012 H985 0.950 . S
C1012 C998 1.377 . S
C1012 C1011 1.373 . S
C1013 C997 1.377 . S
C1013 C1011 1.389 . S
C1013 C1014 1.524 . S
C1014 C1013 1.524 . S
C1014 C1015 1.397 . S
C1014 C1019 1.363 . S
C1015 H986 0.950 . S
C1015 C1014 1.397 . S
C1015 C1016 1.334 . S
C1016 H987 0.950 . S
C1016 C1015 1.334 . S
C1016 C1017 1.287 . S
C1017 C1016 1.287 . S
C1017 C1018 1.524 . S
C1017 H1020 0.999 . S
C1018 H988 0.950 . S
C1018 C1017 1.524 . S
C1018 C1019 1.415 . S
C1019 H989 0.950 . S
C1019 C1014 1.363 . S
C1019 C1018 1.415 . S
H1020 C1017 0.999 . S
H1021 C1002 0.913 . S
H1022 C1040 0.951 . S
H1023 C1042 0.951 . S
H1024 C1044 0.950 . S
H1025 C1045 0.950 . S
H1026 C1047 0.950 . S
H1027 C1050 0.950 . S
H1028 C1051 0.950 . S
H1029 C1053 0.950 . S
H1030 C1054 0.950 . S
H1031 C1055 0.951 . S
H1032 C1057 0.951 . S
H1033 C1059 0.950 . S
H1034 C1060 0.950 . S
H1035 C1062 0.950 . S
H1036 C1065 0.950 . S
H1037 C1066 0.950 . S
H1038 C1068 0.950 . S
H1039 C1069 0.950 . S
C1040 H1022 0.951 . S
C1040 C1041 1.366 . S
C1040 C1042 1.388 . S
C1041 C1040 1.366 . S
C1041 C1045 1.385 . S
C1042 H1023 0.951 . S
C1042 C1040 1.388 . S
C1042 C1043 1.366 . S
C1043 C1042 1.366 . S
C1043 C1044 1.414 . S
C1043 C1046 1.499 . S
C1044 H1024 0.950 . S
C1044 C1043 1.414 . S
C1044 C1045 1.374 . S
C1045 H1025 0.950 . S
C1045 C1041 1.385 . S
C1045 C1044 1.374 . S
C1046 C1043 1.499 . S
C1046 C1047 1.373 . S
C1046 C1048 1.389 . S
C1047 H1026 0.950 . S
C1047 C1046 1.373 . S
C1047 C1063 1.377 . S
C1048 C1046 1.389 . S
C1048 C1049 1.524 . S
C1048 C1062 1.377 . S
C1049 C1048 1.524 . S
C1049 C1050 1.397 . S
C1049 C1054 1.363 . S
C1050 H1027 0.950 . S
C1050 C1049 1.397 . S
C1050 C1051 1.334 . S
C1051 H1028 0.950 . S
C1051 C1050 1.334 . S
C1051 C1052 1.287 . S
C1052 C1051 1.287 . S
C1052 C1053 1.524 . S
C1052 H1071 0.913 . S
C1053 H1029 0.950 . S
C1053 C1052 1.524 . S
C1053 C1054 1.415 . S
C1054 H1030 0.950 . S
C1054 C1049 1.363 . S
C1054 C1053 1.415 . S
C1055 H1031 0.951 . S
C1055 C1056 1.366 . S
C1055 C1057 1.388 . S
C1056 C1055 1.366 . S
C1056 C1060 1.385 . S
C1057 H1032 0.951 . S
C1057 C1055 1.388 . S
C1057 C1058 1.366 . S
C1058 C1057 1.366 . S
C1058 C1059 1.414 . S
C1058 C1061 1.499 . S
C1059 H1033 0.950 . S
C1059 C1058 1.414 . S
C1059 C1060 1.374 . S
C1060 H1034 0.950 . S
C1060 C1056 1.385 . S
C1060 C1059 1.374 . S
C1061 C1058 1.499 . S
C1061 C1062 1.373 . S
C1061 C1063 1.389 . S
C1062 H1035 0.950 . S
C1062 C1048 1.377 . S
C1062 C1061 1.373 . S
C1063 C1047 1.377 . S
C1063 C1061 1.389 . S
C1063 C1064 1.524 . S
C1064 C1063 1.524 . S
C1064 C1065 1.397 . S
C1064 C1069 1.363 . S
C1065 H1036 0.950 . S
C1065 C1064 1.397 . S
C1065 C1066 1.334 . S
C1066 H1037 0.950 . S
C1066 C1065 1.334 . S
C1066 C1067 1.287 . S
C1067 C1066 1.287 . S
C1067 C1068 1.524 . S
C1067 H1070 0.999 . S
C1068 H1038 0.950 . S
C1068 C1067 1.524 . S
C1068 C1069 1.415 . S
C1069 H1039 0.950 . S
C1069 C1064 1.363 . S
C1069 C1068 1.415 . S
H1070 C1067 0.999 . S
H1071 C1052 0.913 . S
H1072 C1090 0.951 . S
H1073 C1092 0.951 . S
H1074 C1094 0.950 . S
H1075 C1095 0.950 . S
H1076 C1097 0.950 . S
H1077 C1100 0.950 . S
H1078 C1101 0.950 . S
H1079 C1103 0.950 . S
H1080 C1104 0.950 . S
H1081 C1105 0.951 . S
H1082 C1107 0.951 . S
H1083 C1109 0.950 . S
H1084 C1110 0.950 . S
H1085 C1112 0.950 . S
H1086 C1115 0.950 . S
H1087 C1116 0.950 . S
H1088 C1118 0.950 . S
H1089 C1119 0.950 . S
C1090 H1072 0.951 . S
C1090 C1091 1.366 . S
C1090 C1092 1.388 . S
C1091 C1090 1.366 . S
C1091 C1095 1.385 . S
C1092 H1073 0.951 . S
C1092 C1090 1.388 . S
C1092 C1093 1.366 . S
C1093 C1092 1.366 . S
C1093 C1094 1.414 . S
C1093 C1096 1.499 . S
C1094 H1074 0.950 . S
C1094 C1093 1.414 . S
C1094 C1095 1.374 . S
C1095 H1075 0.950 . S
C1095 C1091 1.385 . S
C1095 C1094 1.374 . S
C1096 C1093 1.499 . S
C1096 C1097 1.373 . S
C1096 C1098 1.389 . S
C1097 H1076 0.950 . S
C1097 C1096 1.373 . S
C1097 C1113 1.377 . S
C1098 C1096 1.389 . S
C1098 C1099 1.524 . S
C1098 C1112 1.377 . S
C1099 C1098 1.524 . S
C1099 C1100 1.397 . S
C1099 C1104 1.363 . S
C1100 H1077 0.950 . S
C1100 C1099 1.397 . S
C1100 C1101 1.334 . S
C1101 H1078 0.950 . S
C1101 C1100 1.334 . S
C1101 C1102 1.287 . S
C1102 C1101 1.287 . S
C1102 C1103 1.524 . S
C1102 H1121 0.913 . S
C1103 H1079 0.950 . S
C1103 C1102 1.524 . S
C1103 C1104 1.415 . S
C1104 H1080 0.950 . S
C1104 C1099 1.363 . S
C1104 C1103 1.415 . S
C1105 H1081 0.951 . S
C1105 C1106 1.366 . S
C1105 C1107 1.388 . S
C1106 C1105 1.366 . S
C1106 C1110 1.385 . S
C1107 H1082 0.951 . S
C1107 C1105 1.388 . S
C1107 C1108 1.366 . S
C1108 C1107 1.366 . S
C1108 C1109 1.414 . S
C1108 C1111 1.499 . S
C1109 H1083 0.950 . S
C1109 C1108 1.414 . S
C1109 C1110 1.374 . S
C1110 H1084 0.950 . S
C1110 C1106 1.385 . S
C1110 C1109 1.374 . S
C1111 C1108 1.499 . S
C1111 C1112 1.373 . S
C1111 C1113 1.389 . S
C1112 H1085 0.950 . S
C1112 C1098 1.377 . S
C1112 C1111 1.373 . S
C1113 C1097 1.377 . S
C1113 C1111 1.389 . S
C1113 C1114 1.524 . S
C1114 C1113 1.524 . S
C1114 C1115 1.397 . S
C1114 C1119 1.363 . S
C1115 H1086 0.950 . S
C1115 C1114 1.397 . S
C1115 C1116 1.334 . S
C1116 H1087 0.950 . S
C1116 C1115 1.334 . S
C1116 C1117 1.287 . S
C1117 C1116 1.287 . S
C1117 C1118 1.524 . S
C1117 H1120 0.999 . S
C1118 H1088 0.950 . S
C1118 C1117 1.524 . S
C1118 C1119 1.415 . S
C1119 H1089 0.950 . S
C1119 C1114 1.363 . S
C1119 C1118 1.415 . S
H1120 C1117 0.999 . S
H1121 C1102 0.913 . S
H1122 C1140 0.951 . S
H1123 C1142 0.951 . S
H1124 C1144 0.950 . S
H1125 C1145 0.950 . S
H1126 C1147 0.950 . S
H1127 C1150 0.950 . S
H1128 C1151 0.950 . S
H1129 C1153 0.950 . S
H1130 C1154 0.950 . S
H1131 C1155 0.951 . S
H1132 C1157 0.951 . S
H1133 C1159 0.950 . S
H1134 C1160 0.950 . S
H1135 C1162 0.950 . S
H1136 C1165 0.950 . S
H1137 C1166 0.950 . S
H1138 C1168 0.950 . S
H1139 C1169 0.950 . S
C1140 H1122 0.951 . S
C1140 C1141 1.366 . S
C1140 C1142 1.388 . S
C1141 C1140 1.366 . S
C1141 C1145 1.385 . S
C1142 H1123 0.951 . S
C1142 C1140 1.388 . S
C1142 C1143 1.366 . S
C1143 C1142 1.366 . S
C1143 C1144 1.414 . S
C1143 C1146 1.499 . S
C1144 H1124 0.950 . S
C1144 C1143 1.414 . S
C1144 C1145 1.374 . S
C1145 H1125 0.950 . S
C1145 C1141 1.385 . S
C1145 C1144 1.374 . S
C1146 C1143 1.499 . S
C1146 C1147 1.373 . S
C1146 C1148 1.389 . S
C1147 H1126 0.950 . S
C1147 C1146 1.373 . S
C1147 C1163 1.377 . S
C1148 C1146 1.389 . S
C1148 C1149 1.524 . S
C1148 C1162 1.377 . S
C1149 C1148 1.524 . S
C1149 C1150 1.397 . S
C1149 C1154 1.363 . S
C1150 H1127 0.950 . S
C1150 C1149 1.397 . S
C1150 C1151 1.334 . S
C1151 H1128 0.950 . S
C1151 C1150 1.334 . S
C1151 C1152 1.287 . S
C1152 C1151 1.287 . S
C1152 C1153 1.524 . S
C1152 H1171 0.913 . S
C1153 H1129 0.950 . S
C1153 C1152 1.524 . S
C1153 C1154 1.415 . S
C1154 H1130 0.950 . S
C1154 C1149 1.363 . S
C1154 C1153 1.415 . S
C1155 H1131 0.951 . S
C1155 C1156 1.366 . S
C1155 C1157 1.388 . S
C1156 C1155 1.366 . S
C1156 C1160 1.385 . S
C1157 H1132 0.951 . S
C1157 C1155 1.388 . S
C1157 C1158 1.366 . S
C1158 C1157 1.366 . S
C1158 C1159 1.414 . S
C1158 C1161 1.499 . S
C1159 H1133 0.950 . S
C1159 C1158 1.414 . S
C1159 C1160 1.374 . S
C1160 H1134 0.950 . S
C1160 C1156 1.385 . S
C1160 C1159 1.374 . S
C1161 C1158 1.499 . S
C1161 C1162 1.373 . S
C1161 C1163 1.389 . S
C1162 H1135 0.950 . S
C1162 C1148 1.377 . S
C1162 C1161 1.373 . S
C1163 C1147 1.377 . S
C1163 C1161 1.389 . S
C1163 C1164 1.524 . S
C1164 C1163 1.524 . S
C1164 C1165 1.397 . S
C1164 C1169 1.363 . S
C1165 H1136 0.950 . S
C1165 C1164 1.397 . S
C1165 C1166 1.334 . S
C1166 H1137 0.950 . S
C1166 C1165 1.334 . S
C1166 C1167 1.287 . S
C1167 C1166 1.287 . S
C1167 C1168 1.524 . S
C1167 H1170 0.999 . S
C1168 H1138 0.950 . S
C1168 C1167 1.524 . S
C1168 C1169 1.415 . S
C1169 H1139 0.950 . S
C1169 C1164 1.363 . S
C1169 C1168 1.415 . S
H1170 C1167 0.999 . S
H1171 C1152 0.913 . S
H1172 C1190 0.951 . S
H1173 C1192 0.951 . S
H1174 C1194 0.950 . S
H1175 C1195 0.950 . S
H1176 C1197 0.950 . S
H1177 C1200 0.950 . S
H1178 C1201 0.950 . S
H1179 C1203 0.950 . S
H1180 C1204 0.950 . S
H1181 C1205 0.951 . S
H1182 C1207 0.951 . S
H1183 C1209 0.950 . S
H1184 C1210 0.950 . S
H1185 C1212 0.950 . S
H1186 C1215 0.950 . S
H1187 C1216 0.950 . S
H1188 C1218 0.950 . S
H1189 C1219 0.950 . S
C1190 H1172 0.951 . S
C1190 C1191 1.366 . S
C1190 C1192 1.388 . S
C1191 C1190 1.366 . S
C1191 C1195 1.385 . S
C1192 H1173 0.951 . S
C1192 C1190 1.388 . S
C1192 C1193 1.366 . S
C1193 C1192 1.366 . S
C1193 C1194 1.414 . S
C1193 C1196 1.499 . S
C1194 H1174 0.950 . S
C1194 C1193 1.414 . S
C1194 C1195 1.374 . S
C1195 H1175 0.950 . S
C1195 C1191 1.385 . S
C1195 C1194 1.374 . S
C1196 C1193 1.499 . S
C1196 C1197 1.373 . S
C1196 C1198 1.389 . S
C1197 H1176 0.950 . S
C1197 C1196 1.373 . S
C1197 C1213 1.377 . S
C1198 C1196 1.389 . S
C1198 C1199 1.524 . S
C1198 C1212 1.377 . S
C1199 C1198 1.524 . S
C1199 C1200 1.397 . S
C1199 C1204 1.363 . S
C1200 H1177 0.950 . S
C1200 C1199 1.397 . S
C1200 C1201 1.334 . S
C1201 H1178 0.950 . S
C1201 C1200 1.334 . S
C1201 C1202 1.287 . S
C1202 C1201 1.287 . S
C1202 C1203 1.524 . S
C1202 H1221 0.913 . S
C1203 H1179 0.950 . S
C1203 C1202 1.524 . S
C1203 C1204 1.415 . S
C1204 H1180 0.950 . S
C1204 C1199 1.363 . S
C1204 C1203 1.415 . S
C1205 H1181 0.951 . S
C1205 C1206 1.366 . S
C1205 C1207 1.388 . S
C1206 C1205 1.366 . S
C1206 C1210 1.385 . S
C1207 H1182 0.951 . S
C1207 C1205 1.388 . S
C1207 C1208 1.366 . S
C1208 C1207 1.366 . S
C1208 C1209 1.414 . S
C1208 C1211 1.499 . S
C1209 H1183 0.950 . S
C1209 C1208 1.414 . S
C1209 C1210 1.374 . S
C1210 H1184 0.950 . S
C1210 C1206 1.385 . S
C1210 C1209 1.374 . S
C1211 C1208 1.499 . S
C1211 C1212 1.373 . S
C1211 C1213 1.389 . S
C1212 H1185 0.950 . S
C1212 C1198 1.377 . S
C1212 C1211 1.373 . S
C1213 C1197 1.377 . S
C1213 C1211 1.389 . S
C1213 C1214 1.524 . S
C1214 C1213 1.524 . S
C1214 C1215 1.397 . S
C1214 C1219 1.363 . S
C1215 H1186 0.950 . S
C1215 C1214 1.397 . S
C1215 C1216 1.334 . S
C1216 H1187 0.950 . S
C1216 C1215 1.334 . S
C1216 C1217 1.287 . S
C1217 C1216 1.287 . S
C1217 C1218 1.524 . S
C1217 H1220 0.999 . S
C1218 H1188 0.950 . S
C1218 C1217 1.524 . S
C1218 C1219 1.415 . S
C1219 H1189 0.950 . S
C1219 C1214 1.363 . S
C1219 C1218 1.415 . S
H1220 C1217 0.999 . S
H1221 C1202 0.913 . S
H1222 C1240 0.951 . S
H1223 C1242 0.951 . S
H1224 C1244 0.950 . S
H1225 C1245 0.950 . S
H1226 C1247 0.950 . S
H1227 C1250 0.950 . S
H1228 C1251 0.950 . S
H1229 C1253 0.950 . S
H1230 C1254 0.950 . S
H1231 C1255 0.951 . S
H1232 C1257 0.951 . S
H1233 C1259 0.950 . S
H1234 C1260 0.950 . S
H1235 C1262 0.950 . S
H1236 C1265 0.950 . S
H1237 C1266 0.950 . S
H1238 C1268 0.950 . S
H1239 C1269 0.950 . S
C1240 H1222 0.951 . S
C1240 C1241 1.366 . S
C1240 C1242 1.388 . S
C1241 C1240 1.366 . S
C1241 C1245 1.385 . S
C1242 H1223 0.951 . S
C1242 C1240 1.388 . S
C1242 C1243 1.366 . S
C1243 C1242 1.366 . S
C1243 C1244 1.414 . S
C1243 C1246 1.499 . S
C1244 H1224 0.950 . S
C1244 C1243 1.414 . S
C1244 C1245 1.374 . S
C1245 H1225 0.950 . S
C1245 C1241 1.385 . S
C1245 C1244 1.374 . S
C1246 C1243 1.499 . S
C1246 C1247 1.373 . S
C1246 C1248 1.389 . S
C1247 H1226 0.950 . S
C1247 C1246 1.373 . S
C1247 C1263 1.377 . S
C1248 C1246 1.389 . S
C1248 C1249 1.524 . S
C1248 C1262 1.377 . S
C1249 C1248 1.524 . S
C1249 C1250 1.397 . S
C1249 C1254 1.363 . S
C1250 H1227 0.950 . S
C1250 C1249 1.397 . S
C1250 C1251 1.334 . S
C1251 H1228 0.950 . S
C1251 C1250 1.334 . S
C1251 C1252 1.287 . S
C1252 C1251 1.287 . S
C1252 C1253 1.524 . S
C1252 H1271 0.913 . S
C1253 H1229 0.950 . S
C1253 C1252 1.524 . S
C1253 C1254 1.415 . S
C1254 H1230 0.950 . S
C1254 C1249 1.363 . S
C1254 C1253 1.415 . S
C1255 H1231 0.951 . S
C1255 C1256 1.366 . S
C1255 C1257 1.388 . S
C1256 C1255 1.366 . S
C1256 C1260 1.385 . S
C1257 H1232 0.951 . S
C1257 C1255 1.388 . S
C1257 C1258 1.366 . S
C1258 C1257 1.366 . S
C1258 C1259 1.414 . S
C1258 C1261 1.499 . S
C1259 H1233 0.950 . S
C1259 C1258 1.414 . S
C1259 C1260 1.374 . S
C1260 H1234 0.950 . S
C1260 C1256 1.385 . S
C1260 C1259 1.374 . S
C1261 C1258 1.499 . S
C1261 C1262 1.373 . S
C1261 C1263 1.389 . S
C1262 H1235 0.950 . S
C1262 C1248 1.377 . S
C1262 C1261 1.373 . S
C1263 C1247 1.377 . S
C1263 C1261 1.389 . S
C1263 C1264 1.524 . S
C1264 C1263 1.524 . S
C1264 C1265 1.397 . S
C1264 C1269 1.363 . S
C1265 H1236 0.950 . S
C1265 C1264 1.397 . S
C1265 C1266 1.334 . S
C1266 H1237 0.950 . S
C1266 C1265 1.334 . S
C1266 C1267 1.287 . S
C1267 C1266 1.287 . S
C1267 C1268 1.524 . S
C1267 H1270 0.999 . S
C1268 H1238 0.950 . S
C1268 C1267 1.524 . S
C1268 C1269 1.415 . S
C1269 H1239 0.950 . S
C1269 C1264 1.363 . S
C1269 C1268 1.415 . S
H1270 C1267 0.999 . S
H1271 C1252 0.913 . S
H1272 C1290 0.951 . S
H1273 C1292 0.951 . S
H1274 C1294 0.950 . S
H1275 C1295 0.950 . S
H1276 C1297 0.950 . S
H1277 C1300 0.950 . S
H1278 C1301 0.950 . S
H1279 C1303 0.950 . S
H1280 C1304 0.950 . S
H1281 C1305 0.951 . S
H1282 C1307 0.951 . S
H1283 C1309 0.950 . S
H1284 C1310 0.950 . S
H1285 C1312 0.950 . S
H1286 C1315 0.950 . S
H1287 C1316 0.950 . S
H1288 C1318 0.950 . S
H1289 C1319 0.950 . S
C1290 H1272 0.951 . S
C1290 C1291 1.366 . S
C1290 C1292 1.388 . S
C1291 C1290 1.366 . S
C1291 C1295 1.385 . S
C1292 H1273 0.951 . S
C1292 C1290 1.388 . S
C1292 C1293 1.366 . S
C1293 C1292 1.366 . S
C1293 C1294 1.414 . S
C1293 C1296 1.499 . S
C1294 H1274 0.950 . S
C1294 C1293 1.414 . S
C1294 C1295 1.374 . S
C1295 H1275 0.950 . S
C1295 C1291 1.385 . S
C1295 C1294 1.374 . S
C1296 C1293 1.499 . S
C1296 C1297 1.373 . S
C1296 C1298 1.389 . S
C1297 H1276 0.950 . S
C1297 C1296 1.373 . S
C1297 C1313 1.377 1_565 S
C1298 C1296 1.389 . S
C1298 C1299 1.524 . S
C1298 C1312 1.377 1_565 S
C1299 C1298 1.524 . S
C1299 C1300 1.397 . S
C1299 C1304 1.363 . S
C1300 H1277 0.950 . S
C1300 C1299 1.397 . S
C1300 C1301 1.334 . S
C1301 H1278 0.950 . S
C1301 C1300 1.334 . S
C1301 C1302 1.287 . S
C1302 C1301 1.287 . S
C1302 C1303 1.524 . S
C1302 H1321 0.913 . S
C1303 H1279 0.950 . S
C1303 C1302 1.524 . S
C1303 C1304 1.415 . S
C1304 H1280 0.950 . S
C1304 C1299 1.363 . S
C1304 C1303 1.415 . S
C1305 H1281 0.951 . S
C1305 C1306 1.366 . S
C1305 C1307 1.388 . S
C1306 C1305 1.366 . S
C1306 C1310 1.385 . S
C1307 H1282 0.951 . S
C1307 C1305 1.388 . S
C1307 C1308 1.366 . S
C1308 C1307 1.366 . S
C1308 C1309 1.414 . S
C1308 C1311 1.499 . S
C1309 H1283 0.950 . S
C1309 C1308 1.414 . S
C1309 C1310 1.374 . S
C1310 H1284 0.950 . S
C1310 C1306 1.385 . S
C1310 C1309 1.374 . S
C1311 C1308 1.499 . S
C1311 C1312 1.373 . S
C1311 C1313 1.389 . S
C1312 H1285 0.950 . S
C1312 C1298 1.377 1_545 S
C1312 C1311 1.373 . S
C1313 C1297 1.377 1_545 S
C1313 C1311 1.389 . S
C1313 C1314 1.524 . S
C1314 C1313 1.524 . S
C1314 C1315 1.397 . S
C1314 C1319 1.363 . S
C1315 H1286 0.950 . S
C1315 C1314 1.397 . S
C1315 C1316 1.334 . S
C1316 H1287 0.950 . S
C1316 C1315 1.334 . S
C1316 C1317 1.287 . S
C1317 C1316 1.287 . S
C1317 C1318 1.524 . S
C1317 H1320 0.999 . S
C1318 H1288 0.950 . S
C1318 C1317 1.524 . S
C1318 C1319 1.415 . S
C1319 H1289 0.950 . S
C1319 C1314 1.363 . S
C1319 C1318 1.415 . S
H1320 C1317 0.999 . S
H1321 C1302 0.913 . S
H1322 C1340 0.951 . S
H1323 C1342 0.951 . S
H1324 C1344 0.950 . S
H1325 C1345 0.950 . S
H1326 C1347 0.950 . S
H1327 C1350 0.950 . S
H1328 C1351 0.950 . S
H1329 C1353 0.950 . S
H1330 C1354 0.950 . S
H1331 C1355 0.951 . S
H1332 C1357 0.951 . S
H1333 C1359 0.950 . S
H1334 C1360 0.950 . S
H1335 C1362 0.950 . S
H1336 C1365 0.950 . S
H1337 C1366 0.950 . S
H1338 C1368 0.950 . S
H1339 C1369 0.950 . S
C1340 H1322 0.951 . S
C1340 C1341 1.366 . S
C1340 C1342 1.388 . S
C1341 C1340 1.366 . S
C1341 C1345 1.385 . S
C1342 H1323 0.951 . S
C1342 C1340 1.388 . S
C1342 C1343 1.366 . S
C1343 C1342 1.366 . S
C1343 C1344 1.414 . S
C1343 C1346 1.499 . S
C1344 H1324 0.950 . S
C1344 C1343 1.414 . S
C1344 C1345 1.374 . S
C1345 H1325 0.950 . S
C1345 C1341 1.385 . S
C1345 C1344 1.374 . S
C1346 C1343 1.499 . S
C1346 C1347 1.373 . S
C1346 C1348 1.389 . S
C1347 H1326 0.950 . S
C1347 C1346 1.373 . S
C1347 C1363 1.377 . S
C1348 C1346 1.389 . S
C1348 C1349 1.524 . S
C1348 C1362 1.377 . S
C1349 C1348 1.524 . S
C1349 C1350 1.397 . S
C1349 C1354 1.363 . S
C1350 H1327 0.950 . S
C1350 C1349 1.397 . S
C1350 C1351 1.334 . S
C1351 H1328 0.950 . S
C1351 C1350 1.334 . S
C1351 C1352 1.287 . S
C1352 C1351 1.287 . S
C1352 C1353 1.524 . S
C1352 H1371 0.913 . S
C1353 H1329 0.950 . S
C1353 C1352 1.524 . S
C1353 C1354 1.415 . S
C1354 H1330 0.950 . S
C1354 C1349 1.363 . S
C1354 C1353 1.415 . S
C1355 H1331 0.951 . S
C1355 C1356 1.366 . S
C1355 C1357 1.388 . S
C1356 C1355 1.366 . S
C1356 C1360 1.385 . S
C1357 H1332 0.951 . S
C1357 C1355 1.388 . S
C1357 C1358 1.366 . S
C1358 C1357 1.366 . S
C1358 C1359 1.414 . S
C1358 C1361 1.499 . S
C1359 H1333 0.950 . S
C1359 C1358 1.414 . S
C1359 C1360 1.374 . S
C1360 H1334 0.950 . S
C1360 C1356 1.385 . S
C1360 C1359 1.374 . S
C1361 C1358 1.499 . S
C1361 C1362 1.373 . S
C1361 C1363 1.389 . S
C1362 H1335 0.950 . S
C1362 C1348 1.377 . S
C1362 C1361 1.373 . S
C1363 C1347 1.377 . S
C1363 C1361 1.389 . S
C1363 C1364 1.524 . S
C1364 C1363 1.524 . S
C1364 C1365 1.397 . S
C1364 C1369 1.363 . S
C1365 H1336 0.950 . S
C1365 C1364 1.397 . S
C1365 C1366 1.334 . S
C1366 H1337 0.950 . S
C1366 C1365 1.334 . S
C1366 C1367 1.287 . S
C1367 C1366 1.287 . S
C1367 C1368 1.524 . S
C1367 H1370 0.999 . S
C1368 H1338 0.950 . S
C1368 C1367 1.524 . S
C1368 C1369 1.415 . S
C1369 H1339 0.950 . S
C1369 C1364 1.363 . S
C1369 C1368 1.415 . S
H1370 C1367 0.999 . S
H1371 C1352 0.913 . S
C206 C100 1.695 . S
C191 C5 1.527 . S
C256 C103 1.449 . S
C241 C16 1.238 . S
C306 C101 1.778 1_655 S
C291 C30 1.793 . S
C356 C102 1.589 . S
C341 C40 1.549 . S
C406 C117 1.405 . S
C391 C8 1.405 . S
C456 C131 1.347 . S
C441 C18 1.294 . S
C491 C29 1.731 . S
C506 C157 1.757 . S
C556 C171 1.588 . S
C541 C38 1.382 . S
C606 C116 1.371 . S
C591 C19 1.363 . S
C641 C27 1.443 . S
C656 C130 1.601 . S
C706 C156 1.553 . S
C691 C41 1.541 . S
C756 C170 1.645 . S
C741 C7 1.594 . S
C791 C52 1.557 . S
C806 C115 1.584 . S
C856 C88 1.737 1_655 S
C841 C62 1.708 . S
C891 C74 1.366 . S
C906 C114 1.365 . S
C941 C82 1.281 . S
C956 C89 1.492 . S
C1006 C144 1.844 . S
C991 C51 1.753 . S
C1056 C158 1.724 . S
C1041 C60 1.464 . S
C1106 C128 1.428 . S
C1091 C71 1.253 . S
C1141 C84 1.387 . S
C1156 C142 1.431 . S
C1206 C145 1.715 . S
C1191 C63 1.701 . S
C1256 C159 1.486 . S
C1241 C73 1.462 . S
C1306 C129 1.495 . S
C1291 C85 1.495 . S
C1341 C49 1.320 . S
C1356 C143 1.588 . S
