# Generated by pormake.
# Topology ssa, (4,4)-cn, num edge types: 1
# Building blocks:
#     Node 0, Type 0, BuildingBlock: ESEHIV_clean_sbu_0, # of connection points: 4
#     Node 1, Type 0, BuildingBlock: ESEHIV_clean_sbu_0, # of connection points: 4
#     Node 2, Type 0, BuildingBlock: ESEHIV_clean_sbu_0, # of connection points: 4
#     Node 3, Type 0, BuildingBlock: ESEHIV_clean_sbu_0, # of connection points: 4
#     Node 4, Type 0, BuildingBlock: ESEHIV_clean_sbu_0, # of connection points: 4
#     Node 5, Type 0, BuildingBlock: ESEHIV_clean_sbu_0, # of connection points: 4
#     Node 6, Type 1, BuildingBlock: KOZSID_clean_sbu_0, # of connection points: 4
#     Node 7, Type 1, BuildingBlock: KOZSID_clean_sbu_0, # of connection points: 4
#     Node 8, Type 1, BuildingBlock: KOZSID_clean_sbu_0, # of connection points: 4
#     Node 9, Type 1, BuildingBlock: KOZSID_clean_sbu_0, # of connection points: 4
#     Node 10, Type 1, BuildingBlock: KOZSID_clean_sbu_0, # of connection points: 4
#     Node 11, Type 1, BuildingBlock: KOZSID_clean_sbu_0, # of connection points: 4
#     Edge 12, Type (0, 1), BuildingBlock: UVAHIK_clean_linker_0, # of connection points: 2
#     Edge 13, Type (0, 1), BuildingBlock: UVAHIK_clean_linker_0, # of connection points: 2
#     Edge 14, Type (0, 1), BuildingBlock: UVAHIK_clean_linker_0, # of connection points: 2
#     Edge 15, Type (0, 1), BuildingBlock: UVAHIK_clean_linker_0, # of connection points: 2
#     Edge 16, Type (0, 1), BuildingBlock: UVAHIK_clean_linker_0, # of connection points: 2
#     Edge 17, Type (0, 1), BuildingBlock: UVAHIK_clean_linker_0, # of connection points: 2
#     Edge 18, Type (0, 1), BuildingBlock: UVAHIK_clean_linker_0, # of connection points: 2
#     Edge 19, Type (0, 1), BuildingBlock: UVAHIK_clean_linker_0, # of connection points: 2
#     Edge 20, Type (0, 1), BuildingBlock: UVAHIK_clean_linker_0, # of connection points: 2
#     Edge 21, Type (0, 1), BuildingBlock: UVAHIK_clean_linker_0, # of connection points: 2
#     Edge 22, Type (0, 1), BuildingBlock: UVAHIK_clean_linker_0, # of connection points: 2
#     Edge 23, Type (0, 1), BuildingBlock: UVAHIK_clean_linker_0, # of connection points: 2
#     Edge 24, Type (0, 1), BuildingBlock: UVAHIK_clean_linker_0, # of connection points: 2
#     Edge 25, Type (0, 1), BuildingBlock: UVAHIK_clean_linker_0, # of connection points: 2
#     Edge 26, Type (0, 1), BuildingBlock: UVAHIK_clean_linker_0, # of connection points: 2
#     Edge 27, Type (0, 1), BuildingBlock: UVAHIK_clean_linker_0, # of connection points: 2
#     Edge 28, Type (0, 1), BuildingBlock: UVAHIK_clean_linker_0, # of connection points: 2
#     Edge 29, Type (0, 1), BuildingBlock: UVAHIK_clean_linker_0, # of connection points: 2
#     Edge 30, Type (0, 1), BuildingBlock: UVAHIK_clean_linker_0, # of connection points: 2
#     Edge 31, Type (0, 1), BuildingBlock: UVAHIK_clean_linker_0, # of connection points: 2
#     Edge 32, Type (0, 1), BuildingBlock: UVAHIK_clean_linker_0, # of connection points: 2
#     Edge 33, Type (0, 1), BuildingBlock: UVAHIK_clean_linker_0, # of connection points: 2
#     Edge 34, Type (0, 1), BuildingBlock: UVAHIK_clean_linker_0, # of connection points: 2
#     Edge 35, Type (0, 1), BuildingBlock: UVAHIK_clean_linker_0, # of connection points: 2
# Relax obj value: 0.013
# Max RMSD: 0.106
# Mean RMSD: 0.057
data_MOF--net-ssa--node1-ESEHIV_clean_sbu_0--node2-KOZSID_clean_sbu_0--edge1-UVAHIK_clean_linker_0
_symmetry_space_group_name_H-M    P1
_symmetry_Int_Tables_number       1
_symmetry_cell_setting            triclinic
loop_
_symmetry_equiv_pos_as_xyz
'x, y, z'
_cell_length_a     67.83899
_cell_length_b     71.432977
_cell_length_c     49.22787
_cell_angle_alpha  91.225396
_cell_angle_beta   93.417825
_cell_angle_gamma 121.8023
loop_
_atom_site_label
_atom_site_type_symbol
_atom_site_fract_x
_atom_site_fract_y
_atom_site_fract_z
_atom_type_partial_charge
Cu0 Cu 0.99148 0.51443 0.03227 0.0
N1 N 0.96981 0.48505 0.03792 0.0
N2 N 0.94256 0.4495 0.02877 0.0
C3 C 0.95532 0.46947 0.01857 0.0
C4 C 0.94907 0.45267 0.05573 0.0
C5 C 0.966 0.47468 0.06131 0.0
O6 O 0.97976 0.52346 1.00095 0.0
C7 C 0.02667 0.50345 0.02986 0.0
O8 O 0.00962 0.48371 0.02058 0.0
H9 H 0.95425 0.47268 0.99737 0.0
H10 H 0.97523 0.48249 0.0809 0.0
N11 N 0.99359 0.53179 0.06219 0.0
N12 N 0.01035 0.55952 0.09412 0.0
C13 C 0.0131 0.55077 0.07121 0.0
C14 C 0.97778 0.52829 0.07989 0.0
C15 C 0.98816 0.54541 0.09979 0.0
C16 C 0.9764 0.51656 0.976 0.0
O17 O 0.98385 0.50376 0.96842 0.0
H18 H 0.02926 0.55756 0.06161 0.0
H19 H 0.96016 0.51413 0.07869 0.0
O20 O 0.02267 0.51892 0.0327 0.0
H21 H 0.94264 0.43991 0.07017 0.0
H22 H 0.98007 0.54726 0.1171 0.0
Cu23 Cu 0.53039 0.01875 0.51699 0.0
N24 N 0.54519 0.01548 0.48784 0.0
N25 N 0.55456 0.99823 0.4574 0.0
C26 C 0.54137 0.99596 0.47809 0.0
C27 C 0.56713 0.02014 0.45397 0.0
C28 C 0.56137 0.03073 0.47283 0.0
O29 O 0.49919 0.99299 0.51327 0.0
C30 C 0.56683 0.02344 0.55389 0.0
O31 O 0.57558 0.02112 0.53191 0.0
H32 H 0.52901 0.98036 0.48606 0.0
H33 H 0.56873 0.04831 0.47564 0.0
N34 N 0.52887 0.04421 0.51629 0.0
N35 N 0.52408 0.07126 0.53151 0.0
C36 C 0.52426 0.05299 0.53768 0.0
C37 C 0.53174 0.05734 0.49578 0.0
C38 C 0.52877 0.07401 0.50508 0.0
C39 C 0.48689 0.99168 0.49194 0.0
O40 O 0.49538 0.00841 0.47621 0.0
H41 H 0.52078 0.04582 0.55729 0.0
H42 H 0.53558 0.05493 0.47546 0.0
O43 O 0.54686 0.02111 0.55177 0.0
H44 H 0.57998 0.02804 0.43934 0.0
H45 H 0.53025 0.08724 0.4933 0.0
Cu46 Cu 0.51219 0.50331 0.02834 0.0
N47 N 0.50681 0.47465 0.02698 0.0
N48 N 0.50188 0.44334 0.0084 0.0
C49 C 0.50545 0.46347 0.00382 0.0
C50 C 0.50094 0.44188 0.03569 0.0
C51 C 0.504 0.46119 0.04707 0.0
O52 O 0.53659 0.51947 0.0043 0.0
C53 C 0.465 0.48734 0.02679 0.0
O54 O 0.46536 0.47166 0.03981 0.0
H55 H 0.50687 0.47006 0.98396 0.0
H56 H 0.50407 0.46504 0.06844 0.0
N57 N 0.52209 0.51808 0.06302 0.0
N58 N 0.52992 0.54402 0.09566 0.0
C59 C 0.52139 0.53611 0.06967 0.0
C60 C 0.5314 0.51436 0.0856 0.0
C61 C 0.53619 0.53029 0.10578 0.0
C62 C 0.55592 0.52155 0.01209 0.0
O63 O 0.55786 0.51433 0.03581 0.0
H64 H 0.51457 0.54316 0.05559 0.0
H65 H 0.53488 0.50127 0.08719 0.0
O66 O 0.48369 0.50243 0.01765 0.0
H67 H 0.49853 0.42803 0.04682 0.0
H68 H 0.54416 0.5319 0.12609 0.0
Cu69 Cu 0.99226 0.49477 0.50108 0.0
N70 N 0.99418 0.47652 0.47506 0.0
N71 N 0.00875 0.46556 0.44333 0.0
C72 C 0.01113 0.48284 0.45809 0.0
C73 C 0.98932 0.44763 0.45096 0.0
C74 C 0.98018 0.4545 0.47035 0.0
O75 O 0.01918 0.52495 0.49929 0.0
C76 C 0.98809 0.46529 0.54288 0.0
O77 O 0.99979 0.45996 0.52752 0.0
H78 H 0.02548 0.49967 0.4573 0.0
H79 H 0.96491 0.44411 0.481 0.0
N80 N 0.96624 0.49605 0.49081 0.0
N81 N 0.93383 0.49631 0.49497 0.0
C82 C 0.94933 0.49204 0.50696 0.0
C83 C 0.96135 0.50304 0.46768 0.0
C84 C 0.94132 0.50328 0.47022 0.0
C85 C 0.0405 0.53067 0.50073 0.0
O86 O 0.046 0.51633 0.50822 0.0
H87 H 0.94907 0.48715 0.52766 0.0
H88 H 0.972 0.50823 0.45059 0.0
O89 O 0.9859 0.4814 0.53667 0.0
H90 H 0.98248 0.43079 0.44345 0.0
H91 H 0.93317 0.50856 0.45527 0.0
Cu92 Cu 0.49934 0.98983 1.00092 0.0
N93 N 0.48028 0.99341 0.9755 0.0
N94 N 0.46937 0.01141 0.94816 0.0
C95 C 0.48583 0.0131 0.96652 0.0
C96 C 0.45264 0.98978 0.94545 0.0
C97 C 0.45953 0.97862 0.96224 0.0
O98 O 0.53055 0.01681 0.99965 0.0
C99 C 0.46644 0.96313 0.03563 0.0
O100 O 0.45834 0.95151 0.01221 0.0
H101 H 0.50161 0.02847 0.97354 0.0
H102 H 0.45018 0.96101 0.96431 0.0
N103 N 0.50122 0.96555 0.99062 0.0
N104 N 0.50381 0.93609 0.9968 0.0
C105 C 0.50578 0.95421 0.00865 0.0
C106 C 0.4962 0.95421 0.96636 0.0
C107 C 0.49802 0.93603 0.97011 0.0
C108 C 0.5403 0.01818 0.97766 0.0
O109 O 0.5296 1.00162 0.9592 0.0
H110 H 0.50961 0.95875 0.0303 0.0
H111 H 0.49082 0.95844 0.94755 0.0
O112 O 0.4849 0.98241 0.03614 0.0
H113 H 0.43686 0.98255 0.93196 0.0
H114 H 0.49423 0.92321 0.9548 0.0
Cu115 Cu 0.50622 0.49719 0.48337 0.0
N116 N 0.52859 0.51514 0.46032 0.0
N117 N 0.54723 0.54333 0.43393 0.0
C118 C 0.52727 0.52998 0.44536 0.0
C119 C 0.56177 0.5366 0.44192 0.0
C120 C 0.5501 0.51899 0.45812 0.0
O121 O 0.47987 0.50104 0.47502 0.0
C122 C 0.53961 0.5225 0.52868 0.0
O123 O 0.5473 0.53917 0.51292 0.0
H124 H 0.51251 0.532 0.44456 0.0
H125 H 0.5572 0.51049 0.46883 0.0
N126 N 0.49741 0.4681 0.47566 0.0
N127 N 0.48963 0.4345 0.48458 0.0
C128 C 0.49152 0.45314 0.49454 0.0
C129 C 0.49927 0.45867 0.45281 0.0
C130 C 0.49452 0.43785 0.45829 0.0
C131 C 0.45858 0.48538 0.47115 0.0
O132 O 0.45268 0.46536 0.47722 0.0
H133 H 0.49021 0.45649 0.5157 0.0
H134 H 0.50486 0.46677 0.434 0.0
O135 O 0.52082 0.50438 0.5209 0.0
H136 H 0.57974 0.54435 0.43728 0.0
H137 H 0.49536 0.42641 0.44435 0.0
C138 C 0.23335 0.52244 0.2009 0.0
C139 C 0.23848 0.54329 0.19442 0.0
C140 C 0.25827 0.55816 0.21002 0.0
C141 C 0.26431 0.54565 0.22485 0.0
N142 N 0.24965 0.52367 0.21959 0.0
Co143 Co 0.25305 0.49981 0.23569 0.0
N144 N 0.28084 0.52167 0.26071 0.0
C145 C 0.29019 0.54373 0.26314 0.0
C146 C 0.30825 0.55449 0.28294 0.0
C147 C 0.31067 0.53837 0.29387 0.0
C148 C 0.29408 0.5186 0.27979 0.0
N149 N 0.25698 0.47603 0.25112 0.0
C150 C 0.2733 0.4773 0.26986 0.0
C151 C 0.27048 0.45675 0.27291 0.0
C152 C 0.25161 0.442 0.25595 0.0
C153 C 0.24412 0.45429 0.24325 0.0
N154 N 0.22458 0.47787 0.21157 0.0
C155 C 0.21437 0.45568 0.21037 0.0
C156 C 0.19401 0.4446 0.19397 0.0
C157 C 0.19083 0.46063 0.18423 0.0
C158 C 0.20971 0.48074 0.19498 0.0
N159 N 0.27356 0.50275 0.20669 0.0
C160 C 0.30244 0.50672 0.16543 0.0
C161 C 0.282 0.48667 0.16879 0.0
C162 C 0.26804 0.48503 0.18943 0.0
C163 C 0.3082 0.52479 0.18301 0.0
C164 C 0.29358 0.5225 0.20321 0.0
N165 N 0.23243 0.49684 0.26434 0.0
C166 C 0.19884 0.47373 0.28895 0.0
C167 C 0.19883 0.49213 0.2992 0.0
C168 C 0.21686 0.51302 0.29298 0.0
C169 C 0.23333 0.51499 0.27566 0.0
C170 C 0.2158 0.47646 0.27194 0.0
H171 H 0.24631 0.53132 0.27119 0.0
H172 H 0.21468 0.46178 0.26457 0.0
H173 H 0.25294 0.46917 0.19104 0.0
H174 H 0.29891 0.53697 0.21574 0.0
C175 C 0.28233 0.55397 0.24556 0.0
C176 C 0.21253 0.50204 0.18915 0.0
C177 C 0.29187 0.49748 0.28507 0.0
C178 C 0.22443 0.44576 0.22486 0.0
H179 H 0.22876 0.5474 0.18016 0.0
H180 H 0.26693 0.57596 0.21091 0.0
H181 H 0.31856 0.572 0.2886 0.0
H182 H 0.32336 0.54096 0.31028 0.0
H183 H 0.28097 0.45275 0.28598 0.0
H184 H 0.24418 0.42438 0.25326 0.0
H185 H 0.18265 0.42694 0.18986 0.0
H186 H 0.17606 0.45771 0.17096 0.0
H187 H 0.27702 0.47211 0.15591 0.0
H188 H 0.32385 0.54071 0.18105 0.0
H189 H 0.18532 0.45715 0.29309 0.0
H190 H 0.21811 0.52786 0.30108 0.0
C191 C 0.73335 0.21813 0.72869 0.0
C192 C 0.71697 0.21905 0.7115 0.0
C193 C 0.72014 0.2395 0.71671 0.0
C194 C 0.73827 0.24987 0.73667 0.0
N195 N 0.74658 0.23716 0.74415 0.0
Co196 Co 0.77215 0.24503 0.77224 0.0
N197 N 0.76844 0.26806 0.78968 0.0
C198 C 0.7577 0.27755 0.7779 0.0
C199 C 0.75827 0.29336 0.79488 0.0
C200 C 0.77032 0.29396 0.81863 0.0
C201 C 0.77648 0.27843 0.81478 0.0
N202 N 0.79786 0.25284 0.80019 0.0
C203 C 0.80332 0.26428 0.82451 0.0
C204 C 0.82299 0.26613 0.83784 0.0
C205 C 0.83014 0.25574 0.82094 0.0
C206 C 0.81451 0.24808 0.79835 0.0
N207 N 0.77579 0.22201 0.75458 0.0
C208 C 0.79469 0.22043 0.75724 0.0
C209 C 0.79136 0.20191 0.74351 0.0
C210 C 0.769 0.19129 0.73152 0.0
C211 C 0.76 0.20411 0.73843 0.0
N212 N 0.79464 0.2671 0.7488 0.0
C213 C 0.82626 0.29932 0.71548 0.0
C214 C 0.80952 0.27791 0.70468 0.0
C215 C 0.79383 0.26214 0.72158 0.0
C216 C 0.82689 0.30405 0.74342 0.0
C217 C 0.81116 0.28779 0.75965 0.0
N218 N 0.74975 0.22315 0.79575 0.0
C219 C 0.73865 0.19328 0.82546 0.0
C220 C 0.71766 0.19198 0.82965 0.0
C221 C 0.71321 0.20674 0.81636 0.0
C222 C 0.72937 0.22208 0.79957 0.0
C223 C 0.75438 0.20891 0.80856 0.0
H224 H 0.72531 0.23308 0.78958 0.0
H225 H 0.77035 0.2095 0.80588 0.0
H226 H 0.78092 0.24596 0.71256 0.0
H227 H 0.81237 0.29209 0.78105 0.0
C228 C 0.74452 0.26897 0.7527 0.0
C229 C 0.73684 0.19958 0.72911 0.0
C230 C 0.792 0.27567 0.8341 0.0
C231 C 0.81266 0.23349 0.77742 0.0
H232 H 0.70405 0.20627 0.6969 0.0
H233 H 0.70966 0.24556 0.70803 0.0
H234 H 0.75036 0.3029 0.7908 0.0
H235 H 0.77445 0.30484 0.83654 0.0
H236 H 0.83152 0.27444 0.85751 0.0
H237 H 0.84457 0.25345 0.82505 0.0
H238 H 0.80317 0.19604 0.74364 0.0
H239 H 0.76038 0.17575 0.71957 0.0
H240 H 0.80823 0.27347 0.68319 0.0
H241 H 0.83969 0.3202 0.75285 0.0
H242 H 0.74312 0.18249 0.83544 0.0
H243 H 0.69717 0.20625 0.81853 0.0
C244 C 0.52731 0.73294 0.2391 0.0
C245 C 0.50552 0.71375 0.23439 0.0
C246 C 0.49039 0.71722 0.24734 0.0
C247 C 0.50373 0.73823 0.25913 0.0
N248 N 0.52643 0.74859 0.25416 0.0
Co249 Co 0.55209 0.77877 0.269 0.0
N250 N 0.52992 0.78354 0.28895 0.0
C251 C 0.50659 0.76952 0.2886 0.0
C252 C 0.49569 0.77767 0.30282 0.0
C253 C 0.51301 0.79824 0.31269 0.0
C254 C 0.53364 0.80141 0.30408 0.0
N255 N 0.57785 0.80861 0.28459 0.0
C256 C 0.57722 0.82387 0.30086 0.0
C257 C 0.59934 0.84224 0.30745 0.0
C258 C 0.61442 0.83866 0.29456 0.0
C259 C 0.60077 0.81832 0.28104 0.0
N260 N 0.57411 0.77429 0.24829 0.0
C261 C 0.59717 0.78886 0.24721 0.0
C262 C 0.60784 0.78113 0.23174 0.0
C263 C 0.59062 0.76029 0.22253 0.0
C264 C 0.57034 0.75649 0.23296 0.0
N265 N 0.5466 0.79231 0.23698 0.0
C266 C 0.53863 0.81098 0.19105 0.0
C267 C 0.56124 0.81838 0.20177 0.0
C268 C 0.56481 0.80896 0.22466 0.0
C269 C 0.5201 0.79411 0.20366 0.0
C270 C 0.52444 0.78506 0.22634 0.0
N271 N 0.55751 0.7649 0.30068 0.0
C272 C 0.58095 0.75249 0.32297 0.0
C273 C 0.56163 0.73606 0.33508 0.0
C274 C 0.54107 0.73619 0.33237 0.0
C275 C 0.53942 0.75068 0.31526 0.0
C276 C 0.57859 0.7669 0.3063 0.0
H277 H 0.52299 0.74931 0.31319 0.0
H278 H 0.59376 0.77876 0.2971 0.0
H279 H 0.58243 0.81548 0.23204 0.0
H280 H 0.50955 0.77218 0.23484 0.0
C281 C 0.49546 0.74869 0.27494 0.0
C282 C 0.54829 0.73529 0.2291 0.0
C283 C 0.55619 0.82188 0.31028 0.0
C284 C 0.60869 0.8087 0.2632 0.0
H285 H 0.50106 0.69872 0.22298 0.0
H286 H 0.47191 0.70572 0.24827 0.0
H287 H 0.4773 0.76968 0.30549 0.0
H288 H 0.51061 0.80968 0.32462 0.0
H289 H 0.60405 0.85686 0.32 0.0
H290 H 0.63306 0.84977 0.29456 0.0
H291 H 0.62613 0.78935 0.22841 0.0
H292 H 0.59289 0.74894 0.2102 0.0
H293 H 0.57615 0.83164 0.19284 0.0
H294 H 0.50226 0.78769 0.19589 0.0
H295 H 0.59744 0.75345 0.32489 0.0
H296 H 0.52592 0.72447 0.34242 0.0
C297 C 0.73792 0.54732 0.72065 0.0
C298 C 0.74294 0.56706 0.70994 0.0
C299 C 0.76469 0.58286 0.72082 0.0
C300 C 0.77178 0.57193 0.73732 0.0
N301 N 0.75591 0.55006 0.73765 0.0
Co302 Co 0.75965 0.52805 0.75847 0.0
N303 N 0.79114 0.55155 0.77566 0.0
C304 C 0.80194 0.57349 0.77257 0.0
C305 C 0.82338 0.58565 0.7867 0.0
C306 C 0.82655 0.57061 0.79963 0.0
C307 C 0.80674 0.55002 0.79268 0.0
N308 N 0.76379 0.5059 0.77842 0.0
C309 C 0.7822 0.50851 0.79449 0.0
C310 C 0.77782 0.48852 0.80369 0.0
C311 C 0.75612 0.4727 0.79276 0.0
C312 C 0.74845 0.48385 0.77762 0.0
N313 N 0.72781 0.50463 0.74207 0.0
C314 C 0.71618 0.48295 0.74699 0.0
C315 C 0.69423 0.47098 0.73405 0.0
C316 C 0.69151 0.4859 0.72017 0.0
C317 C 0.71214 0.50621 0.7253 0.0
N318 N 0.7741 0.52351 0.72717 0.0
C319 C 0.79429 0.51702 0.68238 0.0
C320 C 0.77565 0.49915 0.69369 0.0
C321 C 0.7659 0.50274 0.71587 0.0
C322 C 0.80266 0.53818 0.6939 0.0
C323 C 0.79243 0.54103 0.71612 0.0
N324 N 0.74499 0.53259 0.78964 0.0
C325 C 0.71792 0.5176 0.82451 0.0
C326 C 0.71997 0.53787 0.82953 0.0
C327 C 0.73549 0.55571 0.8152 0.0
C328 C 0.74801 0.55281 0.7958 0.0
C329 C 0.73042 0.51531 0.80457 0.0
H330 H 0.75973 0.56711 0.78577 0.0
H331 H 0.72757 0.49928 0.80127 0.0
H332 H 0.75172 0.48845 0.72349 0.0
H333 H 0.79973 0.55755 0.72406 0.0
C334 C 0.79244 0.58193 0.75428 0.0
C335 C 0.71572 0.52653 0.71423 0.0
C336 C 0.80402 0.52948 0.80189 0.0
C337 C 0.72661 0.47421 0.76322 0.0
H338 H 0.73193 0.5698 0.69593 0.0
H339 H 0.77403 0.60032 0.71749 0.0
H340 H 0.83558 0.60329 0.78692 0.0
H341 H 0.84196 0.57438 0.81226 0.0
H342 H 0.7891 0.48564 0.81704 0.0
H343 H 0.74697 0.45518 0.79563 0.0
H344 H 0.68166 0.45349 0.73468 0.0
H345 H 0.67601 0.48225 0.70783 0.0
H346 H 0.76841 0.48244 0.68531 0.0
H347 H 0.81731 0.55253 0.68612 0.0
H348 H 0.70609 0.50333 0.83525 0.0
H349 H 0.73792 0.57183 0.8189 0.0
C350 C 0.281 0.80231 0.33925 0.0
C351 C 0.27845 0.81792 0.35319 0.0
C352 C 0.26015 0.81778 0.3399 0.0
C353 C 0.25255 0.80209 0.31881 0.0
N354 N 0.2647 0.79199 0.318 0.0
Co355 Co 0.25945 0.76808 0.29102 0.0
N356 N 0.23307 0.76845 0.27098 0.0
C357 C 0.22544 0.78214 0.27617 0.0
C358 C 0.20652 0.77788 0.25931 0.0
C359 C 0.20147 0.76012 0.24269 0.0
C360 C 0.21766 0.75458 0.25051 0.0
N361 N 0.25394 0.74396 0.26412 0.0
C362 C 0.23627 0.7323 0.24454 0.0
C363 C 0.23807 0.71603 0.2312 0.0
C364 C 0.25741 0.71719 0.24312 0.0
C365 C 0.26622 0.73401 0.26298 0.0
N366 N 0.28591 0.76778 0.31105 0.0
C367 C 0.29422 0.75477 0.30493 0.0
C368 C 0.31301 0.75885 0.3219 0.0
C369 C 0.31714 0.77564 0.33977 0.0
C370 C 0.30051 0.78079 0.33265 0.0
N371 N 0.2371 0.74529 0.31471 0.0
C372 C 0.20517 0.7124 0.34782 0.0
C373 C 0.22265 0.71072 0.33644 0.0
C374 C 0.23823 0.72712 0.32023 0.0
C375 C 0.20398 0.73094 0.34206 0.0
C376 C 0.21992 0.74699 0.32563 0.0
N377 N 0.28191 0.79093 0.26722 0.0
C378 C 0.31432 0.80409 0.23892 0.0
C379 C 0.3141 0.82313 0.2335 0.0
C380 C 0.2975 0.82581 0.24564 0.0
C381 C 0.28174 0.80969 0.26221 0.0
C382 C 0.29834 0.78846 0.25556 0.0
H383 H 0.26959 0.81279 0.27073 0.0
H384 H 0.29977 0.77455 0.25875 0.0
H385 H 0.25097 0.72465 0.31221 0.0
H386 H 0.21802 0.76066 0.32198 0.0
C387 C 0.23478 0.7972 0.29878 0.0
C388 C 0.30004 0.79893 0.34602 0.0
C389 C 0.21667 0.7351 0.2393 0.0
C390 C 0.2846 0.73949 0.28244 0.0
H391 H 0.28909 0.82865 0.37078 0.0
H392 H 0.25351 0.8282 0.34468 0.0
H393 H 0.1969 0.78607 0.25986 0.0
H394 H 0.18703 0.75167 0.22722 0.0
H395 H 0.22621 0.7041 0.21514 0.0
H396 H 0.26372 0.70645 0.23862 0.0
H397 H 0.32285 0.75091 0.321 0.0
H398 H 0.3311 0.7835 0.35585 0.0
H399 H 0.22421 0.69658 0.33963 0.0
H400 H 0.191 0.7333 0.35046 0.0
H401 H 0.32704 0.80127 0.23065 0.0
H402 H 0.29635 0.84012 0.24207 0.0
C403 C 0.46392 0.2648 0.79554 0.0
C404 C 0.44207 0.26007 0.80154 0.0
C405 C 0.42618 0.24205 0.78513 0.0
C406 C 0.43912 0.23681 0.77002 0.0
N407 N 0.46238 0.25041 0.77575 0.0
Co408 Co 0.48747 0.2486 0.75839 0.0
N409 N 0.46404 0.2226 0.73342 0.0
C410 C 0.44066 0.21315 0.7315 0.0
C411 C 0.42905 0.19549 0.71278 0.0
C412 C 0.44598 0.19344 0.70212 0.0
C413 C 0.46706 0.21007 0.71498 0.0
N414 N 0.51254 0.2464 0.74167 0.0
C415 C 0.51098 0.23138 0.72288 0.0
C416 C 0.53281 0.23573 0.71739 0.0
C417 C 0.5487 0.25386 0.73358 0.0
C418 C 0.53577 0.25959 0.74792 0.0
N419 N 0.51094 0.27495 0.78279 0.0
C420 C 0.53438 0.28515 0.78363 0.0
C421 C 0.54606 0.30285 0.80223 0.0
C422 C 0.52912 0.30424 0.81389 0.0
C423 C 0.50795 0.28727 0.80156 0.0
N424 N 0.48605 0.22837 0.78626 0.0
C425 C 0.48425 0.19689 0.82133 0.0
C426 C 0.50528 0.21659 0.81819 0.0
C427 C 0.50579 0.23196 0.80066 0.0
C428 C 0.46405 0.19378 0.80751 0.0
C429 C 0.46531 0.20966 0.79052 0.0
N430 N 0.4888 0.26867 0.73023 0.0
C431 C 0.51054 0.29793 0.70027 0.0
C432 C 0.49005 0.29554 0.68842 0.0
C433 C 0.46901 0.27975 0.69813 0.0
C434 C 0.46879 0.26664 0.71881 0.0
C435 C 0.50954 0.28453 0.72112 0.0
H436 H 0.45214 0.25486 0.72498 0.0
H437 H 0.52575 0.28726 0.72947 0.0
H438 H 0.52238 0.24642 0.79873 0.0
H439 H 0.44929 0.20611 0.78053 0.0
C440 C 0.43003 0.2201 0.74915 0.0
C441 C 0.48556 0.28357 0.80852 0.0
C442 C 0.48936 0.21271 0.70981 0.0
C443 C 0.54491 0.2773 0.76727 0.0
H444 H 0.438 0.26894 0.816 0.0
H445 H 0.40742 0.234 0.78395 0.0
H446 H 0.41043 0.18496 0.708 0.0
H447 H 0.44309 0.18084 0.68699 0.0
H448 H 0.53684 0.22667 0.7032 0.0
H449 H 0.56745 0.26186 0.73485 0.0
H450 H 0.56469 0.31341 0.8069 0.0
H451 H 0.53206 0.31636 0.82976 0.0
H452 H 0.52138 0.22011 0.82894 0.0
H453 H 0.4473 0.1788 0.80894 0.0
H454 H 0.52731 0.3102 0.69365 0.0
H455 H 0.45264 0.27714 0.68943 0.0
C456 C 0.05574 0.49171 0.03432 0.0
C457 C 0.04886 0.50636 0.04201 0.0
C458 C 0.07487 0.49254 0.04826 0.0
C459 C 0.12525 0.52652 0.10144 0.0
H460 H 0.1227 0.47125 0.10735 0.0
C461 C 0.18262 0.51268 0.18156 0.0
C462 C 0.19442 0.50308 0.17131 0.0
C463 C 0.16589 0.51392 0.16486 0.0
C464 C 0.12373 0.48684 0.10575 0.0
H465 H 0.05697 0.53357 0.07036 0.0
H466 H 0.08948 0.53447 0.09532 0.0
H467 H 0.09203 0.47203 0.0801 0.0
H468 H 0.19811 0.48749 0.13543 0.0
H469 H 0.16812 0.48879 0.10653 0.0
H470 H 0.1565 0.54092 0.12839 0.0
C471 C 0.08078 0.52274 0.07794 0.0
C472 C 0.10619 0.4874 0.08987 0.0
C473 C 0.06196 0.52222 0.0636 0.0
C474 C 0.18908 0.49472 0.14397 0.0
C475 C 0.17196 0.4955 0.12745 0.0
C476 C 0.14251 0.52582 0.1178 0.0
C477 C 0.0874 0.50769 0.07081 0.0
C478 C 0.1066 0.50726 0.08736 0.0
C479 C 0.16022 0.50519 0.13767 0.0
C480 C 0.14198 0.50599 0.12011 0.0
H481 H 0.04609 0.47933 0.01772 0.0
H482 H 0.07961 0.48105 0.04139 0.0
H483 H 0.12674 0.54228 0.09978 0.0
H484 H 0.18638 0.51923 0.20255 0.0
H485 H 0.15706 0.52136 0.17337 0.0
C486 C 0.60598 0.04185 0.57961 0.0
C487 C 0.58204 0.03353 0.57945 0.0
C488 C 0.62127 0.05545 0.60156 0.0
C489 C 0.62482 0.09398 0.65544 0.0
H490 H 0.68544 0.10208 0.67292 0.0
C491 C 0.69728 0.1655 0.72818 0.0
C492 C 0.71848 0.17778 0.71636 0.0
C493 C 0.67954 0.14521 0.7158 0.0
C494 C 0.66851 0.09991 0.66832 0.0
H495 H 0.55508 0.03121 0.60338 0.0
H496 H 0.58169 0.05435 0.64216 0.0
H497 H 0.65562 0.06943 0.64518 0.0
H498 H 0.73753 0.17933 0.68188 0.0
H499 H 0.70686 0.14349 0.66066 0.0
H500 H 0.63793 0.1246 0.67856 0.0
C501 C 0.58878 0.05101 0.62487 0.0
C502 C 0.65145 0.08128 0.65235 0.0
C503 C 0.57348 0.03758 0.60274 0.0
C504 C 0.72161 0.16972 0.69182 0.0
C505 C 0.70409 0.14931 0.67971 0.0
C506 C 0.64178 0.11243 0.67176 0.0
C507 C 0.61296 0.06085 0.62408 0.0
C508 C 0.62963 0.07844 0.64494 0.0
C509 C 0.68288 0.13688 0.69154 0.0
C510 C 0.66398 0.11587 0.67764 0.0
H511 H 0.61318 0.03902 0.56205 0.0
H512 H 0.63974 0.06282 0.59997 0.0
H513 H 0.60841 0.09262 0.64989 0.0
H514 H 0.69446 0.17167 0.74692 0.0
H515 H 0.66327 0.13599 0.72519 0.0
C516 C 0.5337 0.58049 0.09434 0.0
C517 C 0.53219 0.56329 0.10936 0.0
C518 C 0.53571 0.59906 0.10748 0.0
C519 C 0.5518 0.63024 0.17483 0.0
H520 H 0.51869 0.65585 0.14199 0.0
C521 C 0.54528 0.69881 0.23101 0.0
C522 C 0.54721 0.71589 0.21555 0.0
C523 C 0.54374 0.68031 0.21828 0.0
C524 C 0.52827 0.64908 0.15131 0.0
H525 H 0.53146 0.55229 0.15019 0.0
H526 H 0.53483 0.58458 0.17311 0.0
H527 H 0.51532 0.62342 0.11963 0.0
H528 H 0.54904 0.72725 0.17491 0.0
H529 H 0.54654 0.69501 0.15248 0.0
H530 H 0.56465 0.65589 0.2066 0.0
C531 C 0.53483 0.58386 0.15112 0.0
C532 C 0.52635 0.63044 0.13846 0.0
C533 C 0.53286 0.56528 0.13795 0.0
C534 C 0.54759 0.71423 0.18717 0.0
C535 C 0.546 0.69571 0.1744 0.0
C536 C 0.55368 0.64887 0.18772 0.0
C537 C 0.53622 0.601 0.13606 0.0
C538 C 0.53813 0.62078 0.14999 0.0
C539 C 0.544 0.67846 0.18977 0.0
C540 C 0.54198 0.65857 0.17611 0.0
H541 H 0.5337 0.57981 0.07236 0.0
H542 H 0.5372 0.61207 0.09519 0.0
H543 H 0.56142 0.6235 0.18414 0.0
H544 H 0.54483 0.69977 0.25294 0.0
H545 H 0.54193 0.66726 0.23074 0.0
C546 C 0.90858 0.51112 0.50153 0.0
C547 C 0.91496 0.49579 0.5076 0.0
C548 C 0.89215 0.51221 0.51622 0.0
C549 C 0.84617 0.48184 0.56335 0.0
H550 H 0.86494 0.54034 0.59231 0.0
C551 C 0.80912 0.49616 0.65825 0.0
C552 C 0.80515 0.51358 0.65903 0.0
C553 C 0.81996 0.49328 0.63671 0.0
C554 C 0.85919 0.52391 0.58404 0.0
H555 H 0.90811 0.46871 0.5326 0.0
H556 H 0.87968 0.47071 0.55838 0.0
H557 H 0.88778 0.53617 0.5591 0.0
H558 H 0.80883 0.54125 0.6374 0.0
H559 H 0.82777 0.5362 0.59975 0.0
H560 H 0.81785 0.46955 0.58875 0.0
C561 C 0.88729 0.48189 0.54228 0.0
C562 C 0.87228 0.52152 0.56497 0.0
C563 C 0.90377 0.48089 0.52772 0.0
C564 C 0.81197 0.52787 0.63759 0.0
C565 C 0.82279 0.52497 0.61602 0.0
C566 C 0.83305 0.48422 0.58239 0.0
C567 C 0.88165 0.49786 0.5371 0.0
C568 C 0.86617 0.50044 0.55482 0.0
C569 C 0.82705 0.50772 0.61543 0.0
C570 C 0.83967 0.50526 0.59335 0.0
H571 H 0.91699 0.52289 0.48623 0.0
H572 H 0.88798 0.52456 0.5116 0.0
H573 H 0.84083 0.46539 0.55558 0.0
H574 H 0.80439 0.48507 0.67465 0.0
H575 H 0.82335 0.48007 0.63715 0.0
C576 C 0.45425 0.96369 0.08356 0.0
C577 C 0.45495 0.95217 0.06046 0.0
C578 C 0.44116 0.95208 0.10531 0.0
C579 C 0.4143 0.89707 0.13527 0.0
H580 H 0.37069 0.91032 0.16385 0.0
C581 C 0.33754 0.83286 0.19236 0.0
C582 C 0.33098 0.83978 0.21527 0.0
C583 C 0.3539 0.84819 0.17577 0.0
C584 C 0.38298 0.90653 0.1564 0.0
H585 H 0.4432 0.91951 0.04275 0.0
H586 H 0.42103 0.89968 0.08013 0.0
H587 H 0.39815 0.93477 0.13202 0.0
H588 H 0.33661 0.8687 0.2382 0.0
H589 H 0.36509 0.89547 0.20913 0.0
H590 H 0.39915 0.86878 0.15915 0.0
C591 C 0.43034 0.91754 0.08172 0.0
C592 C 0.39878 0.92062 0.13816 0.0
C593 C 0.44299 0.92899 0.06008 0.0
C594 C 0.341 0.86264 0.22067 0.0
C595 C 0.35741 0.87805 0.20397 0.0
C596 C 0.3986 0.88307 0.15342 0.0
C597 C 0.42898 0.92879 0.10459 0.0
C598 C 0.41429 0.91577 0.12683 0.0
C599 C 0.36431 0.87105 0.18143 0.0
C600 C 0.3823 0.88724 0.1638 0.0
H601 H 0.46317 0.98152 0.08444 0.0
H602 H 0.44057 0.9613 0.12267 0.0
H603 H 0.42628 0.89301 0.12747 0.0
H604 H 0.32988 0.81546 0.18701 0.0
H605 H 0.35823 0.84204 0.15825 0.0
C606 C 0.47284 0.41062 0.52264 0.0
C607 C 0.4865 0.41652 0.50033 0.0
C608 C 0.4719 0.39506 0.54004 0.0
C609 C 0.50681 0.3729 0.5651 0.0
H610 H 0.45015 0.33013 0.59652 0.0
C611 C 0.50427 0.31277 0.64414 0.0
C612 C 0.49035 0.30912 0.66586 0.0
C613 C 0.50349 0.32453 0.62217 0.0
C614 C 0.46617 0.34212 0.58811 0.0
H615 H 0.50932 0.41024 0.47822 0.0
H616 H 0.50764 0.38288 0.50869 0.0
H617 H 0.4484 0.35204 0.56024 0.0
H618 H 0.46538 0.31562 0.68208 0.0
H619 H 0.46421 0.33633 0.64403 0.0
H620 H 0.52468 0.36339 0.59343 0.0
C621 C 0.49775 0.39043 0.51273 0.0
C622 C 0.46513 0.35459 0.56726 0.0
C623 C 0.49852 0.4059 0.49515 0.0
C624 C 0.47601 0.31784 0.66542 0.0
C625 C 0.47528 0.32964 0.64355 0.0
C626 C 0.50787 0.36047 0.58605 0.0
C627 C 0.48472 0.38513 0.53561 0.0
C628 C 0.48548 0.37035 0.5558 0.0
C629 C 0.48882 0.33293 0.62152 0.0
C630 C 0.4876 0.34518 0.5981 0.0
H631 H 0.46326 0.41843 0.52694 0.0
H632 H 0.46185 0.39147 0.5576 0.0
H633 H 0.52284 0.38512 0.55691 0.0
H634 H 0.5153 0.30603 0.64377 0.0
H635 H 0.51399 0.32661 0.60542 0.0
C636 C 0.54934 0.96112 0.45479 0.0
C637 C 0.55536 0.98091 0.44264 0.0
C638 C 0.55 0.94431 0.44055 0.0
C639 C 0.57453 0.93336 0.38078 0.0
H640 H 0.52695 0.87241 0.39002 0.0
C641 C 0.56296 0.86006 0.31296 0.0
C642 C 0.55763 0.84078 0.32587 0.0
C643 C 0.56338 0.87746 0.32727 0.0
C644 C 0.54053 0.88933 0.38742 0.0
H645 H 0.5666 0.9983 0.40569 0.0
H646 H 0.56755 0.96894 0.38074 0.0
H647 H 0.52606 0.90195 0.4144 0.0
H648 H 0.54906 0.82463 0.36381 0.0
H649 H 0.54976 0.85498 0.38896 0.0
H650 H 0.58883 0.92064 0.35354 0.0
C651 C 0.5627 0.96656 0.40153 0.0
C652 C 0.54004 0.90632 0.40146 0.0
C653 C 0.56213 0.98343 0.41583 0.0
C654 C 0.55307 0.83931 0.35343 0.0
C655 C 0.55336 0.85664 0.36772 0.0
C656 C 0.57496 0.91635 0.36664 0.0
C657 C 0.55661 0.94672 0.41367 0.0
C658 C 0.55707 0.92861 0.39842 0.0
C659 C 0.55837 0.8759 0.35479 0.0
C660 C 0.55799 0.89409 0.36983 0.0
H661 H 0.54445 0.95871 0.47554 0.0
H662 H 0.54564 0.92951 0.45084 0.0
H663 H 0.58816 0.95026 0.37821 0.0
H664 H 0.56647 0.8615 0.29168 0.0
H665 H 0.5671 0.89193 0.31659 0.0
C666 C 0.59487 0.52877 0.00249 0.0
C667 C 0.57478 0.52878 0.99366 0.0
C668 C 0.61144 0.53245 0.98444 0.0
C669 C 0.636 0.55544 0.92111 0.0
H670 H 0.64808 0.5081 0.91762 0.0
C671 C 0.69209 0.54915 0.84103 0.0
C672 C 0.70537 0.54006 0.84894 0.0
C673 C 0.67674 0.54946 0.85853 0.0
C674 C 0.6453 0.52169 0.91862 0.0
H675 H 0.55706 0.53405 0.95933 0.0
H676 H 0.58652 0.54089 0.92767 0.0
H677 H 0.62062 0.50654 0.94839 0.0
H678 H 0.71402 0.52519 0.88166 0.0
H679 H 0.68802 0.52648 0.91266 0.0
H680 H 0.66119 0.57094 0.89185 0.0
C681 C 0.58914 0.53782 0.94863 0.0
C682 C 0.62941 0.52068 0.93612 0.0
C683 C 0.57232 0.53388 0.96671 0.0
C684 C 0.70372 0.53203 0.87498 0.0
C685 C 0.68868 0.53265 0.89262 0.0
C686 C 0.65224 0.55664 0.90379 0.0
C687 C 0.60847 0.53648 0.95722 0.0
C688 C 0.62474 0.53759 0.93769 0.0
C689 C 0.6746 0.54092 0.88443 0.0
C690 C 0.65722 0.53983 0.9025 0.0
H691 H 0.59747 0.52511 0.02315 0.0
H692 H 0.62636 0.53163 0.99162 0.0
H693 H 0.63269 0.5687 0.92208 0.0
H694 H 0.69293 0.55528 0.82092 0.0
H695 H 0.66603 0.55574 0.85136 0.0
C696 C 0.05156 0.56474 0.47522 0.0
C697 C 0.05822 0.55167 0.48918 0.0
C698 C 0.06769 0.58299 0.46153 0.0
C699 C 0.12507 0.60616 0.43205 0.0
H700 H 0.1216 0.65839 0.42609 0.0
C701 C 0.19578 0.68399 0.38285 0.0
C702 C 0.18844 0.69493 0.36537 0.0
C703 C 0.18012 0.6672 0.39864 0.0
C704 C 0.1227 0.64385 0.42733 0.0
H705 H 0.08752 0.54826 0.50037 0.0
H706 H 0.11568 0.58027 0.47726 0.0
H707 H 0.09448 0.62855 0.45298 0.0
H708 H 0.15845 0.69648 0.35121 0.0
H709 H 0.13127 0.66742 0.37896 0.0
H710 H 0.15336 0.62152 0.40653 0.0
C711 C 0.09782 0.57615 0.47625 0.0
C712 C 0.10709 0.62665 0.44278 0.0
C713 C 0.08167 0.55784 0.48981 0.0
C714 C 0.16495 0.68874 0.36461 0.0
C715 C 0.14928 0.67199 0.38054 0.0
C716 C 0.14074 0.62339 0.41675 0.0
C717 C 0.09103 0.58881 0.46146 0.0
C718 C 0.10799 0.60749 0.44539 0.0
C719 C 0.15659 0.66084 0.39765 0.0
C720 C 0.1398 0.6425 0.41412 0.0
H721 H 0.03364 0.56047 0.47406 0.0
H722 H 0.06159 0.59206 0.45021 0.0
H723 H 0.12612 0.59158 0.43294 0.0
H724 H 0.21377 0.68851 0.38459 0.0
H725 H 0.18655 0.65933 0.41191 0.0
C726 C 0.44982 0.02994 0.92974 0.0
C727 C 0.47003 0.02927 0.9345 0.0
C728 C 0.45099 0.04824 0.91834 0.0
C729 C 0.49383 0.10707 0.90625 0.0
H730 H 0.44344 0.10065 0.85725 0.0
C731 C 0.50151 0.17504 0.83776 0.0
C732 C 0.4834 0.17919 0.83765 0.0
C733 C 0.49988 0.15732 0.85124 0.0
C734 C 0.45754 0.10266 0.87111 0.0
H735 H 0.507 0.04649 0.92991 0.0
H736 H 0.509 0.07795 0.90904 0.0
H737 H 0.44034 0.068 0.87621 0.0
H738 H 0.44979 0.16837 0.85283 0.0
H739 H 0.4467 0.137 0.8755 0.0
H740 H 0.5113 0.14169 0.90022 0.0
C741 C 0.49238 0.0649 0.91506 0.0
C742 C 0.45576 0.08399 0.88207 0.0
C743 C 0.49125 0.04681 0.92684 0.0
C744 C 0.46386 0.16544 0.85192 0.0
C745 C 0.46208 0.14751 0.86502 0.0
C746 C 0.49573 0.12566 0.89495 0.0
C747 C 0.47235 0.06607 0.91108 0.0
C748 C 0.47394 0.08593 0.89971 0.0
C749 C 0.47998 0.1432 0.86457 0.0
C750 C 0.47764 0.12361 0.87725 0.0
H751 H 0.43331 0.01667 0.93572 0.0
H752 H 0.43525 0.04863 0.91589 0.0
H753 H 0.50794 0.10933 0.92027 0.0
H754 H 0.51664 0.18498 0.82665 0.0
H755 H 0.51383 0.15421 0.85044 0.0
C756 C 0.41721 0.47349 0.45645 0.0
C757 C 0.44118 0.48886 0.45593 0.0
C758 C 0.40084 0.4753 0.43978 0.0
C759 C 0.39448 0.51348 0.39309 0.0
H760 H 0.33798 0.45919 0.36581 0.0
C761 C 0.33272 0.50822 0.30161 0.0
C762 C 0.3088 0.49665 0.30538 0.0
C763 C 0.34862 0.50781 0.3208 0.0
C764 C 0.3536 0.47452 0.37339 0.0
H765 H 0.46668 0.51841 0.43747 0.0
H766 H 0.43847 0.52115 0.40774 0.0
H767 H 0.36599 0.45772 0.39752 0.0
H768 H 0.28284 0.47549 0.33215 0.0
H769 H 0.31052 0.47411 0.36526 0.0
H770 H 0.38225 0.53006 0.3678 0.0
C771 C 0.43202 0.50798 0.4216 0.0
C772 C 0.36971 0.47375 0.39183 0.0
C773 C 0.44835 0.5064 0.43868 0.0
C774 C 0.30114 0.48445 0.32864 0.0
C775 C 0.31698 0.48367 0.34756 0.0
C776 C 0.37854 0.51419 0.37424 0.0
C777 C 0.40794 0.49229 0.42155 0.0
C778 C 0.39047 0.49322 0.4021 0.0
C779 C 0.34095 0.49545 0.34397 0.0
C780 C 0.35788 0.49473 0.36418 0.0
H781 H 0.41105 0.45983 0.46958 0.0
H782 H 0.38258 0.46318 0.44114 0.0
H783 H 0.40986 0.52894 0.40073 0.0
H784 H 0.3391 0.51766 0.2838 0.0
H785 H 0.36692 0.5169 0.31728 0.0
C786 C 0.92982 0.4262 0.98608 0.0
C787 C 0.92655 0.42903 0.0134 0.0
C788 C 0.91411 0.40679 0.97066 0.0
C789 C 0.85368 0.36052 0.96512 0.0
H790 H 0.87706 0.33793 0.91169 0.0
C791 C 0.79735 0.28599 0.8842 0.0
C792 C 0.80387 0.29181 0.85772 0.0
C793 C 0.8107 0.30066 0.90657 0.0
C794 C 0.8703 0.34401 0.92662 0.0
H795 H 0.90435 0.4136 0.04613 0.0
H796 H 0.8767 0.37929 0.019 0.0
H797 H 0.9042 0.36672 0.94582 0.0
H798 H 0.82868 0.31714 0.8333 0.0
H799 H 0.85215 0.34271 0.87228 0.0
H800 H 0.81969 0.33781 0.94532 0.0
C801 C 0.89146 0.39228 0.00959 0.0
C802 C 0.8858 0.3605 0.94609 0.0
C803 C 0.90734 0.4118 0.02514 0.0
C804 C 0.8234 0.31251 0.85366 0.0
C805 C 0.83683 0.32698 0.87588 0.0
C806 C 0.83807 0.34379 0.94568 0.0
C807 C 0.89472 0.38963 0.98216 0.0
C808 C 0.87777 0.36953 0.96489 0.0
C809 C 0.83086 0.32104 0.90252 0.0
C810 C 0.84642 0.33601 0.92573 0.0
H811 H 0.94462 0.43898 0.97654 0.0
H812 H 0.91696 0.40544 0.94948 0.0
H813 H 0.847 0.36721 0.97931 0.0
H814 H 0.78238 0.26994 0.88755 0.0
H815 H 0.80582 0.29581 0.92698 0.0
C816 C 0.95617 0.51188 0.92932 0.0
C817 C 0.96151 0.52065 0.9565 0.0
C818 C 0.9405 0.51403 0.91173 0.0
C819 C 0.91028 0.54518 0.90355 0.0
H820 H 0.86702 0.49519 0.85408 0.0
C821 C 0.82941 0.53883 0.84583 0.0
C822 C 0.82331 0.52978 0.81883 0.0
C823 C 0.84702 0.53853 0.8619 0.0
C824 C 0.87912 0.50944 0.86751 0.0
H825 H 0.95467 0.539 0.98616 0.0
H826 H 0.92732 0.54254 0.95577 0.0
H827 H 0.89642 0.4935 0.88293 0.0
H828 H 0.83082 0.51338 0.78739 0.0
H829 H 0.86164 0.51283 0.8153 0.0
H830 H 0.89274 0.56098 0.88831 0.0
C831 C 0.93544 0.53422 0.94781 0.0
C832 C 0.8961 0.50849 0.8841 0.0
C833 C 0.95113 0.5321 0.96536 0.0
C834 C 0.8352 0.52045 0.80818 0.0
C835 C 0.85275 0.52004 0.82426 0.0
C836 C 0.89325 0.54609 0.88701 0.0
C837 C 0.92964 0.525 0.92079 0.0
C838 C 0.91193 0.52632 0.90247 0.0
C839 C 0.8589 0.52902 0.85141 0.0
C840 C 0.87736 0.52822 0.86879 0.0
H841 H 0.96381 0.50298 0.92169 0.0
H842 H 0.93687 0.50703 0.89098 0.0
H843 H 0.92233 0.55941 0.91702 0.0
H844 H 0.82035 0.54596 0.85457 0.0
H845 H 0.851 0.54534 0.88277 0.0
C846 C 0.45794 0.95124 0.49598 0.0
C847 C 0.46553 0.97063 0.48212 0.0
C848 C 0.43976 0.93087 0.48416 0.0
C849 C 0.41532 0.90378 0.41714 0.0
H850 H 0.35869 0.86243 0.4497 0.0
C851 C 0.33494 0.83687 0.35246 0.0
C852 C 0.32074 0.81628 0.36299 0.0
C853 C 0.35347 0.85402 0.36876 0.0
C854 C 0.37461 0.87359 0.44053 0.0
H855 H 0.45904 0.98402 0.44585 0.0
H856 H 0.42772 0.94864 0.42533 0.0
H857 H 0.38897 0.89585 0.4763 0.0
H858 H 0.31442 0.79706 0.39837 0.0
H859 H 0.34739 0.82709 0.42709 0.0
H860 H 0.40132 0.88184 0.38148 0.0
C861 C 0.43593 0.94915 0.44514 0.0
C862 C 0.39185 0.89271 0.45573 0.0
C863 C 0.45382 0.96941 0.45698 0.0
C864 C 0.32541 0.81288 0.38994 0.0
C865 C 0.34408 0.83006 0.40633 0.0
C866 C 0.39831 0.88465 0.40212 0.0
C867 C 0.42916 0.92966 0.45825 0.0
C868 C 0.41201 0.90822 0.44382 0.0
C869 C 0.35823 0.85088 0.39593 0.0
C870 C 0.37745 0.86964 0.41331 0.0
H871 H 0.4666 0.95167 0.5154 0.0
H872 H 0.43471 0.916 0.49464 0.0
H873 H 0.43096 0.91534 0.40773 0.0
H874 H 0.33136 0.83978 0.33175 0.0
H875 H 0.36367 0.86993 0.36025 0.0
C876 C 0.50795 0.43307 0.96244 0.0
C877 C 0.49969 0.42701 0.98837 0.0
C878 C 0.50577 0.41733 0.94303 0.0
C879 C 0.47339 0.3567 0.9255 0.0
H880 H 0.52311 0.37291 0.87839 0.0
C881 C 0.47758 0.29287 0.85458 0.0
C882 C 0.48504 0.29929 0.82853 0.0
C883 C 0.4785 0.3081 0.87389 0.0
C884 C 0.50893 0.36816 0.89116 0.0
H885 H 0.48247 0.39922 0.01382 0.0
H886 H 0.47927 0.372 0.98036 0.0
H887 H 0.52671 0.39995 0.91251 0.0
H888 H 0.49897 0.32634 0.80193 0.0
H889 H 0.50062 0.35302 0.83553 0.0
H890 H 0.45578 0.32477 0.90425 0.0
C891 C 0.48713 0.38893 0.97486 0.0
C892 C 0.51098 0.38371 0.91077 0.0
C893 C 0.48924 0.40468 0.99427 0.0
C894 C 0.49315 0.32107 0.82194 0.0
C895 C 0.49422 0.33632 0.84124 0.0
C896 C 0.4714 0.3411 0.90596 0.0
C897 C 0.49536 0.39502 0.94894 0.0
C898 C 0.49321 0.37826 0.92819 0.0
C899 C 0.48709 0.33011 0.86757 0.0
C900 C 0.48912 0.34665 0.88846 0.0
H901 H 0.51635 0.45005 0.95707 0.0
H902 H 0.51206 0.42267 0.92323 0.0
H903 H 0.45916 0.35194 0.93819 0.0
H904 H 0.47142 0.27618 0.86013 0.0
H905 H 0.47308 0.30278 0.894 0.0
C906 C 0.0381 0.48468 0.41046 0.0
C907 C 0.02534 0.46629 0.42582 0.0
C908 C 0.056 0.48667 0.39574 0.0
C909 C 0.08171 0.45557 0.36958 0.0
H910 H 0.13712 0.51419 0.37033 0.0
C911 C 0.16897 0.47245 0.33303 0.0
C912 C 0.17959 0.48949 0.31505 0.0
C913 C 0.15001 0.46928 0.34662 0.0
C914 C 0.1217 0.49775 0.36982 0.0
H915 H 0.02091 0.43531 0.43742 0.0
H916 H 0.05252 0.43891 0.41218 0.0
H917 H 0.10374 0.50882 0.39302 0.0
H918 H 0.17837 0.51648 0.2973 0.0
H919 H 0.14582 0.51131 0.32162 0.0
H920 H 0.1001 0.44456 0.34681 0.0
C921 C 0.04843 0.45163 0.411 0.0
C922 C 0.1025 0.49466 0.38267 0.0
C923 C 0.03032 0.44954 0.42548 0.0
C924 C 0.17101 0.50349 0.3114 0.0
C925 C 0.15225 0.50047 0.32521 0.0
C926 C 0.10105 0.45865 0.35696 0.0
C927 C 0.06178 0.47043 0.39633 0.0
C928 C 0.08218 0.47356 0.38257 0.0
C929 C 0.14145 0.48324 0.34278 0.0
C930 C 0.12118 0.4798 0.35683 0.0
H931 H 0.03437 0.49766 0.41008 0.0
H932 H 0.06546 0.50108 0.3841 0.0
H933 H 0.06628 0.43915 0.36879 0.0
H934 H 0.17531 0.46156 0.3367 0.0
H935 H 0.14217 0.45604 0.36034 0.0
C936 C 0.57717 0.03535 0.95496 0.0
C937 C 0.56221 0.03817 0.9707 0.0
C938 C 0.59514 0.05311 0.94267 0.0
C939 C 0.62981 0.11439 0.93953 0.0
H940 H 0.63633 0.09933 0.86583 0.0
C941 C 0.68783 0.18043 0.86453 0.0
C942 C 0.70047 0.17523 0.84747 0.0
C943 C 0.67155 0.16461 0.8809 0.0
C944 C 0.63504 0.10387 0.88648 0.0
H945 H 0.55496 0.06218 0.98671 0.0
H946 H 0.58649 0.0935 0.96497 0.0
H947 H 0.60777 0.0709 0.89262 0.0
H948 H 0.70557 0.14898 0.83443 0.0
H949 H 0.67762 0.12168 0.86308 0.0
H950 H 0.65711 0.14754 0.93305 0.0
C951 C 0.58445 0.07746 0.96244 0.0
C952 C 0.61858 0.08747 0.90196 0.0
C953 C 0.56645 0.05956 0.97506 0.0
C954 C 0.69641 0.15376 0.84742 0.0
C955 C 0.68011 0.13795 0.86368 0.0
C956 C 0.64634 0.13088 0.92394 0.0
C957 C 0.59856 0.0743 0.9453 0.0
C958 C 0.61586 0.09236 0.92886 0.0
C959 C 0.66731 0.14306 0.88058 0.0
C960 C 0.64935 0.1258 0.89725 0.0
H961 H 0.57441 0.01909 0.95125 0.0
H962 H 0.60599 0.05004 0.93038 0.0
H963 H 0.62833 0.11882 0.96014 0.0
H964 H 0.69062 0.19682 0.86542 0.0
H965 H 0.66197 0.16917 0.89344 0.0
C966 C 0.53476 0.5629 0.40406 0.0
C967 C 0.55242 0.56283 0.42031 0.0
C968 C 0.5381 0.58256 0.39474 0.0
C969 C 0.5813 0.64081 0.38431 0.0
H970 H 0.52887 0.64736 0.39415 0.0
C971 C 0.58199 0.72113 0.36343 0.0
C972 C 0.56207 0.71767 0.34801 0.0
C973 C 0.5825 0.70329 0.37385 0.0
C974 C 0.54362 0.64575 0.39116 0.0
H975 H 0.58792 0.58301 0.43825 0.0
H976 H 0.59384 0.61765 0.42189 0.0
H977 H 0.52713 0.61397 0.40744 0.0
H978 H 0.52734 0.6926 0.33092 0.0
H979 H 0.52812 0.66182 0.34938 0.0
H980 H 0.59765 0.67269 0.36776 0.0
C981 C 0.57743 0.60241 0.41632 0.0
C982 C 0.5426 0.6266 0.39867 0.0
C983 C 0.57409 0.58262 0.4256 0.0
C984 C 0.54272 0.69602 0.34337 0.0
C985 C 0.54319 0.67831 0.35385 0.0
C986 C 0.58232 0.66007 0.37675 0.0
C987 C 0.55915 0.60264 0.40159 0.0
C988 C 0.5612 0.62369 0.39481 0.0
C989 C 0.56307 0.6817 0.36915 0.0
C990 C 0.56327 0.6625 0.37962 0.0
H991 H 0.51804 0.54779 0.39936 0.0
H992 H 0.52391 0.58213 0.3828 0.0
H993 H 0.5959 0.63901 0.38114 0.0
H994 H 0.59716 0.73761 0.36748 0.0
H995 H 0.598 0.70637 0.38573 0.0
C996 C 0.51206 0.09828 0.53869 0.0
C997 C 0.51976 0.08489 0.54938 0.0
C998 C 0.50791 0.11146 0.556 0.0
C999 C 0.52212 0.13692 0.62665 0.0
H1000 H 0.46963 0.14351 0.60959 0.0
C1001 C 0.4966 0.18207 0.70233 0.0
C1002 C 0.4903 0.19636 0.69147 0.0
C1003 C 0.49922 0.16781 0.6851 0.0
C1004 C 0.4845 0.14203 0.61453 0.0
H1005 H 0.52931 0.07519 0.58698 0.0
H1006 H 0.52165 0.09771 0.61701 0.0
H1007 H 0.47623 0.12012 0.57943 0.0
H1008 H 0.48162 0.20702 0.65434 0.0
H1009 H 0.48618 0.18211 0.62401 0.0
H1010 H 0.53042 0.15882 0.6617 0.0
C1011 C 0.51903 0.09822 0.59519 0.0
C1012 C 0.48831 0.12861 0.5972 0.0
C1013 C 0.52317 0.08505 0.5779 0.0
C1014 C 0.48629 0.19595 0.66311 0.0
C1015 C 0.48885 0.18165 0.64583 0.0
C1016 C 0.5183 0.15029 0.64398 0.0
C1017 C 0.51137 0.11165 0.5845 0.0
C1018 C 0.50719 0.12587 0.603 0.0
C1019 C 0.49561 0.16755 0.65658 0.0
C1020 C 0.49944 0.15305 0.63818 0.0
H1021 H 0.509 0.09849 0.51692 0.0
H1022 H 0.50227 0.12174 0.54697 0.0
H1023 H 0.53708 0.13556 0.63157 0.0
H1024 H 0.49981 0.18217 0.72418 0.0
H1025 H 0.5041 0.15698 0.69415 0.0
C1026 C 0.44644 0.50984 0.02365 0.0
C1027 C 0.44467 0.48967 0.02823 0.0
C1028 C 0.42882 0.51326 0.03068 0.0
C1029 C 0.36862 0.4846 0.05399 0.0
H1030 H 0.39248 0.53958 0.0968 0.0
C1031 C 0.34201 0.51885 0.15084 0.0
C1032 C 0.31793 0.50845 0.1443 0.0
C1033 C 0.3564 0.51893 0.13164 0.0
C1034 C 0.38551 0.52412 0.08496 0.0
H1035 H 0.42222 0.45671 0.04162 0.0
H1036 H 0.3919 0.4627 0.05416 0.0
H1037 H 0.41864 0.53426 0.07068 0.0
H1038 H 0.29019 0.49096 0.11212 0.0
H1039 H 0.31535 0.49146 0.07833 0.0
H1040 H 0.33588 0.47384 0.06979 0.0
C1041 C 0.40667 0.47591 0.04501 0.0
C1042 C 0.40046 0.52119 0.06958 0.0
C1043 C 0.4242 0.4725 0.03799 0.0
C1044 C 0.30866 0.49882 0.11783 0.0
C1045 C 0.32308 0.49908 0.09852 0.0
C1046 C 0.35372 0.48745 0.06956 0.0
C1047 C 0.40909 0.49656 0.04235 0.0
C1048 C 0.39236 0.50113 0.05455 0.0
C1049 C 0.34709 0.50878 0.10532 0.0
C1050 C 0.36213 0.50701 0.08587 0.0
H1051 H 0.46198 0.52339 0.01609 0.0
H1052 H 0.43105 0.52925 0.02791 0.0
H1053 H 0.36168 0.46909 0.04228 0.0
H1054 H 0.3496 0.52619 0.17118 0.0
H1055 H 0.37469 0.5262 0.13785 0.0
C1056 C 0.97266 0.42988 0.56659 0.0
C1057 C 0.97409 0.45016 0.56402 0.0
C1058 C 0.95732 0.41423 0.58375 0.0
C1059 C 0.9229 0.40634 0.64275 0.0
H1060 H 0.88495 0.34592 0.61255 0.0
C1061 C 0.84801 0.33844 0.70069 0.0
C1062 C 0.84296 0.31666 0.69793 0.0
C1063 C 0.86391 0.35482 0.68461 0.0
C1064 C 0.8956 0.36258 0.62163 0.0
H1065 H 0.96081 0.46999 0.57847 0.0
H1066 H 0.93437 0.44281 0.6089 0.0
H1067 H 0.9133 0.37432 0.58532 0.0
H1068 H 0.85108 0.29522 0.67614 0.0
H1069 H 0.8792 0.32374 0.6487 0.0
H1070 H 0.90569 0.39465 0.6793 0.0
C1071 C 0.94513 0.43904 0.59744 0.0
C1072 C 0.91187 0.37895 0.60586 0.0
C1073 C 0.96031 0.45464 0.57997 0.0
C1074 C 0.85429 0.31173 0.67859 0.0
C1075 C 0.87043 0.32818 0.66274 0.0
C1076 C 0.90682 0.38991 0.65869 0.0
C1077 C 0.94309 0.41843 0.59914 0.0
C1078 C 0.92576 0.40107 0.61617 0.0
C1079 C 0.87554 0.35005 0.66543 0.0
C1080 C 0.89284 0.36771 0.64841 0.0
H1081 H 0.9829 0.42573 0.55468 0.0
H1082 H 0.95648 0.3987 0.58482 0.0
H1083 H 0.93344 0.42315 0.65147 0.0
H1084 H 0.83938 0.34279 0.71509 0.0
H1085 H 0.86681 0.37121 0.68705 0.0
C1086 C 0.51683 0.90979 1.00082 0.0
C1087 C 0.50479 0.91918 0.01082 0.0
C1088 C 0.51936 0.89471 0.01601 0.0
C1089 C 0.49449 0.8565 0.07054 0.0
H1090 H 0.55759 0.87186 0.09109 0.0
C1091 C 0.51702 0.8262 0.16711 0.0
C1092 C 0.53428 0.82098 0.16717 0.0
C1093 C 0.51276 0.83559 0.14474 0.0
C1094 C 0.53982 0.86702 0.08516 0.0
H1095 H 0.48496 0.91952 0.04347 0.0
H1096 H 0.48897 0.89299 0.06973 0.0
H1097 H 0.55058 0.89208 0.05638 0.0
H1098 H 0.56047 0.82126 0.14373 0.0
H1099 H 0.55288 0.83751 0.10436 0.0
H1100 H 0.48364 0.83169 0.09943 0.0
C1101 C 0.49664 0.89733 0.0504 0.0
C1102 C 0.53584 0.87861 0.06528 0.0
C1103 C 0.49451 0.91262 0.03554 0.0
C1104 C 0.54721 0.82533 0.14434 0.0
C1105 C 0.54285 0.83462 0.12181 0.0
C1106 C 0.49843 0.84479 0.09018 0.0
C1107 C 0.50938 0.88848 0.04102 0.0
C1108 C 0.51321 0.87387 0.05841 0.0
C1109 C 0.52555 0.83985 0.12176 0.0
C1110 C 0.5212 0.85037 0.09836 0.0
H1111 H 0.52492 0.91473 0.98182 0.0
H1112 H 0.52924 0.88807 0.00838 0.0
H1113 H 0.47685 0.85237 0.06533 0.0
H1114 H 0.50705 0.82339 0.18462 0.0
H1115 H 0.49972 0.83991 0.14572 0.0
C1116 C 0.57668 0.54297 0.55945 0.0
C1117 C 0.555 0.5235 0.55238 0.0
C1118 C 0.59272 0.54325 0.57902 0.0
C1119 C 0.60817 0.50565 0.61142 0.0
H1120 H 0.65009 0.55744 0.65909 0.0
C1121 C 0.69042 0.51608 0.67017 0.0
C1122 C 0.69668 0.52609 0.69668 0.0
C1123 C 0.67248 0.51555 0.65376 0.0
C1124 C 0.63842 0.54273 0.64613 0.0
H1125 H 0.53295 0.48919 0.5614 0.0
H1126 H 0.56073 0.48976 0.59587 0.0
H1127 H 0.61934 0.55678 0.62999 0.0
H1128 H 0.68923 0.54339 0.72694 0.0
H1129 H 0.65773 0.54238 0.69851 0.0
H1130 H 0.62704 0.49149 0.62781 0.0
C1131 C 0.56552 0.50478 0.58588 0.0
C1132 C 0.62088 0.54244 0.62915 0.0
C1133 C 0.54945 0.50451 0.56628 0.0
C1134 C 0.68473 0.53564 0.7065 0.0
C1135 C 0.66679 0.53513 0.69012 0.0
C1136 C 0.62571 0.50594 0.62838 0.0
C1137 C 0.5876 0.52405 0.59217 0.0
C1138 C 0.60557 0.52396 0.61139 0.0
C1139 C 0.66035 0.52505 0.66348 0.0
C1140 C 0.64122 0.52454 0.64587 0.0
H1141 H 0.58166 0.55791 0.54916 0.0
H1142 H 0.60955 0.55836 0.58302 0.0
H1143 H 0.59697 0.4912 0.59785 0.0
H1144 H 0.69949 0.5087 0.66213 0.0
H1145 H 0.66837 0.50796 0.63328 0.0
C1146 C 0.02837 0.58068 0.13839 0.0
C1147 C 0.02823 0.579 0.10988 0.0
C1148 C 0.04711 0.59862 0.15375 0.0
C1149 C 0.09854 0.65491 0.14824 0.0
H1150 H 0.12426 0.64117 0.21166 0.0
C1151 C 0.19162 0.7147 0.19675 0.0
C1152 C 0.19464 0.71708 0.22526 0.0
C1153 C 0.17029 0.69831 0.18364 0.0
C1154 C 0.11712 0.64532 0.1942 0.0
H1155 H 0.04689 0.59539 0.07504 0.0
H1156 H 0.07965 0.62636 0.1017 0.0
H1157 H 0.08796 0.61221 0.18739 0.0
H1158 H 0.17835 0.70479 0.26268 0.0
H1159 H 0.1409 0.67597 0.23981 0.0
H1160 H 0.12797 0.68792 0.15477 0.0
C1161 C 0.06533 0.61395 0.11228 0.0
C1162 C 0.09629 0.62876 0.18035 0.0
C1163 C 0.04668 0.59605 0.09699 0.0
C1164 C 0.17625 0.70295 0.2406 0.0
C1165 C 0.15495 0.68652 0.22753 0.0
C1166 C 0.11939 0.67145 0.16205 0.0
C1167 C 0.06598 0.61526 0.14086 0.0
C1168 C 0.08692 0.6333 0.15701 0.0
C1169 C 0.15171 0.6841 0.1989 0.0
C1170 C 0.12905 0.66676 0.18497 0.0
H1171 H 0.01445 0.56776 0.14889 0.0
H1172 H 0.047 0.59931 0.17573 0.0
H1173 H 0.09158 0.65901 0.13058 0.0
H1174 H 0.20568 0.72562 0.1847 0.0
H1175 H 0.1684 0.69666 0.16156 0.0
loop_
_geom_bond_atom_site_label_1
_geom_bond_atom_site_label_2
_geom_bond_distance
_geom_bond_site_symmetry_2
_ccdc_geom_bond_type
Cu0 N1 1.999 1_454 S
Cu0 O6 1.974 1_454 S
Cu0 N11 1.985 . S
Cu0 O20 1.959 . S
N1 Cu0 1.999 1_656 S
N1 C3 1.263 . S
N1 C5 1.389 1_556 S
N2 C3 1.358 . S
N2 C4 1.400 . S
C3 N1 1.263 . S
C3 N2 1.358 . S
C3 H9 0.930 . S
C4 N2 1.400 . S
C4 C5 1.351 1_556 S
C4 H21 0.930 . S
C5 N1 1.389 1_554 S
C5 C4 1.351 1_554 S
C5 H10 0.930 . S
O6 Cu0 1.974 1_656 S
O6 C16 1.282 . S
C7 O8 1.258 1_554 S
C7 O20 1.251 . S
O8 C7 1.258 1_556 S
H9 C3 0.930 . S
H10 C5 0.930 . S
N11 Cu0 1.985 . S
N11 C13 1.335 . S
N11 C14 1.390 . S
N12 C13 1.345 . S
N12 C15 1.336 . S
C13 N11 1.335 . S
C13 N12 1.345 . S
C13 H18 0.930 . S
C14 N11 1.390 . S
C14 C15 1.346 . S
C14 H19 0.930 1_554 S
C15 N12 1.336 . S
C15 C14 1.346 . S
C15 H22 0.929 . S
C16 O6 1.282 . S
C16 O17 1.216 1_655 S
O17 C16 1.216 1_455 S
H18 C13 0.930 . S
H19 C14 0.930 1_556 S
O20 Cu0 1.959 . S
O20 C7 1.251 . S
H21 C4 0.930 . S
H22 C15 0.929 . S
Cu23 N24 1.999 . S
Cu23 O29 1.974 . S
Cu23 N34 1.985 1_565 S
Cu23 O43 1.959 1_565 S
N24 Cu23 1.999 . S
N24 C26 1.263 . S
N24 C28 1.389 . S
N25 C26 1.358 . S
N25 C27 1.400 . S
C26 N24 1.263 . S
C26 N25 1.358 . S
C26 H32 0.930 . S
C27 N25 1.400 . S
C27 C28 1.351 . S
C27 H44 0.930 . S
C28 N24 1.389 . S
C28 C27 1.351 . S
C28 H33 0.930 . S
O29 Cu23 1.974 . S
O29 C39 1.282 . S
C30 O31 1.261 . S
C30 O43 1.251 . S
O31 C30 1.261 . S
H32 C26 0.930 . S
H33 C28 0.930 . S
N34 Cu23 1.985 1_545 S
N34 C36 1.335 . S
N34 C37 1.390 . S
N35 C36 1.345 . S
N35 C38 1.336 . S
C36 N34 1.335 . S
C36 N35 1.345 . S
C36 H41 0.930 . S
C37 N34 1.390 . S
C37 C38 1.346 . S
C37 H42 0.930 . S
C38 N35 1.336 . S
C38 C37 1.346 . S
C38 H45 0.929 . S
C39 O29 1.282 . S
C39 O40 1.216 . S
O40 C39 1.216 . S
H41 C36 0.930 . S
H42 C37 0.930 . S
O43 Cu23 1.959 1_545 S
O43 C30 1.251 . S
H44 C27 0.930 . S
H45 C38 0.929 . S
Cu46 N47 1.999 1_554 S
Cu46 O52 1.974 1_554 S
Cu46 N57 1.985 . S
Cu46 O66 1.959 . S
N47 Cu46 1.999 1_556 S
N47 C49 1.263 . S
N47 C51 1.389 . S
N48 C49 1.358 . S
N48 C50 1.400 . S
C49 N47 1.263 . S
C49 N48 1.358 . S
C49 H55 0.930 . S
C50 N48 1.400 . S
C50 C51 1.351 . S
C50 H67 0.930 . S
C51 N47 1.389 . S
C51 C50 1.351 . S
C51 H56 0.930 . S
O52 Cu46 1.974 1_556 S
O52 C62 1.282 . S
C53 O54 1.261 . S
C53 O66 1.251 . S
O54 C53 1.261 . S
H55 C49 0.930 . S
H56 C51 0.930 . S
N57 Cu46 1.985 . S
N57 C59 1.335 . S
N57 C60 1.390 . S
N58 C59 1.345 . S
N58 C61 1.336 . S
C59 N57 1.335 . S
C59 N58 1.345 . S
C59 H64 0.930 . S
C60 N57 1.390 . S
C60 C61 1.346 . S
C60 H65 0.930 . S
C61 N58 1.336 . S
C61 C60 1.346 . S
C61 H68 0.929 . S
C62 O52 1.282 . S
C62 O63 1.216 1_556 S
O63 C62 1.216 1_554 S
H64 C59 0.930 . S
H65 C60 0.930 . S
O66 Cu46 1.959 . S
O66 C53 1.251 . S
H67 C50 0.930 . S
H68 C61 0.929 . S
Cu69 N70 1.999 1_655 S
Cu69 O75 1.974 1_655 S
Cu69 N80 1.985 . S
Cu69 O89 1.959 . S
N70 Cu69 1.999 1_455 S
N70 C72 1.263 . S
N70 C74 1.389 1_455 S
N71 C72 1.358 . S
N71 C73 1.400 . S
C72 N70 1.263 . S
C72 N71 1.358 . S
C72 H78 0.930 . S
C73 N71 1.400 . S
C73 C74 1.351 1_455 S
C73 H90 0.930 . S
C74 N70 1.389 1_655 S
C74 C73 1.351 1_655 S
C74 H79 0.930 . S
O75 Cu69 1.974 1_455 S
O75 C85 1.282 . S
C76 O77 1.261 1_655 S
C76 O89 1.251 . S
O77 C76 1.261 1_455 S
H78 C72 0.930 . S
H79 C74 0.930 . S
N80 Cu69 1.985 . S
N80 C82 1.335 . S
N80 C83 1.390 . S
N81 C82 1.345 . S
N81 C84 1.336 . S
C82 N80 1.335 . S
C82 N81 1.345 . S
C82 H87 0.930 . S
C83 N80 1.390 . S
C83 C84 1.346 . S
C83 H88 0.930 1_655 S
C84 N81 1.336 . S
C84 C83 1.346 . S
C84 H91 0.929 . S
C85 O75 1.282 . S
C85 O86 1.216 . S
O86 C85 1.216 . S
H87 C82 0.930 . S
H88 C83 0.930 1_455 S
O89 Cu69 1.959 . S
O89 C76 1.251 . S
H90 C73 0.930 . S
H91 C84 0.929 . S
Cu92 N93 1.999 . S
Cu92 O98 1.976 1_554 S
Cu92 N103 1.985 1_545 S
Cu92 O112 1.959 1_545 S
N93 Cu92 1.999 . S
N93 C95 1.263 1_554 S
N93 C97 1.389 . S
N94 C95 1.358 . S
N94 C96 1.400 1_556 S
C95 N93 1.263 1_556 S
C95 N94 1.358 . S
C95 H101 0.930 . S
C96 N94 1.400 1_554 S
C96 C97 1.351 . S
C96 H113 0.930 . S
C97 N93 1.389 . S
C97 C96 1.351 . S
C97 H102 0.930 . S
O98 Cu92 1.976 1_556 S
O98 C108 1.279 . S
C99 O100 1.261 . S
C99 O112 1.251 . S
O100 C99 1.261 . S
H101 C95 0.930 . S
H102 C97 0.930 . S
N103 Cu92 1.985 1_565 S
N103 C105 1.335 . S
N103 C106 1.390 . S
N104 C105 1.345 . S
N104 C107 1.336 . S
C105 N103 1.335 . S
C105 N104 1.345 . S
C105 H110 0.930 . S
C106 N103 1.390 . S
C106 C107 1.346 . S
C106 H111 0.918 1_565 S
C107 N104 1.336 . S
C107 C106 1.346 . S
C107 H114 0.929 . S
C108 O98 1.279 . S
C108 O109 1.216 . S
O109 C108 1.216 . S
H110 C105 0.930 . S
H111 C106 0.918 1_545 S
O112 Cu92 1.959 1_565 S
O112 C99 1.251 . S
H113 C96 0.930 . S
H114 C107 0.929 . S
Cu115 N116 1.999 . S
Cu115 O121 1.974 . S
Cu115 N126 1.985 . S
Cu115 O135 1.959 . S
N116 Cu115 1.999 . S
N116 C118 1.263 . S
N116 C120 1.389 . S
N117 C118 1.358 . S
N117 C119 1.400 . S
C118 N116 1.263 . S
C118 N117 1.358 . S
C118 H124 0.930 . S
C119 N117 1.400 . S
C119 C120 1.351 . S
C119 H136 0.930 . S
C120 N116 1.389 . S
C120 C119 1.351 . S
C120 H125 0.930 . S
O121 Cu115 1.974 . S
O121 C131 1.282 . S
C122 O123 1.261 . S
C122 O135 1.251 . S
O123 C122 1.261 . S
H124 C118 0.930 . S
H125 C120 0.930 . S
N126 Cu115 1.985 . S
N126 C128 1.335 . S
N126 C129 1.390 . S
N127 C128 1.345 . S
N127 C130 1.336 . S
C128 N126 1.335 . S
C128 N127 1.345 . S
C128 H133 0.930 . S
C129 N126 1.390 . S
C129 C130 1.346 . S
C129 H134 0.930 . S
C130 N127 1.336 . S
C130 C129 1.346 . S
C130 H137 0.929 . S
C131 O121 1.282 . S
C131 O132 1.216 . S
O132 C131 1.216 . S
H133 C128 0.930 . S
H134 C129 0.930 . S
O135 Cu115 1.959 . S
O135 C122 1.251 . S
H136 C119 0.930 . S
H137 C130 0.929 . S
C138 C139 1.443 . S
C138 N142 1.376 . S
C138 C176 1.389 . S
C139 C138 1.443 . S
C139 C140 1.340 . S
C139 H179 0.951 . S
C140 C139 1.340 . S
C140 C141 1.439 . S
C140 H180 0.950 . S
C141 C140 1.439 . S
C141 N142 1.374 . S
C141 C175 1.395 . S
N142 C138 1.376 . S
N142 C141 1.374 . S
N142 Co143 2.008 . S
Co143 N142 2.008 . S
Co143 N144 1.995 . S
Co143 N149 2.008 . S
Co143 N154 1.995 . S
Co143 N159 2.282 . S
Co143 N165 2.282 . S
N144 Co143 1.995 . S
N144 C145 1.376 . S
N144 C148 1.383 . S
C145 N144 1.376 . S
C145 C146 1.446 . S
C145 C175 1.391 . S
C146 C145 1.446 . S
C146 C147 1.339 . S
C146 H181 0.949 . S
C147 C146 1.339 . S
C147 C148 1.439 . S
C147 H182 0.950 . S
C148 N144 1.383 . S
C148 C147 1.439 . S
C148 C177 1.392 . S
N149 Co143 2.008 . S
N149 C150 1.376 . S
N149 C153 1.374 . S
C150 N149 1.376 . S
C150 C151 1.443 . S
C150 C177 1.389 . S
C151 C150 1.443 . S
C151 C152 1.340 . S
C151 H183 0.951 . S
C152 C151 1.340 . S
C152 C153 1.439 . S
C152 H184 0.950 . S
C153 N149 1.374 . S
C153 C152 1.439 . S
C153 C178 1.395 . S
N154 Co143 1.995 . S
N154 C155 1.376 . S
N154 C158 1.383 . S
C155 N154 1.376 . S
C155 C156 1.446 . S
C155 C178 1.391 . S
C156 C155 1.446 . S
C156 C157 1.339 . S
C156 H185 0.949 . S
C157 C156 1.339 . S
C157 C158 1.439 . S
C157 H186 0.950 . S
C158 N154 1.383 . S
C158 C157 1.439 . S
C158 C176 1.392 . S
N159 Co143 2.282 . S
N159 C162 1.332 . S
N159 C164 1.332 . S
C160 C161 1.386 . S
C160 C163 1.388 . S
C161 C160 1.386 . S
C161 C162 1.382 . S
C161 H187 0.950 . S
C162 N159 1.332 . S
C162 C161 1.382 . S
C162 H173 0.952 . S
C163 C160 1.388 . S
C163 C164 1.382 . S
C163 H188 0.950 . S
C164 N159 1.332 . S
C164 C163 1.382 . S
C164 H174 0.948 . S
N165 Co143 2.282 . S
N165 C169 1.332 . S
N165 C170 1.332 . S
C166 C167 1.388 . S
C166 C170 1.382 . S
C166 H189 0.950 . S
C167 C166 1.388 . S
C167 C168 1.386 . S
C168 C167 1.386 . S
C168 C169 1.382 . S
C168 H190 0.950 . S
C169 N165 1.332 . S
C169 C168 1.382 . S
C169 H171 0.952 . S
C170 N165 1.332 . S
C170 C166 1.382 . S
C170 H172 0.948 . S
H171 C169 0.952 . S
H172 C170 0.948 . S
H173 C162 0.952 . S
H174 C164 0.948 . S
C175 C141 1.395 . S
C175 C145 1.391 . S
C176 C138 1.389 . S
C176 C158 1.392 . S
C177 C148 1.392 . S
C177 C150 1.389 . S
C178 C153 1.395 . S
C178 C155 1.391 . S
H179 C139 0.951 . S
H180 C140 0.950 . S
H181 C146 0.949 . S
H182 C147 0.950 . S
H183 C151 0.951 . S
H184 C152 0.950 . S
H185 C156 0.949 . S
H186 C157 0.950 . S
H187 C161 0.950 . S
H188 C163 0.950 . S
H189 C166 0.950 . S
H190 C168 0.950 . S
C191 C192 1.443 . S
C191 N195 1.376 . S
C191 C229 1.389 . S
C192 C191 1.443 . S
C192 C193 1.340 . S
C192 H232 0.951 . S
C193 C192 1.340 . S
C193 C194 1.439 . S
C193 H233 0.950 . S
C194 C193 1.439 . S
C194 N195 1.374 . S
C194 C228 1.395 . S
N195 C191 1.376 . S
N195 C194 1.374 . S
N195 Co196 2.008 . S
Co196 N195 2.008 . S
Co196 N197 1.995 . S
Co196 N202 2.008 . S
Co196 N207 1.995 . S
Co196 N212 2.282 . S
Co196 N218 2.282 . S
N197 Co196 1.995 . S
N197 C198 1.376 . S
N197 C201 1.383 . S
C198 N197 1.376 . S
C198 C199 1.446 . S
C198 C228 1.391 . S
C199 C198 1.446 . S
C199 C200 1.339 . S
C199 H234 0.949 . S
C200 C199 1.339 . S
C200 C201 1.439 . S
C200 H235 0.950 . S
C201 N197 1.383 . S
C201 C200 1.439 . S
C201 C230 1.392 . S
N202 Co196 2.008 . S
N202 C203 1.376 . S
N202 C206 1.374 . S
C203 N202 1.376 . S
C203 C204 1.443 . S
C203 C230 1.389 . S
C204 C203 1.443 . S
C204 C205 1.340 . S
C204 H236 0.951 . S
C205 C204 1.340 . S
C205 C206 1.439 . S
C205 H237 0.950 . S
C206 N202 1.374 . S
C206 C205 1.439 . S
C206 C231 1.395 . S
N207 Co196 1.995 . S
N207 C208 1.376 . S
N207 C211 1.383 . S
C208 N207 1.376 . S
C208 C209 1.446 . S
C208 C231 1.391 . S
C209 C208 1.446 . S
C209 C210 1.339 . S
C209 H238 0.949 . S
C210 C209 1.339 . S
C210 C211 1.439 . S
C210 H239 0.950 . S
C211 N207 1.383 . S
C211 C210 1.439 . S
C211 C229 1.392 . S
N212 Co196 2.282 . S
N212 C215 1.332 . S
N212 C217 1.332 . S
C213 C214 1.386 . S
C213 C216 1.388 . S
C214 C213 1.386 . S
C214 C215 1.382 . S
C214 H240 0.950 . S
C215 N212 1.332 . S
C215 C214 1.382 . S
C215 H226 0.952 . S
C216 C213 1.388 . S
C216 C217 1.382 . S
C216 H241 0.950 . S
C217 N212 1.332 . S
C217 C216 1.382 . S
C217 H227 0.948 . S
N218 Co196 2.282 . S
N218 C222 1.332 . S
N218 C223 1.332 . S
C219 C220 1.388 . S
C219 C223 1.382 . S
C219 H242 0.950 . S
C220 C219 1.388 . S
C220 C221 1.386 . S
C221 C220 1.386 . S
C221 C222 1.382 . S
C221 H243 0.950 . S
C222 N218 1.332 . S
C222 C221 1.382 . S
C222 H224 0.952 . S
C223 N218 1.332 . S
C223 C219 1.382 . S
C223 H225 0.948 . S
H224 C222 0.952 . S
H225 C223 0.948 . S
H226 C215 0.952 . S
H227 C217 0.948 . S
C228 C194 1.395 . S
C228 C198 1.391 . S
C229 C191 1.389 . S
C229 C211 1.392 . S
C230 C201 1.392 . S
C230 C203 1.389 . S
C231 C206 1.395 . S
C231 C208 1.391 . S
H232 C192 0.951 . S
H233 C193 0.950 . S
H234 C199 0.949 . S
H235 C200 0.950 . S
H236 C204 0.951 . S
H237 C205 0.950 . S
H238 C209 0.949 . S
H239 C210 0.950 . S
H240 C214 0.950 . S
H241 C216 0.950 . S
H242 C219 0.950 . S
H243 C221 0.950 . S
C244 C245 1.443 . S
C244 N248 1.376 . S
C244 C282 1.389 . S
C245 C244 1.443 . S
C245 C246 1.340 . S
C245 H285 0.951 . S
C246 C245 1.340 . S
C246 C247 1.439 . S
C246 H286 0.950 . S
C247 C246 1.439 . S
C247 N248 1.374 . S
C247 C281 1.395 . S
N248 C244 1.376 . S
N248 C247 1.374 . S
N248 Co249 2.008 . S
Co249 N248 2.008 . S
Co249 N250 1.995 . S
Co249 N255 2.008 . S
Co249 N260 1.995 . S
Co249 N265 2.282 . S
Co249 N271 2.282 . S
N250 Co249 1.995 . S
N250 C251 1.376 . S
N250 C254 1.383 . S
C251 N250 1.376 . S
C251 C252 1.446 . S
C251 C281 1.391 . S
C252 C251 1.446 . S
C252 C253 1.339 . S
C252 H287 0.949 . S
C253 C252 1.339 . S
C253 C254 1.439 . S
C253 H288 0.950 . S
C254 N250 1.383 . S
C254 C253 1.439 . S
C254 C283 1.392 . S
N255 Co249 2.008 . S
N255 C256 1.376 . S
N255 C259 1.374 . S
C256 N255 1.376 . S
C256 C257 1.443 . S
C256 C283 1.389 . S
C257 C256 1.443 . S
C257 C258 1.340 . S
C257 H289 0.951 . S
C258 C257 1.340 . S
C258 C259 1.439 . S
C258 H290 0.950 . S
C259 N255 1.374 . S
C259 C258 1.439 . S
C259 C284 1.395 . S
N260 Co249 1.995 . S
N260 C261 1.376 . S
N260 C264 1.383 . S
C261 N260 1.376 . S
C261 C262 1.446 . S
C261 C284 1.391 . S
C262 C261 1.446 . S
C262 C263 1.339 . S
C262 H291 0.949 . S
C263 C262 1.339 . S
C263 C264 1.439 . S
C263 H292 0.950 . S
C264 N260 1.383 . S
C264 C263 1.439 . S
C264 C282 1.392 . S
N265 Co249 2.282 . S
N265 C268 1.332 . S
N265 C270 1.332 . S
C266 C267 1.386 . S
C266 C269 1.388 . S
C267 C266 1.386 . S
C267 C268 1.382 . S
C267 H293 0.950 . S
C268 N265 1.332 . S
C268 C267 1.382 . S
C268 H279 0.952 . S
C269 C266 1.388 . S
C269 C270 1.382 . S
C269 H294 0.950 . S
C270 N265 1.332 . S
C270 C269 1.382 . S
C270 H280 0.948 . S
N271 Co249 2.282 . S
N271 C275 1.332 . S
N271 C276 1.332 . S
C272 C273 1.388 . S
C272 C276 1.382 . S
C272 H295 0.950 . S
C273 C272 1.388 . S
C273 C274 1.386 . S
C274 C273 1.386 . S
C274 C275 1.382 . S
C274 H296 0.950 . S
C275 N271 1.332 . S
C275 C274 1.382 . S
C275 H277 0.952 . S
C276 N271 1.332 . S
C276 C272 1.382 . S
C276 H278 0.948 . S
H277 C275 0.952 . S
H278 C276 0.948 . S
H279 C268 0.952 . S
H280 C270 0.948 . S
C281 C247 1.395 . S
C281 C251 1.391 . S
C282 C244 1.389 . S
C282 C264 1.392 . S
C283 C254 1.392 . S
C283 C256 1.389 . S
C284 C259 1.395 . S
C284 C261 1.391 . S
H285 C245 0.951 . S
H286 C246 0.950 . S
H287 C252 0.949 . S
H288 C253 0.950 . S
H289 C257 0.951 . S
H290 C258 0.950 . S
H291 C262 0.949 . S
H292 C263 0.950 . S
H293 C267 0.950 . S
H294 C269 0.950 . S
H295 C272 0.950 . S
H296 C274 0.950 . S
C297 C298 1.443 . S
C297 N301 1.376 . S
C297 C335 1.389 . S
C298 C297 1.443 . S
C298 C299 1.340 . S
C298 H338 0.951 . S
C299 C298 1.340 . S
C299 C300 1.439 . S
C299 H339 0.950 . S
C300 C299 1.439 . S
C300 N301 1.374 . S
C300 C334 1.395 . S
N301 C297 1.376 . S
N301 C300 1.374 . S
N301 Co302 2.008 . S
Co302 N301 2.008 . S
Co302 N303 1.995 . S
Co302 N308 2.008 . S
Co302 N313 1.995 . S
Co302 N318 2.282 . S
Co302 N324 2.282 . S
N303 Co302 1.995 . S
N303 C304 1.376 . S
N303 C307 1.383 . S
C304 N303 1.376 . S
C304 C305 1.446 . S
C304 C334 1.391 . S
C305 C304 1.446 . S
C305 C306 1.339 . S
C305 H340 0.949 . S
C306 C305 1.339 . S
C306 C307 1.439 . S
C306 H341 0.950 . S
C307 N303 1.383 . S
C307 C306 1.439 . S
C307 C336 1.392 . S
N308 Co302 2.008 . S
N308 C309 1.376 . S
N308 C312 1.374 . S
C309 N308 1.376 . S
C309 C310 1.443 . S
C309 C336 1.389 . S
C310 C309 1.443 . S
C310 C311 1.340 . S
C310 H342 0.951 . S
C311 C310 1.340 . S
C311 C312 1.439 . S
C311 H343 0.950 . S
C312 N308 1.374 . S
C312 C311 1.439 . S
C312 C337 1.395 . S
N313 Co302 1.995 . S
N313 C314 1.376 . S
N313 C317 1.383 . S
C314 N313 1.376 . S
C314 C315 1.446 . S
C314 C337 1.391 . S
C315 C314 1.446 . S
C315 C316 1.339 . S
C315 H344 0.949 . S
C316 C315 1.339 . S
C316 C317 1.439 . S
C316 H345 0.950 . S
C317 N313 1.383 . S
C317 C316 1.439 . S
C317 C335 1.392 . S
N318 Co302 2.282 . S
N318 C321 1.332 . S
N318 C323 1.332 . S
C319 C320 1.386 . S
C319 C322 1.388 . S
C320 C319 1.386 . S
C320 C321 1.382 . S
C320 H346 0.950 . S
C321 N318 1.332 . S
C321 C320 1.382 . S
C321 H332 0.952 . S
C322 C319 1.388 . S
C322 C323 1.382 . S
C322 H347 0.950 . S
C323 N318 1.332 . S
C323 C322 1.382 . S
C323 H333 0.948 . S
N324 Co302 2.282 . S
N324 C328 1.332 . S
N324 C329 1.332 . S
C325 C326 1.388 . S
C325 C329 1.382 . S
C325 H348 0.950 . S
C326 C325 1.388 . S
C326 C327 1.386 . S
C327 C326 1.386 . S
C327 C328 1.382 . S
C327 H349 0.950 . S
C328 N324 1.332 . S
C328 C327 1.382 . S
C328 H330 0.952 . S
C329 N324 1.332 . S
C329 C325 1.382 . S
C329 H331 0.948 . S
H330 C328 0.952 . S
H331 C329 0.948 . S
H332 C321 0.952 . S
H333 C323 0.948 . S
C334 C300 1.395 . S
C334 C304 1.391 . S
C335 C297 1.389 . S
C335 C317 1.392 . S
C336 C307 1.392 . S
C336 C309 1.389 . S
C337 C312 1.395 . S
C337 C314 1.391 . S
H338 C298 0.951 . S
H339 C299 0.950 . S
H340 C305 0.949 . S
H341 C306 0.950 . S
H342 C310 0.951 . S
H343 C311 0.950 . S
H344 C315 0.949 . S
H345 C316 0.950 . S
H346 C320 0.950 . S
H347 C322 0.950 . S
H348 C325 0.950 . S
H349 C327 0.950 . S
C350 C351 1.443 . S
C350 N354 1.376 . S
C350 C388 1.389 . S
C351 C350 1.443 . S
C351 C352 1.340 . S
C351 H391 0.951 . S
C352 C351 1.340 . S
C352 C353 1.439 . S
C352 H392 0.950 . S
C353 C352 1.439 . S
C353 N354 1.374 . S
C353 C387 1.395 . S
N354 C350 1.376 . S
N354 C353 1.374 . S
N354 Co355 2.008 . S
Co355 N354 2.008 . S
Co355 N356 1.995 . S
Co355 N361 2.008 . S
Co355 N366 1.995 . S
Co355 N371 2.282 . S
Co355 N377 2.282 . S
N356 Co355 1.995 . S
N356 C357 1.376 . S
N356 C360 1.383 . S
C357 N356 1.376 . S
C357 C358 1.446 . S
C357 C387 1.391 . S
C358 C357 1.446 . S
C358 C359 1.339 . S
C358 H393 0.949 . S
C359 C358 1.339 . S
C359 C360 1.439 . S
C359 H394 0.950 . S
C360 N356 1.383 . S
C360 C359 1.439 . S
C360 C389 1.392 . S
N361 Co355 2.008 . S
N361 C362 1.376 . S
N361 C365 1.374 . S
C362 N361 1.376 . S
C362 C363 1.443 . S
C362 C389 1.389 . S
C363 C362 1.443 . S
C363 C364 1.340 . S
C363 H395 0.951 . S
C364 C363 1.340 . S
C364 C365 1.439 . S
C364 H396 0.950 . S
C365 N361 1.374 . S
C365 C364 1.439 . S
C365 C390 1.395 . S
N366 Co355 1.995 . S
N366 C367 1.376 . S
N366 C370 1.383 . S
C367 N366 1.376 . S
C367 C368 1.446 . S
C367 C390 1.391 . S
C368 C367 1.446 . S
C368 C369 1.339 . S
C368 H397 0.949 . S
C369 C368 1.339 . S
C369 C370 1.439 . S
C369 H398 0.950 . S
C370 N366 1.383 . S
C370 C369 1.439 . S
C370 C388 1.392 . S
N371 Co355 2.282 . S
N371 C374 1.332 . S
N371 C376 1.332 . S
C372 C373 1.386 . S
C372 C375 1.388 . S
C373 C372 1.386 . S
C373 C374 1.382 . S
C373 H399 0.950 . S
C374 N371 1.332 . S
C374 C373 1.382 . S
C374 H385 0.952 . S
C375 C372 1.388 . S
C375 C376 1.382 . S
C375 H400 0.950 . S
C376 N371 1.332 . S
C376 C375 1.382 . S
C376 H386 0.948 . S
N377 Co355 2.282 . S
N377 C381 1.332 . S
N377 C382 1.332 . S
C378 C379 1.388 . S
C378 C382 1.382 . S
C378 H401 0.950 . S
C379 C378 1.388 . S
C379 C380 1.386 . S
C380 C379 1.386 . S
C380 C381 1.382 . S
C380 H402 0.950 . S
C381 N377 1.332 . S
C381 C380 1.382 . S
C381 H383 0.952 . S
C382 N377 1.332 . S
C382 C378 1.382 . S
C382 H384 0.948 . S
H383 C381 0.952 . S
H384 C382 0.948 . S
H385 C374 0.952 . S
H386 C376 0.948 . S
C387 C353 1.395 . S
C387 C357 1.391 . S
C388 C350 1.389 . S
C388 C370 1.392 . S
C389 C360 1.392 . S
C389 C362 1.389 . S
C390 C365 1.395 . S
C390 C367 1.391 . S
H391 C351 0.951 . S
H392 C352 0.950 . S
H393 C358 0.949 . S
H394 C359 0.950 . S
H395 C363 0.951 . S
H396 C364 0.950 . S
H397 C368 0.949 . S
H398 C369 0.950 . S
H399 C373 0.950 . S
H400 C375 0.950 . S
H401 C378 0.950 . S
H402 C380 0.950 . S
C403 C404 1.443 . S
C403 N407 1.376 . S
C403 C441 1.389 . S
C404 C403 1.443 . S
C404 C405 1.340 . S
C404 H444 0.951 . S
C405 C404 1.340 . S
C405 C406 1.439 . S
C405 H445 0.950 . S
C406 C405 1.439 . S
C406 N407 1.374 . S
C406 C440 1.395 . S
N407 C403 1.376 . S
N407 C406 1.374 . S
N407 Co408 2.008 . S
Co408 N407 2.008 . S
Co408 N409 1.995 . S
Co408 N414 2.008 . S
Co408 N419 1.995 . S
Co408 N424 2.282 . S
Co408 N430 2.282 . S
N409 Co408 1.995 . S
N409 C410 1.376 . S
N409 C413 1.383 . S
C410 N409 1.376 . S
C410 C411 1.446 . S
C410 C440 1.391 . S
C411 C410 1.446 . S
C411 C412 1.339 . S
C411 H446 0.949 . S
C412 C411 1.339 . S
C412 C413 1.439 . S
C412 H447 0.950 . S
C413 N409 1.383 . S
C413 C412 1.439 . S
C413 C442 1.392 . S
N414 Co408 2.008 . S
N414 C415 1.376 . S
N414 C418 1.374 . S
C415 N414 1.376 . S
C415 C416 1.443 . S
C415 C442 1.389 . S
C416 C415 1.443 . S
C416 C417 1.340 . S
C416 H448 0.951 . S
C417 C416 1.340 . S
C417 C418 1.439 . S
C417 H449 0.950 . S
C418 N414 1.374 . S
C418 C417 1.439 . S
C418 C443 1.395 . S
N419 Co408 1.995 . S
N419 C420 1.376 . S
N419 C423 1.383 . S
C420 N419 1.376 . S
C420 C421 1.446 . S
C420 C443 1.391 . S
C421 C420 1.446 . S
C421 C422 1.339 . S
C421 H450 0.949 . S
C422 C421 1.339 . S
C422 C423 1.439 . S
C422 H451 0.950 . S
C423 N419 1.383 . S
C423 C422 1.439 . S
C423 C441 1.392 . S
N424 Co408 2.282 . S
N424 C427 1.332 . S
N424 C429 1.332 . S
C425 C426 1.386 . S
C425 C428 1.388 . S
C426 C425 1.386 . S
C426 C427 1.382 . S
C426 H452 0.950 . S
C427 N424 1.332 . S
C427 C426 1.382 . S
C427 H438 0.952 . S
C428 C425 1.388 . S
C428 C429 1.382 . S
C428 H453 0.950 . S
C429 N424 1.332 . S
C429 C428 1.382 . S
C429 H439 0.948 . S
N430 Co408 2.282 . S
N430 C434 1.332 . S
N430 C435 1.332 . S
C431 C432 1.388 . S
C431 C435 1.382 . S
C431 H454 0.950 . S
C432 C431 1.388 . S
C432 C433 1.386 . S
C433 C432 1.386 . S
C433 C434 1.382 . S
C433 H455 0.950 . S
C434 N430 1.332 . S
C434 C433 1.382 . S
C434 H436 0.952 . S
C435 N430 1.332 . S
C435 C431 1.382 . S
C435 H437 0.948 . S
H436 C434 0.952 . S
H437 C435 0.948 . S
H438 C427 0.952 . S
H439 C429 0.948 . S
C440 C406 1.395 . S
C440 C410 1.391 . S
C441 C403 1.389 . S
C441 C423 1.392 . S
C442 C413 1.392 . S
C442 C415 1.389 . S
C443 C418 1.395 . S
C443 C420 1.391 . S
H444 C404 0.951 . S
H445 C405 0.950 . S
H446 C411 0.949 . S
H447 C412 0.950 . S
H448 C416 0.951 . S
H449 C417 0.950 . S
H450 C421 0.949 . S
H451 C422 0.950 . S
H452 C426 0.950 . S
H453 C428 0.950 . S
H454 C431 0.950 . S
H455 C433 0.950 . S
C456 C457 1.349 . S
C456 C458 1.327 . S
C456 H481 0.950 . S
C457 C456 1.349 . S
C457 C473 1.349 . S
C458 C456 1.327 . S
C458 C477 1.429 . S
C458 H482 0.950 . S
C459 C476 1.574 . S
C459 C478 1.368 . S
C459 H483 0.949 . S
H460 C464 0.949 . S
C461 C462 1.349 . S
C461 C463 1.327 . S
C461 H484 0.950 . S
C462 C461 1.349 . S
C462 C474 1.349 . S
C463 C461 1.327 . S
C463 C479 1.429 . S
C463 H485 0.950 . S
C464 H460 0.949 . S
C464 C472 1.574 . S
C464 C480 1.368 . S
H465 C473 0.950 . S
H466 C471 0.950 . S
H467 C472 0.949 . S
H468 C474 0.950 . S
H469 C475 0.950 . S
H470 C476 0.949 . S
C471 H466 0.950 . S
C471 C473 1.327 . S
C471 C477 1.429 . S
C472 C464 1.574 . S
C472 H467 0.949 . S
C472 C478 1.368 . S
C473 C457 1.349 . S
C473 H465 0.950 . S
C473 C471 1.327 . S
C474 C462 1.349 . S
C474 H468 0.950 . S
C474 C475 1.327 . S
C475 H469 0.950 . S
C475 C474 1.327 . S
C475 C479 1.429 . S
C476 C459 1.574 . S
C476 H470 0.949 . S
C476 C480 1.368 . S
C477 C458 1.429 . S
C477 C471 1.429 . S
C477 C478 1.523 . S
C478 C459 1.368 . S
C478 C472 1.368 . S
C478 C477 1.523 . S
C479 C463 1.429 . S
C479 C475 1.429 . S
C479 C480 1.523 . S
C480 C464 1.368 . S
C480 C476 1.368 . S
C480 C479 1.523 . S
H481 C456 0.950 . S
H482 C458 0.950 . S
H483 C459 0.949 . S
H484 C461 0.950 . S
H485 C463 0.950 . S
C486 C487 1.349 . S
C486 C488 1.327 . S
C486 H511 0.950 . S
C487 C486 1.349 . S
C487 C503 1.349 . S
C488 C486 1.327 . S
C488 C507 1.429 . S
C488 H512 0.950 . S
C489 C506 1.574 . S
C489 C508 1.368 . S
C489 H513 0.949 . S
H490 C494 0.949 . S
C491 C492 1.349 . S
C491 C493 1.327 . S
C491 H514 0.950 . S
C492 C491 1.349 . S
C492 C504 1.349 . S
C493 C491 1.327 . S
C493 C509 1.429 . S
C493 H515 0.950 . S
C494 H490 0.949 . S
C494 C502 1.574 . S
C494 C510 1.368 . S
H495 C503 0.950 . S
H496 C501 0.950 . S
H497 C502 0.949 . S
H498 C504 0.950 . S
H499 C505 0.950 . S
H500 C506 0.949 . S
C501 H496 0.950 . S
C501 C503 1.327 . S
C501 C507 1.429 . S
C502 C494 1.574 . S
C502 H497 0.949 . S
C502 C508 1.368 . S
C503 C487 1.349 . S
C503 H495 0.950 . S
C503 C501 1.327 . S
C504 C492 1.349 . S
C504 H498 0.950 . S
C504 C505 1.327 . S
C505 H499 0.950 . S
C505 C504 1.327 . S
C505 C509 1.429 . S
C506 C489 1.574 . S
C506 H500 0.949 . S
C506 C510 1.368 . S
C507 C488 1.429 . S
C507 C501 1.429 . S
C507 C508 1.523 . S
C508 C489 1.368 . S
C508 C502 1.368 . S
C508 C507 1.523 . S
C509 C493 1.429 . S
C509 C505 1.429 . S
C509 C510 1.523 . S
C510 C494 1.368 . S
C510 C506 1.368 . S
C510 C509 1.523 . S
H511 C486 0.950 . S
H512 C488 0.950 . S
H513 C489 0.949 . S
H514 C491 0.950 . S
H515 C493 0.950 . S
C516 C517 1.349 . S
C516 C518 1.327 . S
C516 H541 0.950 . S
C517 C516 1.349 . S
C517 C533 1.349 . S
C518 C516 1.327 . S
C518 C537 1.429 . S
C518 H542 0.950 . S
C519 C536 1.574 . S
C519 C538 1.368 . S
C519 H543 0.949 . S
H520 C524 0.949 . S
C521 C522 1.349 . S
C521 C523 1.327 . S
C521 H544 0.950 . S
C522 C521 1.349 . S
C522 C534 1.349 . S
C523 C521 1.327 . S
C523 C539 1.429 . S
C523 H545 0.950 . S
C524 H520 0.949 . S
C524 C532 1.574 . S
C524 C540 1.368 . S
H525 C533 0.950 . S
H526 C531 0.950 . S
H527 C532 0.949 . S
H528 C534 0.950 . S
H529 C535 0.950 . S
H530 C536 0.949 . S
C531 H526 0.950 . S
C531 C533 1.327 . S
C531 C537 1.429 . S
C532 C524 1.574 . S
C532 H527 0.949 . S
C532 C538 1.368 . S
C533 C517 1.349 . S
C533 H525 0.950 . S
C533 C531 1.327 . S
C534 C522 1.349 . S
C534 H528 0.950 . S
C534 C535 1.327 . S
C535 H529 0.950 . S
C535 C534 1.327 . S
C535 C539 1.429 . S
C536 C519 1.574 . S
C536 H530 0.949 . S
C536 C540 1.368 . S
C537 C518 1.429 . S
C537 C531 1.429 . S
C537 C538 1.523 . S
C538 C519 1.368 . S
C538 C532 1.368 . S
C538 C537 1.523 . S
C539 C523 1.429 . S
C539 C535 1.429 . S
C539 C540 1.523 . S
C540 C524 1.368 . S
C540 C536 1.368 . S
C540 C539 1.523 . S
H541 C516 0.950 . S
H542 C518 0.950 . S
H543 C519 0.949 . S
H544 C521 0.950 . S
H545 C523 0.950 . S
C546 C547 1.349 . S
C546 C548 1.327 . S
C546 H571 0.950 . S
C547 C546 1.349 . S
C547 C563 1.349 . S
C548 C546 1.327 . S
C548 C567 1.429 . S
C548 H572 0.950 . S
C549 C566 1.574 . S
C549 C568 1.368 . S
C549 H573 0.949 . S
H550 C554 0.949 . S
C551 C552 1.349 . S
C551 C553 1.327 . S
C551 H574 0.950 . S
C552 C551 1.349 . S
C552 C564 1.349 . S
C553 C551 1.327 . S
C553 C569 1.429 . S
C553 H575 0.950 . S
C554 H550 0.949 . S
C554 C562 1.574 . S
C554 C570 1.368 . S
H555 C563 0.950 . S
H556 C561 0.950 . S
H557 C562 0.949 . S
H558 C564 0.950 . S
H559 C565 0.950 . S
H560 C566 0.949 . S
C561 H556 0.950 . S
C561 C563 1.327 . S
C561 C567 1.429 . S
C562 C554 1.574 . S
C562 H557 0.949 . S
C562 C568 1.368 . S
C563 C547 1.349 . S
C563 H555 0.950 . S
C563 C561 1.327 . S
C564 C552 1.349 . S
C564 H558 0.950 . S
C564 C565 1.327 . S
C565 H559 0.950 . S
C565 C564 1.327 . S
C565 C569 1.429 . S
C566 C549 1.574 . S
C566 H560 0.949 . S
C566 C570 1.368 . S
C567 C548 1.429 . S
C567 C561 1.429 . S
C567 C568 1.523 . S
C568 C549 1.368 . S
C568 C562 1.368 . S
C568 C567 1.523 . S
C569 C553 1.429 . S
C569 C565 1.429 . S
C569 C570 1.523 . S
C570 C554 1.368 . S
C570 C566 1.368 . S
C570 C569 1.523 . S
H571 C546 0.950 . S
H572 C548 0.950 . S
H573 C549 0.949 . S
H574 C551 0.950 . S
H575 C553 0.950 . S
C576 C577 1.349 . S
C576 C578 1.327 . S
C576 H601 0.950 . S
C577 C576 1.349 . S
C577 C593 1.349 . S
C578 C576 1.327 . S
C578 C597 1.429 . S
C578 H602 0.950 . S
C579 C596 1.574 . S
C579 C598 1.368 . S
C579 H603 0.949 . S
H580 C584 0.949 . S
C581 C582 1.349 . S
C581 C583 1.327 . S
C581 H604 0.950 . S
C582 C581 1.349 . S
C582 C594 1.349 . S
C583 C581 1.327 . S
C583 C599 1.429 . S
C583 H605 0.950 . S
C584 H580 0.949 . S
C584 C592 1.574 . S
C584 C600 1.368 . S
H585 C593 0.950 . S
H586 C591 0.950 . S
H587 C592 0.949 . S
H588 C594 0.950 . S
H589 C595 0.950 . S
H590 C596 0.949 . S
C591 H586 0.950 . S
C591 C593 1.327 . S
C591 C597 1.429 . S
C592 C584 1.574 . S
C592 H587 0.949 . S
C592 C598 1.368 . S
C593 C577 1.349 . S
C593 H585 0.950 . S
C593 C591 1.327 . S
C594 C582 1.349 . S
C594 H588 0.950 . S
C594 C595 1.327 . S
C595 H589 0.950 . S
C595 C594 1.327 . S
C595 C599 1.429 . S
C596 C579 1.574 . S
C596 H590 0.949 . S
C596 C600 1.368 . S
C597 C578 1.429 . S
C597 C591 1.429 . S
C597 C598 1.523 . S
C598 C579 1.368 . S
C598 C592 1.368 . S
C598 C597 1.523 . S
C599 C583 1.429 . S
C599 C595 1.429 . S
C599 C600 1.523 . S
C600 C584 1.368 . S
C600 C596 1.368 . S
C600 C599 1.523 . S
H601 C576 0.950 . S
H602 C578 0.950 . S
H603 C579 0.949 . S
H604 C581 0.950 . S
H605 C583 0.950 . S
C606 C607 1.349 . S
C606 C608 1.327 . S
C606 H631 0.950 . S
C607 C606 1.349 . S
C607 C623 1.349 . S
C608 C606 1.327 . S
C608 C627 1.429 . S
C608 H632 0.950 . S
C609 C626 1.574 . S
C609 C628 1.368 . S
C609 H633 0.949 . S
H610 C614 0.949 . S
C611 C612 1.349 . S
C611 C613 1.327 . S
C611 H634 0.950 . S
C612 C611 1.349 . S
C612 C624 1.349 . S
C613 C611 1.327 . S
C613 C629 1.429 . S
C613 H635 0.950 . S
C614 H610 0.949 . S
C614 C622 1.574 . S
C614 C630 1.368 . S
H615 C623 0.950 . S
H616 C621 0.950 . S
H617 C622 0.949 . S
H618 C624 0.950 . S
H619 C625 0.950 . S
H620 C626 0.949 . S
C621 H616 0.950 . S
C621 C623 1.327 . S
C621 C627 1.429 . S
C622 C614 1.574 . S
C622 H617 0.949 . S
C622 C628 1.368 . S
C623 C607 1.349 . S
C623 H615 0.950 . S
C623 C621 1.327 . S
C624 C612 1.349 . S
C624 H618 0.950 . S
C624 C625 1.327 . S
C625 H619 0.950 . S
C625 C624 1.327 . S
C625 C629 1.429 . S
C626 C609 1.574 . S
C626 H620 0.949 . S
C626 C630 1.368 . S
C627 C608 1.429 . S
C627 C621 1.429 . S
C627 C628 1.523 . S
C628 C609 1.368 . S
C628 C622 1.368 . S
C628 C627 1.523 . S
C629 C613 1.429 . S
C629 C625 1.429 . S
C629 C630 1.523 . S
C630 C614 1.368 . S
C630 C626 1.368 . S
C630 C629 1.523 . S
H631 C606 0.950 . S
H632 C608 0.950 . S
H633 C609 0.949 . S
H634 C611 0.950 . S
H635 C613 0.950 . S
C636 C637 1.349 . S
C636 C638 1.327 . S
C636 H661 0.950 . S
C637 C636 1.349 . S
C637 C653 1.349 . S
C638 C636 1.327 . S
C638 C657 1.429 . S
C638 H662 0.950 . S
C639 C656 1.574 . S
C639 C658 1.368 . S
C639 H663 0.949 . S
H640 C644 0.949 . S
C641 C642 1.349 . S
C641 C643 1.327 . S
C641 H664 0.950 . S
C642 C641 1.349 . S
C642 C654 1.349 . S
C643 C641 1.327 . S
C643 C659 1.429 . S
C643 H665 0.950 . S
C644 H640 0.949 . S
C644 C652 1.574 . S
C644 C660 1.368 . S
H645 C653 0.950 . S
H646 C651 0.950 . S
H647 C652 0.949 . S
H648 C654 0.950 . S
H649 C655 0.950 . S
H650 C656 0.949 . S
C651 H646 0.950 . S
C651 C653 1.327 . S
C651 C657 1.429 . S
C652 C644 1.574 . S
C652 H647 0.949 . S
C652 C658 1.368 . S
C653 C637 1.349 . S
C653 H645 0.950 . S
C653 C651 1.327 . S
C654 C642 1.349 . S
C654 H648 0.950 . S
C654 C655 1.327 . S
C655 H649 0.950 . S
C655 C654 1.327 . S
C655 C659 1.429 . S
C656 C639 1.574 . S
C656 H650 0.949 . S
C656 C660 1.368 . S
C657 C638 1.429 . S
C657 C651 1.429 . S
C657 C658 1.523 . S
C658 C639 1.368 . S
C658 C652 1.368 . S
C658 C657 1.523 . S
C659 C643 1.429 . S
C659 C655 1.429 . S
C659 C660 1.523 . S
C660 C644 1.368 . S
C660 C656 1.368 . S
C660 C659 1.523 . S
H661 C636 0.950 . S
H662 C638 0.950 . S
H663 C639 0.949 . S
H664 C641 0.950 . S
H665 C643 0.950 . S
C666 C667 1.349 . S
C666 C668 1.327 . S
C666 H691 0.950 . S
C667 C666 1.349 . S
C667 C683 1.349 . S
C668 C666 1.327 . S
C668 C687 1.429 . S
C668 H692 0.950 . S
C669 C686 1.574 . S
C669 C688 1.368 . S
C669 H693 0.949 . S
H670 C674 0.949 . S
C671 C672 1.349 . S
C671 C673 1.327 . S
C671 H694 0.950 . S
C672 C671 1.349 . S
C672 C684 1.349 . S
C673 C671 1.327 . S
C673 C689 1.429 . S
C673 H695 0.950 . S
C674 H670 0.949 . S
C674 C682 1.574 . S
C674 C690 1.368 . S
H675 C683 0.950 . S
H676 C681 0.950 . S
H677 C682 0.949 . S
H678 C684 0.950 . S
H679 C685 0.950 . S
H680 C686 0.949 . S
C681 H676 0.950 . S
C681 C683 1.327 . S
C681 C687 1.429 . S
C682 C674 1.574 . S
C682 H677 0.949 . S
C682 C688 1.368 . S
C683 C667 1.349 . S
C683 H675 0.950 . S
C683 C681 1.327 . S
C684 C672 1.349 . S
C684 H678 0.950 . S
C684 C685 1.327 . S
C685 H679 0.950 . S
C685 C684 1.327 . S
C685 C689 1.429 . S
C686 C669 1.574 . S
C686 H680 0.949 . S
C686 C690 1.368 . S
C687 C668 1.429 . S
C687 C681 1.429 . S
C687 C688 1.523 . S
C688 C669 1.368 . S
C688 C682 1.368 . S
C688 C687 1.523 . S
C689 C673 1.429 . S
C689 C685 1.429 . S
C689 C690 1.523 . S
C690 C674 1.368 . S
C690 C686 1.368 . S
C690 C689 1.523 . S
H691 C666 0.950 . S
H692 C668 0.950 . S
H693 C669 0.949 . S
H694 C671 0.950 . S
H695 C673 0.950 . S
C696 C697 1.349 . S
C696 C698 1.327 . S
C696 H721 0.950 . S
C697 C696 1.349 . S
C697 C713 1.349 . S
C698 C696 1.327 . S
C698 C717 1.429 . S
C698 H722 0.950 . S
C699 C716 1.574 . S
C699 C718 1.368 . S
C699 H723 0.949 . S
H700 C704 0.949 . S
C701 C702 1.349 . S
C701 C703 1.327 . S
C701 H724 0.950 . S
C702 C701 1.349 . S
C702 C714 1.349 . S
C703 C701 1.327 . S
C703 C719 1.429 . S
C703 H725 0.950 . S
C704 H700 0.949 . S
C704 C712 1.574 . S
C704 C720 1.368 . S
H705 C713 0.950 . S
H706 C711 0.950 . S
H707 C712 0.949 . S
H708 C714 0.950 . S
H709 C715 0.950 . S
H710 C716 0.949 . S
C711 H706 0.950 . S
C711 C713 1.327 . S
C711 C717 1.429 . S
C712 C704 1.574 . S
C712 H707 0.949 . S
C712 C718 1.368 . S
C713 C697 1.349 . S
C713 H705 0.950 . S
C713 C711 1.327 . S
C714 C702 1.349 . S
C714 H708 0.950 . S
C714 C715 1.327 . S
C715 H709 0.950 . S
C715 C714 1.327 . S
C715 C719 1.429 . S
C716 C699 1.574 . S
C716 H710 0.949 . S
C716 C720 1.368 . S
C717 C698 1.429 . S
C717 C711 1.429 . S
C717 C718 1.523 . S
C718 C699 1.368 . S
C718 C712 1.368 . S
C718 C717 1.523 . S
C719 C703 1.429 . S
C719 C715 1.429 . S
C719 C720 1.523 . S
C720 C704 1.368 . S
C720 C716 1.368 . S
C720 C719 1.523 . S
H721 C696 0.950 . S
H722 C698 0.950 . S
H723 C699 0.949 . S
H724 C701 0.950 . S
H725 C703 0.950 . S
C726 C727 1.349 . S
C726 C728 1.327 . S
C726 H751 0.950 . S
C727 C726 1.349 . S
C727 C743 1.349 . S
C728 C726 1.327 . S
C728 C747 1.429 . S
C728 H752 0.950 . S
C729 C746 1.574 . S
C729 C748 1.368 . S
C729 H753 0.949 . S
H730 C734 0.949 . S
C731 C732 1.349 . S
C731 C733 1.327 . S
C731 H754 0.950 . S
C732 C731 1.349 . S
C732 C744 1.349 . S
C733 C731 1.327 . S
C733 C749 1.429 . S
C733 H755 0.950 . S
C734 H730 0.949 . S
C734 C742 1.574 . S
C734 C750 1.368 . S
H735 C743 0.950 . S
H736 C741 0.950 . S
H737 C742 0.949 . S
H738 C744 0.950 . S
H739 C745 0.950 . S
H740 C746 0.949 . S
C741 H736 0.950 . S
C741 C743 1.327 . S
C741 C747 1.429 . S
C742 C734 1.574 . S
C742 H737 0.949 . S
C742 C748 1.368 . S
C743 C727 1.349 . S
C743 H735 0.950 . S
C743 C741 1.327 . S
C744 C732 1.349 . S
C744 H738 0.950 . S
C744 C745 1.327 . S
C745 H739 0.950 . S
C745 C744 1.327 . S
C745 C749 1.429 . S
C746 C729 1.574 . S
C746 H740 0.949 . S
C746 C750 1.368 . S
C747 C728 1.429 . S
C747 C741 1.429 . S
C747 C748 1.523 . S
C748 C729 1.368 . S
C748 C742 1.368 . S
C748 C747 1.523 . S
C749 C733 1.429 . S
C749 C745 1.429 . S
C749 C750 1.523 . S
C750 C734 1.368 . S
C750 C746 1.368 . S
C750 C749 1.523 . S
H751 C726 0.950 . S
H752 C728 0.950 . S
H753 C729 0.949 . S
H754 C731 0.950 . S
H755 C733 0.950 . S
C756 C757 1.349 . S
C756 C758 1.327 . S
C756 H781 0.950 . S
C757 C756 1.349 . S
C757 C773 1.349 . S
C758 C756 1.327 . S
C758 C777 1.429 . S
C758 H782 0.950 . S
C759 C776 1.574 . S
C759 C778 1.368 . S
C759 H783 0.949 . S
H760 C764 0.949 . S
C761 C762 1.349 . S
C761 C763 1.327 . S
C761 H784 0.950 . S
C762 C761 1.349 . S
C762 C774 1.349 . S
C763 C761 1.327 . S
C763 C779 1.429 . S
C763 H785 0.950 . S
C764 H760 0.949 . S
C764 C772 1.574 . S
C764 C780 1.368 . S
H765 C773 0.950 . S
H766 C771 0.950 . S
H767 C772 0.949 . S
H768 C774 0.950 . S
H769 C775 0.950 . S
H770 C776 0.949 . S
C771 H766 0.950 . S
C771 C773 1.327 . S
C771 C777 1.429 . S
C772 C764 1.574 . S
C772 H767 0.949 . S
C772 C778 1.368 . S
C773 C757 1.349 . S
C773 H765 0.950 . S
C773 C771 1.327 . S
C774 C762 1.349 . S
C774 H768 0.950 . S
C774 C775 1.327 . S
C775 H769 0.950 . S
C775 C774 1.327 . S
C775 C779 1.429 . S
C776 C759 1.574 . S
C776 H770 0.949 . S
C776 C780 1.368 . S
C777 C758 1.429 . S
C777 C771 1.429 . S
C777 C778 1.523 . S
C778 C759 1.368 . S
C778 C772 1.368 . S
C778 C777 1.523 . S
C779 C763 1.429 . S
C779 C775 1.429 . S
C779 C780 1.523 . S
C780 C764 1.368 . S
C780 C776 1.368 . S
C780 C779 1.523 . S
H781 C756 0.950 . S
H782 C758 0.950 . S
H783 C759 0.949 . S
H784 C761 0.950 . S
H785 C763 0.950 . S
C786 C787 1.349 . S
C786 C788 1.327 . S
C786 H811 0.950 . S
C787 C786 1.349 . S
C787 C803 1.349 . S
C788 C786 1.327 . S
C788 C807 1.429 . S
C788 H812 0.950 . S
C789 C806 1.574 . S
C789 C808 1.368 . S
C789 H813 0.949 . S
H790 C794 0.949 . S
C791 C792 1.349 . S
C791 C793 1.327 . S
C791 H814 0.950 . S
C792 C791 1.349 . S
C792 C804 1.349 . S
C793 C791 1.327 . S
C793 C809 1.429 . S
C793 H815 0.950 . S
C794 H790 0.949 . S
C794 C802 1.574 . S
C794 C810 1.368 . S
H795 C803 0.950 . S
H796 C801 0.950 . S
H797 C802 0.949 . S
H798 C804 0.950 . S
H799 C805 0.950 . S
H800 C806 0.949 . S
C801 H796 0.950 . S
C801 C803 1.327 . S
C801 C807 1.429 . S
C802 C794 1.574 . S
C802 H797 0.949 . S
C802 C808 1.368 . S
C803 C787 1.349 . S
C803 H795 0.950 . S
C803 C801 1.327 . S
C804 C792 1.349 . S
C804 H798 0.950 . S
C804 C805 1.327 . S
C805 H799 0.950 . S
C805 C804 1.327 . S
C805 C809 1.429 . S
C806 C789 1.574 . S
C806 H800 0.949 . S
C806 C810 1.368 . S
C807 C788 1.429 . S
C807 C801 1.429 . S
C807 C808 1.523 . S
C808 C789 1.368 . S
C808 C802 1.368 . S
C808 C807 1.523 . S
C809 C793 1.429 . S
C809 C805 1.429 . S
C809 C810 1.523 . S
C810 C794 1.368 . S
C810 C806 1.368 . S
C810 C809 1.523 . S
H811 C786 0.950 . S
H812 C788 0.950 . S
H813 C789 0.949 . S
H814 C791 0.950 . S
H815 C793 0.950 . S
C816 C817 1.349 . S
C816 C818 1.327 . S
C816 H841 0.950 . S
C817 C816 1.349 . S
C817 C833 1.349 . S
C818 C816 1.327 . S
C818 C837 1.429 . S
C818 H842 0.950 . S
C819 C836 1.574 . S
C819 C838 1.368 . S
C819 H843 0.949 . S
H820 C824 0.949 . S
C821 C822 1.349 . S
C821 C823 1.327 . S
C821 H844 0.950 . S
C822 C821 1.349 . S
C822 C834 1.349 . S
C823 C821 1.327 . S
C823 C839 1.429 . S
C823 H845 0.950 . S
C824 H820 0.949 . S
C824 C832 1.574 . S
C824 C840 1.368 . S
H825 C833 0.950 . S
H826 C831 0.950 . S
H827 C832 0.949 . S
H828 C834 0.950 . S
H829 C835 0.950 . S
H830 C836 0.949 . S
C831 H826 0.950 . S
C831 C833 1.327 . S
C831 C837 1.429 . S
C832 C824 1.574 . S
C832 H827 0.949 . S
C832 C838 1.368 . S
C833 C817 1.349 . S
C833 H825 0.950 . S
C833 C831 1.327 . S
C834 C822 1.349 . S
C834 H828 0.950 . S
C834 C835 1.327 . S
C835 H829 0.950 . S
C835 C834 1.327 . S
C835 C839 1.429 . S
C836 C819 1.574 . S
C836 H830 0.949 . S
C836 C840 1.368 . S
C837 C818 1.429 . S
C837 C831 1.429 . S
C837 C838 1.523 . S
C838 C819 1.368 . S
C838 C832 1.368 . S
C838 C837 1.523 . S
C839 C823 1.429 . S
C839 C835 1.429 . S
C839 C840 1.523 . S
C840 C824 1.368 . S
C840 C836 1.368 . S
C840 C839 1.523 . S
H841 C816 0.950 . S
H842 C818 0.950 . S
H843 C819 0.949 . S
H844 C821 0.950 . S
H845 C823 0.950 . S
C846 C847 1.349 . S
C846 C848 1.327 . S
C846 H871 0.950 . S
C847 C846 1.349 . S
C847 C863 1.349 . S
C848 C846 1.327 . S
C848 C867 1.429 . S
C848 H872 0.950 . S
C849 C866 1.574 . S
C849 C868 1.368 . S
C849 H873 0.949 . S
H850 C854 0.949 . S
C851 C852 1.349 . S
C851 C853 1.327 . S
C851 H874 0.950 . S
C852 C851 1.349 . S
C852 C864 1.349 . S
C853 C851 1.327 . S
C853 C869 1.429 . S
C853 H875 0.950 . S
C854 H850 0.949 . S
C854 C862 1.574 . S
C854 C870 1.368 . S
H855 C863 0.950 . S
H856 C861 0.950 . S
H857 C862 0.949 . S
H858 C864 0.950 . S
H859 C865 0.950 . S
H860 C866 0.949 . S
C861 H856 0.950 . S
C861 C863 1.327 . S
C861 C867 1.429 . S
C862 C854 1.574 . S
C862 H857 0.949 . S
C862 C868 1.368 . S
C863 C847 1.349 . S
C863 H855 0.950 . S
C863 C861 1.327 . S
C864 C852 1.349 . S
C864 H858 0.950 . S
C864 C865 1.327 . S
C865 H859 0.950 . S
C865 C864 1.327 . S
C865 C869 1.429 . S
C866 C849 1.574 . S
C866 H860 0.949 . S
C866 C870 1.368 . S
C867 C848 1.429 . S
C867 C861 1.429 . S
C867 C868 1.523 . S
C868 C849 1.368 . S
C868 C862 1.368 . S
C868 C867 1.523 . S
C869 C853 1.429 . S
C869 C865 1.429 . S
C869 C870 1.523 . S
C870 C854 1.368 . S
C870 C866 1.368 . S
C870 C869 1.523 . S
H871 C846 0.950 . S
H872 C848 0.950 . S
H873 C849 0.949 . S
H874 C851 0.950 . S
H875 C853 0.950 . S
C876 C877 1.349 . S
C876 C878 1.327 . S
C876 H901 0.950 . S
C877 C876 1.349 . S
C877 C893 1.349 . S
C878 C876 1.327 . S
C878 C897 1.429 . S
C878 H902 0.950 . S
C879 C896 1.574 . S
C879 C898 1.368 . S
C879 H903 0.949 . S
H880 C884 0.949 . S
C881 C882 1.349 . S
C881 C883 1.327 . S
C881 H904 0.950 . S
C882 C881 1.349 . S
C882 C894 1.349 . S
C883 C881 1.327 . S
C883 C899 1.429 . S
C883 H905 0.950 . S
C884 H880 0.949 . S
C884 C892 1.574 . S
C884 C900 1.368 . S
H885 C893 0.950 . S
H886 C891 0.950 . S
H887 C892 0.949 . S
H888 C894 0.950 . S
H889 C895 0.950 . S
H890 C896 0.949 . S
C891 H886 0.950 . S
C891 C893 1.327 . S
C891 C897 1.429 . S
C892 C884 1.574 . S
C892 H887 0.949 . S
C892 C898 1.368 . S
C893 C877 1.349 . S
C893 H885 0.950 . S
C893 C891 1.327 . S
C894 C882 1.349 . S
C894 H888 0.950 . S
C894 C895 1.327 . S
C895 H889 0.950 . S
C895 C894 1.327 . S
C895 C899 1.429 . S
C896 C879 1.574 . S
C896 H890 0.949 . S
C896 C900 1.368 . S
C897 C878 1.429 . S
C897 C891 1.429 . S
C897 C898 1.523 . S
C898 C879 1.368 . S
C898 C892 1.368 . S
C898 C897 1.523 . S
C899 C883 1.429 . S
C899 C895 1.429 . S
C899 C900 1.523 . S
C900 C884 1.368 . S
C900 C896 1.368 . S
C900 C899 1.523 . S
H901 C876 0.950 . S
H902 C878 0.950 . S
H903 C879 0.949 . S
H904 C881 0.950 . S
H905 C883 0.950 . S
C906 C907 1.349 . S
C906 C908 1.327 . S
C906 H931 0.950 . S
C907 C906 1.349 . S
C907 C923 1.349 . S
C908 C906 1.327 . S
C908 C927 1.429 . S
C908 H932 0.950 . S
C909 C926 1.574 . S
C909 C928 1.368 . S
C909 H933 0.949 . S
H910 C914 0.949 . S
C911 C912 1.349 . S
C911 C913 1.327 . S
C911 H934 0.950 . S
C912 C911 1.349 . S
C912 C924 1.349 . S
C913 C911 1.327 . S
C913 C929 1.429 . S
C913 H935 0.950 . S
C914 H910 0.949 . S
C914 C922 1.574 . S
C914 C930 1.368 . S
H915 C923 0.950 . S
H916 C921 0.950 . S
H917 C922 0.949 . S
H918 C924 0.950 . S
H919 C925 0.950 . S
H920 C926 0.949 . S
C921 H916 0.950 . S
C921 C923 1.327 . S
C921 C927 1.429 . S
C922 C914 1.574 . S
C922 H917 0.949 . S
C922 C928 1.368 . S
C923 C907 1.349 . S
C923 H915 0.950 . S
C923 C921 1.327 . S
C924 C912 1.349 . S
C924 H918 0.950 . S
C924 C925 1.327 . S
C925 H919 0.950 . S
C925 C924 1.327 . S
C925 C929 1.429 . S
C926 C909 1.574 . S
C926 H920 0.949 . S
C926 C930 1.368 . S
C927 C908 1.429 . S
C927 C921 1.429 . S
C927 C928 1.523 . S
C928 C909 1.368 . S
C928 C922 1.368 . S
C928 C927 1.523 . S
C929 C913 1.429 . S
C929 C925 1.429 . S
C929 C930 1.523 . S
C930 C914 1.368 . S
C930 C926 1.368 . S
C930 C929 1.523 . S
H931 C906 0.950 . S
H932 C908 0.950 . S
H933 C909 0.949 . S
H934 C911 0.950 . S
H935 C913 0.950 . S
C936 C937 1.349 . S
C936 C938 1.327 . S
C936 H961 0.950 . S
C937 C936 1.349 . S
C937 C953 1.349 . S
C938 C936 1.327 . S
C938 C957 1.429 . S
C938 H962 0.950 . S
C939 C956 1.574 . S
C939 C958 1.368 . S
C939 H963 0.949 . S
H940 C944 0.949 . S
C941 C942 1.349 . S
C941 C943 1.327 . S
C941 H964 0.950 . S
C942 C941 1.349 . S
C942 C954 1.349 . S
C943 C941 1.327 . S
C943 C959 1.429 . S
C943 H965 0.950 . S
C944 H940 0.949 . S
C944 C952 1.574 . S
C944 C960 1.368 . S
H945 C953 0.950 . S
H946 C951 0.950 . S
H947 C952 0.949 . S
H948 C954 0.950 . S
H949 C955 0.950 . S
H950 C956 0.949 . S
C951 H946 0.950 . S
C951 C953 1.327 . S
C951 C957 1.429 . S
C952 C944 1.574 . S
C952 H947 0.949 . S
C952 C958 1.368 . S
C953 C937 1.349 . S
C953 H945 0.950 . S
C953 C951 1.327 . S
C954 C942 1.349 . S
C954 H948 0.950 . S
C954 C955 1.327 . S
C955 H949 0.950 . S
C955 C954 1.327 . S
C955 C959 1.429 . S
C956 C939 1.574 . S
C956 H950 0.949 . S
C956 C960 1.368 . S
C957 C938 1.429 . S
C957 C951 1.429 . S
C957 C958 1.523 . S
C958 C939 1.368 . S
C958 C952 1.368 . S
C958 C957 1.523 . S
C959 C943 1.429 . S
C959 C955 1.429 . S
C959 C960 1.523 . S
C960 C944 1.368 . S
C960 C956 1.368 . S
C960 C959 1.523 . S
H961 C936 0.950 . S
H962 C938 0.950 . S
H963 C939 0.949 . S
H964 C941 0.950 . S
H965 C943 0.950 . S
C966 C967 1.349 . S
C966 C968 1.327 . S
C966 H991 0.950 . S
C967 C966 1.349 . S
C967 C983 1.349 . S
C968 C966 1.327 . S
C968 C987 1.429 . S
C968 H992 0.950 . S
C969 C986 1.574 . S
C969 C988 1.368 . S
C969 H993 0.949 . S
H970 C974 0.949 . S
C971 C972 1.349 . S
C971 C973 1.327 . S
C971 H994 0.950 . S
C972 C971 1.349 . S
C972 C984 1.349 . S
C973 C971 1.327 . S
C973 C989 1.429 . S
C973 H995 0.950 . S
C974 H970 0.949 . S
C974 C982 1.574 . S
C974 C990 1.368 . S
H975 C983 0.950 . S
H976 C981 0.950 . S
H977 C982 0.949 . S
H978 C984 0.950 . S
H979 C985 0.950 . S
H980 C986 0.949 . S
C981 H976 0.950 . S
C981 C983 1.327 . S
C981 C987 1.429 . S
C982 C974 1.574 . S
C982 H977 0.949 . S
C982 C988 1.368 . S
C983 C967 1.349 . S
C983 H975 0.950 . S
C983 C981 1.327 . S
C984 C972 1.349 . S
C984 H978 0.950 . S
C984 C985 1.327 . S
C985 H979 0.950 . S
C985 C984 1.327 . S
C985 C989 1.429 . S
C986 C969 1.574 . S
C986 H980 0.949 . S
C986 C990 1.368 . S
C987 C968 1.429 . S
C987 C981 1.429 . S
C987 C988 1.523 . S
C988 C969 1.368 . S
C988 C982 1.368 . S
C988 C987 1.523 . S
C989 C973 1.429 . S
C989 C985 1.429 . S
C989 C990 1.523 . S
C990 C974 1.368 . S
C990 C986 1.368 . S
C990 C989 1.523 . S
H991 C966 0.950 . S
H992 C968 0.950 . S
H993 C969 0.949 . S
H994 C971 0.950 . S
H995 C973 0.950 . S
C996 C997 1.349 . S
C996 C998 1.327 . S
C996 H1021 0.950 . S
C997 C996 1.349 . S
C997 C1013 1.349 . S
C998 C996 1.327 . S
C998 C1017 1.429 . S
C998 H1022 0.950 . S
C999 C1016 1.574 . S
C999 C1018 1.368 . S
C999 H1023 0.949 . S
H1000 C1004 0.949 . S
C1001 C1002 1.349 . S
C1001 C1003 1.327 . S
C1001 H1024 0.950 . S
C1002 C1001 1.349 . S
C1002 C1014 1.349 . S
C1003 C1001 1.327 . S
C1003 C1019 1.429 . S
C1003 H1025 0.950 . S
C1004 H1000 0.949 . S
C1004 C1012 1.574 . S
C1004 C1020 1.368 . S
H1005 C1013 0.950 . S
H1006 C1011 0.950 . S
H1007 C1012 0.949 . S
H1008 C1014 0.950 . S
H1009 C1015 0.950 . S
H1010 C1016 0.949 . S
C1011 H1006 0.950 . S
C1011 C1013 1.327 . S
C1011 C1017 1.429 . S
C1012 C1004 1.574 . S
C1012 H1007 0.949 . S
C1012 C1018 1.368 . S
C1013 C997 1.349 . S
C1013 H1005 0.950 . S
C1013 C1011 1.327 . S
C1014 C1002 1.349 . S
C1014 H1008 0.950 . S
C1014 C1015 1.327 . S
C1015 H1009 0.950 . S
C1015 C1014 1.327 . S
C1015 C1019 1.429 . S
C1016 C999 1.574 . S
C1016 H1010 0.949 . S
C1016 C1020 1.368 . S
C1017 C998 1.429 . S
C1017 C1011 1.429 . S
C1017 C1018 1.523 . S
C1018 C999 1.368 . S
C1018 C1012 1.368 . S
C1018 C1017 1.523 . S
C1019 C1003 1.429 . S
C1019 C1015 1.429 . S
C1019 C1020 1.523 . S
C1020 C1004 1.368 . S
C1020 C1016 1.368 . S
C1020 C1019 1.523 . S
H1021 C996 0.950 . S
H1022 C998 0.950 . S
H1023 C999 0.949 . S
H1024 C1001 0.950 . S
H1025 C1003 0.950 . S
C1026 C1027 1.349 . S
C1026 C1028 1.327 . S
C1026 H1051 0.950 . S
C1027 C1026 1.349 . S
C1027 C1043 1.349 . S
C1028 C1026 1.327 . S
C1028 C1047 1.429 . S
C1028 H1052 0.950 . S
C1029 C1046 1.574 . S
C1029 C1048 1.368 . S
C1029 H1053 0.949 . S
H1030 C1034 0.949 . S
C1031 C1032 1.349 . S
C1031 C1033 1.327 . S
C1031 H1054 0.950 . S
C1032 C1031 1.349 . S
C1032 C1044 1.349 . S
C1033 C1031 1.327 . S
C1033 C1049 1.429 . S
C1033 H1055 0.950 . S
C1034 H1030 0.949 . S
C1034 C1042 1.574 . S
C1034 C1050 1.368 . S
H1035 C1043 0.950 . S
H1036 C1041 0.950 . S
H1037 C1042 0.949 . S
H1038 C1044 0.950 . S
H1039 C1045 0.950 . S
H1040 C1046 0.949 . S
C1041 H1036 0.950 . S
C1041 C1043 1.327 . S
C1041 C1047 1.429 . S
C1042 C1034 1.574 . S
C1042 H1037 0.949 . S
C1042 C1048 1.368 . S
C1043 C1027 1.349 . S
C1043 H1035 0.950 . S
C1043 C1041 1.327 . S
C1044 C1032 1.349 . S
C1044 H1038 0.950 . S
C1044 C1045 1.327 . S
C1045 H1039 0.950 . S
C1045 C1044 1.327 . S
C1045 C1049 1.429 . S
C1046 C1029 1.574 . S
C1046 H1040 0.949 . S
C1046 C1050 1.368 . S
C1047 C1028 1.429 . S
C1047 C1041 1.429 . S
C1047 C1048 1.523 . S
C1048 C1029 1.368 . S
C1048 C1042 1.368 . S
C1048 C1047 1.523 . S
C1049 C1033 1.429 . S
C1049 C1045 1.429 . S
C1049 C1050 1.523 . S
C1050 C1034 1.368 . S
C1050 C1046 1.368 . S
C1050 C1049 1.523 . S
H1051 C1026 0.950 . S
H1052 C1028 0.950 . S
H1053 C1029 0.949 . S
H1054 C1031 0.950 . S
H1055 C1033 0.950 . S
C1056 C1057 1.349 . S
C1056 C1058 1.327 . S
C1056 H1081 0.950 . S
C1057 C1056 1.349 . S
C1057 C1073 1.349 . S
C1058 C1056 1.327 . S
C1058 C1077 1.429 . S
C1058 H1082 0.950 . S
C1059 C1076 1.574 . S
C1059 C1078 1.368 . S
C1059 H1083 0.949 . S
H1060 C1064 0.949 . S
C1061 C1062 1.349 . S
C1061 C1063 1.327 . S
C1061 H1084 0.950 . S
C1062 C1061 1.349 . S
C1062 C1074 1.349 . S
C1063 C1061 1.327 . S
C1063 C1079 1.429 . S
C1063 H1085 0.950 . S
C1064 H1060 0.949 . S
C1064 C1072 1.574 . S
C1064 C1080 1.368 . S
H1065 C1073 0.950 . S
H1066 C1071 0.950 . S
H1067 C1072 0.949 . S
H1068 C1074 0.950 . S
H1069 C1075 0.950 . S
H1070 C1076 0.949 . S
C1071 H1066 0.950 . S
C1071 C1073 1.327 . S
C1071 C1077 1.429 . S
C1072 C1064 1.574 . S
C1072 H1067 0.949 . S
C1072 C1078 1.368 . S
C1073 C1057 1.349 . S
C1073 H1065 0.950 . S
C1073 C1071 1.327 . S
C1074 C1062 1.349 . S
C1074 H1068 0.950 . S
C1074 C1075 1.327 . S
C1075 H1069 0.950 . S
C1075 C1074 1.327 . S
C1075 C1079 1.429 . S
C1076 C1059 1.574 . S
C1076 H1070 0.949 . S
C1076 C1080 1.368 . S
C1077 C1058 1.429 . S
C1077 C1071 1.429 . S
C1077 C1078 1.523 . S
C1078 C1059 1.368 . S
C1078 C1072 1.368 . S
C1078 C1077 1.523 . S
C1079 C1063 1.429 . S
C1079 C1075 1.429 . S
C1079 C1080 1.523 . S
C1080 C1064 1.368 . S
C1080 C1076 1.368 . S
C1080 C1079 1.523 . S
H1081 C1056 0.950 . S
H1082 C1058 0.950 . S
H1083 C1059 0.949 . S
H1084 C1061 0.950 . S
H1085 C1063 0.950 . S
C1086 C1087 1.349 . S
C1086 C1088 1.327 . S
C1086 H1111 0.950 . S
C1087 C1086 1.349 . S
C1087 C1103 1.349 . S
C1088 C1086 1.327 . S
C1088 C1107 1.429 . S
C1088 H1112 0.950 . S
C1089 C1106 1.574 . S
C1089 C1108 1.368 . S
C1089 H1113 0.949 . S
H1090 C1094 0.949 . S
C1091 C1092 1.349 . S
C1091 C1093 1.327 . S
C1091 H1114 0.950 . S
C1092 C1091 1.349 . S
C1092 C1104 1.349 . S
C1093 C1091 1.327 . S
C1093 C1109 1.429 . S
C1093 H1115 0.950 . S
C1094 H1090 0.949 . S
C1094 C1102 1.574 . S
C1094 C1110 1.368 . S
H1095 C1103 0.950 . S
H1096 C1101 0.950 . S
H1097 C1102 0.949 . S
H1098 C1104 0.950 . S
H1099 C1105 0.950 . S
H1100 C1106 0.949 . S
C1101 H1096 0.950 . S
C1101 C1103 1.327 . S
C1101 C1107 1.429 . S
C1102 C1094 1.574 . S
C1102 H1097 0.949 . S
C1102 C1108 1.368 . S
C1103 C1087 1.349 . S
C1103 H1095 0.950 . S
C1103 C1101 1.327 . S
C1104 C1092 1.349 . S
C1104 H1098 0.950 . S
C1104 C1105 1.327 . S
C1105 H1099 0.950 . S
C1105 C1104 1.327 . S
C1105 C1109 1.429 . S
C1106 C1089 1.574 . S
C1106 H1100 0.949 . S
C1106 C1110 1.368 . S
C1107 C1088 1.429 . S
C1107 C1101 1.429 . S
C1107 C1108 1.523 . S
C1108 C1089 1.368 . S
C1108 C1102 1.368 . S
C1108 C1107 1.523 . S
C1109 C1093 1.429 . S
C1109 C1105 1.429 . S
C1109 C1110 1.523 . S
C1110 C1094 1.368 . S
C1110 C1106 1.368 . S
C1110 C1109 1.523 . S
H1111 C1086 0.950 . S
H1112 C1088 0.950 . S
H1113 C1089 0.949 . S
H1114 C1091 0.950 . S
H1115 C1093 0.950 . S
C1116 C1117 1.349 . S
C1116 C1118 1.327 . S
C1116 H1141 0.950 . S
C1117 C1116 1.349 . S
C1117 C1133 1.349 . S
C1118 C1116 1.327 . S
C1118 C1137 1.429 . S
C1118 H1142 0.950 . S
C1119 C1136 1.574 . S
C1119 C1138 1.368 . S
C1119 H1143 0.949 . S
H1120 C1124 0.949 . S
C1121 C1122 1.349 . S
C1121 C1123 1.327 . S
C1121 H1144 0.950 . S
C1122 C1121 1.349 . S
C1122 C1134 1.349 . S
C1123 C1121 1.327 . S
C1123 C1139 1.429 . S
C1123 H1145 0.950 . S
C1124 H1120 0.949 . S
C1124 C1132 1.574 . S
C1124 C1140 1.368 . S
H1125 C1133 0.950 . S
H1126 C1131 0.950 . S
H1127 C1132 0.949 . S
H1128 C1134 0.950 . S
H1129 C1135 0.950 . S
H1130 C1136 0.949 . S
C1131 H1126 0.950 . S
C1131 C1133 1.327 . S
C1131 C1137 1.429 . S
C1132 C1124 1.574 . S
C1132 H1127 0.949 . S
C1132 C1138 1.368 . S
C1133 C1117 1.349 . S
C1133 H1125 0.950 . S
C1133 C1131 1.327 . S
C1134 C1122 1.349 . S
C1134 H1128 0.950 . S
C1134 C1135 1.327 . S
C1135 H1129 0.950 . S
C1135 C1134 1.327 . S
C1135 C1139 1.429 . S
C1136 C1119 1.574 . S
C1136 H1130 0.949 . S
C1136 C1140 1.368 . S
C1137 C1118 1.429 . S
C1137 C1131 1.429 . S
C1137 C1138 1.523 . S
C1138 C1119 1.368 . S
C1138 C1132 1.368 . S
C1138 C1137 1.523 . S
C1139 C1123 1.429 . S
C1139 C1135 1.429 . S
C1139 C1140 1.523 . S
C1140 C1124 1.368 . S
C1140 C1136 1.368 . S
C1140 C1139 1.523 . S
H1141 C1116 0.950 . S
H1142 C1118 0.950 . S
H1143 C1119 0.949 . S
H1144 C1121 0.950 . S
H1145 C1123 0.950 . S
C1146 C1147 1.349 . S
C1146 C1148 1.327 . S
C1146 H1171 0.950 . S
C1147 C1146 1.349 . S
C1147 C1163 1.349 . S
C1148 C1146 1.327 . S
C1148 C1167 1.429 . S
C1148 H1172 0.950 . S
C1149 C1166 1.574 . S
C1149 C1168 1.368 . S
C1149 H1173 0.949 . S
H1150 C1154 0.949 . S
C1151 C1152 1.349 . S
C1151 C1153 1.327 . S
C1151 H1174 0.950 . S
C1152 C1151 1.349 . S
C1152 C1164 1.349 . S
C1153 C1151 1.327 . S
C1153 C1169 1.429 . S
C1153 H1175 0.950 . S
C1154 H1150 0.949 . S
C1154 C1162 1.574 . S
C1154 C1170 1.368 . S
H1155 C1163 0.950 . S
H1156 C1161 0.950 . S
H1157 C1162 0.949 . S
H1158 C1164 0.950 . S
H1159 C1165 0.950 . S
H1160 C1166 0.949 . S
C1161 H1156 0.950 . S
C1161 C1163 1.327 . S
C1161 C1167 1.429 . S
C1162 C1154 1.574 . S
C1162 H1157 0.949 . S
C1162 C1168 1.368 . S
C1163 C1147 1.349 . S
C1163 H1155 0.950 . S
C1163 C1161 1.327 . S
C1164 C1152 1.349 . S
C1164 H1158 0.950 . S
C1164 C1165 1.327 . S
C1165 H1159 0.950 . S
C1165 C1164 1.327 . S
C1165 C1169 1.429 . S
C1166 C1149 1.574 . S
C1166 H1160 0.949 . S
C1166 C1170 1.368 . S
C1167 C1148 1.429 . S
C1167 C1161 1.429 . S
C1167 C1168 1.523 . S
C1168 C1149 1.368 . S
C1168 C1162 1.368 . S
C1168 C1167 1.523 . S
C1169 C1153 1.429 . S
C1169 C1165 1.429 . S
C1169 C1170 1.523 . S
C1170 C1154 1.368 . S
C1170 C1166 1.368 . S
C1170 C1169 1.523 . S
H1171 C1146 0.950 . S
H1172 C1148 0.950 . S
H1173 C1149 0.949 . S
H1174 C1151 0.950 . S
H1175 C1153 0.950 . S
C457 C7 2.061 . S
C462 C176 2.039 . S
C487 C30 1.531 . S
C492 C229 1.512 . S
C522 C282 1.818 . S
C517 N58 1.795 . S
C552 C319 1.271 . S
C547 N81 1.250 . S
C582 C379 1.794 . S
C577 C99 1.815 . S
C612 C432 1.364 . S
C607 N127 1.345 . S
C637 N25 1.876 . S
C642 C283 1.904 . S
C667 C62 1.474 . S
C672 C326 1.458 . S
C702 C372 1.835 . S
C697 C85 1.841 . S
C732 C425 1.297 . S
C727 N94 1.284 . S
C757 C131 1.913 . S
C762 C177 1.898 . S
C792 C230 1.402 . S
C787 N2 1.378 . S
C822 C336 2.002 . S
C817 C16 2.013 . S
C847 C39 1.497 . S
C852 C388 1.495 . S
C882 C441 1.822 . S
C877 N48 1.791 . S
C907 N71 1.248 . S
C912 C167 1.267 . S
C937 C108 1.815 . S
C942 C220 1.811 . S
C967 N117 1.337 . S
C972 C273 1.364 . S
C997 N35 1.870 . S
C1002 C442 1.900 . S
C1032 C160 1.470 . S
C1027 C53 1.486 . S
C1057 C76 1.884 . S
C1062 C213 1.867 . S
C1087 N104 1.266 . S
C1092 C266 1.280 . S
C1117 C122 1.884 . S
C1122 C335 1.871 . S
C1147 N12 1.349 . S
C1152 C389 1.375 . S
