# Generated by pormake.
# Topology gar, (4,6)-cn, num edge types: 1
# Building blocks:
#     Node 0, Type 0, BuildingBlock: KUFVIS_clean_sbu_0, # of connection points: 4
#     Node 1, Type 0, BuildingBlock: KUFVIS_clean_sbu_0, # of connection points: 4
#     Node 2, Type 0, BuildingBlock: KUFVIS_clean_sbu_0, # of connection points: 4
#     Node 3, Type 0, BuildingBlock: KUFVIS_clean_sbu_0, # of connection points: 4
#     Node 4, Type 0, BuildingBlock: KUFVIS_clean_sbu_0, # of connection points: 4
#     Node 5, Type 0, BuildingBlock: KUFVIS_clean_sbu_0, # of connection points: 4
#     Node 6, Type 0, BuildingBlock: KUFVIS_clean_sbu_0, # of connection points: 4
#     Node 7, Type 0, BuildingBlock: KUFVIS_clean_sbu_0, # of connection points: 4
#     Node 8, Type 0, BuildingBlock: KUFVIS_clean_sbu_0, # of connection points: 4
#     Node 9, Type 0, BuildingBlock: KUFVIS_clean_sbu_0, # of connection points: 4
#     Node 10, Type 0, BuildingBlock: KUFVIS_clean_sbu_0, # of connection points: 4
#     Node 11, Type 0, BuildingBlock: KUFVIS_clean_sbu_0, # of connection points: 4
#     Node 12, Type 0, BuildingBlock: KUFVIS_clean_sbu_0, # of connection points: 4
#     Node 13, Type 0, BuildingBlock: KUFVIS_clean_sbu_0, # of connection points: 4
#     Node 14, Type 0, BuildingBlock: KUFVIS_clean_sbu_0, # of connection points: 4
#     Node 15, Type 0, BuildingBlock: KUFVIS_clean_sbu_0, # of connection points: 4
#     Node 16, Type 0, BuildingBlock: KUFVIS_clean_sbu_0, # of connection points: 4
#     Node 17, Type 0, BuildingBlock: KUFVIS_clean_sbu_0, # of connection points: 4
#     Node 18, Type 0, BuildingBlock: KUFVIS_clean_sbu_0, # of connection points: 4
#     Node 19, Type 0, BuildingBlock: KUFVIS_clean_sbu_0, # of connection points: 4
#     Node 20, Type 0, BuildingBlock: KUFVIS_clean_sbu_0, # of connection points: 4
#     Node 21, Type 0, BuildingBlock: KUFVIS_clean_sbu_0, # of connection points: 4
#     Node 22, Type 0, BuildingBlock: KUFVIS_clean_sbu_0, # of connection points: 4
#     Node 23, Type 0, BuildingBlock: KUFVIS_clean_sbu_0, # of connection points: 4
#     Node 24, Type 1, BuildingBlock: BETDIP_clean_sbu_0, # of connection points: 6
#     Node 25, Type 1, BuildingBlock: BETDIP_clean_sbu_0, # of connection points: 6
#     Node 26, Type 1, BuildingBlock: BETDIP_clean_sbu_0, # of connection points: 6
#     Node 27, Type 1, BuildingBlock: BETDIP_clean_sbu_0, # of connection points: 6
#     Node 28, Type 1, BuildingBlock: BETDIP_clean_sbu_0, # of connection points: 6
#     Node 29, Type 1, BuildingBlock: BETDIP_clean_sbu_0, # of connection points: 6
#     Node 30, Type 1, BuildingBlock: BETDIP_clean_sbu_0, # of connection points: 6
#     Node 31, Type 1, BuildingBlock: BETDIP_clean_sbu_0, # of connection points: 6
#     Node 32, Type 1, BuildingBlock: BETDIP_clean_sbu_0, # of connection points: 6
#     Node 33, Type 1, BuildingBlock: BETDIP_clean_sbu_0, # of connection points: 6
#     Node 34, Type 1, BuildingBlock: BETDIP_clean_sbu_0, # of connection points: 6
#     Node 35, Type 1, BuildingBlock: BETDIP_clean_sbu_0, # of connection points: 6
#     Node 36, Type 1, BuildingBlock: BETDIP_clean_sbu_0, # of connection points: 6
#     Node 37, Type 1, BuildingBlock: BETDIP_clean_sbu_0, # of connection points: 6
#     Node 38, Type 1, BuildingBlock: BETDIP_clean_sbu_0, # of connection points: 6
#     Node 39, Type 1, BuildingBlock: BETDIP_clean_sbu_0, # of connection points: 6
#     Edge 40, Type (0, 1), BuildingBlock: UVAHIK_clean_linker_0, # of connection points: 2
#     Edge 41, Type (0, 1), BuildingBlock: UVAHIK_clean_linker_0, # of connection points: 2
#     Edge 42, Type (0, 1), BuildingBlock: UVAHIK_clean_linker_0, # of connection points: 2
#     Edge 43, Type (0, 1), BuildingBlock: UVAHIK_clean_linker_0, # of connection points: 2
#     Edge 44, Type (0, 1), BuildingBlock: UVAHIK_clean_linker_0, # of connection points: 2
#     Edge 45, Type (0, 1), BuildingBlock: UVAHIK_clean_linker_0, # of connection points: 2
#     Edge 46, Type (0, 1), BuildingBlock: UVAHIK_clean_linker_0, # of connection points: 2
#     Edge 47, Type (0, 1), BuildingBlock: UVAHIK_clean_linker_0, # of connection points: 2
#     Edge 48, Type (0, 1), BuildingBlock: UVAHIK_clean_linker_0, # of connection points: 2
#     Edge 49, Type (0, 1), BuildingBlock: UVAHIK_clean_linker_0, # of connection points: 2
#     Edge 50, Type (0, 1), BuildingBlock: UVAHIK_clean_linker_0, # of connection points: 2
#     Edge 51, Type (0, 1), BuildingBlock: UVAHIK_clean_linker_0, # of connection points: 2
#     Edge 52, Type (0, 1), BuildingBlock: UVAHIK_clean_linker_0, # of connection points: 2
#     Edge 53, Type (0, 1), BuildingBlock: UVAHIK_clean_linker_0, # of connection points: 2
#     Edge 54, Type (0, 1), BuildingBlock: UVAHIK_clean_linker_0, # of connection points: 2
#     Edge 55, Type (0, 1), BuildingBlock: UVAHIK_clean_linker_0, # of connection points: 2
#     Edge 56, Type (0, 1), BuildingBlock: UVAHIK_clean_linker_0, # of connection points: 2
#     Edge 57, Type (0, 1), BuildingBlock: UVAHIK_clean_linker_0, # of connection points: 2
#     Edge 58, Type (0, 1), BuildingBlock: UVAHIK_clean_linker_0, # of connection points: 2
#     Edge 59, Type (0, 1), BuildingBlock: UVAHIK_clean_linker_0, # of connection points: 2
#     Edge 60, Type (0, 1), BuildingBlock: UVAHIK_clean_linker_0, # of connection points: 2
#     Edge 61, Type (0, 1), BuildingBlock: UVAHIK_clean_linker_0, # of connection points: 2
#     Edge 62, Type (0, 1), BuildingBlock: UVAHIK_clean_linker_0, # of connection points: 2
#     Edge 63, Type (0, 1), BuildingBlock: UVAHIK_clean_linker_0, # of connection points: 2
#     Edge 64, Type (0, 1), BuildingBlock: UVAHIK_clean_linker_0, # of connection points: 2
#     Edge 65, Type (0, 1), BuildingBlock: UVAHIK_clean_linker_0, # of connection points: 2
#     Edge 66, Type (0, 1), BuildingBlock: UVAHIK_clean_linker_0, # of connection points: 2
#     Edge 67, Type (0, 1), BuildingBlock: UVAHIK_clean_linker_0, # of connection points: 2
#     Edge 68, Type (0, 1), BuildingBlock: UVAHIK_clean_linker_0, # of connection points: 2
#     Edge 69, Type (0, 1), BuildingBlock: UVAHIK_clean_linker_0, # of connection points: 2
#     Edge 70, Type (0, 1), BuildingBlock: UVAHIK_clean_linker_0, # of connection points: 2
#     Edge 71, Type (0, 1), BuildingBlock: UVAHIK_clean_linker_0, # of connection points: 2
#     Edge 72, Type (0, 1), BuildingBlock: UVAHIK_clean_linker_0, # of connection points: 2
#     Edge 73, Type (0, 1), BuildingBlock: UVAHIK_clean_linker_0, # of connection points: 2
#     Edge 74, Type (0, 1), BuildingBlock: UVAHIK_clean_linker_0, # of connection points: 2
#     Edge 75, Type (0, 1), BuildingBlock: UVAHIK_clean_linker_0, # of connection points: 2
#     Edge 76, Type (0, 1), BuildingBlock: UVAHIK_clean_linker_0, # of connection points: 2
#     Edge 77, Type (0, 1), BuildingBlock: UVAHIK_clean_linker_0, # of connection points: 2
#     Edge 78, Type (0, 1), BuildingBlock: UVAHIK_clean_linker_0, # of connection points: 2
#     Edge 79, Type (0, 1), BuildingBlock: UVAHIK_clean_linker_0, # of connection points: 2
#     Edge 80, Type (0, 1), BuildingBlock: UVAHIK_clean_linker_0, # of connection points: 2
#     Edge 81, Type (0, 1), BuildingBlock: UVAHIK_clean_linker_0, # of connection points: 2
#     Edge 82, Type (0, 1), BuildingBlock: UVAHIK_clean_linker_0, # of connection points: 2
#     Edge 83, Type (0, 1), BuildingBlock: UVAHIK_clean_linker_0, # of connection points: 2
#     Edge 84, Type (0, 1), BuildingBlock: UVAHIK_clean_linker_0, # of connection points: 2
#     Edge 85, Type (0, 1), BuildingBlock: UVAHIK_clean_linker_0, # of connection points: 2
#     Edge 86, Type (0, 1), BuildingBlock: UVAHIK_clean_linker_0, # of connection points: 2
#     Edge 87, Type (0, 1), BuildingBlock: UVAHIK_clean_linker_0, # of connection points: 2
#     Edge 88, Type (0, 1), BuildingBlock: UVAHIK_clean_linker_0, # of connection points: 2
#     Edge 89, Type (0, 1), BuildingBlock: UVAHIK_clean_linker_0, # of connection points: 2
#     Edge 90, Type (0, 1), BuildingBlock: UVAHIK_clean_linker_0, # of connection points: 2
#     Edge 91, Type (0, 1), BuildingBlock: UVAHIK_clean_linker_0, # of connection points: 2
#     Edge 92, Type (0, 1), BuildingBlock: UVAHIK_clean_linker_0, # of connection points: 2
#     Edge 93, Type (0, 1), BuildingBlock: UVAHIK_clean_linker_0, # of connection points: 2
#     Edge 94, Type (0, 1), BuildingBlock: UVAHIK_clean_linker_0, # of connection points: 2
#     Edge 95, Type (0, 1), BuildingBlock: UVAHIK_clean_linker_0, # of connection points: 2
#     Edge 96, Type (0, 1), BuildingBlock: UVAHIK_clean_linker_0, # of connection points: 2
#     Edge 97, Type (0, 1), BuildingBlock: UVAHIK_clean_linker_0, # of connection points: 2
#     Edge 98, Type (0, 1), BuildingBlock: UVAHIK_clean_linker_0, # of connection points: 2
#     Edge 99, Type (0, 1), BuildingBlock: UVAHIK_clean_linker_0, # of connection points: 2
#     Edge 100, Type (0, 1), BuildingBlock: UVAHIK_clean_linker_0, # of connection points: 2
#     Edge 101, Type (0, 1), BuildingBlock: UVAHIK_clean_linker_0, # of connection points: 2
#     Edge 102, Type (0, 1), BuildingBlock: UVAHIK_clean_linker_0, # of connection points: 2
#     Edge 103, Type (0, 1), BuildingBlock: UVAHIK_clean_linker_0, # of connection points: 2
#     Edge 104, Type (0, 1), BuildingBlock: UVAHIK_clean_linker_0, # of connection points: 2
#     Edge 105, Type (0, 1), BuildingBlock: UVAHIK_clean_linker_0, # of connection points: 2
#     Edge 106, Type (0, 1), BuildingBlock: UVAHIK_clean_linker_0, # of connection points: 2
#     Edge 107, Type (0, 1), BuildingBlock: UVAHIK_clean_linker_0, # of connection points: 2
#     Edge 108, Type (0, 1), BuildingBlock: UVAHIK_clean_linker_0, # of connection points: 2
#     Edge 109, Type (0, 1), BuildingBlock: UVAHIK_clean_linker_0, # of connection points: 2
#     Edge 110, Type (0, 1), BuildingBlock: UVAHIK_clean_linker_0, # of connection points: 2
#     Edge 111, Type (0, 1), BuildingBlock: UVAHIK_clean_linker_0, # of connection points: 2
#     Edge 112, Type (0, 1), BuildingBlock: UVAHIK_clean_linker_0, # of connection points: 2
#     Edge 113, Type (0, 1), BuildingBlock: UVAHIK_clean_linker_0, # of connection points: 2
#     Edge 114, Type (0, 1), BuildingBlock: UVAHIK_clean_linker_0, # of connection points: 2
#     Edge 115, Type (0, 1), BuildingBlock: UVAHIK_clean_linker_0, # of connection points: 2
#     Edge 116, Type (0, 1), BuildingBlock: UVAHIK_clean_linker_0, # of connection points: 2
#     Edge 117, Type (0, 1), BuildingBlock: UVAHIK_clean_linker_0, # of connection points: 2
#     Edge 118, Type (0, 1), BuildingBlock: UVAHIK_clean_linker_0, # of connection points: 2
#     Edge 119, Type (0, 1), BuildingBlock: UVAHIK_clean_linker_0, # of connection points: 2
#     Edge 120, Type (0, 1), BuildingBlock: UVAHIK_clean_linker_0, # of connection points: 2
#     Edge 121, Type (0, 1), BuildingBlock: UVAHIK_clean_linker_0, # of connection points: 2
#     Edge 122, Type (0, 1), BuildingBlock: UVAHIK_clean_linker_0, # of connection points: 2
#     Edge 123, Type (0, 1), BuildingBlock: UVAHIK_clean_linker_0, # of connection points: 2
#     Edge 124, Type (0, 1), BuildingBlock: UVAHIK_clean_linker_0, # of connection points: 2
#     Edge 125, Type (0, 1), BuildingBlock: UVAHIK_clean_linker_0, # of connection points: 2
#     Edge 126, Type (0, 1), BuildingBlock: UVAHIK_clean_linker_0, # of connection points: 2
#     Edge 127, Type (0, 1), BuildingBlock: UVAHIK_clean_linker_0, # of connection points: 2
#     Edge 128, Type (0, 1), BuildingBlock: UVAHIK_clean_linker_0, # of connection points: 2
#     Edge 129, Type (0, 1), BuildingBlock: UVAHIK_clean_linker_0, # of connection points: 2
#     Edge 130, Type (0, 1), BuildingBlock: UVAHIK_clean_linker_0, # of connection points: 2
#     Edge 131, Type (0, 1), BuildingBlock: UVAHIK_clean_linker_0, # of connection points: 2
#     Edge 132, Type (0, 1), BuildingBlock: UVAHIK_clean_linker_0, # of connection points: 2
#     Edge 133, Type (0, 1), BuildingBlock: UVAHIK_clean_linker_0, # of connection points: 2
#     Edge 134, Type (0, 1), BuildingBlock: UVAHIK_clean_linker_0, # of connection points: 2
#     Edge 135, Type (0, 1), BuildingBlock: UVAHIK_clean_linker_0, # of connection points: 2
# Relax obj value: 0.146
# Max RMSD: 0.269
# Mean RMSD: 0.138
data_MOF--net-gar--node1-KUFVIS_clean_sbu_0--node2-BETDIP_clean_sbu_0--edge1-UVAHIK_clean_linker_0
_symmetry_space_group_name_H-M    P1
_symmetry_Int_Tables_number       1
_symmetry_cell_setting            triclinic
loop_
_symmetry_equiv_pos_as_xyz
'x, y, z'
_cell_length_a     78.34128
_cell_length_b     71.728714
_cell_length_c     70.480399
_cell_angle_alpha  96.512966
_cell_angle_beta   97.617084
_cell_angle_gamma 100.22577
loop_
_atom_site_label
_atom_site_type_symbol
_atom_site_fract_x
_atom_site_fract_y
_atom_site_fract_z
_atom_type_partial_charge
Mn0 Mn 0.0341 0.29522 0.38756 0.0
Mn1 Mn 0.01341 0.31776 0.35468 0.0
C2 C 1.00399 0.2895 0.38185 0.0
C3 C 0.04824 0.27079 0.3956 0.0
C4 C 0.03004 0.33672 0.39511 0.0
O5 O 0.05311 0.30532 0.37255 0.0
O6 O 0.03773 0.31751 0.34937 0.0
C7 C 1.01177 0.28992 0.31976 0.0
N8 N 1.00348 0.30004 0.33191 0.0
C9 C 0.97539 0.28734 0.31222 0.0
C10 C 0.98364 0.27688 0.29943 0.0
C11 C 1.0019 0.27811 0.30328 0.0
C12 C 0.98589 0.29874 0.3285 0.0
H13 H 0.02581 0.29087 0.32263 0.0
C14 C 0.0519 0.31302 0.35713 0.0
O15 O 0.05155 0.28735 0.4063 0.0
O16 O 0.03677 0.26843 0.37997 0.0
N17 N 0.98966 0.31894 0.35764 0.0
C18 C 0.98366 0.3297 0.37156 0.0
C19 C 0.96564 0.32988 0.36997 0.0
C20 C 0.954 0.31927 0.35394 0.0
C21 C 0.96052 0.3086 0.33962 0.0
C22 C 0.9786 0.30891 0.34201 0.0
H23 H 0.99254 0.33805 0.38383 0.0
O24 O 1.01217 0.28564 0.39774 0.0
O25 O 0.01365 0.29608 0.3695 0.0
O26 O 0.03476 0.32195 0.40077 0.0
O27 O 0.02266 0.33706 0.37789 0.0
C28 C 0.94977 0.29766 0.32307 0.0
C29 C 0.95717 0.28689 0.30947 0.0
H30 H 0.97608 0.26781 0.28666 0.0
H31 H 1.00835 0.27002 0.29351 0.0
H32 H 0.96072 0.33822 0.38105 0.0
H33 H 0.9401 0.31941 0.35278 0.0
H34 H 0.93575 0.29725 0.32077 0.0
H35 H 0.94872 0.2783 0.29695 0.0
Mn36 Mn 0.05402 0.75842 0.69343 0.0
Mn37 Mn 0.07675 0.78583 0.7342 0.0
C38 C 0.08406 0.76655 0.69713 0.0
C39 C 0.0413 0.72902 0.67534 0.0
C40 C 0.05835 0.80207 0.70137 0.0
O41 O 0.03602 0.75674 0.71152 0.0
O42 O 0.05218 0.77569 0.73778 0.0
C43 C 0.07705 0.75453 0.75822 0.0
N44 N 0.08592 0.76928 0.75062 0.0
C45 C 0.11371 0.76438 0.76619 0.0
C46 C 0.10485 0.74923 0.77429 0.0
C47 C 0.08644 0.74426 0.77024 0.0
C48 C 0.10364 0.77408 0.7543 0.0
H49 H 0.06291 0.75061 0.75511 0.0
C50 C 0.03786 0.76496 0.72886 0.0
O51 O 0.0363 0.7446 0.67121 0.0
O52 O 0.05294 0.73044 0.69063 0.0
N53 N 0.10079 0.79657 0.73334 0.0
C54 C 0.10738 0.81131 0.72413 0.0
C55 C 0.1256 0.81807 0.72669 0.0
C56 C 0.13686 0.80973 0.73884 0.0
C57 C 0.12978 0.79472 0.74834 0.0
C58 C 0.11149 0.78873 0.74539 0.0
H59 H 0.09882 0.81773 0.71472 0.0
O60 O 0.07487 0.76143 0.68005 0.0
O61 O 0.07547 0.76643 0.71174 0.0
O62 O 0.05181 0.78597 0.69107 0.0
O63 O 0.06821 0.80392 0.71773 0.0
C64 C 0.14016 0.78532 0.76044 0.0
C65 C 0.13214 0.77011 0.76929 0.0
H66 H 0.11206 0.74125 0.78355 0.0
H67 H 0.07952 0.73253 0.77636 0.0
H68 H 0.13097 0.82963 0.71927 0.0
H69 H 0.15091 0.81491 0.74072 0.0
H70 H 0.15434 0.78955 0.76287 0.0
H71 H 0.14027 0.76286 0.77841 0.0
Mn72 Mn 0.53096 0.79765 0.88791 0.0
Mn73 Mn 0.51102 0.81685 0.85146 0.0
C74 C 0.50098 0.78998 0.87993 0.0
C75 C 0.54549 0.77462 0.89921 0.0
C76 C 0.52355 0.83823 0.89188 0.0
O77 O 0.55096 0.80799 0.8743 0.0
O78 O 0.53638 0.81869 0.84944 0.0
C79 C 0.51442 0.78818 0.81917 0.0
N80 N 0.50418 0.79793 0.82906 0.0
C81 C 0.47821 0.78254 0.80675 0.0
C82 C 0.4885 0.77243 0.79625 0.0
C83 C 0.50667 0.77521 0.80253 0.0
C84 C 0.48666 0.79519 0.82327 0.0
H85 H 0.52839 0.79029 0.82394 0.0
C86 C 0.55048 0.81542 0.85872 0.0
O87 O 0.54764 0.79159 0.90889 0.0
O88 O 0.53525 0.77118 0.88262 0.0
N89 N 0.48642 0.81618 0.85092 0.0
C90 C 0.47831 0.82681 0.86283 0.0
C91 C 0.46012 0.82577 0.8585 0.0
C92 C 0.45049 0.81404 0.84184 0.0
C93 C 0.45912 0.80339 0.82969 0.0
C94 C 0.4773 0.80512 0.83465 0.0
H95 H 0.48565 0.83602 0.87555 0.0
O96 O 0.50859 0.78749 0.89669 0.0
O97 O 0.51117 0.79631 0.86789 0.0
O98 O 0.5294 0.82464 0.89902 0.0
O99 O 0.51701 0.83713 0.87409 0.0
C100 C 0.45038 0.79095 0.81297 0.0
C101 C 0.4599 0.78045 0.80157 0.0
H102 H 0.48257 0.76243 0.7834 0.0
H103 H 0.51468 0.76741 0.79455 0.0
H104 H 0.45353 0.83403 0.86796 0.0
H105 H 0.43646 0.8133 0.83852 0.0
H106 H 0.4363 0.78921 0.80886 0.0
H107 H 0.45301 0.77078 0.78885 0.0
Mn108 Mn 0.55728 0.2514 0.19837 0.0
Mn109 Mn 0.52377 0.23418 0.16195 0.0
C110 C 0.55523 0.2217 0.1809 0.0
C111 C 0.58544 0.26887 0.20928 0.0
C112 C 0.51981 0.23572 0.2043 0.0
O113 O 0.54795 0.27517 0.19271 0.0
O114 O 0.52683 0.26248 0.1672 0.0
C115 C 0.53989 0.25068 0.13037 0.0
N116 N 0.53248 0.2351 0.13792 0.0
C117 C 0.53582 0.2138 0.11032 0.0
C118 C 0.54339 0.22963 0.10219 0.0
C119 C 0.54546 0.24814 0.11228 0.0
C120 C 0.53053 0.21722 0.12839 0.0
H121 H 0.54157 0.26492 0.13813 0.0
C122 C 0.53587 0.27665 0.17925 0.0
O123 O 0.57415 0.26582 0.22107 0.0
O124 O 0.58017 0.26223 0.19116 0.0
N125 N 0.51957 0.20695 0.15534 0.0
C126 C 0.51239 0.1932 0.16538 0.0
C127 C 0.50949 0.17386 0.15732 0.0
C128 C 0.51391 0.16888 0.13898 0.0
C129 C 0.5211 0.1833 0.12883 0.0
C130 C 0.52353 0.20232 0.13752 0.0
H131 H 0.50893 0.19695 0.17945 0.0
O132 O 0.56431 0.22588 0.19813 0.0
O133 O 0.54762 0.23497 0.17466 0.0
O134 O 0.53594 0.24233 0.21112 0.0
O135 O 0.51388 0.23235 0.1862 0.0
C136 C 0.52613 0.17953 0.11053 0.0
C137 C 0.53353 0.19477 0.10131 0.0
H138 H 0.54775 0.22772 0.08826 0.0
H139 H 0.55137 0.26041 0.10615 0.0
H140 H 0.50392 0.16282 0.16523 0.0
H141 H 0.5118 0.15395 0.13289 0.0
H142 H 0.52453 0.16495 0.10352 0.0
H143 H 0.53752 0.19167 0.08734 0.0
Mn144 Mn 0.06991 0.79196 0.14905 0.0
Mn145 Mn 0.0384 0.77704 0.10997 0.0
C146 C 0.06098 0.75964 0.13737 0.0
C147 C 0.09955 0.80134 0.16286 0.0
C148 C 0.0304 0.78918 0.14998 0.0
O149 O 0.06919 0.81664 0.13711 0.0
O150 O 0.04849 0.80462 0.11116 0.0
C151 C 0.06134 0.78132 0.07993 0.0
N152 N 0.04926 0.77017 0.08816 0.0
C153 C 0.04885 0.74276 0.06487 0.0
C154 C 0.06123 0.75398 0.05607 0.0
C155 C 0.06752 0.77333 0.06367 0.0
C156 C 0.0432 0.7515 0.08105 0.0
H157 H 0.06625 0.79618 0.08575 0.0
C158 C 0.05958 0.81852 0.12155 0.0
O159 O 0.08717 0.80568 0.17208 0.0
O160 O 0.09475 0.79265 0.14531 0.0
N161 N 0.0275 0.75057 0.10684 0.0
C162 C 0.0158 0.74165 0.1172 0.0
C163 C 1.00816 0.72225 0.11143 0.0
C164 C 1.0125 0.71228 0.095 0.0
C165 C 0.02449 0.72178 0.0845 0.0
C166 C 0.03151 0.74119 0.0908 0.0
H167 H 1.01232 0.74927 0.12977 0.0
O168 O 0.06852 0.76514 0.15512 0.0
O169 O 0.05888 0.77316 0.12702 0.0
O170 O 0.04632 0.79321 0.15856 0.0
O171 O 0.02612 0.78325 0.13187 0.0
C172 C 0.02981 0.71274 0.06809 0.0
C173 C 0.04206 0.7232 0.05834 0.0
H174 H 0.06605 0.74787 0.04355 0.0
H175 H 0.07713 0.78206 0.05701 0.0
H176 H 0.99891 0.71502 0.1196 0.0
H177 H 1.00654 0.69733 0.09058 0.0
H178 H 0.0247 0.69771 0.06297 0.0
H179 H 0.04619 0.71605 0.04587 0.0
Mn180 Mn 0.51148 0.75875 0.41701 0.0
Mn181 Mn 0.50303 0.7808 0.37772 0.0
C182 C 0.48261 0.75895 0.40398 0.0
C183 C 0.51717 0.73224 0.43162 0.0
C184 C 0.51458 0.80223 0.41828 0.0
O185 O 0.53504 0.76226 0.40673 0.0
O186 O 0.52722 0.77573 0.38047 0.0
C187 C 0.50404 0.7484 0.34814 0.0
N188 N 0.49543 0.76177 0.35551 0.0
C189 C 0.47109 0.75172 0.32957 0.0
C190 C 0.47974 0.73789 0.32164 0.0
C191 C 0.49624 0.73616 0.33103 0.0
C192 C 0.47941 0.76331 0.3468 0.0
H193 H 0.51678 0.74711 0.35526 0.0
C194 C 0.53846 0.76924 0.39143 0.0
O195 O 0.52193 0.74955 0.44067 0.0
O196 O 0.50947 0.73027 0.41381 0.0
N197 N 0.48019 0.78687 0.37267 0.0
C198 C 0.47377 0.80121 0.38197 0.0
C199 C 0.45743 0.80496 0.37434 0.0
C200 C 0.44805 0.79425 0.357 0.0
C201 C 0.45516 0.77996 0.34738 0.0
C202 C 0.47147 0.77684 0.3557 0.0
H203 H 0.48105 0.80972 0.39513 0.0
O204 O 0.48649 0.7557 0.42161 0.0
O205 O 0.4956 0.76141 0.39417 0.0
O206 O 0.51557 0.7875 0.42666 0.0
O207 O 0.51032 0.80137 0.40001 0.0
C208 C 0.44675 0.76878 0.32979 0.0
C209 C 0.45461 0.75451 0.32101 0.0
H210 H 0.47382 0.72852 0.30837 0.0
H211 H 0.50298 0.7255 0.32503 0.0
H212 H 0.45211 0.81612 0.38177 0.0
H213 H 0.43543 0.79714 0.35118 0.0
H214 H 0.43418 0.77096 0.32294 0.0
H215 H 0.44791 0.74585 0.3076 0.0
Mn216 Mn 0.56851 0.29437 0.65031 0.0
Mn217 Mn 0.53666 0.27969 0.61147 0.0
C218 C 0.56011 0.26218 0.63791 0.0
C219 C 0.59821 0.30397 0.66396 0.0
C220 C 0.52899 0.29059 0.65191 0.0
O221 O 0.56724 0.3193 0.63898 0.0
O222 O 0.54622 0.30752 0.61324 0.0
C223 C 0.55878 0.28549 0.58087 0.0
N224 N 0.54715 0.27377 0.58912 0.0
C225 C 0.54663 0.24714 0.56483 0.0
C226 C 0.55852 0.25897 0.556 0.0
C227 C 0.56464 0.27821 0.56409 0.0
C228 C 0.54119 0.25522 0.58148 0.0
H229 H 0.56356 0.30028 0.58707 0.0
C230 C 0.5573 0.32138 0.62372 0.0
O231 O 0.58583 0.30784 0.67342 0.0
O232 O 0.59337 0.2957 0.64626 0.0
N233 N 0.52634 0.25302 0.60787 0.0
C234 C 0.51557 0.24331 0.61867 0.0
C235 C 0.50864 0.22374 0.61282 0.0
C236 C 0.51272 0.21442 0.59587 0.0
C237 C 0.52364 0.22476 0.58486 0.0
C238 C 0.53005 0.24427 0.59133 0.0
H239 H 0.51239 0.2504 0.63172 0.0
O240 O 0.56766 0.26742 0.65569 0.0
O241 O 0.55758 0.27588 0.62794 0.0
O242 O 0.54496 0.29485 0.6603 0.0
O243 O 0.52461 0.28493 0.63378 0.0
C244 C 0.5287 0.21641 0.56795 0.0
C245 C 0.54021 0.22758 0.55796 0.0
H246 H 0.56315 0.25338 0.54312 0.0
H247 H 0.57389 0.2874 0.55741 0.0
H248 H 0.50023 0.21585 0.6214 0.0
H249 H 0.5075 0.19928 0.59152 0.0
H250 H 0.52403 0.20134 0.56266 0.0
H251 H 0.5442 0.22094 0.54512 0.0
Mn252 Mn 1.00878 0.25552 0.918 0.0
Mn253 Mn 1.00175 0.27741 0.87833 0.0
C254 C 0.98024 0.25656 0.90455 0.0
C255 C 0.01369 0.22891 0.93284 0.0
C256 C 0.01332 0.29905 0.91884 0.0
O257 O 0.0325 0.25827 0.90821 0.0
O258 O 0.0256 0.27127 0.88138 0.0
C259 C 1.00181 0.24431 0.84915 0.0
N260 N 0.9937 0.25828 0.85625 0.0
C261 C 0.9692 0.24854 0.83046 0.0
C262 C 0.97732 0.2341 0.82281 0.0
C263 C 0.99367 0.23194 0.83224 0.0
C264 C 0.97788 0.26033 0.84743 0.0
H265 H 0.01438 0.24262 0.85636 0.0
C266 C 0.03639 0.26465 0.89281 0.0
O267 O 0.01865 0.24622 0.94186 0.0
O268 O 1.00613 0.22698 0.91498 0.0
N269 N 0.97934 0.28445 0.87298 0.0
C270 C 0.97335 0.29921 0.88213 0.0
C271 C 0.95731 0.30355 0.87433 0.0
C272 C 0.94774 0.29289 0.85706 0.0
C273 C 0.95429 0.27797 0.84774 0.0
C274 C 0.97044 0.27444 0.85609 0.0
H275 H 0.98077 0.30765 0.89526 0.0
O276 O 0.98377 0.25327 0.92222 0.0
O277 O 0.9934 0.25849 0.89492 0.0
O278 O 0.01347 0.28433 0.92742 0.0
O279 O 1.00952 0.2981 0.9005 0.0
C280 C 0.94541 0.26644 0.83052 0.0
C281 C 0.9528 0.25164 0.82196 0.0
H282 H 0.97111 0.22457 0.80973 0.0
H283 H 1.0 0.22079 0.82646 0.0
H284 H 0.95237 0.31513 0.88157 0.0
H285 H 0.93541 0.2963 0.85105 0.0
H286 H 0.93282 0.26873 0.82383 0.0
H287 H 0.94578 0.24276 0.80882 0.0
Mn288 Mn 0.41515 0.04632 0.27122 0.0
Mn289 Mn 0.38251 0.04118 0.29903 0.0
C290 C 0.40015 1.01494 0.27517 0.0
C291 C 0.42754 0.04846 0.2408 0.0
C292 C 0.42132 0.04985 0.31696 0.0
O293 O 0.40721 0.07355 0.27271 0.0
O294 O 0.38684 0.06792 0.29217 0.0
C295 C 0.35342 0.04507 0.26917 0.0
N296 N 0.36023 0.03504 0.2826 0.0
C297 C 0.33368 1.01111 0.277 0.0
C298 C 0.32633 0.02127 0.26323 0.0
C299 C 0.33628 0.03827 0.25924 0.0
C300 C 0.35084 0.01855 0.2864 0.0
H301 H 0.36099 0.05815 0.26605 0.0
C302 C 0.39535 0.07905 0.28212 0.0
O303 O 0.43651 0.05477 0.25781 0.0
O304 O 0.41101 0.04203 0.24119 0.0
N305 N 0.37607 0.01658 0.307 0.0
C306 C 0.38537 1.00796 0.31995 0.0
C307 C 0.37744 0.99051 0.32513 0.0
C308 C 0.35995 0.98228 0.31721 0.0
C309 C 0.35055 0.99156 0.30417 0.0
C310 C 0.35914 1.00892 0.29953 0.0
H311 H 0.39877 1.01425 0.32621 0.0
O312 O 0.41579 0.01795 0.27053 0.0
O313 O 0.39353 0.03041 0.27748 0.0
O314 O 0.42722 0.05115 0.3008 0.0
O315 O 0.40484 0.04676 0.31763 0.0
C316 C 0.3331 0.98408 0.29526 0.0
C317 C 0.32471 0.99378 0.28161 0.0
H318 H 0.31311 0.01608 0.25553 0.0
H319 H 0.33073 0.04615 0.24856 0.0
H320 H 0.38478 0.98344 0.33521 0.0
H321 H 0.35392 0.96875 0.32114 0.0
H322 H 0.32609 0.97073 0.29862 0.0
H323 H 0.31139 0.98773 0.27464 0.0
Mn324 Mn 0.26747 0.16351 0.52117 0.0
Mn325 Mn 0.25365 0.12593 0.48576 0.0
C326 C 0.23794 0.14881 0.51424 0.0
C327 C 0.27786 0.17638 0.55357 0.0
C328 C 0.26338 0.16695 0.47779 0.0
O329 O 0.29027 0.15425 0.51742 0.0
O330 O 0.27926 0.12857 0.49474 0.0
C331 C 0.25902 0.09456 0.50843 0.0
N332 N 0.24816 0.10291 0.49686 0.0
C333 C 0.22348 0.07776 0.49742 0.0
C334 C 0.23442 0.06883 0.50925 0.0
C335 C 0.25226 0.0773 0.5148 0.0
C336 C 0.23097 0.0949 0.49144 0.0
H337 H 0.27272 0.10104 0.51278 0.0
C338 C 0.29206 0.13949 0.50638 0.0
O339 O 0.28022 0.18649 0.53964 0.0
O340 O 0.27012 0.15861 0.54861 0.0
N341 N 0.22905 0.12173 0.47616 0.0
C342 C 0.22005 0.13275 0.4657 0.0
C343 C 0.20192 0.12663 0.45953 0.0
C344 C 0.19324 0.10921 0.4641 0.0
C345 C 0.20279 0.09806 0.47478 0.0
C346 C 0.22086 0.10484 0.48043 0.0
H347 H 0.22665 0.14617 0.46218 0.0
O348 O 0.24258 0.16638 0.52266 0.0
O349 O 0.25067 0.14061 0.50985 0.0
O350 O 0.26692 0.17461 0.49547 0.0
O351 O 0.25855 0.1489 0.47268 0.0
C352 C 0.19504 0.08066 0.48032 0.0
C353 C 0.20537 0.07052 0.49164 0.0
H354 H 0.22924 0.05557 0.51428 0.0
H355 H 0.26077 0.07054 0.524 0.0
H356 H 0.19463 0.13534 0.45134 0.0
H357 H 0.17922 0.10462 0.45946 0.0
H358 H 0.18108 0.07508 0.4762 0.0
H359 H 0.19921 0.05729 0.49605 0.0
Mn360 Mn 0.14837 0.04796 0.80804 0.0
Mn361 Mn 0.18453 0.05649 0.84211 0.0
C362 C 0.16455 0.07876 0.81729 0.0
C363 C 0.13498 0.04035 0.77573 0.0
C364 C 0.14757 0.04847 0.85153 0.0
O365 O 0.15433 0.02146 0.80865 0.0
O366 O 0.17883 0.02901 0.8311 0.0
C367 C 0.21073 0.04921 0.81697 0.0
N368 N 0.2051 0.06113 0.83017 0.0
C369 C 0.23077 0.08557 0.8315 0.0
C370 C 0.23689 0.07353 0.81797 0.0
C371 C 0.22679 0.0553 0.81063 0.0
C372 C 0.21465 0.07874 0.83724 0.0
H373 H 0.20302 0.03516 0.81134 0.0
C374 C 0.16727 0.01701 0.81899 0.0
O375 O 0.1261 0.03726 0.78975 0.0
O376 O 0.15164 0.04736 0.78047 0.0
N377 N 0.19149 0.0826 0.85388 0.0
C378 C 0.18316 0.09288 0.86584 0.0
C379 C 0.19118 0.11172 0.87386 0.0
C380 C 0.20775 0.1197 0.86968 0.0
C381 C 0.21612 0.10876 0.85747 0.0
C382 C 0.20747 0.0901 0.84985 0.0
H383 H 0.17047 0.08677 0.86916 0.0
O384 O 0.14817 0.07604 0.80953 0.0
O385 O 0.17079 0.06344 0.81964 0.0
O386 O 0.13957 0.04686 0.83424 0.0
O387 O 0.16426 0.05216 0.85592 0.0
C388 C 0.23261 0.11573 0.85235 0.0
C389 C 0.2399 0.10418 0.83931 0.0
H390 H 0.24927 0.07818 0.81303 0.0
H391 H 0.2314 0.04595 0.80013 0.0
H392 H 0.18463 0.12007 0.88326 0.0
H393 H 0.21387 0.13426 0.87585 0.0
H394 H 0.23966 0.13008 0.8581 0.0
H395 H 0.25244 0.10983 0.83521 0.0
Mn396 Mn 0.25111 0.88037 0.9812 0.0
Mn397 Mn 0.23959 0.91573 0.95766 0.0
C398 C 0.27189 0.90037 0.96889 0.0
C399 C 0.26028 0.86919 1.00971 0.0
C400 C 0.23181 0.87415 0.93964 0.0
O401 O 0.22775 0.88272 0.98942 0.0
O402 O 0.22161 0.90719 0.97402 0.0
C403 C 0.24303 0.94556 0.99138 0.0
N404 N 0.24765 0.93968 0.97405 0.0
C405 C 0.26755 0.96964 0.97519 0.0
C406 C 0.2629 0.97605 0.99299 0.0
C407 C 0.2506 0.96395 1.00111 0.0
C408 C 0.25942 0.95125 0.96605 0.0
H409 H 0.23368 0.93626 0.99777 0.0
C410 C 0.21813 0.89475 0.9854 0.0
O411 O 0.25206 0.8575 0.9945 0.0
O412 O 0.26294 0.88732 1.00837 0.0
N413 N 0.25614 0.92546 0.94175 0.0
C414 C 0.26012 0.91662 0.92521 0.0
C415 C 0.2727 0.92655 0.91562 0.0
C416 C 0.28104 0.94543 0.92312 0.0
C417 C 0.27667 0.95426 0.94011 0.0
C418 C 0.26388 0.94373 0.94892 0.0
H419 H 0.25389 0.90205 0.91948 0.0
O420 O 0.27439 0.88357 0.97228 0.0
O421 O 0.25728 0.90493 0.97282 0.0
O422 O 0.23892 0.86777 0.95424 0.0
O423 O 0.23116 0.89179 0.93942 0.0
C424 C 0.28481 0.97291 0.94889 0.0
C425 C 0.28025 0.9806 0.96642 0.0
H426 H 0.26884 0.99016 1.00063 0.0
H427 H 0.24702 0.96875 0.01489 0.0
H428 H 0.27606 0.91961 0.90256 0.0
H429 H 0.2909 0.95296 0.91581 0.0
H430 H 0.29479 0.98136 0.94245 0.0
H431 H 0.28679 0.99485 0.97318 0.0
Mn432 Mn 0.31671 0.39949 0.06301 0.0
Mn433 Mn 0.3243 0.43777 0.03907 0.0
C434 C 0.3454 0.41394 0.06115 0.0
C435 C 0.31153 0.38542 0.09072 0.0
C436 C 0.31262 0.39703 0.01878 0.0
O437 O 0.29301 0.4083 0.06041 0.0
O438 O 0.30033 0.43437 0.04597 0.0
C439 C 0.32407 0.46788 0.07138 0.0
N440 N 0.33235 0.46041 0.05738 0.0
C441 C 0.35696 0.48678 0.06542 0.0
C442 C 0.34866 0.49482 0.07987 0.0
C443 C 0.33218 0.48527 0.08291 0.0
C444 C 0.34831 0.46933 0.05451 0.0
H445 H 0.31136 0.46061 0.07369 0.0
C446 C 0.28932 0.42303 0.05334 0.0
O447 O 0.30661 0.37604 0.07345 0.0
O448 O 0.31907 0.40328 0.09195 0.0
N449 N 0.34696 0.4431 0.0313 0.0
C450 C 0.35327 0.43333 0.01691 0.0
C451 C 0.36969 0.44088 1.01212 0.0
C452 C 0.37929 0.45856 0.02189 0.0
C453 C 0.37235 0.46855 0.03632 0.0
C454 C 0.35594 0.46029 0.04051 0.0
H455 H 0.34586 0.41985 1.00919 0.0
O456 O 0.34184 0.39652 0.06496 0.0
O457 O 0.33216 0.4226 0.05895 0.0
O458 O 0.31247 0.38909 0.03408 0.0
O459 O 0.31642 0.41512 0.01896 0.0
C460 C 0.38108 0.48636 0.04677 0.0
C461 C 0.37347 0.49538 0.06143 0.0
H462 H 0.35484 0.50827 0.08874 0.0
H463 H 0.32571 0.49135 0.09407 0.0
H464 H 0.37492 0.43312 1.00089 0.0
H465 H 0.39199 0.46431 0.0182 0.0
H466 H 0.39374 0.49315 0.04376 0.0
H467 H 0.38044 0.50894 0.06955 0.0
Mn468 Mn 0.83557 0.17672 0.08681 0.0
Mn469 Mn 0.82089 0.13554 0.05597 0.0
C470 C 0.80973 0.15726 0.08994 0.0
C471 C 0.8532 0.1942 0.11436 0.0
C472 C 0.81447 0.1737 0.04613 0.0
O473 O 0.85679 0.17399 0.07405 0.0
O474 O 0.84531 0.14708 0.05364 0.0
C475 C 0.84481 0.11423 0.07663 0.0
N476 N 0.82825 0.11579 0.06917 0.0
C477 C 0.81587 0.0861 0.07936 0.0
C478 C 0.83279 0.08413 0.08708 0.0
C479 C 0.84732 0.0983 0.08578 0.0
C480 C 0.81417 0.10245 0.07071 0.0
H481 H 0.856 0.12508 0.07565 0.0
C482 C 0.8578 0.16124 0.06045 0.0
O483 O 0.84784 0.20244 0.09984 0.0
O484 O 0.84868 0.1757 0.11267 0.0
N485 N 0.79752 0.12194 0.05554 0.0
C486 C 0.78243 0.12493 0.04538 0.0
C487 C 0.76685 0.11139 0.04392 0.0
C488 C 0.76691 0.09484 0.05281 0.0
C489 C 0.78273 0.09167 0.0625 0.0
C490 C 0.79794 0.10547 0.06306 0.0
H491 H 0.78233 0.13743 0.03819 0.0
O492 O 0.81351 0.17498 0.09789 0.0
O493 O 0.82172 0.15089 0.08124 0.0
O494 O 0.8232 0.18351 0.0618 0.0
O495 O 0.81257 0.15551 0.0423 0.0
C496 C 0.7841 0.07512 0.07116 0.0
C497 C 0.80064 0.07243 0.07975 0.0
H498 H 0.83479 0.07178 0.09399 0.0
H499 H 0.86042 0.09691 0.09174 0.0
H500 H 0.75487 0.11363 0.03575 0.0
H501 H 0.75482 0.08448 0.05176 0.0
H502 H 0.77253 0.06429 0.07114 0.0
H503 H 0.80154 0.05963 0.08633 0.0
Mn504 Mn 0.16427 0.51462 0.29397 0.0
Mn505 Mn 0.19901 0.52536 0.33021 0.0
C506 C 0.17956 0.5471 0.30336 0.0
C507 C 0.15016 0.50837 0.26012 0.0
C508 C 0.16104 0.51681 0.33856 0.0
O509 O 0.17304 0.48803 0.29459 0.0
O510 O 0.1953 0.49723 0.31958 0.0
C511 C 0.2273 0.51901 0.30759 0.0
N512 N 0.22042 0.53072 0.3198 0.0
C513 C 0.24518 0.55642 0.32142 0.0
C514 C 0.25258 0.54457 0.309 0.0
C515 C 0.24358 0.5258 0.30204 0.0
C516 C 0.229 0.54881 0.32663 0.0
H517 H 0.22044 0.5046 0.30209 0.0
C518 C 0.1861 0.48438 0.30605 0.0
O519 O 0.142 0.50384 0.27428 0.0
O520 O 0.16686 0.51502 0.26532 0.0
N521 N 0.20458 0.55172 0.34145 0.0
C522 C 0.19498 0.56185 0.35194 0.0
C523 C 0.20177 0.58117 0.35921 0.0
C524 C 0.21835 0.58987 0.3557 0.0
C525 C 0.22801 0.57917 0.34492 0.0
C526 C 0.22062 0.55992 0.33812 0.0
H527 H 0.18217 0.55531 0.3546 0.0
O528 O 0.16317 0.54287 0.29551 0.0
O529 O 0.1864 0.53212 0.30637 0.0
O530 O 0.15398 0.51335 0.32058 0.0
O531 O 0.17776 0.52084 0.34334 0.0
C532 C 0.24445 0.587 0.34019 0.0
C533 C 0.25303 0.57563 0.32845 0.0
H534 H 0.26506 0.5498 0.30455 0.0
H535 H 0.24915 0.5166 0.29235 0.0
H536 H 0.1942 0.58937 0.36744 0.0
H537 H 0.22346 0.60484 0.36116 0.0
H538 H 0.25047 0.60184 0.34522 0.0
H539 H 0.26553 0.5819 0.32466 0.0
Mn540 Mn 0.81509 0.89935 0.56129 0.0
Mn541 Mn 0.82324 0.93817 0.53821 0.0
C542 C 0.84389 0.91385 0.56014 0.0
C543 C 0.80959 0.88502 0.5888 0.0
C544 C 0.81218 0.89766 0.51709 0.0
O545 O 0.79143 0.90813 0.55856 0.0
O546 O 0.79892 0.93417 0.54417 0.0
C547 C 0.82177 0.96735 0.57089 0.0
N548 N 0.83055 0.96051 0.55706 0.0
C549 C 0.85489 0.98704 0.56653 0.0
C550 C 0.84607 0.99444 0.58081 0.0
C551 C 0.82947 0.98451 0.58305 0.0
C552 C 0.84662 0.96982 0.55494 0.0
H553 H 0.809 0.95977 0.57263 0.0
C554 C 0.7878 0.9228 0.55135 0.0
O555 O 0.80481 0.87571 0.57146 0.0
O556 O 0.81712 0.90287 0.59017 0.0
N557 N 0.84619 0.94423 0.53129 0.0
C558 C 0.85297 0.93513 0.51686 0.0
C559 C 0.86941 0.94333 0.51256 0.0
C560 C 0.87858 0.96093 0.52291 0.0
C561 C 0.87126 0.97014 0.53754 0.0
C562 C 0.85476 0.96137 0.54105 0.0
H563 H 0.84587 0.92173 0.50866 0.0
O564 O 0.84018 0.89631 0.56355 0.0
O565 O 0.83072 0.92261 0.55787 0.0
O566 O 0.81118 0.88942 0.53217 0.0
O567 O 0.81627 0.9158 0.51774 0.0
C568 C 0.87974 0.98762 0.54884 0.0
C569 C 0.87161 0.996 0.56341 0.0
H570 H 0.85195 1.00769 0.59019 0.0
H571 H 0.8226 0.9901 0.59408 0.0
H572 H 0.87496 0.93616 0.50122 0.0
H573 H 0.89121 0.96726 0.5195 0.0
H574 H 0.89259 0.99464 0.54656 0.0
H575 H 0.87833 1.00934 0.57214 0.0
Mn576 Mn 0.93702 1.00489 0.26282 0.0
Mn577 Mn 0.90124 1.00066 0.28505 0.0
C578 C 0.92251 0.97469 0.26653 0.0
C579 C 0.94958 1.00961 0.23506 0.0
C580 C 0.93863 1.01381 0.30621 0.0
O581 O 0.93018 0.03118 0.26353 0.0
O582 O 0.90365 0.02441 0.27294 0.0
C583 C 0.87358 0.99493 0.25079 0.0
N584 N 0.88049 0.989 0.26728 0.0
C585 C 0.85649 0.96213 0.26361 0.0
C586 C 0.84897 0.9681 0.24672 0.0
C587 C 0.85762 0.9845 0.24021 0.0
C588 C 0.87248 0.97302 0.27345 0.0
H589 H 0.88024 1.00747 0.24571 0.0
C590 C 0.91549 0.03544 0.26636 0.0
O591 O 0.95862 1.01475 0.25224 0.0
O592 O 0.93323 1.00138 0.23393 0.0
N593 N 0.89699 0.97819 0.29737 0.0
C594 C 0.90636 0.97389 0.31347 0.0
C595 C 0.89957 0.95786 0.32181 0.0
C596 C 0.88315 0.94654 0.31369 0.0
C597 C 0.87376 0.95118 0.29711 0.0
C598 C 0.88111 0.96744 0.28954 0.0
H599 H 0.91882 0.98272 0.32004 0.0
O600 O 0.93845 0.97716 0.26267 0.0
O601 O 0.91541 0.98973 0.26737 0.0
O602 O 0.94629 1.01027 0.29174 0.0
O603 O 0.92199 1.01236 0.30492 0.0
C604 C 0.85744 0.94026 0.28774 0.0
C605 C 0.84888 0.94565 0.27091 0.0
H606 H 0.83666 0.9601 0.23853 0.0
H607 H 0.85198 0.9891 0.2271 0.0
H608 H 0.90689 0.95435 0.3346 0.0
H609 H 0.87786 0.93433 0.32032 0.0
H610 H 0.85149 0.92755 0.2932 0.0
H611 H 0.8365 0.93695 0.26364 0.0
Mn612 Mn 0.33094 0.67132 0.57775 0.0
Mn613 Mn 0.31415 0.63023 0.54733 0.0
C614 C 0.30779 0.65019 0.58495 0.0
C615 C 0.35094 0.68966 0.60317 0.0
C616 C 0.30504 0.66818 0.54025 0.0
O617 O 0.34984 0.66966 0.56102 0.0
O618 O 0.33739 0.64228 0.54158 0.0
C619 C 0.34049 0.60835 0.56214 0.0
N620 N 0.32341 0.61 0.55776 0.0
C621 C 0.3132 0.57897 0.56652 0.0
C622 C 0.33068 0.57688 0.57105 0.0
C623 C 0.34438 0.59168 0.56894 0.0
C624 C 0.31015 0.596 0.56003 0.0
H625 H 0.35105 0.61965 0.56042 0.0
C626 C 0.34981 0.65688 0.54695 0.0
O627 O 0.34314 0.69739 0.58961 0.0
O628 O 0.34757 0.67111 0.6017 0.0
N629 N 0.2917 0.61647 0.5505 0.0
C630 C 0.27557 0.62068 0.54533 0.0
C631 C 0.26043 0.60727 0.54636 0.0
C632 C 0.262 0.58951 0.55224 0.0
C633 C 0.27872 0.58534 0.55714 0.0
C634 C 0.29333 0.59926 0.55582 0.0
H635 H 0.27428 0.63416 0.54044 0.0
O636 O 0.31118 0.66799 0.5927 0.0
O637 O 0.31841 0.6449 0.57354 0.0
O638 O 0.31495 0.67792 0.5552 0.0
O639 O 0.30367 0.65016 0.53582 0.0
C640 C 0.28147 0.56794 0.56329 0.0
C641 C 0.2987 0.56482 0.56814 0.0
H642 H 0.33373 0.564 0.57618 0.0
H643 H 0.35791 0.5902 0.57245 0.0
H644 H 0.24757 0.61056 0.54249 0.0
H645 H 0.25027 0.57918 0.5529 0.0
H646 H 0.27042 0.55689 0.56444 0.0
H647 H 0.30064 0.55146 0.57302 0.0
Mn648 Mn 0.43897 0.50347 0.7646 0.0
Mn649 Mn 0.40488 0.4958 0.78938 0.0
C650 C 0.42468 0.4725 0.76527 0.0
C651 C 0.44971 0.51082 0.73644 0.0
C652 C 0.44296 0.50735 0.80856 0.0
O653 O 0.43206 0.52953 0.76881 0.0
O654 O 0.4075 0.52195 0.78205 0.0
C655 C 0.37542 0.49628 0.75858 0.0
N656 N 0.38317 0.48716 0.77225 0.0
C657 C 0.35867 0.46061 0.76599 0.0
C658 C 0.35038 0.46976 0.7519 0.0
C659 C 0.35882 0.48764 0.74814 0.0
C660 C 0.3752 0.46993 0.77594 0.0
H661 H 0.38186 0.51006 0.75571 0.0
C662 C 0.41851 0.53378 0.77518 0.0
O663 O 0.45971 0.51473 0.75318 0.0
O664 O 0.4335 0.50258 0.73605 0.0
N665 N 0.40076 0.47097 0.79735 0.0
C666 C 0.41111 0.46345 0.81034 0.0
C667 C 0.40489 0.44528 0.81519 0.0
C668 C 0.38806 0.43513 0.80681 0.0
C669 C 0.37761 0.44321 0.79357 0.0
C670 C 0.38449 0.46138 0.78932 0.0
H671 H 0.42401 0.47123 0.81691 0.0
O672 O 0.44047 0.47574 0.76099 0.0
O673 O 0.41773 0.48744 0.76884 0.0
O674 O 0.4499 0.50639 0.79319 0.0
O675 O 0.42642 0.50441 0.80859 0.0
C676 C 0.36081 0.43376 0.78407 0.0
C677 C 0.35136 0.44244 0.77027 0.0
H678 H 0.33761 0.46311 0.74377 0.0
H679 H 0.35254 0.49475 0.73724 0.0
H680 H 0.41305 0.43911 0.82538 0.0
H681 H 0.38335 0.42107 0.8105 0.0
H682 H 0.35518 0.41965 0.78699 0.0
H683 H 0.3386 0.43488 0.76281 0.0
Mn684 Mn 0.66298 1.01469 0.79299 0.0
Mn685 Mn 0.69754 0.02501 0.8294 0.0
C686 C 0.67841 0.0471 0.8026 0.0
C687 C 0.649 1.00871 0.75913 0.0
C688 C 0.65947 0.01643 0.83746 0.0
O689 O 0.67158 0.98799 0.79347 0.0
O690 O 0.6938 0.99694 0.81853 0.0
C691 C 0.726 0.01882 0.80698 0.0
N692 N 0.71905 0.03046 0.81919 0.0
C693 C 0.74383 0.05619 0.82109 0.0
C694 C 0.7513 0.04441 0.80867 0.0
C695 C 0.74232 0.02566 0.80157 0.0
C696 C 0.72761 0.04852 0.82616 0.0
H697 H 0.71915 1.00442 0.80137 0.0
C698 C 0.68458 0.98419 0.80491 0.0
O699 O 0.64076 1.00411 0.77322 0.0
O700 O 0.66571 0.01525 0.7644 0.0
N701 N 0.70309 0.05131 0.84084 0.0
C702 C 0.69343 0.06137 0.85131 0.0
C703 C 0.70018 0.08067 0.8587 0.0
C704 C 0.7168 0.08943 0.85532 0.0
C705 C 0.72652 0.07879 0.84456 0.0
C706 C 0.71916 0.05956 0.83764 0.0
H707 H 0.68059 0.0548 0.85385 0.0
O708 O 0.66204 0.04299 0.7947 0.0
O709 O 0.68513 0.03203 0.80558 0.0
O710 O 0.65252 1.01326 0.81946 0.0
O711 O 0.67618 0.02036 0.84237 0.0
C712 C 0.743 0.08667 0.83996 0.0
C713 C 0.75165 0.07538 0.82825 0.0
H714 H 0.76382 0.04969 0.80432 0.0
H715 H 0.74795 0.01652 0.79188 0.0
H716 H 0.69256 0.08882 0.8669 0.0
H717 H 0.72189 0.10437 0.86088 0.0
H718 H 0.749 0.10151 0.84508 0.0
H719 H 0.76418 0.08169 0.82455 0.0
Mn720 Mn 0.76834 0.6618 0.01941 0.0
Mn721 Mn 0.75489 0.62407 0.98408 0.0
C722 C 0.73878 0.64756 1.01161 0.0
C723 C 0.77796 0.67479 0.0519 0.0
C724 C 0.76519 0.66494 0.97599 0.0
O725 O 0.79115 0.65223 0.01653 0.0
O726 O 0.78039 0.62663 0.99369 0.0
C727 C 0.75957 0.59299 1.00741 0.0
N728 N 0.74899 0.60125 0.99542 0.0
C729 C 0.72398 0.57655 0.99612 0.0
C730 C 0.73464 0.56772 1.00838 0.0
C731 C 0.7525 0.57599 0.01407 0.0
C732 C 0.73178 0.5934 0.98984 0.0
H733 H 0.77328 0.59934 1.01191 0.0
C734 C 0.79305 0.63745 1.00559 0.0
O735 O 0.78088 0.68477 0.038 0.0
O736 O 0.77016 0.65705 0.04689 0.0
N737 N 0.73042 0.61989 0.97385 0.0
C738 C 0.72175 0.63069 0.96275 0.0
C739 C 0.70365 0.62465 0.95624 0.0
C740 C 0.69468 0.60754 0.96114 0.0
C741 C 0.7039 0.59658 0.97243 0.0
C742 C 0.72196 0.60322 0.97835 0.0
H743 H 0.72856 0.64389 0.959 0.0
O744 O 0.74348 0.66512 0.02003 0.0
O745 O 0.75149 0.63903 1.00781 0.0
O746 O 0.76857 0.67267 0.99364 0.0
O747 O 0.76022 0.6469 0.9709 0.0
C748 C 0.69582 0.57951 0.97836 0.0
C749 C 0.70585 0.56951 0.9902 0.0
H750 H 0.72921 0.55468 0.01366 0.0
H751 H 0.76079 0.56931 0.0236 0.0
H752 H 0.69662 0.6332 0.94755 0.0
H753 H 0.68068 0.60304 0.95627 0.0
H754 H 0.68186 0.57408 0.9741 0.0
H755 H 0.69945 0.55653 0.99486 0.0
Mn756 Mn 0.91543 0.54704 0.77243 0.0
Mn757 Mn 0.88253 0.54145 0.79986 0.0
C758 C 0.90052 0.51556 0.77614 0.0
C759 C 0.92797 0.54943 0.74212 0.0
C760 C 0.92128 0.55037 0.81816 0.0
O761 O 0.90728 0.57419 0.77397 0.0
O762 O 0.88661 0.56823 0.79301 0.0
C763 C 0.85357 0.54485 0.7696 0.0
N764 N 0.86045 0.53488 0.78305 0.0
C765 C 0.83462 0.50991 0.77617 0.0
C766 C 0.82722 0.51999 0.76236 0.0
C767 C 0.83676 0.5375 0.75902 0.0
C768 C 0.85144 0.51792 0.78625 0.0
H769 H 0.86085 0.55829 0.76691 0.0
C770 C 0.8952 0.5795 0.78314 0.0
O771 O 0.93685 0.55575 0.75918 0.0
O772 O 0.91145 0.54287 0.7424 0.0
N773 N 0.87637 0.51676 0.80775 0.0
C774 C 0.88551 0.50855 0.82124 0.0
C775 C 0.87784 0.49086 0.82611 0.0
C776 C 0.86078 0.48189 0.81728 0.0
C777 C 0.85148 0.49078 0.80375 0.0
C778 C 0.85976 0.50847 0.79954 0.0
H779 H 0.89861 0.51535 0.82815 0.0
O780 O 0.91619 0.51866 0.7716 0.0
O781 O 0.89386 0.53098 0.77848 0.0
O782 O 0.9273 0.55171 0.80206 0.0
O783 O 0.90477 0.54734 0.81871 0.0
C784 C 0.83445 0.48259 0.794 0.0
C785 C 0.82606 0.49211 0.78016 0.0
H786 H 0.81426 0.51436 0.75416 0.0
H787 H 0.83117 0.54532 0.74832 0.0
H788 H 0.8851 0.48411 0.8366 0.0
H789 H 0.85498 0.46815 0.82093 0.0
H790 H 0.82778 0.46887 0.79686 0.0
H791 H 0.81304 0.48557 0.7726 0.0
Mn792 Mn 0.74557 0.39033 0.48636 0.0
Mn793 Mn 0.73284 0.4252 0.46293 0.0
C794 C 0.76587 0.41128 0.47428 0.0
C795 C 0.75525 0.37897 0.51458 0.0
C796 C 0.72561 0.38356 0.4452 0.0
O797 O 0.72212 0.39195 0.49478 0.0
O798 O 0.7155 0.4166 0.47996 0.0
C799 C 0.73615 0.45555 0.49615 0.0
N800 N 0.74065 0.44947 0.47881 0.0
C801 C 0.75973 0.47976 0.47897 0.0
C802 C 0.7552 0.48638 0.49675 0.0
C803 C 0.74337 0.47422 0.50538 0.0
C804 C 0.75193 0.46111 0.47031 0.0
H805 H 0.72716 0.44623 0.50292 0.0
C806 C 0.71241 0.40406 0.49135 0.0
O807 O 0.74715 0.36739 0.49926 0.0
O808 O 0.75751 0.39718 0.51356 0.0
N809 N 0.74901 0.43488 0.44659 0.0
C810 C 0.7533 0.42572 0.43039 0.0
C811 C 0.76565 0.43561 0.42051 0.0
C812 C 0.77349 0.45477 0.42739 0.0
C813 C 0.76893 0.46388 0.44413 0.0
C814 C 0.75639 0.45337 0.45326 0.0
H815 H 0.74753 0.41092 0.4252 0.0
O816 O 0.76886 0.39454 0.47732 0.0
O817 O 0.75098 0.41505 0.47814 0.0
O818 O 0.73343 0.37755 0.45958 0.0
O819 O 0.72443 0.40105 0.44496 0.0
C820 C 0.77668 0.4828 0.45239 0.0
C821 C 0.77207 0.49075 0.46978 0.0
H822 H 0.7609 0.50069 0.50403 0.0
H823 H 0.73989 0.47918 0.51916 0.0
H824 H 0.76921 0.42843 0.40769 0.0
H825 H 0.78317 0.46227 0.41986 0.0
H826 H 0.78643 0.49126 0.44566 0.0
H827 H 0.77834 0.5052 0.47616 0.0
Mn828 Mn 0.6501 0.54729 0.31142 0.0
Mn829 Mn 0.68637 0.55446 0.34526 0.0
C830 C 0.66696 0.57772 0.32104 0.0
C831 C 0.6365 0.54014 0.27915 0.0
C832 C 0.64945 0.54742 0.35489 0.0
O833 O 0.65536 0.52047 0.31158 0.0
O834 O 0.68003 0.52712 0.3338 0.0
C835 C 0.7122 0.54678 0.31977 0.0
N836 N 0.70693 0.55872 0.33327 0.0
C837 C 0.73318 0.58249 0.33506 0.0
C838 C 0.73893 0.57042 0.32123 0.0
C839 C 0.72836 0.55252 0.3135 0.0
C840 C 0.71694 0.57602 0.3407 0.0
H841 H 0.70412 0.53299 0.31385 0.0
C842 C 0.66819 0.51554 0.32163 0.0
O843 O 0.62766 0.53724 0.29324 0.0
O844 O 0.65323 0.5468 0.2838 0.0
N845 N 0.69397 0.58036 0.35749 0.0
C846 C 0.68597 0.59076 0.36973 0.0
C847 C 0.6945 0.60933 0.37816 0.0
C848 C 0.71123 0.61689 0.37413 0.0
C849 C 0.71925 0.60583 0.36163 0.0
C850 C 0.7101 0.58746 0.3536 0.0
H851 H 0.67316 0.58496 0.37296 0.0
O852 O 0.65061 0.57552 0.31332 0.0
O853 O 0.67282 0.56212 0.32306 0.0
O854 O 0.6414 0.54623 0.33768 0.0
O855 O 0.66614 0.5505 0.35914 0.0
C856 C 0.73589 0.61239 0.35665 0.0
C857 C 0.74281 0.60077 0.34329 0.0
H858 H 0.75139 0.57479 0.31635 0.0
H859 H 0.73268 0.54316 0.30277 0.0
H860 H 0.68821 0.61777 0.38778 0.0
H861 H 0.71774 0.63123 0.38062 0.0
H862 H 0.74333 0.62649 0.36275 0.0
H863 H 0.75546 0.60614 0.33929 0.0
Tb864 Tb 0.02641 0.02242 0.02998 0.0
Tb865 Tb 0.06176 0.04207 0.05122 0.0
C866 C 0.99428 0.01649 0.01763 0.0
C867 C 0.9834 0.03124 0.01594 0.0
C868 C 0.98101 0.04257 0.03266 0.0
C869 C 0.97495 0.05954 0.03128 0.0
C870 C 0.97106 0.06551 1.01319 0.0
C871 C 0.97204 0.0535 0.99637 0.0
C872 C 0.9782 0.03648 0.99774 0.0
C873 C 0.05247 0.0201 1.01036 0.0
C874 C 0.04004 0.06777 0.03077 0.0
C875 C 0.09398 0.04792 0.06321 0.0
C876 C 0.10479 0.03314 0.06433 0.0
C877 C 0.10142 0.01747 0.04954 0.0
C878 C 0.1091 1.00168 0.05181 0.0
C879 C 0.12047 1.00122 0.0688 0.0
C880 C 0.12454 0.01718 0.08329 0.0
C881 C 0.11657 0.03301 0.08114 0.0
C882 C 0.03568 0.04448 0.07086 0.0
C883 C 0.04835 0.99655 0.04965 0.0
O884 O 1.00062 1.01439 0.03525 0.0
O885 O 1.00617 0.01689 1.00618 0.0
O886 O 0.05064 0.03429 0.02161 0.0
O887 O 0.03871 1.00663 1.00896 0.0
O888 O 0.02662 0.05322 0.0294 0.0
O889 O 0.05617 0.06636 0.03774 0.0
O890 O 0.08748 0.05026 0.04572 0.0
O891 O 0.08222 0.04711 0.07481 0.0
O892 O 0.03748 0.03023 0.05964 0.0
O893 O 0.04953 0.05788 0.07225 0.0
O894 O 0.06158 1.01135 0.05174 0.0
O895 O 0.03219 0.99776 0.04259 0.0
H896 H 0.98478 0.03899 0.04694 0.0
H897 H 0.97386 0.06833 0.04444 0.0
H898 H 0.96897 0.05777 0.98225 0.0
H899 H 0.97992 0.02802 0.98463 0.0
H900 H 0.0923 0.01705 0.03645 0.0
H901 H 0.10605 0.9897 0.04025 0.0
H902 H 0.13341 0.01715 0.09644 0.0
H903 H 0.11917 0.04484 0.0928 0.0
Tb904 Tb 0.2928 0.77335 0.27005 0.0
Tb905 Tb 0.28558 0.78885 0.30735 0.0
C906 C 0.296 0.76581 0.23512 0.0
C907 C 0.29905 0.77632 0.21887 0.0
C908 C 0.2949 0.79451 0.21836 0.0
C909 C 0.29646 0.80355 0.20197 0.0
C910 C 0.30222 0.79453 0.18588 0.0
C911 C 0.30706 0.77666 0.18686 0.0
C912 C 0.30545 0.76762 0.20323 0.0
C913 C 0.31413 0.76663 0.2996 0.0
C914 C 0.30739 0.81846 0.28595 0.0
C915 C 0.28151 0.79627 0.34197 0.0
C916 C 0.27566 0.7855 0.35717 0.0
C917 C 0.27994 0.7676 0.35928 0.0
C918 C 0.27461 0.75793 0.37424 0.0
C919 C 0.26478 0.76592 0.38722 0.0
C920 C 0.26 0.78354 0.38456 0.0
C921 C 0.26546 0.79327 0.3697 0.0
C922 C 0.26421 0.79537 0.27761 0.0
C923 C 0.27114 0.74375 0.29174 0.0
O924 O 0.28094 0.76593 0.24117 0.0
O925 O 0.30906 0.76845 0.24936 0.0
O926 O 0.30877 0.78206 0.29801 0.0
O927 O 0.308 0.75469 0.284 0.0
O928 O 0.3029 0.80475 0.27074 0.0
O929 O 0.3034 0.81477 0.30301 0.0
O930 O 0.29651 0.79401 0.33668 0.0
O931 O 0.26944 0.79615 0.32728 0.0
O932 O 0.26964 0.78004 0.27943 0.0
O933 O 0.2703 0.8074 0.29313 0.0
O934 O 0.27578 0.75745 0.30693 0.0
O935 O 0.27492 0.74747 0.27461 0.0
H936 H 0.28997 0.80144 0.23038 0.0
H937 H 0.29247 0.81722 0.2016 0.0
H938 H 0.3118 0.7695 0.17482 0.0
H939 H 0.30882 0.75363 0.20349 0.0
H940 H 0.28765 0.76126 0.3496 0.0
H941 H 0.27874 0.74451 0.37601 0.0
H942 H 0.25222 0.78994 0.39411 0.0
H943 H 0.26184 0.80697 0.36807 0.0
Tb944 Tb 0.55902 0.03292 0.53049 0.0
Tb945 Tb 0.52026 0.02585 0.54079 0.0
C946 C 0.59164 0.03541 0.53197 0.0
C947 C 0.60554 0.02491 0.53801 0.0
C948 C 0.60163 1.00567 0.54097 0.0
C949 C 0.61517 0.9954 0.54431 0.0
C950 C 0.6328 1.0042 0.54463 0.0
C951 C 0.6366 0.02371 0.54249 0.0
C952 C 0.62311 0.03392 0.5392 0.0
C953 C 0.53506 0.03801 0.50055 0.0
C954 C 0.53582 0.99087 0.52416 0.0
C955 C 0.48768 0.02376 0.53903 0.0
C956 C 0.47419 0.03488 0.53313 0.0
C957 C 0.478 0.05498 0.53539 0.0
C958 C 0.46457 0.06525 0.53159 0.0
C959 C 0.44707 0.05561 0.52536 0.0
C960 C 0.44347 0.03546 0.52255 0.0
C961 C 0.45688 0.02524 0.52643 0.0
C962 C 0.54412 0.02063 0.5707 0.0
C963 C 0.5437 0.06782 0.54752 0.0
O964 O 0.58454 0.04377 0.5456 0.0
O965 O 0.58001 0.02693 0.51699 0.0
O966 O 0.53293 0.03378 0.51719 0.0
O967 O 0.55189 0.04013 0.50089 0.0
O968 O 0.55173 1.00184 0.52743 0.0
O969 O 0.52144 0.99751 0.52688 0.0
O970 O 0.49478 0.01553 0.52532 0.0
O971 O 0.49922 0.03151 0.55435 0.0
O972 O 0.54637 0.0251 0.55416 0.0
O973 O 0.52726 0.01833 0.57025 0.0
O974 O 0.52771 0.05701 0.54422 0.0
O975 O 0.55799 0.06108 0.54474 0.0
H976 H 0.58812 0.99844 0.5401 0.0
H977 H 0.61177 0.98039 0.54582 0.0
H978 H 0.65002 0.03104 0.54302 0.0
H979 H 0.6264 0.04876 0.53699 0.0
H980 H 0.49128 0.06275 0.54049 0.0
H981 H 0.46786 0.08073 0.53366 0.0
H982 H 0.43015 0.02755 0.51799 0.0
H983 H 0.45363 1.00975 0.52468 0.0
Tb984 Tb 0.27334 0.28087 0.78443 0.0
Tb985 Tb 0.31116 0.27539 0.79481 0.0
C986 C 0.24095 0.28007 0.78334 0.0
C987 C 0.22784 0.27893 0.79678 0.0
C988 C 0.2239 0.2629 0.8064 0.0
C989 C 0.21045 0.26148 0.81776 0.0
C990 C 0.2007 0.27608 0.81986 0.0
C991 C 0.20495 0.29227 0.81056 0.0
C992 C 0.2183 0.29363 0.79912 0.0
C993 C 0.29804 0.30752 0.77678 0.0
C994 C 0.29359 0.29201 0.82819 0.0
C995 C 0.34374 0.2772 0.79681 0.0
C996 C 0.35735 0.27827 0.78417 0.0
C997 C 0.35554 0.28627 0.7669 0.0
C998 C 0.36921 0.28806 0.75582 0.0
C999 C 0.38493 0.28191 0.76186 0.0
C1000 C 0.38645 0.27359 0.779 0.0
C1001 C 0.37282 0.27182 0.79002 0.0
C1002 C 0.28666 0.24856 0.80274 0.0
C1003 C 0.29086 0.26386 0.75111 0.0
O1004 O 0.2477 0.26489 0.77953 0.0
O1005 O 0.25267 0.29596 0.78548 0.0
O1006 O 0.29858 0.29885 0.79126 0.0
O1007 O 0.28263 0.30233 0.76626 0.0
O1008 O 0.27843 0.28737 0.81622 0.0
O1009 O 0.3087 0.29017 0.82253 0.0
O1010 O 0.33644 0.2922 0.79926 0.0
O1011 O 0.33235 0.26106 0.79466 0.0
O1012 O 0.28583 0.25733 0.78828 0.0
O1013 O 0.30234 0.25353 0.81265 0.0
O1014 O 0.30606 0.26893 0.763 0.0
O1015 O 0.27572 0.26544 0.75693 0.0
H1016 H 0.23099 0.25129 0.80495 0.0
H1017 H 0.20766 0.24891 0.82487 0.0
H1018 H 0.19757 0.30367 0.81162 0.0
H1019 H 0.22094 0.30605 0.79175 0.0
H1020 H 0.3437 0.29138 0.76213 0.0
H1021 H 0.36763 0.29464 0.74278 0.0
H1022 H 0.39818 0.26836 0.78391 0.0
H1023 H 0.37444 0.26557 0.80328 0.0
Tb1024 Tb 0.04001 0.05 0.54404 0.0
Tb1025 Tb 0.04347 1.00897 0.53525 0.0
C1026 C 0.04397 0.08561 0.54544 0.0
C1027 C 0.04856 0.09883 0.53171 0.0
C1028 C 0.05019 0.09182 0.51277 0.0
C1029 C 0.05512 0.10444 0.49991 0.0
C1030 C 0.05861 0.12428 0.50585 0.0
C1031 C 0.05708 0.13124 0.52491 0.0
C1032 C 0.05207 0.11858 0.53774 0.0
C1033 C 0.01446 0.0249 0.55308 0.0
C1034 C 0.02849 0.02912 0.50079 0.0
C1035 C 0.03991 0.97333 0.52823 0.0
C1036 C 0.04626 0.95975 0.54007 0.0
C1037 C 0.05671 0.96661 0.55809 0.0
C1038 C 0.05998 0.95407 0.57123 0.0
C1039 C 0.05298 0.93436 0.56651 0.0
C1040 C 0.04347 0.92742 0.54789 0.0
C1041 C 0.04001 0.94007 0.53482 0.0
C1042 C 0.0728 0.03463 0.53809 0.0
C1043 C 0.05441 0.02935 0.57765 0.0
O1044 O 0.05651 0.07687 0.55166 0.0
O1045 O 0.02865 0.07402 0.54079 0.0
O1046 O 0.02216 0.02313 0.5386 0.0
O1047 O 0.02029 0.04191 0.5626 0.0
O1048 O 0.03036 0.04498 0.51308 0.0
O1049 O 0.03289 1.0133 0.50617 0.0
O1050 O 0.02841 0.98195 0.53559 0.0
O1051 O 0.05192 0.98523 0.522 0.0
O1052 O 0.05771 0.03589 0.53036 0.0
O1053 O 0.07198 0.01808 0.544 0.0
O1054 O 0.04696 1.01295 0.56678 0.0
O1055 O 0.05566 0.04575 0.57057 0.0
H1056 H 0.04783 0.07662 0.50793 0.0
H1057 H 0.05638 0.09867 0.48539 0.0
H1058 H 0.0595 0.14648 0.5298 0.0
H1059 H 0.05098 0.1242 0.55237 0.0
H1060 H 0.06157 0.98181 0.56241 0.0
H1061 H 0.06715 0.96001 0.58547 0.0
H1062 H 0.03819 0.9123 0.54363 0.0
H1063 H 0.03188 0.93458 0.52096 0.0
Tb1064 Tb 0.29282 0.75738 0.76342 0.0
Tb1065 Tb 0.29905 0.79786 0.78538 0.0
C1066 C 0.29716 0.72688 0.74514 0.0
C1067 C 0.31054 0.71502 0.74787 0.0
C1068 C 0.31462 0.70418 0.73187 0.0
C1069 C 0.32728 0.69279 0.73439 0.0
C1070 C 0.33608 0.69211 0.75298 0.0
C1071 C 0.33222 0.70339 0.76891 0.0
C1072 C 0.31954 0.71469 0.76638 0.0
C1073 C 0.27375 0.76229 0.79089 0.0
C1074 C 0.3245 0.77212 0.79891 0.0
C1075 C 0.2959 0.82918 0.80315 0.0
C1076 C 0.28166 0.84 0.80394 0.0
C1077 C 0.28142 0.85233 0.82074 0.0
C1078 C 0.26805 0.86283 0.82167 0.0
C1079 C 0.25455 0.861 0.80584 0.0
C1080 C 0.25475 0.84836 0.78911 0.0
C1081 C 0.26826 0.83809 0.78813 0.0
C1082 C 0.3182 0.79254 0.75817 0.0
C1083 C 0.26647 0.78222 0.75119 0.0
O1084 O 0.30268 0.74381 0.74045 0.0
O1085 O 0.28694 0.72744 0.75839 0.0
O1086 O 0.28954 0.7698 0.79111 0.0
O1087 O 0.26809 0.75052 0.775 0.0
O1088 O 0.3179 0.76026 0.78273 0.0
O1089 O 0.31771 0.78707 0.8044 0.0
O1090 O 0.29363 0.81307 0.81038 0.0
O1091 O 0.30205 0.8276 0.78677 0.0
O1092 O 0.30228 0.78542 0.75766 0.0
O1093 O 0.32402 0.804 0.7742 0.0
O1094 O 0.27291 0.79357 0.76775 0.0
O1095 O 0.27412 0.76832 0.74469 0.0
H1096 H 0.30788 0.70438 0.71746 0.0
H1097 H 0.32985 0.68414 0.72185 0.0
H1098 H 0.33896 0.70344 0.78337 0.0
H1099 H 0.3167 0.72303 0.77895 0.0
H1100 H 0.29167 0.85399 0.83309 0.0
H1101 H 0.26851 0.87264 0.83467 0.0
H1102 H 0.2445 0.84641 0.77673 0.0
H1103 H 0.26832 0.82882 0.77495 0.0
Tb1104 Tb 0.52479 0.03755 0.02294 0.0
Tb1105 Tb 0.55238 0.02416 0.04761 0.0
C1106 C 0.49662 0.04143 1.0035 0.0
C1107 C 0.47792 0.03335 1.00258 0.0
C1108 C 0.47253 1.01483 1.00697 0.0
C1109 C 0.45473 1.00657 1.00432 0.0
C1110 C 0.44193 0.01678 0.99751 0.0
C1111 C 0.44742 0.03564 0.99388 0.0
C1112 C 0.46529 0.04381 0.99632 0.0
C1113 C 0.55133 0.06513 0.03976 0.0
C1114 C 0.51922 0.03064 0.06694 0.0
C1115 C 0.58073 0.02052 0.06678 0.0
C1116 C 0.59912 0.02977 0.06758 0.0
C1117 C 0.60324 0.0483 0.06282 0.0
C1118 C 0.62065 0.05779 0.06512 0.0
C1119 C 0.63443 0.04866 0.07151 0.0
C1120 C 0.63019 0.02971 0.07548 0.0
C1121 C 0.61266 0.02042 0.07371 0.0
C1122 C 0.52579 0.99664 0.03048 0.0
C1123 C 0.5581 0.03121 1.00377 0.0
O1124 O 0.50621 0.02932 0.99792 0.0
O1125 O 0.50431 0.05288 0.01923 0.0
O1126 O 0.54446 0.05086 0.04684 0.0
O1127 O 0.5424 0.06478 0.02284 0.0
O1128 O 0.51177 0.03165 0.04896 0.0
O1129 O 0.53593 0.02895 0.07016 0.0
O1130 O 0.57061 0.03177 0.07297 0.0
O1131 O 0.57331 1.00943 0.05073 0.0
O1132 O 0.53283 1.01099 0.0237 0.0
O1133 O 0.53476 0.99668 0.04731 0.0
O1134 O 0.56554 0.03062 0.02186 0.0
O1135 O 0.54127 0.03246 1.00041 0.0
H1136 H 0.48211 1.00655 1.01193 0.0
H1137 H 0.45107 0.99194 1.00701 0.0
H1138 H 0.43794 0.04404 0.98899 0.0
H1139 H 0.46925 0.05818 0.99299 0.0
H1140 H 0.59297 0.05562 0.05766 0.0
H1141 H 0.62318 0.07244 0.06224 0.0
H1142 H 0.64037 0.02199 0.07996 0.0
H1143 H 0.60968 1.006 0.07723 0.0
Tb1144 Tb 0.2749 0.26888 0.28062 0.0
Tb1145 Tb 0.30786 0.29519 0.29769 0.0
C1146 C 0.24365 0.25119 0.27489 0.0
C1147 C 0.22696 0.25789 0.27477 0.0
C1148 C 0.22515 0.27229 0.28918 0.0
C1149 C 0.20959 0.27919 0.28858 0.0
C1150 C 0.1955 0.27188 0.27355 0.0
C1151 C 0.19733 0.25748 0.25908 0.0
C1152 C 0.21298 0.25058 0.25968 0.0
C1153 C 0.29271 0.28406 0.25507 0.0
C1154 C 0.27433 0.31448 0.29395 0.0
C1155 C 0.33924 0.31226 0.30155 0.0
C1156 C 0.35487 0.30465 0.29756 0.0
C1157 C 0.35327 0.2897 0.28237 0.0
C1158 C 0.36759 0.28147 0.27914 0.0
C1159 C 0.38409 0.28834 0.29064 0.0
C1160 C 0.38575 0.30349 0.30579 0.0
C1161 C 0.3712 0.3115 0.30928 0.0
C1162 C 0.29003 0.28014 0.32321 0.0
C1163 C 0.30823 0.24947 0.28454 0.0
O1164 O 0.25388 0.25385 0.29165 0.0
O1165 O 0.25232 0.2557 0.26091 0.0
O1166 O 0.29068 0.29229 0.27115 0.0
O1167 O 0.28395 0.2666 0.25255 0.0
O1168 O 0.26548 0.2964 0.28895 0.0
O1169 O 0.29182 0.3178 0.29719 0.0
O1170 O 0.3276 0.31204 0.28634 0.0
O1171 O 0.33197 0.30608 0.31592 0.0
O1172 O 0.29207 0.27184 0.30715 0.0
O1173 O 0.29896 0.2976 0.32587 0.0
O1174 O 0.31704 0.26752 0.28962 0.0
O1175 O 0.29077 0.24616 0.28131 0.0
H1176 H 0.23573 0.27824 0.30099 0.0
H1177 H 0.20847 0.28996 0.30018 0.0
H1178 H 0.1867 0.25161 0.2473 0.0
H1179 H 0.2142 0.23959 0.24834 0.0
H1180 H 0.34089 0.28419 0.27296 0.0
H1181 H 0.36561 0.26954 0.26767 0.0
H1182 H 0.3983 0.3093 0.3148 0.0
H1183 H 0.37268 0.32301 0.32111 0.0
Tb1184 Tb 0.54324 0.5476 0.0466 0.0
Tb1185 Tb 0.54718 0.50707 0.03689 0.0
C1186 C 0.54511 0.58312 0.04842 0.0
C1187 C 0.54825 0.59723 0.03517 0.0
C1188 C 0.55322 0.59214 0.01717 0.0
C1189 C 0.55672 0.60591 1.00495 0.0
C1190 C 0.55548 0.62498 1.01068 0.0
C1191 C 0.55045 0.62995 0.02871 0.0
C1192 C 0.54684 0.61615 0.04084 0.0
C1193 C 0.51771 0.52187 0.05478 0.0
C1194 C 0.53287 0.5265 1.00296 0.0
C1195 C 0.54614 0.47187 0.03599 0.0
C1196 C 0.54345 0.45861 0.05016 0.0
C1197 C 0.53347 0.4621 0.06486 0.0
C1198 C 0.53094 0.44928 0.0782 0.0
C1199 C 0.53843 0.43284 0.07711 0.0
C1200 C 0.54872 0.42969 0.06257 0.0
C1201 C 0.55116 0.44245 0.04918 0.0
C1202 C 0.57259 0.53304 0.02883 0.0
C1203 C 0.55776 0.52801 0.08033 0.0
O1204 O 0.55844 0.5752 0.05368 0.0
O1205 O 0.53031 0.57066 0.04403 0.0
O1206 O 0.52539 0.52052 0.04021 0.0
O1207 O 0.52345 0.53871 0.06466 0.0
O1208 O 0.53791 0.54287 0.01479 0.0
O1209 O 0.53357 0.50986 1.00897 0.0
O1210 O 0.53257 0.47919 0.02999 0.0
O1211 O 0.56077 0.48462 0.03991 0.0
O1212 O 0.56487 0.53408 0.04334 0.0
O1213 O 0.56707 0.51622 0.01887 0.0
O1214 O 0.55171 0.51162 0.06876 0.0
O1215 O 0.55773 0.54461 0.07401 0.0
H1216 H 0.5546 0.57762 1.01267 0.0
H1217 H 0.5607 0.60174 0.9912 0.0
H1218 H 0.54917 0.64448 0.03337 0.0
H1219 H 0.54305 0.62028 0.05472 0.0
H1220 H 0.52753 0.47464 0.06594 0.0
H1221 H 0.52283 0.45205 0.0891 0.0
H1222 H 0.55498 0.41738 0.06157 0.0
H1223 H 0.55907 0.4397 0.03806 0.0
Tb1224 Tb 0.79089 0.25467 0.28028 0.0
Tb1225 Tb 0.80039 0.29623 0.30102 0.0
C1226 C 0.7918 0.22285 0.262 0.0
C1227 C 0.80574 0.21199 0.25888 0.0
C1228 C 0.8066 0.20357 0.24018 0.0
C1229 C 0.81965 0.1931 0.23698 0.0
C1230 C 0.83215 0.191 0.25245 0.0
C1231 C 0.83152 0.19985 0.27111 0.0
C1232 C 0.81837 0.21015 0.27431 0.0
C1233 C 0.77199 0.2631 0.30696 0.0
C1234 C 0.82353 0.26827 0.31477 0.0
C1235 C 0.79965 0.32872 0.31805 0.0
C1236 C 0.78657 0.34115 0.31736 0.0
C1237 C 0.78419 0.35186 0.33435 0.0
C1238 C 0.77151 0.36336 0.33386 0.0
C1239 C 0.76078 0.36411 0.31637 0.0
C1240 C 0.76329 0.35335 0.29937 0.0
C1241 C 0.77618 0.34217 0.29984 0.0
C1242 C 0.81992 0.28774 0.27513 0.0
C1243 C 0.76693 0.28236 0.26749 0.0
O1244 O 0.79252 0.23855 0.25401 0.0
O1245 O 0.78796 0.22503 0.27958 0.0
O1246 O 0.78811 0.26921 0.30729 0.0
O1247 O 0.76598 0.25057 0.29171 0.0
O1248 O 0.8161 0.25641 0.29881 0.0
O1249 O 0.81779 0.28398 0.32027 0.0
O1250 O 0.7954 0.31289 0.32541 0.0
O1251 O 0.80668 0.32598 0.30237 0.0
O1252 O 0.8037 0.28147 0.27416 0.0
O1253 O 0.82543 0.30073 0.29004 0.0
O1254 O 0.77506 0.29473 0.28281 0.0
O1255 O 0.77239 0.26648 0.26206 0.0
H1256 H 0.79707 0.20495 0.22805 0.0
H1257 H 0.81991 0.18655 0.22242 0.0
H1258 H 0.84082 0.19828 0.28336 0.0
H1259 H 0.81796 0.21646 0.2889 0.0
H1260 H 0.79214 0.35132 0.34801 0.0
H1261 H 0.77019 0.37171 0.34719 0.0
H1262 H 0.7552 0.35339 0.28567 0.0
H1263 H 0.778 0.33427 0.28649 0.0
Tb1264 Tb 0.02466 0.53302 0.52307 0.0
Tb1265 Tb 0.05692 0.53341 0.55152 0.0
C1266 C 0.99518 0.52203 0.50228 0.0
C1267 C 0.97627 0.52001 0.50352 0.0
C1268 C 0.96706 0.50312 0.50861 0.0
C1269 C 0.9489 0.50012 0.50776 0.0
C1270 C 0.93946 0.5139 0.50174 0.0
C1271 C 0.94868 0.53099 0.49702 0.0
C1272 C 0.96692 0.53399 0.49785 0.0
C1273 C 0.04157 0.56733 0.53929 0.0
C1274 C 0.02097 0.53283 0.56899 0.0
C1275 C 0.08588 0.54324 0.57342 0.0
C1276 C 0.10462 0.54234 0.57494 0.0
C1277 C 0.11507 0.54983 0.56182 0.0
C1278 C 0.13329 0.55142 0.56546 0.0
C1279 C 0.14132 0.54557 0.58226 0.0
C1280 C 0.13068 0.53705 0.59471 0.0
C1281 C 0.11251 0.53551 0.5911 0.0
C1282 C 0.03982 0.49925 0.53503 0.0
C1283 C 0.06068 0.53382 0.50557 0.0
O1284 O 1.00364 0.51074 0.51155 0.0
O1285 O 1.00447 0.53938 0.50362 0.0
O1286 O 0.03938 0.5523 0.54701 0.0
O1287 O 0.03284 0.56359 0.52184 0.0
O1288 O 0.01292 0.53032 0.55059 0.0
O1289 O 0.03845 0.53588 0.57265 0.0
O1290 O 0.07968 0.55416 0.56154 0.0
O1291 O 0.07496 0.52713 0.57338 0.0
O1292 O 0.04224 0.51437 0.52764 0.0
O1293 O 0.04886 0.50254 0.55227 0.0
O1294 O 0.06871 0.53598 0.52399 0.0
O1295 O 0.0432 0.53124 0.50184 0.0
H1296 H 0.97379 0.49188 0.51271 0.0
H1297 H 0.9422 0.48662 0.5111 0.0
H1298 H 0.94179 0.54192 0.49245 0.0
H1299 H 0.97363 0.54704 0.4936 0.0
H1300 H 0.10929 0.55516 0.54921 0.0
H1301 H 0.14114 0.55821 0.55568 0.0
H1302 H 0.13645 0.53216 0.6076 0.0
H1303 H 0.10467 0.52967 0.60139 0.0
Tb1304 Tb 0.77519 0.77723 0.28552 0.0
Tb1305 Tb 0.81334 0.77148 0.29361 0.0
C1306 C 0.74217 0.77226 0.27952 0.0
C1307 C 0.72799 0.77654 0.29015 0.0
C1308 C 0.73072 0.78025 0.31044 0.0
C1309 C 0.71654 0.78142 0.32045 0.0
C1310 C 0.69935 0.77894 0.31035 0.0
C1311 C 0.69683 0.77589 0.28999 0.0
C1312 C 0.711 0.77467 0.28002 0.0
C1313 C 0.79999 0.80734 0.28548 0.0
C1314 C 0.79659 0.79064 0.32706 0.0
C1315 C 0.8457 0.77251 0.29488 0.0
C1316 C 0.85942 0.77457 0.28246 0.0
C1317 C 0.8562 0.77936 0.26373 0.0
C1318 C 0.86982 0.78195 0.25263 0.0
C1319 C 0.88685 0.77975 0.26009 0.0
C1320 C 0.8898 0.77461 0.27876 0.0
C1321 C 0.87624 0.77211 0.28982 0.0
C1322 C 0.78945 0.74598 0.30467 0.0
C1323 C 0.79219 0.75965 0.25067 0.0
O1324 O 0.75101 0.76012 0.28663 0.0
O1325 O 0.75237 0.78658 0.27408 0.0
O1326 O 0.79998 0.79029 0.27923 0.0
O1327 O 0.78508 0.80844 0.29129 0.0
O1328 O 0.78088 0.7832 0.31695 0.0
O1329 O 0.8112 0.79022 0.31958 0.0
O1330 O 0.83891 0.78767 0.29899 0.0
O1331 O 0.83388 0.7566 0.29113 0.0
O1332 O 0.78796 0.75394 0.28975 0.0
O1333 O 0.80542 0.75133 0.31366 0.0
O1334 O 0.80719 0.76137 0.26257 0.0
O1335 O 0.77809 0.76501 0.25643 0.0
H1336 H 0.74373 0.78163 0.31857 0.0
H1337 H 0.71902 0.78404 0.3361 0.0
H1338 H 0.68379 0.77366 0.28171 0.0
H1339 H 0.70857 0.77157 0.26438 0.0
H1340 H 0.84325 0.78123 0.25778 0.0
H1341 H 0.86707 0.78601 0.23838 0.0
H1342 H 0.90259 0.77238 0.28485 0.0
H1343 H 0.87894 0.76832 0.30422 0.0
Tb1344 Tb 0.79159 0.27371 0.76909 0.0
Tb1345 Tb 0.78459 0.28878 0.8066 0.0
C1346 C 0.79458 0.2668 0.73403 0.0
C1347 C 0.79678 0.2779 0.71804 0.0
C1348 C 0.79207 0.2959 0.71842 0.0
C1349 C 0.79318 0.30573 0.70249 0.0
C1350 C 0.79903 0.2977 0.68597 0.0
C1351 C 0.8043 0.27995 0.68599 0.0
C1352 C 0.80316 0.27013 0.70191 0.0
C1353 C 0.81328 0.26679 0.79829 0.0
C1354 C 0.80629 0.31863 0.78542 0.0
C1355 C 0.78053 0.2963 0.84122 0.0
C1356 C 0.77571 0.28568 0.85688 0.0
C1357 C 0.78032 0.26787 0.85865 0.0
C1358 C 0.77635 0.2585 0.87427 0.0
C1359 C 0.76757 0.26672 0.88825 0.0
C1360 C 0.76235 0.28419 0.8859 0.0
C1361 C 0.76644 0.2936 0.87035 0.0
C1362 C 0.76315 0.29578 0.77712 0.0
C1363 C 0.77045 0.24372 0.79086 0.0
O1364 O 0.77952 0.26576 0.74032 0.0
O1365 O 0.80784 0.27002 0.74811 0.0
O1366 O 0.80771 0.28214 0.797 0.0
O1367 O 0.80725 0.25508 0.78252 0.0
O1368 O 0.80117 0.30525 0.76997 0.0
O1369 O 0.80281 0.31452 0.80253 0.0
O1370 O 0.79569 0.29503 0.83584 0.0
O1371 O 0.76808 0.29493 0.82657 0.0
O1372 O 0.7685 0.28037 0.77869 0.0
O1373 O 0.76941 0.30763 0.79272 0.0
O1374 O 0.7753 0.2573 0.80615 0.0
O1375 O 0.77392 0.24765 0.77368 0.0
H1376 H 0.78713 0.30211 0.7308 0.0
H1377 H 0.78884 0.31926 0.70284 0.0
H1378 H 0.8091 0.27354 0.6736 0.0
H1379 H 0.80696 0.2563 0.7015 0.0
H1380 H 0.78735 0.26145 0.84824 0.0
H1381 H 0.78077 0.24519 0.87578 0.0
H1382 H 0.75535 0.29073 0.89625 0.0
H1383 H 0.76259 0.30724 0.86899 0.0
Tb1384 Tb 0.77355 0.76845 0.77964 0.0
Tb1385 Tb 0.80616 0.79537 0.79586 0.0
C1386 C 0.74263 0.75004 0.77547 0.0
C1387 C 0.72588 0.7565 0.77571 0.0
C1388 C 0.7233 0.77343 0.76846 0.0
C1389 C 0.70873 0.78131 0.77185 0.0
C1390 C 0.69665 0.77248 0.78271 0.0
C1391 C 0.69884 0.75508 0.78914 0.0
C1392 C 0.71335 0.74715 0.78566 0.0
C1393 C 0.79002 0.78425 0.75348 0.0
C1394 C 0.77205 0.81378 0.79191 0.0
C1395 C 0.83676 0.81474 0.80029 0.0
C1396 C 0.85443 0.81052 0.80361 0.0
C1397 C 0.8681 0.82213 0.79707 0.0
C1398 C 0.88455 0.81713 0.79786 0.0
C1399 C 0.88765 0.8004 0.80527 0.0
C1400 C 0.87402 0.78913 0.81246 0.0
C1401 C 0.8575 0.79413 0.81158 0.0
C1402 C 0.78955 0.77939 0.82191 0.0
C1403 C 0.80773 0.74991 0.78357 0.0
O1404 O 0.75313 0.75401 0.79206 0.0
O1405 O 0.75089 0.75372 0.76094 0.0
O1406 O 0.78833 0.79236 0.76976 0.0
O1407 O 0.78158 0.76666 0.75107 0.0
O1408 O 0.7635 0.79554 0.78823 0.0
O1409 O 0.78949 0.81735 0.79373 0.0
O1410 O 0.8276 0.80726 0.78338 0.0
O1411 O 0.82753 0.81294 0.81439 0.0
O1412 O 0.7914 0.77149 0.80564 0.0
O1413 O 0.79808 0.79696 0.82453 0.0
O1414 O 0.81634 0.76804 0.78901 0.0
O1415 O 0.79023 0.74636 0.77997 0.0
H1416 H 0.73293 0.78104 0.76093 0.0
H1417 H 0.70742 0.79481 0.76688 0.0
H1418 H 0.68959 0.7479 0.79738 0.0
H1419 H 0.7152 0.73418 0.79147 0.0
H1420 H 0.86586 0.83471 0.79068 0.0
H1421 H 0.89458 0.82594 0.79181 0.0
H1422 H 0.876 0.77625 0.81839 0.0
H1423 H 0.84703 0.78494 0.81663 0.0
Tb1424 Tb 0.52586 0.52577 0.5309 0.0
Tb1425 Tb 0.55998 0.5458 0.55406 0.0
C1426 C 0.49421 0.51921 0.51619 0.0
C1427 C 0.48319 0.53356 0.51283 0.0
C1428 C 0.48143 0.54692 0.52831 0.0
C1429 C 0.47441 0.56295 0.52484 0.0
C1430 C 0.46904 0.56603 0.50584 0.0
C1431 C 0.46982 0.55216 0.49038 0.0
C1432 C 0.47689 0.53605 0.49386 0.0
C1433 C 0.55318 0.52336 0.51339 0.0
C1434 C 0.5395 0.57101 0.53125 0.0
C1435 C 0.59145 0.5524 0.56937 0.0
C1436 C 0.60236 0.538 0.57291 0.0
C1437 C 0.60346 0.52406 0.55766 0.0
C1438 C 0.61078 0.50831 0.56135 0.0
C1439 C 0.61715 0.50601 0.58035 0.0
C1440 C 0.6168 0.52032 0.59558 0.0
C1441 C 0.60937 0.53618 0.59188 0.0
C1442 C 0.53249 0.54811 0.57147 0.0
C1443 C 0.54705 0.5003 0.55239 0.0
O1444 O 0.4995 0.51775 0.53429 0.0
O1445 O 0.50693 0.51952 0.50585 0.0
O1446 O 0.55075 0.53771 0.52398 0.0
O1447 O 0.53945 0.50978 0.51156 0.0
O1448 O 0.52604 0.55645 0.52942 0.0
O1449 O 0.55535 0.56972 0.53936 0.0
O1450 O 0.58646 0.55395 0.55121 0.0
O1451 O 0.57854 0.55204 0.57942 0.0
O1452 O 0.53507 0.53377 0.56097 0.0
O1453 O 0.54616 0.56175 0.5732 0.0
O1454 O 0.56024 0.5152 0.55495 0.0
O1455 O 0.53108 0.50138 0.54445 0.0
H1456 H 0.48622 0.54555 0.54313 0.0
H1457 H 0.47356 0.57319 0.53704 0.0
H1458 H 0.46565 0.55418 0.4756 0.0
H1459 H 0.47823 0.52604 0.48169 0.0
H1460 H 0.59806 0.52485 0.54287 0.0
H1461 H 0.61133 0.49779 0.54924 0.0
H1462 H 0.62177 0.51895 0.61034 0.0
H1463 H 0.60848 0.54664 0.60389 0.0
Tb1464 Tb 0.05912 0.53067 0.03077 0.0
Tb1465 Tb 0.02051 0.52273 0.04136 0.0
C1466 C 0.09181 0.53371 0.03241 0.0
C1467 C 0.10582 0.52328 0.03832 0.0
C1468 C 0.10204 0.50407 0.04141 0.0
C1469 C 0.11567 0.49393 0.04482 0.0
C1470 C 0.13327 0.50283 0.0451 0.0
C1471 C 0.13693 0.5223 0.04278 0.0
C1472 C 0.12335 0.53238 0.03941 0.0
C1473 C 0.03489 0.53561 1.00105 0.0
C1474 C 0.03641 0.48827 0.02417 0.0
C1475 C 0.9879 0.52036 0.03955 0.0
C1476 C 0.9745 0.53175 0.03405 0.0
C1477 C 0.97837 0.55186 0.0371 0.0
C1478 C 0.96503 0.56229 0.03344 0.0
C1479 C 0.94759 0.55281 0.02655 0.0
C1480 C 0.94394 0.53267 0.02303 0.0
C1481 C 0.95724 0.52229 0.02676 0.0
C1482 C 0.04464 0.51774 0.07107 0.0
C1483 C 0.04335 0.56508 0.04829 0.0
O1484 O 0.08452 0.54165 0.04612 0.0
O1485 O 0.08032 0.52537 0.01726 0.0
O1486 O 0.03288 0.53118 0.01768 0.0
O1487 O 0.05173 0.53792 1.00127 0.0
O1488 O 0.05218 0.4995 0.02708 0.0
O1489 O 0.02198 0.49456 0.02739 0.0
O1490 O 0.99511 0.51268 0.02563 0.0
O1491 O 0.99933 0.52758 0.0551 0.0
O1492 O 0.04679 0.52243 0.05456 0.0
O1493 O 0.02775 0.51496 0.07062 0.0
O1494 O 0.02763 0.55385 0.04594 0.0
O1495 O 0.05767 0.55896 0.04439 0.0
H1496 H 0.08856 0.49677 0.04061 0.0
H1497 H 0.11237 0.47895 0.04646 0.0
H1498 H 0.15032 0.52972 0.04327 0.0
H1499 H 0.12654 0.5472 0.03711 0.0
H1500 H 0.99162 0.55951 0.04265 0.0
H1501 H 0.96837 0.57776 0.03608 0.0
H1502 H 0.93066 0.52487 0.01796 0.0
H1503 H 0.95395 0.50679 0.0244 0.0
C1504 C 0.0153 0.19412 0.93227 0.0
C1505 C 0.01615 0.21221 0.9428 0.0
C1506 C 0.01766 0.17847 0.94188 0.0
C1507 C 0.0133 0.15941 0.98734 0.0
H1508 H 0.04778 0.12946 0.97416 0.0
C1509 C 0.01989 0.08741 0.01547 0.0
C1510 C 0.037 0.08534 0.0226 0.0
C1511 C 0.01709 0.10306 1.00611 0.0
C1512 C 0.03813 0.13772 0.97802 0.0
H1513 H 0.01987 0.22798 0.97166 0.0
H1514 H 0.02352 0.20055 0.98837 0.0
H1515 H 0.04305 0.15612 0.95654 0.0
H1516 H 0.0646 0.09836 0.02557 0.0
H1517 H 0.05967 0.12565 1.00921 0.0
H1518 H 1.00818 0.14082 1.00862 0.0
C1519 C 0.0212 0.19854 0.9727 0.0
C1520 C 0.03534 0.15286 0.96784 0.0
C1521 C 0.01921 0.21425 0.96312 0.0
C1522 C 0.05123 0.09951 0.02039 0.0
C1523 C 0.04844 0.11508 1.01088 0.0
C1524 C 0.01584 0.14402 0.99726 0.0
C1525 C 0.02053 0.1805 0.96221 0.0
C1526 C 0.023 0.16396 0.97251 0.0
C1527 C 0.03134 0.11696 1.00353 0.0
C1528 C 0.02841 0.13313 0.99283 0.0
H1529 H 0.01297 0.19211 0.91661 0.0
H1530 H 0.01702 0.1647 0.93344 0.0
H1531 H 1.00364 0.16767 0.99117 0.0
H1532 H 1.00866 0.07671 0.01676 0.0
H1533 H 1.00381 0.10401 1.00034 0.0
C1534 C 0.1296 0.7937 0.16429 0.0
C1535 C 0.11799 0.80388 0.17256 0.0
C1536 C 0.14627 0.7939 0.17436 0.0
C1537 C 0.18108 0.82031 0.2125 0.0
H1538 H 0.19194 0.77067 0.21972 0.0
C1539 C 0.24061 0.81287 0.26695 0.0
C1540 C 0.2489 0.79724 0.26369 0.0
C1541 C 0.22542 0.81427 0.25476 0.0
C1542 C 0.1894 0.78468 0.21757 0.0
H1543 H 0.11512 0.82292 0.19759 0.0
H1544 H 0.14459 0.82375 0.21499 0.0
H1545 H 0.16438 0.77263 0.20027 0.0
H1546 H 0.24806 0.77105 0.24473 0.0
H1547 H 0.22209 0.77389 0.22278 0.0
H1548 H 0.20621 0.83249 0.22921 0.0
C1549 C 0.14061 0.81545 0.20076 0.0
C1550 C 0.17349 0.78577 0.2065 0.0
C1551 C 0.12376 0.81496 0.19081 0.0
C1552 C 0.24196 0.78327 0.24761 0.0
C1553 C 0.22691 0.78483 0.23516 0.0
C1554 C 0.19717 0.81925 0.22326 0.0
C1555 C 0.15188 0.80457 0.1928 0.0
C1556 C 0.16908 0.80358 0.20401 0.0
C1557 C 0.21824 0.80023 0.2387 0.0
C1558 C 0.20151 0.8014 0.22619 0.0
H1559 H 0.12557 0.78495 0.15029 0.0
H1560 H 0.15473 0.78551 0.16783 0.0
H1561 H 0.17809 0.83423 0.21064 0.0
H1562 H 0.24559 0.82385 0.27928 0.0
H1563 H 0.21909 0.82615 0.25835 0.0
C1564 C 0.51855 0.83804 0.42167 0.0
C1565 C 0.51793 0.82127 0.43037 0.0
C1566 C 0.52108 0.85592 0.43296 0.0
C1567 C 0.53674 0.89238 0.46081 0.0
H1568 H 0.51039 0.89877 0.50319 0.0
C1569 C 0.5491 0.96323 0.5124 0.0
C1570 C 0.53415 0.97041 0.51631 0.0
C1571 C 0.5475 0.94451 0.50333 0.0
C1572 C 0.51781 0.89721 0.49137 0.0
H1573 H 0.51954 0.81029 0.45789 0.0
H1574 H 0.52394 0.84154 0.47754 0.0
H1575 H 0.50695 0.86721 0.48421 0.0
H1576 H 0.50582 0.96315 0.51435 0.0
H1577 H 0.50306 0.93044 0.49851 0.0
H1578 H 0.54739 0.92236 0.46772 0.0
C1579 C 0.52238 0.84077 0.46196 0.0
C1580 C 0.51596 0.87911 0.48062 0.0
C1581 C 0.51998 0.82287 0.45067 0.0
C1582 C 0.51761 0.95813 0.51156 0.0
C1583 C 0.51603 0.93934 0.50254 0.0
C1584 C 0.53868 0.91041 0.47162 0.0
C1585 C 0.52293 0.85749 0.45322 0.0
C1586 C 0.52531 0.87653 0.46513 0.0
C1587 C 0.53093 0.93244 0.498 0.0
C1588 C 0.52917 0.91307 0.48697 0.0
H1589 H 0.51698 0.8374 0.4061 0.0
H1590 H 0.52125 0.86851 0.42578 0.0
H1591 H 0.54424 0.89083 0.44908 0.0
H1592 H 0.56209 0.97217 0.51593 0.0
H1593 H 0.55926 0.93952 0.50032 0.0
C1594 C 0.51805 0.29607 0.68389 0.0
C1595 C 0.51458 0.29149 0.66362 0.0
C1596 C 0.50424 0.2959 0.69472 0.0
C1597 C 0.45679 0.27553 0.69161 0.0
H1598 H 0.45908 0.31406 0.73562 0.0
C1599 C 0.39672 0.28063 0.7302 0.0
C1600 C 0.39979 0.28422 0.75052 0.0
C1601 C 0.41076 0.28219 0.71969 0.0
C1602 C 0.45829 0.30307 0.72348 0.0
H1603 H 0.49366 0.28355 0.63893 0.0
H1604 H 0.46985 0.2835 0.65768 0.0
H1605 H 0.48364 0.3155 0.71745 0.0
H1606 H 0.42013 0.29288 0.77563 0.0
H1607 H 0.44454 0.29523 0.75736 0.0
H1608 H 0.43152 0.26306 0.69762 0.0
C1609 C 0.48321 0.28689 0.66529 0.0
C1610 C 0.4724 0.30389 0.71307 0.0
C1611 C 0.49695 0.28707 0.6545 0.0
C1612 C 0.41726 0.28973 0.76001 0.0
C1613 C 0.43128 0.29132 0.74951 0.0
C1614 C 0.44271 0.27471 0.702 0.0
C1615 C 0.48663 0.2911 0.68555 0.0
C1616 C 0.4718 0.29017 0.69694 0.0
C1617 C 0.42824 0.28743 0.72921 0.0
C1618 C 0.44324 0.28849 0.71806 0.0
H1619 H 0.53143 0.29951 0.69144 0.0
H1620 H 0.50736 0.29908 0.71032 0.0
H1621 H 0.45599 0.2645 0.67951 0.0
H1622 H 0.38346 0.27625 0.72241 0.0
H1623 H 0.4079 0.27932 0.70406 0.0
C1624 C 0.06769 0.83679 0.69846 0.0
C1625 C 0.05561 0.8194 0.69284 0.0
C1626 C 0.06702 0.85195 0.68771 0.0
C1627 C 0.03957 0.87116 0.65129 0.0
H1628 H 0.0826 0.88588 0.63041 0.0
C1629 C 0.03983 0.90719 0.58279 0.0
C1630 C 0.05425 0.92153 0.58157 0.0
C1631 C 0.04028 0.89627 0.59795 0.0
C1632 C 0.07057 0.88226 0.63634 0.0
H1633 H 0.03233 0.80495 0.67277 0.0
H1634 H 0.03096 0.83154 0.65438 0.0
H1635 H 0.08218 0.86559 0.65589 0.0
H1636 H 0.08074 0.93514 0.59508 0.0
H1637 H 0.08127 0.91661 0.62193 0.0
H1638 H 0.02789 0.88776 0.63183 0.0
C1639 C 0.04111 0.83333 0.66685 0.0
C1640 C 0.07036 0.87065 0.65095 0.0
C1641 C 0.04196 0.81808 0.67733 0.0
C1642 C 0.0693 0.92439 0.5957 0.0
C1643 C 0.06967 0.91361 0.611 0.0
C1644 C 0.03983 0.88298 0.63687 0.0
C1645 C 0.054 0.85012 0.67152 0.0
C1646 C 0.05477 0.86467 0.65825 0.0
C1647 C 0.05508 0.89956 0.61243 0.0
C1648 C 0.05522 0.8883 0.62888 0.0
H1649 H 0.07823 0.83837 0.71046 0.0
H1650 H 0.07699 0.86487 0.69168 0.0
H1651 H 0.02743 0.86682 0.65681 0.0
H1652 H 0.02791 0.90472 0.57237 0.0
H1653 H 0.02895 0.88528 0.59832 0.0
C1654 C 0.47436 0.77121 0.85832 0.0
C1655 C 0.4819 0.78413 0.87497 0.0
C1656 C 0.45611 0.76601 0.85353 0.0
C1657 C 0.41649 0.75315 0.84883 0.0
H1658 H 0.3942 0.79714 0.85462 0.0
C1659 C 0.3514 0.75789 0.80272 0.0
C1660 C 0.34038 0.76897 0.8108 0.0
C1661 C 0.3674 0.75661 0.81336 0.0
C1662 C 0.40003 0.78454 0.85326 0.0
H1663 H 0.47686 0.79991 0.90098 0.0
H1664 H 0.44493 0.79092 0.8927 0.0
H1665 H 0.42455 0.80008 0.86879 0.0
H1666 H 0.33678 0.78626 0.83672 0.0
H1667 H 0.36446 0.78362 0.85546 0.0
H1668 H 0.39187 0.73774 0.83295 0.0
C1669 C 0.45296 0.7853 0.88294 0.0
C1670 C 0.41752 0.78625 0.86138 0.0
C1671 C 0.47117 0.79045 0.88769 0.0
C1672 C 0.34516 0.77787 0.83003 0.0
C1673 C 0.36104 0.7764 0.84073 0.0
C1674 C 0.39888 0.75139 0.84081 0.0
C1675 C 0.44522 0.77353 0.8655 0.0
C1676 C 0.42607 0.77072 0.8589 0.0
C1677 C 0.37258 0.76624 0.83233 0.0
C1678 C 0.39057 0.76719 0.84262 0.0
H1679 H 0.48255 0.76557 0.84878 0.0
H1680 H 0.45059 0.75694 0.83998 0.0
H1681 H 0.42267 0.74085 0.84692 0.0
H1682 H 0.34806 0.7509 0.78789 0.0
H1683 H 0.37604 0.74885 0.80635 0.0
C1684 C 0.56768 0.21121 0.15212 0.0
C1685 C 0.55887 0.20638 0.16742 0.0
C1686 C 0.57145 0.19699 0.13908 0.0
C1687 C 0.56958 0.14382 0.12992 0.0
H1688 H 0.57044 0.15466 0.07744 0.0
C1689 C 0.56953 0.0829 0.0702 0.0
C1690 C 0.55957 0.08319 0.05223 0.0
C1691 C 0.57423 0.09934 0.08386 0.0
C1692 C 0.56998 0.15118 0.09192 0.0
H1693 H 0.54786 0.1833 0.18203 0.0
H1694 H 0.55281 0.15815 0.15833 0.0
H1695 H 0.56779 0.17955 0.10208 0.0
H1696 H 0.54728 0.10103 0.03404 0.0
H1697 H 0.5541 0.12913 0.05811 0.0
H1698 H 0.56975 0.11493 0.11934 0.0
C1699 C 0.55756 0.17285 0.15656 0.0
C1700 C 0.56886 0.16574 0.10634 0.0
C1701 C 0.55442 0.1872 0.17004 0.0
C1702 C 0.55512 0.10044 0.04774 0.0
C1703 C 0.55919 0.11668 0.06165 0.0
C1704 C 0.57002 0.12909 0.11537 0.0
C1705 C 0.566 0.17751 0.14071 0.0
C1706 C 0.56841 0.16226 0.12557 0.0
C1707 C 0.56831 0.11622 0.08019 0.0
C1708 C 0.56997 0.13245 0.09605 0.0
H1709 H 0.5717 0.22607 0.15027 0.0
H1710 H 0.57857 0.20141 0.12769 0.0
H1711 H 0.56985 0.14052 0.14455 0.0
H1712 H 0.573 0.06974 0.07407 0.0
H1713 H 0.58184 0.09846 0.09759 0.0
C1714 C 0.08306 0.31077 0.35525 0.0
C1715 C 0.06713 0.31478 0.34664 0.0
C1716 C 0.09634 0.3087 0.34434 0.0
C1717 C 0.11214 0.28752 0.31403 0.0
H1718 H 0.13248 0.32129 0.28019 0.0
C1719 C 0.16276 0.26498 0.27067 0.0
C1720 C 0.17862 0.27839 0.274 0.0
C1721 C 0.14732 0.27051 0.27486 0.0
C1722 C 0.12679 0.31169 0.28949 0.0
H1723 H 0.05327 0.3214 0.32021 0.0
H1724 H 0.0767 0.3178 0.30116 0.0
H1725 H 0.10994 0.33048 0.29851 0.0
H1726 H 0.19042 0.30845 0.28229 0.0
H1727 H 0.16353 0.318 0.29009 0.0
H1728 H 0.12905 0.26894 0.30563 0.0
C1729 C 0.07874 0.31618 0.31634 0.0
C1730 C 0.11393 0.31693 0.2999 0.0
C1731 C 0.06535 0.31821 0.32727 0.0
C1732 C 0.17843 0.29773 0.27997 0.0
C1733 C 0.16299 0.30325 0.2842 0.0
C1734 C 0.12479 0.28223 0.30357 0.0
C1735 C 0.09403 0.31065 0.32463 0.0
C1736 C 0.10682 0.30504 0.31257 0.0
C1737 C 0.14748 0.28952 0.28251 0.0
C1738 C 0.13246 0.29436 0.29142 0.0
H1739 H 0.08501 0.30832 0.3702 0.0
H1740 H 0.1082 0.3048 0.35114 0.0
H1741 H 0.10664 0.27795 0.32348 0.0
H1742 H 0.16247 0.24998 0.26608 0.0
H1743 H 0.13545 0.25969 0.27313 0.0
C1744 C 0.94964 1.00392 0.19924 0.0
C1745 C 0.95747 1.01361 0.21762 0.0
C1746 C 0.95724 1.00783 0.18285 0.0
C1747 C 0.99933 0.03135 0.16851 0.0
H1748 H 0.97027 0.02742 0.11865 0.0
C1749 C 0.02734 0.05707 0.10222 0.0
C1750 C 0.02421 0.04299 0.08592 0.0
C1751 C 0.01812 0.05441 0.11771 0.0
C1752 C 0.97852 0.02856 0.13251 0.0
H1753 H 0.9791 0.03536 0.23322 0.0
H1754 H 0.99189 0.04282 0.20477 0.0
H1755 H 0.95647 0.02101 0.14697 0.0
H1756 H 1.00851 0.01544 0.07276 0.0
H1757 H 0.99193 1.01114 0.09953 0.0
H1758 H 0.02131 0.03942 0.15401 0.0
C1759 C 0.98029 0.03165 0.20289 0.0
C1760 C 0.97065 0.02474 0.14875 0.0
C1761 C 0.97288 0.02747 0.21927 0.0
C1762 C 1.01108 0.02664 0.08502 0.0
C1763 C 1.00161 0.02415 0.10035 0.0
C1764 C 1.00713 0.03551 0.15237 0.0
C1765 C 0.97269 0.02179 0.18442 0.0
C1766 C 0.98095 0.026 0.16701 0.0
C1767 C 1.00535 0.03778 0.11705 0.0
C1768 C 0.99683 0.03408 0.1342 0.0
H1769 H 0.93778 0.9931 0.19754 0.0
H1770 H 0.95111 0.99967 0.16901 0.0
H1771 H 1.00782 0.03205 0.18211 0.0
H1772 H 0.03739 0.06981 0.10334 0.0
H1773 H 0.02115 0.0652 0.13036 0.0
C1774 C 0.29391 0.69756 0.53277 0.0
C1775 C 0.29483 0.67836 0.52721 0.0
C1776 C 0.28535 0.70761 0.51994 0.0
C1777 C 0.2561 0.70239 0.47274 0.0
H1778 H 0.28465 0.75143 0.46897 0.0
C1779 C 0.25671 0.73658 0.40296 0.0
C1780 C 0.26081 0.75662 0.4043 0.0
C1781 C 0.25586 0.72783 0.41961 0.0
C1782 C 0.27622 0.73801 0.47005 0.0
H1783 H 0.28668 0.65437 0.50412 0.0
H1784 H 0.27221 0.67206 0.48157 0.0
H1785 H 0.29256 0.73447 0.49556 0.0
H1786 H 0.26592 0.78319 0.42409 0.0
H1787 H 0.26389 0.76793 0.453 0.0
H1788 H 0.24023 0.70569 0.44659 0.0
C1789 C 0.27785 0.67928 0.49596 0.0
C1790 C 0.28078 0.72824 0.48534 0.0
C1791 C 0.28631 0.66918 0.50884 0.0
C1792 C 0.26268 0.76772 0.42249 0.0
C1793 C 0.2617 0.75898 0.43911 0.0
C1794 C 0.25152 0.71219 0.45737 0.0
C1795 C 0.27763 0.69872 0.50122 0.0
C1796 C 0.27105 0.71011 0.48659 0.0
C1797 C 0.25899 0.73897 0.43792 0.0
C1798 C 0.26182 0.72988 0.45563 0.0
H1799 H 0.30007 0.70499 0.54694 0.0
H1800 H 0.28514 0.72249 0.52453 0.0
H1801 H 0.2482 0.68855 0.47349 0.0
H1802 H 0.25484 0.72763 0.38911 0.0
H1803 H 0.25381 0.71237 0.4182 0.0
C1804 C 0.64832 1.01498 0.72376 0.0
C1805 C 0.63946 1.00834 0.73865 0.0
C1806 C 0.63915 0.01584 0.70515 0.0
C1807 C 0.59444 0.99852 0.67283 0.0
H1808 H 0.61181 0.03729 0.64229 0.0
C1809 C 0.54989 1.01283 0.60474 0.0
C1810 C 0.55688 0.01873 0.58843 0.0
C1811 C 0.56065 1.01128 0.62197 0.0
C1812 C 0.60674 0.02617 0.6504 0.0
H1813 H 0.61352 0.99748 0.74491 0.0
H1814 H 0.59772 0.99907 0.71311 0.0
H1815 H 0.62859 0.03523 0.6736 0.0
H1816 H 0.58146 0.02761 0.57813 0.0
H1817 H 0.60041 0.02494 0.60826 0.0
H1818 H 0.57261 0.98948 0.64981 0.0
C1819 C 0.61187 1.00335 0.71547 0.0
C1820 C 0.61649 0.02496 0.66862 0.0
C1821 C 0.62103 1.00249 0.73401 0.0
C1822 C 0.57539 0.02302 0.59018 0.0
C1823 C 0.58631 0.02156 0.60767 0.0
C1824 C 0.58472 0.99977 0.65473 0.0
C1825 C 0.62064 1.01011 0.70049 0.0
C1826 C 0.61051 1.0112 0.68044 0.0
C1827 C 0.57916 0.01557 0.62401 0.0
C1828 C 0.59046 1.01375 0.64309 0.0
H1829 H 0.66244 0.01975 0.72652 0.0
H1830 H 0.64672 0.02093 0.69435 0.0
H1831 H 0.58928 0.98731 0.68077 0.0
H1832 H 0.53579 1.00947 0.60431 0.0
H1833 H 0.55428 1.00702 0.63394 0.0
C1834 C 0.30142 0.39127 0.98317 0.0
C1835 C 0.3088 0.38466 0.99981 0.0
C1836 C 0.29845 0.37987 0.96512 0.0
C1837 C 0.31595 0.34596 0.93667 0.0
H1838 H 0.26964 0.32856 0.90634 0.0
C1839 C 0.30699 0.29826 0.86312 0.0
C1840 C 0.29378 0.30032 0.84843 0.0
C1841 C 0.30785 0.3071 0.88206 0.0
C1842 C 0.28273 0.33353 0.91439 0.0
H1843 H 0.31895 0.36098 1.01055 0.0
H1844 H 0.31435 0.34136 0.97878 0.0
H1845 H 0.27294 0.34732 0.93822 0.0
H1846 H 0.27104 0.31315 0.84202 0.0
H1847 H 0.27304 0.32944 0.87469 0.0
H1848 H 0.32606 0.33336 0.91276 0.0
C1849 C 0.31057 0.35521 0.97988 0.0
C1850 C 0.28454 0.34414 0.93274 0.0
C1851 C 0.31313 0.3664 0.99801 0.0
C1852 C 0.2813 0.31119 0.8531 0.0
C1853 C 0.28241 0.32045 0.87195 0.0
C1854 C 0.31422 0.33577 0.91816 0.0
C1855 C 0.30322 0.36187 0.9633 0.0
C1856 C 0.30117 0.35038 0.94403 0.0
C1857 C 0.29581 0.31869 0.88673 0.0
C1858 C 0.29757 0.32932 0.90669 0.0
H1859 H 0.29792 0.40526 0.98411 0.0
H1860 H 0.29284 0.3853 0.95248 0.0
H1861 H 0.32893 0.35082 0.94508 0.0
H1862 H 0.31667 0.28977 0.85998 0.0
H1863 H 0.31805 0.30482 0.89299 0.0
C1864 C 0.94343 0.02824 0.3411 0.0
C1865 C 0.94934 0.01833 0.3257 0.0
C1866 C 0.95293 0.03112 0.35981 0.0
C1867 C 0.99618 0.02705 0.38762 0.0
H1868 H 0.96965 0.02601 0.43033 0.0
C1869 C 0.02287 0.01523 0.46566 0.0
C1870 C 0.02067 0.02906 0.48047 0.0
C1871 C 0.01502 1.01502 0.44657 0.0
C1872 C 0.97721 0.02642 0.41852 0.0
H1873 H 0.96986 1.00366 0.31786 0.0
H1874 H 0.98594 1.00786 0.35044 0.0
H1875 H 0.95433 0.02363 0.39749 0.0
H1876 H 1.00853 0.05353 0.48683 0.0
H1877 H 0.99443 0.05273 0.45361 0.0
H1878 H 0.01896 0.0289 0.40889 0.0
C1879 C 0.97436 1.01409 0.34813 0.0
C1880 C 0.96848 0.02522 0.39967 0.0
C1881 C 0.96506 1.01158 0.32937 0.0
C1882 C 1.01052 0.0427 0.47577 0.0
C1883 C 1.00239 0.04223 0.45679 0.0
C1884 C 1.00485 0.02783 0.40647 0.0
C1885 C 0.96836 0.02376 0.36369 0.0
C1886 C 0.97781 0.02554 0.3839 0.0
C1887 C 1.00454 0.02837 0.44204 0.0
C1888 C 0.99544 0.02757 0.42207 0.0
H1889 H 0.93142 0.03371 0.3387 0.0
H1890 H 0.94806 0.03905 0.37122 0.0
H1891 H 1.00394 0.02774 0.37602 0.0
H1892 H 0.03066 1.00458 0.46882 0.0
H1893 H 0.0168 1.00414 0.43542 0.0
C1894 C 0.36812 0.72096 0.62025 0.0
C1895 C 0.36082 0.70175 0.62086 0.0
C1896 C 0.3728 0.73396 0.63724 0.0
C1897 C 0.37229 0.73888 0.69089 0.0
H1898 H 0.34857 0.78034 0.67958 0.0
C1899 C 0.34686 0.7871 0.74899 0.0
C1900 C 0.32884 0.78665 0.74381 0.0
C1901 C 0.35647 0.78001 0.73536 0.0
C1902 C 0.35545 0.76901 0.683 0.0
H1903 H 0.35452 0.68053 0.6397 0.0
H1904 H 0.36184 0.70324 0.66925 0.0
H1905 H 0.35747 0.76122 0.65351 0.0
H1906 H 0.30675 0.77908 0.72058 0.0
H1907 H 0.32347 0.76707 0.69677 0.0
H1908 H 0.36879 0.74601 0.72035 0.0
C1909 C 0.36438 0.70838 0.65584 0.0
C1910 C 0.36079 0.75813 0.66808 0.0
C1911 C 0.36009 0.6953 0.63885 0.0
C1912 C 0.32066 0.77959 0.72484 0.0
C1913 C 0.33025 0.77283 0.71123 0.0
C1914 C 0.36689 0.74982 0.70589 0.0
C1915 C 0.36975 0.72806 0.65508 0.0
C1916 C 0.36856 0.74236 0.67166 0.0
C1917 C 0.3482 0.77284 0.71636 0.0
C1918 C 0.35769 0.7644 0.70186 0.0
H1919 H 0.36909 0.72619 0.60652 0.0
H1920 H 0.37746 0.74889 0.6362 0.0
H1921 H 0.37849 0.72705 0.69421 0.0
H1922 H 0.35337 0.79236 0.76365 0.0
H1923 H 0.37028 0.78009 0.73965 0.0
C1924 C 0.62974 0.0154 0.85076 0.0
C1925 C 0.64817 0.0166 0.85389 0.0
C1926 C 0.61991 0.01675 0.86643 0.0
C1927 C 0.62303 1.01512 0.9214 0.0
H1928 H 0.58106 0.03669 0.91637 0.0
C1929 C 0.5867 0.02931 0.98928 0.0
C1930 C 0.5686 0.02999 0.98673 0.0
C1931 C 0.59612 0.0277 0.97334 0.0
C1932 C 0.5926 0.03035 0.91827 0.0
H1933 H 0.67018 0.02027 0.87706 0.0
H1934 H 0.65349 0.02251 0.90366 0.0
H1935 H 0.59697 0.03348 0.88909 0.0
H1936 H 0.54661 0.02927 0.96432 0.0
H1937 H 0.56256 0.02621 0.93706 0.0
H1938 H 0.61866 1.01181 0.95045 0.0
C1939 C 0.64634 0.02029 0.8891 0.0
C1940 C 0.60191 0.0285 0.90228 0.0
C1941 C 0.65612 0.01906 0.87354 0.0
C1942 C 0.56047 0.02898 0.96734 0.0
C1943 C 0.56984 0.0273 0.95142 0.0
C1944 C 0.61369 0.0169 0.93735 0.0
C1945 C 0.62793 0.01924 0.88612 0.0
C1946 C 0.61748 0.02089 0.90335 0.0
C1947 C 0.58799 0.02658 0.95385 0.0
C1948 C 0.59818 0.02462 0.93637 0.0
H1949 H 0.62283 1.01363 0.83611 0.0
H1950 H 0.60586 0.01564 0.86297 0.0
H1951 H 0.63461 1.00883 0.92327 0.0
H1952 H 0.59372 0.03003 1.00374 0.0
H1953 H 0.60998 0.02756 0.97651 0.0
C1954 C 0.31439 0.38593 0.12686 0.0
C1955 C 0.30939 0.37577 0.10809 0.0
C1956 C 0.313 0.37645 0.14311 0.0
C1957 C 0.2914 0.3308 0.15802 0.0
H1958 H 0.32745 0.34549 0.20321 0.0
C1959 C 0.29476 0.28475 0.21996 0.0
C1960 C 0.2973 0.29449 0.23887 0.0
C1961 C 0.29709 0.29484 0.20431 0.0
C1962 C 0.31721 0.3413 0.19075 0.0
H1963 H 0.29901 0.34763 0.09174 0.0
H1964 H 0.2969 0.33114 0.11985 0.0
H1965 H 0.32934 0.36294 0.17551 0.0
H1966 H 0.30487 0.32242 0.25627 0.0
H1967 H 0.30913 0.34003 0.22899 0.0
H1968 H 0.27939 0.30904 0.17317 0.0
C1969 C 0.30156 0.34649 0.12216 0.0
C1970 C 0.31824 0.35136 0.17486 0.0
C1971 C 0.30287 0.35596 0.10597 0.0
C1972 C 0.30289 0.31449 0.24188 0.0
C1973 C 0.30535 0.32458 0.22623 0.0
C1974 C 0.29044 0.32068 0.17382 0.0
C1975 C 0.30663 0.35655 0.14099 0.0
C1976 C 0.30537 0.34621 0.15822 0.0
C1977 C 0.30214 0.31492 0.2072 0.0
C1978 C 0.30336 0.32574 0.19037 0.0
H1979 H 0.31946 0.40121 0.12901 0.0
H1980 H 0.3168 0.38476 0.15734 0.0
H1981 H 0.28102 0.32663 0.14569 0.0
H1982 H 0.29049 0.26935 0.21717 0.0
H1983 H 0.29478 0.28692 0.18988 0.0
C1984 C 0.19036 0.90608 0.98967 0.0
C1985 C 0.20325 0.89591 0.99605 0.0
C1986 C 0.17811 0.91016 1.00136 0.0
C1987 C 0.15044 0.91321 0.02684 0.0
H1988 H 0.17401 0.94036 0.07681 0.0
C1989 C 0.1174 0.96584 0.06635 0.0
C1990 C 0.12823 0.98408 0.07068 0.0
C1991 C 0.1247 0.94957 0.06345 0.0
C1992 C 0.16716 0.93263 0.06303 0.0
H1993 H 0.21273 0.88099 0.01922 0.0
H1994 H 0.19135 0.88839 0.03978 0.0
H1995 H 0.1893 0.92041 0.0574 0.0
H1996 H 0.15509 0.99964 0.07716 0.0
H1997 H 0.16794 0.97135 0.07148 0.0
H1998 H 0.12888 0.92656 0.03158 0.0
C1999 C 0.19078 0.89315 0.0257 0.0
C2000 C 0.17585 0.92105 0.05199 0.0
C2001 C 0.20294 0.88886 0.01387 0.0
C2002 C 0.1465 0.9857 0.07386 0.0
C2003 C 0.15383 0.96944 0.07068 0.0
C2004 C 0.14177 0.92476 0.03784 0.0
C2005 C 0.17857 0.9043 0.01976 0.0
C2006 C 0.16786 0.91202 0.03338 0.0
C2007 C 0.14295 0.95132 0.06446 0.0
C2008 C 0.15036 0.93535 0.05563 0.0
H2009 H 0.19021 0.91162 0.97598 0.0
H2010 H 0.16898 0.91897 0.99648 0.0
H2011 H 0.14391 0.9062 1.01265 0.0
H2012 H 0.10326 0.96426 0.06397 0.0
H2013 H 0.11598 0.93579 0.05911 0.0
C2014 C 0.71915 0.62064 0.02182 0.0
C2015 C 0.72103 0.63676 1.01215 0.0
C2016 C 0.70249 0.61057 0.02322 0.0
C2017 C 0.66627 0.59956 0.03438 0.0
H2018 H 0.62965 0.58659 0.98962 0.0
C2019 C 0.59592 0.56239 0.04029 0.0
C2020 C 0.58815 0.54685 0.02598 0.0
C2021 C 0.61133 0.57467 0.0381 0.0
C2022 C 0.63975 0.59008 1.00225 0.0
H2023 H 0.70715 0.65568 0.99723 0.0
H2024 H 0.67777 0.63782 0.99935 0.0
H2025 H 0.65837 0.60527 0.98687 0.0
H2026 H 0.59005 0.5323 0.99791 0.0
H2027 H 0.61702 0.55367 0.9941 0.0
H2028 H 0.64791 0.58414 0.0497 0.0
C2029 C 0.68921 0.63279 1.00557 0.0
C2030 C 0.65614 0.60092 1.0007 0.0
C2031 C 0.70596 0.64304 1.0044 0.0
C2032 C 0.59579 0.54416 1.00919 0.0
C2033 C 0.61118 0.55648 1.00697 0.0
C2034 C 0.6499 0.58887 0.03596 0.0
C2035 C 0.68731 0.61646 0.01505 0.0
C2036 C 0.66963 0.60564 0.01673 0.0
C2037 C 0.6193 0.57172 0.02153 0.0
C2038 C 0.63645 0.58387 0.0199 0.0
H2039 H 0.73061 0.61584 0.02836 0.0
H2040 H 0.7015 0.598 0.03049 0.0
H2041 H 0.67634 0.60309 0.04703 0.0
H2042 H 0.59034 0.5648 0.0534 0.0
H2043 H 0.61711 0.58641 0.04949 0.0
C2044 C 0.67322 0.48679 0.30151 0.0
C2045 C 0.67009 0.49548 0.3192 0.0
C2046 C 0.67911 0.46944 0.30048 0.0
C2047 C 0.70297 0.44256 0.33326 0.0
H2048 H 0.69684 0.40552 0.28715 0.0
C2049 C 0.73762 0.37826 0.33122 0.0
C2050 C 0.74719 0.37625 0.31582 0.0
C2051 C 0.72546 0.39034 0.33113 0.0
C2052 C 0.69862 0.41577 0.30013 0.0
H2053 H 0.66921 0.49254 0.34926 0.0
H2054 H 0.67838 0.46174 0.34733 0.0
H2055 H 0.67931 0.43055 0.28789 0.0
H2056 H 0.75115 0.38524 0.28805 0.0
H2057 H 0.72971 0.40603 0.2878 0.0
H2058 H 0.72227 0.42783 0.34545 0.0
C2059 C 0.67708 0.46851 0.33438 0.0
C2060 C 0.68864 0.43014 0.30055 0.0
C2061 C 0.67161 0.48602 0.33548 0.0
C2062 C 0.74387 0.38619 0.30004 0.0
C2063 C 0.73158 0.39812 0.29987 0.0
C2064 C 0.71273 0.42809 0.33292 0.0
C2065 C 0.68171 0.46042 0.31711 0.0
C2066 C 0.69088 0.44391 0.31704 0.0
C2067 C 0.72247 0.40054 0.31554 0.0
C2068 C 0.71086 0.41473 0.31627 0.0
H2069 H 0.67232 0.49406 0.28885 0.0
H2070 H 0.68266 0.46378 0.28697 0.0
H2071 H 0.70547 0.45312 0.34607 0.0
H2072 H 0.73954 0.37056 0.3434 0.0
H2073 H 0.71848 0.39181 0.34332 0.0
C2074 C 0.78379 0.44348 0.48643 0.0
C2075 C 0.78077 0.42658 0.47334 0.0
C2076 C 0.79895 0.45728 0.4875 0.0
C2077 C 0.8368 0.47597 0.49859 0.0
H2078 H 0.86392 0.48167 0.45676 0.0
C2079 C 0.91138 0.4999 0.51259 0.0
C2080 C 0.91999 0.50972 0.49933 0.0
C2081 C 0.89322 0.49359 0.50905 0.0
C2082 C 0.85642 0.4806 0.46856 0.0
H2083 H 0.79139 0.4103 0.45166 0.0
H2084 H 0.81853 0.43391 0.45418 0.0
H2085 H 0.83374 0.46403 0.44986 0.0
H2086 H 0.91614 0.52149 0.47241 0.0
H2087 H 0.88429 0.51112 0.46659 0.0
H2088 H 0.85925 0.49283 0.51723 0.0
C2089 C 0.80874 0.43713 0.46287 0.0
C2090 C 0.83917 0.4702 0.46463 0.0
C2091 C 0.7933 0.4235 0.46151 0.0
C2092 C 0.9099 0.51405 0.48297 0.0
C2093 C 0.89166 0.50787 0.4795 0.0
C2094 C 0.85388 0.4866 0.50245 0.0
C2095 C 0.81191 0.45406 0.47618 0.0
C2096 C 0.82931 0.46727 0.4797 0.0
C2097 C 0.88316 0.49716 0.49227 0.0
C2098 C 0.86413 0.48852 0.48761 0.0
H2099 H 0.77465 0.44579 0.4963 0.0
H2100 H 0.80071 0.47023 0.49766 0.0
H2101 H 0.8298 0.47392 0.51068 0.0
H2102 H 0.91874 0.4966 0.52549 0.0
H2103 H 0.88722 0.4852 0.51912 0.0
C2104 C 0.38655 0.10691 0.26443 0.0
C2105 C 0.38993 0.09873 0.2816 0.0
C2106 C 0.37851 0.12338 0.26405 0.0
C2107 C 0.36817 0.16545 0.29647 0.0
H2108 H 0.33313 0.1684 0.25328 0.0
C2109 C 0.33622 0.23483 0.29086 0.0
C2110 C 0.31816 0.23259 0.28329 0.0
C2111 C 0.34519 0.21912 0.2903 0.0
C2112 C 0.34284 0.168 0.26559 0.0
H2113 H 0.38716 0.10252 0.31187 0.0
H2114 H 0.37421 0.13106 0.31141 0.0
H2115 H 0.34827 0.14121 0.25277 0.0
H2116 H 0.29589 0.21103 0.26883 0.0
H2117 H 0.31139 0.18415 0.26742 0.0
H2118 H 0.36292 0.1923 0.30921 0.0
C2119 C 0.37763 0.12482 0.29806 0.0
C2120 C 0.35177 0.15224 0.26521 0.0
C2121 C 0.38522 0.10822 0.29833 0.0
C2122 C 0.30969 0.21377 0.27487 0.0
C2123 C 0.31874 0.19814 0.27398 0.0
C2124 C 0.35953 0.1814 0.29666 0.0
C2125 C 0.37375 0.13279 0.28088 0.0
C2126 C 0.3646 0.15037 0.28073 0.0
C2127 C 0.33674 0.20027 0.28182 0.0
C2128 C 0.34647 0.18311 0.28132 0.0
H2129 H 0.38943 0.1001 0.25103 0.0
H2130 H 0.376 0.12873 0.25041 0.0
H2131 H 0.37789 0.16509 0.30878 0.0
H2132 H 0.3435 0.24882 0.29753 0.0
H2133 H 0.35897 0.2219 0.29641 0.0
C2134 C 0.31204 0.11897 0.49384 0.0
C2135 C 0.30951 0.13375 0.50749 0.0
C2136 C 0.32767 0.11206 0.4956 0.0
C2137 C 0.37419 0.12251 0.51925 0.0
H2138 H 0.369 0.06737 0.5088 0.0
C2139 C 0.43193 0.08251 0.53562 0.0
C2140 C 0.43249 0.06639 0.52247 0.0
C2141 C 0.41761 0.09178 0.53365 0.0
C2142 C 0.37076 0.08281 0.51153 0.0
H2143 H 0.3219 0.15326 0.5334 0.0
H2144 H 0.34928 0.14105 0.53652 0.0
H2145 H 0.34309 0.08173 0.50584 0.0
H2146 H 0.41871 0.04803 0.49638 0.0
H2147 H 0.39386 0.06419 0.49289 0.0
H2148 H 0.40196 0.12348 0.52502 0.0
C2149 C 0.33909 0.13491 0.52437 0.0
C2150 C 0.35586 0.09108 0.50984 0.0
C2151 C 0.32337 0.1419 0.5226 0.0
C2152 C 0.41858 0.06015 0.50699 0.0
C2153 C 0.4043 0.06943 0.50501 0.0
C2154 C 0.38917 0.11421 0.52094 0.0
C2155 C 0.34129 0.11963 0.51108 0.0
C2156 C 0.35734 0.11104 0.51351 0.0
C2157 C 0.40347 0.08519 0.51847 0.0
C2158 C 0.38765 0.09424 0.51694 0.0
H2159 H 0.3018 0.11243 0.48186 0.0
H2160 H 0.32902 0.10061 0.48482 0.0
H2161 H 0.37585 0.13794 0.52206 0.0
H2162 H 0.4423 0.08759 0.54784 0.0
H2163 H 0.41736 0.10375 0.5444 0.0
C2164 C 0.67528 0.61327 0.33061 0.0
C2165 C 0.67896 0.59617 0.32186 0.0
C2166 C 0.68685 0.63067 0.33095 0.0
C2167 C 0.70843 0.66599 0.31823 0.0
H2168 H 0.75854 0.66693 0.32751 0.0
C2169 C 0.7612 0.72242 0.2954 0.0
C2170 C 0.77613 0.73052 0.30913 0.0
C2171 C 0.74866 0.70755 0.29933 0.0
C2172 C 0.7446 0.66695 0.32513 0.0
H2173 H 0.69652 0.58385 0.30517 0.0
H2174 H 0.71674 0.61404 0.30583 0.0
H2175 H 0.73794 0.63774 0.32942 0.0
H2176 H 0.78988 0.72921 0.33756 0.0
H2177 H 0.76815 0.70257 0.34419 0.0
H2178 H 0.71523 0.69507 0.31291 0.0
C2179 C 0.70535 0.61407 0.31303 0.0
C2180 C 0.73278 0.65021 0.32616 0.0
C2181 C 0.69381 0.59679 0.31267 0.0
C2182 C 0.77843 0.72328 0.32678 0.0
C2183 C 0.76602 0.70811 0.33058 0.0
C2184 C 0.72027 0.68267 0.31682 0.0
C2185 C 0.70211 0.63119 0.32231 0.0
C2186 C 0.71456 0.64947 0.32257 0.0
C2187 C 0.75102 0.70013 0.31687 0.0
C2188 C 0.73846 0.68322 0.32011 0.0
H2189 H 0.66367 0.6131 0.33744 0.0
H2190 H 0.68399 0.64365 0.33817 0.0
H2191 H 0.69447 0.66582 0.31519 0.0
H2192 H 0.7594 0.72726 0.2814 0.0
H2193 H 0.73742 0.70136 0.28835 0.0
C2194 C 0.8987 0.48245 0.78668 0.0
C2195 C 0.89076 0.4953 0.77648 0.0
C2196 C 0.88973 0.46354 0.7871 0.0
C2197 C 0.85039 0.42528 0.76218 0.0
H2198 H 0.85926 0.40226 0.80868 0.0
C2199 C 0.81985 0.3442 0.76589 0.0
C2200 C 0.8159 0.33873 0.78371 0.0
C2201 C 0.82881 0.36296 0.7646 0.0
C2202 C 0.85636 0.40832 0.79553 0.0
H2203 H 0.86753 0.49722 0.75707 0.0
H2204 H 0.85188 0.46458 0.75778 0.0
H2205 H 0.87437 0.43462 0.80719 0.0
H2206 H 0.81853 0.34958 0.81414 0.0
H2207 H 0.83368 0.38178 0.81192 0.0
H2208 H 0.83205 0.39909 0.7507 0.0
C2209 C 0.86498 0.46909 0.76589 0.0
C2210 C 0.86537 0.42708 0.79456 0.0
C2211 C 0.87392 0.48808 0.76566 0.0
C2212 C 0.82127 0.35289 0.80011 0.0
C2213 C 0.8302 0.37158 0.79883 0.0
C2214 C 0.84139 0.40647 0.76314 0.0
C2215 C 0.87254 0.45641 0.7769 0.0
C2216 C 0.86267 0.43607 0.77786 0.0
C2217 C 0.83428 0.37716 0.78106 0.0
C2218 C 0.84411 0.39748 0.77986 0.0
H2219 H 0.91181 0.48718 0.79476 0.0
H2220 H 0.89646 0.45445 0.79537 0.0
H2221 H 0.84781 0.43124 0.7489 0.0
H2222 H 0.81607 0.33393 0.75284 0.0
H2223 H 0.83168 0.36619 0.75059 0.0
C2224 C 0.07369 0.85353 0.12375 0.0
C2225 C 0.06086 0.83757 0.11476 0.0
C2226 C 0.07457 0.87124 0.1168 0.0
C2227 C 0.05939 0.89233 0.07303 0.0
H2228 H 0.06704 0.93959 0.10837 0.0
C2229 C 0.03979 0.96121 0.05008 0.0
C2230 C 0.0518 0.97852 0.05633 0.0
C2231 C 0.04277 0.94437 0.05703 0.0
C2232 C 0.06509 0.92652 0.09832 0.0
H2233 H 0.03872 0.82799 0.09152 0.0
H2234 H 0.04005 0.85848 0.07989 0.0
H2235 H 0.06916 0.9096 0.12111 0.0
H2236 H 0.07634 0.99174 0.07492 0.0
H2237 H 0.08126 0.9624 0.08741 0.0
H2238 H 0.05477 0.90913 0.05031 0.0
C2239 C 0.04976 0.85738 0.09196 0.0
C2240 C 0.06635 0.90934 0.10561 0.0
C2241 C 0.04892 0.83982 0.0988 0.0
C2242 C 0.06687 0.97862 0.0697 0.0
C2243 C 0.06965 0.96184 0.07696 0.0
C2244 C 0.05796 0.90942 0.06579 0.0
C2245 C 0.06264 0.87332 0.10072 0.0
C2246 C 0.06316 0.89195 0.09307 0.0
C2247 C 0.05768 0.94452 0.07064 0.0
C2248 C 0.06049 0.92666 0.07835 0.0
H2249 H 0.0831 0.85234 0.13606 0.0
H2250 H 0.08471 0.8832 0.12386 0.0
H2251 H 0.0573 0.87932 0.06288 0.0
H2252 H 0.02806 0.96066 0.03983 0.0
H2253 H 0.0332 0.93127 0.05205 0.0
C2254 C 0.95212 0.26826 0.90504 0.0
C2255 C 0.96195 0.25634 0.89602 0.0
C2256 C 0.9349 0.26847 0.89673 0.0
C2257 C 0.89688 0.24098 0.86163 0.0
H2258 H 0.88597 0.29083 0.85566 0.0
C2259 C 0.83695 0.24918 0.80844 0.0
C2260 C 0.82865 0.26475 0.81205 0.0
C2261 C 0.85219 0.24764 0.82044 0.0
C2262 C 0.88854 0.27675 0.85748 0.0
H2263 H 0.96105 0.23379 0.87257 0.0
H2264 H 0.93091 0.234 0.85799 0.0
H2265 H 0.9139 0.28858 0.87399 0.0
H2266 H 0.82951 0.29064 0.83147 0.0
H2267 H 0.85569 0.28759 0.85305 0.0
H2268 H 0.87139 0.22907 0.84565 0.0
C2269 C 0.93656 0.24352 0.87124 0.0
C2270 C 0.9047 0.27548 0.86793 0.0
C2271 C 0.95387 0.24354 0.87942 0.0
C2272 C 0.83564 0.2785 0.8283 0.0
C2273 C 0.85078 0.27681 0.84055 0.0
C2274 C 0.88058 0.24223 0.8515 0.0
C2275 C 0.927 0.25633 0.87954 0.0
C2276 C 0.90922 0.25759 0.8698 0.0
C2277 C 0.85945 0.26147 0.83666 0.0
C2278 C 0.87627 0.26014 0.84891 0.0
H2279 H 0.95798 0.27789 0.91817 0.0
H2280 H 0.92781 0.27824 0.90369 0.0
H2281 H 0.8998 0.22697 0.86311 0.0
H2282 H 0.83193 0.23837 0.79597 0.0
H2283 H 0.85853 0.23583 0.81659 0.0
C2284 C 0.55092 0.2269 0.63716 0.0
C2285 C 0.55877 0.24238 0.62879 0.0
C2286 C 0.54968 0.20814 0.62827 0.0
C2287 C 0.56816 0.17913 0.59177 0.0
H2288 H 0.52549 0.14221 0.59151 0.0
C2289 C 0.56211 0.09888 0.56456 0.0
C2290 C 0.54569 0.08831 0.55528 0.0
C2291 C 0.56382 0.11783 0.57307 0.0
C2292 C 0.53742 0.15237 0.5912 0.0
H2293 H 0.57309 0.25066 0.60588 0.0
H2294 H 0.57056 0.21807 0.58999 0.0
H2295 H 0.5284 0.17483 0.60724 0.0
H2296 H 0.5183 0.08961 0.5471 0.0
H2297 H 0.52136 0.12281 0.56135 0.0
H2298 H 0.57691 0.15693 0.57507 0.0
C2299 C 0.56517 0.22018 0.60326 0.0
C2300 C 0.53921 0.17104 0.60054 0.0
C2301 C 0.56639 0.23888 0.61217 0.0
C2302 C 0.5311 0.09728 0.55429 0.0
C2303 C 0.53285 0.11632 0.5626 0.0
C2304 C 0.5663 0.16052 0.58226 0.0
C2305 C 0.55657 0.20455 0.61103 0.0
C2306 C 0.55465 0.18465 0.60105 0.0
C2307 C 0.54919 0.1268 0.57231 0.0
C2308 C 0.55095 0.14683 0.58194 0.0
H2309 H 0.54542 0.22933 0.65033 0.0
H2310 H 0.54338 0.19646 0.63496 0.0
H2311 H 0.58032 0.18912 0.592 0.0
H2312 H 0.57359 0.09236 0.56575 0.0
H2313 H 0.57655 0.12526 0.58068 0.0
C2314 C 0.56003 0.77935 0.36958 0.0
C2315 C 0.5561 0.76995 0.38542 0.0
C2316 C 0.57604 0.77966 0.36296 0.0
C2317 C 0.6218 0.77388 0.37591 0.0
H2318 H 0.6198 0.76713 0.32021 0.0
C2319 C 0.68292 0.76939 0.33738 0.0
C2320 C 0.68397 0.77869 0.32088 0.0
C2321 C 0.66791 0.76799 0.34639 0.0
C2322 C 0.62065 0.76925 0.33579 0.0
H2323 H 0.56642 0.75384 0.40698 0.0
H2324 H 0.59465 0.75432 0.39521 0.0
H2325 H 0.59274 0.76463 0.33389 0.0
H2326 H 0.67028 0.79458 0.30157 0.0
H2327 H 0.64422 0.79214 0.31721 0.0
H2328 H 0.64985 0.77856 0.37767 0.0
C2329 C 0.58514 0.76151 0.38803 0.0
C2330 C 0.6051 0.76777 0.34367 0.0
C2331 C 0.56896 0.76118 0.39474 0.0
C2332 C 0.66982 0.78699 0.31399 0.0
C2333 C 0.65484 0.78557 0.32296 0.0
C2334 C 0.63744 0.77534 0.36798 0.0
C2335 C 0.58874 0.77053 0.37185 0.0
C2336 C 0.60544 0.77043 0.36381 0.0
C2337 C 0.65356 0.7758 0.3391 0.0
C2338 C 0.63706 0.77338 0.3478 0.0
H2339 H 0.55066 0.7865 0.36209 0.0
H2340 H 0.57848 0.78716 0.35078 0.0
H2341 H 0.62254 0.77609 0.39147 0.0
H2342 H 0.69347 0.76263 0.34297 0.0
H2343 H 0.66733 0.76025 0.35869 0.0
C2344 C 0.07069 0.25888 0.41681 0.0
C2345 C 0.05616 0.25499 0.402 0.0
C2346 C 0.07638 0.24404 0.42541 0.0
C2347 C 0.07004 0.19103 0.42295 0.0
H2348 H 0.07459 0.20307 0.47866 0.0
C2349 C 0.05391 0.13483 0.47326 0.0
C2350 C 0.06336 0.1377 0.49207 0.0
C2351 C 0.05736 0.14831 0.46076 0.0
C2352 C 0.07378 0.1995 0.46317 0.0
H2353 H 0.03701 0.23252 0.38349 0.0
H2354 H 0.04657 0.20656 0.3989 0.0
H2355 H 0.07339 0.22833 0.45879 0.0
H2356 H 0.08456 0.15622 0.51217 0.0
H2357 H 0.09066 0.17978 0.4903 0.0
H2358 H 0.06968 0.16193 0.42749 0.0
C2359 C 0.05378 0.22103 0.4037 0.0
C2360 C 0.0731 0.21403 0.45173 0.0
C2361 C 0.04822 0.23591 0.39494 0.0
C2362 C 0.07686 0.15385 0.49786 0.0
C2363 C 0.08037 0.16729 0.48534 0.0
C2364 C 0.07071 0.17644 0.43445 0.0
C2365 C 0.06747 0.22503 0.41955 0.0
C2366 C 0.07083 0.20992 0.43147 0.0
C2367 C 0.07037 0.1649 0.46682 0.0
C2368 C 0.07218 0.18048 0.45466 0.0
H2369 H 0.07725 0.27348 0.42231 0.0
H2370 H 0.08723 0.24753 0.43727 0.0
H2371 H 0.06848 0.18747 0.40739 0.0
H2372 H 0.04333 0.12257 0.46846 0.0
H2373 H 0.04924 0.14617 0.44671 0.0
C2374 C 0.61111 0.27829 0.23578 0.0
C2375 C 0.60404 0.27749 0.21627 0.0
C2376 C 0.62926 0.2828 0.24165 0.0
C2377 C 0.6719 0.30274 0.22844 0.0
H2378 H 0.68786 0.26173 0.25285 0.0
C2379 C 0.74367 0.30201 0.26271 0.0
C2380 C 0.74972 0.28503 0.25792 0.0
C2381 C 0.72636 0.30336 0.25628 0.0
C2382 C 0.68357 0.27324 0.246 0.0
H2383 H 0.6102 0.2824 0.18791 0.0
H2384 H 0.64194 0.29057 0.19827 0.0
H2385 H 0.65649 0.26167 0.2461 0.0
H2386 H 0.74247 0.2564 0.24178 0.0
H2387 H 0.71215 0.2587 0.23086 0.0
H2388 H 0.69915 0.31429 0.22847 0.0
C2389 C 0.63346 0.28756 0.20896 0.0
C2390 C 0.66568 0.27335 0.24237 0.0
C2391 C 0.61532 0.28279 0.20304 0.0
C2392 C 0.7383 0.26972 0.24575 0.0
C2393 C 0.72092 0.27097 0.23956 0.0
C2394 C 0.68989 0.30281 0.2324 0.0
C2395 C 0.64059 0.28686 0.22814 0.0
C2396 C 0.65967 0.28799 0.23342 0.0
C2397 C 0.71471 0.28762 0.24518 0.0
C2398 C 0.69581 0.2879 0.24097 0.0
H2399 H 0.60271 0.27429 0.24629 0.0
H2400 H 0.6345 0.28234 0.25657 0.0
H2401 H 0.66753 0.31415 0.22148 0.0
H2402 H 0.75204 0.31401 0.27209 0.0
H2403 H 0.72183 0.31632 0.26087 0.0
C2404 C 0.51503 0.8702 0.89869 0.0
C2405 C 0.52268 0.85534 0.90535 0.0
C2406 C 0.5123 0.88514 0.91177 0.0
C2407 C 0.50701 0.89662 0.96265 0.0
H2408 H 0.51984 0.94936 0.95409 0.0
C2409 C 0.51965 0.96104 0.02277 0.0
C2410 C 0.51724 0.97885 0.01766 0.0
C2411 C 0.51598 0.94489 1.00871 0.0
C2412 C 0.51577 0.9347 0.95653 0.0
H2413 H 0.53399 0.84499 0.93103 0.0
H2414 H 0.52937 0.87111 0.95368 0.0
H2415 H 0.52308 0.92379 0.92989 0.0
H2416 H 0.50724 0.99335 0.99455 0.0
H2417 H 0.50019 0.9651 0.97019 0.0
H2418 H 0.49995 0.90755 0.98945 0.0
C2419 C 0.52521 0.87099 0.93837 0.0
C2420 C 0.51774 0.92006 0.94267 0.0
C2421 C 0.52802 0.85613 0.92534 0.0
C2422 C 0.50937 0.97984 0.99882 0.0
C2423 C 0.50551 0.96368 0.98483 0.0
C2424 C 0.50494 0.91128 0.97648 0.0
C2425 C 0.51708 0.88548 0.93176 0.0
C2426 C 0.51371 0.90091 0.94576 0.0
C2427 C 0.50967 0.94628 0.98937 0.0
C2428 C 0.50959 0.93051 0.97374 0.0
H2429 H 0.51071 0.87005 0.88342 0.0
H2430 H 0.506 0.89614 0.90628 0.0
H2431 H 0.50351 0.88193 0.96523 0.0
H2432 H 0.52569 0.95987 0.03722 0.0
H2433 H 0.51937 0.93172 1.01273 0.0
C2434 C 0.02443 0.76691 0.75916 0.0
C2435 C 0.02237 0.76316 0.73887 0.0
C2436 C 1.00984 0.76761 0.76847 0.0
C2437 C 0.96925 0.78313 0.76087 0.0
H2438 H 0.9551 0.75646 0.80291 0.0
C2439 C 0.92029 0.80764 0.80623 0.0
C2440 C 0.90454 0.79408 0.80382 0.0
C2441 C 0.93553 0.80226 0.80121 0.0
C2442 C 0.95903 0.764 0.79123 0.0
H2443 H 1.00336 0.75631 0.71251 0.0
H2444 H 0.97795 0.75809 0.72883 0.0
H2445 H 0.97981 0.74865 0.78729 0.0
H2446 H 0.89288 0.76392 0.79571 0.0
H2447 H 0.91977 0.75452 0.78751 0.0
H2448 H 0.9489 0.7988 0.76496 0.0
C2449 C 0.99085 0.76027 0.73744 0.0
C2450 C 0.97305 0.75955 0.78235 0.0
C2451 C 1.00538 0.75922 0.72815 0.0
C2452 C 0.90479 0.77472 0.79788 0.0
C2453 C 0.92014 0.76931 0.79312 0.0
C2454 C 0.95557 0.78785 0.76997 0.0
C2455 C 0.99303 0.76489 0.75761 0.0
C2456 C 0.97813 0.76902 0.767 0.0
C2457 C 0.9354 0.78318 0.79404 0.0
C2458 C 0.95034 0.77832 0.78518 0.0
H2459 H 0.03737 0.76985 0.7678 0.0
H2460 H 1.01179 0.77129 0.78405 0.0
H2461 H 0.97309 0.79073 0.74918 0.0
H2462 H 0.92068 0.82258 0.81123 0.0
H2463 H 0.94726 0.81314 0.80218 0.0
C2464 C 0.14557 0.04167 0.88528 0.0
C2465 C 0.13724 0.04521 0.86746 0.0
C2466 C 0.13606 0.03806 0.90031 0.0
C2467 C 0.09708 0.04676 0.92002 0.0
H2468 H 0.10373 1.0045 0.94826 0.0
C2469 C 0.07373 0.03965 0.9935 0.0
C2470 C 0.06385 0.02175 0.9953 0.0
C2471 C 0.08273 0.04186 0.97781 0.0
C2472 C 0.1017 0.0163 0.94046 0.0
H2473 H 0.11232 0.04793 0.85161 0.0
H2474 H 0.0957 0.04197 0.87818 0.0
H2475 H 0.11866 1.00946 0.92033 0.0
H2476 H 0.0563 0.99195 0.98268 0.0
H2477 H 0.07239 0.99572 0.95537 0.0
H2478 H 0.08031 0.05376 0.94032 0.0
C2479 C 0.10964 0.04189 0.88033 0.0
C2480 C 0.1103 0.01919 0.92456 0.0
C2481 C 0.11913 0.04524 0.86513 0.0
C2482 C 0.0638 1.0059 0.9816 0.0
C2483 C 0.073 1.00807 0.96601 0.0
C2484 C 0.08867 0.04402 0.93608 0.0
C2485 C 0.11801 0.03813 0.89802 0.0
C2486 C 0.10814 0.03451 0.91424 0.0
C2487 C 0.08223 0.02616 0.96374 0.0
C2488 C 0.09097 0.02882 0.94652 0.0
H2489 H 0.15947 0.04144 0.88763 0.0
H2490 H 0.1429 0.03544 0.91384 0.0
H2491 H 0.09527 0.05873 0.91241 0.0
H2492 H 0.07403 0.05213 1.00385 0.0
H2493 H 0.08996 0.0559 0.97658 0.0
C2494 C 0.75976 0.35197 0.5329 0.0
C2495 C 0.76186 0.37174 0.53232 0.0
C2496 C 0.7662 0.3451 0.5496 0.0
C2497 C 0.77848 0.35871 0.60203 0.0
H2498 H 0.80073 0.31452 0.59833 0.0
C2499 C 0.80346 0.32716 0.66964 0.0
C2500 C 0.7985 0.30718 0.66835 0.0
C2501 C 0.80157 0.3361 0.65309 0.0
C2502 C 0.79449 0.32684 0.59958 0.0
H2503 H 0.77242 0.39983 0.54872 0.0
H2504 H 0.78371 0.38779 0.57792 0.0
H2505 H 0.79218 0.3282 0.5692 0.0
H2506 H 0.78784 0.28093 0.64868 0.0
H2507 H 0.78457 0.29649 0.6199 0.0
H2508 H 0.78042 0.35709 0.63233 0.0
C2509 C 0.77696 0.37763 0.5655 0.0
C2510 C 0.78958 0.33464 0.58291 0.0
C2511 C 0.77055 0.38451 0.54876 0.0
C2512 C 0.79207 0.29631 0.65012 0.0
C2513 C 0.79019 0.30523 0.63361 0.0
C2514 C 0.78337 0.35089 0.6187 0.0
C2515 C 0.77486 0.35785 0.56608 0.0
C2516 C 0.78126 0.35046 0.58393 0.0
C2517 C 0.79468 0.32524 0.63495 0.0
C2518 C 0.79116 0.33468 0.61759 0.0
H2519 H 0.7531 0.34177 0.52046 0.0
H2520 H 0.76414 0.32977 0.54972 0.0
H2521 H 0.77192 0.37078 0.60323 0.0
H2522 H 0.80868 0.33588 0.68346 0.0
H2523 H 0.80535 0.35153 0.65451 0.0
C2524 C 0.45186 0.05122 0.33725 0.0
C2525 C 0.43359 0.05052 0.33603 0.0
C2526 C 0.46253 0.05025 0.35501 0.0
C2527 C 0.46234 0.05311 0.40994 0.0
H2528 H 0.50357 0.03051 0.4091 0.0
C2529 C 0.50386 0.03792 0.48206 0.0
C2530 C 0.52216 0.03938 0.48271 0.0
C2531 C 0.49277 0.0393 0.46467 0.0
C2532 C 0.49225 0.03712 0.40986 0.0
H2533 H 0.41272 0.04824 0.35356 0.0
H2534 H 0.43083 0.0464 0.38369 0.0
H2535 H 0.48597 0.03339 0.37885 0.0
H2536 H 0.54272 0.04373 0.465 0.0
H2537 H 0.52396 0.0462 0.43555 0.0
H2538 H 0.46864 0.05669 0.44104 0.0
C2539 C 0.43723 0.04804 0.37112 0.0
C2540 C 0.48199 0.03882 0.39219 0.0
C2541 C 0.42664 0.04902 0.35349 0.0
C2542 C 0.52878 0.04236 0.46536 0.0
C2543 C 0.51783 0.04364 0.44814 0.0
C2544 C 0.47259 0.05136 0.42764 0.0
C2545 C 0.45547 0.04851 0.37244 0.0
C2546 C 0.46676 0.04691 0.39168 0.0
C2547 C 0.4995 0.04206 0.44719 0.0
C2548 C 0.48789 0.0434 0.4281 0.0
H2549 H 0.45795 0.05225 0.32438 0.0
H2550 H 0.47643 0.05095 0.35499 0.0
H2551 H 0.45103 0.05973 0.41071 0.0
H2552 H 0.49808 0.03576 0.49496 0.0
H2553 H 0.47882 0.03791 0.46491 0.0
C2554 C 0.77885 0.67234 0.08724 0.0
C2555 C 0.78192 0.68359 0.07249 0.0
C2556 C 0.78099 0.68082 0.10652 0.0
C2557 C 0.78077 0.72661 0.13606 0.0
H2558 H 0.80158 0.70327 0.17805 0.0
C2559 C 0.77617 0.75016 0.21651 0.0
C2560 C 0.79138 0.75155 0.2301 0.0
C2561 C 0.77546 0.74226 0.19723 0.0
C2562 C 0.79583 0.71004 0.16649 0.0
H2563 H 0.79002 0.71257 0.06652 0.0
H2564 H 0.7938 0.72736 0.10017 0.0
H2565 H 0.80032 0.68891 0.14466 0.0
H2566 H 0.81783 0.7458 0.23386 0.0
H2567 H 0.81653 0.73208 0.20037 0.0
H2568 H 0.77632 0.74777 0.1579 0.0
C2569 C 0.78959 0.71198 0.0968 0.0
C2570 C 0.79496 0.70171 0.14735 0.0
C2571 C 0.78757 0.70348 0.07753 0.0
C2572 C 0.80586 0.74492 0.22387 0.0
C2573 C 0.8051 0.73694 0.20465 0.0
C2574 C 0.78152 0.73487 0.15521 0.0
C2575 C 0.78614 0.70078 0.11151 0.0
C2576 C 0.78742 0.70988 0.13189 0.0
C2577 C 0.78988 0.73545 0.19109 0.0
C2578 C 0.78906 0.72669 0.17068 0.0
H2579 H 0.77444 0.65698 0.08386 0.0
H2580 H 0.77808 0.67178 0.11744 0.0
H2581 H 0.7747 0.73316 0.12451 0.0
H2582 H 0.76476 0.7551 0.22076 0.0
H2583 H 0.76347 0.74118 0.1872 0.0
C2584 C 0.13471 0.04653 0.74153 0.0
C2585 C 0.12641 0.03717 0.7553 0.0
C2586 C 0.12627 0.04473 0.72248 0.0
C2587 C 0.09447 1.01444 0.68477 0.0
H2588 H 0.08802 0.06144 0.66508 0.0
C2589 C 0.05655 1.01412 0.60805 0.0
C2590 C 0.062 0.02943 0.59805 0.0
C2591 C 0.06369 1.01447 0.62743 0.0
C2592 C 0.08995 0.04816 0.67012 0.0
H2593 H 0.10298 0.01809 0.75976 0.0
H2594 H 0.08842 1.01443 0.72608 0.0
H2595 H 0.10228 0.0627 0.69816 0.0
H2596 H 0.07967 0.05677 0.60028 0.0
H2597 H 0.09268 0.05704 0.63354 0.0
H2598 H 0.08293 0.99987 0.65657 0.0
C2599 C 0.10138 0.02335 0.73024 0.0
C2600 C 0.098 0.04892 0.68918 0.0
C2601 C 0.10968 0.02549 0.74946 0.0
C2602 C 0.07497 0.04489 0.60768 0.0
C2603 C 0.08235 0.04508 0.62688 0.0
C2604 C 0.08673 1.01368 0.66552 0.0
C2605 C 0.10951 0.03321 0.71668 0.0
C2606 C 0.10041 0.0321 0.69665 0.0
C2607 C 0.07671 0.02999 0.63716 0.0
C2608 C 0.08445 0.03056 0.65786 0.0
H2609 H 0.14757 0.05568 0.74559 0.0
H2610 H 0.13282 0.0524 0.71225 0.0
H2611 H 0.09628 1.00128 0.69022 0.0
H2612 H 0.04653 1.002 0.601 0.0
H2613 H 0.05878 1.00269 0.63482 0.0
C2614 C 0.71787 0.35013 0.42781 0.0
C2615 C 0.71938 0.36988 0.42725 0.0
C2616 C 0.71603 0.33748 0.41078 0.0
C2617 C 0.71118 0.31302 0.37114 0.0
H2618 H 0.75226 0.33254 0.34885 0.0
C2619 C 0.74332 0.27194 0.31212 0.0
C2620 C 0.76109 0.27237 0.31896 0.0
C2621 C 0.73372 0.28289 0.32267 0.0
C2622 C 0.74056 0.32705 0.35466 0.0
H2623 H 0.71804 0.39156 0.40825 0.0
H2624 H 0.71529 0.36944 0.37851 0.0
H2625 H 0.74112 0.35393 0.37135 0.0
H2626 H 0.78245 0.2832 0.34259 0.0
H2627 H 0.76587 0.30267 0.36079 0.0
H2628 H 0.71153 0.28572 0.35519 0.0
C2629 C 0.71555 0.36382 0.39217 0.0
C2630 C 0.73405 0.3393 0.36734 0.0
C2631 C 0.71717 0.37646 0.4092 0.0
C2632 C 0.76887 0.28301 0.33687 0.0
C2633 C 0.75941 0.29408 0.34725 0.0
C2634 C 0.71765 0.30074 0.35821 0.0
C2635 C 0.71582 0.34438 0.39291 0.0
C2636 C 0.71965 0.3323 0.3762 0.0
C2637 C 0.7419 0.29441 0.34005 0.0
C2638 C 0.73279 0.3076 0.3505 0.0
H2639 H 0.71922 0.34456 0.44147 0.0
H2640 H 0.71635 0.32258 0.41179 0.0
H2641 H 0.70011 0.30728 0.37788 0.0
H2642 H 0.73707 0.2638 0.29828 0.0
H2643 H 0.72021 0.28296 0.31693 0.0
C2644 C 0.45401 0.05566 0.22268 0.0
C2645 C 0.43613 0.04748 0.22231 0.0
C2646 C 0.46239 0.05405 0.20598 0.0
C2647 C 0.45362 0.03779 0.15053 0.0
H2648 H 0.50419 0.04389 0.15742 0.0
C2649 C 0.49192 0.03625 0.08256 0.0
C2650 C 0.50893 0.03186 0.08415 0.0
C2651 C 0.48294 0.0381 0.09884 0.0
C2652 C 0.49002 0.04186 0.15484 0.0
H2653 H 0.41337 0.03089 0.20305 0.0
H2654 H 0.42774 0.02771 0.17439 0.0
H2655 H 0.48944 0.0465 0.18537 0.0
H2656 H 0.5293 0.02575 0.1051 0.0
H2657 H 0.51388 0.02831 0.13274 0.0
H2658 H 0.45423 0.03248 0.11994 0.0
C2659 C 0.43546 0.03587 0.18753 0.0
C2660 C 0.48136 0.04373 0.1713 0.0
C2661 C 0.42705 0.03763 0.20425 0.0
C2662 C 0.51635 0.02921 0.10286 0.0
C2663 C 0.50736 0.03091 0.11906 0.0
C2664 C 0.46229 0.03581 0.13404 0.0
C2665 C 0.45347 0.04395 0.18785 0.0
C2666 C 0.46285 0.04181 0.16975 0.0
C2667 C 0.4904 0.03555 0.11769 0.0
C2668 C 0.48081 0.03776 0.13562 0.0
H2669 H 0.46171 0.06341 0.23605 0.0
H2670 H 0.47601 0.06101 0.20747 0.0
H2671 H 0.43949 0.03633 0.14799 0.0
H2672 H 0.48554 0.03857 0.06867 0.0
H2673 H 0.47015 0.0419 0.09654 0.0
C2674 C 0.77203 0.69744 0.96509 0.0
C2675 C 0.76691 0.67743 0.96051 0.0
C2676 C 0.77353 0.70908 0.95046 0.0
C2677 C 0.75969 0.70907 0.89777 0.0
H2678 H 0.79837 0.75243 0.90431 0.0
C2679 C 0.77884 0.74867 0.8342 0.0
C2680 C 0.78464 0.76862 0.83778 0.0
C2681 C 0.77557 0.7382 0.84938 0.0
C2682 C 0.78734 0.74054 0.90233 0.0
H2683 H 0.75938 0.65408 0.93671 0.0
H2684 H 0.76223 0.67427 0.91138 0.0
H2685 H 0.79506 0.733 0.93031 0.0
H2686 H 0.79114 0.7933 0.86003 0.0
H2687 H 0.78533 0.77505 0.88656 0.0
H2688 H 0.75211 0.71649 0.86969 0.0
C2689 C 0.76484 0.68104 0.92628 0.0
C2690 C 0.78543 0.72937 0.91727 0.0
C2691 C 0.76333 0.66941 0.94088 0.0
C2692 C 0.78672 0.77794 0.85682 0.0
C2693 C 0.78351 0.76745 0.87204 0.0
C2694 C 0.76162 0.72022 0.88282 0.0
C2695 C 0.76995 0.70105 0.93083 0.0
C2696 C 0.77165 0.71338 0.91516 0.0
C2697 C 0.77807 0.7474 0.86855 0.0
C2698 C 0.77554 0.73603 0.88483 0.0
H2699 H 0.77484 0.70419 0.98001 0.0
H2700 H 0.77729 0.72443 0.95455 0.0
H2701 H 0.74871 0.69712 0.89572 0.0
H2702 H 0.77722 0.74106 0.8197 0.0
H2703 H 0.7716 0.72279 0.84613 0.0
C2704 C 0.88995 0.17421 0.06158 0.0
C2705 C 0.87413 0.16258 0.05192 0.0
C2706 C 0.9056 0.17376 0.05416 0.0
C2707 C 0.93463 0.1529 0.04534 0.0
H2708 H 0.93624 0.13885 0.99091 0.0
C2709 C 0.95182 0.08682 0.99989 0.0
C2710 C 0.96667 0.0846 1.01223 0.0
C2711 C 0.94625 0.10429 1.00129 0.0
C2712 C 0.93616 0.14297 1.00616 0.0
H2713 H 0.86202 0.14273 0.0261 0.0
H2714 H 0.8891 0.14168 1.01347 0.0
H2715 H 0.91461 0.15724 1.00052 0.0
H2716 H 0.98852 0.09931 0.03404 0.0
H2717 H 0.97903 0.12994 0.03617 0.0
H2718 H 0.95504 0.13738 0.05113 0.0
C2719 C 0.88957 0.15126 0.02664 0.0
C2720 C 0.92382 0.15353 1.01166 0.0
C2721 C 0.87403 0.1516 0.03409 0.0
C2722 C 0.97675 0.10057 0.0247 0.0
C2723 C 0.97137 0.1181 0.02586 0.0
C2724 C 0.94693 0.14236 0.03986 0.0
C2725 C 0.90561 0.16183 0.03689 0.0
C2726 C 0.92217 0.15741 0.03127 0.0
C2727 C 0.95556 0.11989 0.0149 0.0
C2728 C 0.94701 0.13618 0.02022 0.0
H2729 H 0.89039 0.183 0.07526 0.0
H2730 H 0.91778 0.18211 0.06232 0.0
H2731 H 0.93371 0.15562 0.06057 0.0
H2732 H 0.94387 0.07472 0.99012 0.0
H2733 H 0.9339 0.10506 0.99274 0.0
C2734 C 0.37068 0.4404 0.07527 0.0
C2735 C 0.36382 0.4237 0.06219 0.0
C2736 C 0.38814 0.44971 0.07632 0.0
C2737 C 0.43095 0.44404 0.05951 0.0
H2738 H 0.44038 0.49942 0.06992 0.0
C2739 C 0.49414 0.49244 0.04391 0.0
C2740 C 0.50155 0.50878 0.05739 0.0
C2741 C 0.47815 0.48096 0.0458 0.0
C2742 C 0.43806 0.48394 0.06719 0.0
H2743 H 0.36997 0.40277 0.04094 0.0
H2744 H 0.40011 0.41947 0.04176 0.0
H2745 H 0.41137 0.48165 0.07133 0.0
H2746 H 0.49837 0.52555 0.0838 0.0
H2747 H 0.47054 0.50562 0.08711 0.0
H2748 H 0.45783 0.44662 0.05516 0.0
C2749 C 0.3923 0.4254 0.05157 0.0
C2750 C 0.4213 0.47365 0.06797 0.0
C2751 C 0.37493 0.41587 0.05088 0.0
C2752 C 0.49292 0.51312 0.07309 0.0
C2753 C 0.47692 0.50175 0.07493 0.0
C2754 C 0.44773 0.45438 0.05862 0.0
C2755 C 0.39915 0.44264 0.06413 0.0
C2756 C 0.41738 0.45352 0.06403 0.0
C2757 C 0.46918 0.48568 0.06116 0.0
C2758 C 0.45148 0.47448 0.06241 0.0
H2759 H 0.36248 0.44632 0.08464 0.0
H2760 H 0.39291 0.46253 0.08666 0.0
H2761 H 0.42873 0.42858 0.05682 0.0
H2762 H 0.50046 0.48878 0.03162 0.0
H2763 H 0.47252 0.46877 0.03487 0.0
C2764 C 0.42188 0.56463 0.76105 0.0
C2765 C 0.41487 0.55322 0.77421 0.0
C2766 C 0.41717 0.58236 0.75923 0.0
C2767 C 0.39816 0.61998 0.78414 0.0
H2768 H 0.37899 0.62772 0.73266 0.0
C2769 C 0.34831 0.66837 0.77146 0.0
C2770 C 0.34863 0.67904 0.75593 0.0
C2771 C 0.35955 0.65551 0.77399 0.0
C2772 C 0.38463 0.62603 0.7471 0.0
H2773 H 0.39803 0.55182 0.7963 0.0
H2774 H 0.39 0.58268 0.79325 0.0
H2775 H 0.39366 0.60081 0.7368 0.0
H2776 H 0.36134 0.68488 0.73112 0.0
H2777 H 0.38105 0.66228 0.73555 0.0
H2778 H 0.38883 0.64489 0.79453 0.0
C2779 C 0.39909 0.57796 0.78432 0.0
C2780 C 0.39302 0.6106 0.74945 0.0
C2781 C 0.40359 0.5602 0.78596 0.0
C2782 C 0.36064 0.67669 0.7431 0.0
C2783 C 0.37193 0.66378 0.74565 0.0
C2784 C 0.38988 0.63545 0.78179 0.0
C2785 C 0.40562 0.58911 0.77077 0.0
C2786 C 0.39938 0.6071 0.76804 0.0
C2787 C 0.37144 0.65296 0.76108 0.0
C2788 C 0.38251 0.6383 0.76329 0.0
H2789 H 0.43058 0.55962 0.75176 0.0
H2790 H 0.42242 0.59072 0.7487 0.0
H2791 H 0.40321 0.61779 0.79862 0.0
H2792 H 0.339 0.66955 0.78139 0.0
H2793 H 0.35852 0.64711 0.78577 0.0
C2794 C 0.29522 0.62013 0.59709 0.0
C2795 C 0.29298 0.63717 0.59 0.0
C2796 C 0.28087 0.60799 0.60194 0.0
C2797 C 0.23522 0.60648 0.61173 0.0
H2798 H 0.22668 0.55378 0.58718 0.0
C2799 C 0.16812 0.55825 0.60695 0.0
C2800 C 0.16068 0.55029 0.58784 0.0
C2801 C 0.18612 0.56548 0.61175 0.0
C2802 C 0.22897 0.56841 0.59428 0.0
H2803 H 0.27476 0.65591 0.58395 0.0
H2804 H 0.24965 0.63469 0.59192 0.0
H2805 H 0.25542 0.57424 0.58869 0.0
H2806 H 0.16647 0.54238 0.55912 0.0
H2807 H 0.19794 0.5553 0.56743 0.0
H2808 H 0.20863 0.60094 0.61674 0.0
C2809 C 0.26233 0.63053 0.5938 0.0
C2810 C 0.24544 0.58011 0.59521 0.0
C2811 C 0.27662 0.64259 0.58902 0.0
C2812 C 0.1718 0.54864 0.57391 0.0
C2813 C 0.18983 0.55583 0.57873 0.0
C2814 C 0.21886 0.59477 0.611 0.0
C2815 C 0.26421 0.61297 0.60006 0.0
C2816 C 0.24843 0.59952 0.60309 0.0
C2817 C 0.19706 0.56488 0.59755 0.0
C2818 C 0.21535 0.57584 0.60159 0.0
H2819 H 0.30797 0.61611 0.59862 0.0
H2820 H 0.28275 0.59465 0.60691 0.0
H2821 H 0.23727 0.62128 0.61828 0.0
H2822 H 0.15992 0.5599 0.61801 0.0
H2823 H 0.19137 0.57225 0.62639 0.0
C2824 C 0.69106 0.95429 0.78429 0.0
C2825 C 0.69053 0.96467 0.80249 0.0
C2826 C 0.69907 0.9378 0.78259 0.0
C2827 C 0.71372 0.89891 0.81019 0.0
H2828 H 0.7439 0.89257 0.77163 0.0
C2829 C 0.74432 0.8284 0.79612 0.0
C2830 C 0.76201 0.83058 0.79287 0.0
C2831 C 0.73531 0.8441 0.79711 0.0
C2832 C 0.73554 0.89393 0.78256 0.0
H2833 H 0.6983 0.96471 0.83315 0.0
H2834 H 0.71114 0.93599 0.83025 0.0
H2835 H 0.72881 0.91982 0.77327 0.0
H2836 H 0.78349 0.85197 0.78772 0.0
H2837 H 0.76786 0.87873 0.78876 0.0
H2838 H 0.72015 0.87281 0.81923 0.0
C2839 C 0.70556 0.94062 0.81713 0.0
C2840 C 0.72666 0.90972 0.78342 0.0
C2841 C 0.69805 0.95733 0.8188 0.0
C2842 C 0.77002 0.84929 0.79034 0.0
C2843 C 0.7609 0.86485 0.79085 0.0
C2844 C 0.72222 0.88284 0.80899 0.0
C2845 C 0.70658 0.93049 0.79899 0.0
C2846 C 0.71561 0.91282 0.7974 0.0
C2847 C 0.7433 0.86281 0.79438 0.0
C2848 C 0.73355 0.87995 0.79527 0.0
H2849 H 0.68587 0.95933 0.77123 0.0
H2850 H 0.69932 0.93072 0.76825 0.0
H2851 H 0.70542 0.9003 0.82118 0.0
H2852 H 0.73739 0.81447 0.79814 0.0
H2853 H 0.72184 0.84145 0.79973 0.0
C2854 C 0.76474 0.9402 0.53866 0.0
C2855 C 0.76992 0.92732 0.55088 0.0
C2856 C 0.74836 0.94534 0.53828 0.0
C2857 C 0.71322 0.94982 0.56694 0.0
H2858 H 0.68789 0.95565 0.51751 0.0
C2859 C 0.64795 0.97937 0.55882 0.0
C2860 C 0.64714 0.99297 0.54597 0.0
C2861 C 0.66158 0.96899 0.55984 0.0
C2862 C 0.69481 0.9542 0.53145 0.0
H2863 H 0.76169 0.9097 0.57232 0.0
H2864 H 0.73284 0.9189 0.57176 0.0
H2865 H 0.71385 0.9413 0.5185 0.0
H2866 H 0.65986 1.0059 0.52381 0.0
H2867 H 0.68353 0.98812 0.52574 0.0
H2868 H 0.6943 0.96321 0.57988 0.0
C2869 C 0.74165 0.92494 0.56245 0.0
C2870 C 0.70969 0.94592 0.53202 0.0
C2871 C 0.75811 0.91959 0.56269 0.0
C2872 C 0.66017 0.99576 0.53407 0.0
C2873 C 0.67366 0.98535 0.535 0.0
C2874 C 0.69826 0.95815 0.56638 0.0
C2875 C 0.73659 0.93786 0.55017 0.0
C2876 C 0.71938 0.9441 0.54976 0.0
C2877 C 0.67456 0.9718 0.54785 0.0
C2878 C 0.68916 0.96092 0.54862 0.0
H2879 H 0.77339 0.94647 0.5293 0.0
H2880 H 0.74506 0.95554 0.52888 0.0
H2881 H 0.72042 0.9487 0.58085 0.0
H2882 H 0.63817 0.97692 0.56824 0.0
H2883 H 0.66184 0.9586 0.56984 0.0
C2884 C 0.39786 0.44864 0.75067 0.0
C2885 C 0.41437 0.45289 0.76228 0.0
C2886 C 0.38728 0.43051 0.74895 0.0
C2887 C 0.36612 0.39065 0.7448 0.0
H2888 H 0.37247 0.36494 0.78986 0.0
C2889 C 0.31508 0.3247 0.75423 0.0
C2890 C 0.31255 0.32204 0.77312 0.0
C2891 C 0.32911 0.33843 0.75101 0.0
C2892 C 0.37023 0.37204 0.77727 0.0
H2893 H 0.43409 0.44104 0.77872 0.0
H2894 H 0.41605 0.40903 0.77519 0.0
H2895 H 0.39362 0.39282 0.78709 0.0
H2896 H 0.32236 0.33152 0.80346 0.0
H2897 H 0.34581 0.35638 0.79811 0.0
H2898 H 0.34177 0.37103 0.73599 0.0
C2899 C 0.41057 0.41991 0.76842 0.0
C2900 C 0.38276 0.38792 0.7754 0.0
C2901 C 0.42104 0.4382 0.77034 0.0
C2902 C 0.32414 0.33329 0.78874 0.0
C2903 C 0.33777 0.34742 0.78558 0.0
C2904 C 0.35327 0.37515 0.747 0.0
C2905 C 0.39319 0.41601 0.75843 0.0
C2906 C 0.38081 0.39771 0.75927 0.0
C2907 C 0.34057 0.35022 0.76666 0.0
C2908 C 0.35496 0.36577 0.76345 0.0
H2909 H 0.39282 0.4596 0.74355 0.0
H2910 H 0.37411 0.42842 0.74109 0.0
H2911 H 0.36424 0.39726 0.73183 0.0
H2912 H 0.3064 0.31593 0.74197 0.0
H2913 H 0.33094 0.33967 0.73623 0.0
C2914 C 0.18243 0.58341 0.30912 0.0
C2915 C 0.18996 0.56736 0.30429 0.0
C2916 C 0.19127 0.6023 0.30836 0.0
C2917 C 0.23529 0.63326 0.30952 0.0
H2918 H 0.20983 0.66721 0.28353 0.0
C2919 C 0.26312 0.7165 0.31173 0.0
C2920 C 0.26174 0.72372 0.29386 0.0
C2921 C 0.25478 0.69759 0.31337 0.0
C2922 C 0.21722 0.65801 0.2909 0.0
H2923 H 0.21241 0.55916 0.29321 0.0
H2924 H 0.2283 0.59195 0.29311 0.0
H2925 H 0.19488 0.63466 0.28599 0.0
H2926 H 0.2499 0.71615 0.26377 0.0
H2927 H 0.23489 0.68382 0.26679 0.0
H2928 H 0.2575 0.65685 0.31489 0.0
C2929 C 0.21558 0.58994 0.29783 0.0
C2930 C 0.20856 0.63924 0.29239 0.0
C2931 C 0.20653 0.57101 0.29816 0.0
C2932 C 0.25142 0.71133 0.27781 0.0
C2933 C 0.2427 0.69267 0.27956 0.0
C2934 C 0.24382 0.65225 0.30851 0.0
C2935 C 0.20809 0.60601 0.30279 0.0
C2936 C 0.21742 0.62638 0.30159 0.0
C2937 C 0.24428 0.68529 0.29733 0.0
C2938 C 0.23501 0.665 0.29901 0.0
H2939 H 0.16953 0.58135 0.31342 0.0
H2940 H 0.1849 0.61408 0.31224 0.0
H2941 H 0.24266 0.624 0.31679 0.0
H2942 H 0.27091 0.72537 0.32449 0.0
H2943 H 0.25635 0.69268 0.32735 0.0
C2944 C 0.51909 0.69751 0.43107 0.0
C2945 C 0.51974 0.71557 0.44158 0.0
C2946 C 0.52126 0.68182 0.44071 0.0
C2947 C 0.51518 0.6624 0.48548 0.0
H2948 H 0.55046 0.63272 0.47452 0.0
C2949 C 0.52013 0.5902 0.51389 0.0
C2950 C 0.53693 0.58839 0.52244 0.0
C2951 C 0.51789 0.60579 0.50417 0.0
C2952 C 0.54057 0.6409 0.47773 0.0
H2953 H 0.52297 0.73124 0.47042 0.0
H2954 H 0.52624 0.70374 0.48716 0.0
H2955 H 0.5466 0.65953 0.45672 0.0
H2956 H 0.56456 0.60173 0.52743 0.0
H2957 H 0.56058 0.62889 0.51042 0.0
H2958 H 0.50892 0.64357 0.50624 0.0
C2959 C 0.52426 0.70179 0.4715 0.0
C2960 C 0.53829 0.65613 0.46747 0.0
C2961 C 0.52248 0.71755 0.4619 0.0
C2962 C 0.55141 0.60269 0.52116 0.0
C2963 C 0.54917 0.61819 0.51129 0.0
C2964 C 0.5172 0.64692 0.49545 0.0
C2965 C 0.52371 0.68378 0.46103 0.0
C2966 C 0.52568 0.66714 0.47136 0.0
C2967 C 0.53239 0.61987 0.50264 0.0
C2968 C 0.53004 0.63612 0.49182 0.0
H2969 H 0.517 0.69554 0.41541 0.0
H2970 H 0.52074 0.66806 0.4323 0.0
H2971 H 0.50531 0.6706 0.4887 0.0
H2972 H 0.50871 0.57939 0.51437 0.0
H2973 H 0.50487 0.60658 0.49734 0.0
C2974 C 0.62247 0.317 0.69203 0.0
C2975 C 0.61669 0.3064 0.67354 0.0
C2976 C 0.63934 0.31729 0.70184 0.0
C2977 C 0.67229 0.28755 0.70645 0.0
H2978 H 0.70492 0.33391 0.73037 0.0
C2979 C 0.74081 0.28426 0.74706 0.0
C2980 C 0.74777 0.29789 0.76341 0.0
C2981 C 0.72573 0.28606 0.73479 0.0
C2982 C 0.69591 0.32075 0.72408 0.0
H2983 H 0.62428 0.28811 0.65073 0.0
H2984 H 0.65346 0.28831 0.66803 0.0
H2985 H 0.6768 0.33603 0.71208 0.0
H2986 H 0.74444 0.32415 0.77968 0.0
H2987 H 0.7179 0.32684 0.75907 0.0
H2988 H 0.69077 0.27212 0.71905 0.0
C2989 C 0.64499 0.29649 0.67485 0.0
C2990 C 0.67981 0.32204 0.71348 0.0
C2991 C 0.62831 0.2965 0.66491 0.0
C2992 C 0.73946 0.31343 0.76713 0.0
C2993 C 0.72424 0.31505 0.75512 0.0
C2994 C 0.68821 0.28622 0.71736 0.0
C2995 C 0.65061 0.30667 0.69351 0.0
C2996 C 0.66784 0.30545 0.70455 0.0
C2997 C 0.71704 0.30136 0.73878 0.0
C2998 C 0.70029 0.3028 0.72643 0.0
H2999 H 0.61382 0.32473 0.69909 0.0
H3000 H 0.64332 0.32522 0.71624 0.0
H3001 H 0.66321 0.2745 0.69988 0.0
H3002 H 0.74694 0.27213 0.74382 0.0
H3003 H 0.72091 0.27539 0.72219 0.0
C3004 C 0.01952 0.32 0.95109 0.0
C3005 C 0.01714 0.31821 0.93077 0.0
C3006 C 0.02233 0.33799 0.96227 0.0
C3007 C 0.01665 0.3765 0.98106 0.0
H3008 H 0.04751 0.41958 0.96707 0.0
C3009 C 0.01842 0.45538 1.01198 0.0
C3010 C 0.03487 0.46786 0.0162 0.0
C3011 C 0.01685 0.43661 1.00294 0.0
C3012 C 0.03897 0.40767 0.97129 0.0
H3013 H 0.01606 0.33414 0.90635 0.0
H3014 H 0.02099 0.36543 0.92585 0.0
H3015 H 0.04405 0.38792 0.94857 0.0
H3016 H 0.06268 0.47005 0.01478 0.0
H3017 H 0.05989 0.43739 0.99915 0.0
H3018 H 1.0116 0.39628 1.00382 0.0
C3019 C 0.02079 0.3529 0.93313 0.0
C3020 C 0.03684 0.38957 0.96055 0.0
C3021 C 0.01788 0.33492 0.92195 0.0
C3022 C 0.04977 0.46093 1.01167 0.0
C3023 C 0.04818 0.4422 1.00259 0.0
C3024 C 0.0187 0.39464 0.99175 0.0
C3025 C 0.02295 0.35465 0.95342 0.0
C3026 C 0.0256 0.37378 0.96524 0.0
C3027 C 0.03167 0.42991 0.99785 0.0
C3028 C 0.02985 0.41046 0.98695 0.0
H3029 H 0.01902 0.30748 0.95842 0.0
H3030 H 0.02413 0.33887 0.97788 0.0
H3031 H 1.00778 0.36466 0.98495 0.0
H3032 H 1.00666 0.4602 0.01524 0.0
H3033 H 1.00392 0.42755 0.99936 0.0
C3034 C 0.99833 0.78452 0.15271 0.0
C3035 C 0.01597 0.79061 0.16152 0.0
C3036 C 0.98465 0.78488 0.16353 0.0
C3037 C 0.97517 0.78576 0.2137 0.0
H3038 H 0.93121 0.79791 0.19133 0.0
C3039 C 0.91863 0.7916 0.25771 0.0
C3040 C 0.90156 0.78276 0.2486 0.0
C3041 C 0.93264 0.79371 0.24721 0.0
C3042 C 0.94335 0.79433 0.19772 0.0
H3043 H 0.03291 0.80222 0.18875 0.0
H3044 H 1.00899 0.80315 0.20758 0.0
H3045 H 0.95569 0.80001 0.17309 0.0
H3046 H 0.88591 0.76938 0.22112 0.0
H3047 H 0.91034 0.77323 0.20277 0.0
H3048 H 0.9628 0.78012 0.23834 0.0
C3049 C 1.00578 0.79778 0.19229 0.0
C3050 C 0.95741 0.79552 0.18727 0.0
C3051 C 0.01952 0.79736 0.18146 0.0
C3052 C 0.89882 0.77646 0.22859 0.0
C3053 C 0.91284 0.77864 0.21806 0.0
C3054 C 0.96114 0.78467 0.22419 0.0
C3055 C 0.98816 0.79142 0.18349 0.0
C3056 C 0.97347 0.7911 0.19504 0.0
C3057 C 0.92995 0.78713 0.22729 0.0
C3058 C 0.94501 0.78881 0.21628 0.0
H3059 H 0.995 0.77912 0.13743 0.0
H3060 H 0.97131 0.77957 0.15627 0.0
H3061 H 0.98721 0.78194 0.22005 0.0
H3062 H 0.9212 0.79702 0.273 0.0
H3063 H 0.94558 0.80062 0.2547 0.0
C3064 C 0.5162 0.2984 0.16846 0.0
C3065 C 0.53294 0.29587 0.17618 0.0
C3066 C 0.5139 0.31576 0.16242 0.0
C3067 C 0.5374 0.36559 0.15983 0.0
H3068 H 0.50744 0.35694 0.11001 0.0
C3069 C 0.53518 0.4248 0.11045 0.0
C3070 C 0.53527 0.41878 0.09077 0.0
C3071 C 0.53241 0.41138 0.12322 0.0
C3072 C 0.5159 0.35962 0.12389 0.0
H3073 H 0.56023 0.3097 0.18473 0.0
H3074 H 0.55649 0.33968 0.1733 0.0
H3075 H 0.50737 0.33116 0.12931 0.0
H3076 H 0.53206 0.39395 0.069 0.0
H3077 H 0.52797 0.37073 0.09124 0.0
H3078 H 0.54689 0.39372 0.15351 0.0
C3079 C 0.54496 0.32858 0.1724 0.0
C3080 C 0.51564 0.34489 0.13519 0.0
C3081 C 0.54717 0.31134 0.17887 0.0
C3082 C 0.53235 0.3991 0.08411 0.0
C3083 C 0.52969 0.38575 0.09684 0.0
C3084 C 0.53783 0.3803 0.14836 0.0
C3085 C 0.5284 0.33077 0.16344 0.0
C3086 C 0.52673 0.34748 0.15309 0.0
C3087 C 0.52968 0.3917 0.11655 0.0
C3088 C 0.52747 0.37725 0.12999 0.0
H3089 H 0.50496 0.28673 0.16653 0.0
H3090 H 0.50086 0.31711 0.15617 0.0
H3091 H 0.54586 0.36824 0.1737 0.0
H3092 H 0.53753 0.43988 0.11606 0.0
H3093 H 0.53238 0.41643 0.13829 0.0
C3094 C 0.97772 0.2698 0.36079 0.0
C3095 C 0.98494 0.28329 0.37708 0.0
C3096 C 0.95957 0.26359 0.35626 0.0
C3097 C 0.91724 0.26653 0.37513 0.0
H3098 H 0.89911 0.25923 0.32036 0.0
C3099 C 0.848 0.25025 0.31787 0.0
C3100 C 0.83989 0.26476 0.32553 0.0
C3101 C 0.86466 0.24856 0.32632 0.0
C3102 C 0.90391 0.26089 0.33571 0.0
H3103 H 0.97946 0.29997 0.40225 0.0
H3104 H 0.94766 0.29045 0.39368 0.0
H3105 H 0.93026 0.2631 0.33073 0.0
H3106 H 0.84249 0.28814 0.3488 0.0
H3107 H 0.8718 0.28533 0.36342 0.0
H3108 H 0.89054 0.26484 0.37982 0.0
C3109 C 0.95578 0.28409 0.38456 0.0
C3110 C 0.92189 0.26318 0.34174 0.0
C3111 C 0.97398 0.28982 0.38937 0.0
C3112 C 0.8484 0.27686 0.3425 0.0
C3113 C 0.86513 0.27516 0.35096 0.0
C3114 C 0.89918 0.26434 0.36906 0.0
C3115 C 0.94829 0.27109 0.36776 0.0
C3116 C 0.9289 0.26648 0.36153 0.0
C3117 C 0.87362 0.26138 0.34257 0.0
C3118 C 0.8924 0.26179 0.34929 0.0
H3119 H 0.98612 0.2641 0.35153 0.0
H3120 H 0.95445 0.25309 0.34359 0.0
H3121 H 0.92202 0.26845 0.39049 0.0
H3122 H 0.84191 0.24074 0.30479 0.0
H3123 H 0.87081 0.23765 0.31969 0.0
C3124 C 0.02766 0.711 0.64285 0.0
C3125 C 0.03619 0.71107 0.66171 0.0
C3126 C 0.02616 0.6952 0.62875 0.0
C3127 C 0.0305 0.64442 0.62132 0.0
H3128 H 0.04655 0.65694 0.57368 0.0
C3129 C 0.0516 0.58818 0.57074 0.0
C3130 C 0.04444 0.5862 0.55111 0.0
C3131 C 0.05064 0.60425 0.58333 0.0
C3132 C 0.04188 0.65323 0.58681 0.0
H3133 H 0.04864 0.69419 0.68098 0.0
H3134 H 0.04596 0.66667 0.65647 0.0
H3135 H 0.0422 0.68244 0.59756 0.0
H3136 H 0.03189 0.60007 0.52891 0.0
H3137 H 0.0302 0.62833 0.55102 0.0
H3138 H 0.03041 0.61528 0.61075 0.0
C3139 C 0.04045 0.67876 0.65251 0.0
C3140 C 0.03929 0.66779 0.60044 0.0
C3141 C 0.04203 0.69457 0.66656 0.0
C3142 C 0.03754 0.60127 0.54399 0.0
C3143 C 0.03653 0.61741 0.55665 0.0
C3144 C 0.0331 0.6299 0.60773 0.0
C3145 C 0.03303 0.67916 0.63331 0.0
C3146 C 0.03384 0.66355 0.61797 0.0
C3147 C 0.04245 0.61866 0.57656 0.0
C3148 C 0.03912 0.63418 0.5905 0.0
H3149 H 0.02301 0.72352 0.6387 0.0
H3150 H 0.02013 0.69577 0.61413 0.0
H3151 H 0.02603 0.64068 0.63455 0.0
H3152 H 0.0571 0.57681 0.57658 0.0
H3153 H 0.05573 0.60508 0.59852 0.0
C3154 C 0.58284 0.81709 0.8607 0.0
C3155 C 0.56685 0.81904 0.85022 0.0
C3156 C 0.59785 0.81801 0.85195 0.0
C3157 C 0.61005 0.80774 0.80433 0.0
H3158 H 0.6571 0.826 0.8327 0.0
C3159 C 0.67199 0.78992 0.77529 0.0
C3160 C 0.68263 0.78211 0.78867 0.0
C3161 C 0.65871 0.79888 0.7812 0.0
C3162 C 0.64404 0.82094 0.82456 0.0
H3163 H 0.55438 0.8246 0.82258 0.0
H3164 H 0.58072 0.82626 0.80733 0.0
H3165 H 0.63208 0.83491 0.84621 0.0
H3166 H 0.68828 0.77819 0.81874 0.0
H3167 H 0.66514 0.79366 0.82901 0.0
H3168 H 0.62199 0.79319 0.78302 0.0
C3169 C 0.58152 0.82382 0.82228 0.0
C3170 C 0.62973 0.82601 0.83228 0.0
C3171 C 0.56646 0.82296 0.83107 0.0
C3172 C 0.68008 0.78383 0.80808 0.0
C3173 C 0.667 0.79292 0.814 0.0
C3174 C 0.62438 0.80273 0.79656 0.0
C3175 C 0.59726 0.8209 0.8325 0.0
C3176 C 0.61253 0.81885 0.82261 0.0
C3177 C 0.65611 0.80043 0.80062 0.0
C3178 C 0.64143 0.80869 0.80696 0.0
H3179 H 0.58366 0.81416 0.8755 0.0
H3180 H 0.6097 0.81545 0.86018 0.0
H3181 H 0.59696 0.80186 0.79658 0.0
H3182 H 0.67373 0.7888 0.76024 0.0
H3183 H 0.65048 0.80457 0.77062 0.0
C3184 C 0.44749 0.50658 0.70038 0.0
C3185 C 0.45647 0.51561 0.71861 0.0
C3186 C 0.45406 0.51082 0.68353 0.0
C3187 C 0.48137 0.54757 0.66306 0.0
H3188 H 0.48978 0.50569 0.62799 0.0
C3189 C 0.5236 0.56018 0.60266 0.0
C3190 C 0.52057 0.54652 0.58605 0.0
C3191 C 0.51402 0.55722 0.61783 0.0
C3192 C 0.48717 0.51759 0.6373 0.0
H3193 H 0.47912 0.5365 0.73349 0.0
H3194 H 0.49037 0.54426 0.70395 0.0
H3195 H 0.47627 0.499 0.65626 0.0
H3196 H 0.50454 0.51955 0.57185 0.0
H3197 H 0.48708 0.51492 0.59762 0.0
H3198 H 0.49183 0.5662 0.64401 0.0
C3199 C 0.47835 0.53378 0.70277 0.0
C3200 C 0.47953 0.5137 0.65361 0.0
C3201 C 0.47197 0.52924 0.71964 0.0
C3202 C 0.50714 0.53036 0.58445 0.0
C3203 C 0.49731 0.52758 0.59942 0.0
C3204 C 0.4887 0.55146 0.64654 0.0
C3205 C 0.46953 0.52449 0.68457 0.0
C3206 C 0.47676 0.52865 0.66677 0.0
C3207 C 0.50096 0.54067 0.6166 0.0
C3208 C 0.49194 0.53654 0.63352 0.0
H3209 H 0.43552 0.496 0.69915 0.0
H3210 H 0.44701 0.50351 0.66966 0.0
H3211 H 0.47919 0.55934 0.67291 0.0
H3212 H 0.53394 0.57274 0.60436 0.0
H3213 H 0.51745 0.56755 0.63083 0.0
C3214 C 0.79707 0.1741 0.01374 0.0
C3215 C 0.80578 0.18392 0.0318 0.0
C3216 C 0.78907 0.18382 1.00014 0.0
C3217 C 0.79224 0.23179 0.9865 0.0
H3218 H 0.74919 0.20889 0.95157 0.0
C3219 C 0.76887 0.26952 0.92412 0.0
C3220 C 0.76537 0.25795 0.90603 0.0
C3221 C 0.76961 0.26128 0.94112 0.0
C3222 C 0.7612 0.21546 0.96126 0.0
H3223 H 0.81232 0.21156 0.04996 0.0
H3224 H 0.79828 0.22843 0.02625 0.0
H3225 H 0.75886 0.1928 0.97867 0.0
H3226 H 0.75839 0.22868 0.89157 0.0
H3227 H 0.76026 0.21428 0.92128 0.0
H3228 H 0.795 0.25407 0.96886 0.0
C3229 C 0.79789 0.21327 0.02253 0.0
C3230 C 0.76675 0.20626 0.97672 0.0
C3231 C 0.80593 0.20358 0.03611 0.0
C3232 C 0.76145 0.23796 0.9053 0.0
C3233 C 0.76228 0.22972 0.92233 0.0
C3234 C 0.78671 0.24097 0.97111 0.0
C3235 C 0.78956 0.20355 1.00432 0.0
C3236 C 0.78252 0.21416 0.98925 0.0
C3237 C 0.767 0.24132 0.94038 0.0
C3238 C 0.77132 0.23273 0.9581 0.0
H3239 H 0.79663 0.15894 1.00996 0.0
H3240 H 0.78297 0.17599 0.98613 0.0
H3241 H 0.8046 0.2381 0.9957 0.0
H3242 H 0.77205 0.28496 0.92522 0.0
H3243 H 0.773 0.27057 0.95485 0.0
C3244 C 0.12215 0.50168 0.23496 0.0
C3245 C 0.14055 0.50779 0.2396 0.0
C3246 C 0.11293 0.50232 0.21637 0.0
C3247 C 0.11721 0.52372 0.16933 0.0
H3248 H 0.07376 0.4875 0.15059 0.0
C3249 C 0.07602 0.52091 0.09071 0.0
C3250 C 0.05752 0.5161 0.08883 0.0
C3251 C 0.08699 0.51972 0.10827 0.0
C3252 C 0.08574 0.49801 0.15549 0.0
H3253 H 0.16342 0.51946 0.22742 0.0
H3254 H 0.14761 0.52028 0.19519 0.0
H3255 H 0.0905 0.48579 0.18166 0.0
H3256 H 0.03651 0.50621 0.10461 0.0
H3257 H 0.05507 0.50424 0.13433 0.0
H3258 H 0.11233 0.53581 0.14289 0.0
C3259 C 0.1401 0.51514 0.20602 0.0
C3260 C 0.0955 0.49702 0.17366 0.0
C3261 C 0.14933 0.51448 0.22466 0.0
C3262 C 0.0506 0.50997 0.10511 0.0
C3263 C 0.06142 0.50869 0.12241 0.0
C3264 C 0.10741 0.52468 0.15106 0.0
C3265 C 0.12161 0.50912 0.20136 0.0
C3266 C 0.11142 0.50996 0.18124 0.0
C3267 C 0.07991 0.5135 0.12457 0.0
C3268 C 0.09128 0.51198 0.14375 0.0
H3269 H 0.11469 0.49662 0.24588 0.0
H3270 H 0.0988 0.49782 0.21401 0.0
H3271 H 0.12919 0.53419 0.17428 0.0
H3272 H 0.08204 0.52571 0.07872 0.0
H3273 H 0.10108 0.52349 0.10895 0.0
C3274 C 0.80798 0.89419 0.48078 0.0
C3275 C 0.80909 0.88566 0.49782 0.0
C3276 C 0.80588 0.88314 0.46265 0.0
C3277 C 0.79174 0.85488 0.4259 0.0
H3278 H 0.82043 0.81658 0.41862 0.0
C3279 C 0.78241 0.80303 0.35457 0.0
C3280 C 0.79772 0.80025 0.34715 0.0
C3281 C 0.78343 0.8127 0.37321 0.0
C3282 C 0.81237 0.82726 0.42041 0.0
H3283 H 0.80877 0.85862 0.50896 0.0
H3284 H 0.80515 0.83936 0.47727 0.0
H3285 H 0.82264 0.83492 0.45059 0.0
H3286 H 0.82615 0.80527 0.35375 0.0
H3287 H 0.8279 0.82209 0.38629 0.0
H3288 H 0.78161 0.84741 0.39571 0.0
C3289 C 0.80597 0.85467 0.47803 0.0
C3290 C 0.8135 0.83763 0.43877 0.0
C3291 C 0.80792 0.86571 0.49619 0.0
C3292 C 0.81408 0.80714 0.35897 0.0
C3293 C 0.81509 0.8167 0.37768 0.0
C3294 C 0.79049 0.8444 0.4076 0.0
C3295 C 0.80498 0.86326 0.46104 0.0
C3296 C 0.80329 0.85167 0.4417 0.0
C3297 C 0.79978 0.81974 0.38497 0.0
C3298 C 0.80086 0.83054 0.40459 0.0
H3299 H 0.80886 0.9095 0.4814 0.0
H3300 H 0.80536 0.89025 0.44989 0.0
H3301 H 0.78358 0.86547 0.42769 0.0
H3302 H 0.76957 0.79792 0.34593 0.0
H3303 H 0.77138 0.81459 0.37845 0.0
C3304 C 0.46952 0.50413 0.83115 0.0
C3305 C 0.45443 0.51197 0.82753 0.0
C3306 C 0.4793 0.50718 0.84976 0.0
C3307 C 0.47524 0.52309 0.90123 0.0
H3308 H 0.52501 0.52235 0.91004 0.0
C3309 C 0.51843 0.542 0.97677 0.0
C3310 C 0.52607 0.52678 0.9824 0.0
C3311 C 0.51084 0.54151 0.95754 0.0
C3312 C 0.51111 0.52262 0.90771 0.0
H3313 H 0.43824 0.52999 0.8401 0.0
H3314 H 0.45578 0.53639 0.87208 0.0
H3315 H 0.50975 0.51972 0.87699 0.0
H3316 H 0.53249 0.49956 0.97221 0.0
H3317 H 0.51969 0.49907 0.93847 0.0
H3318 H 0.47689 0.52662 0.93207 0.0
C3319 C 0.45972 0.52706 0.86101 0.0
C3320 C 0.50228 0.52094 0.88878 0.0
C3321 C 0.44972 0.52357 0.84259 0.0
C3322 C 0.52659 0.51144 0.96831 0.0
C3323 C 0.51937 0.51118 0.94902 0.0
C3324 C 0.48416 0.52522 0.9201 0.0
C3325 C 0.47443 0.51854 0.86505 0.0
C3326 C 0.48415 0.521 0.88523 0.0
C3327 C 0.51118 0.52604 0.94354 0.0
C3328 C 0.50212 0.52484 0.92351 0.0
H3329 H 0.47334 0.495 0.81978 0.0
H3330 H 0.49034 0.50012 0.85221 0.0
H3331 H 0.46123 0.52267 0.89928 0.0
H3332 H 0.51783 0.554 0.98731 0.0
H3333 H 0.5046 0.55314 0.95361 0.0
C3334 C 0.86138 0.19772 0.15011 0.0
C3335 C 0.862 0.20565 0.13286 0.0
C3336 C 0.86562 0.20952 0.16789 0.0
C3337 C 0.86281 0.25858 0.1855 0.0
H3338 H 0.87251 0.24107 0.23514 0.0
C3339 C 0.84199 0.2945 0.25329 0.0
C3340 C 0.83123 0.28121 0.26186 0.0
C3341 C 0.85235 0.28824 0.24013 0.0
C3342 C 0.86996 0.24626 0.22139 0.0
H3343 H 0.86976 0.23166 0.12062 0.0
H3344 H 0.87787 0.25222 0.1517 0.0
H3345 H 0.88091 0.22462 0.20658 0.0
H3346 H 0.82436 0.25144 0.26535 0.0
H3347 H 0.84188 0.24026 0.24205 0.0
H3348 H 0.85125 0.2797 0.20013 0.0
C3349 C 0.8734 0.23702 0.15154 0.0
C3350 C 0.87472 0.23683 0.20503 0.0
C3351 C 0.86884 0.22524 0.13373 0.0
C3352 C 0.83181 0.26178 0.25814 0.0
C3353 C 0.84224 0.25549 0.24519 0.0
C3354 C 0.85825 0.26811 0.20186 0.0
C3355 C 0.87082 0.22946 0.16874 0.0
C3356 C 0.87038 0.24228 0.18672 0.0
C3357 C 0.85233 0.26861 0.23572 0.0
C3358 C 0.86103 0.26148 0.21977 0.0
H3359 H 0.85622 0.18262 0.14986 0.0
H3360 H 0.86336 0.20312 0.18075 0.0
H3361 H 0.85902 0.26313 0.17169 0.0
H3362 H 0.84198 0.30965 0.25633 0.0
H3363 H 0.8601 0.29866 0.23313 0.0
C3364 C 0.13134 0.51509 0.35213 0.0
C3365 C 0.14988 0.51726 0.35512 0.0
C3366 C 0.12164 0.51665 0.36789 0.0
C3367 C 0.12599 0.5183 0.42349 0.0
H3368 H 0.08185 0.53565 0.41711 0.0
C3369 C 0.08961 0.53411 0.49107 0.0
C3370 C 0.07114 0.53252 0.48849 0.0
C3371 C 0.09896 0.53229 0.47508 0.0
C3372 C 0.09404 0.53053 0.41941 0.0
H3373 H 0.17221 0.52298 0.37816 0.0
H3374 H 0.15577 0.52571 0.40487 0.0
H3375 H 0.09761 0.5321 0.38975 0.0
H3376 H 0.04847 0.52753 0.46601 0.0
H3377 H 0.06435 0.52423 0.43872 0.0
H3378 H 0.12245 0.51667 0.4531 0.0
C3379 C 0.14843 0.52247 0.39039 0.0
C3380 C 0.10326 0.52846 0.40337 0.0
C3381 C 0.15806 0.52096 0.37473 0.0
C3382 C 0.0626 0.52905 0.46904 0.0
C3383 C 0.07191 0.52723 0.45309 0.0
C3384 C 0.11678 0.52035 0.43951 0.0
C3385 C 0.1299 0.52041 0.38755 0.0
C3386 C 0.11958 0.52233 0.40489 0.0
C3387 C 0.0904 0.52875 0.45555 0.0
C3388 C 0.1005 0.52657 0.43804 0.0
H3389 H 0.12425 0.51234 0.33751 0.0
H3390 H 0.1075 0.5147 0.36452 0.0
H3391 H 0.13818 0.51317 0.4258 0.0
H3392 H 0.09696 0.53675 0.50556 0.0
H3393 H 0.11308 0.5339 0.4782 0.0
C3394 C 0.80087 0.85553 0.6041 0.0
C3395 C 0.80737 0.87535 0.60614 0.0
C3396 C 0.79971 0.84611 0.62036 0.0
C3397 C 0.79797 0.8539 0.67285 0.0
H3398 H 0.81234 0.80484 0.67218 0.0
C3399 C 0.80043 0.81467 0.74039 0.0
C3400 C 0.79447 0.79473 0.73727 0.0
C3401 C 0.80311 0.82479 0.72481 0.0
C3402 C 0.80808 0.81842 0.67258 0.0
H3403 H 0.81748 0.90085 0.62699 0.0
H3404 H 0.81536 0.88442 0.65541 0.0
H3405 H 0.81424 0.8219 0.64431 0.0
H3406 H 0.78702 0.76974 0.71543 0.0
H3407 H 0.79141 0.78731 0.68826 0.0
H3408 H 0.79155 0.85031 0.70098 0.0
C3409 C 0.81111 0.87617 0.64119 0.0
C3410 C 0.80919 0.82822 0.65655 0.0
C3411 C 0.81238 0.88558 0.62489 0.0
C3412 C 0.79168 0.78508 0.71831 0.0
C3413 C 0.79429 0.7952 0.70272 0.0
C3414 C 0.79678 0.84404 0.68885 0.0
C3415 C 0.80493 0.85626 0.63913 0.0
C3416 C 0.80406 0.84605 0.65642 0.0
C3417 C 0.79984 0.81524 0.7057 0.0
C3418 C 0.80173 0.8261 0.68892 0.0
H3419 H 0.79687 0.84719 0.58989 0.0
H3420 H 0.79464 0.83084 0.61822 0.0
H3421 H 0.79373 0.86748 0.67317 0.0
H3422 H 0.80274 0.82251 0.75486 0.0
H3423 H 0.80769 0.84014 0.72776 0.0
C3424 C 0.69754 0.39608 0.51968 0.0
C3425 C 0.69855 0.40584 0.50345 0.0
C3426 C 0.68768 0.40143 0.53382 0.0
C3427 C 0.67905 0.44434 0.55601 0.0
H3428 H 0.63553 0.41931 0.57035 0.0
C3429 C 0.64119 0.49069 0.59481 0.0
C3430 C 0.62459 0.48887 0.58368 0.0
C3431 C 0.65025 0.47559 0.59344 0.0
C3432 C 0.64786 0.42637 0.56676 0.0
H3433 H 0.68848 0.42739 0.4884 0.0
H3434 H 0.67148 0.43666 0.5131 0.0
H3435 H 0.65069 0.40136 0.54842 0.0
H3436 H 0.6033 0.46905 0.56493 0.0
H3437 H 0.61917 0.44311 0.56198 0.0
H3438 H 0.6759 0.46966 0.57281 0.0
C3439 C 0.67847 0.42507 0.5149 0.0
C3440 C 0.65648 0.41608 0.55429 0.0
C3441 C 0.68819 0.41972 0.50077 0.0
C3442 C 0.61629 0.47097 0.57328 0.0
C3443 C 0.62535 0.45596 0.57181 0.0
C3444 C 0.67054 0.45456 0.56843 0.0
C3445 C 0.67876 0.41654 0.53185 0.0
C3446 C 0.67165 0.42536 0.54815 0.0
C3447 C 0.6429 0.45858 0.58077 0.0
C3448 C 0.65434 0.44602 0.57315 0.0
H3449 H 0.7053 0.38526 0.52217 0.0
H3450 H 0.68799 0.39468 0.54682 0.0
H3451 H 0.69087 0.45165 0.55152 0.0
H3452 H 0.6478 0.50427 0.60317 0.0
H3453 H 0.6636 0.47786 0.60095 0.0
C3454 C 0.20499 0.14375 0.50893 0.0
C3455 C 0.22048 0.13762 0.51551 0.0
C3456 C 0.18858 0.13312 0.51081 0.0
C3457 C 0.16736 0.08478 0.51989 0.0
H3458 H 0.12996 0.11027 0.53303 0.0
C3459 C 0.10558 0.04376 0.54388 0.0
C3460 C 0.08928 0.0477 0.53645 0.0
C3461 C 0.12123 0.05532 0.54126 0.0
C3462 C 0.1402 0.10291 0.52915 0.0
H3463 H 0.23118 0.11662 0.5306 0.0
H3464 H 0.20279 0.09824 0.53416 0.0
H3465 H 0.15777 0.12923 0.52817 0.0
H3466 H 0.07655 0.06706 0.5208 0.0
H3467 H 0.10387 0.08732 0.51619 0.0
H3468 H 0.14991 0.0585 0.52099 0.0
C3469 C 0.20307 0.11072 0.52679 0.0
C3470 C 0.15616 0.11379 0.52632 0.0
C3471 C 0.21937 0.12124 0.52478 0.0
C3472 C 0.08893 0.06373 0.52674 0.0
C3473 C 0.1046 0.07536 0.52415 0.0
C3474 C 0.15146 0.07394 0.52274 0.0
C3475 C 0.1874 0.11638 0.51969 0.0
C3476 C 0.17004 0.10488 0.52182 0.0
C3477 C 0.12097 0.07114 0.53115 0.0
C3478 C 0.13771 0.08284 0.52761 0.0
H3479 H 0.20558 0.15656 0.50205 0.0
H3480 H 0.17683 0.1379 0.50509 0.0
H3481 H 0.17756 0.07733 0.5161 0.0
H3482 H 0.10626 0.03157 0.55152 0.0
H3483 H 0.13357 0.05184 0.54716 0.0
C3484 C 0.16942 0.9867 0.79891 0.0
C3485 C 0.16954 0.99701 0.81708 0.0
C3486 C 0.17492 0.9691 0.79759 0.0
C3487 C 0.203 0.94359 0.82759 0.0
H3488 H 0.18816 0.90266 0.78449 0.0
C3489 C 0.23419 0.87705 0.82381 0.0
C3490 C 0.24079 0.87284 0.80654 0.0
C3491 C 0.22255 0.88964 0.82497 0.0
C3492 C 0.19238 0.914 0.79662 0.0
H3493 H 0.17392 0.99656 0.84797 0.0
H3494 H 0.18248 0.96549 0.84574 0.0
H3495 H 0.17243 0.92922 0.78695 0.0
H3496 H 0.23971 0.87814 0.77671 0.0
H3497 H 0.21919 0.89988 0.77871 0.0
H3498 H 0.22293 0.92846 0.83723 0.0
C3499 C 0.17901 0.9712 0.83249 0.0
C3500 C 0.18344 0.92925 0.79801 0.0
C3501 C 0.17394 0.98891 0.8338 0.0
C3502 C 0.23477 0.88084 0.79019 0.0
C3503 C 0.223 0.89333 0.79131 0.0
C3504 C 0.21174 0.9283 0.82634 0.0
C3505 C 0.18032 0.96143 0.81443 0.0
C3506 C 0.18877 0.94436 0.81343 0.0
C3507 C 0.21711 0.8982 0.80883 0.0
C3508 C 0.20668 0.91345 0.81075 0.0
H3509 H 0.16618 0.99279 0.78583 0.0
H3510 H 0.17585 0.9621 0.78343 0.0
H3511 H 0.20786 0.95515 0.8394 0.0
H3512 H 0.23824 0.87087 0.83657 0.0
H3513 H 0.21803 0.89297 0.8386 0.0
C3514 C 0.29161 0.93187 0.97966 0.0
C3515 C 0.28702 0.91479 0.96671 0.0
C3516 C 0.30723 0.94464 0.97954 0.0
C3517 C 0.35131 0.94373 0.97177 0.0
H3518 H 0.35717 0.99897 0.97559 0.0
C3519 C 0.41614 0.99421 1.00508 0.0
C3520 C 0.42307 1.00737 0.99339 0.0
C3521 C 0.39893 0.98397 1.00015 0.0
C3522 C 0.35567 0.98356 0.97442 0.0
H3523 H 0.29519 0.89716 0.94397 0.0
H3524 H 0.32291 0.91941 0.94399 0.0
H3525 H 0.32753 0.97904 0.96824 0.0
H3526 H 0.417 0.02048 0.96763 0.0
H3527 H 0.38666 1.00301 0.95951 0.0
H3528 H 0.3793 0.94821 0.97867 0.0
C3529 C 0.31413 0.92316 0.95379 0.0
C3530 C 0.3388 0.97221 0.97025 0.0
C3531 C 0.29835 0.9105 0.95376 0.0
C3532 C 0.41207 1.01066 0.97712 0.0
C3533 C 0.39473 1.0006 0.97237 0.0
C3534 C 0.3681 0.95506 0.97625 0.0
C3535 C 0.3188 0.9402 0.96689 0.0
C3536 C 0.3365 0.95221 0.96908 0.0
C3537 C 0.38818 0.98689 0.98363 0.0
C3538 C 0.3704 0.97506 0.97785 0.0
H3539 H 0.28342 0.93503 0.99036 0.0
H3540 H 0.3107 0.95748 0.99005 0.0
H3541 H 0.34987 0.92836 0.97118 0.0
H3542 H 0.42406 0.99164 0.01796 0.0
H3543 H 0.39402 0.97365 1.00921 0.0
C3544 C 0.88423 0.60828 0.79904 0.0
C3545 C 0.88964 0.59915 0.78256 0.0
C3546 C 0.87664 0.62489 0.79863 0.0
C3547 C 0.8521 0.65304 0.76527 0.0
H3548 H 0.86158 0.69224 0.80995 0.0
C3549 C 0.8096 0.71438 0.77361 0.0
C3550 C 0.8178 0.73311 0.78261 0.0
C3551 C 0.81869 0.69877 0.77297 0.0
C3552 C 0.85866 0.68159 0.7972 0.0
H3553 H 0.8904 0.60119 0.75228 0.0
H3554 H 0.87695 0.6298 0.75142 0.0
H3555 H 0.87653 0.66501 0.80986 0.0
H3556 H 0.84271 0.74916 0.79823 0.0
H3557 H 0.85822 0.72225 0.79758 0.0
H3558 H 0.83395 0.66946 0.75278 0.0
C3559 C 0.87891 0.62416 0.76497 0.0
C3560 C 0.86729 0.66562 0.7972 0.0
C3561 C 0.88695 0.60769 0.76551 0.0
C3562 C 0.83563 0.73526 0.79106 0.0
C3563 C 0.84463 0.71955 0.79077 0.0
C3564 C 0.84318 0.66881 0.76544 0.0
C3565 C 0.87345 0.63323 0.78155 0.0
C3566 C 0.86432 0.65084 0.78123 0.0
C3567 C 0.83646 0.7008 0.78167 0.0
C3568 C 0.84621 0.68362 0.7814 0.0
H3569 H 0.88564 0.60233 0.81248 0.0
H3570 H 0.87268 0.63084 0.81179 0.0
H3571 H 0.84907 0.64226 0.75262 0.0
H3572 H 0.79598 0.71169 0.76689 0.0
H3573 H 0.81154 0.68486 0.76591 0.0
C3574 C 0.82404 0.63948 0.02262 0.0
C3575 C 0.81048 0.63162 1.0071 0.0
C3576 C 0.83973 0.63243 0.02468 0.0
C3577 C 0.85671 0.58879 1.00984 0.0
H3578 H 0.90271 0.62094 0.02687 0.0
C3579 C 0.91953 0.55795 1.00776 0.0
C3580 C 0.9331 0.56372 0.02364 0.0
C3581 C 0.90531 0.56732 1.00569 0.0
C3582 C 0.88994 0.61174 0.02227 0.0
H3583 H 0.80328 0.61077 0.98109 0.0
H3584 H 0.83044 0.59886 0.98454 0.0
H3585 H 0.87666 0.6355 0.02356 0.0
H3586 H 0.94239 0.58419 0.04966 0.0
H3587 H 0.91756 0.60052 0.04605 0.0
H3588 H 0.86981 0.56505 1.0086 0.0
C3589 C 0.82887 0.61011 0.99541 0.0
C3590 C 0.875 0.6201 0.02039 0.0
C3591 C 0.81328 0.61707 0.99338 0.0
C3592 C 0.93229 0.57948 0.03713 0.0
C3593 C 0.91803 0.58885 0.03507 0.0
C3594 C 0.87157 0.58047 1.01171 0.0
C3595 C 0.84218 0.61738 1.01128 0.0
C3596 C 0.85819 0.60872 0.01396 0.0
C3597 C 0.90421 0.58271 0.01946 0.0
C3598 C 0.88842 0.59181 0.01779 0.0
H3599 H 0.82236 0.65066 0.03349 0.0
H3600 H 0.84967 0.63834 0.03713 0.0
H3601 H 0.84397 0.5795 1.00532 0.0
H3602 H 0.91988 0.54613 0.99689 0.0
H3603 H 0.89514 0.56245 0.99325 0.0
C3604 C 0.1723 0.11446 0.82588 0.0
C3605 C 0.17621 0.09733 0.81753 0.0
C3606 C 0.18355 0.13195 0.82566 0.0
C3607 C 0.20474 0.16742 0.81272 0.0
H3608 H 0.2549 0.16865 0.82158 0.0
C3609 C 0.25777 0.22607 0.79249 0.0
C3610 C 0.27286 0.23309 0.80631 0.0
C3611 C 0.24499 0.21094 0.7956 0.0
C3612 C 0.24094 0.1686 0.81927 0.0
H3613 H 0.19381 0.08499 0.80092 0.0
H3614 H 0.21343 0.11531 0.80053 0.0
H3615 H 0.23454 0.13928 0.82318 0.0
H3616 H 0.28645 0.22992 0.83424 0.0
H3617 H 0.26433 0.20304 0.83946 0.0
H3618 H 0.21135 0.19674 0.80802 0.0
C3619 C 0.20214 0.11535 0.80788 0.0
C3620 C 0.22925 0.15173 0.82011 0.0
C3621 C 0.19094 0.09798 0.80812 0.0
C3622 C 0.27493 0.22477 0.82335 0.0
C3623 C 0.26229 0.20944 0.82634 0.0
C3624 C 0.21648 0.18427 0.81153 0.0
C3625 C 0.19871 0.13254 0.81682 0.0
C3626 C 0.21101 0.15088 0.81678 0.0
C3627 C 0.24727 0.20229 0.81243 0.0
C3628 C 0.2347 0.18497 0.81474 0.0
H3629 H 0.16078 0.11427 0.83287 0.0
H3630 H 0.18056 0.14496 0.83266 0.0
H3631 H 0.19077 0.16718 0.80988 0.0
H3632 H 0.25606 0.23188 0.77901 0.0
H3633 H 0.23368 0.2055 0.78451 0.0
C3634 C 0.37295 0.98792 0.2664 0.0
C3635 C 0.39042 0.99468 0.27567 0.0
C3636 C 0.36402 0.969 0.26692 0.0
C3637 C 0.37066 0.9194 0.27389 0.0
H3638 H 0.32335 0.91119 0.28611 0.0
C3639 C 0.32606 0.84219 0.26844 0.0
C3640 C 0.3168 0.83851 0.28395 0.0
C3641 C 0.3351 0.86087 0.26704 0.0
C3642 C 0.33656 0.9131 0.28266 0.0
H3643 H 0.41256 0.98568 0.2912 0.0
H3644 H 0.39726 0.95281 0.29187 0.0
H3645 H 0.33871 0.94362 0.28401 0.0
H3646 H 0.30979 0.85243 0.30992 0.0
H3647 H 0.32486 0.88474 0.30711 0.0
H3648 H 0.36835 0.88879 0.27211 0.0
C3649 C 0.39018 0.96232 0.28463 0.0
C3650 C 0.3454 0.93185 0.28134 0.0
C3651 C 0.399 0.98132 0.28432 0.0
C3652 C 0.31673 0.8544 0.29777 0.0
C3653 C 0.32538 0.87311 0.2961 0.0
C3654 C 0.36165 0.90058 0.27471 0.0
C3655 C 0.3724 0.95579 0.27619 0.0
C3656 C 0.36271 0.93547 0.27709 0.0
C3657 C 0.33488 0.87679 0.28079 0.0
C3658 C 0.34444 0.89701 0.27929 0.0
H3659 H 0.36608 0.99736 0.25876 0.0
H3660 H 0.35051 0.96465 0.25988 0.0
H3661 H 0.38388 0.92133 0.27047 0.0
H3662 H 0.32654 0.83053 0.25745 0.0
H3663 H 0.34209 0.8629 0.25493 0.0
C3664 C 0.57168 0.3563 0.62571 0.0
C3665 C 0.55831 0.3406 0.61732 0.0
C3666 C 0.57251 0.37407 0.61886 0.0
C3667 C 0.55594 0.3954 0.57582 0.0
H3668 H 0.56675 0.44309 0.61088 0.0
C3669 C 0.5379 0.46509 0.55338 0.0
C3670 C 0.5503 0.4822 0.55918 0.0
C3671 C 0.54069 0.44818 0.56031 0.0
C3672 C 0.56391 0.4299 0.60088 0.0
H3673 H 0.53505 0.33161 0.59543 0.0
H3674 H 0.53631 0.36222 0.58399 0.0
H3675 H 0.56847 0.41301 0.62361 0.0
H3676 H 0.57538 0.49491 0.57696 0.0
H3677 H 0.5801 0.4654 0.58924 0.0
H3678 H 0.55092 0.41218 0.55319 0.0
C3679 C 0.54648 0.36085 0.59546 0.0
C3680 C 0.56493 0.41266 0.60818 0.0
C3681 C 0.54569 0.34322 0.60218 0.0
C3682 C 0.56559 0.48197 0.57209 0.0
C3683 C 0.56826 0.46509 0.57924 0.0
C3684 C 0.55479 0.41257 0.56859 0.0
C3685 C 0.55997 0.37649 0.6035 0.0
C3686 C 0.56061 0.39512 0.59577 0.0
C3687 C 0.55585 0.44799 0.5734 0.0
C3688 C 0.55845 0.42999 0.58105 0.0
H3689 H 0.58163 0.35483 0.63736 0.0
H3690 H 0.58313 0.38579 0.62537 0.0
H3691 H 0.55298 0.38228 0.56574 0.0
H3692 H 0.52598 0.46475 0.5435 0.0
H3693 H 0.53077 0.4353 0.5557 0.0
C3694 C 0.45388 0.76947 0.40397 0.0
C3695 C 0.46414 0.75775 0.39548 0.0
C3696 C 0.43661 0.769 0.39533 0.0
C3697 C 0.40682 0.75167 0.34784 0.0
H3698 H 0.37228 0.76971 0.37603 0.0
C3699 C 0.33804 0.77934 0.32811 0.0
C3700 C 0.32939 0.76446 0.31343 0.0
C3701 C 0.35346 0.77756 0.33983 0.0
C3702 C 0.38186 0.76477 0.36797 0.0
H3703 H 0.46394 0.73466 0.37288 0.0
H3704 H 0.43357 0.73277 0.35845 0.0
H3705 H 0.40056 0.76701 0.39353 0.0
H3706 H 0.32962 0.73576 0.30011 0.0
H3707 H 0.35646 0.73275 0.32033 0.0
H3708 H 0.3879 0.74907 0.32237 0.0
C3709 C 0.439 0.74341 0.37093 0.0
C3710 C 0.39819 0.76328 0.37797 0.0
C3711 C 0.45643 0.74433 0.37925 0.0
C3712 C 0.33607 0.74755 0.31118 0.0
C3713 C 0.35149 0.74585 0.32271 0.0
C3714 C 0.39049 0.75295 0.33793 0.0
C3715 C 0.42895 0.7562 0.3784 0.0
C3716 C 0.41105 0.75686 0.36804 0.0
C3717 C 0.36056 0.76094 0.33693 0.0
C3718 C 0.37784 0.75957 0.34783 0.0
H3719 H 0.45953 0.77969 0.41676 0.0
H3720 H 0.42962 0.77926 0.40159 0.0
H3721 H 0.41617 0.74691 0.3394 0.0
H3722 H 0.33316 0.79253 0.33019 0.0
H3723 H 0.36019 0.78945 0.35065 0.0
C3724 C 0.04984 0.72463 0.13623 0.0
C3725 C 0.05937 0.7397 0.12864 0.0
C3726 C 0.0483 0.70573 0.12759 0.0
C3727 C 0.06956 0.6742 0.09847 0.0
H3728 H 0.02284 0.64361 0.08178 0.0
C3729 C 0.0589 0.59942 0.05339 0.0
C3730 C 0.04496 0.58537 0.05637 0.0
C3731 C 0.06062 0.61846 0.06173 0.0
C3732 C 0.03603 0.65175 0.08662 0.0
H3733 H 0.07605 0.74709 0.10738 0.0
H3734 H 0.07367 0.71399 0.09248 0.0
H3735 H 0.02642 0.67589 0.09868 0.0
H3736 H 0.02202 0.58015 0.07062 0.0
H3737 H 0.02545 0.61291 0.08587 0.0
H3738 H 0.07934 0.64991 0.08734 0.0
C3739 C 0.06702 0.71675 0.10473 0.0
C3740 C 0.03803 0.67033 0.09619 0.0
C3741 C 0.06825 0.73563 0.11312 0.0
C3742 C 0.0328 0.59071 0.06784 0.0
C3743 C 0.03472 0.6096 0.07651 0.0
C3744 C 0.06761 0.65544 0.0893 0.0
C3745 C 0.05681 0.70165 0.1117 0.0
C3746 C 0.05479 0.68176 0.10211 0.0
C3747 C 0.04866 0.62379 0.07361 0.0
C3748 C 0.0508 0.64393 0.08318 0.0
H3749 H 0.04321 0.72752 0.14847 0.0
H3750 H 0.04051 0.69428 0.13334 0.0
H3751 H 0.08266 0.68271 0.10304 0.0
H3752 H 0.06841 0.59575 0.0445 0.0
H3753 H 0.07131 0.62897 0.05877 0.0
C3754 C 0.05848 0.27225 0.87074 0.0
C3755 C 0.05426 0.26485 0.88758 0.0
C3756 C 0.07521 0.27317 0.86572 0.0
C3757 C 0.11539 0.25314 0.87264 0.0
H3758 H 0.13525 0.29867 0.8521 0.0
C3759 C 0.17371 0.25677 0.82922 0.0
C3760 C 0.18571 0.27422 0.83103 0.0
C3761 C 0.15887 0.25543 0.8385 0.0
C3762 C 0.13007 0.28593 0.85802 0.0
H3763 H 0.06454 0.25226 0.91215 0.0
H3764 H 0.09397 0.25388 0.90327 0.0
H3765 H 0.10741 0.29687 0.86409 0.0
H3766 H 0.19193 0.30367 0.84493 0.0
H3767 H 0.16619 0.30133 0.86119 0.0
H3768 H 0.13818 0.24224 0.86652 0.0
C3769 C 0.08414 0.25894 0.89399 0.0
C3770 C 0.11395 0.28481 0.8647 0.0
C3771 C 0.06729 0.25808 0.89911 0.0
C3772 C 0.1828 0.2901 0.84291 0.0
C3773 C 0.16801 0.28875 0.85223 0.0
C3774 C 0.13157 0.25425 0.86589 0.0
C3775 C 0.08834 0.26671 0.87732 0.0
C3776 C 0.10624 0.2683 0.87181 0.0
C3777 C 0.15566 0.27149 0.84988 0.0
C3778 C 0.13903 0.27059 0.85828 0.0
H3779 H 0.04886 0.27748 0.86133 0.0
H3780 H 0.07783 0.27885 0.85257 0.0
H3781 H 0.10981 0.24019 0.87796 0.0
H3782 H 0.17542 0.24429 0.82002 0.0
H3783 H 0.14957 0.24196 0.83613 0.0
C3784 C 0.56456 0.7638 0.92528 0.0
C3785 C 0.55292 0.75939 0.90773 0.0
C3786 C 0.56926 0.74922 0.93514 0.0
C3787 C 0.56713 0.69673 0.93175 0.0
H3788 H 0.56131 0.70549 0.98562 0.0
C3789 C 0.55228 0.63608 0.97816 0.0
C3790 C 0.55931 0.63972 0.99791 0.0
C3791 C 0.55479 0.65052 0.96649 0.0
C3792 C 0.56334 0.70289 0.97072 0.0
H3793 H 0.53806 0.73632 0.88603 0.0
H3794 H 0.54603 0.71083 0.90342 0.0
H3795 H 0.56056 0.73114 0.96609 0.0
H3796 H 0.57536 0.66087 0.0207 0.0
H3797 H 0.5799 0.68603 1.00033 0.0
H3798 H 0.56942 0.6682 0.9364 0.0
C3799 C 0.55166 0.72554 0.9095 0.0
C3800 C 0.56293 0.71763 0.9595 0.0
C3801 C 0.54703 0.74014 0.89957 0.0
C3802 C 0.5695 0.6578 1.0056 0.0
C3803 C 0.5721 0.67218 0.99393 0.0
C3804 C 0.56757 0.68192 0.94303 0.0
C3805 C 0.56233 0.72994 0.92772 0.0
C3806 C 0.5646 0.71468 0.93984 0.0
C3807 C 0.56446 0.66885 0.97434 0.0
C3808 C 0.56546 0.6848 0.96259 0.0
H3809 H 0.56949 0.77852 0.93182 0.0
H3810 H 0.57781 0.75306 0.94896 0.0
H3811 H 0.5686 0.69407 0.91667 0.0
H3812 H 0.54427 0.62229 0.97189 0.0
H3813 H 0.54856 0.64755 0.95152 0.0
C3814 C 0.11167 0.75747 0.71087 0.0
C3815 C 0.10315 0.76871 0.69928 0.0
C3816 C 0.12982 0.75913 0.71261 0.0
C3817 C 0.16725 0.75894 0.70598 0.0
H3818 H 0.19516 0.81037 0.71859 0.0
C3819 C 0.24243 0.77243 0.72283 0.0
C3820 C 0.24925 0.78371 0.74079 0.0
C3821 C 0.22521 0.77186 0.71423 0.0
C3822 C 0.18751 0.79595 0.71493 0.0
H3823 H 0.10625 0.78921 0.67911 0.0
H3824 H 0.13826 0.79253 0.68245 0.0
H3825 H 0.16328 0.80578 0.70979 0.0
H3826 H 0.24346 0.80365 0.76349 0.0
H3827 H 0.21359 0.80291 0.74829 0.0
H3828 H 0.19139 0.74909 0.71157 0.0
C3829 C 0.13098 0.78271 0.69046 0.0
C3830 C 0.16933 0.79332 0.70982 0.0
C3831 C 0.11277 0.78084 0.68856 0.0
C3832 C 0.23877 0.79509 0.7495 0.0
C3833 C 0.22162 0.79464 0.74082 0.0
C3834 C 0.18543 0.76157 0.71085 0.0
C3835 C 0.13967 0.772 0.70266 0.0
C3836 C 0.15901 0.77478 0.70578 0.0
C3837 C 0.21456 0.78266 0.72335 0.0
C3838 C 0.19567 0.78009 0.71577 0.0
H3839 H 0.1043 0.74754 0.71872 0.0
H3840 H 0.13621 0.75079 0.72219 0.0
H3841 H 0.15959 0.74451 0.70273 0.0
H3842 H 0.25018 0.76354 0.7157 0.0
H3843 H 0.22007 0.76261 0.70068 0.0
C3844 C 0.02502 0.36974 0.40541 0.0
C3845 C 0.03188 0.35366 0.40986 0.0
C3846 C 0.02497 0.38464 0.41999 0.0
C3847 C 0.04494 0.4054 0.47022 0.0
H3848 H 1.00345 0.42805 0.46889 0.0
C3849 C 0.03823 0.46382 0.53045 0.0
C3850 C 0.03465 0.48035 0.52313 0.0
C3851 C 0.03586 0.44659 0.51801 0.0
C3852 C 0.01508 0.42178 0.46946 0.0
H3853 H 0.04466 0.34103 0.4331 0.0
H3854 H 0.04433 0.36677 0.45835 0.0
H3855 H 1.00453 0.40219 0.44367 0.0
H3856 H 0.02524 0.49174 0.49735 0.0
H3857 H 0.02068 0.46179 0.47595 0.0
H3858 H 0.05551 0.42513 0.49594 0.0
C3859 C 0.03913 0.36799 0.44362 0.0
C3860 C 0.01578 0.40712 0.45494 0.0
C3861 C 0.03925 0.35316 0.42908 0.0
C3862 C 0.02781 0.47917 0.50349 0.0
C3863 C 0.02522 0.462 0.49119 0.0
C3864 C 0.04419 0.41998 0.4848 0.0
C3865 C 0.03175 0.38375 0.43931 0.0
C3866 C 0.03083 0.39898 0.455 0.0
C3867 C 0.02965 0.44568 0.4982 0.0
C3868 C 0.02937 0.4285 0.48437 0.0
H3869 H 0.01927 0.37062 0.39076 0.0
H3870 H 0.01949 0.3968 0.41616 0.0
H3871 H 0.05679 0.39956 0.47058 0.0
H3872 H 0.04359 0.46439 0.54553 0.0
H3873 H 0.0393 0.43413 0.52375 0.0
C3874 C 0.48896 0.22803 0.211 0.0
C3875 C 0.50703 0.23352 0.218 0.0
C3876 C 0.47668 0.2291 0.22349 0.0
C3877 C 0.4727 0.25705 0.26892 0.0
H3878 H 0.42534 0.22703 0.25736 0.0
C3879 C 0.41233 0.27739 0.30139 0.0
C3880 C 0.39937 0.27973 0.28644 0.0
C3881 C 0.4263 0.26871 0.29712 0.0
C3882 C 0.43859 0.23535 0.26095 0.0
H3883 H 0.52634 0.24281 0.24399 0.0
H3884 H 0.50482 0.24436 0.26584 0.0
H3885 H 0.44881 0.2154 0.24293 0.0
H3886 H 0.3915 0.27543 0.25525 0.0
H3887 H 0.41531 0.2597 0.24806 0.0
H3888 H 0.4622 0.27724 0.28655 0.0
C3889 C 0.50019 0.23969 0.25058 0.0
C3890 C 0.452 0.2288 0.25261 0.0
C3891 C 0.51252 0.2387 0.23804 0.0
C3892 C 0.40085 0.27337 0.26721 0.0
C3893 C 0.41453 0.26439 0.26303 0.0
C3894 C 0.4593 0.26347 0.27748 0.0
C3895 C 0.48212 0.23554 0.24335 0.0
C3896 C 0.46903 0.24003 0.25574 0.0
C3897 C 0.42732 0.26192 0.27791 0.0
C3898 C 0.44203 0.25307 0.27285 0.0
H3899 H 0.48422 0.22383 0.19569 0.0
H3900 H 0.4629 0.22599 0.2173 0.0
H3901 H 0.48561 0.26617 0.27157 0.0
H3902 H 0.41155 0.28196 0.31637 0.0
H3903 H 0.43616 0.26704 0.30879 0.0
C3904 C 0.62115 0.54509 0.36871 0.0
C3905 C 0.63917 0.5446 0.37094 0.0
C3906 C 0.61174 0.5423 0.38408 0.0
C3907 C 0.61237 0.52062 0.42896 0.0
H3908 H 0.5827 0.55588 0.44382 0.0
C3909 C 0.56546 0.50874 0.48562 0.0
C3910 C 0.56511 0.5248 0.49885 0.0
C3911 C 0.57499 0.51064 0.47028 0.0
C3912 C 0.591 0.54597 0.43987 0.0
H3913 H 0.66133 0.5406 0.39108 0.0
H3914 H 0.6449 0.53562 0.41758 0.0
H3915 H 0.5977 0.56002 0.41582 0.0
H3916 H 0.57499 0.55528 0.50693 0.0
H3917 H 0.59156 0.5586 0.48007 0.0
H3918 H 0.60571 0.50659 0.45302 0.0
C3919 C 0.63806 0.53814 0.404 0.0
C3920 C 0.59942 0.54822 0.42374 0.0
C3921 C 0.64749 0.54115 0.38881 0.0
C3922 C 0.57499 0.54266 0.49691 0.0
C3923 C 0.58435 0.54459 0.48146 0.0
C3924 C 0.60379 0.51823 0.44494 0.0
C3925 C 0.6201 0.53869 0.40183 0.0
C3926 C 0.61033 0.53568 0.41824 0.0
C3927 C 0.58419 0.52867 0.46779 0.0
C3928 C 0.59315 0.53099 0.45068 0.0
H3929 H 0.61435 0.54772 0.35516 0.0
H3930 H 0.59787 0.54272 0.38201 0.0
H3931 H 0.62061 0.51065 0.42496 0.0
H3932 H 0.55795 0.49482 0.48681 0.0
H3933 H 0.57461 0.49813 0.45994 0.0
C3934 C 0.27544 0.87528 0.04392 0.0
C3935 C 0.26659 0.86223 0.02775 0.0
C3936 C 0.28155 0.86878 0.06099 0.0
C3937 C 0.29296 0.82611 0.08026 0.0
H3938 H 0.28449 0.85124 0.12884 0.0
C3939 C 0.29529 0.7914 0.14986 0.0
C3940 C 0.30189 0.80304 0.16766 0.0
C3941 C 0.2935 0.79943 0.13278 0.0
C3942 C 0.28725 0.84428 0.11545 0.0
H3943 H 0.25723 0.83215 0.01672 0.0
H3944 H 0.26774 0.8208 0.04663 0.0
H3945 H 0.27617 0.86368 0.09894 0.0
H3946 H 0.3125 0.83216 0.18139 0.0
H3947 H 0.30934 0.84625 0.15144 0.0
H3948 H 0.30377 0.80651 0.09676 0.0
C3949 C 0.27015 0.83605 0.04602 0.0
C3950 C 0.28245 0.85138 0.09831 0.0
C3951 C 0.26402 0.84255 0.02895 0.0
C3952 C 0.30715 0.82286 0.16792 0.0
C3953 C 0.30534 0.83092 0.1508 0.0
C3954 C 0.29778 0.81902 0.0974 0.0
C3955 C 0.27895 0.8491 0.06223 0.0
C3956 C 0.28502 0.84221 0.08051 0.0
C3957 C 0.29825 0.8193 0.13309 0.0
C3958 C 0.29474 0.82786 0.11514 0.0
H3959 H 0.27769 0.89055 0.04342 0.0
H3960 H 0.28844 0.87917 0.07318 0.0
H3961 H 0.29539 0.81895 0.06679 0.0
H3962 H 0.29083 0.77612 0.14919 0.0
H3963 H 0.28772 0.79013 0.11943 0.0
C3964 C 0.95172 0.55126 0.83846 0.0
C3965 C 0.93349 0.55083 0.83725 0.0
C3966 C 0.96232 0.54997 0.85616 0.0
C3967 C 0.96211 0.55215 0.91109 0.0
H3968 H 1.00308 0.52918 0.90973 0.0
C3969 C 1.00363 0.5358 0.98277 0.0
C3970 C 0.02191 0.53711 0.9833 0.0
C3971 C 0.99251 0.53745 0.96547 0.0
C3972 C 0.99184 0.53589 0.91065 0.0
H3973 H 0.91261 0.54868 0.85477 0.0
H3974 H 0.93061 0.5463 0.88482 0.0
H3975 H 0.98554 0.53261 0.87966 0.0
H3976 H 0.04238 0.54145 0.96547 0.0
H3977 H 0.02359 0.54436 0.93623 0.0
H3978 H 0.96844 0.55527 0.94218 0.0
C3979 C 0.93703 0.54797 0.87228 0.0
C3980 C 0.98161 0.53791 0.89307 0.0
C3981 C 0.92651 0.54927 0.85469 0.0
C3982 C 0.02846 0.54018 0.96594 0.0
C3983 C 0.01749 0.54172 0.94882 0.0
C3984 C 0.97234 0.55008 0.9287 0.0
C3985 C 0.95523 0.54815 0.87357 0.0
C3986 C 0.96646 0.54616 0.89274 0.0
C3987 C 0.99919 0.54033 0.94798 0.0
C3988 C 0.98756 0.54199 0.92899 0.0
H3989 H 0.95783 0.55231 0.82561 0.0
H3990 H 0.97619 0.55048 0.85611 0.0
H3991 H 0.95087 0.55886 0.91201 0.0
H3992 H 0.99789 0.53359 0.99568 0.0
H3993 H 0.97858 0.53619 0.9658 0.0
C3994 C 0.27922 0.17384 0.58892 0.0
C3995 C 0.28235 0.18507 0.57419 0.0
C3996 C 0.28166 0.18228 0.60824 0.0
C3997 C 0.2756 0.20486 0.64493 0.0
H3998 H 0.31323 0.24778 0.66674 0.0
C3999 C 0.27486 0.24997 0.71783 0.0
C4000 C 0.29076 0.25575 0.7307 0.0
C4001 C 0.27461 0.24164 0.69884 0.0
C4002 C 0.30271 0.23571 0.66093 0.0
H4003 H 0.29106 0.21397 0.5683 0.0
H4004 H 0.29516 0.22873 0.60195 0.0
H4005 H 0.3122 0.23217 0.63384 0.0
H4006 H 0.31895 0.25756 0.73345 0.0
H4007 H 0.31847 0.24284 0.70037 0.0
H4008 H 0.26624 0.20816 0.67204 0.0
C4009 C 0.29098 0.21335 0.59863 0.0
C4010 C 0.30202 0.22688 0.64198 0.0
C4011 C 0.28857 0.20488 0.5793 0.0
C4012 C 0.30645 0.25327 0.72397 0.0
C4013 C 0.30619 0.24491 0.70494 0.0
C4014 C 0.27628 0.21368 0.66383 0.0
C4015 C 0.28725 0.2022 0.61332 0.0
C4016 C 0.28842 0.21136 0.6337 0.0
C4017 C 0.29024 0.23882 0.69217 0.0
C4018 C 0.28979 0.22929 0.67208 0.0
H4019 H 0.2745 0.15853 0.58552 0.0
H4020 H 0.27899 0.17319 0.61918 0.0
H4021 H 0.26479 0.19313 0.63901 0.0
H4022 H 0.26252 0.25174 0.72242 0.0
H4023 H 0.26212 0.23746 0.68933 0.0
C4024 C 0.63603 0.54635 0.24494 0.0
C4025 C 0.62786 0.53693 0.25875 0.0
C4026 C 0.62757 0.54434 0.22586 0.0
C4027 C 0.59697 0.51346 0.18797 0.0
H4028 H 0.58798 0.5598 0.16855 0.0
C4029 C 0.56008 0.51211 0.11036 0.0
C4030 C 0.56499 0.52792 0.10082 0.0
C4031 C 0.56683 0.51248 0.12989 0.0
C4032 C 0.59063 0.54671 0.17352 0.0
H4033 H 0.60465 0.51754 0.26328 0.0
H4034 H 0.59009 0.51349 0.22956 0.0
H4035 H 0.60201 0.56143 0.20179 0.0
H4036 H 0.5813 0.55619 0.104 0.0
H4037 H 0.59367 0.55652 0.13743 0.0
H4038 H 0.58644 0.49878 0.15953 0.0
C4039 C 0.60294 0.52263 0.2337 0.0
C4040 C 0.59853 0.54768 0.19266 0.0
C4041 C 0.61124 0.52501 0.25295 0.0
C4042 C 0.57703 0.5439 0.11103 0.0
C4043 C 0.58403 0.54412 0.13034 0.0
C4044 C 0.58938 0.51252 0.16862 0.0
C4045 C 0.61095 0.53251 0.22009 0.0
C4046 C 0.60186 0.53111 0.20002 0.0
C4047 C 0.5789 0.52853 0.1402 0.0
C4048 C 0.58624 0.52918 0.16104 0.0
H4049 H 0.6488 0.55569 0.24898 0.0
H4050 H 0.63401 0.55205 0.21558 0.0
H4051 H 0.5995 0.5005 0.19335 0.0
H4052 H 0.55077 0.49961 0.10286 0.0
H4053 H 0.56235 0.50027 0.13693 0.0
C4054 C 0.22558 0.8411 0.92116 0.0
C4055 C 0.22569 0.86075 0.92142 0.0
C4056 C 0.22324 0.82903 0.90365 0.0
C4057 C 0.21602 0.80515 0.86386 0.0
H4058 H 0.25053 0.82795 0.83428 0.0
C4059 C 0.24468 0.7689 0.79791 0.0
C4060 C 0.26269 0.76984 0.80395 0.0
C4061 C 0.23503 0.77872 0.80958 0.0
C4062 C 0.24056 0.82155 0.84212 0.0
H4063 H 0.22161 0.88272 0.90341 0.0
H4064 H 0.21766 0.86162 0.87286 0.0
H4065 H 0.24118 0.84803 0.85955 0.0
H4066 H 0.28448 0.78047 0.82717 0.0
H4067 H 0.26775 0.79783 0.84731 0.0
H4068 H 0.21661 0.77833 0.84713 0.0
C4069 C 0.21957 0.85563 0.88625 0.0
C4070 C 0.23507 0.83302 0.85648 0.0
C4071 C 0.22183 0.86771 0.90378 0.0
C4072 C 0.27067 0.77978 0.82213 0.0
C4073 C 0.26114 0.78968 0.83361 0.0
C4074 C 0.22148 0.79365 0.84934 0.0
C4075 C 0.221 0.83636 0.88603 0.0
C4076 C 0.22327 0.82485 0.86802 0.0
C4077 C 0.24339 0.78955 0.82726 0.0
C4078 C 0.2343 0.80173 0.83895 0.0
H4079 H 0.22829 0.83519 0.93447 0.0
H4080 H 0.22452 0.81427 0.90398 0.0
H4081 H 0.20685 0.7985 0.87248 0.0
H4082 H 0.23829 0.76135 0.78387 0.0
H4083 H 0.22132 0.7785 0.8045 0.0
C4084 C 0.92796 0.53789 0.70584 0.0
C4085 C 0.93665 0.54857 0.7237 0.0
C4086 C 0.93652 0.5362 0.68922 0.0
C4087 C 0.98238 0.54727 0.67287 0.0
H4088 H 0.95543 0.53038 0.62185 0.0
C4089 C 0.01887 0.53428 0.60533 0.0
C4090 C 1.0106 0.53389 0.58614 0.0
C4091 C 1.00978 0.53581 0.62146 0.0
C4092 C 0.96345 0.53534 0.63582 0.0
H4093 H 0.96164 0.5661 0.73716 0.0
H4094 H 0.9761 0.56396 0.70873 0.0
H4095 H 0.94045 0.53411 0.64962 0.0
H4096 H 0.98554 0.53502 0.56968 0.0
H4097 H 0.96992 0.53821 0.59734 0.0
H4098 H 1.00534 0.54931 0.65909 0.0
C4099 C 0.96274 0.55621 0.70731 0.0
C4100 C 0.95464 0.53725 0.65222 0.0
C4101 C 0.95426 0.55768 0.72394 0.0
C4102 C 0.99263 0.53511 0.58397 0.0
C4103 C 0.98352 0.53688 0.60018 0.0
C4104 C 0.99117 0.54555 0.65649 0.0
C4105 C 0.95426 0.54526 0.68938 0.0
C4106 C 0.9638 0.54325 0.67135 0.0
C4107 C 0.99181 0.53734 0.61952 0.0
C4108 C 0.98205 0.53942 0.63737 0.0
H4109 H 0.91452 0.53041 0.70475 0.0
H4110 H 0.92909 0.52735 0.6763 0.0
H4111 H 0.99049 0.55164 0.68686 0.0
H4112 H 0.0326 0.53331 0.60802 0.0
H4113 H 0.01707 0.53558 0.63553 0.0
C4114 C 0.27021 0.19948 0.46689 0.0
C4115 C 0.26492 0.17948 0.46231 0.0
C4116 C 0.27177 0.21112 0.45225 0.0
C4117 C 0.25806 0.21118 0.39948 0.0
H4118 H 0.29727 0.25396 0.40597 0.0
C4119 C 0.27834 0.24981 0.33569 0.0
C4120 C 0.28456 0.2697 0.33911 0.0
C4121 C 0.27469 0.23958 0.35094 0.0
C4122 C 0.28609 0.24224 0.40399 0.0
H4123 H 0.25705 0.15617 0.4385 0.0
H4124 H 0.26 0.17632 0.41317 0.0
H4125 H 0.29352 0.23475 0.43207 0.0
H4126 H 0.29137 0.29454 0.36118 0.0
H4127 H 0.2849 0.27671 0.38784 0.0
H4128 H 0.25078 0.21852 0.37129 0.0
C4129 C 0.26271 0.1831 0.42807 0.0
C4130 C 0.28394 0.23119 0.41901 0.0
C4131 C 0.26114 0.17149 0.44267 0.0
C4132 C 0.28662 0.27921 0.35808 0.0
C4133 C 0.28303 0.26896 0.37337 0.0
C4134 C 0.26024 0.2222 0.38446 0.0
C4135 C 0.26806 0.20309 0.43261 0.0
C4136 C 0.26997 0.21539 0.41691 0.0
C4137 C 0.27722 0.24896 0.37005 0.0
C4138 C 0.27437 0.2378 0.38644 0.0
H4139 H 0.27318 0.20621 0.48181 0.0
H4140 H 0.27572 0.22645 0.45634 0.0
H4141 H 0.24695 0.19938 0.39743 0.0
H4142 H 0.27671 0.24204 0.32126 0.0
H4143 H 0.27043 0.22419 0.34781 0.0
C4144 C 0.36457 0.64572 0.51973 0.0
C4145 C 0.36516 0.65835 0.53667 0.0
C4146 C 0.37964 0.64513 0.51138 0.0
C4147 C 0.4258 0.65095 0.52839 0.0
H4148 H 0.42562 0.63031 0.47506 0.0
C4149 C 0.47196 0.60147 0.51281 0.0
C4150 C 0.46283 0.58384 0.50247 0.0
C4151 C 0.46485 0.61789 0.51197 0.0
C4152 C 0.426 0.63626 0.48997 0.0
H4153 H 0.38168 0.68156 0.55709 0.0
H4154 H 0.40813 0.68039 0.54249 0.0
H4155 H 0.40293 0.64786 0.48313 0.0
H4156 H 0.43978 0.56977 0.48204 0.0
H4157 H 0.42687 0.59818 0.48122 0.0
H4158 H 0.44788 0.63819 0.53559 0.0
C4159 C 0.39598 0.67083 0.53582 0.0
C4160 C 0.41304 0.64633 0.49458 0.0
C4161 C 0.38084 0.67146 0.54419 0.0
C4162 C 0.44707 0.58319 0.49016 0.0
C4163 C 0.43978 0.59956 0.48958 0.0
C4164 C 0.4387 0.6409 0.5238 0.0
C4165 C 0.39568 0.65714 0.51977 0.0
C4166 C 0.41219 0.65269 0.51399 0.0
C4167 C 0.44823 0.61691 0.50114 0.0
C4168 C 0.43829 0.63241 0.50471 0.0
H4169 H 0.35265 0.63562 0.51335 0.0
H4170 H 0.37893 0.63424 0.49916 0.0
H4171 H 0.42553 0.65557 0.5435 0.0
H4172 H 0.48431 0.60241 0.52217 0.0
H4173 H 0.47187 0.63111 0.52071 0.0
C4174 C 0.8735 0.91537 0.55028 0.0
C4175 C 0.86235 0.92347 0.56134 0.0
C4176 C 0.89084 0.92485 0.55089 0.0
C4177 C 0.92649 0.9629 0.57918 0.0
H4178 H 0.94118 0.96761 0.52928 0.0
C4179 C 0.98895 0.0165 0.57068 0.0
C4180 C 0.99822 1.01192 0.55563 0.0
C4181 C 0.97304 1.00475 0.57236 0.0
C4182 C 0.93756 0.9662 0.54342 0.0
H4183 H 0.86093 0.94651 0.58333 0.0
H4184 H 0.89126 0.9632 0.58446 0.0
H4185 H 0.913 0.94802 0.53102 0.0
H4186 H 0.99811 0.99141 0.53056 0.0
H4187 H 0.97116 0.97034 0.53411 0.0
H4188 H 0.95128 0.98063 0.59166 0.0
C4189 C 0.88659 0.94975 0.57501 0.0
C4190 C 0.92124 0.95501 0.54438 0.0
C4191 C 0.86918 0.94036 0.5742 0.0
C4192 C 0.99144 0.99518 0.54251 0.0
C4193 C 0.97574 0.98326 0.54437 0.0
C4194 C 0.943 0.97384 0.57826 0.0
C4195 C 0.89751 0.94236 0.56297 0.0
C4196 C 0.91538 0.95339 0.56224 0.0
C4197 C 0.96612 0.98798 0.55914 0.0
C4198 C 0.94874 0.9758 0.56033 0.0
H4199 H 0.8686 0.90206 0.54065 0.0
H4200 H 0.89899 0.91856 0.54173 0.0
H4201 H 0.92248 0.96175 0.5932 0.0
H4202 H 0.99379 0.02939 0.58095 0.0
H4203 H 0.96598 1.00914 0.58374 0.0
C4204 C 0.89383 0.05468 0.25468 0.0
C4205 C 0.91134 0.05371 0.2612 0.0
C4206 C 0.88939 0.07186 0.25043 0.0
C4207 C 0.89955 0.12169 0.26563 0.0
H4208 H 0.87022 0.12467 0.21763 0.0
C4209 C 0.8626 0.18398 0.25845 0.0
C4210 C 0.845 0.17846 0.24946 0.0
C4211 C 0.87418 0.17128 0.25707 0.0
C4212 C 0.87835 0.1241 0.23115 0.0
H4213 H 0.938 0.06996 0.26831 0.0
H4214 H 0.92999 0.10054 0.2616 0.0
H4215 H 0.88441 0.09724 0.22047 0.0
H4216 H 0.82583 0.15546 0.23174 0.0
H4217 H 0.84573 0.13324 0.22967 0.0
H4218 H 0.89244 0.14768 0.27694 0.0
C4219 C 0.91986 0.08774 0.25943 0.0
C4220 C 0.8866 0.10848 0.23267 0.0
C4221 C 0.92441 0.07032 0.26323 0.0
C4222 C 0.83937 0.16023 0.23858 0.0
C4223 C 0.85086 0.1475 0.23735 0.0
C4224 C 0.89106 0.13719 0.26423 0.0
C4225 C 0.90229 0.08858 0.253 0.0
C4226 C 0.89682 0.10687 0.2501 0.0
C4227 C 0.86836 0.15272 0.24681 0.0
C4228 C 0.87985 0.13824 0.24718 0.0
H4229 H 0.88346 0.04214 0.25292 0.0
H4230 H 0.87572 0.07221 0.24569 0.0
H4231 H 0.90725 0.12063 0.27927 0.0
H4232 H 0.86734 0.19805 0.26675 0.0
H4233 H 0.88761 0.17591 0.26429 0.0
C4234 C 0.77753 0.15314 0.08244 0.0
C4235 C 0.7922 0.14618 0.09014 0.0
C4236 C 0.76066 0.14292 0.08241 0.0
C4237 C 0.72998 0.10981 0.06992 0.0
H4238 H 0.71174 0.09074 0.11396 0.0
C4239 C 0.65809 0.07306 0.06251 0.0
C4240 C 0.65301 0.05906 0.07419 0.0
C4241 C 0.67515 0.08367 0.06565 0.0
C4242 C 0.71674 0.09555 0.10139 0.0
H4243 H 0.80108 0.12454 0.10577 0.0
H4244 H 0.77129 0.10639 0.10573 0.0
H4245 H 0.74153 0.10961 0.1182 0.0
H4246 H 0.66235 0.04514 0.09826 0.0
H4247 H 0.69248 0.06237 0.10252 0.0
H4248 H 0.70607 0.095 0.05271 0.0
C4249 C 0.77288 0.11954 0.0994 0.0
C4250 C 0.73375 0.10651 0.10391 0.0
C4251 C 0.78984 0.1297 0.0992 0.0
C4252 C 0.66573 0.05558 0.08874 0.0
C4253 C 0.68302 0.0658 0.09148 0.0
C4254 C 0.71333 0.09835 0.06724 0.0
C4255 C 0.75819 0.12582 0.09051 0.0
C4256 C 0.7404 0.11391 0.0882 0.0
C4257 C 0.68795 0.08011 0.08006 0.0
C4258 C 0.70626 0.09134 0.08297 0.0
H4259 H 0.77916 0.16617 0.07589 0.0
H4260 H 0.74953 0.14819 0.07574 0.0
H4261 H 0.73474 0.11532 0.05756 0.0
H4262 H 0.64891 0.07596 0.05085 0.0
H4263 H 0.67815 0.09482 0.05679 0.0
C4264 C 0.19315 0.45474 0.28558 0.0
C4265 C 0.19217 0.46493 0.30373 0.0
C4266 C 0.20135 0.43839 0.28401 0.0
C4267 C 0.2156 0.39934 0.31157 0.0
H4268 H 0.2471 0.39394 0.27423 0.0
C4269 C 0.24659 0.32917 0.29755 0.0
C4270 C 0.26447 0.33142 0.29504 0.0
C4271 C 0.2376 0.34488 0.29849 0.0
C4272 C 0.23836 0.39503 0.28482 0.0
H4273 H 0.19937 0.46479 0.33445 0.0
H4274 H 0.2125 0.43624 0.33176 0.0
H4275 H 0.23177 0.42103 0.27562 0.0
H4276 H 0.28637 0.353 0.29119 0.0
H4277 H 0.27078 0.37984 0.29212 0.0
H4278 H 0.22187 0.37313 0.32048 0.0
C4279 C 0.20713 0.44094 0.31857 0.0
C4280 C 0.22935 0.41073 0.28553 0.0
C4281 C 0.19945 0.45753 0.32013 0.0
C4282 C 0.27274 0.35026 0.29324 0.0
C4283 C 0.26364 0.36586 0.29367 0.0
C4284 C 0.22423 0.38337 0.3105 0.0
C4285 C 0.2086 0.43101 0.30049 0.0
C4286 C 0.21782 0.41348 0.29906 0.0
C4287 C 0.24581 0.3637 0.29644 0.0
C4288 C 0.23603 0.38081 0.29722 0.0
H4289 H 0.18819 0.45985 0.27247 0.0
H4290 H 0.20196 0.43146 0.26972 0.0
H4291 H 0.20693 0.40047 0.32222 0.0
H4292 H 0.23946 0.31518 0.29902 0.0
H4293 H 0.22396 0.34214 0.30052 0.0
C4294 C 0.26623 0.44053 0.04092 0.0
C4295 C 0.27145 0.42758 0.05305 0.0
C4296 C 0.2498 0.44552 0.04049 0.0
C4297 C 0.21429 0.44951 0.06869 0.0
H4298 H 0.18915 0.45485 0.01897 0.0
C4299 C 0.14861 0.47831 0.05966 0.0
C4300 C 0.14773 0.49175 0.04665 0.0
C4301 C 0.16238 0.4681 0.06092 0.0
C4302 C 0.19602 0.45354 0.033 0.0
H4303 H 0.26322 0.40974 0.07432 0.0
H4304 H 0.23426 0.41872 0.07369 0.0
H4305 H 0.21533 0.44086 0.02034 0.0
H4306 H 0.16048 0.5046 0.02447 0.0
H4307 H 0.18437 0.48715 0.02681 0.0
H4308 H 0.1951 0.46271 0.08132 0.0
C4309 C 0.24309 0.42491 0.06448 0.0
C4310 C 0.21102 0.44546 0.03378 0.0
C4311 C 0.25962 0.4197 0.06477 0.0
C4312 C 0.16083 0.49458 0.03484 0.0
C4313 C 0.17445 0.48435 0.03601 0.0
C4314 C 0.19921 0.45766 0.0679 0.0
C4315 C 0.23799 0.43784 0.05223 0.0
C4316 C 0.22065 0.44383 0.05162 0.0
C4317 C 0.17543 0.47095 0.04902 0.0
C4318 C 0.19018 0.46026 0.05004 0.0
H4319 H 0.27488 0.44691 0.03162 0.0
H4320 H 0.24646 0.45574 0.03112 0.0
H4321 H 0.22144 0.44853 0.08266 0.0
H4322 H 0.13879 0.47584 0.06903 0.0
H4323 H 0.16269 0.45783 0.07104 0.0
C4324 C 0.91847 0.94386 0.28022 0.0
C4325 C 0.91253 0.95541 0.26702 0.0
C4326 C 0.90818 0.9261 0.28147 0.0
C4327 C 0.87763 0.89773 0.29066 0.0
H4328 H 0.8494 0.86466 0.24599 0.0
C4329 C 0.81492 0.84182 0.29394 0.0
C4330 C 0.81404 0.82351 0.28398 0.0
C4331 C 0.8283 0.85699 0.29208 0.0
C4332 C 0.85723 0.87377 0.25859 0.0
H4333 H 0.8924 0.95692 0.24342 0.0
H4334 H 0.8743 0.92605 0.24559 0.0
H4335 H 0.87129 0.89189 0.24137 0.0
H4336 H 0.8263 0.80662 0.2643 0.0
H4337 H 0.84942 0.83313 0.26081 0.0
H4338 H 0.86322 0.87977 0.30785 0.0
C4339 C 0.88673 0.9306 0.25516 0.0
C4340 C 0.86971 0.88941 0.25596 0.0
C4341 C 0.89695 0.94837 0.25405 0.0
C4342 C 0.82672 0.8206 0.27219 0.0
C4343 C 0.83989 0.83577 0.2701 0.0
C4344 C 0.86491 0.88231 0.29329 0.0
C4345 C 0.89196 0.91946 0.26925 0.0
C4346 C 0.87991 0.90175 0.27197 0.0
C4347 C 0.84079 0.85412 0.27998 0.0
C4348 C 0.85451 0.87027 0.27728 0.0
H4349 H 0.93069 0.94892 0.29007 0.0
H4350 H 0.91276 0.91773 0.29223 0.0
H4351 H 0.88533 0.9068 0.30332 0.0
H4352 H 0.8053 0.84438 0.30314 0.0
H4353 H 0.82867 0.87106 0.29977 0.0
C4354 C 0.68145 0.08345 0.80833 0.0
C4355 C 0.68893 0.06733 0.80359 0.0
C4356 C 0.69037 0.1023 0.80754 0.0
C4357 C 0.73451 0.13312 0.80863 0.0
H4358 H 0.70913 0.16716 0.78272 0.0
C4359 C 0.76268 0.2163 0.81076 0.0
C4360 C 0.76114 0.22363 0.79294 0.0
C4361 C 0.75433 0.19738 0.81239 0.0
C4362 C 0.7165 0.15794 0.79006 0.0
H4363 H 0.71139 0.05901 0.79265 0.0
H4364 H 0.72741 0.09174 0.79252 0.0
H4365 H 0.6941 0.13467 0.78524 0.0
H4366 H 0.74898 0.2162 0.76295 0.0
H4367 H 0.73397 0.18387 0.76596 0.0
H4368 H 0.75679 0.15662 0.81391 0.0
C4369 C 0.71467 0.0898 0.79719 0.0
C4370 C 0.70779 0.1392 0.7916 0.0
C4371 C 0.70554 0.07091 0.79753 0.0
C4372 C 0.75064 0.21131 0.77694 0.0
C4373 C 0.74191 0.19264 0.77869 0.0
C4374 C 0.7431 0.15208 0.80758 0.0
C4375 C 0.70722 0.10594 0.80203 0.0
C4376 C 0.71662 0.12629 0.80077 0.0
C4377 C 0.74365 0.18516 0.79641 0.0
C4378 C 0.73433 0.16488 0.79811 0.0
H4379 H 0.66853 0.08146 0.81256 0.0
H4380 H 0.68402 0.11413 0.81134 0.0
H4381 H 0.74187 0.12383 0.81589 0.0
H4382 H 0.7706 0.22511 0.82348 0.0
H4383 H 0.75603 0.19242 0.82634 0.0
loop_
_geom_bond_atom_site_label_1
_geom_bond_atom_site_label_2
_geom_bond_distance
_geom_bond_site_symmetry_2
_ccdc_geom_bond_type
Mn0 O5 2.095 . S
Mn0 O15 2.162 . S
Mn0 O16 2.297 1_455 S
Mn0 O24 2.385 1_455 S
Mn0 O25 2.209 1_455 S
Mn0 O26 2.094 . S
Mn1 O6 2.124 1_655 S
Mn1 N8 2.256 . S
Mn1 N17 2.279 . S
Mn1 O25 2.214 . S
Mn1 O27 2.117 1_655 S
C2 O24 1.234 . S
C2 O25 1.283 . S
C3 O15 1.281 1_655 S
C3 O16 1.236 . S
C4 O26 1.240 . S
C4 O27 1.264 . S
O5 Mn0 2.095 . S
O5 C14 1.250 . S
O6 Mn1 2.124 1_455 S
O6 C14 1.258 . S
C7 N8 1.326 . S
C7 C11 1.460 . S
C7 H13 0.929 1_655 S
N8 Mn1 2.256 . S
N8 C7 1.326 . S
N8 C12 1.362 . S
C9 C10 1.258 . S
C9 C12 1.431 . S
C9 C29 1.449 . S
C10 C9 1.258 . S
C10 C11 1.477 . S
C10 H30 0.931 . S
C11 C7 1.460 . S
C11 C10 1.477 . S
C11 H31 0.930 . S
C12 N8 1.362 . S
C12 C9 1.431 . S
C12 C22 1.476 . S
H13 C7 0.929 1_455 S
C14 O5 1.250 . S
C14 O6 1.258 . S
O15 Mn0 2.162 . S
O15 C3 1.281 1_455 S
O16 Mn0 2.297 1_655 S
O16 C3 1.236 . S
N17 Mn1 2.279 . S
N17 C18 1.328 . S
N17 C22 1.318 . S
C18 N17 1.328 . S
C18 C19 1.457 . S
C18 H23 0.929 . S
C19 C18 1.457 . S
C19 C20 1.291 . S
C19 H32 0.931 . S
C20 C19 1.291 . S
C20 C21 1.373 . S
C20 H33 0.929 . S
C21 C20 1.373 . S
C21 C22 1.396 . S
C21 C28 1.403 . S
C22 C12 1.476 . S
C22 N17 1.318 . S
C22 C21 1.396 . S
H23 C18 0.929 . S
O24 Mn0 2.385 1_655 S
O24 C2 1.234 . S
O25 Mn0 2.209 1_655 S
O25 Mn1 2.214 . S
O25 C2 1.283 . S
O26 Mn0 2.094 . S
O26 C4 1.240 . S
O27 Mn1 2.117 1_455 S
O27 C4 1.264 . S
C28 C21 1.403 . S
C28 C29 1.399 . S
C28 H34 0.929 . S
C29 C9 1.449 . S
C29 C28 1.399 . S
C29 H35 0.930 . S
H30 C10 0.931 . S
H31 C11 0.930 . S
H32 C19 0.931 . S
H33 C20 0.929 . S
H34 C28 0.929 . S
H35 C29 0.930 . S
Mn36 O41 2.095 . S
Mn36 O51 2.162 . S
Mn36 O52 2.297 . S
Mn36 O60 2.385 . S
Mn36 O61 2.209 . S
Mn36 O62 2.094 . S
Mn37 O42 2.121 . S
Mn37 N44 2.257 . S
Mn37 N53 2.282 . S
Mn37 O61 2.215 . S
Mn37 O63 2.117 . S
C38 O60 1.234 . S
C38 O61 1.283 . S
C39 O51 1.281 . S
C39 O52 1.236 . S
C40 O62 1.240 . S
C40 O63 1.264 . S
O41 Mn36 2.095 . S
O41 C50 1.250 . S
O42 Mn37 2.121 . S
O42 C50 1.258 . S
C43 N44 1.326 . S
C43 C47 1.460 . S
C43 H49 0.929 . S
N44 Mn37 2.257 . S
N44 C43 1.326 . S
N44 C48 1.362 . S
C45 C46 1.258 . S
C45 C48 1.431 . S
C45 C65 1.449 . S
C46 C45 1.258 . S
C46 C47 1.477 . S
C46 H66 0.931 . S
C47 C43 1.460 . S
C47 C46 1.477 . S
C47 H67 0.930 . S
C48 N44 1.362 . S
C48 C45 1.431 . S
C48 C58 1.476 . S
H49 C43 0.929 . S
C50 O41 1.250 . S
C50 O42 1.258 . S
O51 Mn36 2.162 . S
O51 C39 1.281 . S
O52 Mn36 2.297 . S
O52 C39 1.236 . S
N53 Mn37 2.282 . S
N53 C54 1.328 . S
N53 C58 1.318 . S
C54 N53 1.328 . S
C54 C55 1.457 . S
C54 H59 0.929 . S
C55 C54 1.457 . S
C55 C56 1.291 . S
C55 H68 0.931 . S
C56 C55 1.291 . S
C56 C57 1.373 . S
C56 H69 0.929 . S
C57 C56 1.373 . S
C57 C58 1.396 . S
C57 C64 1.403 . S
C58 C48 1.476 . S
C58 N53 1.318 . S
C58 C57 1.396 . S
H59 C54 0.929 . S
O60 Mn36 2.385 . S
O60 C38 1.234 . S
O61 Mn36 2.209 . S
O61 Mn37 2.215 . S
O61 C38 1.283 . S
O62 Mn36 2.094 . S
O62 C40 1.240 . S
O63 Mn37 2.117 . S
O63 C40 1.264 . S
C64 C57 1.403 . S
C64 C65 1.399 . S
C64 H70 0.929 . S
C65 C45 1.449 . S
C65 C64 1.399 . S
C65 H71 0.930 . S
H66 C46 0.931 . S
H67 C47 0.930 . S
H68 C55 0.931 . S
H69 C56 0.929 . S
H70 C64 0.929 . S
H71 C65 0.930 . S
Mn72 O77 2.095 . S
Mn72 O87 2.162 . S
Mn72 O88 2.297 . S
Mn72 O96 2.385 . S
Mn72 O97 2.209 . S
Mn72 O98 2.094 . S
Mn73 O78 2.121 . S
Mn73 N80 2.257 . S
Mn73 N89 2.282 . S
Mn73 O97 2.215 . S
Mn73 O99 2.117 . S
C74 O96 1.234 . S
C74 O97 1.283 . S
C75 O87 1.281 . S
C75 O88 1.236 . S
C76 O98 1.240 . S
C76 O99 1.264 . S
O77 Mn72 2.095 . S
O77 C86 1.250 . S
O78 Mn73 2.121 . S
O78 C86 1.258 . S
C79 N80 1.326 . S
C79 C83 1.460 . S
C79 H85 0.929 . S
N80 Mn73 2.257 . S
N80 C79 1.326 . S
N80 C84 1.362 . S
C81 C82 1.258 . S
C81 C84 1.431 . S
C81 C101 1.449 . S
C82 C81 1.258 . S
C82 C83 1.477 . S
C82 H102 0.931 . S
C83 C79 1.460 . S
C83 C82 1.477 . S
C83 H103 0.930 . S
C84 N80 1.362 . S
C84 C81 1.431 . S
C84 C94 1.476 . S
H85 C79 0.929 . S
C86 O77 1.250 . S
C86 O78 1.258 . S
O87 Mn72 2.162 . S
O87 C75 1.281 . S
O88 Mn72 2.297 . S
O88 C75 1.236 . S
N89 Mn73 2.282 . S
N89 C90 1.328 . S
N89 C94 1.318 . S
C90 N89 1.328 . S
C90 C91 1.457 . S
C90 H95 0.929 . S
C91 C90 1.457 . S
C91 C92 1.291 . S
C91 H104 0.931 . S
C92 C91 1.291 . S
C92 C93 1.373 . S
C92 H105 0.929 . S
C93 C92 1.373 . S
C93 C94 1.396 . S
C93 C100 1.403 . S
C94 C84 1.476 . S
C94 N89 1.318 . S
C94 C93 1.396 . S
H95 C90 0.929 . S
O96 Mn72 2.385 . S
O96 C74 1.234 . S
O97 Mn72 2.209 . S
O97 Mn73 2.215 . S
O97 C74 1.283 . S
O98 Mn72 2.094 . S
O98 C76 1.240 . S
O99 Mn73 2.117 . S
O99 C76 1.264 . S
C100 C93 1.403 . S
C100 C101 1.399 . S
C100 H106 0.929 . S
C101 C81 1.449 . S
C101 C100 1.399 . S
C101 H107 0.930 . S
H102 C82 0.931 . S
H103 C83 0.930 . S
H104 C91 0.931 . S
H105 C92 0.929 . S
H106 C100 0.929 . S
H107 C101 0.930 . S
Mn108 O113 2.095 . S
Mn108 O123 2.162 . S
Mn108 O124 2.297 . S
Mn108 O132 2.385 . S
Mn108 O133 2.209 . S
Mn108 O134 2.094 . S
Mn109 O114 2.121 . S
Mn109 N116 2.257 . S
Mn109 N125 2.282 . S
Mn109 O133 2.215 . S
Mn109 O135 2.117 . S
C110 O132 1.234 . S
C110 O133 1.283 . S
C111 O123 1.281 . S
C111 O124 1.236 . S
C112 O134 1.240 . S
C112 O135 1.264 . S
O113 Mn108 2.095 . S
O113 C122 1.250 . S
O114 Mn109 2.121 . S
O114 C122 1.258 . S
C115 N116 1.326 . S
C115 C119 1.460 . S
C115 H121 0.929 . S
N116 Mn109 2.257 . S
N116 C115 1.326 . S
N116 C120 1.362 . S
C117 C118 1.258 . S
C117 C120 1.431 . S
C117 C137 1.449 . S
C118 C117 1.258 . S
C118 C119 1.477 . S
C118 H138 0.931 . S
C119 C115 1.460 . S
C119 C118 1.477 . S
C119 H139 0.930 . S
C120 N116 1.362 . S
C120 C117 1.431 . S
C120 C130 1.476 . S
H121 C115 0.929 . S
C122 O113 1.250 . S
C122 O114 1.258 . S
O123 Mn108 2.162 . S
O123 C111 1.281 . S
O124 Mn108 2.297 . S
O124 C111 1.236 . S
N125 Mn109 2.282 . S
N125 C126 1.328 . S
N125 C130 1.318 . S
C126 N125 1.328 . S
C126 C127 1.457 . S
C126 H131 0.929 . S
C127 C126 1.457 . S
C127 C128 1.291 . S
C127 H140 0.931 . S
C128 C127 1.291 . S
C128 C129 1.373 . S
C128 H141 0.929 . S
C129 C128 1.373 . S
C129 C130 1.396 . S
C129 C136 1.403 . S
C130 C120 1.476 . S
C130 N125 1.318 . S
C130 C129 1.396 . S
H131 C126 0.929 . S
O132 Mn108 2.385 . S
O132 C110 1.234 . S
O133 Mn108 2.209 . S
O133 Mn109 2.215 . S
O133 C110 1.283 . S
O134 Mn108 2.094 . S
O134 C112 1.240 . S
O135 Mn109 2.117 . S
O135 C112 1.264 . S
C136 C129 1.403 . S
C136 C137 1.399 . S
C136 H142 0.929 . S
C137 C117 1.449 . S
C137 C136 1.399 . S
C137 H143 0.930 . S
H138 C118 0.931 . S
H139 C119 0.930 . S
H140 C127 0.931 . S
H141 C128 0.929 . S
H142 C136 0.929 . S
H143 C137 0.930 . S
Mn144 O149 2.095 . S
Mn144 O159 2.162 . S
Mn144 O160 2.297 . S
Mn144 O168 2.385 . S
Mn144 O169 2.209 . S
Mn144 O170 2.094 . S
Mn145 O150 2.121 . S
Mn145 N152 2.257 . S
Mn145 N161 2.284 1_455 S
Mn145 O169 2.215 . S
Mn145 O171 2.117 . S
C146 O168 1.234 . S
C146 O169 1.283 . S
C147 O159 1.281 . S
C147 O160 1.236 . S
C148 O170 1.240 . S
C148 O171 1.264 . S
O149 Mn144 2.095 . S
O149 C158 1.250 . S
O150 Mn145 2.121 . S
O150 C158 1.258 . S
C151 N152 1.326 . S
C151 C155 1.460 . S
C151 H157 0.929 . S
N152 Mn145 2.257 . S
N152 C151 1.326 . S
N152 C156 1.362 . S
C153 C154 1.258 . S
C153 C156 1.431 . S
C153 C173 1.449 1_455 S
C154 C153 1.258 . S
C154 C155 1.477 . S
C154 H174 0.931 . S
C155 C151 1.460 . S
C155 C154 1.477 . S
C155 H175 0.930 . S
C156 N152 1.362 . S
C156 C153 1.431 . S
C156 C166 1.476 1_455 S
H157 C151 0.929 . S
C158 O149 1.250 . S
C158 O150 1.258 . S
O159 Mn144 2.162 . S
O159 C147 1.281 . S
O160 Mn144 2.297 . S
O160 C147 1.236 . S
N161 Mn145 2.284 1_655 S
N161 C162 1.325 . S
N161 C166 1.318 . S
C162 N161 1.325 . S
C162 C163 1.457 . S
C162 H167 0.929 . S
C163 C162 1.457 . S
C163 C164 1.291 . S
C163 H176 0.931 . S
C164 C163 1.291 . S
C164 C165 1.373 . S
C164 H177 0.929 . S
C165 C164 1.373 . S
C165 C166 1.396 . S
C165 C172 1.403 . S
C166 C156 1.476 1_655 S
C166 N161 1.318 . S
C166 C165 1.396 . S
H167 C162 0.929 . S
O168 Mn144 2.385 . S
O168 C146 1.234 . S
O169 Mn144 2.209 . S
O169 Mn145 2.215 . S
O169 C146 1.283 . S
O170 Mn144 2.094 . S
O170 C148 1.240 . S
O171 Mn145 2.117 . S
O171 C148 1.264 . S
C172 C165 1.403 . S
C172 C173 1.399 . S
C172 H178 0.929 . S
C173 C153 1.449 1_655 S
C173 C172 1.399 . S
C173 H179 0.930 . S
H174 C154 0.931 . S
H175 C155 0.930 . S
H176 C163 0.931 . S
H177 C164 0.929 . S
H178 C172 0.929 . S
H179 C173 0.930 . S
Mn180 O185 2.095 . S
Mn180 O195 2.162 . S
Mn180 O196 2.297 . S
Mn180 O204 2.385 . S
Mn180 O205 2.209 . S
Mn180 O206 2.094 . S
Mn181 O186 2.121 . S
Mn181 N188 2.257 . S
Mn181 N197 2.282 . S
Mn181 O205 2.215 . S
Mn181 O207 2.117 . S
C182 O204 1.234 . S
C182 O205 1.283 . S
C183 O195 1.281 . S
C183 O196 1.236 . S
C184 O206 1.240 . S
C184 O207 1.264 . S
O185 Mn180 2.095 . S
O185 C194 1.250 . S
O186 Mn181 2.121 . S
O186 C194 1.258 . S
C187 N188 1.326 . S
C187 C191 1.460 . S
C187 H193 0.929 . S
N188 Mn181 2.257 . S
N188 C187 1.326 . S
N188 C192 1.362 . S
C189 C190 1.258 . S
C189 C192 1.431 . S
C189 C209 1.449 . S
C190 C189 1.258 . S
C190 C191 1.477 . S
C190 H210 0.931 . S
C191 C187 1.460 . S
C191 C190 1.477 . S
C191 H211 0.930 . S
C192 N188 1.362 . S
C192 C189 1.431 . S
C192 C202 1.476 . S
H193 C187 0.929 . S
C194 O185 1.250 . S
C194 O186 1.258 . S
O195 Mn180 2.162 . S
O195 C183 1.281 . S
O196 Mn180 2.297 . S
O196 C183 1.236 . S
N197 Mn181 2.282 . S
N197 C198 1.328 . S
N197 C202 1.318 . S
C198 N197 1.328 . S
C198 C199 1.457 . S
C198 H203 0.929 . S
C199 C198 1.457 . S
C199 C200 1.291 . S
C199 H212 0.931 . S
C200 C199 1.291 . S
C200 C201 1.373 . S
C200 H213 0.929 . S
C201 C200 1.373 . S
C201 C202 1.396 . S
C201 C208 1.403 . S
C202 C192 1.476 . S
C202 N197 1.318 . S
C202 C201 1.396 . S
H203 C198 0.929 . S
O204 Mn180 2.385 . S
O204 C182 1.234 . S
O205 Mn180 2.209 . S
O205 Mn181 2.215 . S
O205 C182 1.283 . S
O206 Mn180 2.094 . S
O206 C184 1.240 . S
O207 Mn181 2.117 . S
O207 C184 1.264 . S
C208 C201 1.403 . S
C208 C209 1.399 . S
C208 H214 0.929 . S
C209 C189 1.449 . S
C209 C208 1.399 . S
C209 H215 0.930 . S
H210 C190 0.931 . S
H211 C191 0.930 . S
H212 C199 0.931 . S
H213 C200 0.929 . S
H214 C208 0.929 . S
H215 C209 0.930 . S
Mn216 O221 2.095 . S
Mn216 O231 2.162 . S
Mn216 O232 2.297 . S
Mn216 O240 2.385 . S
Mn216 O241 2.209 . S
Mn216 O242 2.094 . S
Mn217 O222 2.121 . S
Mn217 N224 2.257 . S
Mn217 N233 2.282 . S
Mn217 O241 2.215 . S
Mn217 O243 2.117 . S
C218 O240 1.234 . S
C218 O241 1.283 . S
C219 O231 1.281 . S
C219 O232 1.236 . S
C220 O242 1.240 . S
C220 O243 1.264 . S
O221 Mn216 2.095 . S
O221 C230 1.250 . S
O222 Mn217 2.121 . S
O222 C230 1.258 . S
C223 N224 1.326 . S
C223 C227 1.460 . S
C223 H229 0.929 . S
N224 Mn217 2.257 . S
N224 C223 1.326 . S
N224 C228 1.362 . S
C225 C226 1.258 . S
C225 C228 1.431 . S
C225 C245 1.449 . S
C226 C225 1.258 . S
C226 C227 1.477 . S
C226 H246 0.931 . S
C227 C223 1.460 . S
C227 C226 1.477 . S
C227 H247 0.930 . S
C228 N224 1.362 . S
C228 C225 1.431 . S
C228 C238 1.476 . S
H229 C223 0.929 . S
C230 O221 1.250 . S
C230 O222 1.258 . S
O231 Mn216 2.162 . S
O231 C219 1.281 . S
O232 Mn216 2.297 . S
O232 C219 1.236 . S
N233 Mn217 2.282 . S
N233 C234 1.328 . S
N233 C238 1.318 . S
C234 N233 1.328 . S
C234 C235 1.457 . S
C234 H239 0.929 . S
C235 C234 1.457 . S
C235 C236 1.291 . S
C235 H248 0.931 . S
C236 C235 1.291 . S
C236 C237 1.373 . S
C236 H249 0.929 . S
C237 C236 1.373 . S
C237 C238 1.396 . S
C237 C244 1.403 . S
C238 C228 1.476 . S
C238 N233 1.318 . S
C238 C237 1.396 . S
H239 C234 0.929 . S
O240 Mn216 2.385 . S
O240 C218 1.234 . S
O241 Mn216 2.209 . S
O241 Mn217 2.215 . S
O241 C218 1.283 . S
O242 Mn216 2.094 . S
O242 C220 1.240 . S
O243 Mn217 2.117 . S
O243 C220 1.264 . S
C244 C237 1.403 . S
C244 C245 1.399 . S
C244 H250 0.929 . S
C245 C225 1.449 . S
C245 C244 1.399 . S
C245 H251 0.930 . S
H246 C226 0.931 . S
H247 C227 0.930 . S
H248 C235 0.931 . S
H249 C236 0.929 . S
H250 C244 0.929 . S
H251 C245 0.930 . S
Mn252 O257 2.095 . S
Mn252 O267 2.162 . S
Mn252 O268 2.297 . S
Mn252 O276 2.385 1_455 S
Mn252 O277 2.209 1_455 S
Mn252 O278 2.094 . S
Mn253 O258 2.121 . S
Mn253 N260 2.256 . S
Mn253 N269 2.282 1_455 S
Mn253 O277 2.215 1_455 S
Mn253 O279 2.117 . S
C254 O276 1.234 . S
C254 O277 1.283 . S
C255 O267 1.281 . S
C255 O268 1.236 . S
C256 O278 1.240 . S
C256 O279 1.264 . S
O257 Mn252 2.095 . S
O257 C266 1.250 . S
O258 Mn253 2.121 . S
O258 C266 1.258 . S
C259 N260 1.323 . S
C259 C263 1.469 . S
C259 H265 0.929 . S
N260 Mn253 2.256 . S
N260 C259 1.323 . S
N260 C264 1.367 1_455 S
C261 C262 1.258 . S
C261 C264 1.431 . S
C261 C281 1.449 . S
C262 C261 1.258 . S
C262 C263 1.443 1_655 S
C262 H282 0.931 . S
C263 C259 1.469 . S
C263 C262 1.443 1_455 S
C263 H283 0.955 . S
C264 N260 1.367 1_655 S
C264 C261 1.431 . S
C264 C274 1.476 . S
H265 C259 0.929 . S
C266 O257 1.250 . S
C266 O258 1.258 . S
O267 Mn252 2.162 . S
O267 C255 1.281 . S
O268 Mn252 2.297 . S
O268 C255 1.236 . S
N269 Mn253 2.282 1_655 S
N269 C270 1.328 . S
N269 C274 1.318 . S
C270 N269 1.328 . S
C270 C271 1.457 . S
C270 H275 0.929 . S
C271 C270 1.457 . S
C271 C272 1.291 . S
C271 H284 0.931 . S
C272 C271 1.291 . S
C272 C273 1.373 . S
C272 H285 0.929 . S
C273 C272 1.373 . S
C273 C274 1.396 . S
C273 C280 1.403 . S
C274 C264 1.476 . S
C274 N269 1.318 . S
C274 C273 1.396 . S
H275 C270 0.929 . S
O276 Mn252 2.385 1_655 S
O276 C254 1.234 . S
O277 Mn252 2.209 1_655 S
O277 Mn253 2.215 1_655 S
O277 C254 1.283 . S
O278 Mn252 2.094 . S
O278 C256 1.240 . S
O279 Mn253 2.117 . S
O279 C256 1.264 . S
C280 C273 1.403 . S
C280 C281 1.399 . S
C280 H286 0.929 . S
C281 C261 1.449 . S
C281 C280 1.399 . S
C281 H287 0.930 . S
H282 C262 0.931 . S
H283 C263 0.955 . S
H284 C271 0.931 . S
H285 C272 0.929 . S
H286 C280 0.929 . S
H287 C281 0.930 . S
Mn288 O293 2.095 . S
Mn288 O303 2.162 . S
Mn288 O304 2.297 . S
Mn288 O312 2.385 1_545 S
Mn288 O313 2.209 . S
Mn288 O314 2.094 . S
Mn289 O294 2.121 . S
Mn289 N296 2.257 . S
Mn289 N305 2.282 1_545 S
Mn289 O313 2.215 . S
Mn289 O315 2.117 . S
C290 O312 1.234 . S
C290 O313 1.283 1_565 S
C291 O303 1.281 . S
C291 O304 1.236 . S
C292 O314 1.240 . S
C292 O315 1.264 . S
O293 Mn288 2.095 . S
O293 C302 1.250 . S
O294 Mn289 2.121 . S
O294 C302 1.258 . S
C295 N296 1.326 . S
C295 C299 1.460 . S
C295 H301 0.929 . S
N296 Mn289 2.257 . S
N296 C295 1.326 . S
N296 C300 1.362 1_545 S
C297 C298 1.258 . S
C297 C300 1.431 . S
C297 C317 1.449 . S
C298 C297 1.258 . S
C298 C299 1.477 1_565 S
C298 H318 0.931 . S
C299 C295 1.460 . S
C299 C298 1.477 1_545 S
C299 H319 0.930 . S
C300 N296 1.362 1_565 S
C300 C297 1.431 . S
C300 C310 1.476 . S
H301 C295 0.929 . S
C302 O293 1.250 . S
C302 O294 1.258 . S
O303 Mn288 2.162 . S
O303 C291 1.281 . S
O304 Mn288 2.297 . S
O304 C291 1.236 . S
N305 Mn289 2.282 1_565 S
N305 C306 1.328 . S
N305 C310 1.318 . S
C306 N305 1.328 . S
C306 C307 1.457 . S
C306 H311 0.929 . S
C307 C306 1.457 . S
C307 C308 1.291 . S
C307 H320 0.931 . S
C308 C307 1.291 . S
C308 C309 1.373 . S
C308 H321 0.929 . S
C309 C308 1.373 . S
C309 C310 1.396 . S
C309 C316 1.403 . S
C310 C300 1.476 . S
C310 N305 1.318 . S
C310 C309 1.396 . S
H311 C306 0.929 . S
O312 Mn288 2.385 1_565 S
O312 C290 1.234 . S
O313 Mn288 2.209 . S
O313 Mn289 2.215 . S
O313 C290 1.283 1_545 S
O314 Mn288 2.094 . S
O314 C292 1.240 . S
O315 Mn289 2.117 . S
O315 C292 1.264 . S
C316 C309 1.403 . S
C316 C317 1.399 . S
C316 H322 0.929 . S
C317 C297 1.449 . S
C317 C316 1.399 . S
C317 H323 0.930 . S
H318 C298 0.931 . S
H319 C299 0.930 . S
H320 C307 0.931 . S
H321 C308 0.929 . S
H322 C316 0.929 . S
H323 C317 0.930 . S
Mn324 O329 2.095 . S
Mn324 O339 2.162 . S
Mn324 O340 2.297 . S
Mn324 O348 2.385 . S
Mn324 O349 2.209 . S
Mn324 O350 2.094 . S
Mn325 O330 2.121 . S
Mn325 N332 2.257 . S
Mn325 N341 2.282 . S
Mn325 O349 2.215 . S
Mn325 O351 2.117 . S
C326 O348 1.234 . S
C326 O349 1.283 . S
C327 O339 1.281 . S
C327 O340 1.236 . S
C328 O350 1.240 . S
C328 O351 1.264 . S
O329 Mn324 2.095 . S
O329 C338 1.250 . S
O330 Mn325 2.121 . S
O330 C338 1.258 . S
C331 N332 1.326 . S
C331 C335 1.460 . S
C331 H337 0.929 . S
N332 Mn325 2.257 . S
N332 C331 1.326 . S
N332 C336 1.362 . S
C333 C334 1.258 . S
C333 C336 1.431 . S
C333 C353 1.449 . S
C334 C333 1.258 . S
C334 C335 1.477 . S
C334 H354 0.931 . S
C335 C331 1.460 . S
C335 C334 1.477 . S
C335 H355 0.930 . S
C336 N332 1.362 . S
C336 C333 1.431 . S
C336 C346 1.476 . S
H337 C331 0.929 . S
C338 O329 1.250 . S
C338 O330 1.258 . S
O339 Mn324 2.162 . S
O339 C327 1.281 . S
O340 Mn324 2.297 . S
O340 C327 1.236 . S
N341 Mn325 2.282 . S
N341 C342 1.328 . S
N341 C346 1.318 . S
C342 N341 1.328 . S
C342 C343 1.457 . S
C342 H347 0.929 . S
C343 C342 1.457 . S
C343 C344 1.291 . S
C343 H356 0.931 . S
C344 C343 1.291 . S
C344 C345 1.373 . S
C344 H357 0.929 . S
C345 C344 1.373 . S
C345 C346 1.396 . S
C345 C352 1.403 . S
C346 C336 1.476 . S
C346 N341 1.318 . S
C346 C345 1.396 . S
H347 C342 0.929 . S
O348 Mn324 2.385 . S
O348 C326 1.234 . S
O349 Mn324 2.209 . S
O349 Mn325 2.215 . S
O349 C326 1.283 . S
O350 Mn324 2.094 . S
O350 C328 1.240 . S
O351 Mn325 2.117 . S
O351 C328 1.264 . S
C352 C345 1.403 . S
C352 C353 1.399 . S
C352 H358 0.929 . S
C353 C333 1.449 . S
C353 C352 1.399 . S
C353 H359 0.930 . S
H354 C334 0.931 . S
H355 C335 0.930 . S
H356 C343 0.931 . S
H357 C344 0.929 . S
H358 C352 0.929 . S
H359 C353 0.930 . S
Mn360 O365 2.095 1_545 S
Mn360 O375 2.162 . S
Mn360 O376 2.297 . S
Mn360 O384 2.385 . S
Mn360 O385 2.209 . S
Mn360 O386 2.094 . S
Mn361 O366 2.121 . S
Mn361 N368 2.257 . S
Mn361 N377 2.282 . S
Mn361 O385 2.215 . S
Mn361 O387 2.117 . S
C362 O384 1.234 . S
C362 O385 1.283 . S
C363 O375 1.281 . S
C363 O376 1.236 . S
C364 O386 1.240 . S
C364 O387 1.264 . S
O365 Mn360 2.095 1_565 S
O365 C374 1.250 . S
O366 Mn361 2.121 . S
O366 C374 1.258 1_545 S
C367 N368 1.326 . S
C367 C371 1.460 . S
C367 H373 0.929 . S
N368 Mn361 2.257 . S
N368 C367 1.326 . S
N368 C372 1.362 . S
C369 C370 1.258 . S
C369 C372 1.431 . S
C369 C389 1.449 . S
C370 C369 1.258 . S
C370 C371 1.477 . S
C370 H390 0.931 . S
C371 C367 1.460 . S
C371 C370 1.477 . S
C371 H391 0.930 . S
C372 N368 1.362 . S
C372 C369 1.431 . S
C372 C382 1.476 . S
H373 C367 0.929 . S
C374 O365 1.250 . S
C374 O366 1.258 1_565 S
O375 Mn360 2.162 . S
O375 C363 1.281 . S
O376 Mn360 2.297 . S
O376 C363 1.236 . S
N377 Mn361 2.282 . S
N377 C378 1.328 . S
N377 C382 1.318 . S
C378 N377 1.328 . S
C378 C379 1.457 . S
C378 H383 0.929 . S
C379 C378 1.457 . S
C379 C380 1.291 . S
C379 H392 0.931 . S
C380 C379 1.291 . S
C380 C381 1.373 . S
C380 H393 0.929 . S
C381 C380 1.373 . S
C381 C382 1.396 . S
C381 C388 1.403 . S
C382 C372 1.476 . S
C382 N377 1.318 . S
C382 C381 1.396 . S
H383 C378 0.929 . S
O384 Mn360 2.385 . S
O384 C362 1.234 . S
O385 Mn360 2.209 . S
O385 Mn361 2.215 . S
O385 C362 1.283 . S
O386 Mn360 2.094 . S
O386 C364 1.240 . S
O387 Mn361 2.117 . S
O387 C364 1.264 . S
C388 C381 1.403 . S
C388 C389 1.399 . S
C388 H394 0.929 . S
C389 C369 1.449 . S
C389 C388 1.399 . S
C389 H395 0.930 . S
H390 C370 0.931 . S
H391 C371 0.930 . S
H392 C379 0.931 . S
H393 C380 0.929 . S
H394 C388 0.929 . S
H395 C389 0.930 . S
Mn396 O401 2.095 1_554 S
Mn396 O411 2.162 . S
Mn396 O412 2.297 . S
Mn396 O420 2.385 . S
Mn396 O421 2.213 . S
Mn396 O422 2.094 1_554 S
Mn397 O402 2.121 . S
Mn397 N404 2.257 . S
Mn397 N413 2.282 . S
Mn397 O421 2.198 1_556 S
Mn397 O423 2.117 . S
C398 O420 1.234 . S
C398 O421 1.286 . S
C399 O411 1.281 . S
C399 O412 1.236 . S
C400 O422 1.240 . S
C400 O423 1.264 . S
O401 Mn396 2.095 1_556 S
O401 C410 1.250 . S
O402 Mn397 2.121 . S
O402 C410 1.258 . S
C403 N404 1.326 . S
C403 C407 1.460 . S
C403 H409 0.929 . S
N404 Mn397 2.257 . S
N404 C403 1.326 . S
N404 C408 1.362 . S
C405 C406 1.258 . S
C405 C408 1.431 . S
C405 C425 1.449 . S
C406 C405 1.258 . S
C406 C407 1.477 . S
C406 H426 0.931 . S
C407 C403 1.460 . S
C407 C406 1.477 . S
C407 H427 0.939 . S
C408 N404 1.362 . S
C408 C405 1.431 . S
C408 C418 1.476 . S
H409 C403 0.929 . S
C410 O401 1.250 . S
C410 O402 1.258 . S
O411 Mn396 2.162 . S
O411 C399 1.281 . S
O412 Mn396 2.297 . S
O412 C399 1.236 . S
N413 Mn397 2.282 . S
N413 C414 1.328 . S
N413 C418 1.318 . S
C414 N413 1.328 . S
C414 C415 1.457 . S
C414 H419 0.929 . S
C415 C414 1.457 . S
C415 C416 1.291 . S
C415 H428 0.931 . S
C416 C415 1.291 . S
C416 C417 1.373 . S
C416 H429 0.929 . S
C417 C416 1.373 . S
C417 C418 1.396 . S
C417 C424 1.403 . S
C418 C408 1.476 . S
C418 N413 1.318 . S
C418 C417 1.396 . S
H419 C414 0.929 . S
O420 Mn396 2.385 . S
O420 C398 1.234 . S
O421 Mn396 2.213 . S
O421 Mn397 2.198 1_554 S
O421 C398 1.286 . S
O422 Mn396 2.094 1_556 S
O422 C400 1.240 . S
O423 Mn397 2.117 . S
O423 C400 1.264 . S
C424 C417 1.403 . S
C424 C425 1.399 . S
C424 H430 0.929 . S
C425 C405 1.449 . S
C425 C424 1.399 . S
C425 H431 0.930 . S
H426 C406 0.931 . S
H427 C407 0.939 . S
H428 C415 0.931 . S
H429 C416 0.929 . S
H430 C424 0.929 . S
H431 C425 0.930 . S
Mn432 O437 2.095 . S
Mn432 O447 2.162 . S
Mn432 O448 2.297 . S
Mn432 O456 2.385 . S
Mn432 O457 2.209 . S
Mn432 O458 2.102 . S
Mn433 O438 2.121 1_556 S
Mn433 N440 2.257 1_556 S
Mn433 N449 2.282 . S
Mn433 O457 2.215 1_556 S
Mn433 O459 2.117 . S
C434 O456 1.234 . S
C434 O457 1.283 . S
C435 O447 1.281 . S
C435 O448 1.236 . S
C436 O458 1.231 1_556 S
C436 O459 1.264 . S
O437 Mn432 2.095 . S
O437 C446 1.250 . S
O438 Mn433 2.121 1_554 S
O438 C446 1.258 . S
C439 N440 1.326 . S
C439 C443 1.460 . S
C439 H445 0.929 . S
N440 Mn433 2.257 1_554 S
N440 C439 1.326 . S
N440 C444 1.375 . S
C441 C442 1.258 . S
C441 C444 1.431 . S
C441 C461 1.449 1_554 S
C442 C441 1.258 . S
C442 C443 1.477 . S
C442 H462 0.931 . S
C443 C439 1.460 . S
C443 C442 1.477 . S
C443 H463 0.930 . S
C444 N440 1.375 . S
C444 C441 1.431 . S
C444 C454 1.466 1_554 S
H445 C439 0.929 . S
C446 O437 1.250 . S
C446 O438 1.258 . S
O447 Mn432 2.162 . S
O447 C435 1.281 . S
O448 Mn432 2.297 . S
O448 C435 1.236 . S
N449 Mn433 2.282 . S
N449 C450 1.328 . S
N449 C454 1.318 . S
C450 N449 1.328 . S
C450 C451 1.457 . S
C450 H455 0.929 . S
C451 C450 1.457 . S
C451 C452 1.291 . S
C451 H464 0.931 . S
C452 C451 1.291 . S
C452 C453 1.373 . S
C452 H465 0.929 . S
C453 C452 1.373 . S
C453 C454 1.396 . S
C453 C460 1.403 . S
C454 C444 1.466 1_556 S
C454 N449 1.318 . S
C454 C453 1.396 . S
H455 C450 0.929 . S
O456 Mn432 2.385 . S
O456 C434 1.234 . S
O457 Mn432 2.209 . S
O457 Mn433 2.215 1_554 S
O457 C434 1.283 . S
O458 Mn432 2.102 . S
O458 C436 1.231 1_554 S
O459 Mn433 2.117 . S
O459 C436 1.264 . S
C460 C453 1.403 . S
C460 C461 1.399 . S
C460 H466 0.929 . S
C461 C441 1.449 1_556 S
C461 C460 1.399 . S
C461 H467 0.930 . S
H462 C442 0.931 . S
H463 C443 0.930 . S
H464 C451 0.931 . S
H465 C452 0.929 . S
H466 C460 0.929 . S
H467 C461 0.930 . S
Mn468 O473 2.095 . S
Mn468 O483 2.162 . S
Mn468 O484 2.297 . S
Mn468 O492 2.385 . S
Mn468 O493 2.209 . S
Mn468 O494 2.094 . S
Mn469 O474 2.121 . S
Mn469 N476 2.257 . S
Mn469 N485 2.275 1_554 S
Mn469 O493 2.215 . S
Mn469 O495 2.117 . S
C470 O492 1.234 . S
C470 O493 1.283 . S
C471 O483 1.281 . S
C471 O484 1.236 . S
C472 O494 1.240 . S
C472 O495 1.264 . S
O473 Mn468 2.095 . S
O473 C482 1.250 . S
O474 Mn469 2.121 . S
O474 C482 1.258 . S
C475 N476 1.326 . S
C475 C479 1.460 . S
C475 H481 0.929 . S
N476 Mn469 2.257 . S
N476 C475 1.326 . S
N476 C480 1.362 . S
C477 C478 1.258 . S
C477 C480 1.431 . S
C477 C497 1.449 1_554 S
C478 C477 1.258 . S
C478 C479 1.477 . S
C478 H498 0.931 . S
C479 C475 1.460 . S
C479 C478 1.477 . S
C479 H499 0.930 . S
C480 N476 1.362 . S
C480 C477 1.431 . S
C480 C490 1.476 1_554 S
H481 C475 0.929 . S
C482 O473 1.250 . S
C482 O474 1.258 . S
O483 Mn468 2.162 . S
O483 C471 1.281 . S
O484 Mn468 2.297 . S
O484 C471 1.236 . S
N485 Mn469 2.275 1_556 S
N485 C486 1.335 . S
N485 C490 1.316 . S
C486 N485 1.335 . S
C486 C487 1.457 . S
C486 H491 0.929 . S
C487 C486 1.457 . S
C487 C488 1.291 . S
C487 H500 0.931 . S
C488 C487 1.291 . S
C488 C489 1.373 . S
C488 H501 0.929 . S
C489 C488 1.373 . S
C489 C490 1.396 . S
C489 C496 1.403 . S
C490 C480 1.476 1_556 S
C490 N485 1.316 . S
C490 C489 1.396 . S
H491 C486 0.929 . S
O492 Mn468 2.385 . S
O492 C470 1.234 . S
O493 Mn468 2.209 . S
O493 Mn469 2.215 . S
O493 C470 1.283 . S
O494 Mn468 2.094 . S
O494 C472 1.240 . S
O495 Mn469 2.117 . S
O495 C472 1.264 . S
C496 C489 1.403 . S
C496 C497 1.399 . S
C496 H502 0.929 . S
C497 C477 1.449 1_556 S
C497 C496 1.399 . S
C497 H503 0.930 . S
H498 C478 0.931 . S
H499 C479 0.930 . S
H500 C487 0.931 . S
H501 C488 0.929 . S
H502 C496 0.929 . S
H503 C497 0.930 . S
Mn504 O509 2.095 . S
Mn504 O519 2.162 . S
Mn504 O520 2.297 . S
Mn504 O528 2.385 . S
Mn504 O529 2.209 . S
Mn504 O530 2.094 . S
Mn505 O510 2.121 . S
Mn505 N512 2.257 . S
Mn505 N521 2.282 . S
Mn505 O529 2.215 . S
Mn505 O531 2.117 . S
C506 O528 1.234 . S
C506 O529 1.283 . S
C507 O519 1.281 . S
C507 O520 1.236 . S
C508 O530 1.240 . S
C508 O531 1.264 . S
O509 Mn504 2.095 . S
O509 C518 1.250 . S
O510 Mn505 2.121 . S
O510 C518 1.258 . S
C511 N512 1.326 . S
C511 C515 1.460 . S
C511 H517 0.929 . S
N512 Mn505 2.257 . S
N512 C511 1.326 . S
N512 C516 1.362 . S
C513 C514 1.258 . S
C513 C516 1.431 . S
C513 C533 1.449 . S
C514 C513 1.258 . S
C514 C515 1.477 . S
C514 H534 0.931 . S
C515 C511 1.460 . S
C515 C514 1.477 . S
C515 H535 0.930 . S
C516 N512 1.362 . S
C516 C513 1.431 . S
C516 C526 1.476 . S
H517 C511 0.929 . S
C518 O509 1.250 . S
C518 O510 1.258 . S
O519 Mn504 2.162 . S
O519 C507 1.281 . S
O520 Mn504 2.297 . S
O520 C507 1.236 . S
N521 Mn505 2.282 . S
N521 C522 1.328 . S
N521 C526 1.318 . S
C522 N521 1.328 . S
C522 C523 1.457 . S
C522 H527 0.929 . S
C523 C522 1.457 . S
C523 C524 1.291 . S
C523 H536 0.931 . S
C524 C523 1.291 . S
C524 C525 1.373 . S
C524 H537 0.929 . S
C525 C524 1.373 . S
C525 C526 1.396 . S
C525 C532 1.403 . S
C526 C516 1.476 . S
C526 N521 1.318 . S
C526 C525 1.396 . S
H527 C522 0.929 . S
O528 Mn504 2.385 . S
O528 C506 1.234 . S
O529 Mn504 2.209 . S
O529 Mn505 2.215 . S
O529 C506 1.283 . S
O530 Mn504 2.094 . S
O530 C508 1.240 . S
O531 Mn505 2.117 . S
O531 C508 1.264 . S
C532 C525 1.403 . S
C532 C533 1.399 . S
C532 H538 0.929 . S
C533 C513 1.449 . S
C533 C532 1.399 . S
C533 H539 0.930 . S
H534 C514 0.931 . S
H535 C515 0.930 . S
H536 C523 0.931 . S
H537 C524 0.929 . S
H538 C532 0.929 . S
H539 C533 0.930 . S
Mn540 O545 2.095 . S
Mn540 O555 2.162 . S
Mn540 O556 2.297 . S
Mn540 O564 2.385 . S
Mn540 O565 2.209 . S
Mn540 O566 2.094 . S
Mn541 O546 2.121 . S
Mn541 N548 2.257 . S
Mn541 N557 2.282 . S
Mn541 O565 2.215 . S
Mn541 O567 2.117 . S
C542 O564 1.234 . S
C542 O565 1.283 . S
C543 O555 1.281 . S
C543 O556 1.236 . S
C544 O566 1.240 . S
C544 O567 1.264 . S
O545 Mn540 2.095 . S
O545 C554 1.250 . S
O546 Mn541 2.121 . S
O546 C554 1.258 . S
C547 N548 1.326 . S
C547 C551 1.460 . S
C547 H553 0.929 . S
N548 Mn541 2.257 . S
N548 C547 1.326 . S
N548 C552 1.362 . S
C549 C550 1.258 . S
C549 C552 1.431 . S
C549 C569 1.449 . S
C550 C549 1.258 . S
C550 C551 1.477 . S
C550 H570 0.931 . S
C551 C547 1.460 . S
C551 C550 1.477 . S
C551 H571 0.930 . S
C552 N548 1.362 . S
C552 C549 1.431 . S
C552 C562 1.476 . S
H553 C547 0.929 . S
C554 O545 1.250 . S
C554 O546 1.258 . S
O555 Mn540 2.162 . S
O555 C543 1.281 . S
O556 Mn540 2.297 . S
O556 C543 1.236 . S
N557 Mn541 2.282 . S
N557 C558 1.328 . S
N557 C562 1.318 . S
C558 N557 1.328 . S
C558 C559 1.457 . S
C558 H563 0.929 . S
C559 C558 1.457 . S
C559 C560 1.291 . S
C559 H572 0.931 . S
C560 C559 1.291 . S
C560 C561 1.373 . S
C560 H573 0.929 . S
C561 C560 1.373 . S
C561 C562 1.396 . S
C561 C568 1.403 . S
C562 C552 1.476 . S
C562 N557 1.318 . S
C562 C561 1.396 . S
H563 C558 0.929 . S
O564 Mn540 2.385 . S
O564 C542 1.234 . S
O565 Mn540 2.209 . S
O565 Mn541 2.215 . S
O565 C542 1.283 . S
O566 Mn540 2.094 . S
O566 C544 1.240 . S
O567 Mn541 2.117 . S
O567 C544 1.264 . S
C568 C561 1.403 . S
C568 C569 1.399 . S
C568 H574 0.929 . S
C569 C549 1.449 . S
C569 C568 1.399 . S
C569 H575 0.930 . S
H570 C550 0.931 . S
H571 C551 0.930 . S
H572 C559 0.931 . S
H573 C560 0.929 . S
H574 C568 0.929 . S
H575 C569 0.930 . S
Mn576 O581 2.095 . S
Mn576 O591 2.162 . S
Mn576 O592 2.298 1_545 S
Mn576 O600 2.385 1_545 S
Mn576 O601 2.209 1_545 S
Mn576 O602 2.094 . S
Mn577 O582 2.123 . S
Mn577 N584 2.257 1_545 S
Mn577 N593 2.280 1_545 S
Mn577 O601 2.214 1_545 S
Mn577 O603 2.117 . S
C578 O600 1.234 . S
C578 O601 1.283 . S
C579 O591 1.281 . S
C579 O592 1.236 1_545 S
C580 O602 1.240 . S
C580 O603 1.264 . S
O581 Mn576 2.095 . S
O581 C590 1.250 . S
O582 Mn577 2.123 . S
O582 C590 1.258 . S
C583 N584 1.326 . S
C583 C587 1.460 . S
C583 H589 0.929 1_565 S
N584 Mn577 2.257 1_565 S
N584 C583 1.326 . S
N584 C588 1.362 . S
C585 C586 1.258 . S
C585 C588 1.431 . S
C585 C605 1.449 . S
C586 C585 1.258 . S
C586 C587 1.477 . S
C586 H606 0.931 . S
C587 C583 1.460 . S
C587 C586 1.477 . S
C587 H607 0.930 . S
C588 N584 1.362 . S
C588 C585 1.431 . S
C588 C598 1.476 . S
H589 C583 0.929 1_545 S
C590 O581 1.250 . S
C590 O582 1.258 . S
O591 Mn576 2.162 . S
O591 C579 1.281 . S
O592 Mn576 2.298 1_565 S
O592 C579 1.236 1_565 S
N593 Mn577 2.280 1_565 S
N593 C594 1.328 . S
N593 C598 1.318 . S
C594 N593 1.328 . S
C594 C595 1.457 . S
C594 H599 0.929 . S
C595 C594 1.457 . S
C595 C596 1.291 . S
C595 H608 0.931 . S
C596 C595 1.291 . S
C596 C597 1.373 . S
C596 H609 0.929 . S
C597 C596 1.373 . S
C597 C598 1.396 . S
C597 C604 1.403 . S
C598 C588 1.476 . S
C598 N593 1.318 . S
C598 C597 1.396 . S
H599 C594 0.929 . S
O600 Mn576 2.385 1_565 S
O600 C578 1.234 . S
O601 Mn576 2.209 1_565 S
O601 Mn577 2.214 1_565 S
O601 C578 1.283 . S
O602 Mn576 2.094 . S
O602 C580 1.240 . S
O603 Mn577 2.117 . S
O603 C580 1.264 . S
C604 C597 1.403 . S
C604 C605 1.399 . S
C604 H610 0.929 . S
C605 C585 1.449 . S
C605 C604 1.399 . S
C605 H611 0.930 . S
H606 C586 0.931 . S
H607 C587 0.930 . S
H608 C595 0.931 . S
H609 C596 0.929 . S
H610 C604 0.929 . S
H611 C605 0.930 . S
Mn612 O617 2.095 . S
Mn612 O627 2.162 . S
Mn612 O628 2.297 . S
Mn612 O636 2.385 . S
Mn612 O637 2.209 . S
Mn612 O638 2.094 . S
Mn613 O618 2.121 . S
Mn613 N620 2.257 . S
Mn613 N629 2.282 . S
Mn613 O637 2.215 . S
Mn613 O639 2.117 . S
C614 O636 1.234 . S
C614 O637 1.283 . S
C615 O627 1.281 . S
C615 O628 1.236 . S
C616 O638 1.240 . S
C616 O639 1.264 . S
O617 Mn612 2.095 . S
O617 C626 1.250 . S
O618 Mn613 2.121 . S
O618 C626 1.258 . S
C619 N620 1.326 . S
C619 C623 1.460 . S
C619 H625 0.929 . S
N620 Mn613 2.257 . S
N620 C619 1.326 . S
N620 C624 1.362 . S
C621 C622 1.258 . S
C621 C624 1.431 . S
C621 C641 1.449 . S
C622 C621 1.258 . S
C622 C623 1.477 . S
C622 H642 0.931 . S
C623 C619 1.460 . S
C623 C622 1.477 . S
C623 H643 0.930 . S
C624 N620 1.362 . S
C624 C621 1.431 . S
C624 C634 1.476 . S
H625 C619 0.929 . S
C626 O617 1.250 . S
C626 O618 1.258 . S
O627 Mn612 2.162 . S
O627 C615 1.281 . S
O628 Mn612 2.297 . S
O628 C615 1.236 . S
N629 Mn613 2.282 . S
N629 C630 1.328 . S
N629 C634 1.318 . S
C630 N629 1.328 . S
C630 C631 1.457 . S
C630 H635 0.929 . S
C631 C630 1.457 . S
C631 C632 1.291 . S
C631 H644 0.931 . S
C632 C631 1.291 . S
C632 C633 1.373 . S
C632 H645 0.929 . S
C633 C632 1.373 . S
C633 C634 1.396 . S
C633 C640 1.403 . S
C634 C624 1.476 . S
C634 N629 1.318 . S
C634 C633 1.396 . S
H635 C630 0.929 . S
O636 Mn612 2.385 . S
O636 C614 1.234 . S
O637 Mn612 2.209 . S
O637 Mn613 2.215 . S
O637 C614 1.283 . S
O638 Mn612 2.094 . S
O638 C616 1.240 . S
O639 Mn613 2.117 . S
O639 C616 1.264 . S
C640 C633 1.403 . S
C640 C641 1.399 . S
C640 H646 0.929 . S
C641 C621 1.449 . S
C641 C640 1.399 . S
C641 H647 0.930 . S
H642 C622 0.931 . S
H643 C623 0.930 . S
H644 C631 0.931 . S
H645 C632 0.929 . S
H646 C640 0.929 . S
H647 C641 0.930 . S
Mn648 O653 2.095 . S
Mn648 O663 2.162 . S
Mn648 O664 2.297 . S
Mn648 O672 2.385 . S
Mn648 O673 2.209 . S
Mn648 O674 2.094 . S
Mn649 O654 2.121 . S
Mn649 N656 2.257 . S
Mn649 N665 2.282 . S
Mn649 O673 2.215 . S
Mn649 O675 2.117 . S
C650 O672 1.234 . S
C650 O673 1.283 . S
C651 O663 1.281 . S
C651 O664 1.236 . S
C652 O674 1.240 . S
C652 O675 1.264 . S
O653 Mn648 2.095 . S
O653 C662 1.250 . S
O654 Mn649 2.121 . S
O654 C662 1.258 . S
C655 N656 1.326 . S
C655 C659 1.460 . S
C655 H661 0.929 . S
N656 Mn649 2.257 . S
N656 C655 1.326 . S
N656 C660 1.362 . S
C657 C658 1.258 . S
C657 C660 1.431 . S
C657 C677 1.449 . S
C658 C657 1.258 . S
C658 C659 1.477 . S
C658 H678 0.931 . S
C659 C655 1.460 . S
C659 C658 1.477 . S
C659 H679 0.930 . S
C660 N656 1.362 . S
C660 C657 1.431 . S
C660 C670 1.476 . S
H661 C655 0.929 . S
C662 O653 1.250 . S
C662 O654 1.258 . S
O663 Mn648 2.162 . S
O663 C651 1.281 . S
O664 Mn648 2.297 . S
O664 C651 1.236 . S
N665 Mn649 2.282 . S
N665 C666 1.328 . S
N665 C670 1.318 . S
C666 N665 1.328 . S
C666 C667 1.457 . S
C666 H671 0.929 . S
C667 C666 1.457 . S
C667 C668 1.291 . S
C667 H680 0.931 . S
C668 C667 1.291 . S
C668 C669 1.373 . S
C668 H681 0.929 . S
C669 C668 1.373 . S
C669 C670 1.396 . S
C669 C676 1.403 . S
C670 C660 1.476 . S
C670 N665 1.318 . S
C670 C669 1.396 . S
H671 C666 0.929 . S
O672 Mn648 2.385 . S
O672 C650 1.234 . S
O673 Mn648 2.209 . S
O673 Mn649 2.215 . S
O673 C650 1.283 . S
O674 Mn648 2.094 . S
O674 C652 1.240 . S
O675 Mn649 2.117 . S
O675 C652 1.264 . S
C676 C669 1.403 . S
C676 C677 1.399 . S
C676 H682 0.929 . S
C677 C657 1.449 . S
C677 C676 1.399 . S
C677 H683 0.930 . S
H678 C658 0.931 . S
H679 C659 0.930 . S
H680 C667 0.931 . S
H681 C668 0.929 . S
H682 C676 0.929 . S
H683 C677 0.930 . S
Mn684 O689 2.095 1_545 S
Mn684 O699 2.162 . S
Mn684 O700 2.297 . S
Mn684 O708 2.385 . S
Mn684 O709 2.209 . S
Mn684 O710 2.094 . S
Mn685 O690 2.121 1_545 S
Mn685 N692 2.257 . S
Mn685 N701 2.282 . S
Mn685 O709 2.215 . S
Mn685 O711 2.117 . S
C686 O708 1.234 . S
C686 O709 1.283 . S
C687 O699 1.281 . S
C687 O700 1.236 . S
C688 O710 1.240 . S
C688 O711 1.264 . S
O689 Mn684 2.095 1_565 S
O689 C698 1.250 . S
O690 Mn685 2.121 1_565 S
O690 C698 1.258 . S
C691 N692 1.326 . S
C691 C695 1.460 . S
C691 H697 0.929 . S
N692 Mn685 2.257 . S
N692 C691 1.326 . S
N692 C696 1.362 . S
C693 C694 1.258 . S
C693 C696 1.431 . S
C693 C713 1.449 . S
C694 C693 1.258 . S
C694 C695 1.477 . S
C694 H714 0.931 . S
C695 C691 1.460 . S
C695 C694 1.477 . S
C695 H715 0.930 . S
C696 N692 1.362 . S
C696 C693 1.431 . S
C696 C706 1.476 . S
H697 C691 0.929 . S
C698 O689 1.250 . S
C698 O690 1.258 . S
O699 Mn684 2.162 . S
O699 C687 1.281 . S
O700 Mn684 2.297 . S
O700 C687 1.236 . S
N701 Mn685 2.282 . S
N701 C702 1.328 . S
N701 C706 1.318 . S
C702 N701 1.328 . S
C702 C703 1.457 . S
C702 H707 0.929 . S
C703 C702 1.457 . S
C703 C704 1.291 . S
C703 H716 0.931 . S
C704 C703 1.291 . S
C704 C705 1.373 . S
C704 H717 0.929 . S
C705 C704 1.373 . S
C705 C706 1.396 . S
C705 C712 1.403 . S
C706 C696 1.476 . S
C706 N701 1.318 . S
C706 C705 1.396 . S
H707 C702 0.929 . S
O708 Mn684 2.385 . S
O708 C686 1.234 . S
O709 Mn684 2.209 . S
O709 Mn685 2.215 . S
O709 C686 1.283 . S
O710 Mn684 2.094 . S
O710 C688 1.240 . S
O711 Mn685 2.117 . S
O711 C688 1.264 . S
C712 C705 1.403 . S
C712 C713 1.399 . S
C712 H718 0.929 . S
C713 C693 1.449 . S
C713 C712 1.399 . S
C713 H719 0.930 . S
H714 C694 0.931 . S
H715 C695 0.930 . S
H716 C703 0.931 . S
H717 C704 0.929 . S
H718 C712 0.929 . S
H719 C713 0.930 . S
Mn720 O725 2.095 . S
Mn720 O735 2.162 . S
Mn720 O736 2.297 . S
Mn720 O744 2.385 . S
Mn720 O745 2.209 . S
Mn720 O746 2.094 . S
Mn721 O726 2.121 1_556 S
Mn721 N728 2.257 . S
Mn721 N737 2.282 . S
Mn721 O745 2.215 1_556 S
Mn721 O747 2.117 . S
C722 O744 1.234 . S
C722 O745 1.283 . S
C723 O735 1.281 . S
C723 O736 1.236 . S
C724 O746 1.240 1_556 S
C724 O747 1.264 . S
O725 Mn720 2.095 . S
O725 C734 1.250 . S
O726 Mn721 2.121 1_554 S
O726 C734 1.258 . S
C727 N728 1.326 . S
C727 C731 1.460 . S
C727 H733 0.929 1_556 S
N728 Mn721 2.257 . S
N728 C727 1.326 . S
N728 C732 1.362 . S
C729 C730 1.258 . S
C729 C732 1.431 . S
C729 C749 1.449 . S
C730 C729 1.258 . S
C730 C731 1.477 . S
C730 H750 0.931 . S
C731 C727 1.460 . S
C731 C730 1.477 . S
C731 H751 0.930 1_556 S
C732 N728 1.362 . S
C732 C729 1.431 . S
C732 C742 1.476 . S
H733 C727 0.929 1_554 S
C734 O725 1.250 . S
C734 O726 1.258 . S
O735 Mn720 2.162 . S
O735 C723 1.281 . S
O736 Mn720 2.297 . S
O736 C723 1.236 . S
N737 Mn721 2.282 . S
N737 C738 1.328 . S
N737 C742 1.318 . S
C738 N737 1.328 . S
C738 C739 1.457 . S
C738 H743 0.929 . S
C739 C738 1.457 . S
C739 C740 1.291 . S
C739 H752 0.931 . S
C740 C739 1.291 . S
C740 C741 1.373 . S
C740 H753 0.929 . S
C741 C740 1.373 . S
C741 C742 1.396 . S
C741 C748 1.403 . S
C742 C732 1.476 . S
C742 N737 1.318 . S
C742 C741 1.396 . S
H743 C738 0.929 . S
O744 Mn720 2.385 . S
O744 C722 1.234 . S
O745 Mn720 2.209 . S
O745 Mn721 2.215 1_554 S
O745 C722 1.283 . S
O746 Mn720 2.094 . S
O746 C724 1.240 1_554 S
O747 Mn721 2.117 . S
O747 C724 1.264 . S
C748 C741 1.403 . S
C748 C749 1.399 . S
C748 H754 0.929 . S
C749 C729 1.449 . S
C749 C748 1.399 . S
C749 H755 0.930 . S
H750 C730 0.931 . S
H751 C731 0.930 1_554 S
H752 C739 0.931 . S
H753 C740 0.929 . S
H754 C748 0.929 . S
H755 C749 0.930 . S
Mn756 O761 2.095 . S
Mn756 O771 2.162 . S
Mn756 O772 2.297 . S
Mn756 O780 2.385 . S
Mn756 O781 2.209 . S
Mn756 O782 2.094 . S
Mn757 O762 2.121 . S
Mn757 N764 2.257 . S
Mn757 N773 2.282 . S
Mn757 O781 2.215 . S
Mn757 O783 2.117 . S
C758 O780 1.234 . S
C758 O781 1.283 . S
C759 O771 1.281 . S
C759 O772 1.236 . S
C760 O782 1.240 . S
C760 O783 1.264 . S
O761 Mn756 2.095 . S
O761 C770 1.250 . S
O762 Mn757 2.121 . S
O762 C770 1.258 . S
C763 N764 1.326 . S
C763 C767 1.460 . S
C763 H769 0.929 . S
N764 Mn757 2.257 . S
N764 C763 1.326 . S
N764 C768 1.362 . S
C765 C766 1.258 . S
C765 C768 1.431 . S
C765 C785 1.449 . S
C766 C765 1.258 . S
C766 C767 1.477 . S
C766 H786 0.931 . S
C767 C763 1.460 . S
C767 C766 1.477 . S
C767 H787 0.930 . S
C768 N764 1.362 . S
C768 C765 1.431 . S
C768 C778 1.476 . S
H769 C763 0.929 . S
C770 O761 1.250 . S
C770 O762 1.258 . S
O771 Mn756 2.162 . S
O771 C759 1.281 . S
O772 Mn756 2.297 . S
O772 C759 1.236 . S
N773 Mn757 2.282 . S
N773 C774 1.328 . S
N773 C778 1.318 . S
C774 N773 1.328 . S
C774 C775 1.457 . S
C774 H779 0.929 . S
C775 C774 1.457 . S
C775 C776 1.291 . S
C775 H788 0.931 . S
C776 C775 1.291 . S
C776 C777 1.373 . S
C776 H789 0.929 . S
C777 C776 1.373 . S
C777 C778 1.396 . S
C777 C784 1.403 . S
C778 C768 1.476 . S
C778 N773 1.318 . S
C778 C777 1.396 . S
H779 C774 0.929 . S
O780 Mn756 2.385 . S
O780 C758 1.234 . S
O781 Mn756 2.209 . S
O781 Mn757 2.215 . S
O781 C758 1.283 . S
O782 Mn756 2.094 . S
O782 C760 1.240 . S
O783 Mn757 2.117 . S
O783 C760 1.264 . S
C784 C777 1.403 . S
C784 C785 1.399 . S
C784 H790 0.929 . S
C785 C765 1.449 . S
C785 C784 1.399 . S
C785 H791 0.930 . S
H786 C766 0.931 . S
H787 C767 0.930 . S
H788 C775 0.931 . S
H789 C776 0.929 . S
H790 C784 0.929 . S
H791 C785 0.930 . S
Mn792 O797 2.095 . S
Mn792 O807 2.162 . S
Mn792 O808 2.297 . S
Mn792 O816 2.385 . S
Mn792 O817 2.209 . S
Mn792 O818 2.094 . S
Mn793 O798 2.121 . S
Mn793 N800 2.257 . S
Mn793 N809 2.282 . S
Mn793 O817 2.215 . S
Mn793 O819 2.117 . S
C794 O816 1.234 . S
C794 O817 1.283 . S
C795 O807 1.281 . S
C795 O808 1.236 . S
C796 O818 1.240 . S
C796 O819 1.264 . S
O797 Mn792 2.095 . S
O797 C806 1.250 . S
O798 Mn793 2.121 . S
O798 C806 1.258 . S
C799 N800 1.326 . S
C799 C803 1.460 . S
C799 H805 0.929 . S
N800 Mn793 2.257 . S
N800 C799 1.326 . S
N800 C804 1.362 . S
C801 C802 1.258 . S
C801 C804 1.431 . S
C801 C821 1.449 . S
C802 C801 1.258 . S
C802 C803 1.477 . S
C802 H822 0.931 . S
C803 C799 1.460 . S
C803 C802 1.477 . S
C803 H823 0.930 . S
C804 N800 1.362 . S
C804 C801 1.431 . S
C804 C814 1.476 . S
H805 C799 0.929 . S
C806 O797 1.250 . S
C806 O798 1.258 . S
O807 Mn792 2.162 . S
O807 C795 1.281 . S
O808 Mn792 2.297 . S
O808 C795 1.236 . S
N809 Mn793 2.282 . S
N809 C810 1.328 . S
N809 C814 1.318 . S
C810 N809 1.328 . S
C810 C811 1.457 . S
C810 H815 0.929 . S
C811 C810 1.457 . S
C811 C812 1.291 . S
C811 H824 0.931 . S
C812 C811 1.291 . S
C812 C813 1.373 . S
C812 H825 0.929 . S
C813 C812 1.373 . S
C813 C814 1.396 . S
C813 C820 1.403 . S
C814 C804 1.476 . S
C814 N809 1.318 . S
C814 C813 1.396 . S
H815 C810 0.929 . S
O816 Mn792 2.385 . S
O816 C794 1.234 . S
O817 Mn792 2.209 . S
O817 Mn793 2.215 . S
O817 C794 1.283 . S
O818 Mn792 2.094 . S
O818 C796 1.240 . S
O819 Mn793 2.117 . S
O819 C796 1.264 . S
C820 C813 1.403 . S
C820 C821 1.399 . S
C820 H826 0.929 . S
C821 C801 1.449 . S
C821 C820 1.399 . S
C821 H827 0.930 . S
H822 C802 0.931 . S
H823 C803 0.930 . S
H824 C811 0.931 . S
H825 C812 0.929 . S
H826 C820 0.929 . S
H827 C821 0.930 . S
Mn828 O833 2.095 . S
Mn828 O843 2.162 . S
Mn828 O844 2.297 . S
Mn828 O852 2.385 . S
Mn828 O853 2.209 . S
Mn828 O854 2.094 . S
Mn829 O834 2.121 . S
Mn829 N836 2.257 . S
Mn829 N845 2.282 . S
Mn829 O853 2.215 . S
Mn829 O855 2.117 . S
C830 O852 1.234 . S
C830 O853 1.283 . S
C831 O843 1.281 . S
C831 O844 1.236 . S
C832 O854 1.240 . S
C832 O855 1.264 . S
O833 Mn828 2.095 . S
O833 C842 1.250 . S
O834 Mn829 2.121 . S
O834 C842 1.258 . S
C835 N836 1.326 . S
C835 C839 1.460 . S
C835 H841 0.929 . S
N836 Mn829 2.257 . S
N836 C835 1.326 . S
N836 C840 1.362 . S
C837 C838 1.258 . S
C837 C840 1.431 . S
C837 C857 1.449 . S
C838 C837 1.258 . S
C838 C839 1.477 . S
C838 H858 0.931 . S
C839 C835 1.460 . S
C839 C838 1.477 . S
C839 H859 0.930 . S
C840 N836 1.362 . S
C840 C837 1.431 . S
C840 C850 1.476 . S
H841 C835 0.929 . S
C842 O833 1.250 . S
C842 O834 1.258 . S
O843 Mn828 2.162 . S
O843 C831 1.281 . S
O844 Mn828 2.297 . S
O844 C831 1.236 . S
N845 Mn829 2.282 . S
N845 C846 1.328 . S
N845 C850 1.318 . S
C846 N845 1.328 . S
C846 C847 1.457 . S
C846 H851 0.929 . S
C847 C846 1.457 . S
C847 C848 1.291 . S
C847 H860 0.931 . S
C848 C847 1.291 . S
C848 C849 1.373 . S
C848 H861 0.929 . S
C849 C848 1.373 . S
C849 C850 1.396 . S
C849 C856 1.403 . S
C850 C840 1.476 . S
C850 N845 1.318 . S
C850 C849 1.396 . S
H851 C846 0.929 . S
O852 Mn828 2.385 . S
O852 C830 1.234 . S
O853 Mn828 2.209 . S
O853 Mn829 2.215 . S
O853 C830 1.283 . S
O854 Mn828 2.094 . S
O854 C832 1.240 . S
O855 Mn829 2.117 . S
O855 C832 1.264 . S
C856 C849 1.403 . S
C856 C857 1.399 . S
C856 H862 0.929 . S
C857 C837 1.449 . S
C857 C856 1.399 . S
C857 H863 0.930 . S
H858 C838 0.931 . S
H859 C839 0.930 . S
H860 C847 0.931 . S
H861 C848 0.929 . S
H862 C856 0.929 . S
H863 C857 0.930 . S
Tb864 C866 2.818 . S
Tb864 O884 2.493 . S
Tb864 O885 2.449 1_554 S
Tb864 O886 2.647 1_655 S
Tb864 O887 2.403 1_644 S
Tb864 O888 2.375 1_655 S
Tb864 O892 2.320 1_655 S
Tb864 O895 2.336 1_645 S
Tb865 C875 2.809 1_545 S
Tb865 O886 2.325 . S
Tb865 O889 2.341 . S
Tb865 O890 2.484 1_545 S
Tb865 O891 2.440 . S
Tb865 O892 2.658 . S
Tb865 O893 2.409 . S
Tb865 O894 2.378 1_545 S
C866 Tb864 2.818 . S
C866 C867 1.514 . S
C866 O884 1.248 . S
C866 O885 1.266 1_554 S
C867 C866 1.514 . S
C867 C868 1.359 . S
C867 C872 1.348 1_554 S
C868 C867 1.359 . S
C868 C869 1.380 . S
C868 H896 0.929 . S
C869 C868 1.380 . S
C869 C870 1.347 1_554 S
C869 H897 0.931 . S
C870 C869 1.347 1_556 S
C870 C871 1.369 . S
C871 C870 1.369 . S
C871 C872 1.408 . S
C871 H898 0.930 . S
C872 C867 1.348 1_556 S
C872 C871 1.408 . S
C872 H899 0.930 . S
C873 O886 1.281 1_556 S
C873 O887 1.258 1_545 S
C874 O888 1.236 . S
C874 O889 1.266 . S
C875 Tb865 2.809 1_565 S
C875 C876 1.514 . S
C875 O890 1.248 . S
C875 O891 1.266 1_565 S
C876 C875 1.514 . S
C876 C877 1.359 . S
C876 C881 1.348 . S
C877 C876 1.359 . S
C877 C878 1.380 . S
C877 H900 0.929 . S
C878 C877 1.380 . S
C878 C879 1.347 . S
C878 H901 0.931 . S
C879 C878 1.347 . S
C879 C880 1.369 . S
C880 C879 1.369 . S
C880 C881 1.408 . S
C880 H902 0.930 . S
C881 C876 1.348 . S
C881 C880 1.408 . S
C881 H903 0.930 . S
C882 O892 1.281 . S
C882 O893 1.254 . S
C883 O894 1.236 . S
C883 O895 1.266 . S
O884 Tb864 2.493 . S
O884 C866 1.248 . S
O885 Tb864 2.449 1_556 S
O885 C866 1.266 1_556 S
O886 Tb864 2.647 1_455 S
O886 Tb865 2.325 . S
O886 C873 1.281 1_554 S
O887 Tb864 2.403 1_466 S
O887 C873 1.258 1_565 S
O888 Tb864 2.375 1_455 S
O888 C874 1.236 . S
O889 Tb865 2.341 . S
O889 C874 1.266 . S
O890 Tb865 2.484 1_565 S
O890 C875 1.248 . S
O891 Tb865 2.440 . S
O891 C875 1.266 1_545 S
O892 Tb864 2.320 1_455 S
O892 Tb865 2.658 . S
O892 C882 1.281 . S
O893 Tb865 2.409 . S
O893 C882 1.254 . S
O894 Tb865 2.378 1_565 S
O894 C883 1.236 . S
O895 Tb864 2.336 1_465 S
O895 C883 1.266 . S
H896 C868 0.929 . S
H897 C869 0.931 . S
H898 C871 0.930 . S
H899 C872 0.930 . S
H900 C877 0.929 . S
H901 C878 0.931 . S
H902 C880 0.930 . S
H903 C881 0.930 . S
Tb904 C906 2.809 . S
Tb904 O924 2.484 . S
Tb904 O925 2.440 . S
Tb904 O926 2.658 . S
Tb904 O927 2.409 . S
Tb904 O928 2.378 . S
Tb904 O932 2.325 . S
Tb904 O935 2.341 . S
Tb905 C915 2.809 . S
Tb905 O926 2.325 . S
Tb905 O929 2.341 . S
Tb905 O930 2.484 . S
Tb905 O931 2.440 . S
Tb905 O932 2.658 . S
Tb905 O933 2.409 . S
Tb905 O934 2.378 . S
C906 Tb904 2.809 . S
C906 C907 1.514 . S
C906 O924 1.248 . S
C906 O925 1.266 . S
C907 C906 1.514 . S
C907 C908 1.359 . S
C907 C912 1.348 . S
C908 C907 1.359 . S
C908 C909 1.380 . S
C908 H936 0.929 . S
C909 C908 1.380 . S
C909 C910 1.347 . S
C909 H937 0.931 . S
C910 C909 1.347 . S
C910 C911 1.369 . S
C911 C910 1.369 . S
C911 C912 1.408 . S
C911 H938 0.930 . S
C912 C907 1.348 . S
C912 C911 1.408 . S
C912 H939 0.930 . S
C913 O926 1.281 . S
C913 O927 1.254 . S
C914 O928 1.236 . S
C914 O929 1.266 . S
C915 Tb905 2.809 . S
C915 C916 1.514 . S
C915 O930 1.248 . S
C915 O931 1.266 . S
C916 C915 1.514 . S
C916 C917 1.359 . S
C916 C921 1.348 . S
C917 C916 1.359 . S
C917 C918 1.380 . S
C917 H940 0.929 . S
C918 C917 1.380 . S
C918 C919 1.347 . S
C918 H941 0.931 . S
C919 C918 1.347 . S
C919 C920 1.369 . S
C920 C919 1.369 . S
C920 C921 1.408 . S
C920 H942 0.930 . S
C921 C916 1.348 . S
C921 C920 1.408 . S
C921 H943 0.930 . S
C922 O932 1.281 . S
C922 O933 1.254 . S
C923 O934 1.236 . S
C923 O935 1.266 . S
O924 Tb904 2.484 . S
O924 C906 1.248 . S
O925 Tb904 2.440 . S
O925 C906 1.266 . S
O926 Tb904 2.658 . S
O926 Tb905 2.325 . S
O926 C913 1.281 . S
O927 Tb904 2.409 . S
O927 C913 1.254 . S
O928 Tb904 2.378 . S
O928 C914 1.236 . S
O929 Tb905 2.341 . S
O929 C914 1.266 . S
O930 Tb905 2.484 . S
O930 C915 1.248 . S
O931 Tb905 2.440 . S
O931 C915 1.266 . S
O932 Tb904 2.325 . S
O932 Tb905 2.658 . S
O932 C922 1.281 . S
O933 Tb905 2.409 . S
O933 C922 1.254 . S
O934 Tb905 2.378 . S
O934 C923 1.236 . S
O935 Tb904 2.341 . S
O935 C923 1.266 . S
H936 C908 0.929 . S
H937 C909 0.931 . S
H938 C911 0.930 . S
H939 C912 0.930 . S
H940 C917 0.929 . S
H941 C918 0.931 . S
H942 C920 0.930 . S
H943 C921 0.930 . S
Tb944 C946 2.809 . S
Tb944 O964 2.484 . S
Tb944 O965 2.440 . S
Tb944 O966 2.658 . S
Tb944 O967 2.409 . S
Tb944 O968 2.378 1_545 S
Tb944 O972 2.325 . S
Tb944 O975 2.341 . S
Tb945 C955 2.809 . S
Tb945 O966 2.325 . S
Tb945 O969 2.341 1_545 S
Tb945 O970 2.484 . S
Tb945 O971 2.440 . S
Tb945 O972 2.658 . S
Tb945 O973 2.409 . S
Tb945 O974 2.378 . S
C946 Tb944 2.809 . S
C946 C947 1.514 1_545 S
C946 O964 1.248 . S
C946 O965 1.266 . S
C947 C946 1.514 1_565 S
C947 C948 1.359 . S
C947 C952 1.348 . S
C948 C947 1.359 . S
C948 C949 1.380 . S
C948 H976 0.929 . S
C949 C948 1.380 . S
C949 C950 1.347 . S
C949 H977 0.931 . S
C950 C949 1.347 . S
C950 C951 1.369 . S
C951 C950 1.369 . S
C951 C952 1.408 . S
C951 H978 0.930 . S
C952 C947 1.348 . S
C952 C951 1.408 . S
C952 H979 0.930 . S
C953 O966 1.281 . S
C953 O967 1.254 . S
C954 O968 1.236 . S
C954 O969 1.266 . S
C955 Tb945 2.809 . S
C955 C956 1.514 . S
C955 O970 1.248 . S
C955 O971 1.266 . S
C956 C955 1.514 . S
C956 C957 1.359 . S
C956 C961 1.348 . S
C957 C956 1.359 . S
C957 C958 1.380 . S
C957 H980 0.929 . S
C958 C957 1.380 . S
C958 C959 1.347 . S
C958 H981 0.931 . S
C959 C958 1.347 . S
C959 C960 1.369 . S
C960 C959 1.369 . S
C960 C961 1.408 . S
C960 H982 0.930 . S
C961 C956 1.348 . S
C961 C960 1.408 . S
C961 H983 0.930 . S
C962 O972 1.281 . S
C962 O973 1.254 . S
C963 O974 1.236 . S
C963 O975 1.266 . S
O964 Tb944 2.484 . S
O964 C946 1.248 . S
O965 Tb944 2.440 . S
O965 C946 1.266 . S
O966 Tb944 2.658 . S
O966 Tb945 2.325 . S
O966 C953 1.281 . S
O967 Tb944 2.409 . S
O967 C953 1.254 . S
O968 Tb944 2.378 1_565 S
O968 C954 1.236 . S
O969 Tb945 2.341 1_565 S
O969 C954 1.266 . S
O970 Tb945 2.484 . S
O970 C955 1.248 . S
O971 Tb945 2.440 . S
O971 C955 1.266 . S
O972 Tb944 2.325 . S
O972 Tb945 2.658 . S
O972 C962 1.281 . S
O973 Tb945 2.409 . S
O973 C962 1.254 . S
O974 Tb945 2.378 . S
O974 C963 1.236 . S
O975 Tb944 2.341 . S
O975 C963 1.266 . S
H976 C948 0.929 . S
H977 C949 0.931 . S
H978 C951 0.930 . S
H979 C952 0.930 . S
H980 C957 0.929 . S
H981 C958 0.931 . S
H982 C960 0.930 . S
H983 C961 0.930 . S
Tb984 C986 2.809 . S
Tb984 O1004 2.484 . S
Tb984 O1005 2.440 . S
Tb984 O1006 2.658 . S
Tb984 O1007 2.409 . S
Tb984 O1008 2.378 . S
Tb984 O1012 2.325 . S
Tb984 O1015 2.341 . S
Tb985 C995 2.809 . S
Tb985 O1006 2.325 . S
Tb985 O1009 2.341 . S
Tb985 O1010 2.484 . S
Tb985 O1011 2.440 . S
Tb985 O1012 2.658 . S
Tb985 O1013 2.409 . S
Tb985 O1014 2.378 . S
C986 Tb984 2.809 . S
C986 C987 1.514 . S
C986 O1004 1.248 . S
C986 O1005 1.266 . S
C987 C986 1.514 . S
C987 C988 1.359 . S
C987 C992 1.348 . S
C988 C987 1.359 . S
C988 C989 1.380 . S
C988 H1016 0.929 . S
C989 C988 1.380 . S
C989 C990 1.347 . S
C989 H1017 0.931 . S
C990 C989 1.347 . S
C990 C991 1.369 . S
C991 C990 1.369 . S
C991 C992 1.408 . S
C991 H1018 0.930 . S
C992 C987 1.348 . S
C992 C991 1.408 . S
C992 H1019 0.930 . S
C993 O1006 1.281 . S
C993 O1007 1.254 . S
C994 O1008 1.236 . S
C994 O1009 1.266 . S
C995 Tb985 2.809 . S
C995 C996 1.514 . S
C995 O1010 1.248 . S
C995 O1011 1.266 . S
C996 C995 1.514 . S
C996 C997 1.359 . S
C996 C1001 1.348 . S
C997 C996 1.359 . S
C997 C998 1.380 . S
C997 H1020 0.929 . S
C998 C997 1.380 . S
C998 C999 1.347 . S
C998 H1021 0.931 . S
C999 C998 1.347 . S
C999 C1000 1.369 . S
C1000 C999 1.369 . S
C1000 C1001 1.408 . S
C1000 H1022 0.930 . S
C1001 C996 1.348 . S
C1001 C1000 1.408 . S
C1001 H1023 0.930 . S
C1002 O1012 1.281 . S
C1002 O1013 1.254 . S
C1003 O1014 1.236 . S
C1003 O1015 1.266 . S
O1004 Tb984 2.484 . S
O1004 C986 1.248 . S
O1005 Tb984 2.440 . S
O1005 C986 1.266 . S
O1006 Tb984 2.658 . S
O1006 Tb985 2.325 . S
O1006 C993 1.281 . S
O1007 Tb984 2.409 . S
O1007 C993 1.254 . S
O1008 Tb984 2.378 . S
O1008 C994 1.236 . S
O1009 Tb985 2.341 . S
O1009 C994 1.266 . S
O1010 Tb985 2.484 . S
O1010 C995 1.248 . S
O1011 Tb985 2.440 . S
O1011 C995 1.266 . S
O1012 Tb984 2.325 . S
O1012 Tb985 2.658 . S
O1012 C1002 1.281 . S
O1013 Tb985 2.409 . S
O1013 C1002 1.254 . S
O1014 Tb985 2.378 . S
O1014 C1003 1.236 . S
O1015 Tb984 2.341 . S
O1015 C1003 1.266 . S
H1016 C988 0.929 . S
H1017 C989 0.931 . S
H1018 C991 0.930 . S
H1019 C992 0.930 . S
H1020 C997 0.929 . S
H1021 C998 0.931 . S
H1022 C1000 0.930 . S
H1023 C1001 0.930 . S
Tb1024 C1026 2.809 . S
Tb1024 O1044 2.484 . S
Tb1024 O1045 2.440 . S
Tb1024 O1046 2.658 . S
Tb1024 O1047 2.409 1_455 S
Tb1024 O1048 2.378 . S
Tb1024 O1052 2.325 . S
Tb1024 O1055 2.341 . S
Tb1025 C1035 2.809 . S
Tb1025 O1046 2.325 1_565 S
Tb1025 O1049 2.367 . S
Tb1025 O1050 2.484 . S
Tb1025 O1051 2.440 . S
Tb1025 O1052 2.658 1_565 S
Tb1025 O1053 2.409 1_565 S
Tb1025 O1054 2.378 1_565 S
C1026 Tb1024 2.809 . S
C1026 C1027 1.514 . S
C1026 O1044 1.248 . S
C1026 O1045 1.266 . S
C1027 C1026 1.514 . S
C1027 C1028 1.359 . S
C1027 C1032 1.348 1_455 S
C1028 C1027 1.359 . S
C1028 C1029 1.380 . S
C1028 H1056 0.929 . S
C1029 C1028 1.380 . S
C1029 C1030 1.347 . S
C1029 H1057 0.931 . S
C1030 C1029 1.347 . S
C1030 C1031 1.369 1_455 S
C1031 C1030 1.369 1_655 S
C1031 C1032 1.408 . S
C1031 H1058 0.930 . S
C1032 C1027 1.348 1_655 S
C1032 C1031 1.408 . S
C1032 H1059 0.930 . S
C1033 O1046 1.281 1_655 S
C1033 O1047 1.254 . S
C1034 O1048 1.236 . S
C1034 O1049 1.220 1_545 S
C1035 Tb1025 2.809 . S
C1035 C1036 1.514 . S
C1035 O1050 1.248 . S
C1035 O1051 1.266 . S
C1036 C1035 1.514 . S
C1036 C1037 1.359 . S
C1036 C1041 1.348 . S
C1037 C1036 1.359 . S
C1037 C1038 1.380 . S
C1037 H1060 0.929 . S
C1038 C1037 1.380 . S
C1038 C1039 1.347 . S
C1038 H1061 0.931 . S
C1039 C1038 1.347 . S
C1039 C1040 1.369 . S
C1040 C1039 1.369 . S
C1040 C1041 1.408 . S
C1040 H1062 0.930 . S
C1041 C1036 1.348 . S
C1041 C1040 1.408 . S
C1041 H1063 0.930 . S
C1042 O1052 1.281 . S
C1042 O1053 1.254 . S
C1043 O1054 1.236 . S
C1043 O1055 1.266 . S
O1044 Tb1024 2.484 . S
O1044 C1026 1.248 . S
O1045 Tb1024 2.440 . S
O1045 C1026 1.266 . S
O1046 Tb1024 2.658 . S
O1046 Tb1025 2.325 1_545 S
O1046 C1033 1.281 1_455 S
O1047 Tb1024 2.409 1_655 S
O1047 C1033 1.254 . S
O1048 Tb1024 2.378 . S
O1048 C1034 1.236 . S
O1049 Tb1025 2.367 . S
O1049 C1034 1.220 1_565 S
O1050 Tb1025 2.484 . S
O1050 C1035 1.248 . S
O1051 Tb1025 2.440 . S
O1051 C1035 1.266 . S
O1052 Tb1024 2.325 . S
O1052 Tb1025 2.658 1_545 S
O1052 C1042 1.281 . S
O1053 Tb1025 2.409 1_545 S
O1053 C1042 1.254 . S
O1054 Tb1025 2.378 1_545 S
O1054 C1043 1.236 . S
O1055 Tb1024 2.341 . S
O1055 C1043 1.266 . S
H1056 C1028 0.929 . S
H1057 C1029 0.931 . S
H1058 C1031 0.930 . S
H1059 C1032 0.930 . S
H1060 C1037 0.929 . S
H1061 C1038 0.931 . S
H1062 C1040 0.930 . S
H1063 C1041 0.930 . S
Tb1064 C1066 2.809 . S
Tb1064 O1084 2.484 . S
Tb1064 O1085 2.440 . S
Tb1064 O1086 2.658 . S
Tb1064 O1087 2.409 . S
Tb1064 O1088 2.378 . S
Tb1064 O1092 2.325 . S
Tb1064 O1095 2.341 . S
Tb1065 C1075 2.809 . S
Tb1065 O1086 2.325 . S
Tb1065 O1089 2.341 . S
Tb1065 O1090 2.484 . S
Tb1065 O1091 2.440 . S
Tb1065 O1092 2.658 . S
Tb1065 O1093 2.409 . S
Tb1065 O1094 2.378 . S
C1066 Tb1064 2.809 . S
C1066 C1067 1.514 . S
C1066 O1084 1.248 . S
C1066 O1085 1.266 . S
C1067 C1066 1.514 . S
C1067 C1068 1.359 . S
C1067 C1072 1.348 . S
C1068 C1067 1.359 . S
C1068 C1069 1.380 . S
C1068 H1096 0.929 . S
C1069 C1068 1.380 . S
C1069 C1070 1.347 . S
C1069 H1097 0.931 . S
C1070 C1069 1.347 . S
C1070 C1071 1.369 . S
C1071 C1070 1.369 . S
C1071 C1072 1.408 . S
C1071 H1098 0.930 . S
C1072 C1067 1.348 . S
C1072 C1071 1.408 . S
C1072 H1099 0.930 . S
C1073 O1086 1.281 . S
C1073 O1087 1.254 . S
C1074 O1088 1.236 . S
C1074 O1089 1.266 . S
C1075 Tb1065 2.809 . S
C1075 C1076 1.514 . S
C1075 O1090 1.248 . S
C1075 O1091 1.266 . S
C1076 C1075 1.514 . S
C1076 C1077 1.359 . S
C1076 C1081 1.348 . S
C1077 C1076 1.359 . S
C1077 C1078 1.380 . S
C1077 H1100 0.929 . S
C1078 C1077 1.380 . S
C1078 C1079 1.347 . S
C1078 H1101 0.931 . S
C1079 C1078 1.347 . S
C1079 C1080 1.369 . S
C1080 C1079 1.369 . S
C1080 C1081 1.408 . S
C1080 H1102 0.930 . S
C1081 C1076 1.348 . S
C1081 C1080 1.408 . S
C1081 H1103 0.930 . S
C1082 O1092 1.281 . S
C1082 O1093 1.254 . S
C1083 O1094 1.236 . S
C1083 O1095 1.266 . S
O1084 Tb1064 2.484 . S
O1084 C1066 1.248 . S
O1085 Tb1064 2.440 . S
O1085 C1066 1.266 . S
O1086 Tb1064 2.658 . S
O1086 Tb1065 2.325 . S
O1086 C1073 1.281 . S
O1087 Tb1064 2.409 . S
O1087 C1073 1.254 . S
O1088 Tb1064 2.378 . S
O1088 C1074 1.236 . S
O1089 Tb1065 2.341 . S
O1089 C1074 1.266 . S
O1090 Tb1065 2.484 . S
O1090 C1075 1.248 . S
O1091 Tb1065 2.440 . S
O1091 C1075 1.266 . S
O1092 Tb1064 2.325 . S
O1092 Tb1065 2.658 . S
O1092 C1082 1.281 . S
O1093 Tb1065 2.409 . S
O1093 C1082 1.254 . S
O1094 Tb1065 2.378 . S
O1094 C1083 1.236 . S
O1095 Tb1064 2.341 . S
O1095 C1083 1.266 . S
H1096 C1068 0.929 . S
H1097 C1069 0.931 . S
H1098 C1071 0.930 . S
H1099 C1072 0.930 . S
H1100 C1077 0.929 . S
H1101 C1078 0.931 . S
H1102 C1080 0.930 . S
H1103 C1081 0.930 . S
Tb1104 C1106 2.809 . S
Tb1104 O1124 2.484 1_545 S
Tb1104 O1125 2.440 . S
Tb1104 O1126 2.658 . S
Tb1104 O1127 2.409 . S
Tb1104 O1128 2.378 . S
Tb1104 O1132 2.325 1_545 S
Tb1104 O1135 2.341 1_554 S
Tb1105 C1115 2.809 . S
Tb1105 O1126 2.325 . S
Tb1105 O1129 2.341 . S
Tb1105 O1130 2.484 . S
Tb1105 O1131 2.440 . S
Tb1105 O1132 2.658 1_545 S
Tb1105 O1133 2.409 1_545 S
Tb1105 O1134 2.378 . S
C1106 Tb1104 2.809 . S
C1106 C1107 1.514 1_545 S
C1106 O1124 1.248 1_545 S
C1106 O1125 1.266 . S
C1107 C1106 1.514 1_565 S
C1107 C1108 1.359 . S
C1107 C1112 1.348 1_565 S
C1108 C1107 1.359 . S
C1108 C1109 1.380 . S
C1108 H1136 0.929 . S
C1109 C1108 1.380 . S
C1109 C1110 1.347 . S
C1109 H1137 0.931 . S
C1110 C1109 1.347 . S
C1110 C1111 1.337 1_565 S
C1111 C1110 1.337 1_545 S
C1111 C1112 1.415 . S
C1111 H1138 0.956 . S
C1112 C1107 1.348 1_545 S
C1112 C1111 1.415 . S
C1112 H1139 0.930 . S
C1113 O1126 1.281 . S
C1113 O1127 1.254 . S
C1114 O1128 1.236 . S
C1114 O1129 1.266 . S
C1115 Tb1105 2.809 . S
C1115 C1116 1.514 . S
C1115 O1130 1.248 . S
C1115 O1131 1.266 . S
C1116 C1115 1.514 . S
C1116 C1117 1.359 . S
C1116 C1121 1.348 . S
C1117 C1116 1.359 . S
C1117 C1118 1.380 . S
C1117 H1140 0.929 . S
C1118 C1117 1.380 . S
C1118 C1119 1.347 . S
C1118 H1141 0.931 . S
C1119 C1118 1.347 . S
C1119 C1120 1.369 . S
C1120 C1119 1.369 . S
C1120 C1121 1.408 . S
C1120 H1142 0.930 . S
C1121 C1116 1.348 . S
C1121 C1120 1.408 . S
C1121 H1143 0.930 . S
C1122 O1132 1.281 . S
C1122 O1133 1.254 . S
C1123 O1134 1.236 1_556 S
C1123 O1135 1.266 . S
O1124 Tb1104 2.484 1_565 S
O1124 C1106 1.248 1_565 S
O1125 Tb1104 2.440 . S
O1125 C1106 1.266 . S
O1126 Tb1104 2.658 . S
O1126 Tb1105 2.325 . S
O1126 C1113 1.281 . S
O1127 Tb1104 2.409 . S
O1127 C1113 1.254 . S
O1128 Tb1104 2.378 . S
O1128 C1114 1.236 . S
O1129 Tb1105 2.341 . S
O1129 C1114 1.266 . S
O1130 Tb1105 2.484 . S
O1130 C1115 1.248 . S
O1131 Tb1105 2.440 . S
O1131 C1115 1.266 . S
O1132 Tb1104 2.325 1_565 S
O1132 Tb1105 2.658 1_565 S
O1132 C1122 1.281 . S
O1133 Tb1105 2.409 1_565 S
O1133 C1122 1.254 . S
O1134 Tb1105 2.378 . S
O1134 C1123 1.236 1_554 S
O1135 Tb1104 2.341 1_556 S
O1135 C1123 1.266 . S
H1136 C1108 0.929 . S
H1137 C1109 0.931 . S
H1138 C1111 0.956 . S
H1139 C1112 0.930 . S
H1140 C1117 0.929 . S
H1141 C1118 0.931 . S
H1142 C1120 0.930 . S
H1143 C1121 0.930 . S
Tb1144 C1146 2.809 . S
Tb1144 O1164 2.484 . S
Tb1144 O1165 2.440 . S
Tb1144 O1166 2.658 . S
Tb1144 O1167 2.409 . S
Tb1144 O1168 2.378 . S
Tb1144 O1172 2.325 . S
Tb1144 O1175 2.341 . S
Tb1145 C1155 2.809 . S
Tb1145 O1166 2.325 . S
Tb1145 O1169 2.341 . S
Tb1145 O1170 2.484 . S
Tb1145 O1171 2.440 . S
Tb1145 O1172 2.658 . S
Tb1145 O1173 2.409 . S
Tb1145 O1174 2.378 . S
C1146 Tb1144 2.809 . S
C1146 C1147 1.514 . S
C1146 O1164 1.248 . S
C1146 O1165 1.266 . S
C1147 C1146 1.514 . S
C1147 C1148 1.359 . S
C1147 C1152 1.348 . S
C1148 C1147 1.359 . S
C1148 C1149 1.380 . S
C1148 H1176 0.929 . S
C1149 C1148 1.380 . S
C1149 C1150 1.347 . S
C1149 H1177 0.931 . S
C1150 C1149 1.347 . S
C1150 C1151 1.369 . S
C1151 C1150 1.369 . S
C1151 C1152 1.408 . S
C1151 H1178 0.930 . S
C1152 C1147 1.348 . S
C1152 C1151 1.408 . S
C1152 H1179 0.930 . S
C1153 O1166 1.281 . S
C1153 O1167 1.254 . S
C1154 O1168 1.236 . S
C1154 O1169 1.266 . S
C1155 Tb1145 2.809 . S
C1155 C1156 1.514 . S
C1155 O1170 1.248 . S
C1155 O1171 1.266 . S
C1156 C1155 1.514 . S
C1156 C1157 1.359 . S
C1156 C1161 1.348 . S
C1157 C1156 1.359 . S
C1157 C1158 1.380 . S
C1157 H1180 0.929 . S
C1158 C1157 1.380 . S
C1158 C1159 1.347 . S
C1158 H1181 0.931 . S
C1159 C1158 1.347 . S
C1159 C1160 1.369 . S
C1160 C1159 1.369 . S
C1160 C1161 1.408 . S
C1160 H1182 0.930 . S
C1161 C1156 1.348 . S
C1161 C1160 1.408 . S
C1161 H1183 0.930 . S
C1162 O1172 1.281 . S
C1162 O1173 1.254 . S
C1163 O1174 1.236 . S
C1163 O1175 1.266 . S
O1164 Tb1144 2.484 . S
O1164 C1146 1.248 . S
O1165 Tb1144 2.440 . S
O1165 C1146 1.266 . S
O1166 Tb1144 2.658 . S
O1166 Tb1145 2.325 . S
O1166 C1153 1.281 . S
O1167 Tb1144 2.409 . S
O1167 C1153 1.254 . S
O1168 Tb1144 2.378 . S
O1168 C1154 1.236 . S
O1169 Tb1145 2.341 . S
O1169 C1154 1.266 . S
O1170 Tb1145 2.484 . S
O1170 C1155 1.248 . S
O1171 Tb1145 2.440 . S
O1171 C1155 1.266 . S
O1172 Tb1144 2.325 . S
O1172 Tb1145 2.658 . S
O1172 C1162 1.281 . S
O1173 Tb1145 2.409 . S
O1173 C1162 1.254 . S
O1174 Tb1145 2.378 . S
O1174 C1163 1.236 . S
O1175 Tb1144 2.341 . S
O1175 C1163 1.266 . S
H1176 C1148 0.929 . S
H1177 C1149 0.931 . S
H1178 C1151 0.930 . S
H1179 C1152 0.930 . S
H1180 C1157 0.929 . S
H1181 C1158 0.931 . S
H1182 C1160 0.930 . S
H1183 C1161 0.930 . S
Tb1184 C1186 2.809 . S
Tb1184 O1204 2.484 . S
Tb1184 O1205 2.440 . S
Tb1184 O1206 2.658 . S
Tb1184 O1207 2.409 . S
Tb1184 O1208 2.378 1_554 S
Tb1184 O1212 2.325 . S
Tb1184 O1215 2.341 . S
Tb1185 C1195 2.809 . S
Tb1185 O1206 2.325 . S
Tb1185 O1209 2.341 1_554 S
Tb1185 O1210 2.484 . S
Tb1185 O1211 2.440 . S
Tb1185 O1212 2.658 . S
Tb1185 O1213 2.409 . S
Tb1185 O1214 2.378 . S
C1186 Tb1184 2.809 . S
C1186 C1187 1.514 1_554 S
C1186 O1204 1.248 . S
C1186 O1205 1.266 . S
C1187 C1186 1.514 1_556 S
C1187 C1188 1.359 . S
C1187 C1192 1.348 . S
C1188 C1187 1.359 . S
C1188 C1189 1.380 . S
C1188 H1216 0.929 . S
C1189 C1188 1.380 . S
C1189 C1190 1.347 . S
C1189 H1217 0.931 . S
C1190 C1189 1.347 . S
C1190 C1191 1.369 . S
C1191 C1190 1.369 . S
C1191 C1192 1.408 . S
C1191 H1218 0.930 . S
C1192 C1187 1.348 . S
C1192 C1191 1.408 . S
C1192 H1219 0.930 . S
C1193 O1206 1.281 . S
C1193 O1207 1.254 . S
C1194 O1208 1.236 . S
C1194 O1209 1.266 . S
C1195 Tb1185 2.809 . S
C1195 C1196 1.514 . S
C1195 O1210 1.248 . S
C1195 O1211 1.266 . S
C1196 C1195 1.514 . S
C1196 C1197 1.359 . S
C1196 C1201 1.348 . S
C1197 C1196 1.359 . S
C1197 C1198 1.380 . S
C1197 H1220 0.929 . S
C1198 C1197 1.380 . S
C1198 C1199 1.347 . S
C1198 H1221 0.931 . S
C1199 C1198 1.347 . S
C1199 C1200 1.369 . S
C1200 C1199 1.369 . S
C1200 C1201 1.408 . S
C1200 H1222 0.930 . S
C1201 C1196 1.348 . S
C1201 C1200 1.408 . S
C1201 H1223 0.930 . S
C1202 O1212 1.281 . S
C1202 O1213 1.254 . S
C1203 O1214 1.236 . S
C1203 O1215 1.266 . S
O1204 Tb1184 2.484 . S
O1204 C1186 1.248 . S
O1205 Tb1184 2.440 . S
O1205 C1186 1.266 . S
O1206 Tb1184 2.658 . S
O1206 Tb1185 2.325 . S
O1206 C1193 1.281 . S
O1207 Tb1184 2.409 . S
O1207 C1193 1.254 . S
O1208 Tb1184 2.378 1_556 S
O1208 C1194 1.236 . S
O1209 Tb1185 2.341 1_556 S
O1209 C1194 1.266 . S
O1210 Tb1185 2.484 . S
O1210 C1195 1.248 . S
O1211 Tb1185 2.440 . S
O1211 C1195 1.266 . S
O1212 Tb1184 2.325 . S
O1212 Tb1185 2.658 . S
O1212 C1202 1.281 . S
O1213 Tb1185 2.409 . S
O1213 C1202 1.254 . S
O1214 Tb1185 2.378 . S
O1214 C1203 1.236 . S
O1215 Tb1184 2.341 . S
O1215 C1203 1.266 . S
H1216 C1188 0.929 . S
H1217 C1189 0.931 . S
H1218 C1191 0.930 . S
H1219 C1192 0.930 . S
H1220 C1197 0.929 . S
H1221 C1198 0.931 . S
H1222 C1200 0.930 . S
H1223 C1201 0.930 . S
Tb1224 C1226 2.809 . S
Tb1224 O1244 2.484 . S
Tb1224 O1245 2.440 . S
Tb1224 O1246 2.658 . S
Tb1224 O1247 2.409 . S
Tb1224 O1248 2.378 . S
Tb1224 O1252 2.325 . S
Tb1224 O1255 2.341 . S
Tb1225 C1235 2.809 . S
Tb1225 O1246 2.325 . S
Tb1225 O1249 2.341 . S
Tb1225 O1250 2.484 . S
Tb1225 O1251 2.440 . S
Tb1225 O1252 2.658 . S
Tb1225 O1253 2.409 . S
Tb1225 O1254 2.378 . S
C1226 Tb1224 2.809 . S
C1226 C1227 1.514 . S
C1226 O1244 1.248 . S
C1226 O1245 1.266 . S
C1227 C1226 1.514 . S
C1227 C1228 1.359 . S
C1227 C1232 1.348 . S
C1228 C1227 1.359 . S
C1228 C1229 1.380 . S
C1228 H1256 0.929 . S
C1229 C1228 1.380 . S
C1229 C1230 1.347 . S
C1229 H1257 0.931 . S
C1230 C1229 1.347 . S
C1230 C1231 1.369 . S
C1231 C1230 1.369 . S
C1231 C1232 1.408 . S
C1231 H1258 0.930 . S
C1232 C1227 1.348 . S
C1232 C1231 1.408 . S
C1232 H1259 0.930 . S
C1233 O1246 1.281 . S
C1233 O1247 1.254 . S
C1234 O1248 1.236 . S
C1234 O1249 1.266 . S
C1235 Tb1225 2.809 . S
C1235 C1236 1.514 . S
C1235 O1250 1.248 . S
C1235 O1251 1.266 . S
C1236 C1235 1.514 . S
C1236 C1237 1.359 . S
C1236 C1241 1.348 . S
C1237 C1236 1.359 . S
C1237 C1238 1.380 . S
C1237 H1260 0.929 . S
C1238 C1237 1.380 . S
C1238 C1239 1.347 . S
C1238 H1261 0.931 . S
C1239 C1238 1.347 . S
C1239 C1240 1.369 . S
C1240 C1239 1.369 . S
C1240 C1241 1.408 . S
C1240 H1262 0.930 . S
C1241 C1236 1.348 . S
C1241 C1240 1.408 . S
C1241 H1263 0.930 . S
C1242 O1252 1.281 . S
C1242 O1253 1.254 . S
C1243 O1254 1.236 . S
C1243 O1255 1.266 . S
O1244 Tb1224 2.484 . S
O1244 C1226 1.248 . S
O1245 Tb1224 2.440 . S
O1245 C1226 1.266 . S
O1246 Tb1224 2.658 . S
O1246 Tb1225 2.325 . S
O1246 C1233 1.281 . S
O1247 Tb1224 2.409 . S
O1247 C1233 1.254 . S
O1248 Tb1224 2.378 . S
O1248 C1234 1.236 . S
O1249 Tb1225 2.341 . S
O1249 C1234 1.266 . S
O1250 Tb1225 2.484 . S
O1250 C1235 1.248 . S
O1251 Tb1225 2.440 . S
O1251 C1235 1.266 . S
O1252 Tb1224 2.325 . S
O1252 Tb1225 2.658 . S
O1252 C1242 1.281 . S
O1253 Tb1225 2.409 . S
O1253 C1242 1.254 . S
O1254 Tb1225 2.378 . S
O1254 C1243 1.236 . S
O1255 Tb1224 2.341 . S
O1255 C1243 1.266 . S
H1256 C1228 0.929 . S
H1257 C1229 0.931 . S
H1258 C1231 0.930 . S
H1259 C1232 0.930 . S
H1260 C1237 0.929 . S
H1261 C1238 0.931 . S
H1262 C1240 0.930 . S
H1263 C1241 0.930 . S
Tb1264 C1266 2.809 1_455 S
Tb1264 O1284 2.484 1_455 S
Tb1264 O1285 2.440 1_455 S
Tb1264 O1286 2.658 . S
Tb1264 O1287 2.409 . S
Tb1264 O1288 2.378 . S
Tb1264 O1292 2.325 . S
Tb1264 O1295 2.341 . S
Tb1265 C1275 2.809 . S
Tb1265 O1286 2.325 . S
Tb1265 O1289 2.341 . S
Tb1265 O1290 2.484 . S
Tb1265 O1291 2.440 . S
Tb1265 O1292 2.658 . S
Tb1265 O1293 2.409 . S
Tb1265 O1294 2.378 . S
C1266 Tb1264 2.809 1_655 S
C1266 C1267 1.514 . S
C1266 O1284 1.248 . S
C1266 O1285 1.266 . S
C1267 C1266 1.514 . S
C1267 C1268 1.359 . S
C1267 C1272 1.348 . S
C1268 C1267 1.359 . S
C1268 C1269 1.380 . S
C1268 H1296 0.929 . S
C1269 C1268 1.380 . S
C1269 C1270 1.347 . S
C1269 H1297 0.931 . S
C1270 C1269 1.347 . S
C1270 C1271 1.369 . S
C1271 C1270 1.369 . S
C1271 C1272 1.408 . S
C1271 H1298 0.930 . S
C1272 C1267 1.348 . S
C1272 C1271 1.408 . S
C1272 H1299 0.930 . S
C1273 O1286 1.281 . S
C1273 O1287 1.254 . S
C1274 O1288 1.236 . S
C1274 O1289 1.266 . S
C1275 Tb1265 2.809 . S
C1275 C1276 1.514 . S
C1275 O1290 1.248 . S
C1275 O1291 1.266 . S
C1276 C1275 1.514 . S
C1276 C1277 1.359 . S
C1276 C1281 1.348 . S
C1277 C1276 1.359 . S
C1277 C1278 1.380 . S
C1277 H1300 0.929 . S
C1278 C1277 1.380 . S
C1278 C1279 1.347 . S
C1278 H1301 0.931 . S
C1279 C1278 1.347 . S
C1279 C1280 1.369 . S
C1280 C1279 1.369 . S
C1280 C1281 1.408 . S
C1280 H1302 0.930 . S
C1281 C1276 1.348 . S
C1281 C1280 1.408 . S
C1281 H1303 0.930 . S
C1282 O1292 1.281 . S
C1282 O1293 1.254 . S
C1283 O1294 1.236 . S
C1283 O1295 1.266 . S
O1284 Tb1264 2.484 1_655 S
O1284 C1266 1.248 . S
O1285 Tb1264 2.440 1_655 S
O1285 C1266 1.266 . S
O1286 Tb1264 2.658 . S
O1286 Tb1265 2.325 . S
O1286 C1273 1.281 . S
O1287 Tb1264 2.409 . S
O1287 C1273 1.254 . S
O1288 Tb1264 2.378 . S
O1288 C1274 1.236 . S
O1289 Tb1265 2.341 . S
O1289 C1274 1.266 . S
O1290 Tb1265 2.484 . S
O1290 C1275 1.248 . S
O1291 Tb1265 2.440 . S
O1291 C1275 1.266 . S
O1292 Tb1264 2.325 . S
O1292 Tb1265 2.658 . S
O1292 C1282 1.281 . S
O1293 Tb1265 2.409 . S
O1293 C1282 1.254 . S
O1294 Tb1265 2.378 . S
O1294 C1283 1.236 . S
O1295 Tb1264 2.341 . S
O1295 C1283 1.266 . S
H1296 C1268 0.929 . S
H1297 C1269 0.931 . S
H1298 C1271 0.930 . S
H1299 C1272 0.930 . S
H1300 C1277 0.929 . S
H1301 C1278 0.931 . S
H1302 C1280 0.930 . S
H1303 C1281 0.930 . S
Tb1304 C1306 2.809 . S
Tb1304 O1324 2.484 . S
Tb1304 O1325 2.440 . S
Tb1304 O1326 2.658 . S
Tb1304 O1327 2.409 . S
Tb1304 O1328 2.378 . S
Tb1304 O1332 2.325 . S
Tb1304 O1335 2.341 . S
Tb1305 C1315 2.809 . S
Tb1305 O1326 2.325 . S
Tb1305 O1329 2.341 . S
Tb1305 O1330 2.484 . S
Tb1305 O1331 2.440 . S
Tb1305 O1332 2.658 . S
Tb1305 O1333 2.409 . S
Tb1305 O1334 2.378 . S
C1306 Tb1304 2.809 . S
C1306 C1307 1.514 . S
C1306 O1324 1.248 . S
C1306 O1325 1.266 . S
C1307 C1306 1.514 . S
C1307 C1308 1.359 . S
C1307 C1312 1.348 . S
C1308 C1307 1.359 . S
C1308 C1309 1.380 . S
C1308 H1336 0.929 . S
C1309 C1308 1.380 . S
C1309 C1310 1.347 . S
C1309 H1337 0.931 . S
C1310 C1309 1.347 . S
C1310 C1311 1.369 . S
C1311 C1310 1.369 . S
C1311 C1312 1.408 . S
C1311 H1338 0.930 . S
C1312 C1307 1.348 . S
C1312 C1311 1.408 . S
C1312 H1339 0.930 . S
C1313 O1326 1.281 . S
C1313 O1327 1.254 . S
C1314 O1328 1.236 . S
C1314 O1329 1.266 . S
C1315 Tb1305 2.809 . S
C1315 C1316 1.514 . S
C1315 O1330 1.248 . S
C1315 O1331 1.266 . S
C1316 C1315 1.514 . S
C1316 C1317 1.359 . S
C1316 C1321 1.348 . S
C1317 C1316 1.359 . S
C1317 C1318 1.380 . S
C1317 H1340 0.929 . S
C1318 C1317 1.380 . S
C1318 C1319 1.347 . S
C1318 H1341 0.931 . S
C1319 C1318 1.347 . S
C1319 C1320 1.369 . S
C1320 C1319 1.369 . S
C1320 C1321 1.408 . S
C1320 H1342 0.930 . S
C1321 C1316 1.348 . S
C1321 C1320 1.408 . S
C1321 H1343 0.930 . S
C1322 O1332 1.281 . S
C1322 O1333 1.254 . S
C1323 O1334 1.236 . S
C1323 O1335 1.266 . S
O1324 Tb1304 2.484 . S
O1324 C1306 1.248 . S
O1325 Tb1304 2.440 . S
O1325 C1306 1.266 . S
O1326 Tb1304 2.658 . S
O1326 Tb1305 2.325 . S
O1326 C1313 1.281 . S
O1327 Tb1304 2.409 . S
O1327 C1313 1.254 . S
O1328 Tb1304 2.378 . S
O1328 C1314 1.236 . S
O1329 Tb1305 2.341 . S
O1329 C1314 1.266 . S
O1330 Tb1305 2.484 . S
O1330 C1315 1.248 . S
O1331 Tb1305 2.440 . S
O1331 C1315 1.266 . S
O1332 Tb1304 2.325 . S
O1332 Tb1305 2.658 . S
O1332 C1322 1.281 . S
O1333 Tb1305 2.409 . S
O1333 C1322 1.254 . S
O1334 Tb1305 2.378 . S
O1334 C1323 1.236 . S
O1335 Tb1304 2.341 . S
O1335 C1323 1.266 . S
H1336 C1308 0.929 . S
H1337 C1309 0.931 . S
H1338 C1311 0.930 . S
H1339 C1312 0.930 . S
H1340 C1317 0.929 . S
H1341 C1318 0.931 . S
H1342 C1320 0.930 . S
H1343 C1321 0.930 . S
Tb1344 C1346 2.809 . S
Tb1344 O1364 2.484 . S
Tb1344 O1365 2.440 . S
Tb1344 O1366 2.658 . S
Tb1344 O1367 2.409 . S
Tb1344 O1368 2.378 . S
Tb1344 O1372 2.325 . S
Tb1344 O1375 2.341 . S
Tb1345 C1355 2.809 . S
Tb1345 O1366 2.325 . S
Tb1345 O1369 2.341 . S
Tb1345 O1370 2.484 . S
Tb1345 O1371 2.440 . S
Tb1345 O1372 2.658 . S
Tb1345 O1373 2.409 . S
Tb1345 O1374 2.378 . S
C1346 Tb1344 2.809 . S
C1346 C1347 1.514 . S
C1346 O1364 1.248 . S
C1346 O1365 1.266 . S
C1347 C1346 1.514 . S
C1347 C1348 1.359 . S
C1347 C1352 1.348 . S
C1348 C1347 1.359 . S
C1348 C1349 1.380 . S
C1348 H1376 0.929 . S
C1349 C1348 1.380 . S
C1349 C1350 1.347 . S
C1349 H1377 0.931 . S
C1350 C1349 1.347 . S
C1350 C1351 1.369 . S
C1351 C1350 1.369 . S
C1351 C1352 1.408 . S
C1351 H1378 0.930 . S
C1352 C1347 1.348 . S
C1352 C1351 1.408 . S
C1352 H1379 0.930 . S
C1353 O1366 1.281 . S
C1353 O1367 1.254 . S
C1354 O1368 1.236 . S
C1354 O1369 1.266 . S
C1355 Tb1345 2.809 . S
C1355 C1356 1.514 . S
C1355 O1370 1.248 . S
C1355 O1371 1.266 . S
C1356 C1355 1.514 . S
C1356 C1357 1.359 . S
C1356 C1361 1.348 . S
C1357 C1356 1.359 . S
C1357 C1358 1.380 . S
C1357 H1380 0.929 . S
C1358 C1357 1.380 . S
C1358 C1359 1.347 . S
C1358 H1381 0.931 . S
C1359 C1358 1.347 . S
C1359 C1360 1.369 . S
C1360 C1359 1.369 . S
C1360 C1361 1.408 . S
C1360 H1382 0.930 . S
C1361 C1356 1.348 . S
C1361 C1360 1.408 . S
C1361 H1383 0.930 . S
C1362 O1372 1.281 . S
C1362 O1373 1.254 . S
C1363 O1374 1.236 . S
C1363 O1375 1.266 . S
O1364 Tb1344 2.484 . S
O1364 C1346 1.248 . S
O1365 Tb1344 2.440 . S
O1365 C1346 1.266 . S
O1366 Tb1344 2.658 . S
O1366 Tb1345 2.325 . S
O1366 C1353 1.281 . S
O1367 Tb1344 2.409 . S
O1367 C1353 1.254 . S
O1368 Tb1344 2.378 . S
O1368 C1354 1.236 . S
O1369 Tb1345 2.341 . S
O1369 C1354 1.266 . S
O1370 Tb1345 2.484 . S
O1370 C1355 1.248 . S
O1371 Tb1345 2.440 . S
O1371 C1355 1.266 . S
O1372 Tb1344 2.325 . S
O1372 Tb1345 2.658 . S
O1372 C1362 1.281 . S
O1373 Tb1345 2.409 . S
O1373 C1362 1.254 . S
O1374 Tb1345 2.378 . S
O1374 C1363 1.236 . S
O1375 Tb1344 2.341 . S
O1375 C1363 1.266 . S
H1376 C1348 0.929 . S
H1377 C1349 0.931 . S
H1378 C1351 0.930 . S
H1379 C1352 0.930 . S
H1380 C1357 0.929 . S
H1381 C1358 0.931 . S
H1382 C1360 0.930 . S
H1383 C1361 0.930 . S
Tb1384 C1386 2.809 . S
Tb1384 O1404 2.484 . S
Tb1384 O1405 2.440 . S
Tb1384 O1406 2.658 . S
Tb1384 O1407 2.409 . S
Tb1384 O1408 2.378 . S
Tb1384 O1412 2.325 . S
Tb1384 O1415 2.341 . S
Tb1385 C1395 2.809 . S
Tb1385 O1406 2.325 . S
Tb1385 O1409 2.341 . S
Tb1385 O1410 2.484 . S
Tb1385 O1411 2.440 . S
Tb1385 O1412 2.658 . S
Tb1385 O1413 2.409 . S
Tb1385 O1414 2.378 . S
C1386 Tb1384 2.809 . S
C1386 C1387 1.514 . S
C1386 O1404 1.248 . S
C1386 O1405 1.266 . S
C1387 C1386 1.514 . S
C1387 C1388 1.359 . S
C1387 C1392 1.348 . S
C1388 C1387 1.359 . S
C1388 C1389 1.380 . S
C1388 H1416 0.929 . S
C1389 C1388 1.380 . S
C1389 C1390 1.347 . S
C1389 H1417 0.931 . S
C1390 C1389 1.347 . S
C1390 C1391 1.369 . S
C1391 C1390 1.369 . S
C1391 C1392 1.408 . S
C1391 H1418 0.930 . S
C1392 C1387 1.348 . S
C1392 C1391 1.408 . S
C1392 H1419 0.930 . S
C1393 O1406 1.281 . S
C1393 O1407 1.254 . S
C1394 O1408 1.236 . S
C1394 O1409 1.266 . S
C1395 Tb1385 2.809 . S
C1395 C1396 1.514 . S
C1395 O1410 1.248 . S
C1395 O1411 1.266 . S
C1396 C1395 1.514 . S
C1396 C1397 1.359 . S
C1396 C1401 1.348 . S
C1397 C1396 1.359 . S
C1397 C1398 1.380 . S
C1397 H1420 0.929 . S
C1398 C1397 1.380 . S
C1398 C1399 1.347 . S
C1398 H1421 0.931 . S
C1399 C1398 1.347 . S
C1399 C1400 1.369 . S
C1400 C1399 1.369 . S
C1400 C1401 1.408 . S
C1400 H1422 0.930 . S
C1401 C1396 1.348 . S
C1401 C1400 1.408 . S
C1401 H1423 0.930 . S
C1402 O1412 1.281 . S
C1402 O1413 1.254 . S
C1403 O1414 1.236 . S
C1403 O1415 1.266 . S
O1404 Tb1384 2.484 . S
O1404 C1386 1.248 . S
O1405 Tb1384 2.440 . S
O1405 C1386 1.266 . S
O1406 Tb1384 2.658 . S
O1406 Tb1385 2.325 . S
O1406 C1393 1.281 . S
O1407 Tb1384 2.409 . S
O1407 C1393 1.254 . S
O1408 Tb1384 2.378 . S
O1408 C1394 1.236 . S
O1409 Tb1385 2.341 . S
O1409 C1394 1.266 . S
O1410 Tb1385 2.484 . S
O1410 C1395 1.248 . S
O1411 Tb1385 2.440 . S
O1411 C1395 1.266 . S
O1412 Tb1384 2.325 . S
O1412 Tb1385 2.658 . S
O1412 C1402 1.281 . S
O1413 Tb1385 2.409 . S
O1413 C1402 1.254 . S
O1414 Tb1385 2.378 . S
O1414 C1403 1.236 . S
O1415 Tb1384 2.341 . S
O1415 C1403 1.266 . S
H1416 C1388 0.929 . S
H1417 C1389 0.931 . S
H1418 C1391 0.930 . S
H1419 C1392 0.930 . S
H1420 C1397 0.929 . S
H1421 C1398 0.931 . S
H1422 C1400 0.930 . S
H1423 C1401 0.930 . S
Tb1424 C1426 2.809 . S
Tb1424 O1444 2.484 . S
Tb1424 O1445 2.440 . S
Tb1424 O1446 2.658 . S
Tb1424 O1447 2.409 . S
Tb1424 O1448 2.378 . S
Tb1424 O1452 2.325 . S
Tb1424 O1455 2.341 . S
Tb1425 C1435 2.809 . S
Tb1425 O1446 2.325 . S
Tb1425 O1449 2.341 . S
Tb1425 O1450 2.484 . S
Tb1425 O1451 2.440 . S
Tb1425 O1452 2.658 . S
Tb1425 O1453 2.409 . S
Tb1425 O1454 2.378 . S
C1426 Tb1424 2.809 . S
C1426 C1427 1.514 . S
C1426 O1444 1.248 . S
C1426 O1445 1.266 . S
C1427 C1426 1.514 . S
C1427 C1428 1.359 . S
C1427 C1432 1.348 . S
C1428 C1427 1.359 . S
C1428 C1429 1.380 . S
C1428 H1456 0.929 . S
C1429 C1428 1.380 . S
C1429 C1430 1.347 . S
C1429 H1457 0.931 . S
C1430 C1429 1.347 . S
C1430 C1431 1.369 . S
C1431 C1430 1.369 . S
C1431 C1432 1.408 . S
C1431 H1458 0.930 . S
C1432 C1427 1.348 . S
C1432 C1431 1.408 . S
C1432 H1459 0.930 . S
C1433 O1446 1.281 . S
C1433 O1447 1.254 . S
C1434 O1448 1.236 . S
C1434 O1449 1.266 . S
C1435 Tb1425 2.809 . S
C1435 C1436 1.514 . S
C1435 O1450 1.248 . S
C1435 O1451 1.266 . S
C1436 C1435 1.514 . S
C1436 C1437 1.359 . S
C1436 C1441 1.348 . S
C1437 C1436 1.359 . S
C1437 C1438 1.380 . S
C1437 H1460 0.929 . S
C1438 C1437 1.380 . S
C1438 C1439 1.347 . S
C1438 H1461 0.931 . S
C1439 C1438 1.347 . S
C1439 C1440 1.369 . S
C1440 C1439 1.369 . S
C1440 C1441 1.408 . S
C1440 H1462 0.930 . S
C1441 C1436 1.348 . S
C1441 C1440 1.408 . S
C1441 H1463 0.930 . S
C1442 O1452 1.281 . S
C1442 O1453 1.254 . S
C1443 O1454 1.236 . S
C1443 O1455 1.266 . S
O1444 Tb1424 2.484 . S
O1444 C1426 1.248 . S
O1445 Tb1424 2.440 . S
O1445 C1426 1.266 . S
O1446 Tb1424 2.658 . S
O1446 Tb1425 2.325 . S
O1446 C1433 1.281 . S
O1447 Tb1424 2.409 . S
O1447 C1433 1.254 . S
O1448 Tb1424 2.378 . S
O1448 C1434 1.236 . S
O1449 Tb1425 2.341 . S
O1449 C1434 1.266 . S
O1450 Tb1425 2.484 . S
O1450 C1435 1.248 . S
O1451 Tb1425 2.440 . S
O1451 C1435 1.266 . S
O1452 Tb1424 2.325 . S
O1452 Tb1425 2.658 . S
O1452 C1442 1.281 . S
O1453 Tb1425 2.409 . S
O1453 C1442 1.254 . S
O1454 Tb1425 2.378 . S
O1454 C1443 1.236 . S
O1455 Tb1424 2.341 . S
O1455 C1443 1.266 . S
H1456 C1428 0.929 . S
H1457 C1429 0.931 . S
H1458 C1431 0.930 . S
H1459 C1432 0.930 . S
H1460 C1437 0.929 . S
H1461 C1438 0.931 . S
H1462 C1440 0.930 . S
H1463 C1441 0.930 . S
Tb1464 C1466 2.809 . S
Tb1464 O1484 2.484 . S
Tb1464 O1485 2.440 1_554 S
Tb1464 O1486 2.658 . S
Tb1464 O1487 2.409 1_554 S
Tb1464 O1488 2.378 . S
Tb1464 O1492 2.325 . S
Tb1464 O1495 2.341 . S
Tb1465 C1475 2.809 1_455 S
Tb1465 O1486 2.325 . S
Tb1465 O1489 2.341 . S
Tb1465 O1490 2.484 1_455 S
Tb1465 O1491 2.440 1_455 S
Tb1465 O1492 2.658 . S
Tb1465 O1493 2.409 . S
Tb1465 O1494 2.378 . S
C1466 Tb1464 2.809 . S
C1466 C1467 1.514 . S
C1466 O1484 1.248 . S
C1466 O1485 1.266 1_554 S
C1467 C1466 1.514 . S
C1467 C1468 1.359 . S
C1467 C1472 1.348 1_554 S
C1468 C1467 1.359 . S
C1468 C1469 1.380 . S
C1468 H1496 0.929 . S
C1469 C1468 1.380 . S
C1469 C1470 1.347 . S
C1469 H1497 0.931 . S
C1470 C1469 1.347 . S
C1470 C1471 1.369 1_554 S
C1471 C1470 1.369 1_556 S
C1471 C1472 1.408 . S
C1471 H1498 0.930 . S
C1472 C1467 1.348 1_556 S
C1472 C1471 1.408 . S
C1472 H1499 0.930 . S
C1473 O1486 1.281 1_556 S
C1473 O1487 1.254 . S
C1474 O1488 1.236 . S
C1474 O1489 1.266 . S
C1475 Tb1465 2.809 1_655 S
C1475 C1476 1.514 . S
C1475 O1490 1.248 . S
C1475 O1491 1.266 . S
C1476 C1475 1.514 . S
C1476 C1477 1.359 . S
C1476 C1481 1.348 . S
C1477 C1476 1.359 . S
C1477 C1478 1.380 . S
C1477 H1500 0.929 . S
C1478 C1477 1.380 . S
C1478 C1479 1.347 . S
C1478 H1501 0.931 . S
C1479 C1478 1.347 . S
C1479 C1480 1.369 . S
C1480 C1479 1.369 . S
C1480 C1481 1.408 . S
C1480 H1502 0.930 . S
C1481 C1476 1.348 . S
C1481 C1480 1.408 . S
C1481 H1503 0.930 . S
C1482 O1492 1.281 . S
C1482 O1493 1.254 . S
C1483 O1494 1.236 . S
C1483 O1495 1.266 . S
O1484 Tb1464 2.484 . S
O1484 C1466 1.248 . S
O1485 Tb1464 2.440 1_556 S
O1485 C1466 1.266 1_556 S
O1486 Tb1464 2.658 . S
O1486 Tb1465 2.325 . S
O1486 C1473 1.281 1_554 S
O1487 Tb1464 2.409 1_556 S
O1487 C1473 1.254 . S
O1488 Tb1464 2.378 . S
O1488 C1474 1.236 . S
O1489 Tb1465 2.341 . S
O1489 C1474 1.266 . S
O1490 Tb1465 2.484 1_655 S
O1490 C1475 1.248 . S
O1491 Tb1465 2.440 1_655 S
O1491 C1475 1.266 . S
O1492 Tb1464 2.325 . S
O1492 Tb1465 2.658 . S
O1492 C1482 1.281 . S
O1493 Tb1465 2.409 . S
O1493 C1482 1.254 . S
O1494 Tb1465 2.378 . S
O1494 C1483 1.236 . S
O1495 Tb1464 2.341 . S
O1495 C1483 1.266 . S
H1496 C1468 0.929 . S
H1497 C1469 0.931 . S
H1498 C1471 0.930 . S
H1499 C1472 0.930 . S
H1500 C1477 0.929 . S
H1501 C1478 0.931 . S
H1502 C1480 0.930 . S
H1503 C1481 0.930 . S
C1504 C1505 1.349 . S
C1504 C1506 1.327 . S
C1504 H1529 0.950 . S
C1505 C1504 1.349 . S
C1505 C1521 1.349 . S
C1506 C1504 1.327 . S
C1506 C1525 1.429 . S
C1506 H1530 0.950 . S
C1507 C1524 1.574 . S
C1507 C1526 1.368 . S
C1507 H1531 0.949 . S
H1508 C1512 0.949 . S
C1509 C1510 1.349 . S
C1509 C1511 1.327 . S
C1509 H1532 0.950 . S
C1510 C1509 1.349 . S
C1510 C1522 1.349 1_554 S
C1511 C1509 1.327 . S
C1511 C1527 1.429 1_554 S
C1511 H1533 0.950 . S
C1512 H1508 0.949 . S
C1512 C1520 1.574 . S
C1512 C1528 1.368 . S
H1513 C1521 0.961 . S
H1514 C1519 0.950 . S
H1515 C1520 0.949 . S
H1516 C1522 0.950 . S
H1517 C1523 0.950 . S
H1518 C1524 0.949 1_554 S
C1519 H1514 0.950 . S
C1519 C1521 1.327 . S
C1519 C1525 1.429 . S
C1520 C1512 1.574 . S
C1520 H1515 0.949 . S
C1520 C1526 1.368 . S
C1521 C1505 1.349 . S
C1521 H1513 0.961 . S
C1521 C1519 1.327 . S
C1522 C1510 1.349 1_556 S
C1522 H1516 0.950 . S
C1522 C1523 1.327 . S
C1523 H1517 0.950 . S
C1523 C1522 1.327 . S
C1523 C1527 1.429 . S
C1524 C1507 1.574 . S
C1524 H1518 0.949 1_556 S
C1524 C1528 1.368 . S
C1525 C1506 1.429 . S
C1525 C1519 1.429 . S
C1525 C1526 1.523 . S
C1526 C1507 1.368 . S
C1526 C1520 1.368 . S
C1526 C1525 1.523 . S
C1527 C1511 1.429 1_556 S
C1527 C1523 1.429 . S
C1527 C1528 1.523 . S
C1528 C1512 1.368 . S
C1528 C1524 1.368 . S
C1528 C1527 1.523 . S
H1529 C1504 0.950 . S
H1530 C1506 0.950 . S
H1531 C1507 0.949 . S
H1532 C1509 0.950 . S
H1533 C1511 0.950 . S
C1534 C1535 1.349 . S
C1534 C1536 1.327 . S
C1534 H1559 0.950 . S
C1535 C1534 1.349 . S
C1535 C1551 1.349 . S
C1536 C1534 1.327 . S
C1536 C1555 1.429 . S
C1536 H1560 0.950 . S
C1537 C1554 1.574 . S
C1537 C1556 1.368 . S
C1537 H1561 0.949 . S
H1538 C1542 0.949 . S
C1539 C1540 1.349 . S
C1539 C1541 1.327 . S
C1539 H1562 0.950 . S
C1540 C1539 1.349 . S
C1540 C1552 1.349 . S
C1541 C1539 1.327 . S
C1541 C1557 1.429 . S
C1541 H1563 0.950 . S
C1542 H1538 0.949 . S
C1542 C1550 1.574 . S
C1542 C1558 1.368 . S
H1543 C1551 0.950 . S
H1544 C1549 0.950 . S
H1545 C1550 0.949 . S
H1546 C1552 0.950 . S
H1547 C1553 0.950 . S
H1548 C1554 0.949 . S
C1549 H1544 0.950 . S
C1549 C1551 1.327 . S
C1549 C1555 1.429 . S
C1550 C1542 1.574 . S
C1550 H1545 0.949 . S
C1550 C1556 1.368 . S
C1551 C1535 1.349 . S
C1551 H1543 0.950 . S
C1551 C1549 1.327 . S
C1552 C1540 1.349 . S
C1552 H1546 0.950 . S
C1552 C1553 1.327 . S
C1553 H1547 0.950 . S
C1553 C1552 1.327 . S
C1553 C1557 1.429 . S
C1554 C1537 1.574 . S
C1554 H1548 0.949 . S
C1554 C1558 1.368 . S
C1555 C1536 1.429 . S
C1555 C1549 1.429 . S
C1555 C1556 1.523 . S
C1556 C1537 1.368 . S
C1556 C1550 1.368 . S
C1556 C1555 1.523 . S
C1557 C1541 1.429 . S
C1557 C1553 1.429 . S
C1557 C1558 1.523 . S
C1558 C1542 1.368 . S
C1558 C1554 1.368 . S
C1558 C1557 1.523 . S
H1559 C1534 0.950 . S
H1560 C1536 0.950 . S
H1561 C1537 0.949 . S
H1562 C1539 0.950 . S
H1563 C1541 0.950 . S
C1564 C1565 1.349 . S
C1564 C1566 1.327 . S
C1564 H1589 0.950 . S
C1565 C1564 1.349 . S
C1565 C1581 1.349 . S
C1566 C1564 1.327 . S
C1566 C1585 1.429 . S
C1566 H1590 0.950 . S
C1567 C1584 1.574 . S
C1567 C1586 1.368 . S
C1567 H1591 0.949 . S
H1568 C1572 0.949 . S
C1569 C1570 1.349 . S
C1569 C1571 1.327 . S
C1569 H1592 0.950 . S
C1570 C1569 1.349 . S
C1570 C1582 1.349 . S
C1571 C1569 1.327 . S
C1571 C1587 1.429 . S
C1571 H1593 0.950 . S
C1572 H1568 0.949 . S
C1572 C1580 1.574 . S
C1572 C1588 1.368 . S
H1573 C1581 0.950 . S
H1574 C1579 0.950 . S
H1575 C1580 0.949 . S
H1576 C1582 0.950 . S
H1577 C1583 0.950 . S
H1578 C1584 0.949 . S
C1579 H1574 0.950 . S
C1579 C1581 1.327 . S
C1579 C1585 1.429 . S
C1580 C1572 1.574 . S
C1580 H1575 0.949 . S
C1580 C1586 1.368 . S
C1581 C1565 1.349 . S
C1581 H1573 0.950 . S
C1581 C1579 1.327 . S
C1582 C1570 1.349 . S
C1582 H1576 0.950 . S
C1582 C1583 1.327 . S
C1583 H1577 0.950 . S
C1583 C1582 1.327 . S
C1583 C1587 1.429 . S
C1584 C1567 1.574 . S
C1584 H1578 0.949 . S
C1584 C1588 1.368 . S
C1585 C1566 1.429 . S
C1585 C1579 1.429 . S
C1585 C1586 1.523 . S
C1586 C1567 1.368 . S
C1586 C1580 1.368 . S
C1586 C1585 1.523 . S
C1587 C1571 1.429 . S
C1587 C1583 1.429 . S
C1587 C1588 1.523 . S
C1588 C1572 1.368 . S
C1588 C1584 1.368 . S
C1588 C1587 1.523 . S
H1589 C1564 0.950 . S
H1590 C1566 0.950 . S
H1591 C1567 0.949 . S
H1592 C1569 0.950 . S
H1593 C1571 0.950 . S
C1594 C1595 1.349 . S
C1594 C1596 1.327 . S
C1594 H1619 0.950 . S
C1595 C1594 1.349 . S
C1595 C1611 1.349 . S
C1596 C1594 1.327 . S
C1596 C1615 1.429 . S
C1596 H1620 0.950 . S
C1597 C1614 1.574 . S
C1597 C1616 1.368 . S
C1597 H1621 0.949 . S
H1598 C1602 0.949 . S
C1599 C1600 1.349 . S
C1599 C1601 1.327 . S
C1599 H1622 0.950 . S
C1600 C1599 1.349 . S
C1600 C1612 1.349 . S
C1601 C1599 1.327 . S
C1601 C1617 1.429 . S
C1601 H1623 0.950 . S
C1602 H1598 0.949 . S
C1602 C1610 1.574 . S
C1602 C1618 1.368 . S
H1603 C1611 0.950 . S
H1604 C1609 0.950 . S
H1605 C1610 0.949 . S
H1606 C1612 0.950 . S
H1607 C1613 0.950 . S
H1608 C1614 0.949 . S
C1609 H1604 0.950 . S
C1609 C1611 1.327 . S
C1609 C1615 1.429 . S
C1610 C1602 1.574 . S
C1610 H1605 0.949 . S
C1610 C1616 1.368 . S
C1611 C1595 1.349 . S
C1611 H1603 0.950 . S
C1611 C1609 1.327 . S
C1612 C1600 1.349 . S
C1612 H1606 0.950 . S
C1612 C1613 1.327 . S
C1613 H1607 0.950 . S
C1613 C1612 1.327 . S
C1613 C1617 1.429 . S
C1614 C1597 1.574 . S
C1614 H1608 0.949 . S
C1614 C1618 1.368 . S
C1615 C1596 1.429 . S
C1615 C1609 1.429 . S
C1615 C1616 1.523 . S
C1616 C1597 1.368 . S
C1616 C1610 1.368 . S
C1616 C1615 1.523 . S
C1617 C1601 1.429 . S
C1617 C1613 1.429 . S
C1617 C1618 1.523 . S
C1618 C1602 1.368 . S
C1618 C1614 1.368 . S
C1618 C1617 1.523 . S
H1619 C1594 0.950 . S
H1620 C1596 0.950 . S
H1621 C1597 0.949 . S
H1622 C1599 0.950 . S
H1623 C1601 0.950 . S
C1624 C1625 1.349 . S
C1624 C1626 1.327 . S
C1624 H1649 0.950 . S
C1625 C1624 1.349 . S
C1625 C1641 1.349 . S
C1626 C1624 1.327 . S
C1626 C1645 1.429 . S
C1626 H1650 0.950 . S
C1627 C1644 1.574 . S
C1627 C1646 1.368 . S
C1627 H1651 0.949 . S
H1628 C1632 0.949 . S
C1629 C1630 1.349 . S
C1629 C1631 1.327 . S
C1629 H1652 0.950 . S
C1630 C1629 1.349 . S
C1630 C1642 1.349 . S
C1631 C1629 1.327 . S
C1631 C1647 1.429 . S
C1631 H1653 0.950 . S
C1632 H1628 0.949 . S
C1632 C1640 1.574 . S
C1632 C1648 1.368 . S
H1633 C1641 0.950 . S
H1634 C1639 0.950 . S
H1635 C1640 0.949 . S
H1636 C1642 0.950 . S
H1637 C1643 0.950 . S
H1638 C1644 0.949 . S
C1639 H1634 0.950 . S
C1639 C1641 1.327 . S
C1639 C1645 1.429 . S
C1640 C1632 1.574 . S
C1640 H1635 0.949 . S
C1640 C1646 1.368 . S
C1641 C1625 1.349 . S
C1641 H1633 0.950 . S
C1641 C1639 1.327 . S
C1642 C1630 1.349 . S
C1642 H1636 0.950 . S
C1642 C1643 1.327 . S
C1643 H1637 0.950 . S
C1643 C1642 1.327 . S
C1643 C1647 1.429 . S
C1644 C1627 1.574 . S
C1644 H1638 0.949 . S
C1644 C1648 1.368 . S
C1645 C1626 1.429 . S
C1645 C1639 1.429 . S
C1645 C1646 1.523 . S
C1646 C1627 1.368 . S
C1646 C1640 1.368 . S
C1646 C1645 1.523 . S
C1647 C1631 1.429 . S
C1647 C1643 1.429 . S
C1647 C1648 1.523 . S
C1648 C1632 1.368 . S
C1648 C1644 1.368 . S
C1648 C1647 1.523 . S
H1649 C1624 0.950 . S
H1650 C1626 0.950 . S
H1651 C1627 0.949 . S
H1652 C1629 0.950 . S
H1653 C1631 0.950 . S
C1654 C1655 1.349 . S
C1654 C1656 1.327 . S
C1654 H1679 0.950 . S
C1655 C1654 1.349 . S
C1655 C1671 1.349 . S
C1656 C1654 1.327 . S
C1656 C1675 1.429 . S
C1656 H1680 0.950 . S
C1657 C1674 1.574 . S
C1657 C1676 1.368 . S
C1657 H1681 0.949 . S
H1658 C1662 0.949 . S
C1659 C1660 1.349 . S
C1659 C1661 1.327 . S
C1659 H1682 0.950 . S
C1660 C1659 1.349 . S
C1660 C1672 1.349 . S
C1661 C1659 1.327 . S
C1661 C1677 1.429 . S
C1661 H1683 0.950 . S
C1662 H1658 0.949 . S
C1662 C1670 1.574 . S
C1662 C1678 1.368 . S
H1663 C1671 0.950 . S
H1664 C1669 0.950 . S
H1665 C1670 0.949 . S
H1666 C1672 0.950 . S
H1667 C1673 0.950 . S
H1668 C1674 0.949 . S
C1669 H1664 0.950 . S
C1669 C1671 1.327 . S
C1669 C1675 1.429 . S
C1670 C1662 1.574 . S
C1670 H1665 0.949 . S
C1670 C1676 1.368 . S
C1671 C1655 1.349 . S
C1671 H1663 0.950 . S
C1671 C1669 1.327 . S
C1672 C1660 1.349 . S
C1672 H1666 0.950 . S
C1672 C1673 1.327 . S
C1673 H1667 0.950 . S
C1673 C1672 1.327 . S
C1673 C1677 1.429 . S
C1674 C1657 1.574 . S
C1674 H1668 0.949 . S
C1674 C1678 1.368 . S
C1675 C1656 1.429 . S
C1675 C1669 1.429 . S
C1675 C1676 1.523 . S
C1676 C1657 1.368 . S
C1676 C1670 1.368 . S
C1676 C1675 1.523 . S
C1677 C1661 1.429 . S
C1677 C1673 1.429 . S
C1677 C1678 1.523 . S
C1678 C1662 1.368 . S
C1678 C1674 1.368 . S
C1678 C1677 1.523 . S
H1679 C1654 0.950 . S
H1680 C1656 0.950 . S
H1681 C1657 0.949 . S
H1682 C1659 0.950 . S
H1683 C1661 0.950 . S
C1684 C1685 1.349 . S
C1684 C1686 1.327 . S
C1684 H1709 0.950 . S
C1685 C1684 1.349 . S
C1685 C1701 1.349 . S
C1686 C1684 1.327 . S
C1686 C1705 1.429 . S
C1686 H1710 0.950 . S
C1687 C1704 1.574 . S
C1687 C1706 1.368 . S
C1687 H1711 0.949 . S
H1688 C1692 0.949 . S
C1689 C1690 1.349 . S
C1689 C1691 1.327 . S
C1689 H1712 0.950 . S
C1690 C1689 1.349 . S
C1690 C1702 1.349 . S
C1691 C1689 1.327 . S
C1691 C1707 1.429 . S
C1691 H1713 0.950 . S
C1692 H1688 0.949 . S
C1692 C1700 1.574 . S
C1692 C1708 1.368 . S
H1693 C1701 0.950 . S
H1694 C1699 0.950 . S
H1695 C1700 0.949 . S
H1696 C1702 0.950 . S
H1697 C1703 0.950 . S
H1698 C1704 0.949 . S
C1699 H1694 0.950 . S
C1699 C1701 1.327 . S
C1699 C1705 1.429 . S
C1700 C1692 1.574 . S
C1700 H1695 0.949 . S
C1700 C1706 1.368 . S
C1701 C1685 1.349 . S
C1701 H1693 0.950 . S
C1701 C1699 1.327 . S
C1702 C1690 1.349 . S
C1702 H1696 0.950 . S
C1702 C1703 1.327 . S
C1703 H1697 0.950 . S
C1703 C1702 1.327 . S
C1703 C1707 1.429 . S
C1704 C1687 1.574 . S
C1704 H1698 0.949 . S
C1704 C1708 1.368 . S
C1705 C1686 1.429 . S
C1705 C1699 1.429 . S
C1705 C1706 1.523 . S
C1706 C1687 1.368 . S
C1706 C1700 1.368 . S
C1706 C1705 1.523 . S
C1707 C1691 1.429 . S
C1707 C1703 1.429 . S
C1707 C1708 1.523 . S
C1708 C1692 1.368 . S
C1708 C1704 1.368 . S
C1708 C1707 1.523 . S
H1709 C1684 0.950 . S
H1710 C1686 0.950 . S
H1711 C1687 0.949 . S
H1712 C1689 0.950 . S
H1713 C1691 0.950 . S
C1714 C1715 1.349 . S
C1714 C1716 1.327 . S
C1714 H1739 0.950 . S
C1715 C1714 1.349 . S
C1715 C1731 1.349 . S
C1716 C1714 1.327 . S
C1716 C1735 1.429 . S
C1716 H1740 0.950 . S
C1717 C1734 1.574 . S
C1717 C1736 1.368 . S
C1717 H1741 0.949 . S
H1718 C1722 0.949 . S
C1719 C1720 1.349 . S
C1719 C1721 1.327 . S
C1719 H1742 0.950 . S
C1720 C1719 1.349 . S
C1720 C1732 1.349 . S
C1721 C1719 1.327 . S
C1721 C1737 1.429 . S
C1721 H1743 0.950 . S
C1722 H1718 0.949 . S
C1722 C1730 1.574 . S
C1722 C1738 1.368 . S
H1723 C1731 0.950 . S
H1724 C1729 0.950 . S
H1725 C1730 0.949 . S
H1726 C1732 0.950 . S
H1727 C1733 0.950 . S
H1728 C1734 0.949 . S
C1729 H1724 0.950 . S
C1729 C1731 1.327 . S
C1729 C1735 1.429 . S
C1730 C1722 1.574 . S
C1730 H1725 0.949 . S
C1730 C1736 1.368 . S
C1731 C1715 1.349 . S
C1731 H1723 0.950 . S
C1731 C1729 1.327 . S
C1732 C1720 1.349 . S
C1732 H1726 0.950 . S
C1732 C1733 1.327 . S
C1733 H1727 0.950 . S
C1733 C1732 1.327 . S
C1733 C1737 1.429 . S
C1734 C1717 1.574 . S
C1734 H1728 0.949 . S
C1734 C1738 1.368 . S
C1735 C1716 1.429 . S
C1735 C1729 1.429 . S
C1735 C1736 1.523 . S
C1736 C1717 1.368 . S
C1736 C1730 1.368 . S
C1736 C1735 1.523 . S
C1737 C1721 1.429 . S
C1737 C1733 1.429 . S
C1737 C1738 1.523 . S
C1738 C1722 1.368 . S
C1738 C1734 1.368 . S
C1738 C1737 1.523 . S
H1739 C1714 0.950 . S
H1740 C1716 0.950 . S
H1741 C1717 0.949 . S
H1742 C1719 0.950 . S
H1743 C1721 0.950 . S
C1744 C1745 1.349 . S
C1744 C1746 1.327 . S
C1744 H1769 0.950 . S
C1745 C1744 1.349 . S
C1745 C1761 1.349 1_545 S
C1746 C1744 1.327 . S
C1746 C1765 1.429 . S
C1746 H1770 0.950 . S
C1747 C1764 1.574 . S
C1747 C1766 1.368 1_565 S
C1747 H1771 0.949 . S
H1748 C1752 0.949 . S
C1749 C1750 1.349 . S
C1749 C1751 1.327 . S
C1749 H1772 0.950 1_545 S
C1750 C1749 1.349 . S
C1750 C1762 1.290 1_455 S
C1751 C1749 1.327 . S
C1751 C1767 1.429 1_455 S
C1751 H1773 0.950 1_545 S
C1752 H1748 0.949 . S
C1752 C1760 1.574 . S
C1752 C1768 1.368 . S
H1753 C1761 0.950 . S
H1754 C1759 0.950 . S
H1755 C1760 0.949 . S
H1756 C1762 0.975 . S
H1757 C1763 0.950 . S
H1758 C1764 0.949 1_455 S
C1759 H1754 0.950 . S
C1759 C1761 1.327 . S
C1759 C1765 1.429 1_565 S
C1760 C1752 1.574 . S
C1760 H1755 0.949 . S
C1760 C1766 1.368 . S
C1761 C1745 1.349 1_565 S
C1761 H1753 0.950 . S
C1761 C1759 1.327 . S
C1762 C1750 1.290 1_655 S
C1762 H1756 0.975 . S
C1762 C1763 1.365 . S
C1763 H1757 0.950 . S
C1763 C1762 1.365 . S
C1763 C1767 1.429 . S
C1764 C1747 1.574 . S
C1764 H1758 0.949 1_655 S
C1764 C1768 1.368 1_565 S
C1765 C1746 1.429 . S
C1765 C1759 1.429 1_545 S
C1765 C1766 1.523 . S
C1766 C1747 1.368 1_545 S
C1766 C1760 1.368 . S
C1766 C1765 1.523 . S
C1767 C1751 1.429 1_655 S
C1767 C1763 1.429 . S
C1767 C1768 1.523 . S
C1768 C1752 1.368 . S
C1768 C1764 1.368 1_545 S
C1768 C1767 1.523 . S
H1769 C1744 0.950 . S
H1770 C1746 0.950 . S
H1771 C1747 0.949 . S
H1772 C1749 0.950 1_565 S
H1773 C1751 0.950 1_565 S
C1774 C1775 1.349 . S
C1774 C1776 1.327 . S
C1774 H1799 0.950 . S
C1775 C1774 1.349 . S
C1775 C1791 1.349 . S
C1776 C1774 1.327 . S
C1776 C1795 1.429 . S
C1776 H1800 0.950 . S
C1777 C1794 1.574 . S
C1777 C1796 1.368 . S
C1777 H1801 0.949 . S
H1778 C1782 0.949 . S
C1779 C1780 1.349 . S
C1779 C1781 1.327 . S
C1779 H1802 0.950 . S
C1780 C1779 1.349 . S
C1780 C1792 1.349 . S
C1781 C1779 1.327 . S
C1781 C1797 1.429 . S
C1781 H1803 0.950 . S
C1782 H1778 0.949 . S
C1782 C1790 1.574 . S
C1782 C1798 1.368 . S
H1783 C1791 0.950 . S
H1784 C1789 0.950 . S
H1785 C1790 0.949 . S
H1786 C1792 0.950 . S
H1787 C1793 0.950 . S
H1788 C1794 0.949 . S
C1789 H1784 0.950 . S
C1789 C1791 1.327 . S
C1789 C1795 1.429 . S
C1790 C1782 1.574 . S
C1790 H1785 0.949 . S
C1790 C1796 1.368 . S
C1791 C1775 1.349 . S
C1791 H1783 0.950 . S
C1791 C1789 1.327 . S
C1792 C1780 1.349 . S
C1792 H1786 0.950 . S
C1792 C1793 1.327 . S
C1793 H1787 0.950 . S
C1793 C1792 1.327 . S
C1793 C1797 1.429 . S
C1794 C1777 1.574 . S
C1794 H1788 0.949 . S
C1794 C1798 1.368 . S
C1795 C1776 1.429 . S
C1795 C1789 1.429 . S
C1795 C1796 1.523 . S
C1796 C1777 1.368 . S
C1796 C1790 1.368 . S
C1796 C1795 1.523 . S
C1797 C1781 1.429 . S
C1797 C1793 1.429 . S
C1797 C1798 1.523 . S
C1798 C1782 1.368 . S
C1798 C1794 1.368 . S
C1798 C1797 1.523 . S
H1799 C1774 0.950 . S
H1800 C1776 0.950 . S
H1801 C1777 0.949 . S
H1802 C1779 0.950 . S
H1803 C1781 0.950 . S
C1804 C1805 1.349 . S
C1804 C1806 1.327 . S
C1804 H1829 0.950 . S
C1805 C1804 1.349 . S
C1805 C1821 1.349 1_545 S
C1806 C1804 1.327 . S
C1806 C1825 1.429 . S
C1806 H1830 0.950 . S
C1807 C1824 1.574 . S
C1807 C1826 1.368 1_565 S
C1807 H1831 0.949 . S
H1808 C1812 0.949 . S
C1809 C1810 1.362 . S
C1809 C1811 1.312 1_545 S
C1809 H1832 0.941 1_545 S
C1810 C1809 1.362 . S
C1810 C1822 1.349 . S
C1811 C1809 1.312 1_565 S
C1811 C1827 1.404 1_565 S
C1811 H1833 0.989 . S
C1812 H1808 0.949 . S
C1812 C1820 1.574 . S
C1812 C1828 1.368 . S
H1813 C1821 0.950 . S
H1814 C1819 0.950 . S
H1815 C1820 0.949 . S
H1816 C1822 0.950 . S
H1817 C1823 0.950 . S
H1818 C1824 0.949 . S
C1819 H1814 0.950 . S
C1819 C1821 1.327 . S
C1819 C1825 1.429 1_565 S
C1820 C1812 1.574 . S
C1820 H1815 0.949 . S
C1820 C1826 1.368 . S
C1821 C1805 1.349 1_565 S
C1821 H1813 0.950 . S
C1821 C1819 1.327 . S
C1822 C1810 1.349 . S
C1822 H1816 0.950 . S
C1822 C1823 1.327 . S
C1823 H1817 0.950 . S
C1823 C1822 1.327 . S
C1823 C1827 1.429 . S
C1824 C1807 1.574 . S
C1824 H1818 0.949 . S
C1824 C1828 1.368 1_565 S
C1825 C1806 1.429 . S
C1825 C1819 1.429 1_545 S
C1825 C1826 1.523 . S
C1826 C1807 1.368 1_545 S
C1826 C1820 1.368 . S
C1826 C1825 1.523 . S
C1827 C1811 1.404 1_545 S
C1827 C1823 1.429 . S
C1827 C1828 1.523 . S
C1828 C1812 1.368 . S
C1828 C1824 1.368 1_545 S
C1828 C1827 1.523 . S
H1829 C1804 0.950 . S
H1830 C1806 0.950 . S
H1831 C1807 0.949 . S
H1832 C1809 0.941 1_565 S
H1833 C1811 0.989 . S
C1834 C1835 1.349 . S
C1834 C1836 1.327 . S
C1834 H1859 0.950 . S
C1835 C1834 1.349 . S
C1835 C1851 1.349 . S
C1836 C1834 1.327 . S
C1836 C1855 1.429 . S
C1836 H1860 0.950 . S
C1837 C1854 1.574 . S
C1837 C1856 1.368 . S
C1837 H1861 0.949 . S
H1838 C1842 0.949 . S
C1839 C1840 1.349 . S
C1839 C1841 1.327 . S
C1839 H1862 0.950 . S
C1840 C1839 1.349 . S
C1840 C1852 1.349 . S
C1841 C1839 1.327 . S
C1841 C1857 1.429 . S
C1841 H1863 0.950 . S
C1842 H1838 0.949 . S
C1842 C1850 1.574 . S
C1842 C1858 1.368 . S
H1843 C1851 0.950 . S
H1844 C1849 0.950 . S
H1845 C1850 0.949 . S
H1846 C1852 0.950 . S
H1847 C1853 0.950 . S
H1848 C1854 0.949 . S
C1849 H1844 0.950 . S
C1849 C1851 1.327 . S
C1849 C1855 1.429 . S
C1850 C1842 1.574 . S
C1850 H1845 0.949 . S
C1850 C1856 1.368 . S
C1851 C1835 1.349 . S
C1851 H1843 0.950 . S
C1851 C1849 1.327 . S
C1852 C1840 1.349 . S
C1852 H1846 0.950 . S
C1852 C1853 1.327 . S
C1853 H1847 0.950 . S
C1853 C1852 1.327 . S
C1853 C1857 1.429 . S
C1854 C1837 1.574 . S
C1854 H1848 0.949 . S
C1854 C1858 1.368 . S
C1855 C1836 1.429 . S
C1855 C1849 1.429 . S
C1855 C1856 1.523 . S
C1856 C1837 1.368 . S
C1856 C1850 1.368 . S
C1856 C1855 1.523 . S
C1857 C1841 1.429 . S
C1857 C1853 1.429 . S
C1857 C1858 1.523 . S
C1858 C1842 1.368 . S
C1858 C1854 1.368 . S
C1858 C1857 1.523 . S
H1859 C1834 0.950 . S
H1860 C1836 0.950 . S
H1861 C1837 0.949 . S
H1862 C1839 0.950 . S
H1863 C1841 0.950 . S
C1864 C1865 1.349 . S
C1864 C1866 1.327 . S
C1864 H1889 0.950 . S
C1865 C1864 1.349 . S
C1865 C1881 1.349 . S
C1866 C1864 1.327 . S
C1866 C1885 1.429 . S
C1866 H1890 0.950 . S
C1867 C1884 1.574 1_655 S
C1867 C1886 1.368 . S
C1867 H1891 0.916 1_655 S
H1868 C1872 0.949 . S
C1869 C1870 1.349 . S
C1869 C1871 1.327 . S
C1869 H1892 0.950 . S
C1870 C1869 1.349 . S
C1870 C1882 1.349 1_455 S
C1871 C1869 1.327 . S
C1871 C1887 1.429 1_455 S
C1871 H1893 0.950 . S
C1872 H1868 0.949 . S
C1872 C1880 1.574 . S
C1872 C1888 1.368 . S
H1873 C1881 0.950 . S
H1874 C1879 0.950 . S
H1875 C1880 0.949 . S
H1876 C1882 0.950 . S
H1877 C1883 0.950 . S
H1878 C1884 0.949 . S
C1879 H1874 0.950 . S
C1879 C1881 1.327 . S
C1879 C1885 1.429 . S
C1880 C1872 1.574 . S
C1880 H1875 0.949 . S
C1880 C1886 1.368 . S
C1881 C1865 1.349 . S
C1881 H1873 0.950 . S
C1881 C1879 1.327 . S
C1882 C1870 1.349 1_655 S
C1882 H1876 0.950 . S
C1882 C1883 1.327 . S
C1883 H1877 0.950 . S
C1883 C1882 1.327 . S
C1883 C1887 1.429 . S
C1884 C1867 1.574 1_455 S
C1884 H1878 0.949 . S
C1884 C1888 1.368 1_455 S
C1885 C1866 1.429 . S
C1885 C1879 1.429 . S
C1885 C1886 1.523 . S
C1886 C1867 1.368 . S
C1886 C1880 1.368 . S
C1886 C1885 1.523 . S
C1887 C1871 1.429 1_655 S
C1887 C1883 1.429 . S
C1887 C1888 1.523 . S
C1888 C1872 1.368 . S
C1888 C1884 1.368 1_655 S
C1888 C1887 1.523 . S
H1889 C1864 0.950 . S
H1890 C1866 0.950 . S
H1891 C1867 0.916 1_455 S
H1892 C1869 0.950 . S
H1893 C1871 0.950 . S
C1894 C1895 1.349 . S
C1894 C1896 1.327 . S
C1894 H1919 0.950 . S
C1895 C1894 1.349 . S
C1895 C1911 1.349 . S
C1896 C1894 1.327 . S
C1896 C1915 1.429 . S
C1896 H1920 0.950 . S
C1897 C1914 1.574 . S
C1897 C1916 1.368 . S
C1897 H1921 0.949 . S
H1898 C1902 0.949 . S
C1899 C1900 1.349 . S
C1899 C1901 1.327 . S
C1899 H1922 0.950 . S
C1900 C1899 1.349 . S
C1900 C1912 1.349 . S
C1901 C1899 1.327 . S
C1901 C1917 1.429 . S
C1901 H1923 0.950 . S
C1902 H1898 0.949 . S
C1902 C1910 1.574 . S
C1902 C1918 1.368 . S
H1903 C1911 0.950 . S
H1904 C1909 0.950 . S
H1905 C1910 0.949 . S
H1906 C1912 0.950 . S
H1907 C1913 0.950 . S
H1908 C1914 0.949 . S
C1909 H1904 0.950 . S
C1909 C1911 1.327 . S
C1909 C1915 1.429 . S
C1910 C1902 1.574 . S
C1910 H1905 0.949 . S
C1910 C1916 1.368 . S
C1911 C1895 1.349 . S
C1911 H1903 0.950 . S
C1911 C1909 1.327 . S
C1912 C1900 1.349 . S
C1912 H1906 0.950 . S
C1912 C1913 1.327 . S
C1913 H1907 0.950 . S
C1913 C1912 1.327 . S
C1913 C1917 1.429 . S
C1914 C1897 1.574 . S
C1914 H1908 0.949 . S
C1914 C1918 1.368 . S
C1915 C1896 1.429 . S
C1915 C1909 1.429 . S
C1915 C1916 1.523 . S
C1916 C1897 1.368 . S
C1916 C1910 1.368 . S
C1916 C1915 1.523 . S
C1917 C1901 1.429 . S
C1917 C1913 1.429 . S
C1917 C1918 1.523 . S
C1918 C1902 1.368 . S
C1918 C1914 1.368 . S
C1918 C1917 1.523 . S
H1919 C1894 0.950 . S
H1920 C1896 0.950 . S
H1921 C1897 0.949 . S
H1922 C1899 0.950 . S
H1923 C1901 0.950 . S
C1924 C1925 1.349 . S
C1924 C1926 1.327 . S
C1924 H1949 0.950 . S
C1925 C1924 1.349 . S
C1925 C1941 1.376 . S
C1926 C1924 1.327 . S
C1926 C1945 1.429 . S
C1926 H1950 0.950 . S
C1927 C1944 1.574 . S
C1927 C1946 1.368 . S
C1927 H1951 0.949 1_545 S
H1928 C1932 0.949 . S
C1929 C1930 1.349 . S
C1929 C1931 1.327 . S
C1929 H1952 0.950 . S
C1930 C1929 1.349 . S
C1930 C1942 1.349 . S
C1931 C1929 1.327 . S
C1931 C1947 1.429 . S
C1931 H1953 0.925 1_545 S
C1932 H1928 0.949 . S
C1932 C1940 1.574 . S
C1932 C1948 1.368 . S
H1933 C1941 0.919 1_565 S
H1934 C1939 0.950 1_565 S
H1935 C1940 0.949 . S
H1936 C1942 0.950 . S
H1937 C1943 0.950 . S
H1938 C1944 0.949 1_565 S
C1939 H1934 0.950 1_545 S
C1939 C1941 1.330 . S
C1939 C1945 1.429 . S
C1940 C1932 1.574 . S
C1940 H1935 0.949 . S
C1940 C1946 1.368 . S
C1941 C1925 1.376 . S
C1941 H1933 0.919 1_545 S
C1941 C1939 1.330 . S
C1942 C1930 1.349 . S
C1942 H1936 0.950 . S
C1942 C1943 1.327 . S
C1943 H1937 0.950 . S
C1943 C1942 1.327 . S
C1943 C1947 1.429 . S
C1944 C1927 1.574 . S
C1944 H1938 0.949 1_545 S
C1944 C1948 1.368 . S
C1945 C1926 1.429 . S
C1945 C1939 1.429 . S
C1945 C1946 1.523 . S
C1946 C1927 1.368 . S
C1946 C1940 1.368 . S
C1946 C1945 1.523 . S
C1947 C1931 1.429 . S
C1947 C1943 1.429 . S
C1947 C1948 1.523 . S
C1948 C1932 1.368 . S
C1948 C1944 1.368 . S
C1948 C1947 1.523 . S
H1949 C1924 0.950 . S
H1950 C1926 0.950 . S
H1951 C1927 0.949 1_565 S
H1952 C1929 0.950 . S
H1953 C1931 0.925 1_565 S
C1954 C1955 1.349 . S
C1954 C1956 1.327 . S
C1954 H1979 0.950 . S
C1955 C1954 1.349 . S
C1955 C1971 1.349 . S
C1956 C1954 1.327 . S
C1956 C1975 1.429 . S
C1956 H1980 0.950 . S
C1957 C1974 1.574 . S
C1957 C1976 1.368 . S
C1957 H1981 0.949 . S
H1958 C1962 0.949 . S
C1959 C1960 1.349 . S
C1959 C1961 1.327 . S
C1959 H1982 0.950 . S
C1960 C1959 1.349 . S
C1960 C1972 1.349 . S
C1961 C1959 1.327 . S
C1961 C1977 1.429 . S
C1961 H1983 0.950 . S
C1962 H1958 0.949 . S
C1962 C1970 1.574 . S
C1962 C1978 1.368 . S
H1963 C1971 0.950 . S
H1964 C1969 0.950 . S
H1965 C1970 0.949 . S
H1966 C1972 0.950 . S
H1967 C1973 0.950 . S
H1968 C1974 0.949 . S
C1969 H1964 0.950 . S
C1969 C1971 1.327 . S
C1969 C1975 1.429 . S
C1970 C1962 1.574 . S
C1970 H1965 0.949 . S
C1970 C1976 1.368 . S
C1971 C1955 1.349 . S
C1971 H1963 0.950 . S
C1971 C1969 1.327 . S
C1972 C1960 1.349 . S
C1972 H1966 0.950 . S
C1972 C1973 1.327 . S
C1973 H1967 0.950 . S
C1973 C1972 1.327 . S
C1973 C1977 1.429 . S
C1974 C1957 1.574 . S
C1974 H1968 0.949 . S
C1974 C1978 1.368 . S
C1975 C1956 1.429 . S
C1975 C1969 1.429 . S
C1975 C1976 1.523 . S
C1976 C1957 1.368 . S
C1976 C1970 1.368 . S
C1976 C1975 1.523 . S
C1977 C1961 1.429 . S
C1977 C1973 1.429 . S
C1977 C1978 1.523 . S
C1978 C1962 1.368 . S
C1978 C1974 1.368 . S
C1978 C1977 1.523 . S
H1979 C1954 0.950 . S
H1980 C1956 0.950 . S
H1981 C1957 0.949 . S
H1982 C1959 0.950 . S
H1983 C1961 0.950 . S
C1984 C1985 1.347 1_554 S
C1984 C1986 1.327 . S
C1984 H2009 0.950 . S
C1985 C1984 1.347 1_556 S
C1985 C2001 1.350 . S
C1986 C1984 1.327 . S
C1986 C2005 1.429 . S
C1986 H2010 0.950 . S
C1987 C2004 1.574 . S
C1987 C2006 1.368 . S
C1987 H2011 0.949 1_554 S
H1988 C1992 0.949 . S
C1989 C1990 1.349 . S
C1989 C1991 1.327 . S
C1989 H2012 0.950 . S
C1990 C1989 1.349 . S
C1990 C2002 1.349 . S
C1991 C1989 1.327 . S
C1991 C2007 1.429 . S
C1991 H2013 0.950 . S
C1992 H1988 0.949 . S
C1992 C2000 1.574 . S
C1992 C2008 1.368 . S
H1993 C2001 0.950 . S
H1994 C1999 0.950 . S
H1995 C2000 0.949 . S
H1996 C2002 0.950 . S
H1997 C2003 0.950 . S
H1998 C2004 0.949 . S
C1999 H1994 0.950 . S
C1999 C2001 1.327 . S
C1999 C2005 1.429 1_556 S
C2000 C1992 1.574 . S
C2000 H1995 0.949 . S
C2000 C2006 1.368 . S
C2001 C1985 1.350 . S
C2001 H1993 0.950 . S
C2001 C1999 1.327 . S
C2002 C1990 1.349 . S
C2002 H1996 0.950 . S
C2002 C2003 1.327 . S
C2003 H1997 0.950 . S
C2003 C2002 1.327 . S
C2003 C2007 1.429 . S
C2004 C1987 1.574 . S
C2004 H1998 0.949 . S
C2004 C2008 1.368 . S
C2005 C1986 1.429 . S
C2005 C1999 1.429 1_554 S
C2005 C2006 1.523 . S
C2006 C1987 1.368 . S
C2006 C2000 1.368 . S
C2006 C2005 1.523 . S
C2007 C1991 1.429 . S
C2007 C2003 1.429 . S
C2007 C2008 1.523 . S
C2008 C1992 1.368 . S
C2008 C2004 1.368 . S
C2008 C2007 1.523 . S
H2009 C1984 0.950 . S
H2010 C1986 0.950 . S
H2011 C1987 0.949 1_556 S
H2012 C1989 0.950 . S
H2013 C1991 0.950 . S
C2014 C2015 1.349 . S
C2014 C2016 1.327 . S
C2014 H2039 0.950 1_554 S
C2015 C2014 1.349 . S
C2015 C2031 1.349 . S
C2016 C2014 1.327 . S
C2016 C2035 1.429 . S
C2016 H2040 0.950 1_554 S
C2017 C2034 1.574 . S
C2017 C2036 1.368 . S
C2017 H2041 0.949 . S
H2018 C2022 0.949 1_556 S
C2019 C2020 1.349 . S
C2019 C2021 1.327 . S
C2019 H2042 0.950 . S
C2020 C2019 1.349 . S
C2020 C2032 1.349 . S
C2021 C2019 1.327 . S
C2021 C2037 1.429 . S
C2021 H2043 0.950 . S
C2022 H2018 0.949 1_554 S
C2022 C2030 1.574 . S
C2022 C2038 1.368 . S
H2023 C2031 0.950 . S
H2024 C2029 0.950 . S
H2025 C2030 0.949 1_556 S
H2026 C2032 0.950 1_556 S
H2027 C2033 0.950 1_556 S
H2028 C2034 0.949 . S
C2029 H2024 0.950 . S
C2029 C2031 1.327 . S
C2029 C2035 1.429 . S
C2030 C2022 1.574 . S
C2030 H2025 0.949 1_554 S
C2030 C2036 1.368 . S
C2031 C2015 1.349 . S
C2031 H2023 0.950 . S
C2031 C2029 1.327 . S
C2032 C2020 1.349 . S
C2032 H2026 0.950 1_554 S
C2032 C2033 1.327 . S
C2033 H2027 0.950 1_554 S
C2033 C2032 1.327 . S
C2033 C2037 1.429 . S
C2034 C2017 1.574 . S
C2034 H2028 0.949 . S
C2034 C2038 1.368 . S
C2035 C2016 1.429 . S
C2035 C2029 1.429 . S
C2035 C2036 1.523 . S
C2036 C2017 1.368 . S
C2036 C2030 1.368 . S
C2036 C2035 1.523 . S
C2037 C2021 1.429 . S
C2037 C2033 1.429 . S
C2037 C2038 1.523 . S
C2038 C2022 1.368 . S
C2038 C2034 1.368 . S
C2038 C2037 1.523 . S
H2039 C2014 0.950 1_556 S
H2040 C2016 0.950 1_556 S
H2041 C2017 0.949 . S
H2042 C2019 0.950 . S
H2043 C2021 0.950 . S
C2044 C2045 1.349 . S
C2044 C2046 1.327 . S
C2044 H2069 0.950 . S
C2045 C2044 1.349 . S
C2045 C2061 1.349 . S
C2046 C2044 1.327 . S
C2046 C2065 1.429 . S
C2046 H2070 0.950 . S
C2047 C2064 1.574 . S
C2047 C2066 1.368 . S
C2047 H2071 0.949 . S
H2048 C2052 0.949 . S
C2049 C2050 1.349 . S
C2049 C2051 1.327 . S
C2049 H2072 0.950 . S
C2050 C2049 1.349 . S
C2050 C2062 1.349 . S
C2051 C2049 1.327 . S
C2051 C2067 1.429 . S
C2051 H2073 0.950 . S
C2052 H2048 0.949 . S
C2052 C2060 1.574 . S
C2052 C2068 1.368 . S
H2053 C2061 0.950 . S
H2054 C2059 0.950 . S
H2055 C2060 0.949 . S
H2056 C2062 0.950 . S
H2057 C2063 0.950 . S
H2058 C2064 0.949 . S
C2059 H2054 0.950 . S
C2059 C2061 1.327 . S
C2059 C2065 1.429 . S
C2060 C2052 1.574 . S
C2060 H2055 0.949 . S
C2060 C2066 1.368 . S
C2061 C2045 1.349 . S
C2061 H2053 0.950 . S
C2061 C2059 1.327 . S
C2062 C2050 1.349 . S
C2062 H2056 0.950 . S
C2062 C2063 1.327 . S
C2063 H2057 0.950 . S
C2063 C2062 1.327 . S
C2063 C2067 1.429 . S
C2064 C2047 1.574 . S
C2064 H2058 0.949 . S
C2064 C2068 1.368 . S
C2065 C2046 1.429 . S
C2065 C2059 1.429 . S
C2065 C2066 1.523 . S
C2066 C2047 1.368 . S
C2066 C2060 1.368 . S
C2066 C2065 1.523 . S
C2067 C2051 1.429 . S
C2067 C2063 1.429 . S
C2067 C2068 1.523 . S
C2068 C2052 1.368 . S
C2068 C2064 1.368 . S
C2068 C2067 1.523 . S
H2069 C2044 0.950 . S
H2070 C2046 0.950 . S
H2071 C2047 0.949 . S
H2072 C2049 0.950 . S
H2073 C2051 0.950 . S
C2074 C2075 1.349 . S
C2074 C2076 1.327 . S
C2074 H2099 0.950 . S
C2075 C2074 1.349 . S
C2075 C2091 1.349 . S
C2076 C2074 1.327 . S
C2076 C2095 1.429 . S
C2076 H2100 0.950 . S
C2077 C2094 1.574 . S
C2077 C2096 1.368 . S
C2077 H2101 0.949 . S
H2078 C2082 0.949 . S
C2079 C2080 1.349 . S
C2079 C2081 1.327 . S
C2079 H2102 0.950 . S
C2080 C2079 1.349 . S
C2080 C2092 1.349 . S
C2081 C2079 1.327 . S
C2081 C2097 1.429 . S
C2081 H2103 0.950 . S
C2082 H2078 0.949 . S
C2082 C2090 1.574 . S
C2082 C2098 1.368 . S
H2083 C2091 0.950 . S
H2084 C2089 0.950 . S
H2085 C2090 0.949 . S
H2086 C2092 0.950 . S
H2087 C2093 0.950 . S
H2088 C2094 0.949 . S
C2089 H2084 0.950 . S
C2089 C2091 1.327 . S
C2089 C2095 1.429 . S
C2090 C2082 1.574 . S
C2090 H2085 0.949 . S
C2090 C2096 1.368 . S
C2091 C2075 1.349 . S
C2091 H2083 0.950 . S
C2091 C2089 1.327 . S
C2092 C2080 1.349 . S
C2092 H2086 0.950 . S
C2092 C2093 1.327 . S
C2093 H2087 0.950 . S
C2093 C2092 1.327 . S
C2093 C2097 1.429 . S
C2094 C2077 1.574 . S
C2094 H2088 0.949 . S
C2094 C2098 1.368 . S
C2095 C2076 1.429 . S
C2095 C2089 1.429 . S
C2095 C2096 1.523 . S
C2096 C2077 1.368 . S
C2096 C2090 1.368 . S
C2096 C2095 1.523 . S
C2097 C2081 1.429 . S
C2097 C2093 1.429 . S
C2097 C2098 1.523 . S
C2098 C2082 1.368 . S
C2098 C2094 1.368 . S
C2098 C2097 1.523 . S
H2099 C2074 0.950 . S
H2100 C2076 0.950 . S
H2101 C2077 0.949 . S
H2102 C2079 0.950 . S
H2103 C2081 0.950 . S
C2104 C2105 1.349 . S
C2104 C2106 1.327 . S
C2104 H2129 0.950 . S
C2105 C2104 1.349 . S
C2105 C2121 1.349 . S
C2106 C2104 1.327 . S
C2106 C2125 1.429 . S
C2106 H2130 0.950 . S
C2107 C2124 1.574 . S
C2107 C2126 1.368 . S
C2107 H2131 0.949 . S
H2108 C2112 0.949 . S
C2109 C2110 1.349 . S
C2109 C2111 1.327 . S
C2109 H2132 0.950 . S
C2110 C2109 1.349 . S
C2110 C2122 1.349 . S
C2111 C2109 1.327 . S
C2111 C2127 1.429 . S
C2111 H2133 0.950 . S
C2112 H2108 0.949 . S
C2112 C2120 1.574 . S
C2112 C2128 1.368 . S
H2113 C2121 0.950 . S
H2114 C2119 0.950 . S
H2115 C2120 0.949 . S
H2116 C2122 0.950 . S
H2117 C2123 0.950 . S
H2118 C2124 0.949 . S
C2119 H2114 0.950 . S
C2119 C2121 1.327 . S
C2119 C2125 1.429 . S
C2120 C2112 1.574 . S
C2120 H2115 0.949 . S
C2120 C2126 1.368 . S
C2121 C2105 1.349 . S
C2121 H2113 0.950 . S
C2121 C2119 1.327 . S
C2122 C2110 1.349 . S
C2122 H2116 0.950 . S
C2122 C2123 1.327 . S
C2123 H2117 0.950 . S
C2123 C2122 1.327 . S
C2123 C2127 1.429 . S
C2124 C2107 1.574 . S
C2124 H2118 0.949 . S
C2124 C2128 1.368 . S
C2125 C2106 1.429 . S
C2125 C2119 1.429 . S
C2125 C2126 1.523 . S
C2126 C2107 1.368 . S
C2126 C2120 1.368 . S
C2126 C2125 1.523 . S
C2127 C2111 1.429 . S
C2127 C2123 1.429 . S
C2127 C2128 1.523 . S
C2128 C2112 1.368 . S
C2128 C2124 1.368 . S
C2128 C2127 1.523 . S
H2129 C2104 0.950 . S
H2130 C2106 0.950 . S
H2131 C2107 0.949 . S
H2132 C2109 0.950 . S
H2133 C2111 0.950 . S
C2134 C2135 1.349 . S
C2134 C2136 1.327 . S
C2134 H2159 0.950 . S
C2135 C2134 1.349 . S
C2135 C2151 1.349 . S
C2136 C2134 1.327 . S
C2136 C2155 1.429 . S
C2136 H2160 0.950 . S
C2137 C2154 1.574 . S
C2137 C2156 1.368 . S
C2137 H2161 0.949 . S
H2138 C2142 0.949 . S
C2139 C2140 1.349 . S
C2139 C2141 1.327 . S
C2139 H2162 0.950 . S
C2140 C2139 1.349 . S
C2140 C2152 1.349 . S
C2141 C2139 1.327 . S
C2141 C2157 1.429 . S
C2141 H2163 0.950 . S
C2142 H2138 0.949 . S
C2142 C2150 1.574 . S
C2142 C2158 1.368 . S
H2143 C2151 0.950 . S
H2144 C2149 0.950 . S
H2145 C2150 0.949 . S
H2146 C2152 0.950 . S
H2147 C2153 0.950 . S
H2148 C2154 0.949 . S
C2149 H2144 0.950 . S
C2149 C2151 1.327 . S
C2149 C2155 1.429 . S
C2150 C2142 1.574 . S
C2150 H2145 0.949 . S
C2150 C2156 1.368 . S
C2151 C2135 1.349 . S
C2151 H2143 0.950 . S
C2151 C2149 1.327 . S
C2152 C2140 1.349 . S
C2152 H2146 0.950 . S
C2152 C2153 1.327 . S
C2153 H2147 0.950 . S
C2153 C2152 1.327 . S
C2153 C2157 1.429 . S
C2154 C2137 1.574 . S
C2154 H2148 0.949 . S
C2154 C2158 1.368 . S
C2155 C2136 1.429 . S
C2155 C2149 1.429 . S
C2155 C2156 1.523 . S
C2156 C2137 1.368 . S
C2156 C2150 1.368 . S
C2156 C2155 1.523 . S
C2157 C2141 1.429 . S
C2157 C2153 1.429 . S
C2157 C2158 1.523 . S
C2158 C2142 1.368 . S
C2158 C2154 1.368 . S
C2158 C2157 1.523 . S
H2159 C2134 0.950 . S
H2160 C2136 0.950 . S
H2161 C2137 0.949 . S
H2162 C2139 0.950 . S
H2163 C2141 0.950 . S
C2164 C2165 1.349 . S
C2164 C2166 1.327 . S
C2164 H2189 0.950 . S
C2165 C2164 1.349 . S
C2165 C2181 1.349 . S
C2166 C2164 1.327 . S
C2166 C2185 1.429 . S
C2166 H2190 0.950 . S
C2167 C2184 1.574 . S
C2167 C2186 1.368 . S
C2167 H2191 0.949 . S
H2168 C2172 0.949 . S
C2169 C2170 1.349 . S
C2169 C2171 1.327 . S
C2169 H2192 0.950 . S
C2170 C2169 1.349 . S
C2170 C2182 1.349 . S
C2171 C2169 1.327 . S
C2171 C2187 1.429 . S
C2171 H2193 0.950 . S
C2172 H2168 0.949 . S
C2172 C2180 1.574 . S
C2172 C2188 1.368 . S
H2173 C2181 0.950 . S
H2174 C2179 0.950 . S
H2175 C2180 0.949 . S
H2176 C2182 0.950 . S
H2177 C2183 0.950 . S
H2178 C2184 0.949 . S
C2179 H2174 0.950 . S
C2179 C2181 1.327 . S
C2179 C2185 1.429 . S
C2180 C2172 1.574 . S
C2180 H2175 0.949 . S
C2180 C2186 1.368 . S
C2181 C2165 1.349 . S
C2181 H2173 0.950 . S
C2181 C2179 1.327 . S
C2182 C2170 1.349 . S
C2182 H2176 0.950 . S
C2182 C2183 1.327 . S
C2183 H2177 0.950 . S
C2183 C2182 1.327 . S
C2183 C2187 1.429 . S
C2184 C2167 1.574 . S
C2184 H2178 0.949 . S
C2184 C2188 1.368 . S
C2185 C2166 1.429 . S
C2185 C2179 1.429 . S
C2185 C2186 1.523 . S
C2186 C2167 1.368 . S
C2186 C2180 1.368 . S
C2186 C2185 1.523 . S
C2187 C2171 1.429 . S
C2187 C2183 1.429 . S
C2187 C2188 1.523 . S
C2188 C2172 1.368 . S
C2188 C2184 1.368 . S
C2188 C2187 1.523 . S
H2189 C2164 0.950 . S
H2190 C2166 0.950 . S
H2191 C2167 0.949 . S
H2192 C2169 0.950 . S
H2193 C2171 0.950 . S
C2194 C2195 1.349 . S
C2194 C2196 1.327 . S
C2194 H2219 0.950 . S
C2195 C2194 1.349 . S
C2195 C2211 1.349 . S
C2196 C2194 1.327 . S
C2196 C2215 1.429 . S
C2196 H2220 0.950 . S
C2197 C2214 1.574 . S
C2197 C2216 1.368 . S
C2197 H2221 0.949 . S
H2198 C2202 0.949 . S
C2199 C2200 1.349 . S
C2199 C2201 1.327 . S
C2199 H2222 0.950 . S
C2200 C2199 1.349 . S
C2200 C2212 1.349 . S
C2201 C2199 1.327 . S
C2201 C2217 1.429 . S
C2201 H2223 0.950 . S
C2202 H2198 0.949 . S
C2202 C2210 1.574 . S
C2202 C2218 1.368 . S
H2203 C2211 0.950 . S
H2204 C2209 0.950 . S
H2205 C2210 0.949 . S
H2206 C2212 0.950 . S
H2207 C2213 0.950 . S
H2208 C2214 0.949 . S
C2209 H2204 0.950 . S
C2209 C2211 1.327 . S
C2209 C2215 1.429 . S
C2210 C2202 1.574 . S
C2210 H2205 0.949 . S
C2210 C2216 1.368 . S
C2211 C2195 1.349 . S
C2211 H2203 0.950 . S
C2211 C2209 1.327 . S
C2212 C2200 1.349 . S
C2212 H2206 0.950 . S
C2212 C2213 1.327 . S
C2213 H2207 0.950 . S
C2213 C2212 1.327 . S
C2213 C2217 1.429 . S
C2214 C2197 1.574 . S
C2214 H2208 0.949 . S
C2214 C2218 1.368 . S
C2215 C2196 1.429 . S
C2215 C2209 1.429 . S
C2215 C2216 1.523 . S
C2216 C2197 1.368 . S
C2216 C2210 1.368 . S
C2216 C2215 1.523 . S
C2217 C2201 1.429 . S
C2217 C2213 1.429 . S
C2217 C2218 1.523 . S
C2218 C2202 1.368 . S
C2218 C2214 1.368 . S
C2218 C2217 1.523 . S
H2219 C2194 0.950 . S
H2220 C2196 0.950 . S
H2221 C2197 0.949 . S
H2222 C2199 0.950 . S
H2223 C2201 0.950 . S
C2224 C2225 1.349 . S
C2224 C2226 1.327 . S
C2224 H2249 0.950 . S
C2225 C2224 1.349 . S
C2225 C2241 1.349 . S
C2226 C2224 1.327 . S
C2226 C2245 1.429 . S
C2226 H2250 0.950 . S
C2227 C2244 1.574 . S
C2227 C2246 1.368 . S
C2227 H2251 0.949 . S
H2228 C2232 0.949 . S
C2229 C2230 1.349 . S
C2229 C2231 1.327 . S
C2229 H2252 0.950 . S
C2230 C2229 1.349 . S
C2230 C2242 1.349 . S
C2231 C2229 1.327 . S
C2231 C2247 1.429 . S
C2231 H2253 0.950 . S
C2232 H2228 0.949 . S
C2232 C2240 1.574 . S
C2232 C2248 1.368 . S
H2233 C2241 0.950 . S
H2234 C2239 0.950 . S
H2235 C2240 0.949 . S
H2236 C2242 0.950 . S
H2237 C2243 0.950 . S
H2238 C2244 0.949 . S
C2239 H2234 0.950 . S
C2239 C2241 1.327 . S
C2239 C2245 1.429 . S
C2240 C2232 1.574 . S
C2240 H2235 0.949 . S
C2240 C2246 1.368 . S
C2241 C2225 1.349 . S
C2241 H2233 0.950 . S
C2241 C2239 1.327 . S
C2242 C2230 1.349 . S
C2242 H2236 0.950 . S
C2242 C2243 1.327 . S
C2243 H2237 0.950 . S
C2243 C2242 1.327 . S
C2243 C2247 1.429 . S
C2244 C2227 1.574 . S
C2244 H2238 0.949 . S
C2244 C2248 1.368 . S
C2245 C2226 1.429 . S
C2245 C2239 1.429 . S
C2245 C2246 1.523 . S
C2246 C2227 1.368 . S
C2246 C2240 1.368 . S
C2246 C2245 1.523 . S
C2247 C2231 1.429 . S
C2247 C2243 1.429 . S
C2247 C2248 1.523 . S
C2248 C2232 1.368 . S
C2248 C2244 1.368 . S
C2248 C2247 1.523 . S
H2249 C2224 0.950 . S
H2250 C2226 0.950 . S
H2251 C2227 0.949 . S
H2252 C2229 0.950 . S
H2253 C2231 0.950 . S
C2254 C2255 1.349 . S
C2254 C2256 1.327 . S
C2254 H2279 0.950 . S
C2255 C2254 1.349 . S
C2255 C2271 1.349 . S
C2256 C2254 1.327 . S
C2256 C2275 1.429 . S
C2256 H2280 0.950 . S
C2257 C2274 1.574 . S
C2257 C2276 1.368 . S
C2257 H2281 0.949 . S
H2258 C2262 0.949 . S
C2259 C2260 1.349 . S
C2259 C2261 1.327 . S
C2259 H2282 0.950 . S
C2260 C2259 1.349 . S
C2260 C2272 1.349 . S
C2261 C2259 1.327 . S
C2261 C2277 1.429 . S
C2261 H2283 0.950 . S
C2262 H2258 0.949 . S
C2262 C2270 1.574 . S
C2262 C2278 1.368 . S
H2263 C2271 0.950 . S
H2264 C2269 0.950 . S
H2265 C2270 0.949 . S
H2266 C2272 0.950 . S
H2267 C2273 0.950 . S
H2268 C2274 0.949 . S
C2269 H2264 0.950 . S
C2269 C2271 1.327 . S
C2269 C2275 1.429 . S
C2270 C2262 1.574 . S
C2270 H2265 0.949 . S
C2270 C2276 1.368 . S
C2271 C2255 1.349 . S
C2271 H2263 0.950 . S
C2271 C2269 1.327 . S
C2272 C2260 1.349 . S
C2272 H2266 0.950 . S
C2272 C2273 1.327 . S
C2273 H2267 0.950 . S
C2273 C2272 1.327 . S
C2273 C2277 1.429 . S
C2274 C2257 1.574 . S
C2274 H2268 0.949 . S
C2274 C2278 1.368 . S
C2275 C2256 1.429 . S
C2275 C2269 1.429 . S
C2275 C2276 1.523 . S
C2276 C2257 1.368 . S
C2276 C2270 1.368 . S
C2276 C2275 1.523 . S
C2277 C2261 1.429 . S
C2277 C2273 1.429 . S
C2277 C2278 1.523 . S
C2278 C2262 1.368 . S
C2278 C2274 1.368 . S
C2278 C2277 1.523 . S
H2279 C2254 0.950 . S
H2280 C2256 0.950 . S
H2281 C2257 0.949 . S
H2282 C2259 0.950 . S
H2283 C2261 0.950 . S
C2284 C2285 1.349 . S
C2284 C2286 1.327 . S
C2284 H2309 0.950 . S
C2285 C2284 1.349 . S
C2285 C2301 1.349 . S
C2286 C2284 1.327 . S
C2286 C2305 1.429 . S
C2286 H2310 0.950 . S
C2287 C2304 1.574 . S
C2287 C2306 1.368 . S
C2287 H2311 0.949 . S
H2288 C2292 0.949 . S
C2289 C2290 1.349 . S
C2289 C2291 1.327 . S
C2289 H2312 0.950 . S
C2290 C2289 1.349 . S
C2290 C2302 1.349 . S
C2291 C2289 1.327 . S
C2291 C2307 1.429 . S
C2291 H2313 0.950 . S
C2292 H2288 0.949 . S
C2292 C2300 1.574 . S
C2292 C2308 1.368 . S
H2293 C2301 0.950 . S
H2294 C2299 0.950 . S
H2295 C2300 0.949 . S
H2296 C2302 0.950 . S
H2297 C2303 0.950 . S
H2298 C2304 0.949 . S
C2299 H2294 0.950 . S
C2299 C2301 1.327 . S
C2299 C2305 1.429 . S
C2300 C2292 1.574 . S
C2300 H2295 0.949 . S
C2300 C2306 1.368 . S
C2301 C2285 1.349 . S
C2301 H2293 0.950 . S
C2301 C2299 1.327 . S
C2302 C2290 1.349 . S
C2302 H2296 0.950 . S
C2302 C2303 1.327 . S
C2303 H2297 0.950 . S
C2303 C2302 1.327 . S
C2303 C2307 1.429 . S
C2304 C2287 1.574 . S
C2304 H2298 0.949 . S
C2304 C2308 1.368 . S
C2305 C2286 1.429 . S
C2305 C2299 1.429 . S
C2305 C2306 1.523 . S
C2306 C2287 1.368 . S
C2306 C2300 1.368 . S
C2306 C2305 1.523 . S
C2307 C2291 1.429 . S
C2307 C2303 1.429 . S
C2307 C2308 1.523 . S
C2308 C2292 1.368 . S
C2308 C2304 1.368 . S
C2308 C2307 1.523 . S
H2309 C2284 0.950 . S
H2310 C2286 0.950 . S
H2311 C2287 0.949 . S
H2312 C2289 0.950 . S
H2313 C2291 0.950 . S
C2314 C2315 1.349 . S
C2314 C2316 1.327 . S
C2314 H2339 0.950 . S
C2315 C2314 1.349 . S
C2315 C2331 1.349 . S
C2316 C2314 1.327 . S
C2316 C2335 1.429 . S
C2316 H2340 0.950 . S
C2317 C2334 1.574 . S
C2317 C2336 1.368 . S
C2317 H2341 0.949 . S
H2318 C2322 0.949 . S
C2319 C2320 1.349 . S
C2319 C2321 1.327 . S
C2319 H2342 0.950 . S
C2320 C2319 1.349 . S
C2320 C2332 1.349 . S
C2321 C2319 1.327 . S
C2321 C2337 1.429 . S
C2321 H2343 0.950 . S
C2322 H2318 0.949 . S
C2322 C2330 1.574 . S
C2322 C2338 1.368 . S
H2323 C2331 0.950 . S
H2324 C2329 0.950 . S
H2325 C2330 0.949 . S
H2326 C2332 0.950 . S
H2327 C2333 0.950 . S
H2328 C2334 0.949 . S
C2329 H2324 0.950 . S
C2329 C2331 1.327 . S
C2329 C2335 1.429 . S
C2330 C2322 1.574 . S
C2330 H2325 0.949 . S
C2330 C2336 1.368 . S
C2331 C2315 1.349 . S
C2331 H2323 0.950 . S
C2331 C2329 1.327 . S
C2332 C2320 1.349 . S
C2332 H2326 0.950 . S
C2332 C2333 1.327 . S
C2333 H2327 0.950 . S
C2333 C2332 1.327 . S
C2333 C2337 1.429 . S
C2334 C2317 1.574 . S
C2334 H2328 0.949 . S
C2334 C2338 1.368 . S
C2335 C2316 1.429 . S
C2335 C2329 1.429 . S
C2335 C2336 1.523 . S
C2336 C2317 1.368 . S
C2336 C2330 1.368 . S
C2336 C2335 1.523 . S
C2337 C2321 1.429 . S
C2337 C2333 1.429 . S
C2337 C2338 1.523 . S
C2338 C2322 1.368 . S
C2338 C2334 1.368 . S
C2338 C2337 1.523 . S
H2339 C2314 0.950 . S
H2340 C2316 0.950 . S
H2341 C2317 0.949 . S
H2342 C2319 0.950 . S
H2343 C2321 0.950 . S
C2344 C2345 1.349 . S
C2344 C2346 1.327 . S
C2344 H2369 0.950 . S
C2345 C2344 1.349 . S
C2345 C2361 1.349 1_655 S
C2346 C2344 1.327 . S
C2346 C2365 1.429 . S
C2346 H2370 0.950 . S
C2347 C2364 1.574 . S
C2347 C2366 1.309 1_455 S
C2347 H2371 0.949 . S
H2348 C2352 0.949 . S
C2349 C2350 1.346 1_455 S
C2349 C2351 1.327 . S
C2349 H2372 0.950 . S
C2350 C2349 1.346 1_655 S
C2350 C2362 1.352 . S
C2351 C2349 1.327 . S
C2351 C2367 1.404 1_455 S
C2351 H2373 0.950 . S
C2352 H2348 0.949 . S
C2352 C2360 1.574 . S
C2352 C2368 1.407 . S
H2353 C2361 0.950 . S
H2354 C2359 0.950 . S
H2355 C2360 0.949 . S
H2356 C2362 0.950 . S
H2357 C2363 0.950 . S
H2358 C2364 0.949 . S
C2359 H2354 0.950 . S
C2359 C2361 1.327 . S
C2359 C2365 1.429 1_455 S
C2360 C2352 1.574 . S
C2360 H2355 0.949 . S
C2360 C2366 1.424 . S
C2361 C2345 1.349 1_455 S
C2361 H2353 0.950 . S
C2361 C2359 1.327 . S
C2362 C2350 1.352 . S
C2362 H2356 0.950 . S
C2362 C2363 1.327 . S
C2363 H2357 0.950 . S
C2363 C2362 1.327 . S
C2363 C2367 1.450 . S
C2364 C2347 1.574 . S
C2364 H2358 0.949 . S
C2364 C2368 1.334 1_455 S
C2365 C2346 1.429 . S
C2365 C2359 1.429 1_655 S
C2365 C2366 1.531 . S
C2366 C2347 1.309 1_655 S
C2366 C2360 1.424 . S
C2366 C2365 1.531 . S
C2367 C2351 1.404 1_655 S
C2367 C2363 1.450 . S
C2367 C2368 1.522 . S
C2368 C2352 1.407 . S
C2368 C2364 1.334 1_655 S
C2368 C2367 1.522 . S
H2369 C2344 0.950 . S
H2370 C2346 0.950 . S
H2371 C2347 0.949 . S
H2372 C2349 0.950 . S
H2373 C2351 0.950 . S
C2374 C2375 1.349 . S
C2374 C2376 1.327 . S
C2374 H2399 0.950 . S
C2375 C2374 1.349 . S
C2375 C2391 1.349 . S
C2376 C2374 1.327 . S
C2376 C2395 1.429 . S
C2376 H2400 0.950 . S
C2377 C2394 1.574 . S
C2377 C2396 1.368 . S
C2377 H2401 0.949 . S
H2378 C2382 0.949 . S
C2379 C2380 1.349 . S
C2379 C2381 1.327 . S
C2379 H2402 0.950 . S
C2380 C2379 1.349 . S
C2380 C2392 1.349 . S
C2381 C2379 1.327 . S
C2381 C2397 1.429 . S
C2381 H2403 0.950 . S
C2382 H2378 0.949 . S
C2382 C2390 1.574 . S
C2382 C2398 1.368 . S
H2383 C2391 0.950 . S
H2384 C2389 0.950 . S
H2385 C2390 0.949 . S
H2386 C2392 0.950 . S
H2387 C2393 0.950 . S
H2388 C2394 0.949 . S
C2389 H2384 0.950 . S
C2389 C2391 1.327 . S
C2389 C2395 1.429 . S
C2390 C2382 1.574 . S
C2390 H2385 0.949 . S
C2390 C2396 1.368 . S
C2391 C2375 1.349 . S
C2391 H2383 0.950 . S
C2391 C2389 1.327 . S
C2392 C2380 1.349 . S
C2392 H2386 0.950 . S
C2392 C2393 1.327 . S
C2393 H2387 0.950 . S
C2393 C2392 1.327 . S
C2393 C2397 1.429 . S
C2394 C2377 1.574 . S
C2394 H2388 0.949 . S
C2394 C2398 1.368 . S
C2395 C2376 1.429 . S
C2395 C2389 1.429 . S
C2395 C2396 1.523 . S
C2396 C2377 1.368 . S
C2396 C2390 1.368 . S
C2396 C2395 1.523 . S
C2397 C2381 1.429 . S
C2397 C2393 1.429 . S
C2397 C2398 1.523 . S
C2398 C2382 1.368 . S
C2398 C2394 1.368 . S
C2398 C2397 1.523 . S
H2399 C2374 0.950 . S
H2400 C2376 0.950 . S
H2401 C2377 0.949 . S
H2402 C2379 0.950 . S
H2403 C2381 0.950 . S
C2404 C2405 1.349 . S
C2404 C2406 1.327 . S
C2404 H2429 0.950 . S
C2405 C2404 1.349 . S
C2405 C2421 1.349 . S
C2406 C2404 1.327 . S
C2406 C2425 1.429 . S
C2406 H2430 0.950 . S
C2407 C2424 1.574 . S
C2407 C2426 1.368 . S
C2407 H2431 0.949 . S
H2408 C2412 0.949 . S
C2409 C2410 1.349 . S
C2409 C2411 1.311 1_554 S
C2409 H2432 0.950 . S
C2410 C2409 1.349 . S
C2410 C2422 1.349 1_554 S
C2411 C2409 1.311 1_556 S
C2411 C2427 1.462 . S
C2411 H2433 0.933 1_556 S
C2412 H2408 0.949 . S
C2412 C2420 1.574 . S
C2412 C2428 1.368 . S
H2413 C2421 0.950 . S
H2414 C2419 0.950 . S
H2415 C2420 0.949 . S
H2416 C2422 0.950 . S
H2417 C2423 0.950 . S
H2418 C2424 0.949 . S
C2419 H2414 0.950 . S
C2419 C2421 1.327 . S
C2419 C2425 1.429 . S
C2420 C2412 1.574 . S
C2420 H2415 0.949 . S
C2420 C2426 1.368 . S
C2421 C2405 1.349 . S
C2421 H2413 0.950 . S
C2421 C2419 1.327 . S
C2422 C2410 1.349 1_556 S
C2422 H2416 0.950 . S
C2422 C2423 1.327 . S
C2423 H2417 0.950 . S
C2423 C2422 1.327 . S
C2423 C2427 1.429 . S
C2424 C2407 1.574 . S
C2424 H2418 0.949 . S
C2424 C2428 1.368 . S
C2425 C2406 1.429 . S
C2425 C2419 1.429 . S
C2425 C2426 1.523 . S
C2426 C2407 1.368 . S
C2426 C2420 1.368 . S
C2426 C2425 1.523 . S
C2427 C2411 1.462 . S
C2427 C2423 1.429 . S
C2427 C2428 1.523 . S
C2428 C2412 1.368 . S
C2428 C2424 1.368 . S
C2428 C2427 1.523 . S
H2429 C2404 0.950 . S
H2430 C2406 0.950 . S
H2431 C2407 0.949 . S
H2432 C2409 0.950 . S
H2433 C2411 0.933 1_554 S
C2434 C2435 1.349 . S
C2434 C2436 1.327 1_455 S
C2434 H2459 0.950 . S
C2435 C2434 1.349 . S
C2435 C2451 1.349 . S
C2436 C2434 1.327 1_655 S
C2436 C2455 1.429 . S
C2436 H2460 0.950 . S
C2437 C2454 1.574 . S
C2437 C2456 1.368 . S
C2437 H2461 0.949 . S
H2438 C2442 0.949 . S
C2439 C2440 1.349 . S
C2439 C2441 1.327 . S
C2439 H2462 0.950 . S
C2440 C2439 1.349 . S
C2440 C2452 1.349 . S
C2441 C2439 1.327 . S
C2441 C2457 1.429 . S
C2441 H2463 0.950 . S
C2442 H2438 0.949 . S
C2442 C2450 1.574 . S
C2442 C2458 1.368 . S
H2443 C2451 0.950 . S
H2444 C2449 0.950 . S
H2445 C2450 0.949 . S
H2446 C2452 0.950 . S
H2447 C2453 0.950 . S
H2448 C2454 0.949 . S
C2449 H2444 0.950 . S
C2449 C2451 1.327 1_655 S
C2449 C2455 1.429 . S
C2450 C2442 1.574 . S
C2450 H2445 0.949 . S
C2450 C2456 1.368 . S
C2451 C2435 1.349 . S
C2451 H2443 0.950 . S
C2451 C2449 1.327 1_455 S
C2452 C2440 1.349 . S
C2452 H2446 0.950 . S
C2452 C2453 1.327 . S
C2453 H2447 0.950 . S
C2453 C2452 1.327 . S
C2453 C2457 1.429 . S
C2454 C2437 1.574 . S
C2454 H2448 0.949 . S
C2454 C2458 1.368 . S
C2455 C2436 1.429 . S
C2455 C2449 1.429 . S
C2455 C2456 1.523 . S
C2456 C2437 1.368 . S
C2456 C2450 1.368 . S
C2456 C2455 1.523 . S
C2457 C2441 1.429 . S
C2457 C2453 1.429 . S
C2457 C2458 1.523 . S
C2458 C2442 1.368 . S
C2458 C2454 1.368 . S
C2458 C2457 1.523 . S
H2459 C2434 0.950 . S
H2460 C2436 0.950 . S
H2461 C2437 0.949 . S
H2462 C2439 0.950 . S
H2463 C2441 0.950 . S
C2464 C2465 1.349 . S
C2464 C2466 1.327 . S
C2464 H2489 0.950 1_545 S
C2465 C2464 1.349 . S
C2465 C2481 1.349 . S
C2466 C2464 1.327 . S
C2466 C2485 1.429 . S
C2466 H2490 0.950 1_545 S
C2467 C2484 1.574 . S
C2467 C2486 1.368 . S
C2467 H2491 0.949 . S
H2468 C2472 0.949 . S
C2469 C2470 1.349 . S
C2469 C2471 1.327 . S
C2469 H2492 0.950 . S
C2470 C2469 1.349 . S
C2470 C2482 1.349 1_545 S
C2471 C2469 1.327 . S
C2471 C2487 1.429 . S
C2471 H2493 0.950 . S
C2472 H2468 0.949 . S
C2472 C2480 1.574 . S
C2472 C2488 1.368 1_565 S
H2473 C2481 0.950 . S
H2474 C2479 0.950 . S
H2475 C2480 0.949 . S
H2476 C2482 0.950 . S
H2477 C2483 0.950 . S
H2478 C2484 0.949 . S
C2479 H2474 0.950 . S
C2479 C2481 1.327 . S
C2479 C2485 1.429 . S
C2480 C2472 1.574 . S
C2480 H2475 0.949 . S
C2480 C2486 1.368 1_565 S
C2481 C2465 1.349 . S
C2481 H2473 0.950 . S
C2481 C2479 1.327 . S
C2482 C2470 1.349 1_565 S
C2482 H2476 0.950 . S
C2482 C2483 1.327 . S
C2483 H2477 0.950 . S
C2483 C2482 1.327 . S
C2483 C2487 1.429 1_565 S
C2484 C2467 1.574 . S
C2484 H2478 0.949 . S
C2484 C2488 1.368 . S
C2485 C2466 1.429 . S
C2485 C2479 1.429 . S
C2485 C2486 1.523 . S
C2486 C2467 1.368 . S
C2486 C2480 1.368 1_545 S
C2486 C2485 1.523 . S
C2487 C2471 1.429 . S
C2487 C2483 1.429 1_545 S
C2487 C2488 1.523 . S
C2488 C2472 1.368 1_545 S
C2488 C2484 1.368 . S
C2488 C2487 1.523 . S
H2489 C2464 0.950 1_565 S
H2490 C2466 0.950 1_565 S
H2491 C2467 0.949 . S
H2492 C2469 0.950 . S
H2493 C2471 0.950 . S
C2494 C2495 1.349 . S
C2494 C2496 1.327 . S
C2494 H2519 0.950 . S
C2495 C2494 1.349 . S
C2495 C2511 1.349 . S
C2496 C2494 1.327 . S
C2496 C2515 1.429 . S
C2496 H2520 0.950 . S
C2497 C2514 1.574 . S
C2497 C2516 1.368 . S
C2497 H2521 0.949 . S
H2498 C2502 0.949 . S
C2499 C2500 1.349 . S
C2499 C2501 1.327 . S
C2499 H2522 0.950 . S
C2500 C2499 1.349 . S
C2500 C2512 1.349 . S
C2501 C2499 1.327 . S
C2501 C2517 1.429 . S
C2501 H2523 0.950 . S
C2502 H2498 0.949 . S
C2502 C2510 1.574 . S
C2502 C2518 1.368 . S
H2503 C2511 0.950 . S
H2504 C2509 0.950 . S
H2505 C2510 0.949 . S
H2506 C2512 0.950 . S
H2507 C2513 0.950 . S
H2508 C2514 0.949 . S
C2509 H2504 0.950 . S
C2509 C2511 1.327 . S
C2509 C2515 1.429 . S
C2510 C2502 1.574 . S
C2510 H2505 0.949 . S
C2510 C2516 1.368 . S
C2511 C2495 1.349 . S
C2511 H2503 0.950 . S
C2511 C2509 1.327 . S
C2512 C2500 1.349 . S
C2512 H2506 0.950 . S
C2512 C2513 1.327 . S
C2513 H2507 0.950 . S
C2513 C2512 1.327 . S
C2513 C2517 1.429 . S
C2514 C2497 1.574 . S
C2514 H2508 0.949 . S
C2514 C2518 1.368 . S
C2515 C2496 1.429 . S
C2515 C2509 1.429 . S
C2515 C2516 1.523 . S
C2516 C2497 1.368 . S
C2516 C2510 1.368 . S
C2516 C2515 1.523 . S
C2517 C2501 1.429 . S
C2517 C2513 1.429 . S
C2517 C2518 1.523 . S
C2518 C2502 1.368 . S
C2518 C2514 1.368 . S
C2518 C2517 1.523 . S
H2519 C2494 0.950 . S
H2520 C2496 0.950 . S
H2521 C2497 0.949 . S
H2522 C2499 0.950 . S
H2523 C2501 0.950 . S
C2524 C2525 1.349 . S
C2524 C2526 1.327 . S
C2524 H2549 0.950 1_545 S
C2525 C2524 1.349 . S
C2525 C2541 1.349 . S
C2526 C2524 1.327 . S
C2526 C2545 1.429 . S
C2526 H2550 0.950 1_545 S
C2527 C2544 1.574 . S
C2527 C2546 1.368 . S
C2527 H2551 0.949 . S
H2528 C2532 0.949 1_565 S
C2529 C2530 1.349 . S
C2529 C2531 1.327 . S
C2529 H2552 0.950 . S
C2530 C2529 1.349 . S
C2530 C2542 1.349 . S
C2531 C2529 1.327 . S
C2531 C2547 1.429 . S
C2531 H2553 0.950 . S
C2532 H2528 0.949 1_545 S
C2532 C2540 1.574 . S
C2532 C2548 1.368 . S
H2533 C2541 0.950 . S
H2534 C2539 0.950 . S
H2535 C2540 0.949 1_565 S
H2536 C2542 0.950 1_565 S
H2537 C2543 0.950 1_565 S
H2538 C2544 0.949 . S
C2539 H2534 0.950 . S
C2539 C2541 1.327 . S
C2539 C2545 1.429 . S
C2540 C2532 1.574 . S
C2540 H2535 0.949 1_545 S
C2540 C2546 1.368 . S
C2541 C2525 1.349 . S
C2541 H2533 0.950 . S
C2541 C2539 1.327 . S
C2542 C2530 1.349 . S
C2542 H2536 0.950 1_545 S
C2542 C2543 1.327 . S
C2543 H2537 0.950 1_545 S
C2543 C2542 1.327 . S
C2543 C2547 1.429 . S
C2544 C2527 1.574 . S
C2544 H2538 0.949 . S
C2544 C2548 1.368 . S
C2545 C2526 1.429 . S
C2545 C2539 1.429 . S
C2545 C2546 1.523 . S
C2546 C2527 1.368 . S
C2546 C2540 1.368 . S
C2546 C2545 1.523 . S
C2547 C2531 1.429 . S
C2547 C2543 1.429 . S
C2547 C2548 1.523 . S
C2548 C2532 1.368 . S
C2548 C2544 1.368 . S
C2548 C2547 1.523 . S
H2549 C2524 0.950 1_565 S
H2550 C2526 0.950 1_565 S
H2551 C2527 0.949 . S
H2552 C2529 0.950 . S
H2553 C2531 0.950 . S
C2554 C2555 1.349 . S
C2554 C2556 1.327 . S
C2554 H2579 0.950 . S
C2555 C2554 1.349 . S
C2555 C2571 1.349 . S
C2556 C2554 1.327 . S
C2556 C2575 1.429 . S
C2556 H2580 0.950 . S
C2557 C2574 1.574 . S
C2557 C2576 1.368 . S
C2557 H2581 0.949 . S
H2558 C2562 0.949 . S
C2559 C2560 1.349 . S
C2559 C2561 1.327 . S
C2559 H2582 0.950 . S
C2560 C2559 1.349 . S
C2560 C2572 1.349 . S
C2561 C2559 1.327 . S
C2561 C2577 1.429 . S
C2561 H2583 0.950 . S
C2562 H2558 0.949 . S
C2562 C2570 1.574 . S
C2562 C2578 1.368 . S
H2563 C2571 0.950 . S
H2564 C2569 0.950 . S
H2565 C2570 0.949 . S
H2566 C2572 0.950 . S
H2567 C2573 0.950 . S
H2568 C2574 0.949 . S
C2569 H2564 0.950 . S
C2569 C2571 1.327 . S
C2569 C2575 1.429 . S
C2570 C2562 1.574 . S
C2570 H2565 0.949 . S
C2570 C2576 1.368 . S
C2571 C2555 1.349 . S
C2571 H2563 0.950 . S
C2571 C2569 1.327 . S
C2572 C2560 1.349 . S
C2572 H2566 0.950 . S
C2572 C2573 1.327 . S
C2573 H2567 0.950 . S
C2573 C2572 1.327 . S
C2573 C2577 1.429 . S
C2574 C2557 1.574 . S
C2574 H2568 0.949 . S
C2574 C2578 1.368 . S
C2575 C2556 1.429 . S
C2575 C2569 1.429 . S
C2575 C2576 1.523 . S
C2576 C2557 1.368 . S
C2576 C2570 1.368 . S
C2576 C2575 1.523 . S
C2577 C2561 1.429 . S
C2577 C2573 1.429 . S
C2577 C2578 1.523 . S
C2578 C2562 1.368 . S
C2578 C2574 1.368 . S
C2578 C2577 1.523 . S
H2579 C2554 0.950 . S
H2580 C2556 0.950 . S
H2581 C2557 0.949 . S
H2582 C2559 0.950 . S
H2583 C2561 0.950 . S
C2584 C2585 1.349 . S
C2584 C2586 1.327 . S
C2584 H2609 0.950 . S
C2585 C2584 1.349 . S
C2585 C2601 1.349 . S
C2586 C2584 1.327 . S
C2586 C2605 1.429 . S
C2586 H2610 0.950 . S
C2587 C2604 1.578 . S
C2587 C2606 1.358 1_565 S
C2587 H2611 0.961 . S
H2588 C2592 0.949 . S
C2589 C2590 1.341 1_565 S
C2589 C2591 1.325 . S
C2589 H2612 0.956 . S
C2590 C2589 1.341 1_545 S
C2590 C2602 1.349 . S
C2591 C2589 1.325 . S
C2591 C2607 1.418 1_565 S
C2591 H2613 0.965 . S
C2592 H2588 0.949 . S
C2592 C2600 1.574 . S
C2592 C2608 1.368 . S
H2593 C2601 0.950 1_565 S
H2594 C2599 0.911 1_565 S
H2595 C2600 0.949 . S
H2596 C2602 0.950 . S
H2597 C2603 0.950 . S
H2598 C2604 0.971 . S
C2599 H2594 0.911 1_545 S
C2599 C2601 1.318 . S
C2599 C2605 1.479 . S
C2600 C2592 1.574 . S
C2600 H2595 0.949 . S
C2600 C2606 1.368 . S
C2601 C2585 1.349 . S
C2601 H2593 0.950 1_545 S
C2601 C2599 1.318 . S
C2602 C2590 1.349 . S
C2602 H2596 0.950 . S
C2602 C2603 1.327 . S
C2603 H2597 0.950 . S
C2603 C2602 1.327 . S
C2603 C2607 1.429 . S
C2604 C2587 1.578 . S
C2604 H2598 0.971 . S
C2604 C2608 1.338 1_565 S
C2605 C2586 1.429 . S
C2605 C2599 1.479 . S
C2605 C2606 1.523 . S
C2606 C2587 1.358 1_545 S
C2606 C2600 1.368 . S
C2606 C2605 1.523 . S
C2607 C2591 1.418 1_545 S
C2607 C2603 1.429 . S
C2607 C2608 1.523 . S
C2608 C2592 1.368 . S
C2608 C2604 1.338 1_545 S
C2608 C2607 1.523 . S
H2609 C2584 0.950 . S
H2610 C2586 0.950 . S
H2611 C2587 0.961 . S
H2612 C2589 0.956 . S
H2613 C2591 0.965 . S
C2614 C2615 1.349 . S
C2614 C2616 1.327 . S
C2614 H2639 0.950 . S
C2615 C2614 1.349 . S
C2615 C2631 1.349 . S
C2616 C2614 1.327 . S
C2616 C2635 1.429 . S
C2616 H2640 0.950 . S
C2617 C2634 1.574 . S
C2617 C2636 1.368 . S
C2617 H2641 0.949 . S
H2618 C2622 0.949 . S
C2619 C2620 1.349 . S
C2619 C2621 1.327 . S
C2619 H2642 0.950 . S
C2620 C2619 1.349 . S
C2620 C2632 1.349 . S
C2621 C2619 1.327 . S
C2621 C2637 1.429 . S
C2621 H2643 0.950 . S
C2622 H2618 0.949 . S
C2622 C2630 1.574 . S
C2622 C2638 1.368 . S
H2623 C2631 0.950 . S
H2624 C2629 0.950 . S
H2625 C2630 0.949 . S
H2626 C2632 0.950 . S
H2627 C2633 0.950 . S
H2628 C2634 0.949 . S
C2629 H2624 0.950 . S
C2629 C2631 1.327 . S
C2629 C2635 1.429 . S
C2630 C2622 1.574 . S
C2630 H2625 0.949 . S
C2630 C2636 1.368 . S
C2631 C2615 1.349 . S
C2631 H2623 0.950 . S
C2631 C2629 1.327 . S
C2632 C2620 1.349 . S
C2632 H2626 0.950 . S
C2632 C2633 1.327 . S
C2633 H2627 0.950 . S
C2633 C2632 1.327 . S
C2633 C2637 1.429 . S
C2634 C2617 1.574 . S
C2634 H2628 0.949 . S
C2634 C2638 1.368 . S
C2635 C2616 1.429 . S
C2635 C2629 1.429 . S
C2635 C2636 1.523 . S
C2636 C2617 1.368 . S
C2636 C2630 1.368 . S
C2636 C2635 1.523 . S
C2637 C2621 1.429 . S
C2637 C2633 1.429 . S
C2637 C2638 1.523 . S
C2638 C2622 1.368 . S
C2638 C2634 1.368 . S
C2638 C2637 1.523 . S
H2639 C2614 0.950 . S
H2640 C2616 0.950 . S
H2641 C2617 0.949 . S
H2642 C2619 0.950 . S
H2643 C2621 0.950 . S
C2644 C2645 1.349 . S
C2644 C2646 1.327 . S
C2644 H2669 0.950 . S
C2645 C2644 1.349 . S
C2645 C2661 1.349 . S
C2646 C2644 1.327 . S
C2646 C2665 1.429 . S
C2646 H2670 0.950 . S
C2647 C2664 1.574 . S
C2647 C2666 1.368 1_565 S
C2647 H2671 0.949 . S
H2648 C2652 0.949 . S
C2649 C2650 1.349 1_565 S
C2649 C2651 1.327 . S
C2649 H2672 0.950 . S
C2650 C2649 1.349 1_545 S
C2650 C2662 1.349 . S
C2651 C2649 1.327 . S
C2651 C2667 1.429 1_565 S
C2651 H2673 0.950 . S
C2652 H2648 0.949 . S
C2652 C2660 1.574 . S
C2652 C2668 1.368 . S
H2653 C2661 0.950 1_565 S
H2654 C2659 0.938 1_565 S
H2655 C2660 0.949 . S
H2656 C2662 0.950 . S
H2657 C2663 0.950 . S
H2658 C2664 0.949 . S
C2659 H2654 0.938 1_545 S
C2659 C2661 1.329 . S
C2659 C2665 1.438 . S
C2660 C2652 1.574 . S
C2660 H2655 0.949 . S
C2660 C2666 1.368 . S
C2661 C2645 1.349 . S
C2661 H2653 0.950 1_545 S
C2661 C2659 1.329 . S
C2662 C2650 1.349 . S
C2662 H2656 0.950 . S
C2662 C2663 1.327 . S
C2663 H2657 0.950 . S
C2663 C2662 1.327 . S
C2663 C2667 1.429 . S
C2664 C2647 1.574 . S
C2664 H2658 0.949 . S
C2664 C2668 1.368 1_565 S
C2665 C2646 1.429 . S
C2665 C2659 1.438 . S
C2665 C2666 1.523 . S
C2666 C2647 1.368 1_545 S
C2666 C2660 1.368 . S
C2666 C2665 1.523 . S
C2667 C2651 1.429 1_545 S
C2667 C2663 1.429 . S
C2667 C2668 1.523 . S
C2668 C2652 1.368 . S
C2668 C2664 1.368 1_545 S
C2668 C2667 1.523 . S
H2669 C2644 0.950 . S
H2670 C2646 0.950 . S
H2671 C2647 0.949 . S
H2672 C2649 0.950 . S
H2673 C2651 0.950 . S
C2674 C2675 1.349 . S
C2674 C2676 1.327 . S
C2674 H2699 0.950 . S
C2675 C2674 1.349 . S
C2675 C2691 1.349 . S
C2676 C2674 1.327 . S
C2676 C2695 1.429 . S
C2676 H2700 0.950 . S
C2677 C2694 1.574 . S
C2677 C2696 1.368 . S
C2677 H2701 0.949 . S
H2678 C2682 0.949 . S
C2679 C2680 1.349 . S
C2679 C2681 1.327 . S
C2679 H2702 0.950 . S
C2680 C2679 1.349 . S
C2680 C2692 1.349 . S
C2681 C2679 1.327 . S
C2681 C2697 1.429 . S
C2681 H2703 0.950 . S
C2682 H2678 0.949 . S
C2682 C2690 1.574 . S
C2682 C2698 1.368 . S
H2683 C2691 0.950 . S
H2684 C2689 0.950 . S
H2685 C2690 0.949 . S
H2686 C2692 0.950 . S
H2687 C2693 0.950 . S
H2688 C2694 0.949 . S
C2689 H2684 0.950 . S
C2689 C2691 1.327 . S
C2689 C2695 1.429 . S
C2690 C2682 1.574 . S
C2690 H2685 0.949 . S
C2690 C2696 1.368 . S
C2691 C2675 1.349 . S
C2691 H2683 0.950 . S
C2691 C2689 1.327 . S
C2692 C2680 1.349 . S
C2692 H2686 0.950 . S
C2692 C2693 1.327 . S
C2693 H2687 0.950 . S
C2693 C2692 1.327 . S
C2693 C2697 1.429 . S
C2694 C2677 1.574 . S
C2694 H2688 0.949 . S
C2694 C2698 1.368 . S
C2695 C2676 1.429 . S
C2695 C2689 1.429 . S
C2695 C2696 1.523 . S
C2696 C2677 1.368 . S
C2696 C2690 1.368 . S
C2696 C2695 1.523 . S
C2697 C2681 1.429 . S
C2697 C2693 1.429 . S
C2697 C2698 1.523 . S
C2698 C2682 1.368 . S
C2698 C2694 1.368 . S
C2698 C2697 1.523 . S
H2699 C2674 0.950 . S
H2700 C2676 0.950 . S
H2701 C2677 0.949 . S
H2702 C2679 0.950 . S
H2703 C2681 0.950 . S
C2704 C2705 1.349 . S
C2704 C2706 1.327 . S
C2704 H2729 0.950 . S
C2705 C2704 1.349 . S
C2705 C2721 1.349 . S
C2706 C2704 1.327 . S
C2706 C2725 1.429 . S
C2706 H2730 0.950 . S
C2707 C2724 1.574 . S
C2707 C2726 1.368 . S
C2707 H2731 0.949 . S
H2708 C2712 0.925 1_556 S
C2709 C2710 1.349 1_554 S
C2709 C2711 1.327 . S
C2709 H2732 0.950 . S
C2710 C2709 1.349 1_556 S
C2710 C2722 1.349 . S
C2711 C2709 1.327 . S
C2711 C2727 1.429 . S
C2711 H2733 0.950 . S
C2712 H2708 0.925 1_554 S
C2712 C2720 1.574 . S
C2712 C2728 1.368 . S
H2713 C2721 0.950 . S
H2714 C2719 0.950 . S
H2715 C2720 0.949 . S
H2716 C2722 0.950 . S
H2717 C2723 0.950 . S
H2718 C2724 0.949 . S
C2719 H2714 0.950 . S
C2719 C2721 1.327 . S
C2719 C2725 1.429 . S
C2720 C2712 1.574 . S
C2720 H2715 0.949 . S
C2720 C2726 1.368 . S
C2721 C2705 1.349 . S
C2721 H2713 0.950 . S
C2721 C2719 1.327 . S
C2722 C2710 1.349 . S
C2722 H2716 0.950 . S
C2722 C2723 1.327 . S
C2723 H2717 0.950 . S
C2723 C2722 1.327 . S
C2723 C2727 1.429 1_556 S
C2724 C2707 1.574 . S
C2724 H2718 0.949 . S
C2724 C2728 1.368 . S
C2725 C2706 1.429 . S
C2725 C2719 1.429 . S
C2725 C2726 1.523 . S
C2726 C2707 1.368 . S
C2726 C2720 1.368 . S
C2726 C2725 1.523 . S
C2727 C2711 1.429 . S
C2727 C2723 1.429 1_554 S
C2727 C2728 1.523 . S
C2728 C2712 1.368 . S
C2728 C2724 1.368 . S
C2728 C2727 1.523 . S
H2729 C2704 0.950 . S
H2730 C2706 0.950 . S
H2731 C2707 0.949 . S
H2732 C2709 0.950 . S
H2733 C2711 0.950 . S
C2734 C2735 1.349 . S
C2734 C2736 1.327 . S
C2734 H2759 0.950 . S
C2735 C2734 1.349 . S
C2735 C2751 1.349 . S
C2736 C2734 1.327 . S
C2736 C2755 1.429 . S
C2736 H2760 0.950 . S
C2737 C2754 1.574 . S
C2737 C2756 1.368 . S
C2737 H2761 0.949 . S
H2738 C2742 0.949 . S
C2739 C2740 1.349 . S
C2739 C2741 1.327 . S
C2739 H2762 0.950 . S
C2740 C2739 1.349 . S
C2740 C2752 1.349 . S
C2741 C2739 1.327 . S
C2741 C2757 1.429 . S
C2741 H2763 0.950 . S
C2742 H2738 0.949 . S
C2742 C2750 1.574 . S
C2742 C2758 1.368 . S
H2743 C2751 0.950 . S
H2744 C2749 0.950 . S
H2745 C2750 0.949 . S
H2746 C2752 0.950 . S
H2747 C2753 0.950 . S
H2748 C2754 0.949 . S
C2749 H2744 0.950 . S
C2749 C2751 1.327 . S
C2749 C2755 1.429 . S
C2750 C2742 1.574 . S
C2750 H2745 0.949 . S
C2750 C2756 1.368 . S
C2751 C2735 1.349 . S
C2751 H2743 0.950 . S
C2751 C2749 1.327 . S
C2752 C2740 1.349 . S
C2752 H2746 0.950 . S
C2752 C2753 1.327 . S
C2753 H2747 0.950 . S
C2753 C2752 1.327 . S
C2753 C2757 1.429 . S
C2754 C2737 1.574 . S
C2754 H2748 0.949 . S
C2754 C2758 1.368 . S
C2755 C2736 1.429 . S
C2755 C2749 1.429 . S
C2755 C2756 1.523 . S
C2756 C2737 1.368 . S
C2756 C2750 1.368 . S
C2756 C2755 1.523 . S
C2757 C2741 1.429 . S
C2757 C2753 1.429 . S
C2757 C2758 1.523 . S
C2758 C2742 1.368 . S
C2758 C2754 1.368 . S
C2758 C2757 1.523 . S
H2759 C2734 0.950 . S
H2760 C2736 0.950 . S
H2761 C2737 0.949 . S
H2762 C2739 0.950 . S
H2763 C2741 0.950 . S
C2764 C2765 1.349 . S
C2764 C2766 1.327 . S
C2764 H2789 0.950 . S
C2765 C2764 1.349 . S
C2765 C2781 1.349 . S
C2766 C2764 1.327 . S
C2766 C2785 1.429 . S
C2766 H2790 0.950 . S
C2767 C2784 1.574 . S
C2767 C2786 1.368 . S
C2767 H2791 0.949 . S
H2768 C2772 0.949 . S
C2769 C2770 1.349 . S
C2769 C2771 1.327 . S
C2769 H2792 0.950 . S
C2770 C2769 1.349 . S
C2770 C2782 1.349 . S
C2771 C2769 1.327 . S
C2771 C2787 1.429 . S
C2771 H2793 0.950 . S
C2772 H2768 0.949 . S
C2772 C2780 1.574 . S
C2772 C2788 1.368 . S
H2773 C2781 0.950 . S
H2774 C2779 0.950 . S
H2775 C2780 0.949 . S
H2776 C2782 0.950 . S
H2777 C2783 0.950 . S
H2778 C2784 0.949 . S
C2779 H2774 0.950 . S
C2779 C2781 1.327 . S
C2779 C2785 1.429 . S
C2780 C2772 1.574 . S
C2780 H2775 0.949 . S
C2780 C2786 1.368 . S
C2781 C2765 1.349 . S
C2781 H2773 0.950 . S
C2781 C2779 1.327 . S
C2782 C2770 1.349 . S
C2782 H2776 0.950 . S
C2782 C2783 1.327 . S
C2783 H2777 0.950 . S
C2783 C2782 1.327 . S
C2783 C2787 1.429 . S
C2784 C2767 1.574 . S
C2784 H2778 0.949 . S
C2784 C2788 1.368 . S
C2785 C2766 1.429 . S
C2785 C2779 1.429 . S
C2785 C2786 1.523 . S
C2786 C2767 1.368 . S
C2786 C2780 1.368 . S
C2786 C2785 1.523 . S
C2787 C2771 1.429 . S
C2787 C2783 1.429 . S
C2787 C2788 1.523 . S
C2788 C2772 1.368 . S
C2788 C2784 1.368 . S
C2788 C2787 1.523 . S
H2789 C2764 0.950 . S
H2790 C2766 0.950 . S
H2791 C2767 0.949 . S
H2792 C2769 0.950 . S
H2793 C2771 0.950 . S
C2794 C2795 1.349 . S
C2794 C2796 1.327 . S
C2794 H2819 0.950 . S
C2795 C2794 1.349 . S
C2795 C2811 1.349 . S
C2796 C2794 1.327 . S
C2796 C2815 1.429 . S
C2796 H2820 0.950 . S
C2797 C2814 1.574 . S
C2797 C2816 1.368 . S
C2797 H2821 0.949 . S
H2798 C2802 0.949 . S
C2799 C2800 1.349 . S
C2799 C2801 1.327 . S
C2799 H2822 0.950 . S
C2800 C2799 1.349 . S
C2800 C2812 1.349 . S
C2801 C2799 1.327 . S
C2801 C2817 1.429 . S
C2801 H2823 0.950 . S
C2802 H2798 0.949 . S
C2802 C2810 1.574 . S
C2802 C2818 1.368 . S
H2803 C2811 0.950 . S
H2804 C2809 0.950 . S
H2805 C2810 0.949 . S
H2806 C2812 0.950 . S
H2807 C2813 0.950 . S
H2808 C2814 0.949 . S
C2809 H2804 0.950 . S
C2809 C2811 1.327 . S
C2809 C2815 1.429 . S
C2810 C2802 1.574 . S
C2810 H2805 0.949 . S
C2810 C2816 1.368 . S
C2811 C2795 1.349 . S
C2811 H2803 0.950 . S
C2811 C2809 1.327 . S
C2812 C2800 1.349 . S
C2812 H2806 0.950 . S
C2812 C2813 1.327 . S
C2813 H2807 0.950 . S
C2813 C2812 1.327 . S
C2813 C2817 1.429 . S
C2814 C2797 1.574 . S
C2814 H2808 0.949 . S
C2814 C2818 1.368 . S
C2815 C2796 1.429 . S
C2815 C2809 1.429 . S
C2815 C2816 1.523 . S
C2816 C2797 1.368 . S
C2816 C2810 1.368 . S
C2816 C2815 1.523 . S
C2817 C2801 1.429 . S
C2817 C2813 1.429 . S
C2817 C2818 1.523 . S
C2818 C2802 1.368 . S
C2818 C2814 1.368 . S
C2818 C2817 1.523 . S
H2819 C2794 0.950 . S
H2820 C2796 0.950 . S
H2821 C2797 0.949 . S
H2822 C2799 0.950 . S
H2823 C2801 0.950 . S
C2824 C2825 1.349 . S
C2824 C2826 1.327 . S
C2824 H2849 0.950 . S
C2825 C2824 1.349 . S
C2825 C2841 1.349 . S
C2826 C2824 1.327 . S
C2826 C2845 1.429 . S
C2826 H2850 0.950 . S
C2827 C2844 1.574 . S
C2827 C2846 1.368 . S
C2827 H2851 0.949 . S
H2828 C2832 0.949 . S
C2829 C2830 1.349 . S
C2829 C2831 1.327 . S
C2829 H2852 0.950 . S
C2830 C2829 1.349 . S
C2830 C2842 1.349 . S
C2831 C2829 1.327 . S
C2831 C2847 1.429 . S
C2831 H2853 0.950 . S
C2832 H2828 0.949 . S
C2832 C2840 1.574 . S
C2832 C2848 1.368 . S
H2833 C2841 0.950 . S
H2834 C2839 0.950 . S
H2835 C2840 0.949 . S
H2836 C2842 0.950 . S
H2837 C2843 0.950 . S
H2838 C2844 0.949 . S
C2839 H2834 0.950 . S
C2839 C2841 1.327 . S
C2839 C2845 1.429 . S
C2840 C2832 1.574 . S
C2840 H2835 0.949 . S
C2840 C2846 1.368 . S
C2841 C2825 1.349 . S
C2841 H2833 0.950 . S
C2841 C2839 1.327 . S
C2842 C2830 1.349 . S
C2842 H2836 0.950 . S
C2842 C2843 1.327 . S
C2843 H2837 0.950 . S
C2843 C2842 1.327 . S
C2843 C2847 1.429 . S
C2844 C2827 1.574 . S
C2844 H2838 0.949 . S
C2844 C2848 1.368 . S
C2845 C2826 1.429 . S
C2845 C2839 1.429 . S
C2845 C2846 1.523 . S
C2846 C2827 1.368 . S
C2846 C2840 1.368 . S
C2846 C2845 1.523 . S
C2847 C2831 1.429 . S
C2847 C2843 1.429 . S
C2847 C2848 1.523 . S
C2848 C2832 1.368 . S
C2848 C2844 1.368 . S
C2848 C2847 1.523 . S
H2849 C2824 0.950 . S
H2850 C2826 0.950 . S
H2851 C2827 0.949 . S
H2852 C2829 0.950 . S
H2853 C2831 0.950 . S
C2854 C2855 1.349 . S
C2854 C2856 1.327 . S
C2854 H2879 0.950 . S
C2855 C2854 1.349 . S
C2855 C2871 1.349 . S
C2856 C2854 1.327 . S
C2856 C2875 1.429 . S
C2856 H2880 0.950 . S
C2857 C2874 1.574 . S
C2857 C2876 1.368 . S
C2857 H2881 0.949 . S
H2858 C2862 0.949 . S
C2859 C2860 1.349 . S
C2859 C2861 1.327 . S
C2859 H2882 0.950 . S
C2860 C2859 1.349 . S
C2860 C2872 1.349 . S
C2861 C2859 1.327 . S
C2861 C2877 1.429 . S
C2861 H2883 0.950 . S
C2862 H2858 0.949 . S
C2862 C2870 1.574 . S
C2862 C2878 1.368 . S
H2863 C2871 0.950 . S
H2864 C2869 0.950 . S
H2865 C2870 0.949 . S
H2866 C2872 0.950 . S
H2867 C2873 0.950 . S
H2868 C2874 0.949 . S
C2869 H2864 0.950 . S
C2869 C2871 1.327 . S
C2869 C2875 1.429 . S
C2870 C2862 1.574 . S
C2870 H2865 0.949 . S
C2870 C2876 1.368 . S
C2871 C2855 1.349 . S
C2871 H2863 0.950 . S
C2871 C2869 1.327 . S
C2872 C2860 1.349 . S
C2872 H2866 0.950 . S
C2872 C2873 1.327 . S
C2873 H2867 0.950 . S
C2873 C2872 1.327 . S
C2873 C2877 1.429 . S
C2874 C2857 1.574 . S
C2874 H2868 0.949 . S
C2874 C2878 1.368 . S
C2875 C2856 1.429 . S
C2875 C2869 1.429 . S
C2875 C2876 1.523 . S
C2876 C2857 1.368 . S
C2876 C2870 1.368 . S
C2876 C2875 1.523 . S
C2877 C2861 1.429 . S
C2877 C2873 1.429 . S
C2877 C2878 1.523 . S
C2878 C2862 1.368 . S
C2878 C2874 1.368 . S
C2878 C2877 1.523 . S
H2879 C2854 0.950 . S
H2880 C2856 0.950 . S
H2881 C2857 0.949 . S
H2882 C2859 0.950 . S
H2883 C2861 0.950 . S
C2884 C2885 1.349 . S
C2884 C2886 1.327 . S
C2884 H2909 0.950 . S
C2885 C2884 1.349 . S
C2885 C2901 1.349 . S
C2886 C2884 1.327 . S
C2886 C2905 1.429 . S
C2886 H2910 0.950 . S
C2887 C2904 1.574 . S
C2887 C2906 1.368 . S
C2887 H2911 0.949 . S
H2888 C2892 0.949 . S
C2889 C2890 1.349 . S
C2889 C2891 1.327 . S
C2889 H2912 0.950 . S
C2890 C2889 1.349 . S
C2890 C2902 1.349 . S
C2891 C2889 1.327 . S
C2891 C2907 1.429 . S
C2891 H2913 0.950 . S
C2892 H2888 0.949 . S
C2892 C2900 1.574 . S
C2892 C2908 1.368 . S
H2893 C2901 0.950 . S
H2894 C2899 0.950 . S
H2895 C2900 0.949 . S
H2896 C2902 0.950 . S
H2897 C2903 0.950 . S
H2898 C2904 0.949 . S
C2899 H2894 0.950 . S
C2899 C2901 1.327 . S
C2899 C2905 1.429 . S
C2900 C2892 1.574 . S
C2900 H2895 0.949 . S
C2900 C2906 1.368 . S
C2901 C2885 1.349 . S
C2901 H2893 0.950 . S
C2901 C2899 1.327 . S
C2902 C2890 1.349 . S
C2902 H2896 0.950 . S
C2902 C2903 1.327 . S
C2903 H2897 0.950 . S
C2903 C2902 1.327 . S
C2903 C2907 1.429 . S
C2904 C2887 1.574 . S
C2904 H2898 0.949 . S
C2904 C2908 1.368 . S
C2905 C2886 1.429 . S
C2905 C2899 1.429 . S
C2905 C2906 1.523 . S
C2906 C2887 1.368 . S
C2906 C2900 1.368 . S
C2906 C2905 1.523 . S
C2907 C2891 1.429 . S
C2907 C2903 1.429 . S
C2907 C2908 1.523 . S
C2908 C2892 1.368 . S
C2908 C2904 1.368 . S
C2908 C2907 1.523 . S
H2909 C2884 0.950 . S
H2910 C2886 0.950 . S
H2911 C2887 0.949 . S
H2912 C2889 0.950 . S
H2913 C2891 0.950 . S
C2914 C2915 1.349 . S
C2914 C2916 1.327 . S
C2914 H2939 0.950 . S
C2915 C2914 1.349 . S
C2915 C2931 1.349 . S
C2916 C2914 1.327 . S
C2916 C2935 1.429 . S
C2916 H2940 0.950 . S
C2917 C2934 1.574 . S
C2917 C2936 1.368 . S
C2917 H2941 0.949 . S
H2918 C2922 0.949 . S
C2919 C2920 1.349 . S
C2919 C2921 1.327 . S
C2919 H2942 0.950 . S
C2920 C2919 1.349 . S
C2920 C2932 1.349 . S
C2921 C2919 1.327 . S
C2921 C2937 1.429 . S
C2921 H2943 0.950 . S
C2922 H2918 0.949 . S
C2922 C2930 1.574 . S
C2922 C2938 1.368 . S
H2923 C2931 0.950 . S
H2924 C2929 0.950 . S
H2925 C2930 0.949 . S
H2926 C2932 0.950 . S
H2927 C2933 0.950 . S
H2928 C2934 0.949 . S
C2929 H2924 0.950 . S
C2929 C2931 1.327 . S
C2929 C2935 1.429 . S
C2930 C2922 1.574 . S
C2930 H2925 0.949 . S
C2930 C2936 1.368 . S
C2931 C2915 1.349 . S
C2931 H2923 0.950 . S
C2931 C2929 1.327 . S
C2932 C2920 1.349 . S
C2932 H2926 0.950 . S
C2932 C2933 1.327 . S
C2933 H2927 0.950 . S
C2933 C2932 1.327 . S
C2933 C2937 1.429 . S
C2934 C2917 1.574 . S
C2934 H2928 0.949 . S
C2934 C2938 1.368 . S
C2935 C2916 1.429 . S
C2935 C2929 1.429 . S
C2935 C2936 1.523 . S
C2936 C2917 1.368 . S
C2936 C2930 1.368 . S
C2936 C2935 1.523 . S
C2937 C2921 1.429 . S
C2937 C2933 1.429 . S
C2937 C2938 1.523 . S
C2938 C2922 1.368 . S
C2938 C2934 1.368 . S
C2938 C2937 1.523 . S
H2939 C2914 0.950 . S
H2940 C2916 0.950 . S
H2941 C2917 0.949 . S
H2942 C2919 0.950 . S
H2943 C2921 0.950 . S
C2944 C2945 1.349 . S
C2944 C2946 1.327 . S
C2944 H2969 0.950 . S
C2945 C2944 1.349 . S
C2945 C2961 1.349 . S
C2946 C2944 1.327 . S
C2946 C2965 1.429 . S
C2946 H2970 0.950 . S
C2947 C2964 1.574 . S
C2947 C2966 1.368 . S
C2947 H2971 0.949 . S
H2948 C2952 0.949 . S
C2949 C2950 1.349 . S
C2949 C2951 1.327 . S
C2949 H2972 0.950 . S
C2950 C2949 1.349 . S
C2950 C2962 1.349 . S
C2951 C2949 1.327 . S
C2951 C2967 1.429 . S
C2951 H2973 0.950 . S
C2952 H2948 0.949 . S
C2952 C2960 1.574 . S
C2952 C2968 1.368 . S
H2953 C2961 0.950 . S
H2954 C2959 0.950 . S
H2955 C2960 0.949 . S
H2956 C2962 0.950 . S
H2957 C2963 0.950 . S
H2958 C2964 0.949 . S
C2959 H2954 0.950 . S
C2959 C2961 1.327 . S
C2959 C2965 1.429 . S
C2960 C2952 1.574 . S
C2960 H2955 0.949 . S
C2960 C2966 1.368 . S
C2961 C2945 1.349 . S
C2961 H2953 0.950 . S
C2961 C2959 1.327 . S
C2962 C2950 1.349 . S
C2962 H2956 0.950 . S
C2962 C2963 1.327 . S
C2963 H2957 0.950 . S
C2963 C2962 1.327 . S
C2963 C2967 1.429 . S
C2964 C2947 1.574 . S
C2964 H2958 0.949 . S
C2964 C2968 1.368 . S
C2965 C2946 1.429 . S
C2965 C2959 1.429 . S
C2965 C2966 1.523 . S
C2966 C2947 1.368 . S
C2966 C2960 1.368 . S
C2966 C2965 1.523 . S
C2967 C2951 1.429 . S
C2967 C2963 1.429 . S
C2967 C2968 1.523 . S
C2968 C2952 1.368 . S
C2968 C2964 1.368 . S
C2968 C2967 1.523 . S
H2969 C2944 0.950 . S
H2970 C2946 0.950 . S
H2971 C2947 0.949 . S
H2972 C2949 0.950 . S
H2973 C2951 0.950 . S
C2974 C2975 1.349 . S
C2974 C2976 1.327 . S
C2974 H2999 0.950 . S
C2975 C2974 1.349 . S
C2975 C2991 1.349 . S
C2976 C2974 1.327 . S
C2976 C2995 1.429 . S
C2976 H3000 0.950 . S
C2977 C2994 1.574 . S
C2977 C2996 1.368 . S
C2977 H3001 0.949 . S
H2978 C2982 0.949 . S
C2979 C2980 1.349 . S
C2979 C2981 1.327 . S
C2979 H3002 0.950 . S
C2980 C2979 1.349 . S
C2980 C2992 1.349 . S
C2981 C2979 1.327 . S
C2981 C2997 1.429 . S
C2981 H3003 0.950 . S
C2982 H2978 0.949 . S
C2982 C2990 1.574 . S
C2982 C2998 1.368 . S
H2983 C2991 0.950 . S
H2984 C2989 0.950 . S
H2985 C2990 0.949 . S
H2986 C2992 0.950 . S
H2987 C2993 0.950 . S
H2988 C2994 0.949 . S
C2989 H2984 0.950 . S
C2989 C2991 1.327 . S
C2989 C2995 1.429 . S
C2990 C2982 1.574 . S
C2990 H2985 0.949 . S
C2990 C2996 1.368 . S
C2991 C2975 1.349 . S
C2991 H2983 0.950 . S
C2991 C2989 1.327 . S
C2992 C2980 1.349 . S
C2992 H2986 0.950 . S
C2992 C2993 1.327 . S
C2993 H2987 0.950 . S
C2993 C2992 1.327 . S
C2993 C2997 1.429 . S
C2994 C2977 1.574 . S
C2994 H2988 0.949 . S
C2994 C2998 1.368 . S
C2995 C2976 1.429 . S
C2995 C2989 1.429 . S
C2995 C2996 1.523 . S
C2996 C2977 1.368 . S
C2996 C2990 1.368 . S
C2996 C2995 1.523 . S
C2997 C2981 1.429 . S
C2997 C2993 1.429 . S
C2997 C2998 1.523 . S
C2998 C2982 1.368 . S
C2998 C2994 1.368 . S
C2998 C2997 1.523 . S
H2999 C2974 0.950 . S
H3000 C2976 0.950 . S
H3001 C2977 0.949 . S
H3002 C2979 0.950 . S
H3003 C2981 0.950 . S
C3004 C3005 1.349 . S
C3004 C3006 1.327 . S
C3004 H3029 0.950 . S
C3005 C3004 1.349 . S
C3005 C3021 1.349 . S
C3006 C3004 1.327 . S
C3006 C3025 1.429 . S
C3006 H3030 0.950 . S
C3007 C3024 1.574 . S
C3007 C3026 1.368 . S
C3007 H3031 0.949 . S
H3008 C3012 0.949 1_554 S
C3009 C3010 1.349 1_556 S
C3009 C3011 1.327 . S
C3009 H3032 0.950 . S
C3010 C3009 1.349 1_554 S
C3010 C3022 1.349 . S
C3011 C3009 1.327 . S
C3011 C3027 1.429 . S
C3011 H3033 0.950 . S
C3012 H3008 0.949 1_556 S
C3012 C3020 1.574 . S
C3012 C3028 1.368 . S
H3013 C3021 0.950 . S
H3014 C3019 0.950 . S
H3015 C3020 0.949 . S
H3016 C3022 0.950 . S
H3017 C3023 0.950 . S
H3018 C3024 0.949 . S
C3019 H3014 0.950 . S
C3019 C3021 1.327 . S
C3019 C3025 1.429 . S
C3020 C3012 1.574 . S
C3020 H3015 0.949 . S
C3020 C3026 1.368 . S
C3021 C3005 1.349 . S
C3021 H3013 0.950 . S
C3021 C3019 1.327 . S
C3022 C3010 1.349 . S
C3022 H3016 0.950 . S
C3022 C3023 1.327 . S
C3023 H3017 0.950 . S
C3023 C3022 1.327 . S
C3023 C3027 1.429 1_554 S
C3024 C3007 1.574 . S
C3024 H3018 0.949 . S
C3024 C3028 1.368 . S
C3025 C3006 1.429 . S
C3025 C3019 1.429 . S
C3025 C3026 1.523 . S
C3026 C3007 1.368 . S
C3026 C3020 1.368 . S
C3026 C3025 1.523 . S
C3027 C3011 1.429 . S
C3027 C3023 1.429 1_556 S
C3027 C3028 1.523 . S
C3028 C3012 1.368 . S
C3028 C3024 1.368 . S
C3028 C3027 1.523 . S
H3029 C3004 0.950 . S
H3030 C3006 0.950 . S
H3031 C3007 0.949 . S
H3032 C3009 0.950 . S
H3033 C3011 0.950 . S
C3034 C3035 1.349 . S
C3034 C3036 1.327 . S
C3034 H3059 0.950 . S
C3035 C3034 1.349 . S
C3035 C3051 1.349 . S
C3036 C3034 1.327 . S
C3036 C3055 1.429 . S
C3036 H3060 0.950 . S
C3037 C3054 1.574 . S
C3037 C3056 1.368 . S
C3037 H3061 0.949 . S
H3038 C3042 0.949 . S
C3039 C3040 1.349 . S
C3039 C3041 1.327 . S
C3039 H3062 0.950 . S
C3040 C3039 1.349 . S
C3040 C3052 1.349 . S
C3041 C3039 1.327 . S
C3041 C3057 1.429 . S
C3041 H3063 0.950 . S
C3042 H3038 0.949 . S
C3042 C3050 1.574 . S
C3042 C3058 1.368 . S
H3043 C3051 0.939 1_455 S
H3044 C3049 0.950 . S
H3045 C3050 0.949 . S
H3046 C3052 0.950 . S
H3047 C3053 0.950 . S
H3048 C3054 0.949 . S
C3049 H3044 0.950 . S
C3049 C3051 1.327 . S
C3049 C3055 1.429 . S
C3050 C3042 1.574 . S
C3050 H3045 0.949 . S
C3050 C3056 1.368 . S
C3051 C3035 1.349 . S
C3051 H3043 0.939 1_655 S
C3051 C3049 1.327 . S
C3052 C3040 1.349 . S
C3052 H3046 0.950 . S
C3052 C3053 1.327 . S
C3053 H3047 0.950 . S
C3053 C3052 1.327 . S
C3053 C3057 1.429 . S
C3054 C3037 1.574 . S
C3054 H3048 0.949 . S
C3054 C3058 1.368 . S
C3055 C3036 1.429 . S
C3055 C3049 1.429 . S
C3055 C3056 1.523 . S
C3056 C3037 1.368 . S
C3056 C3050 1.368 . S
C3056 C3055 1.523 . S
C3057 C3041 1.429 . S
C3057 C3053 1.429 . S
C3057 C3058 1.523 . S
C3058 C3042 1.368 . S
C3058 C3054 1.368 . S
C3058 C3057 1.523 . S
H3059 C3034 0.950 . S
H3060 C3036 0.950 . S
H3061 C3037 0.949 . S
H3062 C3039 0.950 . S
H3063 C3041 0.950 . S
C3064 C3065 1.349 . S
C3064 C3066 1.327 . S
C3064 H3089 0.950 . S
C3065 C3064 1.349 . S
C3065 C3081 1.349 . S
C3066 C3064 1.327 . S
C3066 C3085 1.429 . S
C3066 H3090 0.950 . S
C3067 C3084 1.574 . S
C3067 C3086 1.368 . S
C3067 H3091 0.949 . S
H3068 C3072 0.949 . S
C3069 C3070 1.349 . S
C3069 C3071 1.327 . S
C3069 H3092 0.950 . S
C3070 C3069 1.349 . S
C3070 C3082 1.349 . S
C3071 C3069 1.327 . S
C3071 C3087 1.429 . S
C3071 H3093 0.950 . S
C3072 H3068 0.949 . S
C3072 C3080 1.574 . S
C3072 C3088 1.368 . S
H3073 C3081 0.950 . S
H3074 C3079 0.950 . S
H3075 C3080 0.949 . S
H3076 C3082 0.950 . S
H3077 C3083 0.950 . S
H3078 C3084 0.949 . S
C3079 H3074 0.950 . S
C3079 C3081 1.327 . S
C3079 C3085 1.429 . S
C3080 C3072 1.574 . S
C3080 H3075 0.949 . S
C3080 C3086 1.368 . S
C3081 C3065 1.349 . S
C3081 H3073 0.950 . S
C3081 C3079 1.327 . S
C3082 C3070 1.349 . S
C3082 H3076 0.950 . S
C3082 C3083 1.327 . S
C3083 H3077 0.950 . S
C3083 C3082 1.327 . S
C3083 C3087 1.429 . S
C3084 C3067 1.574 . S
C3084 H3078 0.949 . S
C3084 C3088 1.368 . S
C3085 C3066 1.429 . S
C3085 C3079 1.429 . S
C3085 C3086 1.523 . S
C3086 C3067 1.368 . S
C3086 C3080 1.368 . S
C3086 C3085 1.523 . S
C3087 C3071 1.429 . S
C3087 C3083 1.429 . S
C3087 C3088 1.523 . S
C3088 C3072 1.368 . S
C3088 C3084 1.368 . S
C3088 C3087 1.523 . S
H3089 C3064 0.950 . S
H3090 C3066 0.950 . S
H3091 C3067 0.949 . S
H3092 C3069 0.950 . S
H3093 C3071 0.950 . S
C3094 C3095 1.349 . S
C3094 C3096 1.327 . S
C3094 H3119 0.950 . S
C3095 C3094 1.349 . S
C3095 C3111 1.349 . S
C3096 C3094 1.327 . S
C3096 C3115 1.429 . S
C3096 H3120 0.950 . S
C3097 C3114 1.574 . S
C3097 C3116 1.368 . S
C3097 H3121 0.949 . S
H3098 C3102 0.949 . S
C3099 C3100 1.349 . S
C3099 C3101 1.327 . S
C3099 H3122 0.950 . S
C3100 C3099 1.349 . S
C3100 C3112 1.349 . S
C3101 C3099 1.327 . S
C3101 C3117 1.429 . S
C3101 H3123 0.950 . S
C3102 H3098 0.949 . S
C3102 C3110 1.574 . S
C3102 C3118 1.368 . S
H3103 C3111 0.950 . S
H3104 C3109 0.950 . S
H3105 C3110 0.949 . S
H3106 C3112 0.950 . S
H3107 C3113 0.950 . S
H3108 C3114 0.949 . S
C3109 H3104 0.950 . S
C3109 C3111 1.327 . S
C3109 C3115 1.429 . S
C3110 C3102 1.574 . S
C3110 H3105 0.949 . S
C3110 C3116 1.368 . S
C3111 C3095 1.349 . S
C3111 H3103 0.950 . S
C3111 C3109 1.327 . S
C3112 C3100 1.349 . S
C3112 H3106 0.950 . S
C3112 C3113 1.327 . S
C3113 H3107 0.950 . S
C3113 C3112 1.327 . S
C3113 C3117 1.429 . S
C3114 C3097 1.574 . S
C3114 H3108 0.949 . S
C3114 C3118 1.368 . S
C3115 C3096 1.429 . S
C3115 C3109 1.429 . S
C3115 C3116 1.523 . S
C3116 C3097 1.368 . S
C3116 C3110 1.368 . S
C3116 C3115 1.523 . S
C3117 C3101 1.429 . S
C3117 C3113 1.429 . S
C3117 C3118 1.523 . S
C3118 C3102 1.368 . S
C3118 C3114 1.368 . S
C3118 C3117 1.523 . S
H3119 C3094 0.950 . S
H3120 C3096 0.950 . S
H3121 C3097 0.949 . S
H3122 C3099 0.950 . S
H3123 C3101 0.950 . S
C3124 C3125 1.349 . S
C3124 C3126 1.327 . S
C3124 H3149 0.950 . S
C3125 C3124 1.349 . S
C3125 C3141 1.349 . S
C3126 C3124 1.327 . S
C3126 C3145 1.429 . S
C3126 H3150 0.950 . S
C3127 C3144 1.574 . S
C3127 C3146 1.368 . S
C3127 H3151 0.949 . S
H3128 C3132 0.949 . S
C3129 C3130 1.349 . S
C3129 C3131 1.327 . S
C3129 H3152 0.950 . S
C3130 C3129 1.349 . S
C3130 C3142 1.349 . S
C3131 C3129 1.327 . S
C3131 C3147 1.429 . S
C3131 H3153 0.950 . S
C3132 H3128 0.949 . S
C3132 C3140 1.574 . S
C3132 C3148 1.368 . S
H3133 C3141 0.950 . S
H3134 C3139 0.950 . S
H3135 C3140 0.949 . S
H3136 C3142 0.950 . S
H3137 C3143 0.950 . S
H3138 C3144 0.949 . S
C3139 H3134 0.950 . S
C3139 C3141 1.327 . S
C3139 C3145 1.429 . S
C3140 C3132 1.574 . S
C3140 H3135 0.949 . S
C3140 C3146 1.368 . S
C3141 C3125 1.349 . S
C3141 H3133 0.950 . S
C3141 C3139 1.327 . S
C3142 C3130 1.349 . S
C3142 H3136 0.950 . S
C3142 C3143 1.327 . S
C3143 H3137 0.950 . S
C3143 C3142 1.327 . S
C3143 C3147 1.429 . S
C3144 C3127 1.574 . S
C3144 H3138 0.949 . S
C3144 C3148 1.368 . S
C3145 C3126 1.429 . S
C3145 C3139 1.429 . S
C3145 C3146 1.523 . S
C3146 C3127 1.368 . S
C3146 C3140 1.368 . S
C3146 C3145 1.523 . S
C3147 C3131 1.429 . S
C3147 C3143 1.429 . S
C3147 C3148 1.523 . S
C3148 C3132 1.368 . S
C3148 C3144 1.368 . S
C3148 C3147 1.523 . S
H3149 C3124 0.950 . S
H3150 C3126 0.950 . S
H3151 C3127 0.949 . S
H3152 C3129 0.950 . S
H3153 C3131 0.950 . S
C3154 C3155 1.349 . S
C3154 C3156 1.327 . S
C3154 H3179 0.950 . S
C3155 C3154 1.349 . S
C3155 C3171 1.349 . S
C3156 C3154 1.327 . S
C3156 C3175 1.429 . S
C3156 H3180 0.950 . S
C3157 C3174 1.574 . S
C3157 C3176 1.368 . S
C3157 H3181 0.949 . S
H3158 C3162 0.949 . S
C3159 C3160 1.349 . S
C3159 C3161 1.327 . S
C3159 H3182 0.950 . S
C3160 C3159 1.349 . S
C3160 C3172 1.349 . S
C3161 C3159 1.327 . S
C3161 C3177 1.429 . S
C3161 H3183 0.950 . S
C3162 H3158 0.949 . S
C3162 C3170 1.574 . S
C3162 C3178 1.368 . S
H3163 C3171 0.950 . S
H3164 C3169 0.950 . S
H3165 C3170 0.949 . S
H3166 C3172 0.950 . S
H3167 C3173 0.950 . S
H3168 C3174 0.949 . S
C3169 H3164 0.950 . S
C3169 C3171 1.327 . S
C3169 C3175 1.429 . S
C3170 C3162 1.574 . S
C3170 H3165 0.949 . S
C3170 C3176 1.368 . S
C3171 C3155 1.349 . S
C3171 H3163 0.950 . S
C3171 C3169 1.327 . S
C3172 C3160 1.349 . S
C3172 H3166 0.950 . S
C3172 C3173 1.327 . S
C3173 H3167 0.950 . S
C3173 C3172 1.327 . S
C3173 C3177 1.429 . S
C3174 C3157 1.574 . S
C3174 H3168 0.949 . S
C3174 C3178 1.368 . S
C3175 C3156 1.429 . S
C3175 C3169 1.429 . S
C3175 C3176 1.523 . S
C3176 C3157 1.368 . S
C3176 C3170 1.368 . S
C3176 C3175 1.523 . S
C3177 C3161 1.429 . S
C3177 C3173 1.429 . S
C3177 C3178 1.523 . S
C3178 C3162 1.368 . S
C3178 C3174 1.368 . S
C3178 C3177 1.523 . S
H3179 C3154 0.950 . S
H3180 C3156 0.950 . S
H3181 C3157 0.949 . S
H3182 C3159 0.950 . S
H3183 C3161 0.950 . S
C3184 C3185 1.349 . S
C3184 C3186 1.327 . S
C3184 H3209 0.950 . S
C3185 C3184 1.349 . S
C3185 C3201 1.349 . S
C3186 C3184 1.327 . S
C3186 C3205 1.429 . S
C3186 H3210 0.950 . S
C3187 C3204 1.574 . S
C3187 C3206 1.368 . S
C3187 H3211 0.949 . S
H3188 C3192 0.949 . S
C3189 C3190 1.349 . S
C3189 C3191 1.327 . S
C3189 H3212 0.950 . S
C3190 C3189 1.349 . S
C3190 C3202 1.349 . S
C3191 C3189 1.327 . S
C3191 C3207 1.429 . S
C3191 H3213 0.950 . S
C3192 H3188 0.949 . S
C3192 C3200 1.574 . S
C3192 C3208 1.368 . S
H3193 C3201 0.950 . S
H3194 C3199 0.950 . S
H3195 C3200 0.949 . S
H3196 C3202 0.950 . S
H3197 C3203 0.950 . S
H3198 C3204 0.949 . S
C3199 H3194 0.950 . S
C3199 C3201 1.327 . S
C3199 C3205 1.429 . S
C3200 C3192 1.574 . S
C3200 H3195 0.949 . S
C3200 C3206 1.368 . S
C3201 C3185 1.349 . S
C3201 H3193 0.950 . S
C3201 C3199 1.327 . S
C3202 C3190 1.349 . S
C3202 H3196 0.950 . S
C3202 C3203 1.327 . S
C3203 H3197 0.950 . S
C3203 C3202 1.327 . S
C3203 C3207 1.429 . S
C3204 C3187 1.574 . S
C3204 H3198 0.949 . S
C3204 C3208 1.368 . S
C3205 C3186 1.429 . S
C3205 C3199 1.429 . S
C3205 C3206 1.523 . S
C3206 C3187 1.368 . S
C3206 C3200 1.368 . S
C3206 C3205 1.523 . S
C3207 C3191 1.429 . S
C3207 C3203 1.429 . S
C3207 C3208 1.523 . S
C3208 C3192 1.368 . S
C3208 C3204 1.368 . S
C3208 C3207 1.523 . S
H3209 C3184 0.950 . S
H3210 C3186 0.950 . S
H3211 C3187 0.949 . S
H3212 C3189 0.950 . S
H3213 C3191 0.950 . S
C3214 C3215 1.349 . S
C3214 C3216 1.327 1_554 S
C3214 H3239 0.950 . S
C3215 C3214 1.349 . S
C3215 C3231 1.349 . S
C3216 C3214 1.327 1_556 S
C3216 C3235 1.429 . S
C3216 H3240 0.950 . S
C3217 C3234 1.574 . S
C3217 C3236 1.368 . S
C3217 H3241 0.949 . S
H3218 C3222 0.949 . S
C3219 C3220 1.349 . S
C3219 C3221 1.327 . S
C3219 H3242 0.950 . S
C3220 C3219 1.349 . S
C3220 C3232 1.349 . S
C3221 C3219 1.327 . S
C3221 C3237 1.429 . S
C3221 H3243 0.950 . S
C3222 H3218 0.949 . S
C3222 C3230 1.574 . S
C3222 C3238 1.368 . S
H3223 C3231 0.950 . S
H3224 C3229 0.950 . S
H3225 C3230 0.949 . S
H3226 C3232 0.950 . S
H3227 C3233 0.950 . S
H3228 C3234 0.949 . S
C3229 H3224 0.950 . S
C3229 C3231 1.327 1_556 S
C3229 C3235 1.429 . S
C3230 C3222 1.574 . S
C3230 H3225 0.949 . S
C3230 C3236 1.368 . S
C3231 C3215 1.349 . S
C3231 H3223 0.950 . S
C3231 C3229 1.327 1_554 S
C3232 C3220 1.349 . S
C3232 H3226 0.950 . S
C3232 C3233 1.327 . S
C3233 H3227 0.950 . S
C3233 C3232 1.327 . S
C3233 C3237 1.429 . S
C3234 C3217 1.574 . S
C3234 H3228 0.949 . S
C3234 C3238 1.368 . S
C3235 C3216 1.429 . S
C3235 C3229 1.429 . S
C3235 C3236 1.523 . S
C3236 C3217 1.368 . S
C3236 C3230 1.368 . S
C3236 C3235 1.523 . S
C3237 C3221 1.429 . S
C3237 C3233 1.429 . S
C3237 C3238 1.523 . S
C3238 C3222 1.368 . S
C3238 C3234 1.368 . S
C3238 C3237 1.523 . S
H3239 C3214 0.950 . S
H3240 C3216 0.950 . S
H3241 C3217 0.949 . S
H3242 C3219 0.950 . S
H3243 C3221 0.950 . S
C3244 C3245 1.349 . S
C3244 C3246 1.327 . S
C3244 H3269 0.950 . S
C3245 C3244 1.349 . S
C3245 C3261 1.349 . S
C3246 C3244 1.327 . S
C3246 C3265 1.429 . S
C3246 H3270 0.950 . S
C3247 C3264 1.574 . S
C3247 C3266 1.368 . S
C3247 H3271 0.949 . S
H3248 C3252 0.949 . S
C3249 C3250 1.349 . S
C3249 C3251 1.327 . S
C3249 H3272 0.950 . S
C3250 C3249 1.349 . S
C3250 C3262 1.349 . S
C3251 C3249 1.327 . S
C3251 C3267 1.429 . S
C3251 H3273 0.950 . S
C3252 H3248 0.949 . S
C3252 C3260 1.574 . S
C3252 C3268 1.368 . S
H3253 C3261 0.950 . S
H3254 C3259 0.950 . S
H3255 C3260 0.949 . S
H3256 C3262 0.950 . S
H3257 C3263 0.950 . S
H3258 C3264 0.949 . S
C3259 H3254 0.950 . S
C3259 C3261 1.327 . S
C3259 C3265 1.429 . S
C3260 C3252 1.574 . S
C3260 H3255 0.949 . S
C3260 C3266 1.368 . S
C3261 C3245 1.349 . S
C3261 H3253 0.950 . S
C3261 C3259 1.327 . S
C3262 C3250 1.349 . S
C3262 H3256 0.950 . S
C3262 C3263 1.327 . S
C3263 H3257 0.950 . S
C3263 C3262 1.327 . S
C3263 C3267 1.429 . S
C3264 C3247 1.574 . S
C3264 H3258 0.949 . S
C3264 C3268 1.368 . S
C3265 C3246 1.429 . S
C3265 C3259 1.429 . S
C3265 C3266 1.523 . S
C3266 C3247 1.368 . S
C3266 C3260 1.368 . S
C3266 C3265 1.523 . S
C3267 C3251 1.429 . S
C3267 C3263 1.429 . S
C3267 C3268 1.523 . S
C3268 C3252 1.368 . S
C3268 C3264 1.368 . S
C3268 C3267 1.523 . S
H3269 C3244 0.950 . S
H3270 C3246 0.950 . S
H3271 C3247 0.949 . S
H3272 C3249 0.950 . S
H3273 C3251 0.950 . S
C3274 C3275 1.349 . S
C3274 C3276 1.327 . S
C3274 H3299 0.950 . S
C3275 C3274 1.349 . S
C3275 C3291 1.349 . S
C3276 C3274 1.327 . S
C3276 C3295 1.429 . S
C3276 H3300 0.950 . S
C3277 C3294 1.574 . S
C3277 C3296 1.368 . S
C3277 H3301 0.949 . S
H3278 C3282 0.949 . S
C3279 C3280 1.349 . S
C3279 C3281 1.327 . S
C3279 H3302 0.950 . S
C3280 C3279 1.349 . S
C3280 C3292 1.349 . S
C3281 C3279 1.327 . S
C3281 C3297 1.429 . S
C3281 H3303 0.950 . S
C3282 H3278 0.949 . S
C3282 C3290 1.574 . S
C3282 C3298 1.368 . S
H3283 C3291 0.950 . S
H3284 C3289 0.950 . S
H3285 C3290 0.949 . S
H3286 C3292 0.950 . S
H3287 C3293 0.950 . S
H3288 C3294 0.949 . S
C3289 H3284 0.950 . S
C3289 C3291 1.327 . S
C3289 C3295 1.429 . S
C3290 C3282 1.574 . S
C3290 H3285 0.949 . S
C3290 C3296 1.368 . S
C3291 C3275 1.349 . S
C3291 H3283 0.950 . S
C3291 C3289 1.327 . S
C3292 C3280 1.349 . S
C3292 H3286 0.950 . S
C3292 C3293 1.327 . S
C3293 H3287 0.950 . S
C3293 C3292 1.327 . S
C3293 C3297 1.429 . S
C3294 C3277 1.574 . S
C3294 H3288 0.949 . S
C3294 C3298 1.368 . S
C3295 C3276 1.429 . S
C3295 C3289 1.429 . S
C3295 C3296 1.523 . S
C3296 C3277 1.368 . S
C3296 C3290 1.368 . S
C3296 C3295 1.523 . S
C3297 C3281 1.429 . S
C3297 C3293 1.429 . S
C3297 C3298 1.523 . S
C3298 C3282 1.368 . S
C3298 C3294 1.368 . S
C3298 C3297 1.523 . S
H3299 C3274 0.950 . S
H3300 C3276 0.950 . S
H3301 C3277 0.949 . S
H3302 C3279 0.950 . S
H3303 C3281 0.950 . S
C3304 C3305 1.349 . S
C3304 C3306 1.327 . S
C3304 H3329 0.950 . S
C3305 C3304 1.349 . S
C3305 C3321 1.349 . S
C3306 C3304 1.327 . S
C3306 C3325 1.429 . S
C3306 H3330 0.950 . S
C3307 C3324 1.574 . S
C3307 C3326 1.368 . S
C3307 H3331 0.949 . S
H3308 C3312 0.949 . S
C3309 C3310 1.349 . S
C3309 C3311 1.327 . S
C3309 H3332 0.950 . S
C3310 C3309 1.349 . S
C3310 C3322 1.349 . S
C3311 C3309 1.327 . S
C3311 C3327 1.429 . S
C3311 H3333 0.950 . S
C3312 H3308 0.949 . S
C3312 C3320 1.574 . S
C3312 C3328 1.368 . S
H3313 C3321 0.950 . S
H3314 C3319 0.950 . S
H3315 C3320 0.949 . S
H3316 C3322 0.950 . S
H3317 C3323 0.950 . S
H3318 C3324 0.949 . S
C3319 H3314 0.950 . S
C3319 C3321 1.327 . S
C3319 C3325 1.429 . S
C3320 C3312 1.574 . S
C3320 H3315 0.949 . S
C3320 C3326 1.368 . S
C3321 C3305 1.349 . S
C3321 H3313 0.950 . S
C3321 C3319 1.327 . S
C3322 C3310 1.349 . S
C3322 H3316 0.950 . S
C3322 C3323 1.327 . S
C3323 H3317 0.950 . S
C3323 C3322 1.327 . S
C3323 C3327 1.429 . S
C3324 C3307 1.574 . S
C3324 H3318 0.949 . S
C3324 C3328 1.368 . S
C3325 C3306 1.429 . S
C3325 C3319 1.429 . S
C3325 C3326 1.523 . S
C3326 C3307 1.368 . S
C3326 C3320 1.368 . S
C3326 C3325 1.523 . S
C3327 C3311 1.429 . S
C3327 C3323 1.429 . S
C3327 C3328 1.523 . S
C3328 C3312 1.368 . S
C3328 C3324 1.368 . S
C3328 C3327 1.523 . S
H3329 C3304 0.950 . S
H3330 C3306 0.950 . S
H3331 C3307 0.949 . S
H3332 C3309 0.950 . S
H3333 C3311 0.950 . S
C3334 C3335 1.349 . S
C3334 C3336 1.327 . S
C3334 H3359 0.950 . S
C3335 C3334 1.349 . S
C3335 C3351 1.349 . S
C3336 C3334 1.327 . S
C3336 C3355 1.429 . S
C3336 H3360 0.950 . S
C3337 C3354 1.574 . S
C3337 C3356 1.368 . S
C3337 H3361 0.949 . S
H3338 C3342 0.949 . S
C3339 C3340 1.349 . S
C3339 C3341 1.327 . S
C3339 H3362 0.950 . S
C3340 C3339 1.349 . S
C3340 C3352 1.349 . S
C3341 C3339 1.327 . S
C3341 C3357 1.429 . S
C3341 H3363 0.950 . S
C3342 H3338 0.949 . S
C3342 C3350 1.574 . S
C3342 C3358 1.368 . S
H3343 C3351 0.950 . S
H3344 C3349 0.950 . S
H3345 C3350 0.949 . S
H3346 C3352 0.950 . S
H3347 C3353 0.950 . S
H3348 C3354 0.949 . S
C3349 H3344 0.950 . S
C3349 C3351 1.327 . S
C3349 C3355 1.429 . S
C3350 C3342 1.574 . S
C3350 H3345 0.949 . S
C3350 C3356 1.368 . S
C3351 C3335 1.349 . S
C3351 H3343 0.950 . S
C3351 C3349 1.327 . S
C3352 C3340 1.349 . S
C3352 H3346 0.950 . S
C3352 C3353 1.327 . S
C3353 H3347 0.950 . S
C3353 C3352 1.327 . S
C3353 C3357 1.429 . S
C3354 C3337 1.574 . S
C3354 H3348 0.949 . S
C3354 C3358 1.368 . S
C3355 C3336 1.429 . S
C3355 C3349 1.429 . S
C3355 C3356 1.523 . S
C3356 C3337 1.368 . S
C3356 C3350 1.368 . S
C3356 C3355 1.523 . S
C3357 C3341 1.429 . S
C3357 C3353 1.429 . S
C3357 C3358 1.523 . S
C3358 C3342 1.368 . S
C3358 C3354 1.368 . S
C3358 C3357 1.523 . S
H3359 C3334 0.950 . S
H3360 C3336 0.950 . S
H3361 C3337 0.949 . S
H3362 C3339 0.950 . S
H3363 C3341 0.950 . S
C3364 C3365 1.349 . S
C3364 C3366 1.327 . S
C3364 H3389 0.950 . S
C3365 C3364 1.349 . S
C3365 C3381 1.349 . S
C3366 C3364 1.327 . S
C3366 C3385 1.429 . S
C3366 H3390 0.950 . S
C3367 C3384 1.574 . S
C3367 C3386 1.368 . S
C3367 H3391 0.949 . S
H3368 C3372 0.949 . S
C3369 C3370 1.349 . S
C3369 C3371 1.327 . S
C3369 H3392 0.950 . S
C3370 C3369 1.349 . S
C3370 C3382 1.349 . S
C3371 C3369 1.327 . S
C3371 C3387 1.429 . S
C3371 H3393 0.950 . S
C3372 H3368 0.949 . S
C3372 C3380 1.574 . S
C3372 C3388 1.368 . S
H3373 C3381 0.950 . S
H3374 C3379 0.950 . S
H3375 C3380 0.949 . S
H3376 C3382 0.950 . S
H3377 C3383 0.950 . S
H3378 C3384 0.949 . S
C3379 H3374 0.950 . S
C3379 C3381 1.327 . S
C3379 C3385 1.429 . S
C3380 C3372 1.574 . S
C3380 H3375 0.949 . S
C3380 C3386 1.368 . S
C3381 C3365 1.349 . S
C3381 H3373 0.950 . S
C3381 C3379 1.327 . S
C3382 C3370 1.349 . S
C3382 H3376 0.950 . S
C3382 C3383 1.327 . S
C3383 H3377 0.950 . S
C3383 C3382 1.327 . S
C3383 C3387 1.429 . S
C3384 C3367 1.574 . S
C3384 H3378 0.949 . S
C3384 C3388 1.368 . S
C3385 C3366 1.429 . S
C3385 C3379 1.429 . S
C3385 C3386 1.523 . S
C3386 C3367 1.368 . S
C3386 C3380 1.368 . S
C3386 C3385 1.523 . S
C3387 C3371 1.429 . S
C3387 C3383 1.429 . S
C3387 C3388 1.523 . S
C3388 C3372 1.368 . S
C3388 C3384 1.368 . S
C3388 C3387 1.523 . S
H3389 C3364 0.950 . S
H3390 C3366 0.950 . S
H3391 C3367 0.949 . S
H3392 C3369 0.950 . S
H3393 C3371 0.950 . S
C3394 C3395 1.349 . S
C3394 C3396 1.327 . S
C3394 H3419 0.950 . S
C3395 C3394 1.349 . S
C3395 C3411 1.349 . S
C3396 C3394 1.327 . S
C3396 C3415 1.429 . S
C3396 H3420 0.950 . S
C3397 C3414 1.574 . S
C3397 C3416 1.368 . S
C3397 H3421 0.949 . S
H3398 C3402 0.949 . S
C3399 C3400 1.349 . S
C3399 C3401 1.327 . S
C3399 H3422 0.950 . S
C3400 C3399 1.349 . S
C3400 C3412 1.349 . S
C3401 C3399 1.327 . S
C3401 C3417 1.429 . S
C3401 H3423 0.950 . S
C3402 H3398 0.949 . S
C3402 C3410 1.574 . S
C3402 C3418 1.368 . S
H3403 C3411 0.950 . S
H3404 C3409 0.950 . S
H3405 C3410 0.949 . S
H3406 C3412 0.950 . S
H3407 C3413 0.950 . S
H3408 C3414 0.949 . S
C3409 H3404 0.950 . S
C3409 C3411 1.327 . S
C3409 C3415 1.429 . S
C3410 C3402 1.574 . S
C3410 H3405 0.949 . S
C3410 C3416 1.368 . S
C3411 C3395 1.349 . S
C3411 H3403 0.950 . S
C3411 C3409 1.327 . S
C3412 C3400 1.349 . S
C3412 H3406 0.950 . S
C3412 C3413 1.327 . S
C3413 H3407 0.950 . S
C3413 C3412 1.327 . S
C3413 C3417 1.429 . S
C3414 C3397 1.574 . S
C3414 H3408 0.949 . S
C3414 C3418 1.368 . S
C3415 C3396 1.429 . S
C3415 C3409 1.429 . S
C3415 C3416 1.523 . S
C3416 C3397 1.368 . S
C3416 C3410 1.368 . S
C3416 C3415 1.523 . S
C3417 C3401 1.429 . S
C3417 C3413 1.429 . S
C3417 C3418 1.523 . S
C3418 C3402 1.368 . S
C3418 C3414 1.368 . S
C3418 C3417 1.523 . S
H3419 C3394 0.950 . S
H3420 C3396 0.950 . S
H3421 C3397 0.949 . S
H3422 C3399 0.950 . S
H3423 C3401 0.950 . S
C3424 C3425 1.349 . S
C3424 C3426 1.327 . S
C3424 H3449 0.950 . S
C3425 C3424 1.349 . S
C3425 C3441 1.349 . S
C3426 C3424 1.327 . S
C3426 C3445 1.429 . S
C3426 H3450 0.950 . S
C3427 C3444 1.574 . S
C3427 C3446 1.368 . S
C3427 H3451 0.949 . S
H3428 C3432 0.949 . S
C3429 C3430 1.349 . S
C3429 C3431 1.327 . S
C3429 H3452 0.950 . S
C3430 C3429 1.349 . S
C3430 C3442 1.349 . S
C3431 C3429 1.327 . S
C3431 C3447 1.429 . S
C3431 H3453 0.950 . S
C3432 H3428 0.949 . S
C3432 C3440 1.574 . S
C3432 C3448 1.368 . S
H3433 C3441 0.950 . S
H3434 C3439 0.950 . S
H3435 C3440 0.949 . S
H3436 C3442 0.950 . S
H3437 C3443 0.950 . S
H3438 C3444 0.949 . S
C3439 H3434 0.950 . S
C3439 C3441 1.327 . S
C3439 C3445 1.429 . S
C3440 C3432 1.574 . S
C3440 H3435 0.949 . S
C3440 C3446 1.368 . S
C3441 C3425 1.349 . S
C3441 H3433 0.950 . S
C3441 C3439 1.327 . S
C3442 C3430 1.349 . S
C3442 H3436 0.950 . S
C3442 C3443 1.327 . S
C3443 H3437 0.950 . S
C3443 C3442 1.327 . S
C3443 C3447 1.429 . S
C3444 C3427 1.574 . S
C3444 H3438 0.949 . S
C3444 C3448 1.368 . S
C3445 C3426 1.429 . S
C3445 C3439 1.429 . S
C3445 C3446 1.523 . S
C3446 C3427 1.368 . S
C3446 C3440 1.368 . S
C3446 C3445 1.523 . S
C3447 C3431 1.429 . S
C3447 C3443 1.429 . S
C3447 C3448 1.523 . S
C3448 C3432 1.368 . S
C3448 C3444 1.368 . S
C3448 C3447 1.523 . S
H3449 C3424 0.950 . S
H3450 C3426 0.950 . S
H3451 C3427 0.949 . S
H3452 C3429 0.950 . S
H3453 C3431 0.950 . S
C3454 C3455 1.349 . S
C3454 C3456 1.327 . S
C3454 H3479 0.950 . S
C3455 C3454 1.349 . S
C3455 C3471 1.349 . S
C3456 C3454 1.327 . S
C3456 C3475 1.429 . S
C3456 H3480 0.950 . S
C3457 C3474 1.574 . S
C3457 C3476 1.368 . S
C3457 H3481 0.949 . S
H3458 C3462 0.949 . S
C3459 C3460 1.349 . S
C3459 C3461 1.327 . S
C3459 H3482 0.950 . S
C3460 C3459 1.349 . S
C3460 C3472 1.349 . S
C3461 C3459 1.327 . S
C3461 C3477 1.429 . S
C3461 H3483 0.950 . S
C3462 H3458 0.949 . S
C3462 C3470 1.574 . S
C3462 C3478 1.368 . S
H3463 C3471 0.950 . S
H3464 C3469 0.950 . S
H3465 C3470 0.949 . S
H3466 C3472 0.950 . S
H3467 C3473 0.950 . S
H3468 C3474 0.949 . S
C3469 H3464 0.950 . S
C3469 C3471 1.327 . S
C3469 C3475 1.429 . S
C3470 C3462 1.574 . S
C3470 H3465 0.949 . S
C3470 C3476 1.368 . S
C3471 C3455 1.349 . S
C3471 H3463 0.950 . S
C3471 C3469 1.327 . S
C3472 C3460 1.349 . S
C3472 H3466 0.950 . S
C3472 C3473 1.327 . S
C3473 H3467 0.950 . S
C3473 C3472 1.327 . S
C3473 C3477 1.429 . S
C3474 C3457 1.574 . S
C3474 H3468 0.949 . S
C3474 C3478 1.368 . S
C3475 C3456 1.429 . S
C3475 C3469 1.429 . S
C3475 C3476 1.523 . S
C3476 C3457 1.368 . S
C3476 C3470 1.368 . S
C3476 C3475 1.523 . S
C3477 C3461 1.429 . S
C3477 C3473 1.429 . S
C3477 C3478 1.523 . S
C3478 C3462 1.368 . S
C3478 C3474 1.368 . S
C3478 C3477 1.523 . S
H3479 C3454 0.950 . S
H3480 C3456 0.950 . S
H3481 C3457 0.949 . S
H3482 C3459 0.950 . S
H3483 C3461 0.950 . S
C3484 C3485 1.349 . S
C3484 C3486 1.327 . S
C3484 H3509 0.950 . S
C3485 C3484 1.349 . S
C3485 C3501 1.349 . S
C3486 C3484 1.327 . S
C3486 C3505 1.429 . S
C3486 H3510 0.950 . S
C3487 C3504 1.574 . S
C3487 C3506 1.368 . S
C3487 H3511 0.949 . S
H3488 C3492 0.949 . S
C3489 C3490 1.349 . S
C3489 C3491 1.327 . S
C3489 H3512 0.950 . S
C3490 C3489 1.349 . S
C3490 C3502 1.349 . S
C3491 C3489 1.327 . S
C3491 C3507 1.429 . S
C3491 H3513 0.950 . S
C3492 H3488 0.949 . S
C3492 C3500 1.574 . S
C3492 C3508 1.368 . S
H3493 C3501 0.950 . S
H3494 C3499 0.950 . S
H3495 C3500 0.949 . S
H3496 C3502 0.950 . S
H3497 C3503 0.950 . S
H3498 C3504 0.949 . S
C3499 H3494 0.950 . S
C3499 C3501 1.327 . S
C3499 C3505 1.429 . S
C3500 C3492 1.574 . S
C3500 H3495 0.949 . S
C3500 C3506 1.368 . S
C3501 C3485 1.349 . S
C3501 H3493 0.950 . S
C3501 C3499 1.327 . S
C3502 C3490 1.349 . S
C3502 H3496 0.950 . S
C3502 C3503 1.327 . S
C3503 H3497 0.950 . S
C3503 C3502 1.327 . S
C3503 C3507 1.429 . S
C3504 C3487 1.574 . S
C3504 H3498 0.949 . S
C3504 C3508 1.368 . S
C3505 C3486 1.429 . S
C3505 C3499 1.429 . S
C3505 C3506 1.523 . S
C3506 C3487 1.368 . S
C3506 C3500 1.368 . S
C3506 C3505 1.523 . S
C3507 C3491 1.429 . S
C3507 C3503 1.429 . S
C3507 C3508 1.523 . S
C3508 C3492 1.368 . S
C3508 C3504 1.368 . S
C3508 C3507 1.523 . S
H3509 C3484 0.950 . S
H3510 C3486 0.950 . S
H3511 C3487 0.949 . S
H3512 C3489 0.950 . S
H3513 C3491 0.950 . S
C3514 C3515 1.349 1_556 S
C3514 C3516 1.327 . S
C3514 H3539 0.950 . S
C3515 C3514 1.349 1_554 S
C3515 C3531 1.349 . S
C3516 C3514 1.327 . S
C3516 C3535 1.429 1_556 S
C3516 H3540 0.950 . S
C3517 C3534 1.574 . S
C3517 C3536 1.368 . S
C3517 H3541 0.949 . S
H3518 C3522 0.957 . S
C3519 C3520 1.349 . S
C3519 C3521 1.327 . S
C3519 H3542 0.950 . S
C3520 C3519 1.349 . S
C3520 C3532 1.349 . S
C3521 C3519 1.327 . S
C3521 C3537 1.429 . S
C3521 H3543 0.950 . S
C3522 H3518 0.957 . S
C3522 C3530 1.572 . S
C3522 C3538 1.361 1_556 S
H3523 C3531 0.950 . S
H3524 C3529 0.950 . S
H3525 C3530 0.949 . S
H3526 C3532 0.950 1_556 S
H3527 C3533 0.950 1_556 S
H3528 C3534 0.949 . S
C3529 H3524 0.950 . S
C3529 C3531 1.327 . S
C3529 C3535 1.429 . S
C3530 C3522 1.572 . S
C3530 H3525 0.949 . S
C3530 C3536 1.368 1_556 S
C3531 C3515 1.349 . S
C3531 H3523 0.950 . S
C3531 C3529 1.327 . S
C3532 C3520 1.349 . S
C3532 H3526 0.950 1_554 S
C3532 C3533 1.327 . S
C3533 H3527 0.950 1_554 S
C3533 C3532 1.327 . S
C3533 C3537 1.429 . S
C3534 C3517 1.574 . S
C3534 H3528 0.949 . S
C3534 C3538 1.368 . S
C3535 C3516 1.429 1_554 S
C3535 C3529 1.429 . S
C3535 C3536 1.523 . S
C3536 C3517 1.368 . S
C3536 C3530 1.368 1_554 S
C3536 C3535 1.523 . S
C3537 C3521 1.429 . S
C3537 C3533 1.429 . S
C3537 C3538 1.523 . S
C3538 C3522 1.361 1_554 S
C3538 C3534 1.368 . S
C3538 C3537 1.523 . S
H3539 C3514 0.950 . S
H3540 C3516 0.950 . S
H3541 C3517 0.949 . S
H3542 C3519 0.950 . S
H3543 C3521 0.950 . S
C3544 C3545 1.349 . S
C3544 C3546 1.327 . S
C3544 H3569 0.950 . S
C3545 C3544 1.349 . S
C3545 C3561 1.349 . S
C3546 C3544 1.327 . S
C3546 C3565 1.429 . S
C3546 H3570 0.950 . S
C3547 C3564 1.574 . S
C3547 C3566 1.368 . S
C3547 H3571 0.949 . S
H3548 C3552 0.949 . S
C3549 C3550 1.349 . S
C3549 C3551 1.327 . S
C3549 H3572 0.950 . S
C3550 C3549 1.349 . S
C3550 C3562 1.349 . S
C3551 C3549 1.327 . S
C3551 C3567 1.429 . S
C3551 H3573 0.950 . S
C3552 H3548 0.949 . S
C3552 C3560 1.574 . S
C3552 C3568 1.368 . S
H3553 C3561 0.950 . S
H3554 C3559 0.950 . S
H3555 C3560 0.949 . S
H3556 C3562 0.950 . S
H3557 C3563 0.950 . S
H3558 C3564 0.949 . S
C3559 H3554 0.950 . S
C3559 C3561 1.327 . S
C3559 C3565 1.429 . S
C3560 C3552 1.574 . S
C3560 H3555 0.949 . S
C3560 C3566 1.368 . S
C3561 C3545 1.349 . S
C3561 H3553 0.950 . S
C3561 C3559 1.327 . S
C3562 C3550 1.349 . S
C3562 H3556 0.950 . S
C3562 C3563 1.327 . S
C3563 H3557 0.950 . S
C3563 C3562 1.327 . S
C3563 C3567 1.429 . S
C3564 C3547 1.574 . S
C3564 H3558 0.949 . S
C3564 C3568 1.368 . S
C3565 C3546 1.429 . S
C3565 C3559 1.429 . S
C3565 C3566 1.523 . S
C3566 C3547 1.368 . S
C3566 C3560 1.368 . S
C3566 C3565 1.523 . S
C3567 C3551 1.429 . S
C3567 C3563 1.429 . S
C3567 C3568 1.523 . S
C3568 C3552 1.368 . S
C3568 C3564 1.368 . S
C3568 C3567 1.523 . S
H3569 C3544 0.950 . S
H3570 C3546 0.950 . S
H3571 C3547 0.949 . S
H3572 C3549 0.950 . S
H3573 C3551 0.950 . S
C3574 C3575 1.349 . S
C3574 C3576 1.327 . S
C3574 H3599 0.950 . S
C3575 C3574 1.349 . S
C3575 C3591 1.349 . S
C3576 C3574 1.327 . S
C3576 C3595 1.429 . S
C3576 H3600 0.950 . S
C3577 C3594 1.574 . S
C3577 C3596 1.368 . S
C3577 H3601 0.949 . S
H3578 C3582 0.949 . S
C3579 C3580 1.349 . S
C3579 C3581 1.327 . S
C3579 H3602 0.950 . S
C3580 C3579 1.349 . S
C3580 C3592 1.349 . S
C3581 C3579 1.327 . S
C3581 C3597 1.429 . S
C3581 H3603 0.950 . S
C3582 H3578 0.949 . S
C3582 C3590 1.574 . S
C3582 C3598 1.368 . S
H3583 C3591 0.950 . S
H3584 C3589 0.950 . S
H3585 C3590 0.949 . S
H3586 C3592 0.950 . S
H3587 C3593 0.950 . S
H3588 C3594 0.949 . S
C3589 H3584 0.950 . S
C3589 C3591 1.327 . S
C3589 C3595 1.429 . S
C3590 C3582 1.574 . S
C3590 H3585 0.949 . S
C3590 C3596 1.368 . S
C3591 C3575 1.349 . S
C3591 H3583 0.950 . S
C3591 C3589 1.327 . S
C3592 C3580 1.349 . S
C3592 H3586 0.950 . S
C3592 C3593 1.327 . S
C3593 H3587 0.950 . S
C3593 C3592 1.327 . S
C3593 C3597 1.429 . S
C3594 C3577 1.574 . S
C3594 H3588 0.949 . S
C3594 C3598 1.368 . S
C3595 C3576 1.429 . S
C3595 C3589 1.429 . S
C3595 C3596 1.523 . S
C3596 C3577 1.368 . S
C3596 C3590 1.368 . S
C3596 C3595 1.523 . S
C3597 C3581 1.429 . S
C3597 C3593 1.429 . S
C3597 C3598 1.523 . S
C3598 C3582 1.368 . S
C3598 C3594 1.368 . S
C3598 C3597 1.523 . S
H3599 C3574 0.950 . S
H3600 C3576 0.950 . S
H3601 C3577 0.949 . S
H3602 C3579 0.950 . S
H3603 C3581 0.950 . S
C3604 C3605 1.349 . S
C3604 C3606 1.327 . S
C3604 H3629 0.950 . S
C3605 C3604 1.349 . S
C3605 C3621 1.349 . S
C3606 C3604 1.327 . S
C3606 C3625 1.429 . S
C3606 H3630 0.950 . S
C3607 C3624 1.574 . S
C3607 C3626 1.368 . S
C3607 H3631 0.949 . S
H3608 C3612 0.949 . S
C3609 C3610 1.349 . S
C3609 C3611 1.327 . S
C3609 H3632 0.950 . S
C3610 C3609 1.349 . S
C3610 C3622 1.349 . S
C3611 C3609 1.327 . S
C3611 C3627 1.429 . S
C3611 H3633 0.950 . S
C3612 H3608 0.949 . S
C3612 C3620 1.574 . S
C3612 C3628 1.368 . S
H3613 C3621 0.950 . S
H3614 C3619 0.950 . S
H3615 C3620 0.949 . S
H3616 C3622 0.950 . S
H3617 C3623 0.950 . S
H3618 C3624 0.949 . S
C3619 H3614 0.950 . S
C3619 C3621 1.327 . S
C3619 C3625 1.429 . S
C3620 C3612 1.574 . S
C3620 H3615 0.949 . S
C3620 C3626 1.368 . S
C3621 C3605 1.349 . S
C3621 H3613 0.950 . S
C3621 C3619 1.327 . S
C3622 C3610 1.349 . S
C3622 H3616 0.950 . S
C3622 C3623 1.327 . S
C3623 H3617 0.950 . S
C3623 C3622 1.327 . S
C3623 C3627 1.429 . S
C3624 C3607 1.574 . S
C3624 H3618 0.949 . S
C3624 C3628 1.368 . S
C3625 C3606 1.429 . S
C3625 C3619 1.429 . S
C3625 C3626 1.523 . S
C3626 C3607 1.368 . S
C3626 C3620 1.368 . S
C3626 C3625 1.523 . S
C3627 C3611 1.429 . S
C3627 C3623 1.429 . S
C3627 C3628 1.523 . S
C3628 C3612 1.368 . S
C3628 C3624 1.368 . S
C3628 C3627 1.523 . S
H3629 C3604 0.950 . S
H3630 C3606 0.950 . S
H3631 C3607 0.949 . S
H3632 C3609 0.950 . S
H3633 C3611 0.950 . S
C3634 C3635 1.349 . S
C3634 C3636 1.327 . S
C3634 H3659 0.950 . S
C3635 C3634 1.349 . S
C3635 C3651 1.349 . S
C3636 C3634 1.327 . S
C3636 C3655 1.429 . S
C3636 H3660 0.950 . S
C3637 C3654 1.574 . S
C3637 C3656 1.368 . S
C3637 H3661 0.949 . S
H3638 C3642 0.949 . S
C3639 C3640 1.349 . S
C3639 C3641 1.327 . S
C3639 H3662 0.950 . S
C3640 C3639 1.349 . S
C3640 C3652 1.349 . S
C3641 C3639 1.327 . S
C3641 C3657 1.429 . S
C3641 H3663 0.950 . S
C3642 H3638 0.949 . S
C3642 C3650 1.574 . S
C3642 C3658 1.368 . S
H3643 C3651 0.950 . S
H3644 C3649 0.950 . S
H3645 C3650 0.949 . S
H3646 C3652 0.950 . S
H3647 C3653 0.950 . S
H3648 C3654 0.949 . S
C3649 H3644 0.950 . S
C3649 C3651 1.327 . S
C3649 C3655 1.429 . S
C3650 C3642 1.574 . S
C3650 H3645 0.949 . S
C3650 C3656 1.368 . S
C3651 C3635 1.349 . S
C3651 H3643 0.950 . S
C3651 C3649 1.327 . S
C3652 C3640 1.349 . S
C3652 H3646 0.950 . S
C3652 C3653 1.327 . S
C3653 H3647 0.950 . S
C3653 C3652 1.327 . S
C3653 C3657 1.429 . S
C3654 C3637 1.574 . S
C3654 H3648 0.949 . S
C3654 C3658 1.368 . S
C3655 C3636 1.429 . S
C3655 C3649 1.429 . S
C3655 C3656 1.523 . S
C3656 C3637 1.368 . S
C3656 C3650 1.368 . S
C3656 C3655 1.523 . S
C3657 C3641 1.429 . S
C3657 C3653 1.429 . S
C3657 C3658 1.523 . S
C3658 C3642 1.368 . S
C3658 C3654 1.368 . S
C3658 C3657 1.523 . S
H3659 C3634 0.950 . S
H3660 C3636 0.950 . S
H3661 C3637 0.949 . S
H3662 C3639 0.950 . S
H3663 C3641 0.950 . S
C3664 C3665 1.349 . S
C3664 C3666 1.327 . S
C3664 H3689 0.950 . S
C3665 C3664 1.349 . S
C3665 C3681 1.349 . S
C3666 C3664 1.327 . S
C3666 C3685 1.429 . S
C3666 H3690 0.950 . S
C3667 C3684 1.574 . S
C3667 C3686 1.368 . S
C3667 H3691 0.949 . S
H3668 C3672 0.949 . S
C3669 C3670 1.349 . S
C3669 C3671 1.327 . S
C3669 H3692 0.950 . S
C3670 C3669 1.349 . S
C3670 C3682 1.349 . S
C3671 C3669 1.327 . S
C3671 C3687 1.429 . S
C3671 H3693 0.950 . S
C3672 H3668 0.949 . S
C3672 C3680 1.574 . S
C3672 C3688 1.368 . S
H3673 C3681 0.950 . S
H3674 C3679 0.950 . S
H3675 C3680 0.949 . S
H3676 C3682 0.950 . S
H3677 C3683 0.950 . S
H3678 C3684 0.949 . S
C3679 H3674 0.950 . S
C3679 C3681 1.327 . S
C3679 C3685 1.429 . S
C3680 C3672 1.574 . S
C3680 H3675 0.949 . S
C3680 C3686 1.368 . S
C3681 C3665 1.349 . S
C3681 H3673 0.950 . S
C3681 C3679 1.327 . S
C3682 C3670 1.349 . S
C3682 H3676 0.950 . S
C3682 C3683 1.327 . S
C3683 H3677 0.950 . S
C3683 C3682 1.327 . S
C3683 C3687 1.429 . S
C3684 C3667 1.574 . S
C3684 H3678 0.949 . S
C3684 C3688 1.368 . S
C3685 C3666 1.429 . S
C3685 C3679 1.429 . S
C3685 C3686 1.523 . S
C3686 C3667 1.368 . S
C3686 C3680 1.368 . S
C3686 C3685 1.523 . S
C3687 C3671 1.429 . S
C3687 C3683 1.429 . S
C3687 C3688 1.523 . S
C3688 C3672 1.368 . S
C3688 C3684 1.368 . S
C3688 C3687 1.523 . S
H3689 C3664 0.950 . S
H3690 C3666 0.950 . S
H3691 C3667 0.949 . S
H3692 C3669 0.950 . S
H3693 C3671 0.950 . S
C3694 C3695 1.349 . S
C3694 C3696 1.327 . S
C3694 H3719 0.950 . S
C3695 C3694 1.349 . S
C3695 C3711 1.349 . S
C3696 C3694 1.327 . S
C3696 C3715 1.429 . S
C3696 H3720 0.950 . S
C3697 C3714 1.574 . S
C3697 C3716 1.368 . S
C3697 H3721 0.949 . S
H3698 C3702 0.949 . S
C3699 C3700 1.349 . S
C3699 C3701 1.327 . S
C3699 H3722 0.950 . S
C3700 C3699 1.349 . S
C3700 C3712 1.349 . S
C3701 C3699 1.327 . S
C3701 C3717 1.429 . S
C3701 H3723 0.950 . S
C3702 H3698 0.949 . S
C3702 C3710 1.574 . S
C3702 C3718 1.368 . S
H3703 C3711 0.950 . S
H3704 C3709 0.950 . S
H3705 C3710 0.949 . S
H3706 C3712 0.950 . S
H3707 C3713 0.950 . S
H3708 C3714 0.949 . S
C3709 H3704 0.950 . S
C3709 C3711 1.327 . S
C3709 C3715 1.429 . S
C3710 C3702 1.574 . S
C3710 H3705 0.949 . S
C3710 C3716 1.368 . S
C3711 C3695 1.349 . S
C3711 H3703 0.950 . S
C3711 C3709 1.327 . S
C3712 C3700 1.349 . S
C3712 H3706 0.950 . S
C3712 C3713 1.327 . S
C3713 H3707 0.950 . S
C3713 C3712 1.327 . S
C3713 C3717 1.429 . S
C3714 C3697 1.574 . S
C3714 H3708 0.949 . S
C3714 C3718 1.368 . S
C3715 C3696 1.429 . S
C3715 C3709 1.429 . S
C3715 C3716 1.523 . S
C3716 C3697 1.368 . S
C3716 C3710 1.368 . S
C3716 C3715 1.523 . S
C3717 C3701 1.429 . S
C3717 C3713 1.429 . S
C3717 C3718 1.523 . S
C3718 C3702 1.368 . S
C3718 C3714 1.368 . S
C3718 C3717 1.523 . S
H3719 C3694 0.950 . S
H3720 C3696 0.950 . S
H3721 C3697 0.949 . S
H3722 C3699 0.950 . S
H3723 C3701 0.950 . S
C3724 C3725 1.349 . S
C3724 C3726 1.327 . S
C3724 H3749 0.950 . S
C3725 C3724 1.349 . S
C3725 C3741 1.349 . S
C3726 C3724 1.327 . S
C3726 C3745 1.429 . S
C3726 H3750 0.950 . S
C3727 C3744 1.574 . S
C3727 C3746 1.368 . S
C3727 H3751 0.949 . S
H3728 C3732 0.949 . S
C3729 C3730 1.349 . S
C3729 C3731 1.327 . S
C3729 H3752 0.950 . S
C3730 C3729 1.349 . S
C3730 C3742 1.349 . S
C3731 C3729 1.327 . S
C3731 C3747 1.429 . S
C3731 H3753 0.950 . S
C3732 H3728 0.949 . S
C3732 C3740 1.574 . S
C3732 C3748 1.368 . S
H3733 C3741 0.950 . S
H3734 C3739 0.950 . S
H3735 C3740 0.949 . S
H3736 C3742 0.950 . S
H3737 C3743 0.950 . S
H3738 C3744 0.949 . S
C3739 H3734 0.950 . S
C3739 C3741 1.327 . S
C3739 C3745 1.429 . S
C3740 C3732 1.574 . S
C3740 H3735 0.949 . S
C3740 C3746 1.368 . S
C3741 C3725 1.349 . S
C3741 H3733 0.950 . S
C3741 C3739 1.327 . S
C3742 C3730 1.349 . S
C3742 H3736 0.950 . S
C3742 C3743 1.327 . S
C3743 H3737 0.950 . S
C3743 C3742 1.327 . S
C3743 C3747 1.429 . S
C3744 C3727 1.574 . S
C3744 H3738 0.949 . S
C3744 C3748 1.368 . S
C3745 C3726 1.429 . S
C3745 C3739 1.429 . S
C3745 C3746 1.523 . S
C3746 C3727 1.368 . S
C3746 C3740 1.368 . S
C3746 C3745 1.523 . S
C3747 C3731 1.429 . S
C3747 C3743 1.429 . S
C3747 C3748 1.523 . S
C3748 C3732 1.368 . S
C3748 C3744 1.368 . S
C3748 C3747 1.523 . S
H3749 C3724 0.950 . S
H3750 C3726 0.950 . S
H3751 C3727 0.949 . S
H3752 C3729 0.950 . S
H3753 C3731 0.950 . S
C3754 C3755 1.349 . S
C3754 C3756 1.327 . S
C3754 H3779 0.950 . S
C3755 C3754 1.349 . S
C3755 C3771 1.349 . S
C3756 C3754 1.327 . S
C3756 C3775 1.429 . S
C3756 H3780 0.950 . S
C3757 C3774 1.574 . S
C3757 C3776 1.368 . S
C3757 H3781 0.949 . S
H3758 C3762 0.949 . S
C3759 C3760 1.349 . S
C3759 C3761 1.327 . S
C3759 H3782 0.950 . S
C3760 C3759 1.349 . S
C3760 C3772 1.349 . S
C3761 C3759 1.327 . S
C3761 C3777 1.429 . S
C3761 H3783 0.950 . S
C3762 H3758 0.949 . S
C3762 C3770 1.574 . S
C3762 C3778 1.368 . S
H3763 C3771 0.950 . S
H3764 C3769 0.950 . S
H3765 C3770 0.949 . S
H3766 C3772 0.950 . S
H3767 C3773 0.950 . S
H3768 C3774 0.949 . S
C3769 H3764 0.950 . S
C3769 C3771 1.327 . S
C3769 C3775 1.429 . S
C3770 C3762 1.574 . S
C3770 H3765 0.949 . S
C3770 C3776 1.368 . S
C3771 C3755 1.349 . S
C3771 H3763 0.950 . S
C3771 C3769 1.327 . S
C3772 C3760 1.349 . S
C3772 H3766 0.950 . S
C3772 C3773 1.327 . S
C3773 H3767 0.950 . S
C3773 C3772 1.327 . S
C3773 C3777 1.429 . S
C3774 C3757 1.574 . S
C3774 H3768 0.949 . S
C3774 C3778 1.368 . S
C3775 C3756 1.429 . S
C3775 C3769 1.429 . S
C3775 C3776 1.523 . S
C3776 C3757 1.368 . S
C3776 C3770 1.368 . S
C3776 C3775 1.523 . S
C3777 C3761 1.429 . S
C3777 C3773 1.429 . S
C3777 C3778 1.523 . S
C3778 C3762 1.368 . S
C3778 C3774 1.368 . S
C3778 C3777 1.523 . S
H3779 C3754 0.950 . S
H3780 C3756 0.950 . S
H3781 C3757 0.949 . S
H3782 C3759 0.950 . S
H3783 C3761 0.950 . S
C3784 C3785 1.349 . S
C3784 C3786 1.327 . S
C3784 H3809 0.950 . S
C3785 C3784 1.349 . S
C3785 C3801 1.349 . S
C3786 C3784 1.327 . S
C3786 C3805 1.429 . S
C3786 H3810 0.950 . S
C3787 C3804 1.574 . S
C3787 C3806 1.368 . S
C3787 H3811 0.949 . S
H3788 C3792 0.949 . S
C3789 C3790 1.349 . S
C3789 C3791 1.327 . S
C3789 H3812 0.950 . S
C3790 C3789 1.349 . S
C3790 C3802 1.349 . S
C3791 C3789 1.327 . S
C3791 C3807 1.429 . S
C3791 H3813 0.950 . S
C3792 H3788 0.949 . S
C3792 C3800 1.574 . S
C3792 C3808 1.368 . S
H3793 C3801 0.950 . S
H3794 C3799 0.950 . S
H3795 C3800 0.949 . S
H3796 C3802 0.950 . S
H3797 C3803 0.950 . S
H3798 C3804 0.949 . S
C3799 H3794 0.950 . S
C3799 C3801 1.327 . S
C3799 C3805 1.429 . S
C3800 C3792 1.574 . S
C3800 H3795 0.949 . S
C3800 C3806 1.368 . S
C3801 C3785 1.349 . S
C3801 H3793 0.950 . S
C3801 C3799 1.327 . S
C3802 C3790 1.349 . S
C3802 H3796 0.950 . S
C3802 C3803 1.327 . S
C3803 H3797 0.950 . S
C3803 C3802 1.327 . S
C3803 C3807 1.429 . S
C3804 C3787 1.574 . S
C3804 H3798 0.949 . S
C3804 C3808 1.368 . S
C3805 C3786 1.429 . S
C3805 C3799 1.429 . S
C3805 C3806 1.523 . S
C3806 C3787 1.368 . S
C3806 C3800 1.368 . S
C3806 C3805 1.523 . S
C3807 C3791 1.429 . S
C3807 C3803 1.429 . S
C3807 C3808 1.523 . S
C3808 C3792 1.368 . S
C3808 C3804 1.368 . S
C3808 C3807 1.523 . S
H3809 C3784 0.950 . S
H3810 C3786 0.950 . S
H3811 C3787 0.949 . S
H3812 C3789 0.950 . S
H3813 C3791 0.950 . S
C3814 C3815 1.349 . S
C3814 C3816 1.327 . S
C3814 H3839 0.950 . S
C3815 C3814 1.349 . S
C3815 C3831 1.349 . S
C3816 C3814 1.327 . S
C3816 C3835 1.429 . S
C3816 H3840 0.950 . S
C3817 C3834 1.574 . S
C3817 C3836 1.368 . S
C3817 H3841 0.949 . S
H3818 C3822 0.949 . S
C3819 C3820 1.349 . S
C3819 C3821 1.327 . S
C3819 H3842 0.950 . S
C3820 C3819 1.349 . S
C3820 C3832 1.349 . S
C3821 C3819 1.327 . S
C3821 C3837 1.429 . S
C3821 H3843 0.950 . S
C3822 H3818 0.949 . S
C3822 C3830 1.574 . S
C3822 C3838 1.368 . S
H3823 C3831 0.950 . S
H3824 C3829 0.950 . S
H3825 C3830 0.949 . S
H3826 C3832 0.950 . S
H3827 C3833 0.950 . S
H3828 C3834 0.949 . S
C3829 H3824 0.950 . S
C3829 C3831 1.327 . S
C3829 C3835 1.429 . S
C3830 C3822 1.574 . S
C3830 H3825 0.949 . S
C3830 C3836 1.368 . S
C3831 C3815 1.349 . S
C3831 H3823 0.950 . S
C3831 C3829 1.327 . S
C3832 C3820 1.349 . S
C3832 H3826 0.950 . S
C3832 C3833 1.327 . S
C3833 H3827 0.950 . S
C3833 C3832 1.327 . S
C3833 C3837 1.429 . S
C3834 C3817 1.574 . S
C3834 H3828 0.949 . S
C3834 C3838 1.368 . S
C3835 C3816 1.429 . S
C3835 C3829 1.429 . S
C3835 C3836 1.523 . S
C3836 C3817 1.368 . S
C3836 C3830 1.368 . S
C3836 C3835 1.523 . S
C3837 C3821 1.429 . S
C3837 C3833 1.429 . S
C3837 C3838 1.523 . S
C3838 C3822 1.368 . S
C3838 C3834 1.368 . S
C3838 C3837 1.523 . S
H3839 C3814 0.950 . S
H3840 C3816 0.950 . S
H3841 C3817 0.949 . S
H3842 C3819 0.950 . S
H3843 C3821 0.950 . S
C3844 C3845 1.349 . S
C3844 C3846 1.327 . S
C3844 H3869 0.950 . S
C3845 C3844 1.349 . S
C3845 C3861 1.358 . S
C3846 C3844 1.327 . S
C3846 C3865 1.429 . S
C3846 H3870 0.950 . S
C3847 C3864 1.574 . S
C3847 C3866 1.368 . S
C3847 H3871 0.917 1_455 S
H3848 C3852 0.949 . S
C3849 C3850 1.349 . S
C3849 C3851 1.327 . S
C3849 H3872 0.950 . S
C3850 C3849 1.349 . S
C3850 C3862 1.349 . S
C3851 C3849 1.327 . S
C3851 C3867 1.429 . S
C3851 H3873 0.950 . S
C3852 H3848 0.949 . S
C3852 C3860 1.574 . S
C3852 C3868 1.368 . S
H3853 C3861 0.942 1_655 S
H3854 C3859 0.950 1_655 S
H3855 C3860 0.949 . S
H3856 C3862 0.950 . S
H3857 C3863 0.950 . S
H3858 C3864 0.949 . S
C3859 H3854 0.950 1_455 S
C3859 C3861 1.325 . S
C3859 C3865 1.429 . S
C3860 C3852 1.574 . S
C3860 H3855 0.949 . S
C3860 C3866 1.368 . S
C3861 C3845 1.358 . S
C3861 H3853 0.942 1_455 S
C3861 C3859 1.325 . S
C3862 C3850 1.349 . S
C3862 H3856 0.950 . S
C3862 C3863 1.327 . S
C3863 H3857 0.950 . S
C3863 C3862 1.327 . S
C3863 C3867 1.429 . S
C3864 C3847 1.574 . S
C3864 H3858 0.949 . S
C3864 C3868 1.368 . S
C3865 C3846 1.429 . S
C3865 C3859 1.429 . S
C3865 C3866 1.523 . S
C3866 C3847 1.368 . S
C3866 C3860 1.368 . S
C3866 C3865 1.523 . S
C3867 C3851 1.429 . S
C3867 C3863 1.429 . S
C3867 C3868 1.523 . S
C3868 C3852 1.368 . S
C3868 C3864 1.368 . S
C3868 C3867 1.523 . S
H3869 C3844 0.950 . S
H3870 C3846 0.950 . S
H3871 C3847 0.917 1_655 S
H3872 C3849 0.950 . S
H3873 C3851 0.950 . S
C3874 C3875 1.349 . S
C3874 C3876 1.327 . S
C3874 H3899 0.950 . S
C3875 C3874 1.349 . S
C3875 C3891 1.349 . S
C3876 C3874 1.327 . S
C3876 C3895 1.429 . S
C3876 H3900 0.950 . S
C3877 C3894 1.574 . S
C3877 C3896 1.368 . S
C3877 H3901 0.949 . S
H3878 C3882 0.949 . S
C3879 C3880 1.349 . S
C3879 C3881 1.327 . S
C3879 H3902 0.950 . S
C3880 C3879 1.349 . S
C3880 C3892 1.349 . S
C3881 C3879 1.327 . S
C3881 C3897 1.429 . S
C3881 H3903 0.950 . S
C3882 H3878 0.949 . S
C3882 C3890 1.574 . S
C3882 C3898 1.368 . S
H3883 C3891 0.950 . S
H3884 C3889 0.950 . S
H3885 C3890 0.949 . S
H3886 C3892 0.950 . S
H3887 C3893 0.950 . S
H3888 C3894 0.949 . S
C3889 H3884 0.950 . S
C3889 C3891 1.327 . S
C3889 C3895 1.429 . S
C3890 C3882 1.574 . S
C3890 H3885 0.949 . S
C3890 C3896 1.368 . S
C3891 C3875 1.349 . S
C3891 H3883 0.950 . S
C3891 C3889 1.327 . S
C3892 C3880 1.349 . S
C3892 H3886 0.950 . S
C3892 C3893 1.327 . S
C3893 H3887 0.950 . S
C3893 C3892 1.327 . S
C3893 C3897 1.429 . S
C3894 C3877 1.574 . S
C3894 H3888 0.949 . S
C3894 C3898 1.368 . S
C3895 C3876 1.429 . S
C3895 C3889 1.429 . S
C3895 C3896 1.523 . S
C3896 C3877 1.368 . S
C3896 C3890 1.368 . S
C3896 C3895 1.523 . S
C3897 C3881 1.429 . S
C3897 C3893 1.429 . S
C3897 C3898 1.523 . S
C3898 C3882 1.368 . S
C3898 C3894 1.368 . S
C3898 C3897 1.523 . S
H3899 C3874 0.950 . S
H3900 C3876 0.950 . S
H3901 C3877 0.949 . S
H3902 C3879 0.950 . S
H3903 C3881 0.950 . S
C3904 C3905 1.349 . S
C3904 C3906 1.327 . S
C3904 H3929 0.950 . S
C3905 C3904 1.349 . S
C3905 C3921 1.349 . S
C3906 C3904 1.327 . S
C3906 C3925 1.429 . S
C3906 H3930 0.950 . S
C3907 C3924 1.574 . S
C3907 C3926 1.368 . S
C3907 H3931 0.949 . S
H3908 C3912 0.949 . S
C3909 C3910 1.349 . S
C3909 C3911 1.327 . S
C3909 H3932 0.950 . S
C3910 C3909 1.349 . S
C3910 C3922 1.349 . S
C3911 C3909 1.327 . S
C3911 C3927 1.429 . S
C3911 H3933 0.950 . S
C3912 H3908 0.949 . S
C3912 C3920 1.574 . S
C3912 C3928 1.368 . S
H3913 C3921 0.950 . S
H3914 C3919 0.950 . S
H3915 C3920 0.949 . S
H3916 C3922 0.950 . S
H3917 C3923 0.950 . S
H3918 C3924 0.949 . S
C3919 H3914 0.950 . S
C3919 C3921 1.327 . S
C3919 C3925 1.429 . S
C3920 C3912 1.574 . S
C3920 H3915 0.949 . S
C3920 C3926 1.368 . S
C3921 C3905 1.349 . S
C3921 H3913 0.950 . S
C3921 C3919 1.327 . S
C3922 C3910 1.349 . S
C3922 H3916 0.950 . S
C3922 C3923 1.327 . S
C3923 H3917 0.950 . S
C3923 C3922 1.327 . S
C3923 C3927 1.429 . S
C3924 C3907 1.574 . S
C3924 H3918 0.949 . S
C3924 C3928 1.368 . S
C3925 C3906 1.429 . S
C3925 C3919 1.429 . S
C3925 C3926 1.523 . S
C3926 C3907 1.368 . S
C3926 C3920 1.368 . S
C3926 C3925 1.523 . S
C3927 C3911 1.429 . S
C3927 C3923 1.429 . S
C3927 C3928 1.523 . S
C3928 C3912 1.368 . S
C3928 C3924 1.368 . S
C3928 C3927 1.523 . S
H3929 C3904 0.950 . S
H3930 C3906 0.950 . S
H3931 C3907 0.949 . S
H3932 C3909 0.950 . S
H3933 C3911 0.950 . S
C3934 C3935 1.349 . S
C3934 C3936 1.327 . S
C3934 H3959 0.950 . S
C3935 C3934 1.349 . S
C3935 C3951 1.349 . S
C3936 C3934 1.327 . S
C3936 C3955 1.429 . S
C3936 H3960 0.950 . S
C3937 C3954 1.574 . S
C3937 C3956 1.368 . S
C3937 H3961 0.949 . S
H3938 C3942 0.949 . S
C3939 C3940 1.349 . S
C3939 C3941 1.327 . S
C3939 H3962 0.950 . S
C3940 C3939 1.349 . S
C3940 C3952 1.349 . S
C3941 C3939 1.327 . S
C3941 C3957 1.429 . S
C3941 H3963 0.950 . S
C3942 H3938 0.949 . S
C3942 C3950 1.574 . S
C3942 C3958 1.368 . S
H3943 C3951 0.950 . S
H3944 C3949 0.950 . S
H3945 C3950 0.949 . S
H3946 C3952 0.950 . S
H3947 C3953 0.950 . S
H3948 C3954 0.949 . S
C3949 H3944 0.950 . S
C3949 C3951 1.327 . S
C3949 C3955 1.429 . S
C3950 C3942 1.574 . S
C3950 H3945 0.949 . S
C3950 C3956 1.368 . S
C3951 C3935 1.349 . S
C3951 H3943 0.950 . S
C3951 C3949 1.327 . S
C3952 C3940 1.349 . S
C3952 H3946 0.950 . S
C3952 C3953 1.327 . S
C3953 H3947 0.950 . S
C3953 C3952 1.327 . S
C3953 C3957 1.429 . S
C3954 C3937 1.574 . S
C3954 H3948 0.949 . S
C3954 C3958 1.368 . S
C3955 C3936 1.429 . S
C3955 C3949 1.429 . S
C3955 C3956 1.523 . S
C3956 C3937 1.368 . S
C3956 C3950 1.368 . S
C3956 C3955 1.523 . S
C3957 C3941 1.429 . S
C3957 C3953 1.429 . S
C3957 C3958 1.523 . S
C3958 C3942 1.368 . S
C3958 C3954 1.368 . S
C3958 C3957 1.523 . S
H3959 C3934 0.950 . S
H3960 C3936 0.950 . S
H3961 C3937 0.949 . S
H3962 C3939 0.950 . S
H3963 C3941 0.950 . S
C3964 C3965 1.349 . S
C3964 C3966 1.327 . S
C3964 H3989 0.950 . S
C3965 C3964 1.349 . S
C3965 C3981 1.349 . S
C3966 C3964 1.327 . S
C3966 C3985 1.429 . S
C3966 H3990 0.950 . S
C3967 C3984 1.574 . S
C3967 C3986 1.368 . S
C3967 H3991 0.949 . S
H3968 C3972 0.949 . S
C3969 C3970 1.349 1_655 S
C3969 C3971 1.327 . S
C3969 H3992 0.950 . S
C3970 C3969 1.349 1_455 S
C3970 C3982 1.349 . S
C3971 C3969 1.327 . S
C3971 C3987 1.429 . S
C3971 H3993 0.950 . S
C3972 H3968 0.949 . S
C3972 C3980 1.574 . S
C3972 C3988 1.368 . S
H3973 C3981 0.950 . S
H3974 C3979 0.950 . S
H3975 C3980 0.949 . S
H3976 C3982 0.950 . S
H3977 C3983 0.952 1_455 S
H3978 C3984 0.949 . S
C3979 H3974 0.950 . S
C3979 C3981 1.327 . S
C3979 C3985 1.429 . S
C3980 C3972 1.574 . S
C3980 H3975 0.949 . S
C3980 C3986 1.368 . S
C3981 C3965 1.349 . S
C3981 H3973 0.950 . S
C3981 C3979 1.327 . S
C3982 C3970 1.349 . S
C3982 H3976 0.950 . S
C3982 C3983 1.327 1_455 S
C3983 H3977 0.952 1_655 S
C3983 C3982 1.327 1_655 S
C3983 C3987 1.429 . S
C3984 C3967 1.574 . S
C3984 H3978 0.949 . S
C3984 C3988 1.368 . S
C3985 C3966 1.429 . S
C3985 C3979 1.429 . S
C3985 C3986 1.523 . S
C3986 C3967 1.368 . S
C3986 C3980 1.368 . S
C3986 C3985 1.523 . S
C3987 C3971 1.429 . S
C3987 C3983 1.429 . S
C3987 C3988 1.523 . S
C3988 C3972 1.368 . S
C3988 C3984 1.368 . S
C3988 C3987 1.523 . S
H3989 C3964 0.950 . S
H3990 C3966 0.950 . S
H3991 C3967 0.949 . S
H3992 C3969 0.950 . S
H3993 C3971 0.950 . S
C3994 C3995 1.349 . S
C3994 C3996 1.327 . S
C3994 H4019 0.950 . S
C3995 C3994 1.349 . S
C3995 C4011 1.349 . S
C3996 C3994 1.327 . S
C3996 C4015 1.429 . S
C3996 H4020 0.950 . S
C3997 C4014 1.574 . S
C3997 C4016 1.368 . S
C3997 H4021 0.949 . S
H3998 C4002 0.949 . S
C3999 C4000 1.349 . S
C3999 C4001 1.327 . S
C3999 H4022 0.950 . S
C4000 C3999 1.349 . S
C4000 C4012 1.349 . S
C4001 C3999 1.327 . S
C4001 C4017 1.429 . S
C4001 H4023 0.950 . S
C4002 H3998 0.949 . S
C4002 C4010 1.574 . S
C4002 C4018 1.368 . S
H4003 C4011 0.950 . S
H4004 C4009 0.950 . S
H4005 C4010 0.949 . S
H4006 C4012 0.950 . S
H4007 C4013 0.950 . S
H4008 C4014 0.949 . S
C4009 H4004 0.950 . S
C4009 C4011 1.327 . S
C4009 C4015 1.429 . S
C4010 C4002 1.574 . S
C4010 H4005 0.949 . S
C4010 C4016 1.368 . S
C4011 C3995 1.349 . S
C4011 H4003 0.950 . S
C4011 C4009 1.327 . S
C4012 C4000 1.349 . S
C4012 H4006 0.950 . S
C4012 C4013 1.327 . S
C4013 H4007 0.950 . S
C4013 C4012 1.327 . S
C4013 C4017 1.429 . S
C4014 C3997 1.574 . S
C4014 H4008 0.949 . S
C4014 C4018 1.368 . S
C4015 C3996 1.429 . S
C4015 C4009 1.429 . S
C4015 C4016 1.523 . S
C4016 C3997 1.368 . S
C4016 C4010 1.368 . S
C4016 C4015 1.523 . S
C4017 C4001 1.429 . S
C4017 C4013 1.429 . S
C4017 C4018 1.523 . S
C4018 C4002 1.368 . S
C4018 C4014 1.368 . S
C4018 C4017 1.523 . S
H4019 C3994 0.950 . S
H4020 C3996 0.950 . S
H4021 C3997 0.949 . S
H4022 C3999 0.950 . S
H4023 C4001 0.950 . S
C4024 C4025 1.349 . S
C4024 C4026 1.327 . S
C4024 H4049 0.950 . S
C4025 C4024 1.349 . S
C4025 C4041 1.349 . S
C4026 C4024 1.327 . S
C4026 C4045 1.429 . S
C4026 H4050 0.950 . S
C4027 C4044 1.574 . S
C4027 C4046 1.368 . S
C4027 H4051 0.949 . S
H4028 C4032 0.949 . S
C4029 C4030 1.349 . S
C4029 C4031 1.327 . S
C4029 H4052 0.950 . S
C4030 C4029 1.349 . S
C4030 C4042 1.349 . S
C4031 C4029 1.327 . S
C4031 C4047 1.429 . S
C4031 H4053 0.950 . S
C4032 H4028 0.949 . S
C4032 C4040 1.574 . S
C4032 C4048 1.368 . S
H4033 C4041 0.950 . S
H4034 C4039 0.950 . S
H4035 C4040 0.949 . S
H4036 C4042 0.950 . S
H4037 C4043 0.950 . S
H4038 C4044 0.949 . S
C4039 H4034 0.950 . S
C4039 C4041 1.327 . S
C4039 C4045 1.429 . S
C4040 C4032 1.574 . S
C4040 H4035 0.949 . S
C4040 C4046 1.368 . S
C4041 C4025 1.349 . S
C4041 H4033 0.950 . S
C4041 C4039 1.327 . S
C4042 C4030 1.349 . S
C4042 H4036 0.950 . S
C4042 C4043 1.327 . S
C4043 H4037 0.950 . S
C4043 C4042 1.327 . S
C4043 C4047 1.429 . S
C4044 C4027 1.574 . S
C4044 H4038 0.949 . S
C4044 C4048 1.368 . S
C4045 C4026 1.429 . S
C4045 C4039 1.429 . S
C4045 C4046 1.523 . S
C4046 C4027 1.368 . S
C4046 C4040 1.368 . S
C4046 C4045 1.523 . S
C4047 C4031 1.429 . S
C4047 C4043 1.429 . S
C4047 C4048 1.523 . S
C4048 C4032 1.368 . S
C4048 C4044 1.368 . S
C4048 C4047 1.523 . S
H4049 C4024 0.950 . S
H4050 C4026 0.950 . S
H4051 C4027 0.949 . S
H4052 C4029 0.950 . S
H4053 C4031 0.950 . S
C4054 C4055 1.349 . S
C4054 C4056 1.327 . S
C4054 H4079 0.950 . S
C4055 C4054 1.349 . S
C4055 C4071 1.349 . S
C4056 C4054 1.327 . S
C4056 C4075 1.429 . S
C4056 H4080 0.950 . S
C4057 C4074 1.574 . S
C4057 C4076 1.368 . S
C4057 H4081 0.949 . S
H4058 C4062 0.949 . S
C4059 C4060 1.349 . S
C4059 C4061 1.327 . S
C4059 H4082 0.950 . S
C4060 C4059 1.349 . S
C4060 C4072 1.349 . S
C4061 C4059 1.327 . S
C4061 C4077 1.429 . S
C4061 H4083 0.950 . S
C4062 H4058 0.949 . S
C4062 C4070 1.574 . S
C4062 C4078 1.368 . S
H4063 C4071 0.950 . S
H4064 C4069 0.950 . S
H4065 C4070 0.949 . S
H4066 C4072 0.950 . S
H4067 C4073 0.950 . S
H4068 C4074 0.949 . S
C4069 H4064 0.950 . S
C4069 C4071 1.327 . S
C4069 C4075 1.429 . S
C4070 C4062 1.574 . S
C4070 H4065 0.949 . S
C4070 C4076 1.368 . S
C4071 C4055 1.349 . S
C4071 H4063 0.950 . S
C4071 C4069 1.327 . S
C4072 C4060 1.349 . S
C4072 H4066 0.950 . S
C4072 C4073 1.327 . S
C4073 H4067 0.950 . S
C4073 C4072 1.327 . S
C4073 C4077 1.429 . S
C4074 C4057 1.574 . S
C4074 H4068 0.949 . S
C4074 C4078 1.368 . S
C4075 C4056 1.429 . S
C4075 C4069 1.429 . S
C4075 C4076 1.523 . S
C4076 C4057 1.368 . S
C4076 C4070 1.368 . S
C4076 C4075 1.523 . S
C4077 C4061 1.429 . S
C4077 C4073 1.429 . S
C4077 C4078 1.523 . S
C4078 C4062 1.368 . S
C4078 C4074 1.368 . S
C4078 C4077 1.523 . S
H4079 C4054 0.950 . S
H4080 C4056 0.950 . S
H4081 C4057 0.949 . S
H4082 C4059 0.950 . S
H4083 C4061 0.950 . S
C4084 C4085 1.349 . S
C4084 C4086 1.327 . S
C4084 H4109 0.950 . S
C4085 C4084 1.349 . S
C4085 C4101 1.349 . S
C4086 C4084 1.327 . S
C4086 C4105 1.429 . S
C4086 H4110 0.950 . S
C4087 C4104 1.574 . S
C4087 C4106 1.368 . S
C4087 H4111 0.949 . S
H4088 C4092 0.949 . S
C4089 C4090 1.349 . S
C4089 C4091 1.363 . S
C4089 H4112 0.950 . S
C4090 C4089 1.349 . S
C4090 C4102 1.349 1_455 S
C4091 C4089 1.363 . S
C4091 C4107 1.379 1_455 S
C4091 H4113 0.966 . S
C4092 H4088 0.949 . S
C4092 C4100 1.574 . S
C4092 C4108 1.368 . S
H4093 C4101 0.950 . S
H4094 C4099 0.950 . S
H4095 C4100 0.949 . S
H4096 C4102 0.950 . S
H4097 C4103 0.950 . S
H4098 C4104 0.949 . S
C4099 H4094 0.950 . S
C4099 C4101 1.327 . S
C4099 C4105 1.429 . S
C4100 C4092 1.574 . S
C4100 H4095 0.949 . S
C4100 C4106 1.368 . S
C4101 C4085 1.349 . S
C4101 H4093 0.950 . S
C4101 C4099 1.327 . S
C4102 C4090 1.349 1_655 S
C4102 H4096 0.950 . S
C4102 C4103 1.327 . S
C4103 H4097 0.950 . S
C4103 C4102 1.327 . S
C4103 C4107 1.429 . S
C4104 C4087 1.574 . S
C4104 H4098 0.949 . S
C4104 C4108 1.368 . S
C4105 C4086 1.429 . S
C4105 C4099 1.429 . S
C4105 C4106 1.523 . S
C4106 C4087 1.368 . S
C4106 C4100 1.368 . S
C4106 C4105 1.523 . S
C4107 C4091 1.379 1_655 S
C4107 C4103 1.429 . S
C4107 C4108 1.523 . S
C4108 C4092 1.368 . S
C4108 C4104 1.368 . S
C4108 C4107 1.523 . S
H4109 C4084 0.950 . S
H4110 C4086 0.950 . S
H4111 C4087 0.949 . S
H4112 C4089 0.950 . S
H4113 C4091 0.966 . S
C4114 C4115 1.349 . S
C4114 C4116 1.327 . S
C4114 H4139 0.950 . S
C4115 C4114 1.349 . S
C4115 C4131 1.349 . S
C4116 C4114 1.327 . S
C4116 C4135 1.429 . S
C4116 H4140 0.950 . S
C4117 C4134 1.574 . S
C4117 C4136 1.368 . S
C4117 H4141 0.949 . S
H4118 C4122 0.949 . S
C4119 C4120 1.349 . S
C4119 C4121 1.327 . S
C4119 H4142 0.950 . S
C4120 C4119 1.349 . S
C4120 C4132 1.349 . S
C4121 C4119 1.327 . S
C4121 C4137 1.429 . S
C4121 H4143 0.950 . S
C4122 H4118 0.949 . S
C4122 C4130 1.574 . S
C4122 C4138 1.368 . S
H4123 C4131 0.950 . S
H4124 C4129 0.950 . S
H4125 C4130 0.949 . S
H4126 C4132 0.950 . S
H4127 C4133 0.950 . S
H4128 C4134 0.949 . S
C4129 H4124 0.950 . S
C4129 C4131 1.327 . S
C4129 C4135 1.429 . S
C4130 C4122 1.574 . S
C4130 H4125 0.949 . S
C4130 C4136 1.368 . S
C4131 C4115 1.349 . S
C4131 H4123 0.950 . S
C4131 C4129 1.327 . S
C4132 C4120 1.349 . S
C4132 H4126 0.950 . S
C4132 C4133 1.327 . S
C4133 H4127 0.950 . S
C4133 C4132 1.327 . S
C4133 C4137 1.429 . S
C4134 C4117 1.574 . S
C4134 H4128 0.949 . S
C4134 C4138 1.368 . S
C4135 C4116 1.429 . S
C4135 C4129 1.429 . S
C4135 C4136 1.523 . S
C4136 C4117 1.368 . S
C4136 C4130 1.368 . S
C4136 C4135 1.523 . S
C4137 C4121 1.429 . S
C4137 C4133 1.429 . S
C4137 C4138 1.523 . S
C4138 C4122 1.368 . S
C4138 C4134 1.368 . S
C4138 C4137 1.523 . S
H4139 C4114 0.950 . S
H4140 C4116 0.950 . S
H4141 C4117 0.949 . S
H4142 C4119 0.950 . S
H4143 C4121 0.950 . S
C4144 C4145 1.349 . S
C4144 C4146 1.327 . S
C4144 H4169 0.950 . S
C4145 C4144 1.349 . S
C4145 C4161 1.349 . S
C4146 C4144 1.327 . S
C4146 C4165 1.429 . S
C4146 H4170 0.950 . S
C4147 C4164 1.574 . S
C4147 C4166 1.368 . S
C4147 H4171 0.949 . S
H4148 C4152 0.949 . S
C4149 C4150 1.349 . S
C4149 C4151 1.327 . S
C4149 H4172 0.950 . S
C4150 C4149 1.349 . S
C4150 C4162 1.349 . S
C4151 C4149 1.327 . S
C4151 C4167 1.429 . S
C4151 H4173 0.950 . S
C4152 H4148 0.949 . S
C4152 C4160 1.574 . S
C4152 C4168 1.368 . S
H4153 C4161 0.950 . S
H4154 C4159 0.950 . S
H4155 C4160 0.949 . S
H4156 C4162 0.950 . S
H4157 C4163 0.950 . S
H4158 C4164 0.949 . S
C4159 H4154 0.950 . S
C4159 C4161 1.327 . S
C4159 C4165 1.429 . S
C4160 C4152 1.574 . S
C4160 H4155 0.949 . S
C4160 C4166 1.368 . S
C4161 C4145 1.349 . S
C4161 H4153 0.950 . S
C4161 C4159 1.327 . S
C4162 C4150 1.349 . S
C4162 H4156 0.950 . S
C4162 C4163 1.327 . S
C4163 H4157 0.950 . S
C4163 C4162 1.327 . S
C4163 C4167 1.429 . S
C4164 C4147 1.574 . S
C4164 H4158 0.949 . S
C4164 C4168 1.368 . S
C4165 C4146 1.429 . S
C4165 C4159 1.429 . S
C4165 C4166 1.523 . S
C4166 C4147 1.368 . S
C4166 C4160 1.368 . S
C4166 C4165 1.523 . S
C4167 C4151 1.429 . S
C4167 C4163 1.429 . S
C4167 C4168 1.523 . S
C4168 C4152 1.368 . S
C4168 C4164 1.368 . S
C4168 C4167 1.523 . S
H4169 C4144 0.950 . S
H4170 C4146 0.950 . S
H4171 C4147 0.949 . S
H4172 C4149 0.950 . S
H4173 C4151 0.950 . S
C4174 C4175 1.349 . S
C4174 C4176 1.327 . S
C4174 H4199 0.950 . S
C4175 C4174 1.349 . S
C4175 C4191 1.349 . S
C4176 C4174 1.327 . S
C4176 C4195 1.429 . S
C4176 H4200 0.950 . S
C4177 C4194 1.574 . S
C4177 C4196 1.368 . S
C4177 H4201 0.949 . S
H4178 C4182 0.949 . S
C4179 C4180 1.349 . S
C4179 C4181 1.327 . S
C4179 H4202 0.923 1_565 S
C4180 C4179 1.349 . S
C4180 C4192 1.349 . S
C4181 C4179 1.327 . S
C4181 C4197 1.429 . S
C4181 H4203 0.950 . S
C4182 H4178 0.949 . S
C4182 C4190 1.574 . S
C4182 C4198 1.368 . S
H4183 C4191 0.950 . S
H4184 C4189 0.950 . S
H4185 C4190 0.949 . S
H4186 C4192 0.950 . S
H4187 C4193 0.950 . S
H4188 C4194 0.949 . S
C4189 H4184 0.950 . S
C4189 C4191 1.327 . S
C4189 C4195 1.429 . S
C4190 C4182 1.574 . S
C4190 H4185 0.949 . S
C4190 C4196 1.368 . S
C4191 C4175 1.349 . S
C4191 H4183 0.950 . S
C4191 C4189 1.327 . S
C4192 C4180 1.349 . S
C4192 H4186 0.950 . S
C4192 C4193 1.327 . S
C4193 H4187 0.950 . S
C4193 C4192 1.327 . S
C4193 C4197 1.429 . S
C4194 C4177 1.574 . S
C4194 H4188 0.949 . S
C4194 C4198 1.368 . S
C4195 C4176 1.429 . S
C4195 C4189 1.429 . S
C4195 C4196 1.523 . S
C4196 C4177 1.368 . S
C4196 C4190 1.368 . S
C4196 C4195 1.523 . S
C4197 C4181 1.429 . S
C4197 C4193 1.429 . S
C4197 C4198 1.523 . S
C4198 C4182 1.368 . S
C4198 C4194 1.368 . S
C4198 C4197 1.523 . S
H4199 C4174 0.950 . S
H4200 C4176 0.950 . S
H4201 C4177 0.949 . S
H4202 C4179 0.923 1_545 S
H4203 C4181 0.950 . S
C4204 C4205 1.349 . S
C4204 C4206 1.327 . S
C4204 H4229 0.950 . S
C4205 C4204 1.349 . S
C4205 C4221 1.349 . S
C4206 C4204 1.327 . S
C4206 C4225 1.429 . S
C4206 H4230 0.950 . S
C4207 C4224 1.574 . S
C4207 C4226 1.368 . S
C4207 H4231 0.949 . S
H4208 C4212 0.949 . S
C4209 C4210 1.349 . S
C4209 C4211 1.327 . S
C4209 H4232 0.950 . S
C4210 C4209 1.349 . S
C4210 C4222 1.349 . S
C4211 C4209 1.327 . S
C4211 C4227 1.429 . S
C4211 H4233 0.950 . S
C4212 H4208 0.949 . S
C4212 C4220 1.574 . S
C4212 C4228 1.368 . S
H4213 C4221 0.950 . S
H4214 C4219 0.950 . S
H4215 C4220 0.949 . S
H4216 C4222 0.950 . S
H4217 C4223 0.950 . S
H4218 C4224 0.949 . S
C4219 H4214 0.950 . S
C4219 C4221 1.327 . S
C4219 C4225 1.429 . S
C4220 C4212 1.574 . S
C4220 H4215 0.949 . S
C4220 C4226 1.368 . S
C4221 C4205 1.349 . S
C4221 H4213 0.950 . S
C4221 C4219 1.327 . S
C4222 C4210 1.349 . S
C4222 H4216 0.950 . S
C4222 C4223 1.327 . S
C4223 H4217 0.950 . S
C4223 C4222 1.327 . S
C4223 C4227 1.429 . S
C4224 C4207 1.574 . S
C4224 H4218 0.949 . S
C4224 C4228 1.368 . S
C4225 C4206 1.429 . S
C4225 C4219 1.429 . S
C4225 C4226 1.523 . S
C4226 C4207 1.368 . S
C4226 C4220 1.368 . S
C4226 C4225 1.523 . S
C4227 C4211 1.429 . S
C4227 C4223 1.429 . S
C4227 C4228 1.523 . S
C4228 C4212 1.368 . S
C4228 C4224 1.368 . S
C4228 C4227 1.523 . S
H4229 C4204 0.950 . S
H4230 C4206 0.950 . S
H4231 C4207 0.949 . S
H4232 C4209 0.950 . S
H4233 C4211 0.950 . S
C4234 C4235 1.349 . S
C4234 C4236 1.327 . S
C4234 H4259 0.950 . S
C4235 C4234 1.349 . S
C4235 C4251 1.349 . S
C4236 C4234 1.327 . S
C4236 C4255 1.429 . S
C4236 H4260 0.950 . S
C4237 C4254 1.574 . S
C4237 C4256 1.368 . S
C4237 H4261 0.949 . S
H4238 C4242 0.949 . S
C4239 C4240 1.349 . S
C4239 C4241 1.327 . S
C4239 H4262 0.950 . S
C4240 C4239 1.349 . S
C4240 C4252 1.349 . S
C4241 C4239 1.327 . S
C4241 C4257 1.429 . S
C4241 H4263 0.950 . S
C4242 H4238 0.949 . S
C4242 C4250 1.574 . S
C4242 C4258 1.368 . S
H4243 C4251 0.950 . S
H4244 C4249 0.950 . S
H4245 C4250 0.949 . S
H4246 C4252 0.950 . S
H4247 C4253 0.950 . S
H4248 C4254 0.949 . S
C4249 H4244 0.950 . S
C4249 C4251 1.327 . S
C4249 C4255 1.429 . S
C4250 C4242 1.574 . S
C4250 H4245 0.949 . S
C4250 C4256 1.368 . S
C4251 C4235 1.349 . S
C4251 H4243 0.950 . S
C4251 C4249 1.327 . S
C4252 C4240 1.349 . S
C4252 H4246 0.950 . S
C4252 C4253 1.327 . S
C4253 H4247 0.950 . S
C4253 C4252 1.327 . S
C4253 C4257 1.429 . S
C4254 C4237 1.574 . S
C4254 H4248 0.949 . S
C4254 C4258 1.368 . S
C4255 C4236 1.429 . S
C4255 C4249 1.429 . S
C4255 C4256 1.523 . S
C4256 C4237 1.368 . S
C4256 C4250 1.368 . S
C4256 C4255 1.523 . S
C4257 C4241 1.429 . S
C4257 C4253 1.429 . S
C4257 C4258 1.523 . S
C4258 C4242 1.368 . S
C4258 C4254 1.368 . S
C4258 C4257 1.523 . S
H4259 C4234 0.950 . S
H4260 C4236 0.950 . S
H4261 C4237 0.949 . S
H4262 C4239 0.950 . S
H4263 C4241 0.950 . S
C4264 C4265 1.349 . S
C4264 C4266 1.327 . S
C4264 H4289 0.950 . S
C4265 C4264 1.349 . S
C4265 C4281 1.349 . S
C4266 C4264 1.327 . S
C4266 C4285 1.429 . S
C4266 H4290 0.950 . S
C4267 C4284 1.574 . S
C4267 C4286 1.368 . S
C4267 H4291 0.949 . S
H4268 C4272 0.949 . S
C4269 C4270 1.349 . S
C4269 C4271 1.327 . S
C4269 H4292 0.950 . S
C4270 C4269 1.349 . S
C4270 C4282 1.349 . S
C4271 C4269 1.327 . S
C4271 C4287 1.429 . S
C4271 H4293 0.950 . S
C4272 H4268 0.949 . S
C4272 C4280 1.574 . S
C4272 C4288 1.368 . S
H4273 C4281 0.950 . S
H4274 C4279 0.950 . S
H4275 C4280 0.949 . S
H4276 C4282 0.950 . S
H4277 C4283 0.950 . S
H4278 C4284 0.949 . S
C4279 H4274 0.950 . S
C4279 C4281 1.327 . S
C4279 C4285 1.429 . S
C4280 C4272 1.574 . S
C4280 H4275 0.949 . S
C4280 C4286 1.368 . S
C4281 C4265 1.349 . S
C4281 H4273 0.950 . S
C4281 C4279 1.327 . S
C4282 C4270 1.349 . S
C4282 H4276 0.950 . S
C4282 C4283 1.327 . S
C4283 H4277 0.950 . S
C4283 C4282 1.327 . S
C4283 C4287 1.429 . S
C4284 C4267 1.574 . S
C4284 H4278 0.949 . S
C4284 C4288 1.368 . S
C4285 C4266 1.429 . S
C4285 C4279 1.429 . S
C4285 C4286 1.523 . S
C4286 C4267 1.368 . S
C4286 C4280 1.368 . S
C4286 C4285 1.523 . S
C4287 C4271 1.429 . S
C4287 C4283 1.429 . S
C4287 C4288 1.523 . S
C4288 C4272 1.368 . S
C4288 C4284 1.368 . S
C4288 C4287 1.523 . S
H4289 C4264 0.950 . S
H4290 C4266 0.950 . S
H4291 C4267 0.949 . S
H4292 C4269 0.950 . S
H4293 C4271 0.950 . S
C4294 C4295 1.349 . S
C4294 C4296 1.327 . S
C4294 H4319 0.959 . S
C4295 C4294 1.349 . S
C4295 C4311 1.349 . S
C4296 C4294 1.327 . S
C4296 C4315 1.429 . S
C4296 H4320 0.950 1_554 S
C4297 C4314 1.574 . S
C4297 C4316 1.368 . S
C4297 H4321 0.949 . S
H4298 C4302 0.949 . S
C4299 C4300 1.349 . S
C4299 C4301 1.327 . S
C4299 H4322 0.950 . S
C4300 C4299 1.349 . S
C4300 C4312 1.349 1_554 S
C4301 C4299 1.327 . S
C4301 C4317 1.429 . S
C4301 H4323 0.950 . S
C4302 H4298 0.949 . S
C4302 C4310 1.576 . S
C4302 C4318 1.368 1_556 S
H4303 C4311 0.950 . S
H4304 C4309 0.950 . S
H4305 C4310 0.963 . S
H4306 C4312 0.950 . S
H4307 C4313 0.950 . S
H4308 C4314 0.949 . S
C4309 H4304 0.950 . S
C4309 C4311 1.327 . S
C4309 C4315 1.429 . S
C4310 C4302 1.576 . S
C4310 H4305 0.963 . S
C4310 C4316 1.351 1_556 S
C4311 C4295 1.349 . S
C4311 H4303 0.950 . S
C4311 C4309 1.327 . S
C4312 C4300 1.349 1_556 S
C4312 H4306 0.950 . S
C4312 C4313 1.327 . S
C4313 H4307 0.950 . S
C4313 C4312 1.327 . S
C4313 C4317 1.429 1_556 S
C4314 C4297 1.574 . S
C4314 H4308 0.949 . S
C4314 C4318 1.368 . S
C4315 C4296 1.429 . S
C4315 C4309 1.429 . S
C4315 C4316 1.523 . S
C4316 C4297 1.368 . S
C4316 C4310 1.351 1_554 S
C4316 C4315 1.523 . S
C4317 C4301 1.429 . S
C4317 C4313 1.429 1_554 S
C4317 C4318 1.523 . S
C4318 C4302 1.368 1_554 S
C4318 C4314 1.368 . S
C4318 C4317 1.523 . S
H4319 C4294 0.959 . S
H4320 C4296 0.950 1_556 S
H4321 C4297 0.949 . S
H4322 C4299 0.950 . S
H4323 C4301 0.950 . S
C4324 C4325 1.349 . S
C4324 C4326 1.327 . S
C4324 H4349 0.950 . S
C4325 C4324 1.349 . S
C4325 C4341 1.349 . S
C4326 C4324 1.327 . S
C4326 C4345 1.429 . S
C4326 H4350 0.950 . S
C4327 C4344 1.574 . S
C4327 C4346 1.368 . S
C4327 H4351 0.949 . S
H4328 C4332 0.949 . S
C4329 C4330 1.349 . S
C4329 C4331 1.327 . S
C4329 H4352 0.950 . S
C4330 C4329 1.349 . S
C4330 C4342 1.349 . S
C4331 C4329 1.327 . S
C4331 C4347 1.429 . S
C4331 H4353 0.950 . S
C4332 H4328 0.949 . S
C4332 C4340 1.574 . S
C4332 C4348 1.368 . S
H4333 C4341 0.950 . S
H4334 C4339 0.950 . S
H4335 C4340 0.949 . S
H4336 C4342 0.950 . S
H4337 C4343 0.950 . S
H4338 C4344 0.949 . S
C4339 H4334 0.950 . S
C4339 C4341 1.327 . S
C4339 C4345 1.429 . S
C4340 C4332 1.574 . S
C4340 H4335 0.949 . S
C4340 C4346 1.368 . S
C4341 C4325 1.349 . S
C4341 H4333 0.950 . S
C4341 C4339 1.327 . S
C4342 C4330 1.349 . S
C4342 H4336 0.950 . S
C4342 C4343 1.327 . S
C4343 H4337 0.950 . S
C4343 C4342 1.327 . S
C4343 C4347 1.429 . S
C4344 C4327 1.574 . S
C4344 H4338 0.949 . S
C4344 C4348 1.368 . S
C4345 C4326 1.429 . S
C4345 C4339 1.429 . S
C4345 C4346 1.523 . S
C4346 C4327 1.368 . S
C4346 C4340 1.368 . S
C4346 C4345 1.523 . S
C4347 C4331 1.429 . S
C4347 C4343 1.429 . S
C4347 C4348 1.523 . S
C4348 C4332 1.368 . S
C4348 C4344 1.368 . S
C4348 C4347 1.523 . S
H4349 C4324 0.950 . S
H4350 C4326 0.950 . S
H4351 C4327 0.949 . S
H4352 C4329 0.950 . S
H4353 C4331 0.950 . S
C4354 C4355 1.349 . S
C4354 C4356 1.327 . S
C4354 H4379 0.950 . S
C4355 C4354 1.349 . S
C4355 C4371 1.349 . S
C4356 C4354 1.327 . S
C4356 C4375 1.429 . S
C4356 H4380 0.950 . S
C4357 C4374 1.574 . S
C4357 C4376 1.368 . S
C4357 H4381 0.949 . S
H4358 C4362 0.949 . S
C4359 C4360 1.349 . S
C4359 C4361 1.327 . S
C4359 H4382 0.950 . S
C4360 C4359 1.349 . S
C4360 C4372 1.349 . S
C4361 C4359 1.327 . S
C4361 C4377 1.429 . S
C4361 H4383 0.950 . S
C4362 H4358 0.949 . S
C4362 C4370 1.574 . S
C4362 C4378 1.368 . S
H4363 C4371 0.950 . S
H4364 C4369 0.950 . S
H4365 C4370 0.949 . S
H4366 C4372 0.950 . S
H4367 C4373 0.950 . S
H4368 C4374 0.949 . S
C4369 H4364 0.950 . S
C4369 C4371 1.327 . S
C4369 C4375 1.429 . S
C4370 C4362 1.574 . S
C4370 H4365 0.949 . S
C4370 C4376 1.368 . S
C4371 C4355 1.349 . S
C4371 H4363 0.950 . S
C4371 C4369 1.327 . S
C4372 C4360 1.349 . S
C4372 H4366 0.950 . S
C4372 C4373 1.327 . S
C4373 H4367 0.950 . S
C4373 C4372 1.327 . S
C4373 C4377 1.429 . S
C4374 C4357 1.574 . S
C4374 H4368 0.949 . S
C4374 C4378 1.368 . S
C4375 C4356 1.429 . S
C4375 C4369 1.429 . S
C4375 C4376 1.523 . S
C4376 C4357 1.368 . S
C4376 C4370 1.368 . S
C4376 C4375 1.523 . S
C4377 C4361 1.429 . S
C4377 C4373 1.429 . S
C4377 C4378 1.523 . S
C4378 C4362 1.368 . S
C4378 C4374 1.368 . S
C4378 C4377 1.523 . S
H4379 C4354 0.950 . S
H4380 C4356 0.950 . S
H4381 C4357 0.949 . S
H4382 C4359 0.950 . S
H4383 C4361 0.950 . S
C1505 C255 2.200 . S
C1510 C874 2.145 . S
C1535 C147 2.022 . S
C1540 C922 2.011 . S
C1565 C184 1.092 . S
C1570 C954 1.091 . S
C1600 C999 1.556 . S
C1595 C220 1.574 . S
C1625 C40 0.835 . S
C1630 C1039 0.834 . S
C1660 C1074 0.868 . S
C1655 C74 0.866 . S
C1690 C1113 1.158 . S
C1685 C110 1.171 . S
C1715 C14 1.153 . S
C1720 C1150 1.159 . S
C1750 C882 1.995 . S
C1745 C579 2.006 . S
C1775 C616 0.429 . S
C1780 C919 0.448 . S
C1810 C962 2.478 . S
C1805 C687 2.504 . S
C1840 C994 1.035 . S
C1835 C436 1.036 . S
C1865 C580 1.137 . S
C1870 C1034 1.134 . S
C1900 C1082 0.508 . S
C1895 C615 0.485 . S
C1930 C1123 1.875 . S
C1925 C688 1.955 . S
C1960 C1153 1.926 . S
C1955 C435 1.944 . S
C1990 C879 1.069 . S
C1985 C410 1.075 . S
C2015 C722 2.259 . S
C2020 C1202 2.239 . S
C2050 C1239 1.220 . S
C2045 C842 1.201 . S
C2080 C1270 0.367 . S
C2075 C794 0.277 . S
C2105 C302 2.782 . S
C2110 C1163 2.809 . S
C2135 C338 1.417 . S
C2140 C959 1.429 . S
C2165 C830 1.869 . S
C2170 C1322 1.855 . S
C2200 C1354 1.789 . S
C2195 C758 1.784 . S
C2230 C883 2.124 . S
C2225 C158 2.102 . S
C2260 C1353 1.986 . S
C2255 C254 1.990 . S
C2285 C218 1.062 . S
C2290 C963 1.061 . S
C2315 C194 1.477 . S
C2320 C1310 1.523 . S
C2350 C1030 0.817 1_655 S
C2345 C3 0.819 . S
C2375 C111 0.677 . S
C2380 C1243 0.681 . S
C2410 C1122 1.134 . S
C2405 C76 1.147 . S
C2440 C1399 1.205 . S
C2435 C50 1.157 . S
C2470 C873 1.947 . S
C2465 C364 1.958 . S
C2500 C1350 0.505 . S
C2495 C795 0.302 . S
C2525 C292 2.424 . S
C2530 C953 2.414 . S
C2555 C723 0.952 . S
C2560 C1323 0.942 . S
C2585 C363 1.089 . S
C2590 C1043 1.074 . S
C2620 C1233 0.464 . S
C2615 C796 0.474 . S
C2645 C291 1.908 . S
C2650 C1114 1.843 . S
C2675 C724 1.944 . S
C2680 C1402 1.929 . S
C2705 C482 1.046 . S
C2710 C870 1.108 . S
C2735 C434 2.212 . S
C2740 C1193 2.193 . S
C2765 C662 1.132 . S
C2770 C1070 1.186 . S
C2795 C614 0.259 . S
C2800 C1279 0.360 . S
C2830 C1394 2.808 . S
C2825 C698 2.800 . S
C2855 C554 1.358 . S
C2860 C950 1.410 . S
C2890 C993 1.796 . S
C2885 C650 1.803 . S
C2920 C923 1.730 . S
C2915 C506 1.742 . S
C2945 C183 2.200 . S
C2950 C1434 2.146 . S
C2980 C1362 2.009 . S
C2975 C219 2.020 . S
C3005 C256 1.088 . S
C3010 C1474 1.087 . S
C3035 C148 1.569 1_655 S
C3040 C1319 1.551 . S
C3065 C122 0.870 . S
C3070 C1199 0.886 . S
C3100 C1234 0.753 . S
C3095 C2 0.753 . S
C3130 C1273 1.041 . S
C3125 C39 1.045 . S
C3160 C1390 1.221 . S
C3155 C86 1.214 . S
C3190 C1442 2.013 . S
C3185 C651 2.022 . S
C3215 C472 0.435 . S
C3220 C1359 0.451 . S
C3250 C1482 2.465 . S
C3245 C507 2.492 . S
C3280 C1314 1.042 . S
C3275 C544 1.044 . S
C3310 C1194 1.130 . S
C3305 C652 1.133 . S
C3335 C471 0.453 . S
C3340 C1242 0.479 . S
C3370 C1283 1.870 . S
C3365 C508 1.946 . S
C3395 C543 1.968 . S
C3400 C1393 1.947 . S
C3430 C1439 1.099 . S
C3425 C806 1.108 . S
C3455 C326 2.235 . S
C3460 C1042 2.215 . S
C3490 C1079 1.191 . S
C3485 C374 1.175 . S
C3520 C1110 0.401 . S
C3515 C398 0.317 . S
C3550 C1403 2.821 . S
C3545 C770 2.790 . S
C3575 C734 1.407 . S
C3580 C1479 1.419 . S
C3610 C1002 1.844 . S
C3605 C362 1.857 . S
C3640 C914 1.809 . S
C3635 C290 1.806 . S
C3665 C230 2.102 . S
C3670 C1443 2.124 . S
C3700 C913 1.996 . S
C3695 C182 1.999 . S
C3725 C146 1.062 . S
C3730 C1483 1.062 . S
C3755 C266 1.478 . S
C3760 C990 1.524 . S
C3785 C75 0.877 . S
C3790 C1190 0.876 . S
C3820 C1083 0.801 . S
C3815 C38 0.801 . S
C3845 C4 1.057 . S
C3850 C1282 1.047 . S
C3875 C112 1.128 . S
C3880 C1159 1.124 . S
C3910 C1433 1.952 . S
C3905 C832 1.963 . S
C3935 C399 0.289 . S
C3940 C910 0.500 . S
C3970 C1473 2.411 . S
C3965 C760 2.421 . S
C3995 C327 0.945 . S
C4000 C1003 0.935 . S
C4025 C831 1.116 . S
C4030 C1203 1.101 . S
C4060 C1073 0.454 . S
C4055 C400 0.468 . S
C4085 C759 1.908 . S
C4090 C1274 1.836 . S
C4120 C1162 1.932 . S
C4115 C328 1.948 . S
C4150 C1430 1.119 . S
C4145 C626 1.054 . S
C4180 C1033 2.193 1_565 S
C4175 C542 2.212 . S
C4205 C590 1.104 . S
C4210 C1230 1.155 . S
C4240 C1119 0.334 . S
C4235 C470 0.234 . S
C4265 C518 2.785 . S
C4270 C1154 2.793 . S
C4295 C446 1.351 . S
C4300 C1470 1.403 . S
C4330 C1313 1.811 . S
C4325 C578 1.817 . S
C4360 C1363 1.704 . S
C4355 C686 1.716 . S
