# Generated by pormake.
# Topology ocu, (6,8)-cn, num edge types: 1
# Building blocks:
#     Node 0, Type 0, BuildingBlock: BETDEL_clean_sbu_0, # of connection points: 6
#     Node 1, Type 0, BuildingBlock: BETDEL_clean_sbu_0, # of connection points: 6
#     Node 2, Type 0, BuildingBlock: BETDEL_clean_sbu_0, # of connection points: 6
#     Node 3, Type 0, BuildingBlock: BETDEL_clean_sbu_0, # of connection points: 6
#     Node 4, Type 0, BuildingBlock: BETDEL_clean_sbu_0, # of connection points: 6
#     Node 5, Type 0, BuildingBlock: BETDEL_clean_sbu_0, # of connection points: 6
#     Node 6, Type 0, BuildingBlock: BETDEL_clean_sbu_0, # of connection points: 6
#     Node 7, Type 0, BuildingBlock: BETDEL_clean_sbu_0, # of connection points: 6
#     Node 8, Type 1, BuildingBlock: GIZVER_clean_sbu_0, # of connection points: 8
#     Node 9, Type 1, BuildingBlock: GIZVER_clean_sbu_0, # of connection points: 8
#     Node 10, Type 1, BuildingBlock: GIZVER_clean_sbu_0, # of connection points: 8
#     Node 11, Type 1, BuildingBlock: GIZVER_clean_sbu_0, # of connection points: 8
#     Node 12, Type 1, BuildingBlock: GIZVER_clean_sbu_0, # of connection points: 8
#     Node 13, Type 1, BuildingBlock: GIZVER_clean_sbu_0, # of connection points: 8
#     Edge 14, Type (0, 1), BuildingBlock: UVAHIK_clean_linker_0, # of connection points: 2
#     Edge 15, Type (0, 1), BuildingBlock: UVAHIK_clean_linker_0, # of connection points: 2
#     Edge 16, Type (0, 1), BuildingBlock: UVAHIK_clean_linker_0, # of connection points: 2
#     Edge 17, Type (0, 1), BuildingBlock: UVAHIK_clean_linker_0, # of connection points: 2
#     Edge 18, Type (0, 1), BuildingBlock: UVAHIK_clean_linker_0, # of connection points: 2
#     Edge 19, Type (0, 1), BuildingBlock: UVAHIK_clean_linker_0, # of connection points: 2
#     Edge 20, Type (0, 1), BuildingBlock: UVAHIK_clean_linker_0, # of connection points: 2
#     Edge 21, Type (0, 1), BuildingBlock: UVAHIK_clean_linker_0, # of connection points: 2
#     Edge 22, Type (0, 1), BuildingBlock: UVAHIK_clean_linker_0, # of connection points: 2
#     Edge 23, Type (0, 1), BuildingBlock: UVAHIK_clean_linker_0, # of connection points: 2
#     Edge 24, Type (0, 1), BuildingBlock: UVAHIK_clean_linker_0, # of connection points: 2
#     Edge 25, Type (0, 1), BuildingBlock: UVAHIK_clean_linker_0, # of connection points: 2
#     Edge 26, Type (0, 1), BuildingBlock: UVAHIK_clean_linker_0, # of connection points: 2
#     Edge 27, Type (0, 1), BuildingBlock: UVAHIK_clean_linker_0, # of connection points: 2
#     Edge 28, Type (0, 1), BuildingBlock: UVAHIK_clean_linker_0, # of connection points: 2
#     Edge 29, Type (0, 1), BuildingBlock: UVAHIK_clean_linker_0, # of connection points: 2
#     Edge 30, Type (0, 1), BuildingBlock: UVAHIK_clean_linker_0, # of connection points: 2
#     Edge 31, Type (0, 1), BuildingBlock: UVAHIK_clean_linker_0, # of connection points: 2
#     Edge 32, Type (0, 1), BuildingBlock: UVAHIK_clean_linker_0, # of connection points: 2
#     Edge 33, Type (0, 1), BuildingBlock: UVAHIK_clean_linker_0, # of connection points: 2
#     Edge 34, Type (0, 1), BuildingBlock: UVAHIK_clean_linker_0, # of connection points: 2
#     Edge 35, Type (0, 1), BuildingBlock: UVAHIK_clean_linker_0, # of connection points: 2
#     Edge 36, Type (0, 1), BuildingBlock: UVAHIK_clean_linker_0, # of connection points: 2
#     Edge 37, Type (0, 1), BuildingBlock: UVAHIK_clean_linker_0, # of connection points: 2
#     Edge 38, Type (0, 1), BuildingBlock: UVAHIK_clean_linker_0, # of connection points: 2
#     Edge 39, Type (0, 1), BuildingBlock: UVAHIK_clean_linker_0, # of connection points: 2
#     Edge 40, Type (0, 1), BuildingBlock: UVAHIK_clean_linker_0, # of connection points: 2
#     Edge 41, Type (0, 1), BuildingBlock: UVAHIK_clean_linker_0, # of connection points: 2
#     Edge 42, Type (0, 1), BuildingBlock: UVAHIK_clean_linker_0, # of connection points: 2
#     Edge 43, Type (0, 1), BuildingBlock: UVAHIK_clean_linker_0, # of connection points: 2
#     Edge 44, Type (0, 1), BuildingBlock: UVAHIK_clean_linker_0, # of connection points: 2
#     Edge 45, Type (0, 1), BuildingBlock: UVAHIK_clean_linker_0, # of connection points: 2
#     Edge 46, Type (0, 1), BuildingBlock: UVAHIK_clean_linker_0, # of connection points: 2
#     Edge 47, Type (0, 1), BuildingBlock: UVAHIK_clean_linker_0, # of connection points: 2
#     Edge 48, Type (0, 1), BuildingBlock: UVAHIK_clean_linker_0, # of connection points: 2
#     Edge 49, Type (0, 1), BuildingBlock: UVAHIK_clean_linker_0, # of connection points: 2
#     Edge 50, Type (0, 1), BuildingBlock: UVAHIK_clean_linker_0, # of connection points: 2
#     Edge 51, Type (0, 1), BuildingBlock: UVAHIK_clean_linker_0, # of connection points: 2
#     Edge 52, Type (0, 1), BuildingBlock: UVAHIK_clean_linker_0, # of connection points: 2
#     Edge 53, Type (0, 1), BuildingBlock: UVAHIK_clean_linker_0, # of connection points: 2
#     Edge 54, Type (0, 1), BuildingBlock: UVAHIK_clean_linker_0, # of connection points: 2
#     Edge 55, Type (0, 1), BuildingBlock: UVAHIK_clean_linker_0, # of connection points: 2
#     Edge 56, Type (0, 1), BuildingBlock: UVAHIK_clean_linker_0, # of connection points: 2
#     Edge 57, Type (0, 1), BuildingBlock: UVAHIK_clean_linker_0, # of connection points: 2
#     Edge 58, Type (0, 1), BuildingBlock: UVAHIK_clean_linker_0, # of connection points: 2
#     Edge 59, Type (0, 1), BuildingBlock: UVAHIK_clean_linker_0, # of connection points: 2
#     Edge 60, Type (0, 1), BuildingBlock: UVAHIK_clean_linker_0, # of connection points: 2
#     Edge 61, Type (0, 1), BuildingBlock: UVAHIK_clean_linker_0, # of connection points: 2
# Relax obj value: 0.135
# Max RMSD: 0.281
# Mean RMSD: 0.185
data_MOF--net-ocu--node1-BETDEL_clean_sbu_0--node2-GIZVER_clean_sbu_0--edge1-UVAHIK_clean_linker_0
_symmetry_space_group_name_H-M    P1
_symmetry_Int_Tables_number       1
_symmetry_cell_setting            triclinic
loop_
_symmetry_equiv_pos_as_xyz
'x, y, z'
_cell_length_a     51.47829
_cell_length_b     54.577418
_cell_length_c     37.656835
_cell_angle_alpha  90.9611
_cell_angle_beta   91.667892
_cell_angle_gamma 103.01076
loop_
_atom_site_label
_atom_site_type_symbol
_atom_site_fract_x
_atom_site_fract_y
_atom_site_fract_z
_atom_type_partial_charge
Dy0 Dy 0.27474 0.25106 0.28436 0.0
C1 C 0.2322 0.28479 0.15786 0.0
C2 C 0.2922 0.2286 0.34174 0.0
Dy3 Dy 0.2482 0.2603 0.21426 0.0
O4 O 0.30185 0.25158 0.33249 0.0
O5 O 0.2728 0.21802 0.31987 0.0
O6 O 0.30074 0.29006 0.28427 0.0
O7 O 0.2888 0.27045 0.23598 0.0
C8 C 0.30069 0.29131 0.24983 0.0
C9 C 0.2225 0.21995 0.24878 0.0
O10 O 0.27564 0.23746 0.19194 0.0
O11 O 0.28838 0.22374 0.24644 0.0
O12 O 0.2193 0.26321 0.16914 0.0
O13 O 0.25395 0.29261 0.17698 0.0
O14 O 0.22237 0.22115 0.21427 0.0
O15 O 0.23423 0.24087 0.26258 0.0
O16 O 0.24604 0.2727 0.30649 0.0
O17 O 0.2351 0.2878 0.2522 0.0
C18 C 0.28802 0.22292 0.211 0.0
C19 C 0.23444 0.28788 0.28754 0.0
Dy20 Dy 0.78192 0.24459 0.26555 0.0
C21 C 0.71738 0.29479 0.18239 0.0
C22 C 0.81307 0.22412 0.3099 0.0
Dy23 Dy 0.74523 0.27578 0.23275 0.0
O24 O 0.8136 0.22331 0.27547 0.0
O25 O 0.79526 0.2359 0.3203 0.0
O26 O 0.77672 0.21938 0.21618 0.0
O27 O 0.74646 0.23648 0.23138 0.0
C28 C 0.75368 0.22376 0.20714 0.0
C29 C 0.77091 0.29499 0.29308 0.0
O30 O 0.71507 0.25014 0.26433 0.0
O31 O 0.74559 0.23457 0.29911 0.0
O32 O 0.7246 0.30533 0.21343 0.0
O33 O 0.72488 0.27379 0.1792 0.0
O34 O 0.74772 0.2989 0.28332 0.0
O35 O 0.77993 0.2837 0.26855 0.0
O36 O 0.812 0.27363 0.23836 0.0
O37 O 0.78192 0.28651 0.20032 0.0
C38 C 0.72089 0.23706 0.29167 0.0
C39 C 0.80673 0.28606 0.21013 0.0
Dy40 Dy 0.75087 0.76396 0.2849 0.0
C41 C 0.78832 0.72295 0.15964 0.0
C42 C 0.73396 0.78913 0.3399 0.0
Dy43 Dy 0.77436 0.75056 0.21401 0.0
O44 O 0.72431 0.76571 0.33083 0.0
O45 O 0.75337 0.79864 0.31941 0.0
O46 O 0.72457 0.72491 0.28461 0.0
O47 O 0.73542 0.74295 0.2367 0.0
C48 C 0.72388 0.72269 0.25016 0.0
C49 C 0.80189 0.79181 0.24834 0.0
O50 O 0.74519 0.77175 0.19121 0.0
O51 O 0.73733 0.78998 0.24504 0.0
O52 O 0.79924 0.74643 0.16705 0.0
O53 O 0.76934 0.71481 0.18139 0.0
O54 O 0.8018 0.78898 0.21394 0.0
O55 O 0.78985 0.77177 0.26206 0.0
O56 O 0.78069 0.74334 0.30781 0.0
O57 O 0.78904 0.72545 0.25399 0.0
C58 C 0.73513 0.78826 0.20963 0.0
C59 C 0.79132 0.72719 0.28937 0.0
Dy60 Dy 0.27887 0.74034 0.23669 0.0
C61 C 0.23137 0.81434 0.30028 0.0
C62 C 0.29746 0.70705 0.1959 0.0
Dy63 Dy 0.24678 0.77955 0.25883 0.0
O64 O 0.30264 0.71084 0.22984 0.0
O65 O 0.28238 0.72153 0.18439 0.0
O66 O 0.30338 0.74765 0.28832 0.0
O67 O 0.28756 0.77592 0.26535 0.0
C68 C 0.29942 0.77026 0.29251 0.0
C69 C 0.22696 0.75085 0.20187 0.0
O70 O 0.27657 0.80361 0.22503 0.0
O71 O 0.29437 0.77202 0.19975 0.0
O72 O 0.22307 0.80889 0.2675 0.0
O73 O 0.24737 0.80037 0.31048 0.0
O74 O 0.22289 0.77335 0.20701 0.0
O75 O 0.23824 0.74437 0.22905 0.0
O76 O 0.24733 0.71594 0.26791 0.0
O77 O 0.2299 0.7473 0.29443 0.0
C78 C 0.2918 0.7957 0.20165 0.0
C79 C 0.23166 0.72342 0.29118 0.0
Dy80 Dy 0.29094 0.73493 0.75888 0.0
C81 C 0.21772 0.79018 0.70237 0.0
C82 C 0.32437 0.71786 0.80375 0.0
Dy83 Dy 0.25115 0.76555 0.73597 0.0
O84 O 0.32293 0.71384 0.7695 0.0
O85 O 0.30735 0.73073 0.81333 0.0
O86 O 0.28647 0.71354 0.70666 0.0
O87 O 0.25455 0.72714 0.72611 0.0
C88 C 0.26272 0.71718 0.69952 0.0
C89 C 0.28038 0.78207 0.7954 0.0
O90 O 0.22317 0.73485 0.763 0.0
O91 O 0.25561 0.71832 0.79175 0.0
O92 O 0.22689 0.79462 0.73481 0.0
O93 O 0.22671 0.77208 0.68798 0.0
O94 O 0.25578 0.78381 0.79079 0.0
O95 O 0.28807 0.77337 0.76756 0.0
O96 O 0.31798 0.76477 0.7295 0.0
O97 O 0.2849 0.77956 0.69938 0.0
C98 C 0.23035 0.71968 0.78663 0.0
C99 C 0.31026 0.77847 0.70433 0.0
Dy100 Dy 0.25653 0.26469 0.78184 0.0
C101 C 0.28393 0.21465 0.65326 0.0
C102 C 0.24848 0.29262 0.83977 0.0
Dy103 Dy 0.27407 0.24166 0.71126 0.0
O104 O 0.24307 0.26815 0.83784 0.0
O105 O 0.25895 0.30166 0.81048 0.0
O106 O 0.21377 0.24466 0.77175 0.0
O107 O 0.24435 0.22964 0.75096 0.0
C108 C 0.21952 0.22796 0.75035 0.0
C109 C 0.31085 0.27835 0.74353 0.0
O110 O 0.24418 0.26297 0.68918 0.0
O111 O 0.24167 0.28745 0.73985 0.0
O112 O 0.29155 0.23894 0.65746 0.0
O113 O 0.27016 0.20534 0.68017 0.0
O114 O 0.31684 0.26132 0.72297 0.0
O115 O 0.28607 0.2767 0.74211 0.0
O116 O 0.28666 0.24364 0.80346 0.0
O117 O 0.28749 0.218 0.75351 0.0
C118 C 0.23598 0.28162 0.70563 0.0
C119 C 0.29369 0.2242 0.78754 0.0
Dy120 Dy 0.78434 0.23024 0.73734 0.0
C121 C 0.73343 0.29722 0.81398 0.0
C122 C 0.7978 0.19919 0.68791 0.0
Dy123 Dy 0.7519 0.26688 0.768 0.0
O124 O 0.80638 0.20096 0.72096 0.0
O125 O 0.78256 0.21473 0.68192 0.0
O126 O 0.81294 0.23681 0.78505 0.0
O127 O 0.79334 0.26457 0.76871 0.0
C128 C 0.80774 0.25853 0.79303 0.0
C129 C 0.72983 0.23869 0.71149 0.0
O130 O 0.77808 0.2935 0.73275 0.0
O131 O 0.79681 0.26418 0.70301 0.0
O132 O 0.72039 0.28647 0.78568 0.0
O133 O 0.75652 0.29156 0.81696 0.0
O134 O 0.72584 0.2611 0.7177 0.0
O135 O 0.74301 0.23237 0.73693 0.0
O136 O 0.7573 0.20398 0.77195 0.0
O137 O 0.74195 0.23405 0.80468 0.0
C138 C 0.79317 0.28741 0.70754 0.0
C139 C 0.74416 0.21052 0.79896 0.0
Dy140 Dy 0.77839 0.74877 0.78417 0.0
C141 C 0.73099 0.77971 0.65886 0.0
C142 C 0.79671 0.72475 0.83944 0.0
Dy143 Dy 0.75008 0.75684 0.7148 0.0
O144 O 0.8089 0.74634 0.82739 0.0
O145 O 0.77423 0.71675 0.82191 0.0
O146 O 0.80331 0.78818 0.78339 0.0
O147 O 0.79099 0.76823 0.73527 0.0
C148 C 0.80259 0.78932 0.74886 0.0
C149 C 0.72651 0.71625 0.75057 0.0
O150 O 0.77814 0.73507 0.69139 0.0
O151 O 0.79139 0.72154 0.74568 0.0
O152 O 0.71914 0.75824 0.67159 0.0
O153 O 0.75343 0.78829 0.67622 0.0
O154 O 0.72616 0.71691 0.71602 0.0
O155 O 0.73755 0.73758 0.76369 0.0
O156 O 0.75087 0.77108 0.80748 0.0
O157 O 0.7373 0.78437 0.75316 0.0
C158 C 0.79092 0.72078 0.71027 0.0
C159 C 0.73809 0.78537 0.78859 0.0
Co160 Co 0.05102 0.9657 0.49236 0.0
Co161 Co 0.04551 0.98523 0.55521 0.0
Co162 Co 1.01162 0.00698 0.49981 0.0
O163 O 0.04523 0.99682 0.50934 0.0
H164 H 0.06052 0.01055 0.50659 0.0
O165 O 0.97807 0.0172 0.4898 0.0
Co166 Co 0.9731 0.04915 0.50411 0.0
Co167 Co 0.97824 0.02695 0.44199 0.0
H168 H 0.96262 1.00382 0.49359 0.0
O169 O 0.07626 0.98136 0.57899 0.0
O170 O 0.04936 0.95354 0.54166 0.0
O171 O 1.01314 0.98142 0.58094 0.0
O172 O 0.9894 0.98011 0.53057 0.0
O173 O 0.02041 0.03024 0.5415 0.0
O174 O 0.96417 0.07754 0.51629 0.0
O175 O 0.93759 0.04053 0.4978 0.0
O176 O 1.01005 0.06237 0.51435 0.0
O177 O 0.03362 0.03374 0.46893 0.0
O178 O 1.01101 0.02886 0.41733 0.0
O179 O 0.97791 0.05972 0.45457 0.0
O180 O 0.94868 0.03469 0.41721 0.0
C181 C 0.08412 0.95279 0.48277 0.0
C182 C 0.99968 0.96022 0.46181 0.0
C183 C 0.99108 0.97531 0.56363 0.0
C184 C 0.06932 0.95898 0.56452 0.0
C185 C 0.94041 0.06373 0.509 0.0
C186 C 0.02318 0.05378 0.53835 0.0
C187 C 0.03263 0.0366 0.43526 0.0
C188 C 0.95811 0.0567 0.43181 0.0
O189 O 0.0605 0.93833 0.47708 0.0
O190 O 0.08667 0.9755 0.49581 0.0
O191 O 1.0029 0.98375 0.45837 0.0
O192 O 1.01382 0.9514 0.48439 0.0
Co193 Co 0.54751 0.95646 0.98191 0.0
Co194 Co 0.55459 0.978 0.04294 0.0
Co195 Co 0.51453 0.00589 0.99751 0.0
O196 O 0.54723 0.99042 -0.00072 0.0
H197 H 0.5629 1.00238 0.99196 0.0
O198 O 0.48179 0.02151 0.9957 0.0
Co199 Co 0.48088 0.05496 0.01543 0.0
Co200 Co 0.47563 0.03603 0.95301 0.0
H201 H 0.46592 0.00924 0.0016 0.0
O202 O 0.58871 0.97745 0.05844 0.0
O203 O 0.55887 0.94599 0.03014 0.0
O204 O 0.52686 0.97462 0.07617 0.0
O205 O 0.49816 0.98927 0.04146 0.0
O206 O 0.53544 0.03514 0.02608 0.0
O207 O 0.47744 0.08415 0.03525 0.0
O208 O 0.44563 0.04865 0.02842 0.0
O209 O 0.51785 0.06643 0.00616 0.0
O210 O 0.53098 0.0224 0.95355 0.0
O211 O 0.50423 0.04078 0.92084 0.0
O212 O 0.4704 0.06723 0.96791 0.0
O213 O 0.44169 0.03658 0.93657 0.0
C214 C 0.57489 0.93829 0.95836 0.0
C215 C 0.49141 0.95341 0.97756 0.0
C216 C 0.50394 0.97879 0.06981 0.0
C217 C 0.58151 0.95398 0.04812 0.0
C218 C 0.45289 0.07219 0.03955 0.0
C219 C 0.53738 0.05833 0.01936 0.0
C220 C 0.5263 0.03461 0.92634 0.0
C221 C 0.44819 0.05962 0.94888 0.0
O222 O 0.55046 0.92653 0.96397 0.0
O223 O 0.58239 0.96211 0.9679 0.0
O224 O 0.49377 0.97638 0.96903 0.0
O225 O 0.5106 0.94573 0.99259 0.0
Co226 Co 0.05051 0.4584 0.99306 0.0
Co227 Co 0.05898 0.48666 0.05164 0.0
Co228 Co 0.01692 0.50546 0.00049 0.0
O229 O 0.05023 0.49275 0.00446 0.0
H230 H 0.06514 0.5043 0.99448 0.0
O231 O 0.98353 0.51804 0.99642 0.0
Co232 Co 0.98269 0.55207 0.00839 0.0
Co233 Co 0.97478 0.52454 0.94945 0.0
H234 H 0.96865 0.50629 0.00607 0.0
O235 O 0.09359 0.48453 0.06571 0.0
O236 O 0.06064 0.45357 0.04307 0.0
O237 O 0.03155 0.48524 0.0855 0.0
O238 O 1.00068 0.48795 0.04395 0.0
O239 O 0.03547 0.53556 0.02957 0.0
O240 O 0.97845 0.58249 0.0205 0.0
O241 O 0.948 0.5457 0.02 0.0
O242 O 0.01937 0.56332 0.99879 0.0
O243 O 0.03316 0.52284 0.957 0.0
O244 O 1.00232 0.52627 0.91572 0.0
O245 O 0.97285 0.5575 0.95846 0.0
O246 O 0.94013 0.52659 0.93524 0.0
C247 C 0.07846 0.43966 0.97615 0.0
C248 C 0.9962 0.45306 0.98197 0.0
C249 C 1.00735 0.48279 0.07542 0.0
C250 C 0.08473 0.46104 0.05651 0.0
C251 C 0.95418 0.57005 0.0255 0.0
C252 C 0.03759 0.55789 0.01865 0.0
C253 C 0.02647 0.52815 0.92561 0.0
C254 C 0.9489 0.55006 0.94458 0.0
O255 O 0.05409 0.42773 0.98166 0.0
O256 O 0.08517 0.46407 0.98095 0.0
O257 O 0.99845 0.47546 0.97136 0.0
O258 O 1.01381 0.4477 0.00297 0.0
Co259 Co 0.54925 0.45564 0.98989 0.0
Co260 Co 0.54861 0.47676 0.0539 0.0
Co261 Co 0.51595 0.5013 0.00033 0.0
O262 O 0.54806 0.48801 0.00717 0.0
H263 H 0.56421 0.50045 0.00306 0.0
O264 O 0.48407 0.51495 0.99414 0.0
Co265 Co 0.48355 0.54754 0.01214 0.0
Co266 Co 0.48261 0.52653 0.94791 0.0
H267 H 0.46787 0.50265 0.99859 0.0
O268 O 0.57869 0.46875 0.07547 0.0
O269 O 0.54784 0.44409 0.03939 0.0
O270 O 0.51739 0.47586 0.08139 0.0
O271 O 0.49297 0.47568 0.03186 0.0
O272 O 0.52847 0.52358 0.04222 0.0
O273 O 0.47866 0.57682 0.02832 0.0
O274 O 0.44793 0.54189 0.01139 0.0
O275 O 0.52146 0.55766 0.01697 0.0
O276 O 0.5389 0.5269 0.96839 0.0
O277 O 0.51338 0.5275 0.92001 0.0
O278 O 0.485 0.55932 0.96311 0.0
O279 O 0.45262 0.53609 0.9278 0.0
C280 C 0.57908 0.43836 0.97832 0.0
C281 C 0.49939 0.45492 0.96111 0.0
C282 C 0.49494 0.47103 0.06491 0.0
C283 C 0.56894 0.44705 0.06008 0.0
C284 C 0.4538 0.56491 0.02406 0.0
C285 C 0.53415 0.54725 0.0394 0.0
C286 C 0.53616 0.53237 0.93569 0.0
C287 C 0.4638 0.55751 0.94306 0.0
O288 O 0.55421 0.42652 0.97401 0.0
O289 O 0.58499 0.46143 0.99086 0.0
O290 O 0.5033 0.47864 0.95857 0.0
O291 O 0.51173 0.44551 0.9851 0.0
Co292 Co 0.06479 0.47196 0.51292 0.0
Co293 Co 0.04284 0.46868 0.45111 0.0
Co294 Co 1.01366 0.50516 0.49936 0.0
O295 O 0.02913 0.47384 0.49506 0.0
H296 H 0.01604 0.45893 0.50102 0.0
O297 O 0.99822 0.53651 0.5034 0.0
Co298 Co 0.96259 0.53805 0.48508 0.0
Co299 Co 0.98444 0.54203 0.54698 0.0
H300 H 1.01128 0.55139 0.49732 0.0
O301 O 0.04273 0.43673 0.43354 0.0
O302 O 0.07617 0.46296 0.46431 0.0
O303 O 0.04788 0.4968 0.42035 0.0
O304 O 0.03167 0.52213 0.45655 0.0
O305 O 0.98216 0.48745 0.46976 0.0
O306 O 0.93149 0.54189 0.46639 0.0
O307 O 0.96963 0.57138 0.47267 0.0
O308 O 0.95014 0.50312 0.49395 0.0
O309 O 0.99543 0.48823 0.54219 0.0
O310 O 0.97925 0.51401 0.57776 0.0
O311 O 0.95103 0.54756 0.53331 0.0
O312 O 0.98428 0.57406 0.56403 0.0
C313 C 0.08291 0.44462 0.53471 0.0
C314 C 0.06947 0.52501 0.52049 0.0
C315 C 0.04333 0.51811 0.42822 0.0
C316 C 0.06739 0.4422 0.44535 0.0
C317 C 0.9445 0.56493 0.46197 0.0
C318 C 0.95803 0.4851 0.47885 0.0
C319 C 0.98353 0.49254 0.57022 0.0
C320 C 0.95967 0.56843 0.55207 0.0
O321 O 0.09595 0.46775 0.53102 0.0
O322 O 0.0577 0.43844 0.52441 0.0
O323 O 0.04522 0.52286 0.529 0.0
O324 O 0.07728 0.50708 0.50494 0.0
Co325 Co 0.5678 0.97994 0.50294 0.0
Co326 Co 0.54311 0.9772 0.44105 0.0
Co327 Co 0.51471 0.00781 0.49609 0.0
O328 O 0.53198 0.97938 0.48716 0.0
H329 H 0.52012 0.96355 0.49249 0.0
O330 O 0.49732 0.03617 0.50523 0.0
Co331 Co 0.46139 0.03536 0.48983 0.0
Co332 Co 0.48676 0.03889 0.5518 0.0
H333 H 0.50905 0.05196 0.4995 0.0
O334 O 0.5458 0.9464 0.42203 0.0
O335 O 0.57734 0.97456 0.45312 0.0
O336 O 0.54484 0.00617 0.41265 0.0
O337 O 0.53171 0.02876 0.4557 0.0
O338 O 0.48461 0.99016 0.46406 0.0
O339 O 0.42909 0.03846 0.47504 0.0
O340 O 0.46662 0.06866 0.484 0.0
O341 O 0.45127 0.99958 0.49312 0.0
O342 O 0.49768 0.98704 0.53649 0.0
O343 O 0.48637 0.01017 0.58044 0.0
O344 O 0.45171 0.03918 0.53983 0.0
O345 O 0.48099 0.06924 0.57068 0.0
C346 C 0.58781 0.95336 0.51921 0.0
C347 C 0.56895 0.0309 0.51802 0.0
C348 C 0.54115 0.02685 0.425 0.0
C349 C 0.56984 0.95311 0.43582 0.0
C350 C 0.4413 0.06213 0.47507 0.0
C351 C 0.46062 0.98435 0.47401 0.0
C352 C 0.48921 0.98928 0.56769 0.0
C353 C 0.45706 0.06051 0.55745 0.0
O354 O 0.59996 0.97699 0.51809 0.0
O355 O 0.56246 0.94661 0.51039 0.0
O356 O 0.54493 0.02532 0.52796 0.0
O357 O 0.57804 0.0157 0.49842 0.0
C358 C 0.19011 0.17826 0.25038 0.0
C359 C 0.20606 0.1992 0.26865 0.0
C360 C 0.17329 0.15934 0.26889 0.0
C361 C 0.1607 0.13161 0.35747 0.0
H362 H 0.08818 0.10936 0.31975 0.0
C363 C 0.07583 0.06935 0.43662 0.0
C364 C 0.05569 0.0522 0.41727 0.0
C365 C 0.09579 0.08607 0.41894 0.0
C366 C 0.10845 0.11495 0.33044 0.0
H367 H 0.21743 0.21647 0.32071 0.0
H368 H 0.18822 0.18327 0.35313 0.0
H369 H 0.12002 0.14036 0.28809 0.0
H370 H 0.04169 0.03817 0.3643 0.0
H371 H 0.07676 0.06652 0.33371 0.0
H372 H 0.14914 0.10603 0.39977 0.0
C373 C 0.18874 0.18145 0.32449 0.0
C374 C 0.12672 0.13284 0.31226 0.0
C375 C 0.2054 0.2005 0.30591 0.0
C376 C 0.05669 0.05135 0.38002 0.0
C377 C 0.07674 0.0678 0.36243 0.0
C378 C 0.14244 0.11349 0.37558 0.0
C379 C 0.17219 0.16082 0.30614 0.0
C380 C 0.15306 0.14142 0.32551 0.0
C381 C 0.09621 0.08584 0.38153 0.0
C382 C 0.11603 0.10489 0.36229 0.0
H383 H 0.19027 0.17668 0.22168 0.0
H384 H 0.16106 0.14354 0.254 0.0
H385 H 0.18091 0.13769 0.36824 0.0
H386 H 0.07558 0.07058 0.46534 0.0
H387 H 0.11028 0.09977 0.43461 0.0
C388 C 0.85163 0.20481 0.31899 0.0
C389 C 0.83026 0.2131 0.33336 0.0
C390 C 0.86745 0.19316 0.34035 0.0
C391 C 0.86364 0.15314 0.41514 0.0
H392 H 0.93939 0.16324 0.39933 0.0
C393 C 0.91797 0.07282 0.41427 0.0
C394 C 0.94454 0.07744 0.42695 0.0
C395 C 0.90464 0.09241 0.41299 0.0
C396 C 0.9184 0.16041 0.40485 0.0
H397 H 0.80875 0.21644 0.38118 0.0
H398 H 0.83639 0.19529 0.41883 0.0
H399 H 0.91577 0.19483 0.3804 0.0
H400 H 0.97808 0.10597 0.44824 0.0
H401 H 0.95484 0.14007 0.44587 0.0
H402 H 0.86618 0.11822 0.43855 0.0
C403 C 0.84092 0.19809 0.39108 0.0
C404 C 0.90488 0.17844 0.3938 0.0
C405 C 0.8252 0.21011 0.36965 0.0
C406 C 0.95761 0.10192 0.43807 0.0
C407 C 0.94433 0.12144 0.43682 0.0
C408 C 0.87723 0.13507 0.42636 0.0
C409 C 0.86206 0.18941 0.37645 0.0
C410 C 0.87718 0.17431 0.39715 0.0
C411 C 0.91773 0.1169 0.42422 0.0
C412 C 0.90446 0.13801 0.41967 0.0
H413 H 0.85593 0.20699 0.29107 0.0
H414 H 0.8833 0.1862 0.32824 0.0
H415 H 0.84226 0.14958 0.41808 0.0
H416 H 0.90737 0.05406 0.40592 0.0
H417 H 0.88428 0.08846 0.40248 0.0
C418 C 0.838 0.83098 0.25203 0.0
C419 C 0.81944 0.81239 0.26897 0.0
C420 C 0.85645 0.84891 0.27221 0.0
C421 C 0.90401 0.86791 0.32451 0.0
H422 H 0.88376 0.90538 0.40354 0.0
C423 C 0.97833 0.91805 0.43485 0.0
C424 C 0.97801 0.94341 0.441 0.0
C425 C 0.95833 0.90268 0.41347 0.0
C426 C 0.88962 0.89504 0.38149 0.0
H427 H 0.805 0.79825 0.31992 0.0
H428 H 0.83664 0.83003 0.35503 0.0
H429 H 0.84911 0.87868 0.36518 0.0
H430 H 0.95618 0.97244 0.43071 0.0
H431 H 0.92106 0.94542 0.39403 0.0
H432 H 0.94451 0.88385 0.34128 0.0
C433 C 0.83699 0.8307 0.3263 0.0
C434 C 0.86989 0.87982 0.35968 0.0
C435 C 0.8189 0.81256 0.30621 0.0
C436 C 0.95703 0.95298 0.42624 0.0
C437 C 0.93687 0.93754 0.40541 0.0
C438 C 0.92374 0.88283 0.34666 0.0
C439 C 0.85622 0.8487 0.30949 0.0
C440 C 0.87695 0.86612 0.33108 0.0
C441 C 0.93752 0.91237 0.39854 0.0
C442 C 0.91667 0.89644 0.37535 0.0
H443 H 0.8388 0.83117 0.22333 0.0
H444 H 0.8711 0.86274 0.25875 0.0
H445 H 0.90988 0.85727 0.30281 0.0
H446 H 0.9943 0.91025 0.4459 0.0
H447 H 0.95905 0.88322 0.40867 0.0
C448 C 0.23637 0.83931 0.35678 0.0
C449 C 0.22455 0.83407 0.32262 0.0
C450 C 0.22936 0.85745 0.3787 0.0
C451 C 0.19479 0.91001 0.37961 0.0
H452 H 0.17207 0.88509 0.47219 0.0
C453 C 0.10568 0.91714 0.47186 0.0
C454 C 0.10779 0.94317 0.47472 0.0
C455 C 0.12713 0.90777 0.46064 0.0
C456 C 0.17875 0.89248 0.44667 0.0
H457 H 0.19709 0.84412 0.28382 0.0
H458 H 0.18434 0.87555 0.32239 0.0
H459 H 0.19688 0.8618 0.43543 0.0
H460 H 0.1342 0.97989 0.46974 0.0
H461 H 0.17174 0.96336 0.44892 0.0
H462 H 0.17506 0.93981 0.39001 0.0
C463 C 0.19929 0.86593 0.3321 0.0
C464 C 0.19306 0.87926 0.4257 0.0
C465 C 0.20632 0.84778 0.31017 0.0
C466 C 0.13211 0.95972 0.46767 0.0
C467 C 0.15351 0.95032 0.45577 0.0
C468 C 0.18056 0.92331 0.40067 0.0
C469 C 0.21043 0.87064 0.36677 0.0
C470 C 0.20024 0.88735 0.39139 0.0
C471 C 0.15096 0.92427 0.45155 0.0
C472 C 0.17147 0.91403 0.43372 0.0
H473 H 0.25079 0.82917 0.36676 0.0
H474 H 0.2384 0.86088 0.40518 0.0
H475 H 0.20044 0.91682 0.35344 0.0
H476 H 0.08721 0.90396 0.47739 0.0
H477 H 0.12452 0.88761 0.4572 0.0
C478 C 0.18871 0.7971 0.65091 0.0
C479 C 0.20034 0.80438 0.68471 0.0
C480 C 0.17216 0.81104 0.63469 0.0
C481 C 0.13288 0.85791 0.6567 0.0
H482 H 0.14073 0.87606 0.55775 0.0
C483 C 0.10436 0.94476 0.60042 0.0
C484 C 0.08399 0.93965 0.57396 0.0
C485 C 0.1173 0.92607 0.61064 0.0
C486 C 0.13826 0.87084 0.58529 0.0
H487 H 0.20447 0.83188 0.72792 0.0
H488 H 0.17641 0.85648 0.69949 0.0
H489 H 0.16525 0.84623 0.58256 0.0
H490 H 0.06158 0.91115 0.53688 0.0
H491 H 0.08506 0.87873 0.55414 0.0
H492 H 0.10706 0.8835 0.65987 0.0
C493 C 0.17924 0.83972 0.68576 0.0
C494 C 0.15208 0.85375 0.59942 0.0
C495 C 0.19549 0.82575 0.70196 0.0
C496 C 0.07733 0.91572 0.5572 0.0
C497 C 0.09069 0.89718 0.56694 0.0
C498 C 0.11948 0.87519 0.64276 0.0
C499 C 0.1672 0.83243 0.65213 0.0
C500 C 0.15003 0.84767 0.63554 0.0
C501 C 0.11036 0.90217 0.59417 0.0
C502 C 0.12257 0.88214 0.60727 0.0
H503 H 0.19227 0.78062 0.63718 0.0
H504 H 0.16306 0.80497 0.6088 0.0
H505 H 0.13035 0.85307 0.68436 0.0
H506 H 0.10996 0.963 0.6138 0.0
H507 H 0.13255 0.93015 0.63172 0.0
C508 C 0.17381 0.20086 0.74301 0.0
C509 C 0.1995 0.20913 0.73004 0.0
C510 C 0.15451 0.18336 0.72342 0.0
C511 C 0.14672 0.13518 0.65188 0.0
H512 H 0.07482 0.14567 0.64219 0.0
C513 C 0.06003 0.06191 0.5848 0.0
C514 C 0.04321 0.07122 0.56104 0.0
C515 C 0.07897 0.07841 0.60622 0.0
C516 C 0.09485 0.14258 0.64455 0.0
H517 H 0.22452 0.20731 0.68569 0.0
H518 H 0.19128 0.1763 0.65155 0.0
H519 H 0.10835 0.17521 0.67821 0.0
H520 H 0.03305 0.10509 0.54112 0.0
H521 H 0.06624 0.13385 0.57847 0.0
H522 H 0.13335 0.10281 0.61768 0.0
C523 C 0.18625 0.18261 0.67735 0.0
C524 C 0.11394 0.15931 0.66546 0.0
C525 C 0.20544 0.2001 0.69698 0.0
C526 C 0.0457 0.09733 0.55918 0.0
C527 C 0.06458 0.11381 0.58071 0.0
C528 C 0.1276 0.11839 0.63108 0.0
C529 C 0.16058 0.17403 0.6904 0.0
C530 C 0.1401 0.15584 0.66917 0.0
C531 C 0.0814 0.1045 0.60442 0.0
C532 C 0.10152 0.12201 0.62707 0.0
H533 H 0.16871 0.2078 0.76841 0.0
H534 H 0.13492 0.177 0.7342 0.0
H535 H 0.16668 0.13194 0.65452 0.0
H536 H 0.05861 0.04189 0.58688 0.0
H537 H 0.09152 0.07072 0.62451 0.0
C538 C 0.81834 0.1639 0.67038 0.0
C539 C 0.80329 0.18139 0.66116 0.0
C540 C 0.82366 0.14716 0.64473 0.0
C541 C 0.83407 0.14307 0.55091 0.0
H542 H 0.83911 0.07539 0.57459 0.0
C543 C 0.92047 0.1008 0.51751 0.0
C544 C 0.91698 0.07479 0.51174 0.0
C545 C 0.89857 0.1112 0.52301 0.0
C546 C 0.83715 0.09395 0.56693 0.0
H547 H 0.78125 0.19483 0.61855 0.0
H548 H 0.79104 0.16573 0.57343 0.0
H549 H 0.81397 0.09785 0.61205 0.0
H550 H 0.88777 0.03944 0.50462 0.0
H551 H 0.84937 0.05764 0.51568 0.0
H552 H 0.85873 0.13973 0.50708 0.0
C553 C 0.79863 0.16496 0.60042 0.0
C554 C 0.82304 0.10688 0.58862 0.0
C555 C 0.79315 0.1816 0.62616 0.0
C556 C 0.89104 0.05953 0.50952 0.0
C557 C 0.86909 0.06991 0.51559 0.0
C558 C 0.84829 0.13015 0.52926 0.0
C559 C 0.8141 0.14772 0.60945 0.0
C560 C 0.82263 0.132 0.58185 0.0
C561 C 0.87279 0.09573 0.52341 0.0
C562 C 0.85116 0.10602 0.53829 0.0
H563 H 0.82624 0.16334 0.69726 0.0
H564 H 0.83607 0.13435 0.65225 0.0
H565 H 0.83399 0.16242 0.54506 0.0
H566 H 0.94019 0.1131 0.51879 0.0
H567 H 0.90209 0.13113 0.52935 0.0
C568 C 0.83468 0.83117 0.74689 0.0
C569 C 0.81886 0.81009 0.72876 0.0
C570 C 0.8514 0.85011 0.72829 0.0
C571 C 0.86371 0.87816 0.64003 0.0
H572 H 0.93639 0.90021 0.67719 0.0
C573 C 0.94766 0.94274 0.56168 0.0
C574 C 0.96805 0.95937 0.58135 0.0
C575 C 0.92789 0.92554 0.57901 0.0
C576 C 0.91607 0.89471 0.66665 0.0
H577 H 0.80776 0.79257 0.67679 0.0
H578 H 0.83666 0.82593 0.64418 0.0
H579 H 0.90481 0.8688 0.70854 0.0
H580 H 0.98269 0.972 0.63462 0.0
H581 H 0.94791 0.94295 0.66466 0.0
H582 H 0.87489 0.90434 0.59832 0.0
C583 C 0.83611 0.82779 0.67281 0.0
C584 C 0.89796 0.87655 0.68465 0.0
C585 C 0.81959 0.80867 0.69149 0.0
C586 C 0.96747 0.95924 0.61864 0.0
C587 C 0.9476 0.94235 0.6359 0.0
C588 C 0.8818 0.8966 0.62214 0.0
C589 C 0.85253 0.84856 0.69105 0.0
C590 C 0.87155 0.86805 0.67164 0.0
C591 C 0.9279 0.92476 0.61643 0.0
C592 C 0.90827 0.9052 0.63526 0.0
H593 H 0.83451 0.83285 0.77558 0.0
H594 H 0.86356 0.866 0.7431 0.0
H595 H 0.84343 0.87212 0.62944 0.0
H596 H 0.94762 0.94226 0.5329 0.0
H597 H 0.91324 0.91224 0.563 0.0
C598 C 0.30553 0.20631 0.1552 0.0
C599 C 0.30292 0.20592 0.19235 0.0
C600 C 0.32012 0.19092 0.13793 0.0
C601 C 0.34878 0.13381 0.14963 0.0
H602 H 0.39278 0.16132 0.07167 0.0
C603 C 0.40791 0.07388 0.06542 0.0
C604 C 0.43383 0.08603 0.05592 0.0
C605 C 0.39076 0.08751 0.08127 0.0
C606 C 0.38072 0.15326 0.09348 0.0
H607 H 0.31375 0.18841 0.24016 0.0
H608 H 0.33906 0.16179 0.21025 0.0
H609 H 0.36591 0.18664 0.10091 0.0
H610 H 0.46158 0.12243 0.05557 0.0
H611 H 0.43213 0.14579 0.08275 0.0
H612 H 0.36405 0.10054 0.14247 0.0
C613 C 0.32964 0.17387 0.19427 0.0
C614 C 0.36497 0.16778 0.11011 0.0
C615 C 0.31517 0.18936 0.21156 0.0
C616 C 0.44187 0.11221 0.06244 0.0
C617 C 0.42478 0.12578 0.07791 0.0
C618 C 0.36444 0.11919 0.13281 0.0
C619 C 0.33255 0.17447 0.15714 0.0
C620 C 0.34883 0.15845 0.13869 0.0
C621 C 0.39891 0.11376 0.0877 0.0
C622 C 0.38092 0.12874 0.10464 0.0
H623 H 0.29644 0.21868 0.1393 0.0
H624 H 0.32146 0.19182 0.10932 0.0
H625 H 0.33648 0.12569 0.1712 0.0
H626 H 0.4009 0.0538 0.06082 0.0
H627 H 0.37097 0.0775 0.08808 0.0
C628 C 0.85496 0.30782 0.20787 0.0
C629 C 0.8288 0.30372 0.19343 0.0
C630 C 0.87489 0.32747 0.19597 0.0
C631 C 0.89169 0.37236 0.12308 0.0
H632 H 0.93688 0.41408 0.19546 0.0
C633 C 0.95925 0.46563 0.08682 0.0
C634 C 0.98616 0.46869 0.09776 0.0
C635 C 0.93957 0.44732 0.10188 0.0
C636 C 0.92447 0.40253 0.17499 0.0
H637 H 0.80344 0.31617 0.15378 0.0
H638 H 0.83808 0.35039 0.13324 0.0
H639 H 0.90454 0.37646 0.21263 0.0
H640 H 1.01312 0.4566 0.13556 0.0
H641 H 0.97865 0.42465 0.16185 0.0
H642 H 0.91149 0.39838 0.08546 0.0
C643 C 0.84327 0.33842 0.15366 0.0
C644 C 0.90608 0.38092 0.18475 0.0
C645 C 0.82336 0.3188 0.16553 0.0
C646 C 0.99259 0.4547 0.12643 0.0
C647 C 0.97284 0.43634 0.1415 0.0
C648 C 0.90996 0.39396 0.11337 0.0
C649 C 0.86909 0.34335 0.16932 0.0
C650 C 0.88944 0.36565 0.15888 0.0
C651 C 0.94635 0.43175 0.12824 0.0
C652 C 0.92645 0.40934 0.13921 0.0
H653 H 0.85985 0.29651 0.22934 0.0
H654 H 0.89474 0.33052 0.20807 0.0
H655 H 0.87946 0.36079 0.10247 0.0
H656 H 0.95354 0.47631 0.06512 0.0
H657 H 0.91917 0.4446 0.09177 0.0
C658 C 0.71591 0.82692 0.20681 0.0
C659 C 0.71994 0.80474 0.19044 0.0
C660 C 0.70157 0.84239 0.1891 0.0
C661 C 0.6499 0.84273 0.11923 0.0
H662 H 0.6795 0.91455 0.11926 0.0
C663 C 0.59458 0.91162 0.04641 0.0
C664 C 0.59775 0.93607 0.06104 0.0
C665 C 0.60993 0.89514 0.05968 0.0
C666 C 0.67049 0.89463 0.11939 0.0
H667 H 0.71145 0.78141 0.14249 0.0
H668 H 0.68583 0.80813 0.11196 0.0
H669 H 0.70446 0.88703 0.14782 0.0
H670 H 0.61937 0.96193 0.10177 0.0
H671 H 0.64478 0.93341 0.12555 0.0
H672 H 0.61546 0.85029 0.09202 0.0
C673 C 0.69407 0.81363 0.13845 0.0
C674 C 0.68505 0.87877 0.13569 0.0
C675 C 0.70892 0.79838 0.15591 0.0
C676 C 0.6165 0.94342 0.08936 0.0
C677 C 0.6314 0.92694 0.10294 0.0
C678 C 0.63504 0.85867 0.10343 0.0
C679 C 0.69032 0.83595 0.15473 0.0
C680 C 0.67494 0.85261 0.1361 0.0
C681 C 0.62861 0.90249 0.08834 0.0
C682 C 0.64494 0.88501 0.10351 0.0
H683 H 0.72406 0.83248 0.23332 0.0
H684 H 0.69895 0.85931 0.20258 0.0
H685 H 0.64141 0.82268 0.11918 0.0
H686 H 0.5804 0.90525 0.02455 0.0
H687 H 0.60723 0.87671 0.04716 0.0
C688 C 0.21404 0.7073 0.17605 0.0
C689 C 0.21316 0.73278 0.17415 0.0
C690 C 0.19856 0.6895 0.15248 0.0
C691 C 0.13662 0.68001 0.09792 0.0
H692 H 0.1571 0.6192 0.06647 0.0
C693 C 0.06341 0.60259 0.01743 0.0
C694 C 0.06113 0.57796 0.02952 0.0
C695 C 0.08453 0.62201 0.02949 0.0
C696 C 0.15111 0.63607 0.07514 0.0
H697 H 0.19677 0.75992 0.14485 0.0
H698 H 0.16997 0.72886 0.1031 0.0
H699 H 0.19018 0.65293 0.0965 0.0
H700 H 0.07995 0.55427 0.06259 0.0
H701 H 0.1167 0.58834 0.08395 0.0
H702 H 0.0975 0.66306 0.0772 0.0
C703 C 0.18217 0.72253 0.12334 0.0
C704 C 0.17003 0.65539 0.09235 0.0
C705 C 0.1976 0.74035 0.14708 0.0
C706 C 0.08104 0.57305 0.05289 0.0
C707 C 0.10221 0.59253 0.06494 0.0
C708 C 0.11778 0.66079 0.08062 0.0
C709 C 0.18194 0.6968 0.12635 0.0
C710 C 0.16288 0.67742 0.1045 0.0
C711 C 0.10389 0.61731 0.05389 0.0
C712 C 0.12468 0.63844 0.06953 0.0
H713 H 0.22591 0.70092 0.19664 0.0
H714 H 0.19871 0.66987 0.15589 0.0
H715 H 0.13023 0.69646 0.10746 0.0
H716 H 0.04861 0.60702 -0.00086 0.0
H717 H 0.08551 0.64083 0.02005 0.0
C718 C 0.29006 0.80894 0.85098 0.0
C719 C 0.29892 0.79526 0.82378 0.0
C720 C 0.30839 0.82361 0.8754 0.0
C721 C 0.3524 0.86692 0.9041 0.0
H722 H 0.41859 0.84876 0.93175 0.0
C723 C 0.44759 0.94103 0.9438 0.0
C724 C 0.46627 0.93491 0.96807 0.0
C725 C 0.42484 0.92302 0.93273 0.0
C726 C 0.40007 0.85407 0.92491 0.0
H727 H 0.33363 0.78524 0.80161 0.0
H728 H 0.3655 0.81106 0.84337 0.0
H729 H 0.38291 0.81758 0.90242 0.0
H730 H 0.47489 0.90544 0.00132 0.0
H731 H 0.43485 0.87419 0.98266 0.0
H732 H 0.36946 0.90334 0.92694 0.0
C733 C 0.3445 0.81032 0.84649 0.0
C734 C 0.3797 0.83624 0.90759 0.0
C735 C 0.32621 0.79563 0.82229 0.0
C736 C 0.46108 0.91066 0.98216 0.0
C737 C 0.43817 0.8927 0.97136 0.0
C738 C 0.37269 0.8847 0.92172 0.0
C739 C 0.33592 0.82489 0.87298 0.0
C740 C 0.3559 0.84263 0.89602 0.0
C741 C 0.42 0.89849 0.94595 0.0
C742 C 0.39709 0.87873 0.93146 0.0
H743 H 0.26907 0.80884 0.85282 0.0
H744 H 0.30104 0.83428 0.89579 0.0
H745 H 0.33445 0.87262 0.89544 0.0
H746 H 0.45095 0.95952 0.93242 0.0
H747 H 0.41158 0.92813 0.91275 0.0
C748 C 0.21901 0.29605 0.89024 0.0
C749 C 0.23832 0.30775 0.86665 0.0
C750 C 0.20488 0.31037 0.90992 0.0
C751 C 0.20114 0.37448 0.93928 0.0
H752 H 0.12536 0.35013 0.91919 0.0
C753 C 0.12457 0.43686 0.95849 0.0
C754 C 0.09858 0.42502 0.96772 0.0
C755 C 0.14334 0.42256 0.95116 0.0
C756 C 0.14635 0.35706 0.92589 0.0
H757 H 0.25967 0.34361 0.84732 0.0
H758 H 0.23524 0.36866 0.8821 0.0
H759 H 0.15608 0.32495 0.90102 0.0
H760 H 0.07236 0.38896 0.97822 0.0
H761 H 0.10499 0.36437 0.9668 0.0
H762 H 0.19134 0.40663 0.96436 0.0
C763 C 0.23091 0.34847 0.88528 0.0
C764 C 0.164 0.34256 0.91535 0.0
C765 C 0.24483 0.33413 0.8653 0.0
C766 C 0.09201 0.39871 0.97038 0.0
C767 C 0.11079 0.38453 0.96371 0.0
C768 C 0.18338 0.3889 0.95041 0.0
C769 C 0.21004 0.33664 0.90665 0.0
C770 C 0.19159 0.3512 0.92152 0.0
C771 C 0.13659 0.39614 0.95338 0.0
C772 C 0.15573 0.3805 0.94345 0.0
H773 H 0.2136 0.27574 0.8918 0.0
H774 H 0.18907 0.3008 0.92649 0.0
H775 H 0.22235 0.38156 0.94442 0.0
H776 H 0.13032 0.45713 0.95652 0.0
H777 H 0.16291 0.4322 0.94296 0.0
C778 C 0.73107 0.16557 0.81648 0.0
C779 C 0.72705 0.19021 0.81856 0.0
C780 C 0.7117 0.14538 0.82823 0.0
C781 C 0.64359 0.12313 0.82463 0.0
H782 H 0.64333 0.0855 0.91105 0.0
C783 C 0.54778 0.06577 0.88221 0.0
C784 C 0.54892 0.04529 0.90381 0.0
C785 C 0.57087 0.07967 0.86744 0.0
C786 C 0.6433 0.09536 0.88634 0.0
H787 H 0.70035 0.21316 0.83653 0.0
H788 H 0.66639 0.17772 0.85646 0.0
H789 H 0.6827 0.11796 0.89746 0.0
H790 H 0.57463 0.02175 0.92388 0.0
H791 H 0.61477 0.04556 0.89708 0.0
H792 H 0.60445 0.10076 0.81308 0.0
C793 C 0.68463 0.17423 0.84593 0.0
C794 C 0.66574 0.11405 0.87886 0.0
C795 C 0.70413 0.19445 0.83471 0.0
C796 C 0.57316 0.03765 0.90773 0.0
C797 C 0.59622 0.05142 0.89262 0.0
C798 C 0.62132 0.10425 0.83178 0.0
C799 C 0.68802 0.1496 0.84183 0.0
C800 C 0.66568 0.12836 0.84841 0.0
C801 C 0.59555 0.07321 0.87356 0.0
C802 C 0.62061 0.09056 0.86319 0.0
H803 H 0.74858 0.16175 0.80424 0.0
H804 H 0.71454 0.1264 0.82494 0.0
H805 H 0.64343 0.13395 0.8008 0.0
H806 H 0.52946 0.0722 0.87868 0.0
H807 H 0.56956 0.09644 0.85317 0.0
C808 C 0.83599 0.71679 0.87413 0.0
C809 C 0.80901 0.70907 0.86329 0.0
C810 C 0.84904 0.69996 0.89073 0.0
C811 C 0.84441 0.63198 0.89222 0.0
H812 H 0.90258 0.64987 0.96226 0.0
C813 C 0.90376 0.5595 0.93612 0.0
C814 C 0.9315 0.56811 0.94067 0.0
C815 C 0.88733 0.57656 0.93242 0.0
C816 C 0.88639 0.64457 0.94266 0.0
H817 H 0.77395 0.67846 0.86364 0.0
H818 H 0.79654 0.64921 0.89318 0.0
H819 H 0.8758 0.68026 0.94769 0.0
H820 H 0.96377 0.60134 0.94566 0.0
H821 H 0.93532 0.63108 0.93788 0.0
H822 H 0.85527 0.59667 0.88633 0.0
C823 C 0.80782 0.66805 0.8882 0.0
C824 C 0.87106 0.662 0.9343 0.0
C825 C 0.79483 0.68485 0.87153 0.0
C826 C 0.94245 0.59413 0.94201 0.0
C827 C 0.92606 0.6112 0.93792 0.0
C828 C 0.85967 0.61459 0.9006 0.0
C829 C 0.8353 0.6751 0.89683 0.0
C830 C 0.85008 0.656 0.90864 0.0
C831 C 0.8983 0.60263 0.93267 0.0
C832 C 0.88103 0.62071 0.92569 0.0
H833 H 0.84741 0.73536 0.86802 0.0
H834 H 0.87023 0.70599 0.89682 0.0
H835 H 0.82881 0.62688 0.87175 0.0
H836 H 0.89468 0.53956 0.93564 0.0
H837 H 0.866 0.56926 0.92926 0.0
C838 C 0.1947 0.29355 0.12023 0.0
C839 C 0.22136 0.30062 0.13266 0.0
C840 C 0.18292 0.31078 0.10238 0.0
C841 C 0.18962 0.37874 0.10201 0.0
H842 H 0.13285 0.36316 0.02966 0.0
C843 C 0.13018 0.45196 0.06197 0.0
C844 C 0.10237 0.44316 0.05931 0.0
C845 C 0.14688 0.43504 0.06378 0.0
C846 C 0.14864 0.36777 0.04992 0.0
H847 H 0.25731 0.33031 0.13365 0.0
H848 H 0.2369 0.36025 0.10206 0.0
H849 H 0.15894 0.33201 0.04365 0.0
H850 H 0.07021 0.40977 0.05601 0.0
H851 H 0.0993 0.38023 0.06019 0.0
H852 H 0.17887 0.414 0.10937 0.0
C853 C 0.2249 0.34164 0.10669 0.0
C854 C 0.1636 0.34996 0.05788 0.0
C855 C 0.23662 0.32446 0.12459 0.0
C856 C 0.09158 0.4171 0.05819 0.0
C857 C 0.10827 0.40018 0.06019 0.0
C858 C 0.1747 0.39646 0.09413 0.0
C859 C 0.19764 0.33535 0.09666 0.0
C860 C 0.18393 0.35509 0.08451 0.0
C861 C 0.13612 0.40895 0.06328 0.0
C862 C 0.15368 0.39103 0.06853 0.0
H863 H 0.1825 0.27526 0.12613 0.0
H864 H 0.16185 0.30536 0.09519 0.0
H865 H 0.20479 0.38317 0.12313 0.0
H866 H 0.1391 0.47193 0.06234 0.0
H867 H 0.16826 0.44241 0.06567 0.0
C868 C 0.21623 0.68357 0.8271 0.0
C869 C 0.20936 0.70085 0.80334 0.0
C870 C 0.1967 0.66367 0.83916 0.0
C871 C 0.13051 0.62517 0.81358 0.0
H872 H 0.12959 0.60475 0.9117 0.0
C873 C 0.04213 0.55652 0.87534 0.0
C874 C 0.04786 0.54123 0.90281 0.0
C875 C 0.06272 0.57359 0.85964 0.0
C876 C 0.12986 0.60991 0.88404 0.0
H877 H 0.1764 0.71142 0.77484 0.0
H878 H 0.14235 0.67683 0.79626 0.0
H879 H 0.16329 0.64082 0.89366 0.0
H880 H 0.07973 0.52996 0.93275 0.0
H881 H 0.11559 0.55931 0.90479 0.0
H882 H 0.09692 0.59432 0.80404 0.0
C883 C 0.16291 0.67846 0.80503 0.0
C884 C 0.1491 0.63066 0.87379 0.0
C885 C 0.18241 0.69841 0.79306 0.0
C886 C 0.07464 0.54174 0.91199 0.0
C887 C 0.09518 0.55868 0.89618 0.0
C888 C 0.11128 0.60435 0.82382 0.0
C889 C 0.16994 0.66063 0.82766 0.0
C890 C 0.14953 0.63858 0.83851 0.0
C891 C 0.08938 0.57553 0.87097 0.0
C892 C 0.11071 0.59655 0.8592 0.0
H893 H 0.2368 0.6849 0.83557 0.0
H894 H 0.20272 0.65015 0.85649 0.0
H895 H 0.13066 0.63062 0.78604 0.0
H896 H 0.02171 0.55662 0.86767 0.0
H897 H 0.05759 0.58635 0.84031 0.0
C898 C 0.32288 0.21709 0.84036 0.0
C899 C 0.30895 0.20841 0.80814 0.0
C900 C 0.33774 0.2022 0.8587 0.0
C901 C 0.34296 0.13587 0.86883 0.0
H902 H 0.41548 0.16338 0.90346 0.0
C903 C 0.41151 0.0702 0.91062 0.0
C904 C 0.43163 0.07765 0.93729 0.0
C905 C 0.39645 0.08685 0.898 0.0
C906 C 0.39511 0.15535 0.89457 0.0
H907 H 0.29976 0.17693 0.77043 0.0
H908 H 0.32498 0.15106 0.8025 0.0
H909 H 0.38951 0.19103 0.87627 0.0
H910 H 0.45115 0.10885 0.97197 0.0
H911 H 0.42431 0.13784 0.95068 0.0
H912 H 0.34802 0.1004 0.88742 0.0
C913 C 0.32456 0.16939 0.81363 0.0
C914 C 0.3802 0.1713 0.87881 0.0
C915 C 0.31014 0.18436 0.79508 0.0
C916 C 0.43593 0.10239 0.95134 0.0
C917 C 0.42058 0.11911 0.93887 0.0
C918 C 0.35765 0.12005 0.88492 0.0
C919 C 0.33866 0.17804 0.84568 0.0
C920 C 0.35407 0.16168 0.86507 0.0
C921 C 0.40057 0.11163 0.91183 0.0
C922 C 0.38423 0.12932 0.89743 0.0
H923 H 0.32259 0.23553 0.8512 0.0
H924 H 0.34823 0.20946 0.88335 0.0
H925 H 0.32273 0.12782 0.85927 0.0
H926 H 0.40761 0.05146 0.89875 0.0
H927 H 0.38188 0.08028 0.87666 0.0
C928 C 0.82082 0.30218 0.81805 0.0
C929 C 0.82335 0.2771 0.81892 0.0
C930 C 0.83707 0.3206 0.83988 0.0
C931 C 0.88293 0.33192 0.91868 0.0
H932 H 0.91381 0.39324 0.87014 0.0
C933 C 0.97293 0.40754 0.97572 0.0
C934 C 0.97355 0.43289 0.96869 0.0
C935 C 0.95265 0.38835 0.96085 0.0
C936 C 0.90505 0.37646 0.88435 0.0
H937 H 0.8443 0.25144 0.8441 0.0
H938 H 0.87322 0.28393 0.88225 0.0
H939 H 0.8821 0.35983 0.83841 0.0
H940 H 0.95254 0.45801 0.94208 0.0
H941 H 0.91697 0.42462 0.9166 0.0
H942 H 0.90621 0.34866 0.96463 0.0
C943 C 0.85836 0.28919 0.86486 0.0
C944 C 0.88689 0.35725 0.8661 0.0
C945 C 0.84195 0.27064 0.84295 0.0
C946 C 0.95285 0.43868 0.94766 0.0
C947 C 0.93252 0.41952 0.93293 0.0
C948 C 0.90113 0.35125 0.93705 0.0
C949 C 0.85646 0.31447 0.86293 0.0
C950 C 0.87558 0.33477 0.88301 0.0
C951 C 0.93248 0.39411 0.93872 0.0
C952 C 0.9124 0.37375 0.92004 0.0
H953 H 0.80684 0.30783 0.79964 0.0
H954 H 0.8348 0.3398 0.83816 0.0
H955 H 0.87439 0.31489 0.93247 0.0
H956 H 0.98857 0.40241 0.99188 0.0
H957 H 0.95335 0.36901 0.96562 0.0
C958 C 0.72108 0.80236 0.84452 0.0
C959 C 0.72331 0.80242 0.8073 0.0
C960 C 0.70659 0.81787 0.86175 0.0
C961 C 0.67779 0.87479 0.84922 0.0
H962 H 0.63442 0.84829 0.92824 0.0
C963 C 0.61947 0.93593 0.93208 0.0
C964 C 0.59365 0.92401 0.94226 0.0
C965 C 0.63643 0.92199 0.91655 0.0
C966 C 0.6463 0.85607 0.90612 0.0
H967 H 0.71193 0.81943 0.75934 0.0
H968 H 0.68682 0.8462 0.78916 0.0
H969 H 0.66111 0.82261 0.89935 0.0
H970 H 0.56586 0.88772 0.94418 0.0
H971 H 0.59501 0.86379 0.91747 0.0
H972 H 0.66252 0.90811 0.85566 0.0
C973 C 0.69645 0.83432 0.80522 0.0
C974 C 0.66195 0.84134 0.88971 0.0
C975 C 0.7108 0.81874 0.78799 0.0
C976 C 0.58551 0.89775 0.93675 0.0
C977 C 0.60243 0.88386 0.92157 0.0
C978 C 0.66224 0.8896 0.86581 0.0
C979 C 0.69394 0.8341 0.84242 0.0
C980 C 0.67784 0.85032 0.86075 0.0
C981 C 0.62819 0.89566 0.91109 0.0
C982 C 0.64599 0.88042 0.89435 0.0
H983 H 0.73038 0.79017 0.86046 0.0
H984 H 0.70553 0.81725 0.8904 0.0
H985 H 0.68991 0.88265 0.82736 0.0
H986 H 0.62655 0.95607 0.93591 0.0
H987 H 0.65615 0.93184 0.90921 0.0
C988 C 0.7872 0.68097 0.13142 0.0
C989 C 0.79924 0.70669 0.13525 0.0
C990 C 0.79985 0.66474 0.11295 0.0
C991 C 0.85641 0.66328 0.05357 0.0
H992 H 0.85751 0.6011 0.10136 0.0
C993 C 0.94002 0.61038 0.0361 0.0
C994 C 0.93351 0.58394 0.03443 0.0
C995 C 0.92065 0.62381 0.04345 0.0
C996 C 0.85708 0.61817 0.08731 0.0
H997 H 0.83319 0.73588 0.12144 0.0
H998 H 0.8555 0.70766 0.08981 0.0
H999 H 0.82843 0.62754 0.12196 0.0
H1000 H 0.90131 0.55088 0.03846 0.0
H1001 H 0.86742 0.57446 0.05183 0.0
H1002 H 0.88609 0.6545 0.0202 0.0
C1003 C 0.83614 0.69992 0.10049 0.0
C1004 C 0.84033 0.63334 0.09905 0.0
C1005 C 0.82342 0.71613 0.11877 0.0
C1006 C 0.90705 0.57123 0.03999 0.0
C1007 C 0.88765 0.58472 0.04762 0.0
C1008 C 0.87332 0.64824 0.04209 0.0
C1009 C 0.82486 0.6739 0.09811 0.0
C1010 C 0.84017 0.65635 0.08279 0.0
C1011 C 0.89427 0.61118 0.0495 0.0
C1012 C 0.87422 0.62573 0.05921 0.0
H1013 H 0.76848 0.67323 0.14377 0.0
H1014 H 0.79033 0.64491 0.11107 0.0
H1015 H 0.85645 0.68061 0.03995 0.0
H1016 H 0.96013 0.62082 0.03164 0.0
H1017 H 0.92652 0.64415 0.04513 0.0
C1018 C 0.30433 0.83873 0.17699 0.0
C1019 C 0.30975 0.81484 0.18128 0.0
C1020 C 0.32335 0.8582 0.16297 0.0
C1021 C 0.38823 0.87188 0.11755 0.0
H1022 H 0.39725 0.9371 0.16507 0.0
C1023 C 0.4848 0.94683 0.11404 0.0
C1024 C 0.4818 0.96672 0.09218 0.0
C1025 C 0.46247 0.93072 0.12738 0.0
C1026 C 0.39476 0.91898 0.15161 0.0
H1027 H 0.33881 0.79225 0.17294 0.0
H1028 H 0.37225 0.82624 0.14959 0.0
H1029 H 0.35975 0.9029 0.17965 0.0
H1030 H 0.45338 0.98697 0.07049 0.0
H1031 H 0.41433 0.95896 0.09488 0.0
H1032 H 0.42405 0.88784 0.09084 0.0
C1033 C 0.35315 0.82996 0.1562 0.0
C1034 C 0.37323 0.89946 0.15959 0.0
C1035 C 0.33398 0.81042 0.16969 0.0
C1036 C 0.45631 0.97171 0.08705 0.0
C1037 C 0.43399 0.95576 0.10094 0.0
C1038 C 0.40994 0.89123 0.11011 0.0
C1039 C 0.34832 0.85425 0.15345 0.0
C1040 C 0.36987 0.87558 0.14289 0.0
C1041 C 0.43692 0.93458 0.11976 0.0
C1042 C 0.41346 0.91475 0.12736 0.0
H1043 H 0.28568 0.84259 0.18542 0.0
H1044 H 0.3187 0.87649 0.16039 0.0
H1045 H 0.38597 0.85397 0.1036 0.0
H1046 H 0.50412 0.94244 0.11857 0.0
H1047 H 0.46501 0.91447 0.14207 0.0
C1048 C 0.74069 0.18909 0.16077 0.0
C1049 C 0.73459 0.20898 0.18055 0.0
C1050 C 0.72102 0.17353 0.13883 0.0
C1051 C 0.64705 0.15523 0.12849 0.0
H1052 H 0.66062 0.12303 0.04055 0.0
C1053 C 0.56191 0.10208 0.03648 0.0
C1054 C 0.5622 0.07668 0.03036 0.0
C1055 C 0.58455 0.11886 0.05063 0.0
C1056 C 0.65667 0.13195 0.0651 0.0
H1057 H 0.70344 0.22854 0.19222 0.0
H1058 H 0.6702 0.20308 0.15235 0.0
H1059 H 0.69747 0.15175 0.07311 0.0
H1060 H 0.58693 0.04931 0.03203 0.0
H1061 H 0.62674 0.07895 0.05631 0.0
H1062 H 0.60627 0.13594 0.12008 0.0
C1063 C 0.68964 0.19864 0.15451 0.0
C1064 C 0.67773 0.14826 0.08386 0.0
C1065 C 0.70896 0.21367 0.17691 0.0
C1066 C 0.58605 0.06874 0.03681 0.0
C1067 C 0.60886 0.08567 0.05043 0.0
C1068 C 0.62608 0.13939 0.1095 0.0
C1069 C 0.69506 0.17785 0.13603 0.0
C1070 C 0.67311 0.16023 0.11573 0.0
C1071 C 0.60804 0.1107 0.05833 0.0
C1072 C 0.63064 0.12768 0.07762 0.0
H1073 H 0.76027 0.18497 0.16328 0.0
H1074 H 0.7259 0.15762 0.1252 0.0
H1075 H 0.64275 0.16332 0.15348 0.0
H1076 H 0.54389 0.1088 0.03175 0.0
H1077 H 0.58354 0.13814 0.05637 0.0
C1078 C 0.70442 0.69908 0.80623 0.0
C1079 C 0.71139 0.69515 0.77115 0.0
C1080 C 0.68845 0.67953 0.82476 0.0
C1081 C 0.66158 0.63342 0.86505 0.0
H1082 H 0.60789 0.58575 0.8097 0.0
C1083 C 0.58506 0.55359 0.93172 0.0
C1084 C 0.55898 0.54779 0.91673 0.0
C1085 C 0.60587 0.56952 0.91425 0.0
C1086 C 0.62254 0.599 0.82578 0.0
H1087 H 0.70836 0.66743 0.7286 0.0
H1088 H 0.68169 0.63303 0.76124 0.0
H1089 H 0.63926 0.61776 0.77974 0.0
H1090 H 0.53453 0.55439 0.87148 0.0
H1091 H 0.57004 0.58239 0.8421 0.0
H1092 H 0.64352 0.61553 0.91127 0.0
C1093 C 0.68747 0.65138 0.7742 0.0
C1094 C 0.64104 0.61723 0.80841 0.0
C1095 C 0.70299 0.67106 0.75547 0.0
C1096 C 0.55434 0.55813 0.8838 0.0
C1097 C 0.57493 0.57418 0.86667 0.0
C1098 C 0.64274 0.61539 0.88251 0.0
C1099 C 0.67942 0.6554 0.80891 0.0
C1100 C 0.66072 0.63495 0.82771 0.0
C1101 C 0.60105 0.58021 0.88152 0.0
C1102 C 0.62265 0.59813 0.86314 0.0
H1103 H 0.7106 0.7175 0.81899 0.0
H1104 H 0.68251 0.68369 0.85111 0.0
H1105 H 0.67667 0.64629 0.88101 0.0
H1106 H 0.58937 0.546 0.95705 0.0
H1107 H 0.62573 0.57342 0.92642 0.0
C1108 C 0.36242 0.69792 0.81549 0.0
C1109 C 0.3426 0.70918 0.82845 0.0
C1110 C 0.37907 0.68877 0.83906 0.0
C1111 C 0.37743 0.65995 0.9236 0.0
H1112 H 0.45154 0.66263 0.90401 0.0
C1113 C 0.46616 0.60323 0.95131 0.0
C1114 C 0.45135 0.57914 0.94097 0.0
C1115 C 0.45447 0.62385 0.95001 0.0
C1116 C 0.43108 0.66211 0.91061 0.0
H1117 H 0.32493 0.72062 0.87579 0.0
H1118 H 0.35383 0.70395 0.9172 0.0
H1119 H 0.42933 0.69307 0.8773 0.0
H1120 H 0.41253 0.55742 0.92271 0.0
H1121 H 0.39221 0.59362 0.91955 0.0
H1122 H 0.37878 0.62798 0.95521 0.0
C1123 C 0.35656 0.70242 0.88889 0.0
C1124 C 0.41837 0.6794 0.89512 0.0
C1125 C 0.34006 0.71183 0.86527 0.0
C1126 C 0.42447 0.57586 0.93029 0.0
C1127 C 0.41274 0.59649 0.92916 0.0
C1128 C 0.39014 0.64257 0.93904 0.0
C1129 C 0.37599 0.6906 0.87591 0.0
C1130 C 0.3911 0.67756 0.89996 0.0
C1131 C 0.42779 0.6207 0.93843 0.0
C1132 C 0.41663 0.64272 0.93105 0.0
H1133 H 0.36476 0.6958 0.78718 0.0
H1134 H 0.39362 0.6793 0.82839 0.0
H1135 H 0.35636 0.6582 0.92774 0.0
H1136 H 0.4869 0.60621 0.96004 0.0
H1137 H 0.46643 0.64233 0.95733 0.0
C1138 C 0.35619 0.30633 0.75027 0.0
C1139 C 0.33053 0.29783 0.76322 0.0
C1140 C 0.37493 0.32485 0.76908 0.0
C1141 C 0.38078 0.37476 0.83806 0.0
H1142 H 0.45288 0.36553 0.85185 0.0
C1143 C 0.4645 0.44801 0.91194 0.0
C1144 C 0.48007 0.43815 0.93679 0.0
C1145 C 0.44661 0.43196 0.8886 0.0
C1146 C 0.4328 0.36832 0.84823 0.0
H1147 H 0.30502 0.30031 0.80683 0.0
H1148 H 0.33728 0.33299 0.83958 0.0
H1149 H 0.42072 0.33535 0.8149 0.0
H1150 H 0.48907 0.40377 0.95673 0.0
H1151 H 0.4578 0.37588 0.91622 0.0
H1152 H 0.39268 0.40735 0.87223 0.0
C1153 C 0.3427 0.32611 0.81433 0.0
C1154 C 0.4145 0.35121 0.8268 0.0
C1155 C 0.32408 0.30762 0.79551 0.0
C1156 C 0.47738 0.41198 0.93789 0.0
C1157 C 0.45962 0.39599 0.9145 0.0
C1158 C 0.39912 0.39192 0.8594 0.0
C1159 C 0.3683 0.33498 0.80126 0.0
C1160 C 0.38821 0.35408 0.8219 0.0
C1161 C 0.44412 0.40581 0.88958 0.0
C1162 C 0.42519 0.38865 0.86508 0.0
H1163 H 0.36166 0.29885 0.72545 0.0
H1164 H 0.39451 0.33137 0.75834 0.0
H1165 H 0.3607 0.37756 0.83442 0.0
H1166 H 0.46615 0.46811 0.91044 0.0
H1167 H 0.43499 0.44001 0.86949 0.0
C1168 C 0.74026 0.32771 0.86521 0.0
C1169 C 0.72297 0.31228 0.84022 0.0
C1170 C 0.73011 0.34172 0.89056 0.0
C1171 C 0.67093 0.34343 0.93898 0.0
H1172 H 0.68659 0.41575 0.92798 0.0
C1173 C 0.59333 0.39994 0.95838 0.0
C1174 C 0.60023 0.42478 0.97178 0.0
C1175 C 0.61288 0.38652 0.95307 0.0
C1176 C 0.68255 0.3957 0.93231 0.0
H1177 H 0.6818 0.29887 0.82215 0.0
H1178 H 0.66398 0.3229 0.86701 0.0
H1179 H 0.71374 0.39071 0.89832 0.0
H1180 H 0.633 0.45492 0.99086 0.0
H1181 H 0.66748 0.43135 0.98096 0.0
H1182 H 0.63915 0.34813 0.9718 0.0
C1183 C 0.68531 0.32425 0.86685 0.0
C1184 C 0.69804 0.38142 0.91525 0.0
C1185 C 0.69547 0.31074 0.84109 0.0
C1186 C 0.62715 0.43589 0.98006 0.0
C1187 C 0.64684 0.4224 0.97459 0.0
C1188 C 0.6557 0.3577 0.9564 0.0
C1189 C 0.70254 0.33985 0.89167 0.0
C1190 C 0.69137 0.35512 0.91702 0.0
C1191 C 0.63985 0.3976 0.96092 0.0
C1192 C 0.66038 0.38378 0.95146 0.0
H1193 H 0.76159 0.32913 0.86492 0.0
H1194 H 0.74367 0.35385 0.90935 0.0
H1195 H 0.66575 0.32314 0.94093 0.0
H1196 H 0.57276 0.39078 0.95187 0.0
H1197 H 0.60688 0.36764 0.94174 0.0
C1198 C 0.70602 0.3318 0.1544 0.0
C1199 C 0.70441 0.30587 0.15384 0.0
C1200 C 0.6937 0.3425 0.12735 0.0
C1201 C 0.63444 0.33042 0.07794 0.0
H1202 H 0.66578 0.39489 0.03781 0.0
C1203 C 0.57168 0.40265 0.04848 0.0
C1204 C 0.58373 0.42698 0.06144 0.0
C1205 C 0.5866 0.3844 0.04545 0.0
C1206 C 0.6567 0.37678 0.04848 0.0
H1207 H 0.68948 0.27065 0.12473 0.0
H1208 H 0.66636 0.28942 0.07804 0.0
H1209 H 0.69449 0.36727 0.05689 0.0
H1210 H 0.6205 0.45113 0.08242 0.0
H1211 H 0.64623 0.41902 0.07885 0.0
H1212 H 0.59705 0.34089 0.07338 0.0
C1213 C 0.67785 0.3014 0.09886 0.0
C1214 C 0.67309 0.36092 0.05895 0.0
C1215 C 0.69079 0.29075 0.12557 0.0
C1216 C 0.61069 0.43252 0.07241 0.0
C1217 C 0.62555 0.41425 0.0696 0.0
C1218 C 0.61807 0.34639 0.06785 0.0
C1219 C 0.67917 0.32734 0.09975 0.0
C1220 C 0.66218 0.33847 0.07595 0.0
C1221 C 0.61376 0.39009 0.0557 0.0
C1222 C 0.62934 0.37045 0.0554 0.0
H1223 H 0.71668 0.34378 0.17582 0.0
H1224 H 0.69444 0.36249 0.12892 0.0
H1225 H 0.62569 0.31315 0.09112 0.0
H1226 H 0.55087 0.3979 0.03977 0.0
H1227 H 0.57697 0.36596 0.0347 0.0
C1228 C 0.69794 0.67813 0.24536 0.0
C1229 C 0.70884 0.70092 0.22917 0.0
C1230 C 0.68258 0.65801 0.22518 0.0
C1231 C 0.66377 0.63593 0.13155 0.0
H1232 H 0.59839 0.60032 0.17328 0.0
C1233 C 0.56902 0.58679 0.05093 0.0
C1234 C 0.55672 0.56232 0.06077 0.0
C1235 C 0.59035 0.60095 0.07143 0.0
C1236 C 0.61675 0.6099 0.16148 0.0
H1237 H 0.71286 0.72062 0.1794 0.0
H1238 H 0.68549 0.68609 0.14456 0.0
H1239 H 0.63137 0.62983 0.20988 0.0
H1240 H 0.55708 0.5334 0.09957 0.0
H1241 H 0.59396 0.55852 0.13587 0.0
H1242 H 0.64821 0.61689 0.08262 0.0
C1243 C 0.68921 0.68326 0.17247 0.0
C1244 C 0.63573 0.6267 0.18244 0.0
C1245 C 0.70471 0.70318 0.19252 0.0
C1246 C 0.56619 0.55223 0.09136 0.0
C1247 C 0.58721 0.56655 0.11215 0.0
C1248 C 0.64459 0.61943 0.11049 0.0
C1249 C 0.6777 0.6605 0.18858 0.0
C1250 C 0.65923 0.64031 0.16754 0.0
C1251 C 0.59941 0.59101 0.10236 0.0
C1252 C 0.62076 0.60664 0.12518 0.0
H1253 H 0.70109 0.67594 0.27359 0.0
H1254 H 0.67434 0.64061 0.23831 0.0
H1255 H 0.68192 0.64566 0.11943 0.0
H1256 H 0.56223 0.59496 0.02736 0.0
H1257 H 0.59936 0.6199 0.06359 0.0
C1258 C 0.30204 0.68813 0.13653 0.0
C1259 C 0.30758 0.68936 0.17332 0.0
C1260 C 0.31259 0.67215 0.11471 0.0
C1261 C 0.34263 0.617 0.11575 0.0
H1262 H 0.3813 0.64742 0.03474 0.0
C1263 C 0.40587 0.56429 0.03384 0.0
C1264 C 0.43241 0.57787 0.03203 0.0
C1265 C 0.38599 0.57641 0.04395 0.0
C1266 C 0.37034 0.63863 0.05706 0.0
H1267 H 0.32774 0.67458 0.21648 0.0
H1268 H 0.34631 0.64664 0.17834 0.0
H1269 H 0.35459 0.6709 0.06832 0.0
H1270 H 0.45872 0.61499 0.03686 0.0
H1271 H 0.42407 0.63609 0.05449 0.0
H1272 H 0.35937 0.58522 0.10556 0.0
C1273 C 0.33366 0.65786 0.16638 0.0
C1274 C 0.35495 0.65196 0.07611 0.0
C1275 C 0.32324 0.67395 0.18816 0.0
C1276 C 0.43849 0.60397 0.03857 0.0
C1277 C 0.4186 0.61611 0.04823 0.0
C1278 C 0.35787 0.60363 0.09659 0.0
C1279 C 0.32867 0.65703 0.12942 0.0
C1280 C 0.34163 0.64155 0.10628 0.0
C1281 C 0.39232 0.60233 0.05191 0.0
C1282 C 0.37251 0.61464 0.06776 0.0
H1283 H 0.28988 0.69979 0.12453 0.0
H1284 H 0.30832 0.67173 0.08634 0.0
H1285 H 0.33228 0.60846 0.13865 0.0
H1286 H 0.40057 0.54418 0.02856 0.0
H1287 H 0.36581 0.56544 0.04636 0.0
C1288 C 0.31897 0.31049 0.19305 0.0
C1289 C 0.31762 0.3119 0.23023 0.0
C1290 C 0.336 0.32948 0.17484 0.0
C1291 C 0.3983 0.37704 0.18789 0.0
H1292 H 0.37675 0.40584 0.1015 0.0
C1293 C 0.47131 0.45671 0.12062 0.0
C1294 C 0.47154 0.45644 0.08332 0.0
C1295 C 0.4508 0.44093 0.13836 0.0
C1296 C 0.38324 0.3978 0.12535 0.0
H1297 H 0.33274 0.33445 0.27744 0.0
H1298 H 0.36279 0.36737 0.24575 0.0
H1299 H 0.34427 0.3744 0.13236 0.0
H1300 H 0.44995 0.43982 0.03533 0.0
H1301 H 0.41458 0.41166 0.0662 0.0
H1302 H 0.43735 0.39948 0.18059 0.0
C1303 C 0.35066 0.35161 0.23066 0.0
C1304 C 0.36455 0.37985 0.14308 0.0
C1305 C 0.33339 0.33281 0.24879 0.0
C1306 C 0.45027 0.44059 0.06412 0.0
C1307 C 0.42991 0.42447 0.0819 0.0
C1308 C 0.41702 0.39469 0.16999 0.0
C1309 C 0.35233 0.35007 0.19352 0.0
C1310 C 0.37188 0.36933 0.17462 0.0
C1311 C 0.43016 0.42406 0.11932 0.0
C1312 C 0.4098 0.40545 0.1385 0.0
H1313 H 0.30723 0.29448 0.17806 0.0
H1314 H 0.33702 0.32766 0.14625 0.0
H1315 H 0.40469 0.36896 0.21179 0.0
H1316 H 0.48725 0.46891 0.1362 0.0
H1317 H 0.45137 0.44178 0.16712 0.0
C1318 C 0.80903 0.70424 0.65467 0.0
C1319 C 0.80627 0.70412 0.69181 0.0
C1320 C 0.82437 0.68924 0.63796 0.0
C1321 C 0.87824 0.65459 0.65801 0.0
H1322 H 0.85936 0.62447 0.56417 0.0
C1323 C 0.95123 0.60686 0.58375 0.0
C1324 C 0.94113 0.58457 0.56363 0.0
C1325 C 0.93424 0.62131 0.59728 0.0
C1326 C 0.8649 0.63256 0.5905 0.0
H1327 H 0.81733 0.68731 0.74012 0.0
H1328 H 0.84341 0.6612 0.71131 0.0
H1329 H 0.83067 0.64897 0.59187 0.0
H1330 H 0.90476 0.56071 0.54109 0.0
H1331 H 0.87499 0.58582 0.56501 0.0
H1332 H 0.91205 0.63787 0.6572 0.0
C1333 C 0.83425 0.67324 0.69491 0.0
C1334 C 0.84853 0.64694 0.60632 0.0
C1335 C 0.81901 0.68821 0.71155 0.0
C1336 C 0.91337 0.57766 0.55653 0.0
C1337 C 0.89626 0.59219 0.5702 0.0
C1338 C 0.89455 0.64029 0.64226 0.0
C1339 C 0.83749 0.67362 0.65784 0.0
C1340 C 0.85489 0.65821 0.64044 0.0
C1341 C 0.90639 0.61408 0.59139 0.0
C1342 C 0.88831 0.62906 0.60814 0.0
H1343 H 0.79964 0.71622 0.63844 0.0
H1344 H 0.82643 0.69038 0.60948 0.0
H1345 H 0.88426 0.66309 0.68401 0.0
H1346 H 0.97244 0.61312 0.58957 0.0
H1347 H 0.94311 0.63828 0.61252 0.0
C1348 C 0.35811 0.79754 0.69357 0.0
C1349 C 0.33098 0.79587 0.68506 0.0
C1350 C 0.37768 0.81662 0.6798 0.0
C1351 C 0.41628 0.85426 0.63669 0.0
H1352 H 0.39877 0.91975 0.63904 0.0
C1353 C 0.47773 0.94243 0.57101 0.0
C1354 C 0.4786 0.96606 0.58714 0.0
C1355 C 0.46299 0.92055 0.58564 0.0
C1356 C 0.40412 0.90165 0.63871 0.0
H1357 H 0.30324 0.81173 0.65329 0.0
H1358 H 0.3375 0.84482 0.62881 0.0
H1359 H 0.3657 0.88292 0.65578 0.0
H1360 H 0.46676 0.98499 0.63306 0.0
H1361 H 0.4414 0.94667 0.65885 0.0
H1362 H 0.45493 0.87323 0.62005 0.0
C1363 C 0.34354 0.83171 0.64684 0.0
C1364 C 0.38499 0.88048 0.64766 0.0
C1365 C 0.32394 0.81266 0.66068 0.0
C1366 C 0.46625 0.96713 0.61973 0.0
C1367 C 0.45157 0.94521 0.6344 0.0
C1368 C 0.43548 0.87551 0.6277 0.0
C1369 C 0.37051 0.83434 0.65716 0.0
C1370 C 0.3908 0.85655 0.64657 0.0
C1371 C 0.44895 0.92184 0.61674 0.0
C1372 C 0.42954 0.89941 0.62858 0.0
H1373 H 0.36426 0.78484 0.71216 0.0
H1374 H 0.39828 0.81822 0.68835 0.0
H1375 H 0.42129 0.83603 0.63556 0.0
H1376 H 0.48713 0.94086 0.54598 0.0
H1377 H 0.46129 0.90284 0.57134 0.0
C1378 C 0.21064 0.31612 0.70377 0.0
C1379 C 0.21954 0.29682 0.68581 0.0
C1380 C 0.19523 0.33062 0.68619 0.0
C1381 C 0.15221 0.33325 0.60511 0.0
H1382 H 0.16594 0.40394 0.63211 0.0
C1383 C 0.08451 0.4009 0.55649 0.0
C1384 C 0.09742 0.42592 0.5497 0.0
C1385 C 0.09878 0.38409 0.57147 0.0
C1386 C 0.16185 0.38431 0.62386 0.0
H1387 H 0.21849 0.27768 0.63472 0.0
H1388 H 0.19176 0.30329 0.60378 0.0
H1389 H 0.19219 0.37727 0.6597 0.0
H1390 H 0.13592 0.45233 0.5524 0.0
H1391 H 0.16041 0.4234 0.5777 0.0
H1392 H 0.12206 0.34067 0.56865 0.0
C1393 C 0.19664 0.307 0.6318 0.0
C1394 C 0.1768 0.36881 0.64016 0.0
C1395 C 0.21218 0.29238 0.64952 0.0
C1396 C 0.12503 0.43339 0.55759 0.0
C1397 C 0.13919 0.41671 0.5724 0.0
C1398 C 0.13713 0.34884 0.58875 0.0
C1399 C 0.18809 0.32653 0.64983 0.0
C1400 C 0.17224 0.34298 0.63124 0.0
C1401 C 0.12634 0.39186 0.5801 0.0
C1402 C 0.14178 0.37469 0.59779 0.0
H1403 H 0.21551 0.32014 0.73174 0.0
H1404 H 0.18868 0.34499 0.7014 0.0
H1405 H 0.14786 0.31348 0.59761 0.0
H1406 H 0.06332 0.39438 0.55066 0.0
H1407 H 0.08805 0.36517 0.57706 0.0
C1408 C 0.71898 0.19576 0.68383 0.0
C1409 C 0.7164 0.22082 0.68323 0.0
C1410 C 0.70515 0.17805 0.65893 0.0
C1411 C 0.68216 0.14496 0.59581 0.0
H1412 H 0.60806 0.1456 0.57575 0.0
C1413 C 0.61207 0.0635 0.51654 0.0
C1414 C 0.58644 0.05528 0.52993 0.0
C1415 C 0.62873 0.08616 0.52889 0.0
C1416 C 0.6287 0.14508 0.58115 0.0
H1417 H 0.69792 0.24724 0.65548 0.0
H1418 H 0.67375 0.2162 0.61134 0.0
H1419 H 0.63653 0.18054 0.60914 0.0
H1420 H 0.55804 0.06476 0.56625 0.0
H1421 H 0.58716 0.10362 0.58844 0.0
H1422 H 0.67395 0.1088 0.56986 0.0
C1423 C 0.68628 0.2102 0.63146 0.0
C1424 C 0.64517 0.16534 0.59988 0.0
C1425 C 0.70018 0.228 0.65658 0.0
C1426 C 0.57765 0.07047 0.55535 0.0
C1427 C 0.59433 0.09297 0.56785 0.0
C1428 C 0.66565 0.12461 0.57737 0.0
C1429 C 0.68837 0.18491 0.63262 0.0
C1430 C 0.67193 0.16523 0.60829 0.0
C1431 C 0.62019 0.10104 0.55505 0.0
C1432 C 0.63852 0.12409 0.5706 0.0
H1433 H 0.73122 0.18959 0.70417 0.0
H1434 H 0.70691 0.15874 0.66121 0.0
H1435 H 0.70281 0.14446 0.60117 0.0
H1436 H 0.61936 0.05238 0.49664 0.0
H1437 H 0.64834 0.09195 0.51801 0.0
C1438 C 0.7799 0.32725 0.34253 0.0
C1439 C 0.78783 0.30835 0.32273 0.0
C1440 C 0.79775 0.34232 0.36703 0.0
C1441 C 0.86982 0.36547 0.38038 0.0
H1442 H 0.85106 0.39458 0.46795 0.0
C1443 C 0.94716 0.43992 0.45882 0.0
C1444 C 0.93846 0.46137 0.46985 0.0
C1445 C 0.92877 0.41812 0.44746 0.0
C1446 C 0.85656 0.38664 0.4435 0.0
H1447 H 0.8197 0.28896 0.31481 0.0
H1448 H 0.85065 0.31488 0.35794 0.0
H1449 H 0.81823 0.36134 0.4364 0.0
H1450 H 0.90356 0.47632 0.47935 0.0
H1451 H 0.8715 0.43848 0.45865 0.0
H1452 H 0.90768 0.39114 0.38652 0.0
C1453 C 0.83095 0.31855 0.35402 0.0
C1454 C 0.83778 0.36761 0.42548 0.0
C1455 C 0.8132 0.30363 0.32945 0.0
C1456 C 0.91092 0.46015 0.47086 0.0
C1457 C 0.89252 0.43837 0.45923 0.0
C1458 C 0.8885 0.38444 0.39827 0.0
C1459 C 0.82377 0.33861 0.37219 0.0
C1460 C 0.84413 0.35705 0.39347 0.0
C1461 C 0.90126 0.41731 0.44661 0.0
C1462 C 0.88201 0.3955 0.42979 0.0
H1463 H 0.76039 0.33119 0.33788 0.0
H1464 H 0.79165 0.3577 0.38045 0.0
H1465 H 0.87521 0.35814 0.35541 0.0
H1466 H 0.96823 0.44009 0.45835 0.0
H1467 H 0.93615 0.40203 0.43862 0.0
C1468 C 0.73135 0.82988 0.36948 0.0
C1469 C 0.72097 0.80395 0.36402 0.0
C1470 C 0.71638 0.84476 0.3866 0.0
C1471 C 0.6473 0.84667 0.39234 0.0
H1472 H 0.67059 0.90096 0.46191 0.0
C1473 C 0.57684 0.9095 0.43017 0.0
C1474 C 0.58774 0.93541 0.43426 0.0
C1475 C 0.59338 0.89249 0.42875 0.0
C1476 C 0.66388 0.88603 0.4422 0.0
H1477 H 0.68776 0.77292 0.3743 0.0
H1478 H 0.66152 0.79894 0.40372 0.0
H1479 H 0.70014 0.87288 0.44767 0.0
H1480 H 0.62448 0.96383 0.44138 0.0
H1481 H 0.65359 0.93423 0.43707 0.0
H1482 H 0.6119 0.86024 0.38496 0.0
C1483 C 0.68116 0.80776 0.39478 0.0
C1484 C 0.68074 0.86989 0.43427 0.0
C1485 C 0.69622 0.79288 0.37804 0.0
C1486 C 0.61556 0.94395 0.43778 0.0
C1487 C 0.63221 0.92692 0.43573 0.0
C1488 C 0.63072 0.86294 0.39975 0.0
C1489 C 0.6907 0.83395 0.39815 0.0
C1490 C 0.67259 0.85012 0.40914 0.0
C1491 C 0.62131 0.90097 0.43058 0.0
C1492 C 0.63877 0.88296 0.42462 0.0
H1493 H 0.75041 0.83888 0.35893 0.0
H1494 H 0.72414 0.86492 0.3887 0.0
H1495 H 0.6407 0.8319 0.37234 0.0
H1496 H 0.55544 0.90227 0.42834 0.0
H1497 H 0.58418 0.87264 0.42591 0.0
C1498 C 0.21183 0.67828 0.30268 0.0
C1499 C 0.21225 0.70382 0.30923 0.0
C1500 C 0.19115 0.65954 0.31477 0.0
C1501 C 0.13816 0.64518 0.37879 0.0
H1502 H 0.10645 0.59245 0.30991 0.0
C1503 C 0.05203 0.56418 0.41615 0.0
C1504 C 0.05547 0.54004 0.40691 0.0
C1505 C 0.0676 0.58551 0.40105 0.0
C1506 C 0.11514 0.60696 0.32949 0.0
H1507 H 0.19199 0.72958 0.33543 0.0
H1508 H 0.15592 0.69661 0.35701 0.0
H1509 H 0.14217 0.62712 0.29236 0.0
H1510 H 0.07661 0.51937 0.37259 0.0
H1511 H 0.10386 0.55648 0.34664 0.0
H1512 H 0.11178 0.62466 0.41627 0.0
C1513 C 0.17159 0.69126 0.34221 0.0
C1514 C 0.1356 0.62679 0.31946 0.0
C1515 C 0.19226 0.71011 0.32988 0.0
C1516 C 0.07344 0.53764 0.38038 0.0
C1517 C 0.08905 0.55897 0.36538 0.0
C1518 C 0.11779 0.62525 0.38892 0.0
C1519 C 0.1705 0.66585 0.3339 0.0
C1520 C 0.14762 0.64584 0.34417 0.0
C1521 C 0.08693 0.58317 0.37641 0.0
C1522 C 0.10636 0.6057 0.36452 0.0
H1523 H 0.22697 0.67268 0.2871 0.0
H1524 H 0.1911 0.64006 0.30868 0.0
H1525 H 0.14718 0.65957 0.39839 0.0
H1526 H 0.03819 0.56673 0.43625 0.0
H1527 H 0.0651 0.60387 0.40953 0.0
C1528 C 0.29383 0.18955 0.37426 0.0
C1529 C 0.30441 0.21519 0.36887 0.0
C1530 C 0.3078 0.17573 0.39542 0.0
C1531 C 0.37667 0.17569 0.41977 0.0
H1532 H 0.34478 0.1189 0.4767 0.0
C1533 C 0.43817 0.10723 0.47275 0.0
C1534 C 0.42595 0.08156 0.4684 0.0
C1535 C 0.42334 0.12551 0.46799 0.0
C1536 C 0.35393 0.13465 0.46075 0.0
H1537 H 0.3368 0.24698 0.38319 0.0
H1538 H 0.36122 0.22284 0.42031 0.0
H1539 H 0.31792 0.14807 0.45681 0.0
H1540 H 0.38844 0.05494 0.45637 0.0
H1541 H 0.36279 0.08681 0.44708 0.0
H1542 H 0.41232 0.16188 0.4224 0.0
C1543 C 0.34232 0.21334 0.40787 0.0
C1544 C 0.33859 0.15139 0.44951 0.0
C1545 C 0.3283 0.22717 0.38678 0.0
C1546 C 0.39853 0.07457 0.45959 0.0
C1547 C 0.38373 0.09284 0.45474 0.0
C1548 C 0.39196 0.15896 0.43092 0.0
C1549 C 0.33264 0.18731 0.41147 0.0
C1550 C 0.34963 0.17174 0.42816 0.0
C1551 C 0.39599 0.11853 0.45864 0.0
C1552 C 0.38059 0.13789 0.45076 0.0
H1553 H 0.27541 0.17988 0.36077 0.0
H1554 H 0.2999 0.15567 0.39741 0.0
H1555 H 0.38569 0.19096 0.40293 0.0
H1556 H 0.45916 0.11323 0.48017 0.0
H1557 H 0.43329 0.14514 0.47172 0.0
C1558 C 0.69208 0.7861 0.62162 0.0
C1559 C 0.71877 0.7945 0.63353 0.0
C1560 C 0.67926 0.80208 0.6026 0.0
C1561 C 0.68293 0.86946 0.59563 0.0
H1562 H 0.63044 0.85017 0.51833 0.0
C1563 C 0.63106 0.94173 0.534 0.0
C1564 C 0.60332 0.9343 0.52783 0.0
C1565 C 0.64599 0.924 0.54183 0.0
C1566 C 0.64491 0.85574 0.5401 0.0
H1567 H 0.75356 0.82539 0.63289 0.0
H1568 H 0.73135 0.85315 0.59944 0.0
H1569 H 0.65549 0.81986 0.54006 0.0
H1570 H 0.56966 0.90221 0.52362 0.0
H1571 H 0.59572 0.87122 0.53832 0.0
H1572 H 0.67207 0.90495 0.59661 0.0
C1573 C 0.72013 0.83444 0.60527 0.0
C1574 C 0.65929 0.83843 0.55244 0.0
C1575 C 0.7329 0.8185 0.62423 0.0
C1576 C 0.59094 0.90859 0.52876 0.0
C1577 C 0.60593 0.8908 0.53676 0.0
C1578 C 0.66855 0.88663 0.58348 0.0
C1579 C 0.69294 0.82673 0.59525 0.0
C1580 C 0.67843 0.84513 0.58042 0.0
C1581 C 0.63358 0.89838 0.54394 0.0
C1582 C 0.64931 0.88002 0.55565 0.0
H1583 H 0.68073 0.76767 0.62849 0.0
H1584 H 0.65828 0.79562 0.59539 0.0
H1585 H 0.69708 0.87506 0.61775 0.0
H1586 H 0.64135 0.96131 0.53279 0.0
H1587 H 0.66733 0.93043 0.54643 0.0
C1588 C 0.7043 0.20639 0.33887 0.0
C1589 C 0.69879 0.22128 0.3108 0.0
C1590 C 0.68404 0.18781 0.35231 0.0
C1591 C 0.61132 0.16271 0.35461 0.0
H1592 H 0.63194 0.09868 0.35929 0.0
C1593 C 0.55096 0.07375 0.42103 0.0
C1594 C 0.55156 0.0502 0.40566 0.0
C1595 C 0.56526 0.0959 0.40649 0.0
C1596 C 0.62576 0.11635 0.3577 0.0
H1597 H 0.66725 0.22975 0.27686 0.0
H1598 H 0.63192 0.19718 0.30036 0.0
H1599 H 0.66459 0.13608 0.34348 0.0
H1600 H 0.56568 0.03165 0.3611 0.0
H1601 H 0.59043 0.07035 0.33566 0.0
H1602 H 0.57233 0.14269 0.36887 0.0
C1603 C 0.65193 0.1999 0.31188 0.0
C1604 C 0.64458 0.13785 0.34922 0.0
C1605 C 0.67222 0.21853 0.29839 0.0
C1606 C 0.56503 0.04941 0.37387 0.0
C1607 C 0.57932 0.07157 0.35937 0.0
C1608 C 0.59244 0.14112 0.36338 0.0
C1609 C 0.65788 0.18375 0.33799 0.0
C1610 C 0.63764 0.16127 0.34779 0.0
C1611 C 0.5804 0.09493 0.37632 0.0
C1612 C 0.59953 0.11773 0.36498 0.0
H1613 H 0.72447 0.20822 0.34939 0.0
H1614 H 0.68905 0.17594 0.37301 0.0
H1615 H 0.60546 0.18055 0.35362 0.0
H1616 H 0.54067 0.07509 0.44543 0.0
H1617 H 0.56579 0.11363 0.42017 0.0
C1618 C 0.81859 0.69406 0.2889 0.0
C1619 C 0.80753 0.71135 0.3082 0.0
C1620 C 0.8341 0.67935 0.30595 0.0
C1621 C 0.87351 0.67429 0.38966 0.0
H1622 H 0.86572 0.60542 0.35613 0.0
C1623 C 0.94246 0.60866 0.4408 0.0
C1624 C 0.93011 0.58319 0.44549 0.0
C1625 C 0.92829 0.62518 0.42484 0.0
C1626 C 0.86813 0.62455 0.36611 0.0
H1627 H 0.80457 0.72657 0.36109 0.0
H1628 H 0.83141 0.70074 0.3909 0.0
H1629 H 0.83929 0.63186 0.32803 0.0
H1630 H 0.89275 0.55553 0.43745 0.0
H1631 H 0.86843 0.58394 0.41025 0.0
H1632 H 0.90212 0.66663 0.42825 0.0
C1633 C 0.82826 0.69876 0.36234 0.0
C1634 C 0.8531 0.63991 0.3496 0.0
C1635 C 0.81263 0.71349 0.34523 0.0
C1636 C 0.90318 0.57489 0.43415 0.0
C1637 C 0.88915 0.59125 0.41821 0.0
C1638 C 0.88869 0.65889 0.40615 0.0
C1639 C 0.83919 0.68135 0.34299 0.0
C1640 C 0.85544 0.66504 0.36107 0.0
C1641 C 0.90143 0.61664 0.41296 0.0
C1642 C 0.88612 0.63368 0.39479 0.0
H1643 H 0.81536 0.69185 0.26037 0.0
H1644 H 0.84241 0.66657 0.28986 0.0
H1645 H 0.87617 0.69356 0.39913 0.0
H1646 H 0.9631 0.61582 0.44928 0.0
H1647 H 0.93855 0.64454 0.42119 0.0
C1648 C 0.31124 0.81433 0.31612 0.0
C1649 C 0.31309 0.78918 0.3194 0.0
C1650 C 0.32534 0.83294 0.33962 0.0
C1651 C 0.3851 0.84754 0.39875 0.0
H1652 H 0.35644 0.90509 0.42429 0.0
C1653 C 0.45244 0.94391 0.43849 0.0
C1654 C 0.44345 0.9596 0.463 0.0
C1655 C 0.43594 0.92103 0.42694 0.0
C1656 C 0.36472 0.88904 0.418 0.0
H1657 H 0.33075 0.76365 0.35031 0.0
H1658 H 0.35554 0.79634 0.39186 0.0
H1659 H 0.32754 0.86853 0.395 0.0
H1660 H 0.4104 0.96295 0.49577 0.0
H1661 H 0.38176 0.92284 0.47608 0.0
H1662 H 0.42228 0.86804 0.42193 0.0
C1663 C 0.34324 0.80164 0.37082 0.0
C1664 C 0.34818 0.86815 0.40075 0.0
C1665 C 0.32899 0.7829 0.34719 0.0
C1666 C 0.41784 0.95149 0.47653 0.0
C1667 C 0.40138 0.92849 0.46513 0.0
C1668 C 0.40163 0.8684 0.4162 0.0
C1669 C 0.34176 0.82694 0.36707 0.0
C1670 C 0.35833 0.84743 0.39 0.0
C1671 C 0.41007 0.91312 0.43981 0.0
C1672 C 0.39183 0.8897 0.42521 0.0
H1673 H 0.2994 0.81985 0.29474 0.0
H1674 H 0.32409 0.85222 0.33538 0.0
H1675 H 0.39365 0.83198 0.39076 0.0
H1676 H 0.47209 0.94953 0.42756 0.0
H1677 H 0.44322 0.90994 0.40704 0.0
C1678 C 0.2072 0.32118 0.2861 0.0
C1679 C 0.21911 0.30464 0.30581 0.0
C1680 C 0.1921 0.33634 0.30263 0.0
C1681 C 0.1771 0.36196 0.39135 0.0
H1682 H 0.11497 0.3732 0.33931 0.0
C1683 C 0.11342 0.43227 0.44134 0.0
C1684 C 0.08573 0.42591 0.4336 0.0
C1685 C 0.13036 0.41755 0.42764 0.0
C1686 C 0.13208 0.37018 0.35456 0.0
H1687 H 0.22439 0.29163 0.35904 0.0
H1688 H 0.19787 0.31779 0.38778 0.0
H1689 H 0.14242 0.34761 0.31256 0.0
H1690 H 0.05432 0.39814 0.4064 0.0
H1691 H 0.08333 0.37269 0.38337 0.0
H1692 H 0.16622 0.38422 0.43373 0.0
C1693 C 0.20047 0.31928 0.35942 0.0
C1694 C 0.14819 0.35566 0.33885 0.0
C1695 C 0.21565 0.30408 0.34282 0.0
C1696 C 0.0755 0.40398 0.41275 0.0
C1697 C 0.0923 0.38936 0.39917 0.0
C1698 C 0.16092 0.37658 0.40711 0.0
C1699 C 0.18821 0.33555 0.33957 0.0
C1700 C 0.17103 0.35124 0.35686 0.0
C1701 C 0.12011 0.39604 0.40576 0.0
C1702 C 0.13801 0.38085 0.38904 0.0
H1703 H 0.20943 0.32242 0.25763 0.0
H1704 H 0.18359 0.34886 0.28628 0.0
H1705 H 0.19457 0.35933 0.40614 0.0
H1706 H 0.12213 0.44891 0.45737 0.0
H1707 H 0.1516 0.42348 0.4334 0.0
C1708 C 0.28386 0.17355 0.62326 0.0
C1709 C 0.29528 0.19931 0.62792 0.0
C1710 C 0.29762 0.15778 0.60584 0.0
C1711 C 0.36051 0.15723 0.55704 0.0
H1712 H 0.35446 0.09392 0.60487 0.0
C1713 C 0.44396 0.10167 0.56636 0.0
C1714 C 0.43651 0.07553 0.5601 0.0
C1715 C 0.42461 0.116 0.56748 0.0
C1716 C 0.35614 0.11137 0.59089 0.0
H1717 H 0.32922 0.22914 0.61621 0.0
H1718 H 0.35379 0.20168 0.58729 0.0
H1719 H 0.32373 0.1203 0.61824 0.0
H1720 H 0.40298 0.04394 0.54976 0.0
H1721 H 0.36911 0.06893 0.55293 0.0
H1722 H 0.39438 0.1487 0.5317 0.0
C1723 C 0.33395 0.19349 0.59606 0.0
C1724 C 0.33835 0.12652 0.59832 0.0
C1725 C 0.31988 0.20933 0.61279 0.0
C1726 C 0.40932 0.06402 0.55493 0.0
C1727 C 0.38995 0.0783 0.55663 0.0
C1728 C 0.3787 0.14225 0.55019 0.0
C1729 C 0.32346 0.1673 0.59354 0.0
C1730 C 0.34048 0.1499 0.58197 0.0
C1731 C 0.39741 0.10442 0.563 0.0
C1732 C 0.37687 0.11933 0.56742 0.0
H1733 H 0.26478 0.1654 0.63447 0.0
H1734 H 0.2884 0.13791 0.6034 0.0
H1735 H 0.36253 0.17477 0.54325 0.0
H1736 H 0.46477 0.11112 0.56997 0.0
H1737 H 0.43089 0.13607 0.57272 0.0
C1738 C 0.82842 0.30283 0.6635 0.0
C1739 C 0.81015 0.30799 0.68802 0.0
C1740 C 0.84751 0.32238 0.64965 0.0
C1741 C 0.86552 0.39164 0.6399 0.0
H1742 H 0.93776 0.38173 0.63704 0.0
C1743 C 0.95345 0.4743 0.61877 0.0
C1744 C 0.96998 0.47079 0.59093 0.0
C1745 C 0.93572 0.45379 0.63265 0.0
C1746 C 0.91766 0.38469 0.63758 0.0
H1747 H 0.79678 0.3379 0.71574 0.0
H1748 H 0.83009 0.37178 0.69196 0.0
H1749 H 0.90154 0.3471 0.65381 0.0
H1750 H 0.98246 0.44265 0.55812 0.0
H1751 H 0.95161 0.40692 0.58265 0.0
H1752 H 0.88168 0.4293 0.62407 0.0
C1753 C 0.8296 0.35269 0.68315 0.0
C1754 C 0.89688 0.36485 0.64692 0.0
C1755 C 0.81049 0.33318 0.69689 0.0
C1756 C 0.96998 0.4461 0.57946 0.0
C1757 C 0.95229 0.42558 0.59349 0.0
C1758 C 0.88628 0.41149 0.63081 0.0
C1759 C 0.84873 0.34749 0.66003 0.0
C1760 C 0.87058 0.36814 0.64831 0.0
C1761 C 0.93427 0.42935 0.6192 0.0
C1762 C 0.91257 0.40826 0.62974 0.0
H1763 H 0.82863 0.28365 0.65592 0.0
H1764 H 0.86163 0.3178 0.63131 0.0
H1765 H 0.84545 0.3947 0.64012 0.0
H1766 H 0.95305 0.49299 0.6285 0.0
H1767 H 0.92242 0.45715 0.65303 0.0
C1768 C 0.21792 0.70597 0.66907 0.0
C1769 C 0.24433 0.7031 0.67167 0.0
C1770 C 0.19922 0.69025 0.64644 0.0
C1771 C 0.19045 0.64244 0.57292 0.0
H1772 H 0.12377 0.61558 0.61851 0.0
C1773 C 0.11676 0.54991 0.52746 0.0
C1774 C 0.0893 0.54841 0.53068 0.0
C1775 C 0.13548 0.57132 0.53967 0.0
C1776 C 0.14204 0.62317 0.60503 0.0
H1777 H 0.27233 0.68255 0.6512 0.0
H1778 H 0.23948 0.65464 0.61202 0.0
H1779 H 0.15697 0.6488 0.64816 0.0
H1780 H 0.05997 0.56889 0.54731 0.0
H1781 H 0.09259 0.60624 0.56824 0.0
H1782 H 0.17554 0.61618 0.53009 0.0
C1783 C 0.23327 0.66923 0.62719 0.0
C1784 C 0.16113 0.64228 0.62206 0.0
C1785 C 0.25207 0.68513 0.64974 0.0
C1786 C 0.08097 0.56924 0.54493 0.0
C1787 C 0.09967 0.59065 0.55701 0.0
C1788 C 0.17128 0.62324 0.55582 0.0
C1789 C 0.20644 0.67115 0.6261 0.0
C1790 C 0.18565 0.65203 0.60639 0.0
C1791 C 0.12715 0.59173 0.55525 0.0
C1792 C 0.14694 0.61326 0.57186 0.0
H1793 H 0.21144 0.71979 0.68551 0.0
H1794 H 0.17886 0.69258 0.64567 0.0
H1795 H 0.20904 0.64972 0.55999 0.0
H1796 H 0.12388 0.53425 0.5165 0.0
H1797 H 0.15649 0.57145 0.53818 0.0
loop_
_geom_bond_atom_site_label_1
_geom_bond_atom_site_label_2
_geom_bond_distance
_geom_bond_site_symmetry_2
_ccdc_geom_bond_type
Dy0 O4 2.398 . S
Dy0 O5 2.491 . S
Dy0 O6 2.403 . S
Dy0 O7 2.664 . S
Dy0 O11 2.326 . S
Dy0 O15 2.310 . S
Dy0 O16 2.351 . S
C1 O12 1.185 . S
C1 O13 1.355 . S
C2 O4 1.185 . S
C2 O5 1.355 . S
Dy3 O7 2.310 . S
Dy3 O10 2.351 . S
Dy3 O12 2.398 . S
Dy3 O13 2.491 . S
Dy3 O14 2.403 . S
Dy3 O15 2.664 . S
Dy3 O17 2.326 . S
O4 Dy0 2.398 . S
O4 C2 1.185 . S
O5 Dy0 2.491 . S
O5 C2 1.355 . S
O6 Dy0 2.403 . S
O6 C8 1.254 . S
O7 Dy0 2.664 . S
O7 Dy3 2.310 . S
O7 C8 1.268 . S
C8 O6 1.254 . S
C8 O7 1.268 . S
C9 O14 1.254 . S
C9 O15 1.268 . S
O10 Dy3 2.351 . S
O10 C18 1.249 . S
O11 Dy0 2.326 . S
O11 C18 1.267 . S
O12 C1 1.185 . S
O12 Dy3 2.398 . S
O13 C1 1.355 . S
O13 Dy3 2.491 . S
O14 Dy3 2.403 . S
O14 C9 1.254 . S
O15 Dy0 2.310 . S
O15 Dy3 2.664 . S
O15 C9 1.268 . S
O16 Dy0 2.351 . S
O16 C19 1.249 . S
O17 Dy3 2.326 . S
O17 C19 1.267 . S
C18 O10 1.249 . S
C18 O11 1.267 . S
C19 O16 1.249 . S
C19 O17 1.267 . S
Dy20 O24 2.398 . S
Dy20 O25 2.491 . S
Dy20 O26 2.403 . S
Dy20 O27 2.664 . S
Dy20 O31 2.326 . S
Dy20 O35 2.310 . S
Dy20 O36 2.351 . S
C21 O32 1.185 . S
C21 O33 1.355 . S
C22 O24 1.185 . S
C22 O25 1.355 . S
Dy23 O27 2.310 . S
Dy23 O30 2.351 . S
Dy23 O32 2.398 . S
Dy23 O33 2.491 . S
Dy23 O34 2.403 . S
Dy23 O35 2.664 . S
Dy23 O37 2.326 . S
O24 Dy20 2.398 . S
O24 C22 1.185 . S
O25 Dy20 2.491 . S
O25 C22 1.355 . S
O26 Dy20 2.403 . S
O26 C28 1.254 . S
O27 Dy20 2.664 . S
O27 Dy23 2.310 . S
O27 C28 1.268 . S
C28 O26 1.254 . S
C28 O27 1.268 . S
C29 O34 1.254 . S
C29 O35 1.268 . S
O30 Dy23 2.351 . S
O30 C38 1.249 . S
O31 Dy20 2.326 . S
O31 C38 1.267 . S
O32 C21 1.185 . S
O32 Dy23 2.398 . S
O33 C21 1.355 . S
O33 Dy23 2.491 . S
O34 Dy23 2.403 . S
O34 C29 1.254 . S
O35 Dy20 2.310 . S
O35 Dy23 2.664 . S
O35 C29 1.268 . S
O36 Dy20 2.351 . S
O36 C39 1.249 . S
O37 Dy23 2.326 . S
O37 C39 1.267 . S
C38 O30 1.249 . S
C38 O31 1.267 . S
C39 O36 1.249 . S
C39 O37 1.267 . S
Dy40 O44 2.398 . S
Dy40 O45 2.491 . S
Dy40 O46 2.403 . S
Dy40 O47 2.664 . S
Dy40 O51 2.326 . S
Dy40 O55 2.310 . S
Dy40 O56 2.351 . S
C41 O52 1.185 . S
C41 O53 1.355 . S
C42 O44 1.185 . S
C42 O45 1.355 . S
Dy43 O47 2.310 . S
Dy43 O50 2.351 . S
Dy43 O52 2.398 . S
Dy43 O53 2.491 . S
Dy43 O54 2.403 . S
Dy43 O55 2.664 . S
Dy43 O57 2.326 . S
O44 Dy40 2.398 . S
O44 C42 1.185 . S
O45 Dy40 2.491 . S
O45 C42 1.355 . S
O46 Dy40 2.403 . S
O46 C48 1.254 . S
O47 Dy40 2.664 . S
O47 Dy43 2.310 . S
O47 C48 1.268 . S
C48 O46 1.254 . S
C48 O47 1.268 . S
C49 O54 1.254 . S
C49 O55 1.268 . S
O50 Dy43 2.351 . S
O50 C58 1.249 . S
O51 Dy40 2.326 . S
O51 C58 1.267 . S
O52 C41 1.185 . S
O52 Dy43 2.398 . S
O53 C41 1.355 . S
O53 Dy43 2.491 . S
O54 Dy43 2.403 . S
O54 C49 1.254 . S
O55 Dy40 2.310 . S
O55 Dy43 2.664 . S
O55 C49 1.268 . S
O56 Dy40 2.351 . S
O56 C59 1.249 . S
O57 Dy43 2.326 . S
O57 C59 1.267 . S
C58 O50 1.249 . S
C58 O51 1.267 . S
C59 O56 1.249 . S
C59 O57 1.267 . S
Dy60 O64 2.398 . S
Dy60 O65 2.491 . S
Dy60 O66 2.403 . S
Dy60 O67 2.664 . S
Dy60 O71 2.326 . S
Dy60 O75 2.310 . S
Dy60 O76 2.351 . S
C61 O72 1.185 . S
C61 O73 1.355 . S
C62 O64 1.185 . S
C62 O65 1.355 . S
Dy63 O67 2.310 . S
Dy63 O70 2.351 . S
Dy63 O72 2.398 . S
Dy63 O73 2.491 . S
Dy63 O74 2.403 . S
Dy63 O75 2.664 . S
Dy63 O77 2.326 . S
O64 Dy60 2.398 . S
O64 C62 1.185 . S
O65 Dy60 2.491 . S
O65 C62 1.355 . S
O66 Dy60 2.403 . S
O66 C68 1.254 . S
O67 Dy60 2.664 . S
O67 Dy63 2.310 . S
O67 C68 1.268 . S
C68 O66 1.254 . S
C68 O67 1.268 . S
C69 O74 1.254 . S
C69 O75 1.268 . S
O70 Dy63 2.351 . S
O70 C78 1.249 . S
O71 Dy60 2.326 . S
O71 C78 1.267 . S
O72 C61 1.185 . S
O72 Dy63 2.398 . S
O73 C61 1.355 . S
O73 Dy63 2.491 . S
O74 Dy63 2.403 . S
O74 C69 1.254 . S
O75 Dy60 2.310 . S
O75 Dy63 2.664 . S
O75 C69 1.268 . S
O76 Dy60 2.351 . S
O76 C79 1.249 . S
O77 Dy63 2.326 . S
O77 C79 1.267 . S
C78 O70 1.249 . S
C78 O71 1.267 . S
C79 O76 1.249 . S
C79 O77 1.267 . S
Dy80 O84 2.398 . S
Dy80 O85 2.491 . S
Dy80 O86 2.403 . S
Dy80 O87 2.664 . S
Dy80 O91 2.326 . S
Dy80 O95 2.310 . S
Dy80 O96 2.351 . S
C81 O92 1.185 . S
C81 O93 1.355 . S
C82 O84 1.185 . S
C82 O85 1.355 . S
Dy83 O87 2.310 . S
Dy83 O90 2.351 . S
Dy83 O92 2.398 . S
Dy83 O93 2.491 . S
Dy83 O94 2.403 . S
Dy83 O95 2.664 . S
Dy83 O97 2.326 . S
O84 Dy80 2.398 . S
O84 C82 1.185 . S
O85 Dy80 2.491 . S
O85 C82 1.355 . S
O86 Dy80 2.403 . S
O86 C88 1.254 . S
O87 Dy80 2.664 . S
O87 Dy83 2.310 . S
O87 C88 1.268 . S
C88 O86 1.254 . S
C88 O87 1.268 . S
C89 O94 1.254 . S
C89 O95 1.268 . S
O90 Dy83 2.351 . S
O90 C98 1.249 . S
O91 Dy80 2.326 . S
O91 C98 1.267 . S
O92 C81 1.185 . S
O92 Dy83 2.398 . S
O93 C81 1.355 . S
O93 Dy83 2.491 . S
O94 Dy83 2.403 . S
O94 C89 1.254 . S
O95 Dy80 2.310 . S
O95 Dy83 2.664 . S
O95 C89 1.268 . S
O96 Dy80 2.351 . S
O96 C99 1.249 . S
O97 Dy83 2.326 . S
O97 C99 1.267 . S
C98 O90 1.249 . S
C98 O91 1.267 . S
C99 O96 1.249 . S
C99 O97 1.267 . S
Dy100 O104 2.398 . S
Dy100 O105 2.491 . S
Dy100 O106 2.403 . S
Dy100 O107 2.664 . S
Dy100 O111 2.326 . S
Dy100 O115 2.310 . S
Dy100 O116 2.351 . S
C101 O112 1.185 . S
C101 O113 1.355 . S
C102 O104 1.185 . S
C102 O105 1.355 . S
Dy103 O107 2.310 . S
Dy103 O110 2.351 . S
Dy103 O112 2.398 . S
Dy103 O113 2.491 . S
Dy103 O114 2.403 . S
Dy103 O115 2.664 . S
Dy103 O117 2.326 . S
O104 Dy100 2.398 . S
O104 C102 1.185 . S
O105 Dy100 2.491 . S
O105 C102 1.355 . S
O106 Dy100 2.403 . S
O106 C108 1.254 . S
O107 Dy100 2.664 . S
O107 Dy103 2.310 . S
O107 C108 1.268 . S
C108 O106 1.254 . S
C108 O107 1.268 . S
C109 O114 1.254 . S
C109 O115 1.268 . S
O110 Dy103 2.351 . S
O110 C118 1.249 . S
O111 Dy100 2.326 . S
O111 C118 1.267 . S
O112 C101 1.185 . S
O112 Dy103 2.398 . S
O113 C101 1.355 . S
O113 Dy103 2.491 . S
O114 Dy103 2.403 . S
O114 C109 1.254 . S
O115 Dy100 2.310 . S
O115 Dy103 2.664 . S
O115 C109 1.268 . S
O116 Dy100 2.351 . S
O116 C119 1.249 . S
O117 Dy103 2.326 . S
O117 C119 1.267 . S
C118 O110 1.249 . S
C118 O111 1.267 . S
C119 O116 1.249 . S
C119 O117 1.267 . S
Dy120 O124 2.398 . S
Dy120 O125 2.491 . S
Dy120 O126 2.403 . S
Dy120 O127 2.664 . S
Dy120 O131 2.326 . S
Dy120 O135 2.310 . S
Dy120 O136 2.351 . S
C121 O132 1.185 . S
C121 O133 1.355 . S
C122 O124 1.185 . S
C122 O125 1.355 . S
Dy123 O127 2.310 . S
Dy123 O130 2.351 . S
Dy123 O132 2.398 . S
Dy123 O133 2.491 . S
Dy123 O134 2.403 . S
Dy123 O135 2.664 . S
Dy123 O137 2.326 . S
O124 Dy120 2.398 . S
O124 C122 1.185 . S
O125 Dy120 2.491 . S
O125 C122 1.355 . S
O126 Dy120 2.403 . S
O126 C128 1.254 . S
O127 Dy120 2.664 . S
O127 Dy123 2.310 . S
O127 C128 1.268 . S
C128 O126 1.254 . S
C128 O127 1.268 . S
C129 O134 1.254 . S
C129 O135 1.268 . S
O130 Dy123 2.351 . S
O130 C138 1.249 . S
O131 Dy120 2.326 . S
O131 C138 1.267 . S
O132 C121 1.185 . S
O132 Dy123 2.398 . S
O133 C121 1.355 . S
O133 Dy123 2.491 . S
O134 Dy123 2.403 . S
O134 C129 1.254 . S
O135 Dy120 2.310 . S
O135 Dy123 2.664 . S
O135 C129 1.268 . S
O136 Dy120 2.351 . S
O136 C139 1.249 . S
O137 Dy123 2.326 . S
O137 C139 1.267 . S
C138 O130 1.249 . S
C138 O131 1.267 . S
C139 O136 1.249 . S
C139 O137 1.267 . S
Dy140 O144 2.398 . S
Dy140 O145 2.491 . S
Dy140 O146 2.403 . S
Dy140 O147 2.664 . S
Dy140 O151 2.326 . S
Dy140 O155 2.310 . S
Dy140 O156 2.351 . S
C141 O152 1.185 . S
C141 O153 1.355 . S
C142 O144 1.185 . S
C142 O145 1.355 . S
Dy143 O147 2.310 . S
Dy143 O150 2.351 . S
Dy143 O152 2.398 . S
Dy143 O153 2.491 . S
Dy143 O154 2.403 . S
Dy143 O155 2.664 . S
Dy143 O157 2.326 . S
O144 Dy140 2.398 . S
O144 C142 1.185 . S
O145 Dy140 2.491 . S
O145 C142 1.355 . S
O146 Dy140 2.403 . S
O146 C148 1.254 . S
O147 Dy140 2.664 . S
O147 Dy143 2.310 . S
O147 C148 1.268 . S
C148 O146 1.254 . S
C148 O147 1.268 . S
C149 O154 1.254 . S
C149 O155 1.268 . S
O150 Dy143 2.351 . S
O150 C158 1.249 . S
O151 Dy140 2.326 . S
O151 C158 1.267 . S
O152 C141 1.185 . S
O152 Dy143 2.398 . S
O153 C141 1.355 . S
O153 Dy143 2.491 . S
O154 Dy143 2.403 . S
O154 C149 1.254 . S
O155 Dy140 2.310 . S
O155 Dy143 2.664 . S
O155 C149 1.268 . S
O156 Dy140 2.351 . S
O156 C159 1.249 . S
O157 Dy143 2.326 . S
O157 C159 1.267 . S
C158 O150 1.249 . S
C158 O151 1.267 . S
C159 O156 1.249 . S
C159 O157 1.267 . S
Co160 O163 2.042 . S
Co160 O170 2.264 . S
Co160 O189 2.286 . S
Co160 O190 2.069 . S
Co160 O192 2.015 1_455 S
Co161 O163 2.122 . S
Co161 O169 2.073 . S
Co161 O170 2.327 . S
Co161 O171 1.976 1_455 S
Co162 O163 2.094 1_545 S
Co162 O165 2.080 1_455 S
Co162 O172 2.106 1_445 S
Co162 O173 2.147 . S
Co162 O177 2.116 . S
Co162 O191 2.140 1_445 S
O163 Co160 2.042 . S
O163 Co161 2.122 . S
O163 Co162 2.094 1_565 S
O163 H164 0.980 . S
H164 O163 0.980 . S
O165 Co162 2.080 1_655 S
O165 Co166 2.042 . S
O165 Co167 2.122 . S
O165 H168 0.980 . S
Co166 O165 2.042 . S
Co166 O174 2.286 . S
Co166 O175 2.069 . S
Co166 O176 2.015 1_655 S
Co166 O179 2.264 . S
Co167 O165 2.122 . S
Co167 O178 1.976 1_655 S
Co167 O179 2.327 . S
Co167 O180 2.073 . S
H168 O165 0.980 . S
O169 Co161 2.073 . S
O169 C184 1.245 . S
O170 Co160 2.264 . S
O170 Co161 2.327 . S
O170 C184 1.257 . S
O171 Co161 1.976 1_655 S
O171 C183 1.251 . S
O172 Co162 2.106 1_665 S
O172 C183 1.274 . S
O173 Co162 2.147 . S
O173 C186 1.246 . S
O174 Co166 2.286 . S
O174 C185 1.259 . S
O175 Co166 2.069 . S
O175 C185 1.289 . S
O176 Co166 2.015 1_455 S
O176 C186 1.257 . S
O177 Co162 2.116 . S
O177 C187 1.274 . S
O178 Co167 1.976 1_455 S
O178 C187 1.251 . S
O179 Co166 2.264 . S
O179 Co167 2.327 . S
O179 C188 1.257 . S
O180 Co167 2.073 . S
O180 C188 1.245 . S
C181 O189 1.259 . S
C181 O190 1.289 . S
C182 O191 1.246 . S
C182 O192 1.257 . S
C183 O171 1.251 . S
C183 O172 1.274 . S
C184 O169 1.245 . S
C184 O170 1.257 . S
C185 O174 1.259 . S
C185 O175 1.289 . S
C186 O173 1.246 . S
C186 O176 1.257 . S
C187 O177 1.274 . S
C187 O178 1.251 . S
C188 O179 1.257 . S
C188 O180 1.245 . S
O189 Co160 2.286 . S
O189 C181 1.259 . S
O190 Co160 2.069 . S
O190 C181 1.289 . S
O191 Co162 2.140 1_665 S
O191 C182 1.246 . S
O192 Co160 2.015 1_655 S
O192 C182 1.257 . S
Co193 O196 2.042 1_556 S
Co193 O203 2.264 1_556 S
Co193 O222 2.286 . S
Co193 O223 2.069 . S
Co193 O225 2.015 . S
Co194 O196 2.122 . S
Co194 O202 2.073 . S
Co194 O203 2.327 . S
Co194 O204 1.976 . S
Co195 O196 2.087 1_545 S
Co195 O198 2.087 1_554 S
Co195 O205 2.111 1_545 S
Co195 O206 2.144 . S
Co195 O210 2.111 1_554 S
Co195 O224 2.143 1_544 S
O196 Co193 2.042 1_554 S
O196 Co194 2.122 . S
O196 Co195 2.087 1_565 S
O196 H197 0.980 . S
H197 O196 0.980 . S
O198 Co195 2.087 1_556 S
O198 Co199 2.042 1_556 S
O198 Co200 2.122 . S
O198 H201 0.980 . S
Co199 O198 2.042 1_554 S
Co199 O207 2.286 . S
Co199 O208 2.069 . S
Co199 O209 2.015 . S
Co199 O212 2.264 1_554 S
Co200 O198 2.122 . S
Co200 O211 1.976 . S
Co200 O212 2.327 . S
Co200 O213 2.073 . S
H201 O198 0.980 . S
O202 Co194 2.073 . S
O202 C217 1.245 . S
O203 Co193 2.264 1_554 S
O203 Co194 2.327 . S
O203 C217 1.257 . S
O204 Co194 1.976 . S
O204 C216 1.251 . S
O205 Co195 2.111 1_565 S
O205 C216 1.274 . S
O206 Co195 2.144 . S
O206 C219 1.246 . S
O207 Co199 2.286 . S
O207 C218 1.259 . S
O208 Co199 2.069 . S
O208 C218 1.289 . S
O209 Co199 2.015 . S
O209 C219 1.257 . S
O210 Co195 2.111 1_556 S
O210 C220 1.274 . S
O211 Co200 1.976 . S
O211 C220 1.251 . S
O212 Co199 2.264 1_556 S
O212 Co200 2.327 . S
O212 C221 1.257 . S
O213 Co200 2.073 . S
O213 C221 1.245 . S
C214 O222 1.259 . S
C214 O223 1.289 . S
C215 O224 1.246 . S
C215 O225 1.257 . S
C216 O204 1.251 . S
C216 O205 1.274 . S
C217 O202 1.245 . S
C217 O203 1.257 . S
C218 O207 1.259 . S
C218 O208 1.289 . S
C219 O206 1.246 . S
C219 O209 1.257 . S
C220 O210 1.274 . S
C220 O211 1.251 . S
C221 O212 1.257 . S
C221 O213 1.245 . S
O222 Co193 2.286 . S
O222 C214 1.259 . S
O223 Co193 2.069 . S
O223 C214 1.289 . S
O224 Co195 2.143 1_566 S
O224 C215 1.246 . S
O225 Co193 2.015 . S
O225 C215 1.257 . S
Co226 O229 2.042 1_556 S
Co226 O236 2.264 1_556 S
Co226 O255 2.286 . S
Co226 O256 2.069 . S
Co226 O258 2.015 1_455 S
Co227 O229 2.122 . S
Co227 O235 2.073 . S
Co227 O236 2.327 . S
Co227 O237 1.976 1_455 S
Co228 O229 2.094 . S
Co228 O231 2.080 1_454 S
Co228 O238 2.106 1_455 S
Co228 O239 2.147 . S
Co228 O243 2.116 1_554 S
Co228 O257 2.140 1_454 S
O229 Co226 2.042 1_554 S
O229 Co227 2.122 . S
O229 Co228 2.094 . S
O229 H230 0.980 . S
H230 O229 0.980 . S
O231 Co228 2.080 1_656 S
O231 Co232 2.042 1_556 S
O231 Co233 2.122 . S
O231 H234 0.980 . S
Co232 O231 2.042 1_554 S
Co232 O240 2.286 . S
Co232 O241 2.069 . S
Co232 O242 2.015 1_655 S
Co232 O245 2.264 1_554 S
Co233 O231 2.122 . S
Co233 O244 1.976 1_655 S
Co233 O245 2.327 . S
Co233 O246 2.073 . S
H234 O231 0.980 . S
O235 Co227 2.073 . S
O235 C250 1.245 . S
O236 Co226 2.264 1_554 S
O236 Co227 2.327 . S
O236 C250 1.257 . S
O237 Co227 1.976 1_655 S
O237 C249 1.251 . S
O238 Co228 2.106 1_655 S
O238 C249 1.274 . S
O239 Co228 2.147 . S
O239 C252 1.246 . S
O240 Co232 2.286 . S
O240 C251 1.259 . S
O241 Co232 2.069 . S
O241 C251 1.289 . S
O242 Co232 2.015 1_455 S
O242 C252 1.257 . S
O243 Co228 2.116 1_556 S
O243 C253 1.274 . S
O244 Co233 1.976 1_455 S
O244 C253 1.251 . S
O245 Co232 2.264 1_556 S
O245 Co233 2.327 . S
O245 C254 1.257 . S
O246 Co233 2.073 . S
O246 C254 1.245 . S
C247 O255 1.259 . S
C247 O256 1.289 . S
C248 O257 1.246 . S
C248 O258 1.257 . S
C249 O237 1.251 . S
C249 O238 1.274 . S
C250 O235 1.245 . S
C250 O236 1.257 . S
C251 O240 1.259 . S
C251 O241 1.289 . S
C252 O239 1.246 . S
C252 O242 1.257 . S
C253 O243 1.274 . S
C253 O244 1.251 . S
C254 O245 1.257 . S
C254 O246 1.245 . S
O255 Co226 2.286 . S
O255 C247 1.259 . S
O256 Co226 2.069 . S
O256 C247 1.289 . S
O257 Co228 2.140 1_656 S
O257 C248 1.246 . S
O258 Co226 2.015 1_655 S
O258 C248 1.257 . S
Co259 O262 2.042 1_556 S
Co259 O269 2.264 1_556 S
Co259 O288 2.286 . S
Co259 O289 2.069 . S
Co259 O291 2.015 . S
Co260 O262 2.122 . S
Co260 O268 2.073 . S
Co260 O269 2.327 . S
Co260 O270 1.976 . S
Co261 O262 2.087 . S
Co261 O264 2.087 1_554 S
Co261 O271 2.111 . S
Co261 O272 2.143 . S
Co261 O276 2.111 1_554 S
Co261 O290 2.143 1_554 S
O262 Co259 2.042 1_554 S
O262 Co260 2.122 . S
O262 Co261 2.087 . S
O262 H263 0.980 . S
H263 O262 0.980 . S
O264 Co261 2.087 1_556 S
O264 Co265 2.042 1_556 S
O264 Co266 2.122 . S
O264 H267 0.980 . S
Co265 O264 2.042 1_554 S
Co265 O273 2.286 . S
Co265 O274 2.069 . S
Co265 O275 2.015 . S
Co265 O278 2.264 1_554 S
Co266 O264 2.122 . S
Co266 O277 1.976 . S
Co266 O278 2.327 . S
Co266 O279 2.073 . S
H267 O264 0.980 . S
O268 Co260 2.073 . S
O268 C283 1.245 . S
O269 Co259 2.264 1_554 S
O269 Co260 2.327 . S
O269 C283 1.257 . S
O270 Co260 1.976 . S
O270 C282 1.251 . S
O271 Co261 2.111 . S
O271 C282 1.274 . S
O272 Co261 2.143 . S
O272 C285 1.246 . S
O273 Co265 2.286 . S
O273 C284 1.259 . S
O274 Co265 2.069 . S
O274 C284 1.289 . S
O275 Co265 2.015 . S
O275 C285 1.257 . S
O276 Co261 2.111 1_556 S
O276 C286 1.274 . S
O277 Co266 1.976 . S
O277 C286 1.251 . S
O278 Co265 2.264 1_556 S
O278 Co266 2.327 . S
O278 C287 1.257 . S
O279 Co266 2.073 . S
O279 C287 1.245 . S
C280 O288 1.259 . S
C280 O289 1.289 . S
C281 O290 1.246 . S
C281 O291 1.257 . S
C282 O270 1.251 . S
C282 O271 1.274 . S
C283 O268 1.245 . S
C283 O269 1.257 . S
C284 O273 1.259 . S
C284 O274 1.289 . S
C285 O272 1.246 . S
C285 O275 1.257 . S
C286 O276 1.274 . S
C286 O277 1.251 . S
C287 O278 1.257 . S
C287 O279 1.245 . S
O288 Co259 2.286 . S
O288 C280 1.259 . S
O289 Co259 2.069 . S
O289 C280 1.289 . S
O290 Co261 2.143 1_556 S
O290 C281 1.246 . S
O291 Co259 2.015 . S
O291 C281 1.257 . S
Co292 O295 2.042 . S
Co292 O302 2.264 . S
Co292 O321 2.286 . S
Co292 O322 2.069 . S
Co292 O324 2.015 . S
Co293 O295 2.122 . S
Co293 O301 2.073 . S
Co293 O302 2.327 . S
Co293 O303 1.976 . S
Co294 O295 2.094 . S
Co294 O297 2.080 1_455 S
Co294 O304 2.114 . S
Co294 O305 2.139 1_455 S
Co294 O309 2.109 1_455 S
Co294 O323 2.148 . S
O295 Co292 2.042 . S
O295 Co293 2.122 . S
O295 Co294 2.094 . S
O295 H296 0.980 . S
H296 O295 0.980 . S
O297 Co294 2.080 1_655 S
O297 Co298 2.042 . S
O297 Co299 2.122 . S
O297 H300 0.980 . S
Co298 O297 2.042 . S
Co298 O306 2.286 . S
Co298 O307 2.069 . S
Co298 O308 2.015 . S
Co298 O311 2.264 . S
Co299 O297 2.122 . S
Co299 O310 1.976 . S
Co299 O311 2.327 . S
Co299 O312 2.073 . S
H300 O297 0.980 . S
O301 Co293 2.073 . S
O301 C316 1.245 . S
O302 Co292 2.264 . S
O302 Co293 2.327 . S
O302 C316 1.257 . S
O303 Co293 1.976 . S
O303 C315 1.251 . S
O304 Co294 2.114 . S
O304 C315 1.274 . S
O305 Co294 2.139 1_655 S
O305 C318 1.246 . S
O306 Co298 2.286 . S
O306 C317 1.259 . S
O307 Co298 2.069 . S
O307 C317 1.289 . S
O308 Co298 2.015 . S
O308 C318 1.257 . S
O309 Co294 2.109 1_655 S
O309 C319 1.274 . S
O310 Co299 1.976 . S
O310 C319 1.251 . S
O311 Co298 2.264 . S
O311 Co299 2.327 . S
O311 C320 1.257 . S
O312 Co299 2.073 . S
O312 C320 1.245 . S
C313 O321 1.259 . S
C313 O322 1.289 . S
C314 O323 1.246 . S
C314 O324 1.257 . S
C315 O303 1.251 . S
C315 O304 1.274 . S
C316 O301 1.245 . S
C316 O302 1.257 . S
C317 O306 1.259 . S
C317 O307 1.289 . S
C318 O305 1.246 . S
C318 O308 1.257 . S
C319 O309 1.274 . S
C319 O310 1.251 . S
C320 O311 1.257 . S
C320 O312 1.245 . S
O321 Co292 2.286 . S
O321 C313 1.259 . S
O322 Co292 2.069 . S
O322 C313 1.289 . S
O323 Co294 2.148 . S
O323 C314 1.246 . S
O324 Co292 2.015 . S
O324 C314 1.257 . S
Co325 O328 2.042 . S
Co325 O335 2.264 . S
Co325 O354 2.286 . S
Co325 O355 2.069 . S
Co325 O357 2.015 1_565 S
Co326 O328 2.122 . S
Co326 O334 2.073 . S
Co326 O335 2.327 . S
Co326 O336 1.976 1_565 S
Co327 O328 2.087 1_545 S
Co327 O330 2.087 . S
Co327 O337 2.111 . S
Co327 O338 2.143 1_545 S
Co327 O342 2.111 1_545 S
Co327 O356 2.144 . S
O328 Co325 2.042 . S
O328 Co326 2.122 . S
O328 Co327 2.087 1_565 S
O328 H329 0.980 . S
H329 O328 0.980 . S
O330 Co327 2.087 . S
O330 Co331 2.042 . S
O330 Co332 2.122 . S
O330 H333 0.980 . S
Co331 O330 2.042 . S
Co331 O339 2.286 . S
Co331 O340 2.069 . S
Co331 O341 2.015 1_545 S
Co331 O344 2.264 . S
Co332 O330 2.122 . S
Co332 O343 1.976 1_545 S
Co332 O344 2.327 . S
Co332 O345 2.073 . S
H333 O330 0.980 . S
O334 Co326 2.073 . S
O334 C349 1.245 . S
O335 Co325 2.264 . S
O335 Co326 2.327 . S
O335 C349 1.257 . S
O336 Co326 1.976 1_545 S
O336 C348 1.251 . S
O337 Co327 2.111 . S
O337 C348 1.274 . S
O338 Co327 2.143 1_565 S
O338 C351 1.246 . S
O339 Co331 2.286 . S
O339 C350 1.259 . S
O340 Co331 2.069 . S
O340 C350 1.289 . S
O341 Co331 2.015 1_565 S
O341 C351 1.257 . S
O342 Co327 2.111 1_565 S
O342 C352 1.274 . S
O343 Co332 1.976 1_565 S
O343 C352 1.251 . S
O344 Co331 2.264 . S
O344 Co332 2.327 . S
O344 C353 1.257 . S
O345 Co332 2.073 . S
O345 C353 1.245 . S
C346 O354 1.259 . S
C346 O355 1.289 . S
C347 O356 1.246 . S
C347 O357 1.257 . S
C348 O336 1.251 . S
C348 O337 1.274 . S
C349 O334 1.245 . S
C349 O335 1.257 . S
C350 O339 1.259 . S
C350 O340 1.289 . S
C351 O338 1.246 . S
C351 O341 1.257 . S
C352 O342 1.274 . S
C352 O343 1.251 . S
C353 O344 1.257 . S
C353 O345 1.245 . S
O354 Co325 2.286 . S
O354 C346 1.259 . S
O355 Co325 2.069 . S
O355 C346 1.289 . S
O356 Co327 2.144 . S
O356 C347 1.246 . S
O357 Co325 2.015 1_545 S
O357 C347 1.257 . S
C358 C359 1.349 . S
C358 C360 1.327 . S
C358 H383 0.950 . S
C359 C358 1.349 . S
C359 C375 1.349 . S
C360 C358 1.327 . S
C360 C379 1.429 . S
C360 H384 0.950 . S
C361 C378 1.574 . S
C361 C380 1.368 . S
C361 H385 0.949 . S
H362 C366 0.949 . S
C363 C364 1.349 . S
C363 C365 1.327 . S
C363 H386 0.950 . S
C364 C363 1.349 . S
C364 C376 1.349 . S
C365 C363 1.327 . S
C365 C381 1.429 . S
C365 H387 0.950 . S
C366 H362 0.949 . S
C366 C374 1.574 . S
C366 C382 1.368 . S
H367 C375 0.950 . S
H368 C373 0.950 . S
H369 C374 0.949 . S
H370 C376 0.950 . S
H371 C377 0.950 . S
H372 C378 0.949 . S
C373 H368 0.950 . S
C373 C375 1.327 . S
C373 C379 1.429 . S
C374 C366 1.574 . S
C374 H369 0.949 . S
C374 C380 1.368 . S
C375 C359 1.349 . S
C375 H367 0.950 . S
C375 C373 1.327 . S
C376 C364 1.349 . S
C376 H370 0.950 . S
C376 C377 1.327 . S
C377 H371 0.950 . S
C377 C376 1.327 . S
C377 C381 1.429 . S
C378 C361 1.574 . S
C378 H372 0.949 . S
C378 C382 1.368 . S
C379 C360 1.429 . S
C379 C373 1.429 . S
C379 C380 1.523 . S
C380 C361 1.368 . S
C380 C374 1.368 . S
C380 C379 1.523 . S
C381 C365 1.429 . S
C381 C377 1.429 . S
C381 C382 1.523 . S
C382 C366 1.368 . S
C382 C378 1.368 . S
C382 C381 1.523 . S
H383 C358 0.950 . S
H384 C360 0.950 . S
H385 C361 0.949 . S
H386 C363 0.950 . S
H387 C365 0.950 . S
C388 C389 1.349 . S
C388 C390 1.327 . S
C388 H413 0.950 . S
C389 C388 1.349 . S
C389 C405 1.349 . S
C390 C388 1.327 . S
C390 C409 1.429 . S
C390 H414 0.950 . S
C391 C408 1.574 . S
C391 C410 1.368 . S
C391 H415 0.949 . S
H392 C396 0.949 . S
C393 C394 1.349 . S
C393 C395 1.327 . S
C393 H416 0.950 . S
C394 C393 1.349 . S
C394 C406 1.349 . S
C395 C393 1.327 . S
C395 C411 1.429 . S
C395 H417 0.950 . S
C396 H392 0.949 . S
C396 C404 1.574 . S
C396 C412 1.368 . S
H397 C405 0.950 . S
H398 C403 0.950 . S
H399 C404 0.949 . S
H400 C406 0.950 . S
H401 C407 0.950 . S
H402 C408 0.949 . S
C403 H398 0.950 . S
C403 C405 1.327 . S
C403 C409 1.429 . S
C404 C396 1.574 . S
C404 H399 0.949 . S
C404 C410 1.368 . S
C405 C389 1.349 . S
C405 H397 0.950 . S
C405 C403 1.327 . S
C406 C394 1.349 . S
C406 H400 0.950 . S
C406 C407 1.327 . S
C407 H401 0.950 . S
C407 C406 1.327 . S
C407 C411 1.429 . S
C408 C391 1.574 . S
C408 H402 0.949 . S
C408 C412 1.368 . S
C409 C390 1.429 . S
C409 C403 1.429 . S
C409 C410 1.523 . S
C410 C391 1.368 . S
C410 C404 1.368 . S
C410 C409 1.523 . S
C411 C395 1.429 . S
C411 C407 1.429 . S
C411 C412 1.523 . S
C412 C396 1.368 . S
C412 C408 1.368 . S
C412 C411 1.523 . S
H413 C388 0.950 . S
H414 C390 0.950 . S
H415 C391 0.949 . S
H416 C393 0.950 . S
H417 C395 0.950 . S
C418 C419 1.349 . S
C418 C420 1.327 . S
C418 H443 0.950 . S
C419 C418 1.349 . S
C419 C435 1.349 . S
C420 C418 1.327 . S
C420 C439 1.429 . S
C420 H444 0.950 . S
C421 C438 1.574 . S
C421 C440 1.368 . S
C421 H445 0.949 . S
H422 C426 0.949 . S
C423 C424 1.349 . S
C423 C425 1.327 . S
C423 H446 0.950 . S
C424 C423 1.349 . S
C424 C436 1.349 . S
C425 C423 1.327 . S
C425 C441 1.429 . S
C425 H447 0.950 . S
C426 H422 0.949 . S
C426 C434 1.574 . S
C426 C442 1.368 . S
H427 C435 0.950 . S
H428 C433 0.950 . S
H429 C434 0.949 . S
H430 C436 0.950 . S
H431 C437 0.950 . S
H432 C438 0.949 . S
C433 H428 0.950 . S
C433 C435 1.327 . S
C433 C439 1.429 . S
C434 C426 1.574 . S
C434 H429 0.949 . S
C434 C440 1.368 . S
C435 C419 1.349 . S
C435 H427 0.950 . S
C435 C433 1.327 . S
C436 C424 1.349 . S
C436 H430 0.950 . S
C436 C437 1.327 . S
C437 H431 0.950 . S
C437 C436 1.327 . S
C437 C441 1.429 . S
C438 C421 1.574 . S
C438 H432 0.949 . S
C438 C442 1.368 . S
C439 C420 1.429 . S
C439 C433 1.429 . S
C439 C440 1.523 . S
C440 C421 1.368 . S
C440 C434 1.368 . S
C440 C439 1.523 . S
C441 C425 1.429 . S
C441 C437 1.429 . S
C441 C442 1.523 . S
C442 C426 1.368 . S
C442 C438 1.368 . S
C442 C441 1.523 . S
H443 C418 0.950 . S
H444 C420 0.950 . S
H445 C421 0.949 . S
H446 C423 0.950 . S
H447 C425 0.950 . S
C448 C449 1.349 . S
C448 C450 1.327 . S
C448 H473 0.950 . S
C449 C448 1.349 . S
C449 C465 1.349 . S
C450 C448 1.327 . S
C450 C469 1.429 . S
C450 H474 0.950 . S
C451 C468 1.574 . S
C451 C470 1.368 . S
C451 H475 0.949 . S
H452 C456 0.949 . S
C453 C454 1.349 . S
C453 C455 1.327 . S
C453 H476 0.950 . S
C454 C453 1.349 . S
C454 C466 1.349 . S
C455 C453 1.327 . S
C455 C471 1.429 . S
C455 H477 0.950 . S
C456 H452 0.949 . S
C456 C464 1.574 . S
C456 C472 1.368 . S
H457 C465 0.950 . S
H458 C463 0.950 . S
H459 C464 0.949 . S
H460 C466 0.950 . S
H461 C467 0.950 . S
H462 C468 0.949 . S
C463 H458 0.950 . S
C463 C465 1.327 . S
C463 C469 1.429 . S
C464 C456 1.574 . S
C464 H459 0.949 . S
C464 C470 1.368 . S
C465 C449 1.349 . S
C465 H457 0.950 . S
C465 C463 1.327 . S
C466 C454 1.349 . S
C466 H460 0.950 . S
C466 C467 1.327 . S
C467 H461 0.950 . S
C467 C466 1.327 . S
C467 C471 1.429 . S
C468 C451 1.574 . S
C468 H462 0.949 . S
C468 C472 1.368 . S
C469 C450 1.429 . S
C469 C463 1.429 . S
C469 C470 1.523 . S
C470 C451 1.368 . S
C470 C464 1.368 . S
C470 C469 1.523 . S
C471 C455 1.429 . S
C471 C467 1.429 . S
C471 C472 1.523 . S
C472 C456 1.368 . S
C472 C468 1.368 . S
C472 C471 1.523 . S
H473 C448 0.950 . S
H474 C450 0.950 . S
H475 C451 0.949 . S
H476 C453 0.950 . S
H477 C455 0.950 . S
C478 C479 1.349 . S
C478 C480 1.327 . S
C478 H503 0.950 . S
C479 C478 1.349 . S
C479 C495 1.349 . S
C480 C478 1.327 . S
C480 C499 1.429 . S
C480 H504 0.950 . S
C481 C498 1.574 . S
C481 C500 1.368 . S
C481 H505 0.949 . S
H482 C486 0.949 . S
C483 C484 1.349 . S
C483 C485 1.327 . S
C483 H506 0.950 . S
C484 C483 1.349 . S
C484 C496 1.349 . S
C485 C483 1.327 . S
C485 C501 1.429 . S
C485 H507 0.950 . S
C486 H482 0.949 . S
C486 C494 1.574 . S
C486 C502 1.368 . S
H487 C495 0.950 . S
H488 C493 0.950 . S
H489 C494 0.949 . S
H490 C496 0.950 . S
H491 C497 0.950 . S
H492 C498 0.949 . S
C493 H488 0.950 . S
C493 C495 1.327 . S
C493 C499 1.429 . S
C494 C486 1.574 . S
C494 H489 0.949 . S
C494 C500 1.368 . S
C495 C479 1.349 . S
C495 H487 0.950 . S
C495 C493 1.327 . S
C496 C484 1.349 . S
C496 H490 0.950 . S
C496 C497 1.327 . S
C497 H491 0.950 . S
C497 C496 1.327 . S
C497 C501 1.429 . S
C498 C481 1.574 . S
C498 H492 0.949 . S
C498 C502 1.368 . S
C499 C480 1.429 . S
C499 C493 1.429 . S
C499 C500 1.523 . S
C500 C481 1.368 . S
C500 C494 1.368 . S
C500 C499 1.523 . S
C501 C485 1.429 . S
C501 C497 1.429 . S
C501 C502 1.523 . S
C502 C486 1.368 . S
C502 C498 1.368 . S
C502 C501 1.523 . S
H503 C478 0.950 . S
H504 C480 0.950 . S
H505 C481 0.949 . S
H506 C483 0.950 . S
H507 C485 0.950 . S
C508 C509 1.349 . S
C508 C510 1.327 . S
C508 H533 0.950 . S
C509 C508 1.349 . S
C509 C525 1.349 . S
C510 C508 1.327 . S
C510 C529 1.429 . S
C510 H534 0.950 . S
C511 C528 1.574 . S
C511 C530 1.368 . S
C511 H535 0.949 . S
H512 C516 0.949 . S
C513 C514 1.349 . S
C513 C515 1.327 . S
C513 H536 0.950 . S
C514 C513 1.349 . S
C514 C526 1.349 . S
C515 C513 1.327 . S
C515 C531 1.429 . S
C515 H537 0.950 . S
C516 H512 0.949 . S
C516 C524 1.574 . S
C516 C532 1.368 . S
H517 C525 0.950 . S
H518 C523 0.950 . S
H519 C524 0.949 . S
H520 C526 0.950 . S
H521 C527 0.950 . S
H522 C528 0.949 . S
C523 H518 0.950 . S
C523 C525 1.327 . S
C523 C529 1.429 . S
C524 C516 1.574 . S
C524 H519 0.949 . S
C524 C530 1.368 . S
C525 C509 1.349 . S
C525 H517 0.950 . S
C525 C523 1.327 . S
C526 C514 1.349 . S
C526 H520 0.950 . S
C526 C527 1.327 . S
C527 H521 0.950 . S
C527 C526 1.327 . S
C527 C531 1.429 . S
C528 C511 1.574 . S
C528 H522 0.949 . S
C528 C532 1.368 . S
C529 C510 1.429 . S
C529 C523 1.429 . S
C529 C530 1.523 . S
C530 C511 1.368 . S
C530 C524 1.368 . S
C530 C529 1.523 . S
C531 C515 1.429 . S
C531 C527 1.429 . S
C531 C532 1.523 . S
C532 C516 1.368 . S
C532 C528 1.368 . S
C532 C531 1.523 . S
H533 C508 0.950 . S
H534 C510 0.950 . S
H535 C511 0.949 . S
H536 C513 0.950 . S
H537 C515 0.950 . S
C538 C539 1.349 . S
C538 C540 1.327 . S
C538 H563 0.950 . S
C539 C538 1.349 . S
C539 C555 1.349 . S
C540 C538 1.327 . S
C540 C559 1.429 . S
C540 H564 0.950 . S
C541 C558 1.574 . S
C541 C560 1.368 . S
C541 H565 0.949 . S
H542 C546 0.949 . S
C543 C544 1.349 . S
C543 C545 1.327 . S
C543 H566 0.950 . S
C544 C543 1.349 . S
C544 C556 1.349 . S
C545 C543 1.327 . S
C545 C561 1.429 . S
C545 H567 0.950 . S
C546 H542 0.949 . S
C546 C554 1.574 . S
C546 C562 1.368 . S
H547 C555 0.950 . S
H548 C553 0.950 . S
H549 C554 0.949 . S
H550 C556 0.950 . S
H551 C557 0.950 . S
H552 C558 0.949 . S
C553 H548 0.950 . S
C553 C555 1.327 . S
C553 C559 1.429 . S
C554 C546 1.574 . S
C554 H549 0.949 . S
C554 C560 1.368 . S
C555 C539 1.349 . S
C555 H547 0.950 . S
C555 C553 1.327 . S
C556 C544 1.349 . S
C556 H550 0.950 . S
C556 C557 1.327 . S
C557 H551 0.950 . S
C557 C556 1.327 . S
C557 C561 1.429 . S
C558 C541 1.574 . S
C558 H552 0.949 . S
C558 C562 1.368 . S
C559 C540 1.429 . S
C559 C553 1.429 . S
C559 C560 1.523 . S
C560 C541 1.368 . S
C560 C554 1.368 . S
C560 C559 1.523 . S
C561 C545 1.429 . S
C561 C557 1.429 . S
C561 C562 1.523 . S
C562 C546 1.368 . S
C562 C558 1.368 . S
C562 C561 1.523 . S
H563 C538 0.950 . S
H564 C540 0.950 . S
H565 C541 0.949 . S
H566 C543 0.950 . S
H567 C545 0.950 . S
C568 C569 1.349 . S
C568 C570 1.327 . S
C568 H593 0.950 . S
C569 C568 1.349 . S
C569 C585 1.349 . S
C570 C568 1.327 . S
C570 C589 1.429 . S
C570 H594 0.950 . S
C571 C588 1.574 . S
C571 C590 1.368 . S
C571 H595 0.949 . S
H572 C576 0.949 . S
C573 C574 1.349 . S
C573 C575 1.327 . S
C573 H596 0.950 . S
C574 C573 1.349 . S
C574 C586 1.349 . S
C575 C573 1.327 . S
C575 C591 1.429 . S
C575 H597 0.950 . S
C576 H572 0.949 . S
C576 C584 1.574 . S
C576 C592 1.368 . S
H577 C585 0.950 . S
H578 C583 0.950 . S
H579 C584 0.949 . S
H580 C586 0.950 . S
H581 C587 0.950 . S
H582 C588 0.949 . S
C583 H578 0.950 . S
C583 C585 1.327 . S
C583 C589 1.429 . S
C584 C576 1.574 . S
C584 H579 0.949 . S
C584 C590 1.368 . S
C585 C569 1.349 . S
C585 H577 0.950 . S
C585 C583 1.327 . S
C586 C574 1.349 . S
C586 H580 0.950 . S
C586 C587 1.327 . S
C587 H581 0.950 . S
C587 C586 1.327 . S
C587 C591 1.429 . S
C588 C571 1.574 . S
C588 H582 0.949 . S
C588 C592 1.368 . S
C589 C570 1.429 . S
C589 C583 1.429 . S
C589 C590 1.523 . S
C590 C571 1.368 . S
C590 C584 1.368 . S
C590 C589 1.523 . S
C591 C575 1.429 . S
C591 C587 1.429 . S
C591 C592 1.523 . S
C592 C576 1.368 . S
C592 C588 1.368 . S
C592 C591 1.523 . S
H593 C568 0.950 . S
H594 C570 0.950 . S
H595 C571 0.949 . S
H596 C573 0.950 . S
H597 C575 0.950 . S
C598 C599 1.349 . S
C598 C600 1.327 . S
C598 H623 0.950 . S
C599 C598 1.349 . S
C599 C615 1.349 . S
C600 C598 1.327 . S
C600 C619 1.429 . S
C600 H624 0.950 . S
C601 C618 1.574 . S
C601 C620 1.368 . S
C601 H625 0.949 . S
H602 C606 0.949 . S
C603 C604 1.349 . S
C603 C605 1.327 . S
C603 H626 0.950 . S
C604 C603 1.349 . S
C604 C616 1.349 . S
C605 C603 1.327 . S
C605 C621 1.429 . S
C605 H627 0.950 . S
C606 H602 0.949 . S
C606 C614 1.574 . S
C606 C622 1.368 . S
H607 C615 0.950 . S
H608 C613 0.950 . S
H609 C614 0.949 . S
H610 C616 0.950 . S
H611 C617 0.950 . S
H612 C618 0.949 . S
C613 H608 0.950 . S
C613 C615 1.327 . S
C613 C619 1.429 . S
C614 C606 1.574 . S
C614 H609 0.949 . S
C614 C620 1.368 . S
C615 C599 1.349 . S
C615 H607 0.950 . S
C615 C613 1.327 . S
C616 C604 1.349 . S
C616 H610 0.950 . S
C616 C617 1.327 . S
C617 H611 0.950 . S
C617 C616 1.327 . S
C617 C621 1.429 . S
C618 C601 1.574 . S
C618 H612 0.949 . S
C618 C622 1.368 . S
C619 C600 1.429 . S
C619 C613 1.429 . S
C619 C620 1.523 . S
C620 C601 1.368 . S
C620 C614 1.368 . S
C620 C619 1.523 . S
C621 C605 1.429 . S
C621 C617 1.429 . S
C621 C622 1.523 . S
C622 C606 1.368 . S
C622 C618 1.368 . S
C622 C621 1.523 . S
H623 C598 0.950 . S
H624 C600 0.950 . S
H625 C601 0.949 . S
H626 C603 0.950 . S
H627 C605 0.950 . S
C628 C629 1.349 . S
C628 C630 1.327 . S
C628 H653 0.950 . S
C629 C628 1.349 . S
C629 C645 1.349 . S
C630 C628 1.327 . S
C630 C649 1.429 . S
C630 H654 0.950 . S
C631 C648 1.574 . S
C631 C650 1.368 . S
C631 H655 0.949 . S
H632 C636 0.949 . S
C633 C634 1.349 . S
C633 C635 1.327 . S
C633 H656 0.950 . S
C634 C633 1.349 . S
C634 C646 1.349 . S
C635 C633 1.327 . S
C635 C651 1.429 . S
C635 H657 0.950 . S
C636 H632 0.949 . S
C636 C644 1.574 . S
C636 C652 1.368 . S
H637 C645 0.950 . S
H638 C643 0.950 . S
H639 C644 0.949 . S
H640 C646 0.950 . S
H641 C647 0.950 . S
H642 C648 0.949 . S
C643 H638 0.950 . S
C643 C645 1.327 . S
C643 C649 1.429 . S
C644 C636 1.574 . S
C644 H639 0.949 . S
C644 C650 1.368 . S
C645 C629 1.349 . S
C645 H637 0.950 . S
C645 C643 1.327 . S
C646 C634 1.349 . S
C646 H640 0.950 . S
C646 C647 1.327 . S
C647 H641 0.950 . S
C647 C646 1.327 . S
C647 C651 1.429 . S
C648 C631 1.574 . S
C648 H642 0.949 . S
C648 C652 1.368 . S
C649 C630 1.429 . S
C649 C643 1.429 . S
C649 C650 1.523 . S
C650 C631 1.368 . S
C650 C644 1.368 . S
C650 C649 1.523 . S
C651 C635 1.429 . S
C651 C647 1.429 . S
C651 C652 1.523 . S
C652 C636 1.368 . S
C652 C648 1.368 . S
C652 C651 1.523 . S
H653 C628 0.950 . S
H654 C630 0.950 . S
H655 C631 0.949 . S
H656 C633 0.950 . S
H657 C635 0.950 . S
C658 C659 1.349 . S
C658 C660 1.327 . S
C658 H683 0.950 . S
C659 C658 1.349 . S
C659 C675 1.349 . S
C660 C658 1.327 . S
C660 C679 1.429 . S
C660 H684 0.950 . S
C661 C678 1.574 . S
C661 C680 1.368 . S
C661 H685 0.949 . S
H662 C666 0.949 . S
C663 C664 1.349 . S
C663 C665 1.327 . S
C663 H686 0.950 . S
C664 C663 1.349 . S
C664 C676 1.349 . S
C665 C663 1.327 . S
C665 C681 1.429 . S
C665 H687 0.950 . S
C666 H662 0.949 . S
C666 C674 1.574 . S
C666 C682 1.368 . S
H667 C675 0.950 . S
H668 C673 0.950 . S
H669 C674 0.949 . S
H670 C676 0.950 . S
H671 C677 0.950 . S
H672 C678 0.949 . S
C673 H668 0.950 . S
C673 C675 1.327 . S
C673 C679 1.429 . S
C674 C666 1.574 . S
C674 H669 0.949 . S
C674 C680 1.368 . S
C675 C659 1.349 . S
C675 H667 0.950 . S
C675 C673 1.327 . S
C676 C664 1.349 . S
C676 H670 0.950 . S
C676 C677 1.327 . S
C677 H671 0.950 . S
C677 C676 1.327 . S
C677 C681 1.429 . S
C678 C661 1.574 . S
C678 H672 0.949 . S
C678 C682 1.368 . S
C679 C660 1.429 . S
C679 C673 1.429 . S
C679 C680 1.523 . S
C680 C661 1.368 . S
C680 C674 1.368 . S
C680 C679 1.523 . S
C681 C665 1.429 . S
C681 C677 1.429 . S
C681 C682 1.523 . S
C682 C666 1.368 . S
C682 C678 1.368 . S
C682 C681 1.523 . S
H683 C658 0.950 . S
H684 C660 0.950 . S
H685 C661 0.949 . S
H686 C663 0.950 . S
H687 C665 0.950 . S
C688 C689 1.349 . S
C688 C690 1.327 . S
C688 H713 0.950 . S
C689 C688 1.349 . S
C689 C705 1.349 . S
C690 C688 1.327 . S
C690 C709 1.429 . S
C690 H714 0.950 . S
C691 C708 1.574 . S
C691 C710 1.368 . S
C691 H715 0.949 . S
H692 C696 0.949 . S
C693 C694 1.349 . S
C693 C695 1.327 . S
C693 H716 0.950 . S
C694 C693 1.349 . S
C694 C706 1.349 . S
C695 C693 1.327 . S
C695 C711 1.429 . S
C695 H717 0.950 . S
C696 H692 0.949 . S
C696 C704 1.574 . S
C696 C712 1.368 . S
H697 C705 0.950 . S
H698 C703 0.950 . S
H699 C704 0.949 . S
H700 C706 0.950 . S
H701 C707 0.950 . S
H702 C708 0.949 . S
C703 H698 0.950 . S
C703 C705 1.327 . S
C703 C709 1.429 . S
C704 C696 1.574 . S
C704 H699 0.949 . S
C704 C710 1.368 . S
C705 C689 1.349 . S
C705 H697 0.950 . S
C705 C703 1.327 . S
C706 C694 1.349 . S
C706 H700 0.950 . S
C706 C707 1.327 . S
C707 H701 0.950 . S
C707 C706 1.327 . S
C707 C711 1.429 . S
C708 C691 1.574 . S
C708 H702 0.949 . S
C708 C712 1.368 . S
C709 C690 1.429 . S
C709 C703 1.429 . S
C709 C710 1.523 . S
C710 C691 1.368 . S
C710 C704 1.368 . S
C710 C709 1.523 . S
C711 C695 1.429 . S
C711 C707 1.429 . S
C711 C712 1.523 . S
C712 C696 1.368 . S
C712 C708 1.368 . S
C712 C711 1.523 . S
H713 C688 0.950 . S
H714 C690 0.950 . S
H715 C691 0.949 . S
H716 C693 0.950 . S
H717 C695 0.950 . S
C718 C719 1.349 . S
C718 C720 1.327 . S
C718 H743 0.950 . S
C719 C718 1.349 . S
C719 C735 1.349 . S
C720 C718 1.327 . S
C720 C739 1.429 . S
C720 H744 0.950 . S
C721 C738 1.574 . S
C721 C740 1.368 . S
C721 H745 0.949 . S
H722 C726 0.949 . S
C723 C724 1.349 . S
C723 C725 1.327 . S
C723 H746 0.950 . S
C724 C723 1.349 . S
C724 C736 1.349 . S
C725 C723 1.327 . S
C725 C741 1.429 . S
C725 H747 0.950 . S
C726 H722 0.949 . S
C726 C734 1.574 . S
C726 C742 1.368 . S
H727 C735 0.950 . S
H728 C733 0.950 . S
H729 C734 0.949 . S
H730 C736 0.950 . S
H731 C737 0.950 . S
H732 C738 0.949 . S
C733 H728 0.950 . S
C733 C735 1.327 . S
C733 C739 1.429 . S
C734 C726 1.574 . S
C734 H729 0.949 . S
C734 C740 1.368 . S
C735 C719 1.349 . S
C735 H727 0.950 . S
C735 C733 1.327 . S
C736 C724 1.349 . S
C736 H730 0.950 . S
C736 C737 1.327 . S
C737 H731 0.950 . S
C737 C736 1.327 . S
C737 C741 1.429 . S
C738 C721 1.574 . S
C738 H732 0.949 . S
C738 C742 1.368 . S
C739 C720 1.429 . S
C739 C733 1.429 . S
C739 C740 1.523 . S
C740 C721 1.368 . S
C740 C734 1.368 . S
C740 C739 1.523 . S
C741 C725 1.429 . S
C741 C737 1.429 . S
C741 C742 1.523 . S
C742 C726 1.368 . S
C742 C738 1.368 . S
C742 C741 1.523 . S
H743 C718 0.950 . S
H744 C720 0.950 . S
H745 C721 0.949 . S
H746 C723 0.950 . S
H747 C725 0.950 . S
C748 C749 1.349 . S
C748 C750 1.327 . S
C748 H773 0.950 . S
C749 C748 1.349 . S
C749 C765 1.349 . S
C750 C748 1.327 . S
C750 C769 1.429 . S
C750 H774 0.950 . S
C751 C768 1.574 . S
C751 C770 1.368 . S
C751 H775 0.949 . S
H752 C756 0.949 . S
C753 C754 1.349 . S
C753 C755 1.327 . S
C753 H776 0.950 . S
C754 C753 1.349 . S
C754 C766 1.349 . S
C755 C753 1.327 . S
C755 C771 1.429 . S
C755 H777 0.950 . S
C756 H752 0.949 . S
C756 C764 1.574 . S
C756 C772 1.368 . S
H757 C765 0.950 . S
H758 C763 0.950 . S
H759 C764 0.949 . S
H760 C766 0.950 . S
H761 C767 0.950 . S
H762 C768 0.949 . S
C763 H758 0.950 . S
C763 C765 1.327 . S
C763 C769 1.429 . S
C764 C756 1.574 . S
C764 H759 0.949 . S
C764 C770 1.368 . S
C765 C749 1.349 . S
C765 H757 0.950 . S
C765 C763 1.327 . S
C766 C754 1.349 . S
C766 H760 0.950 . S
C766 C767 1.327 . S
C767 H761 0.950 . S
C767 C766 1.327 . S
C767 C771 1.429 . S
C768 C751 1.574 . S
C768 H762 0.949 . S
C768 C772 1.368 . S
C769 C750 1.429 . S
C769 C763 1.429 . S
C769 C770 1.523 . S
C770 C751 1.368 . S
C770 C764 1.368 . S
C770 C769 1.523 . S
C771 C755 1.429 . S
C771 C767 1.429 . S
C771 C772 1.523 . S
C772 C756 1.368 . S
C772 C768 1.368 . S
C772 C771 1.523 . S
H773 C748 0.950 . S
H774 C750 0.950 . S
H775 C751 0.949 . S
H776 C753 0.950 . S
H777 C755 0.950 . S
C778 C779 1.349 . S
C778 C780 1.327 . S
C778 H803 0.950 . S
C779 C778 1.349 . S
C779 C795 1.349 . S
C780 C778 1.327 . S
C780 C799 1.429 . S
C780 H804 0.950 . S
C781 C798 1.574 . S
C781 C800 1.368 . S
C781 H805 0.949 . S
H782 C786 0.949 . S
C783 C784 1.349 . S
C783 C785 1.327 . S
C783 H806 0.950 . S
C784 C783 1.349 . S
C784 C796 1.349 . S
C785 C783 1.327 . S
C785 C801 1.429 . S
C785 H807 0.950 . S
C786 H782 0.949 . S
C786 C794 1.574 . S
C786 C802 1.368 . S
H787 C795 0.950 . S
H788 C793 0.950 . S
H789 C794 0.949 . S
H790 C796 0.950 . S
H791 C797 0.950 . S
H792 C798 0.949 . S
C793 H788 0.950 . S
C793 C795 1.327 . S
C793 C799 1.429 . S
C794 C786 1.574 . S
C794 H789 0.949 . S
C794 C800 1.368 . S
C795 C779 1.349 . S
C795 H787 0.950 . S
C795 C793 1.327 . S
C796 C784 1.349 . S
C796 H790 0.950 . S
C796 C797 1.327 . S
C797 H791 0.950 . S
C797 C796 1.327 . S
C797 C801 1.429 . S
C798 C781 1.574 . S
C798 H792 0.949 . S
C798 C802 1.368 . S
C799 C780 1.429 . S
C799 C793 1.429 . S
C799 C800 1.523 . S
C800 C781 1.368 . S
C800 C794 1.368 . S
C800 C799 1.523 . S
C801 C785 1.429 . S
C801 C797 1.429 . S
C801 C802 1.523 . S
C802 C786 1.368 . S
C802 C798 1.368 . S
C802 C801 1.523 . S
H803 C778 0.950 . S
H804 C780 0.950 . S
H805 C781 0.949 . S
H806 C783 0.950 . S
H807 C785 0.950 . S
C808 C809 1.349 . S
C808 C810 1.327 . S
C808 H833 0.950 . S
C809 C808 1.349 . S
C809 C825 1.349 . S
C810 C808 1.327 . S
C810 C829 1.429 . S
C810 H834 0.950 . S
C811 C828 1.574 . S
C811 C830 1.368 . S
C811 H835 0.949 . S
H812 C816 0.949 . S
C813 C814 1.349 . S
C813 C815 1.327 . S
C813 H836 0.950 . S
C814 C813 1.349 . S
C814 C826 1.349 . S
C815 C813 1.327 . S
C815 C831 1.429 . S
C815 H837 0.950 . S
C816 H812 0.949 . S
C816 C824 1.574 . S
C816 C832 1.368 . S
H817 C825 0.950 . S
H818 C823 0.950 . S
H819 C824 0.949 . S
H820 C826 0.950 . S
H821 C827 0.950 . S
H822 C828 0.949 . S
C823 H818 0.950 . S
C823 C825 1.327 . S
C823 C829 1.429 . S
C824 C816 1.574 . S
C824 H819 0.949 . S
C824 C830 1.368 . S
C825 C809 1.349 . S
C825 H817 0.950 . S
C825 C823 1.327 . S
C826 C814 1.349 . S
C826 H820 0.950 . S
C826 C827 1.327 . S
C827 H821 0.950 . S
C827 C826 1.327 . S
C827 C831 1.429 . S
C828 C811 1.574 . S
C828 H822 0.949 . S
C828 C832 1.368 . S
C829 C810 1.429 . S
C829 C823 1.429 . S
C829 C830 1.523 . S
C830 C811 1.368 . S
C830 C824 1.368 . S
C830 C829 1.523 . S
C831 C815 1.429 . S
C831 C827 1.429 . S
C831 C832 1.523 . S
C832 C816 1.368 . S
C832 C828 1.368 . S
C832 C831 1.523 . S
H833 C808 0.950 . S
H834 C810 0.950 . S
H835 C811 0.949 . S
H836 C813 0.950 . S
H837 C815 0.950 . S
C838 C839 1.349 . S
C838 C840 1.327 . S
C838 H863 0.950 . S
C839 C838 1.349 . S
C839 C855 1.349 . S
C840 C838 1.327 . S
C840 C859 1.429 . S
C840 H864 0.950 . S
C841 C858 1.574 . S
C841 C860 1.368 . S
C841 H865 0.949 . S
H842 C846 0.949 . S
C843 C844 1.349 . S
C843 C845 1.327 . S
C843 H866 0.950 . S
C844 C843 1.349 . S
C844 C856 1.349 . S
C845 C843 1.327 . S
C845 C861 1.429 . S
C845 H867 0.950 . S
C846 H842 0.949 . S
C846 C854 1.574 . S
C846 C862 1.368 . S
H847 C855 0.950 . S
H848 C853 0.950 . S
H849 C854 0.949 . S
H850 C856 0.950 . S
H851 C857 0.950 . S
H852 C858 0.949 . S
C853 H848 0.950 . S
C853 C855 1.327 . S
C853 C859 1.429 . S
C854 C846 1.574 . S
C854 H849 0.949 . S
C854 C860 1.368 . S
C855 C839 1.349 . S
C855 H847 0.950 . S
C855 C853 1.327 . S
C856 C844 1.349 . S
C856 H850 0.950 . S
C856 C857 1.327 . S
C857 H851 0.950 . S
C857 C856 1.327 . S
C857 C861 1.429 . S
C858 C841 1.574 . S
C858 H852 0.949 . S
C858 C862 1.368 . S
C859 C840 1.429 . S
C859 C853 1.429 . S
C859 C860 1.523 . S
C860 C841 1.368 . S
C860 C854 1.368 . S
C860 C859 1.523 . S
C861 C845 1.429 . S
C861 C857 1.429 . S
C861 C862 1.523 . S
C862 C846 1.368 . S
C862 C858 1.368 . S
C862 C861 1.523 . S
H863 C838 0.950 . S
H864 C840 0.950 . S
H865 C841 0.949 . S
H866 C843 0.950 . S
H867 C845 0.950 . S
C868 C869 1.349 . S
C868 C870 1.327 . S
C868 H893 0.950 . S
C869 C868 1.349 . S
C869 C885 1.349 . S
C870 C868 1.327 . S
C870 C889 1.429 . S
C870 H894 0.950 . S
C871 C888 1.574 . S
C871 C890 1.368 . S
C871 H895 0.949 . S
H872 C876 0.949 . S
C873 C874 1.349 . S
C873 C875 1.327 . S
C873 H896 0.950 . S
C874 C873 1.349 . S
C874 C886 1.349 . S
C875 C873 1.327 . S
C875 C891 1.429 . S
C875 H897 0.950 . S
C876 H872 0.949 . S
C876 C884 1.574 . S
C876 C892 1.368 . S
H877 C885 0.950 . S
H878 C883 0.950 . S
H879 C884 0.949 . S
H880 C886 0.950 . S
H881 C887 0.950 . S
H882 C888 0.949 . S
C883 H878 0.950 . S
C883 C885 1.327 . S
C883 C889 1.429 . S
C884 C876 1.574 . S
C884 H879 0.949 . S
C884 C890 1.368 . S
C885 C869 1.349 . S
C885 H877 0.950 . S
C885 C883 1.327 . S
C886 C874 1.349 . S
C886 H880 0.950 . S
C886 C887 1.327 . S
C887 H881 0.950 . S
C887 C886 1.327 . S
C887 C891 1.429 . S
C888 C871 1.574 . S
C888 H882 0.949 . S
C888 C892 1.368 . S
C889 C870 1.429 . S
C889 C883 1.429 . S
C889 C890 1.523 . S
C890 C871 1.368 . S
C890 C884 1.368 . S
C890 C889 1.523 . S
C891 C875 1.429 . S
C891 C887 1.429 . S
C891 C892 1.523 . S
C892 C876 1.368 . S
C892 C888 1.368 . S
C892 C891 1.523 . S
H893 C868 0.950 . S
H894 C870 0.950 . S
H895 C871 0.949 . S
H896 C873 0.950 . S
H897 C875 0.950 . S
C898 C899 1.349 . S
C898 C900 1.327 . S
C898 H923 0.950 . S
C899 C898 1.349 . S
C899 C915 1.349 . S
C900 C898 1.327 . S
C900 C919 1.429 . S
C900 H924 0.950 . S
C901 C918 1.574 . S
C901 C920 1.368 . S
C901 H925 0.949 . S
H902 C906 0.949 . S
C903 C904 1.349 . S
C903 C905 1.327 . S
C903 H926 0.950 . S
C904 C903 1.349 . S
C904 C916 1.349 . S
C905 C903 1.327 . S
C905 C921 1.429 . S
C905 H927 0.950 . S
C906 H902 0.949 . S
C906 C914 1.574 . S
C906 C922 1.368 . S
H907 C915 0.950 . S
H908 C913 0.950 . S
H909 C914 0.949 . S
H910 C916 0.950 . S
H911 C917 0.950 . S
H912 C918 0.949 . S
C913 H908 0.950 . S
C913 C915 1.327 . S
C913 C919 1.429 . S
C914 C906 1.574 . S
C914 H909 0.949 . S
C914 C920 1.368 . S
C915 C899 1.349 . S
C915 H907 0.950 . S
C915 C913 1.327 . S
C916 C904 1.349 . S
C916 H910 0.950 . S
C916 C917 1.327 . S
C917 H911 0.950 . S
C917 C916 1.327 . S
C917 C921 1.429 . S
C918 C901 1.574 . S
C918 H912 0.949 . S
C918 C922 1.368 . S
C919 C900 1.429 . S
C919 C913 1.429 . S
C919 C920 1.523 . S
C920 C901 1.368 . S
C920 C914 1.368 . S
C920 C919 1.523 . S
C921 C905 1.429 . S
C921 C917 1.429 . S
C921 C922 1.523 . S
C922 C906 1.368 . S
C922 C918 1.368 . S
C922 C921 1.523 . S
H923 C898 0.950 . S
H924 C900 0.950 . S
H925 C901 0.949 . S
H926 C903 0.950 . S
H927 C905 0.950 . S
C928 C929 1.349 . S
C928 C930 1.327 . S
C928 H953 0.950 . S
C929 C928 1.349 . S
C929 C945 1.349 . S
C930 C928 1.327 . S
C930 C949 1.429 . S
C930 H954 0.950 . S
C931 C948 1.574 . S
C931 C950 1.368 . S
C931 H955 0.949 . S
H932 C936 0.949 . S
C933 C934 1.349 . S
C933 C935 1.327 . S
C933 H956 0.950 . S
C934 C933 1.349 . S
C934 C946 1.349 . S
C935 C933 1.327 . S
C935 C951 1.429 . S
C935 H957 0.950 . S
C936 H932 0.949 . S
C936 C944 1.574 . S
C936 C952 1.368 . S
H937 C945 0.950 . S
H938 C943 0.950 . S
H939 C944 0.949 . S
H940 C946 0.950 . S
H941 C947 0.950 . S
H942 C948 0.949 . S
C943 H938 0.950 . S
C943 C945 1.327 . S
C943 C949 1.429 . S
C944 C936 1.574 . S
C944 H939 0.949 . S
C944 C950 1.368 . S
C945 C929 1.349 . S
C945 H937 0.950 . S
C945 C943 1.327 . S
C946 C934 1.349 . S
C946 H940 0.950 . S
C946 C947 1.327 . S
C947 H941 0.950 . S
C947 C946 1.327 . S
C947 C951 1.429 . S
C948 C931 1.574 . S
C948 H942 0.949 . S
C948 C952 1.368 . S
C949 C930 1.429 . S
C949 C943 1.429 . S
C949 C950 1.523 . S
C950 C931 1.368 . S
C950 C944 1.368 . S
C950 C949 1.523 . S
C951 C935 1.429 . S
C951 C947 1.429 . S
C951 C952 1.523 . S
C952 C936 1.368 . S
C952 C948 1.368 . S
C952 C951 1.523 . S
H953 C928 0.950 . S
H954 C930 0.950 . S
H955 C931 0.949 . S
H956 C933 0.950 . S
H957 C935 0.950 . S
C958 C959 1.349 . S
C958 C960 1.327 . S
C958 H983 0.950 . S
C959 C958 1.349 . S
C959 C975 1.349 . S
C960 C958 1.327 . S
C960 C979 1.429 . S
C960 H984 0.950 . S
C961 C978 1.574 . S
C961 C980 1.368 . S
C961 H985 0.949 . S
H962 C966 0.949 . S
C963 C964 1.349 . S
C963 C965 1.327 . S
C963 H986 0.950 . S
C964 C963 1.349 . S
C964 C976 1.349 . S
C965 C963 1.327 . S
C965 C981 1.429 . S
C965 H987 0.950 . S
C966 H962 0.949 . S
C966 C974 1.574 . S
C966 C982 1.368 . S
H967 C975 0.950 . S
H968 C973 0.950 . S
H969 C974 0.949 . S
H970 C976 0.950 . S
H971 C977 0.950 . S
H972 C978 0.949 . S
C973 H968 0.950 . S
C973 C975 1.327 . S
C973 C979 1.429 . S
C974 C966 1.574 . S
C974 H969 0.949 . S
C974 C980 1.368 . S
C975 C959 1.349 . S
C975 H967 0.950 . S
C975 C973 1.327 . S
C976 C964 1.349 . S
C976 H970 0.950 . S
C976 C977 1.327 . S
C977 H971 0.950 . S
C977 C976 1.327 . S
C977 C981 1.429 . S
C978 C961 1.574 . S
C978 H972 0.949 . S
C978 C982 1.368 . S
C979 C960 1.429 . S
C979 C973 1.429 . S
C979 C980 1.523 . S
C980 C961 1.368 . S
C980 C974 1.368 . S
C980 C979 1.523 . S
C981 C965 1.429 . S
C981 C977 1.429 . S
C981 C982 1.523 . S
C982 C966 1.368 . S
C982 C978 1.368 . S
C982 C981 1.523 . S
H983 C958 0.950 . S
H984 C960 0.950 . S
H985 C961 0.949 . S
H986 C963 0.950 . S
H987 C965 0.950 . S
C988 C989 1.349 . S
C988 C990 1.327 . S
C988 H1013 0.950 . S
C989 C988 1.349 . S
C989 C1005 1.349 . S
C990 C988 1.327 . S
C990 C1009 1.429 . S
C990 H1014 0.950 . S
C991 C1008 1.574 . S
C991 C1010 1.368 . S
C991 H1015 0.949 . S
H992 C996 0.949 . S
C993 C994 1.349 . S
C993 C995 1.327 . S
C993 H1016 0.950 . S
C994 C993 1.349 . S
C994 C1006 1.349 . S
C995 C993 1.327 . S
C995 C1011 1.429 . S
C995 H1017 0.950 . S
C996 H992 0.949 . S
C996 C1004 1.574 . S
C996 C1012 1.368 . S
H997 C1005 0.950 . S
H998 C1003 0.950 . S
H999 C1004 0.949 . S
H1000 C1006 0.950 . S
H1001 C1007 0.950 . S
H1002 C1008 0.949 . S
C1003 H998 0.950 . S
C1003 C1005 1.327 . S
C1003 C1009 1.429 . S
C1004 C996 1.574 . S
C1004 H999 0.949 . S
C1004 C1010 1.368 . S
C1005 C989 1.349 . S
C1005 H997 0.950 . S
C1005 C1003 1.327 . S
C1006 C994 1.349 . S
C1006 H1000 0.950 . S
C1006 C1007 1.327 . S
C1007 H1001 0.950 . S
C1007 C1006 1.327 . S
C1007 C1011 1.429 . S
C1008 C991 1.574 . S
C1008 H1002 0.949 . S
C1008 C1012 1.368 . S
C1009 C990 1.429 . S
C1009 C1003 1.429 . S
C1009 C1010 1.523 . S
C1010 C991 1.368 . S
C1010 C1004 1.368 . S
C1010 C1009 1.523 . S
C1011 C995 1.429 . S
C1011 C1007 1.429 . S
C1011 C1012 1.523 . S
C1012 C996 1.368 . S
C1012 C1008 1.368 . S
C1012 C1011 1.523 . S
H1013 C988 0.950 . S
H1014 C990 0.950 . S
H1015 C991 0.949 . S
H1016 C993 0.950 . S
H1017 C995 0.950 . S
C1018 C1019 1.349 . S
C1018 C1020 1.327 . S
C1018 H1043 0.950 . S
C1019 C1018 1.349 . S
C1019 C1035 1.349 . S
C1020 C1018 1.327 . S
C1020 C1039 1.429 . S
C1020 H1044 0.950 . S
C1021 C1038 1.574 . S
C1021 C1040 1.368 . S
C1021 H1045 0.949 . S
H1022 C1026 0.949 . S
C1023 C1024 1.349 . S
C1023 C1025 1.327 . S
C1023 H1046 0.950 . S
C1024 C1023 1.349 . S
C1024 C1036 1.349 . S
C1025 C1023 1.327 . S
C1025 C1041 1.429 . S
C1025 H1047 0.950 . S
C1026 H1022 0.949 . S
C1026 C1034 1.574 . S
C1026 C1042 1.368 . S
H1027 C1035 0.950 . S
H1028 C1033 0.950 . S
H1029 C1034 0.949 . S
H1030 C1036 0.950 . S
H1031 C1037 0.950 . S
H1032 C1038 0.949 . S
C1033 H1028 0.950 . S
C1033 C1035 1.327 . S
C1033 C1039 1.429 . S
C1034 C1026 1.574 . S
C1034 H1029 0.949 . S
C1034 C1040 1.368 . S
C1035 C1019 1.349 . S
C1035 H1027 0.950 . S
C1035 C1033 1.327 . S
C1036 C1024 1.349 . S
C1036 H1030 0.950 . S
C1036 C1037 1.327 . S
C1037 H1031 0.950 . S
C1037 C1036 1.327 . S
C1037 C1041 1.429 . S
C1038 C1021 1.574 . S
C1038 H1032 0.949 . S
C1038 C1042 1.368 . S
C1039 C1020 1.429 . S
C1039 C1033 1.429 . S
C1039 C1040 1.523 . S
C1040 C1021 1.368 . S
C1040 C1034 1.368 . S
C1040 C1039 1.523 . S
C1041 C1025 1.429 . S
C1041 C1037 1.429 . S
C1041 C1042 1.523 . S
C1042 C1026 1.368 . S
C1042 C1038 1.368 . S
C1042 C1041 1.523 . S
H1043 C1018 0.950 . S
H1044 C1020 0.950 . S
H1045 C1021 0.949 . S
H1046 C1023 0.950 . S
H1047 C1025 0.950 . S
C1048 C1049 1.349 . S
C1048 C1050 1.327 . S
C1048 H1073 0.950 . S
C1049 C1048 1.349 . S
C1049 C1065 1.349 . S
C1050 C1048 1.327 . S
C1050 C1069 1.429 . S
C1050 H1074 0.950 . S
C1051 C1068 1.574 . S
C1051 C1070 1.368 . S
C1051 H1075 0.949 . S
H1052 C1056 0.949 . S
C1053 C1054 1.349 . S
C1053 C1055 1.327 . S
C1053 H1076 0.950 . S
C1054 C1053 1.349 . S
C1054 C1066 1.349 . S
C1055 C1053 1.327 . S
C1055 C1071 1.429 . S
C1055 H1077 0.950 . S
C1056 H1052 0.949 . S
C1056 C1064 1.574 . S
C1056 C1072 1.368 . S
H1057 C1065 0.950 . S
H1058 C1063 0.950 . S
H1059 C1064 0.949 . S
H1060 C1066 0.950 . S
H1061 C1067 0.950 . S
H1062 C1068 0.949 . S
C1063 H1058 0.950 . S
C1063 C1065 1.327 . S
C1063 C1069 1.429 . S
C1064 C1056 1.574 . S
C1064 H1059 0.949 . S
C1064 C1070 1.368 . S
C1065 C1049 1.349 . S
C1065 H1057 0.950 . S
C1065 C1063 1.327 . S
C1066 C1054 1.349 . S
C1066 H1060 0.950 . S
C1066 C1067 1.327 . S
C1067 H1061 0.950 . S
C1067 C1066 1.327 . S
C1067 C1071 1.429 . S
C1068 C1051 1.574 . S
C1068 H1062 0.949 . S
C1068 C1072 1.368 . S
C1069 C1050 1.429 . S
C1069 C1063 1.429 . S
C1069 C1070 1.523 . S
C1070 C1051 1.368 . S
C1070 C1064 1.368 . S
C1070 C1069 1.523 . S
C1071 C1055 1.429 . S
C1071 C1067 1.429 . S
C1071 C1072 1.523 . S
C1072 C1056 1.368 . S
C1072 C1068 1.368 . S
C1072 C1071 1.523 . S
H1073 C1048 0.950 . S
H1074 C1050 0.950 . S
H1075 C1051 0.949 . S
H1076 C1053 0.950 . S
H1077 C1055 0.950 . S
C1078 C1079 1.349 . S
C1078 C1080 1.327 . S
C1078 H1103 0.950 . S
C1079 C1078 1.349 . S
C1079 C1095 1.349 . S
C1080 C1078 1.327 . S
C1080 C1099 1.429 . S
C1080 H1104 0.950 . S
C1081 C1098 1.574 . S
C1081 C1100 1.368 . S
C1081 H1105 0.949 . S
H1082 C1086 0.949 . S
C1083 C1084 1.349 . S
C1083 C1085 1.327 . S
C1083 H1106 0.950 . S
C1084 C1083 1.349 . S
C1084 C1096 1.349 . S
C1085 C1083 1.327 . S
C1085 C1101 1.429 . S
C1085 H1107 0.950 . S
C1086 H1082 0.949 . S
C1086 C1094 1.574 . S
C1086 C1102 1.368 . S
H1087 C1095 0.950 . S
H1088 C1093 0.950 . S
H1089 C1094 0.949 . S
H1090 C1096 0.950 . S
H1091 C1097 0.950 . S
H1092 C1098 0.949 . S
C1093 H1088 0.950 . S
C1093 C1095 1.327 . S
C1093 C1099 1.429 . S
C1094 C1086 1.574 . S
C1094 H1089 0.949 . S
C1094 C1100 1.368 . S
C1095 C1079 1.349 . S
C1095 H1087 0.950 . S
C1095 C1093 1.327 . S
C1096 C1084 1.349 . S
C1096 H1090 0.950 . S
C1096 C1097 1.327 . S
C1097 H1091 0.950 . S
C1097 C1096 1.327 . S
C1097 C1101 1.429 . S
C1098 C1081 1.574 . S
C1098 H1092 0.949 . S
C1098 C1102 1.368 . S
C1099 C1080 1.429 . S
C1099 C1093 1.429 . S
C1099 C1100 1.523 . S
C1100 C1081 1.368 . S
C1100 C1094 1.368 . S
C1100 C1099 1.523 . S
C1101 C1085 1.429 . S
C1101 C1097 1.429 . S
C1101 C1102 1.523 . S
C1102 C1086 1.368 . S
C1102 C1098 1.368 . S
C1102 C1101 1.523 . S
H1103 C1078 0.950 . S
H1104 C1080 0.950 . S
H1105 C1081 0.949 . S
H1106 C1083 0.950 . S
H1107 C1085 0.950 . S
C1108 C1109 1.349 . S
C1108 C1110 1.327 . S
C1108 H1133 0.950 . S
C1109 C1108 1.349 . S
C1109 C1125 1.349 . S
C1110 C1108 1.327 . S
C1110 C1129 1.429 . S
C1110 H1134 0.950 . S
C1111 C1128 1.574 . S
C1111 C1130 1.368 . S
C1111 H1135 0.949 . S
H1112 C1116 0.949 . S
C1113 C1114 1.349 . S
C1113 C1115 1.327 . S
C1113 H1136 0.950 . S
C1114 C1113 1.349 . S
C1114 C1126 1.349 . S
C1115 C1113 1.327 . S
C1115 C1131 1.429 . S
C1115 H1137 0.950 . S
C1116 H1112 0.949 . S
C1116 C1124 1.574 . S
C1116 C1132 1.368 . S
H1117 C1125 0.950 . S
H1118 C1123 0.950 . S
H1119 C1124 0.949 . S
H1120 C1126 0.950 . S
H1121 C1127 0.950 . S
H1122 C1128 0.949 . S
C1123 H1118 0.950 . S
C1123 C1125 1.327 . S
C1123 C1129 1.429 . S
C1124 C1116 1.574 . S
C1124 H1119 0.949 . S
C1124 C1130 1.368 . S
C1125 C1109 1.349 . S
C1125 H1117 0.950 . S
C1125 C1123 1.327 . S
C1126 C1114 1.349 . S
C1126 H1120 0.950 . S
C1126 C1127 1.327 . S
C1127 H1121 0.950 . S
C1127 C1126 1.327 . S
C1127 C1131 1.429 . S
C1128 C1111 1.574 . S
C1128 H1122 0.949 . S
C1128 C1132 1.368 . S
C1129 C1110 1.429 . S
C1129 C1123 1.429 . S
C1129 C1130 1.523 . S
C1130 C1111 1.368 . S
C1130 C1124 1.368 . S
C1130 C1129 1.523 . S
C1131 C1115 1.429 . S
C1131 C1127 1.429 . S
C1131 C1132 1.523 . S
C1132 C1116 1.368 . S
C1132 C1128 1.368 . S
C1132 C1131 1.523 . S
H1133 C1108 0.950 . S
H1134 C1110 0.950 . S
H1135 C1111 0.949 . S
H1136 C1113 0.950 . S
H1137 C1115 0.950 . S
C1138 C1139 1.349 . S
C1138 C1140 1.327 . S
C1138 H1163 0.950 . S
C1139 C1138 1.349 . S
C1139 C1155 1.349 . S
C1140 C1138 1.327 . S
C1140 C1159 1.429 . S
C1140 H1164 0.950 . S
C1141 C1158 1.574 . S
C1141 C1160 1.368 . S
C1141 H1165 0.949 . S
H1142 C1146 0.949 . S
C1143 C1144 1.349 . S
C1143 C1145 1.327 . S
C1143 H1166 0.950 . S
C1144 C1143 1.349 . S
C1144 C1156 1.349 . S
C1145 C1143 1.327 . S
C1145 C1161 1.429 . S
C1145 H1167 0.950 . S
C1146 H1142 0.949 . S
C1146 C1154 1.574 . S
C1146 C1162 1.368 . S
H1147 C1155 0.950 . S
H1148 C1153 0.950 . S
H1149 C1154 0.949 . S
H1150 C1156 0.950 . S
H1151 C1157 0.950 . S
H1152 C1158 0.949 . S
C1153 H1148 0.950 . S
C1153 C1155 1.327 . S
C1153 C1159 1.429 . S
C1154 C1146 1.574 . S
C1154 H1149 0.949 . S
C1154 C1160 1.368 . S
C1155 C1139 1.349 . S
C1155 H1147 0.950 . S
C1155 C1153 1.327 . S
C1156 C1144 1.349 . S
C1156 H1150 0.950 . S
C1156 C1157 1.327 . S
C1157 H1151 0.950 . S
C1157 C1156 1.327 . S
C1157 C1161 1.429 . S
C1158 C1141 1.574 . S
C1158 H1152 0.949 . S
C1158 C1162 1.368 . S
C1159 C1140 1.429 . S
C1159 C1153 1.429 . S
C1159 C1160 1.523 . S
C1160 C1141 1.368 . S
C1160 C1154 1.368 . S
C1160 C1159 1.523 . S
C1161 C1145 1.429 . S
C1161 C1157 1.429 . S
C1161 C1162 1.523 . S
C1162 C1146 1.368 . S
C1162 C1158 1.368 . S
C1162 C1161 1.523 . S
H1163 C1138 0.950 . S
H1164 C1140 0.950 . S
H1165 C1141 0.949 . S
H1166 C1143 0.950 . S
H1167 C1145 0.950 . S
C1168 C1169 1.349 . S
C1168 C1170 1.327 . S
C1168 H1193 0.950 . S
C1169 C1168 1.349 . S
C1169 C1185 1.349 . S
C1170 C1168 1.327 . S
C1170 C1189 1.429 . S
C1170 H1194 0.950 . S
C1171 C1188 1.574 . S
C1171 C1190 1.368 . S
C1171 H1195 0.949 . S
H1172 C1176 0.949 . S
C1173 C1174 1.349 . S
C1173 C1175 1.327 . S
C1173 H1196 0.950 . S
C1174 C1173 1.349 . S
C1174 C1186 1.349 . S
C1175 C1173 1.327 . S
C1175 C1191 1.429 . S
C1175 H1197 0.950 . S
C1176 H1172 0.949 . S
C1176 C1184 1.574 . S
C1176 C1192 1.368 . S
H1177 C1185 0.950 . S
H1178 C1183 0.950 . S
H1179 C1184 0.949 . S
H1180 C1186 0.950 . S
H1181 C1187 0.950 . S
H1182 C1188 0.949 . S
C1183 H1178 0.950 . S
C1183 C1185 1.327 . S
C1183 C1189 1.429 . S
C1184 C1176 1.574 . S
C1184 H1179 0.949 . S
C1184 C1190 1.368 . S
C1185 C1169 1.349 . S
C1185 H1177 0.950 . S
C1185 C1183 1.327 . S
C1186 C1174 1.349 . S
C1186 H1180 0.950 . S
C1186 C1187 1.327 . S
C1187 H1181 0.950 . S
C1187 C1186 1.327 . S
C1187 C1191 1.429 . S
C1188 C1171 1.574 . S
C1188 H1182 0.949 . S
C1188 C1192 1.368 . S
C1189 C1170 1.429 . S
C1189 C1183 1.429 . S
C1189 C1190 1.523 . S
C1190 C1171 1.368 . S
C1190 C1184 1.368 . S
C1190 C1189 1.523 . S
C1191 C1175 1.429 . S
C1191 C1187 1.429 . S
C1191 C1192 1.523 . S
C1192 C1176 1.368 . S
C1192 C1188 1.368 . S
C1192 C1191 1.523 . S
H1193 C1168 0.950 . S
H1194 C1170 0.950 . S
H1195 C1171 0.949 . S
H1196 C1173 0.950 . S
H1197 C1175 0.950 . S
C1198 C1199 1.349 . S
C1198 C1200 1.327 . S
C1198 H1223 0.950 . S
C1199 C1198 1.349 . S
C1199 C1215 1.349 . S
C1200 C1198 1.327 . S
C1200 C1219 1.429 . S
C1200 H1224 0.950 . S
C1201 C1218 1.574 . S
C1201 C1220 1.368 . S
C1201 H1225 0.949 . S
H1202 C1206 0.949 . S
C1203 C1204 1.349 . S
C1203 C1205 1.327 . S
C1203 H1226 0.950 . S
C1204 C1203 1.349 . S
C1204 C1216 1.349 . S
C1205 C1203 1.327 . S
C1205 C1221 1.429 . S
C1205 H1227 0.950 . S
C1206 H1202 0.949 . S
C1206 C1214 1.574 . S
C1206 C1222 1.368 . S
H1207 C1215 0.950 . S
H1208 C1213 0.950 . S
H1209 C1214 0.949 . S
H1210 C1216 0.950 . S
H1211 C1217 0.950 . S
H1212 C1218 0.949 . S
C1213 H1208 0.950 . S
C1213 C1215 1.327 . S
C1213 C1219 1.429 . S
C1214 C1206 1.574 . S
C1214 H1209 0.949 . S
C1214 C1220 1.368 . S
C1215 C1199 1.349 . S
C1215 H1207 0.950 . S
C1215 C1213 1.327 . S
C1216 C1204 1.349 . S
C1216 H1210 0.950 . S
C1216 C1217 1.327 . S
C1217 H1211 0.950 . S
C1217 C1216 1.327 . S
C1217 C1221 1.429 . S
C1218 C1201 1.574 . S
C1218 H1212 0.949 . S
C1218 C1222 1.368 . S
C1219 C1200 1.429 . S
C1219 C1213 1.429 . S
C1219 C1220 1.523 . S
C1220 C1201 1.368 . S
C1220 C1214 1.368 . S
C1220 C1219 1.523 . S
C1221 C1205 1.429 . S
C1221 C1217 1.429 . S
C1221 C1222 1.523 . S
C1222 C1206 1.368 . S
C1222 C1218 1.368 . S
C1222 C1221 1.523 . S
H1223 C1198 0.950 . S
H1224 C1200 0.950 . S
H1225 C1201 0.949 . S
H1226 C1203 0.950 . S
H1227 C1205 0.950 . S
C1228 C1229 1.349 . S
C1228 C1230 1.327 . S
C1228 H1253 0.950 . S
C1229 C1228 1.349 . S
C1229 C1245 1.349 . S
C1230 C1228 1.327 . S
C1230 C1249 1.429 . S
C1230 H1254 0.950 . S
C1231 C1248 1.574 . S
C1231 C1250 1.368 . S
C1231 H1255 0.949 . S
H1232 C1236 0.949 . S
C1233 C1234 1.349 . S
C1233 C1235 1.327 . S
C1233 H1256 0.950 . S
C1234 C1233 1.349 . S
C1234 C1246 1.349 . S
C1235 C1233 1.327 . S
C1235 C1251 1.429 . S
C1235 H1257 0.950 . S
C1236 H1232 0.949 . S
C1236 C1244 1.574 . S
C1236 C1252 1.368 . S
H1237 C1245 0.950 . S
H1238 C1243 0.950 . S
H1239 C1244 0.949 . S
H1240 C1246 0.950 . S
H1241 C1247 0.950 . S
H1242 C1248 0.949 . S
C1243 H1238 0.950 . S
C1243 C1245 1.327 . S
C1243 C1249 1.429 . S
C1244 C1236 1.574 . S
C1244 H1239 0.949 . S
C1244 C1250 1.368 . S
C1245 C1229 1.349 . S
C1245 H1237 0.950 . S
C1245 C1243 1.327 . S
C1246 C1234 1.349 . S
C1246 H1240 0.950 . S
C1246 C1247 1.327 . S
C1247 H1241 0.950 . S
C1247 C1246 1.327 . S
C1247 C1251 1.429 . S
C1248 C1231 1.574 . S
C1248 H1242 0.949 . S
C1248 C1252 1.368 . S
C1249 C1230 1.429 . S
C1249 C1243 1.429 . S
C1249 C1250 1.523 . S
C1250 C1231 1.368 . S
C1250 C1244 1.368 . S
C1250 C1249 1.523 . S
C1251 C1235 1.429 . S
C1251 C1247 1.429 . S
C1251 C1252 1.523 . S
C1252 C1236 1.368 . S
C1252 C1248 1.368 . S
C1252 C1251 1.523 . S
H1253 C1228 0.950 . S
H1254 C1230 0.950 . S
H1255 C1231 0.949 . S
H1256 C1233 0.950 . S
H1257 C1235 0.950 . S
C1258 C1259 1.349 . S
C1258 C1260 1.327 . S
C1258 H1283 0.950 . S
C1259 C1258 1.349 . S
C1259 C1275 1.349 . S
C1260 C1258 1.327 . S
C1260 C1279 1.429 . S
C1260 H1284 0.950 . S
C1261 C1278 1.574 . S
C1261 C1280 1.368 . S
C1261 H1285 0.949 . S
H1262 C1266 0.949 . S
C1263 C1264 1.349 . S
C1263 C1265 1.327 . S
C1263 H1286 0.950 . S
C1264 C1263 1.349 . S
C1264 C1276 1.349 . S
C1265 C1263 1.327 . S
C1265 C1281 1.429 . S
C1265 H1287 0.950 . S
C1266 H1262 0.949 . S
C1266 C1274 1.574 . S
C1266 C1282 1.368 . S
H1267 C1275 0.950 . S
H1268 C1273 0.950 . S
H1269 C1274 0.949 . S
H1270 C1276 0.950 . S
H1271 C1277 0.950 . S
H1272 C1278 0.949 . S
C1273 H1268 0.950 . S
C1273 C1275 1.327 . S
C1273 C1279 1.429 . S
C1274 C1266 1.574 . S
C1274 H1269 0.949 . S
C1274 C1280 1.368 . S
C1275 C1259 1.349 . S
C1275 H1267 0.950 . S
C1275 C1273 1.327 . S
C1276 C1264 1.349 . S
C1276 H1270 0.950 . S
C1276 C1277 1.327 . S
C1277 H1271 0.950 . S
C1277 C1276 1.327 . S
C1277 C1281 1.429 . S
C1278 C1261 1.574 . S
C1278 H1272 0.949 . S
C1278 C1282 1.368 . S
C1279 C1260 1.429 . S
C1279 C1273 1.429 . S
C1279 C1280 1.523 . S
C1280 C1261 1.368 . S
C1280 C1274 1.368 . S
C1280 C1279 1.523 . S
C1281 C1265 1.429 . S
C1281 C1277 1.429 . S
C1281 C1282 1.523 . S
C1282 C1266 1.368 . S
C1282 C1278 1.368 . S
C1282 C1281 1.523 . S
H1283 C1258 0.950 . S
H1284 C1260 0.950 . S
H1285 C1261 0.949 . S
H1286 C1263 0.950 . S
H1287 C1265 0.950 . S
C1288 C1289 1.349 . S
C1288 C1290 1.327 . S
C1288 H1313 0.950 . S
C1289 C1288 1.349 . S
C1289 C1305 1.349 . S
C1290 C1288 1.327 . S
C1290 C1309 1.429 . S
C1290 H1314 0.950 . S
C1291 C1308 1.574 . S
C1291 C1310 1.368 . S
C1291 H1315 0.949 . S
H1292 C1296 0.949 . S
C1293 C1294 1.349 . S
C1293 C1295 1.327 . S
C1293 H1316 0.950 . S
C1294 C1293 1.349 . S
C1294 C1306 1.349 . S
C1295 C1293 1.327 . S
C1295 C1311 1.429 . S
C1295 H1317 0.950 . S
C1296 H1292 0.949 . S
C1296 C1304 1.574 . S
C1296 C1312 1.368 . S
H1297 C1305 0.950 . S
H1298 C1303 0.950 . S
H1299 C1304 0.949 . S
H1300 C1306 0.950 . S
H1301 C1307 0.950 . S
H1302 C1308 0.949 . S
C1303 H1298 0.950 . S
C1303 C1305 1.327 . S
C1303 C1309 1.429 . S
C1304 C1296 1.574 . S
C1304 H1299 0.949 . S
C1304 C1310 1.368 . S
C1305 C1289 1.349 . S
C1305 H1297 0.950 . S
C1305 C1303 1.327 . S
C1306 C1294 1.349 . S
C1306 H1300 0.950 . S
C1306 C1307 1.327 . S
C1307 H1301 0.950 . S
C1307 C1306 1.327 . S
C1307 C1311 1.429 . S
C1308 C1291 1.574 . S
C1308 H1302 0.949 . S
C1308 C1312 1.368 . S
C1309 C1290 1.429 . S
C1309 C1303 1.429 . S
C1309 C1310 1.523 . S
C1310 C1291 1.368 . S
C1310 C1304 1.368 . S
C1310 C1309 1.523 . S
C1311 C1295 1.429 . S
C1311 C1307 1.429 . S
C1311 C1312 1.523 . S
C1312 C1296 1.368 . S
C1312 C1308 1.368 . S
C1312 C1311 1.523 . S
H1313 C1288 0.950 . S
H1314 C1290 0.950 . S
H1315 C1291 0.949 . S
H1316 C1293 0.950 . S
H1317 C1295 0.950 . S
C1318 C1319 1.349 . S
C1318 C1320 1.327 . S
C1318 H1343 0.950 . S
C1319 C1318 1.349 . S
C1319 C1335 1.349 . S
C1320 C1318 1.327 . S
C1320 C1339 1.429 . S
C1320 H1344 0.950 . S
C1321 C1338 1.574 . S
C1321 C1340 1.368 . S
C1321 H1345 0.949 . S
H1322 C1326 0.949 . S
C1323 C1324 1.349 . S
C1323 C1325 1.327 . S
C1323 H1346 0.950 . S
C1324 C1323 1.349 . S
C1324 C1336 1.349 . S
C1325 C1323 1.327 . S
C1325 C1341 1.429 . S
C1325 H1347 0.950 . S
C1326 H1322 0.949 . S
C1326 C1334 1.574 . S
C1326 C1342 1.368 . S
H1327 C1335 0.950 . S
H1328 C1333 0.950 . S
H1329 C1334 0.949 . S
H1330 C1336 0.950 . S
H1331 C1337 0.950 . S
H1332 C1338 0.949 . S
C1333 H1328 0.950 . S
C1333 C1335 1.327 . S
C1333 C1339 1.429 . S
C1334 C1326 1.574 . S
C1334 H1329 0.949 . S
C1334 C1340 1.368 . S
C1335 C1319 1.349 . S
C1335 H1327 0.950 . S
C1335 C1333 1.327 . S
C1336 C1324 1.349 . S
C1336 H1330 0.950 . S
C1336 C1337 1.327 . S
C1337 H1331 0.950 . S
C1337 C1336 1.327 . S
C1337 C1341 1.429 . S
C1338 C1321 1.574 . S
C1338 H1332 0.949 . S
C1338 C1342 1.368 . S
C1339 C1320 1.429 . S
C1339 C1333 1.429 . S
C1339 C1340 1.523 . S
C1340 C1321 1.368 . S
C1340 C1334 1.368 . S
C1340 C1339 1.523 . S
C1341 C1325 1.429 . S
C1341 C1337 1.429 . S
C1341 C1342 1.523 . S
C1342 C1326 1.368 . S
C1342 C1338 1.368 . S
C1342 C1341 1.523 . S
H1343 C1318 0.950 . S
H1344 C1320 0.950 . S
H1345 C1321 0.949 . S
H1346 C1323 0.950 . S
H1347 C1325 0.950 . S
C1348 C1349 1.349 . S
C1348 C1350 1.327 . S
C1348 H1373 0.950 . S
C1349 C1348 1.349 . S
C1349 C1365 1.349 . S
C1350 C1348 1.327 . S
C1350 C1369 1.429 . S
C1350 H1374 0.950 . S
C1351 C1368 1.574 . S
C1351 C1370 1.368 . S
C1351 H1375 0.949 . S
H1352 C1356 0.949 . S
C1353 C1354 1.349 . S
C1353 C1355 1.327 . S
C1353 H1376 0.950 . S
C1354 C1353 1.349 . S
C1354 C1366 1.349 . S
C1355 C1353 1.327 . S
C1355 C1371 1.429 . S
C1355 H1377 0.950 . S
C1356 H1352 0.949 . S
C1356 C1364 1.574 . S
C1356 C1372 1.368 . S
H1357 C1365 0.950 . S
H1358 C1363 0.950 . S
H1359 C1364 0.949 . S
H1360 C1366 0.950 . S
H1361 C1367 0.950 . S
H1362 C1368 0.949 . S
C1363 H1358 0.950 . S
C1363 C1365 1.327 . S
C1363 C1369 1.429 . S
C1364 C1356 1.574 . S
C1364 H1359 0.949 . S
C1364 C1370 1.368 . S
C1365 C1349 1.349 . S
C1365 H1357 0.950 . S
C1365 C1363 1.327 . S
C1366 C1354 1.349 . S
C1366 H1360 0.950 . S
C1366 C1367 1.327 . S
C1367 H1361 0.950 . S
C1367 C1366 1.327 . S
C1367 C1371 1.429 . S
C1368 C1351 1.574 . S
C1368 H1362 0.949 . S
C1368 C1372 1.368 . S
C1369 C1350 1.429 . S
C1369 C1363 1.429 . S
C1369 C1370 1.523 . S
C1370 C1351 1.368 . S
C1370 C1364 1.368 . S
C1370 C1369 1.523 . S
C1371 C1355 1.429 . S
C1371 C1367 1.429 . S
C1371 C1372 1.523 . S
C1372 C1356 1.368 . S
C1372 C1368 1.368 . S
C1372 C1371 1.523 . S
H1373 C1348 0.950 . S
H1374 C1350 0.950 . S
H1375 C1351 0.949 . S
H1376 C1353 0.950 . S
H1377 C1355 0.950 . S
C1378 C1379 1.349 . S
C1378 C1380 1.327 . S
C1378 H1403 0.950 . S
C1379 C1378 1.349 . S
C1379 C1395 1.349 . S
C1380 C1378 1.327 . S
C1380 C1399 1.429 . S
C1380 H1404 0.950 . S
C1381 C1398 1.574 . S
C1381 C1400 1.368 . S
C1381 H1405 0.949 . S
H1382 C1386 0.949 . S
C1383 C1384 1.349 . S
C1383 C1385 1.327 . S
C1383 H1406 0.950 . S
C1384 C1383 1.349 . S
C1384 C1396 1.349 . S
C1385 C1383 1.327 . S
C1385 C1401 1.429 . S
C1385 H1407 0.950 . S
C1386 H1382 0.949 . S
C1386 C1394 1.574 . S
C1386 C1402 1.368 . S
H1387 C1395 0.950 . S
H1388 C1393 0.950 . S
H1389 C1394 0.949 . S
H1390 C1396 0.950 . S
H1391 C1397 0.950 . S
H1392 C1398 0.949 . S
C1393 H1388 0.950 . S
C1393 C1395 1.327 . S
C1393 C1399 1.429 . S
C1394 C1386 1.574 . S
C1394 H1389 0.949 . S
C1394 C1400 1.368 . S
C1395 C1379 1.349 . S
C1395 H1387 0.950 . S
C1395 C1393 1.327 . S
C1396 C1384 1.349 . S
C1396 H1390 0.950 . S
C1396 C1397 1.327 . S
C1397 H1391 0.950 . S
C1397 C1396 1.327 . S
C1397 C1401 1.429 . S
C1398 C1381 1.574 . S
C1398 H1392 0.949 . S
C1398 C1402 1.368 . S
C1399 C1380 1.429 . S
C1399 C1393 1.429 . S
C1399 C1400 1.523 . S
C1400 C1381 1.368 . S
C1400 C1394 1.368 . S
C1400 C1399 1.523 . S
C1401 C1385 1.429 . S
C1401 C1397 1.429 . S
C1401 C1402 1.523 . S
C1402 C1386 1.368 . S
C1402 C1398 1.368 . S
C1402 C1401 1.523 . S
H1403 C1378 0.950 . S
H1404 C1380 0.950 . S
H1405 C1381 0.949 . S
H1406 C1383 0.950 . S
H1407 C1385 0.950 . S
C1408 C1409 1.349 . S
C1408 C1410 1.327 . S
C1408 H1433 0.950 . S
C1409 C1408 1.349 . S
C1409 C1425 1.349 . S
C1410 C1408 1.327 . S
C1410 C1429 1.429 . S
C1410 H1434 0.950 . S
C1411 C1428 1.574 . S
C1411 C1430 1.368 . S
C1411 H1435 0.949 . S
H1412 C1416 0.949 . S
C1413 C1414 1.349 . S
C1413 C1415 1.327 . S
C1413 H1436 0.950 . S
C1414 C1413 1.349 . S
C1414 C1426 1.349 . S
C1415 C1413 1.327 . S
C1415 C1431 1.429 . S
C1415 H1437 0.950 . S
C1416 H1412 0.949 . S
C1416 C1424 1.574 . S
C1416 C1432 1.368 . S
H1417 C1425 0.950 . S
H1418 C1423 0.950 . S
H1419 C1424 0.949 . S
H1420 C1426 0.950 . S
H1421 C1427 0.950 . S
H1422 C1428 0.949 . S
C1423 H1418 0.950 . S
C1423 C1425 1.327 . S
C1423 C1429 1.429 . S
C1424 C1416 1.574 . S
C1424 H1419 0.949 . S
C1424 C1430 1.368 . S
C1425 C1409 1.349 . S
C1425 H1417 0.950 . S
C1425 C1423 1.327 . S
C1426 C1414 1.349 . S
C1426 H1420 0.950 . S
C1426 C1427 1.327 . S
C1427 H1421 0.950 . S
C1427 C1426 1.327 . S
C1427 C1431 1.429 . S
C1428 C1411 1.574 . S
C1428 H1422 0.949 . S
C1428 C1432 1.368 . S
C1429 C1410 1.429 . S
C1429 C1423 1.429 . S
C1429 C1430 1.523 . S
C1430 C1411 1.368 . S
C1430 C1424 1.368 . S
C1430 C1429 1.523 . S
C1431 C1415 1.429 . S
C1431 C1427 1.429 . S
C1431 C1432 1.523 . S
C1432 C1416 1.368 . S
C1432 C1428 1.368 . S
C1432 C1431 1.523 . S
H1433 C1408 0.950 . S
H1434 C1410 0.950 . S
H1435 C1411 0.949 . S
H1436 C1413 0.950 . S
H1437 C1415 0.950 . S
C1438 C1439 1.349 . S
C1438 C1440 1.327 . S
C1438 H1463 0.950 . S
C1439 C1438 1.349 . S
C1439 C1455 1.349 . S
C1440 C1438 1.327 . S
C1440 C1459 1.429 . S
C1440 H1464 0.950 . S
C1441 C1458 1.574 . S
C1441 C1460 1.368 . S
C1441 H1465 0.949 . S
H1442 C1446 0.949 . S
C1443 C1444 1.349 . S
C1443 C1445 1.327 . S
C1443 H1466 0.950 . S
C1444 C1443 1.349 . S
C1444 C1456 1.349 . S
C1445 C1443 1.327 . S
C1445 C1461 1.429 . S
C1445 H1467 0.950 . S
C1446 H1442 0.949 . S
C1446 C1454 1.574 . S
C1446 C1462 1.368 . S
H1447 C1455 0.950 . S
H1448 C1453 0.950 . S
H1449 C1454 0.949 . S
H1450 C1456 0.950 . S
H1451 C1457 0.950 . S
H1452 C1458 0.949 . S
C1453 H1448 0.950 . S
C1453 C1455 1.327 . S
C1453 C1459 1.429 . S
C1454 C1446 1.574 . S
C1454 H1449 0.949 . S
C1454 C1460 1.368 . S
C1455 C1439 1.349 . S
C1455 H1447 0.950 . S
C1455 C1453 1.327 . S
C1456 C1444 1.349 . S
C1456 H1450 0.950 . S
C1456 C1457 1.327 . S
C1457 H1451 0.950 . S
C1457 C1456 1.327 . S
C1457 C1461 1.429 . S
C1458 C1441 1.574 . S
C1458 H1452 0.949 . S
C1458 C1462 1.368 . S
C1459 C1440 1.429 . S
C1459 C1453 1.429 . S
C1459 C1460 1.523 . S
C1460 C1441 1.368 . S
C1460 C1454 1.368 . S
C1460 C1459 1.523 . S
C1461 C1445 1.429 . S
C1461 C1457 1.429 . S
C1461 C1462 1.523 . S
C1462 C1446 1.368 . S
C1462 C1458 1.368 . S
C1462 C1461 1.523 . S
H1463 C1438 0.950 . S
H1464 C1440 0.950 . S
H1465 C1441 0.949 . S
H1466 C1443 0.950 . S
H1467 C1445 0.950 . S
C1468 C1469 1.349 . S
C1468 C1470 1.327 . S
C1468 H1493 0.950 . S
C1469 C1468 1.349 . S
C1469 C1485 1.349 . S
C1470 C1468 1.327 . S
C1470 C1489 1.429 . S
C1470 H1494 0.950 . S
C1471 C1488 1.574 . S
C1471 C1490 1.368 . S
C1471 H1495 0.949 . S
H1472 C1476 0.949 . S
C1473 C1474 1.349 . S
C1473 C1475 1.327 . S
C1473 H1496 0.950 . S
C1474 C1473 1.349 . S
C1474 C1486 1.349 . S
C1475 C1473 1.327 . S
C1475 C1491 1.429 . S
C1475 H1497 0.950 . S
C1476 H1472 0.949 . S
C1476 C1484 1.574 . S
C1476 C1492 1.368 . S
H1477 C1485 0.950 . S
H1478 C1483 0.950 . S
H1479 C1484 0.949 . S
H1480 C1486 0.950 . S
H1481 C1487 0.950 . S
H1482 C1488 0.949 . S
C1483 H1478 0.950 . S
C1483 C1485 1.327 . S
C1483 C1489 1.429 . S
C1484 C1476 1.574 . S
C1484 H1479 0.949 . S
C1484 C1490 1.368 . S
C1485 C1469 1.349 . S
C1485 H1477 0.950 . S
C1485 C1483 1.327 . S
C1486 C1474 1.349 . S
C1486 H1480 0.950 . S
C1486 C1487 1.327 . S
C1487 H1481 0.950 . S
C1487 C1486 1.327 . S
C1487 C1491 1.429 . S
C1488 C1471 1.574 . S
C1488 H1482 0.949 . S
C1488 C1492 1.368 . S
C1489 C1470 1.429 . S
C1489 C1483 1.429 . S
C1489 C1490 1.523 . S
C1490 C1471 1.368 . S
C1490 C1484 1.368 . S
C1490 C1489 1.523 . S
C1491 C1475 1.429 . S
C1491 C1487 1.429 . S
C1491 C1492 1.523 . S
C1492 C1476 1.368 . S
C1492 C1488 1.368 . S
C1492 C1491 1.523 . S
H1493 C1468 0.950 . S
H1494 C1470 0.950 . S
H1495 C1471 0.949 . S
H1496 C1473 0.950 . S
H1497 C1475 0.950 . S
C1498 C1499 1.349 . S
C1498 C1500 1.327 . S
C1498 H1523 0.950 . S
C1499 C1498 1.349 . S
C1499 C1515 1.349 . S
C1500 C1498 1.327 . S
C1500 C1519 1.429 . S
C1500 H1524 0.950 . S
C1501 C1518 1.574 . S
C1501 C1520 1.368 . S
C1501 H1525 0.949 . S
H1502 C1506 0.949 . S
C1503 C1504 1.349 . S
C1503 C1505 1.327 . S
C1503 H1526 0.950 . S
C1504 C1503 1.349 . S
C1504 C1516 1.349 . S
C1505 C1503 1.327 . S
C1505 C1521 1.429 . S
C1505 H1527 0.950 . S
C1506 H1502 0.949 . S
C1506 C1514 1.574 . S
C1506 C1522 1.368 . S
H1507 C1515 0.950 . S
H1508 C1513 0.950 . S
H1509 C1514 0.949 . S
H1510 C1516 0.950 . S
H1511 C1517 0.950 . S
H1512 C1518 0.949 . S
C1513 H1508 0.950 . S
C1513 C1515 1.327 . S
C1513 C1519 1.429 . S
C1514 C1506 1.574 . S
C1514 H1509 0.949 . S
C1514 C1520 1.368 . S
C1515 C1499 1.349 . S
C1515 H1507 0.950 . S
C1515 C1513 1.327 . S
C1516 C1504 1.349 . S
C1516 H1510 0.950 . S
C1516 C1517 1.327 . S
C1517 H1511 0.950 . S
C1517 C1516 1.327 . S
C1517 C1521 1.429 . S
C1518 C1501 1.574 . S
C1518 H1512 0.949 . S
C1518 C1522 1.368 . S
C1519 C1500 1.429 . S
C1519 C1513 1.429 . S
C1519 C1520 1.523 . S
C1520 C1501 1.368 . S
C1520 C1514 1.368 . S
C1520 C1519 1.523 . S
C1521 C1505 1.429 . S
C1521 C1517 1.429 . S
C1521 C1522 1.523 . S
C1522 C1506 1.368 . S
C1522 C1518 1.368 . S
C1522 C1521 1.523 . S
H1523 C1498 0.950 . S
H1524 C1500 0.950 . S
H1525 C1501 0.949 . S
H1526 C1503 0.950 . S
H1527 C1505 0.950 . S
C1528 C1529 1.349 . S
C1528 C1530 1.327 . S
C1528 H1553 0.950 . S
C1529 C1528 1.349 . S
C1529 C1545 1.349 . S
C1530 C1528 1.327 . S
C1530 C1549 1.429 . S
C1530 H1554 0.950 . S
C1531 C1548 1.574 . S
C1531 C1550 1.368 . S
C1531 H1555 0.949 . S
H1532 C1536 0.949 . S
C1533 C1534 1.349 . S
C1533 C1535 1.327 . S
C1533 H1556 0.950 . S
C1534 C1533 1.349 . S
C1534 C1546 1.349 . S
C1535 C1533 1.327 . S
C1535 C1551 1.429 . S
C1535 H1557 0.950 . S
C1536 H1532 0.949 . S
C1536 C1544 1.574 . S
C1536 C1552 1.368 . S
H1537 C1545 0.950 . S
H1538 C1543 0.950 . S
H1539 C1544 0.949 . S
H1540 C1546 0.950 . S
H1541 C1547 0.950 . S
H1542 C1548 0.949 . S
C1543 H1538 0.950 . S
C1543 C1545 1.327 . S
C1543 C1549 1.429 . S
C1544 C1536 1.574 . S
C1544 H1539 0.949 . S
C1544 C1550 1.368 . S
C1545 C1529 1.349 . S
C1545 H1537 0.950 . S
C1545 C1543 1.327 . S
C1546 C1534 1.349 . S
C1546 H1540 0.950 . S
C1546 C1547 1.327 . S
C1547 H1541 0.950 . S
C1547 C1546 1.327 . S
C1547 C1551 1.429 . S
C1548 C1531 1.574 . S
C1548 H1542 0.949 . S
C1548 C1552 1.368 . S
C1549 C1530 1.429 . S
C1549 C1543 1.429 . S
C1549 C1550 1.523 . S
C1550 C1531 1.368 . S
C1550 C1544 1.368 . S
C1550 C1549 1.523 . S
C1551 C1535 1.429 . S
C1551 C1547 1.429 . S
C1551 C1552 1.523 . S
C1552 C1536 1.368 . S
C1552 C1548 1.368 . S
C1552 C1551 1.523 . S
H1553 C1528 0.950 . S
H1554 C1530 0.950 . S
H1555 C1531 0.949 . S
H1556 C1533 0.950 . S
H1557 C1535 0.950 . S
C1558 C1559 1.349 . S
C1558 C1560 1.327 . S
C1558 H1583 0.950 . S
C1559 C1558 1.349 . S
C1559 C1575 1.349 . S
C1560 C1558 1.327 . S
C1560 C1579 1.429 . S
C1560 H1584 0.950 . S
C1561 C1578 1.574 . S
C1561 C1580 1.368 . S
C1561 H1585 0.949 . S
H1562 C1566 0.949 . S
C1563 C1564 1.349 . S
C1563 C1565 1.327 . S
C1563 H1586 0.950 . S
C1564 C1563 1.349 . S
C1564 C1576 1.349 . S
C1565 C1563 1.327 . S
C1565 C1581 1.429 . S
C1565 H1587 0.950 . S
C1566 H1562 0.949 . S
C1566 C1574 1.574 . S
C1566 C1582 1.368 . S
H1567 C1575 0.950 . S
H1568 C1573 0.950 . S
H1569 C1574 0.949 . S
H1570 C1576 0.950 . S
H1571 C1577 0.950 . S
H1572 C1578 0.949 . S
C1573 H1568 0.950 . S
C1573 C1575 1.327 . S
C1573 C1579 1.429 . S
C1574 C1566 1.574 . S
C1574 H1569 0.949 . S
C1574 C1580 1.368 . S
C1575 C1559 1.349 . S
C1575 H1567 0.950 . S
C1575 C1573 1.327 . S
C1576 C1564 1.349 . S
C1576 H1570 0.950 . S
C1576 C1577 1.327 . S
C1577 H1571 0.950 . S
C1577 C1576 1.327 . S
C1577 C1581 1.429 . S
C1578 C1561 1.574 . S
C1578 H1572 0.949 . S
C1578 C1582 1.368 . S
C1579 C1560 1.429 . S
C1579 C1573 1.429 . S
C1579 C1580 1.523 . S
C1580 C1561 1.368 . S
C1580 C1574 1.368 . S
C1580 C1579 1.523 . S
C1581 C1565 1.429 . S
C1581 C1577 1.429 . S
C1581 C1582 1.523 . S
C1582 C1566 1.368 . S
C1582 C1578 1.368 . S
C1582 C1581 1.523 . S
H1583 C1558 0.950 . S
H1584 C1560 0.950 . S
H1585 C1561 0.949 . S
H1586 C1563 0.950 . S
H1587 C1565 0.950 . S
C1588 C1589 1.349 . S
C1588 C1590 1.327 . S
C1588 H1613 0.950 . S
C1589 C1588 1.349 . S
C1589 C1605 1.349 . S
C1590 C1588 1.327 . S
C1590 C1609 1.429 . S
C1590 H1614 0.950 . S
C1591 C1608 1.574 . S
C1591 C1610 1.368 . S
C1591 H1615 0.949 . S
H1592 C1596 0.949 . S
C1593 C1594 1.349 . S
C1593 C1595 1.327 . S
C1593 H1616 0.950 . S
C1594 C1593 1.349 . S
C1594 C1606 1.349 . S
C1595 C1593 1.327 . S
C1595 C1611 1.429 . S
C1595 H1617 0.950 . S
C1596 H1592 0.949 . S
C1596 C1604 1.574 . S
C1596 C1612 1.368 . S
H1597 C1605 0.950 . S
H1598 C1603 0.950 . S
H1599 C1604 0.949 . S
H1600 C1606 0.950 . S
H1601 C1607 0.950 . S
H1602 C1608 0.949 . S
C1603 H1598 0.950 . S
C1603 C1605 1.327 . S
C1603 C1609 1.429 . S
C1604 C1596 1.574 . S
C1604 H1599 0.949 . S
C1604 C1610 1.368 . S
C1605 C1589 1.349 . S
C1605 H1597 0.950 . S
C1605 C1603 1.327 . S
C1606 C1594 1.349 . S
C1606 H1600 0.950 . S
C1606 C1607 1.327 . S
C1607 H1601 0.950 . S
C1607 C1606 1.327 . S
C1607 C1611 1.429 . S
C1608 C1591 1.574 . S
C1608 H1602 0.949 . S
C1608 C1612 1.368 . S
C1609 C1590 1.429 . S
C1609 C1603 1.429 . S
C1609 C1610 1.523 . S
C1610 C1591 1.368 . S
C1610 C1604 1.368 . S
C1610 C1609 1.523 . S
C1611 C1595 1.429 . S
C1611 C1607 1.429 . S
C1611 C1612 1.523 . S
C1612 C1596 1.368 . S
C1612 C1608 1.368 . S
C1612 C1611 1.523 . S
H1613 C1588 0.950 . S
H1614 C1590 0.950 . S
H1615 C1591 0.949 . S
H1616 C1593 0.950 . S
H1617 C1595 0.950 . S
C1618 C1619 1.349 . S
C1618 C1620 1.327 . S
C1618 H1643 0.950 . S
C1619 C1618 1.349 . S
C1619 C1635 1.349 . S
C1620 C1618 1.327 . S
C1620 C1639 1.429 . S
C1620 H1644 0.950 . S
C1621 C1638 1.574 . S
C1621 C1640 1.368 . S
C1621 H1645 0.949 . S
H1622 C1626 0.949 . S
C1623 C1624 1.349 . S
C1623 C1625 1.327 . S
C1623 H1646 0.950 . S
C1624 C1623 1.349 . S
C1624 C1636 1.349 . S
C1625 C1623 1.327 . S
C1625 C1641 1.429 . S
C1625 H1647 0.950 . S
C1626 H1622 0.949 . S
C1626 C1634 1.574 . S
C1626 C1642 1.368 . S
H1627 C1635 0.950 . S
H1628 C1633 0.950 . S
H1629 C1634 0.949 . S
H1630 C1636 0.950 . S
H1631 C1637 0.950 . S
H1632 C1638 0.949 . S
C1633 H1628 0.950 . S
C1633 C1635 1.327 . S
C1633 C1639 1.429 . S
C1634 C1626 1.574 . S
C1634 H1629 0.949 . S
C1634 C1640 1.368 . S
C1635 C1619 1.349 . S
C1635 H1627 0.950 . S
C1635 C1633 1.327 . S
C1636 C1624 1.349 . S
C1636 H1630 0.950 . S
C1636 C1637 1.327 . S
C1637 H1631 0.950 . S
C1637 C1636 1.327 . S
C1637 C1641 1.429 . S
C1638 C1621 1.574 . S
C1638 H1632 0.949 . S
C1638 C1642 1.368 . S
C1639 C1620 1.429 . S
C1639 C1633 1.429 . S
C1639 C1640 1.523 . S
C1640 C1621 1.368 . S
C1640 C1634 1.368 . S
C1640 C1639 1.523 . S
C1641 C1625 1.429 . S
C1641 C1637 1.429 . S
C1641 C1642 1.523 . S
C1642 C1626 1.368 . S
C1642 C1638 1.368 . S
C1642 C1641 1.523 . S
H1643 C1618 0.950 . S
H1644 C1620 0.950 . S
H1645 C1621 0.949 . S
H1646 C1623 0.950 . S
H1647 C1625 0.950 . S
C1648 C1649 1.349 . S
C1648 C1650 1.327 . S
C1648 H1673 0.950 . S
C1649 C1648 1.349 . S
C1649 C1665 1.349 . S
C1650 C1648 1.327 . S
C1650 C1669 1.429 . S
C1650 H1674 0.950 . S
C1651 C1668 1.574 . S
C1651 C1670 1.368 . S
C1651 H1675 0.949 . S
H1652 C1656 0.949 . S
C1653 C1654 1.349 . S
C1653 C1655 1.327 . S
C1653 H1676 0.950 . S
C1654 C1653 1.349 . S
C1654 C1666 1.349 . S
C1655 C1653 1.327 . S
C1655 C1671 1.429 . S
C1655 H1677 0.950 . S
C1656 H1652 0.949 . S
C1656 C1664 1.574 . S
C1656 C1672 1.368 . S
H1657 C1665 0.950 . S
H1658 C1663 0.950 . S
H1659 C1664 0.949 . S
H1660 C1666 0.950 . S
H1661 C1667 0.950 . S
H1662 C1668 0.949 . S
C1663 H1658 0.950 . S
C1663 C1665 1.327 . S
C1663 C1669 1.429 . S
C1664 C1656 1.574 . S
C1664 H1659 0.949 . S
C1664 C1670 1.368 . S
C1665 C1649 1.349 . S
C1665 H1657 0.950 . S
C1665 C1663 1.327 . S
C1666 C1654 1.349 . S
C1666 H1660 0.950 . S
C1666 C1667 1.327 . S
C1667 H1661 0.950 . S
C1667 C1666 1.327 . S
C1667 C1671 1.429 . S
C1668 C1651 1.574 . S
C1668 H1662 0.949 . S
C1668 C1672 1.368 . S
C1669 C1650 1.429 . S
C1669 C1663 1.429 . S
C1669 C1670 1.523 . S
C1670 C1651 1.368 . S
C1670 C1664 1.368 . S
C1670 C1669 1.523 . S
C1671 C1655 1.429 . S
C1671 C1667 1.429 . S
C1671 C1672 1.523 . S
C1672 C1656 1.368 . S
C1672 C1668 1.368 . S
C1672 C1671 1.523 . S
H1673 C1648 0.950 . S
H1674 C1650 0.950 . S
H1675 C1651 0.949 . S
H1676 C1653 0.950 . S
H1677 C1655 0.950 . S
C1678 C1679 1.349 . S
C1678 C1680 1.327 . S
C1678 H1703 0.950 . S
C1679 C1678 1.349 . S
C1679 C1695 1.349 . S
C1680 C1678 1.327 . S
C1680 C1699 1.429 . S
C1680 H1704 0.950 . S
C1681 C1698 1.574 . S
C1681 C1700 1.368 . S
C1681 H1705 0.949 . S
H1682 C1686 0.949 . S
C1683 C1684 1.349 . S
C1683 C1685 1.327 . S
C1683 H1706 0.950 . S
C1684 C1683 1.349 . S
C1684 C1696 1.349 . S
C1685 C1683 1.327 . S
C1685 C1701 1.429 . S
C1685 H1707 0.950 . S
C1686 H1682 0.949 . S
C1686 C1694 1.574 . S
C1686 C1702 1.368 . S
H1687 C1695 0.950 . S
H1688 C1693 0.950 . S
H1689 C1694 0.949 . S
H1690 C1696 0.950 . S
H1691 C1697 0.950 . S
H1692 C1698 0.949 . S
C1693 H1688 0.950 . S
C1693 C1695 1.327 . S
C1693 C1699 1.429 . S
C1694 C1686 1.574 . S
C1694 H1689 0.949 . S
C1694 C1700 1.368 . S
C1695 C1679 1.349 . S
C1695 H1687 0.950 . S
C1695 C1693 1.327 . S
C1696 C1684 1.349 . S
C1696 H1690 0.950 . S
C1696 C1697 1.327 . S
C1697 H1691 0.950 . S
C1697 C1696 1.327 . S
C1697 C1701 1.429 . S
C1698 C1681 1.574 . S
C1698 H1692 0.949 . S
C1698 C1702 1.368 . S
C1699 C1680 1.429 . S
C1699 C1693 1.429 . S
C1699 C1700 1.523 . S
C1700 C1681 1.368 . S
C1700 C1694 1.368 . S
C1700 C1699 1.523 . S
C1701 C1685 1.429 . S
C1701 C1697 1.429 . S
C1701 C1702 1.523 . S
C1702 C1686 1.368 . S
C1702 C1698 1.368 . S
C1702 C1701 1.523 . S
H1703 C1678 0.950 . S
H1704 C1680 0.950 . S
H1705 C1681 0.949 . S
H1706 C1683 0.950 . S
H1707 C1685 0.950 . S
C1708 C1709 1.349 . S
C1708 C1710 1.327 . S
C1708 H1733 0.950 . S
C1709 C1708 1.349 . S
C1709 C1725 1.349 . S
C1710 C1708 1.327 . S
C1710 C1729 1.429 . S
C1710 H1734 0.950 . S
C1711 C1728 1.574 . S
C1711 C1730 1.368 . S
C1711 H1735 0.949 . S
H1712 C1716 0.949 . S
C1713 C1714 1.349 . S
C1713 C1715 1.327 . S
C1713 H1736 0.950 . S
C1714 C1713 1.349 . S
C1714 C1726 1.349 . S
C1715 C1713 1.327 . S
C1715 C1731 1.429 . S
C1715 H1737 0.950 . S
C1716 H1712 0.949 . S
C1716 C1724 1.574 . S
C1716 C1732 1.368 . S
H1717 C1725 0.950 . S
H1718 C1723 0.950 . S
H1719 C1724 0.949 . S
H1720 C1726 0.950 . S
H1721 C1727 0.950 . S
H1722 C1728 0.949 . S
C1723 H1718 0.950 . S
C1723 C1725 1.327 . S
C1723 C1729 1.429 . S
C1724 C1716 1.574 . S
C1724 H1719 0.949 . S
C1724 C1730 1.368 . S
C1725 C1709 1.349 . S
C1725 H1717 0.950 . S
C1725 C1723 1.327 . S
C1726 C1714 1.349 . S
C1726 H1720 0.950 . S
C1726 C1727 1.327 . S
C1727 H1721 0.950 . S
C1727 C1726 1.327 . S
C1727 C1731 1.429 . S
C1728 C1711 1.574 . S
C1728 H1722 0.949 . S
C1728 C1732 1.368 . S
C1729 C1710 1.429 . S
C1729 C1723 1.429 . S
C1729 C1730 1.523 . S
C1730 C1711 1.368 . S
C1730 C1724 1.368 . S
C1730 C1729 1.523 . S
C1731 C1715 1.429 . S
C1731 C1727 1.429 . S
C1731 C1732 1.523 . S
C1732 C1716 1.368 . S
C1732 C1728 1.368 . S
C1732 C1731 1.523 . S
H1733 C1708 0.950 . S
H1734 C1710 0.950 . S
H1735 C1711 0.949 . S
H1736 C1713 0.950 . S
H1737 C1715 0.950 . S
C1738 C1739 1.349 . S
C1738 C1740 1.327 . S
C1738 H1763 0.950 . S
C1739 C1738 1.349 . S
C1739 C1755 1.349 . S
C1740 C1738 1.327 . S
C1740 C1759 1.429 . S
C1740 H1764 0.950 . S
C1741 C1758 1.574 . S
C1741 C1760 1.368 . S
C1741 H1765 0.949 . S
H1742 C1746 0.949 . S
C1743 C1744 1.349 . S
C1743 C1745 1.327 . S
C1743 H1766 0.950 . S
C1744 C1743 1.349 . S
C1744 C1756 1.349 . S
C1745 C1743 1.327 . S
C1745 C1761 1.429 . S
C1745 H1767 0.950 . S
C1746 H1742 0.949 . S
C1746 C1754 1.574 . S
C1746 C1762 1.368 . S
H1747 C1755 0.950 . S
H1748 C1753 0.950 . S
H1749 C1754 0.949 . S
H1750 C1756 0.950 . S
H1751 C1757 0.950 . S
H1752 C1758 0.949 . S
C1753 H1748 0.950 . S
C1753 C1755 1.327 . S
C1753 C1759 1.429 . S
C1754 C1746 1.574 . S
C1754 H1749 0.949 . S
C1754 C1760 1.368 . S
C1755 C1739 1.349 . S
C1755 H1747 0.950 . S
C1755 C1753 1.327 . S
C1756 C1744 1.349 . S
C1756 H1750 0.950 . S
C1756 C1757 1.327 . S
C1757 H1751 0.950 . S
C1757 C1756 1.327 . S
C1757 C1761 1.429 . S
C1758 C1741 1.574 . S
C1758 H1752 0.949 . S
C1758 C1762 1.368 . S
C1759 C1740 1.429 . S
C1759 C1753 1.429 . S
C1759 C1760 1.523 . S
C1760 C1741 1.368 . S
C1760 C1754 1.368 . S
C1760 C1759 1.523 . S
C1761 C1745 1.429 . S
C1761 C1757 1.429 . S
C1761 C1762 1.523 . S
C1762 C1746 1.368 . S
C1762 C1758 1.368 . S
C1762 C1761 1.523 . S
H1763 C1738 0.950 . S
H1764 C1740 0.950 . S
H1765 C1741 0.949 . S
H1766 C1743 0.950 . S
H1767 C1745 0.950 . S
C1768 C1769 1.349 . S
C1768 C1770 1.327 . S
C1768 H1793 0.950 . S
C1769 C1768 1.349 . S
C1769 C1785 1.349 . S
C1770 C1768 1.327 . S
C1770 C1789 1.429 . S
C1770 H1794 0.950 . S
C1771 C1788 1.574 . S
C1771 C1790 1.368 . S
C1771 H1795 0.949 . S
H1772 C1776 0.949 . S
C1773 C1774 1.349 . S
C1773 C1775 1.327 . S
C1773 H1796 0.950 . S
C1774 C1773 1.349 . S
C1774 C1786 1.349 . S
C1775 C1773 1.327 . S
C1775 C1791 1.429 . S
C1775 H1797 0.950 . S
C1776 H1772 0.949 . S
C1776 C1784 1.574 . S
C1776 C1792 1.368 . S
H1777 C1785 0.950 . S
H1778 C1783 0.950 . S
H1779 C1784 0.949 . S
H1780 C1786 0.950 . S
H1781 C1787 0.950 . S
H1782 C1788 0.949 . S
C1783 H1778 0.950 . S
C1783 C1785 1.327 . S
C1783 C1789 1.429 . S
C1784 C1776 1.574 . S
C1784 H1779 0.949 . S
C1784 C1790 1.368 . S
C1785 C1769 1.349 . S
C1785 H1777 0.950 . S
C1785 C1783 1.327 . S
C1786 C1774 1.349 . S
C1786 H1780 0.950 . S
C1786 C1787 1.327 . S
C1787 H1781 0.950 . S
C1787 C1786 1.327 . S
C1787 C1791 1.429 . S
C1788 C1771 1.574 . S
C1788 H1782 0.949 . S
C1788 C1792 1.368 . S
C1789 C1770 1.429 . S
C1789 C1783 1.429 . S
C1789 C1790 1.523 . S
C1790 C1771 1.368 . S
C1790 C1784 1.368 . S
C1790 C1789 1.523 . S
C1791 C1775 1.429 . S
C1791 C1787 1.429 . S
C1791 C1792 1.523 . S
C1792 C1776 1.368 . S
C1792 C1788 1.368 . S
C1792 C1791 1.523 . S
H1793 C1768 0.950 . S
H1794 C1770 0.950 . S
H1795 C1771 0.949 . S
H1796 C1773 0.950 . S
H1797 C1775 0.950 . S
C364 C187 1.265 . S
C359 C9 1.350 . S
C394 C188 1.601 . S
C389 C22 1.637 . S
C424 C182 0.921 . S
C419 C49 0.929 . S
C449 C61 0.986 . S
C454 C181 0.992 . S
C479 C81 1.637 . S
C484 C184 1.601 . S
C514 C186 0.921 . S
C509 C108 0.929 . S
C539 C122 0.987 . S
C544 C185 0.993 . S
C569 C148 1.350 . S
C574 C183 1.265 . S
C604 C218 2.258 . S
C599 C18 2.217 . S
C629 C39 1.447 . S
C634 C249 1.438 . S
C664 C217 2.089 . S
C659 C58 2.129 . S
C694 C252 0.850 . S
C689 C69 0.855 . S
C719 C89 1.133 . S
C724 C215 1.131 . S
C754 C247 1.373 . S
C749 C102 1.381 . S
C779 C139 1.166 . S
C784 C220 1.172 . S
C809 C142 1.272 . S
C814 C254 1.221 . S
C839 C1 1.273 . S
C844 C250 1.221 . S
C869 C98 1.447 . S
C874 C253 1.440 . S
C904 C221 2.088 . S
C899 C119 2.131 . S
C934 C248 0.850 . S
C929 C128 0.858 . S
C959 C159 2.219 . S
C964 C214 2.260 . S
C989 C41 1.380 . S
C994 C251 1.372 . S
C1024 C216 1.171 . S
C1019 C78 1.164 . S
C1049 C28 1.133 . S
C1054 C219 1.129 . S
C1079 C149 1.354 . S
C1084 C286 1.275 . S
C1109 C82 1.174 . S
C1114 C287 1.137 . S
C1144 C281 0.962 . S
C1139 C109 0.974 . S
C1174 C280 1.522 . S
C1169 C121 1.497 . S
C1199 C21 1.173 . S
C1204 C283 1.136 . S
C1234 C285 0.962 . S
C1229 C48 0.969 . S
C1259 C62 1.496 . S
C1264 C284 1.521 . S
C1289 C8 1.354 . S
C1294 C282 1.273 . S
C1319 C158 2.371 . S
C1324 C320 2.315 . S
C1354 C352 1.167 . S
C1349 C99 1.162 . S
C1379 C118 2.034 . S
C1384 C313 2.048 . S
C1409 C129 1.174 . S
C1414 C347 1.173 . S
C1444 C318 0.875 . S
C1439 C29 0.871 . S
C1469 C42 1.542 . S
C1474 C349 1.488 . S
C1504 C315 1.477 . S
C1499 C79 1.470 . S
C1534 C350 1.239 . S
C1529 C2 1.236 . S
C1564 C346 1.240 . S
C1559 C141 1.236 . S
C1589 C38 1.162 . S
C1594 C348 1.167 . S
C1619 C59 2.033 . S
C1624 C317 2.048 . S
C1654 C351 1.173 . S
C1649 C68 1.174 . S
C1679 C19 2.372 . S
C1684 C316 2.316 . S
C1709 C101 1.542 . S
C1714 C353 1.487 . S
C1744 C319 1.477 . S
C1739 C138 1.469 . S
C1774 C314 0.875 . S
C1769 C88 0.872 . S
